tmp_first_model_7_48.pdb
 OpenBabel08272520323D

 46 48  0  0  0  0  0  0  0  0999 V2000
   -9.8010   -5.8610  -26.7290 C   0  0  0  0  0  0  0  0  0  0  0  0
   -9.4880   -6.4210  -25.3410 C   0  0  0  0  0  0  0  0  0  0  0  0
   -8.9230   -7.8350  -25.4780 C   0  0  0  0  0  0  0  0  0  0  0  0
   -9.5180   -8.4310  -26.1800 H   0  0  0  0  0  0  0  0  0  0  0  0
   -7.8990   -7.8200  -25.8680 H   0  0  0  0  0  0  0  0  0  0  0  0
   -8.9130   -8.3690  -24.5250 H   0  0  0  0  0  0  0  0  0  0  0  0
   -8.5610   -5.4740  -24.5420 C   0  0  0  0  0  0  0  0  0  0  0  0
   -8.0890   -6.0270  -23.2000 C   0  0  0  0  0  0  0  0  0  0  0  0
   -7.1050   -5.0820  -22.5110 C   0  0  0  0  0  0  0  0  0  0  0  0
   -7.5890   -3.6990  -22.4480 N   0  0  0  0  0  0  0  0  0  0  0  0
   -6.7880   -2.7820  -21.8070 C   0  0  0  0  0  0  0  0  0  0  0  0
   -5.5990   -2.9990  -21.6400 O   0  0  0  0  0  0  0  0  0  0  0  0
   -7.4230   -1.4790  -21.2590 C   0  0  0  0  0  0  0  0  0  0  0  0
   -6.5810   -0.8280  -20.1820 C   0  0  0  0  0  0  0  0  0  0  0  0
   -6.8720   -1.0430  -18.8610 C   0  0  0  0  0  0  0  0  0  0  0  0
   -6.1830   -0.5410  -17.8030 N   0  0  0  0  0  0  0  0  0  0  0  0
   -5.1550    0.2240  -18.0670 C   0  0  0  0  0  0  0  0  0  0  0  0
   -4.7180    0.5310  -19.3830 C   0  0  0  0  0  0  0  0  0  0  0  0
   -3.5880    1.3550  -19.6220 C   0  0  0  0  0  0  0  0  0  0  0  0
   -3.1880    1.6330  -20.9000 C   0  0  0  0  0  0  0  0  0  0  0  0
   -3.9030    1.0930  -21.9920 C   0  0  0  0  0  0  0  0  0  0  0  0
   -4.9970    0.2890  -21.7860 C   0  0  0  0  0  0  0  0  0  0  0  0
   -5.4440   -0.0120  -20.4740 C   0  0  0  0  0  0  0  0  0  0  0  0
   -5.5200   -0.1360  -22.6360 H   0  0  0  0  0  0  0  0  0  0  0  0
   -3.5770    1.3160  -23.0030 H   0  0  0  0  0  0  0  0  0  0  0  0
   -2.3280    2.2730  -21.0840 H   0  0  0  0  0  0  0  0  0  0  0  0
   -3.0550    1.7760  -18.7710 H   0  0  0  0  0  0  0  0  0  0  0  0
   -4.6010    0.6280  -17.2170 H   0  0  0  0  0  0  0  0  0  0  0  0
   -7.7190   -1.6690  -18.5840 H   0  0  0  0  0  0  0  0  0  0  0  0
   -7.5850   -0.7750  -22.0860 H   0  0  0  0  0  0  0  0  0  0  0  0
   -8.4180   -1.7020  -20.8440 H   0  0  0  0  0  0  0  0  0  0  0  0
   -8.9320   -3.4500  -22.9500 C   0  0  0  0  0  0  0  0  0  0  0  0
   -9.1900   -4.0800  -24.3270 C   0  0  0  0  0  0  0  0  0  0  0  0
  -10.2760   -4.1290  -24.4570 H   0  0  0  0  0  0  0  0  0  0  0  0
   -8.8330   -3.4000  -25.1070 H   0  0  0  0  0  0  0  0  0  0  0  0
   -9.6810   -3.8220  -22.2380 H   0  0  0  0  0  0  0  0  0  0  0  0
   -9.0850   -2.3720  -23.0270 H   0  0  0  0  0  0  0  0  0  0  0  0
   -6.1430   -5.1050  -23.0350 H   0  0  0  0  0  0  0  0  0  0  0  0
   -6.8990   -5.4480  -21.4970 H   0  0  0  0  0  0  0  0  0  0  0  0
   -7.5890   -6.9910  -23.3350 H   0  0  0  0  0  0  0  0  0  0  0  0
   -8.9460   -6.2340  -22.5520 H   0  0  0  0  0  0  0  0  0  0  0  0
   -7.6550   -5.3390  -25.1480 H   0  0  0  0  0  0  0  0  0  0  0  0
  -10.4360   -6.4950  -24.7980 H   0  0  0  0  0  0  0  0  0  0  0  0
  -10.2940   -4.8860  -26.6900 H   0  0  0  0  0  0  0  0  0  0  0  0
   -8.8830   -5.7480  -27.3170 H   0  0  0  0  0  0  0  0  0  0  0  0
  -10.4580   -6.5390  -27.2860 H   0  0  0  0  0  0  0  0  0  0  0  0
  1  2  1  0  0  0  0
  1 44  1  0  0  0  0
  1 45  1  0  0  0  0
  1 46  1  0  0  0  0
  2  3  1  0  0  0  0
  2  7  1  0  0  0  0
  2 43  1  0  0  0  0
  3  4  1  0  0  0  0
  3  5  1  0  0  0  0
  3  6  1  0  0  0  0
  7  8  1  0  0  0  0
  7 33  1  0  0  0  0
  7 42  1  0  0  0  0
  8  9  1  0  0  0  0
  8 40  1  0  0  0  0
  8 41  1  0  0  0  0
  9 10  1  0  0  0  0
  9 38  1  0  0  0  0
  9 39  1  0  0  0  0
 10 11  1  0  0  0  0
 10 32  1  0  0  0  0
 11 12  2  0  0  0  0
 11 13  1  0  0  0  0
 13 14  1  0  0  0  0
 13 30  1  0  0  0  0
 13 31  1  0  0  0  0
 14 15  2  0  0  0  0
 14 23  1  0  0  0  0
 15 16  1  0  0  0  0
 15 29  1  0  0  0  0
 16 17  2  0  0  0  0
 17 18  1  0  0  0  0
 17 28  1  0  0  0  0
 18 19  2  0  0  0  0
 18 23  1  0  0  0  0
 19 20  1  0  0  0  0
 19 27  1  0  0  0  0
 20 21  2  0  0  0  0
 20 26  1  0  0  0  0
 21 22  1  0  0  0  0
 21 25  1  0  0  0  0
 22 23  2  0  0  0  0
 22 24  1  0  0  0  0
 32 33  1  0  0  0  0
 32 36  1  0  0  0  0
 32 37  1  0  0  0  0
 33 34  1  0  0  0  0
 33 35  1  0  0  0  0
M  END
>  <MODEL>
       1

$$$$
