tmp_first_model_7_96.pdb
 OpenBabel08272520323D

 66 70  0  0  1  0  0  0  0  0999 V2000
   -6.8070    3.4540  -23.0560 C   0  0  0  0  0  0  0  0  0  0  0  0
   -7.4950    2.7500  -24.1240 N   0  0  0  0  0  0  0  0  0  0  0  0
   -6.9760    1.6480  -24.7140 C   0  0  0  0  0  0  0  0  0  0  0  0
   -5.8060    1.3010  -24.6240 O   0  0  0  0  0  0  0  0  0  0  0  0
   -7.9840    0.8100  -25.5170 C   0  0  0  0  0  0  0  0  0  0  0  0
   -8.8740    0.0770  -24.6340 N   0  0  0  0  0  0  0  0  0  0  0  0
   -8.5210   -1.2800  -24.2660 C   0  0  0  0  0  0  0  0  0  0  0  0
   -8.9450   -1.6070  -22.8060 C   0  0  2  0  0  0  0  0  0  0  0  0
   -8.1600   -0.6900  -21.8430 C   0  0  0  0  0  0  0  0  0  0  0  0
   -8.2830    0.5150  -21.7110 O   0  0  0  0  0  0  0  0  0  0  0  0
   -7.2750   -1.4530  -21.1230 N   0  0  0  0  0  0  0  0  0  0  0  0
   -6.4850   -0.8760  -20.0970 C   0  0  0  0  0  0  0  0  0  0  0  0
   -6.7860   -1.1030  -18.7780 C   0  0  0  0  0  0  0  0  0  0  0  0
   -6.1040   -0.5640  -17.7390 N   0  0  0  0  0  0  0  0  0  0  0  0
   -5.0890    0.2170  -18.0190 C   0  0  0  0  0  0  0  0  0  0  0  0
   -4.6600    0.5240  -19.3410 C   0  0  0  0  0  0  0  0  0  0  0  0
   -3.5480    1.3680  -19.6030 C   0  0  0  0  0  0  0  0  0  0  0  0
   -3.1910    1.6730  -20.8880 C   0  0  0  0  0  0  0  0  0  0  0  0
   -3.9300    1.1520  -21.9720 C   0  0  0  0  0  0  0  0  0  0  0  0
   -4.9990    0.3230  -21.7450 C   0  0  0  0  0  0  0  0  0  0  0  0
   -5.3890   -0.0200  -20.4210 C   0  0  0  0  0  0  0  0  0  0  0  0
   -5.5760   -0.0410  -22.5890 H   0  0  0  0  0  0  0  0  0  0  0  0
   -3.6890    1.4220  -22.9950 H   0  0  0  0  0  0  0  0  0  0  0  0
   -2.3520    2.3350  -21.0790 H   0  0  0  0  0  0  0  0  0  0  0  0
   -3.0050    1.7830  -18.7600 H   0  0  0  0  0  0  0  0  0  0  0  0
   -4.5570    0.6540  -17.1760 H   0  0  0  0  0  0  0  0  0  0  0  0
   -7.6360   -1.7340  -18.5140 H   0  0  0  0  0  0  0  0  0  0  0  0
   -7.2240   -2.8470  -21.5080 C   0  0  0  0  0  0  0  0  0  0  0  0
   -8.4960   -3.0230  -22.3690 C   0  0  2  0  0  0  0  0  0  0  0  0
   -8.3270   -4.0370  -23.4940 C   0  0  0  0  0  0  0  0  0  0  0  0
   -8.0500   -5.2840  -22.9020 O   0  0  0  0  0  0  0  0  0  0  0  0
   -7.5300   -6.2470  -23.8010 C   0  0  0  0  0  0  0  0  0  0  0  0
   -8.0720   -7.5940  -23.3700 C   0  0  0  0  0  0  0  0  0  0  0  0
   -9.1590   -7.5890  -23.3920 H   0  0  0  0  0  0  0  0  0  0  0  0
   -7.7430   -7.8310  -22.3530 H   0  0  0  0  0  0  0  0  0  0  0  0
   -7.7270   -8.3610  -24.0600 H   0  0  0  0  0  0  0  0  0  0  0  0
   -6.0080   -6.2110  -23.7770 C   0  0  0  0  0  0  0  0  0  0  0  0
   -5.6000   -6.9570  -24.4670 H   0  0  0  0  0  0  0  0  0  0  0  0
   -5.6630   -6.4430  -22.7650 H   0  0  0  0  0  0  0  0  0  0  0  0
   -5.6160   -5.2270  -24.0560 H   0  0  0  0  0  0  0  0  0  0  0  0
   -7.8930   -6.0290  -24.8190 H   0  0  0  0  0  0  0  0  0  0  0  0
   -7.5100   -3.7350  -24.1730 H   0  0  0  0  0  0  0  0  0  0  0  0
   -9.2420   -4.1050  -24.1080 H   0  0  0  0  0  0  0  0  0  0  0  0
   -9.2570   -3.4280  -21.7050 H   0  0  0  0  0  0  0  0  0  0  0  0
   -6.2970   -3.0870  -22.0560 H   0  0  0  0  0  0  0  0  0  0  0  0
   -7.2430   -3.4790  -20.6170 H   0  0  0  0  0  0  0  0  0  0  0  0
  -10.4330   -1.3060  -22.6860 C   0  0  0  0  0  0  0  0  0  0  0  0
  -11.3520   -2.1020  -21.9840 C   0  0  0  0  0  0  0  0  0  0  0  0
  -12.6860   -1.7240  -21.9410 C   0  0  0  0  0  0  0  0  0  0  0  0
  -13.8370   -2.7460  -21.1260 Cl  0  0  0  0  0  0  0  0  0  0  0  0
  -13.1330   -0.5360  -22.5120 C   0  0  0  0  0  0  0  0  0  0  0  0
  -12.2240    0.2820  -23.1480 C   0  0  0  0  0  0  0  0  0  0  0  0
  -10.8980   -0.1310  -23.2990 C   0  0  0  0  0  0  0  0  0  0  0  0
   -9.9950    0.6940  -24.1760 C   0  0  0  0  0  0  0  0  0  0  0  0
  -10.2570    1.8630  -24.4670 O   0  0  0  0  0  0  0  0  0  0  0  0
  -12.5410    1.2380  -23.5470 H   0  0  0  0  0  0  0  0  0  0  0  0
  -14.1850   -0.2750  -22.4700 H   0  0  0  0  0  0  0  0  0  0  0  0
  -11.0670   -3.0230  -21.4860 H   0  0  0  0  0  0  0  0  0  0  0  0
   -7.4300   -1.3650  -24.3570 H   0  0  0  0  0  0  0  0  0  0  0  0
   -9.0240   -1.9740  -24.9550 H   0  0  0  0  0  0  0  0  0  0  0  0
   -7.4110    0.0930  -26.1110 H   0  0  0  0  0  0  0  0  0  0  0  0
   -8.5990    1.4320  -26.1750 H   0  0  0  0  0  0  0  0  0  0  0  0
   -8.4970    2.8740  -24.2140 H   0  0  0  0  0  0  0  0  0  0  0  0
   -6.4830    2.7570  -22.2680 H   0  0  0  0  0  0  0  0  0  0  0  0
   -7.5040    4.1730  -22.6180 H   0  0  0  0  0  0  0  0  0  0  0  0
   -5.9400    4.0050  -23.4320 H   0  0  0  0  0  0  0  0  0  0  0  0
  1  2  1  0  0  0  0
  1 64  1  0  0  0  0
  1 65  1  0  0  0  0
  1 66  1  0  0  0  0
  2  3  1  0  0  0  0
  2 63  1  0  0  0  0
  3  4  2  0  0  0  0
  3  5  1  0  0  0  0
  5  6  1  0  0  0  0
  5 61  1  0  0  0  0
  5 62  1  0  0  0  0
  6  7  1  0  0  0  0
  6 54  1  0  0  0  0
  7  8  1  0  0  0  0
  7 59  1  0  0  0  0
  7 60  1  0  0  0  0
  8  9  1  1  0  0  0
  8 29  1  0  0  0  0
  8 47  1  0  0  0  0
  9 10  2  0  0  0  0
  9 11  1  0  0  0  0
 11 12  1  0  0  0  0
 11 28  1  0  0  0  0
 12 13  2  0  0  0  0
 12 21  1  0  0  0  0
 13 14  1  0  0  0  0
 13 27  1  0  0  0  0
 14 15  2  0  0  0  0
 15 16  1  0  0  0  0
 15 26  1  0  0  0  0
 16 17  2  0  0  0  0
 16 21  1  0  0  0  0
 17 18  1  0  0  0  0
 17 25  1  0  0  0  0
 18 19  2  0  0  0  0
 18 24  1  0  0  0  0
 19 20  1  0  0  0  0
 19 23  1  0  0  0  0
 20 21  2  0  0  0  0
 20 22  1  0  0  0  0
 28 29  1  0  0  0  0
 28 45  1  0  0  0  0
 28 46  1  0  0  0  0
 29 30  1  0  0  0  0
 29 44  1  1  0  0  0
 30 31  1  0  0  0  0
 30 42  1  0  0  0  0
 30 43  1  0  0  0  0
 31 32  1  0  0  0  0
 32 33  1  0  0  0  0
 32 37  1  0  0  0  0
 32 41  1  0  0  0  0
 33 34  1  0  0  0  0
 33 35  1  0  0  0  0
 33 36  1  0  0  0  0
 37 38  1  0  0  0  0
 37 39  1  0  0  0  0
 37 40  1  0  0  0  0
 47 48  2  0  0  0  0
 47 53  1  0  0  0  0
 48 49  1  0  0  0  0
 48 58  1  0  0  0  0
 49 50  1  0  0  0  0
 49 51  2  0  0  0  0
 51 52  1  0  0  0  0
 51 57  1  0  0  0  0
 52 53  2  0  0  0  0
 52 56  1  0  0  0  0
 53 54  1  0  0  0  0
 54 55  2  0  0  0  0
M  END
>  <MODEL>
       1

$$$$
