tmp_first_model_17_67.pdb
 OpenBabel08282502223D

 58 63  0  0  1  0  0  0  0  0999 V2000
   -6.4890   -0.2670  -30.5850 C   0  0  0  0  0  0  0  0  0  0  0  0
   -6.3810   -0.2720  -29.0890 C   0  0  0  0  0  0  0  0  0  0  0  0
   -7.0830    0.5870  -28.1960 C   0  0  0  0  0  0  0  0  0  0  0  0
   -6.6720    0.1810  -26.9680 C   0  0  0  0  0  0  0  0  0  0  0  0
   -7.0420    0.6480  -25.5900 C   0  0  0  0  0  0  0  0  0  0  0  0
   -8.1530   -0.0520  -24.9920 N   0  0  0  0  0  0  0  0  0  0  0  0
   -7.9530   -1.3750  -24.4550 C   0  0  0  0  0  0  0  0  0  0  0  0
   -8.7570   -1.5210  -23.1470 C   0  0  2  0  0  0  0  0  0  0  0  0
   -8.1300   -0.6000  -22.0740 C   0  0  0  0  0  0  0  0  0  0  0  0
   -8.2030    0.6080  -22.0150 O   0  0  0  0  0  0  0  0  0  0  0  0
   -7.4220   -1.3780  -21.1860 N   0  0  0  0  0  0  0  0  0  0  0  0
   -6.6070   -0.8100  -20.1750 C   0  0  0  0  0  0  0  0  0  0  0  0
   -6.8980   -1.0550  -18.8570 C   0  0  0  0  0  0  0  0  0  0  0  0
   -6.2040   -0.5530  -17.8080 N   0  0  0  0  0  0  0  0  0  0  0  0
   -5.1710    0.2090  -18.0800 C   0  0  0  0  0  0  0  0  0  0  0  0
   -4.7370    0.5270  -19.3980 C   0  0  0  0  0  0  0  0  0  0  0  0
   -3.6050    1.3550  -19.6320 C   0  0  0  0  0  0  0  0  0  0  0  0
   -3.1990    1.6290  -20.9090 C   0  0  0  0  0  0  0  0  0  0  0  0
   -3.8970    1.0770  -22.0060 C   0  0  0  0  0  0  0  0  0  0  0  0
   -4.9880    0.2720  -21.8050 C   0  0  0  0  0  0  0  0  0  0  0  0
   -5.4610   -0.0050  -20.4880 C   0  0  0  0  0  0  0  0  0  0  0  0
   -5.5120   -0.1520  -22.6560 H   0  0  0  0  0  0  0  0  0  0  0  0
   -3.5530    1.2910  -23.0140 H   0  0  0  0  0  0  0  0  0  0  0  0
   -2.3330    2.2610  -21.0880 H   0  0  0  0  0  0  0  0  0  0  0  0
   -3.0750    1.7630  -18.7750 H   0  0  0  0  0  0  0  0  0  0  0  0
   -4.6240    0.6150  -17.2310 H   0  0  0  0  0  0  0  0  0  0  0  0
   -7.7480   -1.6850  -18.6010 H   0  0  0  0  0  0  0  0  0  0  0  0
   -7.4480   -2.7960  -21.4950 C   0  0  0  0  0  0  0  0  0  0  0  0
   -8.5850   -2.9420  -22.5290 C   0  0  2  0  0  0  0  0  0  0  0  0
   -8.3400   -4.0970  -23.5120 C   0  0  0  0  0  0  0  0  0  0  0  0
   -8.3000   -5.0560  -22.9820 H   0  0  0  0  0  0  0  0  0  0  0  0
   -7.3860   -3.9720  -24.0410 H   0  0  0  0  0  0  0  0  0  0  0  0
   -9.1300   -4.1660  -24.2710 H   0  0  0  0  0  0  0  0  0  0  0  0
   -9.5100   -3.1510  -21.9840 H   0  0  0  0  0  0  0  0  0  0  0  0
   -7.6290   -3.3780  -20.5860 H   0  0  0  0  0  0  0  0  0  0  0  0
   -6.4840   -3.1230  -21.9160 H   0  0  0  0  0  0  0  0  0  0  0  0
  -10.1860   -1.0740  -23.4130 C   0  0  0  0  0  0  0  0  0  0  0  0
  -11.1970   -1.4160  -22.5080 C   0  0  0  0  0  0  0  0  0  0  0  0
  -12.4910   -1.0100  -22.7530 C   0  0  0  0  0  0  0  0  0  0  0  0
  -13.4610   -1.4090  -21.9170 F   0  0  0  0  0  0  0  0  0  0  0  0
  -12.8330   -0.2160  -23.8420 C   0  0  0  0  0  0  0  0  0  0  0  0
  -11.8270    0.1820  -24.7030 C   0  0  0  0  0  0  0  0  0  0  0  0
  -10.5060   -0.2170  -24.4800 C   0  0  0  0  0  0  0  0  0  0  0  0
   -9.4180    0.3320  -25.3510 C   0  0  0  0  0  0  0  0  0  0  0  0
   -9.6060    1.0750  -26.2990 O   0  0  0  0  0  0  0  0  0  0  0  0
  -12.0390    0.8170  -25.5560 H   0  0  0  0  0  0  0  0  0  0  0  0
  -13.8680    0.0760  -23.9700 H   0  0  0  0  0  0  0  0  0  0  0  0
  -11.0010   -1.9830  -21.6040 H   0  0  0  0  0  0  0  0  0  0  0  0
   -8.2980   -2.1320  -25.1820 H   0  0  0  0  0  0  0  0  0  0  0  0
   -6.8810   -1.5140  -24.2730 H   0  0  0  0  0  0  0  0  0  0  0  0
   -6.1800    0.5800  -24.9180 H   0  0  0  0  0  0  0  0  0  0  0  0
   -7.3570    1.6880  -25.6690 H   0  0  0  0  0  0  0  0  0  0  0  0
   -5.7810   -0.8070  -27.0940 O   0  0  0  0  0  0  0  0  0  0  0  0
   -5.6000   -1.0970  -28.4350 N   0  0  0  0  0  0  0  0  0  0  0  0
   -7.8140    1.3490  -28.4240 H   0  0  0  0  0  0  0  0  0  0  0  0
   -7.5140   -0.0100  -30.8700 H   0  0  0  0  0  0  0  0  0  0  0  0
   -6.2270   -1.2360  -31.0240 H   0  0  0  0  0  0  0  0  0  0  0  0
   -5.8310    0.5020  -31.0050 H   0  0  0  0  0  0  0  0  0  0  0  0
  1  2  1  0  0  0  0
  1 56  1  0  0  0  0
  1 57  1  0  0  0  0
  1 58  1  0  0  0  0
  2  3  1  0  0  0  0
  2 54  2  0  0  0  0
  3  4  2  0  0  0  0
  3 55  1  0  0  0  0
  4  5  1  0  0  0  0
  4 53  1  0  0  0  0
  5  6  1  0  0  0  0
  5 51  1  0  0  0  0
  5 52  1  0  0  0  0
  6  7  1  0  0  0  0
  6 44  1  0  0  0  0
  7  8  1  0  0  0  0
  7 49  1  0  0  0  0
  7 50  1  0  0  0  0
  8  9  1  1  0  0  0
  8 29  1  0  0  0  0
  8 37  1  0  0  0  0
  9 10  2  0  0  0  0
  9 11  1  0  0  0  0
 11 12  1  0  0  0  0
 11 28  1  0  0  0  0
 12 13  2  0  0  0  0
 12 21  1  0  0  0  0
 13 14  1  0  0  0  0
 13 27  1  0  0  0  0
 14 15  2  0  0  0  0
 15 16  1  0  0  0  0
 15 26  1  0  0  0  0
 16 17  2  0  0  0  0
 16 21  1  0  0  0  0
 17 18  1  0  0  0  0
 17 25  1  0  0  0  0
 18 19  2  0  0  0  0
 18 24  1  0  0  0  0
 19 20  1  0  0  0  0
 19 23  1  0  0  0  0
 20 21  2  0  0  0  0
 20 22  1  0  0  0  0
 28 29  1  0  0  0  0
 28 35  1  0  0  0  0
 28 36  1  0  0  0  0
 29 30  1  0  0  0  0
 29 34  1  1  0  0  0
 30 31  1  0  0  0  0
 30 32  1  0  0  0  0
 30 33  1  0  0  0  0
 37 38  2  0  0  0  0
 37 43  1  0  0  0  0
 38 39  1  0  0  0  0
 38 48  1  0  0  0  0
 39 40  1  0  0  0  0
 39 41  2  0  0  0  0
 41 42  1  0  0  0  0
 41 47  1  0  0  0  0
 42 43  2  0  0  0  0
 42 46  1  0  0  0  0
 43 44  1  0  0  0  0
 44 45  2  0  0  0  0
 53 54  1  0  0  0  0
M  END
>  <MODEL>
       1

$$$$
