tmp_first_model_3_82.pdb
 OpenBabel08272518143D

 54 57  0  0  1  0  0  0  0  0999 V2000
  -10.7320    0.3870  -25.3980 C   0  0  0  0  0  0  0  0  0  0  0  0
   -9.8360   -0.5990  -24.9270 O   0  0  0  0  0  0  0  0  0  0  0  0
   -8.5020   -0.5200  -25.2210 C   0  0  0  0  0  0  0  0  0  0  0  0
   -7.9450    0.5090  -25.9870 C   0  0  0  0  0  0  0  0  0  0  0  0
   -6.5730    0.5270  -26.2370 C   0  0  0  0  0  0  0  0  0  0  0  0
   -5.7480   -0.4650  -25.7280 C   0  0  0  0  0  0  0  0  0  0  0  0
   -6.3160   -1.4740  -24.9540 C   0  0  0  0  0  0  0  0  0  0  0  0
   -7.6790   -1.5420  -24.6900 C   0  0  0  0  0  0  0  0  0  0  0  0
   -8.2980   -2.6710  -23.8510 C   0  0  1  0  0  0  0  0  0  0  0  0
   -9.1410   -3.6540  -24.6920 C   0  0  0  0  0  0  0  0  0  0  0  0
   -8.4100   -4.8640  -25.2720 C   0  0  1  0  0  0  0  0  0  0  0  0
   -7.5090   -4.5370  -26.4630 C   0  0  0  0  0  0  0  0  0  0  0  0
   -6.6830   -3.8740  -26.1900 H   0  0  0  0  0  0  0  0  0  0  0  0
   -7.0750   -5.4500  -26.8900 H   0  0  0  0  0  0  0  0  0  0  0  0
   -8.0720   -4.0330  -27.2550 H   0  0  0  0  0  0  0  0  0  0  0  0
   -7.6720   -5.5500  -24.1290 C   0  0  0  0  0  0  0  0  0  0  0  0
   -6.7090   -4.6180  -23.4090 C   0  0  0  0  0  0  0  0  0  0  0  0
   -7.3470   -3.3680  -22.9710 N   0  0  0  0  0  0  0  0  0  0  0  0
   -6.7450   -2.7410  -21.8870 C   0  0  0  0  0  0  0  0  0  0  0  0
   -5.7260   -3.1890  -21.3900 O   0  0  0  0  0  0  0  0  0  0  0  0
   -7.4030   -1.4740  -21.2820 C   0  0  0  0  0  0  0  0  0  0  0  0
   -6.5760   -0.8360  -20.1850 C   0  0  0  0  0  0  0  0  0  0  0  0
   -6.8720   -1.0480  -18.8650 C   0  0  0  0  0  0  0  0  0  0  0  0
   -6.1930   -0.5390  -17.7990 N   0  0  0  0  0  0  0  0  0  0  0  0
   -5.1600    0.2220  -18.0660 C   0  0  0  0  0  0  0  0  0  0  0  0
   -4.7210    0.5280  -19.3820 C   0  0  0  0  0  0  0  0  0  0  0  0
   -3.5930    1.3540  -19.6240 C   0  0  0  0  0  0  0  0  0  0  0  0
   -3.1940    1.6320  -20.9010 C   0  0  0  0  0  0  0  0  0  0  0  0
   -3.9070    1.0900  -21.9950 C   0  0  0  0  0  0  0  0  0  0  0  0
   -5.0030    0.2860  -21.7910 C   0  0  0  0  0  0  0  0  0  0  0  0
   -5.4450   -0.0150  -20.4770 C   0  0  0  0  0  0  0  0  0  0  0  0
   -5.5430   -0.1200  -22.6450 H   0  0  0  0  0  0  0  0  0  0  0  0
   -3.5850    1.3200  -23.0060 H   0  0  0  0  0  0  0  0  0  0  0  0
   -2.3330    2.2730  -21.0870 H   0  0  0  0  0  0  0  0  0  0  0  0
   -3.0600    1.7730  -18.7720 H   0  0  0  0  0  0  0  0  0  0  0  0
   -4.6050    0.6280  -17.2160 H   0  0  0  0  0  0  0  0  0  0  0  0
   -7.7210   -1.6720  -18.5860 H   0  0  0  0  0  0  0  0  0  0  0  0
   -7.6280   -0.7400  -22.0680 H   0  0  0  0  0  0  0  0  0  0  0  0
   -8.3740   -1.7760  -20.8620 H   0  0  0  0  0  0  0  0  0  0  0  0
   -6.3150   -5.1120  -22.5190 H   0  0  0  0  0  0  0  0  0  0  0  0
   -5.8290   -4.4360  -24.0460 H   0  0  0  0  0  0  0  0  0  0  0  0
   -8.4010   -5.9330  -23.4090 H   0  0  0  0  0  0  0  0  0  0  0  0
   -7.1270   -6.4210  -24.5070 H   0  0  0  0  0  0  0  0  0  0  0  0
   -9.1800   -5.5590  -25.6450 H   0  0  0  0  0  0  0  0  0  0  0  0
   -9.6140   -3.0900  -25.4970 H   0  0  0  0  0  0  0  0  0  0  0  0
   -9.9590   -4.0200  -24.0600 H   0  0  0  0  0  0  0  0  0  0  0  0
   -9.0170   -2.1800  -23.1890 H   0  0  0  0  0  0  0  0  0  0  0  0
   -5.6680   -2.2510  -24.5660 H   0  0  0  0  0  0  0  0  0  0  0  0
   -4.6760   -0.4610  -25.9170 H   0  0  0  0  0  0  0  0  0  0  0  0
   -6.1420    1.3280  -26.8290 H   0  0  0  0  0  0  0  0  0  0  0  0
   -8.5700    1.3020  -26.3910 H   0  0  0  0  0  0  0  0  0  0  0  0
  -11.7120    0.0950  -25.0260 H   0  0  0  0  0  0  0  0  0  0  0  0
  -10.7940    0.4370  -26.4920 H   0  0  0  0  0  0  0  0  0  0  0  0
  -10.5200    1.3940  -25.0180 H   0  0  0  0  0  0  0  0  0  0  0  0
  1  2  1  0  0  0  0
  1 52  1  0  0  0  0
  1 53  1  0  0  0  0
  1 54  1  0  0  0  0
  2  3  1  0  0  0  0
  3  4  2  0  0  0  0
  3  8  1  0  0  0  0
  4  5  1  0  0  0  0
  4 51  1  0  0  0  0
  5  6  2  0  0  0  0
  5 50  1  0  0  0  0
  6  7  1  0  0  0  0
  6 49  1  0  0  0  0
  7  8  2  0  0  0  0
  7 48  1  0  0  0  0
  8  9  1  0  0  0  0
  9 10  1  0  0  0  0
  9 18  1  0  0  0  0
  9 47  1  1  0  0  0
 10 11  1  0  0  0  0
 10 45  1  0  0  0  0
 10 46  1  0  0  0  0
 11 12  1  0  0  0  0
 11 16  1  0  0  0  0
 11 44  1  6  0  0  0
 12 13  1  0  0  0  0
 12 14  1  0  0  0  0
 12 15  1  0  0  0  0
 16 17  1  0  0  0  0
 16 42  1  0  0  0  0
 16 43  1  0  0  0  0
 17 18  1  0  0  0  0
 17 40  1  0  0  0  0
 17 41  1  0  0  0  0
 18 19  1  0  0  0  0
 19 20  2  0  0  0  0
 19 21  1  0  0  0  0
 21 22  1  0  0  0  0
 21 38  1  0  0  0  0
 21 39  1  0  0  0  0
 22 23  2  0  0  0  0
 22 31  1  0  0  0  0
 23 24  1  0  0  0  0
 23 37  1  0  0  0  0
 24 25  2  0  0  0  0
 25 26  1  0  0  0  0
 25 36  1  0  0  0  0
 26 27  2  0  0  0  0
 26 31  1  0  0  0  0
 27 28  1  0  0  0  0
 27 35  1  0  0  0  0
 28 29  2  0  0  0  0
 28 34  1  0  0  0  0
 29 30  1  0  0  0  0
 29 33  1  0  0  0  0
 30 31  2  0  0  0  0
 30 32  1  0  0  0  0
M  END
>  <MODEL>
       1

$$$$
