tmp_first_model_13_6.pdb
 OpenBabel08282500103D

 43 45  0  0  0  0  0  0  0  0999 V2000
   -9.2650   -8.1560  -25.0160 C   0  0  0  0  0  0  0  0  0  0  0  0
   -9.3270   -6.6220  -25.1490 C   0  0  0  0  0  0  0  0  0  0  0  0
   -8.9940   -5.8150  -23.8800 C   0  0  0  0  0  0  0  0  0  0  0  0
   -7.5420   -5.9840  -23.4280 C   0  0  0  0  0  0  0  0  0  0  0  0
   -7.2580   -5.1640  -22.1750 C   0  0  0  0  0  0  0  0  0  0  0  0
   -7.6210   -3.7590  -22.3210 N   0  0  0  0  0  0  0  0  0  0  0  0
   -6.7870   -2.8180  -21.7620 C   0  0  0  0  0  0  0  0  0  0  0  0
   -5.5900   -3.0300  -21.6340 O   0  0  0  0  0  0  0  0  0  0  0  0
   -7.4100   -1.4930  -21.2630 C   0  0  0  0  0  0  0  0  0  0  0  0
   -6.5810   -0.8320  -20.1860 C   0  0  0  0  0  0  0  0  0  0  0  0
   -6.8750   -1.0460  -18.8650 C   0  0  0  0  0  0  0  0  0  0  0  0
   -6.1860   -0.5390  -17.8110 N   0  0  0  0  0  0  0  0  0  0  0  0
   -5.1540    0.2200  -18.0740 C   0  0  0  0  0  0  0  0  0  0  0  0
   -4.7200    0.5290  -19.3900 C   0  0  0  0  0  0  0  0  0  0  0  0
   -3.5910    1.3560  -19.6230 C   0  0  0  0  0  0  0  0  0  0  0  0
   -3.1880    1.6320  -20.9030 C   0  0  0  0  0  0  0  0  0  0  0  0
   -3.9000    1.0840  -21.9950 C   0  0  0  0  0  0  0  0  0  0  0  0
   -4.9930    0.2800  -21.7910 C   0  0  0  0  0  0  0  0  0  0  0  0
   -5.4430   -0.0150  -20.4770 C   0  0  0  0  0  0  0  0  0  0  0  0
   -5.5180   -0.1520  -22.6370 H   0  0  0  0  0  0  0  0  0  0  0  0
   -3.5800    1.3050  -23.0080 H   0  0  0  0  0  0  0  0  0  0  0  0
   -2.3320    2.2730  -21.0810 H   0  0  0  0  0  0  0  0  0  0  0  0
   -3.0700    1.7660  -18.7630 H   0  0  0  0  0  0  0  0  0  0  0  0
   -4.6110    0.6260  -17.2210 H   0  0  0  0  0  0  0  0  0  0  0  0
   -7.7230   -1.6680  -18.5780 H   0  0  0  0  0  0  0  0  0  0  0  0
   -7.5600   -0.8130  -22.1140 H   0  0  0  0  0  0  0  0  0  0  0  0
   -8.4110   -1.7070  -20.8630 H   0  0  0  0  0  0  0  0  0  0  0  0
   -8.9710   -3.5060  -22.7980 C   0  0  0  0  0  0  0  0  0  0  0  0
   -9.2630   -4.3150  -24.0680 C   0  0  0  0  0  0  0  0  0  0  0  0
   -8.6460   -3.9410  -24.9000 H   0  0  0  0  0  0  0  0  0  0  0  0
  -10.3140   -4.1620  -24.3440 H   0  0  0  0  0  0  0  0  0  0  0  0
   -9.7150   -3.7720  -22.0240 H   0  0  0  0  0  0  0  0  0  0  0  0
   -9.0680   -2.4360  -23.0050 H   0  0  0  0  0  0  0  0  0  0  0  0
   -7.8360   -5.6190  -21.3550 H   0  0  0  0  0  0  0  0  0  0  0  0
   -6.2020   -5.1740  -21.9050 H   0  0  0  0  0  0  0  0  0  0  0  0
   -6.8640   -5.6870  -24.2420 H   0  0  0  0  0  0  0  0  0  0  0  0
   -7.3480   -7.0390  -23.1960 H   0  0  0  0  0  0  0  0  0  0  0  0
   -9.6470   -6.1610  -23.0640 H   0  0  0  0  0  0  0  0  0  0  0  0
  -10.3090   -6.2910  -25.5110 H   0  0  0  0  0  0  0  0  0  0  0  0
   -8.6130   -6.3090  -25.9300 H   0  0  0  0  0  0  0  0  0  0  0  0
   -9.8670   -8.5920  -24.2100 H   0  0  0  0  0  0  0  0  0  0  0  0
   -8.2330   -8.4600  -24.8350 H   0  0  0  0  0  0  0  0  0  0  0  0
   -9.5910   -8.6350  -25.9470 H   0  0  0  0  0  0  0  0  0  0  0  0
  1  2  1  0  0  0  0
  1 41  1  0  0  0  0
  1 42  1  0  0  0  0
  1 43  1  0  0  0  0
  2  3  1  0  0  0  0
  2 39  1  0  0  0  0
  2 40  1  0  0  0  0
  3  4  1  0  0  0  0
  3 29  1  0  0  0  0
  3 38  1  0  0  0  0
  4  5  1  0  0  0  0
  4 36  1  0  0  0  0
  4 37  1  0  0  0  0
  5  6  1  0  0  0  0
  5 34  1  0  0  0  0
  5 35  1  0  0  0  0
  6  7  1  0  0  0  0
  6 28  1  0  0  0  0
  7  8  2  0  0  0  0
  7  9  1  0  0  0  0
  9 10  1  0  0  0  0
  9 26  1  0  0  0  0
  9 27  1  0  0  0  0
 10 11  2  0  0  0  0
 10 19  1  0  0  0  0
 11 12  1  0  0  0  0
 11 25  1  0  0  0  0
 12 13  2  0  0  0  0
 13 14  1  0  0  0  0
 13 24  1  0  0  0  0
 14 15  2  0  0  0  0
 14 19  1  0  0  0  0
 15 16  1  0  0  0  0
 15 23  1  0  0  0  0
 16 17  2  0  0  0  0
 16 22  1  0  0  0  0
 17 18  1  0  0  0  0
 17 21  1  0  0  0  0
 18 19  2  0  0  0  0
 18 20  1  0  0  0  0
 28 29  1  0  0  0  0
 28 32  1  0  0  0  0
 28 33  1  0  0  0  0
 29 30  1  0  0  0  0
 29 31  1  0  0  0  0
M  END
>  <MODEL>
       1

$$$$
