tmp_first_model_11_74.pdb
 OpenBabel08272522543D

 43 47  0  0  1  0  0  0  0  0999 V2000
   -9.4230   -0.4510  -20.9900 O   0  0  0  0  0  0  0  0  0  0  0  0
   -8.7430   -1.3650  -21.3800 C   0  0  0  0  0  0  0  0  0  0  0  0
   -9.1360   -2.4510  -22.1160 N   0  0  0  0  0  0  0  0  0  0  0  0
   -8.0390   -3.1470  -22.7410 C   0  0  1  0  0  0  0  0  0  0  0  0
   -8.1050   -4.6900  -22.7170 C   0  0  0  0  0  0  0  0  0  0  0  0
   -8.2240   -4.7230  -24.2750 C   0  0  2  0  0  0  0  0  0  0  0  0
   -7.1760   -5.5220  -24.9860 C   0  0  0  0  0  0  0  0  0  0  0  0
   -5.8200   -5.2770  -24.7410 C   0  0  0  0  0  0  0  0  0  0  0  0
   -4.8300   -6.0100  -25.3850 C   0  0  0  0  0  0  0  0  0  0  0  0
   -5.1800   -7.0110  -26.2890 C   0  0  0  0  0  0  0  0  0  0  0  0
   -6.5190   -7.2750  -26.5440 C   0  0  0  0  0  0  0  0  0  0  0  0
   -7.4970   -6.5330  -25.8920 C   0  0  0  0  0  0  0  0  0  0  0  0
   -9.1670   -6.9150  -26.2490 Cl  0  0  0  0  0  0  0  0  0  0  0  0
   -6.8250   -8.0480  -27.2430 H   0  0  0  0  0  0  0  0  0  0  0  0
   -4.4100   -7.5880  -26.7960 H   0  0  0  0  0  0  0  0  0  0  0  0
   -3.7860   -5.7970  -25.1730 H   0  0  0  0  0  0  0  0  0  0  0  0
   -5.5450   -4.4980  -24.0260 H   0  0  0  0  0  0  0  0  0  0  0  0
   -8.0350   -3.1710  -24.2990 C   0  0  0  0  0  0  0  0  0  0  0  0
   -8.8560   -2.6040  -24.7510 H   0  0  0  0  0  0  0  0  0  0  0  0
   -7.0970   -2.8280  -24.7550 H   0  0  0  0  0  0  0  0  0  0  0  0
   -9.2250   -5.0200  -24.6020 H   0  0  0  0  0  0  0  0  0  0  0  0
   -8.9680   -5.0690  -22.1630 H   0  0  0  0  0  0  0  0  0  0  0  0
   -7.1910   -5.1490  -22.3200 H   0  0  0  0  0  0  0  0  0  0  0  0
   -6.8390   -2.5160  -22.0530 C   0  0  0  0  0  0  0  0  0  0  0  0
   -5.6780   -2.8040  -22.2310 O   0  0  0  0  0  0  0  0  0  0  0  0
   -7.3400   -1.5190  -21.2050 N   0  0  0  0  0  0  0  0  0  0  0  0
   -6.5840   -0.8590  -20.1870 C   0  0  0  0  0  0  0  0  0  0  0  0
   -6.9100   -1.0590  -18.8670 C   0  0  0  0  0  0  0  0  0  0  0  0
   -6.2170   -0.5420  -17.8230 N   0  0  0  0  0  0  0  0  0  0  0  0
   -5.1790    0.2070  -18.0970 C   0  0  0  0  0  0  0  0  0  0  0  0
   -4.7450    0.5210  -19.4120 C   0  0  0  0  0  0  0  0  0  0  0  0
   -3.6140    1.3520  -19.6390 C   0  0  0  0  0  0  0  0  0  0  0  0
   -3.2250    1.6570  -20.9130 C   0  0  0  0  0  0  0  0  0  0  0  0
   -3.9560    1.1440  -22.0080 C   0  0  0  0  0  0  0  0  0  0  0  0
   -5.0500    0.3370  -21.8140 C   0  0  0  0  0  0  0  0  0  0  0  0
   -5.4690   -0.0130  -20.5000 C   0  0  0  0  0  0  0  0  0  0  0  0
   -5.5990   -0.0510  -22.6660 H   0  0  0  0  0  0  0  0  0  0  0  0
   -3.6480    1.3970  -23.0170 H   0  0  0  0  0  0  0  0  0  0  0  0
   -2.3700    2.3050  -21.0890 H   0  0  0  0  0  0  0  0  0  0  0  0
   -3.0850    1.7550  -18.7810 H   0  0  0  0  0  0  0  0  0  0  0  0
   -4.6270    0.6090  -17.2480 H   0  0  0  0  0  0  0  0  0  0  0  0
   -7.7560   -1.6850  -18.5970 H   0  0  0  0  0  0  0  0  0  0  0  0
  -10.1000   -2.6070  -22.3620 H   0  0  0  0  0  0  0  0  0  0  0  0
  1  2  2  0  0  0  0
  2  3  1  0  0  0  0
  2 26  1  0  0  0  0
  3  4  1  0  0  0  0
  3 43  1  0  0  0  0
  4  5  1  0  0  0  0
  4 18  1  0  0  0  0
  4 24  1  1  0  0  0
  5  6  1  0  0  0  0
  5 22  1  0  0  0  0
  5 23  1  0  0  0  0
  6  7  1  0  0  0  0
  6 18  1  0  0  0  0
  6 21  1  6  0  0  0
  7  8  2  0  0  0  0
  7 12  1  0  0  0  0
  8  9  1  0  0  0  0
  8 17  1  0  0  0  0
  9 10  2  0  0  0  0
  9 16  1  0  0  0  0
 10 11  1  0  0  0  0
 10 15  1  0  0  0  0
 11 12  2  0  0  0  0
 11 14  1  0  0  0  0
 12 13  1  0  0  0  0
 18 19  1  0  0  0  0
 18 20  1  0  0  0  0
 24 25  2  0  0  0  0
 24 26  1  0  0  0  0
 26 27  1  0  0  0  0
 27 28  2  0  0  0  0
 27 36  1  0  0  0  0
 28 29  1  0  0  0  0
 28 42  1  0  0  0  0
 29 30  2  0  0  0  0
 30 31  1  0  0  0  0
 30 41  1  0  0  0  0
 31 32  2  0  0  0  0
 31 36  1  0  0  0  0
 32 33  1  0  0  0  0
 32 40  1  0  0  0  0
 33 34  2  0  0  0  0
 33 39  1  0  0  0  0
 34 35  1  0  0  0  0
 34 38  1  0  0  0  0
 35 36  2  0  0  0  0
 35 37  1  0  0  0  0
M  END
>  <MODEL>
       1

$$$$
