tmp_first_model_18_48.pdb
 OpenBabel08282502533D

 46 48  0  0  0  0  0  0  0  0999 V2000
   -8.3080   -6.5780  -26.1140 C   0  0  0  0  0  0  0  0  0  0  0  0
   -9.4000   -6.5170  -25.0550 C   0  0  0  0  0  0  0  0  0  0  0  0
  -10.7690   -6.4140  -25.7240 C   0  0  0  0  0  0  0  0  0  0  0  0
  -11.5810   -6.3840  -24.9910 H   0  0  0  0  0  0  0  0  0  0  0  0
  -10.9180   -7.2880  -26.3660 H   0  0  0  0  0  0  0  0  0  0  0  0
  -10.8600   -5.5120  -26.3420 H   0  0  0  0  0  0  0  0  0  0  0  0
   -9.2080   -5.4440  -23.9650 C   0  0  0  0  0  0  0  0  0  0  0  0
   -9.0310   -3.9900  -24.4350 C   0  0  0  0  0  0  0  0  0  0  0  0
   -8.7320   -3.1200  -23.2090 C   0  0  0  0  0  0  0  0  0  0  0  0
   -7.4350   -3.5210  -22.6500 N   0  0  0  0  0  0  0  0  0  0  0  0
   -6.7130   -2.7790  -21.7630 C   0  0  0  0  0  0  0  0  0  0  0  0
   -5.6040   -3.1180  -21.3740 O   0  0  0  0  0  0  0  0  0  0  0  0
   -7.3810   -1.5000  -21.2620 C   0  0  0  0  0  0  0  0  0  0  0  0
   -6.5930   -0.8540  -20.1710 C   0  0  0  0  0  0  0  0  0  0  0  0
   -6.9100   -1.0790  -18.8610 C   0  0  0  0  0  0  0  0  0  0  0  0
   -6.2440   -0.5670  -17.7920 N   0  0  0  0  0  0  0  0  0  0  0  0
   -5.2100    0.1970  -18.0630 C   0  0  0  0  0  0  0  0  0  0  0  0
   -4.7500    0.4910  -19.3750 C   0  0  0  0  0  0  0  0  0  0  0  0
   -3.6290    1.3300  -19.6100 C   0  0  0  0  0  0  0  0  0  0  0  0
   -3.2250    1.5990  -20.8890 C   0  0  0  0  0  0  0  0  0  0  0  0
   -3.9110    1.0430  -21.9860 C   0  0  0  0  0  0  0  0  0  0  0  0
   -4.9970    0.2240  -21.7880 C   0  0  0  0  0  0  0  0  0  0  0  0
   -5.4520   -0.0580  -20.4700 C   0  0  0  0  0  0  0  0  0  0  0  0
   -5.5000   -0.2080  -22.6450 H   0  0  0  0  0  0  0  0  0  0  0  0
   -3.5850    1.2740  -22.9970 H   0  0  0  0  0  0  0  0  0  0  0  0
   -2.3750    2.2540  -21.0660 H   0  0  0  0  0  0  0  0  0  0  0  0
   -3.1160    1.7600  -18.7550 H   0  0  0  0  0  0  0  0  0  0  0  0
   -4.6780    0.6230  -17.2120 H   0  0  0  0  0  0  0  0  0  0  0  0
   -7.7630   -1.7130  -18.6180 H   0  0  0  0  0  0  0  0  0  0  0  0
   -8.3800   -1.7640  -20.8940 H   0  0  0  0  0  0  0  0  0  0  0  0
   -7.5040   -0.8050  -22.1010 H   0  0  0  0  0  0  0  0  0  0  0  0
   -6.9200   -4.8400  -23.0000 C   0  0  0  0  0  0  0  0  0  0  0  0
   -8.0770   -5.8240  -22.9800 C   0  0  0  0  0  0  0  0  0  0  0  0
   -7.7010   -6.8330  -23.1700 H   0  0  0  0  0  0  0  0  0  0  0  0
   -8.4740   -5.8310  -21.9570 H   0  0  0  0  0  0  0  0  0  0  0  0
   -6.1670   -5.1110  -22.2580 H   0  0  0  0  0  0  0  0  0  0  0  0
   -6.4140   -4.8120  -23.9790 H   0  0  0  0  0  0  0  0  0  0  0  0
   -8.7230   -2.0570  -23.4780 H   0  0  0  0  0  0  0  0  0  0  0  0
   -9.5410   -3.2230  -22.4610 H   0  0  0  0  0  0  0  0  0  0  0  0
   -9.9330   -3.6200  -24.9330 H   0  0  0  0  0  0  0  0  0  0  0  0
   -8.2130   -3.8850  -25.1600 H   0  0  0  0  0  0  0  0  0  0  0  0
  -10.1410   -5.4130  -23.3870 H   0  0  0  0  0  0  0  0  0  0  0  0
   -9.3380   -7.4820  -24.5330 H   0  0  0  0  0  0  0  0  0  0  0  0
   -7.3080   -6.6970  -25.6860 H   0  0  0  0  0  0  0  0  0  0  0  0
   -8.3260   -5.6810  -26.7400 H   0  0  0  0  0  0  0  0  0  0  0  0
   -8.4860   -7.4450  -26.7600 H   0  0  0  0  0  0  0  0  0  0  0  0
  1  2  1  0  0  0  0
  1 44  1  0  0  0  0
  1 45  1  0  0  0  0
  1 46  1  0  0  0  0
  2  3  1  0  0  0  0
  2  7  1  0  0  0  0
  2 43  1  0  0  0  0
  3  4  1  0  0  0  0
  3  5  1  0  0  0  0
  3  6  1  0  0  0  0
  7  8  1  0  0  0  0
  7 33  1  0  0  0  0
  7 42  1  0  0  0  0
  8  9  1  0  0  0  0
  8 40  1  0  0  0  0
  8 41  1  0  0  0  0
  9 10  1  0  0  0  0
  9 38  1  0  0  0  0
  9 39  1  0  0  0  0
 10 11  1  0  0  0  0
 10 32  1  0  0  0  0
 11 12  2  0  0  0  0
 11 13  1  0  0  0  0
 13 14  1  0  0  0  0
 13 30  1  0  0  0  0
 13 31  1  0  0  0  0
 14 15  2  0  0  0  0
 14 23  1  0  0  0  0
 15 16  1  0  0  0  0
 15 29  1  0  0  0  0
 16 17  2  0  0  0  0
 17 18  1  0  0  0  0
 17 28  1  0  0  0  0
 18 19  2  0  0  0  0
 18 23  1  0  0  0  0
 19 20  1  0  0  0  0
 19 27  1  0  0  0  0
 20 21  2  0  0  0  0
 20 26  1  0  0  0  0
 21 22  1  0  0  0  0
 21 25  1  0  0  0  0
 22 23  2  0  0  0  0
 22 24  1  0  0  0  0
 32 33  1  0  0  0  0
 32 36  1  0  0  0  0
 32 37  1  0  0  0  0
 33 34  1  0  0  0  0
 33 35  1  0  0  0  0
M  END
>  <MODEL>
       1

$$$$
