tmp_first_model_13_83.pdb
 OpenBabel08282500103D

 46 50  0  0  1  0  0  0  0  0999 V2000
   -4.5510   -0.7960  -25.3130 N   0  0  0  0  0  0  0  0  0  0  0  0
   -5.3030   -1.7580  -26.4540 S   0  0  0  0  0  0  0  0  0  0  0  0
   -5.1250   -1.1840  -27.7810 O   0  0  0  0  0  0  0  0  0  0  0  0
   -4.8910   -3.1210  -26.1570 O   0  0  0  0  0  0  0  0  0  0  0  0
   -6.9960   -1.5420  -26.0170 C   0  0  0  0  0  0  0  0  0  0  0  0
   -7.9370   -1.2090  -26.9870 C   0  0  0  0  0  0  0  0  0  0  0  0
   -9.2580   -1.0310  -26.6140 C   0  0  0  0  0  0  0  0  0  0  0  0
   -9.6290   -1.1890  -25.2770 C   0  0  0  0  0  0  0  0  0  0  0  0
   -8.6650   -1.4490  -24.2890 C   0  0  0  0  0  0  0  0  0  0  0  0
   -7.3590   -1.6970  -24.6900 C   0  0  0  0  0  0  0  0  0  0  0  0
   -6.6250   -2.0560  -23.9690 H   0  0  0  0  0  0  0  0  0  0  0  0
   -9.0080   -1.5490  -22.8070 C   0  0  1  0  0  0  0  0  0  0  0  0
  -10.5010   -1.2440  -22.6050 C   0  0  0  0  0  0  0  0  0  0  0  0
  -11.3100   -1.7880  -23.7720 C   0  0  0  0  0  0  0  0  0  0  0  0
  -10.9550   -1.1010  -24.9700 O   0  0  0  0  0  0  0  0  0  0  0  0
  -11.1340   -2.8700  -23.8990 H   0  0  0  0  0  0  0  0  0  0  0  0
  -12.3790   -1.6210  -23.6350 H   0  0  0  0  0  0  0  0  0  0  0  0
  -10.8020   -1.6470  -21.6330 H   0  0  0  0  0  0  0  0  0  0  0  0
  -10.6010   -0.1510  -22.5900 H   0  0  0  0  0  0  0  0  0  0  0  0
   -8.5730   -2.8360  -22.2510 N   0  0  0  0  0  0  0  0  0  0  0  0
   -7.4700   -2.7340  -21.4390 C   0  0  0  0  0  0  0  0  0  0  0  0
   -6.7560   -3.6170  -21.0150 O   0  0  0  0  0  0  0  0  0  0  0  0
   -7.2910   -1.3690  -21.1950 N   0  0  0  0  0  0  0  0  0  0  0  0
   -6.4630   -0.8230  -20.1800 C   0  0  0  0  0  0  0  0  0  0  0  0
   -6.8020   -1.0040  -18.8610 C   0  0  0  0  0  0  0  0  0  0  0  0
   -6.1330   -0.4580  -17.8190 N   0  0  0  0  0  0  0  0  0  0  0  0
   -5.0960    0.2900  -18.0950 C   0  0  0  0  0  0  0  0  0  0  0  0
   -4.6370    0.5570  -19.4160 C   0  0  0  0  0  0  0  0  0  0  0  0
   -3.5100    1.3910  -19.6440 C   0  0  0  0  0  0  0  0  0  0  0  0
   -3.0920    1.6470  -20.9210 C   0  0  0  0  0  0  0  0  0  0  0  0
   -3.7910    1.0940  -22.0190 C   0  0  0  0  0  0  0  0  0  0  0  0
   -4.8900    0.2910  -21.8320 C   0  0  0  0  0  0  0  0  0  0  0  0
   -5.3380   -0.0050  -20.5080 C   0  0  0  0  0  0  0  0  0  0  0  0
   -5.4190   -0.1080  -22.7000 H   0  0  0  0  0  0  0  0  0  0  0  0
   -3.4640    1.3170  -23.0300 H   0  0  0  0  0  0  0  0  0  0  0  0
   -2.2350    2.2940  -21.0900 H   0  0  0  0  0  0  0  0  0  0  0  0
   -3.0100    1.8330  -18.7850 H   0  0  0  0  0  0  0  0  0  0  0  0
   -4.5700    0.7350  -17.2490 H   0  0  0  0  0  0  0  0  0  0  0  0
   -7.6730   -1.5970  -18.5990 H   0  0  0  0  0  0  0  0  0  0  0  0
   -8.2040   -0.6000  -21.9110 C   0  0  0  0  0  0  0  0  0  0  0  0
   -8.3540    0.5880  -21.7610 O   0  0  0  0  0  0  0  0  0  0  0  0
   -8.6540   -3.6850  -22.7890 H   0  0  0  0  0  0  0  0  0  0  0  0
  -10.0180   -0.8030  -27.3520 H   0  0  0  0  0  0  0  0  0  0  0  0
   -7.6230   -1.1070  -28.0200 H   0  0  0  0  0  0  0  0  0  0  0  0
   -4.3580    0.1400  -25.6480 H   0  0  0  0  0  0  0  0  0  0  0  0
   -3.7140   -1.2510  -24.9670 H   0  0  0  0  0  0  0  0  0  0  0  0
  1  2  1  0  0  0  0
  1 45  1  0  0  0  0
  1 46  1  0  0  0  0
  2  3  2  0  0  0  0
  2  4  2  0  0  0  0
  2  5  1  0  0  0  0
  5  6  2  0  0  0  0
  5 10  1  0  0  0  0
  6  7  1  0  0  0  0
  6 44  1  0  0  0  0
  7  8  2  0  0  0  0
  7 43  1  0  0  0  0
  8  9  1  0  0  0  0
  8 15  1  0  0  0  0
  9 10  2  0  0  0  0
 10 11  1  0  0  0  0
 12  9  1  6  0  0  0
 12 13  1  0  0  0  0
 12 20  1  0  0  0  0
 12 40  1  0  0  0  0
 13 14  1  0  0  0  0
 13 18  1  0  0  0  0
 13 19  1  0  0  0  0
 14 15  1  0  0  0  0
 14 16  1  0  0  0  0
 14 17  1  0  0  0  0
 20 21  1  0  0  0  0
 20 42  1  0  0  0  0
 21 22  2  0  0  0  0
 21 23  1  0  0  0  0
 23 24  1  0  0  0  0
 23 40  1  0  0  0  0
 24 25  2  0  0  0  0
 24 33  1  0  0  0  0
 25 26  1  0  0  0  0
 25 39  1  0  0  0  0
 26 27  2  0  0  0  0
 27 28  1  0  0  0  0
 27 38  1  0  0  0  0
 28 29  2  0  0  0  0
 28 33  1  0  0  0  0
 29 30  1  0  0  0  0
 29 37  1  0  0  0  0
 30 31  2  0  0  0  0
 30 36  1  0  0  0  0
 31 32  1  0  0  0  0
 31 35  1  0  0  0  0
 32 33  2  0  0  0  0
 32 34  1  0  0  0  0
 40 41  2  0  0  0  0
M  END
>  <MODEL>
       1

$$$$
