tmp_first_model_8_68.pdb
 OpenBabel08272521063D

 65 70  0  0  1  0  0  0  0  0999 V2000
   -9.1940    0.1280  -20.7800 O   0  0  0  0  0  0  0  0  0  0  0  0
   -8.4180   -0.2400  -21.6480 C   0  0  0  0  0  0  0  0  0  0  0  0
   -7.4590   -1.3700  -21.3030 C   0  0  0  0  0  0  0  0  0  0  0  0
   -6.5640   -0.8730  -20.1940 C   0  0  0  0  0  0  0  0  0  0  0  0
   -6.8980   -1.0810  -18.8810 C   0  0  0  0  0  0  0  0  0  0  0  0
   -6.2290   -0.5780  -17.8160 N   0  0  0  0  0  0  0  0  0  0  0  0
   -5.1970    0.1920  -18.0740 C   0  0  0  0  0  0  0  0  0  0  0  0
   -4.7520    0.5240  -19.3820 C   0  0  0  0  0  0  0  0  0  0  0  0
   -3.6510    1.3920  -19.6090 C   0  0  0  0  0  0  0  0  0  0  0  0
   -3.2800    1.7200  -20.8830 C   0  0  0  0  0  0  0  0  0  0  0  0
   -3.9960    1.2080  -21.9850 C   0  0  0  0  0  0  0  0  0  0  0  0
   -5.0550    0.3490  -21.7920 C   0  0  0  0  0  0  0  0  0  0  0  0
   -5.4610   -0.0170  -20.4810 C   0  0  0  0  0  0  0  0  0  0  0  0
   -5.5860   -0.0210  -22.6610 H   0  0  0  0  0  0  0  0  0  0  0  0
   -3.6920    1.4740  -22.9940 H   0  0  0  0  0  0  0  0  0  0  0  0
   -2.4320    2.3780  -21.0590 H   0  0  0  0  0  0  0  0  0  0  0  0
   -3.1210    1.7940  -18.7480 H   0  0  0  0  0  0  0  0  0  0  0  0
   -4.6610    0.6040  -17.2200 H   0  0  0  0  0  0  0  0  0  0  0  0
   -7.7770   -1.6780  -18.6370 H   0  0  0  0  0  0  0  0  0  0  0  0
   -6.8870   -1.7090  -22.1660 H   0  0  0  0  0  0  0  0  0  0  0  0
   -8.0760   -2.1980  -20.9370 H   0  0  0  0  0  0  0  0  0  0  0  0
   -8.3160    0.4110  -22.8710 N   0  0  0  0  0  0  0  0  0  0  0  0
   -8.2070   -0.3300  -24.1320 C   0  0  0  0  0  0  0  0  0  0  0  0
   -9.4850   -1.0810  -24.4690 C   0  0  0  0  0  0  0  0  0  0  0  0
  -10.5350   -0.4830  -25.1720 C   0  0  0  0  0  0  0  0  0  0  0  0
  -11.8020   -1.0660  -25.1550 C   0  0  0  0  0  0  0  0  0  0  0  0
  -12.0150   -2.2640  -24.4910 C   0  0  0  0  0  0  0  0  0  0  0  0
  -10.9350   -2.9410  -23.9480 C   0  0  0  0  0  0  0  0  0  0  0  0
  -11.1630   -4.5260  -23.2550 Cl  0  0  0  0  0  0  0  0  0  0  0  0
   -9.6710   -2.3610  -23.9380 C   0  0  0  0  0  0  0  0  0  0  0  0
   -8.8340   -2.8990  -23.5020 H   0  0  0  0  0  0  0  0  0  0  0  0
  -13.0100   -2.6810  -24.4390 H   0  0  0  0  0  0  0  0  0  0  0  0
  -12.6680   -0.6250  -25.6280 H   0  0  0  0  0  0  0  0  0  0  0  0
  -10.3910    0.4380  -25.7360 H   0  0  0  0  0  0  0  0  0  0  0  0
   -7.9390    0.3750  -24.9250 H   0  0  0  0  0  0  0  0  0  0  0  0
   -7.3940   -1.0540  -24.0240 H   0  0  0  0  0  0  0  0  0  0  0  0
   -8.7150    1.8190  -22.8510 C   0  0  2  0  0  0  0  0  0  0  0  0
  -10.2130    2.1500  -22.6430 C   0  0  0  0  0  0  0  0  0  0  0  0
  -10.3000    3.6370  -23.0900 C   0  0  0  0  0  0  0  0  0  0  0  0
   -8.8610    3.9740  -23.4950 C   0  0  2  0  0  0  0  0  0  0  0  0
   -8.3950    2.6510  -24.0950 C   0  0  0  0  0  0  0  0  0  0  0  0
   -7.3400    2.6270  -24.3860 H   0  0  0  0  0  0  0  0  0  0  0  0
   -9.0230    2.3760  -24.9460 H   0  0  0  0  0  0  0  0  0  0  0  0
   -8.0380    4.0660  -22.1890 N   0  3  2  0  0  0  0  0  0  0  0  0
   -6.6880    4.7060  -22.3050 C   0  0  0  0  0  0  0  0  0  0  0  0
   -6.7590    6.2240  -22.3320 C   0  0  0  0  0  0  0  0  0  0  0  0
   -6.7980    6.9450  -20.9730 C   0  0  0  0  0  0  0  0  0  0  0  0
   -5.5130    7.5390  -21.1850 O   0  0  0  0  0  0  0  0  0  0  0  0
   -5.4110    6.9390  -22.4810 C   0  0  0  0  0  0  0  0  0  0  0  0
   -4.5310    6.2880  -22.5620 H   0  0  0  0  0  0  0  0  0  0  0  0
   -5.3720    7.6900  -23.2770 H   0  0  0  0  0  0  0  0  0  0  0  0
   -7.5640    7.7120  -20.8520 H   0  0  0  0  0  0  0  0  0  0  0  0
   -6.8060    6.3000  -20.0900 H   0  0  0  0  0  0  0  0  0  0  0  0
   -7.5220    6.5670  -23.0360 H   0  0  0  0  0  0  0  0  0  0  0  0
   -6.1840    4.3380  -23.2110 H   0  0  0  0  0  0  0  0  0  0  0  0
   -6.0710    4.3910  -21.4500 H   0  0  0  0  0  0  0  0  0  0  0  0
   -7.9650    2.6140  -21.7570 C   0  0  0  0  0  0  0  0  0  0  0  0
   -8.4420    2.5090  -20.7850 H   0  0  0  0  0  0  0  0  0  0  0  0
   -6.9230    2.3080  -21.6630 H   0  0  0  0  0  0  0  0  0  0  0  0
   -8.5760    4.6010  -21.4760 H   0  0  0  0  0  0  0  0  0  0  0  0
   -8.7350    4.8700  -24.0990 H   0  0  0  0  0  0  0  0  0  0  0  0
  -10.9650    3.7500  -23.9500 H   0  0  0  0  0  0  0  0  0  0  0  0
  -10.6670    4.3010  -22.2980 H   0  0  0  0  0  0  0  0  0  0  0  0
  -10.8180    1.4960  -23.2740 H   0  0  0  0  0  0  0  0  0  0  0  0
  -10.5250    2.0000  -21.6090 H   0  0  0  0  0  0  0  0  0  0  0  0
  1  2  2  0  0  0  0
  2  3  1  0  0  0  0
  2 22  1  0  0  0  0
  3  4  1  0  0  0  0
  3 20  1  0  0  0  0
  3 21  1  0  0  0  0
  4  5  2  0  0  0  0
  4 13  1  0  0  0  0
  5  6  1  0  0  0  0
  5 19  1  0  0  0  0
  6  7  2  0  0  0  0
  7  8  1  0  0  0  0
  7 18  1  0  0  0  0
  8  9  2  0  0  0  0
  8 13  1  0  0  0  0
  9 10  1  0  0  0  0
  9 17  1  0  0  0  0
 10 11  2  0  0  0  0
 10 16  1  0  0  0  0
 11 12  1  0  0  0  0
 11 15  1  0  0  0  0
 12 13  2  0  0  0  0
 12 14  1  0  0  0  0
 22 23  1  0  0  0  0
 23 24  1  0  0  0  0
 23 35  1  0  0  0  0
 23 36  1  0  0  0  0
 24 25  2  0  0  0  0
 24 30  1  0  0  0  0
 25 26  1  0  0  0  0
 25 34  1  0  0  0  0
 26 27  2  0  0  0  0
 26 33  1  0  0  0  0
 27 28  1  0  0  0  0
 27 32  1  0  0  0  0
 28 29  1  0  0  0  0
 28 30  2  0  0  0  0
 30 31  1  0  0  0  0
 37 22  1  6  0  0  0
 37 38  1  0  0  0  0
 37 41  1  0  0  0  0
 37 57  1  0  0  0  0
 38 39  1  0  0  0  0
 38 64  1  0  0  0  0
 38 65  1  0  0  0  0
 39 40  1  0  0  0  0
 39 62  1  0  0  0  0
 39 63  1  0  0  0  0
 40 41  1  0  0  0  0
 40 44  1  0  0  0  0
 40 61  1  6  0  0  0
 41 42  1  0  0  0  0
 41 43  1  0  0  0  0
 44 45  1  0  0  0  0
 44 57  1  0  0  0  0
 44 60  1  1  0  0  0
 45 46  1  0  0  0  0
 45 55  1  0  0  0  0
 45 56  1  0  0  0  0
 46 47  1  0  0  0  0
 46 49  1  0  0  0  0
 46 54  1  0  0  0  0
 47 48  1  0  0  0  0
 47 52  1  0  0  0  0
 47 53  1  0  0  0  0
 48 49  1  0  0  0  0
 49 50  1  0  0  0  0
 49 51  1  0  0  0  0
 57 58  1  0  0  0  0
 57 59  1  0  0  0  0
M  CHG  1  44   1
M  END
>  <MODEL>
       1

$$$$
