tmp_first_model_9_35.pdb
 OpenBabel08272521403D

 40 42  0  0  0  0  0  0  0  0999 V2000
   -9.1440   -1.8050  -22.6730 O   0  0  0  0  0  0  0  0  0  0  0  0
   -8.2370   -1.0340  -22.3780 C   0  0  0  0  0  0  0  0  0  0  0  0
   -6.8560   -1.5440  -21.9800 C   0  0  0  0  0  0  0  0  0  0  0  0
   -6.3030   -0.8640  -20.7420 C   0  0  0  0  0  0  0  0  0  0  0  0
   -6.9490   -1.0280  -19.5400 C   0  0  0  0  0  0  0  0  0  0  0  0
   -6.5680   -0.4710  -18.3660 N   0  0  0  0  0  0  0  0  0  0  0  0
   -5.5090    0.3000  -18.3800 C   0  0  0  0  0  0  0  0  0  0  0  0
   -4.7390    0.5720  -19.5420 C   0  0  0  0  0  0  0  0  0  0  0  0
   -3.6150    1.4400  -19.5150 C   0  0  0  0  0  0  0  0  0  0  0  0
   -2.9280    1.7320  -20.6620 C   0  0  0  0  0  0  0  0  0  0  0  0
   -3.3310    1.1550  -21.8830 C   0  0  0  0  0  0  0  0  0  0  0  0
   -4.3990    0.2840  -21.9260 C   0  0  0  0  0  0  0  0  0  0  0  0
   -5.1410   -0.0310  -20.7610 C   0  0  0  0  0  0  0  0  0  0  0  0
   -4.6830   -0.1470  -22.8850 H   0  0  0  0  0  0  0  0  0  0  0  0
   -2.7930    1.3930  -22.7980 H   0  0  0  0  0  0  0  0  0  0  0  0
   -2.0840    2.4160  -20.6450 H   0  0  0  0  0  0  0  0  0  0  0  0
   -3.3280    1.8860  -18.5660 H   0  0  0  0  0  0  0  0  0  0  0  0
   -5.2120    0.7580  -17.4380 H   0  0  0  0  0  0  0  0  0  0  0  0
   -7.8360   -1.6630  -19.4830 H   0  0  0  0  0  0  0  0  0  0  0  0
   -6.9710   -2.6210  -21.8040 H   0  0  0  0  0  0  0  0  0  0  0  0
   -6.1680   -1.4410  -22.8250 H   0  0  0  0  0  0  0  0  0  0  0  0
   -8.3310    0.3310  -22.3410 N   0  0  0  0  0  0  0  0  0  0  0  0
   -9.5310    0.9450  -21.7160 C   0  0  0  0  0  0  0  0  0  0  0  0
   -9.5150    1.0980  -21.8890 C   0  0  0  0  0  0  0  0  0  0  0  0
   -9.1950    2.8790  -23.6120 C   0  0  0  0  0  0  0  0  0  0  0  0
   -8.4980    5.4850  -22.9540 C   0  0  0  0  0  0  0  0  0  0  0  0
   -7.5870    6.0020  -23.7490 F   0  0  0  0  0  0  0  0  0  0  0  0
   -9.5180    6.3050  -22.8010 F   0  0  0  0  0  0  0  0  0  0  0  0
   -7.9820    5.1530  -21.7900 F   0  0  0  0  0  0  0  0  0  0  0  0
   -7.9190    2.5190  -23.5660 C   0  0  0  0  0  0  0  0  0  0  0  0
   -7.3600    1.2170  -23.0570 C   0  0  0  0  0  0  0  0  0  0  0  0
   -6.9420    0.6610  -23.8960 H   0  0  0  0  0  0  0  0  0  0  0  0
   -6.5440    1.4720  -22.3720 H   0  0  0  0  0  0  0  0  0  0  0  0
   -9.9660    2.1320  -23.5480 H   0  0  0  0  0  0  0  0  0  0  0  0
   -7.1360    3.1920  -23.9040 H   0  0  0  0  0  0  0  0  0  0  0  0
   -9.4350    3.9340  -23.7440 H   0  0  0  0  0  0  0  0  0  0  0  0
  -10.4310    1.8640  -21.6260 H   0  0  0  0  0  0  0  0  0  0  0  0
   -8.7940    1.9410  -21.3610 H   0  0  0  0  0  0  0  0  0  0  0  0
   -9.8600    0.0680  -20.4700 H   0  0  0  0  0  0  0  0  0  0  0  0
  -10.2830    0.5990  -22.6970 H   0  0  0  0  0  0  0  0  0  0  0  0
  1  2  2  0  0  0  0
  2  3  1  0  0  0  0
  2 22  1  0  0  0  0
  3  4  1  0  0  0  0
  3 20  1  0  0  0  0
  3 21  1  0  0  0  0
  4  5  2  0  0  0  0
  4 13  1  0  0  0  0
  5  6  1  0  0  0  0
  5 19  1  0  0  0  0
  6  7  2  0  0  0  0
  7  8  1  0  0  0  0
  7 18  1  0  0  0  0
  8  9  2  0  0  0  0
  8 13  1  0  0  0  0
  9 10  1  0  0  0  0
  9 17  1  0  0  0  0
 10 11  2  0  0  0  0
 10 16  1  0  0  0  0
 11 12  1  0  0  0  0
 11 15  1  0  0  0  0
 12 13  2  0  0  0  0
 12 14  1  0  0  0  0
 22 23  1  0  0  0  0
 22 31  1  0  0  0  0
 23 24  1  0  0  0  0
 23 39  1  0  0  0  0
 23 40  1  0  0  0  0
 24 25  1  0  0  0  0
 24 37  1  0  0  0  0
 24 38  1  0  0  0  0
 25 26  1  0  0  0  0
 25 30  1  0  0  0  0
 25 36  1  0  0  0  0
 26 27  1  0  0  0  0
 26 28  1  0  0  0  0
 26 29  1  0  0  0  0
 30 31  1  0  0  0  0
 30 34  1  0  0  0  0
 30 35  1  0  0  0  0
 31 32  1  0  0  0  0
 31 33  1  0  0  0  0
M  END
>  <MODEL>
       1

$$$$
