tmp_first_model_2_13.pdb
 OpenBabel08272517383D

 69 74  0  0  1  0  0  0  0  0999 V2000
   -5.0560   -4.0320  -19.3880 C   0  0  0  0  0  0  0  0  0  0  0  0
   -6.1970   -4.7500  -19.9220 N   0  0  0  0  0  0  0  0  0  0  0  0
   -6.0000   -5.7070  -20.8730 C   0  0  0  0  0  0  0  0  0  0  0  0
   -4.8810   -6.1220  -21.1310 O   0  0  0  0  0  0  0  0  0  0  0  0
   -7.2420   -6.2140  -21.6220 C   0  0  0  0  0  0  0  0  0  0  0  0
   -7.5910   -5.3160  -22.7070 N   0  0  0  0  0  0  0  0  0  0  0  0
   -8.5010   -4.2150  -22.4970 C   0  0  0  0  0  0  0  0  0  0  0  0
   -7.9230   -2.8640  -23.0010 C   0  0  2  0  0  0  0  0  0  0  0  0
   -6.7900   -2.3730  -22.0760 C   0  0  0  0  0  0  0  0  0  0  0  0
   -5.6350   -2.7530  -22.0540 O   0  0  0  0  0  0  0  0  0  0  0  0
   -7.3050   -1.4220  -21.2260 N   0  0  0  0  0  0  0  0  0  0  0  0
   -6.5590   -0.8430  -20.1880 C   0  0  0  0  0  0  0  0  0  0  0  0
   -6.9200   -1.0530  -18.8800 C   0  0  0  0  0  0  0  0  0  0  0  0
   -6.2450   -0.5560  -17.8180 N   0  0  0  0  0  0  0  0  0  0  0  0
   -5.1940    0.1900  -18.0730 C   0  0  0  0  0  0  0  0  0  0  0  0
   -4.7340    0.5020  -19.3850 C   0  0  0  0  0  0  0  0  0  0  0  0
   -3.6090    1.3370  -19.6080 C   0  0  0  0  0  0  0  0  0  0  0  0
   -3.2170    1.6510  -20.8800 C   0  0  0  0  0  0  0  0  0  0  0  0
   -3.9300    1.1530  -21.9930 C   0  0  0  0  0  0  0  0  0  0  0  0
   -5.0190    0.3410  -21.8070 C   0  0  0  0  0  0  0  0  0  0  0  0
   -5.4360   -0.0160  -20.4910 C   0  0  0  0  0  0  0  0  0  0  0  0
   -5.5670   -0.0380  -22.6650 H   0  0  0  0  0  0  0  0  0  0  0  0
   -3.6140    1.4190  -22.9980 H   0  0  0  0  0  0  0  0  0  0  0  0
   -2.3610    2.2990  -21.0440 H   0  0  0  0  0  0  0  0  0  0  0  0
   -3.0860    1.7320  -18.7430 H   0  0  0  0  0  0  0  0  0  0  0  0
   -4.6470    0.5870  -17.2200 H   0  0  0  0  0  0  0  0  0  0  0  0
   -7.7920   -1.6650  -18.6530 H   0  0  0  0  0  0  0  0  0  0  0  0
   -8.7230   -1.2020  -21.3940 C   0  0  0  0  0  0  0  0  0  0  0  0
   -8.9590   -1.7450  -22.8060 C   0  0  2  0  0  0  0  0  0  0  0  0
  -10.3940   -2.1470  -23.0350 C   0  0  0  0  0  0  0  0  0  0  0  0
  -11.2000   -0.9600  -23.1250 N   0  0  0  0  0  0  0  0  0  0  0  0
  -12.5420   -1.1040  -23.1730 C   0  0  0  0  0  0  0  0  0  0  0  0
  -13.4100   -0.0120  -22.9940 C   0  0  0  0  0  0  0  0  0  0  0  0
  -14.7400   -0.3390  -22.9400 C   0  0  0  0  0  0  0  0  0  0  0  0
  -15.2060   -1.5810  -23.1320 N   0  0  0  0  0  0  0  0  0  0  0  0
  -14.3120   -2.5100  -23.4340 C   0  0  0  0  0  0  0  0  0  0  0  0
  -14.8100   -3.8640  -23.8690 C   0  0  0  0  0  0  0  0  0  0  0  0
  -14.4440   -4.0680  -24.8830 H   0  0  0  0  0  0  0  0  0  0  0  0
  -14.4280   -4.6430  -23.2010 H   0  0  0  0  0  0  0  0  0  0  0  0
  -15.9020   -3.8800  -23.8850 H   0  0  0  0  0  0  0  0  0  0  0  0
  -12.9870   -2.3410  -23.4170 N   0  0  0  0  0  0  0  0  0  0  0  0
  -15.4980    0.4160  -22.7470 H   0  0  0  0  0  0  0  0  0  0  0  0
  -13.0570    1.0130  -22.8820 H   0  0  0  0  0  0  0  0  0  0  0  0
  -10.8250   -0.0900  -22.7800 H   0  0  0  0  0  0  0  0  0  0  0  0
  -10.5200   -2.7360  -23.9520 H   0  0  0  0  0  0  0  0  0  0  0  0
  -10.7420   -2.7900  -22.2080 H   0  0  0  0  0  0  0  0  0  0  0  0
   -8.7090   -0.9360  -23.4910 H   0  0  0  0  0  0  0  0  0  0  0  0
   -9.3180   -1.7590  -20.6550 H   0  0  0  0  0  0  0  0  0  0  0  0
   -8.9630   -0.1390  -21.2940 H   0  0  0  0  0  0  0  0  0  0  0  0
   -7.4340   -3.0600  -24.4170 C   0  0  0  0  0  0  0  0  0  0  0  0
   -7.3290   -1.9880  -25.3130 C   0  0  0  0  0  0  0  0  0  0  0  0
   -6.8160   -2.1890  -26.5800 C   0  0  0  0  0  0  0  0  0  0  0  0
   -6.6680   -0.8250  -27.6510 Cl  0  0  0  0  0  0  0  0  0  0  0  0
   -6.4070   -3.4500  -27.0110 C   0  0  0  0  0  0  0  0  0  0  0  0
   -6.4970   -4.5080  -26.1280 C   0  0  0  0  0  0  0  0  0  0  0  0
   -6.9900   -4.3180  -24.8400 C   0  0  0  0  0  0  0  0  0  0  0  0
   -6.9490   -5.4890  -23.9060 C   0  0  0  0  0  0  0  0  0  0  0  0
   -6.3600   -6.5190  -24.1920 O   0  0  0  0  0  0  0  0  0  0  0  0
   -6.1740   -5.5070  -26.4000 H   0  0  0  0  0  0  0  0  0  0  0  0
   -6.0110   -3.5860  -28.0110 H   0  0  0  0  0  0  0  0  0  0  0  0
   -7.6280   -0.9830  -25.0390 H   0  0  0  0  0  0  0  0  0  0  0  0
   -9.4360   -4.4120  -23.0390 H   0  0  0  0  0  0  0  0  0  0  0  0
   -8.7430   -4.1420  -21.4320 H   0  0  0  0  0  0  0  0  0  0  0  0
   -6.9850   -7.1710  -22.0770 H   0  0  0  0  0  0  0  0  0  0  0  0
   -8.1040   -6.3560  -20.9610 H   0  0  0  0  0  0  0  0  0  0  0  0
   -7.0770   -4.2500  -19.9080 H   0  0  0  0  0  0  0  0  0  0  0  0
   -4.2850   -4.7730  -19.2370 H   0  0  0  0  0  0  0  0  0  0  0  0
   -5.3190   -3.5560  -18.4400 H   0  0  0  0  0  0  0  0  0  0  0  0
   -4.6930   -3.2680  -20.0840 H   0  0  0  0  0  0  0  0  0  0  0  0
  1  2  1  0  0  0  0
  1 67  1  0  0  0  0
  1 68  1  0  0  0  0
  1 69  1  0  0  0  0
  2  3  1  0  0  0  0
  2 66  1  0  0  0  0
  3  4  2  0  0  0  0
  3  5  1  0  0  0  0
  5  6  1  0  0  0  0
  5 64  1  0  0  0  0
  5 65  1  0  0  0  0
  6  7  1  0  0  0  0
  6 57  1  0  0  0  0
  7  8  1  0  0  0  0
  7 62  1  0  0  0  0
  7 63  1  0  0  0  0
  8  9  1  1  0  0  0
  8 29  1  0  0  0  0
  8 50  1  0  0  0  0
  9 10  2  0  0  0  0
  9 11  1  0  0  0  0
 11 12  1  0  0  0  0
 11 28  1  0  0  0  0
 12 13  2  0  0  0  0
 12 21  1  0  0  0  0
 13 14  1  0  0  0  0
 13 27  1  0  0  0  0
 14 15  2  0  0  0  0
 15 16  1  0  0  0  0
 15 26  1  0  0  0  0
 16 17  2  0  0  0  0
 16 21  1  0  0  0  0
 17 18  1  0  0  0  0
 17 25  1  0  0  0  0
 18 19  2  0  0  0  0
 18 24  1  0  0  0  0
 19 20  1  0  0  0  0
 19 23  1  0  0  0  0
 20 21  2  0  0  0  0
 20 22  1  0  0  0  0
 28 29  1  0  0  0  0
 28 48  1  0  0  0  0
 28 49  1  0  0  0  0
 29 30  1  0  0  0  0
 29 47  1  6  0  0  0
 30 31  1  0  0  0  0
 30 45  1  0  0  0  0
 30 46  1  0  0  0  0
 31 32  1  0  0  0  0
 31 44  1  0  0  0  0
 32 33  2  0  0  0  0
 32 41  1  0  0  0  0
 33 34  1  0  0  0  0
 33 43  1  0  0  0  0
 34 35  2  0  0  0  0
 34 42  1  0  0  0  0
 35 36  1  0  0  0  0
 36 37  1  0  0  0  0
 36 41  2  0  0  0  0
 37 38  1  0  0  0  0
 37 39  1  0  0  0  0
 37 40  1  0  0  0  0
 50 51  2  0  0  0  0
 50 56  1  0  0  0  0
 51 52  1  0  0  0  0
 51 61  1  0  0  0  0
 52 53  1  0  0  0  0
 52 54  2  0  0  0  0
 54 55  1  0  0  0  0
 54 60  1  0  0  0  0
 55 56  2  0  0  0  0
 55 59  1  0  0  0  0
 56 57  1  0  0  0  0
 57 58  2  0  0  0  0
M  END
>  <MODEL>
       1

$$$$
