tmp_first_model_7_81.pdb
 OpenBabel08272520323D

 36 38  0  0  0  0  0  0  0  0999 V2000
   -8.5060    0.7130  -21.4630 O   0  0  0  0  0  0  0  0  0  0  0  0
   -8.3810   -0.4020  -21.9280 C   0  0  0  0  0  0  0  0  0  0  0  0
   -7.4380   -1.4330  -21.2750 C   0  0  0  0  0  0  0  0  0  0  0  0
   -6.5820   -0.8270  -20.1850 C   0  0  0  0  0  0  0  0  0  0  0  0
   -6.8780   -1.0390  -18.8640 C   0  0  0  0  0  0  0  0  0  0  0  0
   -6.1890   -0.5360  -17.8060 N   0  0  0  0  0  0  0  0  0  0  0  0
   -5.1550    0.2220  -18.0690 C   0  0  0  0  0  0  0  0  0  0  0  0
   -4.7220    0.5330  -19.3840 C   0  0  0  0  0  0  0  0  0  0  0  0
   -3.5950    1.3600  -19.6230 C   0  0  0  0  0  0  0  0  0  0  0  0
   -3.2080    1.6570  -20.9030 C   0  0  0  0  0  0  0  0  0  0  0  0
   -3.9350    1.1330  -21.9940 C   0  0  0  0  0  0  0  0  0  0  0  0
   -5.0280    0.3240  -21.7880 C   0  0  0  0  0  0  0  0  0  0  0  0
   -5.4540    0.0010  -20.4740 C   0  0  0  0  0  0  0  0  0  0  0  0
   -5.5780   -0.0680  -22.6370 H   0  0  0  0  0  0  0  0  0  0  0  0
   -3.6260    1.3770  -23.0050 H   0  0  0  0  0  0  0  0  0  0  0  0
   -2.3540    2.3040  -21.0860 H   0  0  0  0  0  0  0  0  0  0  0  0
   -3.0600    1.7750  -18.7730 H   0  0  0  0  0  0  0  0  0  0  0  0
   -4.6030    0.6260  -17.2170 H   0  0  0  0  0  0  0  0  0  0  0  0
   -7.7280   -1.6580  -18.5830 H   0  0  0  0  0  0  0  0  0  0  0  0
   -8.0410   -2.2450  -20.8450 H   0  0  0  0  0  0  0  0  0  0  0  0
   -6.8040   -1.8990  -22.0410 H   0  0  0  0  0  0  0  0  0  0  0  0
   -9.0580   -0.7720  -23.0800 N   0  0  0  0  0  0  0  0  0  0  0  0
   -9.3680   -2.1580  -23.4030 C   0  0  0  0  0  0  0  0  0  0  0  0
  -10.4470   -2.7800  -22.5510 C   0  0  0  0  0  0  0  0  0  0  0  0
  -11.5720   -2.1770  -22.1580 C   0  0  0  0  0  0  0  0  0  0  0  0
  -12.0260   -0.7970  -22.4310 C   0  0  0  0  0  0  0  0  0  0  0  0
  -11.3800    0.2120  -23.0250 C   0  0  0  0  0  0  0  0  0  0  0  0
   -9.9960    0.2010  -23.6300 C   0  0  0  0  0  0  0  0  0  0  0  0
   -9.5530    1.1990  -23.5780 H   0  0  0  0  0  0  0  0  0  0  0  0
  -10.0550   -0.0230  -24.6970 H   0  0  0  0  0  0  0  0  0  0  0  0
  -11.8930    1.1760  -23.0810 H   0  0  0  0  0  0  0  0  0  0  0  0
  -13.0210   -0.5820  -22.0420 H   0  0  0  0  0  0  0  0  0  0  0  0
  -12.2780   -2.7630  -21.5720 H   0  0  0  0  0  0  0  0  0  0  0  0
  -10.2830   -3.8150  -22.2470 H   0  0  0  0  0  0  0  0  0  0  0  0
   -9.6850   -2.1700  -24.4540 H   0  0  0  0  0  0  0  0  0  0  0  0
   -8.4510   -2.7530  -23.3590 H   0  0  0  0  0  0  0  0  0  0  0  0
  1  2  2  0  0  0  0
  2  3  1  0  0  0  0
  2 22  1  0  0  0  0
  3  4  1  0  0  0  0
  3 20  1  0  0  0  0
  3 21  1  0  0  0  0
  4  5  2  0  0  0  0
  4 13  1  0  0  0  0
  5  6  1  0  0  0  0
  5 19  1  0  0  0  0
  6  7  2  0  0  0  0
  7  8  1  0  0  0  0
  7 18  1  0  0  0  0
  8  9  2  0  0  0  0
  8 13  1  0  0  0  0
  9 10  1  0  0  0  0
  9 17  1  0  0  0  0
 10 11  2  0  0  0  0
 10 16  1  0  0  0  0
 11 12  1  0  0  0  0
 11 15  1  0  0  0  0
 12 13  2  0  0  0  0
 12 14  1  0  0  0  0
 22 23  1  0  0  0  0
 22 28  1  0  0  0  0
 23 24  1  0  0  0  0
 23 35  1  0  0  0  0
 23 36  1  0  0  0  0
 24 25  2  0  0  0  0
 24 34  1  0  0  0  0
 25 26  1  0  0  0  0
 25 33  1  0  0  0  0
 26 27  2  0  0  0  0
 26 32  1  0  0  0  0
 27 28  1  0  0  0  0
 27 31  1  0  0  0  0
 28 29  1  0  0  0  0
 28 30  1  0  0  0  0
M  END
>  <MODEL>
       1

$$$$
