tmp_first_model_14_4.pdb
 OpenBabel08282500413D

 59 64  0  0  1  0  0  0  0  0999 V2000
   -8.2660   -4.1070  -23.5410 C   0  0  0  0  0  0  0  0  0  0  0  0
   -8.5140   -2.9570  -22.5650 C   0  0  1  0  0  0  0  0  0  0  0  0
   -7.3830   -2.7730  -21.5420 C   0  0  0  0  0  0  0  0  0  0  0  0
   -7.4060   -1.3600  -21.2270 N   0  0  0  0  0  0  0  0  0  0  0  0
   -6.6100   -0.7920  -20.1980 C   0  0  0  0  0  0  0  0  0  0  0  0
   -6.9010   -1.0390  -18.8810 C   0  0  0  0  0  0  0  0  0  0  0  0
   -6.2120   -0.5230  -17.8360 N   0  0  0  0  0  0  0  0  0  0  0  0
   -5.1710    0.2250  -18.0940 C   0  0  0  0  0  0  0  0  0  0  0  0
   -4.7270    0.5310  -19.4080 C   0  0  0  0  0  0  0  0  0  0  0  0
   -3.5890    1.3490  -19.6400 C   0  0  0  0  0  0  0  0  0  0  0  0
   -3.1790    1.6190  -20.9150 C   0  0  0  0  0  0  0  0  0  0  0  0
   -3.8810    1.0680  -22.0130 C   0  0  0  0  0  0  0  0  0  0  0  0
   -4.9800    0.2740  -21.8110 C   0  0  0  0  0  0  0  0  0  0  0  0
   -5.4540    0.0020  -20.4990 C   0  0  0  0  0  0  0  0  0  0  0  0
   -5.5120   -0.1420  -22.6600 H   0  0  0  0  0  0  0  0  0  0  0  0
   -3.5570    1.2880  -23.0230 H   0  0  0  0  0  0  0  0  0  0  0  0
   -2.3230    2.2640  -21.0940 H   0  0  0  0  0  0  0  0  0  0  0  0
   -3.0690    1.7670  -18.7810 H   0  0  0  0  0  0  0  0  0  0  0  0
   -4.6230    0.6210  -17.2390 H   0  0  0  0  0  0  0  0  0  0  0  0
   -7.7390   -1.6780  -18.6080 H   0  0  0  0  0  0  0  0  0  0  0  0
   -8.1350   -0.6000  -22.1140 C   0  0  0  0  0  0  0  0  0  0  0  0
   -8.2510    0.6040  -22.0390 O   0  0  0  0  0  0  0  0  0  0  0  0
   -8.7310   -1.5310  -23.1930 C   0  0  1  0  0  0  0  0  0  0  0  0
   -7.9660   -1.2620  -24.5080 C   0  0  0  0  0  0  0  0  0  0  0  0
   -8.6010   -1.8230  -25.6990 N   0  0  0  0  0  0  0  0  0  0  0  0
   -7.7340   -2.0650  -26.8450 C   0  0  0  0  0  0  0  0  0  0  0  0
   -6.9400   -3.3380  -26.7180 C   0  0  0  0  0  0  0  0  0  0  0  0
   -5.7060   -3.3980  -26.2620 N   0  0  0  0  0  0  0  0  0  0  0  0
   -5.3740   -4.7310  -26.2700 C   0  0  0  0  0  0  0  0  0  0  0  0
   -6.4300   -5.4770  -26.7160 C   0  0  0  0  0  0  0  0  0  0  0  0
   -7.4320   -4.5750  -27.0180 N   0  0  0  0  0  0  0  0  0  0  0  0
   -8.7740   -4.8940  -27.4760 C   0  0  0  0  0  0  0  0  0  0  0  0
   -9.0380   -4.2900  -28.3500 H   0  0  0  0  0  0  0  0  0  0  0  0
   -9.5180   -4.7210  -26.6910 H   0  0  0  0  0  0  0  0  0  0  0  0
   -8.7850   -5.9500  -27.7520 H   0  0  0  0  0  0  0  0  0  0  0  0
   -6.5830   -6.5410  -26.8220 H   0  0  0  0  0  0  0  0  0  0  0  0
   -4.3980   -5.0590  -25.9390 H   0  0  0  0  0  0  0  0  0  0  0  0
   -8.3680   -2.0510  -27.7340 H   0  0  0  0  0  0  0  0  0  0  0  0
   -7.0120   -1.2450  -26.9140 H   0  0  0  0  0  0  0  0  0  0  0  0
   -9.9560   -1.8070  -25.8860 C   0  0  0  0  0  0  0  0  0  0  0  0
  -10.4910   -2.1120  -26.9440 O   0  0  0  0  0  0  0  0  0  0  0  0
  -10.7680   -1.4230  -24.6970 C   0  0  0  0  0  0  0  0  0  0  0  0
  -12.1430   -1.3140  -24.8850 C   0  0  0  0  0  0  0  0  0  0  0  0
  -12.9570   -0.9520  -23.8350 C   0  0  0  0  0  0  0  0  0  0  0  0
  -12.3960   -0.8490  -22.5750 C   0  0  0  0  0  0  0  0  0  0  0  0
  -13.2680   -0.7040  -21.5720 F   0  0  0  0  0  0  0  0  0  0  0  0
  -11.0390   -0.9700  -22.3450 C   0  0  0  0  0  0  0  0  0  0  0  0
  -10.2000   -1.2460  -23.4320 C   0  0  0  0  0  0  0  0  0  0  0  0
  -10.6260   -0.8710  -21.3480 H   0  0  0  0  0  0  0  0  0  0  0  0
  -14.0270   -0.8030  -23.9080 H   0  0  0  0  0  0  0  0  0  0  0  0
  -12.5300   -1.5990  -25.8560 H   0  0  0  0  0  0  0  0  0  0  0  0
   -6.9620   -1.6960  -24.4610 H   0  0  0  0  0  0  0  0  0  0  0  0
   -7.8770   -0.1680  -24.5910 H   0  0  0  0  0  0  0  0  0  0  0  0
   -6.4100   -3.0870  -21.9540 H   0  0  0  0  0  0  0  0  0  0  0  0
   -7.5570   -3.3330  -20.6280 H   0  0  0  0  0  0  0  0  0  0  0  0
   -9.4380   -3.1680  -22.0050 H   0  0  0  0  0  0  0  0  0  0  0  0
   -7.3120   -3.9750  -24.0620 H   0  0  0  0  0  0  0  0  0  0  0  0
   -8.2310   -5.0670  -23.0120 H   0  0  0  0  0  0  0  0  0  0  0  0
   -9.0610   -4.1610  -24.2910 H   0  0  0  0  0  0  0  0  0  0  0  0
  1  2  1  0  0  0  0
  1 57  1  0  0  0  0
  1 58  1  0  0  0  0
  1 59  1  0  0  0  0
  2  3  1  0  0  0  0
  2 23  1  0  0  0  0
  2 56  1  1  0  0  0
  3  4  1  0  0  0  0
  3 54  1  0  0  0  0
  3 55  1  0  0  0  0
  4  5  1  0  0  0  0
  4 21  1  0  0  0  0
  5  6  2  0  0  0  0
  5 14  1  0  0  0  0
  6  7  1  0  0  0  0
  6 20  1  0  0  0  0
  7  8  2  0  0  0  0
  8  9  1  0  0  0  0
  8 19  1  0  0  0  0
  9 10  2  0  0  0  0
  9 14  1  0  0  0  0
 10 11  1  0  0  0  0
 10 18  1  0  0  0  0
 11 12  2  0  0  0  0
 11 17  1  0  0  0  0
 12 13  1  0  0  0  0
 12 16  1  0  0  0  0
 13 14  2  0  0  0  0
 13 15  1  0  0  0  0
 21 22  2  0  0  0  0
 23 21  1  1  0  0  0
 23 24  1  0  0  0  0
 23 48  1  0  0  0  0
 24 25  1  0  0  0  0
 24 52  1  0  0  0  0
 24 53  1  0  0  0  0
 25 26  1  0  0  0  0
 25 40  1  0  0  0  0
 26 27  1  0  0  0  0
 26 38  1  0  0  0  0
 26 39  1  0  0  0  0
 27 28  2  0  0  0  0
 27 31  1  0  0  0  0
 28 29  1  0  0  0  0
 29 30  2  0  0  0  0
 29 37  1  0  0  0  0
 30 31  1  0  0  0  0
 30 36  1  0  0  0  0
 31 32  1  0  0  0  0
 32 33  1  0  0  0  0
 32 34  1  0  0  0  0
 32 35  1  0  0  0  0
 40 41  2  0  0  0  0
 40 42  1  0  0  0  0
 42 43  2  0  0  0  0
 42 48  1  0  0  0  0
 43 44  1  0  0  0  0
 43 51  1  0  0  0  0
 44 45  2  0  0  0  0
 44 50  1  0  0  0  0
 45 46  1  0  0  0  0
 45 47  1  0  0  0  0
 47 48  2  0  0  0  0
 47 49  1  0  0  0  0
M  END
>  <MODEL>
       1

$$$$
