tmp_first_model_5_78.pdb
 OpenBabel08272519233D

 56 60  0  0  1  0  0  0  0  0999 V2000
  -14.6800   -1.4920  -23.3540 C   0  0  0  0  0  0  0  0  0  0  0  0
  -13.6160   -2.4140  -23.0170 N   0  0  0  0  0  0  0  0  0  0  0  0
  -13.4180   -2.8540  -21.7470 C   0  0  0  0  0  0  0  0  0  0  0  0
  -14.0040   -2.4110  -20.7690 O   0  0  0  0  0  0  0  0  0  0  0  0
  -12.4460   -4.0300  -21.6770 C   0  0  0  0  0  0  0  0  0  0  0  0
  -11.1970   -3.8600  -22.3980 N   0  0  0  0  0  0  0  0  0  0  0  0
  -10.0750   -3.3480  -21.6330 C   0  0  0  0  0  0  0  0  0  0  0  0
   -8.8740   -2.8860  -22.4850 C   0  0  2  0  0  0  0  0  0  0  0  0
   -7.6930   -2.7550  -21.5120 C   0  0  0  0  0  0  0  0  0  0  0  0
   -7.0330   -3.6610  -21.0400 O   0  0  0  0  0  0  0  0  0  0  0  0
   -7.4700   -1.4240  -21.2300 N   0  0  0  0  0  0  0  0  0  0  0  0
   -6.5140   -1.0830  -20.2490 C   0  0  0  0  0  0  0  0  0  0  0  0
   -6.6720   -1.5140  -18.9560 C   0  0  0  0  0  0  0  0  0  0  0  0
   -5.7270   -1.4000  -17.9910 N   0  0  0  0  0  0  0  0  0  0  0  0
   -4.6130   -0.7790  -18.3050 C   0  0  0  0  0  0  0  0  0  0  0  0
   -4.3770   -0.1690  -19.5690 C   0  0  0  0  0  0  0  0  0  0  0  0
   -3.2490    0.6630  -19.8120 C   0  0  0  0  0  0  0  0  0  0  0  0
   -3.1780    1.4130  -20.9560 C   0  0  0  0  0  0  0  0  0  0  0  0
   -4.1440    1.2420  -21.9760 C   0  0  0  0  0  0  0  0  0  0  0  0
   -5.2110    0.4060  -21.7930 C   0  0  0  0  0  0  0  0  0  0  0  0
   -5.3750   -0.2860  -20.5640 C   0  0  0  0  0  0  0  0  0  0  0  0
   -5.9320    0.2670  -22.5930 H   0  0  0  0  0  0  0  0  0  0  0  0
   -4.0350    1.7660  -22.9210 H   0  0  0  0  0  0  0  0  0  0  0  0
   -2.3420    2.0820  -21.1350 H   0  0  0  0  0  0  0  0  0  0  0  0
   -2.5110    0.7830  -19.0280 H   0  0  0  0  0  0  0  0  0  0  0  0
   -3.8390   -0.7000  -17.5370 H   0  0  0  0  0  0  0  0  0  0  0  0
   -7.5950   -2.0070  -18.6620 H   0  0  0  0  0  0  0  0  0  0  0  0
   -8.4470   -0.5480  -21.8550 C   0  0  0  0  0  0  0  0  0  0  0  0
   -8.9970   -1.4130  -23.0010 C   0  0  2  0  0  0  0  0  0  0  0  0
  -10.3640   -0.9550  -23.4870 C   0  0  0  0  0  0  0  0  0  0  0  0
  -11.1150   -1.0220  -22.6940 H   0  0  0  0  0  0  0  0  0  0  0  0
  -10.3120    0.0890  -23.8150 H   0  0  0  0  0  0  0  0  0  0  0  0
  -10.7110   -1.5580  -24.3320 H   0  0  0  0  0  0  0  0  0  0  0  0
   -8.2900   -1.3370  -23.8370 H   0  0  0  0  0  0  0  0  0  0  0  0
   -7.9970    0.3800  -22.2170 H   0  0  0  0  0  0  0  0  0  0  0  0
   -9.2380   -0.2690  -21.1430 H   0  0  0  0  0  0  0  0  0  0  0  0
   -8.6180   -3.9230  -23.5620 C   0  0  0  0  0  0  0  0  0  0  0  0
   -7.3380   -4.1050  -24.0950 C   0  0  0  0  0  0  0  0  0  0  0  0
   -7.0980   -5.1140  -25.0110 C   0  0  0  0  0  0  0  0  0  0  0  0
   -5.4820   -5.3500  -25.6080 Cl  0  0  0  0  0  0  0  0  0  0  0  0
   -8.1230   -5.9420  -25.4650 C   0  0  0  0  0  0  0  0  0  0  0  0
   -9.4100   -5.7090  -25.0130 C   0  0  0  0  0  0  0  0  0  0  0  0
   -9.6590   -4.7060  -24.0760 C   0  0  0  0  0  0  0  0  0  0  0  0
  -11.0590   -4.4840  -23.6100 C   0  0  0  0  0  0  0  0  0  0  0  0
  -12.0460   -4.8230  -24.2580 O   0  0  0  0  0  0  0  0  0  0  0  0
  -10.2470   -6.3020  -25.3750 H   0  0  0  0  0  0  0  0  0  0  0  0
   -7.9050   -6.7400  -26.1670 H   0  0  0  0  0  0  0  0  0  0  0  0
   -6.5260   -3.4730  -23.7640 H   0  0  0  0  0  0  0  0  0  0  0  0
   -9.7100   -4.1180  -20.9450 H   0  0  0  0  0  0  0  0  0  0  0  0
  -10.4420   -2.5070  -21.0350 H   0  0  0  0  0  0  0  0  0  0  0  0
  -12.9690   -4.8570  -22.1640 H   0  0  0  0  0  0  0  0  0  0  0  0
  -12.2690   -4.2840  -20.6310 H   0  0  0  0  0  0  0  0  0  0  0  0
  -13.1480   -2.9020  -23.7760 H   0  0  0  0  0  0  0  0  0  0  0  0
  -14.2760   -0.5150  -23.6500 H   0  0  0  0  0  0  0  0  0  0  0  0
  -15.3040   -1.8900  -24.1610 H   0  0  0  0  0  0  0  0  0  0  0  0
  -15.2870   -1.3550  -22.4550 H   0  0  0  0  0  0  0  0  0  0  0  0
  1  2  1  0  0  0  0
  1 54  1  0  0  0  0
  1 55  1  0  0  0  0
  1 56  1  0  0  0  0
  2  3  1  0  0  0  0
  2 53  1  0  0  0  0
  3  4  2  0  0  0  0
  3  5  1  0  0  0  0
  5  6  1  0  0  0  0
  5 51  1  0  0  0  0
  5 52  1  0  0  0  0
  6  7  1  0  0  0  0
  6 44  1  0  0  0  0
  7  8  1  0  0  0  0
  7 49  1  0  0  0  0
  7 50  1  0  0  0  0
  8  9  1  1  0  0  0
  8 29  1  0  0  0  0
  8 37  1  0  0  0  0
  9 10  2  0  0  0  0
  9 11  1  0  0  0  0
 11 12  1  0  0  0  0
 11 28  1  0  0  0  0
 12 13  2  0  0  0  0
 12 21  1  0  0  0  0
 13 14  1  0  0  0  0
 13 27  1  0  0  0  0
 14 15  2  0  0  0  0
 15 16  1  0  0  0  0
 15 26  1  0  0  0  0
 16 17  2  0  0  0  0
 16 21  1  0  0  0  0
 17 18  1  0  0  0  0
 17 25  1  0  0  0  0
 18 19  2  0  0  0  0
 18 24  1  0  0  0  0
 19 20  1  0  0  0  0
 19 23  1  0  0  0  0
 20 21  2  0  0  0  0
 20 22  1  0  0  0  0
 28 29  1  0  0  0  0
 28 35  1  0  0  0  0
 28 36  1  0  0  0  0
 29 30  1  0  0  0  0
 29 34  1  6  0  0  0
 30 31  1  0  0  0  0
 30 32  1  0  0  0  0
 30 33  1  0  0  0  0
 37 38  2  0  0  0  0
 37 43  1  0  0  0  0
 38 39  1  0  0  0  0
 38 48  1  0  0  0  0
 39 40  1  0  0  0  0
 39 41  2  0  0  0  0
 41 42  1  0  0  0  0
 41 47  1  0  0  0  0
 42 43  2  0  0  0  0
 42 46  1  0  0  0  0
 43 44  1  0  0  0  0
 44 45  2  0  0  0  0
M  END
>  <MODEL>
       1

$$$$
