tmp_first_model_4_69.pdb
 OpenBabel08272518513D

 63 67  0  0  0  0  0  0  0  0999 V2000
  -12.2790    6.3830  -23.7970 C   0  0  0  0  0  0  0  0  0  0  0  0
  -11.4310    5.3590  -23.7650 C   0  0  0  0  0  0  0  0  0  0  0  0
  -10.5900    5.0600  -24.9570 C   0  0  0  0  0  0  0  0  0  0  0  0
  -10.4700    5.8460  -25.8840 O   0  0  0  0  0  0  0  0  0  0  0  0
   -9.8910    3.8580  -24.9270 N   0  0  0  0  0  0  0  0  0  0  0  0
   -8.5640    3.8630  -25.5280 C   0  0  0  0  0  0  0  0  0  0  0  0
   -7.6100    3.1980  -24.5580 C   0  0  0  0  0  0  0  0  0  0  0  0
   -8.0400    1.7540  -24.3600 C   0  0  0  0  0  0  0  0  0  0  0  0
   -9.5200    1.6130  -24.0460 C   0  0  0  0  0  0  0  0  0  0  0  0
  -10.4070    2.6450  -24.4110 C   0  0  0  0  0  0  0  0  0  0  0  0
  -11.7930    2.4500  -24.3000 C   0  0  0  0  0  0  0  0  0  0  0  0
  -12.2930    1.2740  -23.7720 C   0  0  0  0  0  0  0  0  0  0  0  0
  -11.4280    0.2750  -23.3360 C   0  0  0  0  0  0  0  0  0  0  0  0
  -10.0550    0.4520  -23.4770 C   0  0  0  0  0  0  0  0  0  0  0  0
   -9.1450   -0.6780  -23.0130 N   0  3  0  0  0  0  0  0  0  0  0  0
   -8.3510   -1.3580  -24.2110 C   0  0  0  0  0  0  0  0  0  0  0  0
   -8.4180   -2.8690  -24.1960 C   0  0  0  0  0  0  0  0  0  0  0  0
   -7.2570   -3.6420  -24.1130 C   0  0  0  0  0  0  0  0  0  0  0  0
   -7.3200   -5.0310  -24.1440 C   0  0  0  0  0  0  0  0  0  0  0  0
   -8.5380   -5.6830  -24.2880 C   0  0  0  0  0  0  0  0  0  0  0  0
   -9.6900   -4.9150  -24.3960 C   0  0  0  0  0  0  0  0  0  0  0  0
  -11.2200   -5.7160  -24.6410 Cl  0  0  0  0  0  0  0  0  0  0  0  0
   -9.6440   -3.5290  -24.3320 C   0  0  0  0  0  0  0  0  0  0  0  0
  -10.5720   -2.9720  -24.4180 H   0  0  0  0  0  0  0  0  0  0  0  0
   -8.5870   -6.7660  -24.3180 H   0  0  0  0  0  0  0  0  0  0  0  0
   -6.4040   -5.6090  -24.0690 H   0  0  0  0  0  0  0  0  0  0  0  0
   -6.2840   -3.1610  -24.0350 H   0  0  0  0  0  0  0  0  0  0  0  0
   -7.3150   -1.0070  -24.1870 H   0  0  0  0  0  0  0  0  0  0  0  0
   -8.8040   -0.9690  -25.1250 H   0  0  0  0  0  0  0  0  0  0  0  0
   -8.3730   -0.3280  -21.7390 C   0  0  0  0  0  0  0  0  0  0  0  0
   -8.5660    0.7090  -21.1690 O   0  0  0  0  0  0  0  0  0  0  0  0
   -7.4560   -1.4490  -21.2640 C   0  0  0  0  0  0  0  0  0  0  0  0
   -6.4810   -1.0260  -20.1950 C   0  0  0  0  0  0  0  0  0  0  0  0
   -6.7260   -1.2760  -18.8730 C   0  0  0  0  0  0  0  0  0  0  0  0
   -5.8880   -0.9790  -17.8420 N   0  0  0  0  0  0  0  0  0  0  0  0
   -4.7670   -0.3760  -18.1460 C   0  0  0  0  0  0  0  0  0  0  0  0
   -4.4210    0.0320  -19.4610 C   0  0  0  0  0  0  0  0  0  0  0  0
   -3.2690    0.8140  -19.7170 C   0  0  0  0  0  0  0  0  0  0  0  0
   -3.0470    1.3330  -20.9620 C   0  0  0  0  0  0  0  0  0  0  0  0
   -3.9230    1.0090  -22.0220 C   0  0  0  0  0  0  0  0  0  0  0  0
   -5.0150    0.2060  -21.8100 C   0  0  0  0  0  0  0  0  0  0  0  0
   -5.3050   -0.2890  -20.5160 C   0  0  0  0  0  0  0  0  0  0  0  0
   -5.6730   -0.0580  -22.6370 H   0  0  0  0  0  0  0  0  0  0  0  0
   -3.7540    1.4370  -23.0030 H   0  0  0  0  0  0  0  0  0  0  0  0
   -2.2160    2.0120  -21.1380 H   0  0  0  0  0  0  0  0  0  0  0  0
   -2.6140    1.0430  -18.8840 H   0  0  0  0  0  0  0  0  0  0  0  0
   -4.0730   -0.1410  -17.3360 H   0  0  0  0  0  0  0  0  0  0  0  0
   -7.6500   -1.7730  -18.5840 H   0  0  0  0  0  0  0  0  0  0  0  0
   -8.1170   -2.2450  -20.8920 H   0  0  0  0  0  0  0  0  0  0  0  0
   -6.9360   -1.8550  -22.1350 H   0  0  0  0  0  0  0  0  0  0  0  0
   -9.7930   -1.4410  -22.7090 H   0  0  0  0  0  0  0  0  0  0  0  0
  -11.8370   -0.6360  -22.9060 H   0  0  0  0  0  0  0  0  0  0  0  0
  -13.3670    1.1380  -23.6810 H   0  0  0  0  0  0  0  0  0  0  0  0
  -12.4780    3.2310  -24.6140 H   0  0  0  0  0  0  0  0  0  0  0  0
   -7.8240    1.2090  -25.2910 H   0  0  0  0  0  0  0  0  0  0  0  0
   -7.4170    1.3040  -23.5820 H   0  0  0  0  0  0  0  0  0  0  0  0
   -6.5800    3.2520  -24.9260 H   0  0  0  0  0  0  0  0  0  0  0  0
   -7.6400    3.7240  -23.5980 H   0  0  0  0  0  0  0  0  0  0  0  0
   -8.5860    3.3430  -26.4970 H   0  0  0  0  0  0  0  0  0  0  0  0
   -8.2860    4.9020  -25.7140 H   0  0  0  0  0  0  0  0  0  0  0  0
  -11.3310    4.7140  -22.8950 H   0  0  0  0  0  0  0  0  0  0  0  0
  -12.3530    6.9990  -24.6900 H   0  0  0  0  0  0  0  0  0  0  0  0
  -12.8630    6.6560  -22.9260 H   0  0  0  0  0  0  0  0  0  0  0  0
  1  2  2  0  0  0  0
  1 62  1  0  0  0  0
  1 63  1  0  0  0  0
  2  3  1  0  0  0  0
  2 61  1  0  0  0  0
  3  4  2  0  0  0  0
  3  5  1  0  0  0  0
  5  6  1  0  0  0  0
  5 10  1  0  0  0  0
  6  7  1  0  0  0  0
  6 59  1  0  0  0  0
  6 60  1  0  0  0  0
  7  8  1  0  0  0  0
  7 57  1  0  0  0  0
  7 58  1  0  0  0  0
  8  9  1  0  0  0  0
  8 55  1  0  0  0  0
  8 56  1  0  0  0  0
  9 10  2  0  0  0  0
  9 14  1  0  0  0  0
 10 11  1  0  0  0  0
 11 12  2  0  0  0  0
 11 54  1  0  0  0  0
 12 13  1  0  0  0  0
 12 53  1  0  0  0  0
 13 14  2  0  0  0  0
 13 52  1  0  0  0  0
 14 15  1  0  0  0  0
 15 16  1  0  0  0  0
 15 30  1  0  0  0  0
 15 51  1  0  0  0  0
 16 17  1  0  0  0  0
 16 28  1  0  0  0  0
 16 29  1  0  0  0  0
 17 18  2  0  0  0  0
 17 23  1  0  0  0  0
 18 19  1  0  0  0  0
 18 27  1  0  0  0  0
 19 20  2  0  0  0  0
 19 26  1  0  0  0  0
 20 21  1  0  0  0  0
 20 25  1  0  0  0  0
 21 22  1  0  0  0  0
 21 23  2  0  0  0  0
 23 24  1  0  0  0  0
 30 31  2  0  0  0  0
 30 32  1  0  0  0  0
 32 33  1  0  0  0  0
 32 49  1  0  0  0  0
 32 50  1  0  0  0  0
 33 34  2  0  0  0  0
 33 42  1  0  0  0  0
 34 35  1  0  0  0  0
 34 48  1  0  0  0  0
 35 36  2  0  0  0  0
 36 37  1  0  0  0  0
 36 47  1  0  0  0  0
 37 38  2  0  0  0  0
 37 42  1  0  0  0  0
 38 39  1  0  0  0  0
 38 46  1  0  0  0  0
 39 40  2  0  0  0  0
 39 45  1  0  0  0  0
 40 41  1  0  0  0  0
 40 44  1  0  0  0  0
 41 42  2  0  0  0  0
 41 43  1  0  0  0  0
M  CHG  1  15   1
M  END
>  <MODEL>
       1

$$$$
