tmp_first_model_11_1.pdb
 OpenBabel08272522543D

 68 73  0  0  1  0  0  0  0  0999 V2000
   -7.2500    3.4810  -21.9500 C   0  0  0  0  0  0  0  0  0  0  0  0
   -8.2240    2.8940  -22.8460 N   0  0  0  0  0  0  0  0  0  0  0  0
   -7.8330    2.2290  -23.9580 C   0  0  0  0  0  0  0  0  0  0  0  0
   -6.6580    2.0650  -24.2540 O   0  0  0  0  0  0  0  0  0  0  0  0
   -8.9650    1.6820  -24.8280 C   0  0  0  0  0  0  0  0  0  0  0  0
   -9.5780    0.4990  -24.2490 N   0  0  0  0  0  0  0  0  0  0  0  0
   -8.7390   -0.6680  -24.0410 C   0  0  0  0  0  0  0  0  0  0  0  0
   -9.1110   -1.4550  -22.7520 C   0  0  2  0  0  0  0  0  0  0  0  0
   -8.6360   -0.6430  -21.5180 C   0  0  0  0  0  0  0  0  0  0  0  0
   -9.1590    0.3440  -21.0530 O   0  0  0  0  0  0  0  0  0  0  0  0
   -7.4700   -1.2180  -21.0550 N   0  0  0  0  0  0  0  0  0  0  0  0
   -6.6650   -0.6520  -20.0420 C   0  0  0  0  0  0  0  0  0  0  0  0
   -6.9390   -0.9150  -18.7260 C   0  0  0  0  0  0  0  0  0  0  0  0
   -6.1860   -0.4680  -17.6920 N   0  0  0  0  0  0  0  0  0  0  0  0
   -5.1290    0.2530  -17.9870 C   0  0  0  0  0  0  0  0  0  0  0  0
   -4.7180    0.5790  -19.3130 C   0  0  0  0  0  0  0  0  0  0  0  0
   -3.5720    1.3710  -19.5940 C   0  0  0  0  0  0  0  0  0  0  0  0
   -3.2210    1.6590  -20.8860 C   0  0  0  0  0  0  0  0  0  0  0  0
   -3.9940    1.1720  -21.9630 C   0  0  0  0  0  0  0  0  0  0  0  0
   -5.1100    0.4110  -21.7190 C   0  0  0  0  0  0  0  0  0  0  0  0
   -5.5020    0.1010  -20.3850 C   0  0  0  0  0  0  0  0  0  0  0  0
   -5.7120    0.0640  -22.5530 H   0  0  0  0  0  0  0  0  0  0  0  0
   -3.7260    1.4130  -22.9870 H   0  0  0  0  0  0  0  0  0  0  0  0
   -2.3570    2.2840  -21.0900 H   0  0  0  0  0  0  0  0  0  0  0  0
   -2.9990    1.7590  -18.7590 H   0  0  0  0  0  0  0  0  0  0  0  0
   -4.5310    0.6140  -17.1510 H   0  0  0  0  0  0  0  0  0  0  0  0
   -7.8040   -1.5270  -18.4720 H   0  0  0  0  0  0  0  0  0  0  0  0
   -7.0120   -2.3570  -21.8140 C   0  0  0  0  0  0  0  0  0  0  0  0
   -8.2600   -2.7590  -22.6030 C   0  0  2  0  0  0  0  0  0  0  0  0
   -7.8900   -3.4830  -23.8830 C   0  0  0  0  0  0  0  0  0  0  0  0
   -9.0740   -3.9640  -24.5320 N   0  0  0  0  0  0  0  0  0  0  0  0
   -8.9550   -4.4960  -25.7990 C   0  0  0  0  0  0  0  0  0  0  0  0
   -7.7520   -4.7800  -26.5000 C   0  0  0  0  0  0  0  0  0  0  0  0
   -7.9930   -5.3350  -27.6820 N   0  0  0  0  0  0  0  0  0  0  0  0
   -9.3200   -5.4080  -27.7540 N   0  0  0  0  0  0  0  0  0  0  0  0
   -9.9740   -5.9840  -28.8950 C   0  0  0  0  0  0  0  0  0  0  0  0
  -10.7230   -5.2650  -29.2320 H   0  0  0  0  0  0  0  0  0  0  0  0
  -10.4670   -6.9310  -28.6360 H   0  0  0  0  0  0  0  0  0  0  0  0
   -9.2180   -6.1550  -29.6650 H   0  0  0  0  0  0  0  0  0  0  0  0
   -9.9540   -4.9370  -26.6510 C   0  0  0  0  0  0  0  0  0  0  0  0
  -11.0400   -4.9940  -26.5830 H   0  0  0  0  0  0  0  0  0  0  0  0
   -6.7240   -4.6280  -26.1930 H   0  0  0  0  0  0  0  0  0  0  0  0
   -9.9630   -3.5440  -24.2750 H   0  0  0  0  0  0  0  0  0  0  0  0
   -7.2990   -2.8090  -24.5360 H   0  0  0  0  0  0  0  0  0  0  0  0
   -7.2420   -4.3420  -23.6630 H   0  0  0  0  0  0  0  0  0  0  0  0
   -8.8380   -3.4450  -21.9760 H   0  0  0  0  0  0  0  0  0  0  0  0
   -6.1640   -2.1010  -22.4730 H   0  0  0  0  0  0  0  0  0  0  0  0
   -6.6550   -3.1390  -21.1350 H   0  0  0  0  0  0  0  0  0  0  0  0
  -10.6230   -1.6380  -22.7150 C   0  0  0  0  0  0  0  0  0  0  0  0
  -11.2250   -2.5820  -21.8680 C   0  0  0  0  0  0  0  0  0  0  0  0
  -12.6060   -2.6320  -21.7470 C   0  0  0  0  0  0  0  0  0  0  0  0
  -13.3600   -3.7060  -20.6090 Cl  0  0  0  0  0  0  0  0  0  0  0  0
  -13.4450   -1.8080  -22.4930 C   0  0  0  0  0  0  0  0  0  0  0  0
  -12.8610   -0.8830  -23.3330 C   0  0  0  0  0  0  0  0  0  0  0  0
  -11.4720   -0.7550  -23.4030 C   0  0  0  0  0  0  0  0  0  0  0  0
  -10.9390    0.4310  -24.1530 C   0  0  0  0  0  0  0  0  0  0  0  0
  -11.6820    1.2900  -24.6100 O   0  0  0  0  0  0  0  0  0  0  0  0
  -13.4670   -0.2040  -23.9210 H   0  0  0  0  0  0  0  0  0  0  0  0
  -14.5230   -1.8820  -22.3700 H   0  0  0  0  0  0  0  0  0  0  0  0
  -10.6290   -3.2680  -21.2760 H   0  0  0  0  0  0  0  0  0  0  0  0
   -7.7120   -0.3030  -23.9650 H   0  0  0  0  0  0  0  0  0  0  0  0
   -8.8010   -1.3240  -24.9220 H   0  0  0  0  0  0  0  0  0  0  0  0
   -9.7630    2.4210  -24.9240 H   0  0  0  0  0  0  0  0  0  0  0  0
   -8.5430    1.4870  -25.8230 H   0  0  0  0  0  0  0  0  0  0  0  0
   -9.1720    2.7880  -22.5280 H   0  0  0  0  0  0  0  0  0  0  0  0
   -6.5710    4.1150  -22.5260 H   0  0  0  0  0  0  0  0  0  0  0  0
   -7.7760    4.0880  -21.2110 H   0  0  0  0  0  0  0  0  0  0  0  0
   -6.6570    2.7100  -21.4390 H   0  0  0  0  0  0  0  0  0  0  0  0
  1  2  1  0  0  0  0
  1 66  1  0  0  0  0
  1 67  1  0  0  0  0
  1 68  1  0  0  0  0
  2  3  1  0  0  0  0
  2 65  1  0  0  0  0
  3  4  2  0  0  0  0
  3  5  1  0  0  0  0
  5  6  1  0  0  0  0
  5 63  1  0  0  0  0
  5 64  1  0  0  0  0
  6  7  1  0  0  0  0
  6 56  1  0  0  0  0
  7  8  1  0  0  0  0
  7 61  1  0  0  0  0
  7 62  1  0  0  0  0
  8  9  1  1  0  0  0
  8 29  1  0  0  0  0
  8 49  1  0  0  0  0
  9 10  2  0  0  0  0
  9 11  1  0  0  0  0
 11 12  1  0  0  0  0
 11 28  1  0  0  0  0
 12 13  2  0  0  0  0
 12 21  1  0  0  0  0
 13 14  1  0  0  0  0
 13 27  1  0  0  0  0
 14 15  2  0  0  0  0
 15 16  1  0  0  0  0
 15 26  1  0  0  0  0
 16 17  2  0  0  0  0
 16 21  1  0  0  0  0
 17 18  1  0  0  0  0
 17 25  1  0  0  0  0
 18 19  2  0  0  0  0
 18 24  1  0  0  0  0
 19 20  1  0  0  0  0
 19 23  1  0  0  0  0
 20 21  2  0  0  0  0
 20 22  1  0  0  0  0
 28 29  1  0  0  0  0
 28 47  1  0  0  0  0
 28 48  1  0  0  0  0
 29 30  1  0  0  0  0
 29 46  1  1  0  0  0
 30 31  1  0  0  0  0
 30 44  1  0  0  0  0
 30 45  1  0  0  0  0
 31 32  1  0  0  0  0
 31 43  1  0  0  0  0
 32 33  1  0  0  0  0
 32 40  2  0  0  0  0
 33 34  2  0  0  0  0
 33 42  1  0  0  0  0
 34 35  1  0  0  0  0
 35 36  1  0  0  0  0
 35 40  1  0  0  0  0
 36 37  1  0  0  0  0
 36 38  1  0  0  0  0
 36 39  1  0  0  0  0
 40 41  1  0  0  0  0
 49 50  2  0  0  0  0
 49 55  1  0  0  0  0
 50 51  1  0  0  0  0
 50 60  1  0  0  0  0
 51 52  1  0  0  0  0
 51 53  2  0  0  0  0
 53 54  1  0  0  0  0
 53 59  1  0  0  0  0
 54 55  2  0  0  0  0
 54 58  1  0  0  0  0
 55 56  1  0  0  0  0
 56 57  2  0  0  0  0
M  END
>  <MODEL>
       1

$$$$
