tmp_first_model_4_87.pdb
 OpenBabel08272518513D

 59 64  0  0  1  0  0  0  0  0999 V2000
   -7.9040   -3.6710  -24.0480 C   0  0  0  0  0  0  0  0  0  0  0  0
   -8.2850   -2.8790  -22.8030 C   0  0  1  0  0  0  0  0  0  0  0  0
   -7.0610   -2.6430  -21.9070 C   0  0  0  0  0  0  0  0  0  0  0  0
   -7.3910   -1.4340  -21.2010 N   0  0  0  0  0  0  0  0  0  0  0  0
   -6.5200   -0.9540  -20.1970 C   0  0  0  0  0  0  0  0  0  0  0  0
   -6.7670   -1.2540  -18.8870 C   0  0  0  0  0  0  0  0  0  0  0  0
   -5.9100   -0.9920  -17.8690 N   0  0  0  0  0  0  0  0  0  0  0  0
   -4.7850   -0.3910  -18.1640 C   0  0  0  0  0  0  0  0  0  0  0  0
   -4.4370    0.0330  -19.4780 C   0  0  0  0  0  0  0  0  0  0  0  0
   -3.2710    0.7940  -19.7340 C   0  0  0  0  0  0  0  0  0  0  0  0
   -3.0470    1.3130  -20.9790 C   0  0  0  0  0  0  0  0  0  0  0  0
   -3.9130    1.0000  -22.0520 C   0  0  0  0  0  0  0  0  0  0  0  0
   -5.0190    0.2140  -21.8410 C   0  0  0  0  0  0  0  0  0  0  0  0
   -5.3190   -0.2640  -20.5370 C   0  0  0  0  0  0  0  0  0  0  0  0
   -5.6620   -0.0510  -22.6760 H   0  0  0  0  0  0  0  0  0  0  0  0
   -3.7210    1.4190  -23.0330 H   0  0  0  0  0  0  0  0  0  0  0  0
   -2.2010    1.9700  -21.1500 H   0  0  0  0  0  0  0  0  0  0  0  0
   -2.6280    1.0180  -18.8890 H   0  0  0  0  0  0  0  0  0  0  0  0
   -4.0790   -0.1870  -17.3570 H   0  0  0  0  0  0  0  0  0  0  0  0
   -7.6970   -1.7610  -18.6380 H   0  0  0  0  0  0  0  0  0  0  0  0
   -8.4430   -0.7230  -21.7290 C   0  0  0  0  0  0  0  0  0  0  0  0
   -8.8970    0.2920  -21.2450 O   0  0  0  0  0  0  0  0  0  0  0  0
   -8.9300   -1.4680  -23.0030 C   0  0  1  0  0  0  0  0  0  0  0  0
   -8.3980   -0.8190  -24.3070 C   0  0  0  0  0  0  0  0  0  0  0  0
   -9.0430    0.4390  -24.6220 N   0  0  0  0  0  0  0  0  0  0  0  0
   -8.2910    1.5160  -25.2470 C   0  0  0  0  0  0  0  0  0  0  0  0
   -8.1540    2.7010  -24.3370 C   0  0  0  0  0  0  0  0  0  0  0  0
   -7.5730    2.8170  -23.0870 C   0  0  0  0  0  0  0  0  0  0  0  0
   -7.7750    4.1610  -22.7260 C   0  0  0  0  0  0  0  0  0  0  0  0
   -8.4140    4.8290  -23.6790 N   0  0  0  0  0  0  0  0  0  0  0  0
   -8.6400    3.9300  -24.6460 N   0  0  0  0  0  0  0  0  0  0  0  0
   -9.3150    4.3610  -25.8610 C   0  0  0  0  0  0  0  0  0  0  0  0
  -10.2150    3.7650  -26.0440 H   0  0  0  0  0  0  0  0  0  0  0  0
   -8.6410    4.2960  -26.7220 H   0  0  0  0  0  0  0  0  0  0  0  0
   -9.5830    5.4060  -25.7050 H   0  0  0  0  0  0  0  0  0  0  0  0
   -7.4750    4.6830  -21.8240 H   0  0  0  0  0  0  0  0  0  0  0  0
   -7.0720    2.0500  -22.5070 H   0  0  0  0  0  0  0  0  0  0  0  0
   -8.7760    1.7950  -26.1890 H   0  0  0  0  0  0  0  0  0  0  0  0
   -7.3000    1.1300  -25.5070 H   0  0  0  0  0  0  0  0  0  0  0  0
  -10.4030    0.5650  -24.5840 C   0  0  0  0  0  0  0  0  0  0  0  0
  -10.9880    1.4910  -25.1340 O   0  0  0  0  0  0  0  0  0  0  0  0
  -11.1370   -0.4840  -23.8060 C   0  0  0  0  0  0  0  0  0  0  0  0
  -12.5330   -0.4460  -23.8060 C   0  0  0  0  0  0  0  0  0  0  0  0
  -13.2660   -1.3090  -23.0180 C   0  0  0  0  0  0  0  0  0  0  0  0
  -12.5600   -2.1940  -22.2120 C   0  0  0  0  0  0  0  0  0  0  0  0
  -13.2510   -3.0130  -21.4050 F   0  0  0  0  0  0  0  0  0  0  0  0
  -11.1830   -2.2620  -22.1970 C   0  0  0  0  0  0  0  0  0  0  0  0
  -10.4430   -1.4320  -23.0430 C   0  0  0  0  0  0  0  0  0  0  0  0
  -10.7020   -2.9510  -21.5130 H   0  0  0  0  0  0  0  0  0  0  0  0
  -14.3510   -1.2930  -22.9900 H   0  0  0  0  0  0  0  0  0  0  0  0
  -13.0230    0.2950  -24.4240 H   0  0  0  0  0  0  0  0  0  0  0  0
   -8.5590   -1.5320  -25.1280 H   0  0  0  0  0  0  0  0  0  0  0  0
   -7.3190   -0.6520  -24.2240 H   0  0  0  0  0  0  0  0  0  0  0  0
   -6.1290   -2.5460  -22.4930 H   0  0  0  0  0  0  0  0  0  0  0  0
   -6.9130   -3.4540  -21.1880 H   0  0  0  0  0  0  0  0  0  0  0  0
   -8.9940   -3.4830  -22.2300 H   0  0  0  0  0  0  0  0  0  0  0  0
   -8.7550   -3.8180  -24.7220 H   0  0  0  0  0  0  0  0  0  0  0  0
   -7.1050   -3.1620  -24.6010 H   0  0  0  0  0  0  0  0  0  0  0  0
   -7.5230   -4.6530  -23.7510 H   0  0  0  0  0  0  0  0  0  0  0  0
  1  2  1  0  0  0  0
  1 57  1  0  0  0  0
  1 58  1  0  0  0  0
  1 59  1  0  0  0  0
  2  3  1  0  0  0  0
  2 23  1  0  0  0  0
  2 56  1  1  0  0  0
  3  4  1  0  0  0  0
  3 54  1  0  0  0  0
  3 55  1  0  0  0  0
  4  5  1  0  0  0  0
  4 21  1  0  0  0  0
  5  6  2  0  0  0  0
  5 14  1  0  0  0  0
  6  7  1  0  0  0  0
  6 20  1  0  0  0  0
  7  8  2  0  0  0  0
  8  9  1  0  0  0  0
  8 19  1  0  0  0  0
  9 10  2  0  0  0  0
  9 14  1  0  0  0  0
 10 11  1  0  0  0  0
 10 18  1  0  0  0  0
 11 12  2  0  0  0  0
 11 17  1  0  0  0  0
 12 13  1  0  0  0  0
 12 16  1  0  0  0  0
 13 14  2  0  0  0  0
 13 15  1  0  0  0  0
 21 22  2  0  0  0  0
 23 21  1  1  0  0  0
 23 24  1  0  0  0  0
 23 48  1  0  0  0  0
 24 25  1  0  0  0  0
 24 52  1  0  0  0  0
 24 53  1  0  0  0  0
 25 26  1  0  0  0  0
 25 40  1  0  0  0  0
 26 27  1  0  0  0  0
 26 38  1  0  0  0  0
 26 39  1  0  0  0  0
 27 28  2  0  0  0  0
 27 31  1  0  0  0  0
 28 29  1  0  0  0  0
 28 37  1  0  0  0  0
 29 30  2  0  0  0  0
 29 36  1  0  0  0  0
 30 31  1  0  0  0  0
 31 32  1  0  0  0  0
 32 33  1  0  0  0  0
 32 34  1  0  0  0  0
 32 35  1  0  0  0  0
 40 41  2  0  0  0  0
 40 42  1  0  0  0  0
 42 43  2  0  0  0  0
 42 48  1  0  0  0  0
 43 44  1  0  0  0  0
 43 51  1  0  0  0  0
 44 45  2  0  0  0  0
 44 50  1  0  0  0  0
 45 46  1  0  0  0  0
 45 47  1  0  0  0  0
 47 48  2  0  0  0  0
 47 49  1  0  0  0  0
M  END
>  <MODEL>
       1

$$$$
