tmp_first_model_17_41.pdb
 OpenBabel08282502223D

 67 71  0  0  1  0  0  0  0  0999 V2000
   -7.4310    3.3580  -21.6940 C   0  0  0  0  0  0  0  0  0  0  0  0
   -8.3710    2.9480  -22.7140 N   0  0  0  0  0  0  0  0  0  0  0  0
   -7.8590    2.2460  -23.7540 C   0  0  0  0  0  0  0  0  0  0  0  0
   -6.6540    2.1050  -23.9010 O   0  0  0  0  0  0  0  0  0  0  0  0
   -8.8400    1.6530  -24.7520 C   0  0  0  0  0  0  0  0  0  0  0  0
   -9.5000    0.4690  -24.2550 N   0  0  0  0  0  0  0  0  0  0  0  0
   -8.7410   -0.7630  -24.1520 C   0  0  0  0  0  0  0  0  0  0  0  0
   -9.0830   -1.5300  -22.8600 C   0  0  2  0  0  0  0  0  0  0  0  0
   -8.5450   -0.7650  -21.6310 C   0  0  0  0  0  0  0  0  0  0  0  0
   -9.0170    0.2290  -21.1150 O   0  0  0  0  0  0  0  0  0  0  0  0
   -7.4000   -1.3910  -21.2000 N   0  0  0  0  0  0  0  0  0  0  0  0
   -6.6020   -0.8210  -20.1730 C   0  0  0  0  0  0  0  0  0  0  0  0
   -6.9210   -1.0480  -18.8570 C   0  0  0  0  0  0  0  0  0  0  0  0
   -6.2240   -0.5490  -17.8060 N   0  0  0  0  0  0  0  0  0  0  0  0
   -5.1850    0.2040  -18.0750 C   0  0  0  0  0  0  0  0  0  0  0  0
   -4.7480    0.5270  -19.3910 C   0  0  0  0  0  0  0  0  0  0  0  0
   -3.6260    1.3650  -19.6350 C   0  0  0  0  0  0  0  0  0  0  0  0
   -3.2460    1.6690  -20.9130 C   0  0  0  0  0  0  0  0  0  0  0  0
   -3.9700    1.1520  -22.0130 C   0  0  0  0  0  0  0  0  0  0  0  0
   -5.0580    0.3370  -21.8060 C   0  0  0  0  0  0  0  0  0  0  0  0
   -5.4750    0.0020  -20.4870 C   0  0  0  0  0  0  0  0  0  0  0  0
   -5.6160   -0.0350  -22.6610 H   0  0  0  0  0  0  0  0  0  0  0  0
   -3.6670    1.4010  -23.0250 H   0  0  0  0  0  0  0  0  0  0  0  0
   -2.3850    2.3100  -21.0940 H   0  0  0  0  0  0  0  0  0  0  0  0
   -3.0820    1.7610  -18.7810 H   0  0  0  0  0  0  0  0  0  0  0  0
   -4.6200    0.5990  -17.2300 H   0  0  0  0  0  0  0  0  0  0  0  0
   -7.7840   -1.6650  -18.6110 H   0  0  0  0  0  0  0  0  0  0  0  0
   -7.0430   -2.5760  -21.9530 C   0  0  0  0  0  0  0  0  0  0  0  0
   -8.3160   -2.8890  -22.7680 C   0  0  2  0  0  0  0  0  0  0  0  0
   -8.0420   -3.6240  -24.1010 C   0  0  0  0  0  0  0  0  0  0  0  0
   -7.3100   -5.2390  -23.7900 S   0  0  0  0  0  0  0  0  0  0  0  0
   -8.2240   -6.0060  -22.9520 O   0  0  0  0  0  0  0  0  0  0  0  0
   -5.9310   -5.0150  -23.3720 O   0  0  0  0  0  0  0  0  0  0  0  0
   -7.2930   -6.0190  -25.2910 N   0  0  0  0  0  0  0  0  0  0  0  0
   -6.4980   -5.3810  -26.3340 C   0  0  0  0  0  0  0  0  0  0  0  0
   -5.4510   -5.2440  -26.0400 H   0  0  0  0  0  0  0  0  0  0  0  0
   -6.5460   -6.0230  -27.2220 H   0  0  0  0  0  0  0  0  0  0  0  0
   -6.9280   -4.4180  -26.6100 H   0  0  0  0  0  0  0  0  0  0  0  0
   -6.9020   -7.4250  -25.1310 C   0  0  0  0  0  0  0  0  0  0  0  0
   -5.8720   -7.5390  -24.7640 H   0  0  0  0  0  0  0  0  0  0  0  0
   -7.5820   -7.9040  -24.4310 H   0  0  0  0  0  0  0  0  0  0  0  0
   -6.9910   -7.9220  -26.1020 H   0  0  0  0  0  0  0  0  0  0  0  0
   -7.3210   -3.0560  -24.7020 H   0  0  0  0  0  0  0  0  0  0  0  0
   -8.9660   -3.7830  -24.6730 H   0  0  0  0  0  0  0  0  0  0  0  0
   -8.9310   -3.5630  -22.1710 H   0  0  0  0  0  0  0  0  0  0  0  0
   -6.1890   -2.3770  -22.6130 H   0  0  0  0  0  0  0  0  0  0  0  0
   -6.7660   -3.3940  -21.2820 H   0  0  0  0  0  0  0  0  0  0  0  0
  -10.5920   -1.6230  -22.7660 C   0  0  0  0  0  0  0  0  0  0  0  0
  -11.1780   -2.5550  -21.9090 C   0  0  0  0  0  0  0  0  0  0  0  0
  -12.5480   -2.5800  -21.7600 C   0  0  0  0  0  0  0  0  0  0  0  0
  -13.0560   -3.4420  -20.8630 F   0  0  0  0  0  0  0  0  0  0  0  0
  -13.3930   -1.7220  -22.4630 C   0  0  0  0  0  0  0  0  0  0  0  0
  -12.8190   -0.7660  -23.2790 C   0  0  0  0  0  0  0  0  0  0  0  0
  -11.4310   -0.6920  -23.3980 C   0  0  0  0  0  0  0  0  0  0  0  0
  -10.8610    0.4780  -24.1300 C   0  0  0  0  0  0  0  0  0  0  0  0
  -11.5610    1.3900  -24.5470 O   0  0  0  0  0  0  0  0  0  0  0  0
  -13.4190   -0.0340  -23.8130 H   0  0  0  0  0  0  0  0  0  0  0  0
  -14.4660   -1.8030  -22.3310 H   0  0  0  0  0  0  0  0  0  0  0  0
  -10.5800   -3.2480  -21.3280 H   0  0  0  0  0  0  0  0  0  0  0  0
   -7.6780   -0.5030  -24.1770 H   0  0  0  0  0  0  0  0  0  0  0  0
   -8.9730   -1.4070  -25.0100 H   0  0  0  0  0  0  0  0  0  0  0  0
   -9.6400    2.3570  -24.9810 H   0  0  0  0  0  0  0  0  0  0  0  0
   -8.2480    1.4160  -25.6400 H   0  0  0  0  0  0  0  0  0  0  0  0
   -9.3280    2.8090  -22.4280 H   0  0  0  0  0  0  0  0  0  0  0  0
   -7.9580    3.7060  -20.8120 H   0  0  0  0  0  0  0  0  0  0  0  0
   -6.7870    4.1420  -22.0800 H   0  0  0  0  0  0  0  0  0  0  0  0
   -6.7860    2.5220  -21.4210 H   0  0  0  0  0  0  0  0  0  0  0  0
  1  2  1  0  0  0  0
  1 65  1  0  0  0  0
  1 66  1  0  0  0  0
  1 67  1  0  0  0  0
  2  3  1  0  0  0  0
  2 64  1  0  0  0  0
  3  4  2  0  0  0  0
  3  5  1  0  0  0  0
  5  6  1  0  0  0  0
  5 62  1  0  0  0  0
  5 63  1  0  0  0  0
  6  7  1  0  0  0  0
  6 55  1  0  0  0  0
  7  8  1  0  0  0  0
  7 60  1  0  0  0  0
  7 61  1  0  0  0  0
  8  9  1  1  0  0  0
  8 29  1  0  0  0  0
  8 48  1  0  0  0  0
  9 10  2  0  0  0  0
  9 11  1  0  0  0  0
 11 12  1  0  0  0  0
 11 28  1  0  0  0  0
 12 13  2  0  0  0  0
 12 21  1  0  0  0  0
 13 14  1  0  0  0  0
 13 27  1  0  0  0  0
 14 15  2  0  0  0  0
 15 16  1  0  0  0  0
 15 26  1  0  0  0  0
 16 17  2  0  0  0  0
 16 21  1  0  0  0  0
 17 18  1  0  0  0  0
 17 25  1  0  0  0  0
 18 19  2  0  0  0  0
 18 24  1  0  0  0  0
 19 20  1  0  0  0  0
 19 23  1  0  0  0  0
 20 21  2  0  0  0  0
 20 22  1  0  0  0  0
 28 29  1  0  0  0  0
 28 46  1  0  0  0  0
 28 47  1  0  0  0  0
 29 30  1  0  0  0  0
 29 45  1  1  0  0  0
 30 31  1  0  0  0  0
 30 43  1  0  0  0  0
 30 44  1  0  0  0  0
 31 32  2  0  0  0  0
 31 33  2  0  0  0  0
 31 34  1  0  0  0  0
 34 35  1  0  0  0  0
 34 39  1  0  0  0  0
 35 36  1  0  0  0  0
 35 37  1  0  0  0  0
 35 38  1  0  0  0  0
 39 40  1  0  0  0  0
 39 41  1  0  0  0  0
 39 42  1  0  0  0  0
 48 49  2  0  0  0  0
 48 54  1  0  0  0  0
 49 50  1  0  0  0  0
 49 59  1  0  0  0  0
 50 51  1  0  0  0  0
 50 52  2  0  0  0  0
 52 53  1  0  0  0  0
 52 58  1  0  0  0  0
 53 54  2  0  0  0  0
 53 57  1  0  0  0  0
 54 55  1  0  0  0  0
 55 56  2  0  0  0  0
M  END
>  <MODEL>
       1

$$$$
