tmp_first_model_8_76.pdb
 OpenBabel08272521063D

 66 71  0  0  1  0  0  0  0  0999 V2000
   -8.1950   -3.4710  -24.1020 C   0  0  0  0  0  0  0  0  0  0  0  0
   -8.4670   -2.7340  -22.7830 C   0  0  1  0  0  0  0  0  0  0  0  0
   -7.1840   -2.5240  -21.9490 C   0  0  0  0  0  0  0  0  0  0  0  0
   -7.4570   -1.3180  -21.1900 N   0  0  0  0  0  0  0  0  0  0  0  0
   -6.6180   -0.7950  -20.1690 C   0  0  0  0  0  0  0  0  0  0  0  0
   -6.9130   -1.0420  -18.8520 C   0  0  0  0  0  0  0  0  0  0  0  0
   -6.1980   -0.5650  -17.8070 N   0  0  0  0  0  0  0  0  0  0  0  0
   -5.1680    0.2030  -18.0760 C   0  0  0  0  0  0  0  0  0  0  0  0
   -4.7440    0.5400  -19.3940 C   0  0  0  0  0  0  0  0  0  0  0  0
   -3.6270    1.3880  -19.6360 C   0  0  0  0  0  0  0  0  0  0  0  0
   -3.2560    1.6970  -20.9190 C   0  0  0  0  0  0  0  0  0  0  0  0
   -3.9790    1.1710  -22.0090 C   0  0  0  0  0  0  0  0  0  0  0  0
   -5.0490    0.3300  -21.8010 C   0  0  0  0  0  0  0  0  0  0  0  0
   -5.4790    0.0130  -20.4820 C   0  0  0  0  0  0  0  0  0  0  0  0
   -5.5650   -0.0950  -22.6550 H   0  0  0  0  0  0  0  0  0  0  0  0
   -3.6630    1.4070  -23.0210 H   0  0  0  0  0  0  0  0  0  0  0  0
   -2.4020    2.3440  -21.1050 H   0  0  0  0  0  0  0  0  0  0  0  0
   -3.0900    1.7920  -18.7840 H   0  0  0  0  0  0  0  0  0  0  0  0
   -4.6190    0.6090  -17.2280 H   0  0  0  0  0  0  0  0  0  0  0  0
   -7.7700   -1.6620  -18.5970 H   0  0  0  0  0  0  0  0  0  0  0  0
   -8.5340   -0.5970  -21.6470 C   0  0  0  0  0  0  0  0  0  0  0  0
   -8.9220    0.4480  -21.1530 O   0  0  0  0  0  0  0  0  0  0  0  0
   -9.1340   -1.3230  -22.8760 C   0  0  1  0  0  0  0  0  0  0  0  0
   -8.7150   -0.5870  -24.1700 C   0  0  0  0  0  0  0  0  0  0  0  0
   -9.3170    0.7270  -24.2660 N   0  0  0  0  0  0  0  0  0  0  0  0
   -8.5180    1.7850  -24.8600 C   0  0  0  0  0  0  0  0  0  0  0  0
   -7.5650    2.4160  -23.8580 C   0  0  0  0  0  0  0  0  0  0  0  0
   -8.3050    3.2140  -22.8270 N   0  3  0  0  0  0  0  0  0  0  0  0
   -7.5050    3.3060  -21.5750 C   0  0  0  0  0  0  0  0  0  0  0  0
   -6.3470    4.2650  -21.6700 C   0  0  0  0  0  0  0  0  0  0  0  0
   -6.8020    5.5720  -21.9490 O   0  0  0  0  0  0  0  0  0  0  0  0
   -7.4430    5.5860  -23.2100 C   0  0  0  0  0  0  0  0  0  0  0  0
   -8.6530    4.6430  -23.2510 C   0  0  0  0  0  0  0  0  0  0  0  0
   -9.4060    5.0070  -22.5480 H   0  0  0  0  0  0  0  0  0  0  0  0
   -9.0730    4.6120  -24.2590 H   0  0  0  0  0  0  0  0  0  0  0  0
   -6.7180    5.3090  -23.9910 H   0  0  0  0  0  0  0  0  0  0  0  0
   -7.7650    6.6160  -23.3890 H   0  0  0  0  0  0  0  0  0  0  0  0
   -5.8880    4.2510  -20.6910 H   0  0  0  0  0  0  0  0  0  0  0  0
   -5.6080    3.9420  -22.4200 H   0  0  0  0  0  0  0  0  0  0  0  0
   -7.1500    2.3040  -21.3240 H   0  0  0  0  0  0  0  0  0  0  0  0
   -8.1610    3.6680  -20.7820 H   0  0  0  0  0  0  0  0  0  0  0  0
   -9.1680    2.6930  -22.5730 H   0  0  0  0  0  0  0  0  0  0  0  0
   -6.9940    1.6460  -23.3230 H   0  0  0  0  0  0  0  0  0  0  0  0
   -6.8440    3.0600  -24.3670 H   0  0  0  0  0  0  0  0  0  0  0  0
   -7.9330    1.3800  -25.6920 H   0  0  0  0  0  0  0  0  0  0  0  0
   -9.2130    2.5330  -25.2380 H   0  0  0  0  0  0  0  0  0  0  0  0
  -10.6650    0.8870  -24.1030 C   0  0  0  0  0  0  0  0  0  0  0  0
  -11.2690    1.8880  -24.4700 O   0  0  0  0  0  0  0  0  0  0  0  0
  -11.3670   -0.2370  -23.3920 C   0  0  0  0  0  0  0  0  0  0  0  0
  -12.7560   -0.1720  -23.2880 C   0  0  0  0  0  0  0  0  0  0  0  0
  -13.4460   -1.1160  -22.5530 C   0  0  0  0  0  0  0  0  0  0  0  0
  -12.7290   -2.1140  -21.8980 C   0  0  0  0  0  0  0  0  0  0  0  0
  -13.5810   -3.2480  -20.8900 Cl  0  0  0  0  0  0  0  0  0  0  0  0
  -11.3520   -2.1990  -21.9970 C   0  0  0  0  0  0  0  0  0  0  0  0
  -10.6500   -1.2840  -22.7920 C   0  0  0  0  0  0  0  0  0  0  0  0
  -10.8390   -2.9570  -21.4170 H   0  0  0  0  0  0  0  0  0  0  0  0
  -14.5240   -1.0690  -22.4540 H   0  0  0  0  0  0  0  0  0  0  0  0
  -13.2600    0.6520  -23.7800 H   0  0  0  0  0  0  0  0  0  0  0  0
   -7.6280   -0.4580  -24.1820 H   0  0  0  0  0  0  0  0  0  0  0  0
   -9.0070   -1.2050  -25.0350 H   0  0  0  0  0  0  0  0  0  0  0  0
   -6.9760   -3.3640  -21.2760 H   0  0  0  0  0  0  0  0  0  0  0  0
   -6.3020   -2.4040  -22.5990 H   0  0  0  0  0  0  0  0  0  0  0  0
   -9.1440   -3.3490  -22.1860 H   0  0  0  0  0  0  0  0  0  0  0  0
   -9.1000   -3.5770  -24.7120 H   0  0  0  0  0  0  0  0  0  0  0  0
   -7.4480   -2.9420  -24.7080 H   0  0  0  0  0  0  0  0  0  0  0  0
   -7.8020   -4.4780  -23.9160 H   0  0  0  0  0  0  0  0  0  0  0  0
  1  2  1  0  0  0  0
  1 64  1  0  0  0  0
  1 65  1  0  0  0  0
  1 66  1  0  0  0  0
  2  3  1  0  0  0  0
  2 23  1  0  0  0  0
  2 63  1  1  0  0  0
  3  4  1  0  0  0  0
  3 61  1  0  0  0  0
  3 62  1  0  0  0  0
  4  5  1  0  0  0  0
  4 21  1  0  0  0  0
  5  6  2  0  0  0  0
  5 14  1  0  0  0  0
  6  7  1  0  0  0  0
  6 20  1  0  0  0  0
  7  8  2  0  0  0  0
  8  9  1  0  0  0  0
  8 19  1  0  0  0  0
  9 10  2  0  0  0  0
  9 14  1  0  0  0  0
 10 11  1  0  0  0  0
 10 18  1  0  0  0  0
 11 12  2  0  0  0  0
 11 17  1  0  0  0  0
 12 13  1  0  0  0  0
 12 16  1  0  0  0  0
 13 14  2  0  0  0  0
 13 15  1  0  0  0  0
 21 22  2  0  0  0  0
 23 21  1  1  0  0  0
 23 24  1  0  0  0  0
 23 55  1  0  0  0  0
 24 25  1  0  0  0  0
 24 59  1  0  0  0  0
 24 60  1  0  0  0  0
 25 26  1  0  0  0  0
 25 47  1  0  0  0  0
 26 27  1  0  0  0  0
 26 45  1  0  0  0  0
 26 46  1  0  0  0  0
 27 28  1  0  0  0  0
 27 43  1  0  0  0  0
 27 44  1  0  0  0  0
 28 29  1  0  0  0  0
 28 33  1  0  0  0  0
 28 42  1  0  0  0  0
 29 30  1  0  0  0  0
 29 40  1  0  0  0  0
 29 41  1  0  0  0  0
 30 31  1  0  0  0  0
 30 38  1  0  0  0  0
 30 39  1  0  0  0  0
 31 32  1  0  0  0  0
 32 33  1  0  0  0  0
 32 36  1  0  0  0  0
 32 37  1  0  0  0  0
 33 34  1  0  0  0  0
 33 35  1  0  0  0  0
 47 48  2  0  0  0  0
 47 49  1  0  0  0  0
 49 50  2  0  0  0  0
 49 55  1  0  0  0  0
 50 51  1  0  0  0  0
 50 58  1  0  0  0  0
 51 52  2  0  0  0  0
 51 57  1  0  0  0  0
 52 53  1  0  0  0  0
 52 54  1  0  0  0  0
 54 55  2  0  0  0  0
 54 56  1  0  0  0  0
M  CHG  1  28   1
M  END
>  <MODEL>
       1

$$$$
