tmp_first_model_14_79.pdb
 OpenBabel08282500413D

 45 49  0  0  0  0  0  0  0  0999 V2000
  -10.5340   -2.6260  -22.4530 C   0  0  0  0  0  0  0  0  0  0  0  0
   -9.1310   -2.3890  -22.1780 N   0  0  0  0  0  0  0  0  0  0  0  0
   -8.6930   -1.3070  -21.4690 C   0  0  0  0  0  0  0  0  0  0  0  0
   -9.3450   -0.3710  -21.0580 O   0  0  0  0  0  0  0  0  0  0  0  0
   -7.3110   -1.4920  -21.2930 N   0  0  0  0  0  0  0  0  0  0  0  0
   -6.5920   -0.8510  -20.2520 C   0  0  0  0  0  0  0  0  0  0  0  0
   -6.9610   -1.0330  -18.9410 C   0  0  0  0  0  0  0  0  0  0  0  0
   -6.2970   -0.5050  -17.8850 N   0  0  0  0  0  0  0  0  0  0  0  0
   -5.2380    0.2170  -18.1450 C   0  0  0  0  0  0  0  0  0  0  0  0
   -4.7770    0.5060  -19.4560 C   0  0  0  0  0  0  0  0  0  0  0  0
   -3.6460    1.3280  -19.6650 C   0  0  0  0  0  0  0  0  0  0  0  0
   -3.2490    1.6390  -20.9330 C   0  0  0  0  0  0  0  0  0  0  0  0
   -3.9600    1.1420  -22.0480 C   0  0  0  0  0  0  0  0  0  0  0  0
   -5.0510    0.3300  -21.8730 C   0  0  0  0  0  0  0  0  0  0  0  0
   -5.4770   -0.0190  -20.5590 C   0  0  0  0  0  0  0  0  0  0  0  0
   -5.5920   -0.0450  -22.7370 H   0  0  0  0  0  0  0  0  0  0  0  0
   -3.6420    1.4180  -23.0490 H   0  0  0  0  0  0  0  0  0  0  0  0
   -2.3950    2.2890  -21.0880 H   0  0  0  0  0  0  0  0  0  0  0  0
   -3.1330    1.7100  -18.7890 H   0  0  0  0  0  0  0  0  0  0  0  0
   -4.6850    0.6260  -17.3000 H   0  0  0  0  0  0  0  0  0  0  0  0
   -7.8210   -1.6510  -18.6910 H   0  0  0  0  0  0  0  0  0  0  0  0
   -6.8310   -2.5650  -22.0460 C   0  0  0  0  0  0  0  0  0  0  0  0
   -5.6780   -2.9130  -22.1470 O   0  0  0  0  0  0  0  0  0  0  0  0
   -8.0470   -3.1630  -22.7340 C   0  0  0  0  0  0  0  0  0  0  0  0
   -7.9540   -3.2360  -24.2770 C   0  0  0  0  0  0  0  0  0  0  0  0
   -8.0700   -4.7160  -24.2290 N   0  0  0  0  0  0  0  0  0  0  0  0
   -9.3870   -5.3070  -25.1030 S   0  0  0  0  0  0  0  0  0  0  0  0
   -9.1080   -5.0350  -26.4980 O   0  0  0  0  0  0  0  0  0  0  0  0
  -10.6530   -4.8660  -24.5340 O   0  0  0  0  0  0  0  0  0  0  0  0
   -9.1790   -7.0300  -24.7930 C   0  0  0  0  0  0  0  0  0  0  0  0
   -9.7640   -7.9870  -25.7970 C   0  0  0  0  0  0  0  0  0  0  0  0
   -8.2910   -7.7640  -25.7440 C   0  0  0  0  0  0  0  0  0  0  0  0
   -7.8320   -7.1900  -26.5390 H   0  0  0  0  0  0  0  0  0  0  0  0
   -7.6640   -8.5270  -25.3160 H   0  0  0  0  0  0  0  0  0  0  0  0
  -10.1790   -8.9280  -25.4430 H   0  0  0  0  0  0  0  0  0  0  0  0
  -10.3150   -7.5060  -26.5970 H   0  0  0  0  0  0  0  0  0  0  0  0
   -9.1720   -7.2700  -23.7340 H   0  0  0  0  0  0  0  0  0  0  0  0
   -8.1270   -4.7070  -22.7430 C   0  0  0  0  0  0  0  0  0  0  0  0
   -7.2190   -5.1560  -22.3380 H   0  0  0  0  0  0  0  0  0  0  0  0
   -9.0130   -5.1430  -22.2730 H   0  0  0  0  0  0  0  0  0  0  0  0
   -8.7810   -2.7440  -24.7990 H   0  0  0  0  0  0  0  0  0  0  0  0
   -6.9880   -2.9370  -24.6830 H   0  0  0  0  0  0  0  0  0  0  0  0
  -11.1160   -1.9390  -21.8340 H   0  0  0  0  0  0  0  0  0  0  0  0
  -10.7540   -2.4460  -23.5110 H   0  0  0  0  0  0  0  0  0  0  0  0
  -10.7830   -3.6600  -22.1990 H   0  0  0  0  0  0  0  0  0  0  0  0
  1  2  1  0  0  0  0
  1 43  1  0  0  0  0
  1 44  1  0  0  0  0
  1 45  1  0  0  0  0
  2  3  1  0  0  0  0
  2 24  1  0  0  0  0
  3  4  2  0  0  0  0
  3  5  1  0  0  0  0
  5  6  1  0  0  0  0
  5 22  1  0  0  0  0
  6  7  2  0  0  0  0
  6 15  1  0  0  0  0
  7  8  1  0  0  0  0
  7 21  1  0  0  0  0
  8  9  2  0  0  0  0
  9 10  1  0  0  0  0
  9 20  1  0  0  0  0
 10 11  2  0  0  0  0
 10 15  1  0  0  0  0
 11 12  1  0  0  0  0
 11 19  1  0  0  0  0
 12 13  2  0  0  0  0
 12 18  1  0  0  0  0
 13 14  1  0  0  0  0
 13 17  1  0  0  0  0
 14 15  2  0  0  0  0
 14 16  1  0  0  0  0
 22 23  2  0  0  0  0
 22 24  1  0  0  0  0
 24 25  1  0  0  0  0
 24 38  1  0  0  0  0
 25 26  1  0  0  0  0
 25 41  1  0  0  0  0
 25 42  1  0  0  0  0
 26 27  1  0  0  0  0
 26 38  1  0  0  0  0
 27 28  2  0  0  0  0
 27 29  2  0  0  0  0
 27 30  1  0  0  0  0
 30 31  1  0  0  0  0
 30 32  1  0  0  0  0
 30 37  1  0  0  0  0
 31 32  1  0  0  0  0
 31 35  1  0  0  0  0
 31 36  1  0  0  0  0
 32 33  1  0  0  0  0
 32 34  1  0  0  0  0
 38 39  1  0  0  0  0
 38 40  1  0  0  0  0
M  END
>  <MODEL>
       1

$$$$
