tmp_first_model_9_72.pdb
 OpenBabel08272521403D

 41 44  0  0  0  0  0  0  0  0999 V2000
   -8.4860    0.7240  -21.4270 O   0  0  0  0  0  0  0  0  0  0  0  0
   -8.3530   -0.3890  -21.9060 C   0  0  0  0  0  0  0  0  0  0  0  0
   -7.4250   -1.4200  -21.2680 C   0  0  0  0  0  0  0  0  0  0  0  0
   -6.5770   -0.8350  -20.1810 C   0  0  0  0  0  0  0  0  0  0  0  0
   -6.8900   -1.0450  -18.8670 C   0  0  0  0  0  0  0  0  0  0  0  0
   -6.2110   -0.5410  -17.8060 N   0  0  0  0  0  0  0  0  0  0  0  0
   -5.1740    0.2180  -18.0730 C   0  0  0  0  0  0  0  0  0  0  0  0
   -4.7380    0.5330  -19.3880 C   0  0  0  0  0  0  0  0  0  0  0  0
   -3.6130    1.3630  -19.6230 C   0  0  0  0  0  0  0  0  0  0  0  0
   -3.2200    1.6540  -20.9020 C   0  0  0  0  0  0  0  0  0  0  0  0
   -3.9380    1.1280  -22.0010 C   0  0  0  0  0  0  0  0  0  0  0  0
   -5.0310    0.3220  -21.7990 C   0  0  0  0  0  0  0  0  0  0  0  0
   -5.4580   -0.0020  -20.4810 C   0  0  0  0  0  0  0  0  0  0  0  0
   -5.5780   -0.0690  -22.6540 H   0  0  0  0  0  0  0  0  0  0  0  0
   -3.6180    1.3610  -23.0150 H   0  0  0  0  0  0  0  0  0  0  0  0
   -2.3610    2.2950  -21.0820 H   0  0  0  0  0  0  0  0  0  0  0  0
   -3.0830    1.7660  -18.7630 H   0  0  0  0  0  0  0  0  0  0  0  0
   -4.6170    0.6250  -17.2280 H   0  0  0  0  0  0  0  0  0  0  0  0
   -7.7520   -1.6670  -18.6110 H   0  0  0  0  0  0  0  0  0  0  0  0
   -6.8080   -1.8760  -22.0520 H   0  0  0  0  0  0  0  0  0  0  0  0
   -8.0710   -2.2090  -20.8600 H   0  0  0  0  0  0  0  0  0  0  0  0
   -8.9920   -0.7870  -23.0620 N   0  0  0  0  0  0  0  0  0  0  0  0
   -9.3070   -2.1710  -23.4000 C   0  0  0  0  0  0  0  0  0  0  0  0
  -10.5770   -2.7100  -22.7380 C   0  0  0  0  0  0  0  0  0  0  0  0
  -11.8810   -2.0950  -23.2720 C   0  0  0  0  0  0  0  0  0  0  0  0
  -12.0720   -0.6210  -22.9890 C   0  0  0  0  0  0  0  0  0  0  0  0
  -13.6060   -0.0320  -22.4500 S   0  0  0  0  0  0  0  0  0  0  0  0
  -12.9630    1.5280  -22.0930 C   0  0  0  0  0  0  0  0  0  0  0  0
  -11.6710    1.6250  -22.5060 C   0  0  0  0  0  0  0  0  0  0  0  0
  -11.1690    0.4030  -23.0670 C   0  0  0  0  0  0  0  0  0  0  0  0
   -9.8130    0.2240  -23.7140 C   0  0  0  0  0  0  0  0  0  0  0  0
   -9.2420    1.1550  -23.7030 H   0  0  0  0  0  0  0  0  0  0  0  0
   -9.9220   -0.0680  -24.7680 H   0  0  0  0  0  0  0  0  0  0  0  0
  -11.0620    2.5210  -22.4220 H   0  0  0  0  0  0  0  0  0  0  0  0
  -13.5380    2.2510  -21.5250 H   0  0  0  0  0  0  0  0  0  0  0  0
  -12.7320   -2.6450  -22.8520 H   0  0  0  0  0  0  0  0  0  0  0  0
  -11.9210   -2.2390  -24.3630 H   0  0  0  0  0  0  0  0  0  0  0  0
  -10.6190   -3.7870  -22.9280 H   0  0  0  0  0  0  0  0  0  0  0  0
  -10.5280   -2.5920  -21.6480 H   0  0  0  0  0  0  0  0  0  0  0  0
   -8.4500   -2.8150  -23.1790 H   0  0  0  0  0  0  0  0  0  0  0  0
   -9.4290   -2.2350  -24.4880 H   0  0  0  0  0  0  0  0  0  0  0  0
  1  2  2  0  0  0  0
  2  3  1  0  0  0  0
  2 22  1  0  0  0  0
  3  4  1  0  0  0  0
  3 20  1  0  0  0  0
  3 21  1  0  0  0  0
  4  5  2  0  0  0  0
  4 13  1  0  0  0  0
  5  6  1  0  0  0  0
  5 19  1  0  0  0  0
  6  7  2  0  0  0  0
  7  8  1  0  0  0  0
  7 18  1  0  0  0  0
  8  9  2  0  0  0  0
  8 13  1  0  0  0  0
  9 10  1  0  0  0  0
  9 17  1  0  0  0  0
 10 11  2  0  0  0  0
 10 16  1  0  0  0  0
 11 12  1  0  0  0  0
 11 15  1  0  0  0  0
 12 13  2  0  0  0  0
 12 14  1  0  0  0  0
 22 23  1  0  0  0  0
 22 31  1  0  0  0  0
 23 24  1  0  0  0  0
 23 40  1  0  0  0  0
 23 41  1  0  0  0  0
 24 25  1  0  0  0  0
 24 38  1  0  0  0  0
 24 39  1  0  0  0  0
 25 26  1  0  0  0  0
 25 36  1  0  0  0  0
 25 37  1  0  0  0  0
 26 27  1  0  0  0  0
 26 30  2  0  0  0  0
 27 28  1  0  0  0  0
 28 29  2  0  0  0  0
 28 35  1  0  0  0  0
 29 30  1  0  0  0  0
 29 34  1  0  0  0  0
 30 31  1  0  0  0  0
 31 32  1  0  0  0  0
 31 33  1  0  0  0  0
M  END
>  <MODEL>
       1

$$$$
