tmp_first_model_15_13.pdb
 OpenBabel08282501153D

 69 74  0  0  1  0  0  0  0  0999 V2000
   -7.4570    3.4130  -21.9020 C   0  0  0  0  0  0  0  0  0  0  0  0
   -8.5000    2.9330  -22.7990 N   0  0  0  0  0  0  0  0  0  0  0  0
   -8.0860    2.1480  -23.8410 C   0  0  0  0  0  0  0  0  0  0  0  0
   -6.9070    1.8950  -24.0370 O   0  0  0  0  0  0  0  0  0  0  0  0
   -9.1610    1.5660  -24.7580 C   0  0  0  0  0  0  0  0  0  0  0  0
   -9.7470    0.3960  -24.1350 N   0  0  0  0  0  0  0  0  0  0  0  0
   -8.9520   -0.8230  -24.0630 C   0  0  0  0  0  0  0  0  0  0  0  0
   -9.2230   -1.6010  -22.7520 C   0  0  2  0  0  0  0  0  0  0  0  0
   -8.6340   -0.8080  -21.5590 C   0  0  0  0  0  0  0  0  0  0  0  0
   -9.1100    0.1790  -21.0310 O   0  0  0  0  0  0  0  0  0  0  0  0
   -7.4400   -1.3890  -21.1980 N   0  0  0  0  0  0  0  0  0  0  0  0
   -6.6290   -0.8210  -20.1830 C   0  0  0  0  0  0  0  0  0  0  0  0
   -6.9440   -1.0450  -18.8660 C   0  0  0  0  0  0  0  0  0  0  0  0
   -6.2430   -0.5620  -17.8130 N   0  0  0  0  0  0  0  0  0  0  0  0
   -5.2010    0.1900  -18.0820 C   0  0  0  0  0  0  0  0  0  0  0  0
   -4.7700    0.5160  -19.4000 C   0  0  0  0  0  0  0  0  0  0  0  0
   -3.6470    1.3540  -19.6310 C   0  0  0  0  0  0  0  0  0  0  0  0
   -3.2580    1.6550  -20.9070 C   0  0  0  0  0  0  0  0  0  0  0  0
   -3.9760    1.1430  -22.0090 C   0  0  0  0  0  0  0  0  0  0  0  0
   -5.0770    0.3400  -21.8140 C   0  0  0  0  0  0  0  0  0  0  0  0
   -5.4980   -0.0030  -20.4980 C   0  0  0  0  0  0  0  0  0  0  0  0
   -5.6390   -0.0050  -22.6760 H   0  0  0  0  0  0  0  0  0  0  0  0
   -3.6580    1.3880  -23.0180 H   0  0  0  0  0  0  0  0  0  0  0  0
   -2.3970    2.2940  -21.0800 H   0  0  0  0  0  0  0  0  0  0  0  0
   -3.1170    1.7540  -18.7690 H   0  0  0  0  0  0  0  0  0  0  0  0
   -4.6330    0.5850  -17.2390 H   0  0  0  0  0  0  0  0  0  0  0  0
   -7.8100   -1.6570  -18.6280 H   0  0  0  0  0  0  0  0  0  0  0  0
   -7.0930   -2.5590  -21.9840 C   0  0  0  0  0  0  0  0  0  0  0  0
   -8.4080   -2.9270  -22.6880 C   0  0  2  0  0  0  0  0  0  0  0  0
   -8.1610   -3.6840  -23.9960 C   0  0  0  0  0  0  0  0  0  0  0  0
   -9.3950   -4.1210  -24.6050 N   0  0  0  0  0  0  0  0  0  0  0  0
   -9.4220   -4.7550  -25.8100 C   0  0  0  0  0  0  0  0  0  0  0  0
  -10.6440   -5.1810  -26.3670 C   0  0  0  0  0  0  0  0  0  0  0  0
  -10.5800   -5.7820  -27.6050 C   0  0  0  0  0  0  0  0  0  0  0  0
   -9.4300   -5.9770  -28.2670 N   0  0  0  0  0  0  0  0  0  0  0  0
   -8.3270   -5.5610  -27.6450 C   0  0  0  0  0  0  0  0  0  0  0  0
   -7.0300   -5.8180  -28.3690 C   0  0  0  0  0  0  0  0  0  0  0  0
   -7.2100   -5.7680  -29.4480 H   0  0  0  0  0  0  0  0  0  0  0  0
   -6.6720   -6.8310  -28.1400 H   0  0  0  0  0  0  0  0  0  0  0  0
   -6.2570   -5.0990  -28.0790 H   0  0  0  0  0  0  0  0  0  0  0  0
   -8.2590   -4.9590  -26.4460 N   0  0  0  0  0  0  0  0  0  0  0  0
  -11.4830   -6.1270  -28.1100 H   0  0  0  0  0  0  0  0  0  0  0  0
  -11.5860   -5.0490  -25.8410 H   0  0  0  0  0  0  0  0  0  0  0  0
  -10.2740   -3.9300  -24.1420 H   0  0  0  0  0  0  0  0  0  0  0  0
   -7.5330   -4.5610  -23.7980 H   0  0  0  0  0  0  0  0  0  0  0  0
   -7.6080   -3.0600  -24.7140 H   0  0  0  0  0  0  0  0  0  0  0  0
   -8.9480   -3.6090  -22.0220 H   0  0  0  0  0  0  0  0  0  0  0  0
   -6.3000   -2.3370  -22.7160 H   0  0  0  0  0  0  0  0  0  0  0  0
   -6.7370   -3.3710  -21.3420 H   0  0  0  0  0  0  0  0  0  0  0  0
  -10.7270   -1.7450  -22.5960 C   0  0  0  0  0  0  0  0  0  0  0  0
  -11.2870   -2.7560  -21.8100 C   0  0  0  0  0  0  0  0  0  0  0  0
  -12.6530   -2.7990  -21.5920 C   0  0  0  0  0  0  0  0  0  0  0  0
  -13.2880   -4.0490  -20.5680 Cl  0  0  0  0  0  0  0  0  0  0  0  0
  -13.5200   -1.8590  -22.1420 C   0  0  0  0  0  0  0  0  0  0  0  0
  -12.9770   -0.8590  -22.9210 C   0  0  0  0  0  0  0  0  0  0  0  0
  -11.6020   -0.7890  -23.1330 C   0  0  0  0  0  0  0  0  0  0  0  0
  -11.0920    0.3870  -23.9010 C   0  0  0  0  0  0  0  0  0  0  0  0
  -11.8310    1.2910  -24.2750 O   0  0  0  0  0  0  0  0  0  0  0  0
  -13.5920   -0.0890  -23.3690 H   0  0  0  0  0  0  0  0  0  0  0  0
  -14.5830   -1.8940  -21.9320 H   0  0  0  0  0  0  0  0  0  0  0  0
  -10.6850   -3.5030  -21.3080 H   0  0  0  0  0  0  0  0  0  0  0  0
   -7.8930   -0.5560  -24.1360 H   0  0  0  0  0  0  0  0  0  0  0  0
   -9.1930   -1.4730  -24.9140 H   0  0  0  0  0  0  0  0  0  0  0  0
   -8.6930    1.2810  -25.7110 H   0  0  0  0  0  0  0  0  0  0  0  0
   -9.9720    2.2720  -24.9620 H   0  0  0  0  0  0  0  0  0  0  0  0
   -9.4150    2.7520  -22.3950 H   0  0  0  0  0  0  0  0  0  0  0  0
   -6.9580    2.5570  -21.4170 H   0  0  0  0  0  0  0  0  0  0  0  0
   -6.7210    3.9650  -22.4950 H   0  0  0  0  0  0  0  0  0  0  0  0
   -7.8750    4.1110  -21.1670 H   0  0  0  0  0  0  0  0  0  0  0  0
  1  2  1  0  0  0  0
  1 67  1  0  0  0  0
  1 68  1  0  0  0  0
  1 69  1  0  0  0  0
  2  3  1  0  0  0  0
  2 66  1  0  0  0  0
  3  4  2  0  0  0  0
  3  5  1  0  0  0  0
  5  6  1  0  0  0  0
  5 64  1  0  0  0  0
  5 65  1  0  0  0  0
  6  7  1  0  0  0  0
  6 57  1  0  0  0  0
  7  8  1  0  0  0  0
  7 62  1  0  0  0  0
  7 63  1  0  0  0  0
  8  9  1  1  0  0  0
  8 29  1  0  0  0  0
  8 50  1  0  0  0  0
  9 10  2  0  0  0  0
  9 11  1  0  0  0  0
 11 12  1  0  0  0  0
 11 28  1  0  0  0  0
 12 13  2  0  0  0  0
 12 21  1  0  0  0  0
 13 14  1  0  0  0  0
 13 27  1  0  0  0  0
 14 15  2  0  0  0  0
 15 16  1  0  0  0  0
 15 26  1  0  0  0  0
 16 17  2  0  0  0  0
 16 21  1  0  0  0  0
 17 18  1  0  0  0  0
 17 25  1  0  0  0  0
 18 19  2  0  0  0  0
 18 24  1  0  0  0  0
 19 20  1  0  0  0  0
 19 23  1  0  0  0  0
 20 21  2  0  0  0  0
 20 22  1  0  0  0  0
 28 29  1  0  0  0  0
 28 48  1  0  0  0  0
 28 49  1  0  0  0  0
 29 30  1  0  0  0  0
 29 47  1  1  0  0  0
 30 31  1  0  0  0  0
 30 45  1  0  0  0  0
 30 46  1  0  0  0  0
 31 32  1  0  0  0  0
 31 44  1  0  0  0  0
 32 33  2  0  0  0  0
 32 41  1  0  0  0  0
 33 34  1  0  0  0  0
 33 43  1  0  0  0  0
 34 35  2  0  0  0  0
 34 42  1  0  0  0  0
 35 36  1  0  0  0  0
 36 37  1  0  0  0  0
 36 41  2  0  0  0  0
 37 38  1  0  0  0  0
 37 39  1  0  0  0  0
 37 40  1  0  0  0  0
 50 51  2  0  0  0  0
 50 56  1  0  0  0  0
 51 52  1  0  0  0  0
 51 61  1  0  0  0  0
 52 53  1  0  0  0  0
 52 54  2  0  0  0  0
 54 55  1  0  0  0  0
 54 60  1  0  0  0  0
 55 56  2  0  0  0  0
 55 59  1  0  0  0  0
 56 57  1  0  0  0  0
 57 58  2  0  0  0  0
M  END
>  <MODEL>
       1

$$$$
