tmp_first_model_3_68.pdb
 OpenBabel08272518143D

 65 70  0  0  1  0  0  0  0  0999 V2000
   -5.6300   -3.1790  -21.3400 O   0  0  0  0  0  0  0  0  0  0  0  0
   -6.6000   -2.7170  -21.9240 C   0  0  0  0  0  0  0  0  0  0  0  0
   -7.3400   -1.5170  -21.3190 C   0  0  0  0  0  0  0  0  0  0  0  0
   -6.5660   -0.8590  -20.2130 C   0  0  0  0  0  0  0  0  0  0  0  0
   -6.8970   -1.0680  -18.9010 C   0  0  0  0  0  0  0  0  0  0  0  0
   -6.2410   -0.5500  -17.8250 N   0  0  0  0  0  0  0  0  0  0  0  0
   -5.1990    0.2050  -18.0820 C   0  0  0  0  0  0  0  0  0  0  0  0
   -4.7280    0.4960  -19.3910 C   0  0  0  0  0  0  0  0  0  0  0  0
   -3.6030    1.3290  -19.6180 C   0  0  0  0  0  0  0  0  0  0  0  0
   -3.1900    1.6120  -20.8920 C   0  0  0  0  0  0  0  0  0  0  0  0
   -3.8890    1.0750  -21.9980 C   0  0  0  0  0  0  0  0  0  0  0  0
   -4.9810    0.2670  -21.8040 C   0  0  0  0  0  0  0  0  0  0  0  0
   -5.4310   -0.0470  -20.4930 C   0  0  0  0  0  0  0  0  0  0  0  0
   -5.5220   -0.1240  -22.6610 H   0  0  0  0  0  0  0  0  0  0  0  0
   -3.5690    1.3220  -23.0060 H   0  0  0  0  0  0  0  0  0  0  0  0
   -2.3360    2.2600  -21.0630 H   0  0  0  0  0  0  0  0  0  0  0  0
   -3.0960    1.7580  -18.7560 H   0  0  0  0  0  0  0  0  0  0  0  0
   -4.6670    0.6310  -17.2290 H   0  0  0  0  0  0  0  0  0  0  0  0
   -7.7530   -1.6940  -18.6540 H   0  0  0  0  0  0  0  0  0  0  0  0
   -8.2960   -1.8890  -20.9290 H   0  0  0  0  0  0  0  0  0  0  0  0
   -7.5870   -0.8020  -22.1070 H   0  0  0  0  0  0  0  0  0  0  0  0
   -7.0990   -3.2430  -23.1080 N   0  0  0  0  0  0  0  0  0  0  0  0
   -7.8510   -2.4410  -24.0620 C   0  0  0  0  0  0  0  0  0  0  0  0
   -9.3130   -2.1710  -23.7390 C   0  0  0  0  0  0  0  0  0  0  0  0
   -9.9280   -1.0560  -24.3150 C   0  0  0  0  0  0  0  0  0  0  0  0
  -11.2610   -0.7580  -24.0460 C   0  0  0  0  0  0  0  0  0  0  0  0
  -12.0110   -1.5700  -23.2030 C   0  0  0  0  0  0  0  0  0  0  0  0
  -11.3970   -2.6810  -22.6400 C   0  0  0  0  0  0  0  0  0  0  0  0
  -12.3190   -3.7120  -21.5800 Cl  0  0  0  0  0  0  0  0  0  0  0  0
  -10.0650   -2.9910  -22.8960 C   0  0  0  0  0  0  0  0  0  0  0  0
   -9.6340   -3.8590  -22.4100 H   0  0  0  0  0  0  0  0  0  0  0  0
  -13.0490   -1.3520  -22.9770 H   0  0  0  0  0  0  0  0  0  0  0  0
  -11.7190    0.1210  -24.4930 H   0  0  0  0  0  0  0  0  0  0  0  0
   -9.3570   -0.4090  -24.9770 H   0  0  0  0  0  0  0  0  0  0  0  0
   -7.7830   -2.9360  -25.0340 H   0  0  0  0  0  0  0  0  0  0  0  0
   -7.3350   -1.4810  -24.1950 H   0  0  0  0  0  0  0  0  0  0  0  0
   -6.7620   -4.6260  -23.4680 C   0  0  2  0  0  0  0  0  0  0  0  0
   -7.6990   -5.3130  -24.4930 C   0  0  0  0  0  0  0  0  0  0  0  0
   -7.4820   -6.8280  -24.2380 C   0  0  0  0  0  0  0  0  0  0  0  0
   -6.4580   -6.8200  -23.1080 C   0  0  2  0  0  0  0  0  0  0  0  0
   -6.8480   -5.6010  -22.2960 C   0  0  0  0  0  0  0  0  0  0  0  0
   -6.1300   -5.3250  -21.5200 H   0  0  0  0  0  0  0  0  0  0  0  0
   -7.8620   -5.6240  -21.8780 H   0  0  0  0  0  0  0  0  0  0  0  0
   -5.1160   -6.3940  -23.7410 N   0  3  2  0  0  0  0  0  0  0  0  0
   -3.9330   -6.7490  -22.8820 C   0  0  0  0  0  0  0  0  0  0  0  0
   -3.0840   -7.9330  -23.3670 C   0  0  0  0  0  0  0  0  0  0  0  0
   -3.7870   -9.0370  -24.1610 C   0  0  0  0  0  0  0  0  0  0  0  0
   -3.5100   -8.3460  -25.3920 O   0  0  0  0  0  0  0  0  0  0  0  0
   -2.4270   -7.6600  -24.7260 C   0  0  0  0  0  0  0  0  0  0  0  0
   -2.3770   -6.6110  -25.0310 H   0  0  0  0  0  0  0  0  0  0  0  0
   -1.4520   -8.1660  -24.8540 H   0  0  0  0  0  0  0  0  0  0  0  0
   -3.2080   -9.9720  -24.0790 H   0  0  0  0  0  0  0  0  0  0  0  0
   -4.8580   -9.2310  -24.0320 H   0  0  0  0  0  0  0  0  0  0  0  0
   -2.4570   -8.2810  -22.5450 H   0  0  0  0  0  0  0  0  0  0  0  0
   -3.2690   -5.8780  -22.8330 H   0  0  0  0  0  0  0  0  0  0  0  0
   -4.2890   -6.9200  -21.8620 H   0  0  0  0  0  0  0  0  0  0  0  0
   -5.3150   -4.8810  -23.9520 C   0  0  0  0  0  0  0  0  0  0  0  0
   -4.6130   -4.3390  -23.3170 H   0  0  0  0  0  0  0  0  0  0  0  0
   -5.1300   -4.6330  -24.9990 H   0  0  0  0  0  0  0  0  0  0  0  0
   -4.9800   -6.8640  -24.6500 H   0  0  0  0  0  0  0  0  0  0  0  0
   -6.3350   -7.7520  -22.5560 H   0  0  0  0  0  0  0  0  0  0  0  0
   -8.4110   -7.3190  -23.9320 H   0  0  0  0  0  0  0  0  0  0  0  0
   -7.0840   -7.3650  -25.1050 H   0  0  0  0  0  0  0  0  0  0  0  0
   -7.4670   -5.0340  -25.5250 H   0  0  0  0  0  0  0  0  0  0  0  0
   -8.7350   -5.0280  -24.2870 H   0  0  0  0  0  0  0  0  0  0  0  0
  1  2  2  0  0  0  0
  2  3  1  0  0  0  0
  2 22  1  0  0  0  0
  3  4  1  0  0  0  0
  3 20  1  0  0  0  0
  3 21  1  0  0  0  0
  4  5  2  0  0  0  0
  4 13  1  0  0  0  0
  5  6  1  0  0  0  0
  5 19  1  0  0  0  0
  6  7  2  0  0  0  0
  7  8  1  0  0  0  0
  7 18  1  0  0  0  0
  8  9  2  0  0  0  0
  8 13  1  0  0  0  0
  9 10  1  0  0  0  0
  9 17  1  0  0  0  0
 10 11  2  0  0  0  0
 10 16  1  0  0  0  0
 11 12  1  0  0  0  0
 11 15  1  0  0  0  0
 12 13  2  0  0  0  0
 12 14  1  0  0  0  0
 22 23  1  0  0  0  0
 23 24  1  0  0  0  0
 23 35  1  0  0  0  0
 23 36  1  0  0  0  0
 24 25  2  0  0  0  0
 24 30  1  0  0  0  0
 25 26  1  0  0  0  0
 25 34  1  0  0  0  0
 26 27  2  0  0  0  0
 26 33  1  0  0  0  0
 27 28  1  0  0  0  0
 27 32  1  0  0  0  0
 28 29  1  0  0  0  0
 28 30  2  0  0  0  0
 30 31  1  0  0  0  0
 37 22  1  1  0  0  0
 37 38  1  0  0  0  0
 37 41  1  0  0  0  0
 37 57  1  0  0  0  0
 38 39  1  0  0  0  0
 38 64  1  0  0  0  0
 38 65  1  0  0  0  0
 39 40  1  0  0  0  0
 39 62  1  0  0  0  0
 39 63  1  0  0  0  0
 40 41  1  0  0  0  0
 40 44  1  0  0  0  0
 40 61  1  1  0  0  0
 41 42  1  0  0  0  0
 41 43  1  0  0  0  0
 44 45  1  0  0  0  0
 44 57  1  0  0  0  0
 44 60  1  6  0  0  0
 45 46  1  0  0  0  0
 45 55  1  0  0  0  0
 45 56  1  0  0  0  0
 46 47  1  0  0  0  0
 46 49  1  0  0  0  0
 46 54  1  0  0  0  0
 47 48  1  0  0  0  0
 47 52  1  0  0  0  0
 47 53  1  0  0  0  0
 48 49  1  0  0  0  0
 49 50  1  0  0  0  0
 49 51  1  0  0  0  0
 57 58  1  0  0  0  0
 57 59  1  0  0  0  0
M  CHG  1  44   1
M  END
>  <MODEL>
       1

$$$$
