tmp_first_model_6_35.pdb
 OpenBabel08272519583D

 40 42  0  0  0  0  0  0  0  0999 V2000
   -9.2910   -1.7900  -22.6040 O   0  0  0  0  0  0  0  0  0  0  0  0
   -8.4430   -0.9870  -22.2380 C   0  0  0  0  0  0  0  0  0  0  0  0
   -7.0940   -1.4830  -21.6790 C   0  0  0  0  0  0  0  0  0  0  0  0
   -6.4820   -0.7600  -20.4860 C   0  0  0  0  0  0  0  0  0  0  0  0
   -6.9840   -0.9680  -19.2250 C   0  0  0  0  0  0  0  0  0  0  0  0
   -6.4300   -0.5160  -18.0690 N   0  0  0  0  0  0  0  0  0  0  0  0
   -5.3420    0.2110  -18.1660 C   0  0  0  0  0  0  0  0  0  0  0  0
   -4.7340    0.5750  -19.3980 C   0  0  0  0  0  0  0  0  0  0  0  0
   -3.6230    1.4610  -19.4670 C   0  0  0  0  0  0  0  0  0  0  0  0
   -3.1340    1.8790  -20.6740 C   0  0  0  0  0  0  0  0  0  0  0  0
   -3.7000    1.3750  -21.8610 C   0  0  0  0  0  0  0  0  0  0  0  0
   -4.7300    0.4630  -21.8140 C   0  0  0  0  0  0  0  0  0  0  0  0
   -5.3150    0.0680  -20.5880 C   0  0  0  0  0  0  0  0  0  0  0  0
   -5.0490   -0.0020  -22.7440 H   0  0  0  0  0  0  0  0  0  0  0  0
   -3.3210    1.7040  -22.8220 H   0  0  0  0  0  0  0  0  0  0  0  0
   -2.3310    2.6090  -20.7350 H   0  0  0  0  0  0  0  0  0  0  0  0
   -3.1980    1.8380  -18.5420 H   0  0  0  0  0  0  0  0  0  0  0  0
   -4.9010    0.5730  -17.2380 H   0  0  0  0  0  0  0  0  0  0  0  0
   -7.9010   -1.5490  -19.1000 H   0  0  0  0  0  0  0  0  0  0  0  0
   -7.2880   -2.5320  -21.4410 H   0  0  0  0  0  0  0  0  0  0  0  0
   -6.3860   -1.4950  -22.5070 H   0  0  0  0  0  0  0  0  0  0  0  0
   -8.5470    0.3820  -22.3020 N   0  0  0  0  0  0  0  0  0  0  0  0
   -7.5920    1.1720  -23.0840 C   0  0  0  0  0  0  0  0  0  0  0  0
   -8.1180    2.4450  -23.6800 C   0  0  0  0  0  0  0  0  0  0  0  0
   -9.3720    2.8650  -23.5870 C   0  0  0  0  0  0  0  0  0  0  0  0
   -8.5070    5.2580  -22.5720 C   0  0  0  0  0  0  0  0  0  0  0  0
   -7.6710    5.0120  -21.5800 F   0  0  0  0  0  0  0  0  0  0  0  0
   -9.3220    6.2400  -22.2530 F   0  0  0  0  0  0  0  0  0  0  0  0
   -7.8380    5.5390  -23.6790 F   0  0  0  0  0  0  0  0  0  0  0  0
   -9.7620    1.1380  -21.8870 C   0  0  0  0  0  0  0  0  0  0  0  0
   -9.7700    0.9920  -21.6910 C   0  0  0  0  0  0  0  0  0  0  0  0
  -10.5220    0.5220  -22.6080 H   0  0  0  0  0  0  0  0  0  0  0  0
   -9.8900    0.1610  -20.3420 H   0  0  0  0  0  0  0  0  0  0  0  0
  -10.7250    1.8390  -21.6870 H   0  0  0  0  0  0  0  0  0  0  0  0
   -9.1030    2.0560  -21.4430 H   0  0  0  0  0  0  0  0  0  0  0  0
   -9.5980    3.8960  -23.3430 H   0  0  0  0  0  0  0  0  0  0  0  0
   -7.3340    3.0250  -24.1610 H   0  0  0  0  0  0  0  0  0  0  0  0
  -10.1680    2.1500  -23.6700 H   0  0  0  0  0  0  0  0  0  0  0  0
   -7.2200    0.5240  -23.8790 H   0  0  0  0  0  0  0  0  0  0  0  0
   -6.7490    1.4110  -22.4320 H   0  0  0  0  0  0  0  0  0  0  0  0
  1  2  2  0  0  0  0
  2  3  1  0  0  0  0
  2 22  1  0  0  0  0
  3  4  1  0  0  0  0
  3 20  1  0  0  0  0
  3 21  1  0  0  0  0
  4  5  2  0  0  0  0
  4 13  1  0  0  0  0
  5  6  1  0  0  0  0
  5 19  1  0  0  0  0
  6  7  2  0  0  0  0
  7  8  1  0  0  0  0
  7 18  1  0  0  0  0
  8  9  2  0  0  0  0
  8 13  1  0  0  0  0
  9 10  1  0  0  0  0
  9 17  1  0  0  0  0
 10 11  2  0  0  0  0
 10 16  1  0  0  0  0
 11 12  1  0  0  0  0
 11 15  1  0  0  0  0
 12 13  2  0  0  0  0
 12 14  1  0  0  0  0
 22 23  1  0  0  0  0
 22 31  1  0  0  0  0
 23 24  1  0  0  0  0
 23 39  1  0  0  0  0
 23 40  1  0  0  0  0
 24 25  1  0  0  0  0
 24 37  1  0  0  0  0
 24 38  1  0  0  0  0
 25 26  1  0  0  0  0
 25 30  1  0  0  0  0
 25 36  1  0  0  0  0
 26 27  1  0  0  0  0
 26 28  1  0  0  0  0
 26 29  1  0  0  0  0
 30 31  1  0  0  0  0
 30 34  1  0  0  0  0
 30 35  1  0  0  0  0
 31 32  1  0  0  0  0
 31 33  1  0  0  0  0
M  END
>  <MODEL>
       1

$$$$
