tmp_first_model_11_24.pdb
 OpenBabel08272522543D

 65 70  0  0  1  0  0  0  0  0999 V2000
   -5.9610   -7.4800  -25.5170 O   0  0  0  0  0  0  0  0  0  0  0  0
   -5.8750   -7.1130  -24.3560 C   0  0  0  0  0  0  0  0  0  0  0  0
   -7.0450   -6.4990  -23.5950 C   0  0  0  0  0  0  0  0  0  0  0  0
   -7.0770   -5.0220  -23.7560 N   0  3  1  0  0  0  0  0  0  0  0  0
   -7.2330   -4.7160  -25.2340 C   0  0  0  0  0  0  0  0  0  0  0  0
   -7.1910   -3.2420  -25.5170 C   0  0  0  0  0  0  0  0  0  0  0  0
   -6.8350   -2.7610  -26.7770 C   0  0  0  0  0  0  0  0  0  0  0  0
   -6.7770   -1.4000  -27.0410 C   0  0  0  0  0  0  0  0  0  0  0  0
   -7.0810   -0.5120  -26.0130 C   0  0  0  0  0  0  0  0  0  0  0  0
   -6.9880    1.2040  -26.3050 Cl  0  0  0  0  0  0  0  0  0  0  0  0
   -7.4670   -0.9710  -24.7620 C   0  0  0  0  0  0  0  0  0  0  0  0
   -7.5590   -2.3470  -24.5150 C   0  0  0  0  0  0  0  0  0  0  0  0
   -7.9920   -2.8330  -23.1430 C   0  0  2  0  0  0  0  0  0  0  0  0
   -9.1970   -2.0750  -22.5780 C   0  0  0  0  0  0  0  0  0  0  0  0
   -8.6650   -1.1570  -21.4740 C   0  0  0  0  0  0  0  0  0  0  0  0
   -7.2800   -1.5590  -21.2890 N   0  0  0  0  0  0  0  0  0  0  0  0
   -6.5130   -0.9610  -20.2600 C   0  0  0  0  0  0  0  0  0  0  0  0
   -6.9100   -1.1010  -18.9520 C   0  0  0  0  0  0  0  0  0  0  0  0
   -6.2710   -0.5680  -17.8830 N   0  0  0  0  0  0  0  0  0  0  0  0
   -5.2200    0.1750  -18.1350 C   0  0  0  0  0  0  0  0  0  0  0  0
   -4.7410    0.4610  -19.4450 C   0  0  0  0  0  0  0  0  0  0  0  0
   -3.6330    1.3220  -19.6460 C   0  0  0  0  0  0  0  0  0  0  0  0
   -3.2350    1.6480  -20.9110 C   0  0  0  0  0  0  0  0  0  0  0  0
   -3.9300    1.1380  -22.0310 C   0  0  0  0  0  0  0  0  0  0  0  0
   -4.9950    0.2860  -21.8670 C   0  0  0  0  0  0  0  0  0  0  0  0
   -5.4150   -0.0910  -20.5570 C   0  0  0  0  0  0  0  0  0  0  0  0
   -5.5310   -0.0820  -22.7410 H   0  0  0  0  0  0  0  0  0  0  0  0
   -3.6210    1.4380  -23.0260 H   0  0  0  0  0  0  0  0  0  0  0  0
   -2.3980    2.3220  -21.0600 H   0  0  0  0  0  0  0  0  0  0  0  0
   -3.1370    1.7320  -18.7700 H   0  0  0  0  0  0  0  0  0  0  0  0
   -4.6960    0.6090  -17.2840 H   0  0  0  0  0  0  0  0  0  0  0  0
   -7.7940   -1.6950  -18.7260 H   0  0  0  0  0  0  0  0  0  0  0  0
   -6.8660   -2.5450  -22.1470 C   0  0  0  0  0  0  0  0  0  0  0  0
   -5.8140   -3.1720  -22.1410 O   0  0  0  0  0  0  0  0  0  0  0  0
   -9.2170   -1.3250  -20.5540 H   0  0  0  0  0  0  0  0  0  0  0  0
   -8.7310   -0.0890  -21.7230 H   0  0  0  0  0  0  0  0  0  0  0  0
   -9.8960   -2.7960  -22.1460 H   0  0  0  0  0  0  0  0  0  0  0  0
   -9.7380   -1.5250  -23.3510 H   0  0  0  0  0  0  0  0  0  0  0  0
   -8.2160   -4.3500  -23.0610 C   0  0  0  0  0  0  0  0  0  0  0  0
   -8.2310   -4.6380  -22.0070 H   0  0  0  0  0  0  0  0  0  0  0  0
   -9.1780   -4.6370  -23.5080 H   0  0  0  0  0  0  0  0  0  0  0  0
   -7.6930   -0.2470  -23.9830 H   0  0  0  0  0  0  0  0  0  0  0  0
   -6.4910   -1.0310  -28.0220 H   0  0  0  0  0  0  0  0  0  0  0  0
   -6.5920   -3.4600  -27.5750 H   0  0  0  0  0  0  0  0  0  0  0  0
   -6.4670   -5.2590  -25.7790 H   0  0  0  0  0  0  0  0  0  0  0  0
   -8.2040   -5.1330  -25.5400 H   0  0  0  0  0  0  0  0  0  0  0  0
   -6.2110   -4.5770  -23.3640 H   0  0  0  0  0  0  0  0  0  0  0  0
   -6.9850   -6.7800  -22.5440 H   0  0  0  0  0  0  0  0  0  0  0  0
   -7.9700   -6.9090  -24.0120 H   0  0  0  0  0  0  0  0  0  0  0  0
   -4.7100   -7.2000  -23.6610 N   0  0  0  0  0  0  0  0  0  0  0  0
   -3.6230   -7.9540  -24.2570 C   0  0  0  0  0  0  0  0  0  0  0  0
   -2.3330   -7.7680  -23.4800 C   0  0  1  0  0  0  0  0  0  0  0  0
   -1.0470   -8.2820  -24.1810 C   0  0  0  0  0  0  0  0  0  0  0  0
   -0.5250   -6.8440  -24.2770 C   0  0  1  0  0  0  0  0  0  0  0  0
   -0.4830   -6.3940  -25.5890 F   0  0  0  0  0  0  0  0  0  0  0  0
   -1.7600   -6.3300  -23.5320 C   0  0  0  0  0  0  0  0  0  0  0  0
   -1.5590   -5.8830  -22.5510 H   0  0  0  0  0  0  0  0  0  0  0  0
   -2.3360   -5.6550  -24.1790 H   0  0  0  0  0  0  0  0  0  0  0  0
    0.4510   -6.6510  -23.8190 H   0  0  0  0  0  0  0  0  0  0  0  0
   -1.1870   -8.7370  -25.1680 H   0  0  0  0  0  0  0  0  0  0  0  0
   -0.4280   -8.9380  -23.5610 H   0  0  0  0  0  0  0  0  0  0  0  0
   -2.4300   -8.1760  -22.4610 H   0  0  0  0  0  0  0  0  0  0  0  0
   -3.5400   -7.6000  -25.2940 H   0  0  0  0  0  0  0  0  0  0  0  0
   -3.8820   -9.0200  -24.3080 H   0  0  0  0  0  0  0  0  0  0  0  0
   -4.6810   -6.9560  -22.6850 H   0  0  0  0  0  0  0  0  0  0  0  0
  1  2  2  0  0  0  0
  2  3  1  0  0  0  0
  2 50  1  0  0  0  0
  3  4  1  0  0  0  0
  3 48  1  0  0  0  0
  3 49  1  0  0  0  0
  4  5  1  0  0  0  0
  4 39  1  0  0  0  0
  4 47  1  1  0  0  0
  5  6  1  0  0  0  0
  5 45  1  0  0  0  0
  5 46  1  0  0  0  0
  6  7  2  0  0  0  0
  6 12  1  0  0  0  0
  7  8  1  0  0  0  0
  7 44  1  0  0  0  0
  8  9  2  0  0  0  0
  8 43  1  0  0  0  0
  9 10  1  0  0  0  0
  9 11  1  0  0  0  0
 11 12  2  0  0  0  0
 11 42  1  0  0  0  0
 13 12  1  6  0  0  0
 13 14  1  0  0  0  0
 13 33  1  0  0  0  0
 13 39  1  0  0  0  0
 14 15  1  0  0  0  0
 14 37  1  0  0  0  0
 14 38  1  0  0  0  0
 15 16  1  0  0  0  0
 15 35  1  0  0  0  0
 15 36  1  0  0  0  0
 16 17  1  0  0  0  0
 16 33  1  0  0  0  0
 17 18  2  0  0  0  0
 17 26  1  0  0  0  0
 18 19  1  0  0  0  0
 18 32  1  0  0  0  0
 19 20  2  0  0  0  0
 20 21  1  0  0  0  0
 20 31  1  0  0  0  0
 21 22  2  0  0  0  0
 21 26  1  0  0  0  0
 22 23  1  0  0  0  0
 22 30  1  0  0  0  0
 23 24  2  0  0  0  0
 23 29  1  0  0  0  0
 24 25  1  0  0  0  0
 24 28  1  0  0  0  0
 25 26  2  0  0  0  0
 25 27  1  0  0  0  0
 33 34  2  0  0  0  0
 39 40  1  0  0  0  0
 39 41  1  0  0  0  0
 50 51  1  0  0  0  0
 50 65  1  0  0  0  0
 51 52  1  0  0  0  0
 51 63  1  0  0  0  0
 51 64  1  0  0  0  0
 52 53  1  0  0  0  0
 52 56  1  0  0  0  0
 52 62  1  1  0  0  0
 53 54  1  0  0  0  0
 53 60  1  0  0  0  0
 53 61  1  0  0  0  0
 54 55  1  0  0  0  0
 54 56  1  0  0  0  0
 54 59  1  1  0  0  0
 56 57  1  0  0  0  0
 56 58  1  0  0  0  0
M  CHG  1   4   1
M  END
>  <MODEL>
       1

$$$$
