tmp_first_model_16_11.pdb
 OpenBabel08282501503D

 48 52  0  0  0  0  0  0  0  0999 V2000
  -10.1310   -0.8360  -23.6420 C   0  0  0  0  0  0  0  0  0  0  0  0
   -9.1220   -1.3910  -22.7630 N   0  0  0  0  0  0  0  0  0  0  0  0
   -8.3470   -0.5670  -21.9860 C   0  0  0  0  0  0  0  0  0  0  0  0
   -8.3770    0.6400  -21.9460 O   0  0  0  0  0  0  0  0  0  0  0  0
   -7.5000   -1.4040  -21.2380 N   0  0  0  0  0  0  0  0  0  0  0  0
   -6.6120   -0.9540  -20.2250 C   0  0  0  0  0  0  0  0  0  0  0  0
   -6.8750   -1.3160  -18.9320 C   0  0  0  0  0  0  0  0  0  0  0  0
   -6.1240   -0.9490  -17.8700 N   0  0  0  0  0  0  0  0  0  0  0  0
   -5.0780   -0.1940  -18.0970 C   0  0  0  0  0  0  0  0  0  0  0  0
   -4.6900    0.2550  -19.3900 C   0  0  0  0  0  0  0  0  0  0  0  0
   -3.5630    1.1000  -19.5760 C   0  0  0  0  0  0  0  0  0  0  0  0
   -3.2090    1.5030  -20.8320 C   0  0  0  0  0  0  0  0  0  0  0  0
   -3.9510    1.0720  -21.9530 C   0  0  0  0  0  0  0  0  0  0  0  0
   -5.0490    0.2610  -21.8010 C   0  0  0  0  0  0  0  0  0  0  0  0
   -5.4630   -0.1480  -20.5030 C   0  0  0  0  0  0  0  0  0  0  0  0
   -5.6150   -0.0600  -22.6700 H   0  0  0  0  0  0  0  0  0  0  0  0
   -3.6490    1.3920  -22.9450 H   0  0  0  0  0  0  0  0  0  0  0  0
   -2.3520    2.1550  -20.9800 H   0  0  0  0  0  0  0  0  0  0  0  0
   -3.0060    1.4230  -18.7010 H   0  0  0  0  0  0  0  0  0  0  0  0
   -4.4780    0.0920  -17.2320 H   0  0  0  0  0  0  0  0  0  0  0  0
   -7.7420   -1.9340  -18.7100 H   0  0  0  0  0  0  0  0  0  0  0  0
   -7.8150   -2.7420  -21.4350 C   0  0  0  0  0  0  0  0  0  0  0  0
   -7.2470   -3.6870  -20.9340 O   0  0  0  0  0  0  0  0  0  0  0  0
   -8.9260   -2.7880  -22.4610 C   0  0  0  0  0  0  0  0  0  0  0  0
   -8.6060   -3.8190  -23.5690 C   0  0  0  0  0  0  0  0  0  0  0  0
   -9.8610   -4.5340  -23.3030 N   0  0  0  0  0  0  0  0  0  0  0  0
  -10.9450   -4.5980  -24.5970 S   0  0  0  0  0  0  0  0  0  0  0  0
  -11.0850   -3.2640  -25.1720 O   0  0  0  0  0  0  0  0  0  0  0  0
  -12.1020   -5.3180  -24.1230 O   0  0  0  0  0  0  0  0  0  0  0  0
  -10.0630   -5.5860  -25.7830 C   0  0  0  0  0  0  0  0  0  0  0  0
   -9.3140   -4.9670  -26.7820 C   0  0  0  0  0  0  0  0  0  0  0  0
   -8.6030   -5.7630  -27.6710 C   0  0  0  0  0  0  0  0  0  0  0  0
   -8.6600   -7.1490  -27.5620 C   0  0  0  0  0  0  0  0  0  0  0  0
   -9.4100   -7.7470  -26.5530 C   0  0  0  0  0  0  0  0  0  0  0  0
  -10.1470   -6.9670  -25.6680 C   0  0  0  0  0  0  0  0  0  0  0  0
  -10.8190   -7.4050  -24.9320 H   0  0  0  0  0  0  0  0  0  0  0  0
   -9.4440   -8.8250  -26.4550 H   0  0  0  0  0  0  0  0  0  0  0  0
   -8.0830   -7.7660  -28.2420 H   0  0  0  0  0  0  0  0  0  0  0  0
   -8.0450   -5.2920  -28.4730 H   0  0  0  0  0  0  0  0  0  0  0  0
   -9.2950   -3.8820  -26.8490 H   0  0  0  0  0  0  0  0  0  0  0  0
  -10.1610   -3.6690  -22.1170 C   0  0  0  0  0  0  0  0  0  0  0  0
   -9.9960   -4.2290  -21.1940 H   0  0  0  0  0  0  0  0  0  0  0  0
  -11.1490   -3.2010  -22.1170 H   0  0  0  0  0  0  0  0  0  0  0  0
   -7.7580   -4.4480  -23.2920 H   0  0  0  0  0  0  0  0  0  0  0  0
   -8.4780   -3.4470  -24.5850 H   0  0  0  0  0  0  0  0  0  0  0  0
   -9.9590    0.2410  -23.6650 H   0  0  0  0  0  0  0  0  0  0  0  0
  -11.1430   -1.0180  -23.2620 H   0  0  0  0  0  0  0  0  0  0  0  0
  -10.0380   -1.2640  -24.6420 H   0  0  0  0  0  0  0  0  0  0  0  0
  1  2  1  0  0  0  0
  1 46  1  0  0  0  0
  1 47  1  0  0  0  0
  1 48  1  0  0  0  0
  2  3  1  0  0  0  0
  2 24  1  0  0  0  0
  3  4  2  0  0  0  0
  3  5  1  0  0  0  0
  5  6  1  0  0  0  0
  5 22  1  0  0  0  0
  6  7  2  0  0  0  0
  6 15  1  0  0  0  0
  7  8  1  0  0  0  0
  7 21  1  0  0  0  0
  8  9  2  0  0  0  0
  9 10  1  0  0  0  0
  9 20  1  0  0  0  0
 10 11  2  0  0  0  0
 10 15  1  0  0  0  0
 11 12  1  0  0  0  0
 11 19  1  0  0  0  0
 12 13  2  0  0  0  0
 12 18  1  0  0  0  0
 13 14  1  0  0  0  0
 13 17  1  0  0  0  0
 14 15  2  0  0  0  0
 14 16  1  0  0  0  0
 22 23  2  0  0  0  0
 22 24  1  0  0  0  0
 24 25  1  0  0  0  0
 24 41  1  0  0  0  0
 25 26  1  0  0  0  0
 25 44  1  0  0  0  0
 25 45  1  0  0  0  0
 26 27  1  0  0  0  0
 26 41  1  0  0  0  0
 27 28  2  0  0  0  0
 27 29  2  0  0  0  0
 27 30  1  0  0  0  0
 30 31  2  0  0  0  0
 30 35  1  0  0  0  0
 31 32  1  0  0  0  0
 31 40  1  0  0  0  0
 32 33  2  0  0  0  0
 32 39  1  0  0  0  0
 33 34  1  0  0  0  0
 33 38  1  0  0  0  0
 34 35  2  0  0  0  0
 34 37  1  0  0  0  0
 35 36  1  0  0  0  0
 41 42  1  0  0  0  0
 41 43  1  0  0  0  0
M  END
>  <MODEL>
       1

$$$$
