tmp_first_model_6_48.pdb
 OpenBabel08272519583D

 46 48  0  0  0  0  0  0  0  0999 V2000
   -9.8000   -5.8630  -26.7280 C   0  0  0  0  0  0  0  0  0  0  0  0
   -9.4880   -6.4220  -25.3380 C   0  0  0  0  0  0  0  0  0  0  0  0
   -8.9230   -7.8360  -25.4780 C   0  0  0  0  0  0  0  0  0  0  0  0
   -9.5190   -8.4310  -26.1800 H   0  0  0  0  0  0  0  0  0  0  0  0
   -7.9000   -7.8150  -25.8690 H   0  0  0  0  0  0  0  0  0  0  0  0
   -8.9110   -8.3800  -24.5290 H   0  0  0  0  0  0  0  0  0  0  0  0
   -8.5530   -5.4770  -24.5410 C   0  0  0  0  0  0  0  0  0  0  0  0
   -8.0890   -6.0300  -23.1970 C   0  0  0  0  0  0  0  0  0  0  0  0
   -7.1050   -5.0830  -22.5100 C   0  0  0  0  0  0  0  0  0  0  0  0
   -7.5860   -3.6980  -22.4430 N   0  0  0  0  0  0  0  0  0  0  0  0
   -6.7860   -2.7810  -21.8060 C   0  0  0  0  0  0  0  0  0  0  0  0
   -5.5980   -2.9990  -21.6400 O   0  0  0  0  0  0  0  0  0  0  0  0
   -7.4230   -1.4790  -21.2580 C   0  0  0  0  0  0  0  0  0  0  0  0
   -6.5810   -0.8280  -20.1810 C   0  0  0  0  0  0  0  0  0  0  0  0
   -6.8730   -1.0450  -18.8590 C   0  0  0  0  0  0  0  0  0  0  0  0
   -6.1870   -0.5460  -17.7980 N   0  0  0  0  0  0  0  0  0  0  0  0
   -5.1570    0.2230  -18.0630 C   0  0  0  0  0  0  0  0  0  0  0  0
   -4.7210    0.5340  -19.3800 C   0  0  0  0  0  0  0  0  0  0  0  0
   -3.5920    1.3610  -19.6160 C   0  0  0  0  0  0  0  0  0  0  0  0
   -3.1960    1.6480  -20.8960 C   0  0  0  0  0  0  0  0  0  0  0  0
   -3.9300    1.1360  -21.9850 C   0  0  0  0  0  0  0  0  0  0  0  0
   -5.0180    0.3180  -21.7810 C   0  0  0  0  0  0  0  0  0  0  0  0
   -5.4480   -0.0050  -20.4700 C   0  0  0  0  0  0  0  0  0  0  0  0
   -5.5160   -0.1320  -22.6340 H   0  0  0  0  0  0  0  0  0  0  0  0
   -3.5800    1.3170  -22.9970 H   0  0  0  0  0  0  0  0  0  0  0  0
   -2.3250    2.2710  -21.0840 H   0  0  0  0  0  0  0  0  0  0  0  0
   -3.0520    1.7730  -18.7670 H   0  0  0  0  0  0  0  0  0  0  0  0
   -4.6010    0.6290  -17.2160 H   0  0  0  0  0  0  0  0  0  0  0  0
   -7.7200   -1.6700  -18.5860 H   0  0  0  0  0  0  0  0  0  0  0  0
   -7.5840   -0.7740  -22.0850 H   0  0  0  0  0  0  0  0  0  0  0  0
   -8.4170   -1.7010  -20.8430 H   0  0  0  0  0  0  0  0  0  0  0  0
   -8.9240   -3.4480  -22.9470 C   0  0  0  0  0  0  0  0  0  0  0  0
   -9.1660   -4.0820  -24.3210 C   0  0  0  0  0  0  0  0  0  0  0  0
  -10.2430   -4.1620  -24.4170 H   0  0  0  0  0  0  0  0  0  0  0  0
   -8.8320   -3.3980  -25.1100 H   0  0  0  0  0  0  0  0  0  0  0  0
   -9.6790   -3.8210  -22.2400 H   0  0  0  0  0  0  0  0  0  0  0  0
   -9.0850   -2.3710  -23.0290 H   0  0  0  0  0  0  0  0  0  0  0  0
   -6.1440   -5.1080  -23.0360 H   0  0  0  0  0  0  0  0  0  0  0  0
   -6.8970   -5.4510  -21.4990 H   0  0  0  0  0  0  0  0  0  0  0  0
   -7.5890   -6.9940  -23.3340 H   0  0  0  0  0  0  0  0  0  0  0  0
   -8.9500   -6.2380  -22.5500 H   0  0  0  0  0  0  0  0  0  0  0  0
   -7.6500   -5.3420  -25.1500 H   0  0  0  0  0  0  0  0  0  0  0  0
  -10.4350   -6.5020  -24.7890 H   0  0  0  0  0  0  0  0  0  0  0  0
  -10.2860   -4.8870  -26.6890 H   0  0  0  0  0  0  0  0  0  0  0  0
   -8.8820   -5.7500  -27.3160 H   0  0  0  0  0  0  0  0  0  0  0  0
  -10.4590   -6.5380  -27.2860 H   0  0  0  0  0  0  0  0  0  0  0  0
  1  2  1  0  0  0  0
  1 44  1  0  0  0  0
  1 45  1  0  0  0  0
  1 46  1  0  0  0  0
  2  3  1  0  0  0  0
  2  7  1  0  0  0  0
  2 43  1  0  0  0  0
  3  4  1  0  0  0  0
  3  5  1  0  0  0  0
  3  6  1  0  0  0  0
  7  8  1  0  0  0  0
  7 33  1  0  0  0  0
  7 42  1  0  0  0  0
  8  9  1  0  0  0  0
  8 40  1  0  0  0  0
  8 41  1  0  0  0  0
  9 10  1  0  0  0  0
  9 38  1  0  0  0  0
  9 39  1  0  0  0  0
 10 11  1  0  0  0  0
 10 32  1  0  0  0  0
 11 12  2  0  0  0  0
 11 13  1  0  0  0  0
 13 14  1  0  0  0  0
 13 30  1  0  0  0  0
 13 31  1  0  0  0  0
 14 15  2  0  0  0  0
 14 23  1  0  0  0  0
 15 16  1  0  0  0  0
 15 29  1  0  0  0  0
 16 17  2  0  0  0  0
 17 18  1  0  0  0  0
 17 28  1  0  0  0  0
 18 19  2  0  0  0  0
 18 23  1  0  0  0  0
 19 20  1  0  0  0  0
 19 27  1  0  0  0  0
 20 21  2  0  0  0  0
 20 26  1  0  0  0  0
 21 22  1  0  0  0  0
 21 25  1  0  0  0  0
 22 23  2  0  0  0  0
 22 24  1  0  0  0  0
 32 33  1  0  0  0  0
 32 36  1  0  0  0  0
 32 37  1  0  0  0  0
 33 34  1  0  0  0  0
 33 35  1  0  0  0  0
M  END
>  <MODEL>
       1

$$$$
