tmp_first_model_7_20.pdb
 OpenBabel08272520323D

 66 71  0  0  1  0  0  0  0  0999 V2000
   -7.6770    2.5400  -22.1800 C   0  0  0  0  0  0  0  0  0  0  0  0
   -8.5780    2.2740  -23.2790 N   0  0  0  0  0  0  0  0  0  0  0  0
   -8.1350    1.5280  -24.3140 C   0  0  0  0  0  0  0  0  0  0  0  0
   -6.9530    1.3350  -24.5820 O   0  0  0  0  0  0  0  0  0  0  0  0
   -9.2540    0.8540  -25.0950 C   0  0  0  0  0  0  0  0  0  0  0  0
   -9.9000   -0.1180  -24.2420 N   0  0  0  0  0  0  0  0  0  0  0  0
   -9.2520   -1.3970  -24.0940 C   0  0  0  0  0  0  0  0  0  0  0  0
   -9.4040   -1.9520  -22.6640 C   0  0  2  0  0  0  0  0  0  0  0  0
   -8.8210   -0.9670  -21.6150 C   0  0  0  0  0  0  0  0  0  0  0  0
   -9.3780    0.0090  -21.1450 O   0  0  0  0  0  0  0  0  0  0  0  0
   -7.5630   -1.3940  -21.2800 N   0  0  0  0  0  0  0  0  0  0  0  0
   -6.7960   -0.8050  -20.2500 C   0  0  0  0  0  0  0  0  0  0  0  0
   -7.1590   -0.9640  -18.9360 C   0  0  0  0  0  0  0  0  0  0  0  0
   -6.4210   -0.5180  -17.8930 N   0  0  0  0  0  0  0  0  0  0  0  0
   -5.3180    0.1330  -18.1640 C   0  0  0  0  0  0  0  0  0  0  0  0
   -4.8550    0.4080  -19.4830 C   0  0  0  0  0  0  0  0  0  0  0  0
   -3.6930    1.1870  -19.7290 C   0  0  0  0  0  0  0  0  0  0  0  0
   -3.3020    1.4600  -21.0100 C   0  0  0  0  0  0  0  0  0  0  0  0
   -4.0460    0.9670  -22.1030 C   0  0  0  0  0  0  0  0  0  0  0  0
   -5.1720    0.2060  -21.8930 C   0  0  0  0  0  0  0  0  0  0  0  0
   -5.6050   -0.0910  -20.5710 C   0  0  0  0  0  0  0  0  0  0  0  0
   -5.7530   -0.1200  -22.7500 H   0  0  0  0  0  0  0  0  0  0  0  0
   -3.7380    1.2030  -23.1170 H   0  0  0  0  0  0  0  0  0  0  0  0
   -2.4270    2.0750  -21.1940 H   0  0  0  0  0  0  0  0  0  0  0  0
   -3.1390    1.5760  -18.8780 H   0  0  0  0  0  0  0  0  0  0  0  0
   -4.7280    0.4850  -17.3160 H   0  0  0  0  0  0  0  0  0  0  0  0
   -8.0790   -1.4900  -18.6920 H   0  0  0  0  0  0  0  0  0  0  0  0
   -7.1570   -2.6050  -21.9620 C   0  0  0  0  0  0  0  0  0  0  0  0
   -8.5000   -3.1960  -22.4340 C   0  0  2  0  0  0  0  0  0  0  0  0
   -8.3550   -4.2780  -23.5390 C   0  0  0  0  0  0  0  0  0  0  0  0
   -7.2990   -4.0800  -24.6170 C   0  0  0  0  0  0  0  0  0  0  0  0
   -7.6000   -3.5560  -25.8790 C   0  0  0  0  0  0  0  0  0  0  0  0
   -6.6040   -3.3120  -26.8190 C   0  0  0  0  0  0  0  0  0  0  0  0
   -5.2810   -3.6370  -26.5410 C   0  0  0  0  0  0  0  0  0  0  0  0
   -4.9690   -4.2190  -25.3180 C   0  0  0  0  0  0  0  0  0  0  0  0
   -5.9660   -4.4400  -24.3720 C   0  0  0  0  0  0  0  0  0  0  0  0
   -5.6990   -4.8750  -23.4090 H   0  0  0  0  0  0  0  0  0  0  0  0
   -3.9430   -4.5000  -25.1000 H   0  0  0  0  0  0  0  0  0  0  0  0
   -4.5020   -3.4450  -27.2730 H   0  0  0  0  0  0  0  0  0  0  0  0
   -6.8660   -2.8640  -27.7730 H   0  0  0  0  0  0  0  0  0  0  0  0
   -8.6290   -3.3070  -26.1320 H   0  0  0  0  0  0  0  0  0  0  0  0
   -9.3390   -4.4330  -24.0000 H   0  0  0  0  0  0  0  0  0  0  0  0
   -8.1050   -5.2130  -23.0200 H   0  0  0  0  0  0  0  0  0  0  0  0
   -8.9270   -3.6900  -21.5530 H   0  0  0  0  0  0  0  0  0  0  0  0
   -6.6180   -3.2660  -21.2790 H   0  0  0  0  0  0  0  0  0  0  0  0
   -6.4880   -2.3650  -22.8010 H   0  0  0  0  0  0  0  0  0  0  0  0
  -10.8940   -2.0450  -22.4240 C   0  0  0  0  0  0  0  0  0  0  0  0
  -11.5340   -3.0700  -21.7250 C   0  0  0  0  0  0  0  0  0  0  0  0
  -12.8900   -2.9690  -21.4520 C   0  0  0  0  0  0  0  0  0  0  0  0
  -13.6640   -4.1920  -20.4860 Cl  0  0  0  0  0  0  0  0  0  0  0  0
  -13.6550   -1.8860  -21.8860 C   0  0  0  0  0  0  0  0  0  0  0  0
  -13.0220   -0.8650  -22.5730 C   0  0  0  0  0  0  0  0  0  0  0  0
  -11.6550   -0.9310  -22.8170 C   0  0  0  0  0  0  0  0  0  0  0  0
  -10.9930    0.2150  -23.5150 C   0  0  0  0  0  0  0  0  0  0  0  0
  -11.4020    1.3760  -23.4530 O   0  0  0  0  0  0  0  0  0  0  0  0
  -13.5780   -0.0040  -22.9330 H   0  0  0  0  0  0  0  0  0  0  0  0
  -14.7160   -1.8460  -21.6570 H   0  0  0  0  0  0  0  0  0  0  0  0
  -10.9810   -3.9280  -21.3600 H   0  0  0  0  0  0  0  0  0  0  0  0
   -8.1970   -1.2840  -24.3470 H   0  0  0  0  0  0  0  0  0  0  0  0
   -9.7010   -2.1160  -24.7850 H   0  0  0  0  0  0  0  0  0  0  0  0
   -8.8120    0.3300  -25.9410 H   0  0  0  0  0  0  0  0  0  0  0  0
  -10.0040    1.5680  -25.4420 H   0  0  0  0  0  0  0  0  0  0  0  0
   -9.5760    2.2270  -23.0860 H   0  0  0  0  0  0  0  0  0  0  0  0
   -7.8370    3.5450  -21.7890 H   0  0  0  0  0  0  0  0  0  0  0  0
   -6.6620    2.4650  -22.5770 H   0  0  0  0  0  0  0  0  0  0  0  0
   -7.8310    1.7910  -21.3930 H   0  0  0  0  0  0  0  0  0  0  0  0
  1  2  1  0  0  0  0
  1 64  1  0  0  0  0
  1 65  1  0  0  0  0
  1 66  1  0  0  0  0
  2  3  1  0  0  0  0
  2 63  1  0  0  0  0
  3  4  2  0  0  0  0
  3  5  1  0  0  0  0
  5  6  1  0  0  0  0
  5 61  1  0  0  0  0
  5 62  1  0  0  0  0
  6  7  1  0  0  0  0
  6 54  1  0  0  0  0
  7  8  1  0  0  0  0
  7 59  1  0  0  0  0
  7 60  1  0  0  0  0
  8  9  1  1  0  0  0
  8 29  1  0  0  0  0
  8 47  1  0  0  0  0
  9 10  2  0  0  0  0
  9 11  1  0  0  0  0
 11 12  1  0  0  0  0
 11 28  1  0  0  0  0
 12 13  2  0  0  0  0
 12 21  1  0  0  0  0
 13 14  1  0  0  0  0
 13 27  1  0  0  0  0
 14 15  2  0  0  0  0
 15 16  1  0  0  0  0
 15 26  1  0  0  0  0
 16 17  2  0  0  0  0
 16 21  1  0  0  0  0
 17 18  1  0  0  0  0
 17 25  1  0  0  0  0
 18 19  2  0  0  0  0
 18 24  1  0  0  0  0
 19 20  1  0  0  0  0
 19 23  1  0  0  0  0
 20 21  2  0  0  0  0
 20 22  1  0  0  0  0
 28 29  1  0  0  0  0
 28 45  1  0  0  0  0
 28 46  1  0  0  0  0
 29 30  1  0  0  0  0
 29 44  1  1  0  0  0
 30 31  1  0  0  0  0
 30 42  1  0  0  0  0
 30 43  1  0  0  0  0
 31 32  2  0  0  0  0
 31 36  1  0  0  0  0
 32 33  1  0  0  0  0
 32 41  1  0  0  0  0
 33 34  2  0  0  0  0
 33 40  1  0  0  0  0
 34 35  1  0  0  0  0
 34 39  1  0  0  0  0
 35 36  2  0  0  0  0
 35 38  1  0  0  0  0
 36 37  1  0  0  0  0
 47 48  2  0  0  0  0
 47 53  1  0  0  0  0
 48 49  1  0  0  0  0
 48 58  1  0  0  0  0
 49 50  1  0  0  0  0
 49 51  2  0  0  0  0
 51 52  1  0  0  0  0
 51 57  1  0  0  0  0
 52 53  2  0  0  0  0
 52 56  1  0  0  0  0
 53 54  1  0  0  0  0
 54 55  2  0  0  0  0
M  END
>  <MODEL>
       1

$$$$
