tmp_first_model_20_30.pdb
 OpenBabel08282503553D

 58 63  0  0  1  0  0  0  0  0999 V2000
   -7.2790   -3.4060  -23.8950 C   0  0  0  0  0  0  0  0  0  0  0  0
   -8.2470   -2.8900  -22.8190 C   0  0  1  0  0  0  0  0  0  0  0  0
   -7.5410   -2.7790  -21.4480 C   0  0  0  0  0  0  0  0  0  0  0  0
   -7.3630   -1.3610  -21.2390 N   0  0  0  0  0  0  0  0  0  0  0  0
   -6.5900   -0.8160  -20.1870 C   0  0  0  0  0  0  0  0  0  0  0  0
   -6.8990   -1.0600  -18.8730 C   0  0  0  0  0  0  0  0  0  0  0  0
   -6.2130   -0.5530  -17.8180 N   0  0  0  0  0  0  0  0  0  0  0  0
   -5.1730    0.2030  -18.0830 C   0  0  0  0  0  0  0  0  0  0  0  0
   -4.7260    0.5190  -19.3980 C   0  0  0  0  0  0  0  0  0  0  0  0
   -3.5850    1.3360  -19.6340 C   0  0  0  0  0  0  0  0  0  0  0  0
   -3.1740    1.6000  -20.9110 C   0  0  0  0  0  0  0  0  0  0  0  0
   -3.8810    1.0620  -22.0110 C   0  0  0  0  0  0  0  0  0  0  0  0
   -4.9820    0.2710  -21.8090 C   0  0  0  0  0  0  0  0  0  0  0  0
   -5.4460   -0.0100  -20.4910 C   0  0  0  0  0  0  0  0  0  0  0  0
   -5.5320   -0.1340  -22.6530 H   0  0  0  0  0  0  0  0  0  0  0  0
   -3.5590    1.3000  -23.0210 H   0  0  0  0  0  0  0  0  0  0  0  0
   -2.3220    2.2480  -21.0920 H   0  0  0  0  0  0  0  0  0  0  0  0
   -3.0630    1.7550  -18.7780 H   0  0  0  0  0  0  0  0  0  0  0  0
   -4.6290    0.6080  -17.2290 H   0  0  0  0  0  0  0  0  0  0  0  0
   -7.7530   -1.6820  -18.6090 H   0  0  0  0  0  0  0  0  0  0  0  0
   -8.1770   -0.5750  -22.0220 C   0  0  0  0  0  0  0  0  0  0  0  0
   -8.3200    0.6190  -21.8660 O   0  0  0  0  0  0  0  0  0  0  0  0
   -8.8860   -1.4770  -23.0680 C   0  0  1  0  0  0  0  0  0  0  0  0
   -8.6560   -0.9530  -24.5070 C   0  0  0  0  0  0  0  0  0  0  0  0
   -9.3550    0.2930  -24.7680 N   0  0  0  0  0  0  0  0  0  0  0  0
   -8.6890    1.3880  -25.4490 C   0  0  0  0  0  0  0  0  0  0  0  0
   -8.2540    2.4800  -24.5120 C   0  0  0  0  0  0  0  0  0  0  0  0
   -6.9600    2.5500  -24.0880 C   0  0  0  0  0  0  0  0  0  0  0  0
   -6.4920    3.6780  -23.3220 C   0  0  0  0  0  0  0  0  0  0  0  0
   -5.3390    4.0140  -23.1110 O   0  0  0  0  0  0  0  0  0  0  0  0
   -7.5780    4.4420  -22.8350 N   0  0  0  0  0  0  0  0  0  0  0  0
   -8.8390    4.3020  -23.3110 C   0  0  0  0  0  0  0  0  0  0  0  0
   -9.2040    3.4050  -24.1700 N   0  0  0  0  0  0  0  0  0  0  0  0
   -9.5530    5.0230  -22.9350 H   0  0  0  0  0  0  0  0  0  0  0  0
   -7.3660    5.1340  -22.1230 H   0  0  0  0  0  0  0  0  0  0  0  0
   -6.2410    1.7840  -24.3510 H   0  0  0  0  0  0  0  0  0  0  0  0
   -9.3740    1.7920  -26.1970 H   0  0  0  0  0  0  0  0  0  0  0  0
   -7.7930    0.9900  -25.9320 H   0  0  0  0  0  0  0  0  0  0  0  0
  -10.6700    0.4580  -24.4540 C   0  0  0  0  0  0  0  0  0  0  0  0
  -11.3520    1.3580  -24.9220 O   0  0  0  0  0  0  0  0  0  0  0  0
  -11.2190   -0.5210  -23.4730 C   0  0  0  0  0  0  0  0  0  0  0  0
  -12.5820   -0.4350  -23.1980 C   0  0  0  0  0  0  0  0  0  0  0  0
  -13.1430   -1.2730  -22.2590 C   0  0  0  0  0  0  0  0  0  0  0  0
  -12.3270   -2.1920  -21.6150 C   0  0  0  0  0  0  0  0  0  0  0  0
  -12.9070   -3.0010  -20.7130 F   0  0  0  0  0  0  0  0  0  0  0  0
  -10.9640   -2.2540  -21.8280 C   0  0  0  0  0  0  0  0  0  0  0  0
  -10.3940   -1.4400  -22.8130 C   0  0  0  0  0  0  0  0  0  0  0  0
  -10.3610   -2.8840  -21.1840 H   0  0  0  0  0  0  0  0  0  0  0  0
  -14.1810   -1.2020  -21.9650 H   0  0  0  0  0  0  0  0  0  0  0  0
  -13.1570    0.3200  -23.7250 H   0  0  0  0  0  0  0  0  0  0  0  0
   -8.9980   -1.7320  -25.2070 H   0  0  0  0  0  0  0  0  0  0  0  0
   -7.5890   -0.7700  -24.6640 H   0  0  0  0  0  0  0  0  0  0  0  0
   -6.5650   -3.2780  -21.4420 H   0  0  0  0  0  0  0  0  0  0  0  0
   -8.1570   -3.2080  -20.6520 H   0  0  0  0  0  0  0  0  0  0  0  0
   -9.0620   -3.6190  -22.7580 H   0  0  0  0  0  0  0  0  0  0  0  0
   -6.8920   -4.3880  -23.6010 H   0  0  0  0  0  0  0  0  0  0  0  0
   -6.4230   -2.7360  -24.0290 H   0  0  0  0  0  0  0  0  0  0  0  0
   -7.7730   -3.5310  -24.8620 H   0  0  0  0  0  0  0  0  0  0  0  0
  1  2  1  0  0  0  0
  1 56  1  0  0  0  0
  1 57  1  0  0  0  0
  1 58  1  0  0  0  0
  2  3  1  0  0  0  0
  2 23  1  0  0  0  0
  2 55  1  1  0  0  0
  3  4  1  0  0  0  0
  3 53  1  0  0  0  0
  3 54  1  0  0  0  0
  4  5  1  0  0  0  0
  4 21  1  0  0  0  0
  5  6  2  0  0  0  0
  5 14  1  0  0  0  0
  6  7  1  0  0  0  0
  6 20  1  0  0  0  0
  7  8  2  0  0  0  0
  8  9  1  0  0  0  0
  8 19  1  0  0  0  0
  9 10  2  0  0  0  0
  9 14  1  0  0  0  0
 10 11  1  0  0  0  0
 10 18  1  0  0  0  0
 11 12  2  0  0  0  0
 11 17  1  0  0  0  0
 12 13  1  0  0  0  0
 12 16  1  0  0  0  0
 13 14  2  0  0  0  0
 13 15  1  0  0  0  0
 21 22  2  0  0  0  0
 23 21  1  1  0  0  0
 23 24  1  0  0  0  0
 23 47  1  0  0  0  0
 24 25  1  0  0  0  0
 24 51  1  0  0  0  0
 24 52  1  0  0  0  0
 25 26  1  0  0  0  0
 25 39  1  0  0  0  0
 26 27  1  0  0  0  0
 26 37  1  0  0  0  0
 26 38  1  0  0  0  0
 27 28  2  0  0  0  0
 27 33  1  0  0  0  0
 28 29  1  0  0  0  0
 28 36  1  0  0  0  0
 29 30  2  0  0  0  0
 29 31  1  0  0  0  0
 31 32  1  0  0  0  0
 31 35  1  0  0  0  0
 32 33  2  0  0  0  0
 32 34  1  0  0  0  0
 39 40  2  0  0  0  0
 39 41  1  0  0  0  0
 41 42  2  0  0  0  0
 41 47  1  0  0  0  0
 42 43  1  0  0  0  0
 42 50  1  0  0  0  0
 43 44  2  0  0  0  0
 43 49  1  0  0  0  0
 44 45  1  0  0  0  0
 44 46  1  0  0  0  0
 46 47  2  0  0  0  0
 46 48  1  0  0  0  0
M  END
>  <MODEL>
       1

$$$$
