tmp_first_model_4_2.pdb
 OpenBabel08272518513D

 60 65  0  0  1  0  0  0  0  0999 V2000
   -5.8510    1.9460  -29.9340 C   0  0  0  0  0  0  0  0  0  0  0  0
   -6.3180    0.7790  -29.1150 C   0  0  0  0  0  0  0  0  0  0  0  0
   -5.6590    0.4170  -27.9360 C   0  0  0  0  0  0  0  0  0  0  0  0
   -6.0830   -0.5840  -27.1700 N   0  0  0  0  0  0  0  0  0  0  0  0
   -7.1730   -1.2390  -27.5860 C   0  0  0  0  0  0  0  0  0  0  0  0
   -7.6750   -2.3660  -26.7270 C   0  0  0  0  0  0  0  0  0  0  0  0
   -8.5470   -1.9240  -25.6500 N   0  0  0  0  0  0  0  0  0  0  0  0
   -7.9410   -1.2830  -24.4930 C   0  0  0  0  0  0  0  0  0  0  0  0
   -8.7300   -1.5410  -23.1960 C   0  0  2  0  0  0  0  0  0  0  0  0
   -8.1400   -0.6060  -22.1180 C   0  0  0  0  0  0  0  0  0  0  0  0
   -8.2540    0.6000  -22.0640 O   0  0  0  0  0  0  0  0  0  0  0  0
   -7.4200   -1.3710  -21.2290 N   0  0  0  0  0  0  0  0  0  0  0  0
   -6.5230   -0.9270  -20.2310 C   0  0  0  0  0  0  0  0  0  0  0  0
   -6.7700   -1.2530  -18.9210 C   0  0  0  0  0  0  0  0  0  0  0  0
   -5.9570   -0.9620  -17.8810 N   0  0  0  0  0  0  0  0  0  0  0  0
   -4.8460   -0.3270  -18.1560 C   0  0  0  0  0  0  0  0  0  0  0  0
   -4.4670    0.0730  -19.4710 C   0  0  0  0  0  0  0  0  0  0  0  0
   -3.3020    0.8570  -19.7100 C   0  0  0  0  0  0  0  0  0  0  0  0
   -3.0370    1.3390  -20.9590 C   0  0  0  0  0  0  0  0  0  0  0  0
   -3.8540    0.9750  -22.0540 C   0  0  0  0  0  0  0  0  0  0  0  0
   -4.9450    0.1670  -21.8690 C   0  0  0  0  0  0  0  0  0  0  0  0
   -5.3160   -0.2410  -20.5550 C   0  0  0  0  0  0  0  0  0  0  0  0
   -5.5980   -0.0670  -22.7060 H   0  0  0  0  0  0  0  0  0  0  0  0
   -3.6430    1.3580  -23.0460 H   0  0  0  0  0  0  0  0  0  0  0  0
   -2.2310    2.0500  -21.1200 H   0  0  0  0  0  0  0  0  0  0  0  0
   -2.6710    1.1110  -18.8620 H   0  0  0  0  0  0  0  0  0  0  0  0
   -4.2000   -0.0710  -17.3170 H   0  0  0  0  0  0  0  0  0  0  0  0
   -7.7120   -1.7310  -18.6710 H   0  0  0  0  0  0  0  0  0  0  0  0
   -7.3960   -2.7710  -21.5510 C   0  0  0  0  0  0  0  0  0  0  0  0
   -8.5300   -2.9560  -22.5540 C   0  0  2  0  0  0  0  0  0  0  0  0
   -8.2820   -4.1180  -23.5090 C   0  0  0  0  0  0  0  0  0  0  0  0
   -8.2080   -5.0630  -22.9650 H   0  0  0  0  0  0  0  0  0  0  0  0
   -9.0870   -4.2060  -24.2400 H   0  0  0  0  0  0  0  0  0  0  0  0
   -7.3430   -3.9860  -24.0580 H   0  0  0  0  0  0  0  0  0  0  0  0
   -9.4460   -3.1600  -21.9810 H   0  0  0  0  0  0  0  0  0  0  0  0
   -6.4150   -3.0490  -21.9600 H   0  0  0  0  0  0  0  0  0  0  0  0
   -7.5300   -3.3200  -20.6250 H   0  0  0  0  0  0  0  0  0  0  0  0
  -10.1850   -1.2580  -23.4870 C   0  0  0  0  0  0  0  0  0  0  0  0
  -11.0360   -0.9600  -22.4230 C   0  0  0  0  0  0  0  0  0  0  0  0
  -12.3770   -0.7530  -22.6870 C   0  0  0  0  0  0  0  0  0  0  0  0
  -13.2210   -0.4710  -21.6850 F   0  0  0  0  0  0  0  0  0  0  0  0
  -12.9180   -0.8370  -23.9650 C   0  0  0  0  0  0  0  0  0  0  0  0
  -12.0770   -1.1600  -25.0120 C   0  0  0  0  0  0  0  0  0  0  0  0
  -10.7210   -1.3750  -24.7750 C   0  0  0  0  0  0  0  0  0  0  0  0
   -9.8770   -1.7860  -25.9300 C   0  0  0  0  0  0  0  0  0  0  0  0
  -10.3510   -2.0190  -27.0380 O   0  0  0  0  0  0  0  0  0  0  0  0
  -12.4280   -1.2630  -26.0340 H   0  0  0  0  0  0  0  0  0  0  0  0
  -13.9810   -0.6580  -24.0900 H   0  0  0  0  0  0  0  0  0  0  0  0
  -10.6330   -0.8980  -21.4160 H   0  0  0  0  0  0  0  0  0  0  0  0
   -6.9150   -1.6510  -24.3940 H   0  0  0  0  0  0  0  0  0  0  0  0
   -7.8870   -0.1950  -24.6410 H   0  0  0  0  0  0  0  0  0  0  0  0
   -8.2520   -3.0790  -27.3200 H   0  0  0  0  0  0  0  0  0  0  0  0
   -6.8140   -2.8650  -26.2730 H   0  0  0  0  0  0  0  0  0  0  0  0
   -7.8200   -0.8940  -28.7690 C   0  0  0  0  0  0  0  0  0  0  0  0
   -7.3910    0.1100  -29.5390 N   0  0  0  0  0  0  0  0  0  0  0  0
   -8.6990   -1.4510  -29.0980 H   0  0  0  0  0  0  0  0  0  0  0  0
   -4.7670    0.9510  -27.6070 H   0  0  0  0  0  0  0  0  0  0  0  0
   -4.7810    1.8780  -30.1500 H   0  0  0  0  0  0  0  0  0  0  0  0
   -6.4010    1.9820  -30.8740 H   0  0  0  0  0  0  0  0  0  0  0  0
   -6.0150    2.8890  -29.4020 H   0  0  0  0  0  0  0  0  0  0  0  0
  1  2  1  0  0  0  0
  1 58  1  0  0  0  0
  1 59  1  0  0  0  0
  1 60  1  0  0  0  0
  2  3  2  0  0  0  0
  2 55  1  0  0  0  0
  3  4  1  0  0  0  0
  3 57  1  0  0  0  0
  4  5  2  0  0  0  0
  5  6  1  0  0  0  0
  5 54  1  0  0  0  0
  6  7  1  0  0  0  0
  6 52  1  0  0  0  0
  6 53  1  0  0  0  0
  7  8  1  0  0  0  0
  7 45  1  0  0  0  0
  8  9  1  0  0  0  0
  8 50  1  0  0  0  0
  8 51  1  0  0  0  0
  9 10  1  1  0  0  0
  9 30  1  0  0  0  0
  9 38  1  0  0  0  0
 10 11  2  0  0  0  0
 10 12  1  0  0  0  0
 12 13  1  0  0  0  0
 12 29  1  0  0  0  0
 13 14  2  0  0  0  0
 13 22  1  0  0  0  0
 14 15  1  0  0  0  0
 14 28  1  0  0  0  0
 15 16  2  0  0  0  0
 16 17  1  0  0  0  0
 16 27  1  0  0  0  0
 17 18  2  0  0  0  0
 17 22  1  0  0  0  0
 18 19  1  0  0  0  0
 18 26  1  0  0  0  0
 19 20  2  0  0  0  0
 19 25  1  0  0  0  0
 20 21  1  0  0  0  0
 20 24  1  0  0  0  0
 21 22  2  0  0  0  0
 21 23  1  0  0  0  0
 29 30  1  0  0  0  0
 29 36  1  0  0  0  0
 29 37  1  0  0  0  0
 30 31  1  0  0  0  0
 30 35  1  1  0  0  0
 31 32  1  0  0  0  0
 31 33  1  0  0  0  0
 31 34  1  0  0  0  0
 38 39  2  0  0  0  0
 38 44  1  0  0  0  0
 39 40  1  0  0  0  0
 39 49  1  0  0  0  0
 40 41  1  0  0  0  0
 40 42  2  0  0  0  0
 42 43  1  0  0  0  0
 42 48  1  0  0  0  0
 43 44  2  0  0  0  0
 43 47  1  0  0  0  0
 44 45  1  0  0  0  0
 45 46  2  0  0  0  0
 54 55  2  0  0  0  0
 54 56  1  0  0  0  0
M  END
>  <MODEL>
       1

$$$$
