tmp_first_model_6_79.pdb
 OpenBabel08272519583D

 45 49  0  0  0  0  0  0  0  0999 V2000
  -10.5630   -2.6320  -22.5250 C   0  0  0  0  0  0  0  0  0  0  0  0
   -9.1640   -2.4270  -22.1940 N   0  0  0  0  0  0  0  0  0  0  0  0
   -8.7510   -1.3810  -21.4130 C   0  0  0  0  0  0  0  0  0  0  0  0
   -9.4300   -0.4590  -21.0160 O   0  0  0  0  0  0  0  0  0  0  0  0
   -7.3620   -1.5450  -21.2150 N   0  0  0  0  0  0  0  0  0  0  0  0
   -6.5990   -0.8690  -20.2020 C   0  0  0  0  0  0  0  0  0  0  0  0
   -6.9120   -1.0680  -18.8790 C   0  0  0  0  0  0  0  0  0  0  0  0
   -6.2160   -0.5560  -17.8320 N   0  0  0  0  0  0  0  0  0  0  0  0
   -5.1830    0.2030  -18.0960 C   0  0  0  0  0  0  0  0  0  0  0  0
   -4.7550    0.5270  -19.4120 C   0  0  0  0  0  0  0  0  0  0  0  0
   -3.6240    1.3640  -19.6320 C   0  0  0  0  0  0  0  0  0  0  0  0
   -3.2410    1.6850  -20.9050 C   0  0  0  0  0  0  0  0  0  0  0  0
   -3.9890    1.1970  -21.9970 C   0  0  0  0  0  0  0  0  0  0  0  0
   -5.0760    0.3770  -21.8090 C   0  0  0  0  0  0  0  0  0  0  0  0
   -5.4900   -0.0000  -20.5020 C   0  0  0  0  0  0  0  0  0  0  0  0
   -5.5980   -0.0330  -22.6660 H   0  0  0  0  0  0  0  0  0  0  0  0
   -3.6650    1.4200  -23.0080 H   0  0  0  0  0  0  0  0  0  0  0  0
   -2.3690    2.3090  -21.0850 H   0  0  0  0  0  0  0  0  0  0  0  0
   -3.0820    1.7460  -18.7710 H   0  0  0  0  0  0  0  0  0  0  0  0
   -4.6310    0.6060  -17.2450 H   0  0  0  0  0  0  0  0  0  0  0  0
   -7.7610   -1.6870  -18.6030 H   0  0  0  0  0  0  0  0  0  0  0  0
   -6.8640   -2.5380  -22.0600 C   0  0  0  0  0  0  0  0  0  0  0  0
   -5.7030   -2.8240  -22.2230 O   0  0  0  0  0  0  0  0  0  0  0  0
   -8.0650   -3.1720  -22.7500 C   0  0  0  0  0  0  0  0  0  0  0  0
   -7.9660   -3.2940  -24.2940 C   0  0  0  0  0  0  0  0  0  0  0  0
   -7.8800   -4.7890  -24.1650 N   0  0  0  0  0  0  0  0  0  0  0  0
   -9.0250   -5.6550  -25.0570 S   0  0  0  0  0  0  0  0  0  0  0  0
  -10.3190   -5.5190  -24.3940 O   0  0  0  0  0  0  0  0  0  0  0  0
   -8.8560   -5.2460  -26.4360 O   0  0  0  0  0  0  0  0  0  0  0  0
   -8.5590   -7.3610  -24.8950 C   0  0  0  0  0  0  0  0  0  0  0  0
   -9.1030   -8.1250  -23.7170 C   0  0  0  0  0  0  0  0  0  0  0  0
   -9.6940   -8.3410  -25.0730 C   0  0  0  0  0  0  0  0  0  0  0  0
  -10.6520   -7.8840  -25.2950 H   0  0  0  0  0  0  0  0  0  0  0  0
   -9.5000   -9.2750  -25.5940 H   0  0  0  0  0  0  0  0  0  0  0  0
   -8.4590   -8.8950  -23.3070 H   0  0  0  0  0  0  0  0  0  0  0  0
   -9.6840   -7.5720  -22.9820 H   0  0  0  0  0  0  0  0  0  0  0  0
   -7.5780   -7.5680  -25.3110 H   0  0  0  0  0  0  0  0  0  0  0  0
   -8.0790   -4.7160  -22.6970 C   0  0  0  0  0  0  0  0  0  0  0  0
   -7.2240   -5.1430  -22.1730 H   0  0  0  0  0  0  0  0  0  0  0  0
   -9.0150   -5.1490  -22.3370 H   0  0  0  0  0  0  0  0  0  0  0  0
   -8.8480   -2.9370  -24.8410 H   0  0  0  0  0  0  0  0  0  0  0  0
   -7.0670   -2.8700  -24.7420 H   0  0  0  0  0  0  0  0  0  0  0  0
  -10.9930   -1.6640  -22.7920 H   0  0  0  0  0  0  0  0  0  0  0  0
  -11.1160   -3.0290  -21.6650 H   0  0  0  0  0  0  0  0  0  0  0  0
  -10.6530   -3.3320  -23.3630 H   0  0  0  0  0  0  0  0  0  0  0  0
  1  2  1  0  0  0  0
  1 43  1  0  0  0  0
  1 44  1  0  0  0  0
  1 45  1  0  0  0  0
  2  3  1  0  0  0  0
  2 24  1  0  0  0  0
  3  4  2  0  0  0  0
  3  5  1  0  0  0  0
  5  6  1  0  0  0  0
  5 22  1  0  0  0  0
  6  7  2  0  0  0  0
  6 15  1  0  0  0  0
  7  8  1  0  0  0  0
  7 21  1  0  0  0  0
  8  9  2  0  0  0  0
  9 10  1  0  0  0  0
  9 20  1  0  0  0  0
 10 11  2  0  0  0  0
 10 15  1  0  0  0  0
 11 12  1  0  0  0  0
 11 19  1  0  0  0  0
 12 13  2  0  0  0  0
 12 18  1  0  0  0  0
 13 14  1  0  0  0  0
 13 17  1  0  0  0  0
 14 15  2  0  0  0  0
 14 16  1  0  0  0  0
 22 23  2  0  0  0  0
 22 24  1  0  0  0  0
 24 25  1  0  0  0  0
 24 38  1  0  0  0  0
 25 26  1  0  0  0  0
 25 41  1  0  0  0  0
 25 42  1  0  0  0  0
 26 27  1  0  0  0  0
 26 38  1  0  0  0  0
 27 28  2  0  0  0  0
 27 29  2  0  0  0  0
 27 30  1  0  0  0  0
 30 31  1  0  0  0  0
 30 32  1  0  0  0  0
 30 37  1  0  0  0  0
 31 32  1  0  0  0  0
 31 35  1  0  0  0  0
 31 36  1  0  0  0  0
 32 33  1  0  0  0  0
 32 34  1  0  0  0  0
 38 39  1  0  0  0  0
 38 40  1  0  0  0  0
M  END
>  <MODEL>
       1

$$$$
