tmp_first_model_19_2.pdb
 OpenBabel08282503233D

 60 65  0  0  1  0  0  0  0  0999 V2000
   -6.3290    1.0720  -30.6320 C   0  0  0  0  0  0  0  0  0  0  0  0
   -6.7060    1.2280  -29.1820 C   0  0  0  0  0  0  0  0  0  0  0  0
   -6.0630    0.4830  -28.1880 C   0  0  0  0  0  0  0  0  0  0  0  0
   -6.3560    0.5880  -26.8940 N   0  0  0  0  0  0  0  0  0  0  0  0
   -7.3260    1.4520  -26.5730 C   0  0  0  0  0  0  0  0  0  0  0  0
   -7.7390    1.5600  -25.1210 C   0  0  0  0  0  0  0  0  0  0  0  0
   -8.7080    0.5420  -24.6930 N   0  0  0  0  0  0  0  0  0  0  0  0
   -8.2510   -0.8120  -24.4230 C   0  0  0  0  0  0  0  0  0  0  0  0
   -8.8810   -1.3620  -23.1120 C   0  0  2  0  0  0  0  0  0  0  0  0
   -8.3070   -0.5540  -21.9260 C   0  0  0  0  0  0  0  0  0  0  0  0
   -8.5480    0.6030  -21.6680 O   0  0  0  0  0  0  0  0  0  0  0  0
   -7.4400   -1.3470  -21.2030 N   0  0  0  0  0  0  0  0  0  0  0  0
   -6.6070   -0.8000  -20.1800 C   0  0  0  0  0  0  0  0  0  0  0  0
   -6.8880   -1.0480  -18.8620 C   0  0  0  0  0  0  0  0  0  0  0  0
   -6.1850   -0.5540  -17.8110 N   0  0  0  0  0  0  0  0  0  0  0  0
   -5.1570    0.2200  -18.0670 C   0  0  0  0  0  0  0  0  0  0  0  0
   -4.7220    0.5310  -19.3870 C   0  0  0  0  0  0  0  0  0  0  0  0
   -3.5920    1.3610  -19.6330 C   0  0  0  0  0  0  0  0  0  0  0  0
   -3.2080    1.6440  -20.9150 C   0  0  0  0  0  0  0  0  0  0  0  0
   -3.9230    1.1050  -22.0070 C   0  0  0  0  0  0  0  0  0  0  0  0
   -5.0130    0.3000  -21.7950 C   0  0  0  0  0  0  0  0  0  0  0  0
   -5.4530    0.0020  -20.4760 C   0  0  0  0  0  0  0  0  0  0  0  0
   -5.5620   -0.1130  -22.6360 H   0  0  0  0  0  0  0  0  0  0  0  0
   -3.6100    1.3350  -23.0210 H   0  0  0  0  0  0  0  0  0  0  0  0
   -2.3510    2.2850  -21.1060 H   0  0  0  0  0  0  0  0  0  0  0  0
   -3.0510    1.7800  -18.7870 H   0  0  0  0  0  0  0  0  0  0  0  0
   -4.6020    0.6270  -17.2170 H   0  0  0  0  0  0  0  0  0  0  0  0
   -7.7420   -1.6680  -18.5970 H   0  0  0  0  0  0  0  0  0  0  0  0
   -7.2320   -2.6550  -21.7950 C   0  0  0  0  0  0  0  0  0  0  0  0
   -8.4010   -2.8140  -22.7900 C   0  0  2  0  0  0  0  0  0  0  0  0
   -8.0330   -3.6980  -23.9840 C   0  0  0  0  0  0  0  0  0  0  0  0
   -7.1580   -3.3170  -24.5230 H   0  0  0  0  0  0  0  0  0  0  0  0
   -8.8580   -3.7710  -24.6990 H   0  0  0  0  0  0  0  0  0  0  0  0
   -7.7930   -4.7130  -23.6500 H   0  0  0  0  0  0  0  0  0  0  0  0
   -9.2110   -3.3240  -22.2620 H   0  0  0  0  0  0  0  0  0  0  0  0
   -6.2610   -2.7250  -22.3090 H   0  0  0  0  0  0  0  0  0  0  0  0
   -7.2450   -3.4320  -21.0280 H   0  0  0  0  0  0  0  0  0  0  0  0
  -10.3940   -1.1390  -23.1710 C   0  0  0  0  0  0  0  0  0  0  0  0
  -11.2530   -1.7960  -22.2770 C   0  0  0  0  0  0  0  0  0  0  0  0
  -12.6190   -1.5800  -22.3390 C   0  0  0  0  0  0  0  0  0  0  0  0
  -13.4240   -2.2460  -21.4940 F   0  0  0  0  0  0  0  0  0  0  0  0
  -13.1930   -0.6900  -23.2360 C   0  0  0  0  0  0  0  0  0  0  0  0
  -12.3400    0.0270  -24.0510 C   0  0  0  0  0  0  0  0  0  0  0  0
  -10.9500   -0.1580  -24.0120 C   0  0  0  0  0  0  0  0  0  0  0  0
  -10.0590    0.7860  -24.7950 C   0  0  0  0  0  0  0  0  0  0  0  0
  -10.5120    1.7250  -25.4360 O   0  0  0  0  0  0  0  0  0  0  0  0
  -12.7740    0.7730  -24.6990 H   0  0  0  0  0  0  0  0  0  0  0  0
  -14.2730   -0.5490  -23.2530 H   0  0  0  0  0  0  0  0  0  0  0  0
  -10.8840   -2.4530  -21.4950 H   0  0  0  0  0  0  0  0  0  0  0  0
   -7.1600   -0.8070  -24.3470 H   0  0  0  0  0  0  0  0  0  0  0  0
   -8.4990   -1.4670  -25.2720 H   0  0  0  0  0  0  0  0  0  0  0  0
   -6.8470    1.4670  -24.4910 H   0  0  0  0  0  0  0  0  0  0  0  0
   -8.1660    2.5440  -24.9060 H   0  0  0  0  0  0  0  0  0  0  0  0
   -7.9580    2.2000  -27.5610 C   0  0  0  0  0  0  0  0  0  0  0  0
   -7.6670    2.0930  -28.8600 N   0  0  0  0  0  0  0  0  0  0  0  0
   -8.7470    2.8970  -27.2890 H   0  0  0  0  0  0  0  0  0  0  0  0
   -5.2860   -0.2260  -28.4630 H   0  0  0  0  0  0  0  0  0  0  0  0
   -6.4940    0.0470  -30.9800 H   0  0  0  0  0  0  0  0  0  0  0  0
   -6.9150    1.7440  -31.2600 H   0  0  0  0  0  0  0  0  0  0  0  0
   -5.2680    1.2850  -30.7980 H   0  0  0  0  0  0  0  0  0  0  0  0
  1  2  1  0  0  0  0
  1 58  1  0  0  0  0
  1 59  1  0  0  0  0
  1 60  1  0  0  0  0
  2  3  2  0  0  0  0
  2 55  1  0  0  0  0
  3  4  1  0  0  0  0
  3 57  1  0  0  0  0
  4  5  2  0  0  0  0
  5  6  1  0  0  0  0
  5 54  1  0  0  0  0
  6  7  1  0  0  0  0
  6 52  1  0  0  0  0
  6 53  1  0  0  0  0
  7  8  1  0  0  0  0
  7 45  1  0  0  0  0
  8  9  1  0  0  0  0
  8 50  1  0  0  0  0
  8 51  1  0  0  0  0
  9 10  1  1  0  0  0
  9 30  1  0  0  0  0
  9 38  1  0  0  0  0
 10 11  2  0  0  0  0
 10 12  1  0  0  0  0
 12 13  1  0  0  0  0
 12 29  1  0  0  0  0
 13 14  2  0  0  0  0
 13 22  1  0  0  0  0
 14 15  1  0  0  0  0
 14 28  1  0  0  0  0
 15 16  2  0  0  0  0
 16 17  1  0  0  0  0
 16 27  1  0  0  0  0
 17 18  2  0  0  0  0
 17 22  1  0  0  0  0
 18 19  1  0  0  0  0
 18 26  1  0  0  0  0
 19 20  2  0  0  0  0
 19 25  1  0  0  0  0
 20 21  1  0  0  0  0
 20 24  1  0  0  0  0
 21 22  2  0  0  0  0
 21 23  1  0  0  0  0
 29 30  1  0  0  0  0
 29 36  1  0  0  0  0
 29 37  1  0  0  0  0
 30 31  1  0  0  0  0
 30 35  1  1  0  0  0
 31 32  1  0  0  0  0
 31 33  1  0  0  0  0
 31 34  1  0  0  0  0
 38 39  2  0  0  0  0
 38 44  1  0  0  0  0
 39 40  1  0  0  0  0
 39 49  1  0  0  0  0
 40 41  1  0  0  0  0
 40 42  2  0  0  0  0
 42 43  1  0  0  0  0
 42 48  1  0  0  0  0
 43 44  2  0  0  0  0
 43 47  1  0  0  0  0
 44 45  1  0  0  0  0
 45 46  2  0  0  0  0
 54 55  2  0  0  0  0
 54 56  1  0  0  0  0
M  END
>  <MODEL>
       1

$$$$
