tmp_first_model_7_49.pdb
 OpenBabel08272520323D

 67 72  0  0  1  0  0  0  0  0999 V2000
   -7.5050    3.2350  -21.9160 C   0  0  0  0  0  0  0  0  0  0  0  0
   -8.5810    2.7400  -22.7570 N   0  0  0  0  0  0  0  0  0  0  0  0
   -8.2160    1.9820  -23.8270 C   0  0  0  0  0  0  0  0  0  0  0  0
   -7.0420    1.7520  -24.0820 O   0  0  0  0  0  0  0  0  0  0  0  0
   -9.3460    1.3850  -24.6640 C   0  0  0  0  0  0  0  0  0  0  0  0
   -9.8640    0.2150  -23.9910 N   0  0  0  0  0  0  0  0  0  0  0  0
   -9.0660   -0.9990  -23.9690 C   0  0  0  0  0  0  0  0  0  0  0  0
   -9.2240   -1.7530  -22.6170 C   0  0  2  0  0  0  0  0  0  0  0  0
   -8.6300   -0.8920  -21.4830 C   0  0  0  0  0  0  0  0  0  0  0  0
   -9.1420    0.0700  -20.9430 O   0  0  0  0  0  0  0  0  0  0  0  0
   -7.3860   -1.3880  -21.1790 N   0  0  0  0  0  0  0  0  0  0  0  0
   -6.6000   -0.8090  -20.1620 C   0  0  0  0  0  0  0  0  0  0  0  0
   -6.9210   -1.0320  -18.8480 C   0  0  0  0  0  0  0  0  0  0  0  0
   -6.2090   -0.5490  -17.8060 N   0  0  0  0  0  0  0  0  0  0  0  0
   -5.1660    0.1950  -18.0810 C   0  0  0  0  0  0  0  0  0  0  0  0
   -4.7330    0.5100  -19.3990 C   0  0  0  0  0  0  0  0  0  0  0  0
   -3.6120    1.3430  -19.6430 C   0  0  0  0  0  0  0  0  0  0  0  0
   -3.2420    1.6530  -20.9220 C   0  0  0  0  0  0  0  0  0  0  0  0
   -3.9790    1.1530  -22.0190 C   0  0  0  0  0  0  0  0  0  0  0  0
   -5.0720    0.3440  -21.8130 C   0  0  0  0  0  0  0  0  0  0  0  0
   -5.4710   -0.0030  -20.4910 C   0  0  0  0  0  0  0  0  0  0  0  0
   -5.6580    0.0090  -22.6650 H   0  0  0  0  0  0  0  0  0  0  0  0
   -3.6840    1.4160  -23.0310 H   0  0  0  0  0  0  0  0  0  0  0  0
   -2.3900    2.3020  -21.1010 H   0  0  0  0  0  0  0  0  0  0  0  0
   -3.0770    1.7440  -18.7860 H   0  0  0  0  0  0  0  0  0  0  0  0
   -4.6020    0.5950  -17.2380 H   0  0  0  0  0  0  0  0  0  0  0  0
   -7.7900   -1.6400  -18.6040 H   0  0  0  0  0  0  0  0  0  0  0  0
   -7.0020   -2.5610  -21.9330 C   0  0  0  0  0  0  0  0  0  0  0  0
   -8.3330   -3.0130  -22.5540 C   0  0  2  0  0  0  0  0  0  0  0  0
   -8.1810   -3.7400  -23.8790 C   0  0  0  0  0  0  0  0  0  0  0  0
   -7.5520   -5.0170  -23.6860 N   0  0  0  0  0  0  0  0  0  0  0  0
   -7.1220   -5.6950  -24.8000 C   0  0  0  0  0  0  0  0  0  0  0  0
   -7.4030   -5.4640  -26.1110 C   0  0  0  0  0  0  0  0  0  0  0  0
   -6.8290   -6.3290  -27.0230 N   0  0  0  0  0  0  0  0  0  0  0  0
   -6.1390   -7.2280  -26.4070 C   0  0  0  0  0  0  0  0  0  0  0  0
   -5.4560   -8.4130  -26.9820 C   0  0  0  0  0  0  0  0  0  0  0  0
   -5.7650   -8.6040  -28.0140 H   0  0  0  0  0  0  0  0  0  0  0  0
   -4.3690   -8.2950  -26.9040 H   0  0  0  0  0  0  0  0  0  0  0  0
   -5.7590   -9.2200  -26.3210 H   0  0  0  0  0  0  0  0  0  0  0  0
   -6.0350   -7.0450  -24.6630 S   0  0  0  0  0  0  0  0  0  0  0  0
   -8.0680   -4.6910  -26.4780 H   0  0  0  0  0  0  0  0  0  0  0  0
   -7.1470   -5.2560  -22.7940 H   0  0  0  0  0  0  0  0  0  0  0  0
   -7.5830   -3.1270  -24.5740 H   0  0  0  0  0  0  0  0  0  0  0  0
   -9.1670   -3.8700  -24.3500 H   0  0  0  0  0  0  0  0  0  0  0  0
   -8.7780   -3.7110  -21.8420 H   0  0  0  0  0  0  0  0  0  0  0  0
   -6.5730   -3.3180  -21.2700 H   0  0  0  0  0  0  0  0  0  0  0  0
   -6.2510   -2.3200  -22.7020 H   0  0  0  0  0  0  0  0  0  0  0  0
  -10.7080   -1.9760  -22.4020 C   0  0  0  0  0  0  0  0  0  0  0  0
  -11.2310   -3.0660  -21.7020 C   0  0  0  0  0  0  0  0  0  0  0  0
  -12.5920   -3.1320  -21.4690 C   0  0  0  0  0  0  0  0  0  0  0  0
  -13.2130   -4.2730  -20.3280 Cl  0  0  0  0  0  0  0  0  0  0  0  0
  -13.4860   -2.2300  -22.0340 C   0  0  0  0  0  0  0  0  0  0  0  0
  -12.9770   -1.1470  -22.7160 C   0  0  0  0  0  0  0  0  0  0  0  0
  -11.5990   -0.9800  -22.8200 C   0  0  0  0  0  0  0  0  0  0  0  0
  -11.0650    0.3110  -23.3540 C   0  0  0  0  0  0  0  0  0  0  0  0
  -11.6600    1.3760  -23.2390 O   0  0  0  0  0  0  0  0  0  0  0  0
  -13.6390   -0.4150  -23.1640 H   0  0  0  0  0  0  0  0  0  0  0  0
  -14.5500   -2.3790  -21.8950 H   0  0  0  0  0  0  0  0  0  0  0  0
  -10.5980   -3.8520  -21.3120 H   0  0  0  0  0  0  0  0  0  0  0  0
   -9.3880   -1.6520  -24.7900 H   0  0  0  0  0  0  0  0  0  0  0  0
   -8.0130   -0.7390  -24.1390 H   0  0  0  0  0  0  0  0  0  0  0  0
  -10.1720    2.0860  -24.7900 H   0  0  0  0  0  0  0  0  0  0  0  0
   -8.9580    1.1170  -25.6540 H   0  0  0  0  0  0  0  0  0  0  0  0
   -9.5020    2.6450  -22.3450 H   0  0  0  0  0  0  0  0  0  0  0  0
   -7.8930    3.9330  -21.1700 H   0  0  0  0  0  0  0  0  0  0  0  0
   -6.9810    2.3900  -21.4450 H   0  0  0  0  0  0  0  0  0  0  0  0
   -6.7930    3.7790  -22.5410 H   0  0  0  0  0  0  0  0  0  0  0  0
  1  2  1  0  0  0  0
  1 65  1  0  0  0  0
  1 66  1  0  0  0  0
  1 67  1  0  0  0  0
  2  3  1  0  0  0  0
  2 64  1  0  0  0  0
  3  4  2  0  0  0  0
  3  5  1  0  0  0  0
  5  6  1  0  0  0  0
  5 62  1  0  0  0  0
  5 63  1  0  0  0  0
  6  7  1  0  0  0  0
  6 55  1  0  0  0  0
  7  8  1  0  0  0  0
  7 60  1  0  0  0  0
  7 61  1  0  0  0  0
  8  9  1  1  0  0  0
  8 29  1  0  0  0  0
  8 48  1  0  0  0  0
  9 10  2  0  0  0  0
  9 11  1  0  0  0  0
 11 12  1  0  0  0  0
 11 28  1  0  0  0  0
 12 13  2  0  0  0  0
 12 21  1  0  0  0  0
 13 14  1  0  0  0  0
 13 27  1  0  0  0  0
 14 15  2  0  0  0  0
 15 16  1  0  0  0  0
 15 26  1  0  0  0  0
 16 17  2  0  0  0  0
 16 21  1  0  0  0  0
 17 18  1  0  0  0  0
 17 25  1  0  0  0  0
 18 19  2  0  0  0  0
 18 24  1  0  0  0  0
 19 20  1  0  0  0  0
 19 23  1  0  0  0  0
 20 21  2  0  0  0  0
 20 22  1  0  0  0  0
 28 29  1  0  0  0  0
 28 46  1  0  0  0  0
 28 47  1  0  0  0  0
 29 30  1  0  0  0  0
 29 45  1  1  0  0  0
 30 31  1  0  0  0  0
 30 43  1  0  0  0  0
 30 44  1  0  0  0  0
 31 32  1  0  0  0  0
 31 42  1  0  0  0  0
 32 33  2  0  0  0  0
 32 40  1  0  0  0  0
 33 34  1  0  0  0  0
 33 41  1  0  0  0  0
 34 35  2  0  0  0  0
 35 36  1  0  0  0  0
 35 40  1  0  0  0  0
 36 37  1  0  0  0  0
 36 38  1  0  0  0  0
 36 39  1  0  0  0  0
 48 49  2  0  0  0  0
 48 54  1  0  0  0  0
 49 50  1  0  0  0  0
 49 59  1  0  0  0  0
 50 51  1  0  0  0  0
 50 52  2  0  0  0  0
 52 53  1  0  0  0  0
 52 58  1  0  0  0  0
 53 54  2  0  0  0  0
 53 57  1  0  0  0  0
 54 55  1  0  0  0  0
 55 56  2  0  0  0  0
M  END
>  <MODEL>
       1

$$$$
