tmp_first_model_5_9.pdb
 OpenBabel08272519223D

 41 43  0  0  1  0  0  0  0  0999 V2000
   -6.8930    2.3020  -24.2180 C   0  0  0  0  0  0  0  0  0  0  0  0
   -7.5560    1.3620  -25.2330 C   0  0  1  0  0  0  0  0  0  0  0  0
   -6.8140    0.0390  -25.3190 C   0  0  0  0  0  0  0  0  0  0  0  0
   -7.1930   -1.1490  -24.8450 C   0  0  0  0  0  0  0  0  0  0  0  0
   -8.4660   -1.4050  -24.0670 C   0  0  0  0  0  0  0  0  0  0  0  0
   -8.8050   -0.3560  -23.1130 N   0  0  0  0  0  0  0  0  0  0  0  0
   -8.4440   -0.3730  -21.7910 C   0  0  0  0  0  0  0  0  0  0  0  0
   -8.8820    0.4360  -20.9920 O   0  0  0  0  0  0  0  0  0  0  0  0
   -7.4740   -1.4750  -21.3450 C   0  0  0  0  0  0  0  0  0  0  0  0
   -6.5410   -1.0120  -20.2590 C   0  0  0  0  0  0  0  0  0  0  0  0
   -6.8330   -1.1710  -18.9310 C   0  0  0  0  0  0  0  0  0  0  0  0
   -5.9920   -0.8690  -17.9050 N   0  0  0  0  0  0  0  0  0  0  0  0
   -4.8300   -0.3470  -18.2190 C   0  0  0  0  0  0  0  0  0  0  0  0
   -4.4380   -0.0320  -19.5450 C   0  0  0  0  0  0  0  0  0  0  0  0
   -3.2660    0.7210  -19.8080 C   0  0  0  0  0  0  0  0  0  0  0  0
   -3.1460    1.4050  -20.9830 C   0  0  0  0  0  0  0  0  0  0  0  0
   -4.0610    1.1560  -22.0410 C   0  0  0  0  0  0  0  0  0  0  0  0
   -5.0850    0.2570  -21.8680 C   0  0  0  0  0  0  0  0  0  0  0  0
   -5.3550   -0.2900  -20.5840 C   0  0  0  0  0  0  0  0  0  0  0  0
   -5.6640   -0.0670  -22.7310 H   0  0  0  0  0  0  0  0  0  0  0  0
   -3.8940    1.6180  -23.0160 H   0  0  0  0  0  0  0  0  0  0  0  0
   -2.2850    2.0380  -21.1600 H   0  0  0  0  0  0  0  0  0  0  0  0
   -2.5590    0.8430  -18.9940 H   0  0  0  0  0  0  0  0  0  0  0  0
   -4.1600   -0.0800  -17.4010 H   0  0  0  0  0  0  0  0  0  0  0  0
   -7.8060   -1.5710  -18.6440 H   0  0  0  0  0  0  0  0  0  0  0  0
   -6.9050   -1.8410  -22.2060 H   0  0  0  0  0  0  0  0  0  0  0  0
   -8.0920   -2.3160  -20.9900 H   0  0  0  0  0  0  0  0  0  0  0  0
   -9.5220    0.8150  -23.6080 C   0  0  0  0  0  0  0  0  0  0  0  0
   -9.0730    1.2200  -25.0110 C   0  0  0  0  0  0  0  0  0  0  0  0
   -9.5490    2.1810  -25.2490 H   0  0  0  0  0  0  0  0  0  0  0  0
   -9.4660    0.5020  -25.7430 H   0  0  0  0  0  0  0  0  0  0  0  0
  -10.6030    0.6140  -23.6110 H   0  0  0  0  0  0  0  0  0  0  0  0
   -9.3600    1.6350  -22.9010 H   0  0  0  0  0  0  0  0  0  0  0  0
   -9.3000   -1.5040  -24.7760 H   0  0  0  0  0  0  0  0  0  0  0  0
   -8.4060   -2.3660  -23.5420 H   0  0  0  0  0  0  0  0  0  0  0  0
   -6.5790   -2.0220  -25.0720 H   0  0  0  0  0  0  0  0  0  0  0  0
   -5.8610    0.0880  -25.8540 H   0  0  0  0  0  0  0  0  0  0  0  0
   -7.4370    1.8280  -26.2230 H   0  0  0  0  0  0  0  0  0  0  0  0
   -5.8340    2.4530  -24.4630 H   0  0  0  0  0  0  0  0  0  0  0  0
   -6.9380    1.9050  -23.1960 H   0  0  0  0  0  0  0  0  0  0  0  0
   -7.3930    3.2790  -24.2190 H   0  0  0  0  0  0  0  0  0  0  0  0
  1  2  1  0  0  0  0
  1 39  1  0  0  0  0
  1 40  1  0  0  0  0
  1 41  1  0  0  0  0
  2  3  1  0  0  0  0
  2 29  1  0  0  0  0
  2 38  1  6  0  0  0
  3  4  2  0  0  0  0
  3 37  1  0  0  0  0
  4  5  1  0  0  0  0
  4 36  1  0  0  0  0
  5  6  1  0  0  0  0
  5 34  1  0  0  0  0
  5 35  1  0  0  0  0
  6  7  1  0  0  0  0
  6 28  1  0  0  0  0
  7  8  2  0  0  0  0
  7  9  1  0  0  0  0
  9 10  1  0  0  0  0
  9 26  1  0  0  0  0
  9 27  1  0  0  0  0
 10 11  2  0  0  0  0
 10 19  1  0  0  0  0
 11 12  1  0  0  0  0
 11 25  1  0  0  0  0
 12 13  2  0  0  0  0
 13 14  1  0  0  0  0
 13 24  1  0  0  0  0
 14 15  2  0  0  0  0
 14 19  1  0  0  0  0
 15 16  1  0  0  0  0
 15 23  1  0  0  0  0
 16 17  2  0  0  0  0
 16 22  1  0  0  0  0
 17 18  1  0  0  0  0
 17 21  1  0  0  0  0
 18 19  2  0  0  0  0
 18 20  1  0  0  0  0
 28 29  1  0  0  0  0
 28 32  1  0  0  0  0
 28 33  1  0  0  0  0
 29 30  1  0  0  0  0
 29 31  1  0  0  0  0
M  END
>  <MODEL>
       1

$$$$
