tmp_first_model_19_30.pdb
 OpenBabel08282503233D

 58 63  0  0  1  0  0  0  0  0999 V2000
   -9.5130   -0.2910  -23.7710 C   0  0  0  0  0  0  0  0  0  0  0  0
   -8.3050   -0.7620  -22.9810 C   0  0  1  0  0  0  0  0  0  0  0  0
   -7.9700    0.1220  -21.7810 C   0  0  0  0  0  0  0  0  0  0  0  0
   -7.0880   -0.7460  -21.0220 N   0  0  0  0  0  0  0  0  0  0  0  0
   -6.2480   -0.3470  -19.9790 C   0  0  0  0  0  0  0  0  0  0  0  0
   -6.5420   -0.6960  -18.6900 C   0  0  0  0  0  0  0  0  0  0  0  0
   -5.8310   -0.2750  -17.6220 N   0  0  0  0  0  0  0  0  0  0  0  0
   -4.7860    0.4820  -17.8630 C   0  0  0  0  0  0  0  0  0  0  0  0
   -4.3330    0.8470  -19.1660 C   0  0  0  0  0  0  0  0  0  0  0  0
   -3.1590    1.6130  -19.3900 C   0  0  0  0  0  0  0  0  0  0  0  0
   -2.7650    1.9130  -20.6650 C   0  0  0  0  0  0  0  0  0  0  0  0
   -3.5110    1.4640  -21.7810 C   0  0  0  0  0  0  0  0  0  0  0  0
   -4.6500    0.7250  -21.5900 C   0  0  0  0  0  0  0  0  0  0  0  0
   -5.0880    0.4190  -20.2730 C   0  0  0  0  0  0  0  0  0  0  0  0
   -5.2140    0.3610  -22.4430 H   0  0  0  0  0  0  0  0  0  0  0  0
   -3.1810    1.7090  -22.7880 H   0  0  0  0  0  0  0  0  0  0  0  0
   -1.8740    2.5110  -20.8310 H   0  0  0  0  0  0  0  0  0  0  0  0
   -2.6000    1.9620  -18.5250 H   0  0  0  0  0  0  0  0  0  0  0  0
   -4.2300    0.8170  -16.9930 H   0  0  0  0  0  0  0  0  0  0  0  0
   -7.4010   -1.3320  -18.4880 H   0  0  0  0  0  0  0  0  0  0  0  0
   -7.2810   -2.0820  -21.2670 C   0  0  0  0  0  0  0  0  0  0  0  0
   -6.7190   -2.9810  -20.6690 O   0  0  0  0  0  0  0  0  0  0  0  0
   -8.3260   -2.2080  -22.3670 C   0  0  1  0  0  0  0  0  0  0  0  0
   -9.6290   -2.6010  -21.6290 C   0  0  0  0  0  0  0  0  0  0  0  0
  -10.6920   -3.0170  -22.5370 N   0  0  0  0  0  0  0  0  0  0  0  0
  -12.0540   -3.0960  -21.9880 C   0  0  0  0  0  0  0  0  0  0  0  0
  -13.1020   -2.5200  -22.8970 C   0  0  0  0  0  0  0  0  0  0  0  0
  -13.1120   -1.1760  -23.1270 C   0  0  0  0  0  0  0  0  0  0  0  0
  -13.9780   -0.6160  -24.1320 C   0  0  0  0  0  0  0  0  0  0  0  0
  -13.9820    0.5080  -24.6020 O   0  0  0  0  0  0  0  0  0  0  0  0
  -14.9010   -1.5680  -24.6050 N   0  0  0  0  0  0  0  0  0  0  0  0
  -14.8730   -2.8790  -24.2510 C   0  0  0  0  0  0  0  0  0  0  0  0
  -14.0320   -3.3910  -23.4160 N   0  0  0  0  0  0  0  0  0  0  0  0
  -15.6000   -3.5150  -24.7470 H   0  0  0  0  0  0  0  0  0  0  0  0
  -15.6270   -1.2250  -25.2200 H   0  0  0  0  0  0  0  0  0  0  0  0
  -12.4620   -0.5060  -22.5720 H   0  0  0  0  0  0  0  0  0  0  0  0
  -12.3250   -4.1270  -21.7690 H   0  0  0  0  0  0  0  0  0  0  0  0
  -12.0560   -2.5310  -21.0550 H   0  0  0  0  0  0  0  0  0  0  0  0
  -10.3650   -3.9630  -23.4860 C   0  0  0  0  0  0  0  0  0  0  0  0
  -11.1600   -4.7800  -23.9090 O   0  0  0  0  0  0  0  0  0  0  0  0
   -8.9590   -3.9990  -23.9830 C   0  0  0  0  0  0  0  0  0  0  0  0
   -8.6680   -4.8460  -25.0530 C   0  0  0  0  0  0  0  0  0  0  0  0
   -7.3600   -5.0460  -25.4540 C   0  0  0  0  0  0  0  0  0  0  0  0
   -6.3570   -4.3640  -24.7710 C   0  0  0  0  0  0  0  0  0  0  0  0
   -5.0780   -4.5820  -25.1160 F   0  0  0  0  0  0  0  0  0  0  0  0
   -6.6230   -3.4980  -23.7300 C   0  0  0  0  0  0  0  0  0  0  0  0
   -7.9540   -3.2720  -23.3590 C   0  0  0  0  0  0  0  0  0  0  0  0
   -5.8120   -3.0210  -23.1900 H   0  0  0  0  0  0  0  0  0  0  0  0
   -7.0890   -5.7240  -26.2580 H   0  0  0  0  0  0  0  0  0  0  0  0
   -9.4940   -5.3420  -25.5540 H   0  0  0  0  0  0  0  0  0  0  0  0
   -9.3620   -3.4080  -20.9280 H   0  0  0  0  0  0  0  0  0  0  0  0
   -9.9730   -1.7650  -21.0090 H   0  0  0  0  0  0  0  0  0  0  0  0
   -8.8800    0.3600  -21.2090 H   0  0  0  0  0  0  0  0  0  0  0  0
   -7.4860    1.0690  -22.0380 H   0  0  0  0  0  0  0  0  0  0  0  0
   -7.4260   -0.7470  -23.6400 H   0  0  0  0  0  0  0  0  0  0  0  0
  -10.3930   -0.2450  -23.1250 H   0  0  0  0  0  0  0  0  0  0  0  0
   -9.7320   -0.9550  -24.6120 H   0  0  0  0  0  0  0  0  0  0  0  0
   -9.3360    0.7150  -24.1670 H   0  0  0  0  0  0  0  0  0  0  0  0
  1  2  1  0  0  0  0
  1 56  1  0  0  0  0
  1 57  1  0  0  0  0
  1 58  1  0  0  0  0
  2  3  1  0  0  0  0
  2 23  1  0  0  0  0
  2 55  1  6  0  0  0
  3  4  1  0  0  0  0
  3 53  1  0  0  0  0
  3 54  1  0  0  0  0
  4  5  1  0  0  0  0
  4 21  1  0  0  0  0
  5  6  2  0  0  0  0
  5 14  1  0  0  0  0
  6  7  1  0  0  0  0
  6 20  1  0  0  0  0
  7  8  2  0  0  0  0
  8  9  1  0  0  0  0
  8 19  1  0  0  0  0
  9 10  2  0  0  0  0
  9 14  1  0  0  0  0
 10 11  1  0  0  0  0
 10 18  1  0  0  0  0
 11 12  2  0  0  0  0
 11 17  1  0  0  0  0
 12 13  1  0  0  0  0
 12 16  1  0  0  0  0
 13 14  2  0  0  0  0
 13 15  1  0  0  0  0
 21 22  2  0  0  0  0
 23 21  1  1  0  0  0
 23 24  1  0  0  0  0
 23 47  1  0  0  0  0
 24 25  1  0  0  0  0
 24 51  1  0  0  0  0
 24 52  1  0  0  0  0
 25 26  1  0  0  0  0
 25 39  1  0  0  0  0
 26 27  1  0  0  0  0
 26 37  1  0  0  0  0
 26 38  1  0  0  0  0
 27 28  2  0  0  0  0
 27 33  1  0  0  0  0
 28 29  1  0  0  0  0
 28 36  1  0  0  0  0
 29 30  2  0  0  0  0
 29 31  1  0  0  0  0
 31 32  1  0  0  0  0
 31 35  1  0  0  0  0
 32 33  2  0  0  0  0
 32 34  1  0  0  0  0
 39 40  2  0  0  0  0
 39 41  1  0  0  0  0
 41 42  2  0  0  0  0
 41 47  1  0  0  0  0
 42 43  1  0  0  0  0
 42 50  1  0  0  0  0
 43 44  2  0  0  0  0
 43 49  1  0  0  0  0
 44 45  1  0  0  0  0
 44 46  1  0  0  0  0
 46 47  2  0  0  0  0
 46 48  1  0  0  0  0
M  END
>  <MODEL>
       1

$$$$
