tmp_first_model_14_41.pdb
 OpenBabel08282500413D

 67 71  0  0  1  0  0  0  0  0999 V2000
   -7.5640    3.0450  -21.8330 C   0  0  0  0  0  0  0  0  0  0  0  0
   -8.7130    2.5150  -22.5480 N   0  0  0  0  0  0  0  0  0  0  0  0
   -8.4570    1.6970  -23.6060 C   0  0  0  0  0  0  0  0  0  0  0  0
   -7.3210    1.4080  -23.9470 O   0  0  0  0  0  0  0  0  0  0  0  0
   -9.6700    1.1820  -24.3590 C   0  0  0  0  0  0  0  0  0  0  0  0
  -10.1090   -0.0850  -23.8340 N   0  0  0  0  0  0  0  0  0  0  0  0
   -9.2310   -1.2410  -23.8690 C   0  0  0  0  0  0  0  0  0  0  0  0
   -9.2960   -1.9930  -22.5140 C   0  0  2  0  0  0  0  0  0  0  0  0
   -8.6990   -1.0500  -21.4350 C   0  0  0  0  0  0  0  0  0  0  0  0
   -9.2350   -0.0780  -20.9430 O   0  0  0  0  0  0  0  0  0  0  0  0
   -7.4000   -1.4490  -21.1770 N   0  0  0  0  0  0  0  0  0  0  0  0
   -6.6130   -0.8290  -20.1780 C   0  0  0  0  0  0  0  0  0  0  0  0
   -6.9460   -1.0080  -18.8580 C   0  0  0  0  0  0  0  0  0  0  0  0
   -6.2540   -0.4820  -17.8250 N   0  0  0  0  0  0  0  0  0  0  0  0
   -5.1940    0.2350  -18.1040 C   0  0  0  0  0  0  0  0  0  0  0  0
   -4.7480    0.5140  -19.4240 C   0  0  0  0  0  0  0  0  0  0  0  0
   -3.6230    1.3450  -19.6630 C   0  0  0  0  0  0  0  0  0  0  0  0
   -3.2480    1.6500  -20.9440 C   0  0  0  0  0  0  0  0  0  0  0  0
   -3.9800    1.1390  -22.0360 C   0  0  0  0  0  0  0  0  0  0  0  0
   -5.0740    0.3260  -21.8300 C   0  0  0  0  0  0  0  0  0  0  0  0
   -5.4790   -0.0230  -20.5110 C   0  0  0  0  0  0  0  0  0  0  0  0
   -5.6650    0.0150  -22.6860 H   0  0  0  0  0  0  0  0  0  0  0  0
   -3.6850    1.4010  -23.0480 H   0  0  0  0  0  0  0  0  0  0  0  0
   -2.3980    2.3020  -21.1210 H   0  0  0  0  0  0  0  0  0  0  0  0
   -3.0890    1.7470  -18.8070 H   0  0  0  0  0  0  0  0  0  0  0  0
   -4.6310    0.6420  -17.2640 H   0  0  0  0  0  0  0  0  0  0  0  0
   -7.8070   -1.6210  -18.6020 H   0  0  0  0  0  0  0  0  0  0  0  0
   -6.9670   -2.5850  -21.9650 C   0  0  0  0  0  0  0  0  0  0  0  0
   -8.3040   -3.1880  -22.4410 C   0  0  2  0  0  0  0  0  0  0  0  0
   -8.1990   -3.9860  -23.7370 C   0  0  0  0  0  0  0  0  0  0  0  0
   -7.2580   -5.4870  -23.5170 S   0  0  0  0  0  0  0  0  0  0  0  0
   -5.8580   -5.1300  -23.3470 O   0  0  0  0  0  0  0  0  0  0  0  0
   -7.9270   -6.3060  -22.5150 O   0  0  0  0  0  0  0  0  0  0  0  0
   -7.4270   -6.2320  -24.9920 N   0  0  0  0  0  0  0  0  0  0  0  0
   -8.6730   -6.9410  -25.2550 C   0  0  0  0  0  0  0  0  0  0  0  0
   -9.5150   -6.2890  -25.5430 H   0  0  0  0  0  0  0  0  0  0  0  0
   -8.4930   -7.6410  -26.0760 H   0  0  0  0  0  0  0  0  0  0  0  0
   -8.9420   -7.5100  -24.3620 H   0  0  0  0  0  0  0  0  0  0  0  0
   -6.7540   -5.6420  -26.1430 C   0  0  0  0  0  0  0  0  0  0  0  0
   -7.2920   -4.7900  -26.5940 H   0  0  0  0  0  0  0  0  0  0  0  0
   -6.6590   -6.4190  -26.9070 H   0  0  0  0  0  0  0  0  0  0  0  0
   -5.7520   -5.3240  -25.8460 H   0  0  0  0  0  0  0  0  0  0  0  0
   -9.1960   -4.2690  -24.0920 H   0  0  0  0  0  0  0  0  0  0  0  0
   -7.7030   -3.3980  -24.5180 H   0  0  0  0  0  0  0  0  0  0  0  0
   -8.6380   -3.8670  -21.6480 H   0  0  0  0  0  0  0  0  0  0  0  0
   -6.3430   -2.2760  -22.8180 H   0  0  0  0  0  0  0  0  0  0  0  0
   -6.3870   -3.2960  -21.3690 H   0  0  0  0  0  0  0  0  0  0  0  0
  -10.7690   -2.3200  -22.2860 C   0  0  0  0  0  0  0  0  0  0  0  0
  -11.2040   -3.4290  -21.5530 C   0  0  0  0  0  0  0  0  0  0  0  0
  -12.5300   -3.5090  -21.1620 C   0  0  0  0  0  0  0  0  0  0  0  0
  -12.8900   -4.4190  -20.2430 F   0  0  0  0  0  0  0  0  0  0  0  0
  -13.5140   -2.6430  -21.6120 C   0  0  0  0  0  0  0  0  0  0  0  0
  -13.1100   -1.6050  -22.4190 C   0  0  0  0  0  0  0  0  0  0  0  0
  -11.7620   -1.4290  -22.7220 C   0  0  0  0  0  0  0  0  0  0  0  0
  -11.4150   -0.1880  -23.4630 C   0  0  0  0  0  0  0  0  0  0  0  0
  -12.2450    0.6810  -23.6920 O   0  0  0  0  0  0  0  0  0  0  0  0
  -13.8120   -0.8800  -22.8110 H   0  0  0  0  0  0  0  0  0  0  0  0
  -14.5450   -2.7830  -21.3070 H   0  0  0  0  0  0  0  0  0  0  0  0
  -10.5270   -4.2040  -21.2180 H   0  0  0  0  0  0  0  0  0  0  0  0
   -9.5440   -1.9160  -24.6770 H   0  0  0  0  0  0  0  0  0  0  0  0
   -8.2130   -0.8960  -24.0740 H   0  0  0  0  0  0  0  0  0  0  0  0
   -9.4150    1.0880  -25.4190 H   0  0  0  0  0  0  0  0  0  0  0  0
  -10.5100    1.8640  -24.2300 H   0  0  0  0  0  0  0  0  0  0  0  0
   -9.5690    2.4120  -22.0060 H   0  0  0  0  0  0  0  0  0  0  0  0
   -7.8870    3.6990  -21.0250 H   0  0  0  0  0  0  0  0  0  0  0  0
   -6.9450    2.2300  -21.4350 H   0  0  0  0  0  0  0  0  0  0  0  0
   -6.9490    3.6450  -22.5130 H   0  0  0  0  0  0  0  0  0  0  0  0
  1  2  1  0  0  0  0
  1 65  1  0  0  0  0
  1 66  1  0  0  0  0
  1 67  1  0  0  0  0
  2  3  1  0  0  0  0
  2 64  1  0  0  0  0
  3  4  2  0  0  0  0
  3  5  1  0  0  0  0
  5  6  1  0  0  0  0
  5 62  1  0  0  0  0
  5 63  1  0  0  0  0
  6  7  1  0  0  0  0
  6 55  1  0  0  0  0
  7  8  1  0  0  0  0
  7 60  1  0  0  0  0
  7 61  1  0  0  0  0
  8  9  1  1  0  0  0
  8 29  1  0  0  0  0
  8 48  1  0  0  0  0
  9 10  2  0  0  0  0
  9 11  1  0  0  0  0
 11 12  1  0  0  0  0
 11 28  1  0  0  0  0
 12 13  2  0  0  0  0
 12 21  1  0  0  0  0
 13 14  1  0  0  0  0
 13 27  1  0  0  0  0
 14 15  2  0  0  0  0
 15 16  1  0  0  0  0
 15 26  1  0  0  0  0
 16 17  2  0  0  0  0
 16 21  1  0  0  0  0
 17 18  1  0  0  0  0
 17 25  1  0  0  0  0
 18 19  2  0  0  0  0
 18 24  1  0  0  0  0
 19 20  1  0  0  0  0
 19 23  1  0  0  0  0
 20 21  2  0  0  0  0
 20 22  1  0  0  0  0
 28 29  1  0  0  0  0
 28 46  1  0  0  0  0
 28 47  1  0  0  0  0
 29 30  1  0  0  0  0
 29 45  1  1  0  0  0
 30 31  1  0  0  0  0
 30 43  1  0  0  0  0
 30 44  1  0  0  0  0
 31 32  2  0  0  0  0
 31 33  2  0  0  0  0
 31 34  1  0  0  0  0
 34 35  1  0  0  0  0
 34 39  1  0  0  0  0
 35 36  1  0  0  0  0
 35 37  1  0  0  0  0
 35 38  1  0  0  0  0
 39 40  1  0  0  0  0
 39 41  1  0  0  0  0
 39 42  1  0  0  0  0
 48 49  2  0  0  0  0
 48 54  1  0  0  0  0
 49 50  1  0  0  0  0
 49 59  1  0  0  0  0
 50 51  1  0  0  0  0
 50 52  2  0  0  0  0
 52 53  1  0  0  0  0
 52 58  1  0  0  0  0
 53 54  2  0  0  0  0
 53 57  1  0  0  0  0
 54 55  1  0  0  0  0
 55 56  2  0  0  0  0
M  END
>  <MODEL>
       1

$$$$
