tmp_first_model_6_55.pdb
 OpenBabel08272519583D

 61 66  0  0  1  0  0  0  0  0999 V2000
   -9.1700   -4.6130  -25.7880 C   0  0  0  0  0  0  0  0  0  0  0  0
   -9.3490   -3.9720  -24.5490 O   0  0  0  0  0  0  0  0  0  0  0  0
   -8.1290   -3.6230  -23.9470 C   0  0  0  0  0  0  0  0  0  0  0  0
   -8.4090   -2.8720  -22.6550 C   0  0  1  0  0  0  0  0  0  0  0  0
   -7.0980   -2.4620  -21.9630 C   0  0  0  0  0  0  0  0  0  0  0  0
   -7.4690   -1.2800  -21.2150 N   0  0  0  0  0  0  0  0  0  0  0  0
   -6.6710   -0.7460  -20.1740 C   0  0  0  0  0  0  0  0  0  0  0  0
   -6.9700   -1.0280  -18.8650 C   0  0  0  0  0  0  0  0  0  0  0  0
   -6.2510   -0.5790  -17.8080 N   0  0  0  0  0  0  0  0  0  0  0  0
   -5.2150    0.1870  -18.0550 C   0  0  0  0  0  0  0  0  0  0  0  0
   -4.7830    0.5470  -19.3640 C   0  0  0  0  0  0  0  0  0  0  0  0
   -3.6690    1.3970  -19.5920 C   0  0  0  0  0  0  0  0  0  0  0  0
   -3.3000    1.7340  -20.8670 C   0  0  0  0  0  0  0  0  0  0  0  0
   -4.0100    1.2140  -21.9700 C   0  0  0  0  0  0  0  0  0  0  0  0
   -5.0700    0.3600  -21.7690 C   0  0  0  0  0  0  0  0  0  0  0  0
   -5.5120    0.0390  -20.4620 C   0  0  0  0  0  0  0  0  0  0  0  0
   -5.6150   -0.0310  -22.6220 H   0  0  0  0  0  0  0  0  0  0  0  0
   -3.7370    1.5160  -22.9780 H   0  0  0  0  0  0  0  0  0  0  0  0
   -2.4680    2.4110  -21.0360 H   0  0  0  0  0  0  0  0  0  0  0  0
   -3.1370    1.7910  -18.7320 H   0  0  0  0  0  0  0  0  0  0  0  0
   -4.6510    0.5620  -17.2000 H   0  0  0  0  0  0  0  0  0  0  0  0
   -7.8240   -1.6600  -18.6290 H   0  0  0  0  0  0  0  0  0  0  0  0
   -8.6920   -0.7470  -21.5680 C   0  0  0  0  0  0  0  0  0  0  0  0
   -9.2190    0.1970  -21.0190 O   0  0  0  0  0  0  0  0  0  0  0  0
   -9.2450   -1.5570  -22.7720 C   0  0  1  0  0  0  0  0  0  0  0  0
   -8.9320   -0.8030  -24.0920 C   0  0  0  0  0  0  0  0  0  0  0  0
   -9.7130    0.4130  -24.2460 N   0  0  0  0  0  0  0  0  0  0  0  0
   -9.0710    1.6290  -24.7280 C   0  0  0  0  0  0  0  0  0  0  0  0
   -8.1660    2.2360  -23.7110 C   0  0  0  0  0  0  0  0  0  0  0  0
   -6.8160    2.2630  -23.5840 C   0  0  0  0  0  0  0  0  0  0  0  0
   -6.5310    3.0480  -22.4820 N   0  3  0  0  0  0  0  0  0  0  0  0
   -7.6740    3.4600  -21.9330 C   0  0  0  0  0  0  0  0  0  0  0  0
   -8.6820    2.9660  -22.6570 N   0  0  0  0  0  0  0  0  0  0  0  0
   -9.6470    2.9450  -22.3420 H   0  0  0  0  0  0  0  0  0  0  0  0
   -7.7700    4.1390  -21.1010 H   0  0  0  0  0  0  0  0  0  0  0  0
   -5.6100    3.1480  -22.0750 H   0  0  0  0  0  0  0  0  0  0  0  0
   -6.0440    1.7300  -24.1260 H   0  0  0  0  0  0  0  0  0  0  0  0
   -8.5230    1.4370  -25.6570 H   0  0  0  0  0  0  0  0  0  0  0  0
   -9.8920    2.3170  -24.9630 H   0  0  0  0  0  0  0  0  0  0  0  0
  -11.0700    0.3960  -24.0950 C   0  0  0  0  0  0  0  0  0  0  0  0
  -11.7960    1.2970  -24.5010 O   0  0  0  0  0  0  0  0  0  0  0  0
  -11.6080   -0.7830  -23.3450 C   0  0  0  0  0  0  0  0  0  0  0  0
  -12.9970   -0.8490  -23.2230 C   0  0  0  0  0  0  0  0  0  0  0  0
  -13.5590   -1.7250  -22.3240 C   0  0  0  0  0  0  0  0  0  0  0  0
  -12.7120   -2.5430  -21.5850 C   0  0  0  0  0  0  0  0  0  0  0  0
  -13.4360   -3.3740  -20.2530 Cl  0  0  0  0  0  0  0  0  0  0  0  0
  -11.3490   -2.6150  -21.8150 C   0  0  0  0  0  0  0  0  0  0  0  0
  -10.7580   -1.6980  -22.6930 C   0  0  0  0  0  0  0  0  0  0  0  0
  -10.7580   -3.3750  -21.3080 H   0  0  0  0  0  0  0  0  0  0  0  0
  -14.6250   -1.7630  -22.1310 H   0  0  0  0  0  0  0  0  0  0  0  0
  -13.6130   -0.1620  -23.7870 H   0  0  0  0  0  0  0  0  0  0  0  0
   -9.1640   -1.4680  -24.9280 H   0  0  0  0  0  0  0  0  0  0  0  0
   -7.8660   -0.5600  -24.1430 H   0  0  0  0  0  0  0  0  0  0  0  0
   -6.3110   -2.2450  -22.7030 H   0  0  0  0  0  0  0  0  0  0  0  0
   -6.7070   -3.2370  -21.2930 H   0  0  0  0  0  0  0  0  0  0  0  0
   -8.9520   -3.5470  -21.9920 H   0  0  0  0  0  0  0  0  0  0  0  0
   -7.5280   -2.9870  -24.6210 H   0  0  0  0  0  0  0  0  0  0  0  0
   -7.5250   -4.5240  -23.7420 H   0  0  0  0  0  0  0  0  0  0  0  0
   -8.5410   -5.5120  -25.6940 H   0  0  0  0  0  0  0  0  0  0  0  0
  -10.1570   -4.9080  -26.1470 H   0  0  0  0  0  0  0  0  0  0  0  0
   -8.7080   -3.9460  -26.5340 H   0  0  0  0  0  0  0  0  0  0  0  0
  1  2  1  0  0  0  0
  1 59  1  0  0  0  0
  1 60  1  0  0  0  0
  1 61  1  0  0  0  0
  2  3  1  0  0  0  0
  3  4  1  0  0  0  0
  3 57  1  0  0  0  0
  3 58  1  0  0  0  0
  4  5  1  0  0  0  0
  4 25  1  0  0  0  0
  4 56  1  1  0  0  0
  5  6  1  0  0  0  0
  5 54  1  0  0  0  0
  5 55  1  0  0  0  0
  6  7  1  0  0  0  0
  6 23  1  0  0  0  0
  7  8  2  0  0  0  0
  7 16  1  0  0  0  0
  8  9  1  0  0  0  0
  8 22  1  0  0  0  0
  9 10  2  0  0  0  0
 10 11  1  0  0  0  0
 10 21  1  0  0  0  0
 11 12  2  0  0  0  0
 11 16  1  0  0  0  0
 12 13  1  0  0  0  0
 12 20  1  0  0  0  0
 13 14  2  0  0  0  0
 13 19  1  0  0  0  0
 14 15  1  0  0  0  0
 14 18  1  0  0  0  0
 15 16  2  0  0  0  0
 15 17  1  0  0  0  0
 23 24  2  0  0  0  0
 25 23  1  1  0  0  0
 25 26  1  0  0  0  0
 25 48  1  0  0  0  0
 26 27  1  0  0  0  0
 26 52  1  0  0  0  0
 26 53  1  0  0  0  0
 27 28  1  0  0  0  0
 27 40  1  0  0  0  0
 28 29  1  0  0  0  0
 28 38  1  0  0  0  0
 28 39  1  0  0  0  0
 29 30  2  0  0  0  0
 29 33  1  0  0  0  0
 30 31  1  0  0  0  0
 30 37  1  0  0  0  0
 31 32  2  0  0  0  0
 31 36  1  0  0  0  0
 32 33  1  0  0  0  0
 32 35  1  0  0  0  0
 33 34  1  0  0  0  0
 40 41  2  0  0  0  0
 40 42  1  0  0  0  0
 42 43  2  0  0  0  0
 42 48  1  0  0  0  0
 43 44  1  0  0  0  0
 43 51  1  0  0  0  0
 44 45  2  0  0  0  0
 44 50  1  0  0  0  0
 45 46  1  0  0  0  0
 45 47  1  0  0  0  0
 47 48  2  0  0  0  0
 47 49  1  0  0  0  0
M  CHG  1  31   1
M  END
>  <MODEL>
       1

$$$$
