tmp_first_model_15_90.pdb
 OpenBabel08282501153D

 64 68  0  0  1  0  0  0  0  0999 V2000
   -7.6110    3.1490  -21.8970 C   0  0  0  0  0  0  0  0  0  0  0  0
   -8.7420    2.6970  -22.6930 N   0  0  0  0  0  0  0  0  0  0  0  0
   -8.4040    1.8900  -23.7460 C   0  0  0  0  0  0  0  0  0  0  0  0
   -7.2350    1.6600  -24.0210 O   0  0  0  0  0  0  0  0  0  0  0  0
   -9.5410    1.2870  -24.5680 C   0  0  0  0  0  0  0  0  0  0  0  0
  -10.0200    0.0690  -23.9520 N   0  0  0  0  0  0  0  0  0  0  0  0
   -9.1500   -1.0990  -23.9340 C   0  0  0  0  0  0  0  0  0  0  0  0
   -9.2690   -1.8580  -22.5930 C   0  0  2  0  0  0  0  0  0  0  0  0
   -8.6800   -0.9770  -21.4670 C   0  0  0  0  0  0  0  0  0  0  0  0
   -9.2110   -0.0190  -20.9390 O   0  0  0  0  0  0  0  0  0  0  0  0
   -7.4080   -1.4260  -21.1830 N   0  0  0  0  0  0  0  0  0  0  0  0
   -6.6190   -0.8300  -20.1700 C   0  0  0  0  0  0  0  0  0  0  0  0
   -6.9300   -1.0510  -18.8500 C   0  0  0  0  0  0  0  0  0  0  0  0
   -6.2300   -0.5560  -17.8020 N   0  0  0  0  0  0  0  0  0  0  0  0
   -5.1910    0.1990  -18.0750 C   0  0  0  0  0  0  0  0  0  0  0  0
   -4.7590    0.5150  -19.3950 C   0  0  0  0  0  0  0  0  0  0  0  0
   -3.6380    1.3540  -19.6350 C   0  0  0  0  0  0  0  0  0  0  0  0
   -3.2590    1.6540  -20.9150 C   0  0  0  0  0  0  0  0  0  0  0  0
   -3.9830    1.1430  -22.0130 C   0  0  0  0  0  0  0  0  0  0  0  0
   -5.0800    0.3360  -21.8090 C   0  0  0  0  0  0  0  0  0  0  0  0
   -5.4890   -0.0100  -20.4900 C   0  0  0  0  0  0  0  0  0  0  0  0
   -5.6530   -0.0030  -22.6680 H   0  0  0  0  0  0  0  0  0  0  0  0
   -3.6740    1.3900  -23.0250 H   0  0  0  0  0  0  0  0  0  0  0  0
   -2.4020    2.2970  -21.0930 H   0  0  0  0  0  0  0  0  0  0  0  0
   -3.1050    1.7580  -18.7790 H   0  0  0  0  0  0  0  0  0  0  0  0
   -4.6230    0.6000  -17.2340 H   0  0  0  0  0  0  0  0  0  0  0  0
   -7.7900   -1.6690  -18.6020 H   0  0  0  0  0  0  0  0  0  0  0  0
   -6.9960   -2.5720  -21.9690 C   0  0  0  0  0  0  0  0  0  0  0  0
   -8.3300   -3.0940  -22.5330 C   0  0  2  0  0  0  0  0  0  0  0  0
   -8.1910   -3.9020  -23.8220 C   0  0  0  0  0  0  0  0  0  0  0  0
   -7.3960   -5.4730  -23.5040 S   0  0  0  0  0  0  0  0  0  0  0  0
   -8.2440   -6.2380  -22.5910 O   0  0  0  0  0  0  0  0  0  0  0  0
   -5.9970   -5.2490  -23.1680 O   0  0  0  0  0  0  0  0  0  0  0  0
   -7.3820   -6.1370  -25.0360 N   0  0  0  0  0  0  0  0  0  0  0  0
   -8.6110   -6.6620  -25.6240 C   0  0  0  0  0  0  0  0  0  0  0  0
   -9.2640   -5.8430  -25.9390 H   0  0  0  0  0  0  0  0  0  0  0  0
   -9.1600   -7.3180  -24.9430 H   0  0  0  0  0  0  0  0  0  0  0  0
   -8.3510   -7.2250  -26.5250 H   0  0  0  0  0  0  0  0  0  0  0  0
   -6.5980   -6.7750  -25.0870 H   0  0  0  0  0  0  0  0  0  0  0  0
   -7.5920   -3.3870  -24.5780 H   0  0  0  0  0  0  0  0  0  0  0  0
   -9.1720   -4.1120  -24.2580 H   0  0  0  0  0  0  0  0  0  0  0  0
   -8.7290   -3.7770  -21.7840 H   0  0  0  0  0  0  0  0  0  0  0  0
   -6.4970   -3.3150  -21.3430 H   0  0  0  0  0  0  0  0  0  0  0  0
   -6.3010   -2.2860  -22.7710 H   0  0  0  0  0  0  0  0  0  0  0  0
  -10.7500   -2.1270  -22.3770 C   0  0  0  0  0  0  0  0  0  0  0  0
  -11.2070   -3.2190  -21.6380 C   0  0  0  0  0  0  0  0  0  0  0  0
  -12.5520   -3.3280  -21.3410 C   0  0  0  0  0  0  0  0  0  0  0  0
  -12.9470   -4.3270  -20.5370 F   0  0  0  0  0  0  0  0  0  0  0  0
  -13.5140   -2.4410  -21.8010 C   0  0  0  0  0  0  0  0  0  0  0  0
  -13.0760   -1.3860  -22.5710 C   0  0  0  0  0  0  0  0  0  0  0  0
  -11.7190   -1.2200  -22.8370 C   0  0  0  0  0  0  0  0  0  0  0  0
  -11.3340    0.0050  -23.5940 C   0  0  0  0  0  0  0  0  0  0  0  0
  -12.1310    0.8950  -23.8570 O   0  0  0  0  0  0  0  0  0  0  0  0
  -13.7640   -0.6450  -22.9590 H   0  0  0  0  0  0  0  0  0  0  0  0
  -14.5560   -2.5860  -21.5360 H   0  0  0  0  0  0  0  0  0  0  0  0
  -10.5430   -3.9780  -21.2440 H   0  0  0  0  0  0  0  0  0  0  0  0
   -9.4200   -1.7790  -24.7510 H   0  0  0  0  0  0  0  0  0  0  0  0
   -8.1240   -0.7620  -24.1010 H   0  0  0  0  0  0  0  0  0  0  0  0
  -10.3980    1.9600  -24.6870 H   0  0  0  0  0  0  0  0  0  0  0  0
   -9.1280    1.0550  -25.5540 H   0  0  0  0  0  0  0  0  0  0  0  0
   -9.6050    2.5200  -22.1850 H   0  0  0  0  0  0  0  0  0  0  0  0
   -7.9180    3.9600  -21.2330 H   0  0  0  0  0  0  0  0  0  0  0  0
   -7.1380    2.3170  -21.3430 H   0  0  0  0  0  0  0  0  0  0  0  0
   -6.8740    3.5490  -22.5960 H   0  0  0  0  0  0  0  0  0  0  0  0
  1  2  1  0  0  0  0
  1 62  1  0  0  0  0
  1 63  1  0  0  0  0
  1 64  1  0  0  0  0
  2  3  1  0  0  0  0
  2 61  1  0  0  0  0
  3  4  2  0  0  0  0
  3  5  1  0  0  0  0
  5  6  1  0  0  0  0
  5 59  1  0  0  0  0
  5 60  1  0  0  0  0
  6  7  1  0  0  0  0
  6 52  1  0  0  0  0
  7  8  1  0  0  0  0
  7 57  1  0  0  0  0
  7 58  1  0  0  0  0
  8  9  1  1  0  0  0
  8 29  1  0  0  0  0
  8 45  1  0  0  0  0
  9 10  2  0  0  0  0
  9 11  1  0  0  0  0
 11 12  1  0  0  0  0
 11 28  1  0  0  0  0
 12 13  2  0  0  0  0
 12 21  1  0  0  0  0
 13 14  1  0  0  0  0
 13 27  1  0  0  0  0
 14 15  2  0  0  0  0
 15 16  1  0  0  0  0
 15 26  1  0  0  0  0
 16 17  2  0  0  0  0
 16 21  1  0  0  0  0
 17 18  1  0  0  0  0
 17 25  1  0  0  0  0
 18 19  2  0  0  0  0
 18 24  1  0  0  0  0
 19 20  1  0  0  0  0
 19 23  1  0  0  0  0
 20 21  2  0  0  0  0
 20 22  1  0  0  0  0
 28 29  1  0  0  0  0
 28 43  1  0  0  0  0
 28 44  1  0  0  0  0
 29 30  1  0  0  0  0
 29 42  1  1  0  0  0
 30 31  1  0  0  0  0
 30 40  1  0  0  0  0
 30 41  1  0  0  0  0
 31 32  2  0  0  0  0
 31 33  2  0  0  0  0
 31 34  1  0  0  0  0
 34 35  1  0  0  0  0
 34 39  1  0  0  0  0
 35 36  1  0  0  0  0
 35 37  1  0  0  0  0
 35 38  1  0  0  0  0
 45 46  2  0  0  0  0
 45 51  1  0  0  0  0
 46 47  1  0  0  0  0
 46 56  1  0  0  0  0
 47 48  1  0  0  0  0
 47 49  2  0  0  0  0
 49 50  1  0  0  0  0
 49 55  1  0  0  0  0
 50 51  2  0  0  0  0
 50 54  1  0  0  0  0
 51 52  1  0  0  0  0
 52 53  2  0  0  0  0
M  END
>  <MODEL>
       1

$$$$
