tmp_first_model_6_18.pdb
 OpenBabel08272519583D

 56 61  0  0  1  0  0  0  0  0999 V2000
   -7.8960   -3.5670  -24.1200 C   0  0  0  0  0  0  0  0  0  0  0  0
   -8.2880   -2.8410  -22.8260 C   0  0  1  0  0  0  0  0  0  0  0  0
   -7.0700   -2.5940  -21.9080 C   0  0  0  0  0  0  0  0  0  0  0  0
   -7.4010   -1.3730  -21.2020 N   0  0  0  0  0  0  0  0  0  0  0  0
   -6.6010   -0.8090  -20.1700 C   0  0  0  0  0  0  0  0  0  0  0  0
   -6.9070   -1.0490  -18.8580 C   0  0  0  0  0  0  0  0  0  0  0  0
   -6.2010   -0.5600  -17.8080 N   0  0  0  0  0  0  0  0  0  0  0  0
   -5.1720    0.2050  -18.0750 C   0  0  0  0  0  0  0  0  0  0  0  0
   -4.7400    0.5440  -19.3900 C   0  0  0  0  0  0  0  0  0  0  0  0
   -3.6130    1.3790  -19.6310 C   0  0  0  0  0  0  0  0  0  0  0  0
   -3.2290    1.6770  -20.9080 C   0  0  0  0  0  0  0  0  0  0  0  0
   -3.9570    1.1570  -21.9980 C   0  0  0  0  0  0  0  0  0  0  0  0
   -5.0400    0.3320  -21.7920 C   0  0  0  0  0  0  0  0  0  0  0  0
   -5.4720    0.0140  -20.4780 C   0  0  0  0  0  0  0  0  0  0  0  0
   -5.5750   -0.0640  -22.6510 H   0  0  0  0  0  0  0  0  0  0  0  0
   -3.6510    1.3840  -23.0150 H   0  0  0  0  0  0  0  0  0  0  0  0
   -2.3610    2.3070  -21.0920 H   0  0  0  0  0  0  0  0  0  0  0  0
   -3.0730    1.7700  -18.7720 H   0  0  0  0  0  0  0  0  0  0  0  0
   -4.6230    0.6100  -17.2250 H   0  0  0  0  0  0  0  0  0  0  0  0
   -7.7650   -1.6690  -18.6030 H   0  0  0  0  0  0  0  0  0  0  0  0
   -8.4590   -0.6720  -21.7320 C   0  0  0  0  0  0  0  0  0  0  0  0
   -8.8800    0.3620  -21.2650 O   0  0  0  0  0  0  0  0  0  0  0  0
   -8.9970   -1.4530  -22.9690 C   0  0  1  0  0  0  0  0  0  0  0  0
   -8.5720   -0.7560  -24.2850 C   0  0  0  0  0  0  0  0  0  0  0  0
   -9.2840    0.4830  -24.5170 N   0  0  0  0  0  0  0  0  0  0  0  0
   -8.5260    1.6880  -24.8190 C   0  0  0  0  0  0  0  0  0  0  0  0
   -8.1650    2.4940  -23.5960 C   0  0  0  0  0  0  0  0  0  0  0  0
   -8.9560    3.4640  -22.9450 C   0  0  0  0  0  0  0  0  0  0  0  0
   -8.1310    3.9780  -21.9670 C   0  0  0  0  0  0  0  0  0  0  0  0
   -6.9650    3.3070  -22.0520 N   0  0  0  0  0  0  0  0  0  0  0  0
   -6.9660    2.3780  -23.0230 N   0  0  0  0  0  0  0  0  0  0  0  0
   -6.2290    3.3360  -21.3670 H   0  0  0  0  0  0  0  0  0  0  0  0
   -8.2750    4.7200  -21.1940 H   0  0  0  0  0  0  0  0  0  0  0  0
  -10.0110    3.6240  -23.1180 H   0  0  0  0  0  0  0  0  0  0  0  0
   -7.6040    1.3930  -25.3350 H   0  0  0  0  0  0  0  0  0  0  0  0
   -9.1430    2.2830  -25.5010 H   0  0  0  0  0  0  0  0  0  0  0  0
  -10.6380    0.5870  -24.3730 C   0  0  0  0  0  0  0  0  0  0  0  0
  -11.2760    1.5490  -24.7850 O   0  0  0  0  0  0  0  0  0  0  0  0
  -11.2870   -0.5380  -23.6260 C   0  0  0  0  0  0  0  0  0  0  0  0
  -12.6790   -0.5550  -23.5620 C   0  0  0  0  0  0  0  0  0  0  0  0
  -13.3240   -1.4650  -22.7510 C   0  0  0  0  0  0  0  0  0  0  0  0
  -12.5530   -2.3290  -21.9820 C   0  0  0  0  0  0  0  0  0  0  0  0
  -13.1790   -3.1550  -21.1300 F   0  0  0  0  0  0  0  0  0  0  0  0
  -11.1770   -2.3490  -22.0470 C   0  0  0  0  0  0  0  0  0  0  0  0
  -10.5170   -1.4770  -22.9210 C   0  0  0  0  0  0  0  0  0  0  0  0
  -10.6440   -3.0210  -21.3850 H   0  0  0  0  0  0  0  0  0  0  0  0
  -14.4010   -1.5030  -22.6650 H   0  0  0  0  0  0  0  0  0  0  0  0
  -13.2160    0.1910  -24.1410 H   0  0  0  0  0  0  0  0  0  0  0  0
   -7.5050   -0.5100  -24.2250 H   0  0  0  0  0  0  0  0  0  0  0  0
   -8.7520   -1.4430  -25.1250 H   0  0  0  0  0  0  0  0  0  0  0  0
   -6.9050   -3.4140  -21.1990 H   0  0  0  0  0  0  0  0  0  0  0  0
   -6.1460   -2.4730  -22.4940 H   0  0  0  0  0  0  0  0  0  0  0  0
   -8.9900   -3.4770  -22.2850 H   0  0  0  0  0  0  0  0  0  0  0  0
   -8.7510   -3.7180  -24.7890 H   0  0  0  0  0  0  0  0  0  0  0  0
   -7.1330   -3.0060  -24.6740 H   0  0  0  0  0  0  0  0  0  0  0  0
   -7.4720   -4.5530  -23.8990 H   0  0  0  0  0  0  0  0  0  0  0  0
  1  2  1  0  0  0  0
  1 54  1  0  0  0  0
  1 55  1  0  0  0  0
  1 56  1  0  0  0  0
  2  3  1  0  0  0  0
  2 23  1  0  0  0  0
  2 53  1  1  0  0  0
  3  4  1  0  0  0  0
  3 51  1  0  0  0  0
  3 52  1  0  0  0  0
  4  5  1  0  0  0  0
  4 21  1  0  0  0  0
  5  6  2  0  0  0  0
  5 14  1  0  0  0  0
  6  7  1  0  0  0  0
  6 20  1  0  0  0  0
  7  8  2  0  0  0  0
  8  9  1  0  0  0  0
  8 19  1  0  0  0  0
  9 10  2  0  0  0  0
  9 14  1  0  0  0  0
 10 11  1  0  0  0  0
 10 18  1  0  0  0  0
 11 12  2  0  0  0  0
 11 17  1  0  0  0  0
 12 13  1  0  0  0  0
 12 16  1  0  0  0  0
 13 14  2  0  0  0  0
 13 15  1  0  0  0  0
 21 22  2  0  0  0  0
 23 21  1  1  0  0  0
 23 24  1  0  0  0  0
 23 45  1  0  0  0  0
 24 25  1  0  0  0  0
 24 49  1  0  0  0  0
 24 50  1  0  0  0  0
 25 26  1  0  0  0  0
 25 37  1  0  0  0  0
 26 27  1  0  0  0  0
 26 35  1  0  0  0  0
 26 36  1  0  0  0  0
 27 28  1  0  0  0  0
 27 31  2  0  0  0  0
 28 29  2  0  0  0  0
 28 34  1  0  0  0  0
 29 30  1  0  0  0  0
 29 33  1  0  0  0  0
 30 31  1  0  0  0  0
 30 32  1  0  0  0  0
 37 38  2  0  0  0  0
 37 39  1  0  0  0  0
 39 40  2  0  0  0  0
 39 45  1  0  0  0  0
 40 41  1  0  0  0  0
 40 48  1  0  0  0  0
 41 42  2  0  0  0  0
 41 47  1  0  0  0  0
 42 43  1  0  0  0  0
 42 44  1  0  0  0  0
 44 45  2  0  0  0  0
 44 46  1  0  0  0  0
M  END
>  <MODEL>
       1

$$$$
