tmp_first_model_5_72.pdb
 OpenBabel08272519233D

 41 44  0  0  0  0  0  0  0  0999 V2000
   -5.8260   -3.3780  -21.3170 O   0  0  0  0  0  0  0  0  0  0  0  0
   -6.6220   -2.7220  -21.9710 C   0  0  0  0  0  0  0  0  0  0  0  0
   -7.3870   -1.5680  -21.3120 C   0  0  0  0  0  0  0  0  0  0  0  0
   -6.5490   -0.9890  -20.2220 C   0  0  0  0  0  0  0  0  0  0  0  0
   -6.8270   -1.1720  -18.8940 C   0  0  0  0  0  0  0  0  0  0  0  0
   -5.9840   -0.8650  -17.8750 N   0  0  0  0  0  0  0  0  0  0  0  0
   -4.8250   -0.3410  -18.2100 C   0  0  0  0  0  0  0  0  0  0  0  0
   -4.4460   -0.0250  -19.5410 C   0  0  0  0  0  0  0  0  0  0  0  0
   -3.2750    0.7180  -19.8200 C   0  0  0  0  0  0  0  0  0  0  0  0
   -3.1600    1.3940  -21.0010 C   0  0  0  0  0  0  0  0  0  0  0  0
   -4.0770    1.1370  -22.0610 C   0  0  0  0  0  0  0  0  0  0  0  0
   -5.1020    0.2460  -21.8730 C   0  0  0  0  0  0  0  0  0  0  0  0
   -5.3680   -0.2790  -20.5720 C   0  0  0  0  0  0  0  0  0  0  0  0
   -5.6820   -0.0860  -22.7310 H   0  0  0  0  0  0  0  0  0  0  0  0
   -3.9250    1.6010  -23.0360 H   0  0  0  0  0  0  0  0  0  0  0  0
   -2.3000    2.0270  -21.1850 H   0  0  0  0  0  0  0  0  0  0  0  0
   -2.5620    0.8370  -19.0100 H   0  0  0  0  0  0  0  0  0  0  0  0
   -4.1410   -0.0810  -17.4020 H   0  0  0  0  0  0  0  0  0  0  0  0
   -7.7890   -1.6020  -18.6070 H   0  0  0  0  0  0  0  0  0  0  0  0
   -8.3340   -1.9510  -20.9100 H   0  0  0  0  0  0  0  0  0  0  0  0
   -7.6200   -0.7980  -22.0500 H   0  0  0  0  0  0  0  0  0  0  0  0
   -6.8440   -2.9900  -23.3020 N   0  0  0  0  0  0  0  0  0  0  0  0
   -5.7920   -3.7560  -23.9600 C   0  0  0  0  0  0  0  0  0  0  0  0
   -4.6800   -2.8730  -24.5310 C   0  0  0  0  0  0  0  0  0  0  0  0
   -5.1230   -2.0070  -25.7220 C   0  0  0  0  0  0  0  0  0  0  0  0
   -6.0470   -0.8710  -25.3540 C   0  0  0  0  0  0  0  0  0  0  0  0
   -5.7020    0.7600  -25.8280 S   0  0  0  0  0  0  0  0  0  0  0  0
   -7.1760    1.3410  -25.1580 C   0  0  0  0  0  0  0  0  0  0  0  0
   -7.8900    0.3320  -24.5870 C   0  0  0  0  0  0  0  0  0  0  0  0
   -7.2400   -0.9400  -24.6810 C   0  0  0  0  0  0  0  0  0  0  0  0
   -7.7800   -2.2450  -24.1360 C   0  0  0  0  0  0  0  0  0  0  0  0
   -8.7000   -2.0610  -23.5690 H   0  0  0  0  0  0  0  0  0  0  0  0
   -8.0610   -2.9000  -24.9710 H   0  0  0  0  0  0  0  0  0  0  0  0
   -8.8540    0.4920  -24.1100 H   0  0  0  0  0  0  0  0  0  0  0  0
   -7.4400    2.3890  -25.2300 H   0  0  0  0  0  0  0  0  0  0  0  0
   -5.6360   -2.6510  -26.4580 H   0  0  0  0  0  0  0  0  0  0  0  0
   -4.2410   -1.5950  -26.2230 H   0  0  0  0  0  0  0  0  0  0  0  0
   -3.8590   -3.5200  -24.8600 H   0  0  0  0  0  0  0  0  0  0  0  0
   -4.2730   -2.2320  -23.7330 H   0  0  0  0  0  0  0  0  0  0  0  0
   -6.2460   -4.3630  -24.7540 H   0  0  0  0  0  0  0  0  0  0  0  0
   -5.3740   -4.4200  -23.2000 H   0  0  0  0  0  0  0  0  0  0  0  0
  1  2  2  0  0  0  0
  2  3  1  0  0  0  0
  2 22  1  0  0  0  0
  3  4  1  0  0  0  0
  3 20  1  0  0  0  0
  3 21  1  0  0  0  0
  4  5  2  0  0  0  0
  4 13  1  0  0  0  0
  5  6  1  0  0  0  0
  5 19  1  0  0  0  0
  6  7  2  0  0  0  0
  7  8  1  0  0  0  0
  7 18  1  0  0  0  0
  8  9  2  0  0  0  0
  8 13  1  0  0  0  0
  9 10  1  0  0  0  0
  9 17  1  0  0  0  0
 10 11  2  0  0  0  0
 10 16  1  0  0  0  0
 11 12  1  0  0  0  0
 11 15  1  0  0  0  0
 12 13  2  0  0  0  0
 12 14  1  0  0  0  0
 22 23  1  0  0  0  0
 22 31  1  0  0  0  0
 23 24  1  0  0  0  0
 23 40  1  0  0  0  0
 23 41  1  0  0  0  0
 24 25  1  0  0  0  0
 24 38  1  0  0  0  0
 24 39  1  0  0  0  0
 25 26  1  0  0  0  0
 25 36  1  0  0  0  0
 25 37  1  0  0  0  0
 26 27  1  0  0  0  0
 26 30  2  0  0  0  0
 27 28  1  0  0  0  0
 28 29  2  0  0  0  0
 28 35  1  0  0  0  0
 29 30  1  0  0  0  0
 29 34  1  0  0  0  0
 30 31  1  0  0  0  0
 31 32  1  0  0  0  0
 31 33  1  0  0  0  0
M  END
>  <MODEL>
       1

$$$$
