tmp_first_model_12_13.pdb
 OpenBabel08272523333D

 69 74  0  0  1  0  0  0  0  0999 V2000
   -7.4540    3.4250  -21.9240 C   0  0  0  0  0  0  0  0  0  0  0  0
   -8.4990    2.9420  -22.8180 N   0  0  0  0  0  0  0  0  0  0  0  0
   -8.0770    2.1460  -23.8510 C   0  0  0  0  0  0  0  0  0  0  0  0
   -6.9000    1.8850  -24.0340 O   0  0  0  0  0  0  0  0  0  0  0  0
   -9.1530    1.5620  -24.7660 C   0  0  0  0  0  0  0  0  0  0  0  0
   -9.7380    0.3960  -24.1340 N   0  0  0  0  0  0  0  0  0  0  0  0
   -8.9480   -0.8250  -24.0630 C   0  0  0  0  0  0  0  0  0  0  0  0
   -9.2240   -1.6030  -22.7530 C   0  0  2  0  0  0  0  0  0  0  0  0
   -8.6430   -0.8070  -21.5600 C   0  0  0  0  0  0  0  0  0  0  0  0
   -9.1220    0.1780  -21.0300 O   0  0  0  0  0  0  0  0  0  0  0  0
   -7.4420   -1.3770  -21.2000 N   0  0  0  0  0  0  0  0  0  0  0  0
   -6.6450   -0.7920  -20.1820 C   0  0  0  0  0  0  0  0  0  0  0  0
   -6.9390   -1.0510  -18.8660 C   0  0  0  0  0  0  0  0  0  0  0  0
   -6.2350   -0.5770  -17.8100 N   0  0  0  0  0  0  0  0  0  0  0  0
   -5.2070    0.1950  -18.0720 C   0  0  0  0  0  0  0  0  0  0  0  0
   -4.8060    0.5670  -19.3870 C   0  0  0  0  0  0  0  0  0  0  0  0
   -3.6750    1.3960  -19.6140 C   0  0  0  0  0  0  0  0  0  0  0  0
   -3.3340    1.7680  -20.8860 C   0  0  0  0  0  0  0  0  0  0  0  0
   -4.1170    1.3510  -21.9850 C   0  0  0  0  0  0  0  0  0  0  0  0
   -5.2010    0.5230  -21.7950 C   0  0  0  0  0  0  0  0  0  0  0  0
   -5.5590    0.0890  -20.4870 C   0  0  0  0  0  0  0  0  0  0  0  0
   -5.7950    0.2240  -22.6540 H   0  0  0  0  0  0  0  0  0  0  0  0
   -3.8570    1.6800  -22.9880 H   0  0  0  0  0  0  0  0  0  0  0  0
   -2.4580    2.3890  -21.0530 H   0  0  0  0  0  0  0  0  0  0  0  0
   -3.1000    1.7250  -18.7530 H   0  0  0  0  0  0  0  0  0  0  0  0
   -4.6250    0.5630  -17.2250 H   0  0  0  0  0  0  0  0  0  0  0  0
   -7.7920   -1.6820  -18.6290 H   0  0  0  0  0  0  0  0  0  0  0  0
   -7.0910   -2.5510  -21.9830 C   0  0  0  0  0  0  0  0  0  0  0  0
   -8.4060   -2.9260  -22.6860 C   0  0  2  0  0  0  0  0  0  0  0  0
   -8.1640   -3.6820  -23.9980 C   0  0  0  0  0  0  0  0  0  0  0  0
   -9.4010   -4.0920  -24.6190 N   0  0  0  0  0  0  0  0  0  0  0  0
   -9.4280   -4.7450  -25.8140 C   0  0  0  0  0  0  0  0  0  0  0  0
  -10.6460   -5.1830  -26.3700 C   0  0  0  0  0  0  0  0  0  0  0  0
  -10.5790   -5.7830  -27.6080 C   0  0  0  0  0  0  0  0  0  0  0  0
   -9.4280   -5.9770  -28.2690 N   0  0  0  0  0  0  0  0  0  0  0  0
   -8.3270   -5.5580  -27.6450 C   0  0  0  0  0  0  0  0  0  0  0  0
   -7.0270   -5.8170  -28.3640 C   0  0  0  0  0  0  0  0  0  0  0  0
   -7.2090   -5.7690  -29.4440 H   0  0  0  0  0  0  0  0  0  0  0  0
   -6.6720   -6.8310  -28.1320 H   0  0  0  0  0  0  0  0  0  0  0  0
   -6.2560   -5.0960  -28.0730 H   0  0  0  0  0  0  0  0  0  0  0  0
   -8.2620   -4.9490  -26.4490 N   0  0  0  0  0  0  0  0  0  0  0  0
  -11.4810   -6.1310  -28.1160 H   0  0  0  0  0  0  0  0  0  0  0  0
  -11.5910   -5.0590  -25.8450 H   0  0  0  0  0  0  0  0  0  0  0  0
  -10.2770   -3.9590  -24.1280 H   0  0  0  0  0  0  0  0  0  0  0  0
   -7.5470   -4.5690  -23.8030 H   0  0  0  0  0  0  0  0  0  0  0  0
   -7.6010   -3.0620  -24.7130 H   0  0  0  0  0  0  0  0  0  0  0  0
   -8.9470   -3.6090  -22.0210 H   0  0  0  0  0  0  0  0  0  0  0  0
   -6.3010   -2.3280  -22.7180 H   0  0  0  0  0  0  0  0  0  0  0  0
   -6.7330   -3.3630  -21.3430 H   0  0  0  0  0  0  0  0  0  0  0  0
  -10.7290   -1.7510  -22.6080 C   0  0  0  0  0  0  0  0  0  0  0  0
  -11.2960   -2.7630  -21.8250 C   0  0  0  0  0  0  0  0  0  0  0  0
  -12.6600   -2.7810  -21.5950 C   0  0  0  0  0  0  0  0  0  0  0  0
  -13.3190   -3.9600  -20.5090 Cl  0  0  0  0  0  0  0  0  0  0  0  0
  -13.5200   -1.8400  -22.1530 C   0  0  0  0  0  0  0  0  0  0  0  0
  -12.9730   -0.8480  -22.9350 C   0  0  0  0  0  0  0  0  0  0  0  0
  -11.5980   -0.7890  -23.1440 C   0  0  0  0  0  0  0  0  0  0  0  0
  -11.0840    0.3850  -23.9090 C   0  0  0  0  0  0  0  0  0  0  0  0
  -11.8230    1.2900  -24.2850 O   0  0  0  0  0  0  0  0  0  0  0  0
  -13.5810   -0.0720  -23.3830 H   0  0  0  0  0  0  0  0  0  0  0  0
  -14.5830   -1.8810  -21.9490 H   0  0  0  0  0  0  0  0  0  0  0  0
  -10.7030   -3.5270  -21.3370 H   0  0  0  0  0  0  0  0  0  0  0  0
   -7.8870   -0.5610  -24.1350 H   0  0  0  0  0  0  0  0  0  0  0  0
   -9.1900   -1.4760  -24.9140 H   0  0  0  0  0  0  0  0  0  0  0  0
   -8.6940    1.2720  -25.7220 H   0  0  0  0  0  0  0  0  0  0  0  0
   -9.9630    2.2700  -24.9630 H   0  0  0  0  0  0  0  0  0  0  0  0
   -9.4040    2.7360  -22.4090 H   0  0  0  0  0  0  0  0  0  0  0  0
   -6.9970    2.5760  -21.3870 H   0  0  0  0  0  0  0  0  0  0  0  0
   -6.6890    3.9090  -22.5380 H   0  0  0  0  0  0  0  0  0  0  0  0
   -7.8560    4.1690  -21.2270 H   0  0  0  0  0  0  0  0  0  0  0  0
  1  2  1  0  0  0  0
  1 67  1  0  0  0  0
  1 68  1  0  0  0  0
  1 69  1  0  0  0  0
  2  3  1  0  0  0  0
  2 66  1  0  0  0  0
  3  4  2  0  0  0  0
  3  5  1  0  0  0  0
  5  6  1  0  0  0  0
  5 64  1  0  0  0  0
  5 65  1  0  0  0  0
  6  7  1  0  0  0  0
  6 57  1  0  0  0  0
  7  8  1  0  0  0  0
  7 62  1  0  0  0  0
  7 63  1  0  0  0  0
  8  9  1  1  0  0  0
  8 29  1  0  0  0  0
  8 50  1  0  0  0  0
  9 10  2  0  0  0  0
  9 11  1  0  0  0  0
 11 12  1  0  0  0  0
 11 28  1  0  0  0  0
 12 13  2  0  0  0  0
 12 21  1  0  0  0  0
 13 14  1  0  0  0  0
 13 27  1  0  0  0  0
 14 15  2  0  0  0  0
 15 16  1  0  0  0  0
 15 26  1  0  0  0  0
 16 17  2  0  0  0  0
 16 21  1  0  0  0  0
 17 18  1  0  0  0  0
 17 25  1  0  0  0  0
 18 19  2  0  0  0  0
 18 24  1  0  0  0  0
 19 20  1  0  0  0  0
 19 23  1  0  0  0  0
 20 21  2  0  0  0  0
 20 22  1  0  0  0  0
 28 29  1  0  0  0  0
 28 48  1  0  0  0  0
 28 49  1  0  0  0  0
 29 30  1  0  0  0  0
 29 47  1  1  0  0  0
 30 31  1  0  0  0  0
 30 45  1  0  0  0  0
 30 46  1  0  0  0  0
 31 32  1  0  0  0  0
 31 44  1  0  0  0  0
 32 33  2  0  0  0  0
 32 41  1  0  0  0  0
 33 34  1  0  0  0  0
 33 43  1  0  0  0  0
 34 35  2  0  0  0  0
 34 42  1  0  0  0  0
 35 36  1  0  0  0  0
 36 37  1  0  0  0  0
 36 41  2  0  0  0  0
 37 38  1  0  0  0  0
 37 39  1  0  0  0  0
 37 40  1  0  0  0  0
 50 51  2  0  0  0  0
 50 56  1  0  0  0  0
 51 52  1  0  0  0  0
 51 61  1  0  0  0  0
 52 53  1  0  0  0  0
 52 54  2  0  0  0  0
 54 55  1  0  0  0  0
 54 60  1  0  0  0  0
 55 56  2  0  0  0  0
 55 59  1  0  0  0  0
 56 57  1  0  0  0  0
 57 58  2  0  0  0  0
M  END
>  <MODEL>
       1

$$$$
