tmp_first_model_12_67.pdb
 OpenBabel08272523333D

 58 63  0  0  1  0  0  0  0  0999 V2000
   -6.4860   -0.2690  -30.5880 C   0  0  0  0  0  0  0  0  0  0  0  0
   -6.3820   -0.2690  -29.0920 C   0  0  0  0  0  0  0  0  0  0  0  0
   -7.0900    0.5900  -28.2010 C   0  0  0  0  0  0  0  0  0  0  0  0
   -6.6810    0.1890  -26.9730 C   0  0  0  0  0  0  0  0  0  0  0  0
   -7.0670    0.6600  -25.6040 C   0  0  0  0  0  0  0  0  0  0  0  0
   -8.1920   -0.0390  -25.0310 N   0  0  0  0  0  0  0  0  0  0  0  0
   -7.9840   -1.3520  -24.4730 C   0  0  0  0  0  0  0  0  0  0  0  0
   -8.7680   -1.5020  -23.1540 C   0  0  2  0  0  0  0  0  0  0  0  0
   -8.1330   -0.5740  -22.0850 C   0  0  0  0  0  0  0  0  0  0  0  0
   -8.2170    0.6340  -22.0090 O   0  0  0  0  0  0  0  0  0  0  0  0
   -7.4050   -1.3490  -21.2150 N   0  0  0  0  0  0  0  0  0  0  0  0
   -6.6190   -0.7840  -20.1830 C   0  0  0  0  0  0  0  0  0  0  0  0
   -6.8980   -1.0610  -18.8670 C   0  0  0  0  0  0  0  0  0  0  0  0
   -6.2010   -0.5700  -17.8150 N   0  0  0  0  0  0  0  0  0  0  0  0
   -5.1730    0.2030  -18.0770 C   0  0  0  0  0  0  0  0  0  0  0  0
   -4.7550    0.5570  -19.3910 C   0  0  0  0  0  0  0  0  0  0  0  0
   -3.6200    1.3810  -19.6150 C   0  0  0  0  0  0  0  0  0  0  0  0
   -3.2430    1.7130  -20.8890 C   0  0  0  0  0  0  0  0  0  0  0  0
   -3.9930    1.2420  -21.9870 C   0  0  0  0  0  0  0  0  0  0  0  0
   -5.0840    0.4310  -21.7930 C   0  0  0  0  0  0  0  0  0  0  0  0
   -5.5100    0.0760  -20.4810 C   0  0  0  0  0  0  0  0  0  0  0  0
   -5.5740   -0.0310  -22.6460 H   0  0  0  0  0  0  0  0  0  0  0  0
   -3.6410    1.4460  -22.9970 H   0  0  0  0  0  0  0  0  0  0  0  0
   -2.3370    2.2840  -21.0670 H   0  0  0  0  0  0  0  0  0  0  0  0
   -3.0660    1.7370  -18.7510 H   0  0  0  0  0  0  0  0  0  0  0  0
   -4.6300    0.6080  -17.2250 H   0  0  0  0  0  0  0  0  0  0  0  0
   -7.7460   -1.6940  -18.6060 H   0  0  0  0  0  0  0  0  0  0  0  0
   -7.4430   -2.7670  -21.5120 C   0  0  0  0  0  0  0  0  0  0  0  0
   -8.5830   -2.9230  -22.5390 C   0  0  2  0  0  0  0  0  0  0  0  0
   -8.3420   -4.0880  -23.5150 C   0  0  0  0  0  0  0  0  0  0  0  0
   -8.3000   -5.0470  -22.9820 H   0  0  0  0  0  0  0  0  0  0  0  0
   -7.3880   -3.9680  -24.0450 H   0  0  0  0  0  0  0  0  0  0  0  0
   -9.1310   -4.1680  -24.2750 H   0  0  0  0  0  0  0  0  0  0  0  0
   -9.5040   -3.1290  -21.9890 H   0  0  0  0  0  0  0  0  0  0  0  0
   -7.6350   -3.3060  -20.5870 H   0  0  0  0  0  0  0  0  0  0  0  0
   -6.4820   -3.1120  -21.9240 H   0  0  0  0  0  0  0  0  0  0  0  0
  -10.2010   -1.0750  -23.4060 C   0  0  0  0  0  0  0  0  0  0  0  0
  -11.2060   -1.4170  -22.4920 C   0  0  0  0  0  0  0  0  0  0  0  0
  -12.4980   -0.9980  -22.7280 C   0  0  0  0  0  0  0  0  0  0  0  0
  -13.4620   -1.3500  -21.8610 F   0  0  0  0  0  0  0  0  0  0  0  0
  -12.8420   -0.2080  -23.8180 C   0  0  0  0  0  0  0  0  0  0  0  0
  -11.8360    0.2220  -24.6590 C   0  0  0  0  0  0  0  0  0  0  0  0
  -10.5240   -0.2030  -24.4550 C   0  0  0  0  0  0  0  0  0  0  0  0
   -9.4560    0.3910  -25.3170 C   0  0  0  0  0  0  0  0  0  0  0  0
   -9.6860    1.2260  -26.1820 O   0  0  0  0  0  0  0  0  0  0  0  0
  -12.0050    0.9360  -25.4560 H   0  0  0  0  0  0  0  0  0  0  0  0
  -13.8760    0.0780  -23.9540 H   0  0  0  0  0  0  0  0  0  0  0  0
  -11.0020   -1.9770  -21.5860 H   0  0  0  0  0  0  0  0  0  0  0  0
   -8.3170   -2.1220  -25.1890 H   0  0  0  0  0  0  0  0  0  0  0  0
   -6.9120   -1.4680  -24.2920 H   0  0  0  0  0  0  0  0  0  0  0  0
   -6.2180    0.5670  -24.9180 H   0  0  0  0  0  0  0  0  0  0  0  0
   -7.3680    1.7050  -25.6760 H   0  0  0  0  0  0  0  0  0  0  0  0
   -5.7890   -0.7990  -27.0920 O   0  0  0  0  0  0  0  0  0  0  0  0
   -5.6010   -1.0910  -28.4340 N   0  0  0  0  0  0  0  0  0  0  0  0
   -7.8190    1.3530  -28.4280 H   0  0  0  0  0  0  0  0  0  0  0  0
   -7.5120   -0.0150  -30.8720 H   0  0  0  0  0  0  0  0  0  0  0  0
   -6.2230   -1.2380  -31.0280 H   0  0  0  0  0  0  0  0  0  0  0  0
   -5.8300    0.4990  -31.0130 H   0  0  0  0  0  0  0  0  0  0  0  0
  1  2  1  0  0  0  0
  1 56  1  0  0  0  0
  1 57  1  0  0  0  0
  1 58  1  0  0  0  0
  2  3  1  0  0  0  0
  2 54  2  0  0  0  0
  3  4  2  0  0  0  0
  3 55  1  0  0  0  0
  4  5  1  0  0  0  0
  4 53  1  0  0  0  0
  5  6  1  0  0  0  0
  5 51  1  0  0  0  0
  5 52  1  0  0  0  0
  6  7  1  0  0  0  0
  6 44  1  0  0  0  0
  7  8  1  0  0  0  0
  7 49  1  0  0  0  0
  7 50  1  0  0  0  0
  8  9  1  1  0  0  0
  8 29  1  0  0  0  0
  8 37  1  0  0  0  0
  9 10  2  0  0  0  0
  9 11  1  0  0  0  0
 11 12  1  0  0  0  0
 11 28  1  0  0  0  0
 12 13  2  0  0  0  0
 12 21  1  0  0  0  0
 13 14  1  0  0  0  0
 13 27  1  0  0  0  0
 14 15  2  0  0  0  0
 15 16  1  0  0  0  0
 15 26  1  0  0  0  0
 16 17  2  0  0  0  0
 16 21  1  0  0  0  0
 17 18  1  0  0  0  0
 17 25  1  0  0  0  0
 18 19  2  0  0  0  0
 18 24  1  0  0  0  0
 19 20  1  0  0  0  0
 19 23  1  0  0  0  0
 20 21  2  0  0  0  0
 20 22  1  0  0  0  0
 28 29  1  0  0  0  0
 28 35  1  0  0  0  0
 28 36  1  0  0  0  0
 29 30  1  0  0  0  0
 29 34  1  1  0  0  0
 30 31  1  0  0  0  0
 30 32  1  0  0  0  0
 30 33  1  0  0  0  0
 37 38  2  0  0  0  0
 37 43  1  0  0  0  0
 38 39  1  0  0  0  0
 38 48  1  0  0  0  0
 39 40  1  0  0  0  0
 39 41  2  0  0  0  0
 41 42  1  0  0  0  0
 41 47  1  0  0  0  0
 42 43  2  0  0  0  0
 42 46  1  0  0  0  0
 43 44  1  0  0  0  0
 44 45  2  0  0  0  0
 53 54  1  0  0  0  0
M  END
>  <MODEL>
       1

$$$$
