tmp_first_model_15_87.pdb
 OpenBabel08282501153D

 59 64  0  0  1  0  0  0  0  0999 V2000
   -7.9450   -3.6830  -24.0250 C   0  0  0  0  0  0  0  0  0  0  0  0
   -8.3350   -2.8440  -22.7990 C   0  0  1  0  0  0  0  0  0  0  0  0
   -7.1510   -2.6490  -21.8280 C   0  0  0  0  0  0  0  0  0  0  0  0
   -7.4260   -1.3740  -21.1930 N   0  0  0  0  0  0  0  0  0  0  0  0
   -6.6100   -0.8040  -20.1750 C   0  0  0  0  0  0  0  0  0  0  0  0
   -6.9030   -1.0470  -18.8600 C   0  0  0  0  0  0  0  0  0  0  0  0
   -6.1980   -0.5560  -17.8100 N   0  0  0  0  0  0  0  0  0  0  0  0
   -5.1670    0.2080  -18.0810 C   0  0  0  0  0  0  0  0  0  0  0  0
   -4.7370    0.5310  -19.3990 C   0  0  0  0  0  0  0  0  0  0  0  0
   -3.6060    1.3610  -19.6380 C   0  0  0  0  0  0  0  0  0  0  0  0
   -3.2130    1.6480  -20.9160 C   0  0  0  0  0  0  0  0  0  0  0  0
   -3.9280    1.1150  -22.0120 C   0  0  0  0  0  0  0  0  0  0  0  0
   -5.0240    0.3120  -21.8100 C   0  0  0  0  0  0  0  0  0  0  0  0
   -5.4700    0.0080  -20.4900 C   0  0  0  0  0  0  0  0  0  0  0  0
   -5.5650   -0.0910  -22.6630 H   0  0  0  0  0  0  0  0  0  0  0  0
   -3.6120    1.3560  -23.0240 H   0  0  0  0  0  0  0  0  0  0  0  0
   -2.3590    2.2970  -21.0940 H   0  0  0  0  0  0  0  0  0  0  0  0
   -3.0780    1.7710  -18.7800 H   0  0  0  0  0  0  0  0  0  0  0  0
   -4.6190    0.6130  -17.2290 H   0  0  0  0  0  0  0  0  0  0  0  0
   -7.7510   -1.6760  -18.5950 H   0  0  0  0  0  0  0  0  0  0  0  0
   -8.3540   -0.6080  -21.8600 C   0  0  0  0  0  0  0  0  0  0  0  0
   -8.6500    0.5280  -21.5370 O   0  0  0  0  0  0  0  0  0  0  0  0
   -8.8990   -1.4060  -23.0660 C   0  0  1  0  0  0  0  0  0  0  0  0
   -8.3330   -0.8020  -24.3760 C   0  0  0  0  0  0  0  0  0  0  0  0
   -8.8790    0.5120  -24.6470 N   0  0  0  0  0  0  0  0  0  0  0  0
   -7.9560    1.6190  -24.8520 C   0  0  0  0  0  0  0  0  0  0  0  0
   -6.9980    1.4110  -25.9850 C   0  0  0  0  0  0  0  0  0  0  0  0
   -5.6370    1.1700  -25.9810 C   0  0  0  0  0  0  0  0  0  0  0  0
   -5.3010    0.9760  -27.3340 C   0  0  0  0  0  0  0  0  0  0  0  0
   -6.3660    1.0970  -28.1160 N   0  0  0  0  0  0  0  0  0  0  0  0
   -7.3840    1.3680  -27.2850 N   0  0  0  0  0  0  0  0  0  0  0  0
   -8.7200    1.5350  -27.8160 C   0  0  0  0  0  0  0  0  0  0  0  0
   -9.1860    2.4390  -27.4050 H   0  0  0  0  0  0  0  0  0  0  0  0
   -8.6180    1.6240  -28.9010 H   0  0  0  0  0  0  0  0  0  0  0  0
   -9.3470    0.6700  -27.5700 H   0  0  0  0  0  0  0  0  0  0  0  0
   -4.3430    0.7350  -27.7860 H   0  0  0  0  0  0  0  0  0  0  0  0
   -5.0120    1.1160  -25.0980 H   0  0  0  0  0  0  0  0  0  0  0  0
   -8.5750    2.5090  -24.9960 H   0  0  0  0  0  0  0  0  0  0  0  0
   -7.3660    1.7560  -23.9330 H   0  0  0  0  0  0  0  0  0  0  0  0
  -10.2260    0.7190  -24.6550 C   0  0  0  0  0  0  0  0  0  0  0  0
  -10.7520    1.6800  -25.2110 O   0  0  0  0  0  0  0  0  0  0  0  0
  -11.0350   -0.3020  -23.9090 C   0  0  0  0  0  0  0  0  0  0  0  0
  -12.4250   -0.1860  -23.9540 C   0  0  0  0  0  0  0  0  0  0  0  0
  -13.2190   -0.9950  -23.1670 C   0  0  0  0  0  0  0  0  0  0  0  0
  -12.5930   -1.8990  -22.3170 C   0  0  0  0  0  0  0  0  0  0  0  0
  -13.3550   -2.6520  -21.5060 F   0  0  0  0  0  0  0  0  0  0  0  0
  -11.2210   -2.0470  -22.2650 C   0  0  0  0  0  0  0  0  0  0  0  0
  -10.4150   -1.2800  -23.1150 C   0  0  0  0  0  0  0  0  0  0  0  0
  -10.8140   -2.7390  -21.5370 H   0  0  0  0  0  0  0  0  0  0  0  0
  -14.3010   -0.9250  -23.1650 H   0  0  0  0  0  0  0  0  0  0  0  0
  -12.8490    0.5750  -24.6000 H   0  0  0  0  0  0  0  0  0  0  0  0
   -7.2490   -0.7020  -24.2880 H   0  0  0  0  0  0  0  0  0  0  0  0
   -8.5650   -1.4730  -25.2170 H   0  0  0  0  0  0  0  0  0  0  0  0
   -6.1930   -2.6340  -22.3730 H   0  0  0  0  0  0  0  0  0  0  0  0
   -7.0810   -3.4430  -21.0770 H   0  0  0  0  0  0  0  0  0  0  0  0
   -9.1200   -3.3810  -22.2600 H   0  0  0  0  0  0  0  0  0  0  0  0
   -8.7750   -3.7880  -24.7340 H   0  0  0  0  0  0  0  0  0  0  0  0
   -7.1030   -3.2330  -24.5660 H   0  0  0  0  0  0  0  0  0  0  0  0
   -7.6340   -4.6920  -23.7260 H   0  0  0  0  0  0  0  0  0  0  0  0
  1  2  1  0  0  0  0
  1 57  1  0  0  0  0
  1 58  1  0  0  0  0
  1 59  1  0  0  0  0
  2  3  1  0  0  0  0
  2 23  1  0  0  0  0
  2 56  1  1  0  0  0
  3  4  1  0  0  0  0
  3 54  1  0  0  0  0
  3 55  1  0  0  0  0
  4  5  1  0  0  0  0
  4 21  1  0  0  0  0
  5  6  2  0  0  0  0
  5 14  1  0  0  0  0
  6  7  1  0  0  0  0
  6 20  1  0  0  0  0
  7  8  2  0  0  0  0
  8  9  1  0  0  0  0
  8 19  1  0  0  0  0
  9 10  2  0  0  0  0
  9 14  1  0  0  0  0
 10 11  1  0  0  0  0
 10 18  1  0  0  0  0
 11 12  2  0  0  0  0
 11 17  1  0  0  0  0
 12 13  1  0  0  0  0
 12 16  1  0  0  0  0
 13 14  2  0  0  0  0
 13 15  1  0  0  0  0
 21 22  2  0  0  0  0
 23 21  1  1  0  0  0
 23 24  1  0  0  0  0
 23 48  1  0  0  0  0
 24 25  1  0  0  0  0
 24 52  1  0  0  0  0
 24 53  1  0  0  0  0
 25 26  1  0  0  0  0
 25 40  1  0  0  0  0
 26 27  1  0  0  0  0
 26 38  1  0  0  0  0
 26 39  1  0  0  0  0
 27 28  2  0  0  0  0
 27 31  1  0  0  0  0
 28 29  1  0  0  0  0
 28 37  1  0  0  0  0
 29 30  2  0  0  0  0
 29 36  1  0  0  0  0
 30 31  1  0  0  0  0
 31 32  1  0  0  0  0
 32 33  1  0  0  0  0
 32 34  1  0  0  0  0
 32 35  1  0  0  0  0
 40 41  2  0  0  0  0
 40 42  1  0  0  0  0
 42 43  2  0  0  0  0
 42 48  1  0  0  0  0
 43 44  1  0  0  0  0
 43 51  1  0  0  0  0
 44 45  2  0  0  0  0
 44 50  1  0  0  0  0
 45 46  1  0  0  0  0
 45 47  1  0  0  0  0
 47 48  2  0  0  0  0
 47 49  1  0  0  0  0
M  END
>  <MODEL>
       1

$$$$
