tmp_first_model_17_87.pdb
 OpenBabel08282502223D

 59 64  0  0  1  0  0  0  0  0999 V2000
  -10.1830   -2.9860  -22.0670 C   0  0  0  0  0  0  0  0  0  0  0  0
   -9.1290   -2.0310  -22.6440 C   0  0  1  0  0  0  0  0  0  0  0  0
   -8.6640   -1.0290  -21.5690 C   0  0  0  0  0  0  0  0  0  0  0  0
   -7.3470   -1.4880  -21.1940 N   0  0  0  0  0  0  0  0  0  0  0  0
   -6.5770   -0.8730  -20.1840 C   0  0  0  0  0  0  0  0  0  0  0  0
   -6.9310   -1.0540  -18.8720 C   0  0  0  0  0  0  0  0  0  0  0  0
   -6.2590   -0.5340  -17.8180 N   0  0  0  0  0  0  0  0  0  0  0  0
   -5.2100    0.2050  -18.0910 C   0  0  0  0  0  0  0  0  0  0  0  0
   -4.7610    0.5030  -19.4090 C   0  0  0  0  0  0  0  0  0  0  0  0
   -3.6380    1.3410  -19.6300 C   0  0  0  0  0  0  0  0  0  0  0  0
   -3.2580    1.6630  -20.9010 C   0  0  0  0  0  0  0  0  0  0  0  0
   -3.9760    1.1570  -22.0100 C   0  0  0  0  0  0  0  0  0  0  0  0
   -5.0560    0.3260  -21.8290 C   0  0  0  0  0  0  0  0  0  0  0  0
   -5.4670   -0.0310  -20.5080 C   0  0  0  0  0  0  0  0  0  0  0  0
   -5.5950   -0.0590  -22.6960 H   0  0  0  0  0  0  0  0  0  0  0  0
   -3.6610    1.4310  -23.0120 H   0  0  0  0  0  0  0  0  0  0  0  0
   -2.4040    2.3130  -21.0700 H   0  0  0  0  0  0  0  0  0  0  0  0
   -3.1080    1.7320  -18.7660 H   0  0  0  0  0  0  0  0  0  0  0  0
   -4.6590    0.6140  -17.2450 H   0  0  0  0  0  0  0  0  0  0  0  0
   -7.7960   -1.6730  -18.6380 H   0  0  0  0  0  0  0  0  0  0  0  0
   -6.8180   -2.4520  -22.0140 C   0  0  0  0  0  0  0  0  0  0  0  0
   -5.7490   -2.9910  -21.8280 O   0  0  0  0  0  0  0  0  0  0  0  0
   -7.8170   -2.6960  -23.1680 C   0  0  1  0  0  0  0  0  0  0  0  0
   -7.9410   -4.2140  -23.4020 C   0  0  0  0  0  0  0  0  0  0  0  0
   -6.7240   -4.7550  -23.9880 N   0  0  0  0  0  0  0  0  0  0  0  0
   -6.0960   -5.9180  -23.3610 C   0  0  0  0  0  0  0  0  0  0  0  0
   -6.9870   -7.1250  -23.4000 C   0  0  0  0  0  0  0  0  0  0  0  0
   -7.5660   -7.9170  -22.4230 C   0  0  0  0  0  0  0  0  0  0  0  0
   -8.6080   -8.5750  -23.1060 C   0  0  0  0  0  0  0  0  0  0  0  0
   -8.6330   -8.2850  -24.3930 N   0  0  0  0  0  0  0  0  0  0  0  0
   -7.5950   -7.4600  -24.5730 N   0  0  0  0  0  0  0  0  0  0  0  0
   -7.1560   -7.2030  -25.9290 C   0  0  0  0  0  0  0  0  0  0  0  0
   -6.0940   -7.4260  -26.0440 H   0  0  0  0  0  0  0  0  0  0  0  0
   -7.3570   -6.1770  -26.2410 H   0  0  0  0  0  0  0  0  0  0  0  0
   -7.7280   -7.8650  -26.5700 H   0  0  0  0  0  0  0  0  0  0  0  0
   -9.4260   -9.1550  -22.7250 H   0  0  0  0  0  0  0  0  0  0  0  0
   -7.3270   -7.9650  -21.3660 H   0  0  0  0  0  0  0  0  0  0  0  0
   -5.1980   -6.1320  -23.9480 H   0  0  0  0  0  0  0  0  0  0  0  0
   -5.8210   -5.6420  -22.3300 H   0  0  0  0  0  0  0  0  0  0  0  0
   -6.1310   -4.1800  -25.0710 C   0  0  0  0  0  0  0  0  0  0  0  0
   -5.2860   -4.7480  -25.7550 O   0  0  0  0  0  0  0  0  0  0  0  0
   -6.5600   -2.7840  -25.3770 C   0  0  0  0  0  0  0  0  0  0  0  0
   -6.1200   -2.2260  -26.5790 C   0  0  0  0  0  0  0  0  0  0  0  0
   -6.3710   -0.9000  -26.8720 C   0  0  0  0  0  0  0  0  0  0  0  0
   -7.0720   -0.1520  -25.9310 C   0  0  0  0  0  0  0  0  0  0  0  0
   -7.3200    1.1470  -26.1910 F   0  0  0  0  0  0  0  0  0  0  0  0
   -7.5420   -0.6920  -24.7450 C   0  0  0  0  0  0  0  0  0  0  0  0
   -7.3140   -2.0460  -24.4580 C   0  0  0  0  0  0  0  0  0  0  0  0
   -8.0970   -0.0440  -24.0720 H   0  0  0  0  0  0  0  0  0  0  0  0
   -6.0260   -0.4320  -27.7910 H   0  0  0  0  0  0  0  0  0  0  0  0
   -5.5640   -2.8510  -27.2710 H   0  0  0  0  0  0  0  0  0  0  0  0
   -8.1080   -4.7180  -22.4510 H   0  0  0  0  0  0  0  0  0  0  0  0
   -8.8070   -4.4130  -24.0510 H   0  0  0  0  0  0  0  0  0  0  0  0
   -9.3250   -1.0370  -20.7050 H   0  0  0  0  0  0  0  0  0  0  0  0
   -8.6400    0.0050  -21.9400 H   0  0  0  0  0  0  0  0  0  0  0  0
   -9.6160   -1.5060  -23.4730 H   0  0  0  0  0  0  0  0  0  0  0  0
   -9.7930   -3.5770  -21.2290 H   0  0  0  0  0  0  0  0  0  0  0  0
  -11.0440   -2.4150  -21.7000 H   0  0  0  0  0  0  0  0  0  0  0  0
  -10.5540   -3.6800  -22.8260 H   0  0  0  0  0  0  0  0  0  0  0  0
  1  2  1  0  0  0  0
  1 57  1  0  0  0  0
  1 58  1  0  0  0  0
  1 59  1  0  0  0  0
  2  3  1  0  0  0  0
  2 23  1  0  0  0  0
  2 56  1  6  0  0  0
  3  4  1  0  0  0  0
  3 54  1  0  0  0  0
  3 55  1  0  0  0  0
  4  5  1  0  0  0  0
  4 21  1  0  0  0  0
  5  6  2  0  0  0  0
  5 14  1  0  0  0  0
  6  7  1  0  0  0  0
  6 20  1  0  0  0  0
  7  8  2  0  0  0  0
  8  9  1  0  0  0  0
  8 19  1  0  0  0  0
  9 10  2  0  0  0  0
  9 14  1  0  0  0  0
 10 11  1  0  0  0  0
 10 18  1  0  0  0  0
 11 12  2  0  0  0  0
 11 17  1  0  0  0  0
 12 13  1  0  0  0  0
 12 16  1  0  0  0  0
 13 14  2  0  0  0  0
 13 15  1  0  0  0  0
 21 22  2  0  0  0  0
 23 21  1  1  0  0  0
 23 24  1  0  0  0  0
 23 48  1  0  0  0  0
 24 25  1  0  0  0  0
 24 52  1  0  0  0  0
 24 53  1  0  0  0  0
 25 26  1  0  0  0  0
 25 40  1  0  0  0  0
 26 27  1  0  0  0  0
 26 38  1  0  0  0  0
 26 39  1  0  0  0  0
 27 28  2  0  0  0  0
 27 31  1  0  0  0  0
 28 29  1  0  0  0  0
 28 37  1  0  0  0  0
 29 30  2  0  0  0  0
 29 36  1  0  0  0  0
 30 31  1  0  0  0  0
 31 32  1  0  0  0  0
 32 33  1  0  0  0  0
 32 34  1  0  0  0  0
 32 35  1  0  0  0  0
 40 41  2  0  0  0  0
 40 42  1  0  0  0  0
 42 43  2  0  0  0  0
 42 48  1  0  0  0  0
 43 44  1  0  0  0  0
 43 51  1  0  0  0  0
 44 45  2  0  0  0  0
 44 50  1  0  0  0  0
 45 46  1  0  0  0  0
 45 47  1  0  0  0  0
 47 48  2  0  0  0  0
 47 49  1  0  0  0  0
M  END
>  <MODEL>
       1

$$$$
