tmp_first_model_11_10.pdb
 OpenBabel08272522543D

 57 62  0  0  1  0  0  0  0  0999 V2000
  -10.4300   -1.1830  -23.2600 C   0  0  0  0  0  0  0  0  0  0  0  0
   -8.9880   -1.5230  -22.9150 C   0  0  1  0  0  0  0  0  0  0  0  0
   -8.3580   -0.5550  -21.9040 C   0  0  0  0  0  0  0  0  0  0  0  0
   -7.3580   -1.3720  -21.2390 N   0  0  0  0  0  0  0  0  0  0  0  0
   -6.5710   -0.8580  -20.1850 C   0  0  0  0  0  0  0  0  0  0  0  0
   -6.8950   -1.0980  -18.8740 C   0  0  0  0  0  0  0  0  0  0  0  0
   -6.2320   -0.5660  -17.8150 N   0  0  0  0  0  0  0  0  0  0  0  0
   -5.2040    0.2070  -18.0800 C   0  0  0  0  0  0  0  0  0  0  0  0
   -4.7480    0.5090  -19.3960 C   0  0  0  0  0  0  0  0  0  0  0  0
   -3.6230    1.3370  -19.6350 C   0  0  0  0  0  0  0  0  0  0  0  0
   -3.2220    1.6060  -20.9150 C   0  0  0  0  0  0  0  0  0  0  0  0
   -3.9200    1.0640  -22.0170 C   0  0  0  0  0  0  0  0  0  0  0  0
   -5.0130    0.2580  -21.8150 C   0  0  0  0  0  0  0  0  0  0  0  0
   -5.4520   -0.0290  -20.4930 C   0  0  0  0  0  0  0  0  0  0  0  0
   -5.5470   -0.1650  -22.6610 H   0  0  0  0  0  0  0  0  0  0  0  0
   -3.5950    1.2970  -23.0270 H   0  0  0  0  0  0  0  0  0  0  0  0
   -2.3680    2.2500  -21.0930 H   0  0  0  0  0  0  0  0  0  0  0  0
   -3.1070    1.7620  -18.7790 H   0  0  0  0  0  0  0  0  0  0  0  0
   -4.6690    0.6400  -17.2340 H   0  0  0  0  0  0  0  0  0  0  0  0
   -7.7330   -1.7500  -18.6330 H   0  0  0  0  0  0  0  0  0  0  0  0
   -7.6200   -2.7230  -21.3300 C   0  0  0  0  0  0  0  0  0  0  0  0
   -7.0080   -3.5700  -20.7140 O   0  0  0  0  0  0  0  0  0  0  0  0
   -8.7870   -2.9490  -22.2940 C   0  0  1  0  0  0  0  0  0  0  0  0
   -9.9960   -3.4120  -21.4480 C   0  0  0  0  0  0  0  0  0  0  0  0
  -11.1070   -3.8960  -22.2580 N   0  0  0  0  0  0  0  0  0  0  0  0
  -12.4710   -3.8790  -21.7240 C   0  0  0  0  0  0  0  0  0  0  0  0
  -13.3640   -2.7370  -22.1300 C   0  0  0  0  0  0  0  0  0  0  0  0
  -14.0410   -1.7570  -21.4890 C   0  0  0  0  0  0  0  0  0  0  0  0
  -14.8090   -1.1060  -22.4350 N   0  3  0  0  0  0  0  0  0  0  0  0
  -14.6040   -1.6880  -23.6220 C   0  0  0  0  0  0  0  0  0  0  0  0
  -13.7380   -2.6840  -23.4590 N   0  0  0  0  0  0  0  0  0  0  0  0
  -13.3880   -3.3670  -24.1290 H   0  0  0  0  0  0  0  0  0  0  0  0
  -15.0650   -1.4220  -24.5520 H   0  0  0  0  0  0  0  0  0  0  0  0
  -15.3950   -0.2960  -22.2620 H   0  0  0  0  0  0  0  0  0  0  0  0
  -14.0900   -1.4800  -20.4410 H   0  0  0  0  0  0  0  0  0  0  0  0
  -12.9480   -4.7300  -22.2100 H   0  0  0  0  0  0  0  0  0  0  0  0
  -12.4580   -4.0470  -20.6390 H   0  0  0  0  0  0  0  0  0  0  0  0
  -10.9220   -4.5330  -23.4480 C   0  0  0  0  0  0  0  0  0  0  0  0
  -11.8750   -4.8450  -24.1690 O   0  0  0  0  0  0  0  0  0  0  0  0
   -9.5140   -4.7860  -23.8600 C   0  0  0  0  0  0  0  0  0  0  0  0
   -9.2530   -5.7560  -24.8300 C   0  0  0  0  0  0  0  0  0  0  0  0
   -7.9900   -5.8870  -25.3770 C   0  0  0  0  0  0  0  0  0  0  0  0
   -6.9940   -5.0300  -24.9180 C   0  0  0  0  0  0  0  0  0  0  0  0
   -5.7900   -5.0730  -25.5120 F   0  0  0  0  0  0  0  0  0  0  0  0
   -7.2080   -4.1130  -23.9040 C   0  0  0  0  0  0  0  0  0  0  0  0
   -8.4840   -3.9960  -23.3430 C   0  0  0  0  0  0  0  0  0  0  0  0
   -6.3930   -3.4780  -23.5720 H   0  0  0  0  0  0  0  0  0  0  0  0
   -7.7640   -6.5940  -26.1720 H   0  0  0  0  0  0  0  0  0  0  0  0
  -10.0560   -6.4110  -25.1500 H   0  0  0  0  0  0  0  0  0  0  0  0
   -9.6580   -4.1810  -20.7390 H   0  0  0  0  0  0  0  0  0  0  0  0
  -10.3520   -2.5550  -20.8720 H   0  0  0  0  0  0  0  0  0  0  0  0
   -7.9010    0.3160  -22.3840 H   0  0  0  0  0  0  0  0  0  0  0  0
   -9.1020   -0.1880  -21.1790 H   0  0  0  0  0  0  0  0  0  0  0  0
   -8.3820   -1.4920  -23.8320 H   0  0  0  0  0  0  0  0  0  0  0  0
  -11.0450   -1.1640  -22.3540 H   0  0  0  0  0  0  0  0  0  0  0  0
  -10.8390   -1.9470  -23.9260 H   0  0  0  0  0  0  0  0  0  0  0  0
  -10.5010   -0.2070  -23.7410 H   0  0  0  0  0  0  0  0  0  0  0  0
  1  2  1  0  0  0  0
  1 55  1  0  0  0  0
  1 56  1  0  0  0  0
  1 57  1  0  0  0  0
  2  3  1  0  0  0  0
  2 23  1  0  0  0  0
  2 54  1  6  0  0  0
  3  4  1  0  0  0  0
  3 52  1  0  0  0  0
  3 53  1  0  0  0  0
  4  5  1  0  0  0  0
  4 21  1  0  0  0  0
  5  6  2  0  0  0  0
  5 14  1  0  0  0  0
  6  7  1  0  0  0  0
  6 20  1  0  0  0  0
  7  8  2  0  0  0  0
  8  9  1  0  0  0  0
  8 19  1  0  0  0  0
  9 10  2  0  0  0  0
  9 14  1  0  0  0  0
 10 11  1  0  0  0  0
 10 18  1  0  0  0  0
 11 12  2  0  0  0  0
 11 17  1  0  0  0  0
 12 13  1  0  0  0  0
 12 16  1  0  0  0  0
 13 14  2  0  0  0  0
 13 15  1  0  0  0  0
 21 22  2  0  0  0  0
 23 21  1  1  0  0  0
 23 24  1  0  0  0  0
 23 46  1  0  0  0  0
 24 25  1  0  0  0  0
 24 50  1  0  0  0  0
 24 51  1  0  0  0  0
 25 26  1  0  0  0  0
 25 38  1  0  0  0  0
 26 27  1  0  0  0  0
 26 36  1  0  0  0  0
 26 37  1  0  0  0  0
 27 28  2  0  0  0  0
 27 31  1  0  0  0  0
 28 29  1  0  0  0  0
 28 35  1  0  0  0  0
 29 30  2  0  0  0  0
 29 34  1  0  0  0  0
 30 31  1  0  0  0  0
 30 33  1  0  0  0  0
 31 32  1  0  0  0  0
 38 39  2  0  0  0  0
 38 40  1  0  0  0  0
 40 41  2  0  0  0  0
 40 46  1  0  0  0  0
 41 42  1  0  0  0  0
 41 49  1  0  0  0  0
 42 43  2  0  0  0  0
 42 48  1  0  0  0  0
 43 44  1  0  0  0  0
 43 45  1  0  0  0  0
 45 46  2  0  0  0  0
 45 47  1  0  0  0  0
M  CHG  1  29   1
M  END
>  <MODEL>
       1

$$$$
