tmp_first_model_11_25.pdb
 OpenBabel08272522543D

 70 75  0  0  1  0  0  0  0  0999 V2000
   -5.7600   -7.7330  -25.5660 O   0  0  0  0  0  0  0  0  0  0  0  0
   -5.6600   -7.1560  -24.4970 C   0  0  0  0  0  0  0  0  0  0  0  0
   -6.8450   -6.4190  -23.8640 C   0  0  0  0  0  0  0  0  0  0  0  0
   -6.7810   -4.9100  -23.9670 N   0  3  1  0  0  0  0  0  0  0  0  0
   -6.7600   -4.5230  -25.4490 C   0  0  0  0  0  0  0  0  0  0  0  0
   -6.7700   -3.0270  -25.6390 C   0  0  0  0  0  0  0  0  0  0  0  0
   -6.2830   -2.4790  -26.8280 C   0  0  0  0  0  0  0  0  0  0  0  0
   -6.2990   -1.1090  -27.0510 C   0  0  0  0  0  0  0  0  0  0  0  0
   -6.8110   -0.2790  -26.0610 C   0  0  0  0  0  0  0  0  0  0  0  0
   -6.8470    1.4460  -26.3160 Cl  0  0  0  0  0  0  0  0  0  0  0  0
   -7.3010   -0.8060  -24.8740 C   0  0  0  0  0  0  0  0  0  0  0  0
   -7.2970   -2.1860  -24.6590 C   0  0  0  0  0  0  0  0  0  0  0  0
   -7.8100   -2.6990  -23.3230 C   0  0  2  0  0  0  0  0  0  0  0  0
   -6.8320   -2.3290  -22.2120 C   0  0  0  0  0  0  0  0  0  0  0  0
   -5.7180   -2.8310  -22.2030 O   0  0  0  0  0  0  0  0  0  0  0  0
   -7.3090   -1.4350  -21.2710 N   0  0  0  0  0  0  0  0  0  0  0  0
   -6.5570   -0.8590  -20.2150 C   0  0  0  0  0  0  0  0  0  0  0  0
   -6.8980   -1.0600  -18.8960 C   0  0  0  0  0  0  0  0  0  0  0  0
   -6.2190   -0.5520  -17.8360 N   0  0  0  0  0  0  0  0  0  0  0  0
   -5.1760    0.2000  -18.0890 C   0  0  0  0  0  0  0  0  0  0  0  0
   -4.7330    0.5190  -19.4020 C   0  0  0  0  0  0  0  0  0  0  0  0
   -3.6130    1.3630  -19.6280 C   0  0  0  0  0  0  0  0  0  0  0  0
   -3.2410    1.6900  -20.9030 C   0  0  0  0  0  0  0  0  0  0  0  0
   -3.9750    1.2000  -22.0080 C   0  0  0  0  0  0  0  0  0  0  0  0
   -5.0570    0.3790  -21.8160 C   0  0  0  0  0  0  0  0  0  0  0  0
   -5.4490   -0.0020  -20.5010 C   0  0  0  0  0  0  0  0  0  0  0  0
   -5.6230    0.0110  -22.6670 H   0  0  0  0  0  0  0  0  0  0  0  0
   -3.6800    1.4730  -23.0170 H   0  0  0  0  0  0  0  0  0  0  0  0
   -2.3900    2.3450  -21.0720 H   0  0  0  0  0  0  0  0  0  0  0  0
   -3.0850    1.7560  -18.7620 H   0  0  0  0  0  0  0  0  0  0  0  0
   -4.6300    0.5970  -17.2330 H   0  0  0  0  0  0  0  0  0  0  0  0
   -7.7550   -1.6770  -18.6240 H   0  0  0  0  0  0  0  0  0  0  0  0
   -8.3140   -1.3780  -21.1680 H   0  0  0  0  0  0  0  0  0  0  0  0
   -7.9840   -4.2200  -23.3110 C   0  0  0  0  0  0  0  0  0  0  0  0
   -8.8820   -4.4940  -23.8730 H   0  0  0  0  0  0  0  0  0  0  0  0
   -8.0820   -4.5720  -22.2820 H   0  0  0  0  0  0  0  0  0  0  0  0
   -8.7670   -2.2170  -23.1020 H   0  0  0  0  0  0  0  0  0  0  0  0
   -7.6880   -0.1400  -24.1080 H   0  0  0  0  0  0  0  0  0  0  0  0
   -5.9240   -0.6760  -27.9750 H   0  0  0  0  0  0  0  0  0  0  0  0
   -5.8790   -3.1360  -27.5970 H   0  0  0  0  0  0  0  0  0  0  0  0
   -7.6420   -4.9780  -25.9250 H   0  0  0  0  0  0  0  0  0  0  0  0
   -5.8920   -4.9770  -25.9320 H   0  0  0  0  0  0  0  0  0  0  0  0
   -5.9380   -4.5030  -23.4900 H   0  0  0  0  0  0  0  0  0  0  0  0
   -7.7210   -6.7830  -24.4060 H   0  0  0  0  0  0  0  0  0  0  0  0
   -6.9720   -6.6990  -22.8160 H   0  0  0  0  0  0  0  0  0  0  0  0
   -4.5010   -7.1120  -23.7770 N   0  0  0  0  0  0  0  0  0  0  0  0
   -3.2920   -7.7240  -24.1900 C   0  0  0  0  0  0  0  0  0  0  0  0
   -2.0680   -7.0960  -23.9560 C   0  0  0  0  0  0  0  0  0  0  0  0
   -0.8840   -7.6880  -24.3920 C   0  0  0  0  0  0  0  0  0  0  0  0
   -0.9090   -8.9040  -25.0810 C   0  0  0  0  0  0  0  0  0  0  0  0
    0.3140   -9.5290  -25.4910 N   0  0  0  0  0  0  0  0  0  0  0  0
    1.3230   -9.8700  -24.4830 C   0  0  0  0  0  0  0  0  0  0  0  0
    2.6480  -10.2400  -25.1420 C   0  0  0  0  0  0  0  0  0  0  0  0
    2.4270  -11.1950  -26.1500 O   0  0  0  0  0  0  0  0  0  0  0  0
    1.7050  -10.6250  -27.2080 C   0  0  0  0  0  0  0  0  0  0  0  0
    0.4060   -9.9420  -26.7940 C   0  0  0  0  0  0  0  0  0  0  0  0
   -0.4630   -9.7300  -27.6230 O   0  0  0  0  0  0  0  0  0  0  0  0
    2.3120   -9.8650  -27.7310 H   0  0  0  0  0  0  0  0  0  0  0  0
    1.4540  -11.4290  -27.9020 H   0  0  0  0  0  0  0  0  0  0  0  0
    3.1410   -9.3540  -25.5720 H   0  0  0  0  0  0  0  0  0  0  0  0
    3.3300  -10.6980  -24.4170 H   0  0  0  0  0  0  0  0  0  0  0  0
    1.4650   -9.0080  -23.8250 H   0  0  0  0  0  0  0  0  0  0  0  0
    0.9710  -10.7180  -23.8800 H   0  0  0  0  0  0  0  0  0  0  0  0
   -2.1430   -9.5130  -25.3360 C   0  0  0  0  0  0  0  0  0  0  0  0
   -3.3150   -8.9570  -24.8420 C   0  0  0  0  0  0  0  0  0  0  0  0
   -4.2600   -9.4760  -24.9560 H   0  0  0  0  0  0  0  0  0  0  0  0
   -2.1970  -10.4310  -25.9180 H   0  0  0  0  0  0  0  0  0  0  0  0
    0.0640   -7.1840  -24.2040 H   0  0  0  0  0  0  0  0  0  0  0  0
   -2.0340   -6.1410  -23.4400 H   0  0  0  0  0  0  0  0  0  0  0  0
   -4.4930   -6.5140  -22.9670 H   0  0  0  0  0  0  0  0  0  0  0  0
  1  2  2  0  0  0  0
  2  3  1  0  0  0  0
  2 46  1  0  0  0  0
  3  4  1  0  0  0  0
  3 44  1  0  0  0  0
  3 45  1  0  0  0  0
  4  5  1  0  0  0  0
  4 34  1  0  0  0  0
  4 43  1  1  0  0  0
  5  6  1  0  0  0  0
  5 41  1  0  0  0  0
  5 42  1  0  0  0  0
  6  7  2  0  0  0  0
  6 12  1  0  0  0  0
  7  8  1  0  0  0  0
  7 40  1  0  0  0  0
  8  9  2  0  0  0  0
  8 39  1  0  0  0  0
  9 10  1  0  0  0  0
  9 11  1  0  0  0  0
 11 12  2  0  0  0  0
 11 38  1  0  0  0  0
 12 13  1  0  0  0  0
 13 14  1  0  0  0  0
 13 34  1  0  0  0  0
 13 37  1  1  0  0  0
 14 15  2  0  0  0  0
 14 16  1  0  0  0  0
 16 17  1  0  0  0  0
 16 33  1  0  0  0  0
 17 18  2  0  0  0  0
 17 26  1  0  0  0  0
 18 19  1  0  0  0  0
 18 32  1  0  0  0  0
 19 20  2  0  0  0  0
 20 21  1  0  0  0  0
 20 31  1  0  0  0  0
 21 22  2  0  0  0  0
 21 26  1  0  0  0  0
 22 23  1  0  0  0  0
 22 30  1  0  0  0  0
 23 24  2  0  0  0  0
 23 29  1  0  0  0  0
 24 25  1  0  0  0  0
 24 28  1  0  0  0  0
 25 26  2  0  0  0  0
 25 27  1  0  0  0  0
 34 35  1  0  0  0  0
 34 36  1  0  0  0  0
 46 47  1  0  0  0  0
 46 70  1  0  0  0  0
 47 48  2  0  0  0  0
 47 65  1  0  0  0  0
 48 49  1  0  0  0  0
 48 69  1  0  0  0  0
 49 50  2  0  0  0  0
 49 68  1  0  0  0  0
 50 51  1  0  0  0  0
 50 64  1  0  0  0  0
 51 52  1  0  0  0  0
 51 56  1  0  0  0  0
 52 53  1  0  0  0  0
 52 62  1  0  0  0  0
 52 63  1  0  0  0  0
 53 54  1  0  0  0  0
 53 60  1  0  0  0  0
 53 61  1  0  0  0  0
 54 55  1  0  0  0  0
 55 56  1  0  0  0  0
 55 58  1  0  0  0  0
 55 59  1  0  0  0  0
 56 57  2  0  0  0  0
 64 65  2  0  0  0  0
 64 67  1  0  0  0  0
 65 66  1  0  0  0  0
M  CHG  1   4   1
M  END
>  <MODEL>
       1

$$$$
