tmp_first_model_6_25.pdb
 OpenBabel08272519583D

 70 75  0  0  1  0  0  0  0  0999 V2000
   -5.8070   -7.8120  -25.5350 O   0  0  0  0  0  0  0  0  0  0  0  0
   -5.6780   -7.1860  -24.4950 C   0  0  0  0  0  0  0  0  0  0  0  0
   -6.8530   -6.4230  -23.8680 C   0  0  0  0  0  0  0  0  0  0  0  0
   -6.7810   -4.9140  -23.9740 N   0  3  1  0  0  0  0  0  0  0  0  0
   -6.7620   -4.5240  -25.4520 C   0  0  0  0  0  0  0  0  0  0  0  0
   -6.7700   -3.0280  -25.6400 C   0  0  0  0  0  0  0  0  0  0  0  0
   -6.2830   -2.4800  -26.8290 C   0  0  0  0  0  0  0  0  0  0  0  0
   -6.3000   -1.1090  -27.0520 C   0  0  0  0  0  0  0  0  0  0  0  0
   -6.8130   -0.2780  -26.0620 C   0  0  0  0  0  0  0  0  0  0  0  0
   -6.8500    1.4470  -26.3180 Cl  0  0  0  0  0  0  0  0  0  0  0  0
   -7.3020   -0.8060  -24.8750 C   0  0  0  0  0  0  0  0  0  0  0  0
   -7.2960   -2.1860  -24.6590 C   0  0  0  0  0  0  0  0  0  0  0  0
   -7.8090   -2.7010  -23.3240 C   0  0  2  0  0  0  0  0  0  0  0  0
   -6.8320   -2.3340  -22.2100 C   0  0  0  0  0  0  0  0  0  0  0  0
   -5.7230   -2.8440  -22.1950 O   0  0  0  0  0  0  0  0  0  0  0  0
   -7.3090   -1.4350  -21.2700 N   0  0  0  0  0  0  0  0  0  0  0  0
   -6.5580   -0.8540  -20.2130 C   0  0  0  0  0  0  0  0  0  0  0  0
   -6.8940   -1.0660  -18.8950 C   0  0  0  0  0  0  0  0  0  0  0  0
   -6.2110   -0.5660  -17.8350 N   0  0  0  0  0  0  0  0  0  0  0  0
   -5.1750    0.1980  -18.0830 C   0  0  0  0  0  0  0  0  0  0  0  0
   -4.7410    0.5340  -19.3950 C   0  0  0  0  0  0  0  0  0  0  0  0
   -3.6210    1.3810  -19.6190 C   0  0  0  0  0  0  0  0  0  0  0  0
   -3.2580    1.7200  -20.8940 C   0  0  0  0  0  0  0  0  0  0  0  0
   -4.0070    1.2480  -21.9960 C   0  0  0  0  0  0  0  0  0  0  0  0
   -5.0840    0.4180  -21.8060 C   0  0  0  0  0  0  0  0  0  0  0  0
   -5.4630    0.0200  -20.4940 C   0  0  0  0  0  0  0  0  0  0  0  0
   -5.6290    0.0290  -22.6600 H   0  0  0  0  0  0  0  0  0  0  0  0
   -3.6990    1.4970  -23.0080 H   0  0  0  0  0  0  0  0  0  0  0  0
   -2.3900    2.3500  -21.0700 H   0  0  0  0  0  0  0  0  0  0  0  0
   -3.0760    1.7500  -18.7530 H   0  0  0  0  0  0  0  0  0  0  0  0
   -4.6300    0.5960  -17.2260 H   0  0  0  0  0  0  0  0  0  0  0  0
   -7.7520   -1.6820  -18.6270 H   0  0  0  0  0  0  0  0  0  0  0  0
   -8.3140   -1.3730  -21.1710 H   0  0  0  0  0  0  0  0  0  0  0  0
   -7.9840   -4.2240  -23.3140 C   0  0  0  0  0  0  0  0  0  0  0  0
   -8.8840   -4.4980  -23.8720 H   0  0  0  0  0  0  0  0  0  0  0  0
   -8.0780   -4.5770  -22.2840 H   0  0  0  0  0  0  0  0  0  0  0  0
   -8.7660   -2.2210  -23.1040 H   0  0  0  0  0  0  0  0  0  0  0  0
   -7.6890   -0.1390  -24.1100 H   0  0  0  0  0  0  0  0  0  0  0  0
   -5.9240   -0.6780  -27.9750 H   0  0  0  0  0  0  0  0  0  0  0  0
   -5.8810   -3.1360  -27.5990 H   0  0  0  0  0  0  0  0  0  0  0  0
   -7.6460   -4.9740  -25.9300 H   0  0  0  0  0  0  0  0  0  0  0  0
   -5.8930   -4.9760  -25.9360 H   0  0  0  0  0  0  0  0  0  0  0  0
   -5.9430   -4.5030  -23.4950 H   0  0  0  0  0  0  0  0  0  0  0  0
   -7.7340   -6.7810  -24.4060 H   0  0  0  0  0  0  0  0  0  0  0  0
   -6.9800   -6.6960  -22.8190 H   0  0  0  0  0  0  0  0  0  0  0  0
   -4.5060   -7.1130  -23.7980 N   0  0  0  0  0  0  0  0  0  0  0  0
   -3.2960   -7.7500  -24.1780 C   0  0  0  0  0  0  0  0  0  0  0  0
   -2.0730   -7.1100  -23.9630 C   0  0  0  0  0  0  0  0  0  0  0  0
   -0.8890   -7.7070  -24.3870 C   0  0  0  0  0  0  0  0  0  0  0  0
   -0.9060   -8.9490  -25.0270 C   0  0  0  0  0  0  0  0  0  0  0  0
    0.3200   -9.5430  -25.4770 N   0  0  0  0  0  0  0  0  0  0  0  0
    1.3340   -9.8750  -24.4780 C   0  0  0  0  0  0  0  0  0  0  0  0
    2.6540  -10.2420  -25.1430 C   0  0  0  0  0  0  0  0  0  0  0  0
    2.4280  -11.1950  -26.1520 O   0  0  0  0  0  0  0  0  0  0  0  0
    1.7050  -10.6250  -27.2100 C   0  0  0  0  0  0  0  0  0  0  0  0
    0.4050   -9.9440  -26.7880 C   0  0  0  0  0  0  0  0  0  0  0  0
   -0.4680   -9.7270  -27.6090 O   0  0  0  0  0  0  0  0  0  0  0  0
    2.3130   -9.8660  -27.7330 H   0  0  0  0  0  0  0  0  0  0  0  0
    1.4550  -11.4290  -27.9060 H   0  0  0  0  0  0  0  0  0  0  0  0
    3.1450   -9.3540  -25.5710 H   0  0  0  0  0  0  0  0  0  0  0  0
    3.3360  -10.7000  -24.4180 H   0  0  0  0  0  0  0  0  0  0  0  0
    1.4740   -9.0120  -23.8200 H   0  0  0  0  0  0  0  0  0  0  0  0
    0.9790  -10.7230  -23.8770 H   0  0  0  0  0  0  0  0  0  0  0  0
   -2.1290   -9.6070  -25.1960 C   0  0  0  0  0  0  0  0  0  0  0  0
   -3.3120   -9.0110  -24.7740 C   0  0  0  0  0  0  0  0  0  0  0  0
   -4.2630   -9.5070  -24.9250 H   0  0  0  0  0  0  0  0  0  0  0  0
   -2.1630  -10.5790  -25.6870 H   0  0  0  0  0  0  0  0  0  0  0  0
    0.0590   -7.1910  -24.2320 H   0  0  0  0  0  0  0  0  0  0  0  0
   -2.0430   -6.1430  -23.4670 H   0  0  0  0  0  0  0  0  0  0  0  0
   -4.5060   -6.5300  -22.9770 H   0  0  0  0  0  0  0  0  0  0  0  0
  1  2  2  0  0  0  0
  2  3  1  0  0  0  0
  2 46  1  0  0  0  0
  3  4  1  0  0  0  0
  3 44  1  0  0  0  0
  3 45  1  0  0  0  0
  4  5  1  0  0  0  0
  4 34  1  0  0  0  0
  4 43  1  1  0  0  0
  5  6  1  0  0  0  0
  5 41  1  0  0  0  0
  5 42  1  0  0  0  0
  6  7  2  0  0  0  0
  6 12  1  0  0  0  0
  7  8  1  0  0  0  0
  7 40  1  0  0  0  0
  8  9  2  0  0  0  0
  8 39  1  0  0  0  0
  9 10  1  0  0  0  0
  9 11  1  0  0  0  0
 11 12  2  0  0  0  0
 11 38  1  0  0  0  0
 12 13  1  0  0  0  0
 13 14  1  0  0  0  0
 13 34  1  0  0  0  0
 13 37  1  1  0  0  0
 14 15  2  0  0  0  0
 14 16  1  0  0  0  0
 16 17  1  0  0  0  0
 16 33  1  0  0  0  0
 17 18  2  0  0  0  0
 17 26  1  0  0  0  0
 18 19  1  0  0  0  0
 18 32  1  0  0  0  0
 19 20  2  0  0  0  0
 20 21  1  0  0  0  0
 20 31  1  0  0  0  0
 21 22  2  0  0  0  0
 21 26  1  0  0  0  0
 22 23  1  0  0  0  0
 22 30  1  0  0  0  0
 23 24  2  0  0  0  0
 23 29  1  0  0  0  0
 24 25  1  0  0  0  0
 24 28  1  0  0  0  0
 25 26  2  0  0  0  0
 25 27  1  0  0  0  0
 34 35  1  0  0  0  0
 34 36  1  0  0  0  0
 46 47  1  0  0  0  0
 46 70  1  0  0  0  0
 47 48  2  0  0  0  0
 47 65  1  0  0  0  0
 48 49  1  0  0  0  0
 48 69  1  0  0  0  0
 49 50  2  0  0  0  0
 49 68  1  0  0  0  0
 50 51  1  0  0  0  0
 50 64  1  0  0  0  0
 51 52  1  0  0  0  0
 51 56  1  0  0  0  0
 52 53  1  0  0  0  0
 52 62  1  0  0  0  0
 52 63  1  0  0  0  0
 53 54  1  0  0  0  0
 53 60  1  0  0  0  0
 53 61  1  0  0  0  0
 54 55  1  0  0  0  0
 55 56  1  0  0  0  0
 55 58  1  0  0  0  0
 55 59  1  0  0  0  0
 56 57  2  0  0  0  0
 64 65  2  0  0  0  0
 64 67  1  0  0  0  0
 65 66  1  0  0  0  0
M  CHG  1   4   1
M  END
>  <MODEL>
       1

$$$$
