tmp_first_model_5_89.pdb
 OpenBabel08272519233D

 43 45  0  0  0  0  0  0  0  0999 V2000
   -6.2520    1.4940  -26.6440 C   0  0  0  0  0  0  0  0  0  0  0  0
   -7.4330    1.1150  -25.7460 C   0  0  0  0  0  0  0  0  0  0  0  0
   -8.7310    1.3490  -26.5340 C   0  0  0  0  0  0  0  0  0  0  0  0
   -9.6330    1.1110  -25.9630 H   0  0  0  0  0  0  0  0  0  0  0  0
   -8.7490    0.7390  -27.4440 H   0  0  0  0  0  0  0  0  0  0  0  0
   -8.8060    2.4000  -26.8380 H   0  0  0  0  0  0  0  0  0  0  0  0
   -7.2770   -0.3640  -25.3400 C   0  0  0  0  0  0  0  0  0  0  0  0
   -8.2470   -0.7880  -24.2400 C   0  0  0  0  0  0  0  0  0  0  0  0
   -8.1570    0.1190  -23.0990 N   0  0  0  0  0  0  0  0  0  0  0  0
   -8.2630   -0.2670  -21.7780 C   0  0  0  0  0  0  0  0  0  0  0  0
   -8.9070    0.3740  -20.9640 O   0  0  0  0  0  0  0  0  0  0  0  0
   -7.4440   -1.4830  -21.3290 C   0  0  0  0  0  0  0  0  0  0  0  0
   -6.4780   -1.0600  -20.2480 C   0  0  0  0  0  0  0  0  0  0  0  0
   -6.8020   -1.1680  -18.9210 C   0  0  0  0  0  0  0  0  0  0  0  0
   -6.0170   -0.7880  -17.8740 N   0  0  0  0  0  0  0  0  0  0  0  0
   -4.8610   -0.2460  -18.1830 C   0  0  0  0  0  0  0  0  0  0  0  0
   -4.4310    0.0020  -19.5200 C   0  0  0  0  0  0  0  0  0  0  0  0
   -3.2670    0.7810  -19.7820 C   0  0  0  0  0  0  0  0  0  0  0  0
   -3.1350    1.4260  -20.9800 C   0  0  0  0  0  0  0  0  0  0  0  0
   -4.0280    1.1140  -22.0380 C   0  0  0  0  0  0  0  0  0  0  0  0
   -5.0350    0.1980  -21.8680 C   0  0  0  0  0  0  0  0  0  0  0  0
   -5.3030   -0.3270  -20.5790 C   0  0  0  0  0  0  0  0  0  0  0  0
   -5.6740   -0.0890  -22.6980 H   0  0  0  0  0  0  0  0  0  0  0  0
   -3.8700    1.5610  -23.0130 H   0  0  0  0  0  0  0  0  0  0  0  0
   -2.3090    2.1170  -21.1390 H   0  0  0  0  0  0  0  0  0  0  0  0
   -2.5620    0.9280  -18.9640 H   0  0  0  0  0  0  0  0  0  0  0  0
   -4.2360    0.1360  -17.3670 H   0  0  0  0  0  0  0  0  0  0  0  0
   -7.7860   -1.5560  -18.6570 H   0  0  0  0  0  0  0  0  0  0  0  0
   -8.1500   -2.2270  -20.9420 H   0  0  0  0  0  0  0  0  0  0  0  0
   -6.9170   -1.9180  -22.1830 H   0  0  0  0  0  0  0  0  0  0  0  0
   -8.4040    1.5240  -23.4130 C   0  0  0  0  0  0  0  0  0  0  0  0
   -7.4060    1.9870  -24.4740 C   0  0  0  0  0  0  0  0  0  0  0  0
   -7.5810    3.0400  -24.7300 H   0  0  0  0  0  0  0  0  0  0  0  0
   -6.4000    1.9360  -24.0320 H   0  0  0  0  0  0  0  0  0  0  0  0
   -9.4440    1.6820  -23.7360 H   0  0  0  0  0  0  0  0  0  0  0  0
   -8.2780    2.0930  -22.4880 H   0  0  0  0  0  0  0  0  0  0  0  0
   -9.2740   -0.8000  -24.6380 H   0  0  0  0  0  0  0  0  0  0  0  0
   -8.0430   -1.8080  -23.9110 H   0  0  0  0  0  0  0  0  0  0  0  0
   -6.2510   -0.5200  -24.9820 H   0  0  0  0  0  0  0  0  0  0  0  0
   -7.3980   -1.0080  -26.2190 H   0  0  0  0  0  0  0  0  0  0  0  0
   -5.2980    1.3400  -26.1270 H   0  0  0  0  0  0  0  0  0  0  0  0
   -6.3040    2.5460  -26.9460 H   0  0  0  0  0  0  0  0  0  0  0  0
   -6.2420    0.8830  -27.5540 H   0  0  0  0  0  0  0  0  0  0  0  0
  1  2  1  0  0  0  0
  1 41  1  0  0  0  0
  1 42  1  0  0  0  0
  1 43  1  0  0  0  0
  2  3  1  0  0  0  0
  2  7  1  0  0  0  0
  2 32  1  0  0  0  0
  3  4  1  0  0  0  0
  3  5  1  0  0  0  0
  3  6  1  0  0  0  0
  7  8  1  0  0  0  0
  7 39  1  0  0  0  0
  7 40  1  0  0  0  0
  8  9  1  0  0  0  0
  8 37  1  0  0  0  0
  8 38  1  0  0  0  0
  9 10  1  0  0  0  0
  9 31  1  0  0  0  0
 10 11  2  0  0  0  0
 10 12  1  0  0  0  0
 12 13  1  0  0  0  0
 12 29  1  0  0  0  0
 12 30  1  0  0  0  0
 13 14  2  0  0  0  0
 13 22  1  0  0  0  0
 14 15  1  0  0  0  0
 14 28  1  0  0  0  0
 15 16  2  0  0  0  0
 16 17  1  0  0  0  0
 16 27  1  0  0  0  0
 17 18  2  0  0  0  0
 17 22  1  0  0  0  0
 18 19  1  0  0  0  0
 18 26  1  0  0  0  0
 19 20  2  0  0  0  0
 19 25  1  0  0  0  0
 20 21  1  0  0  0  0
 20 24  1  0  0  0  0
 21 22  2  0  0  0  0
 21 23  1  0  0  0  0
 31 32  1  0  0  0  0
 31 35  1  0  0  0  0
 31 36  1  0  0  0  0
 32 33  1  0  0  0  0
 32 34  1  0  0  0  0
M  END
>  <MODEL>
       1

$$$$
