tmp_first_model_12_87.pdb
 OpenBabel08272523333D

 59 64  0  0  1  0  0  0  0  0999 V2000
   -8.4380   -4.1980  -23.5610 C   0  0  0  0  0  0  0  0  0  0  0  0
   -8.6350   -3.2230  -22.4070 C   0  0  1  0  0  0  0  0  0  0  0  0
   -7.3220   -2.5530  -21.9770 C   0  0  0  0  0  0  0  0  0  0  0  0
   -7.7810   -1.3950  -21.2430 N   0  0  0  0  0  0  0  0  0  0  0  0
   -7.0410   -0.7900  -20.2020 C   0  0  0  0  0  0  0  0  0  0  0  0
   -7.3000   -1.1210  -18.8990 C   0  0  0  0  0  0  0  0  0  0  0  0
   -6.5350   -0.7230  -17.8550 N   0  0  0  0  0  0  0  0  0  0  0  0
   -5.4940    0.0300  -18.1060 C   0  0  0  0  0  0  0  0  0  0  0  0
   -5.1440    0.4880  -19.4060 C   0  0  0  0  0  0  0  0  0  0  0  0
   -4.0290    1.3330  -19.6330 C   0  0  0  0  0  0  0  0  0  0  0  0
   -3.7720    1.8120  -20.8880 C   0  0  0  0  0  0  0  0  0  0  0  0
   -4.6090    1.4630  -21.9710 C   0  0  0  0  0  0  0  0  0  0  0  0
   -5.6720    0.6150  -21.7820 C   0  0  0  0  0  0  0  0  0  0  0  0
   -5.9590    0.0980  -20.4920 C   0  0  0  0  0  0  0  0  0  0  0  0
   -6.3180    0.3410  -22.6120 H   0  0  0  0  0  0  0  0  0  0  0  0
   -4.4120    1.8800  -22.9540 H   0  0  0  0  0  0  0  0  0  0  0  0
   -2.9280    2.4740  -21.0570 H   0  0  0  0  0  0  0  0  0  0  0  0
   -3.4080    1.6050  -18.7840 H   0  0  0  0  0  0  0  0  0  0  0  0
   -4.8720    0.3210  -17.2580 H   0  0  0  0  0  0  0  0  0  0  0  0
   -8.1480   -1.7590  -18.6530 H   0  0  0  0  0  0  0  0  0  0  0  0
   -9.0710   -1.0270  -21.5460 C   0  0  0  0  0  0  0  0  0  0  0  0
   -9.6250   -0.0440  -21.0980 O   0  0  0  0  0  0  0  0  0  0  0  0
   -9.6250   -2.0400  -22.5930 C   0  0  1  0  0  0  0  0  0  0  0  0
   -9.5120   -1.3540  -23.9730 C   0  0  0  0  0  0  0  0  0  0  0  0
  -10.3430   -0.1640  -23.9810 N   0  0  0  0  0  0  0  0  0  0  0  0
   -9.7850    1.1290  -24.3270 C   0  0  0  0  0  0  0  0  0  0  0  0
   -9.8920    1.4060  -25.7910 C   0  0  0  0  0  0  0  0  0  0  0  0
   -9.2030    0.8230  -26.8280 C   0  0  0  0  0  0  0  0  0  0  0  0
   -9.8150    1.3180  -27.9840 C   0  0  0  0  0  0  0  0  0  0  0  0
  -10.8060    2.1540  -27.6930 N   0  0  0  0  0  0  0  0  0  0  0  0
  -10.8340    2.2060  -26.3500 N   0  0  0  0  0  0  0  0  0  0  0  0
  -11.7930    3.0660  -25.6680 C   0  0  0  0  0  0  0  0  0  0  0  0
  -11.2670    3.7800  -25.0230 H   0  0  0  0  0  0  0  0  0  0  0  0
  -12.4770    2.4620  -25.0630 H   0  0  0  0  0  0  0  0  0  0  0  0
  -12.3220    3.6040  -26.4550 H   0  0  0  0  0  0  0  0  0  0  0  0
   -9.5640    1.0890  -29.0080 H   0  0  0  0  0  0  0  0  0  0  0  0
   -8.4120    0.0920  -26.7730 H   0  0  0  0  0  0  0  0  0  0  0  0
  -10.2930    1.8980  -23.7310 H   0  0  0  0  0  0  0  0  0  0  0  0
   -8.7320    1.1120  -24.0230 H   0  0  0  0  0  0  0  0  0  0  0  0
  -11.6660   -0.2330  -23.6750 C   0  0  0  0  0  0  0  0  0  0  0  0
  -12.4960    0.5660  -24.1060 O   0  0  0  0  0  0  0  0  0  0  0  0
  -12.0290   -1.3060  -22.7080 C   0  0  0  0  0  0  0  0  0  0  0  0
  -13.3150   -1.2690  -22.1740 C   0  0  0  0  0  0  0  0  0  0  0  0
  -13.7350   -2.2430  -21.2920 C   0  0  0  0  0  0  0  0  0  0  0  0
  -12.8550   -3.2860  -21.0240 C   0  0  0  0  0  0  0  0  0  0  0  0
  -13.2520   -4.2460  -20.1720 F   0  0  0  0  0  0  0  0  0  0  0  0
  -11.5790   -3.3510  -21.5580 C   0  0  0  0  0  0  0  0  0  0  0  0
  -11.1010   -2.2900  -22.3300 C   0  0  0  0  0  0  0  0  0  0  0  0
  -10.9370   -4.1870  -21.3060 H   0  0  0  0  0  0  0  0  0  0  0  0
  -14.7180   -2.2340  -20.8340 H   0  0  0  0  0  0  0  0  0  0  0  0
  -13.9680   -0.4500  -22.4490 H   0  0  0  0  0  0  0  0  0  0  0  0
   -9.8260   -2.0480  -24.7650 H   0  0  0  0  0  0  0  0  0  0  0  0
   -8.4760   -1.0590  -24.1730 H   0  0  0  0  0  0  0  0  0  0  0  0
   -6.7210   -2.2680  -22.8570 H   0  0  0  0  0  0  0  0  0  0  0  0
   -6.7050   -3.1960  -21.3440 H   0  0  0  0  0  0  0  0  0  0  0  0
   -8.9940   -3.7730  -21.5310 H   0  0  0  0  0  0  0  0  0  0  0  0
   -9.3560   -4.7470  -23.7920 H   0  0  0  0  0  0  0  0  0  0  0  0
   -7.6620   -4.9260  -23.3010 H   0  0  0  0  0  0  0  0  0  0  0  0
   -8.1050   -3.6850  -24.4700 H   0  0  0  0  0  0  0  0  0  0  0  0
  1  2  1  0  0  0  0
  1 57  1  0  0  0  0
  1 58  1  0  0  0  0
  1 59  1  0  0  0  0
  2  3  1  0  0  0  0
  2 23  1  0  0  0  0
  2 56  1  1  0  0  0
  3  4  1  0  0  0  0
  3 54  1  0  0  0  0
  3 55  1  0  0  0  0
  4  5  1  0  0  0  0
  4 21  1  0  0  0  0
  5  6  2  0  0  0  0
  5 14  1  0  0  0  0
  6  7  1  0  0  0  0
  6 20  1  0  0  0  0
  7  8  2  0  0  0  0
  8  9  1  0  0  0  0
  8 19  1  0  0  0  0
  9 10  2  0  0  0  0
  9 14  1  0  0  0  0
 10 11  1  0  0  0  0
 10 18  1  0  0  0  0
 11 12  2  0  0  0  0
 11 17  1  0  0  0  0
 12 13  1  0  0  0  0
 12 16  1  0  0  0  0
 13 14  2  0  0  0  0
 13 15  1  0  0  0  0
 21 22  2  0  0  0  0
 23 21  1  1  0  0  0
 23 24  1  0  0  0  0
 23 48  1  0  0  0  0
 24 25  1  0  0  0  0
 24 52  1  0  0  0  0
 24 53  1  0  0  0  0
 25 26  1  0  0  0  0
 25 40  1  0  0  0  0
 26 27  1  0  0  0  0
 26 38  1  0  0  0  0
 26 39  1  0  0  0  0
 27 28  2  0  0  0  0
 27 31  1  0  0  0  0
 28 29  1  0  0  0  0
 28 37  1  0  0  0  0
 29 30  2  0  0  0  0
 29 36  1  0  0  0  0
 30 31  1  0  0  0  0
 31 32  1  0  0  0  0
 32 33  1  0  0  0  0
 32 34  1  0  0  0  0
 32 35  1  0  0  0  0
 40 41  2  0  0  0  0
 40 42  1  0  0  0  0
 42 43  2  0  0  0  0
 42 48  1  0  0  0  0
 43 44  1  0  0  0  0
 43 51  1  0  0  0  0
 44 45  2  0  0  0  0
 44 50  1  0  0  0  0
 45 46  1  0  0  0  0
 45 47  1  0  0  0  0
 47 48  2  0  0  0  0
 47 49  1  0  0  0  0
M  END
>  <MODEL>
       1

$$$$
