tmp_first_model_4_37.pdb
 OpenBabel08272518513D

 56 60  0  0  1  0  0  0  0  0999 V2000
   -7.2750    3.4170  -21.9260 C   0  0  0  0  0  0  0  0  0  0  0  0
   -8.1390    2.9710  -23.0100 N   0  0  0  0  0  0  0  0  0  0  0  0
   -7.5730    2.2380  -24.0120 C   0  0  0  0  0  0  0  0  0  0  0  0
   -6.3680    2.0560  -24.1000 O   0  0  0  0  0  0  0  0  0  0  0  0
   -8.5420    1.6440  -25.0380 C   0  0  0  0  0  0  0  0  0  0  0  0
   -9.2640    0.5200  -24.4700 N   0  0  0  0  0  0  0  0  0  0  0  0
   -8.5520   -0.7320  -24.2650 C   0  0  0  0  0  0  0  0  0  0  0  0
   -8.9900   -1.4390  -22.9580 C   0  0  2  0  0  0  0  0  0  0  0  0
   -8.4440   -0.6740  -21.7240 C   0  0  0  0  0  0  0  0  0  0  0  0
   -8.8370    0.3870  -21.2820 O   0  0  0  0  0  0  0  0  0  0  0  0
   -7.4070   -1.4040  -21.1960 N   0  0  0  0  0  0  0  0  0  0  0  0
   -6.5280   -0.9350  -20.1920 C   0  0  0  0  0  0  0  0  0  0  0  0
   -6.7710   -1.2470  -18.8860 C   0  0  0  0  0  0  0  0  0  0  0  0
   -5.9100   -0.9960  -17.8690 N   0  0  0  0  0  0  0  0  0  0  0  0
   -4.7850   -0.3930  -18.1660 C   0  0  0  0  0  0  0  0  0  0  0  0
   -4.4370    0.0350  -19.4780 C   0  0  0  0  0  0  0  0  0  0  0  0
   -3.2720    0.7950  -19.7380 C   0  0  0  0  0  0  0  0  0  0  0  0
   -3.0510    1.3200  -20.9840 C   0  0  0  0  0  0  0  0  0  0  0  0
   -3.9330    1.0230  -22.0510 C   0  0  0  0  0  0  0  0  0  0  0  0
   -5.0360    0.2380  -21.8370 C   0  0  0  0  0  0  0  0  0  0  0  0
   -5.3300   -0.2460  -20.5350 C   0  0  0  0  0  0  0  0  0  0  0  0
   -5.6940   -0.0060  -22.6680 H   0  0  0  0  0  0  0  0  0  0  0  0
   -3.7650    1.4560  -23.0320 H   0  0  0  0  0  0  0  0  0  0  0  0
   -2.2030    1.9750  -21.1550 H   0  0  0  0  0  0  0  0  0  0  0  0
   -2.6180    1.0100  -18.8980 H   0  0  0  0  0  0  0  0  0  0  0  0
   -4.0840   -0.1900  -17.3550 H   0  0  0  0  0  0  0  0  0  0  0  0
   -7.7040   -1.7520  -18.6380 H   0  0  0  0  0  0  0  0  0  0  0  0
   -7.0780   -2.6050  -21.9180 C   0  0  0  0  0  0  0  0  0  0  0  0
   -8.3010   -2.8370  -22.8160 C   0  0  2  0  0  0  0  0  0  0  0  0
   -7.9150   -3.5730  -24.0950 C   0  0  0  0  0  0  0  0  0  0  0  0
   -7.1480   -3.0170  -24.6470 H   0  0  0  0  0  0  0  0  0  0  0  0
   -7.4950   -4.5510  -23.8390 H   0  0  0  0  0  0  0  0  0  0  0  0
   -8.7730   -3.7290  -24.7580 H   0  0  0  0  0  0  0  0  0  0  0  0
   -8.9920   -3.4800  -22.2660 H   0  0  0  0  0  0  0  0  0  0  0  0
   -6.1480   -2.4940  -22.5050 H   0  0  0  0  0  0  0  0  0  0  0  0
   -6.9230   -3.4230  -21.2070 H   0  0  0  0  0  0  0  0  0  0  0  0
  -10.5070   -1.4520  -22.9030 C   0  0  0  0  0  0  0  0  0  0  0  0
  -11.1760   -2.3110  -22.0290 C   0  0  0  0  0  0  0  0  0  0  0  0
  -12.5560   -2.3170  -21.9460 C   0  0  0  0  0  0  0  0  0  0  0  0
  -13.3160   -1.4420  -22.7240 C   0  0  0  0  0  0  0  0  0  0  0  0
  -12.6720   -0.5480  -23.5530 C   0  0  0  0  0  0  0  0  0  0  0  0
  -11.2790   -0.5300  -23.6200 C   0  0  0  0  0  0  0  0  0  0  0  0
  -10.6320    0.5640  -24.4180 C   0  0  0  0  0  0  0  0  0  0  0  0
  -11.2860    1.4480  -24.9480 O   0  0  0  0  0  0  0  0  0  0  0  0
  -13.2180    0.1740  -24.1470 H   0  0  0  0  0  0  0  0  0  0  0  0
  -14.3990   -1.4470  -22.6510 H   0  0  0  0  0  0  0  0  0  0  0  0
  -13.0400   -3.0030  -21.2620 H   0  0  0  0  0  0  0  0  0  0  0  0
  -10.6180   -2.9820  -21.3820 H   0  0  0  0  0  0  0  0  0  0  0  0
   -8.7470   -1.4110  -25.1070 H   0  0  0  0  0  0  0  0  0  0  0  0
   -7.4750   -0.5300  -24.2440 H   0  0  0  0  0  0  0  0  0  0  0  0
   -7.9610    1.3200  -25.9080 H   0  0  0  0  0  0  0  0  0  0  0  0
   -9.2820    2.3790  -25.3680 H   0  0  0  0  0  0  0  0  0  0  0  0
   -9.1150    2.8180  -22.7860 H   0  0  0  0  0  0  0  0  0  0  0  0
   -6.7110    2.5690  -21.5060 H   0  0  0  0  0  0  0  0  0  0  0  0
   -6.5640    4.1620  -22.2960 H   0  0  0  0  0  0  0  0  0  0  0  0
   -7.8780    3.8860  -21.1460 H   0  0  0  0  0  0  0  0  0  0  0  0
  1  2  1  0  0  0  0
  1 54  1  0  0  0  0
  1 55  1  0  0  0  0
  1 56  1  0  0  0  0
  2  3  1  0  0  0  0
  2 53  1  0  0  0  0
  3  4  2  0  0  0  0
  3  5  1  0  0  0  0
  5  6  1  0  0  0  0
  5 51  1  0  0  0  0
  5 52  1  0  0  0  0
  6  7  1  0  0  0  0
  6 43  1  0  0  0  0
  7  8  1  0  0  0  0
  7 49  1  0  0  0  0
  7 50  1  0  0  0  0
  8  9  1  1  0  0  0
  8 29  1  0  0  0  0
  8 37  1  0  0  0  0
  9 10  2  0  0  0  0
  9 11  1  0  0  0  0
 11 12  1  0  0  0  0
 11 28  1  0  0  0  0
 12 13  2  0  0  0  0
 12 21  1  0  0  0  0
 13 14  1  0  0  0  0
 13 27  1  0  0  0  0
 14 15  2  0  0  0  0
 15 16  1  0  0  0  0
 15 26  1  0  0  0  0
 16 17  2  0  0  0  0
 16 21  1  0  0  0  0
 17 18  1  0  0  0  0
 17 25  1  0  0  0  0
 18 19  2  0  0  0  0
 18 24  1  0  0  0  0
 19 20  1  0  0  0  0
 19 23  1  0  0  0  0
 20 21  2  0  0  0  0
 20 22  1  0  0  0  0
 28 29  1  0  0  0  0
 28 35  1  0  0  0  0
 28 36  1  0  0  0  0
 29 30  1  0  0  0  0
 29 34  1  1  0  0  0
 30 31  1  0  0  0  0
 30 32  1  0  0  0  0
 30 33  1  0  0  0  0
 37 38  2  0  0  0  0
 37 42  1  0  0  0  0
 38 39  1  0  0  0  0
 38 48  1  0  0  0  0
 39 40  2  0  0  0  0
 39 47  1  0  0  0  0
 40 41  1  0  0  0  0
 40 46  1  0  0  0  0
 41 42  2  0  0  0  0
 41 45  1  0  0  0  0
 42 43  1  0  0  0  0
 43 44  2  0  0  0  0
M  END
>  <MODEL>
       1

$$$$
