tmp_first_model_18_80.pdb
 OpenBabel08282502533D

 60 65  0  0  1  0  0  0  0  0999 V2000
   -6.9510    3.3150  -23.3700 C   0  0  0  0  0  0  0  0  0  0  0  0
   -7.6870    2.3860  -24.2100 N   0  0  0  0  0  0  0  0  0  0  0  0
   -7.0400    1.4140  -24.8850 C   0  0  0  0  0  0  0  0  0  0  0  0
   -5.8210    1.2820  -24.8570 O   0  0  0  0  0  0  0  0  0  0  0  0
   -7.9140    0.5270  -25.7560 C   0  0  0  0  0  0  0  0  0  0  0  0
   -8.9200   -0.2530  -25.0910 N   0  0  0  0  0  0  0  0  0  0  0  0
   -8.4810   -1.4570  -24.4040 C   0  0  0  0  0  0  0  0  0  0  0  0
   -9.1750   -1.6380  -23.0240 C   0  0  2  0  0  0  0  0  0  0  0  0
   -8.5980   -0.6180  -22.0000 C   0  0  0  0  0  0  0  0  0  0  0  0
   -8.9380    0.5330  -21.8330 O   0  0  0  0  0  0  0  0  0  0  0  0
   -7.6050   -1.2590  -21.2810 N   0  0  0  0  0  0  0  0  0  0  0  0
   -6.8220   -0.6720  -20.2530 C   0  0  0  0  0  0  0  0  0  0  0  0
   -7.1110   -0.9590  -18.9410 C   0  0  0  0  0  0  0  0  0  0  0  0
   -6.3940   -0.5220  -17.8770 N   0  0  0  0  0  0  0  0  0  0  0  0
   -5.3370    0.2140  -18.1270 C   0  0  0  0  0  0  0  0  0  0  0  0
   -4.8990    0.5620  -19.4360 C   0  0  0  0  0  0  0  0  0  0  0  0
   -3.7290    1.3370  -19.6560 C   0  0  0  0  0  0  0  0  0  0  0  0
   -3.3020    1.6070  -20.9270 C   0  0  0  0  0  0  0  0  0  0  0  0
   -4.0320    1.1280  -22.0360 C   0  0  0  0  0  0  0  0  0  0  0  0
   -5.1840    0.4050  -21.8510 C   0  0  0  0  0  0  0  0  0  0  0  0
   -5.6510    0.0990  -20.5440 C   0  0  0  0  0  0  0  0  0  0  0  0
   -5.7430    0.0750  -22.7220 H   0  0  0  0  0  0  0  0  0  0  0  0
   -3.7010    1.3390  -23.0480 H   0  0  0  0  0  0  0  0  0  0  0  0
   -2.4000    2.1910  -21.0910 H   0  0  0  0  0  0  0  0  0  0  0  0
   -3.1900    1.7120  -18.7910 H   0  0  0  0  0  0  0  0  0  0  0  0
   -4.7590    0.5640  -17.2710 H   0  0  0  0  0  0  0  0  0  0  0  0
   -7.9720   -1.5860  -18.7050 H   0  0  0  0  0  0  0  0  0  0  0  0
   -7.4210   -2.6460  -21.6500 C   0  0  0  0  0  0  0  0  0  0  0  0
   -8.7420   -2.9660  -22.3490 C   0  0  2  0  0  0  0  0  0  0  0  0
   -8.7000   -4.1910  -23.2450 C   0  0  0  0  0  0  0  0  0  0  0  0
   -7.8920   -4.1120  -23.9840 H   0  0  0  0  0  0  0  0  0  0  0  0
   -9.6470   -4.3010  -23.7850 H   0  0  0  0  0  0  0  0  0  0  0  0
   -8.5260   -5.0950  -22.6530 H   0  0  0  0  0  0  0  0  0  0  0  0
   -9.4650   -3.1270  -21.5450 H   0  0  0  0  0  0  0  0  0  0  0  0
   -7.2570   -3.2600  -20.7610 H   0  0  0  0  0  0  0  0  0  0  0  0
   -6.5510   -2.7960  -22.3130 H   0  0  0  0  0  0  0  0  0  0  0  0
  -10.6730   -1.4980  -23.2360 C   0  0  0  0  0  0  0  0  0  0  0  0
  -11.6090   -2.1410  -22.4090 C   0  0  0  0  0  0  0  0  0  0  0  0
  -12.9620   -2.0010  -22.6470 C   0  0  0  0  0  0  0  0  0  0  0  0
  -14.0870   -2.9390  -21.7000 Cl  0  0  0  0  0  0  0  0  0  0  0  0
  -13.4500   -1.1660  -23.6450 C   0  0  0  0  0  0  0  0  0  0  0  0
  -12.5420   -0.5170  -24.4620 C   0  0  0  0  0  0  0  0  0  0  0  0
  -11.1650   -0.6810  -24.2670 C   0  0  0  0  0  0  0  0  0  0  0  0
  -10.2360    0.1260  -25.1190 C   0  0  0  0  0  0  0  0  0  0  0  0
  -10.6240    1.0830  -25.7780 O   0  0  0  0  0  0  0  0  0  0  0  0
  -12.8970    0.1280  -25.2580 H   0  0  0  0  0  0  0  0  0  0  0  0
  -14.5260   -1.0470  -23.7260 H   0  0  0  0  0  0  0  0  0  0  0  0
  -11.3100   -2.8010  -21.6050 H   0  0  0  0  0  0  0  0  0  0  0  0
   -7.3990   -1.3720  -24.2870 H   0  0  0  0  0  0  0  0  0  0  0  0
   -8.6940   -2.3280  -25.0390 H   0  0  0  0  0  0  0  0  0  0  0  0
   -7.1720   -0.1010  -26.9100 C   0  0  0  0  0  0  0  0  0  0  0  0
   -8.1220    1.0220  -27.1600 C   0  0  0  0  0  0  0  0  0  0  0  0
   -9.0810    0.8030  -27.6130 H   0  0  0  0  0  0  0  0  0  0  0  0
   -7.7150    1.9950  -27.4080 H   0  0  0  0  0  0  0  0  0  0  0  0
   -7.4890   -1.0960  -27.2010 H   0  0  0  0  0  0  0  0  0  0  0  0
   -6.1110    0.1210  -26.9520 H   0  0  0  0  0  0  0  0  0  0  0  0
   -8.6950    2.3450  -24.1680 H   0  0  0  0  0  0  0  0  0  0  0  0
   -6.5310    2.8100  -22.4880 H   0  0  0  0  0  0  0  0  0  0  0  0
   -6.1180    3.7440  -23.9370 H   0  0  0  0  0  0  0  0  0  0  0  0
   -7.6090    4.1250  -23.0500 H   0  0  0  0  0  0  0  0  0  0  0  0
  1  2  1  0  0  0  0
  1 58  1  0  0  0  0
  1 59  1  0  0  0  0
  1 60  1  0  0  0  0
  2  3  1  0  0  0  0
  2 57  1  0  0  0  0
  3  4  2  0  0  0  0
  3  5  1  0  0  0  0
  5  6  1  0  0  0  0
  5 51  1  0  0  0  0
  5 52  1  0  0  0  0
  6  7  1  0  0  0  0
  6 44  1  0  0  0  0
  7  8  1  0  0  0  0
  7 49  1  0  0  0  0
  7 50  1  0  0  0  0
  8  9  1  1  0  0  0
  8 29  1  0  0  0  0
  8 37  1  0  0  0  0
  9 10  2  0  0  0  0
  9 11  1  0  0  0  0
 11 12  1  0  0  0  0
 11 28  1  0  0  0  0
 12 13  2  0  0  0  0
 12 21  1  0  0  0  0
 13 14  1  0  0  0  0
 13 27  1  0  0  0  0
 14 15  2  0  0  0  0
 15 16  1  0  0  0  0
 15 26  1  0  0  0  0
 16 17  2  0  0  0  0
 16 21  1  0  0  0  0
 17 18  1  0  0  0  0
 17 25  1  0  0  0  0
 18 19  2  0  0  0  0
 18 24  1  0  0  0  0
 19 20  1  0  0  0  0
 19 23  1  0  0  0  0
 20 21  2  0  0  0  0
 20 22  1  0  0  0  0
 28 29  1  0  0  0  0
 28 35  1  0  0  0  0
 28 36  1  0  0  0  0
 29 30  1  0  0  0  0
 29 34  1  1  0  0  0
 30 31  1  0  0  0  0
 30 32  1  0  0  0  0
 30 33  1  0  0  0  0
 37 38  2  0  0  0  0
 37 43  1  0  0  0  0
 38 39  1  0  0  0  0
 38 48  1  0  0  0  0
 39 40  1  0  0  0  0
 39 41  2  0  0  0  0
 41 42  1  0  0  0  0
 41 47  1  0  0  0  0
 42 43  2  0  0  0  0
 42 46  1  0  0  0  0
 43 44  1  0  0  0  0
 44 45  2  0  0  0  0
 51 52  1  0  0  0  0
 51 55  1  0  0  0  0
 51 56  1  0  0  0  0
 52 53  1  0  0  0  0
 52 54  1  0  0  0  0
M  END
>  <MODEL>
       1

$$$$
