tmp_first_model_20_46.pdb
 OpenBabel08282503553D

 50 54  0  0  1  0  0  0  0  0999 V2000
  -10.4120   -0.9960  -23.3780 C   0  0  0  0  0  0  0  0  0  0  0  0
   -8.9850   -1.3770  -22.9880 C   0  0  1  0  0  0  0  0  0  0  0  0
   -8.3980   -0.4630  -21.8970 C   0  0  0  0  0  0  0  0  0  0  0  0
   -7.4080   -1.3040  -21.2450 N   0  0  0  0  0  0  0  0  0  0  0  0
   -6.5930   -0.8360  -20.1860 C   0  0  0  0  0  0  0  0  0  0  0  0
   -6.9080   -1.1000  -18.8770 C   0  0  0  0  0  0  0  0  0  0  0  0
   -6.2360   -0.5820  -17.8150 N   0  0  0  0  0  0  0  0  0  0  0  0
   -5.2070    0.1930  -18.0670 C   0  0  0  0  0  0  0  0  0  0  0  0
   -4.7510    0.5200  -19.3790 C   0  0  0  0  0  0  0  0  0  0  0  0
   -3.6150    1.3400  -19.6180 C   0  0  0  0  0  0  0  0  0  0  0  0
   -3.2180    1.6110  -20.9000 C   0  0  0  0  0  0  0  0  0  0  0  0
   -3.9280    1.0780  -21.9990 C   0  0  0  0  0  0  0  0  0  0  0  0
   -5.0270    0.2820  -21.7940 C   0  0  0  0  0  0  0  0  0  0  0  0
   -5.4660   -0.0060  -20.4760 C   0  0  0  0  0  0  0  0  0  0  0  0
   -5.5690   -0.1470  -22.6290 H   0  0  0  0  0  0  0  0  0  0  0  0
   -3.6050    1.3020  -23.0110 H   0  0  0  0  0  0  0  0  0  0  0  0
   -2.3500    2.2390  -21.0850 H   0  0  0  0  0  0  0  0  0  0  0  0
   -3.0650    1.7330  -18.7670 H   0  0  0  0  0  0  0  0  0  0  0  0
   -4.6760    0.6060  -17.2080 H   0  0  0  0  0  0  0  0  0  0  0  0
   -7.7490   -1.7470  -18.6310 H   0  0  0  0  0  0  0  0  0  0  0  0
   -7.5910   -2.6500  -21.4720 C   0  0  0  0  0  0  0  0  0  0  0  0
   -6.9010   -3.5230  -20.9890 O   0  0  0  0  0  0  0  0  0  0  0  0
   -8.7870   -2.8330  -22.4220 C   0  0  1  0  0  0  0  0  0  0  0  0
   -9.9870   -3.2740  -21.5470 C   0  0  0  0  0  0  0  0  0  0  0  0
  -11.1510   -3.6670  -22.3340 N   0  0  0  0  0  0  0  0  0  0  0  0
  -12.5140   -3.4580  -21.8490 C   0  0  0  0  0  0  0  0  0  0  0  0
  -13.3530   -2.6240  -22.7340 C   0  0  0  0  0  0  0  0  0  0  0  0
  -14.0500   -1.9950  -23.4070 N   0  0  0  0  0  0  0  0  0  0  0  0
  -12.4850   -2.9810  -20.8680 H   0  0  0  0  0  0  0  0  0  0  0  0
  -13.0270   -4.4150  -21.7490 H   0  0  0  0  0  0  0  0  0  0  0  0
  -10.9950   -4.5130  -23.4060 C   0  0  0  0  0  0  0  0  0  0  0  0
  -11.9470   -5.0370  -23.9580 O   0  0  0  0  0  0  0  0  0  0  0  0
   -9.5890   -4.7130  -23.9100 C   0  0  0  0  0  0  0  0  0  0  0  0
   -9.3550   -5.6970  -24.8760 C   0  0  0  0  0  0  0  0  0  0  0  0
   -8.0910   -5.9200  -25.3920 C   0  0  0  0  0  0  0  0  0  0  0  0
   -7.0580   -5.1170  -24.9250 C   0  0  0  0  0  0  0  0  0  0  0  0
   -5.8280   -5.3140  -25.4230 F   0  0  0  0  0  0  0  0  0  0  0  0
   -7.2500   -4.1220  -23.9840 C   0  0  0  0  0  0  0  0  0  0  0  0
   -8.5310   -3.9180  -23.4500 C   0  0  0  0  0  0  0  0  0  0  0  0
   -6.3920   -3.5320  -23.6740 H   0  0  0  0  0  0  0  0  0  0  0  0
   -7.9010   -6.6880  -26.1420 H   0  0  0  0  0  0  0  0  0  0  0  0
  -10.2020   -6.2640  -25.2430 H   0  0  0  0  0  0  0  0  0  0  0  0
   -9.6520   -4.0940  -20.9000 H   0  0  0  0  0  0  0  0  0  0  0  0
  -10.2470   -2.4370  -20.8970 H   0  0  0  0  0  0  0  0  0  0  0  0
   -9.1670   -0.1350  -21.1810 H   0  0  0  0  0  0  0  0  0  0  0  0
   -7.9400    0.4470  -22.2960 H   0  0  0  0  0  0  0  0  0  0  0  0
   -8.3410   -1.3070  -23.8730 H   0  0  0  0  0  0  0  0  0  0  0  0
  -10.4600   -0.0040  -23.8360 H   0  0  0  0  0  0  0  0  0  0  0  0
  -11.0710   -0.9750  -22.5030 H   0  0  0  0  0  0  0  0  0  0  0  0
  -10.8240   -1.7230  -24.0830 H   0  0  0  0  0  0  0  0  0  0  0  0
  1  2  1  0  0  0  0
  1 48  1  0  0  0  0
  1 49  1  0  0  0  0
  1 50  1  0  0  0  0
  2  3  1  0  0  0  0
  2 23  1  0  0  0  0
  2 47  1  6  0  0  0
  3  4  1  0  0  0  0
  3 45  1  0  0  0  0
  3 46  1  0  0  0  0
  4  5  1  0  0  0  0
  4 21  1  0  0  0  0
  5  6  2  0  0  0  0
  5 14  1  0  0  0  0
  6  7  1  0  0  0  0
  6 20  1  0  0  0  0
  7  8  2  0  0  0  0
  8  9  1  0  0  0  0
  8 19  1  0  0  0  0
  9 10  2  0  0  0  0
  9 14  1  0  0  0  0
 10 11  1  0  0  0  0
 10 18  1  0  0  0  0
 11 12  2  0  0  0  0
 11 17  1  0  0  0  0
 12 13  1  0  0  0  0
 12 16  1  0  0  0  0
 13 14  2  0  0  0  0
 13 15  1  0  0  0  0
 21 22  2  0  0  0  0
 23 21  1  1  0  0  0
 23 24  1  0  0  0  0
 23 39  1  0  0  0  0
 24 25  1  0  0  0  0
 24 43  1  0  0  0  0
 24 44  1  0  0  0  0
 25 26  1  0  0  0  0
 25 31  1  0  0  0  0
 26 27  1  0  0  0  0
 26 29  1  0  0  0  0
 26 30  1  0  0  0  0
 27 28  3  0  0  0  0
 31 32  2  0  0  0  0
 31 33  1  0  0  0  0
 33 34  2  0  0  0  0
 33 39  1  0  0  0  0
 34 35  1  0  0  0  0
 34 42  1  0  0  0  0
 35 36  2  0  0  0  0
 35 41  1  0  0  0  0
 36 37  1  0  0  0  0
 36 38  1  0  0  0  0
 38 39  2  0  0  0  0
 38 40  1  0  0  0  0
M  END
>  <MODEL>
       1

$$$$
