tmp_first_model_16_97.pdb
 OpenBabel08282501503D

 40 43  0  0  1  0  0  0  0  0999 V2000
  -12.5650   -1.4480  -23.7760 C   0  0  0  0  0  0  0  0  0  0  0  0
  -11.1660   -0.8700  -23.5390 C   0  0  2  0  0  0  0  0  0  0  0  0
  -10.7090   -0.0500  -24.7460 C   0  0  0  0  0  0  0  0  0  0  0  0
   -9.4100    0.4660  -24.5650 O   0  0  0  0  0  0  0  0  0  0  0  0
   -8.4540   -0.5580  -24.4510 C   0  0  0  0  0  0  0  0  0  0  0  0
   -8.6940   -1.4440  -23.2120 C   0  0  1  0  0  0  0  0  0  0  0  0
  -10.1380   -1.9720  -23.2640 C   0  0  0  0  0  0  0  0  0  0  0  0
  -10.3490   -2.4730  -22.3120 H   0  0  0  0  0  0  0  0  0  0  0  0
  -10.1910   -2.7370  -24.0580 H   0  0  0  0  0  0  0  0  0  0  0  0
   -7.7290   -2.5200  -23.1320 N   0  0  0  0  0  0  0  0  0  0  0  0
   -6.9420   -2.5100  -22.0220 C   0  0  0  0  0  0  0  0  0  0  0  0
   -6.0540   -3.2740  -21.7250 O   0  0  0  0  0  0  0  0  0  0  0  0
   -7.3600   -1.3930  -21.2750 N   0  0  0  0  0  0  0  0  0  0  0  0
   -6.5890   -0.8350  -20.2210 C   0  0  0  0  0  0  0  0  0  0  0  0
   -6.9370   -1.0960  -18.9260 C   0  0  0  0  0  0  0  0  0  0  0  0
   -6.2000   -0.6890  -17.8670 N   0  0  0  0  0  0  0  0  0  0  0  0
   -5.1300    0.0290  -18.1070 C   0  0  0  0  0  0  0  0  0  0  0  0
   -4.7130    0.4580  -19.4040 C   0  0  0  0  0  0  0  0  0  0  0  0
   -3.6070    1.3270  -19.6280 C   0  0  0  0  0  0  0  0  0  0  0  0
   -3.2220    1.6430  -20.9010 C   0  0  0  0  0  0  0  0  0  0  0  0
   -3.9300    1.1230  -22.0100 C   0  0  0  0  0  0  0  0  0  0  0  0
   -5.0220    0.3190  -21.8210 C   0  0  0  0  0  0  0  0  0  0  0  0
   -5.4480   -0.0200  -20.5050 C   0  0  0  0  0  0  0  0  0  0  0  0
   -5.5630   -0.0770  -22.6760 H   0  0  0  0  0  0  0  0  0  0  0  0
   -3.6050    1.3580  -23.0170 H   0  0  0  0  0  0  0  0  0  0  0  0
   -2.3610    2.2810  -21.0790 H   0  0  0  0  0  0  0  0  0  0  0  0
   -3.0920    1.7380  -18.7660 H   0  0  0  0  0  0  0  0  0  0  0  0
   -4.5330    0.2930  -17.2370 H   0  0  0  0  0  0  0  0  0  0  0  0
   -7.8190   -1.6930  -18.6950 H   0  0  0  0  0  0  0  0  0  0  0  0
   -8.3880   -0.6910  -21.9000 C   0  0  0  0  0  0  0  0  0  0  0  0
   -8.8940    0.3100  -21.4560 O   0  0  0  0  0  0  0  0  0  0  0  0
   -7.5860   -3.2210  -23.8400 H   0  0  0  0  0  0  0  0  0  0  0  0
   -7.4790   -0.0710  -24.3720 H   0  0  0  0  0  0  0  0  0  0  0  0
   -8.4690   -1.2030  -25.3500 H   0  0  0  0  0  0  0  0  0  0  0  0
  -10.7450   -0.6840  -25.6560 H   0  0  0  0  0  0  0  0  0  0  0  0
  -11.3550    0.8230  -24.8900 H   0  0  0  0  0  0  0  0  0  0  0  0
  -11.1740   -0.1960  -22.6720 H   0  0  0  0  0  0  0  0  0  0  0  0
  -12.9020   -2.0350  -22.9130 H   0  0  0  0  0  0  0  0  0  0  0  0
  -13.3000   -0.6540  -23.9510 H   0  0  0  0  0  0  0  0  0  0  0  0
  -12.5760   -2.1100  -24.6530 H   0  0  0  0  0  0  0  0  0  0  0  0
  1  2  1  0  0  0  0
  1 38  1  0  0  0  0
  1 39  1  0  0  0  0
  1 40  1  0  0  0  0
  2  3  1  0  0  0  0
  2  7  1  0  0  0  0
  2 37  1  1  0  0  0
  3  4  1  0  0  0  0
  3 35  1  0  0  0  0
  3 36  1  0  0  0  0
  4  5  1  0  0  0  0
  5  6  1  0  0  0  0
  5 33  1  0  0  0  0
  5 34  1  0  0  0  0
  6  7  1  0  0  0  0
  6 10  1  0  0  0  0
  6 30  1  1  0  0  0
  7  8  1  0  0  0  0
  7  9  1  0  0  0  0
 10 11  1  0  0  0  0
 10 32  1  0  0  0  0
 11 12  2  0  0  0  0
 11 13  1  0  0  0  0
 13 14  1  0  0  0  0
 13 30  1  0  0  0  0
 14 15  2  0  0  0  0
 14 23  1  0  0  0  0
 15 16  1  0  0  0  0
 15 29  1  0  0  0  0
 16 17  2  0  0  0  0
 17 18  1  0  0  0  0
 17 28  1  0  0  0  0
 18 19  2  0  0  0  0
 18 23  1  0  0  0  0
 19 20  1  0  0  0  0
 19 27  1  0  0  0  0
 20 21  2  0  0  0  0
 20 26  1  0  0  0  0
 21 22  1  0  0  0  0
 21 25  1  0  0  0  0
 22 23  2  0  0  0  0
 22 24  1  0  0  0  0
 30 31  2  0  0  0  0
M  END
>  <MODEL>
       1

$$$$
