tmp_first_model_13_61.pdb
 OpenBabel08282500103D

 44 47  0  0  0  0  0  0  0  0999 V2000
   -8.3310    0.7530  -21.6850 O   0  0  0  0  0  0  0  0  0  0  0  0
   -8.5070   -0.4480  -21.8010 C   0  0  0  0  0  0  0  0  0  0  0  0
   -7.4560   -1.4430  -21.2560 C   0  0  0  0  0  0  0  0  0  0  0  0
   -6.5790   -0.8330  -20.1820 C   0  0  0  0  0  0  0  0  0  0  0  0
   -6.8740   -1.0410  -18.8610 C   0  0  0  0  0  0  0  0  0  0  0  0
   -6.1880   -0.5320  -17.8050 N   0  0  0  0  0  0  0  0  0  0  0  0
   -5.1530    0.2240  -18.0680 C   0  0  0  0  0  0  0  0  0  0  0  0
   -4.7210    0.5370  -19.3830 C   0  0  0  0  0  0  0  0  0  0  0  0
   -3.5960    1.3680  -19.6210 C   0  0  0  0  0  0  0  0  0  0  0  0
   -3.2080    1.6620  -20.9000 C   0  0  0  0  0  0  0  0  0  0  0  0
   -3.9330    1.1360  -21.9920 C   0  0  0  0  0  0  0  0  0  0  0  0
   -5.0250    0.3280  -21.7860 C   0  0  0  0  0  0  0  0  0  0  0  0
   -5.4540    0.0010  -20.4740 C   0  0  0  0  0  0  0  0  0  0  0  0
   -5.5820   -0.0490  -22.6380 H   0  0  0  0  0  0  0  0  0  0  0  0
   -3.6270    1.3790  -23.0050 H   0  0  0  0  0  0  0  0  0  0  0  0
   -2.3520    2.3070  -21.0850 H   0  0  0  0  0  0  0  0  0  0  0  0
   -3.0540    1.7740  -18.7690 H   0  0  0  0  0  0  0  0  0  0  0  0
   -4.6000    0.6270  -17.2160 H   0  0  0  0  0  0  0  0  0  0  0  0
   -7.7260   -1.6590  -18.5810 H   0  0  0  0  0  0  0  0  0  0  0  0
   -7.9580   -2.3320  -20.8450 H   0  0  0  0  0  0  0  0  0  0  0  0
   -6.8290   -1.8000  -22.0850 H   0  0  0  0  0  0  0  0  0  0  0  0
   -9.6470   -0.9500  -22.3810 N   0  0  0  0  0  0  0  0  0  0  0  0
  -10.7750   -0.0430  -22.6150 C   0  0  0  0  0  0  0  0  0  0  0  0
  -12.0950   -0.7990  -22.5010 C   0  0  0  0  0  0  0  0  0  0  0  0
  -12.2290   -1.9530  -23.4950 C   0  0  0  0  0  0  0  0  0  0  0  0
  -13.2110   -1.6980  -24.6640 C   0  0  0  0  0  0  0  0  0  0  0  0
  -14.1360   -2.8240  -24.1700 C   0  0  0  0  0  0  0  0  0  0  0  0
  -13.1720   -3.0870  -22.9990 C   0  0  0  0  0  0  0  0  0  0  0  0
  -13.6070   -2.9090  -22.0120 H   0  0  0  0  0  0  0  0  0  0  0  0
  -12.7150   -4.0800  -22.9900 H   0  0  0  0  0  0  0  0  0  0  0  0
  -15.1310   -2.4920  -23.8680 H   0  0  0  0  0  0  0  0  0  0  0  0
  -14.2370   -3.6570  -24.8690 H   0  0  0  0  0  0  0  0  0  0  0  0
  -13.6570   -0.7010  -24.6560 H   0  0  0  0  0  0  0  0  0  0  0  0
  -12.7720   -1.8720  -25.6470 H   0  0  0  0  0  0  0  0  0  0  0  0
  -10.8480   -2.4230  -23.9520 C   0  0  0  0  0  0  0  0  0  0  0  0
   -9.7730   -2.3190  -22.8730 C   0  0  0  0  0  0  0  0  0  0  0  0
   -8.8170   -2.6380  -23.3000 H   0  0  0  0  0  0  0  0  0  0  0  0
   -9.9980   -3.0150  -22.0530 H   0  0  0  0  0  0  0  0  0  0  0  0
  -10.9120   -3.4560  -24.3030 H   0  0  0  0  0  0  0  0  0  0  0  0
  -10.5360   -1.8470  -24.8320 H   0  0  0  0  0  0  0  0  0  0  0  0
  -12.1760   -1.2320  -21.5060 H   0  0  0  0  0  0  0  0  0  0  0  0
  -12.9430   -0.1120  -22.5870 H   0  0  0  0  0  0  0  0  0  0  0  0
  -10.7110    0.4410  -23.5950 H   0  0  0  0  0  0  0  0  0  0  0  0
  -10.7090    0.7820  -21.9050 H   0  0  0  0  0  0  0  0  0  0  0  0
  1  2  2  0  0  0  0
  2  3  1  0  0  0  0
  2 22  1  0  0  0  0
  3  4  1  0  0  0  0
  3 20  1  0  0  0  0
  3 21  1  0  0  0  0
  4  5  2  0  0  0  0
  4 13  1  0  0  0  0
  5  6  1  0  0  0  0
  5 19  1  0  0  0  0
  6  7  2  0  0  0  0
  7  8  1  0  0  0  0
  7 18  1  0  0  0  0
  8  9  2  0  0  0  0
  8 13  1  0  0  0  0
  9 10  1  0  0  0  0
  9 17  1  0  0  0  0
 10 11  2  0  0  0  0
 10 16  1  0  0  0  0
 11 12  1  0  0  0  0
 11 15  1  0  0  0  0
 12 13  2  0  0  0  0
 12 14  1  0  0  0  0
 22 23  1  0  0  0  0
 22 36  1  0  0  0  0
 23 24  1  0  0  0  0
 23 43  1  0  0  0  0
 23 44  1  0  0  0  0
 24 25  1  0  0  0  0
 24 41  1  0  0  0  0
 24 42  1  0  0  0  0
 25 26  1  0  0  0  0
 25 28  1  0  0  0  0
 25 35  1  0  0  0  0
 26 27  1  0  0  0  0
 26 33  1  0  0  0  0
 26 34  1  0  0  0  0
 27 28  1  0  0  0  0
 27 31  1  0  0  0  0
 27 32  1  0  0  0  0
 28 29  1  0  0  0  0
 28 30  1  0  0  0  0
 35 36  1  0  0  0  0
 35 39  1  0  0  0  0
 35 40  1  0  0  0  0
 36 37  1  0  0  0  0
 36 38  1  0  0  0  0
M  END
>  <MODEL>
       1

$$$$
