tmp_first_model_9_27.pdb
 OpenBabel08272521403D

 58 62  0  0  1  0  0  0  0  0999 V2000
  -14.9340   -3.3980  -23.3270 C   0  0  0  0  0  0  0  0  0  0  0  0
  -13.6760   -2.6640  -23.1040 N   0  3  0  0  0  0  0  0  0  0  0  0
  -13.2150   -2.7080  -21.6960 C   0  0  0  0  0  0  0  0  0  0  0  0
  -12.3550   -3.9510  -21.4940 C   0  0  0  0  0  0  0  0  0  0  0  0
  -11.0750   -3.8550  -22.1930 N   0  0  0  0  0  0  0  0  0  0  0  0
   -9.9370   -3.2610  -21.5100 C   0  0  0  0  0  0  0  0  0  0  0  0
   -8.7630   -2.8330  -22.4260 C   0  0  2  0  0  0  0  0  0  0  0  0
   -7.5510   -2.6500  -21.4960 C   0  0  0  0  0  0  0  0  0  0  0  0
   -6.8340   -3.5090  -21.0250 O   0  0  0  0  0  0  0  0  0  0  0  0
   -7.3840   -1.3030  -21.2620 N   0  0  0  0  0  0  0  0  0  0  0  0
   -6.5760   -0.8340  -20.2030 C   0  0  0  0  0  0  0  0  0  0  0  0
   -6.8790   -1.1210  -18.8960 C   0  0  0  0  0  0  0  0  0  0  0  0
   -6.2080   -0.5960  -17.8390 N   0  0  0  0  0  0  0  0  0  0  0  0
   -5.2080    0.2120  -18.0850 C   0  0  0  0  0  0  0  0  0  0  0  0
   -4.7570    0.5480  -19.3960 C   0  0  0  0  0  0  0  0  0  0  0  0
   -3.6380    1.3910  -19.6350 C   0  0  0  0  0  0  0  0  0  0  0  0
   -3.2320    1.6560  -20.9130 C   0  0  0  0  0  0  0  0  0  0  0  0
   -3.9220    1.1000  -22.0150 C   0  0  0  0  0  0  0  0  0  0  0  0
   -5.0110    0.2870  -21.8100 C   0  0  0  0  0  0  0  0  0  0  0  0
   -5.4570    0.0040  -20.4930 C   0  0  0  0  0  0  0  0  0  0  0  0
   -5.5340   -0.1600  -22.6480 H   0  0  0  0  0  0  0  0  0  0  0  0
   -3.5850    1.3020  -23.0280 H   0  0  0  0  0  0  0  0  0  0  0  0
   -2.3680    2.2910  -21.0960 H   0  0  0  0  0  0  0  0  0  0  0  0
   -3.1180    1.8120  -18.7770 H   0  0  0  0  0  0  0  0  0  0  0  0
   -4.6890    0.6370  -17.2240 H   0  0  0  0  0  0  0  0  0  0  0  0
   -7.6990   -1.7950  -18.6510 H   0  0  0  0  0  0  0  0  0  0  0  0
   -8.3820   -0.4690  -21.9090 C   0  0  0  0  0  0  0  0  0  0  0  0
   -8.9460   -1.3870  -23.0030 C   0  0  2  0  0  0  0  0  0  0  0  0
  -10.3470   -0.9960  -23.4620 C   0  0  0  0  0  0  0  0  0  0  0  0
  -11.0510   -0.9590  -22.6240 H   0  0  0  0  0  0  0  0  0  0  0  0
  -10.7410   -1.6990  -24.2040 H   0  0  0  0  0  0  0  0  0  0  0  0
  -10.3460    0.0050  -23.9030 H   0  0  0  0  0  0  0  0  0  0  0  0
   -8.2690   -1.3310  -23.8640 H   0  0  0  0  0  0  0  0  0  0  0  0
   -7.9320    0.4470  -22.3040 H   0  0  0  0  0  0  0  0  0  0  0  0
   -9.1610   -0.1600  -21.1940 H   0  0  0  0  0  0  0  0  0  0  0  0
   -8.5330   -3.8960  -23.4740 C   0  0  0  0  0  0  0  0  0  0  0  0
   -7.2730   -4.1510  -24.0250 C   0  0  0  0  0  0  0  0  0  0  0  0
   -7.1500   -5.1630  -24.9580 C   0  0  0  0  0  0  0  0  0  0  0  0
   -5.9390   -5.4020  -25.4870 F   0  0  0  0  0  0  0  0  0  0  0  0
   -8.2160   -5.9560  -25.3700 C   0  0  0  0  0  0  0  0  0  0  0  0
   -9.4670   -5.6680  -24.8610 C   0  0  0  0  0  0  0  0  0  0  0  0
   -9.6240   -4.6330  -23.9450 C   0  0  0  0  0  0  0  0  0  0  0  0
  -10.9900   -4.3090  -23.4660 C   0  0  0  0  0  0  0  0  0  0  0  0
  -11.9930   -4.4500  -24.1810 O   0  0  0  0  0  0  0  0  0  0  0  0
  -10.3400   -6.2500  -25.1440 H   0  0  0  0  0  0  0  0  0  0  0  0
   -8.0490   -6.7750  -26.0620 H   0  0  0  0  0  0  0  0  0  0  0  0
   -6.3880   -3.6140  -23.6960 H   0  0  0  0  0  0  0  0  0  0  0  0
  -10.2580   -2.3840  -20.9370 H   0  0  0  0  0  0  0  0  0  0  0  0
   -9.5350   -3.9640  -20.7880 H   0  0  0  0  0  0  0  0  0  0  0  0
  -12.9160   -4.7780  -21.9270 H   0  0  0  0  0  0  0  0  0  0  0  0
  -12.2060   -4.1940  -20.4400 H   0  0  0  0  0  0  0  0  0  0  0  0
  -12.6480   -1.7990  -21.4890 H   0  0  0  0  0  0  0  0  0  0  0  0
  -14.0760   -2.7250  -21.0250 H   0  0  0  0  0  0  0  0  0  0  0  0
  -13.7630   -1.6810  -23.4130 H   0  0  0  0  0  0  0  0  0  0  0  0
  -12.9650   -3.1340  -23.6930 H   0  0  0  0  0  0  0  0  0  0  0  0
  -15.3330   -3.1830  -24.3170 H   0  0  0  0  0  0  0  0  0  0  0  0
  -15.6710   -3.1150  -22.5800 H   0  0  0  0  0  0  0  0  0  0  0  0
  -14.7870   -4.4810  -23.2430 H   0  0  0  0  0  0  0  0  0  0  0  0
  1  2  1  0  0  0  0
  1 56  1  0  0  0  0
  1 57  1  0  0  0  0
  1 58  1  0  0  0  0
  2  3  1  0  0  0  0
  2 54  1  0  0  0  0
  2 55  1  0  0  0  0
  3  4  1  0  0  0  0
  3 52  1  0  0  0  0
  3 53  1  0  0  0  0
  4  5  1  0  0  0  0
  4 50  1  0  0  0  0
  4 51  1  0  0  0  0
  5  6  1  0  0  0  0
  5 43  1  0  0  0  0
  6  7  1  0  0  0  0
  6 48  1  0  0  0  0
  6 49  1  0  0  0  0
  7  8  1  1  0  0  0
  7 28  1  0  0  0  0
  7 36  1  0  0  0  0
  8  9  2  0  0  0  0
  8 10  1  0  0  0  0
 10 11  1  0  0  0  0
 10 27  1  0  0  0  0
 11 12  2  0  0  0  0
 11 20  1  0  0  0  0
 12 13  1  0  0  0  0
 12 26  1  0  0  0  0
 13 14  2  0  0  0  0
 14 15  1  0  0  0  0
 14 25  1  0  0  0  0
 15 16  2  0  0  0  0
 15 20  1  0  0  0  0
 16 17  1  0  0  0  0
 16 24  1  0  0  0  0
 17 18  2  0  0  0  0
 17 23  1  0  0  0  0
 18 19  1  0  0  0  0
 18 22  1  0  0  0  0
 19 20  2  0  0  0  0
 19 21  1  0  0  0  0
 27 28  1  0  0  0  0
 27 34  1  0  0  0  0
 27 35  1  0  0  0  0
 28 29  1  0  0  0  0
 28 33  1  6  0  0  0
 29 30  1  0  0  0  0
 29 31  1  0  0  0  0
 29 32  1  0  0  0  0
 36 37  2  0  0  0  0
 36 42  1  0  0  0  0
 37 38  1  0  0  0  0
 37 47  1  0  0  0  0
 38 39  1  0  0  0  0
 38 40  2  0  0  0  0
 40 41  1  0  0  0  0
 40 46  1  0  0  0  0
 41 42  2  0  0  0  0
 41 45  1  0  0  0  0
 42 43  1  0  0  0  0
 43 44  2  0  0  0  0
M  CHG  1   2   1
M  END
>  <MODEL>
       1

$$$$
