tmp_first_model_18_89.pdb
 OpenBabel08282502533D

 43 45  0  0  0  0  0  0  0  0999 V2000
   -9.8310    0.6080  -27.2150 C   0  0  0  0  0  0  0  0  0  0  0  0
   -8.7890    0.4540  -26.0990 C   0  0  0  0  0  0  0  0  0  0  0  0
   -7.4000    0.6950  -26.6870 C   0  0  0  0  0  0  0  0  0  0  0  0
   -6.6060    0.6030  -25.9430 H   0  0  0  0  0  0  0  0  0  0  0  0
   -7.3370    1.7020  -27.1120 H   0  0  0  0  0  0  0  0  0  0  0  0
   -7.1930   -0.0220  -27.4870 H   0  0  0  0  0  0  0  0  0  0  0  0
   -9.0860    1.4710  -24.9990 C   0  0  0  0  0  0  0  0  0  0  0  0
   -8.2800    1.2630  -23.7240 C   0  0  0  0  0  0  0  0  0  0  0  0
   -8.3530   -0.1140  -23.2450 N   0  0  0  0  0  0  0  0  0  0  0  0
   -8.3350   -0.3230  -21.8700 C   0  0  0  0  0  0  0  0  0  0  0  0
   -8.9920    0.3590  -21.1100 O   0  0  0  0  0  0  0  0  0  0  0  0
   -7.4250   -1.4170  -21.2810 C   0  0  0  0  0  0  0  0  0  0  0  0
   -6.5680   -0.8360  -20.1750 C   0  0  0  0  0  0  0  0  0  0  0  0
   -6.8760   -1.0420  -18.8550 C   0  0  0  0  0  0  0  0  0  0  0  0
   -6.1910   -0.5360  -17.7920 N   0  0  0  0  0  0  0  0  0  0  0  0
   -5.1570    0.2240  -18.0630 C   0  0  0  0  0  0  0  0  0  0  0  0
   -4.7220    0.5350  -19.3790 C   0  0  0  0  0  0  0  0  0  0  0  0
   -3.6000    1.3680  -19.6210 C   0  0  0  0  0  0  0  0  0  0  0  0
   -3.2090    1.6600  -20.9000 C   0  0  0  0  0  0  0  0  0  0  0  0
   -3.9290    1.1260  -21.9930 C   0  0  0  0  0  0  0  0  0  0  0  0
   -5.0200    0.3170  -21.7870 C   0  0  0  0  0  0  0  0  0  0  0  0
   -5.4470   -0.0040  -20.4710 C   0  0  0  0  0  0  0  0  0  0  0  0
   -5.5560   -0.0830  -22.6450 H   0  0  0  0  0  0  0  0  0  0  0  0
   -3.6150    1.3610  -23.0050 H   0  0  0  0  0  0  0  0  0  0  0  0
   -2.3540    2.3040  -21.0850 H   0  0  0  0  0  0  0  0  0  0  0  0
   -3.0640    1.7770  -18.7680 H   0  0  0  0  0  0  0  0  0  0  0  0
   -4.6030    0.6290  -17.2140 H   0  0  0  0  0  0  0  0  0  0  0  0
   -7.7280   -1.6610  -18.5810 H   0  0  0  0  0  0  0  0  0  0  0  0
   -6.8070   -1.8970  -22.0490 H   0  0  0  0  0  0  0  0  0  0  0  0
   -8.0810   -2.1830  -20.8470 H   0  0  0  0  0  0  0  0  0  0  0  0
   -8.0630   -1.1430  -24.2260 C   0  0  0  0  0  0  0  0  0  0  0  0
   -8.9040   -0.9470  -25.4900 C   0  0  0  0  0  0  0  0  0  0  0  0
   -9.9550   -1.1530  -25.2520 H   0  0  0  0  0  0  0  0  0  0  0  0
   -8.6120   -1.6880  -26.2380 H   0  0  0  0  0  0  0  0  0  0  0  0
   -6.9930   -1.1810  -24.4900 H   0  0  0  0  0  0  0  0  0  0  0  0
   -8.3120   -2.1040  -23.7800 H   0  0  0  0  0  0  0  0  0  0  0  0
   -8.6530    1.8940  -22.9180 H   0  0  0  0  0  0  0  0  0  0  0  0
   -7.2320    1.5630  -23.9030 H   0  0  0  0  0  0  0  0  0  0  0  0
  -10.1470    1.3860  -24.7910 H   0  0  0  0  0  0  0  0  0  0  0  0
   -8.9470    2.4910  -25.3730 H   0  0  0  0  0  0  0  0  0  0  0  0
   -9.7960    1.6110  -27.6560 H   0  0  0  0  0  0  0  0  0  0  0  0
  -10.8530    0.4470  -26.8480 H   0  0  0  0  0  0  0  0  0  0  0  0
   -9.6530   -0.1140  -28.0200 H   0  0  0  0  0  0  0  0  0  0  0  0
  1  2  1  0  0  0  0
  1 41  1  0  0  0  0
  1 42  1  0  0  0  0
  1 43  1  0  0  0  0
  2  3  1  0  0  0  0
  2  7  1  0  0  0  0
  2 32  1  0  0  0  0
  3  4  1  0  0  0  0
  3  5  1  0  0  0  0
  3  6  1  0  0  0  0
  7  8  1  0  0  0  0
  7 39  1  0  0  0  0
  7 40  1  0  0  0  0
  8  9  1  0  0  0  0
  8 37  1  0  0  0  0
  8 38  1  0  0  0  0
  9 10  1  0  0  0  0
  9 31  1  0  0  0  0
 10 11  2  0  0  0  0
 10 12  1  0  0  0  0
 12 13  1  0  0  0  0
 12 29  1  0  0  0  0
 12 30  1  0  0  0  0
 13 14  2  0  0  0  0
 13 22  1  0  0  0  0
 14 15  1  0  0  0  0
 14 28  1  0  0  0  0
 15 16  2  0  0  0  0
 16 17  1  0  0  0  0
 16 27  1  0  0  0  0
 17 18  2  0  0  0  0
 17 22  1  0  0  0  0
 18 19  1  0  0  0  0
 18 26  1  0  0  0  0
 19 20  2  0  0  0  0
 19 25  1  0  0  0  0
 20 21  1  0  0  0  0
 20 24  1  0  0  0  0
 21 22  2  0  0  0  0
 21 23  1  0  0  0  0
 31 32  1  0  0  0  0
 31 35  1  0  0  0  0
 31 36  1  0  0  0  0
 32 33  1  0  0  0  0
 32 34  1  0  0  0  0
M  END
>  <MODEL>
       1

$$$$
