tmp_first_model_6_59.pdb
 OpenBabel08272519583D

 60 65  0  0  1  0  0  0  0  0999 V2000
   -7.0900    3.4420  -22.7430 C   0  0  0  0  0  0  0  0  0  0  0  0
   -7.8030    2.7510  -23.7960 N   0  0  0  0  0  0  0  0  0  0  0  0
   -7.1460    1.8550  -24.5630 C   0  0  0  0  0  0  0  0  0  0  0  0
   -5.9320    1.6900  -24.5070 O   0  0  0  0  0  0  0  0  0  0  0  0
   -8.0370    1.0510  -25.5100 C   0  0  0  0  0  0  0  0  0  0  0  0
   -8.9400    0.1990  -24.7660 N   0  0  0  0  0  0  0  0  0  0  0  0
   -8.4800   -1.1100  -24.3340 C   0  0  0  0  0  0  0  0  0  0  0  0
   -9.0130   -1.4860  -22.9290 C   0  0  2  0  0  0  0  0  0  0  0  0
   -8.3310   -0.6030  -21.8650 C   0  0  0  0  0  0  0  0  0  0  0  0
   -8.5270    0.5780  -21.6350 O   0  0  0  0  0  0  0  0  0  0  0  0
   -7.4130   -1.3710  -21.1950 N   0  0  0  0  0  0  0  0  0  0  0  0
   -6.6120   -0.8110  -20.1780 C   0  0  0  0  0  0  0  0  0  0  0  0
   -6.9020   -1.0910  -18.8680 C   0  0  0  0  0  0  0  0  0  0  0  0
   -6.2190   -0.6010  -17.8100 N   0  0  0  0  0  0  0  0  0  0  0  0
   -5.2070    0.1910  -18.0740 C   0  0  0  0  0  0  0  0  0  0  0  0
   -4.7910    0.5530  -19.3880 C   0  0  0  0  0  0  0  0  0  0  0  0
   -3.6540    1.3750  -19.6070 C   0  0  0  0  0  0  0  0  0  0  0  0
   -3.2760    1.7100  -20.8780 C   0  0  0  0  0  0  0  0  0  0  0  0
   -4.0200    1.2500  -21.9840 C   0  0  0  0  0  0  0  0  0  0  0  0
   -5.1040    0.4270  -21.8000 C   0  0  0  0  0  0  0  0  0  0  0  0
   -5.5200    0.0540  -20.4880 C   0  0  0  0  0  0  0  0  0  0  0  0
   -5.6310    0.0570  -22.6720 H   0  0  0  0  0  0  0  0  0  0  0  0
   -3.7350    1.5300  -22.9940 H   0  0  0  0  0  0  0  0  0  0  0  0
   -2.3920    2.3190  -21.0400 H   0  0  0  0  0  0  0  0  0  0  0  0
   -3.1040    1.7270  -18.7410 H   0  0  0  0  0  0  0  0  0  0  0  0
   -4.6490    0.5780  -17.2240 H   0  0  0  0  0  0  0  0  0  0  0  0
   -7.7460   -1.7400  -18.6410 H   0  0  0  0  0  0  0  0  0  0  0  0
   -7.2980   -2.7320  -21.6660 C   0  0  0  0  0  0  0  0  0  0  0  0
   -8.5630   -2.9200  -22.5160 C   0  0  2  0  0  0  0  0  0  0  0  0
   -8.3420   -3.9420  -23.6460 C   0  0  0  0  0  0  0  0  0  0  0  0
   -8.0570   -5.2920  -23.0740 C   0  0  0  0  0  0  0  0  0  0  0  0
   -6.8380   -5.7790  -22.8780 N   0  0  0  0  0  0  0  0  0  0  0  0
   -7.0330   -6.9570  -22.2900 N   0  0  0  0  0  0  0  0  0  0  0  0
   -8.3170   -7.1620  -22.1480 N   0  5  0  0  0  0  0  0  0  0  0  0
   -8.9890   -6.1240  -22.6350 N   0  0  0  0  0  0  0  0  0  0  0  0
   -7.4860   -3.6610  -24.2640 H   0  0  0  0  0  0  0  0  0  0  0  0
   -9.2260   -4.0190  -24.2830 H   0  0  0  0  0  0  0  0  0  0  0  0
   -9.3360   -3.3470  -21.8710 H   0  0  0  0  0  0  0  0  0  0  0  0
   -6.3860   -2.8960  -22.2650 H   0  0  0  0  0  0  0  0  0  0  0  0
   -7.2500   -3.4390  -20.8360 H   0  0  0  0  0  0  0  0  0  0  0  0
  -10.5030   -1.2430  -22.9200 C   0  0  0  0  0  0  0  0  0  0  0  0
  -11.3470   -1.9370  -22.0560 C   0  0  0  0  0  0  0  0  0  0  0  0
  -12.7110   -1.7330  -22.1170 C   0  0  0  0  0  0  0  0  0  0  0  0
  -13.7030   -2.6650  -21.0380 Cl  0  0  0  0  0  0  0  0  0  0  0  0
  -13.2920   -0.8130  -22.9860 C   0  0  0  0  0  0  0  0  0  0  0  0
  -12.4440   -0.0590  -23.7740 C   0  0  0  0  0  0  0  0  0  0  0  0
  -11.0650   -0.2310  -23.7050 C   0  0  0  0  0  0  0  0  0  0  0  0
  -10.1730    0.6890  -24.4660 C   0  0  0  0  0  0  0  0  0  0  0  0
  -10.5110    1.8360  -24.7610 O   0  0  0  0  0  0  0  0  0  0  0  0
  -12.8250    0.6900  -24.4530 H   0  0  0  0  0  0  0  0  0  0  0  0
  -14.3690   -0.6700  -23.0080 H   0  0  0  0  0  0  0  0  0  0  0  0
  -10.9750   -2.6220  -21.3030 H   0  0  0  0  0  0  0  0  0  0  0  0
   -7.3830   -1.1150  -24.3160 H   0  0  0  0  0  0  0  0  0  0  0  0
   -8.8250   -1.8650  -25.0500 H   0  0  0  0  0  0  0  0  0  0  0  0
   -8.6590    1.7260  -26.1010 H   0  0  0  0  0  0  0  0  0  0  0  0
   -7.4230    0.4480  -26.1830 H   0  0  0  0  0  0  0  0  0  0  0  0
   -8.8170    2.7340  -23.7820 H   0  0  0  0  0  0  0  0  0  0  0  0
   -7.7910    4.0700  -22.1930 H   0  0  0  0  0  0  0  0  0  0  0  0
   -6.3140    4.0810  -23.1780 H   0  0  0  0  0  0  0  0  0  0  0  0
   -6.6280    2.7270  -22.0460 H   0  0  0  0  0  0  0  0  0  0  0  0
  1  2  1  0  0  0  0
  1 58  1  0  0  0  0
  1 59  1  0  0  0  0
  1 60  1  0  0  0  0
  2  3  1  0  0  0  0
  2 57  1  0  0  0  0
  3  4  2  0  0  0  0
  3  5  1  0  0  0  0
  5  6  1  0  0  0  0
  5 55  1  0  0  0  0
  5 56  1  0  0  0  0
  6  7  1  0  0  0  0
  6 48  1  0  0  0  0
  7  8  1  0  0  0  0
  7 53  1  0  0  0  0
  7 54  1  0  0  0  0
  8  9  1  1  0  0  0
  8 29  1  0  0  0  0
  8 41  1  0  0  0  0
  9 10  2  0  0  0  0
  9 11  1  0  0  0  0
 11 12  1  0  0  0  0
 11 28  1  0  0  0  0
 12 13  2  0  0  0  0
 12 21  1  0  0  0  0
 13 14  1  0  0  0  0
 13 27  1  0  0  0  0
 14 15  2  0  0  0  0
 15 16  1  0  0  0  0
 15 26  1  0  0  0  0
 16 17  2  0  0  0  0
 16 21  1  0  0  0  0
 17 18  1  0  0  0  0
 17 25  1  0  0  0  0
 18 19  2  0  0  0  0
 18 24  1  0  0  0  0
 19 20  1  0  0  0  0
 19 23  1  0  0  0  0
 20 21  2  0  0  0  0
 20 22  1  0  0  0  0
 28 29  1  0  0  0  0
 28 39  1  0  0  0  0
 28 40  1  0  0  0  0
 29 30  1  0  0  0  0
 29 38  1  1  0  0  0
 30 31  1  0  0  0  0
 30 36  1  0  0  0  0
 30 37  1  0  0  0  0
 31 32  1  0  0  0  0
 31 35  2  0  0  0  0
 32 33  2  0  0  0  0
 33 34  1  0  0  0  0
 34 35  1  0  0  0  0
 41 42  2  0  0  0  0
 41 47  1  0  0  0  0
 42 43  1  0  0  0  0
 42 52  1  0  0  0  0
 43 44  1  0  0  0  0
 43 45  2  0  0  0  0
 45 46  1  0  0  0  0
 45 51  1  0  0  0  0
 46 47  2  0  0  0  0
 46 50  1  0  0  0  0
 47 48  1  0  0  0  0
 48 49  2  0  0  0  0
M  CHG  1  34  -1
M  END
>  <MODEL>
       1

$$$$
