tmp_first_model_9_81.pdb
 OpenBabel08272521403D

 36 38  0  0  0  0  0  0  0  0999 V2000
   -8.5050    0.7120  -21.4640 O   0  0  0  0  0  0  0  0  0  0  0  0
   -8.3850   -0.4020  -21.9330 C   0  0  0  0  0  0  0  0  0  0  0  0
   -7.4390   -1.4330  -21.2760 C   0  0  0  0  0  0  0  0  0  0  0  0
   -6.5820   -0.8280  -20.1850 C   0  0  0  0  0  0  0  0  0  0  0  0
   -6.8780   -1.0390  -18.8630 C   0  0  0  0  0  0  0  0  0  0  0  0
   -6.1880   -0.5360  -17.8050 N   0  0  0  0  0  0  0  0  0  0  0  0
   -5.1550    0.2240  -18.0670 C   0  0  0  0  0  0  0  0  0  0  0  0
   -4.7230    0.5360  -19.3840 C   0  0  0  0  0  0  0  0  0  0  0  0
   -3.5970    1.3650  -19.6220 C   0  0  0  0  0  0  0  0  0  0  0  0
   -3.2090    1.6590  -20.9020 C   0  0  0  0  0  0  0  0  0  0  0  0
   -3.9360    1.1330  -21.9930 C   0  0  0  0  0  0  0  0  0  0  0  0
   -5.0280    0.3250  -21.7870 C   0  0  0  0  0  0  0  0  0  0  0  0
   -5.4550    0.0020  -20.4730 C   0  0  0  0  0  0  0  0  0  0  0  0
   -5.5740   -0.0680  -22.6380 H   0  0  0  0  0  0  0  0  0  0  0  0
   -3.6230    1.3680  -23.0050 H   0  0  0  0  0  0  0  0  0  0  0  0
   -2.3530    2.3020  -21.0870 H   0  0  0  0  0  0  0  0  0  0  0  0
   -3.0600    1.7760  -18.7710 H   0  0  0  0  0  0  0  0  0  0  0  0
   -4.6020    0.6280  -17.2170 H   0  0  0  0  0  0  0  0  0  0  0  0
   -7.7280   -1.6590  -18.5840 H   0  0  0  0  0  0  0  0  0  0  0  0
   -6.8020   -1.8990  -22.0400 H   0  0  0  0  0  0  0  0  0  0  0  0
   -8.0410   -2.2450  -20.8440 H   0  0  0  0  0  0  0  0  0  0  0  0
   -9.0620   -0.7720  -23.0890 N   0  0  0  0  0  0  0  0  0  0  0  0
  -10.0070    0.1960  -23.6420 C   0  0  0  0  0  0  0  0  0  0  0  0
  -11.3810    0.2150  -23.0210 C   0  0  0  0  0  0  0  0  0  0  0  0
  -12.0210   -0.7910  -22.4170 C   0  0  0  0  0  0  0  0  0  0  0  0
  -11.5700   -2.1750  -22.1560 C   0  0  0  0  0  0  0  0  0  0  0  0
  -10.4470   -2.7810  -22.5510 C   0  0  0  0  0  0  0  0  0  0  0  0
   -9.3680   -2.1600  -23.4050 C   0  0  0  0  0  0  0  0  0  0  0  0
   -8.4500   -2.7530  -23.3600 H   0  0  0  0  0  0  0  0  0  0  0  0
   -9.6850   -2.1770  -24.4540 H   0  0  0  0  0  0  0  0  0  0  0  0
  -10.2820   -3.8150  -22.2470 H   0  0  0  0  0  0  0  0  0  0  0  0
  -12.2760   -2.7640  -21.5740 H   0  0  0  0  0  0  0  0  0  0  0  0
  -13.0200   -0.5790  -22.0390 H   0  0  0  0  0  0  0  0  0  0  0  0
  -11.8930    1.1790  -23.0820 H   0  0  0  0  0  0  0  0  0  0  0  0
  -10.1140   -0.0410  -24.7080 H   0  0  0  0  0  0  0  0  0  0  0  0
   -9.5580    1.1920  -23.5960 H   0  0  0  0  0  0  0  0  0  0  0  0
  1  2  2  0  0  0  0
  2  3  1  0  0  0  0
  2 22  1  0  0  0  0
  3  4  1  0  0  0  0
  3 20  1  0  0  0  0
  3 21  1  0  0  0  0
  4  5  2  0  0  0  0
  4 13  1  0  0  0  0
  5  6  1  0  0  0  0
  5 19  1  0  0  0  0
  6  7  2  0  0  0  0
  7  8  1  0  0  0  0
  7 18  1  0  0  0  0
  8  9  2  0  0  0  0
  8 13  1  0  0  0  0
  9 10  1  0  0  0  0
  9 17  1  0  0  0  0
 10 11  2  0  0  0  0
 10 16  1  0  0  0  0
 11 12  1  0  0  0  0
 11 15  1  0  0  0  0
 12 13  2  0  0  0  0
 12 14  1  0  0  0  0
 22 23  1  0  0  0  0
 22 28  1  0  0  0  0
 23 24  1  0  0  0  0
 23 35  1  0  0  0  0
 23 36  1  0  0  0  0
 24 25  2  0  0  0  0
 24 34  1  0  0  0  0
 25 26  1  0  0  0  0
 25 33  1  0  0  0  0
 26 27  2  0  0  0  0
 26 32  1  0  0  0  0
 27 28  1  0  0  0  0
 27 31  1  0  0  0  0
 28 29  1  0  0  0  0
 28 30  1  0  0  0  0
M  END
>  <MODEL>
       1

$$$$
