tmp_first_model_11_66.pdb
 OpenBabel08272522543D

 44 47  0  0  1  0  0  0  0  0999 V2000
   -7.8630   -0.6310  -24.9370 C   0  0  0  0  0  0  0  0  0  0  0  0
   -8.3880   -2.0410  -25.1100 C   0  0  0  0  0  0  0  0  0  0  0  0
   -8.3380   -2.8840  -23.8290 C   0  0  1  0  0  0  0  0  0  0  0  0
   -8.8940   -4.2620  -24.0840 C   0  0  0  0  0  0  0  0  0  0  0  0
  -10.2750   -4.5700  -24.2960 C   0  0  0  0  0  0  0  0  0  0  0  0
  -10.4750   -5.8900  -24.5630 C   0  0  0  0  0  0  0  0  0  0  0  0
   -8.9960   -6.7800  -24.5540 S   0  0  0  0  0  0  0  0  0  0  0  0
   -8.0870   -5.3550  -24.1810 C   0  0  0  0  0  0  0  0  0  0  0  0
   -6.6070   -5.3360  -23.9380 C   0  0  0  0  0  0  0  0  0  0  0  0
   -6.0930   -3.8950  -23.9600 C   0  0  0  0  0  0  0  0  0  0  0  0
   -6.9910   -2.9810  -23.2490 N   0  0  0  0  0  0  0  0  0  0  0  0
   -6.6860   -2.6700  -21.9320 C   0  0  0  0  0  0  0  0  0  0  0  0
   -5.8420   -3.2870  -21.3090 O   0  0  0  0  0  0  0  0  0  0  0  0
   -7.4050   -1.4660  -21.2750 C   0  0  0  0  0  0  0  0  0  0  0  0
   -6.5810   -0.8270  -20.1790 C   0  0  0  0  0  0  0  0  0  0  0  0
   -6.8730   -1.0460  -18.8560 C   0  0  0  0  0  0  0  0  0  0  0  0
   -6.1900   -0.5400  -17.7920 N   0  0  0  0  0  0  0  0  0  0  0  0
   -5.1580    0.2230  -18.0620 C   0  0  0  0  0  0  0  0  0  0  0  0
   -4.7210    0.5310  -19.3810 C   0  0  0  0  0  0  0  0  0  0  0  0
   -3.5910    1.3570  -19.6220 C   0  0  0  0  0  0  0  0  0  0  0  0
   -3.1930    1.6370  -20.9020 C   0  0  0  0  0  0  0  0  0  0  0  0
   -3.9070    1.0960  -21.9940 C   0  0  0  0  0  0  0  0  0  0  0  0
   -5.0030    0.2950  -21.7860 C   0  0  0  0  0  0  0  0  0  0  0  0
   -5.4470   -0.0080  -20.4700 C   0  0  0  0  0  0  0  0  0  0  0  0
   -5.5350   -0.1120  -22.6410 H   0  0  0  0  0  0  0  0  0  0  0  0
   -3.5860    1.3230  -23.0050 H   0  0  0  0  0  0  0  0  0  0  0  0
   -2.3330    2.2760  -21.0880 H   0  0  0  0  0  0  0  0  0  0  0  0
   -3.0540    1.7760  -18.7740 H   0  0  0  0  0  0  0  0  0  0  0  0
   -4.6000    0.6290  -17.2160 H   0  0  0  0  0  0  0  0  0  0  0  0
   -7.7210   -1.6720  -18.5860 H   0  0  0  0  0  0  0  0  0  0  0  0
   -7.6870   -0.7140  -22.0250 H   0  0  0  0  0  0  0  0  0  0  0  0
   -8.3430   -1.8360  -20.8400 H   0  0  0  0  0  0  0  0  0  0  0  0
   -6.0010   -3.5650  -25.0010 H   0  0  0  0  0  0  0  0  0  0  0  0
   -5.0970   -3.8290  -23.5190 H   0  0  0  0  0  0  0  0  0  0  0  0
   -6.3960   -5.7710  -22.9550 H   0  0  0  0  0  0  0  0  0  0  0  0
   -6.0680   -5.9550  -24.6670 H   0  0  0  0  0  0  0  0  0  0  0  0
  -11.4130   -6.4000  -24.7340 H   0  0  0  0  0  0  0  0  0  0  0  0
  -11.0770   -3.8370  -24.2500 H   0  0  0  0  0  0  0  0  0  0  0  0
   -8.9900   -2.4010  -23.0920 H   0  0  0  0  0  0  0  0  0  0  0  0
   -7.8390   -2.5690  -25.8930 H   0  0  0  0  0  0  0  0  0  0  0  0
   -9.4260   -2.0170  -25.4590 H   0  0  0  0  0  0  0  0  0  0  0  0
   -7.9250   -0.0750  -25.8750 H   0  0  0  0  0  0  0  0  0  0  0  0
   -6.8180   -0.6400  -24.6160 H   0  0  0  0  0  0  0  0  0  0  0  0
   -8.4460   -0.0850  -24.1890 H   0  0  0  0  0  0  0  0  0  0  0  0
  1  2  1  0  0  0  0
  1 42  1  0  0  0  0
  1 43  1  0  0  0  0
  1 44  1  0  0  0  0
  2  3  1  0  0  0  0
  2 40  1  0  0  0  0
  2 41  1  0  0  0  0
  3  4  1  0  0  0  0
  3 11  1  0  0  0  0
  3 39  1  1  0  0  0
  4  5  1  0  0  0  0
  4  8  2  0  0  0  0
  5  6  2  0  0  0  0
  5 38  1  0  0  0  0
  6  7  1  0  0  0  0
  6 37  1  0  0  0  0
  7  8  1  0  0  0  0
  8  9  1  0  0  0  0
  9 10  1  0  0  0  0
  9 35  1  0  0  0  0
  9 36  1  0  0  0  0
 10 11  1  0  0  0  0
 10 33  1  0  0  0  0
 10 34  1  0  0  0  0
 11 12  1  0  0  0  0
 12 13  2  0  0  0  0
 12 14  1  0  0  0  0
 14 15  1  0  0  0  0
 14 31  1  0  0  0  0
 14 32  1  0  0  0  0
 15 16  2  0  0  0  0
 15 24  1  0  0  0  0
 16 17  1  0  0  0  0
 16 30  1  0  0  0  0
 17 18  2  0  0  0  0
 18 19  1  0  0  0  0
 18 29  1  0  0  0  0
 19 20  2  0  0  0  0
 19 24  1  0  0  0  0
 20 21  1  0  0  0  0
 20 28  1  0  0  0  0
 21 22  2  0  0  0  0
 21 27  1  0  0  0  0
 22 23  1  0  0  0  0
 22 26  1  0  0  0  0
 23 24  2  0  0  0  0
 23 25  1  0  0  0  0
M  END
>  <MODEL>
       1

$$$$
