tmp_first_model_2_92.pdb
 OpenBabel08272517383D

 60 65  0  0  1  0  0  0  0  0999 V2000
   -6.7820   -3.4350  -26.0900 C   0  0  0  0  0  0  0  0  0  0  0  0
   -7.0200   -2.8850  -24.8190 O   0  0  0  0  0  0  0  0  0  0  0  0
   -7.9950   -3.5920  -24.0810 C   0  0  0  0  0  0  0  0  0  0  0  0
   -8.3000   -2.8810  -22.7640 C   0  0  1  0  0  0  0  0  0  0  0  0
   -7.0290   -2.5440  -21.9710 C   0  0  0  0  0  0  0  0  0  0  0  0
   -7.3870   -1.3450  -21.2370 N   0  0  0  0  0  0  0  0  0  0  0  0
   -6.6040   -0.8020  -20.1900 C   0  0  0  0  0  0  0  0  0  0  0  0
   -6.9330   -1.0330  -18.8770 C   0  0  0  0  0  0  0  0  0  0  0  0
   -6.2380   -0.5460  -17.8200 N   0  0  0  0  0  0  0  0  0  0  0  0
   -5.1970    0.2090  -18.0810 C   0  0  0  0  0  0  0  0  0  0  0  0
   -4.7490    0.5330  -19.3960 C   0  0  0  0  0  0  0  0  0  0  0  0
   -3.6310    1.3750  -19.6320 C   0  0  0  0  0  0  0  0  0  0  0  0
   -3.2360    1.6600  -20.9100 C   0  0  0  0  0  0  0  0  0  0  0  0
   -3.9250    1.1080  -22.0120 C   0  0  0  0  0  0  0  0  0  0  0  0
   -5.0000    0.2740  -21.8070 C   0  0  0  0  0  0  0  0  0  0  0  0
   -5.4540   -0.0110  -20.4920 C   0  0  0  0  0  0  0  0  0  0  0  0
   -5.5160   -0.1630  -22.6580 H   0  0  0  0  0  0  0  0  0  0  0  0
   -3.5940    1.3480  -23.0180 H   0  0  0  0  0  0  0  0  0  0  0  0
   -2.3800    2.3010  -21.0870 H   0  0  0  0  0  0  0  0  0  0  0  0
   -3.1060    1.7850  -18.7740 H   0  0  0  0  0  0  0  0  0  0  0  0
   -4.6430    0.6080  -17.2320 H   0  0  0  0  0  0  0  0  0  0  0  0
   -7.7990   -1.6470  -18.6410 H   0  0  0  0  0  0  0  0  0  0  0  0
   -8.6090   -0.8080  -21.5740 C   0  0  0  0  0  0  0  0  0  0  0  0
   -9.1520    0.1000  -20.9770 O   0  0  0  0  0  0  0  0  0  0  0  0
   -9.1500   -1.5730  -22.8080 C   0  0  1  0  0  0  0  0  0  0  0  0
   -8.8960   -0.7890  -24.1200 C   0  0  0  0  0  0  0  0  0  0  0  0
   -9.7450    0.3820  -24.2360 N   0  0  0  0  0  0  0  0  0  0  0  0
   -9.1550    1.6130  -24.7480 C   0  0  0  0  0  0  0  0  0  0  0  0
   -8.3490    2.3790  -23.7240 C   0  0  0  0  0  0  0  0  0  0  0  0
   -8.8710    3.2950  -22.7780 C   0  0  0  0  0  0  0  0  0  0  0  0
   -7.9360    3.7680  -21.9560 N   0  0  0  0  0  0  0  0  0  0  0  0
   -6.8130    3.1770  -22.3760 N   0  0  0  0  0  0  0  0  0  0  0  0
   -7.0010    2.3440  -23.4240 C   0  0  0  0  0  0  0  0  0  0  0  0
   -6.1470    1.8050  -23.8170 H   0  0  0  0  0  0  0  0  0  0  0  0
   -5.9260    3.3460  -21.9210 H   0  0  0  0  0  0  0  0  0  0  0  0
   -9.8990    3.6350  -22.6620 H   0  0  0  0  0  0  0  0  0  0  0  0
   -8.5470    1.3540  -25.6220 H   0  0  0  0  0  0  0  0  0  0  0  0
   -9.9870    2.2270  -25.1090 H   0  0  0  0  0  0  0  0  0  0  0  0
  -11.0950    0.3180  -24.0220 C   0  0  0  0  0  0  0  0  0  0  0  0
  -11.8670    1.1800  -24.4200 O   0  0  0  0  0  0  0  0  0  0  0  0
  -11.5630   -0.8650  -23.2340 C   0  0  0  0  0  0  0  0  0  0  0  0
  -12.9350   -1.0000  -23.0290 C   0  0  0  0  0  0  0  0  0  0  0  0
  -13.4280   -1.9950  -22.2140 C   0  0  0  0  0  0  0  0  0  0  0  0
  -12.5170   -2.8460  -21.5950 C   0  0  0  0  0  0  0  0  0  0  0  0
  -13.1170   -4.0440  -20.4990 Cl  0  0  0  0  0  0  0  0  0  0  0  0
  -11.1560   -2.7380  -21.8000 C   0  0  0  0  0  0  0  0  0  0  0  0
  -10.6490   -1.7570  -22.6570 C   0  0  0  0  0  0  0  0  0  0  0  0
  -10.4990   -3.4030  -21.2520 H   0  0  0  0  0  0  0  0  0  0  0  0
  -14.4890   -2.1020  -22.0190 H   0  0  0  0  0  0  0  0  0  0  0  0
  -13.5930   -0.2850  -23.5070 H   0  0  0  0  0  0  0  0  0  0  0  0
   -9.0720   -1.4770  -24.9570 H   0  0  0  0  0  0  0  0  0  0  0  0
   -7.8540   -0.4660  -24.1730 H   0  0  0  0  0  0  0  0  0  0  0  0
   -6.1780   -2.3720  -22.6390 H   0  0  0  0  0  0  0  0  0  0  0  0
   -6.7660   -3.3520  -21.2800 H   0  0  0  0  0  0  0  0  0  0  0  0
   -8.8760   -3.6010  -22.1800 H   0  0  0  0  0  0  0  0  0  0  0  0
   -7.6270   -4.6050  -23.8610 H   0  0  0  0  0  0  0  0  0  0  0  0
   -8.9200   -3.7000  -24.6720 H   0  0  0  0  0  0  0  0  0  0  0  0
   -6.0170   -2.8240  -26.5770 H   0  0  0  0  0  0  0  0  0  0  0  0
   -6.4140   -4.4690  -26.0220 H   0  0  0  0  0  0  0  0  0  0  0  0
   -7.6900   -3.4240  -26.7120 H   0  0  0  0  0  0  0  0  0  0  0  0
  1  2  1  0  0  0  0
  1 58  1  0  0  0  0
  1 59  1  0  0  0  0
  1 60  1  0  0  0  0
  2  3  1  0  0  0  0
  3  4  1  0  0  0  0
  3 56  1  0  0  0  0
  3 57  1  0  0  0  0
  4  5  1  0  0  0  0
  4 25  1  0  0  0  0
  4 55  1  1  0  0  0
  5  6  1  0  0  0  0
  5 53  1  0  0  0  0
  5 54  1  0  0  0  0
  6  7  1  0  0  0  0
  6 23  1  0  0  0  0
  7  8  2  0  0  0  0
  7 16  1  0  0  0  0
  8  9  1  0  0  0  0
  8 22  1  0  0  0  0
  9 10  2  0  0  0  0
 10 11  1  0  0  0  0
 10 21  1  0  0  0  0
 11 12  2  0  0  0  0
 11 16  1  0  0  0  0
 12 13  1  0  0  0  0
 12 20  1  0  0  0  0
 13 14  2  0  0  0  0
 13 19  1  0  0  0  0
 14 15  1  0  0  0  0
 14 18  1  0  0  0  0
 15 16  2  0  0  0  0
 15 17  1  0  0  0  0
 23 24  2  0  0  0  0
 25 23  1  1  0  0  0
 25 26  1  0  0  0  0
 25 47  1  0  0  0  0
 26 27  1  0  0  0  0
 26 51  1  0  0  0  0
 26 52  1  0  0  0  0
 27 28  1  0  0  0  0
 27 39  1  0  0  0  0
 28 29  1  0  0  0  0
 28 37  1  0  0  0  0
 28 38  1  0  0  0  0
 29 30  1  0  0  0  0
 29 33  2  0  0  0  0
 30 31  2  0  0  0  0
 30 36  1  0  0  0  0
 31 32  1  0  0  0  0
 32 33  1  0  0  0  0
 32 35  1  0  0  0  0
 33 34  1  0  0  0  0
 39 40  2  0  0  0  0
 39 41  1  0  0  0  0
 41 42  2  0  0  0  0
 41 47  1  0  0  0  0
 42 43  1  0  0  0  0
 42 50  1  0  0  0  0
 43 44  2  0  0  0  0
 43 49  1  0  0  0  0
 44 45  1  0  0  0  0
 44 46  1  0  0  0  0
 46 47  2  0  0  0  0
 46 48  1  0  0  0  0
M  END
>  <MODEL>
       1

$$$$
