tmp_first_model_19_18.pdb
 OpenBabel08282503233D

 56 61  0  0  1  0  0  0  0  0999 V2000
   -7.8960   -3.5680  -24.1200 C   0  0  0  0  0  0  0  0  0  0  0  0
   -8.2890   -2.8430  -22.8250 C   0  0  1  0  0  0  0  0  0  0  0  0
   -7.0710   -2.5950  -21.9080 C   0  0  0  0  0  0  0  0  0  0  0  0
   -7.4000   -1.3720  -21.2060 N   0  0  0  0  0  0  0  0  0  0  0  0
   -6.5980   -0.8110  -20.1770 C   0  0  0  0  0  0  0  0  0  0  0  0
   -6.9070   -1.0460  -18.8640 C   0  0  0  0  0  0  0  0  0  0  0  0
   -6.2000   -0.5600  -17.8150 N   0  0  0  0  0  0  0  0  0  0  0  0
   -5.1710    0.2060  -18.0830 C   0  0  0  0  0  0  0  0  0  0  0  0
   -4.7310    0.5290  -19.3990 C   0  0  0  0  0  0  0  0  0  0  0  0
   -3.6020    1.3590  -19.6450 C   0  0  0  0  0  0  0  0  0  0  0  0
   -3.2060    1.6370  -20.9210 C   0  0  0  0  0  0  0  0  0  0  0  0
   -3.9130    1.0890  -22.0140 C   0  0  0  0  0  0  0  0  0  0  0  0
   -5.0050    0.2790  -21.8060 C   0  0  0  0  0  0  0  0  0  0  0  0
   -5.4540   -0.0110  -20.4880 C   0  0  0  0  0  0  0  0  0  0  0  0
   -5.5710   -0.0870  -22.6580 H   0  0  0  0  0  0  0  0  0  0  0  0
   -3.6210    1.3460  -23.0290 H   0  0  0  0  0  0  0  0  0  0  0  0
   -2.3590    2.2970  -21.1000 H   0  0  0  0  0  0  0  0  0  0  0  0
   -3.0770    1.7720  -18.7860 H   0  0  0  0  0  0  0  0  0  0  0  0
   -4.6240    0.6130  -17.2320 H   0  0  0  0  0  0  0  0  0  0  0  0
   -7.7650   -1.6650  -18.6090 H   0  0  0  0  0  0  0  0  0  0  0  0
   -8.4600   -0.6730  -21.7340 C   0  0  0  0  0  0  0  0  0  0  0  0
   -8.8790    0.3630  -21.2690 O   0  0  0  0  0  0  0  0  0  0  0  0
   -8.9980   -1.4550  -22.9680 C   0  0  1  0  0  0  0  0  0  0  0  0
   -8.5680   -0.7610  -24.2850 C   0  0  0  0  0  0  0  0  0  0  0  0
   -9.2730    0.4810  -24.5160 N   0  0  0  0  0  0  0  0  0  0  0  0
   -8.5160    1.6850  -24.8180 C   0  0  0  0  0  0  0  0  0  0  0  0
   -8.1600    2.4910  -23.5930 C   0  0  0  0  0  0  0  0  0  0  0  0
   -8.9550    3.4610  -22.9450 C   0  0  0  0  0  0  0  0  0  0  0  0
   -8.1320    3.9740  -21.9640 C   0  0  0  0  0  0  0  0  0  0  0  0
   -6.9660    3.3020  -22.0460 N   0  0  0  0  0  0  0  0  0  0  0  0
   -6.9640    2.3740  -23.0180 N   0  0  0  0  0  0  0  0  0  0  0  0
   -6.2320    3.3300  -21.3590 H   0  0  0  0  0  0  0  0  0  0  0  0
   -8.2800    4.7160  -21.1930 H   0  0  0  0  0  0  0  0  0  0  0  0
  -10.0100    3.6240  -23.1180 H   0  0  0  0  0  0  0  0  0  0  0  0
   -7.5930    1.3940  -25.3340 H   0  0  0  0  0  0  0  0  0  0  0  0
   -9.1370    2.2800  -25.4960 H   0  0  0  0  0  0  0  0  0  0  0  0
  -10.6260    0.5920  -24.3660 C   0  0  0  0  0  0  0  0  0  0  0  0
  -11.2440    1.5670  -24.7760 O   0  0  0  0  0  0  0  0  0  0  0  0
  -11.2840   -0.5310  -23.6210 C   0  0  0  0  0  0  0  0  0  0  0  0
  -12.6780   -0.5530  -23.5560 C   0  0  0  0  0  0  0  0  0  0  0  0
  -13.3240   -1.4690  -22.7500 C   0  0  0  0  0  0  0  0  0  0  0  0
  -12.5540   -2.3410  -21.9880 C   0  0  0  0  0  0  0  0  0  0  0  0
  -13.1770   -3.1890  -21.1530 F   0  0  0  0  0  0  0  0  0  0  0  0
  -11.1780   -2.3520  -22.0480 C   0  0  0  0  0  0  0  0  0  0  0  0
  -10.5170   -1.4760  -22.9190 C   0  0  0  0  0  0  0  0  0  0  0  0
  -10.6460   -3.0240  -21.3850 H   0  0  0  0  0  0  0  0  0  0  0  0
  -14.4010   -1.5080  -22.6700 H   0  0  0  0  0  0  0  0  0  0  0  0
  -13.2210    0.1850  -24.1380 H   0  0  0  0  0  0  0  0  0  0  0  0
   -7.4990   -0.5200  -24.2260 H   0  0  0  0  0  0  0  0  0  0  0  0
   -8.7520   -1.4470  -25.1250 H   0  0  0  0  0  0  0  0  0  0  0  0
   -6.9080   -3.4140  -21.1970 H   0  0  0  0  0  0  0  0  0  0  0  0
   -6.1460   -2.4760  -22.4940 H   0  0  0  0  0  0  0  0  0  0  0  0
   -8.9910   -3.4800  -22.2840 H   0  0  0  0  0  0  0  0  0  0  0  0
   -8.7520   -3.7180  -24.7890 H   0  0  0  0  0  0  0  0  0  0  0  0
   -7.1350   -3.0060  -24.6740 H   0  0  0  0  0  0  0  0  0  0  0  0
   -7.4720   -4.5540  -23.8990 H   0  0  0  0  0  0  0  0  0  0  0  0
  1  2  1  0  0  0  0
  1 54  1  0  0  0  0
  1 55  1  0  0  0  0
  1 56  1  0  0  0  0
  2  3  1  0  0  0  0
  2 23  1  0  0  0  0
  2 53  1  1  0  0  0
  3  4  1  0  0  0  0
  3 51  1  0  0  0  0
  3 52  1  0  0  0  0
  4  5  1  0  0  0  0
  4 21  1  0  0  0  0
  5  6  2  0  0  0  0
  5 14  1  0  0  0  0
  6  7  1  0  0  0  0
  6 20  1  0  0  0  0
  7  8  2  0  0  0  0
  8  9  1  0  0  0  0
  8 19  1  0  0  0  0
  9 10  2  0  0  0  0
  9 14  1  0  0  0  0
 10 11  1  0  0  0  0
 10 18  1  0  0  0  0
 11 12  2  0  0  0  0
 11 17  1  0  0  0  0
 12 13  1  0  0  0  0
 12 16  1  0  0  0  0
 13 14  2  0  0  0  0
 13 15  1  0  0  0  0
 21 22  2  0  0  0  0
 23 21  1  1  0  0  0
 23 24  1  0  0  0  0
 23 45  1  0  0  0  0
 24 25  1  0  0  0  0
 24 49  1  0  0  0  0
 24 50  1  0  0  0  0
 25 26  1  0  0  0  0
 25 37  1  0  0  0  0
 26 27  1  0  0  0  0
 26 35  1  0  0  0  0
 26 36  1  0  0  0  0
 27 28  1  0  0  0  0
 27 31  2  0  0  0  0
 28 29  2  0  0  0  0
 28 34  1  0  0  0  0
 29 30  1  0  0  0  0
 29 33  1  0  0  0  0
 30 31  1  0  0  0  0
 30 32  1  0  0  0  0
 37 38  2  0  0  0  0
 37 39  1  0  0  0  0
 39 40  2  0  0  0  0
 39 45  1  0  0  0  0
 40 41  1  0  0  0  0
 40 48  1  0  0  0  0
 41 42  2  0  0  0  0
 41 47  1  0  0  0  0
 42 43  1  0  0  0  0
 42 44  1  0  0  0  0
 44 45  2  0  0  0  0
 44 46  1  0  0  0  0
M  END
>  <MODEL>
       1

$$$$
