tmp_first_model_3_40.pdb
 OpenBabel08272518143D

 40 42  0  0  0  0  0  0  0  0999 V2000
   -9.2960   -6.6220  -25.1370 C   0  0  0  0  0  0  0  0  0  0  0  0
   -8.9660   -5.7830  -23.9040 C   0  0  0  0  0  0  0  0  0  0  0  0
   -7.5200   -5.9540  -23.4560 C   0  0  0  0  0  0  0  0  0  0  0  0
   -7.2970   -5.1130  -22.2110 C   0  0  0  0  0  0  0  0  0  0  0  0
   -7.5870   -3.7030  -22.4180 N   0  0  0  0  0  0  0  0  0  0  0  0
   -6.7720   -2.7870  -21.7880 C   0  0  0  0  0  0  0  0  0  0  0  0
   -5.5810   -3.0040  -21.6270 O   0  0  0  0  0  0  0  0  0  0  0  0
   -7.4090   -1.4830  -21.2640 C   0  0  0  0  0  0  0  0  0  0  0  0
   -6.5820   -0.8290  -20.1810 C   0  0  0  0  0  0  0  0  0  0  0  0
   -6.8810   -1.0450  -18.8600 C   0  0  0  0  0  0  0  0  0  0  0  0
   -6.1980   -0.5370  -17.7980 N   0  0  0  0  0  0  0  0  0  0  0  0
   -5.1620    0.2180  -18.0700 C   0  0  0  0  0  0  0  0  0  0  0  0
   -4.7210    0.5250  -19.3840 C   0  0  0  0  0  0  0  0  0  0  0  0
   -3.5940    1.3500  -19.6220 C   0  0  0  0  0  0  0  0  0  0  0  0
   -3.1920    1.6260  -20.9010 C   0  0  0  0  0  0  0  0  0  0  0  0
   -3.9010    1.0820  -21.9950 C   0  0  0  0  0  0  0  0  0  0  0  0
   -4.9950    0.2790  -21.7900 C   0  0  0  0  0  0  0  0  0  0  0  0
   -5.4440   -0.0180  -20.4760 C   0  0  0  0  0  0  0  0  0  0  0  0
   -5.5250   -0.1480  -22.6370 H   0  0  0  0  0  0  0  0  0  0  0  0
   -3.5790    1.3140  -23.0060 H   0  0  0  0  0  0  0  0  0  0  0  0
   -2.3350    2.2690  -21.0770 H   0  0  0  0  0  0  0  0  0  0  0  0
   -3.0770    1.7690  -18.7620 H   0  0  0  0  0  0  0  0  0  0  0  0
   -4.6140    0.6280  -17.2180 H   0  0  0  0  0  0  0  0  0  0  0  0
   -7.7290   -1.6700  -18.5820 H   0  0  0  0  0  0  0  0  0  0  0  0
   -7.5640   -0.8000  -22.1100 H   0  0  0  0  0  0  0  0  0  0  0  0
   -8.4070   -1.7100  -20.8640 H   0  0  0  0  0  0  0  0  0  0  0  0
   -8.9620   -3.4750  -22.8240 C   0  0  0  0  0  0  0  0  0  0  0  0
   -9.2670   -4.2940  -24.0850 C   0  0  0  0  0  0  0  0  0  0  0  0
  -10.3270   -4.1670  -24.3270 H   0  0  0  0  0  0  0  0  0  0  0  0
   -8.6620   -3.9120  -24.9200 H   0  0  0  0  0  0  0  0  0  0  0  0
   -9.1010   -2.4080  -23.0170 H   0  0  0  0  0  0  0  0  0  0  0  0
   -9.6710   -3.7720  -22.0220 H   0  0  0  0  0  0  0  0  0  0  0  0
   -8.0040   -5.4750  -21.4430 H   0  0  0  0  0  0  0  0  0  0  0  0
   -6.2740   -5.1750  -21.8450 H   0  0  0  0  0  0  0  0  0  0  0  0
   -6.8270   -5.6910  -24.2710 H   0  0  0  0  0  0  0  0  0  0  0  0
   -7.3450   -7.0060  -23.1940 H   0  0  0  0  0  0  0  0  0  0  0  0
   -9.5810   -6.1160  -23.0670 H   0  0  0  0  0  0  0  0  0  0  0  0
   -9.1170   -7.6870  -24.9530 H   0  0  0  0  0  0  0  0  0  0  0  0
  -10.3450   -6.5060  -25.4310 H   0  0  0  0  0  0  0  0  0  0  0  0
   -8.6700   -6.3200  -25.9850 H   0  0  0  0  0  0  0  0  0  0  0  0
  1  2  1  0  0  0  0
  1 38  1  0  0  0  0
  1 39  1  0  0  0  0
  1 40  1  0  0  0  0
  2  3  1  0  0  0  0
  2 28  1  0  0  0  0
  2 37  1  0  0  0  0
  3  4  1  0  0  0  0
  3 35  1  0  0  0  0
  3 36  1  0  0  0  0
  4  5  1  0  0  0  0
  4 33  1  0  0  0  0
  4 34  1  0  0  0  0
  5  6  1  0  0  0  0
  5 27  1  0  0  0  0
  6  7  2  0  0  0  0
  6  8  1  0  0  0  0
  8  9  1  0  0  0  0
  8 25  1  0  0  0  0
  8 26  1  0  0  0  0
  9 10  2  0  0  0  0
  9 18  1  0  0  0  0
 10 11  1  0  0  0  0
 10 24  1  0  0  0  0
 11 12  2  0  0  0  0
 12 13  1  0  0  0  0
 12 23  1  0  0  0  0
 13 14  2  0  0  0  0
 13 18  1  0  0  0  0
 14 15  1  0  0  0  0
 14 22  1  0  0  0  0
 15 16  2  0  0  0  0
 15 21  1  0  0  0  0
 16 17  1  0  0  0  0
 16 20  1  0  0  0  0
 17 18  2  0  0  0  0
 17 19  1  0  0  0  0
 27 28  1  0  0  0  0
 27 31  1  0  0  0  0
 27 32  1  0  0  0  0
 28 29  1  0  0  0  0
 28 30  1  0  0  0  0
M  END
>  <MODEL>
       1

$$$$
