tmp_first_model_16_51.pdb
 OpenBabel08282501503D

 50 52  0  0  0  0  0  0  0  0999 V2000
  -11.3070   -0.3470  -25.0680 C   0  0  0  0  0  0  0  0  0  0  0  0
  -10.7050   -0.0230  -23.9340 C   0  0  0  0  0  0  0  0  0  0  0  0
  -10.6870   -0.9780  -22.7660 C   0  0  0  0  0  0  0  0  0  0  0  0
   -9.3420   -1.4850  -22.5150 N   0  0  0  0  0  0  0  0  0  0  0  0
   -8.6500   -0.8770  -21.4830 C   0  0  0  0  0  0  0  0  0  0  0  0
   -9.1530   -0.0200  -20.7620 O   0  0  0  0  0  0  0  0  0  0  0  0
   -7.3830   -1.3330  -21.2800 N   0  0  0  0  0  0  0  0  0  0  0  0
   -6.6060   -0.8340  -20.2200 C   0  0  0  0  0  0  0  0  0  0  0  0
   -6.9410   -1.1030  -18.9180 C   0  0  0  0  0  0  0  0  0  0  0  0
   -6.1860   -0.7320  -17.8630 N   0  0  0  0  0  0  0  0  0  0  0  0
   -5.1240   -0.0000  -18.1060 C   0  0  0  0  0  0  0  0  0  0  0  0
   -4.7290    0.4340  -19.4070 C   0  0  0  0  0  0  0  0  0  0  0  0
   -3.6340    1.3100  -19.6320 C   0  0  0  0  0  0  0  0  0  0  0  0
   -3.2680    1.6480  -20.9080 C   0  0  0  0  0  0  0  0  0  0  0  0
   -3.9820    1.1490  -22.0180 C   0  0  0  0  0  0  0  0  0  0  0  0
   -5.0770    0.3380  -21.8260 C   0  0  0  0  0  0  0  0  0  0  0  0
   -5.4700   -0.0330  -20.5110 C   0  0  0  0  0  0  0  0  0  0  0  0
   -5.6390   -0.0290  -22.6810 H   0  0  0  0  0  0  0  0  0  0  0  0
   -3.6600    1.4040  -23.0240 H   0  0  0  0  0  0  0  0  0  0  0  0
   -2.4140    2.2990  -21.0790 H   0  0  0  0  0  0  0  0  0  0  0  0
   -3.1080    1.7130  -18.7710 H   0  0  0  0  0  0  0  0  0  0  0  0
   -4.5150    0.2920  -17.2490 H   0  0  0  0  0  0  0  0  0  0  0  0
   -7.8500   -1.6580  -18.6990 H   0  0  0  0  0  0  0  0  0  0  0  0
   -6.9690   -1.9390  -21.9690 H   0  0  0  0  0  0  0  0  0  0  0  0
   -8.7440   -2.2270  -23.5810 C   0  0  0  0  0  0  0  0  0  0  0  0
   -9.1880   -3.5190  -23.8570 C   0  0  0  0  0  0  0  0  0  0  0  0
   -8.5900   -4.2500  -24.8780 C   0  0  0  0  0  0  0  0  0  0  0  0
   -7.5960   -3.6870  -25.6690 C   0  0  0  0  0  0  0  0  0  0  0  0
   -7.2180   -2.3750  -25.4260 C   0  0  0  0  0  0  0  0  0  0  0  0
   -5.9840   -1.6510  -26.4120 Cl  0  0  0  0  0  0  0  0  0  0  0  0
   -7.7870   -1.6300  -24.4030 C   0  0  0  0  0  0  0  0  0  0  0  0
   -7.4980   -0.5930  -24.2530 H   0  0  0  0  0  0  0  0  0  0  0  0
   -7.1150   -4.2490  -26.4620 H   0  0  0  0  0  0  0  0  0  0  0  0
   -8.9070   -5.2710  -25.0630 H   0  0  0  0  0  0  0  0  0  0  0  0
   -9.9860   -3.9560  -23.2570 H   0  0  0  0  0  0  0  0  0  0  0  0
  -11.3670   -1.8110  -22.9810 H   0  0  0  0  0  0  0  0  0  0  0  0
  -11.0020   -0.5150  -21.8390 H   0  0  0  0  0  0  0  0  0  0  0  0
   -9.8170    1.1960  -24.0070 C   0  0  0  0  0  0  0  0  0  0  0  0
   -9.4920    1.6600  -25.0990 O   0  0  0  0  0  0  0  0  0  0  0  0
   -9.3430    1.7530  -22.8720 N   0  0  0  0  0  0  0  0  0  0  0  0
   -8.1110    2.5100  -23.0010 C   0  0  0  0  0  0  0  0  0  0  0  0
   -7.5150    2.8710  -21.6550 C   0  0  0  0  0  0  0  0  0  0  0  0
   -7.5240    2.0160  -20.9670 H   0  0  0  0  0  0  0  0  0  0  0  0
   -6.4760    3.1910  -21.7700 H   0  0  0  0  0  0  0  0  0  0  0  0
   -8.0560    3.7060  -21.2080 H   0  0  0  0  0  0  0  0  0  0  0  0
   -7.3880    1.8970  -23.5590 H   0  0  0  0  0  0  0  0  0  0  0  0
   -8.3230    3.3970  -23.6100 H   0  0  0  0  0  0  0  0  0  0  0  0
   -9.5610    1.3590  -21.9650 H   0  0  0  0  0  0  0  0  0  0  0  0
  -11.0790    0.2410  -25.9440 H   0  0  0  0  0  0  0  0  0  0  0  0
  -12.0320   -1.1440  -25.1450 H   0  0  0  0  0  0  0  0  0  0  0  0
  1  2  2  0  0  0  0
  1 49  1  0  0  0  0
  1 50  1  0  0  0  0
  2  3  1  0  0  0  0
  2 38  1  0  0  0  0
  3  4  1  0  0  0  0
  3 36  1  0  0  0  0
  3 37  1  0  0  0  0
  4  5  1  0  0  0  0
  4 25  1  0  0  0  0
  5  6  2  0  0  0  0
  5  7  1  0  0  0  0
  7  8  1  0  0  0  0
  7 24  1  0  0  0  0
  8  9  2  0  0  0  0
  8 17  1  0  0  0  0
  9 10  1  0  0  0  0
  9 23  1  0  0  0  0
 10 11  2  0  0  0  0
 11 12  1  0  0  0  0
 11 22  1  0  0  0  0
 12 13  2  0  0  0  0
 12 17  1  0  0  0  0
 13 14  1  0  0  0  0
 13 21  1  0  0  0  0
 14 15  2  0  0  0  0
 14 20  1  0  0  0  0
 15 16  1  0  0  0  0
 15 19  1  0  0  0  0
 16 17  2  0  0  0  0
 16 18  1  0  0  0  0
 25 26  2  0  0  0  0
 25 31  1  0  0  0  0
 26 27  1  0  0  0  0
 26 35  1  0  0  0  0
 27 28  2  0  0  0  0
 27 34  1  0  0  0  0
 28 29  1  0  0  0  0
 28 33  1  0  0  0  0
 29 30  1  0  0  0  0
 29 31  2  0  0  0  0
 31 32  1  0  0  0  0
 38 39  2  0  0  0  0
 38 40  1  0  0  0  0
 40 41  1  0  0  0  0
 40 48  1  0  0  0  0
 41 42  1  0  0  0  0
 41 46  1  0  0  0  0
 41 47  1  0  0  0  0
 42 43  1  0  0  0  0
 42 44  1  0  0  0  0
 42 45  1  0  0  0  0
M  END
>  <MODEL>
       1

$$$$
