tmp_first_model_7_24.pdb
 OpenBabel08272520323D

 65 70  0  0  1  0  0  0  0  0999 V2000
   -6.1000   -7.8200  -25.3810 O   0  0  0  0  0  0  0  0  0  0  0  0
   -6.0030   -7.2770  -24.2920 C   0  0  0  0  0  0  0  0  0  0  0  0
   -7.1780   -6.5840  -23.6000 C   0  0  0  0  0  0  0  0  0  0  0  0
   -7.0900   -5.0930  -23.7810 N   0  3  1  0  0  0  0  0  0  0  0  0
   -7.2690   -4.7490  -25.2780 C   0  0  0  0  0  0  0  0  0  0  0  0
   -7.2090   -3.2670  -25.5150 C   0  0  0  0  0  0  0  0  0  0  0  0
   -6.8450   -2.7860  -26.7700 C   0  0  0  0  0  0  0  0  0  0  0  0
   -6.7780   -1.4250  -27.0340 C   0  0  0  0  0  0  0  0  0  0  0  0
   -7.0850   -0.5290  -26.0150 C   0  0  0  0  0  0  0  0  0  0  0  0
   -6.9900    1.1860  -26.3160 Cl  0  0  0  0  0  0  0  0  0  0  0  0
   -7.4680   -0.9850  -24.7630 C   0  0  0  0  0  0  0  0  0  0  0  0
   -7.5430   -2.3600  -24.5070 C   0  0  0  0  0  0  0  0  0  0  0  0
   -7.9450   -2.8130  -23.1140 C   0  0  2  0  0  0  0  0  0  0  0  0
   -9.1880   -2.0930  -22.5710 C   0  0  0  0  0  0  0  0  0  0  0  0
   -8.7220   -1.1440  -21.4600 C   0  0  0  0  0  0  0  0  0  0  0  0
   -7.3210   -1.4850  -21.2440 N   0  0  0  0  0  0  0  0  0  0  0  0
   -6.5530   -0.8880  -20.2040 C   0  0  0  0  0  0  0  0  0  0  0  0
   -6.8940   -1.0640  -18.8820 C   0  0  0  0  0  0  0  0  0  0  0  0
   -6.2130   -0.5410  -17.8340 N   0  0  0  0  0  0  0  0  0  0  0  0
   -5.1730    0.2090  -18.0960 C   0  0  0  0  0  0  0  0  0  0  0  0
   -4.7280    0.5120  -19.4120 C   0  0  0  0  0  0  0  0  0  0  0  0
   -3.6070    1.3550  -19.6400 C   0  0  0  0  0  0  0  0  0  0  0  0
   -3.2240    1.6660  -20.9140 C   0  0  0  0  0  0  0  0  0  0  0  0
   -3.9500    1.1590  -22.0130 C   0  0  0  0  0  0  0  0  0  0  0  0
   -5.0310    0.3350  -21.8230 C   0  0  0  0  0  0  0  0  0  0  0  0
   -5.4420   -0.0300  -20.5070 C   0  0  0  0  0  0  0  0  0  0  0  0
   -5.5830   -0.0420  -22.6820 H   0  0  0  0  0  0  0  0  0  0  0  0
   -3.6490    1.4230  -23.0220 H   0  0  0  0  0  0  0  0  0  0  0  0
   -2.3730    2.3200  -21.0850 H   0  0  0  0  0  0  0  0  0  0  0  0
   -3.0840    1.7610  -18.7770 H   0  0  0  0  0  0  0  0  0  0  0  0
   -4.6260    0.6150  -17.2440 H   0  0  0  0  0  0  0  0  0  0  0  0
   -7.7510   -1.6780  -18.6040 H   0  0  0  0  0  0  0  0  0  0  0  0
   -6.8410   -2.4350  -22.1190 C   0  0  0  0  0  0  0  0  0  0  0  0
   -5.7390   -2.9620  -22.1280 O   0  0  0  0  0  0  0  0  0  0  0  0
   -9.2960   -1.3420  -20.5610 H   0  0  0  0  0  0  0  0  0  0  0  0
   -8.8470   -0.0810  -21.7130 H   0  0  0  0  0  0  0  0  0  0  0  0
   -9.8610   -2.8390  -22.1370 H   0  0  0  0  0  0  0  0  0  0  0  0
   -9.7490   -1.5840  -23.3590 H   0  0  0  0  0  0  0  0  0  0  0  0
   -8.1520   -4.3340  -23.0170 C   0  0  0  0  0  0  0  0  0  0  0  0
   -8.1340   -4.6120  -21.9610 H   0  0  0  0  0  0  0  0  0  0  0  0
   -9.1310   -4.5910  -23.4320 H   0  0  0  0  0  0  0  0  0  0  0  0
   -7.7040   -0.2570  -23.9890 H   0  0  0  0  0  0  0  0  0  0  0  0
   -6.4850   -1.0520  -28.0100 H   0  0  0  0  0  0  0  0  0  0  0  0
   -6.5990   -3.4930  -27.5580 H   0  0  0  0  0  0  0  0  0  0  0  0
   -6.5070   -5.2700  -25.8560 H   0  0  0  0  0  0  0  0  0  0  0  0
   -8.2370   -5.1570  -25.5970 H   0  0  0  0  0  0  0  0  0  0  0  0
   -6.1660   -4.7130  -23.4580 H   0  0  0  0  0  0  0  0  0  0  0  0
   -7.2240   -6.8110  -22.5320 H   0  0  0  0  0  0  0  0  0  0  0  0
   -8.0990   -6.9620  -24.0500 H   0  0  0  0  0  0  0  0  0  0  0  0
   -4.8310   -7.2130  -23.6240 N   0  0  0  0  0  0  0  0  0  0  0  0
   -3.6680   -7.8620  -24.2070 C   0  0  0  0  0  0  0  0  0  0  0  0
   -2.4070   -7.5600  -23.4160 C   0  0  1  0  0  0  0  0  0  0  0  0
   -1.0890   -8.0310  -24.0960 C   0  0  0  0  0  0  0  0  0  0  0  0
   -0.6170   -6.5670  -24.2070 C   0  0  1  0  0  0  0  0  0  0  0  0
   -0.5000   -6.1280  -25.5190 F   0  0  0  0  0  0  0  0  0  0  0  0
   -1.9070   -6.0840  -23.5110 C   0  0  0  0  0  0  0  0  0  0  0  0
   -1.7700   -5.5700  -22.5510 H   0  0  0  0  0  0  0  0  0  0  0  0
   -2.5140   -5.4290  -24.1510 H   0  0  0  0  0  0  0  0  0  0  0  0
    0.3310   -6.3210  -23.7130 H   0  0  0  0  0  0  0  0  0  0  0  0
   -1.2260   -8.5200  -25.0680 H   0  0  0  0  0  0  0  0  0  0  0  0
   -0.4580   -8.6880  -23.4870 H   0  0  0  0  0  0  0  0  0  0  0  0
   -2.5410   -7.9280  -22.3850 H   0  0  0  0  0  0  0  0  0  0  0  0
   -3.5700   -7.5130  -25.2470 H   0  0  0  0  0  0  0  0  0  0  0  0
   -3.8590   -8.9430  -24.2640 H   0  0  0  0  0  0  0  0  0  0  0  0
   -4.7850   -6.7080  -22.7490 H   0  0  0  0  0  0  0  0  0  0  0  0
  1  2  2  0  0  0  0
  2  3  1  0  0  0  0
  2 50  1  0  0  0  0
  3  4  1  0  0  0  0
  3 48  1  0  0  0  0
  3 49  1  0  0  0  0
  4  5  1  0  0  0  0
  4 39  1  0  0  0  0
  4 47  1  1  0  0  0
  5  6  1  0  0  0  0
  5 45  1  0  0  0  0
  5 46  1  0  0  0  0
  6  7  2  0  0  0  0
  6 12  1  0  0  0  0
  7  8  1  0  0  0  0
  7 44  1  0  0  0  0
  8  9  2  0  0  0  0
  8 43  1  0  0  0  0
  9 10  1  0  0  0  0
  9 11  1  0  0  0  0
 11 12  2  0  0  0  0
 11 42  1  0  0  0  0
 13 12  1  6  0  0  0
 13 14  1  0  0  0  0
 13 33  1  0  0  0  0
 13 39  1  0  0  0  0
 14 15  1  0  0  0  0
 14 37  1  0  0  0  0
 14 38  1  0  0  0  0
 15 16  1  0  0  0  0
 15 35  1  0  0  0  0
 15 36  1  0  0  0  0
 16 17  1  0  0  0  0
 16 33  1  0  0  0  0
 17 18  2  0  0  0  0
 17 26  1  0  0  0  0
 18 19  1  0  0  0  0
 18 32  1  0  0  0  0
 19 20  2  0  0  0  0
 20 21  1  0  0  0  0
 20 31  1  0  0  0  0
 21 22  2  0  0  0  0
 21 26  1  0  0  0  0
 22 23  1  0  0  0  0
 22 30  1  0  0  0  0
 23 24  2  0  0  0  0
 23 29  1  0  0  0  0
 24 25  1  0  0  0  0
 24 28  1  0  0  0  0
 25 26  2  0  0  0  0
 25 27  1  0  0  0  0
 33 34  2  0  0  0  0
 39 40  1  0  0  0  0
 39 41  1  0  0  0  0
 50 51  1  0  0  0  0
 50 65  1  0  0  0  0
 51 52  1  0  0  0  0
 51 63  1  0  0  0  0
 51 64  1  0  0  0  0
 52 53  1  0  0  0  0
 52 56  1  0  0  0  0
 52 62  1  1  0  0  0
 53 54  1  0  0  0  0
 53 60  1  0  0  0  0
 53 61  1  0  0  0  0
 54 55  1  0  0  0  0
 54 56  1  0  0  0  0
 54 59  1  1  0  0  0
 56 57  1  0  0  0  0
 56 58  1  0  0  0  0
M  CHG  1   4   1
M  END
>  <MODEL>
       1

$$$$
