tmp_first_model_11_86.pdb
 OpenBabel08272522543D

 43 45  0  0  1  0  0  0  0  0999 V2000
   -8.5470   -5.5630  -25.7830 C   0  0  0  0  0  0  0  0  0  0  0  0
   -9.0630   -5.4490  -24.3460 C   0  0  1  0  0  0  0  0  0  0  0  0
   -8.0220   -5.8730  -23.3130 C   0  0  0  0  0  0  0  0  0  0  0  0
   -6.9340   -4.8300  -23.0970 C   0  0  0  0  0  0  0  0  0  0  0  0
   -7.5150   -3.5420  -22.7120 N   0  0  0  0  0  0  0  0  0  0  0  0
   -6.7560   -2.7450  -21.8640 C   0  0  0  0  0  0  0  0  0  0  0  0
   -5.6210   -3.0550  -21.5510 O   0  0  0  0  0  0  0  0  0  0  0  0
   -7.4130   -1.4740  -21.2700 C   0  0  0  0  0  0  0  0  0  0  0  0
   -6.5800   -0.8310  -20.1840 C   0  0  0  0  0  0  0  0  0  0  0  0
   -6.8740   -1.0460  -18.8630 C   0  0  0  0  0  0  0  0  0  0  0  0
   -6.1920   -0.5410  -17.7990 N   0  0  0  0  0  0  0  0  0  0  0  0
   -5.1590    0.2210  -18.0670 C   0  0  0  0  0  0  0  0  0  0  0  0
   -4.7210    0.5280  -19.3820 C   0  0  0  0  0  0  0  0  0  0  0  0
   -3.5920    1.3530  -19.6230 C   0  0  0  0  0  0  0  0  0  0  0  0
   -3.1900    1.6310  -20.9010 C   0  0  0  0  0  0  0  0  0  0  0  0
   -3.9010    1.0890  -21.9940 C   0  0  0  0  0  0  0  0  0  0  0  0
   -4.9980    0.2870  -21.7860 C   0  0  0  0  0  0  0  0  0  0  0  0
   -5.4450   -0.0140  -20.4740 C   0  0  0  0  0  0  0  0  0  0  0  0
   -5.5280   -0.1300  -22.6360 H   0  0  0  0  0  0  0  0  0  0  0  0
   -3.5780    1.3130  -23.0060 H   0  0  0  0  0  0  0  0  0  0  0  0
   -2.3310    2.2720  -21.0850 H   0  0  0  0  0  0  0  0  0  0  0  0
   -3.0610    1.7730  -18.7720 H   0  0  0  0  0  0  0  0  0  0  0  0
   -4.6050    0.6270  -17.2170 H   0  0  0  0  0  0  0  0  0  0  0  0
   -7.7210   -1.6700  -18.5850 H   0  0  0  0  0  0  0  0  0  0  0  0
   -7.6210   -0.7470  -22.0680 H   0  0  0  0  0  0  0  0  0  0  0  0
   -8.3930   -1.7500  -20.8540 H   0  0  0  0  0  0  0  0  0  0  0  0
   -8.5400   -2.9970  -23.6130 C   0  0  1  0  0  0  0  0  0  0  0  0
   -7.9410   -2.2910  -24.8400 C   0  0  0  0  0  0  0  0  0  0  0  0
   -8.7280   -1.9760  -25.5350 H   0  0  0  0  0  0  0  0  0  0  0  0
   -7.2480   -2.9310  -25.3930 H   0  0  0  0  0  0  0  0  0  0  0  0
   -7.3900   -1.3890  -24.5500 H   0  0  0  0  0  0  0  0  0  0  0  0
   -9.5910   -4.0640  -23.9670 C   0  0  0  0  0  0  0  0  0  0  0  0
  -10.2120   -3.6820  -24.7840 H   0  0  0  0  0  0  0  0  0  0  0  0
  -10.2620   -4.1730  -23.1080 H   0  0  0  0  0  0  0  0  0  0  0  0
   -9.0790   -2.2370  -23.0430 H   0  0  0  0  0  0  0  0  0  0  0  0
   -6.2960   -4.7530  -23.9900 H   0  0  0  0  0  0  0  0  0  0  0  0
   -6.2720   -5.1440  -22.2920 H   0  0  0  0  0  0  0  0  0  0  0  0
   -7.5750   -6.8280  -23.6110 H   0  0  0  0  0  0  0  0  0  0  0  0
   -8.5090   -6.0410  -22.3510 H   0  0  0  0  0  0  0  0  0  0  0  0
   -9.9140   -6.1420  -24.2750 H   0  0  0  0  0  0  0  0  0  0  0  0
   -7.6000   -5.0390  -25.9390 H   0  0  0  0  0  0  0  0  0  0  0  0
   -8.3800   -6.6140  -26.0490 H   0  0  0  0  0  0  0  0  0  0  0  0
   -9.2680   -5.1520  -26.4970 H   0  0  0  0  0  0  0  0  0  0  0  0
  1  2  1  0  0  0  0
  1 41  1  0  0  0  0
  1 42  1  0  0  0  0
  1 43  1  0  0  0  0
  2  3  1  0  0  0  0
  2 32  1  0  0  0  0
  2 40  1  1  0  0  0
  3  4  1  0  0  0  0
  3 38  1  0  0  0  0
  3 39  1  0  0  0  0
  4  5  1  0  0  0  0
  4 36  1  0  0  0  0
  4 37  1  0  0  0  0
  5  6  1  0  0  0  0
  5 27  1  0  0  0  0
  6  7  2  0  0  0  0
  6  8  1  0  0  0  0
  8  9  1  0  0  0  0
  8 25  1  0  0  0  0
  8 26  1  0  0  0  0
  9 10  2  0  0  0  0
  9 18  1  0  0  0  0
 10 11  1  0  0  0  0
 10 24  1  0  0  0  0
 11 12  2  0  0  0  0
 12 13  1  0  0  0  0
 12 23  1  0  0  0  0
 13 14  2  0  0  0  0
 13 18  1  0  0  0  0
 14 15  1  0  0  0  0
 14 22  1  0  0  0  0
 15 16  2  0  0  0  0
 15 21  1  0  0  0  0
 16 17  1  0  0  0  0
 16 20  1  0  0  0  0
 17 18  2  0  0  0  0
 17 19  1  0  0  0  0
 27 28  1  0  0  0  0
 27 32  1  0  0  0  0
 27 35  1  1  0  0  0
 28 29  1  0  0  0  0
 28 30  1  0  0  0  0
 28 31  1  0  0  0  0
 32 33  1  0  0  0  0
 32 34  1  0  0  0  0
M  END
>  <MODEL>
       1

$$$$
