tmp_first_model_11_44.pdb
 OpenBabel08272522543D

 60 64  0  0  1  0  0  0  0  0999 V2000
   -7.4020    3.3800  -21.7820 C   0  0  0  0  0  0  0  0  0  0  0  0
   -8.2810    2.9260  -22.8490 N   0  0  0  0  0  0  0  0  0  0  0  0
   -7.7170    2.2360  -23.8650 C   0  0  0  0  0  0  0  0  0  0  0  0
   -6.5030    2.1200  -23.9840 O   0  0  0  0  0  0  0  0  0  0  0  0
   -8.6650    1.6130  -24.8930 C   0  0  0  0  0  0  0  0  0  0  0  0
   -9.3880    0.4580  -24.3900 N   0  0  0  0  0  0  0  0  0  0  0  0
   -8.6700   -0.7950  -24.2240 C   0  0  0  0  0  0  0  0  0  0  0  0
   -9.0590   -1.5130  -22.9070 C   0  0  2  0  0  0  0  0  0  0  0  0
   -8.5110   -0.7280  -21.6890 C   0  0  0  0  0  0  0  0  0  0  0  0
   -8.9590    0.2990  -21.2160 O   0  0  0  0  0  0  0  0  0  0  0  0
   -7.4040   -1.3840  -21.2020 N   0  0  0  0  0  0  0  0  0  0  0  0
   -6.6030   -0.8120  -20.1740 C   0  0  0  0  0  0  0  0  0  0  0  0
   -6.9120   -1.0410  -18.8560 C   0  0  0  0  0  0  0  0  0  0  0  0
   -6.2110   -0.5460  -17.8070 N   0  0  0  0  0  0  0  0  0  0  0  0
   -5.1710    0.2070  -18.0770 C   0  0  0  0  0  0  0  0  0  0  0  0
   -4.7310    0.5260  -19.3940 C   0  0  0  0  0  0  0  0  0  0  0  0
   -3.6050    1.3590  -19.6400 C   0  0  0  0  0  0  0  0  0  0  0  0
   -3.2200    1.6500  -20.9200 C   0  0  0  0  0  0  0  0  0  0  0  0
   -3.9410    1.1250  -22.0130 C   0  0  0  0  0  0  0  0  0  0  0  0
   -5.0350    0.3190  -21.8020 C   0  0  0  0  0  0  0  0  0  0  0  0
   -5.4650   -0.0010  -20.4850 C   0  0  0  0  0  0  0  0  0  0  0  0
   -5.5940   -0.0630  -22.6520 H   0  0  0  0  0  0  0  0  0  0  0  0
   -3.6500    1.3740  -23.0290 H   0  0  0  0  0  0  0  0  0  0  0  0
   -2.3680    2.3050  -21.0970 H   0  0  0  0  0  0  0  0  0  0  0  0
   -3.0760    1.7740  -18.7850 H   0  0  0  0  0  0  0  0  0  0  0  0
   -4.6190    0.6110  -17.2280 H   0  0  0  0  0  0  0  0  0  0  0  0
   -7.7660   -1.6650  -18.6030 H   0  0  0  0  0  0  0  0  0  0  0  0
   -7.0700   -2.5980  -21.9190 C   0  0  0  0  0  0  0  0  0  0  0  0
   -8.3290   -2.8860  -22.7590 C   0  0  2  0  0  0  0  0  0  0  0  0
   -7.9800   -3.6530  -24.0320 C   0  0  0  0  0  0  0  0  0  0  0  0
   -9.1480   -3.9350  -24.7620 O   0  0  0  0  0  0  0  0  0  0  0  0
   -8.8660   -4.5830  -25.9790 C   0  0  0  0  0  0  0  0  0  0  0  0
   -8.2690   -3.9460  -26.6520 H   0  0  0  0  0  0  0  0  0  0  0  0
   -8.3150   -5.5220  -25.8170 H   0  0  0  0  0  0  0  0  0  0  0  0
   -9.8210   -4.8080  -26.4580 H   0  0  0  0  0  0  0  0  0  0  0  0
   -7.2770   -3.0650  -24.6460 H   0  0  0  0  0  0  0  0  0  0  0  0
   -7.4680   -4.5970  -23.7760 H   0  0  0  0  0  0  0  0  0  0  0  0
   -9.0000   -3.5240  -22.1830 H   0  0  0  0  0  0  0  0  0  0  0  0
   -6.1900   -2.4440  -22.5650 H   0  0  0  0  0  0  0  0  0  0  0  0
   -6.8300   -3.4090  -21.2200 H   0  0  0  0  0  0  0  0  0  0  0  0
  -10.5780   -1.5590  -22.8370 C   0  0  0  0  0  0  0  0  0  0  0  0
  -11.2140   -2.4370  -21.9500 C   0  0  0  0  0  0  0  0  0  0  0  0
  -12.5940   -2.4510  -21.8570 C   0  0  0  0  0  0  0  0  0  0  0  0
  -13.3750   -3.5330  -20.7430 Cl  0  0  0  0  0  0  0  0  0  0  0  0
  -13.3810   -1.5960  -22.6280 C   0  0  0  0  0  0  0  0  0  0  0  0
  -12.7620   -0.6820  -23.4570 C   0  0  0  0  0  0  0  0  0  0  0  0
  -11.3720   -0.6360  -23.5350 C   0  0  0  0  0  0  0  0  0  0  0  0
  -10.7550    0.5000  -24.2980 C   0  0  0  0  0  0  0  0  0  0  0  0
  -11.4330    1.4040  -24.7640 O   0  0  0  0  0  0  0  0  0  0  0  0
  -13.3240    0.0510  -24.0300 H   0  0  0  0  0  0  0  0  0  0  0  0
  -14.4600   -1.6330  -22.5340 H   0  0  0  0  0  0  0  0  0  0  0  0
  -10.6410   -3.0910  -21.3040 H   0  0  0  0  0  0  0  0  0  0  0  0
   -8.8860   -1.4740  -25.0650 H   0  0  0  0  0  0  0  0  0  0  0  0
   -7.6020   -0.5590  -24.2110 H   0  0  0  0  0  0  0  0  0  0  0  0
   -9.4340    2.3210  -25.2100 H   0  0  0  0  0  0  0  0  0  0  0  0
   -8.0320    1.3380  -25.7450 H   0  0  0  0  0  0  0  0  0  0  0  0
   -9.2710    2.8390  -22.6800 H   0  0  0  0  0  0  0  0  0  0  0  0
   -6.7170    4.1490  -22.1520 H   0  0  0  0  0  0  0  0  0  0  0  0
   -6.8010    2.5350  -21.4160 H   0  0  0  0  0  0  0  0  0  0  0  0
   -8.0070    3.8020  -20.9820 H   0  0  0  0  0  0  0  0  0  0  0  0
  1  2  1  0  0  0  0
  1 58  1  0  0  0  0
  1 59  1  0  0  0  0
  1 60  1  0  0  0  0
  2  3  1  0  0  0  0
  2 57  1  0  0  0  0
  3  4  2  0  0  0  0
  3  5  1  0  0  0  0
  5  6  1  0  0  0  0
  5 55  1  0  0  0  0
  5 56  1  0  0  0  0
  6  7  1  0  0  0  0
  6 48  1  0  0  0  0
  7  8  1  0  0  0  0
  7 53  1  0  0  0  0
  7 54  1  0  0  0  0
  8  9  1  1  0  0  0
  8 29  1  0  0  0  0
  8 41  1  0  0  0  0
  9 10  2  0  0  0  0
  9 11  1  0  0  0  0
 11 12  1  0  0  0  0
 11 28  1  0  0  0  0
 12 13  2  0  0  0  0
 12 21  1  0  0  0  0
 13 14  1  0  0  0  0
 13 27  1  0  0  0  0
 14 15  2  0  0  0  0
 15 16  1  0  0  0  0
 15 26  1  0  0  0  0
 16 17  2  0  0  0  0
 16 21  1  0  0  0  0
 17 18  1  0  0  0  0
 17 25  1  0  0  0  0
 18 19  2  0  0  0  0
 18 24  1  0  0  0  0
 19 20  1  0  0  0  0
 19 23  1  0  0  0  0
 20 21  2  0  0  0  0
 20 22  1  0  0  0  0
 28 29  1  0  0  0  0
 28 39  1  0  0  0  0
 28 40  1  0  0  0  0
 29 30  1  0  0  0  0
 29 38  1  1  0  0  0
 30 31  1  0  0  0  0
 30 36  1  0  0  0  0
 30 37  1  0  0  0  0
 31 32  1  0  0  0  0
 32 33  1  0  0  0  0
 32 34  1  0  0  0  0
 32 35  1  0  0  0  0
 41 42  2  0  0  0  0
 41 47  1  0  0  0  0
 42 43  1  0  0  0  0
 42 52  1  0  0  0  0
 43 44  1  0  0  0  0
 43 45  2  0  0  0  0
 45 46  1  0  0  0  0
 45 51  1  0  0  0  0
 46 47  2  0  0  0  0
 46 50  1  0  0  0  0
 47 48  1  0  0  0  0
 48 49  2  0  0  0  0
M  END
>  <MODEL>
       1

$$$$
