tmp_first_model_9_56.pdb
 OpenBabel08272521403D

 57 62  0  0  1  0  0  0  0  0999 V2000
  -10.4690   -1.1380  -23.2460 C   0  0  0  0  0  0  0  0  0  0  0  0
   -9.0230   -1.4870  -22.9270 C   0  0  1  0  0  0  0  0  0  0  0  0
   -8.3940   -0.5280  -21.9060 C   0  0  0  0  0  0  0  0  0  0  0  0
   -7.4040   -1.3460  -21.2300 N   0  0  0  0  0  0  0  0  0  0  0  0
   -6.5850   -0.8440  -20.1910 C   0  0  0  0  0  0  0  0  0  0  0  0
   -6.8900   -1.0930  -18.8760 C   0  0  0  0  0  0  0  0  0  0  0  0
   -6.2110   -0.5690  -17.8260 N   0  0  0  0  0  0  0  0  0  0  0  0
   -5.1920    0.2110  -18.0880 C   0  0  0  0  0  0  0  0  0  0  0  0
   -4.7500    0.5220  -19.4060 C   0  0  0  0  0  0  0  0  0  0  0  0
   -3.6230    1.3500  -19.6400 C   0  0  0  0  0  0  0  0  0  0  0  0
   -3.2200    1.6200  -20.9180 C   0  0  0  0  0  0  0  0  0  0  0  0
   -3.9240    1.0790  -22.0170 C   0  0  0  0  0  0  0  0  0  0  0  0
   -5.0180    0.2740  -21.8180 C   0  0  0  0  0  0  0  0  0  0  0  0
   -5.4630   -0.0150  -20.4990 C   0  0  0  0  0  0  0  0  0  0  0  0
   -5.5390   -0.1540  -22.6670 H   0  0  0  0  0  0  0  0  0  0  0  0
   -3.5920    1.2980  -23.0280 H   0  0  0  0  0  0  0  0  0  0  0  0
   -2.3610    2.2590  -21.0970 H   0  0  0  0  0  0  0  0  0  0  0  0
   -3.1040    1.7660  -18.7810 H   0  0  0  0  0  0  0  0  0  0  0  0
   -4.6490    0.6350  -17.2400 H   0  0  0  0  0  0  0  0  0  0  0  0
   -7.7310   -1.7360  -18.6250 H   0  0  0  0  0  0  0  0  0  0  0  0
   -7.5670   -2.6970  -21.4360 C   0  0  0  0  0  0  0  0  0  0  0  0
   -6.8180   -3.5540  -21.0060 O   0  0  0  0  0  0  0  0  0  0  0  0
   -8.7960   -2.9210  -22.3310 C   0  0  1  0  0  0  0  0  0  0  0  0
   -9.9850   -3.3960  -21.4650 C   0  0  0  0  0  0  0  0  0  0  0  0
  -11.1000   -3.9180  -22.2480 N   0  0  0  0  0  0  0  0  0  0  0  0
  -12.4540   -3.8760  -21.7030 C   0  0  0  0  0  0  0  0  0  0  0  0
  -13.3250   -2.8410  -22.3680 C   0  0  0  0  0  0  0  0  0  0  0  0
  -13.7790   -3.2230  -23.5760 N   0  0  0  0  0  0  0  0  0  0  0  0
  -14.5050   -2.3520  -24.2480 C   0  0  0  0  0  0  0  0  0  0  0  0
  -14.8050   -1.1130  -23.7090 C   0  0  0  0  0  0  0  0  0  0  0  0
  -14.3720   -0.8560  -22.4340 C   0  0  0  0  0  0  0  0  0  0  0  0
  -13.5980   -1.7030  -21.7440 N   0  0  0  0  0  0  0  0  0  0  0  0
  -14.6570    0.0770  -21.9660 H   0  0  0  0  0  0  0  0  0  0  0  0
  -15.3800   -0.3700  -24.2140 H   0  0  0  0  0  0  0  0  0  0  0  0
  -14.8520   -2.6420  -25.2380 H   0  0  0  0  0  0  0  0  0  0  0  0
  -12.9110   -4.8120  -22.0020 H   0  0  0  0  0  0  0  0  0  0  0  0
  -12.4490   -3.7810  -20.6150 H   0  0  0  0  0  0  0  0  0  0  0  0
  -10.9150   -4.7040  -23.3520 C   0  0  0  0  0  0  0  0  0  0  0  0
  -11.8370   -5.2600  -23.9280 O   0  0  0  0  0  0  0  0  0  0  0  0
   -9.5200   -4.8290  -23.8310 C   0  0  0  0  0  0  0  0  0  0  0  0
   -9.2760   -5.7910  -24.8050 C   0  0  0  0  0  0  0  0  0  0  0  0
   -8.0290   -5.9020  -25.3810 C   0  0  0  0  0  0  0  0  0  0  0  0
   -7.0400   -5.0350  -24.9350 C   0  0  0  0  0  0  0  0  0  0  0  0
   -5.8330   -5.1030  -25.5160 F   0  0  0  0  0  0  0  0  0  0  0  0
   -7.2480   -4.0960  -23.9430 C   0  0  0  0  0  0  0  0  0  0  0  0
   -8.5150   -3.9810  -23.3680 C   0  0  0  0  0  0  0  0  0  0  0  0
   -6.4270   -3.4680  -23.6200 H   0  0  0  0  0  0  0  0  0  0  0  0
   -7.8210   -6.6210  -26.1650 H   0  0  0  0  0  0  0  0  0  0  0  0
  -10.1000   -6.4320  -25.0920 H   0  0  0  0  0  0  0  0  0  0  0  0
   -9.6500   -4.1680  -20.7700 H   0  0  0  0  0  0  0  0  0  0  0  0
  -10.3580   -2.5410  -20.8960 H   0  0  0  0  0  0  0  0  0  0  0  0
   -7.9290    0.3400  -22.3860 H   0  0  0  0  0  0  0  0  0  0  0  0
   -9.1430   -0.1490  -21.1940 H   0  0  0  0  0  0  0  0  0  0  0  0
   -8.4230   -1.4530  -23.8460 H   0  0  0  0  0  0  0  0  0  0  0  0
  -10.5370   -0.1760  -23.7580 H   0  0  0  0  0  0  0  0  0  0  0  0
  -11.0560   -1.0710  -22.3230 H   0  0  0  0  0  0  0  0  0  0  0  0
  -10.9180   -1.9090  -23.8770 H   0  0  0  0  0  0  0  0  0  0  0  0
  1  2  1  0  0  0  0
  1 55  1  0  0  0  0
  1 56  1  0  0  0  0
  1 57  1  0  0  0  0
  2  3  1  0  0  0  0
  2 23  1  0  0  0  0
  2 54  1  6  0  0  0
  3  4  1  0  0  0  0
  3 52  1  0  0  0  0
  3 53  1  0  0  0  0
  4  5  1  0  0  0  0
  4 21  1  0  0  0  0
  5  6  2  0  0  0  0
  5 14  1  0  0  0  0
  6  7  1  0  0  0  0
  6 20  1  0  0  0  0
  7  8  2  0  0  0  0
  8  9  1  0  0  0  0
  8 19  1  0  0  0  0
  9 10  2  0  0  0  0
  9 14  1  0  0  0  0
 10 11  1  0  0  0  0
 10 18  1  0  0  0  0
 11 12  2  0  0  0  0
 11 17  1  0  0  0  0
 12 13  1  0  0  0  0
 12 16  1  0  0  0  0
 13 14  2  0  0  0  0
 13 15  1  0  0  0  0
 21 22  2  0  0  0  0
 23 21  1  1  0  0  0
 23 24  1  0  0  0  0
 23 46  1  0  0  0  0
 24 25  1  0  0  0  0
 24 50  1  0  0  0  0
 24 51  1  0  0  0  0
 25 26  1  0  0  0  0
 25 38  1  0  0  0  0
 26 27  1  0  0  0  0
 26 36  1  0  0  0  0
 26 37  1  0  0  0  0
 27 28  2  0  0  0  0
 27 32  1  0  0  0  0
 28 29  1  0  0  0  0
 29 30  2  0  0  0  0
 29 35  1  0  0  0  0
 30 31  1  0  0  0  0
 30 34  1  0  0  0  0
 31 32  2  0  0  0  0
 31 33  1  0  0  0  0
 38 39  2  0  0  0  0
 38 40  1  0  0  0  0
 40 41  2  0  0  0  0
 40 46  1  0  0  0  0
 41 42  1  0  0  0  0
 41 49  1  0  0  0  0
 42 43  2  0  0  0  0
 42 48  1  0  0  0  0
 43 44  1  0  0  0  0
 43 45  1  0  0  0  0
 45 46  2  0  0  0  0
 45 47  1  0  0  0  0
M  END
>  <MODEL>
       1

$$$$
