tmp_first_model_7_30.pdb
 OpenBabel08272520323D

 58 63  0  0  1  0  0  0  0  0999 V2000
  -10.4550   -1.1480  -23.2410 C   0  0  0  0  0  0  0  0  0  0  0  0
   -9.0020   -1.4940  -22.9210 C   0  0  1  0  0  0  0  0  0  0  0  0
   -8.3630   -0.5340  -21.9070 C   0  0  0  0  0  0  0  0  0  0  0  0
   -7.3640   -1.3510  -21.2340 N   0  0  0  0  0  0  0  0  0  0  0  0
   -6.5640   -0.8480  -20.1840 C   0  0  0  0  0  0  0  0  0  0  0  0
   -6.8810   -1.0910  -18.8720 C   0  0  0  0  0  0  0  0  0  0  0  0
   -6.2060   -0.5650  -17.8220 N   0  0  0  0  0  0  0  0  0  0  0  0
   -5.1810    0.2070  -18.0850 C   0  0  0  0  0  0  0  0  0  0  0  0
   -4.7320    0.5130  -19.4010 C   0  0  0  0  0  0  0  0  0  0  0  0
   -3.6060    1.3400  -19.6400 C   0  0  0  0  0  0  0  0  0  0  0  0
   -3.2160    1.6200  -20.9200 C   0  0  0  0  0  0  0  0  0  0  0  0
   -3.9270    1.0890  -22.0180 C   0  0  0  0  0  0  0  0  0  0  0  0
   -5.0140    0.2750  -21.8150 C   0  0  0  0  0  0  0  0  0  0  0  0
   -5.4440   -0.0210  -20.4940 C   0  0  0  0  0  0  0  0  0  0  0  0
   -5.5480   -0.1530  -22.6570 H   0  0  0  0  0  0  0  0  0  0  0  0
   -3.6140    1.3320  -23.0290 H   0  0  0  0  0  0  0  0  0  0  0  0
   -2.3620    2.2660  -21.0990 H   0  0  0  0  0  0  0  0  0  0  0  0
   -3.0850    1.7580  -18.7840 H   0  0  0  0  0  0  0  0  0  0  0  0
   -4.6430    0.6320  -17.2360 H   0  0  0  0  0  0  0  0  0  0  0  0
   -7.7260   -1.7300  -18.6200 H   0  0  0  0  0  0  0  0  0  0  0  0
   -7.5840   -2.7030  -21.3680 C   0  0  0  0  0  0  0  0  0  0  0  0
   -6.9150   -3.5670  -20.8330 O   0  0  0  0  0  0  0  0  0  0  0  0
   -8.7870   -2.9140  -22.2890 C   0  0  1  0  0  0  0  0  0  0  0  0
   -9.9990   -3.3240  -21.4190 C   0  0  0  0  0  0  0  0  0  0  0  0
  -11.1400   -3.7630  -22.2070 N   0  0  0  0  0  0  0  0  0  0  0  0
  -12.4910   -3.7910  -21.6090 C   0  0  0  0  0  0  0  0  0  0  0  0
  -13.5010   -2.8010  -22.1880 C   0  0  0  0  0  0  0  0  0  0  0  0
  -14.0520   -1.6750  -21.6370 C   0  0  0  0  0  0  0  0  0  0  0  0
  -14.7500   -0.7260  -22.4970 C   0  0  0  0  0  0  0  0  0  0  0  0
  -15.1800    0.3780  -22.2270 O   0  0  0  0  0  0  0  0  0  0  0  0
  -14.9030   -1.1840  -23.8090 N   0  0  0  0  0  0  0  0  0  0  0  0
  -14.5900   -2.4410  -24.1820 C   0  0  0  0  0  0  0  0  0  0  0  0
  -13.9310   -3.2320  -23.4200 N   0  0  0  0  0  0  0  0  0  0  0  0
  -14.9230   -2.7610  -25.1640 H   0  0  0  0  0  0  0  0  0  0  0  0
  -15.4640   -0.5910  -24.3970 H   0  0  0  0  0  0  0  0  0  0  0  0
  -14.0350   -1.4090  -20.5880 H   0  0  0  0  0  0  0  0  0  0  0  0
  -12.8940   -4.7440  -21.9350 H   0  0  0  0  0  0  0  0  0  0  0  0
  -12.4530   -3.7860  -20.5180 H   0  0  0  0  0  0  0  0  0  0  0  0
  -10.8990   -4.6740  -23.2080 C   0  0  0  0  0  0  0  0  0  0  0  0
  -11.7930   -5.3530  -23.6670 O   0  0  0  0  0  0  0  0  0  0  0  0
   -9.5130   -4.8120  -23.7520 C   0  0  0  0  0  0  0  0  0  0  0  0
   -9.2770   -5.7540  -24.7590 C   0  0  0  0  0  0  0  0  0  0  0  0
   -8.0360   -5.8600  -25.3570 C   0  0  0  0  0  0  0  0  0  0  0  0
   -7.0310   -5.0070  -24.9140 C   0  0  0  0  0  0  0  0  0  0  0  0
   -5.8290   -5.0800  -25.5060 F   0  0  0  0  0  0  0  0  0  0  0  0
   -7.2280   -4.0830  -23.9070 C   0  0  0  0  0  0  0  0  0  0  0  0
   -8.4920   -3.9780  -23.3140 C   0  0  0  0  0  0  0  0  0  0  0  0
   -6.4020   -3.4540  -23.5930 H   0  0  0  0  0  0  0  0  0  0  0  0
   -7.8300   -6.5660  -26.1570 H   0  0  0  0  0  0  0  0  0  0  0  0
  -10.0940   -6.3920  -25.0750 H   0  0  0  0  0  0  0  0  0  0  0  0
   -9.7050   -4.1290  -20.7410 H   0  0  0  0  0  0  0  0  0  0  0  0
  -10.2920   -2.4480  -20.8360 H   0  0  0  0  0  0  0  0  0  0  0  0
   -9.1130   -0.1650  -21.1890 H   0  0  0  0  0  0  0  0  0  0  0  0
   -7.9030    0.3350  -22.3870 H   0  0  0  0  0  0  0  0  0  0  0  0
   -8.4100   -1.4740  -23.8490 H   0  0  0  0  0  0  0  0  0  0  0  0
  -11.0490   -1.1080  -22.3210 H   0  0  0  0  0  0  0  0  0  0  0  0
  -10.9050   -1.9230  -23.8670 H   0  0  0  0  0  0  0  0  0  0  0  0
  -10.5340   -0.1820  -23.7430 H   0  0  0  0  0  0  0  0  0  0  0  0
  1  2  1  0  0  0  0
  1 56  1  0  0  0  0
  1 57  1  0  0  0  0
  1 58  1  0  0  0  0
  2  3  1  0  0  0  0
  2 23  1  0  0  0  0
  2 55  1  6  0  0  0
  3  4  1  0  0  0  0
  3 53  1  0  0  0  0
  3 54  1  0  0  0  0
  4  5  1  0  0  0  0
  4 21  1  0  0  0  0
  5  6  2  0  0  0  0
  5 14  1  0  0  0  0
  6  7  1  0  0  0  0
  6 20  1  0  0  0  0
  7  8  2  0  0  0  0
  8  9  1  0  0  0  0
  8 19  1  0  0  0  0
  9 10  2  0  0  0  0
  9 14  1  0  0  0  0
 10 11  1  0  0  0  0
 10 18  1  0  0  0  0
 11 12  2  0  0  0  0
 11 17  1  0  0  0  0
 12 13  1  0  0  0  0
 12 16  1  0  0  0  0
 13 14  2  0  0  0  0
 13 15  1  0  0  0  0
 21 22  2  0  0  0  0
 23 21  1  1  0  0  0
 23 24  1  0  0  0  0
 23 47  1  0  0  0  0
 24 25  1  0  0  0  0
 24 51  1  0  0  0  0
 24 52  1  0  0  0  0
 25 26  1  0  0  0  0
 25 39  1  0  0  0  0
 26 27  1  0  0  0  0
 26 37  1  0  0  0  0
 26 38  1  0  0  0  0
 27 28  2  0  0  0  0
 27 33  1  0  0  0  0
 28 29  1  0  0  0  0
 28 36  1  0  0  0  0
 29 30  2  0  0  0  0
 29 31  1  0  0  0  0
 31 32  1  0  0  0  0
 31 35  1  0  0  0  0
 32 33  2  0  0  0  0
 32 34  1  0  0  0  0
 39 40  2  0  0  0  0
 39 41  1  0  0  0  0
 41 42  2  0  0  0  0
 41 47  1  0  0  0  0
 42 43  1  0  0  0  0
 42 50  1  0  0  0  0
 43 44  2  0  0  0  0
 43 49  1  0  0  0  0
 44 45  1  0  0  0  0
 44 46  1  0  0  0  0
 46 47  2  0  0  0  0
 46 48  1  0  0  0  0
M  END
>  <MODEL>
       1

$$$$
