tmp_first_model_1_37.pdb
 OpenBabel08272517043D

 56 60  0  0  1  0  0  0  0  0999 V2000
   -6.9730    3.1480  -22.0980 C   0  0  0  0  0  0  0  0  0  0  0  0
   -7.4820    2.4970  -23.2900 N   0  0  0  0  0  0  0  0  0  0  0  0
   -6.6160    1.8560  -24.1100 C   0  0  0  0  0  0  0  0  0  0  0  0
   -5.4030    2.0190  -24.0600 O   0  0  0  0  0  0  0  0  0  0  0  0
   -7.2480    0.8860  -25.1190 C   0  0  0  0  0  0  0  0  0  0  0  0
   -7.9050   -0.2240  -24.4570 N   0  0  0  0  0  0  0  0  0  0  0  0
   -7.0970   -1.3830  -24.1200 C   0  0  0  0  0  0  0  0  0  0  0  0
   -7.6210   -2.1210  -22.8530 C   0  0  2  0  0  0  0  0  0  0  0  0
   -7.3720   -1.2310  -21.5980 C   0  0  0  0  0  0  0  0  0  0  0  0
   -7.9970   -0.2640  -21.2210 O   0  0  0  0  0  0  0  0  0  0  0  0
   -6.2510   -1.7220  -20.9560 N   0  0  0  0  0  0  0  0  0  0  0  0
   -5.6570   -1.0150  -19.8910 C   0  0  0  0  0  0  0  0  0  0  0  0
   -5.9480   -1.3640  -18.6000 C   0  0  0  0  0  0  0  0  0  0  0  0
   -5.4650   -0.7250  -17.5100 N   0  0  0  0  0  0  0  0  0  0  0  0
   -4.6450    0.2770  -17.7190 C   0  0  0  0  0  0  0  0  0  0  0  0
   -4.2020    0.6940  -19.0110 C   0  0  0  0  0  0  0  0  0  0  0  0
   -3.2380    1.7230  -19.1980 C   0  0  0  0  0  0  0  0  0  0  0  0
   -2.8400    2.0880  -20.4560 C   0  0  0  0  0  0  0  0  0  0  0  0
   -3.3840    1.4460  -21.5940 C   0  0  0  0  0  0  0  0  0  0  0  0
   -4.3130    0.4460  -21.4400 C   0  0  0  0  0  0  0  0  0  0  0  0
   -4.7290    0.0350  -20.1420 C   0  0  0  0  0  0  0  0  0  0  0  0
   -4.7350   -0.0320  -22.3200 H   0  0  0  0  0  0  0  0  0  0  0  0
   -3.0940    1.7500  -22.5950 H   0  0  0  0  0  0  0  0  0  0  0  0
   -2.0970    2.8710  -20.5970 H   0  0  0  0  0  0  0  0  0  0  0  0
   -2.8300    2.2100  -18.3160 H   0  0  0  0  0  0  0  0  0  0  0  0
   -4.2930    0.8160  -16.8410 H   0  0  0  0  0  0  0  0  0  0  0  0
   -6.6190   -2.2000  -18.4230 H   0  0  0  0  0  0  0  0  0  0  0  0
   -5.5600   -2.7440  -21.7100 C   0  0  0  0  0  0  0  0  0  0  0  0
   -6.7180   -3.3430  -22.5130 C   0  0  2  0  0  0  0  0  0  0  0  0
   -6.2570   -4.1990  -23.6800 C   0  0  0  0  0  0  0  0  0  0  0  0
   -5.5190   -3.6540  -24.2810 H   0  0  0  0  0  0  0  0  0  0  0  0
   -5.7840   -5.1180  -23.3210 H   0  0  0  0  0  0  0  0  0  0  0  0
   -7.0980   -4.4620  -24.3300 H   0  0  0  0  0  0  0  0  0  0  0  0
   -7.2790   -3.9510  -21.7920 H   0  0  0  0  0  0  0  0  0  0  0  0
   -4.7830   -2.3150  -22.3700 H   0  0  0  0  0  0  0  0  0  0  0  0
   -5.0720   -3.4670  -21.0480 H   0  0  0  0  0  0  0  0  0  0  0  0
   -9.1060   -2.3800  -23.0640 C   0  0  0  0  0  0  0  0  0  0  0  0
   -9.7900   -3.5080  -22.5970 C   0  0  0  0  0  0  0  0  0  0  0  0
  -11.1650   -3.6160  -22.7360 C   0  0  0  0  0  0  0  0  0  0  0  0
  -11.9120   -2.6120  -23.3540 C   0  0  0  0  0  0  0  0  0  0  0  0
  -11.2530   -1.4950  -23.8400 C   0  0  0  0  0  0  0  0  0  0  0  0
   -9.8740   -1.3810  -23.6840 C   0  0  0  0  0  0  0  0  0  0  0  0
   -9.2220   -0.1190  -24.1550 C   0  0  0  0  0  0  0  0  0  0  0  0
   -9.8280    0.9490  -24.2590 O   0  0  0  0  0  0  0  0  0  0  0  0
  -11.7840   -0.6550  -24.2770 H   0  0  0  0  0  0  0  0  0  0  0  0
  -12.9920   -2.7180  -23.4270 H   0  0  0  0  0  0  0  0  0  0  0  0
  -11.6820   -4.4840  -22.3440 H   0  0  0  0  0  0  0  0  0  0  0  0
   -9.2440   -4.2890  -22.0760 H   0  0  0  0  0  0  0  0  0  0  0  0
   -7.0890   -2.0670  -24.9780 H   0  0  0  0  0  0  0  0  0  0  0  0
   -6.0740   -1.0250  -23.9510 H   0  0  0  0  0  0  0  0  0  0  0  0
   -6.4490    0.5030  -25.7610 H   0  0  0  0  0  0  0  0  0  0  0  0
   -7.9960    1.3950  -25.7370 H   0  0  0  0  0  0  0  0  0  0  0  0
   -8.4750    2.3200  -23.4050 H   0  0  0  0  0  0  0  0  0  0  0  0
   -6.6360    2.3990  -21.3640 H   0  0  0  0  0  0  0  0  0  0  0  0
   -6.1150    3.7660  -22.3780 H   0  0  0  0  0  0  0  0  0  0  0  0
   -7.7470    3.7830  -21.6610 H   0  0  0  0  0  0  0  0  0  0  0  0
  1  2  1  0  0  0  0
  1 54  1  0  0  0  0
  1 55  1  0  0  0  0
  1 56  1  0  0  0  0
  2  3  1  0  0  0  0
  2 53  1  0  0  0  0
  3  4  2  0  0  0  0
  3  5  1  0  0  0  0
  5  6  1  0  0  0  0
  5 51  1  0  0  0  0
  5 52  1  0  0  0  0
  6  7  1  0  0  0  0
  6 43  1  0  0  0  0
  7  8  1  0  0  0  0
  7 49  1  0  0  0  0
  7 50  1  0  0  0  0
  8  9  1  1  0  0  0
  8 29  1  0  0  0  0
  8 37  1  0  0  0  0
  9 10  2  0  0  0  0
  9 11  1  0  0  0  0
 11 12  1  0  0  0  0
 11 28  1  0  0  0  0
 12 13  2  0  0  0  0
 12 21  1  0  0  0  0
 13 14  1  0  0  0  0
 13 27  1  0  0  0  0
 14 15  2  0  0  0  0
 15 16  1  0  0  0  0
 15 26  1  0  0  0  0
 16 17  2  0  0  0  0
 16 21  1  0  0  0  0
 17 18  1  0  0  0  0
 17 25  1  0  0  0  0
 18 19  2  0  0  0  0
 18 24  1  0  0  0  0
 19 20  1  0  0  0  0
 19 23  1  0  0  0  0
 20 21  2  0  0  0  0
 20 22  1  0  0  0  0
 28 29  1  0  0  0  0
 28 35  1  0  0  0  0
 28 36  1  0  0  0  0
 29 30  1  0  0  0  0
 29 34  1  1  0  0  0
 30 31  1  0  0  0  0
 30 32  1  0  0  0  0
 30 33  1  0  0  0  0
 37 38  2  0  0  0  0
 37 42  1  0  0  0  0
 38 39  1  0  0  0  0
 38 48  1  0  0  0  0
 39 40  2  0  0  0  0
 39 47  1  0  0  0  0
 40 41  1  0  0  0  0
 40 46  1  0  0  0  0
 41 42  2  0  0  0  0
 41 45  1  0  0  0  0
 42 43  1  0  0  0  0
 43 44  2  0  0  0  0
M  END
>  <MODEL>
       1

$$$$
