tmp_first_model_19_92.pdb
 OpenBabel08282503233D

 60 65  0  0  1  0  0  0  0  0999 V2000
  -12.3780   -2.0560  -22.6510 C   0  0  0  0  0  0  0  0  0  0  0  0
  -11.3660   -2.1770  -21.6850 O   0  0  0  0  0  0  0  0  0  0  0  0
  -10.2380   -2.9140  -22.1040 C   0  0  0  0  0  0  0  0  0  0  0  0
   -9.1470   -1.9840  -22.6750 C   0  0  1  0  0  0  0  0  0  0  0  0
   -8.6900   -0.9910  -21.5810 C   0  0  0  0  0  0  0  0  0  0  0  0
   -7.3730   -1.4490  -21.2060 N   0  0  0  0  0  0  0  0  0  0  0  0
   -6.5880   -0.8460  -20.1950 C   0  0  0  0  0  0  0  0  0  0  0  0
   -6.9150   -1.0530  -18.8810 C   0  0  0  0  0  0  0  0  0  0  0  0
   -6.2270   -0.5510  -17.8290 N   0  0  0  0  0  0  0  0  0  0  0  0
   -5.1870    0.2030  -18.0980 C   0  0  0  0  0  0  0  0  0  0  0  0
   -4.7430    0.5080  -19.4170 C   0  0  0  0  0  0  0  0  0  0  0  0
   -3.6130    1.3360  -19.6420 C   0  0  0  0  0  0  0  0  0  0  0  0
   -3.2260    1.6500  -20.9140 C   0  0  0  0  0  0  0  0  0  0  0  0
   -3.9530    1.1490  -22.0190 C   0  0  0  0  0  0  0  0  0  0  0  0
   -5.0480    0.3410  -21.8330 C   0  0  0  0  0  0  0  0  0  0  0  0
   -5.4650   -0.0140  -20.5130 C   0  0  0  0  0  0  0  0  0  0  0  0
   -5.5950   -0.0340  -22.6990 H   0  0  0  0  0  0  0  0  0  0  0  0
   -3.6400    1.4150  -23.0240 H   0  0  0  0  0  0  0  0  0  0  0  0
   -2.3710    2.2980  -21.0820 H   0  0  0  0  0  0  0  0  0  0  0  0
   -3.0850    1.7320  -18.7770 H   0  0  0  0  0  0  0  0  0  0  0  0
   -4.6370    0.6100  -17.2500 H   0  0  0  0  0  0  0  0  0  0  0  0
   -7.7720   -1.6790  -18.6360 H   0  0  0  0  0  0  0  0  0  0  0  0
   -6.8430   -2.4050  -22.0370 C   0  0  0  0  0  0  0  0  0  0  0  0
   -5.7360   -2.8760  -21.8930 O   0  0  0  0  0  0  0  0  0  0  0  0
   -7.8500   -2.6950  -23.1700 C   0  0  1  0  0  0  0  0  0  0  0  0
   -8.0320   -4.2200  -23.3830 C   0  0  0  0  0  0  0  0  0  0  0  0
   -6.8460   -4.8550  -23.9330 N   0  0  0  0  0  0  0  0  0  0  0  0
   -6.3090   -6.0810  -23.3210 C   0  0  0  0  0  0  0  0  0  0  0  0
   -5.2120   -5.8890  -22.4020 C   0  0  0  0  0  0  0  0  0  0  0  0
   -3.8250   -6.1290  -22.7980 C   0  0  0  0  0  0  0  0  0  0  0  0
   -3.8420   -6.0970  -22.8200 N   0  0  0  0  0  0  0  0  0  0  0  0
   -4.8450   -5.7700  -20.0210 N   0  0  0  0  0  0  0  0  0  0  0  0
   -5.5680   -5.8460  -21.0750 C   0  0  0  0  0  0  0  0  0  0  0  0
   -6.6650   -5.8540  -20.9270 H   0  0  0  0  0  0  0  0  0  0  0  0
   -5.4530   -5.7140  -19.2150 H   0  0  0  0  0  0  0  0  0  0  0  0
   -3.9570   -5.9310  -23.9120 H   0  0  0  0  0  0  0  0  0  0  0  0
   -7.1570   -6.5680  -22.8230 H   0  0  0  0  0  0  0  0  0  0  0  0
   -5.8940   -6.7250  -24.0930 H   0  0  0  0  0  0  0  0  0  0  0  0
   -6.1830   -4.3140  -24.9970 C   0  0  0  0  0  0  0  0  0  0  0  0
   -5.3130   -4.9320  -25.6090 O   0  0  0  0  0  0  0  0  0  0  0  0
   -6.5320   -2.8910  -25.3340 C   0  0  0  0  0  0  0  0  0  0  0  0
   -5.9880   -2.3420  -26.4950 C   0  0  0  0  0  0  0  0  0  0  0  0
   -6.1790   -1.0090  -26.8070 C   0  0  0  0  0  0  0  0  0  0  0  0
   -6.9150   -0.2160  -25.9280 C   0  0  0  0  0  0  0  0  0  0  0  0
   -7.1360    1.4760  -26.2910 Cl  0  0  0  0  0  0  0  0  0  0  0  0
   -7.4650   -0.7440  -24.7710 C   0  0  0  0  0  0  0  0  0  0  0  0
   -7.3030   -2.1050  -24.4690 C   0  0  0  0  0  0  0  0  0  0  0  0
   -8.0090   -0.0690  -24.1160 H   0  0  0  0  0  0  0  0  0  0  0  0
   -5.7590   -0.5750  -27.7080 H   0  0  0  0  0  0  0  0  0  0  0  0
   -5.4000   -2.9930  -27.1340 H   0  0  0  0  0  0  0  0  0  0  0  0
   -8.2530   -4.6950  -22.4250 H   0  0  0  0  0  0  0  0  0  0  0  0
   -8.8810   -4.3670  -24.0700 H   0  0  0  0  0  0  0  0  0  0  0  0
   -8.6630    0.0500  -21.9300 H   0  0  0  0  0  0  0  0  0  0  0  0
   -9.3650   -1.0190  -20.7280 H   0  0  0  0  0  0  0  0  0  0  0  0
   -9.6210   -1.4550  -23.5100 H   0  0  0  0  0  0  0  0  0  0  0  0
  -10.5450   -3.6720  -22.8390 H   0  0  0  0  0  0  0  0  0  0  0  0
   -9.8570   -3.4360  -21.2170 H   0  0  0  0  0  0  0  0  0  0  0  0
  -12.8440   -3.0290  -22.8750 H   0  0  0  0  0  0  0  0  0  0  0  0
  -13.1360   -1.3880  -22.2340 H   0  0  0  0  0  0  0  0  0  0  0  0
  -12.0100   -1.6270  -23.5960 H   0  0  0  0  0  0  0  0  0  0  0  0
  1  2  1  0  0  0  0
  1 58  1  0  0  0  0
  1 59  1  0  0  0  0
  1 60  1  0  0  0  0
  2  3  1  0  0  0  0
  3  4  1  0  0  0  0
  3 56  1  0  0  0  0
  3 57  1  0  0  0  0
  4  5  1  0  0  0  0
  4 25  1  0  0  0  0
  4 55  1  6  0  0  0
  5  6  1  0  0  0  0
  5 53  1  0  0  0  0
  5 54  1  0  0  0  0
  6  7  1  0  0  0  0
  6 23  1  0  0  0  0
  7  8  2  0  0  0  0
  7 16  1  0  0  0  0
  8  9  1  0  0  0  0
  8 22  1  0  0  0  0
  9 10  2  0  0  0  0
 10 11  1  0  0  0  0
 10 21  1  0  0  0  0
 11 12  2  0  0  0  0
 11 16  1  0  0  0  0
 12 13  1  0  0  0  0
 12 20  1  0  0  0  0
 13 14  2  0  0  0  0
 13 19  1  0  0  0  0
 14 15  1  0  0  0  0
 14 18  1  0  0  0  0
 15 16  2  0  0  0  0
 15 17  1  0  0  0  0
 23 24  2  0  0  0  0
 25 23  1  1  0  0  0
 25 26  1  0  0  0  0
 25 47  1  0  0  0  0
 26 27  1  0  0  0  0
 26 51  1  0  0  0  0
 26 52  1  0  0  0  0
 27 28  1  0  0  0  0
 27 39  1  0  0  0  0
 28 29  1  0  0  0  0
 28 37  1  0  0  0  0
 28 38  1  0  0  0  0
 29 30  1  0  0  0  0
 29 33  2  0  0  0  0
 30 31  2  0  0  0  0
 30 36  1  0  0  0  0
 31 32  1  0  0  0  0
 32 33  1  0  0  0  0
 32 35  1  0  0  0  0
 33 34  1  0  0  0  0
 39 40  2  0  0  0  0
 39 41  1  0  0  0  0
 41 42  2  0  0  0  0
 41 47  1  0  0  0  0
 42 43  1  0  0  0  0
 42 50  1  0  0  0  0
 43 44  2  0  0  0  0
 43 49  1  0  0  0  0
 44 45  1  0  0  0  0
 44 46  1  0  0  0  0
 46 47  2  0  0  0  0
 46 48  1  0  0  0  0
M  END
>  <MODEL>
       1

$$$$
