tmp_first_model_13_88.pdb
 OpenBabel08282500103D

 40 42  0  0  0  0  0  0  0  0999 V2000
   -5.5910   -2.9760  -21.6790 O   0  0  0  0  0  0  0  0  0  0  0  0
   -6.7930   -2.8000  -21.7760 C   0  0  0  0  0  0  0  0  0  0  0  0
   -7.4230   -1.4830  -21.2550 C   0  0  0  0  0  0  0  0  0  0  0  0
   -6.5820   -0.8250  -20.1820 C   0  0  0  0  0  0  0  0  0  0  0  0
   -6.8720   -1.0410  -18.8600 C   0  0  0  0  0  0  0  0  0  0  0  0
   -6.1830   -0.5390  -17.8040 N   0  0  0  0  0  0  0  0  0  0  0  0
   -5.1540    0.2250  -18.0670 C   0  0  0  0  0  0  0  0  0  0  0  0
   -4.7180    0.5340  -19.3830 C   0  0  0  0  0  0  0  0  0  0  0  0
   -3.5900    1.3610  -19.6210 C   0  0  0  0  0  0  0  0  0  0  0  0
   -3.1880    1.6350  -20.9000 C   0  0  0  0  0  0  0  0  0  0  0  0
   -3.8990    1.0900  -21.9910 C   0  0  0  0  0  0  0  0  0  0  0  0
   -4.9960    0.2900  -21.7850 C   0  0  0  0  0  0  0  0  0  0  0  0
   -5.4440   -0.0090  -20.4730 C   0  0  0  0  0  0  0  0  0  0  0  0
   -5.5150   -0.1390  -22.6370 H   0  0  0  0  0  0  0  0  0  0  0  0
   -3.5740    1.3080  -23.0040 H   0  0  0  0  0  0  0  0  0  0  0  0
   -2.3270    2.2730  -21.0840 H   0  0  0  0  0  0  0  0  0  0  0  0
   -3.0540    1.7740  -18.7690 H   0  0  0  0  0  0  0  0  0  0  0  0
   -4.6010    0.6280  -17.2160 H   0  0  0  0  0  0  0  0  0  0  0  0
   -7.7180   -1.6690  -18.5830 H   0  0  0  0  0  0  0  0  0  0  0  0
   -8.4250   -1.6860  -20.8470 H   0  0  0  0  0  0  0  0  0  0  0  0
   -7.5640   -0.7900  -22.0960 H   0  0  0  0  0  0  0  0  0  0  0  0
   -7.6220   -3.7650  -22.3130 N   0  0  0  0  0  0  0  0  0  0  0  0
   -7.2610   -5.1760  -22.1570 C   0  0  0  0  0  0  0  0  0  0  0  0
   -7.5500   -6.0020  -23.4000 C   0  0  0  0  0  0  0  0  0  0  0  0
   -8.9920   -5.8080  -23.8490 C   0  0  0  0  0  0  0  0  0  0  0  0
   -9.3360   -6.6230  -25.0800 C   0  0  0  0  0  0  0  0  0  0  0  0
   -8.5080   -6.2810  -26.1090 F   0  0  0  0  0  0  0  0  0  0  0  0
   -9.1510   -7.9570  -24.8520 F   0  0  0  0  0  0  0  0  0  0  0  0
  -10.3700   -6.4860  -25.4280 H   0  0  0  0  0  0  0  0  0  0  0  0
   -9.2780   -4.3300  -24.0580 C   0  0  0  0  0  0  0  0  0  0  0  0
   -8.9720   -3.5180  -22.8030 C   0  0  0  0  0  0  0  0  0  0  0  0
   -9.7210   -3.7520  -22.0320 H   0  0  0  0  0  0  0  0  0  0  0  0
   -9.0780   -2.4580  -23.0370 H   0  0  0  0  0  0  0  0  0  0  0  0
   -8.6830   -3.9640  -24.8980 H   0  0  0  0  0  0  0  0  0  0  0  0
  -10.3270   -4.1840  -24.3400 H   0  0  0  0  0  0  0  0  0  0  0  0
   -9.6480   -6.1800  -23.0640 H   0  0  0  0  0  0  0  0  0  0  0  0
   -6.8750   -5.7050  -24.2030 H   0  0  0  0  0  0  0  0  0  0  0  0
   -7.3560   -7.0610  -23.1960 H   0  0  0  0  0  0  0  0  0  0  0  0
   -6.2060   -5.2340  -21.8920 H   0  0  0  0  0  0  0  0  0  0  0  0
   -7.8190   -5.6290  -21.3290 H   0  0  0  0  0  0  0  0  0  0  0  0
  1  2  2  0  0  0  0
  2  3  1  0  0  0  0
  2 22  1  0  0  0  0
  3  4  1  0  0  0  0
  3 20  1  0  0  0  0
  3 21  1  0  0  0  0
  4  5  2  0  0  0  0
  4 13  1  0  0  0  0
  5  6  1  0  0  0  0
  5 19  1  0  0  0  0
  6  7  2  0  0  0  0
  7  8  1  0  0  0  0
  7 18  1  0  0  0  0
  8  9  2  0  0  0  0
  8 13  1  0  0  0  0
  9 10  1  0  0  0  0
  9 17  1  0  0  0  0
 10 11  2  0  0  0  0
 10 16  1  0  0  0  0
 11 12  1  0  0  0  0
 11 15  1  0  0  0  0
 12 13  2  0  0  0  0
 12 14  1  0  0  0  0
 22 23  1  0  0  0  0
 22 31  1  0  0  0  0
 23 24  1  0  0  0  0
 23 39  1  0  0  0  0
 23 40  1  0  0  0  0
 24 25  1  0  0  0  0
 24 37  1  0  0  0  0
 24 38  1  0  0  0  0
 25 26  1  0  0  0  0
 25 30  1  0  0  0  0
 25 36  1  0  0  0  0
 26 27  1  0  0  0  0
 26 28  1  0  0  0  0
 26 29  1  0  0  0  0
 30 31  1  0  0  0  0
 30 34  1  0  0  0  0
 30 35  1  0  0  0  0
 31 32  1  0  0  0  0
 31 33  1  0  0  0  0
M  END
>  <MODEL>
       1

$$$$
