tmp_first_model_14_58.pdb
 OpenBabel08282500413D

 42 45  0  0  1  0  0  0  0  0999 V2000
  -10.8310   -3.7650  -21.6920 C   0  0  0  0  0  0  0  0  0  0  0  0
   -9.8990   -3.2180  -22.6680 N   0  0  0  0  0  0  0  0  0  0  0  0
  -10.0150   -1.8590  -23.1800 C   0  0  0  0  0  0  0  0  0  0  0  0
   -8.6450   -1.1870  -23.4690 C   0  0  1  0  0  0  0  0  0  0  0  0
   -8.0890   -0.5450  -22.1790 C   0  0  0  0  0  0  0  0  0  0  0  0
   -8.2970    0.6230  -21.9010 O   0  0  0  0  0  0  0  0  0  0  0  0
   -7.3660   -1.3580  -21.3460 N   0  0  0  0  0  0  0  0  0  0  0  0
   -6.5980   -0.8110  -20.2880 C   0  0  0  0  0  0  0  0  0  0  0  0
   -6.9620   -1.0280  -18.9830 C   0  0  0  0  0  0  0  0  0  0  0  0
   -6.3170   -0.4900  -17.9170 N   0  0  0  0  0  0  0  0  0  0  0  0
   -5.2640    0.2490  -18.1530 C   0  0  0  0  0  0  0  0  0  0  0  0
   -4.7650    0.5330  -19.4520 C   0  0  0  0  0  0  0  0  0  0  0  0
   -3.6210    1.3490  -19.6510 C   0  0  0  0  0  0  0  0  0  0  0  0
   -3.1660    1.6040  -20.9160 C   0  0  0  0  0  0  0  0  0  0  0  0
   -3.8250    1.0400  -22.0340 C   0  0  0  0  0  0  0  0  0  0  0  0
   -4.9260    0.2370  -21.8680 C   0  0  0  0  0  0  0  0  0  0  0  0
   -5.4420   -0.0170  -20.5620 C   0  0  0  0  0  0  0  0  0  0  0  0
   -5.4130   -0.2180  -22.7280 H   0  0  0  0  0  0  0  0  0  0  0  0
   -3.4580    1.2550  -23.0330 H   0  0  0  0  0  0  0  0  0  0  0  0
   -2.3040    2.2480  -21.0680 H   0  0  0  0  0  0  0  0  0  0  0  0
   -3.1280    1.7620  -18.7770 H   0  0  0  0  0  0  0  0  0  0  0  0
   -4.7490    0.6700  -17.2890 H   0  0  0  0  0  0  0  0  0  0  0  0
   -7.8320   -1.6360  -18.7410 H   0  0  0  0  0  0  0  0  0  0  0  0
   -7.4390   -2.3620  -21.4210 H   0  0  0  0  0  0  0  0  0  0  0  0
   -7.7240   -2.1490  -24.1920 C   0  0  0  0  0  0  0  0  0  0  0  0
   -6.7480   -1.6950  -25.0940 C   0  0  0  0  0  0  0  0  0  0  0  0
   -5.9190   -2.6150  -25.7250 C   0  0  0  0  0  0  0  0  0  0  0  0
   -4.7120   -2.0530  -26.8510 Cl  0  0  0  0  0  0  0  0  0  0  0  0
   -6.0280   -3.9840  -25.4820 C   0  0  0  0  0  0  0  0  0  0  0  0
   -6.9970   -4.4320  -24.6000 C   0  0  0  0  0  0  0  0  0  0  0  0
   -7.8500   -3.5200  -23.9690 C   0  0  0  0  0  0  0  0  0  0  0  0
   -8.8890   -4.0600  -23.0310 C   0  0  0  0  0  0  0  0  0  0  0  0
   -8.8240   -5.2020  -22.5900 O   0  0  0  0  0  0  0  0  0  0  0  0
   -7.1130   -5.4950  -24.4000 H   0  0  0  0  0  0  0  0  0  0  0  0
   -5.3570   -4.6770  -25.9820 H   0  0  0  0  0  0  0  0  0  0  0  0
   -6.6350   -0.6360  -25.3230 H   0  0  0  0  0  0  0  0  0  0  0  0
   -8.8060   -0.3100  -24.1060 H   0  0  0  0  0  0  0  0  0  0  0  0
  -10.5410   -1.2410  -22.4400 H   0  0  0  0  0  0  0  0  0  0  0  0
  -10.5980   -1.8600  -24.1090 H   0  0  0  0  0  0  0  0  0  0  0  0
  -11.4050   -4.6000  -22.1130 H   0  0  0  0  0  0  0  0  0  0  0  0
  -10.2410   -4.1400  -20.8480 H   0  0  0  0  0  0  0  0  0  0  0  0
  -11.5130   -2.9820  -21.3490 H   0  0  0  0  0  0  0  0  0  0  0  0
  1  2  1  0  0  0  0
  1 40  1  0  0  0  0
  1 41  1  0  0  0  0
  1 42  1  0  0  0  0
  2  3  1  0  0  0  0
  2 32  1  0  0  0  0
  3  4  1  0  0  0  0
  3 38  1  0  0  0  0
  3 39  1  0  0  0  0
  4  5  1  0  0  0  0
  4 25  1  0  0  0  0
  4 37  1  6  0  0  0
  5  6  2  0  0  0  0
  5  7  1  0  0  0  0
  7  8  1  0  0  0  0
  7 24  1  0  0  0  0
  8  9  2  0  0  0  0
  8 17  1  0  0  0  0
  9 10  1  0  0  0  0
  9 23  1  0  0  0  0
 10 11  2  0  0  0  0
 11 12  1  0  0  0  0
 11 22  1  0  0  0  0
 12 13  2  0  0  0  0
 12 17  1  0  0  0  0
 13 14  1  0  0  0  0
 13 21  1  0  0  0  0
 14 15  2  0  0  0  0
 14 20  1  0  0  0  0
 15 16  1  0  0  0  0
 15 19  1  0  0  0  0
 16 17  2  0  0  0  0
 16 18  1  0  0  0  0
 25 26  2  0  0  0  0
 25 31  1  0  0  0  0
 26 27  1  0  0  0  0
 26 36  1  0  0  0  0
 27 28  1  0  0  0  0
 27 29  2  0  0  0  0
 29 30  1  0  0  0  0
 29 35  1  0  0  0  0
 30 31  2  0  0  0  0
 30 34  1  0  0  0  0
 31 32  1  0  0  0  0
 32 33  2  0  0  0  0
M  END
>  <MODEL>
       1

$$$$
