tmp_first_model_15_69.pdb
 OpenBabel08282501153D

 63 67  0  0  0  0  0  0  0  0999 V2000
  -10.3530   -6.7350  -26.6910 C   0  0  0  0  0  0  0  0  0  0  0  0
  -10.8980   -5.8100  -27.4740 C   0  0  0  0  0  0  0  0  0  0  0  0
  -10.7090   -4.3450  -27.3210 C   0  0  0  0  0  0  0  0  0  0  0  0
  -11.1340   -3.5450  -28.1240 O   0  0  0  0  0  0  0  0  0  0  0  0
   -9.8680   -3.9650  -26.2330 N   0  0  0  0  0  0  0  0  0  0  0  0
   -8.4400   -4.1150  -26.5330 C   0  0  0  0  0  0  0  0  0  0  0  0
   -7.8390   -2.7330  -26.7500 C   0  0  0  0  0  0  0  0  0  0  0  0
   -7.9460   -1.9660  -25.4400 C   0  0  0  0  0  0  0  0  0  0  0  0
   -9.3350   -2.0300  -24.8340 C   0  0  0  0  0  0  0  0  0  0  0  0
  -10.2710   -2.9650  -25.3220 C   0  0  0  0  0  0  0  0  0  0  0  0
  -11.5880   -2.9490  -24.8360 C   0  0  0  0  0  0  0  0  0  0  0  0
  -11.9480   -2.0740  -23.8220 C   0  0  0  0  0  0  0  0  0  0  0  0
  -11.0150   -1.2040  -23.2650 C   0  0  0  0  0  0  0  0  0  0  0  0
   -9.7250   -1.2010  -23.7770 C   0  0  0  0  0  0  0  0  0  0  0  0
   -8.6880   -0.2120  -23.1280 N   0  3  0  0  0  0  0  0  0  0  0  0
   -9.0110    1.2870  -23.3920 C   0  0  0  0  0  0  0  0  0  0  0  0
   -7.8150    2.1790  -23.1350 C   0  0  0  0  0  0  0  0  0  0  0  0
   -7.6680    2.8170  -21.9010 C   0  0  0  0  0  0  0  0  0  0  0  0
   -6.6560    3.7460  -21.6870 C   0  0  0  0  0  0  0  0  0  0  0  0
   -5.7070    3.9950  -22.6710 C   0  0  0  0  0  0  0  0  0  0  0  0
   -5.8130    3.3010  -23.8730 C   0  0  0  0  0  0  0  0  0  0  0  0
   -4.5810    3.5410  -25.0880 Cl  0  0  0  0  0  0  0  0  0  0  0  0
   -6.8620    2.4240  -24.1240 C   0  0  0  0  0  0  0  0  0  0  0  0
   -6.9310    1.9370  -25.0930 H   0  0  0  0  0  0  0  0  0  0  0  0
   -4.8910    4.6970  -22.5070 H   0  0  0  0  0  0  0  0  0  0  0  0
   -6.6160    4.3090  -20.7550 H   0  0  0  0  0  0  0  0  0  0  0  0
   -8.3480    2.5540  -21.0980 H   0  0  0  0  0  0  0  0  0  0  0  0
   -9.3580    1.3760  -24.4220 H   0  0  0  0  0  0  0  0  0  0  0  0
   -9.8180    1.5560  -22.7090 H   0  0  0  0  0  0  0  0  0  0  0  0
   -8.5030   -0.4300  -21.6650 C   0  0  0  0  0  0  0  0  0  0  0  0
   -9.2440    0.1150  -20.8830 O   0  0  0  0  0  0  0  0  0  0  0  0
   -7.4340   -1.4280  -21.2300 C   0  0  0  0  0  0  0  0  0  0  0  0
   -6.5620   -0.8450  -20.1470 C   0  0  0  0  0  0  0  0  0  0  0  0
   -6.8690   -1.0500  -18.8290 C   0  0  0  0  0  0  0  0  0  0  0  0
   -6.1950   -0.5270  -17.7710 N   0  0  0  0  0  0  0  0  0  0  0  0
   -5.1660    0.2360  -18.0480 C   0  0  0  0  0  0  0  0  0  0  0  0
   -4.7220    0.5360  -19.3660 C   0  0  0  0  0  0  0  0  0  0  0  0
   -3.6000    1.3670  -19.6110 C   0  0  0  0  0  0  0  0  0  0  0  0
   -3.1970    1.6280  -20.8890 C   0  0  0  0  0  0  0  0  0  0  0  0
   -3.9070    1.0820  -21.9840 C   0  0  0  0  0  0  0  0  0  0  0  0
   -5.0140    0.2980  -21.7720 C   0  0  0  0  0  0  0  0  0  0  0  0
   -5.4450   -0.0110  -20.4560 C   0  0  0  0  0  0  0  0  0  0  0  0
   -5.5630   -0.0870  -22.6270 H   0  0  0  0  0  0  0  0  0  0  0  0
   -3.5650    1.2880  -22.9970 H   0  0  0  0  0  0  0  0  0  0  0  0
   -2.3390    2.2710  -21.0710 H   0  0  0  0  0  0  0  0  0  0  0  0
   -3.0800    1.8000  -18.7580 H   0  0  0  0  0  0  0  0  0  0  0  0
   -4.6210    0.6660  -17.2060 H   0  0  0  0  0  0  0  0  0  0  0  0
   -7.7230   -1.6740  -18.5650 H   0  0  0  0  0  0  0  0  0  0  0  0
   -6.8470   -1.7700  -22.0860 H   0  0  0  0  0  0  0  0  0  0  0  0
   -7.9660   -2.3090  -20.8480 H   0  0  0  0  0  0  0  0  0  0  0  0
   -7.7960   -0.4270  -23.5990 H   0  0  0  0  0  0  0  0  0  0  0  0
  -11.2850   -0.5610  -22.4310 H   0  0  0  0  0  0  0  0  0  0  0  0
  -12.9610   -2.0920  -23.4330 H   0  0  0  0  0  0  0  0  0  0  0  0
  -12.3280   -3.6390  -25.2300 H   0  0  0  0  0  0  0  0  0  0  0  0
   -7.2350   -2.3990  -24.7180 H   0  0  0  0  0  0  0  0  0  0  0  0
   -7.6410   -0.9230  -25.6020 H   0  0  0  0  0  0  0  0  0  0  0  0
   -8.3840   -2.2040  -27.5420 H   0  0  0  0  0  0  0  0  0  0  0  0
   -6.7930   -2.8160  -27.0650 H   0  0  0  0  0  0  0  0  0  0  0  0
   -7.9180   -4.6240  -25.7030 H   0  0  0  0  0  0  0  0  0  0  0  0
   -8.3350   -4.7400  -27.4310 H   0  0  0  0  0  0  0  0  0  0  0  0
  -11.5500   -6.1060  -28.2870 H   0  0  0  0  0  0  0  0  0  0  0  0
  -10.5540   -7.7850  -26.8910 H   0  0  0  0  0  0  0  0  0  0  0  0
   -9.6940   -6.4690  -25.8710 H   0  0  0  0  0  0  0  0  0  0  0  0
  1  2  2  0  0  0  0
  1 62  1  0  0  0  0
  1 63  1  0  0  0  0
  2  3  1  0  0  0  0
  2 61  1  0  0  0  0
  3  4  2  0  0  0  0
  3  5  1  0  0  0  0
  5  6  1  0  0  0  0
  5 10  1  0  0  0  0
  6  7  1  0  0  0  0
  6 59  1  0  0  0  0
  6 60  1  0  0  0  0
  7  8  1  0  0  0  0
  7 57  1  0  0  0  0
  7 58  1  0  0  0  0
  8  9  1  0  0  0  0
  8 55  1  0  0  0  0
  8 56  1  0  0  0  0
  9 10  2  0  0  0  0
  9 14  1  0  0  0  0
 10 11  1  0  0  0  0
 11 12  2  0  0  0  0
 11 54  1  0  0  0  0
 12 13  1  0  0  0  0
 12 53  1  0  0  0  0
 13 14  2  0  0  0  0
 13 52  1  0  0  0  0
 14 15  1  0  0  0  0
 15 16  1  0  0  0  0
 15 30  1  0  0  0  0
 15 51  1  0  0  0  0
 16 17  1  0  0  0  0
 16 28  1  0  0  0  0
 16 29  1  0  0  0  0
 17 18  2  0  0  0  0
 17 23  1  0  0  0  0
 18 19  1  0  0  0  0
 18 27  1  0  0  0  0
 19 20  2  0  0  0  0
 19 26  1  0  0  0  0
 20 21  1  0  0  0  0
 20 25  1  0  0  0  0
 21 22  1  0  0  0  0
 21 23  2  0  0  0  0
 23 24  1  0  0  0  0
 30 31  2  0  0  0  0
 30 32  1  0  0  0  0
 32 33  1  0  0  0  0
 32 49  1  0  0  0  0
 32 50  1  0  0  0  0
 33 34  2  0  0  0  0
 33 42  1  0  0  0  0
 34 35  1  0  0  0  0
 34 48  1  0  0  0  0
 35 36  2  0  0  0  0
 36 37  1  0  0  0  0
 36 47  1  0  0  0  0
 37 38  2  0  0  0  0
 37 42  1  0  0  0  0
 38 39  1  0  0  0  0
 38 46  1  0  0  0  0
 39 40  2  0  0  0  0
 39 45  1  0  0  0  0
 40 41  1  0  0  0  0
 40 44  1  0  0  0  0
 41 42  2  0  0  0  0
 41 43  1  0  0  0  0
M  CHG  1  15   1
M  END
>  <MODEL>
       1

$$$$
