tmp_first_model_7_8.pdb
 OpenBabel08272520323D

 60 64  0  0  1  0  0  0  0  0999 V2000
   -7.6110    3.1070  -21.9260 C   0  0  0  0  0  0  0  0  0  0  0  0
   -8.7470    2.6090  -22.6820 N   0  0  0  0  0  0  0  0  0  0  0  0
   -8.4500    1.8160  -23.7510 C   0  0  0  0  0  0  0  0  0  0  0  0
   -7.2950    1.5540  -24.0580 O   0  0  0  0  0  0  0  0  0  0  0  0
   -9.6190    1.2350  -24.5350 C   0  0  0  0  0  0  0  0  0  0  0  0
  -10.0720    0.0340  -23.8690 N   0  0  0  0  0  0  0  0  0  0  0  0
   -9.2260   -1.1500  -23.8930 C   0  0  0  0  0  0  0  0  0  0  0  0
   -9.3030   -1.9140  -22.5420 C   0  0  2  0  0  0  0  0  0  0  0  0
   -8.7050   -0.9900  -21.4440 C   0  0  0  0  0  0  0  0  0  0  0  0
   -9.2340   -0.0160  -20.9440 O   0  0  0  0  0  0  0  0  0  0  0  0
   -7.4190   -1.4170  -21.1720 N   0  0  0  0  0  0  0  0  0  0  0  0
   -6.6210   -0.8220  -20.1620 C   0  0  0  0  0  0  0  0  0  0  0  0
   -6.9230   -1.0400  -18.8410 C   0  0  0  0  0  0  0  0  0  0  0  0
   -6.2080   -0.5500  -17.8010 N   0  0  0  0  0  0  0  0  0  0  0  0
   -5.1690    0.1940  -18.0820 C   0  0  0  0  0  0  0  0  0  0  0  0
   -4.7440    0.5060  -19.4030 C   0  0  0  0  0  0  0  0  0  0  0  0
   -3.6240    1.3430  -19.6490 C   0  0  0  0  0  0  0  0  0  0  0  0
   -3.2600    1.6540  -20.9280 C   0  0  0  0  0  0  0  0  0  0  0  0
   -4.0010    1.1540  -22.0210 C   0  0  0  0  0  0  0  0  0  0  0  0
   -5.0920    0.3430  -21.8120 C   0  0  0  0  0  0  0  0  0  0  0  0
   -5.4880   -0.0130  -20.4930 C   0  0  0  0  0  0  0  0  0  0  0  0
   -5.6810    0.0210  -22.6660 H   0  0  0  0  0  0  0  0  0  0  0  0
   -3.7080    1.4170  -23.0330 H   0  0  0  0  0  0  0  0  0  0  0  0
   -2.4080    2.3020  -21.1090 H   0  0  0  0  0  0  0  0  0  0  0  0
   -3.0860    1.7450  -18.7930 H   0  0  0  0  0  0  0  0  0  0  0  0
   -4.5990    0.5990  -17.2440 H   0  0  0  0  0  0  0  0  0  0  0  0
   -7.7840   -1.6560  -18.5930 H   0  0  0  0  0  0  0  0  0  0  0  0
   -6.9960   -2.5570  -21.9680 C   0  0  0  0  0  0  0  0  0  0  0  0
   -8.3340   -3.1250  -22.4860 C   0  0  2  0  0  0  0  0  0  0  0  0
   -8.1920   -3.9160  -23.7850 C   0  0  0  0  0  0  0  0  0  0  0  0
   -7.4230   -5.0830  -23.5990 O   0  0  0  0  0  0  0  0  0  0  0  0
   -8.1820   -6.2460  -23.3990 C   0  0  0  0  0  0  0  0  0  0  0  0
   -8.7480   -6.5170  -24.3010 H   0  0  0  0  0  0  0  0  0  0  0  0
   -8.8860   -6.1360  -22.5630 H   0  0  0  0  0  0  0  0  0  0  0  0
   -7.4880   -7.0570  -23.1660 H   0  0  0  0  0  0  0  0  0  0  0  0
   -7.6620   -3.2980  -24.5240 H   0  0  0  0  0  0  0  0  0  0  0  0
   -9.1860   -4.1480  -24.2030 H   0  0  0  0  0  0  0  0  0  0  0  0
   -8.6870   -3.8020  -21.7000 H   0  0  0  0  0  0  0  0  0  0  0  0
   -6.3410   -2.2470  -22.7980 H   0  0  0  0  0  0  0  0  0  0  0  0
   -6.4470   -3.2800  -21.3570 H   0  0  0  0  0  0  0  0  0  0  0  0
  -10.7790   -2.2080  -22.3060 C   0  0  0  0  0  0  0  0  0  0  0  0
  -11.2470   -3.3190  -21.5990 C   0  0  0  0  0  0  0  0  0  0  0  0
  -12.5850   -3.3870  -21.2430 C   0  0  0  0  0  0  0  0  0  0  0  0
  -13.1180   -4.4700  -20.0080 Cl  0  0  0  0  0  0  0  0  0  0  0  0
  -13.5390   -2.5080  -21.7390 C   0  0  0  0  0  0  0  0  0  0  0  0
  -13.0950   -1.4420  -22.4810 C   0  0  0  0  0  0  0  0  0  0  0  0
  -11.7340   -1.2510  -22.6900 C   0  0  0  0  0  0  0  0  0  0  0  0
  -11.3120    0.0380  -23.3120 C   0  0  0  0  0  0  0  0  0  0  0  0
  -12.0290    1.0320  -23.3190 O   0  0  0  0  0  0  0  0  0  0  0  0
  -13.7980   -0.7190  -22.8710 H   0  0  0  0  0  0  0  0  0  0  0  0
  -14.5790   -2.6370  -21.4620 H   0  0  0  0  0  0  0  0  0  0  0  0
  -10.5740   -4.0920  -21.2460 H   0  0  0  0  0  0  0  0  0  0  0  0
   -8.2000   -0.8280  -24.1000 H   0  0  0  0  0  0  0  0  0  0  0  0
   -9.5460   -1.8130  -24.7070 H   0  0  0  0  0  0  0  0  0  0  0  0
  -10.4590    1.9290  -24.5900 H   0  0  0  0  0  0  0  0  0  0  0  0
   -9.2950    0.9840  -25.5510 H   0  0  0  0  0  0  0  0  0  0  0  0
   -9.6080    2.4820  -22.1570 H   0  0  0  0  0  0  0  0  0  0  0  0
   -7.9310    3.8750  -21.2210 H   0  0  0  0  0  0  0  0  0  0  0  0
   -6.9090    3.5780  -22.6170 H   0  0  0  0  0  0  0  0  0  0  0  0
   -7.0980    2.2900  -21.3890 H   0  0  0  0  0  0  0  0  0  0  0  0
  1  2  1  0  0  0  0
  1 58  1  0  0  0  0
  1 59  1  0  0  0  0
  1 60  1  0  0  0  0
  2  3  1  0  0  0  0
  2 57  1  0  0  0  0
  3  4  2  0  0  0  0
  3  5  1  0  0  0  0
  5  6  1  0  0  0  0
  5 55  1  0  0  0  0
  5 56  1  0  0  0  0
  6  7  1  0  0  0  0
  6 48  1  0  0  0  0
  7  8  1  0  0  0  0
  7 53  1  0  0  0  0
  7 54  1  0  0  0  0
  8  9  1  1  0  0  0
  8 29  1  0  0  0  0
  8 41  1  0  0  0  0
  9 10  2  0  0  0  0
  9 11  1  0  0  0  0
 11 12  1  0  0  0  0
 11 28  1  0  0  0  0
 12 13  2  0  0  0  0
 12 21  1  0  0  0  0
 13 14  1  0  0  0  0
 13 27  1  0  0  0  0
 14 15  2  0  0  0  0
 15 16  1  0  0  0  0
 15 26  1  0  0  0  0
 16 17  2  0  0  0  0
 16 21  1  0  0  0  0
 17 18  1  0  0  0  0
 17 25  1  0  0  0  0
 18 19  2  0  0  0  0
 18 24  1  0  0  0  0
 19 20  1  0  0  0  0
 19 23  1  0  0  0  0
 20 21  2  0  0  0  0
 20 22  1  0  0  0  0
 28 29  1  0  0  0  0
 28 39  1  0  0  0  0
 28 40  1  0  0  0  0
 29 30  1  0  0  0  0
 29 38  1  1  0  0  0
 30 31  1  0  0  0  0
 30 36  1  0  0  0  0
 30 37  1  0  0  0  0
 31 32  1  0  0  0  0
 32 33  1  0  0  0  0
 32 34  1  0  0  0  0
 32 35  1  0  0  0  0
 41 42  2  0  0  0  0
 41 47  1  0  0  0  0
 42 43  1  0  0  0  0
 42 52  1  0  0  0  0
 43 44  1  0  0  0  0
 43 45  2  0  0  0  0
 45 46  1  0  0  0  0
 45 51  1  0  0  0  0
 46 47  2  0  0  0  0
 46 50  1  0  0  0  0
 47 48  1  0  0  0  0
 48 49  2  0  0  0  0
M  END
>  <MODEL>
       1

$$$$
