tmp_first_model_3_23.pdb
 OpenBabel08272518143D

 68 73  0  0  1  0  0  0  0  0999 V2000
   -7.3090    3.3910  -21.9820 C   0  0  0  0  0  0  0  0  0  0  0  0
   -8.2560    2.8580  -22.9480 N   0  0  0  0  0  0  0  0  0  0  0  0
   -7.7780    2.1450  -24.0040 C   0  0  0  0  0  0  0  0  0  0  0  0
   -6.5790    1.9680  -24.1840 O   0  0  0  0  0  0  0  0  0  0  0  0
   -8.8260    1.5620  -24.9590 C   0  0  0  0  0  0  0  0  0  0  0  0
   -9.4700    0.4030  -24.3630 N   0  0  0  0  0  0  0  0  0  0  0  0
   -8.6670   -0.8000  -24.1750 C   0  0  0  0  0  0  0  0  0  0  0  0
   -9.0260   -1.5440  -22.8590 C   0  0  2  0  0  0  0  0  0  0  0  0
   -8.4930   -0.7650  -21.6420 C   0  0  0  0  0  0  0  0  0  0  0  0
   -8.9760    0.2230  -21.1250 O   0  0  0  0  0  0  0  0  0  0  0  0
   -7.3460   -1.3850  -21.2030 N   0  0  0  0  0  0  0  0  0  0  0  0
   -6.5900   -0.8100  -20.1580 C   0  0  0  0  0  0  0  0  0  0  0  0
   -6.9410   -1.0190  -18.8500 C   0  0  0  0  0  0  0  0  0  0  0  0
   -6.2480   -0.5250  -17.7940 N   0  0  0  0  0  0  0  0  0  0  0  0
   -5.1930    0.2100  -18.0560 C   0  0  0  0  0  0  0  0  0  0  0  0
   -4.7400    0.5250  -19.3700 C   0  0  0  0  0  0  0  0  0  0  0  0
   -3.6100    1.3480  -19.6180 C   0  0  0  0  0  0  0  0  0  0  0  0
   -3.2330    1.6490  -20.8980 C   0  0  0  0  0  0  0  0  0  0  0  0
   -3.9740    1.1570  -21.9990 C   0  0  0  0  0  0  0  0  0  0  0  0
   -5.0720    0.3600  -21.7870 C   0  0  0  0  0  0  0  0  0  0  0  0
   -5.4700    0.0140  -20.4670 C   0  0  0  0  0  0  0  0  0  0  0  0
   -5.6660    0.0190  -22.6330 H   0  0  0  0  0  0  0  0  0  0  0  0
   -3.6910    1.4220  -23.0130 H   0  0  0  0  0  0  0  0  0  0  0  0
   -2.3700    2.2850  -21.0790 H   0  0  0  0  0  0  0  0  0  0  0  0
   -3.0710    1.7450  -18.7620 H   0  0  0  0  0  0  0  0  0  0  0  0
   -4.6360    0.6050  -17.2050 H   0  0  0  0  0  0  0  0  0  0  0  0
   -7.8180   -1.6180  -18.6110 H   0  0  0  0  0  0  0  0  0  0  0  0
   -6.9580   -2.5570  -21.9660 C   0  0  0  0  0  0  0  0  0  0  0  0
   -8.2650   -2.8910  -22.6960 C   0  0  2  0  0  0  0  0  0  0  0  0
   -8.1410   -3.7370  -23.9750 C   0  0  0  0  0  0  0  0  0  0  0  0
   -7.7680   -5.1250  -23.7600 N   0  0  0  0  0  0  0  0  0  0  0  0
   -6.4440   -5.4770  -23.5000 C   0  0  0  0  0  0  0  0  0  0  0  0
   -5.3780   -4.8480  -24.1610 C   0  0  0  0  0  0  0  0  0  0  0  0
   -4.0790   -5.2750  -23.9300 C   0  0  0  0  0  0  0  0  0  0  0  0
   -3.7890   -6.2690  -23.0010 C   0  0  0  0  0  0  0  0  0  0  0  0
   -4.8390   -6.8740  -22.3220 C   0  0  0  0  0  0  0  0  0  0  0  0
   -6.1490   -6.5210  -22.6110 C   0  0  0  0  0  0  0  0  0  0  0  0
   -6.9610   -7.0550  -22.1300 H   0  0  0  0  0  0  0  0  0  0  0  0
   -4.6280   -7.6340  -21.5700 H   0  0  0  0  0  0  0  0  0  0  0  0
   -2.7570   -6.5810  -22.8410 H   0  0  0  0  0  0  0  0  0  0  0  0
   -3.2830   -4.7930  -24.4940 H   0  0  0  0  0  0  0  0  0  0  0  0
   -5.5590   -4.0460  -24.8760 H   0  0  0  0  0  0  0  0  0  0  0  0
   -8.4340   -5.6390  -23.1970 H   0  0  0  0  0  0  0  0  0  0  0  0
   -9.1140   -3.7320  -24.4860 H   0  0  0  0  0  0  0  0  0  0  0  0
   -7.4120   -3.2740  -24.6530 H   0  0  0  0  0  0  0  0  0  0  0  0
   -8.8450   -3.4710  -21.9720 H   0  0  0  0  0  0  0  0  0  0  0  0
   -6.1280   -2.3440  -22.6580 H   0  0  0  0  0  0  0  0  0  0  0  0
   -6.6290   -3.3690  -21.3080 H   0  0  0  0  0  0  0  0  0  0  0  0
  -10.5300   -1.6640  -22.7550 C   0  0  0  0  0  0  0  0  0  0  0  0
  -11.1010   -2.5750  -21.8590 C   0  0  0  0  0  0  0  0  0  0  0  0
  -12.4660   -2.6350  -21.6800 C   0  0  0  0  0  0  0  0  0  0  0  0
  -13.0480   -3.7630  -20.4820 Cl  0  0  0  0  0  0  0  0  0  0  0  0
  -13.3220   -1.7960  -22.3980 C   0  0  0  0  0  0  0  0  0  0  0  0
  -12.7610   -0.8740  -23.2640 C   0  0  0  0  0  0  0  0  0  0  0  0
  -11.3790   -0.7690  -23.4170 C   0  0  0  0  0  0  0  0  0  0  0  0
  -10.8360    0.3750  -24.2330 C   0  0  0  0  0  0  0  0  0  0  0  0
  -11.5680    1.2290  -24.7180 O   0  0  0  0  0  0  0  0  0  0  0  0
  -13.3800   -0.1850  -23.8260 H   0  0  0  0  0  0  0  0  0  0  0  0
  -14.3960   -1.8390  -22.2560 H   0  0  0  0  0  0  0  0  0  0  0  0
  -10.5010   -3.2380  -21.2460 H   0  0  0  0  0  0  0  0  0  0  0  0
   -7.6120   -0.5040  -24.1570 H   0  0  0  0  0  0  0  0  0  0  0  0
   -8.8240   -1.4670  -25.0350 H   0  0  0  0  0  0  0  0  0  0  0  0
   -8.3190    1.3030  -25.8980 H   0  0  0  0  0  0  0  0  0  0  0  0
   -9.6180    2.2800  -25.1900 H   0  0  0  0  0  0  0  0  0  0  0  0
   -9.1890    2.6540  -22.6150 H   0  0  0  0  0  0  0  0  0  0  0  0
   -6.7630    2.5850  -21.4720 H   0  0  0  0  0  0  0  0  0  0  0  0
   -7.8410    4.0100  -21.2540 H   0  0  0  0  0  0  0  0  0  0  0  0
   -6.5700    4.0070  -22.5020 H   0  0  0  0  0  0  0  0  0  0  0  0
  1  2  1  0  0  0  0
  1 66  1  0  0  0  0
  1 67  1  0  0  0  0
  1 68  1  0  0  0  0
  2  3  1  0  0  0  0
  2 65  1  0  0  0  0
  3  4  2  0  0  0  0
  3  5  1  0  0  0  0
  5  6  1  0  0  0  0
  5 63  1  0  0  0  0
  5 64  1  0  0  0  0
  6  7  1  0  0  0  0
  6 56  1  0  0  0  0
  7  8  1  0  0  0  0
  7 61  1  0  0  0  0
  7 62  1  0  0  0  0
  8  9  1  1  0  0  0
  8 29  1  0  0  0  0
  8 49  1  0  0  0  0
  9 10  2  0  0  0  0
  9 11  1  0  0  0  0
 11 12  1  0  0  0  0
 11 28  1  0  0  0  0
 12 13  2  0  0  0  0
 12 21  1  0  0  0  0
 13 14  1  0  0  0  0
 13 27  1  0  0  0  0
 14 15  2  0  0  0  0
 15 16  1  0  0  0  0
 15 26  1  0  0  0  0
 16 17  2  0  0  0  0
 16 21  1  0  0  0  0
 17 18  1  0  0  0  0
 17 25  1  0  0  0  0
 18 19  2  0  0  0  0
 18 24  1  0  0  0  0
 19 20  1  0  0  0  0
 19 23  1  0  0  0  0
 20 21  2  0  0  0  0
 20 22  1  0  0  0  0
 28 29  1  0  0  0  0
 28 47  1  0  0  0  0
 28 48  1  0  0  0  0
 29 30  1  0  0  0  0
 29 46  1  1  0  0  0
 30 31  1  0  0  0  0
 30 44  1  0  0  0  0
 30 45  1  0  0  0  0
 31 32  1  0  0  0  0
 31 43  1  0  0  0  0
 32 33  2  0  0  0  0
 32 37  1  0  0  0  0
 33 34  1  0  0  0  0
 33 42  1  0  0  0  0
 34 35  2  0  0  0  0
 34 41  1  0  0  0  0
 35 36  1  0  0  0  0
 35 40  1  0  0  0  0
 36 37  2  0  0  0  0
 36 39  1  0  0  0  0
 37 38  1  0  0  0  0
 49 50  2  0  0  0  0
 49 55  1  0  0  0  0
 50 51  1  0  0  0  0
 50 60  1  0  0  0  0
 51 52  1  0  0  0  0
 51 53  2  0  0  0  0
 53 54  1  0  0  0  0
 53 59  1  0  0  0  0
 54 55  2  0  0  0  0
 54 58  1  0  0  0  0
 55 56  1  0  0  0  0
 56 57  2  0  0  0  0
M  END
>  <MODEL>
       1

$$$$
