tmp_first_model_15_51.pdb
 OpenBabel08282501153D

 50 52  0  0  0  0  0  0  0  0999 V2000
  -11.5760   -0.2650  -25.0570 C   0  0  0  0  0  0  0  0  0  0  0  0
  -10.7860   -0.0120  -24.0170 C   0  0  0  0  0  0  0  0  0  0  0  0
  -10.6820   -0.9550  -22.8320 C   0  0  0  0  0  0  0  0  0  0  0  0
   -9.3290   -1.4380  -22.5730 N   0  0  0  0  0  0  0  0  0  0  0  0
   -8.6450   -0.8440  -21.5260 C   0  0  0  0  0  0  0  0  0  0  0  0
   -9.1510    0.0260  -20.8190 O   0  0  0  0  0  0  0  0  0  0  0  0
   -7.3940   -1.3280  -21.2670 N   0  0  0  0  0  0  0  0  0  0  0  0
   -6.6150   -0.8050  -20.2070 C   0  0  0  0  0  0  0  0  0  0  0  0
   -6.9420   -1.0490  -18.8940 C   0  0  0  0  0  0  0  0  0  0  0  0
   -6.2460   -0.5720  -17.8360 N   0  0  0  0  0  0  0  0  0  0  0  0
   -5.2080    0.1910  -18.0960 C   0  0  0  0  0  0  0  0  0  0  0  0
   -4.7600    0.5200  -19.4080 C   0  0  0  0  0  0  0  0  0  0  0  0
   -3.6410    1.3610  -19.6460 C   0  0  0  0  0  0  0  0  0  0  0  0
   -3.2570    1.6620  -20.9260 C   0  0  0  0  0  0  0  0  0  0  0  0
   -3.9710    1.1470  -22.0310 C   0  0  0  0  0  0  0  0  0  0  0  0
   -5.0670    0.3400  -21.8280 C   0  0  0  0  0  0  0  0  0  0  0  0
   -5.4770   -0.0010  -20.5090 C   0  0  0  0  0  0  0  0  0  0  0  0
   -5.6260   -0.0330  -22.6840 H   0  0  0  0  0  0  0  0  0  0  0  0
   -3.6560    1.3960  -23.0420 H   0  0  0  0  0  0  0  0  0  0  0  0
   -2.4000    2.3060  -21.1010 H   0  0  0  0  0  0  0  0  0  0  0  0
   -3.1110    1.7630  -18.7860 H   0  0  0  0  0  0  0  0  0  0  0  0
   -4.6530    0.5900  -17.2470 H   0  0  0  0  0  0  0  0  0  0  0  0
   -7.8060   -1.6710  -18.6660 H   0  0  0  0  0  0  0  0  0  0  0  0
   -6.9680   -1.9410  -21.9460 H   0  0  0  0  0  0  0  0  0  0  0  0
   -8.7290   -2.2220  -23.6100 C   0  0  0  0  0  0  0  0  0  0  0  0
   -9.1680   -3.5220  -23.8610 C   0  0  0  0  0  0  0  0  0  0  0  0
   -8.5740   -4.2550  -24.8840 C   0  0  0  0  0  0  0  0  0  0  0  0
   -7.5830   -3.6970  -25.6830 C   0  0  0  0  0  0  0  0  0  0  0  0
   -7.1950   -2.3870  -25.4470 C   0  0  0  0  0  0  0  0  0  0  0  0
   -5.9670   -1.6610  -26.4400 Cl  0  0  0  0  0  0  0  0  0  0  0  0
   -7.7580   -1.6410  -24.4230 C   0  0  0  0  0  0  0  0  0  0  0  0
   -7.4770   -0.6000  -24.2740 H   0  0  0  0  0  0  0  0  0  0  0  0
   -7.1110   -4.2660  -26.4760 H   0  0  0  0  0  0  0  0  0  0  0  0
   -8.9000   -5.2730  -25.0700 H   0  0  0  0  0  0  0  0  0  0  0  0
   -9.9760   -3.9500  -23.2680 H   0  0  0  0  0  0  0  0  0  0  0  0
  -11.3200   -1.8210  -23.0250 H   0  0  0  0  0  0  0  0  0  0  0  0
  -11.0190   -0.4850  -21.9120 H   0  0  0  0  0  0  0  0  0  0  0  0
   -9.8970    1.1970  -24.1390 C   0  0  0  0  0  0  0  0  0  0  0  0
   -9.6270    1.6720  -25.2390 O   0  0  0  0  0  0  0  0  0  0  0  0
   -9.3880    1.7360  -23.0030 N   0  0  0  0  0  0  0  0  0  0  0  0
   -8.1510    2.4850  -23.1320 C   0  0  0  0  0  0  0  0  0  0  0  0
   -7.5360    2.8060  -21.7870 C   0  0  0  0  0  0  0  0  0  0  0  0
   -7.5630    1.9440  -21.1140 H   0  0  0  0  0  0  0  0  0  0  0  0
   -6.4900    3.1040  -21.8890 H   0  0  0  0  0  0  0  0  0  0  0  0
   -8.0680    3.6200  -21.2950 H   0  0  0  0  0  0  0  0  0  0  0  0
   -7.4230    1.8890  -23.6950 H   0  0  0  0  0  0  0  0  0  0  0  0
   -8.3510    3.3840  -23.7220 H   0  0  0  0  0  0  0  0  0  0  0  0
   -9.5870    1.3290  -22.0990 H   0  0  0  0  0  0  0  0  0  0  0  0
  -11.5860    0.3980  -25.9170 H   0  0  0  0  0  0  0  0  0  0  0  0
  -12.2430   -1.1230  -25.0570 H   0  0  0  0  0  0  0  0  0  0  0  0
  1  2  2  0  0  0  0
  1 49  1  0  0  0  0
  1 50  1  0  0  0  0
  2  3  1  0  0  0  0
  2 38  1  0  0  0  0
  3  4  1  0  0  0  0
  3 36  1  0  0  0  0
  3 37  1  0  0  0  0
  4  5  1  0  0  0  0
  4 25  1  0  0  0  0
  5  6  2  0  0  0  0
  5  7  1  0  0  0  0
  7  8  1  0  0  0  0
  7 24  1  0  0  0  0
  8  9  2  0  0  0  0
  8 17  1  0  0  0  0
  9 10  1  0  0  0  0
  9 23  1  0  0  0  0
 10 11  2  0  0  0  0
 11 12  1  0  0  0  0
 11 22  1  0  0  0  0
 12 13  2  0  0  0  0
 12 17  1  0  0  0  0
 13 14  1  0  0  0  0
 13 21  1  0  0  0  0
 14 15  2  0  0  0  0
 14 20  1  0  0  0  0
 15 16  1  0  0  0  0
 15 19  1  0  0  0  0
 16 17  2  0  0  0  0
 16 18  1  0  0  0  0
 25 26  2  0  0  0  0
 25 31  1  0  0  0  0
 26 27  1  0  0  0  0
 26 35  1  0  0  0  0
 27 28  2  0  0  0  0
 27 34  1  0  0  0  0
 28 29  1  0  0  0  0
 28 33  1  0  0  0  0
 29 30  1  0  0  0  0
 29 31  2  0  0  0  0
 31 32  1  0  0  0  0
 38 39  2  0  0  0  0
 38 40  1  0  0  0  0
 40 41  1  0  0  0  0
 40 48  1  0  0  0  0
 41 42  1  0  0  0  0
 41 46  1  0  0  0  0
 41 47  1  0  0  0  0
 42 43  1  0  0  0  0
 42 44  1  0  0  0  0
 42 45  1  0  0  0  0
M  END
>  <MODEL>
       1

$$$$
