tmp_first_model_5_87.pdb
 OpenBabel08272519233D

 59 64  0  0  1  0  0  0  0  0999 V2000
   -7.9030   -3.6920  -24.0730 C   0  0  0  0  0  0  0  0  0  0  0  0
   -8.2680   -2.9030  -22.8240 C   0  0  1  0  0  0  0  0  0  0  0  0
   -7.0460   -2.6850  -21.9230 C   0  0  0  0  0  0  0  0  0  0  0  0
   -7.3980   -1.4870  -21.2000 N   0  0  0  0  0  0  0  0  0  0  0  0
   -6.5480   -0.9640  -20.2040 C   0  0  0  0  0  0  0  0  0  0  0  0
   -6.8400   -1.1320  -18.8800 C   0  0  0  0  0  0  0  0  0  0  0  0
   -5.9840   -0.8460  -17.8680 N   0  0  0  0  0  0  0  0  0  0  0  0
   -4.8180   -0.3450  -18.2020 C   0  0  0  0  0  0  0  0  0  0  0  0
   -4.4400   -0.0210  -19.5370 C   0  0  0  0  0  0  0  0  0  0  0  0
   -3.2670    0.7310  -19.8200 C   0  0  0  0  0  0  0  0  0  0  0  0
   -3.1580    1.4080  -21.0020 C   0  0  0  0  0  0  0  0  0  0  0  0
   -4.0760    1.1490  -22.0530 C   0  0  0  0  0  0  0  0  0  0  0  0
   -5.0860    0.2410  -21.8670 C   0  0  0  0  0  0  0  0  0  0  0  0
   -5.3610   -0.2710  -20.5680 C   0  0  0  0  0  0  0  0  0  0  0  0
   -5.6910   -0.0680  -22.7100 H   0  0  0  0  0  0  0  0  0  0  0  0
   -3.9220    1.6070  -23.0230 H   0  0  0  0  0  0  0  0  0  0  0  0
   -2.2990    2.0450  -21.1850 H   0  0  0  0  0  0  0  0  0  0  0  0
   -2.5490    0.8590  -19.0150 H   0  0  0  0  0  0  0  0  0  0  0  0
   -4.1290   -0.0830  -17.3990 H   0  0  0  0  0  0  0  0  0  0  0  0
   -7.8130   -1.5280  -18.6070 H   0  0  0  0  0  0  0  0  0  0  0  0
   -8.4410   -0.7670  -21.7340 C   0  0  0  0  0  0  0  0  0  0  0  0
   -8.8950    0.2400  -21.2300 O   0  0  0  0  0  0  0  0  0  0  0  0
   -8.9090   -1.4890  -23.0200 C   0  0  1  0  0  0  0  0  0  0  0  0
   -8.3590   -0.8240  -24.3120 C   0  0  0  0  0  0  0  0  0  0  0  0
   -9.0020    0.4400  -24.6120 N   0  0  0  0  0  0  0  0  0  0  0  0
   -8.2640    1.5240  -25.2440 C   0  0  0  0  0  0  0  0  0  0  0  0
   -8.1350    2.7120  -24.3350 C   0  0  0  0  0  0  0  0  0  0  0  0
   -7.5610    2.8290  -23.0820 C   0  0  0  0  0  0  0  0  0  0  0  0
   -7.7700    4.1730  -22.7220 C   0  0  0  0  0  0  0  0  0  0  0  0
   -8.4140    4.8380  -23.6740 N   0  0  0  0  0  0  0  0  0  0  0  0
   -8.6320    3.9370  -24.6430 N   0  0  0  0  0  0  0  0  0  0  0  0
   -9.3160    4.3580  -25.8540 C   0  0  0  0  0  0  0  0  0  0  0  0
  -10.2110    3.7550  -26.0270 H   0  0  0  0  0  0  0  0  0  0  0  0
   -8.6500    4.2950  -26.7230 H   0  0  0  0  0  0  0  0  0  0  0  0
   -9.5900    5.4010  -25.6970 H   0  0  0  0  0  0  0  0  0  0  0  0
   -7.4730    4.6910  -21.8190 H   0  0  0  0  0  0  0  0  0  0  0  0
   -7.0680    2.0600  -22.4990 H   0  0  0  0  0  0  0  0  0  0  0  0
   -8.7640    1.8080  -26.1780 H   0  0  0  0  0  0  0  0  0  0  0  0
   -7.2720    1.1510  -25.5190 H   0  0  0  0  0  0  0  0  0  0  0  0
  -10.3600    0.5790  -24.5570 C   0  0  0  0  0  0  0  0  0  0  0  0
  -10.9320    1.5580  -25.0280 O   0  0  0  0  0  0  0  0  0  0  0  0
  -11.1020   -0.5420  -23.8990 C   0  0  0  0  0  0  0  0  0  0  0  0
  -12.4800   -0.6500  -24.0920 C   0  0  0  0  0  0  0  0  0  0  0  0
  -13.2080   -1.6250  -23.4390 C   0  0  0  0  0  0  0  0  0  0  0  0
  -12.5410   -2.4130  -22.5050 C   0  0  0  0  0  0  0  0  0  0  0  0
  -13.2470   -3.2980  -21.7840 F   0  0  0  0  0  0  0  0  0  0  0  0
  -11.1810   -2.3210  -22.2900 C   0  0  0  0  0  0  0  0  0  0  0  0
  -10.4210   -1.4570  -23.0840 C   0  0  0  0  0  0  0  0  0  0  0  0
  -10.7240   -2.9350  -21.5210 H   0  0  0  0  0  0  0  0  0  0  0  0
  -14.2780   -1.7480  -23.5810 H   0  0  0  0  0  0  0  0  0  0  0  0
  -12.9710    0.0640  -24.7380 H   0  0  0  0  0  0  0  0  0  0  0  0
   -8.5150   -1.5190  -25.1480 H   0  0  0  0  0  0  0  0  0  0  0  0
   -7.2800   -0.6570  -24.2210 H   0  0  0  0  0  0  0  0  0  0  0  0
   -6.1170   -2.5680  -22.5080 H   0  0  0  0  0  0  0  0  0  0  0  0
   -6.8860   -3.5210  -21.2300 H   0  0  0  0  0  0  0  0  0  0  0  0
   -8.9800   -3.4930  -22.2410 H   0  0  0  0  0  0  0  0  0  0  0  0
   -8.7630   -3.8300  -24.7360 H   0  0  0  0  0  0  0  0  0  0  0  0
   -7.1090   -3.1870  -24.6370 H   0  0  0  0  0  0  0  0  0  0  0  0
   -7.5250   -4.6780  -23.7860 H   0  0  0  0  0  0  0  0  0  0  0  0
  1  2  1  0  0  0  0
  1 57  1  0  0  0  0
  1 58  1  0  0  0  0
  1 59  1  0  0  0  0
  2  3  1  0  0  0  0
  2 23  1  0  0  0  0
  2 56  1  1  0  0  0
  3  4  1  0  0  0  0
  3 54  1  0  0  0  0
  3 55  1  0  0  0  0
  4  5  1  0  0  0  0
  4 21  1  0  0  0  0
  5  6  2  0  0  0  0
  5 14  1  0  0  0  0
  6  7  1  0  0  0  0
  6 20  1  0  0  0  0
  7  8  2  0  0  0  0
  8  9  1  0  0  0  0
  8 19  1  0  0  0  0
  9 10  2  0  0  0  0
  9 14  1  0  0  0  0
 10 11  1  0  0  0  0
 10 18  1  0  0  0  0
 11 12  2  0  0  0  0
 11 17  1  0  0  0  0
 12 13  1  0  0  0  0
 12 16  1  0  0  0  0
 13 14  2  0  0  0  0
 13 15  1  0  0  0  0
 21 22  2  0  0  0  0
 23 21  1  1  0  0  0
 23 24  1  0  0  0  0
 23 48  1  0  0  0  0
 24 25  1  0  0  0  0
 24 52  1  0  0  0  0
 24 53  1  0  0  0  0
 25 26  1  0  0  0  0
 25 40  1  0  0  0  0
 26 27  1  0  0  0  0
 26 38  1  0  0  0  0
 26 39  1  0  0  0  0
 27 28  2  0  0  0  0
 27 31  1  0  0  0  0
 28 29  1  0  0  0  0
 28 37  1  0  0  0  0
 29 30  2  0  0  0  0
 29 36  1  0  0  0  0
 30 31  1  0  0  0  0
 31 32  1  0  0  0  0
 32 33  1  0  0  0  0
 32 34  1  0  0  0  0
 32 35  1  0  0  0  0
 40 41  2  0  0  0  0
 40 42  1  0  0  0  0
 42 43  2  0  0  0  0
 42 48  1  0  0  0  0
 43 44  1  0  0  0  0
 43 51  1  0  0  0  0
 44 45  2  0  0  0  0
 44 50  1  0  0  0  0
 45 46  1  0  0  0  0
 45 47  1  0  0  0  0
 47 48  2  0  0  0  0
 47 49  1  0  0  0  0
M  END
>  <MODEL>
       1

$$$$
