tmp_first_model_11_92.pdb
 OpenBabel08272522543D

 60 65  0  0  1  0  0  0  0  0999 V2000
   -7.1790   -5.6280  -24.8870 C   0  0  0  0  0  0  0  0  0  0  0  0
   -7.4400   -4.9380  -23.6890 O   0  0  0  0  0  0  0  0  0  0  0  0
   -8.1730   -3.7650  -23.9340 C   0  0  0  0  0  0  0  0  0  0  0  0
   -8.3680   -3.0040  -22.6330 C   0  0  1  0  0  0  0  0  0  0  0  0
   -7.0330   -2.5030  -22.0450 C   0  0  0  0  0  0  0  0  0  0  0  0
   -7.4320   -1.3450  -21.2660 N   0  0  0  0  0  0  0  0  0  0  0  0
   -6.6490   -0.8190  -20.2080 C   0  0  0  0  0  0  0  0  0  0  0  0
   -7.0050   -1.0160  -18.8940 C   0  0  0  0  0  0  0  0  0  0  0  0
   -6.3070   -0.5340  -17.8360 N   0  0  0  0  0  0  0  0  0  0  0  0
   -5.2410    0.1880  -18.0890 C   0  0  0  0  0  0  0  0  0  0  0  0
   -4.7610    0.4740  -19.4000 C   0  0  0  0  0  0  0  0  0  0  0  0
   -3.6550    1.3350  -19.6430 C   0  0  0  0  0  0  0  0  0  0  0  0
   -3.2350    1.5840  -20.9220 C   0  0  0  0  0  0  0  0  0  0  0  0
   -3.8540    0.9330  -22.0130 C   0  0  0  0  0  0  0  0  0  0  0  0
   -4.9150    0.0850  -21.8000 C   0  0  0  0  0  0  0  0  0  0  0  0
   -5.4410   -0.1090  -20.4940 C   0  0  0  0  0  0  0  0  0  0  0  0
   -5.3730   -0.4160  -22.6450 H   0  0  0  0  0  0  0  0  0  0  0  0
   -3.5160    1.1400  -23.0260 H   0  0  0  0  0  0  0  0  0  0  0  0
   -2.4400    2.2980  -21.1110 H   0  0  0  0  0  0  0  0  0  0  0  0
   -3.1710    1.8160  -18.7980 H   0  0  0  0  0  0  0  0  0  0  0  0
   -4.6950    0.5840  -17.2310 H   0  0  0  0  0  0  0  0  0  0  0  0
   -7.8940   -1.5950  -18.6520 H   0  0  0  0  0  0  0  0  0  0  0  0
   -8.7090   -0.8970  -21.5490 C   0  0  0  0  0  0  0  0  0  0  0  0
   -9.2730   -0.0010  -20.9610 O   0  0  0  0  0  0  0  0  0  0  0  0
   -9.2650   -1.7340  -22.7370 C   0  0  1  0  0  0  0  0  0  0  0  0
   -9.0120   -0.9970  -24.0890 C   0  0  0  0  0  0  0  0  0  0  0  0
   -9.8500    0.1760  -24.2640 N   0  0  0  0  0  0  0  0  0  0  0  0
   -9.2970    1.4010  -24.8310 C   0  0  0  0  0  0  0  0  0  0  0  0
   -8.3440    2.1170  -23.9130 C   0  0  0  0  0  0  0  0  0  0  0  0
   -8.6180    3.0850  -22.9100 C   0  0  0  0  0  0  0  0  0  0  0  0
   -7.5130    3.4810  -22.2740 N   0  0  0  0  0  0  0  0  0  0  0  0
   -6.5380    2.7720  -22.8580 N   0  0  0  0  0  0  0  0  0  0  0  0
   -6.9790    1.9390  -23.8310 C   0  0  0  0  0  0  0  0  0  0  0  0
   -6.3110    1.2880  -24.3720 H   0  0  0  0  0  0  0  0  0  0  0  0
   -5.6040    2.8010  -22.4770 H   0  0  0  0  0  0  0  0  0  0  0  0
   -9.5900    3.4770  -22.6460 H   0  0  0  0  0  0  0  0  0  0  0  0
   -8.8280    1.1820  -25.8030 H   0  0  0  0  0  0  0  0  0  0  0  0
  -10.1610    2.0370  -25.0390 H   0  0  0  0  0  0  0  0  0  0  0  0
  -11.1870    0.1420  -24.0150 C   0  0  0  0  0  0  0  0  0  0  0  0
  -11.9550    1.0190  -24.3910 O   0  0  0  0  0  0  0  0  0  0  0  0
  -11.6520   -1.0370  -23.2330 C   0  0  0  0  0  0  0  0  0  0  0  0
  -13.0290   -1.1240  -23.0720 C   0  0  0  0  0  0  0  0  0  0  0  0
  -13.5670   -2.0350  -22.1970 C   0  0  0  0  0  0  0  0  0  0  0  0
  -12.6960   -2.8930  -21.5330 C   0  0  0  0  0  0  0  0  0  0  0  0
  -13.4020   -3.8750  -20.2990 Cl  0  0  0  0  0  0  0  0  0  0  0  0
  -11.3310   -2.9100  -21.7760 C   0  0  0  0  0  0  0  0  0  0  0  0
  -10.7670   -1.9380  -22.6170 C   0  0  0  0  0  0  0  0  0  0  0  0
  -10.7240   -3.6800  -21.3090 H   0  0  0  0  0  0  0  0  0  0  0  0
  -14.6280   -2.0720  -21.9790 H   0  0  0  0  0  0  0  0  0  0  0  0
  -13.6360   -0.4000  -23.6010 H   0  0  0  0  0  0  0  0  0  0  0  0
   -9.1960   -1.7050  -24.9110 H   0  0  0  0  0  0  0  0  0  0  0  0
   -7.9740   -0.6590  -24.1450 H   0  0  0  0  0  0  0  0  0  0  0  0
   -6.3300   -2.2360  -22.8470 H   0  0  0  0  0  0  0  0  0  0  0  0
   -6.5330   -3.2360  -21.4060 H   0  0  0  0  0  0  0  0  0  0  0  0
   -8.8030   -3.6920  -21.9050 H   0  0  0  0  0  0  0  0  0  0  0  0
   -9.1500   -4.0080  -24.3870 H   0  0  0  0  0  0  0  0  0  0  0  0
   -7.6230   -3.1290  -24.6520 H   0  0  0  0  0  0  0  0  0  0  0  0
   -6.5620   -5.0260  -25.5760 H   0  0  0  0  0  0  0  0  0  0  0  0
   -8.1110   -5.9020  -25.4100 H   0  0  0  0  0  0  0  0  0  0  0  0
   -6.6350   -6.5420  -24.6370 H   0  0  0  0  0  0  0  0  0  0  0  0
  1  2  1  0  0  0  0
  1 58  1  0  0  0  0
  1 59  1  0  0  0  0
  1 60  1  0  0  0  0
  2  3  1  0  0  0  0
  3  4  1  0  0  0  0
  3 56  1  0  0  0  0
  3 57  1  0  0  0  0
  4  5  1  0  0  0  0
  4 25  1  0  0  0  0
  4 55  1  1  0  0  0
  5  6  1  0  0  0  0
  5 53  1  0  0  0  0
  5 54  1  0  0  0  0
  6  7  1  0  0  0  0
  6 23  1  0  0  0  0
  7  8  2  0  0  0  0
  7 16  1  0  0  0  0
  8  9  1  0  0  0  0
  8 22  1  0  0  0  0
  9 10  2  0  0  0  0
 10 11  1  0  0  0  0
 10 21  1  0  0  0  0
 11 12  2  0  0  0  0
 11 16  1  0  0  0  0
 12 13  1  0  0  0  0
 12 20  1  0  0  0  0
 13 14  2  0  0  0  0
 13 19  1  0  0  0  0
 14 15  1  0  0  0  0
 14 18  1  0  0  0  0
 15 16  2  0  0  0  0
 15 17  1  0  0  0  0
 23 24  2  0  0  0  0
 25 23  1  1  0  0  0
 25 26  1  0  0  0  0
 25 47  1  0  0  0  0
 26 27  1  0  0  0  0
 26 51  1  0  0  0  0
 26 52  1  0  0  0  0
 27 28  1  0  0  0  0
 27 39  1  0  0  0  0
 28 29  1  0  0  0  0
 28 37  1  0  0  0  0
 28 38  1  0  0  0  0
 29 30  1  0  0  0  0
 29 33  2  0  0  0  0
 30 31  2  0  0  0  0
 30 36  1  0  0  0  0
 31 32  1  0  0  0  0
 32 33  1  0  0  0  0
 32 35  1  0  0  0  0
 33 34  1  0  0  0  0
 39 40  2  0  0  0  0
 39 41  1  0  0  0  0
 41 42  2  0  0  0  0
 41 47  1  0  0  0  0
 42 43  1  0  0  0  0
 42 50  1  0  0  0  0
 43 44  2  0  0  0  0
 43 49  1  0  0  0  0
 44 45  1  0  0  0  0
 44 46  1  0  0  0  0
 46 47  2  0  0  0  0
 46 48  1  0  0  0  0
M  END
>  <MODEL>
       1

$$$$
