tmp_first_model_6_38.pdb
 OpenBabel08272519583D

 46 48  0  0  1  0  0  0  0  0999 V2000
   -8.1590   -4.6950  -26.5420 C   0  0  0  0  0  0  0  0  0  0  0  0
   -8.6490   -4.9630  -25.1180 C   0  0  1  0  0  0  0  0  0  0  0  0
   -7.5870   -5.5270  -24.1820 C   0  0  0  0  0  0  0  0  0  0  0  0
   -6.6130   -4.5200  -23.5540 C   0  0  1  0  0  0  0  0  0  0  0  0
   -5.4110   -4.1610  -24.4400 C   0  0  0  0  0  0  0  0  0  0  0  0
   -4.6070   -3.7390  -23.8290 H   0  0  0  0  0  0  0  0  0  0  0  0
   -5.6620   -3.4330  -25.2130 H   0  0  0  0  0  0  0  0  0  0  0  0
   -5.0140   -5.0550  -24.9390 H   0  0  0  0  0  0  0  0  0  0  0  0
   -7.3190   -3.3360  -23.0110 N   0  0  0  0  0  0  0  0  0  0  0  0
   -6.7220   -2.7020  -21.9370 C   0  0  0  0  0  0  0  0  0  0  0  0
   -5.6780   -3.1200  -21.4590 O   0  0  0  0  0  0  0  0  0  0  0  0
   -7.4070   -1.4690  -21.2810 C   0  0  0  0  0  0  0  0  0  0  0  0
   -6.5790   -0.8340  -20.1840 C   0  0  0  0  0  0  0  0  0  0  0  0
   -6.8720   -1.0490  -18.8630 C   0  0  0  0  0  0  0  0  0  0  0  0
   -6.1880   -0.5460  -17.7990 N   0  0  0  0  0  0  0  0  0  0  0  0
   -5.1590    0.2210  -18.0630 C   0  0  0  0  0  0  0  0  0  0  0  0
   -4.7220    0.5320  -19.3780 C   0  0  0  0  0  0  0  0  0  0  0  0
   -3.5940    1.3590  -19.6190 C   0  0  0  0  0  0  0  0  0  0  0  0
   -3.2000    1.6510  -20.8960 C   0  0  0  0  0  0  0  0  0  0  0  0
   -3.9390    1.1430  -21.9870 C   0  0  0  0  0  0  0  0  0  0  0  0
   -5.0240    0.3240  -21.7800 C   0  0  0  0  0  0  0  0  0  0  0  0
   -5.4510   -0.0060  -20.4710 C   0  0  0  0  0  0  0  0  0  0  0  0
   -5.5300   -0.1180  -22.6340 H   0  0  0  0  0  0  0  0  0  0  0  0
   -3.5890    1.3250  -22.9980 H   0  0  0  0  0  0  0  0  0  0  0  0
   -2.3280    2.2730  -21.0870 H   0  0  0  0  0  0  0  0  0  0  0  0
   -3.0540    1.7710  -18.7690 H   0  0  0  0  0  0  0  0  0  0  0  0
   -4.6030    0.6280  -17.2150 H   0  0  0  0  0  0  0  0  0  0  0  0
   -7.7200   -1.6710  -18.5870 H   0  0  0  0  0  0  0  0  0  0  0  0
   -7.6710   -0.7100  -22.0290 H   0  0  0  0  0  0  0  0  0  0  0  0
   -8.3590   -1.8070  -20.8470 H   0  0  0  0  0  0  0  0  0  0  0  0
   -8.4010   -2.7210  -23.7880 C   0  0  1  0  0  0  0  0  0  0  0  0
   -7.9400   -1.6600  -24.7990 C   0  0  0  0  0  0  0  0  0  0  0  0
   -7.4440   -2.0870  -25.6750 H   0  0  0  0  0  0  0  0  0  0  0  0
   -8.7980   -1.0830  -25.1710 H   0  0  0  0  0  0  0  0  0  0  0  0
   -7.2450   -0.9500  -24.3420 H   0  0  0  0  0  0  0  0  0  0  0  0
   -9.3100   -3.7790  -24.4180 C   0  0  0  0  0  0  0  0  0  0  0  0
   -9.9820   -4.1660  -23.6420 H   0  0  0  0  0  0  0  0  0  0  0  0
   -9.9240   -3.2500  -25.1430 H   0  0  0  0  0  0  0  0  0  0  0  0
   -9.0330   -2.1950  -23.0660 H   0  0  0  0  0  0  0  0  0  0  0  0
   -6.1930   -5.0220  -22.6810 H   0  0  0  0  0  0  0  0  0  0  0  0
   -8.0910   -6.0580  -23.3680 H   0  0  0  0  0  0  0  0  0  0  0  0
   -7.0120   -6.2910  -24.7150 H   0  0  0  0  0  0  0  0  0  0  0  0
   -9.4280   -5.7350  -25.2240 H   0  0  0  0  0  0  0  0  0  0  0  0
   -7.9250   -5.6400  -27.0470 H   0  0  0  0  0  0  0  0  0  0  0  0
   -8.9310   -4.1950  -27.1370 H   0  0  0  0  0  0  0  0  0  0  0  0
   -7.2560   -4.0820  -26.5820 H   0  0  0  0  0  0  0  0  0  0  0  0
  1  2  1  0  0  0  0
  1 44  1  0  0  0  0
  1 45  1  0  0  0  0
  1 46  1  0  0  0  0
  2  3  1  0  0  0  0
  2 36  1  0  0  0  0
  2 43  1  6  0  0  0
  3  4  1  0  0  0  0
  3 41  1  0  0  0  0
  3 42  1  0  0  0  0
  4  5  1  0  0  0  0
  4  9  1  0  0  0  0
  4 40  1  1  0  0  0
  5  6  1  0  0  0  0
  5  7  1  0  0  0  0
  5  8  1  0  0  0  0
  9 10  1  0  0  0  0
  9 31  1  0  0  0  0
 10 11  2  0  0  0  0
 10 12  1  0  0  0  0
 12 13  1  0  0  0  0
 12 29  1  0  0  0  0
 12 30  1  0  0  0  0
 13 14  2  0  0  0  0
 13 22  1  0  0  0  0
 14 15  1  0  0  0  0
 14 28  1  0  0  0  0
 15 16  2  0  0  0  0
 16 17  1  0  0  0  0
 16 27  1  0  0  0  0
 17 18  2  0  0  0  0
 17 22  1  0  0  0  0
 18 19  1  0  0  0  0
 18 26  1  0  0  0  0
 19 20  2  0  0  0  0
 19 25  1  0  0  0  0
 20 21  1  0  0  0  0
 20 24  1  0  0  0  0
 21 22  2  0  0  0  0
 21 23  1  0  0  0  0
 31 32  1  0  0  0  0
 31 36  1  0  0  0  0
 31 39  1  1  0  0  0
 32 33  1  0  0  0  0
 32 34  1  0  0  0  0
 32 35  1  0  0  0  0
 36 37  1  0  0  0  0
 36 38  1  0  0  0  0
M  END
>  <MODEL>
       1

$$$$
