tmp_first_model_19_80.pdb
 OpenBabel08282503233D

 60 65  0  0  1  0  0  0  0  0999 V2000
   -6.8470    3.5110  -23.3140 C   0  0  0  0  0  0  0  0  0  0  0  0
   -7.4850    2.7290  -24.3580 N   0  0  0  0  0  0  0  0  0  0  0  0
   -6.8140    1.7150  -24.9380 C   0  0  0  0  0  0  0  0  0  0  0  0
   -5.5910    1.6260  -24.8980 O   0  0  0  0  0  0  0  0  0  0  0  0
   -7.6300    0.6710  -25.7090 C   0  0  0  0  0  0  0  0  0  0  0  0
   -8.7090    0.0000  -25.0090 N   0  0  0  0  0  0  0  0  0  0  0  0
   -8.4600   -1.3310  -24.4580 C   0  0  0  0  0  0  0  0  0  0  0  0
   -8.9610   -1.4790  -22.9940 C   0  0  2  0  0  0  0  0  0  0  0  0
   -8.1530   -0.5190  -22.0880 C   0  0  0  0  0  0  0  0  0  0  0  0
   -8.1770    0.6990  -22.0970 O   0  0  0  0  0  0  0  0  0  0  0  0
   -7.3700   -1.2730  -21.2500 N   0  0  0  0  0  0  0  0  0  0  0  0
   -6.5810   -0.7180  -20.2170 C   0  0  0  0  0  0  0  0  0  0  0  0
   -6.8760   -1.0220  -18.9120 C   0  0  0  0  0  0  0  0  0  0  0  0
   -6.1780   -0.5680  -17.8470 N   0  0  0  0  0  0  0  0  0  0  0  0
   -5.1440    0.2070  -18.0810 C   0  0  0  0  0  0  0  0  0  0  0  0
   -4.7080    0.5720  -19.3890 C   0  0  0  0  0  0  0  0  0  0  0  0
   -3.5590    1.3770  -19.6140 C   0  0  0  0  0  0  0  0  0  0  0  0
   -3.1550    1.6780  -20.8860 C   0  0  0  0  0  0  0  0  0  0  0  0
   -3.8720    1.1840  -21.9990 C   0  0  0  0  0  0  0  0  0  0  0  0
   -4.9840    0.4060  -21.8100 C   0  0  0  0  0  0  0  0  0  0  0  0
   -5.4410    0.0930  -20.4990 C   0  0  0  0  0  0  0  0  0  0  0  0
   -5.5320    0.0230  -22.6650 H   0  0  0  0  0  0  0  0  0  0  0  0
   -3.5520    1.4180  -23.0090 H   0  0  0  0  0  0  0  0  0  0  0  0
   -2.2780    2.2970  -21.0470 H   0  0  0  0  0  0  0  0  0  0  0  0
   -3.0140    1.7520  -18.7530 H   0  0  0  0  0  0  0  0  0  0  0  0
   -4.5860    0.5680  -17.2150 H   0  0  0  0  0  0  0  0  0  0  0  0
   -7.7250   -1.6690  -18.6850 H   0  0  0  0  0  0  0  0  0  0  0  0
   -7.3150   -2.6750  -21.6080 C   0  0  0  0  0  0  0  0  0  0  0  0
   -8.6320   -2.8740  -22.3790 C   0  0  2  0  0  0  0  0  0  0  0  0
   -8.6710   -4.0380  -23.3770 C   0  0  0  0  0  0  0  0  0  0  0  0
   -7.8680   -3.9510  -24.1220 H   0  0  0  0  0  0  0  0  0  0  0  0
   -9.6220   -4.0430  -23.9280 H   0  0  0  0  0  0  0  0  0  0  0  0
   -8.5750   -5.0130  -22.8840 H   0  0  0  0  0  0  0  0  0  0  0  0
   -9.3770   -3.0630  -21.6000 H   0  0  0  0  0  0  0  0  0  0  0  0
   -7.2560   -3.2660  -20.6910 H   0  0  0  0  0  0  0  0  0  0  0  0
   -6.4220   -2.9100  -22.2130 H   0  0  0  0  0  0  0  0  0  0  0  0
  -10.4400   -1.1420  -23.0320 C   0  0  0  0  0  0  0  0  0  0  0  0
  -11.4080   -1.8620  -22.3200 C   0  0  0  0  0  0  0  0  0  0  0  0
  -12.7450   -1.5520  -22.4620 C   0  0  0  0  0  0  0  0  0  0  0  0
  -13.8870   -2.6400  -21.7240 Cl  0  0  0  0  0  0  0  0  0  0  0  0
  -13.1610   -0.4470  -23.2020 C   0  0  0  0  0  0  0  0  0  0  0  0
  -12.2080    0.2830  -23.8890 C   0  0  0  0  0  0  0  0  0  0  0  0
  -10.8590   -0.0770  -23.8500 C   0  0  0  0  0  0  0  0  0  0  0  0
   -9.8660    0.6730  -24.6990 C   0  0  0  0  0  0  0  0  0  0  0  0
  -10.0730    1.8120  -25.1190 O   0  0  0  0  0  0  0  0  0  0  0  0
  -12.5250    1.1270  -24.4860 H   0  0  0  0  0  0  0  0  0  0  0  0
  -14.2080   -0.1720  -23.2600 H   0  0  0  0  0  0  0  0  0  0  0  0
  -11.1500   -2.6590  -21.6310 H   0  0  0  0  0  0  0  0  0  0  0  0
   -7.3880   -1.5110  -24.4930 H   0  0  0  0  0  0  0  0  0  0  0  0
   -8.9810   -2.0690  -25.0780 H   0  0  0  0  0  0  0  0  0  0  0  0
   -6.7570   -0.1580  -26.6170 C   0  0  0  0  0  0  0  0  0  0  0  0
   -7.6730    0.8460  -27.2190 C   0  0  0  0  0  0  0  0  0  0  0  0
   -8.5520    0.4910  -27.7370 H   0  0  0  0  0  0  0  0  0  0  0  0
   -7.2240    1.7310  -27.6590 H   0  0  0  0  0  0  0  0  0  0  0  0
   -6.9680   -1.2160  -26.7120 H   0  0  0  0  0  0  0  0  0  0  0  0
   -5.7070    0.1000  -26.5970 H   0  0  0  0  0  0  0  0  0  0  0  0
   -8.4880    2.7740  -24.5030 H   0  0  0  0  0  0  0  0  0  0  0  0
   -6.5770    2.8810  -22.4520 H   0  0  0  0  0  0  0  0  0  0  0  0
   -5.9380    3.9890  -23.6950 H   0  0  0  0  0  0  0  0  0  0  0  0
   -7.5430    4.2840  -22.9810 H   0  0  0  0  0  0  0  0  0  0  0  0
  1  2  1  0  0  0  0
  1 58  1  0  0  0  0
  1 59  1  0  0  0  0
  1 60  1  0  0  0  0
  2  3  1  0  0  0  0
  2 57  1  0  0  0  0
  3  4  2  0  0  0  0
  3  5  1  0  0  0  0
  5  6  1  0  0  0  0
  5 51  1  0  0  0  0
  5 52  1  0  0  0  0
  6  7  1  0  0  0  0
  6 44  1  0  0  0  0
  7  8  1  0  0  0  0
  7 49  1  0  0  0  0
  7 50  1  0  0  0  0
  8  9  1  1  0  0  0
  8 29  1  0  0  0  0
  8 37  1  0  0  0  0
  9 10  2  0  0  0  0
  9 11  1  0  0  0  0
 11 12  1  0  0  0  0
 11 28  1  0  0  0  0
 12 13  2  0  0  0  0
 12 21  1  0  0  0  0
 13 14  1  0  0  0  0
 13 27  1  0  0  0  0
 14 15  2  0  0  0  0
 15 16  1  0  0  0  0
 15 26  1  0  0  0  0
 16 17  2  0  0  0  0
 16 21  1  0  0  0  0
 17 18  1  0  0  0  0
 17 25  1  0  0  0  0
 18 19  2  0  0  0  0
 18 24  1  0  0  0  0
 19 20  1  0  0  0  0
 19 23  1  0  0  0  0
 20 21  2  0  0  0  0
 20 22  1  0  0  0  0
 28 29  1  0  0  0  0
 28 35  1  0  0  0  0
 28 36  1  0  0  0  0
 29 30  1  0  0  0  0
 29 34  1  1  0  0  0
 30 31  1  0  0  0  0
 30 32  1  0  0  0  0
 30 33  1  0  0  0  0
 37 38  2  0  0  0  0
 37 43  1  0  0  0  0
 38 39  1  0  0  0  0
 38 48  1  0  0  0  0
 39 40  1  0  0  0  0
 39 41  2  0  0  0  0
 41 42  1  0  0  0  0
 41 47  1  0  0  0  0
 42 43  2  0  0  0  0
 42 46  1  0  0  0  0
 43 44  1  0  0  0  0
 44 45  2  0  0  0  0
 51 52  1  0  0  0  0
 51 55  1  0  0  0  0
 51 56  1  0  0  0  0
 52 53  1  0  0  0  0
 52 54  1  0  0  0  0
M  END
>  <MODEL>
       1

$$$$
