tmp_first_model_6_89.pdb
 OpenBabel08272519583D

 43 45  0  0  0  0  0  0  0  0999 V2000
   -6.1710   -4.4180  -27.1880 C   0  0  0  0  0  0  0  0  0  0  0  0
   -6.0040   -3.3830  -26.0700 C   0  0  0  0  0  0  0  0  0  0  0  0
   -5.3450   -2.1320  -26.6650 C   0  0  0  0  0  0  0  0  0  0  0  0
   -4.3650   -2.3750  -27.0890 H   0  0  0  0  0  0  0  0  0  0  0  0
   -5.9590   -1.7190  -27.4720 H   0  0  0  0  0  0  0  0  0  0  0  0
   -5.1940   -1.3360  -25.9320 H   0  0  0  0  0  0  0  0  0  0  0  0
   -5.1430   -3.9820  -24.9520 C   0  0  0  0  0  0  0  0  0  0  0  0
   -5.0890   -3.1170  -23.7000 C   0  0  0  0  0  0  0  0  0  0  0  0
   -6.4210   -2.7550  -23.2320 N   0  0  0  0  0  0  0  0  0  0  0  0
   -6.6300   -2.6880  -21.8590 C   0  0  0  0  0  0  0  0  0  0  0  0
   -6.1990   -3.5430  -21.1120 O   0  0  0  0  0  0  0  0  0  0  0  0
   -7.3880   -1.4740  -21.2780 C   0  0  0  0  0  0  0  0  0  0  0  0
   -6.5810   -0.8200  -20.1760 C   0  0  0  0  0  0  0  0  0  0  0  0
   -6.8730   -1.0470  -18.8570 C   0  0  0  0  0  0  0  0  0  0  0  0
   -6.1860   -0.5450  -17.7940 N   0  0  0  0  0  0  0  0  0  0  0  0
   -5.1570    0.2220  -18.0620 C   0  0  0  0  0  0  0  0  0  0  0  0
   -4.7230    0.5370  -19.3780 C   0  0  0  0  0  0  0  0  0  0  0  0
   -3.5920    1.3600  -19.6170 C   0  0  0  0  0  0  0  0  0  0  0  0
   -3.2010    1.6560  -20.8950 C   0  0  0  0  0  0  0  0  0  0  0  0
   -3.9430    1.1510  -21.9850 C   0  0  0  0  0  0  0  0  0  0  0  0
   -5.0320    0.3370  -21.7810 C   0  0  0  0  0  0  0  0  0  0  0  0
   -5.4550    0.0070  -20.4680 C   0  0  0  0  0  0  0  0  0  0  0  0
   -5.5400   -0.0960  -22.6400 H   0  0  0  0  0  0  0  0  0  0  0  0
   -3.5980    1.3380  -22.9970 H   0  0  0  0  0  0  0  0  0  0  0  0
   -2.3270    2.2720  -21.0830 H   0  0  0  0  0  0  0  0  0  0  0  0
   -3.0530    1.7660  -18.7650 H   0  0  0  0  0  0  0  0  0  0  0  0
   -4.6040    0.6280  -17.2130 H   0  0  0  0  0  0  0  0  0  0  0  0
   -7.7210   -1.6710  -18.5820 H   0  0  0  0  0  0  0  0  0  0  0  0
   -8.3240   -1.8510  -20.8490 H   0  0  0  0  0  0  0  0  0  0  0  0
   -7.6510   -0.7410  -22.0520 H   0  0  0  0  0  0  0  0  0  0  0  0
   -7.3110   -2.1750  -24.2200 C   0  0  0  0  0  0  0  0  0  0  0  0
   -7.3770   -3.0470  -25.4770 C   0  0  0  0  0  0  0  0  0  0  0  0
   -7.9870   -2.5460  -26.2340 H   0  0  0  0  0  0  0  0  0  0  0  0
   -7.8970   -3.9800  -25.2370 H   0  0  0  0  0  0  0  0  0  0  0  0
   -7.0190   -1.1460  -24.4910 H   0  0  0  0  0  0  0  0  0  0  0  0
   -8.3050   -2.1150  -23.7790 H   0  0  0  0  0  0  0  0  0  0  0  0
   -4.6020   -3.6510  -22.8860 H   0  0  0  0  0  0  0  0  0  0  0  0
   -4.4830   -2.2140  -23.8910 H   0  0  0  0  0  0  0  0  0  0  0  0
   -4.1290   -4.1540  -25.3290 H   0  0  0  0  0  0  0  0  0  0  0  0
   -5.5400   -4.9670  -24.6840 H   0  0  0  0  0  0  0  0  0  0  0  0
   -5.2020   -4.6900  -27.6230 H   0  0  0  0  0  0  0  0  0  0  0  0
   -6.6380   -5.3370  -26.8190 H   0  0  0  0  0  0  0  0  0  0  0  0
   -6.7990   -4.0300  -27.9980 H   0  0  0  0  0  0  0  0  0  0  0  0
  1  2  1  0  0  0  0
  1 41  1  0  0  0  0
  1 42  1  0  0  0  0
  1 43  1  0  0  0  0
  2  3  1  0  0  0  0
  2  7  1  0  0  0  0
  2 32  1  0  0  0  0
  3  4  1  0  0  0  0
  3  5  1  0  0  0  0
  3  6  1  0  0  0  0
  7  8  1  0  0  0  0
  7 39  1  0  0  0  0
  7 40  1  0  0  0  0
  8  9  1  0  0  0  0
  8 37  1  0  0  0  0
  8 38  1  0  0  0  0
  9 10  1  0  0  0  0
  9 31  1  0  0  0  0
 10 11  2  0  0  0  0
 10 12  1  0  0  0  0
 12 13  1  0  0  0  0
 12 29  1  0  0  0  0
 12 30  1  0  0  0  0
 13 14  2  0  0  0  0
 13 22  1  0  0  0  0
 14 15  1  0  0  0  0
 14 28  1  0  0  0  0
 15 16  2  0  0  0  0
 16 17  1  0  0  0  0
 16 27  1  0  0  0  0
 17 18  2  0  0  0  0
 17 22  1  0  0  0  0
 18 19  1  0  0  0  0
 18 26  1  0  0  0  0
 19 20  2  0  0  0  0
 19 25  1  0  0  0  0
 20 21  1  0  0  0  0
 20 24  1  0  0  0  0
 21 22  2  0  0  0  0
 21 23  1  0  0  0  0
 31 32  1  0  0  0  0
 31 35  1  0  0  0  0
 31 36  1  0  0  0  0
 32 33  1  0  0  0  0
 32 34  1  0  0  0  0
M  END
>  <MODEL>
       1

$$$$
