tmp_first_model_7_97.pdb
 OpenBabel08272520323D

 40 43  0  0  1  0  0  0  0  0999 V2000
  -12.6630   -3.7940  -21.1350 C   0  0  0  0  0  0  0  0  0  0  0  0
  -11.6030   -2.7950  -21.6200 C   0  0  2  0  0  0  0  0  0  0  0  0
  -12.0460   -2.2880  -22.9810 C   0  0  0  0  0  0  0  0  0  0  0  0
  -11.1520   -1.3420  -23.5050 O   0  0  0  0  0  0  0  0  0  0  0  0
   -9.8760   -1.8760  -23.7390 C   0  0  0  0  0  0  0  0  0  0  0  0
   -9.2060   -2.3690  -22.4500 C   0  0  1  0  0  0  0  0  0  0  0  0
  -10.1750   -3.3380  -21.7350 C   0  0  0  0  0  0  0  0  0  0  0  0
  -10.1940   -4.2680  -22.3200 H   0  0  0  0  0  0  0  0  0  0  0  0
   -9.7500   -3.5950  -20.7590 H   0  0  0  0  0  0  0  0  0  0  0  0
   -7.9480   -3.0100  -22.7600 N   0  0  0  0  0  0  0  0  0  0  0  0
   -6.8880   -2.5830  -22.0160 C   0  0  0  0  0  0  0  0  0  0  0  0
   -5.7510   -3.0010  -22.0100 O   0  0  0  0  0  0  0  0  0  0  0  0
   -7.3790   -1.5120  -21.2460 N   0  0  0  0  0  0  0  0  0  0  0  0
   -6.6130   -0.8810  -20.2250 C   0  0  0  0  0  0  0  0  0  0  0  0
   -6.9430   -1.0720  -18.9050 C   0  0  0  0  0  0  0  0  0  0  0  0
   -6.2550   -0.5650  -17.8530 N   0  0  0  0  0  0  0  0  0  0  0  0
   -5.2110    0.1750  -18.1280 C   0  0  0  0  0  0  0  0  0  0  0  0
   -4.7630    0.4660  -19.4440 C   0  0  0  0  0  0  0  0  0  0  0  0
   -3.6410    1.3050  -19.6520 C   0  0  0  0  0  0  0  0  0  0  0  0
   -3.2590    1.6330  -20.9230 C   0  0  0  0  0  0  0  0  0  0  0  0
   -3.9830    1.1360  -22.0280 C   0  0  0  0  0  0  0  0  0  0  0  0
   -5.0640    0.3080  -21.8520 C   0  0  0  0  0  0  0  0  0  0  0  0
   -5.4820   -0.0570  -20.5400 C   0  0  0  0  0  0  0  0  0  0  0  0
   -5.6110   -0.0560  -22.7160 H   0  0  0  0  0  0  0  0  0  0  0  0
   -3.6860    1.4300  -23.0290 H   0  0  0  0  0  0  0  0  0  0  0  0
   -2.4170    2.2960  -21.0810 H   0  0  0  0  0  0  0  0  0  0  0  0
   -3.1320    1.7030  -18.7790 H   0  0  0  0  0  0  0  0  0  0  0  0
   -4.6630    0.5940  -17.2860 H   0  0  0  0  0  0  0  0  0  0  0  0
   -7.8040   -1.6830  -18.6520 H   0  0  0  0  0  0  0  0  0  0  0  0
   -8.7200   -1.2360  -21.5320 C   0  0  0  0  0  0  0  0  0  0  0  0
   -9.3340   -0.2780  -21.1190 O   0  0  0  0  0  0  0  0  0  0  0  0
   -7.8960   -3.8560  -23.2990 H   0  0  0  0  0  0  0  0  0  0  0  0
   -9.2840   -1.0850  -24.2080 H   0  0  0  0  0  0  0  0  0  0  0  0
   -9.9240   -2.7370  -24.4290 H   0  0  0  0  0  0  0  0  0  0  0  0
  -13.0250   -1.7960  -22.9110 H   0  0  0  0  0  0  0  0  0  0  0  0
  -12.1400   -3.1640  -23.6490 H   0  0  0  0  0  0  0  0  0  0  0  0
  -11.5860   -1.9490  -20.9370 H   0  0  0  0  0  0  0  0  0  0  0  0
  -12.3850   -4.3630  -20.2370 H   0  0  0  0  0  0  0  0  0  0  0  0
  -12.8890   -4.5130  -21.9370 H   0  0  0  0  0  0  0  0  0  0  0  0
  -13.5940   -3.2540  -20.8970 H   0  0  0  0  0  0  0  0  0  0  0  0
  1  2  1  0  0  0  0
  1 38  1  0  0  0  0
  1 39  1  0  0  0  0
  1 40  1  0  0  0  0
  2  3  1  0  0  0  0
  2  7  1  0  0  0  0
  2 37  1  1  0  0  0
  3  4  1  0  0  0  0
  3 35  1  0  0  0  0
  3 36  1  0  0  0  0
  4  5  1  0  0  0  0
  5  6  1  0  0  0  0
  5 33  1  0  0  0  0
  5 34  1  0  0  0  0
  6  7  1  0  0  0  0
  6 10  1  0  0  0  0
  6 30  1  1  0  0  0
  7  8  1  0  0  0  0
  7  9  1  0  0  0  0
 10 11  1  0  0  0  0
 10 32  1  0  0  0  0
 11 12  2  0  0  0  0
 11 13  1  0  0  0  0
 13 14  1  0  0  0  0
 13 30  1  0  0  0  0
 14 15  2  0  0  0  0
 14 23  1  0  0  0  0
 15 16  1  0  0  0  0
 15 29  1  0  0  0  0
 16 17  2  0  0  0  0
 17 18  1  0  0  0  0
 17 28  1  0  0  0  0
 18 19  2  0  0  0  0
 18 23  1  0  0  0  0
 19 20  1  0  0  0  0
 19 27  1  0  0  0  0
 20 21  2  0  0  0  0
 20 26  1  0  0  0  0
 21 22  1  0  0  0  0
 21 25  1  0  0  0  0
 22 23  2  0  0  0  0
 22 24  1  0  0  0  0
 30 31  2  0  0  0  0
M  END
>  <MODEL>
       1

$$$$
