tmp_first_model_10_71.pdb
 OpenBabel08272522163D

 50 54  0  0  1  0  0  0  0  0999 V2000
   -8.3530   -4.1590  -23.4490 C   0  0  0  0  0  0  0  0  0  0  0  0
   -8.5510   -2.9950  -22.4940 C   0  0  1  0  0  0  0  0  0  0  0  0
   -7.4040   -2.8080  -21.4930 C   0  0  0  0  0  0  0  0  0  0  0  0
   -7.4520   -1.3850  -21.1970 N   0  0  0  0  0  0  0  0  0  0  0  0
   -6.6690   -0.7860  -20.1830 C   0  0  0  0  0  0  0  0  0  0  0  0
   -6.9200   -1.1030  -18.8710 C   0  0  0  0  0  0  0  0  0  0  0  0
   -6.2320   -0.6180  -17.8110 N   0  0  0  0  0  0  0  0  0  0  0  0
   -5.2180    0.1730  -18.0760 C   0  0  0  0  0  0  0  0  0  0  0  0
   -4.8380    0.5740  -19.3900 C   0  0  0  0  0  0  0  0  0  0  0  0
   -3.7390    1.4460  -19.5960 C   0  0  0  0  0  0  0  0  0  0  0  0
   -3.4750    1.9380  -20.8440 C   0  0  0  0  0  0  0  0  0  0  0  0
   -4.2520    1.5150  -21.9480 C   0  0  0  0  0  0  0  0  0  0  0  0
   -5.2640    0.6040  -21.7890 C   0  0  0  0  0  0  0  0  0  0  0  0
   -5.6000    0.1180  -20.4900 C   0  0  0  0  0  0  0  0  0  0  0  0
   -5.8330    0.2930  -22.6580 H   0  0  0  0  0  0  0  0  0  0  0  0
   -4.0550    1.9450  -22.9270 H   0  0  0  0  0  0  0  0  0  0  0  0
   -2.7030    2.6850  -20.9890 H   0  0  0  0  0  0  0  0  0  0  0  0
   -3.1400    1.7350  -18.7360 H   0  0  0  0  0  0  0  0  0  0  0  0
   -4.6500    0.5510  -17.2240 H   0  0  0  0  0  0  0  0  0  0  0  0
   -7.7400   -1.7800  -18.6350 H   0  0  0  0  0  0  0  0  0  0  0  0
   -8.1820   -0.6500  -22.1070 C   0  0  0  0  0  0  0  0  0  0  0  0
   -8.3060    0.5580  -22.0800 O   0  0  0  0  0  0  0  0  0  0  0  0
   -8.7530   -1.5940  -23.1740 C   0  0  1  0  0  0  0  0  0  0  0  0
   -7.9370   -1.3330  -24.4690 C   0  0  0  0  0  0  0  0  0  0  0  0
   -8.5550   -1.9400  -25.6460 N   0  0  0  0  0  0  0  0  0  0  0  0
   -7.7700   -2.4220  -26.7690 C   0  0  0  0  0  0  0  0  0  0  0  0
   -7.9170   -3.8810  -26.9290 C   0  0  0  0  0  0  0  0  0  0  0  0
   -8.0830   -5.0160  -27.0480 N   0  0  0  0  0  0  0  0  0  0  0  0
   -8.1580   -1.9540  -27.6780 H   0  0  0  0  0  0  0  0  0  0  0  0
   -6.7160   -2.1610  -26.6460 H   0  0  0  0  0  0  0  0  0  0  0  0
   -9.8930   -1.7760  -25.9140 C   0  0  0  0  0  0  0  0  0  0  0  0
  -10.3640   -1.9460  -27.0310 O   0  0  0  0  0  0  0  0  0  0  0  0
  -10.7420   -1.3970  -24.7590 C   0  0  0  0  0  0  0  0  0  0  0  0
  -12.0990   -1.1970  -25.0040 C   0  0  0  0  0  0  0  0  0  0  0  0
  -12.9660   -0.8920  -23.9770 C   0  0  0  0  0  0  0  0  0  0  0  0
  -12.4340   -0.8230  -22.6950 C   0  0  0  0  0  0  0  0  0  0  0  0
  -13.2730   -0.5820  -21.6810 F   0  0  0  0  0  0  0  0  0  0  0  0
  -11.0910   -1.0140  -22.4280 C   0  0  0  0  0  0  0  0  0  0  0  0
  -10.2110   -1.3030  -23.4720 C   0  0  0  0  0  0  0  0  0  0  0  0
  -10.7140   -0.9360  -21.4160 H   0  0  0  0  0  0  0  0  0  0  0  0
  -14.0230   -0.7200  -24.1550 H   0  0  0  0  0  0  0  0  0  0  0  0
  -12.4470   -1.3030  -26.0240 H   0  0  0  0  0  0  0  0  0  0  0  0
   -6.9140   -1.7160  -24.3600 H   0  0  0  0  0  0  0  0  0  0  0  0
   -7.8640   -0.2400  -24.6020 H   0  0  0  0  0  0  0  0  0  0  0  0
   -7.5530   -3.3980  -20.5820 H   0  0  0  0  0  0  0  0  0  0  0  0
   -6.4280   -3.0970  -21.9120 H   0  0  0  0  0  0  0  0  0  0  0  0
   -9.4600   -3.1710  -21.9010 H   0  0  0  0  0  0  0  0  0  0  0  0
   -7.4480   -4.0090  -24.0470 H   0  0  0  0  0  0  0  0  0  0  0  0
   -8.2550   -5.0990  -22.8960 H   0  0  0  0  0  0  0  0  0  0  0  0
   -9.2040   -4.2320  -24.1320 H   0  0  0  0  0  0  0  0  0  0  0  0
  1  2  1  0  0  0  0
  1 48  1  0  0  0  0
  1 49  1  0  0  0  0
  1 50  1  0  0  0  0
  2  3  1  0  0  0  0
  2 23  1  0  0  0  0
  2 47  1  1  0  0  0
  3  4  1  0  0  0  0
  3 45  1  0  0  0  0
  3 46  1  0  0  0  0
  4  5  1  0  0  0  0
  4 21  1  0  0  0  0
  5  6  2  0  0  0  0
  5 14  1  0  0  0  0
  6  7  1  0  0  0  0
  6 20  1  0  0  0  0
  7  8  2  0  0  0  0
  8  9  1  0  0  0  0
  8 19  1  0  0  0  0
  9 10  2  0  0  0  0
  9 14  1  0  0  0  0
 10 11  1  0  0  0  0
 10 18  1  0  0  0  0
 11 12  2  0  0  0  0
 11 17  1  0  0  0  0
 12 13  1  0  0  0  0
 12 16  1  0  0  0  0
 13 14  2  0  0  0  0
 13 15  1  0  0  0  0
 21 22  2  0  0  0  0
 23 21  1  1  0  0  0
 23 24  1  0  0  0  0
 23 39  1  0  0  0  0
 24 25  1  0  0  0  0
 24 43  1  0  0  0  0
 24 44  1  0  0  0  0
 25 26  1  0  0  0  0
 25 31  1  0  0  0  0
 26 27  1  0  0  0  0
 26 29  1  0  0  0  0
 26 30  1  0  0  0  0
 27 28  3  0  0  0  0
 31 32  2  0  0  0  0
 31 33  1  0  0  0  0
 33 34  2  0  0  0  0
 33 39  1  0  0  0  0
 34 35  1  0  0  0  0
 34 42  1  0  0  0  0
 35 36  2  0  0  0  0
 35 41  1  0  0  0  0
 36 37  1  0  0  0  0
 36 38  1  0  0  0  0
 38 39  2  0  0  0  0
 38 40  1  0  0  0  0
M  END
>  <MODEL>
       1

$$$$
