tmp_first_model_2_84.pdb
 OpenBabel08272517383D

 63 68  0  0  1  0  0  0  0  0999 V2000
  -10.1700   -2.9770  -22.1270 C   0  0  0  0  0  0  0  0  0  0  0  0
   -9.0840   -2.0430  -22.6790 C   0  0  1  0  0  0  0  0  0  0  0  0
   -8.6360   -1.0270  -21.6090 C   0  0  0  0  0  0  0  0  0  0  0  0
   -7.3390   -1.5000  -21.1880 N   0  0  0  0  0  0  0  0  0  0  0  0
   -6.5780   -0.8720  -20.1770 C   0  0  0  0  0  0  0  0  0  0  0  0
   -6.9330   -1.0480  -18.8670 C   0  0  0  0  0  0  0  0  0  0  0  0
   -6.2650   -0.5200  -17.8130 N   0  0  0  0  0  0  0  0  0  0  0  0
   -5.2170    0.2210  -18.0860 C   0  0  0  0  0  0  0  0  0  0  0  0
   -4.7610    0.5080  -19.4040 C   0  0  0  0  0  0  0  0  0  0  0  0
   -3.6340    1.3400  -19.6280 C   0  0  0  0  0  0  0  0  0  0  0  0
   -3.2410    1.6450  -20.9000 C   0  0  0  0  0  0  0  0  0  0  0  0
   -3.9560    1.1300  -22.0080 C   0  0  0  0  0  0  0  0  0  0  0  0
   -5.0410    0.3080  -21.8240 C   0  0  0  0  0  0  0  0  0  0  0  0
   -5.4640   -0.0360  -20.5030 C   0  0  0  0  0  0  0  0  0  0  0  0
   -5.5810   -0.0770  -22.6920 H   0  0  0  0  0  0  0  0  0  0  0  0
   -3.6390    1.3960  -23.0120 H   0  0  0  0  0  0  0  0  0  0  0  0
   -2.3870    2.2940  -21.0690 H   0  0  0  0  0  0  0  0  0  0  0  0
   -3.1130    1.7380  -18.7610 H   0  0  0  0  0  0  0  0  0  0  0  0
   -4.6680    0.6390  -17.2410 H   0  0  0  0  0  0  0  0  0  0  0  0
   -7.7960   -1.6680  -18.6260 H   0  0  0  0  0  0  0  0  0  0  0  0
   -6.8080   -2.5020  -21.9610 C   0  0  0  0  0  0  0  0  0  0  0  0
   -5.7570   -3.0630  -21.7240 O   0  0  0  0  0  0  0  0  0  0  0  0
   -7.7730   -2.7510  -23.1400 C   0  0  1  0  0  0  0  0  0  0  0  0
   -7.9310   -4.2720  -23.3470 C   0  0  0  0  0  0  0  0  0  0  0  0
   -6.6760   -4.8380  -23.8370 N   0  0  0  0  0  0  0  0  0  0  0  0
   -6.2710   -6.1510  -23.3480 C   0  0  0  0  0  0  0  0  0  0  0  0
   -7.0740   -7.2330  -24.0910 C   0  0  0  0  0  0  0  0  0  0  0  0
   -7.9700   -7.8770  -23.5820 O   0  0  0  0  0  0  0  0  0  0  0  0
   -6.6920   -7.3390  -25.3920 N   0  0  0  0  0  0  0  0  0  0  0  0
   -7.6130   -7.8220  -26.3800 C   0  0  0  0  0  0  0  0  0  0  0  0
   -8.5670   -6.7890  -26.8980 C   0  0  0  0  0  0  0  0  0  0  0  0
   -9.4400   -6.3320  -25.9380 F   0  0  0  0  0  0  0  0  0  0  0  0
   -8.1640   -5.7980  -27.9290 C   0  0  0  0  0  0  0  0  0  0  0  0
   -9.0800   -6.9540  -28.2810 C   0  0  0  0  0  0  0  0  0  0  0  0
  -10.1170   -6.7050  -28.4680 H   0  0  0  0  0  0  0  0  0  0  0  0
   -8.6770   -7.7750  -28.8660 H   0  0  0  0  0  0  0  0  0  0  0  0
   -8.6670   -4.8410  -27.8770 H   0  0  0  0  0  0  0  0  0  0  0  0
   -7.1330   -5.7760  -28.2740 H   0  0  0  0  0  0  0  0  0  0  0  0
   -7.0290   -8.1790  -27.2280 H   0  0  0  0  0  0  0  0  0  0  0  0
   -8.1830   -8.6450  -25.9520 H   0  0  0  0  0  0  0  0  0  0  0  0
   -6.0150   -6.6460  -25.7080 H   0  0  0  0  0  0  0  0  0  0  0  0
   -5.1910   -6.2690  -23.5060 H   0  0  0  0  0  0  0  0  0  0  0  0
   -6.4770   -6.2080  -22.2770 H   0  0  0  0  0  0  0  0  0  0  0  0
   -6.0870   -4.3370  -24.9570 C   0  0  0  0  0  0  0  0  0  0  0  0
   -5.2850   -4.9900  -25.6320 O   0  0  0  0  0  0  0  0  0  0  0  0
   -6.4370   -2.9340  -25.3090 C   0  0  0  0  0  0  0  0  0  0  0  0
   -5.9410   -2.4160  -26.5060 C   0  0  0  0  0  0  0  0  0  0  0  0
   -6.1550   -1.0950  -26.8350 C   0  0  0  0  0  0  0  0  0  0  0  0
   -6.8680   -0.3080  -25.9410 C   0  0  0  0  0  0  0  0  0  0  0  0
   -7.0750    0.9830  -26.2540 F   0  0  0  0  0  0  0  0  0  0  0  0
   -7.3810   -0.8040  -24.7570 C   0  0  0  0  0  0  0  0  0  0  0  0
   -7.2000   -2.1530  -24.4300 C   0  0  0  0  0  0  0  0  0  0  0  0
   -7.9350   -0.1200  -24.1260 H   0  0  0  0  0  0  0  0  0  0  0  0
   -5.7730   -0.6710  -27.7530 H   0  0  0  0  0  0  0  0  0  0  0  0
   -5.3830   -3.0790  -27.1600 H   0  0  0  0  0  0  0  0  0  0  0  0
   -8.7540   -4.4690  -24.0570 H   0  0  0  0  0  0  0  0  0  0  0  0
   -8.1670   -4.7680  -22.4030 H   0  0  0  0  0  0  0  0  0  0  0  0
   -8.5790   -0.0020  -21.9980 H   0  0  0  0  0  0  0  0  0  0  0  0
   -9.3250   -1.0040  -20.7650 H   0  0  0  0  0  0  0  0  0  0  0  0
   -9.5270   -1.5250  -23.5370 H   0  0  0  0  0  0  0  0  0  0  0  0
  -11.0380   -2.3930  -21.8050 H   0  0  0  0  0  0  0  0  0  0  0  0
  -10.5150   -3.6820  -22.8900 H   0  0  0  0  0  0  0  0  0  0  0  0
   -9.8140   -3.5530  -21.2650 H   0  0  0  0  0  0  0  0  0  0  0  0
  1  2  1  0  0  0  0
  1 61  1  0  0  0  0
  1 62  1  0  0  0  0
  1 63  1  0  0  0  0
  2  3  1  0  0  0  0
  2 23  1  0  0  0  0
  2 60  1  6  0  0  0
  3  4  1  0  0  0  0
  3 58  1  0  0  0  0
  3 59  1  0  0  0  0
  4  5  1  0  0  0  0
  4 21  1  0  0  0  0
  5  6  2  0  0  0  0
  5 14  1  0  0  0  0
  6  7  1  0  0  0  0
  6 20  1  0  0  0  0
  7  8  2  0  0  0  0
  8  9  1  0  0  0  0
  8 19  1  0  0  0  0
  9 10  2  0  0  0  0
  9 14  1  0  0  0  0
 10 11  1  0  0  0  0
 10 18  1  0  0  0  0
 11 12  2  0  0  0  0
 11 17  1  0  0  0  0
 12 13  1  0  0  0  0
 12 16  1  0  0  0  0
 13 14  2  0  0  0  0
 13 15  1  0  0  0  0
 21 22  2  0  0  0  0
 23 21  1  1  0  0  0
 23 24  1  0  0  0  0
 23 52  1  0  0  0  0
 24 25  1  0  0  0  0
 24 56  1  0  0  0  0
 24 57  1  0  0  0  0
 25 26  1  0  0  0  0
 25 44  1  0  0  0  0
 26 27  1  0  0  0  0
 26 42  1  0  0  0  0
 26 43  1  0  0  0  0
 27 28  2  0  0  0  0
 27 29  1  0  0  0  0
 29 30  1  0  0  0  0
 29 41  1  0  0  0  0
 30 31  1  0  0  0  0
 30 39  1  0  0  0  0
 30 40  1  0  0  0  0
 31 32  1  0  0  0  0
 31 33  1  0  0  0  0
 31 34  1  0  0  0  0
 33 34  1  0  0  0  0
 33 37  1  0  0  0  0
 33 38  1  0  0  0  0
 34 35  1  0  0  0  0
 34 36  1  0  0  0  0
 44 45  2  0  0  0  0
 44 46  1  0  0  0  0
 46 47  2  0  0  0  0
 46 52  1  0  0  0  0
 47 48  1  0  0  0  0
 47 55  1  0  0  0  0
 48 49  2  0  0  0  0
 48 54  1  0  0  0  0
 49 50  1  0  0  0  0
 49 51  1  0  0  0  0
 51 52  2  0  0  0  0
 51 53  1  0  0  0  0
M  END
>  <MODEL>
       1

$$$$
