tmp_first_model_7_35.pdb
 OpenBabel08272520323D

 40 42  0  0  0  0  0  0  0  0999 V2000
   -9.2490   -1.8440  -22.5890 O   0  0  0  0  0  0  0  0  0  0  0  0
   -8.3390   -1.0610  -22.3270 C   0  0  0  0  0  0  0  0  0  0  0  0
   -6.9910   -1.5810  -21.8380 C   0  0  0  0  0  0  0  0  0  0  0  0
   -6.3990   -0.8450  -20.6480 C   0  0  0  0  0  0  0  0  0  0  0  0
   -6.9860   -0.9770  -19.4110 C   0  0  0  0  0  0  0  0  0  0  0  0
   -6.4940   -0.4710  -18.2530 N   0  0  0  0  0  0  0  0  0  0  0  0
   -5.3880    0.2270  -18.3240 C   0  0  0  0  0  0  0  0  0  0  0  0
   -4.7000    0.5070  -19.5340 C   0  0  0  0  0  0  0  0  0  0  0  0
   -3.5700    1.3650  -19.5780 C   0  0  0  0  0  0  0  0  0  0  0  0
   -2.9920    1.7020  -20.7710 C   0  0  0  0  0  0  0  0  0  0  0  0
   -3.4900    1.1490  -21.9670 C   0  0  0  0  0  0  0  0  0  0  0  0
   -4.5410    0.2610  -21.9390 C   0  0  0  0  0  0  0  0  0  0  0  0
   -5.2080   -0.0550  -20.7300 C   0  0  0  0  0  0  0  0  0  0  0  0
   -4.8810   -0.1780  -22.8720 H   0  0  0  0  0  0  0  0  0  0  0  0
   -3.0480    1.4390  -22.9150 H   0  0  0  0  0  0  0  0  0  0  0  0
   -2.1730    2.4120  -20.8110 H   0  0  0  0  0  0  0  0  0  0  0  0
   -3.2040    1.7870  -18.6460 H   0  0  0  0  0  0  0  0  0  0  0  0
   -4.9900    0.6290  -17.3920 H   0  0  0  0  0  0  0  0  0  0  0  0
   -7.9120   -1.5450  -19.3090 H   0  0  0  0  0  0  0  0  0  0  0  0
   -7.1830   -2.6250  -21.5680 H   0  0  0  0  0  0  0  0  0  0  0  0
   -6.2760   -1.5990  -22.6650 H   0  0  0  0  0  0  0  0  0  0  0  0
   -8.4150    0.3110  -22.4130 N   0  0  0  0  0  0  0  0  0  0  0  0
   -9.5930    0.9540  -21.7750 C   0  0  0  0  0  0  0  0  0  0  0  0
   -9.5770    1.1070  -21.9590 C   0  0  0  0  0  0  0  0  0  0  0  0
   -9.2490    2.8790  -23.6680 C   0  0  0  0  0  0  0  0  0  0  0  0
   -8.4460    5.4280  -22.9600 C   0  0  0  0  0  0  0  0  0  0  0  0
   -7.5400    5.7470  -23.8630 F   0  0  0  0  0  0  0  0  0  0  0  0
   -9.2680    6.4290  -22.7380 F   0  0  0  0  0  0  0  0  0  0  0  0
   -7.8810    5.0330  -21.8400 F   0  0  0  0  0  0  0  0  0  0  0  0
   -7.9930    2.4510  -23.7250 C   0  0  0  0  0  0  0  0  0  0  0  0
   -7.4530    1.1560  -23.1910 C   0  0  0  0  0  0  0  0  0  0  0  0
   -7.0510    0.5550  -24.0110 H   0  0  0  0  0  0  0  0  0  0  0  0
   -6.6140    1.4060  -22.5320 H   0  0  0  0  0  0  0  0  0  0  0  0
  -10.0550    2.1780  -23.6140 H   0  0  0  0  0  0  0  0  0  0  0  0
   -7.2090    3.0690  -24.1490 H   0  0  0  0  0  0  0  0  0  0  0  0
   -9.4490    3.9500  -23.7100 H   0  0  0  0  0  0  0  0  0  0  0  0
  -10.4820    1.8800  -21.7020 H   0  0  0  0  0  0  0  0  0  0  0  0
   -8.8440    1.9500  -21.4600 H   0  0  0  0  0  0  0  0  0  0  0  0
   -9.8650    0.1530  -20.4540 H   0  0  0  0  0  0  0  0  0  0  0  0
  -10.3580    0.5790  -22.7340 H   0  0  0  0  0  0  0  0  0  0  0  0
  1  2  2  0  0  0  0
  2  3  1  0  0  0  0
  2 22  1  0  0  0  0
  3  4  1  0  0  0  0
  3 20  1  0  0  0  0
  3 21  1  0  0  0  0
  4  5  2  0  0  0  0
  4 13  1  0  0  0  0
  5  6  1  0  0  0  0
  5 19  1  0  0  0  0
  6  7  2  0  0  0  0
  7  8  1  0  0  0  0
  7 18  1  0  0  0  0
  8  9  2  0  0  0  0
  8 13  1  0  0  0  0
  9 10  1  0  0  0  0
  9 17  1  0  0  0  0
 10 11  2  0  0  0  0
 10 16  1  0  0  0  0
 11 12  1  0  0  0  0
 11 15  1  0  0  0  0
 12 13  2  0  0  0  0
 12 14  1  0  0  0  0
 22 23  1  0  0  0  0
 22 31  1  0  0  0  0
 23 24  1  0  0  0  0
 23 39  1  0  0  0  0
 23 40  1  0  0  0  0
 24 25  1  0  0  0  0
 24 37  1  0  0  0  0
 24 38  1  0  0  0  0
 25 26  1  0  0  0  0
 25 30  1  0  0  0  0
 25 36  1  0  0  0  0
 26 27  1  0  0  0  0
 26 28  1  0  0  0  0
 26 29  1  0  0  0  0
 30 31  1  0  0  0  0
 30 34  1  0  0  0  0
 30 35  1  0  0  0  0
 31 32  1  0  0  0  0
 31 33  1  0  0  0  0
M  END
>  <MODEL>
       1

$$$$
