tmp_first_model_1_14.pdb
 OpenBabel08272517043D

 73 78  0  0  1  0  0  0  0  0999 V2000
   -7.3560   -4.8750  -22.9610 C   0  0  0  0  0  0  0  0  0  0  0  0
   -7.5220   -3.5530  -22.2140 C   0  0  1  0  0  0  0  0  0  0  0  0
   -6.3970   -3.2100  -21.2220 C   0  0  0  0  0  0  0  0  0  0  0  0
   -6.5470   -1.7730  -21.0370 N   0  0  0  0  0  0  0  0  0  0  0  0
   -5.9960   -1.0530  -19.9460 C   0  0  0  0  0  0  0  0  0  0  0  0
   -6.3730   -1.3530  -18.6620 C   0  0  0  0  0  0  0  0  0  0  0  0
   -5.8940   -0.7440  -17.5510 N   0  0  0  0  0  0  0  0  0  0  0  0
   -4.9870    0.1900  -17.7130 C   0  0  0  0  0  0  0  0  0  0  0  0
   -4.4660    0.5760  -18.9780 C   0  0  0  0  0  0  0  0  0  0  0  0
   -3.4410    1.5550  -19.1030 C   0  0  0  0  0  0  0  0  0  0  0  0
   -2.9870    1.9280  -20.3380 C   0  0  0  0  0  0  0  0  0  0  0  0
   -3.5390    1.3430  -21.5010 C   0  0  0  0  0  0  0  0  0  0  0  0
   -4.5170    0.3870  -21.4050 C   0  0  0  0  0  0  0  0  0  0  0  0
   -5.0030   -0.0340  -20.1360 C   0  0  0  0  0  0  0  0  0  0  0  0
   -4.9460   -0.0440  -22.3050 H   0  0  0  0  0  0  0  0  0  0  0  0
   -3.1850    1.6580  -22.4800 H   0  0  0  0  0  0  0  0  0  0  0  0
   -2.2110    2.6830  -20.4320 H   0  0  0  0  0  0  0  0  0  0  0  0
   -3.0310    1.9970  -18.1970 H   0  0  0  0  0  0  0  0  0  0  0  0
   -4.6220    0.6850  -16.8140 H   0  0  0  0  0  0  0  0  0  0  0  0
   -7.1230   -2.1230  -18.4890 H   0  0  0  0  0  0  0  0  0  0  0  0
   -7.3690   -1.2000  -21.9920 C   0  0  0  0  0  0  0  0  0  0  0  0
   -7.7890   -0.0660  -21.9740 O   0  0  0  0  0  0  0  0  0  0  0  0
   -7.6420   -2.2690  -23.0810 C   0  0  1  0  0  0  0  0  0  0  0  0
   -6.5340   -2.1790  -24.1820 C   0  0  0  0  0  0  0  0  0  0  0  0
   -6.6590   -1.0170  -25.0590 N   0  0  0  0  0  0  0  0  0  0  0  0
   -5.5510   -0.0780  -25.2530 C   0  0  0  0  0  0  0  0  0  0  0  0
   -5.1560    0.1270  -26.7310 C   0  0  0  0  0  0  0  0  0  0  0  0
   -4.0100    1.0810  -26.9060 N   0  3  0  0  0  0  0  0  0  0  0  0
   -2.6750    0.4690  -26.5270 C   0  0  0  0  0  0  0  0  0  0  0  0
   -1.6270    1.5530  -26.3120 C   0  0  0  0  0  0  0  0  0  0  0  0
   -1.8660    2.6500  -27.2620 N   0  0  0  0  0  0  0  0  0  0  0  0
   -0.4990    3.5260  -27.6830 S   0  0  0  0  0  0  0  0  0  0  0  0
   -0.4980    4.7900  -26.9680 O   0  0  0  0  0  0  0  0  0  0  0  0
    0.6410    2.6260  -27.5840 O   0  0  0  0  0  0  0  0  0  0  0  0
   -0.7450    3.8450  -29.4210 C   0  0  0  0  0  0  0  0  0  0  0  0
   -1.0670    2.9100  -29.8910 H   0  0  0  0  0  0  0  0  0  0  0  0
    0.2330    4.1440  -29.8130 H   0  0  0  0  0  0  0  0  0  0  0  0
   -1.4750    4.6480  -29.5660 H   0  0  0  0  0  0  0  0  0  0  0  0
   -3.1080    3.4090  -26.9960 C   0  0  0  0  0  0  0  0  0  0  0  0
   -4.1590    2.4850  -26.3460 C   0  0  0  0  0  0  0  0  0  0  0  0
   -4.0190    2.4550  -25.2610 H   0  0  0  0  0  0  0  0  0  0  0  0
   -5.1710    2.8480  -26.5460 H   0  0  0  0  0  0  0  0  0  0  0  0
   -2.8980    4.2580  -26.3370 H   0  0  0  0  0  0  0  0  0  0  0  0
   -3.4850    3.8040  -27.9490 H   0  0  0  0  0  0  0  0  0  0  0  0
   -1.6570    1.9160  -25.2720 H   0  0  0  0  0  0  0  0  0  0  0  0
   -0.6350    1.1490  -26.5030 H   0  0  0  0  0  0  0  0  0  0  0  0
   -2.3810   -0.2060  -27.3340 H   0  0  0  0  0  0  0  0  0  0  0  0
   -2.7900   -0.1180  -25.6160 H   0  0  0  0  0  0  0  0  0  0  0  0
   -3.9380    1.2490  -27.9250 H   0  0  0  0  0  0  0  0  0  0  0  0
   -6.0150    0.4970  -27.2930 H   0  0  0  0  0  0  0  0  0  0  0  0
   -4.8710   -0.8410  -27.1710 H   0  0  0  0  0  0  0  0  0  0  0  0
   -4.6980   -0.4820  -24.6930 H   0  0  0  0  0  0  0  0  0  0  0  0
   -5.8210    0.8900  -24.8010 H   0  0  0  0  0  0  0  0  0  0  0  0
   -7.8780   -0.6930  -25.5760 C   0  0  0  0  0  0  0  0  0  0  0  0
   -8.0320    0.0070  -26.5720 O   0  0  0  0  0  0  0  0  0  0  0  0
   -9.0750   -1.1820  -24.8270 C   0  0  0  0  0  0  0  0  0  0  0  0
  -10.2820   -0.6120  -25.2110 C   0  0  0  0  0  0  0  0  0  0  0  0
  -11.4260   -0.8740  -24.5020 C   0  0  0  0  0  0  0  0  0  0  0  0
  -11.3760   -1.8270  -23.4840 C   0  0  0  0  0  0  0  0  0  0  0  0
  -12.8470   -2.2560  -22.6530 Cl  0  0  0  0  0  0  0  0  0  0  0  0
  -10.1830   -2.3980  -23.0810 C   0  0  0  0  0  0  0  0  0  0  0  0
   -8.9870   -2.0190  -23.7120 C   0  0  0  0  0  0  0  0  0  0  0  0
  -10.2240   -3.0900  -22.2470 H   0  0  0  0  0  0  0  0  0  0  0  0
  -12.3260   -0.3060  -24.7050 H   0  0  0  0  0  0  0  0  0  0  0  0
  -10.2610    0.0670  -26.0520 H   0  0  0  0  0  0  0  0  0  0  0  0
   -5.5520   -2.1540  -23.6990 H   0  0  0  0  0  0  0  0  0  0  0  0
   -6.5890   -3.0850  -24.7970 H   0  0  0  0  0  0  0  0  0  0  0  0
   -6.4920   -3.7290  -20.2640 H   0  0  0  0  0  0  0  0  0  0  0  0
   -5.4110   -3.4700  -21.6380 H   0  0  0  0  0  0  0  0  0  0  0  0
   -8.4390   -3.6120  -21.6150 H   0  0  0  0  0  0  0  0  0  0  0  0
   -8.1880   -5.0460  -23.6560 H   0  0  0  0  0  0  0  0  0  0  0  0
   -6.4290   -4.8890  -23.5480 H   0  0  0  0  0  0  0  0  0  0  0  0
   -7.3240   -5.7270  -22.2700 H   0  0  0  0  0  0  0  0  0  0  0  0
  1  2  1  0  0  0  0
  1 71  1  0  0  0  0
  1 72  1  0  0  0  0
  1 73  1  0  0  0  0
  2  3  1  0  0  0  0
  2 23  1  0  0  0  0
  2 70  1  1  0  0  0
  3  4  1  0  0  0  0
  3 68  1  0  0  0  0
  3 69  1  0  0  0  0
  4  5  1  0  0  0  0
  4 21  1  0  0  0  0
  5  6  2  0  0  0  0
  5 14  1  0  0  0  0
  6  7  1  0  0  0  0
  6 20  1  0  0  0  0
  7  8  2  0  0  0  0
  8  9  1  0  0  0  0
  8 19  1  0  0  0  0
  9 10  2  0  0  0  0
  9 14  1  0  0  0  0
 10 11  1  0  0  0  0
 10 18  1  0  0  0  0
 11 12  2  0  0  0  0
 11 17  1  0  0  0  0
 12 13  1  0  0  0  0
 12 16  1  0  0  0  0
 13 14  2  0  0  0  0
 13 15  1  0  0  0  0
 21 22  2  0  0  0  0
 23 21  1  1  0  0  0
 23 24  1  0  0  0  0
 23 62  1  0  0  0  0
 24 25  1  0  0  0  0
 24 66  1  0  0  0  0
 24 67  1  0  0  0  0
 25 26  1  0  0  0  0
 25 54  1  0  0  0  0
 26 27  1  0  0  0  0
 26 52  1  0  0  0  0
 26 53  1  0  0  0  0
 27 28  1  0  0  0  0
 27 50  1  0  0  0  0
 27 51  1  0  0  0  0
 28 29  1  0  0  0  0
 28 40  1  0  0  0  0
 28 49  1  0  0  0  0
 29 30  1  0  0  0  0
 29 47  1  0  0  0  0
 29 48  1  0  0  0  0
 30 31  1  0  0  0  0
 30 45  1  0  0  0  0
 30 46  1  0  0  0  0
 31 32  1  0  0  0  0
 31 39  1  0  0  0  0
 32 33  2  0  0  0  0
 32 34  2  0  0  0  0
 32 35  1  0  0  0  0
 35 36  1  0  0  0  0
 35 37  1  0  0  0  0
 35 38  1  0  0  0  0
 39 40  1  0  0  0  0
 39 43  1  0  0  0  0
 39 44  1  0  0  0  0
 40 41  1  0  0  0  0
 40 42  1  0  0  0  0
 54 55  2  0  0  0  0
 54 56  1  0  0  0  0
 56 57  2  0  0  0  0
 56 62  1  0  0  0  0
 57 58  1  0  0  0  0
 57 65  1  0  0  0  0
 58 59  2  0  0  0  0
 58 64  1  0  0  0  0
 59 60  1  0  0  0  0
 59 61  1  0  0  0  0
 61 62  2  0  0  0  0
 61 63  1  0  0  0  0
M  CHG  1  28   1
M  END
>  <MODEL>
       1

$$$$
