tmp_first_model_16_91.pdb
 OpenBabel08282501503D

 66 71  0  0  1  0  0  0  0  0999 V2000
   -5.2240   -4.0020  -19.4370 C   0  0  0  0  0  0  0  0  0  0  0  0
   -6.3010   -4.6540  -20.1490 N   0  0  0  0  0  0  0  0  0  0  0  0
   -6.2240   -5.8950  -20.6830 C   0  0  0  0  0  0  0  0  0  0  0  0
   -5.2780   -6.6440  -20.5150 O   0  0  0  0  0  0  0  0  0  0  0  0
   -7.4690   -6.2840  -21.4960 C   0  0  0  0  0  0  0  0  0  0  0  0
   -7.7630   -5.3440  -22.5660 N   0  0  0  0  0  0  0  0  0  0  0  0
   -8.6590   -4.2060  -22.4110 C   0  0  0  0  0  0  0  0  0  0  0  0
   -8.0780   -2.9090  -23.0460 C   0  0  2  0  0  0  0  0  0  0  0  0
   -6.8980   -2.3780  -22.2000 C   0  0  0  0  0  0  0  0  0  0  0  0
   -5.7430   -2.7670  -22.2260 O   0  0  0  0  0  0  0  0  0  0  0  0
   -7.3660   -1.4050  -21.3440 N   0  0  0  0  0  0  0  0  0  0  0  0
   -6.5890   -0.9170  -20.2740 C   0  0  0  0  0  0  0  0  0  0  0  0
   -6.9540   -1.1840  -18.9750 C   0  0  0  0  0  0  0  0  0  0  0  0
   -6.1980   -0.8780  -17.8970 N   0  0  0  0  0  0  0  0  0  0  0  0
   -5.0790   -0.2180  -18.1080 C   0  0  0  0  0  0  0  0  0  0  0  0
   -4.6590    0.2400  -19.3900 C   0  0  0  0  0  0  0  0  0  0  0  0
   -3.5430    1.1040  -19.5490 C   0  0  0  0  0  0  0  0  0  0  0  0
   -3.1890    1.5710  -20.7870 C   0  0  0  0  0  0  0  0  0  0  0  0
   -3.9120    1.1630  -21.9280 C   0  0  0  0  0  0  0  0  0  0  0  0
   -4.9920    0.3260  -21.8040 C   0  0  0  0  0  0  0  0  0  0  0  0
   -5.4140   -0.1330  -20.5220 C   0  0  0  0  0  0  0  0  0  0  0  0
   -5.5300    0.0090  -22.6910 H   0  0  0  0  0  0  0  0  0  0  0  0
   -3.6070    1.5220  -22.9070 H   0  0  0  0  0  0  0  0  0  0  0  0
   -2.3590    2.2620  -20.9000 H   0  0  0  0  0  0  0  0  0  0  0  0
   -3.0020    1.4160  -18.6600 H   0  0  0  0  0  0  0  0  0  0  0  0
   -4.4490   -0.0220  -17.2420 H   0  0  0  0  0  0  0  0  0  0  0  0
   -7.8650   -1.7440  -18.7580 H   0  0  0  0  0  0  0  0  0  0  0  0
   -8.7960   -1.1670  -21.4860 C   0  0  0  0  0  0  0  0  0  0  0  0
   -9.0440   -1.7000  -22.9020 C   0  0  2  0  0  0  0  0  0  0  0  0
  -10.5130   -1.9290  -23.2640 C   0  0  0  0  0  0  0  0  0  0  0  0
  -11.2850   -0.7110  -23.4110 N   0  0  0  0  0  0  0  0  0  0  0  0
  -11.0670    0.1380  -24.4600 C   0  0  0  0  0  0  0  0  0  0  0  0
  -11.7760    1.3630  -24.5450 C   0  0  0  0  0  0  0  0  0  0  0  0
  -11.6460    2.1760  -25.5720 N   0  0  0  0  0  0  0  0  0  0  0  0
  -10.7890    1.7950  -26.5360 C   0  0  0  0  0  0  0  0  0  0  0  0
  -10.0810    0.6100  -26.4510 C   0  0  0  0  0  0  0  0  0  0  0  0
  -10.2190   -0.2330  -25.4160 N   0  0  0  0  0  0  0  0  0  0  0  0
   -9.3810    0.3120  -27.2320 H   0  0  0  0  0  0  0  0  0  0  0  0
  -10.6800    2.4570  -27.3890 H   0  0  0  0  0  0  0  0  0  0  0  0
  -12.4860    1.6380  -23.7660 H   0  0  0  0  0  0  0  0  0  0  0  0
  -11.6350   -0.2830  -22.5670 H   0  0  0  0  0  0  0  0  0  0  0  0
  -10.5540   -2.4710  -24.2130 H   0  0  0  0  0  0  0  0  0  0  0  0
  -11.0110   -2.5460  -22.5070 H   0  0  0  0  0  0  0  0  0  0  0  0
   -8.6400   -0.9500  -23.5860 H   0  0  0  0  0  0  0  0  0  0  0  0
   -9.3900   -1.7140  -20.7340 H   0  0  0  0  0  0  0  0  0  0  0  0
   -9.0050   -0.0960  -21.4000 H   0  0  0  0  0  0  0  0  0  0  0  0
   -7.6160   -3.2220  -24.4550 C   0  0  0  0  0  0  0  0  0  0  0  0
   -7.4480   -2.2090  -25.4170 C   0  0  0  0  0  0  0  0  0  0  0  0
   -6.8730   -2.5100  -26.6400 C   0  0  0  0  0  0  0  0  0  0  0  0
   -6.6220   -1.2400  -27.8080 Cl  0  0  0  0  0  0  0  0  0  0  0  0
   -6.4670   -3.8020  -26.9680 C   0  0  0  0  0  0  0  0  0  0  0  0
   -6.6570   -4.8030  -26.0390 C   0  0  0  0  0  0  0  0  0  0  0  0
   -7.2130   -4.5230  -24.7920 C   0  0  0  0  0  0  0  0  0  0  0  0
   -7.2570   -5.6540  -23.8020 C   0  0  0  0  0  0  0  0  0  0  0  0
   -6.8260   -6.7660  -24.0700 O   0  0  0  0  0  0  0  0  0  0  0  0
   -6.3610   -5.8250  -26.2440 H   0  0  0  0  0  0  0  0  0  0  0  0
   -5.9950   -4.0010  -27.9250 H   0  0  0  0  0  0  0  0  0  0  0  0
   -7.7560   -1.1820  -25.2470 H   0  0  0  0  0  0  0  0  0  0  0  0
   -9.6230   -4.4360  -22.8870 H   0  0  0  0  0  0  0  0  0  0  0  0
   -8.8710   -4.0350  -21.3540 H   0  0  0  0  0  0  0  0  0  0  0  0
   -8.3370   -6.3770  -20.8400 H   0  0  0  0  0  0  0  0  0  0  0  0
   -7.2730   -7.2590  -21.9370 H   0  0  0  0  0  0  0  0  0  0  0  0
   -7.0180   -4.0550  -20.5140 H   0  0  0  0  0  0  0  0  0  0  0  0
   -4.7150   -3.2840  -20.0940 H   0  0  0  0  0  0  0  0  0  0  0  0
   -5.6240   -3.4660  -18.5640 H   0  0  0  0  0  0  0  0  0  0  0  0
   -4.5380   -4.7810  -19.1150 H   0  0  0  0  0  0  0  0  0  0  0  0
  1  2  1  0  0  0  0
  1 64  1  0  0  0  0
  1 65  1  0  0  0  0
  1 66  1  0  0  0  0
  2  3  1  0  0  0  0
  2 63  1  0  0  0  0
  3  4  2  0  0  0  0
  3  5  1  0  0  0  0
  5  6  1  0  0  0  0
  5 61  1  0  0  0  0
  5 62  1  0  0  0  0
  6  7  1  0  0  0  0
  6 54  1  0  0  0  0
  7  8  1  0  0  0  0
  7 59  1  0  0  0  0
  7 60  1  0  0  0  0
  8  9  1  1  0  0  0
  8 29  1  0  0  0  0
  8 47  1  0  0  0  0
  9 10  2  0  0  0  0
  9 11  1  0  0  0  0
 11 12  1  0  0  0  0
 11 28  1  0  0  0  0
 12 13  2  0  0  0  0
 12 21  1  0  0  0  0
 13 14  1  0  0  0  0
 13 27  1  0  0  0  0
 14 15  2  0  0  0  0
 15 16  1  0  0  0  0
 15 26  1  0  0  0  0
 16 17  2  0  0  0  0
 16 21  1  0  0  0  0
 17 18  1  0  0  0  0
 17 25  1  0  0  0  0
 18 19  2  0  0  0  0
 18 24  1  0  0  0  0
 19 20  1  0  0  0  0
 19 23  1  0  0  0  0
 20 21  2  0  0  0  0
 20 22  1  0  0  0  0
 28 29  1  0  0  0  0
 28 45  1  0  0  0  0
 28 46  1  0  0  0  0
 29 30  1  0  0  0  0
 29 44  1  6  0  0  0
 30 31  1  0  0  0  0
 30 42  1  0  0  0  0
 30 43  1  0  0  0  0
 31 32  1  0  0  0  0
 31 41  1  0  0  0  0
 32 33  2  0  0  0  0
 32 37  1  0  0  0  0
 33 34  1  0  0  0  0
 33 40  1  0  0  0  0
 34 35  2  0  0  0  0
 35 36  1  0  0  0  0
 35 39  1  0  0  0  0
 36 37  2  0  0  0  0
 36 38  1  0  0  0  0
 47 48  2  0  0  0  0
 47 53  1  0  0  0  0
 48 49  1  0  0  0  0
 48 58  1  0  0  0  0
 49 50  1  0  0  0  0
 49 51  2  0  0  0  0
 51 52  1  0  0  0  0
 51 57  1  0  0  0  0
 52 53  2  0  0  0  0
 52 56  1  0  0  0  0
 53 54  1  0  0  0  0
 54 55  2  0  0  0  0
M  END
>  <MODEL>
       1

$$$$
