tmp_first_model_16_89.pdb
 OpenBabel08282501503D

 43 45  0  0  0  0  0  0  0  0999 V2000
  -13.0090   -1.4680  -24.7600 C   0  0  0  0  0  0  0  0  0  0  0  0
  -12.2370   -1.9750  -23.5460 C   0  0  0  0  0  0  0  0  0  0  0  0
  -13.0260   -3.1120  -22.8860 C   0  0  0  0  0  0  0  0  0  0  0  0
  -13.2080   -3.9240  -23.6010 H   0  0  0  0  0  0  0  0  0  0  0  0
  -12.4900   -3.5320  -22.0280 H   0  0  0  0  0  0  0  0  0  0  0  0
  -14.0000   -2.7530  -22.5290 H   0  0  0  0  0  0  0  0  0  0  0  0
  -10.8330   -2.4500  -23.9730 C   0  0  0  0  0  0  0  0  0  0  0  0
   -9.7890   -2.3460  -22.8550 C   0  0  0  0  0  0  0  0  0  0  0  0
   -9.6460   -0.9570  -22.4150 N   0  0  0  0  0  0  0  0  0  0  0  0
   -8.5550   -0.4280  -21.7880 C   0  0  0  0  0  0  0  0  0  0  0  0
   -8.4340    0.7670  -21.5920 O   0  0  0  0  0  0  0  0  0  0  0  0
   -7.4930   -1.4180  -21.2980 C   0  0  0  0  0  0  0  0  0  0  0  0
   -6.6220   -0.8500  -20.2140 C   0  0  0  0  0  0  0  0  0  0  0  0
   -6.9160   -1.1150  -18.9020 C   0  0  0  0  0  0  0  0  0  0  0  0
   -6.1520   -0.7640  -17.8340 N   0  0  0  0  0  0  0  0  0  0  0  0
   -5.0880   -0.0390  -18.0860 C   0  0  0  0  0  0  0  0  0  0  0  0
   -4.7180    0.4070  -19.3880 C   0  0  0  0  0  0  0  0  0  0  0  0
   -3.6190    1.2810  -19.6030 C   0  0  0  0  0  0  0  0  0  0  0  0
   -3.2480    1.6230  -20.8740 C   0  0  0  0  0  0  0  0  0  0  0  0
   -3.9630    1.1250  -21.9850 C   0  0  0  0  0  0  0  0  0  0  0  0
   -5.0650    0.3230  -21.7990 C   0  0  0  0  0  0  0  0  0  0  0  0
   -5.4820   -0.0400  -20.4890 C   0  0  0  0  0  0  0  0  0  0  0  0
   -5.6230   -0.0310  -22.6570 H   0  0  0  0  0  0  0  0  0  0  0  0
   -3.6320    1.3760  -22.9890 H   0  0  0  0  0  0  0  0  0  0  0  0
   -2.3940    2.2760  -21.0420 H   0  0  0  0  0  0  0  0  0  0  0  0
   -3.1010    1.6900  -18.7380 H   0  0  0  0  0  0  0  0  0  0  0  0
   -4.4520    0.2450  -17.2450 H   0  0  0  0  0  0  0  0  0  0  0  0
   -7.8280   -1.6680  -18.6680 H   0  0  0  0  0  0  0  0  0  0  0  0
   -8.0150   -2.2980  -20.9050 H   0  0  0  0  0  0  0  0  0  0  0  0
   -6.8970   -1.7640  -22.1530 H   0  0  0  0  0  0  0  0  0  0  0  0
  -10.7520   -0.0500  -22.6970 C   0  0  0  0  0  0  0  0  0  0  0  0
  -12.0660   -0.8070  -22.5510 C   0  0  0  0  0  0  0  0  0  0  0  0
  -12.9190   -0.1200  -22.5980 H   0  0  0  0  0  0  0  0  0  0  0  0
  -12.0470   -1.2540  -21.5650 H   0  0  0  0  0  0  0  0  0  0  0  0
  -10.6750    0.7730  -21.9850 H   0  0  0  0  0  0  0  0  0  0  0  0
  -10.6190    0.3860  -23.6960 H   0  0  0  0  0  0  0  0  0  0  0  0
   -8.8240   -2.6970  -23.2360 H   0  0  0  0  0  0  0  0  0  0  0  0
  -10.0670   -2.9960  -22.0120 H   0  0  0  0  0  0  0  0  0  0  0  0
  -10.8810   -3.4780  -24.3550 H   0  0  0  0  0  0  0  0  0  0  0  0
  -10.4890   -1.8090  -24.7930 H   0  0  0  0  0  0  0  0  0  0  0  0
  -14.0300   -1.1860  -24.4830 H   0  0  0  0  0  0  0  0  0  0  0  0
  -12.5080   -0.5800  -25.1380 H   0  0  0  0  0  0  0  0  0  0  0  0
  -13.0710   -2.2080  -25.5640 H   0  0  0  0  0  0  0  0  0  0  0  0
  1  2  1  0  0  0  0
  1 41  1  0  0  0  0
  1 42  1  0  0  0  0
  1 43  1  0  0  0  0
  2  3  1  0  0  0  0
  2  7  1  0  0  0  0
  2 32  1  0  0  0  0
  3  4  1  0  0  0  0
  3  5  1  0  0  0  0
  3  6  1  0  0  0  0
  7  8  1  0  0  0  0
  7 39  1  0  0  0  0
  7 40  1  0  0  0  0
  8  9  1  0  0  0  0
  8 37  1  0  0  0  0
  8 38  1  0  0  0  0
  9 10  1  0  0  0  0
  9 31  1  0  0  0  0
 10 11  2  0  0  0  0
 10 12  1  0  0  0  0
 12 13  1  0  0  0  0
 12 29  1  0  0  0  0
 12 30  1  0  0  0  0
 13 14  2  0  0  0  0
 13 22  1  0  0  0  0
 14 15  1  0  0  0  0
 14 28  1  0  0  0  0
 15 16  2  0  0  0  0
 16 17  1  0  0  0  0
 16 27  1  0  0  0  0
 17 18  2  0  0  0  0
 17 22  1  0  0  0  0
 18 19  1  0  0  0  0
 18 26  1  0  0  0  0
 19 20  2  0  0  0  0
 19 25  1  0  0  0  0
 20 21  1  0  0  0  0
 20 24  1  0  0  0  0
 21 22  2  0  0  0  0
 21 23  1  0  0  0  0
 31 32  1  0  0  0  0
 31 35  1  0  0  0  0
 31 36  1  0  0  0  0
 32 33  1  0  0  0  0
 32 34  1  0  0  0  0
M  END
>  <MODEL>
       1

$$$$
