tmp_first_model_8_97.pdb
 OpenBabel08272521063D

 40 43  0  0  1  0  0  0  0  0999 V2000
  -12.5580   -1.4490  -23.7770 C   0  0  0  0  0  0  0  0  0  0  0  0
  -11.1650   -0.8780  -23.5450 C   0  0  2  0  0  0  0  0  0  0  0  0
  -10.7050   -0.0520  -24.7410 C   0  0  0  0  0  0  0  0  0  0  0  0
   -9.4100    0.4700  -24.5560 O   0  0  0  0  0  0  0  0  0  0  0  0
   -8.4560   -0.5560  -24.4620 C   0  0  0  0  0  0  0  0  0  0  0  0
   -8.7010   -1.4530  -23.2360 C   0  0  1  0  0  0  0  0  0  0  0  0
  -10.1450   -1.9770  -23.2670 C   0  0  0  0  0  0  0  0  0  0  0  0
  -10.3610   -2.4730  -22.3160 H   0  0  0  0  0  0  0  0  0  0  0  0
  -10.2150   -2.7530  -24.0440 H   0  0  0  0  0  0  0  0  0  0  0  0
   -7.7350   -2.5220  -23.1550 N   0  0  0  0  0  0  0  0  0  0  0  0
   -6.9420   -2.5240  -22.0380 C   0  0  0  0  0  0  0  0  0  0  0  0
   -6.0460   -3.2840  -21.7540 O   0  0  0  0  0  0  0  0  0  0  0  0
   -7.3760   -1.4200  -21.2650 N   0  0  0  0  0  0  0  0  0  0  0  0
   -6.5900   -0.8430  -20.2060 C   0  0  0  0  0  0  0  0  0  0  0  0
   -6.8940   -1.0550  -18.8830 C   0  0  0  0  0  0  0  0  0  0  0  0
   -6.1960   -0.5480  -17.8270 N   0  0  0  0  0  0  0  0  0  0  0  0
   -5.1600    0.2190  -18.0700 C   0  0  0  0  0  0  0  0  0  0  0  0
   -4.7250    0.5320  -19.3900 C   0  0  0  0  0  0  0  0  0  0  0  0
   -3.5960    1.3660  -19.6270 C   0  0  0  0  0  0  0  0  0  0  0  0
   -3.2160    1.6570  -20.9110 C   0  0  0  0  0  0  0  0  0  0  0  0
   -3.9500    1.1400  -21.9990 C   0  0  0  0  0  0  0  0  0  0  0  0
   -5.0270    0.3170  -21.7930 C   0  0  0  0  0  0  0  0  0  0  0  0
   -5.4530   -0.0060  -20.4790 C   0  0  0  0  0  0  0  0  0  0  0  0
   -5.5690   -0.0910  -22.6380 H   0  0  0  0  0  0  0  0  0  0  0  0
   -3.6260    1.3520  -23.0130 H   0  0  0  0  0  0  0  0  0  0  0  0
   -2.3540    2.2870  -21.1050 H   0  0  0  0  0  0  0  0  0  0  0  0
   -3.0500    1.7800  -18.7820 H   0  0  0  0  0  0  0  0  0  0  0  0
   -4.6020    0.6270  -17.2190 H   0  0  0  0  0  0  0  0  0  0  0  0
   -7.7410   -1.6760  -18.6090 H   0  0  0  0  0  0  0  0  0  0  0  0
   -8.3860   -0.7050  -21.9380 C   0  0  0  0  0  0  0  0  0  0  0  0
   -8.8830    0.3150  -21.5360 O   0  0  0  0  0  0  0  0  0  0  0  0
   -7.6170   -3.2120  -23.8770 H   0  0  0  0  0  0  0  0  0  0  0  0
   -7.4700   -0.0870  -24.3800 H   0  0  0  0  0  0  0  0  0  0  0  0
   -8.4650   -1.1640  -25.3830 H   0  0  0  0  0  0  0  0  0  0  0  0
  -10.7240   -0.6580  -25.6630 H   0  0  0  0  0  0  0  0  0  0  0  0
  -11.3670    0.8070  -24.8910 H   0  0  0  0  0  0  0  0  0  0  0  0
  -11.1940   -0.2080  -22.6800 H   0  0  0  0  0  0  0  0  0  0  0  0
  -12.8900   -2.0300  -22.9120 H   0  0  0  0  0  0  0  0  0  0  0  0
  -13.2890   -0.6520  -23.9470 H   0  0  0  0  0  0  0  0  0  0  0  0
  -12.5720   -2.1100  -24.6510 H   0  0  0  0  0  0  0  0  0  0  0  0
  1  2  1  0  0  0  0
  1 38  1  0  0  0  0
  1 39  1  0  0  0  0
  1 40  1  0  0  0  0
  2  3  1  0  0  0  0
  2  7  1  0  0  0  0
  2 37  1  1  0  0  0
  3  4  1  0  0  0  0
  3 35  1  0  0  0  0
  3 36  1  0  0  0  0
  4  5  1  0  0  0  0
  5  6  1  0  0  0  0
  5 33  1  0  0  0  0
  5 34  1  0  0  0  0
  6  7  1  0  0  0  0
  6 10  1  0  0  0  0
  6 30  1  1  0  0  0
  7  8  1  0  0  0  0
  7  9  1  0  0  0  0
 10 11  1  0  0  0  0
 10 32  1  0  0  0  0
 11 12  2  0  0  0  0
 11 13  1  0  0  0  0
 13 14  1  0  0  0  0
 13 30  1  0  0  0  0
 14 15  2  0  0  0  0
 14 23  1  0  0  0  0
 15 16  1  0  0  0  0
 15 29  1  0  0  0  0
 16 17  2  0  0  0  0
 17 18  1  0  0  0  0
 17 28  1  0  0  0  0
 18 19  2  0  0  0  0
 18 23  1  0  0  0  0
 19 20  1  0  0  0  0
 19 27  1  0  0  0  0
 20 21  2  0  0  0  0
 20 26  1  0  0  0  0
 21 22  1  0  0  0  0
 21 25  1  0  0  0  0
 22 23  2  0  0  0  0
 22 24  1  0  0  0  0
 30 31  2  0  0  0  0
M  END
>  <MODEL>
       1

$$$$
