tmp_first_model_5_93.pdb
 OpenBabel08272519233D

 62 67  0  0  1  0  0  0  0  0999 V2000
  -10.4900    5.1900  -24.3830 C   0  0  0  0  0  0  0  0  0  0  0  0
  -10.1850    4.0320  -23.4330 C   0  0  0  0  0  0  0  0  0  0  0  0
   -8.8320    3.5090  -23.5860 N   0  0  0  0  0  0  0  0  0  0  0  0
   -7.8160    4.1290  -22.9540 N   0  0  0  0  0  0  0  0  0  0  0  0
   -6.7330    3.4350  -23.2810 C   0  0  0  0  0  0  0  0  0  0  0  0
   -7.0450    2.3780  -24.1500 C   0  0  0  0  0  0  0  0  0  0  0  0
   -8.4070    2.4530  -24.3320 C   0  0  0  0  0  0  0  0  0  0  0  0
   -9.2940    1.5810  -25.1580 C   0  0  0  0  0  0  0  0  0  0  0  0
   -9.7260    0.3890  -24.4380 N   0  0  0  0  0  0  0  0  0  0  0  0
   -8.7740   -0.7090  -24.3410 C   0  0  0  0  0  0  0  0  0  0  0  0
   -8.9370   -1.5350  -23.0370 C   0  0  2  0  0  0  0  0  0  0  0  0
   -8.3780   -0.7440  -21.8270 C   0  0  0  0  0  0  0  0  0  0  0  0
   -8.7070    0.3680  -21.4700 O   0  0  0  0  0  0  0  0  0  0  0  0
   -7.4020   -1.5030  -21.2250 N   0  0  0  0  0  0  0  0  0  0  0  0
   -6.5220   -1.0310  -20.2130 C   0  0  0  0  0  0  0  0  0  0  0  0
   -6.7340   -1.3750  -18.9040 C   0  0  0  0  0  0  0  0  0  0  0  0
   -5.8400   -1.1820  -17.9020 N   0  0  0  0  0  0  0  0  0  0  0  0
   -4.7110   -0.5900  -18.2140 C   0  0  0  0  0  0  0  0  0  0  0  0
   -4.4060   -0.0860  -19.5080 C   0  0  0  0  0  0  0  0  0  0  0  0
   -3.2550    0.7260  -19.7330 C   0  0  0  0  0  0  0  0  0  0  0  0
   -3.1230    1.4130  -20.9070 C   0  0  0  0  0  0  0  0  0  0  0  0
   -4.0300    1.1780  -21.9680 C   0  0  0  0  0  0  0  0  0  0  0  0
   -5.1040    0.3360  -21.8010 C   0  0  0  0  0  0  0  0  0  0  0  0
   -5.3520   -0.2720  -20.5380 C   0  0  0  0  0  0  0  0  0  0  0  0
   -5.7800    0.1250  -22.6210 H   0  0  0  0  0  0  0  0  0  0  0  0
   -3.8380    1.6360  -22.9340 H   0  0  0  0  0  0  0  0  0  0  0  0
   -2.2790    2.0820  -21.0580 H   0  0  0  0  0  0  0  0  0  0  0  0
   -2.5770    0.8940  -18.9020 H   0  0  0  0  0  0  0  0  0  0  0  0
   -3.9930   -0.4440  -17.4090 H   0  0  0  0  0  0  0  0  0  0  0  0
   -7.6780   -1.8350  -18.6180 H   0  0  0  0  0  0  0  0  0  0  0  0
   -7.3270   -2.8640  -21.6940 C   0  0  0  0  0  0  0  0  0  0  0  0
   -8.0770   -2.8520  -23.0410 C   0  0  2  0  0  0  0  0  0  0  0  0
   -7.0920   -3.0420  -24.2030 C   0  0  0  0  0  0  0  0  0  0  0  0
   -7.6070   -3.0970  -25.1660 H   0  0  0  0  0  0  0  0  0  0  0  0
   -6.3480   -2.2400  -24.2520 H   0  0  0  0  0  0  0  0  0  0  0  0
   -6.5530   -3.9880  -24.0740 H   0  0  0  0  0  0  0  0  0  0  0  0
   -8.7580   -3.7080  -23.0900 H   0  0  0  0  0  0  0  0  0  0  0  0
   -6.2770   -3.1570  -21.7900 H   0  0  0  0  0  0  0  0  0  0  0  0
   -7.7760   -3.5670  -20.9830 H   0  0  0  0  0  0  0  0  0  0  0  0
  -10.4270   -1.8130  -22.8490 C   0  0  0  0  0  0  0  0  0  0  0  0
  -10.8550   -2.8110  -21.9620 C   0  0  0  0  0  0  0  0  0  0  0  0
  -12.1950   -3.1530  -21.9180 C   0  0  0  0  0  0  0  0  0  0  0  0
  -12.5840   -4.1080  -21.0570 F   0  0  0  0  0  0  0  0  0  0  0  0
  -13.1530   -2.5530  -22.7320 C   0  0  0  0  0  0  0  0  0  0  0  0
  -12.7460   -1.4940  -23.5230 C   0  0  0  0  0  0  0  0  0  0  0  0
  -11.4090   -1.0920  -23.5430 C   0  0  0  0  0  0  0  0  0  0  0  0
  -11.0640    0.1590  -24.2840 C   0  0  0  0  0  0  0  0  0  0  0  0
  -11.9260    0.9200  -24.7000 O   0  0  0  0  0  0  0  0  0  0  0  0
  -13.4670   -0.9470  -24.1280 H   0  0  0  0  0  0  0  0  0  0  0  0
  -14.1910   -2.8790  -22.7020 H   0  0  0  0  0  0  0  0  0  0  0  0
  -10.1720   -3.3480  -21.3080 H   0  0  0  0  0  0  0  0  0  0  0  0
   -8.8840   -1.3720  -25.2130 H   0  0  0  0  0  0  0  0  0  0  0  0
   -7.7730   -0.2770  -24.3800 H   0  0  0  0  0  0  0  0  0  0  0  0
  -10.1880    2.1060  -25.5080 H   0  0  0  0  0  0  0  0  0  0  0  0
   -8.7270    1.2650  -26.0440 H   0  0  0  0  0  0  0  0  0  0  0  0
   -6.3840    1.6450  -24.5910 H   0  0  0  0  0  0  0  0  0  0  0  0
   -5.7590    3.7020  -22.8910 H   0  0  0  0  0  0  0  0  0  0  0  0
  -10.2870    4.3370  -22.3870 H   0  0  0  0  0  0  0  0  0  0  0  0
  -10.8890    3.2140  -23.6100 H   0  0  0  0  0  0  0  0  0  0  0  0
  -11.5020    5.5730  -24.1980 H   0  0  0  0  0  0  0  0  0  0  0  0
  -10.4640    4.8200  -25.4150 H   0  0  0  0  0  0  0  0  0  0  0  0
   -9.7560    5.9980  -24.2750 H   0  0  0  0  0  0  0  0  0  0  0  0
  1  2  1  0  0  0  0
  1 60  1  0  0  0  0
  1 61  1  0  0  0  0
  1 62  1  0  0  0  0
  2  3  1  0  0  0  0
  2 58  1  0  0  0  0
  2 59  1  0  0  0  0
  3  4  1  0  0  0  0
  3  7  1  0  0  0  0
  4  5  2  0  0  0  0
  5  6  1  0  0  0  0
  5 57  1  0  0  0  0
  6  7  2  0  0  0  0
  6 56  1  0  0  0  0
  7  8  1  0  0  0  0
  8  9  1  0  0  0  0
  8 54  1  0  0  0  0
  8 55  1  0  0  0  0
  9 10  1  0  0  0  0
  9 47  1  0  0  0  0
 10 11  1  0  0  0  0
 10 52  1  0  0  0  0
 10 53  1  0  0  0  0
 11 12  1  1  0  0  0
 11 32  1  0  0  0  0
 11 40  1  0  0  0  0
 12 13  2  0  0  0  0
 12 14  1  0  0  0  0
 14 15  1  0  0  0  0
 14 31  1  0  0  0  0
 15 16  2  0  0  0  0
 15 24  1  0  0  0  0
 16 17  1  0  0  0  0
 16 30  1  0  0  0  0
 17 18  2  0  0  0  0
 18 19  1  0  0  0  0
 18 29  1  0  0  0  0
 19 20  2  0  0  0  0
 19 24  1  0  0  0  0
 20 21  1  0  0  0  0
 20 28  1  0  0  0  0
 21 22  2  0  0  0  0
 21 27  1  0  0  0  0
 22 23  1  0  0  0  0
 22 26  1  0  0  0  0
 23 24  2  0  0  0  0
 23 25  1  0  0  0  0
 31 32  1  0  0  0  0
 31 38  1  0  0  0  0
 31 39  1  0  0  0  0
 32 33  1  0  0  0  0
 32 37  1  6  0  0  0
 33 34  1  0  0  0  0
 33 35  1  0  0  0  0
 33 36  1  0  0  0  0
 40 41  2  0  0  0  0
 40 46  1  0  0  0  0
 41 42  1  0  0  0  0
 41 51  1  0  0  0  0
 42 43  1  0  0  0  0
 42 44  2  0  0  0  0
 44 45  1  0  0  0  0
 44 50  1  0  0  0  0
 45 46  2  0  0  0  0
 45 49  1  0  0  0  0
 46 47  1  0  0  0  0
 47 48  2  0  0  0  0
M  END
>  <MODEL>
       1

$$$$
