tmp_first_model_6_13.pdb
 OpenBabel08272519583D

 69 74  0  0  1  0  0  0  0  0999 V2000
   -7.2650    3.4600  -22.0930 C   0  0  0  0  0  0  0  0  0  0  0  0
   -8.2790    2.8520  -22.9360 N   0  0  0  0  0  0  0  0  0  0  0  0
   -7.9150    2.1550  -24.0430 C   0  0  0  0  0  0  0  0  0  0  0  0
   -6.7430    1.9700  -24.3480 O   0  0  0  0  0  0  0  0  0  0  0  0
   -9.0580    1.6180  -24.9090 C   0  0  0  0  0  0  0  0  0  0  0  0
   -9.6760    0.4320  -24.3280 N   0  0  0  0  0  0  0  0  0  0  0  0
   -8.8760   -0.7720  -24.1460 C   0  0  0  0  0  0  0  0  0  0  0  0
   -9.2280   -1.5570  -22.8440 C   0  0  2  0  0  0  0  0  0  0  0  0
   -8.7040   -0.7460  -21.6170 C   0  0  0  0  0  0  0  0  0  0  0  0
   -9.2190    0.2320  -21.1170 O   0  0  0  0  0  0  0  0  0  0  0  0
   -7.5140   -1.3030  -21.2010 N   0  0  0  0  0  0  0  0  0  0  0  0
   -6.7200   -0.7390  -20.1690 C   0  0  0  0  0  0  0  0  0  0  0  0
   -7.0000   -1.0370  -18.8620 C   0  0  0  0  0  0  0  0  0  0  0  0
   -6.2710   -0.6060  -17.8050 N   0  0  0  0  0  0  0  0  0  0  0  0
   -5.2330    0.1560  -18.0540 C   0  0  0  0  0  0  0  0  0  0  0  0
   -4.8230    0.5410  -19.3610 C   0  0  0  0  0  0  0  0  0  0  0  0
   -3.6930    1.3730  -19.5840 C   0  0  0  0  0  0  0  0  0  0  0  0
   -3.3450    1.7480  -20.8540 C   0  0  0  0  0  0  0  0  0  0  0  0
   -4.1150    1.3160  -21.9570 C   0  0  0  0  0  0  0  0  0  0  0  0
   -5.2100    0.5060  -21.7680 C   0  0  0  0  0  0  0  0  0  0  0  0
   -5.5910    0.0890  -20.4630 C   0  0  0  0  0  0  0  0  0  0  0  0
   -5.8190    0.2300  -22.6220 H   0  0  0  0  0  0  0  0  0  0  0  0
   -3.8560    1.6340  -22.9630 H   0  0  0  0  0  0  0  0  0  0  0  0
   -2.4880    2.3930  -21.0210 H   0  0  0  0  0  0  0  0  0  0  0  0
   -3.1330    1.7220  -18.7210 H   0  0  0  0  0  0  0  0  0  0  0  0
   -4.6550    0.5110  -17.1990 H   0  0  0  0  0  0  0  0  0  0  0  0
   -7.8500   -1.6740  -18.6260 H   0  0  0  0  0  0  0  0  0  0  0  0
   -7.0840   -2.4380  -21.9870 C   0  0  0  0  0  0  0  0  0  0  0  0
   -8.3730   -2.8640  -22.7090 C   0  0  2  0  0  0  0  0  0  0  0  0
   -8.0580   -3.6610  -23.9770 C   0  0  0  0  0  0  0  0  0  0  0  0
   -9.2470   -4.2750  -24.5130 N   0  0  0  0  0  0  0  0  0  0  0  0
   -9.2310   -4.9660  -25.6870 C   0  0  0  0  0  0  0  0  0  0  0  0
  -10.3620   -5.6890  -26.1170 C   0  0  0  0  0  0  0  0  0  0  0  0
  -10.2710   -6.3070  -27.3430 C   0  0  0  0  0  0  0  0  0  0  0  0
   -9.1640   -6.2740  -28.0990 N   0  0  0  0  0  0  0  0  0  0  0  0
   -8.1280   -5.6120  -27.5800 C   0  0  0  0  0  0  0  0  0  0  0  0
   -6.8440   -5.6900  -28.3680 C   0  0  0  0  0  0  0  0  0  0  0  0
   -7.0620   -5.6190  -29.4380 H   0  0  0  0  0  0  0  0  0  0  0  0
   -6.3740   -6.6710  -28.2090 H   0  0  0  0  0  0  0  0  0  0  0  0
   -6.1410   -4.9080  -28.0670 H   0  0  0  0  0  0  0  0  0  0  0  0
   -8.1080   -4.9360  -26.4220 N   0  0  0  0  0  0  0  0  0  0  0  0
  -11.1090   -6.8750  -27.7580 H   0  0  0  0  0  0  0  0  0  0  0  0
  -11.2590   -5.7580  -25.5040 H   0  0  0  0  0  0  0  0  0  0  0  0
  -10.1160   -4.1890  -24.0060 H   0  0  0  0  0  0  0  0  0  0  0  0
   -7.3050   -4.4320  -23.7650 H   0  0  0  0  0  0  0  0  0  0  0  0
   -7.6040   -3.0300  -24.7540 H   0  0  0  0  0  0  0  0  0  0  0  0
   -8.9160   -3.5200  -22.0160 H   0  0  0  0  0  0  0  0  0  0  0  0
   -6.2730   -2.1740  -22.6880 H   0  0  0  0  0  0  0  0  0  0  0  0
   -6.6950   -3.2280  -21.3370 H   0  0  0  0  0  0  0  0  0  0  0  0
  -10.7500   -1.6940  -22.7610 C   0  0  0  0  0  0  0  0  0  0  0  0
  -11.3850   -2.5970  -21.8880 C   0  0  0  0  0  0  0  0  0  0  0  0
  -12.7460   -2.4760  -21.6320 C   0  0  0  0  0  0  0  0  0  0  0  0
  -13.5120   -3.3420  -20.3420 Cl  0  0  0  0  0  0  0  0  0  0  0  0
  -13.5640   -1.5770  -22.3080 C   0  0  0  0  0  0  0  0  0  0  0  0
  -12.9600   -0.7320  -23.2030 C   0  0  0  0  0  0  0  0  0  0  0  0
  -11.5780   -0.7380  -23.3780 C   0  0  0  0  0  0  0  0  0  0  0  0
  -11.0260    0.4200  -24.1560 C   0  0  0  0  0  0  0  0  0  0  0  0
  -11.7570    1.3070  -24.5880 O   0  0  0  0  0  0  0  0  0  0  0  0
  -13.5320    0.0200  -23.7280 H   0  0  0  0  0  0  0  0  0  0  0  0
  -14.6290   -1.5230  -22.0950 H   0  0  0  0  0  0  0  0  0  0  0  0
  -10.8430   -3.3800  -21.3680 H   0  0  0  0  0  0  0  0  0  0  0  0
   -7.8320   -0.4560  -24.1040 H   0  0  0  0  0  0  0  0  0  0  0  0
   -9.0010   -1.4270  -25.0180 H   0  0  0  0  0  0  0  0  0  0  0  0
   -8.6600    1.4170  -25.9110 H   0  0  0  0  0  0  0  0  0  0  0  0
   -9.8580    2.3570  -25.0120 H   0  0  0  0  0  0  0  0  0  0  0  0
   -9.2020    2.7040  -22.5500 H   0  0  0  0  0  0  0  0  0  0  0  0
   -6.7290    2.7090  -21.4960 H   0  0  0  0  0  0  0  0  0  0  0  0
   -6.5410    3.9740  -22.7310 H   0  0  0  0  0  0  0  0  0  0  0  0
   -7.7330    4.1950  -21.4350 H   0  0  0  0  0  0  0  0  0  0  0  0
  1  2  1  0  0  0  0
  1 67  1  0  0  0  0
  1 68  1  0  0  0  0
  1 69  1  0  0  0  0
  2  3  1  0  0  0  0
  2 66  1  0  0  0  0
  3  4  2  0  0  0  0
  3  5  1  0  0  0  0
  5  6  1  0  0  0  0
  5 64  1  0  0  0  0
  5 65  1  0  0  0  0
  6  7  1  0  0  0  0
  6 57  1  0  0  0  0
  7  8  1  0  0  0  0
  7 62  1  0  0  0  0
  7 63  1  0  0  0  0
  8  9  1  1  0  0  0
  8 29  1  0  0  0  0
  8 50  1  0  0  0  0
  9 10  2  0  0  0  0
  9 11  1  0  0  0  0
 11 12  1  0  0  0  0
 11 28  1  0  0  0  0
 12 13  2  0  0  0  0
 12 21  1  0  0  0  0
 13 14  1  0  0  0  0
 13 27  1  0  0  0  0
 14 15  2  0  0  0  0
 15 16  1  0  0  0  0
 15 26  1  0  0  0  0
 16 17  2  0  0  0  0
 16 21  1  0  0  0  0
 17 18  1  0  0  0  0
 17 25  1  0  0  0  0
 18 19  2  0  0  0  0
 18 24  1  0  0  0  0
 19 20  1  0  0  0  0
 19 23  1  0  0  0  0
 20 21  2  0  0  0  0
 20 22  1  0  0  0  0
 28 29  1  0  0  0  0
 28 48  1  0  0  0  0
 28 49  1  0  0  0  0
 29 30  1  0  0  0  0
 29 47  1  1  0  0  0
 30 31  1  0  0  0  0
 30 45  1  0  0  0  0
 30 46  1  0  0  0  0
 31 32  1  0  0  0  0
 31 44  1  0  0  0  0
 32 33  2  0  0  0  0
 32 41  1  0  0  0  0
 33 34  1  0  0  0  0
 33 43  1  0  0  0  0
 34 35  2  0  0  0  0
 34 42  1  0  0  0  0
 35 36  1  0  0  0  0
 36 37  1  0  0  0  0
 36 41  2  0  0  0  0
 37 38  1  0  0  0  0
 37 39  1  0  0  0  0
 37 40  1  0  0  0  0
 50 51  2  0  0  0  0
 50 56  1  0  0  0  0
 51 52  1  0  0  0  0
 51 61  1  0  0  0  0
 52 53  1  0  0  0  0
 52 54  2  0  0  0  0
 54 55  1  0  0  0  0
 54 60  1  0  0  0  0
 55 56  2  0  0  0  0
 55 59  1  0  0  0  0
 56 57  1  0  0  0  0
 57 58  2  0  0  0  0
M  END
>  <MODEL>
       1

$$$$
