tmp_first_model_18_87.pdb
 OpenBabel08282502533D

 59 64  0  0  1  0  0  0  0  0999 V2000
   -8.2440   -4.0400  -23.6050 C   0  0  0  0  0  0  0  0  0  0  0  0
   -8.4670   -2.9420  -22.5780 C   0  0  1  0  0  0  0  0  0  0  0  0
   -7.2910   -2.7290  -21.6240 C   0  0  0  0  0  0  0  0  0  0  0  0
   -7.4440   -1.3510  -21.2160 N   0  0  0  0  0  0  0  0  0  0  0  0
   -6.6390   -0.7910  -20.1980 C   0  0  0  0  0  0  0  0  0  0  0  0
   -6.9220   -1.0720  -18.8850 C   0  0  0  0  0  0  0  0  0  0  0  0
   -6.2370   -0.5790  -17.8250 N   0  0  0  0  0  0  0  0  0  0  0  0
   -5.2150    0.2000  -18.0920 C   0  0  0  0  0  0  0  0  0  0  0  0
   -4.7810    0.5270  -19.4100 C   0  0  0  0  0  0  0  0  0  0  0  0
   -3.6460    1.3500  -19.6290 C   0  0  0  0  0  0  0  0  0  0  0  0
   -3.2200    1.6190  -20.9010 C   0  0  0  0  0  0  0  0  0  0  0  0
   -3.9050    1.0760  -22.0100 C   0  0  0  0  0  0  0  0  0  0  0  0
   -5.0130    0.2850  -21.8240 C   0  0  0  0  0  0  0  0  0  0  0  0
   -5.4920    0.0050  -20.5100 C   0  0  0  0  0  0  0  0  0  0  0  0
   -5.5170   -0.1310  -22.6920 H   0  0  0  0  0  0  0  0  0  0  0  0
   -3.5480    1.2830  -23.0140 H   0  0  0  0  0  0  0  0  0  0  0  0
   -2.3500    2.2470  -21.0640 H   0  0  0  0  0  0  0  0  0  0  0  0
   -3.1300    1.7520  -18.7620 H   0  0  0  0  0  0  0  0  0  0  0  0
   -4.6580    0.6050  -17.2480 H   0  0  0  0  0  0  0  0  0  0  0  0
   -7.7690   -1.7180  -18.6580 H   0  0  0  0  0  0  0  0  0  0  0  0
   -8.2570   -0.6010  -22.0370 C   0  0  0  0  0  0  0  0  0  0  0  0
   -8.4750    0.5830  -21.8830 O   0  0  0  0  0  0  0  0  0  0  0  0
   -8.7800   -1.5330  -23.1650 C   0  0  1  0  0  0  0  0  0  0  0  0
   -7.9690   -1.2770  -24.4600 C   0  0  0  0  0  0  0  0  0  0  0  0
   -8.3100   -0.0060  -25.0710 N   0  0  0  0  0  0  0  0  0  0  0  0
   -7.3060    0.7670  -25.7790 C   0  0  0  0  0  0  0  0  0  0  0  0
   -7.1860    2.1740  -25.2590 C   0  0  0  0  0  0  0  0  0  0  0  0
   -6.9270    2.6760  -23.9950 C   0  0  0  0  0  0  0  0  0  0  0  0
   -6.8820    4.0760  -24.1720 C   0  0  0  0  0  0  0  0  0  0  0  0
   -7.1010    4.4120  -25.4370 N   0  0  0  0  0  0  0  0  0  0  0  0
   -7.2910    3.2520  -26.0800 N   0  0  0  0  0  0  0  0  0  0  0  0
   -7.5960    3.2930  -27.4990 C   0  0  0  0  0  0  0  0  0  0  0  0
   -7.6990    4.3500  -27.7440 H   0  0  0  0  0  0  0  0  0  0  0  0
   -6.7760    2.8720  -28.0930 H   0  0  0  0  0  0  0  0  0  0  0  0
   -8.5310    2.7670  -27.7160 H   0  0  0  0  0  0  0  0  0  0  0  0
   -6.7000    4.8630  -23.4480 H   0  0  0  0  0  0  0  0  0  0  0  0
   -6.8320    2.1230  -23.0630 H   0  0  0  0  0  0  0  0  0  0  0  0
   -6.3550    0.2420  -25.6690 H   0  0  0  0  0  0  0  0  0  0  0  0
   -7.5410    0.7810  -26.8500 H   0  0  0  0  0  0  0  0  0  0  0  0
   -9.6110    0.3250  -25.3210 C   0  0  0  0  0  0  0  0  0  0  0  0
   -9.9230    1.1850  -26.1370 O   0  0  0  0  0  0  0  0  0  0  0  0
  -10.6280   -0.4190  -24.5180 C   0  0  0  0  0  0  0  0  0  0  0  0
  -11.9750   -0.1790  -24.7990 C   0  0  0  0  0  0  0  0  0  0  0  0
  -12.9670   -0.7030  -23.9950 C   0  0  0  0  0  0  0  0  0  0  0  0
  -12.5720   -1.5280  -22.9460 C   0  0  0  0  0  0  0  0  0  0  0  0
  -13.5170   -2.0370  -22.1370 F   0  0  0  0  0  0  0  0  0  0  0  0
  -11.2560   -1.8660  -22.7110 C   0  0  0  0  0  0  0  0  0  0  0  0
  -10.2430   -1.2860  -23.4830 C   0  0  0  0  0  0  0  0  0  0  0  0
  -11.0440   -2.5650  -21.9080 H   0  0  0  0  0  0  0  0  0  0  0  0
  -14.0180   -0.4680  -24.1460 H   0  0  0  0  0  0  0  0  0  0  0  0
  -12.2110    0.4150  -25.6740 H   0  0  0  0  0  0  0  0  0  0  0  0
   -6.8980   -1.2730  -24.2330 H   0  0  0  0  0  0  0  0  0  0  0  0
   -8.1570   -2.0980  -25.1670 H   0  0  0  0  0  0  0  0  0  0  0  0
   -6.3210   -2.9120  -22.1130 H   0  0  0  0  0  0  0  0  0  0  0  0
   -7.3400   -3.3810  -20.7520 H   0  0  0  0  0  0  0  0  0  0  0  0
   -9.3130   -3.2280  -21.9500 H   0  0  0  0  0  0  0  0  0  0  0  0
   -9.0780   -4.0810  -24.3130 H   0  0  0  0  0  0  0  0  0  0  0  0
   -7.3240   -3.8590  -24.1710 H   0  0  0  0  0  0  0  0  0  0  0  0
   -8.1530   -5.0120  -23.1160 H   0  0  0  0  0  0  0  0  0  0  0  0
  1  2  1  0  0  0  0
  1 57  1  0  0  0  0
  1 58  1  0  0  0  0
  1 59  1  0  0  0  0
  2  3  1  0  0  0  0
  2 23  1  0  0  0  0
  2 56  1  1  0  0  0
  3  4  1  0  0  0  0
  3 54  1  0  0  0  0
  3 55  1  0  0  0  0
  4  5  1  0  0  0  0
  4 21  1  0  0  0  0
  5  6  2  0  0  0  0
  5 14  1  0  0  0  0
  6  7  1  0  0  0  0
  6 20  1  0  0  0  0
  7  8  2  0  0  0  0
  8  9  1  0  0  0  0
  8 19  1  0  0  0  0
  9 10  2  0  0  0  0
  9 14  1  0  0  0  0
 10 11  1  0  0  0  0
 10 18  1  0  0  0  0
 11 12  2  0  0  0  0
 11 17  1  0  0  0  0
 12 13  1  0  0  0  0
 12 16  1  0  0  0  0
 13 14  2  0  0  0  0
 13 15  1  0  0  0  0
 21 22  2  0  0  0  0
 23 21  1  1  0  0  0
 23 24  1  0  0  0  0
 23 48  1  0  0  0  0
 24 25  1  0  0  0  0
 24 52  1  0  0  0  0
 24 53  1  0  0  0  0
 25 26  1  0  0  0  0
 25 40  1  0  0  0  0
 26 27  1  0  0  0  0
 26 38  1  0  0  0  0
 26 39  1  0  0  0  0
 27 28  2  0  0  0  0
 27 31  1  0  0  0  0
 28 29  1  0  0  0  0
 28 37  1  0  0  0  0
 29 30  2  0  0  0  0
 29 36  1  0  0  0  0
 30 31  1  0  0  0  0
 31 32  1  0  0  0  0
 32 33  1  0  0  0  0
 32 34  1  0  0  0  0
 32 35  1  0  0  0  0
 40 41  2  0  0  0  0
 40 42  1  0  0  0  0
 42 43  2  0  0  0  0
 42 48  1  0  0  0  0
 43 44  1  0  0  0  0
 43 51  1  0  0  0  0
 44 45  2  0  0  0  0
 44 50  1  0  0  0  0
 45 46  1  0  0  0  0
 45 47  1  0  0  0  0
 47 48  2  0  0  0  0
 47 49  1  0  0  0  0
M  END
>  <MODEL>
       1

$$$$
