tmp_first_model_7_12.pdb
 OpenBabel08272520323D

 76 82  0  0  1  0  0  0  0  0999 V2000
  -10.5450    1.8790  -24.0960 O   0  0  0  0  0  0  0  0  0  0  0  0
  -10.0700    0.7490  -24.0030 C   0  0  0  0  0  0  0  0  0  0  0  0
  -10.8700   -0.3860  -23.4580 C   0  0  0  0  0  0  0  0  0  0  0  0
  -12.2550   -0.2700  -23.4400 C   0  0  0  0  0  0  0  0  0  0  0  0
  -13.0530   -1.3030  -22.9950 C   0  0  0  0  0  0  0  0  0  0  0  0
  -12.4260   -2.4190  -22.4470 C   0  0  0  0  0  0  0  0  0  0  0  0
  -13.3780   -3.6840  -21.7330 Cl  0  0  0  0  0  0  0  0  0  0  0  0
  -11.0490   -2.5250  -22.3990 C   0  0  0  0  0  0  0  0  0  0  0  0
  -10.2590   -1.5490  -23.0010 C   0  0  0  0  0  0  0  0  0  0  0  0
   -8.7580   -1.6060  -22.9900 C   0  0  1  0  0  0  0  0  0  0  0  0
   -8.2390   -0.8690  -24.2570 C   0  0  0  0  0  0  0  0  0  0  0  0
   -8.7880    0.4660  -24.3650 N   0  0  0  0  0  0  0  0  0  0  0  0
   -7.9330    1.5870  -24.7070 C   0  0  0  0  0  0  0  0  0  0  0  0
   -7.8200    2.5460  -23.5160 C   0  0  0  0  0  0  0  0  0  0  0  0
   -7.3150    3.8840  -23.8760 N   0  3  0  0  0  0  0  0  0  0  0  0
   -8.3490    4.7710  -24.5290 C   0  0  0  0  0  0  0  0  0  0  0  0
   -7.6460    6.0630  -24.9780 C   0  0  0  0  0  0  0  0  0  0  0  0
   -6.4720    6.2460  -24.2110 O   0  0  0  0  0  0  0  0  0  0  0  0
   -5.4670    5.3310  -24.6110 C   0  0  0  0  0  0  0  0  0  0  0  0
   -6.0080    3.8880  -24.6140 C   0  0  0  0  0  0  0  0  0  0  0  0
   -5.3120    3.2120  -24.1100 H   0  0  0  0  0  0  0  0  0  0  0  0
   -6.1510    3.5210  -25.6350 H   0  0  0  0  0  0  0  0  0  0  0  0
   -5.0890    5.5960  -25.6100 H   0  0  0  0  0  0  0  0  0  0  0  0
   -4.6500    5.4460  -23.8920 H   0  0  0  0  0  0  0  0  0  0  0  0
   -7.4000    6.0280  -26.0500 H   0  0  0  0  0  0  0  0  0  0  0  0
   -8.2870    6.9320  -24.8060 H   0  0  0  0  0  0  0  0  0  0  0  0
   -8.8150    4.2550  -25.3730 H   0  0  0  0  0  0  0  0  0  0  0  0
   -9.1250    4.9820  -23.7850 H   0  0  0  0  0  0  0  0  0  0  0  0
   -7.1090    4.3660  -22.9860 H   0  0  0  0  0  0  0  0  0  0  0  0
   -7.1580    2.1070  -22.7630 H   0  0  0  0  0  0  0  0  0  0  0  0
   -8.8020    2.6780  -23.0560 H   0  0  0  0  0  0  0  0  0  0  0  0
   -6.9520    1.1740  -24.9810 H   0  0  0  0  0  0  0  0  0  0  0  0
   -8.3240    2.1090  -25.5900 H   0  0  0  0  0  0  0  0  0  0  0  0
   -8.5030   -1.4650  -25.1440 H   0  0  0  0  0  0  0  0  0  0  0  0
   -7.1470   -0.7740  -24.1910 H   0  0  0  0  0  0  0  0  0  0  0  0
   -8.3090   -0.8460  -21.7330 C   0  0  0  0  0  0  0  0  0  0  0  0
   -8.7620    0.1910  -21.2850 O   0  0  0  0  0  0  0  0  0  0  0  0
   -7.2770   -1.5390  -21.1650 N   0  0  0  0  0  0  0  0  0  0  0  0
   -6.5200   -0.9030  -20.1600 C   0  0  0  0  0  0  0  0  0  0  0  0
   -6.8780   -1.0720  -18.8500 C   0  0  0  0  0  0  0  0  0  0  0  0
   -6.2010   -0.5460  -17.8060 N   0  0  0  0  0  0  0  0  0  0  0  0
   -5.1640    0.2050  -18.0790 C   0  0  0  0  0  0  0  0  0  0  0  0
   -4.7220    0.5080  -19.3990 C   0  0  0  0  0  0  0  0  0  0  0  0
   -3.6080    1.3530  -19.6380 C   0  0  0  0  0  0  0  0  0  0  0  0
   -3.2330    1.6630  -20.9150 C   0  0  0  0  0  0  0  0  0  0  0  0
   -3.9600    1.1510  -22.0130 C   0  0  0  0  0  0  0  0  0  0  0  0
   -5.0340    0.3190  -21.8100 C   0  0  0  0  0  0  0  0  0  0  0  0
   -5.4340   -0.0370  -20.4880 C   0  0  0  0  0  0  0  0  0  0  0  0
   -5.5880   -0.0520  -22.6670 H   0  0  0  0  0  0  0  0  0  0  0  0
   -3.6630    1.4180  -23.0240 H   0  0  0  0  0  0  0  0  0  0  0  0
   -2.3840    2.3150  -21.0910 H   0  0  0  0  0  0  0  0  0  0  0  0
   -3.0830    1.7630  -18.7800 H   0  0  0  0  0  0  0  0  0  0  0  0
   -4.6170    0.6200  -17.2320 H   0  0  0  0  0  0  0  0  0  0  0  0
   -7.7560   -1.6690  -18.6170 H   0  0  0  0  0  0  0  0  0  0  0  0
   -6.8950   -2.7440  -21.8740 C   0  0  0  0  0  0  0  0  0  0  0  0
   -8.0930   -3.0010  -22.8080 C   0  0  2  0  0  0  0  0  0  0  0  0
   -7.6950   -3.7260  -24.1040 C   0  0  0  0  0  0  0  0  0  0  0  0
   -7.2790   -5.0920  -23.8480 N   0  0  0  0  0  0  0  0  0  0  0  0
   -6.7580   -5.8810  -24.8230 C   0  0  0  0  0  0  0  0  0  0  0  0
   -6.1530   -7.0130  -24.4050 N   0  0  0  0  0  0  0  0  0  0  0  0
   -5.7190   -7.8220  -25.3610 C   0  0  0  0  0  0  0  0  0  0  0  0
   -5.8630   -7.5480  -26.7190 C   0  0  0  0  0  0  0  0  0  0  0  0
   -6.4640   -6.3370  -27.0250 C   0  0  0  0  0  0  0  0  0  0  0  0
   -6.9030   -5.4860  -26.0990 N   0  0  0  0  0  0  0  0  0  0  0  0
   -6.5960   -6.0250  -28.0620 H   0  0  0  0  0  0  0  0  0  0  0  0
   -5.5400   -8.2360  -27.4910 H   0  0  0  0  0  0  0  0  0  0  0  0
   -5.2410   -8.7490  -25.0340 H   0  0  0  0  0  0  0  0  0  0  0  0
   -7.0740   -5.4070  -22.9130 H   0  0  0  0  0  0  0  0  0  0  0  0
   -6.8740   -3.1880  -24.6070 H   0  0  0  0  0  0  0  0  0  0  0  0
   -8.5430   -3.7570  -24.8010 H   0  0  0  0  0  0  0  0  0  0  0  0
   -8.7970   -3.6450  -22.2690 H   0  0  0  0  0  0  0  0  0  0  0  0
   -5.9650   -2.6000  -22.4490 H   0  0  0  0  0  0  0  0  0  0  0  0
   -6.7270   -3.5550  -21.1610 H   0  0  0  0  0  0  0  0  0  0  0  0
  -10.6120   -3.3230  -21.8110 H   0  0  0  0  0  0  0  0  0  0  0  0
  -14.1350   -1.2620  -23.0820 H   0  0  0  0  0  0  0  0  0  0  0  0
  -12.6620    0.6530  -23.8200 H   0  0  0  0  0  0  0  0  0  0  0  0
  1  2  2  0  0  0  0
  2  3  1  0  0  0  0
  2 12  1  0  0  0  0
  3  4  2  0  0  0  0
  3  9  1  0  0  0  0
  4  5  1  0  0  0  0
  4 76  1  0  0  0  0
  5  6  2  0  0  0  0
  5 75  1  0  0  0  0
  6  7  1  0  0  0  0
  6  8  1  0  0  0  0
  8  9  2  0  0  0  0
  8 74  1  0  0  0  0
 10  9  1  6  0  0  0
 10 11  1  0  0  0  0
 10 36  1  0  0  0  0
 10 56  1  0  0  0  0
 11 12  1  0  0  0  0
 11 34  1  0  0  0  0
 11 35  1  0  0  0  0
 12 13  1  0  0  0  0
 13 14  1  0  0  0  0
 13 32  1  0  0  0  0
 13 33  1  0  0  0  0
 14 15  1  0  0  0  0
 14 30  1  0  0  0  0
 14 31  1  0  0  0  0
 15 16  1  0  0  0  0
 15 20  1  0  0  0  0
 15 29  1  0  0  0  0
 16 17  1  0  0  0  0
 16 27  1  0  0  0  0
 16 28  1  0  0  0  0
 17 18  1  0  0  0  0
 17 25  1  0  0  0  0
 17 26  1  0  0  0  0
 18 19  1  0  0  0  0
 19 20  1  0  0  0  0
 19 23  1  0  0  0  0
 19 24  1  0  0  0  0
 20 21  1  0  0  0  0
 20 22  1  0  0  0  0
 36 37  2  0  0  0  0
 36 38  1  0  0  0  0
 38 39  1  0  0  0  0
 38 55  1  0  0  0  0
 39 40  2  0  0  0  0
 39 48  1  0  0  0  0
 40 41  1  0  0  0  0
 40 54  1  0  0  0  0
 41 42  2  0  0  0  0
 42 43  1  0  0  0  0
 42 53  1  0  0  0  0
 43 44  2  0  0  0  0
 43 48  1  0  0  0  0
 44 45  1  0  0  0  0
 44 52  1  0  0  0  0
 45 46  2  0  0  0  0
 45 51  1  0  0  0  0
 46 47  1  0  0  0  0
 46 50  1  0  0  0  0
 47 48  2  0  0  0  0
 47 49  1  0  0  0  0
 55 56  1  0  0  0  0
 55 72  1  0  0  0  0
 55 73  1  0  0  0  0
 56 57  1  0  0  0  0
 56 71  1  1  0  0  0
 57 58  1  0  0  0  0
 57 69  1  0  0  0  0
 57 70  1  0  0  0  0
 58 59  1  0  0  0  0
 58 68  1  0  0  0  0
 59 60  2  0  0  0  0
 59 64  1  0  0  0  0
 60 61  1  0  0  0  0
 61 62  2  0  0  0  0
 61 67  1  0  0  0  0
 62 63  1  0  0  0  0
 62 66  1  0  0  0  0
 63 64  2  0  0  0  0
 63 65  1  0  0  0  0
M  CHG  1  15   1
M  END
>  <MODEL>
       1

$$$$
