tmp_first_model_2_57.pdb
 OpenBabel08272517383D

 59 63  0  0  1  0  0  0  0  0999 V2000
  -14.4850   -1.2910  -23.4630 C   0  0  0  0  0  0  0  0  0  0  0  0
  -13.8020   -2.5110  -23.0820 N   0  0  0  0  0  0  0  0  0  0  0  0
  -13.4710   -2.6950  -21.7780 C   0  0  0  0  0  0  0  0  0  0  0  0
  -13.9290   -2.0330  -20.8630 O   0  0  0  0  0  0  0  0  0  0  0  0
  -12.5460   -3.8790  -21.5360 C   0  0  0  0  0  0  0  0  0  0  0  0
  -11.2340   -3.7900  -22.1630 N   0  0  0  0  0  0  0  0  0  0  0  0
  -10.0890   -3.3010  -21.4040 C   0  0  0  0  0  0  0  0  0  0  0  0
   -8.8520   -2.9550  -22.2810 C   0  0  2  0  0  0  0  0  0  0  0  0
   -7.6420   -2.7430  -21.3470 C   0  0  0  0  0  0  0  0  0  0  0  0
   -6.9970   -3.6100  -20.7950 O   0  0  0  0  0  0  0  0  0  0  0  0
   -7.3790   -1.3910  -21.2380 N   0  0  0  0  0  0  0  0  0  0  0  0
   -6.5820   -0.8670  -20.1870 C   0  0  0  0  0  0  0  0  0  0  0  0
   -6.9030   -1.1010  -18.8720 C   0  0  0  0  0  0  0  0  0  0  0  0
   -6.2370   -0.5640  -17.8160 N   0  0  0  0  0  0  0  0  0  0  0  0
   -5.2100    0.2060  -18.0800 C   0  0  0  0  0  0  0  0  0  0  0  0
   -4.7570    0.5100  -19.3960 C   0  0  0  0  0  0  0  0  0  0  0  0
   -3.6310    1.3390  -19.6310 C   0  0  0  0  0  0  0  0  0  0  0  0
   -3.2230    1.6080  -20.9080 C   0  0  0  0  0  0  0  0  0  0  0  0
   -3.9220    1.0660  -22.0100 C   0  0  0  0  0  0  0  0  0  0  0  0
   -5.0190    0.2640  -21.8110 C   0  0  0  0  0  0  0  0  0  0  0  0
   -5.4610   -0.0330  -20.4920 C   0  0  0  0  0  0  0  0  0  0  0  0
   -5.5520   -0.1480  -22.6620 H   0  0  0  0  0  0  0  0  0  0  0  0
   -3.5920    1.2950  -23.0200 H   0  0  0  0  0  0  0  0  0  0  0  0
   -2.3630    2.2470  -21.0850 H   0  0  0  0  0  0  0  0  0  0  0  0
   -3.1130    1.7570  -18.7730 H   0  0  0  0  0  0  0  0  0  0  0  0
   -4.6700    0.6380  -17.2360 H   0  0  0  0  0  0  0  0  0  0  0  0
   -7.7420   -1.7460  -18.6210 H   0  0  0  0  0  0  0  0  0  0  0  0
   -8.3790   -0.5800  -21.9140 C   0  0  0  0  0  0  0  0  0  0  0  0
   -9.0010   -1.5280  -22.9700 C   0  0  0  0  0  0  0  0  0  0  0  0
  -10.4540   -1.1330  -23.2580 C   0  0  0  0  0  0  0  0  0  0  0  0
  -11.0510   -1.0930  -22.3410 H   0  0  0  0  0  0  0  0  0  0  0  0
  -10.9150   -1.8620  -23.9330 H   0  0  0  0  0  0  0  0  0  0  0  0
  -10.4970   -0.1440  -23.7250 H   0  0  0  0  0  0  0  0  0  0  0  0
   -8.2260   -1.4580  -24.2970 C   0  0  0  0  0  0  0  0  0  0  0  0
   -8.6450   -2.1810  -25.0060 H   0  0  0  0  0  0  0  0  0  0  0  0
   -8.3190   -0.4590  -24.7330 H   0  0  0  0  0  0  0  0  0  0  0  0
   -7.1610   -1.6880  -24.1710 H   0  0  0  0  0  0  0  0  0  0  0  0
   -7.9230    0.3110  -22.3590 H   0  0  0  0  0  0  0  0  0  0  0  0
   -9.1430   -0.2430  -21.1950 H   0  0  0  0  0  0  0  0  0  0  0  0
   -8.6190   -4.1120  -23.2310 C   0  0  0  0  0  0  0  0  0  0  0  0
   -7.3320   -4.4610  -23.6580 C   0  0  0  0  0  0  0  0  0  0  0  0
   -7.1660   -5.4540  -24.6060 C   0  0  0  0  0  0  0  0  0  0  0  0
   -5.5720   -5.7920  -25.2080 Cl  0  0  0  0  0  0  0  0  0  0  0  0
   -8.2470   -6.1690  -25.1150 C   0  0  0  0  0  0  0  0  0  0  0  0
   -9.5160   -5.8410  -24.6760 C   0  0  0  0  0  0  0  0  0  0  0  0
   -9.7090   -4.8000  -23.7690 C   0  0  0  0  0  0  0  0  0  0  0  0
  -11.0980   -4.4370  -23.3540 C   0  0  0  0  0  0  0  0  0  0  0  0
  -12.0860   -4.7060  -24.0340 O   0  0  0  0  0  0  0  0  0  0  0  0
  -10.3760   -6.4130  -25.0050 H   0  0  0  0  0  0  0  0  0  0  0  0
   -8.0910   -6.9480  -25.8550 H   0  0  0  0  0  0  0  0  0  0  0  0
   -6.4660   -3.9420  -23.2620 H   0  0  0  0  0  0  0  0  0  0  0  0
  -10.3820   -2.4040  -20.8480 H   0  0  0  0  0  0  0  0  0  0  0  0
   -9.7860   -4.0580  -20.6830 H   0  0  0  0  0  0  0  0  0  0  0  0
  -12.4740   -4.0280  -20.4600 H   0  0  0  0  0  0  0  0  0  0  0  0
  -13.0430   -4.7410  -21.9910 H   0  0  0  0  0  0  0  0  0  0  0  0
  -13.5180   -3.2120  -23.7610 H   0  0  0  0  0  0  0  0  0  0  0  0
  -13.8030   -0.4260  -23.4460 H   0  0  0  0  0  0  0  0  0  0  0  0
  -14.8900   -1.3890  -24.4730 H   0  0  0  0  0  0  0  0  0  0  0  0
  -15.3010   -1.1000  -22.7580 H   0  0  0  0  0  0  0  0  0  0  0  0
  1  2  1  0  0  0  0
  1 57  1  0  0  0  0
  1 58  1  0  0  0  0
  1 59  1  0  0  0  0
  2  3  1  0  0  0  0
  2 56  1  0  0  0  0
  3  4  2  0  0  0  0
  3  5  1  0  0  0  0
  5  6  1  0  0  0  0
  5 54  1  0  0  0  0
  5 55  1  0  0  0  0
  6  7  1  0  0  0  0
  6 47  1  0  0  0  0
  7  8  1  0  0  0  0
  7 52  1  0  0  0  0
  7 53  1  0  0  0  0
  8  9  1  1  0  0  0
  8 29  1  0  0  0  0
  8 40  1  0  0  0  0
  9 10  2  0  0  0  0
  9 11  1  0  0  0  0
 11 12  1  0  0  0  0
 11 28  1  0  0  0  0
 12 13  2  0  0  0  0
 12 21  1  0  0  0  0
 13 14  1  0  0  0  0
 13 27  1  0  0  0  0
 14 15  2  0  0  0  0
 15 16  1  0  0  0  0
 15 26  1  0  0  0  0
 16 17  2  0  0  0  0
 16 21  1  0  0  0  0
 17 18  1  0  0  0  0
 17 25  1  0  0  0  0
 18 19  2  0  0  0  0
 18 24  1  0  0  0  0
 19 20  1  0  0  0  0
 19 23  1  0  0  0  0
 20 21  2  0  0  0  0
 20 22  1  0  0  0  0
 28 29  1  0  0  0  0
 28 38  1  0  0  0  0
 28 39  1  0  0  0  0
 29 30  1  0  0  0  0
 29 34  1  0  0  0  0
 30 31  1  0  0  0  0
 30 32  1  0  0  0  0
 30 33  1  0  0  0  0
 34 35  1  0  0  0  0
 34 36  1  0  0  0  0
 34 37  1  0  0  0  0
 40 41  2  0  0  0  0
 40 46  1  0  0  0  0
 41 42  1  0  0  0  0
 41 51  1  0  0  0  0
 42 43  1  0  0  0  0
 42 44  2  0  0  0  0
 44 45  1  0  0  0  0
 44 50  1  0  0  0  0
 45 46  2  0  0  0  0
 45 49  1  0  0  0  0
 46 47  1  0  0  0  0
 47 48  2  0  0  0  0
M  END
>  <MODEL>
       1

$$$$
