tmp_first_model_9_61.pdb
 OpenBabel08272521403D

 44 47  0  0  0  0  0  0  0  0999 V2000
   -8.3360    0.7600  -21.6810 O   0  0  0  0  0  0  0  0  0  0  0  0
   -8.5090   -0.4440  -21.7950 C   0  0  0  0  0  0  0  0  0  0  0  0
   -7.4550   -1.4400  -21.2560 C   0  0  0  0  0  0  0  0  0  0  0  0
   -6.5810   -0.8290  -20.1810 C   0  0  0  0  0  0  0  0  0  0  0  0
   -6.8750   -1.0420  -18.8610 C   0  0  0  0  0  0  0  0  0  0  0  0
   -6.1880   -0.5350  -17.8060 N   0  0  0  0  0  0  0  0  0  0  0  0
   -5.1550    0.2240  -18.0700 C   0  0  0  0  0  0  0  0  0  0  0  0
   -4.7230    0.5360  -19.3840 C   0  0  0  0  0  0  0  0  0  0  0  0
   -3.5970    1.3660  -19.6210 C   0  0  0  0  0  0  0  0  0  0  0  0
   -3.2100    1.6610  -20.9000 C   0  0  0  0  0  0  0  0  0  0  0  0
   -3.9360    1.1380  -21.9910 C   0  0  0  0  0  0  0  0  0  0  0  0
   -5.0270    0.3300  -21.7870 C   0  0  0  0  0  0  0  0  0  0  0  0
   -5.4540    0.0010  -20.4750 C   0  0  0  0  0  0  0  0  0  0  0  0
   -5.5830   -0.0490  -22.6390 H   0  0  0  0  0  0  0  0  0  0  0  0
   -3.6250    1.3770  -23.0050 H   0  0  0  0  0  0  0  0  0  0  0  0
   -2.3520    2.3060  -21.0840 H   0  0  0  0  0  0  0  0  0  0  0  0
   -3.0600    1.7740  -18.7680 H   0  0  0  0  0  0  0  0  0  0  0  0
   -4.6020    0.6280  -17.2180 H   0  0  0  0  0  0  0  0  0  0  0  0
   -7.7280   -1.6610  -18.5820 H   0  0  0  0  0  0  0  0  0  0  0  0
   -6.8320   -1.7990  -22.0890 H   0  0  0  0  0  0  0  0  0  0  0  0
   -7.9630   -2.3280  -20.8480 H   0  0  0  0  0  0  0  0  0  0  0  0
   -9.6480   -0.9460  -22.3840 N   0  0  0  0  0  0  0  0  0  0  0  0
   -9.7770   -2.3190  -22.8740 C   0  0  0  0  0  0  0  0  0  0  0  0
  -10.8460   -2.4170  -23.9630 C   0  0  0  0  0  0  0  0  0  0  0  0
  -12.2290   -1.9400  -23.5210 C   0  0  0  0  0  0  0  0  0  0  0  0
  -13.2080   -1.6810  -24.6880 C   0  0  0  0  0  0  0  0  0  0  0  0
  -14.1400   -2.8060  -24.1900 C   0  0  0  0  0  0  0  0  0  0  0  0
  -13.1730   -3.0710  -23.0150 C   0  0  0  0  0  0  0  0  0  0  0  0
  -13.6090   -2.8940  -22.0240 H   0  0  0  0  0  0  0  0  0  0  0  0
  -12.7190   -4.0690  -23.0030 H   0  0  0  0  0  0  0  0  0  0  0  0
  -15.1400   -2.4730  -23.8900 H   0  0  0  0  0  0  0  0  0  0  0  0
  -14.2470   -3.6420  -24.8900 H   0  0  0  0  0  0  0  0  0  0  0  0
  -13.6460   -0.6770  -24.6730 H   0  0  0  0  0  0  0  0  0  0  0  0
  -12.7640   -1.8510  -25.6710 H   0  0  0  0  0  0  0  0  0  0  0  0
  -12.0930   -0.7860  -22.5300 C   0  0  0  0  0  0  0  0  0  0  0  0
  -10.7690   -0.0310  -22.6270 C   0  0  0  0  0  0  0  0  0  0  0  0
  -10.7050    0.7790  -21.8970 H   0  0  0  0  0  0  0  0  0  0  0  0
  -10.6860    0.4580  -23.6090 H   0  0  0  0  0  0  0  0  0  0  0  0
  -12.9420   -0.0950  -22.6060 H   0  0  0  0  0  0  0  0  0  0  0  0
  -12.1590   -1.2480  -21.5500 H   0  0  0  0  0  0  0  0  0  0  0  0
  -10.5260   -1.8320  -24.8350 H   0  0  0  0  0  0  0  0  0  0  0  0
  -10.9120   -3.4520  -24.3060 H   0  0  0  0  0  0  0  0  0  0  0  0
   -8.8160   -2.6360  -23.2960 H   0  0  0  0  0  0  0  0  0  0  0  0
  -10.0050   -3.0110  -22.0490 H   0  0  0  0  0  0  0  0  0  0  0  0
  1  2  2  0  0  0  0
  2  3  1  0  0  0  0
  2 22  1  0  0  0  0
  3  4  1  0  0  0  0
  3 20  1  0  0  0  0
  3 21  1  0  0  0  0
  4  5  2  0  0  0  0
  4 13  1  0  0  0  0
  5  6  1  0  0  0  0
  5 19  1  0  0  0  0
  6  7  2  0  0  0  0
  7  8  1  0  0  0  0
  7 18  1  0  0  0  0
  8  9  2  0  0  0  0
  8 13  1  0  0  0  0
  9 10  1  0  0  0  0
  9 17  1  0  0  0  0
 10 11  2  0  0  0  0
 10 16  1  0  0  0  0
 11 12  1  0  0  0  0
 11 15  1  0  0  0  0
 12 13  2  0  0  0  0
 12 14  1  0  0  0  0
 22 23  1  0  0  0  0
 22 36  1  0  0  0  0
 23 24  1  0  0  0  0
 23 43  1  0  0  0  0
 23 44  1  0  0  0  0
 24 25  1  0  0  0  0
 24 41  1  0  0  0  0
 24 42  1  0  0  0  0
 25 26  1  0  0  0  0
 25 28  1  0  0  0  0
 25 35  1  0  0  0  0
 26 27  1  0  0  0  0
 26 33  1  0  0  0  0
 26 34  1  0  0  0  0
 27 28  1  0  0  0  0
 27 31  1  0  0  0  0
 27 32  1  0  0  0  0
 28 29  1  0  0  0  0
 28 30  1  0  0  0  0
 35 36  1  0  0  0  0
 35 39  1  0  0  0  0
 35 40  1  0  0  0  0
 36 37  1  0  0  0  0
 36 38  1  0  0  0  0
M  END
>  <MODEL>
       1

$$$$
