tmp_first_model_10_12.pdb
 OpenBabel08272522163D

 76 82  0  0  1  0  0  0  0  0999 V2000
  -12.9230   -0.2660  -23.1830 O   0  0  0  0  0  0  0  0  0  0  0  0
  -11.9580   -1.0250  -23.1350 C   0  0  0  0  0  0  0  0  0  0  0  0
  -11.9740   -2.2640  -22.3170 C   0  0  0  0  0  0  0  0  0  0  0  0
  -13.2140   -2.7010  -21.8580 C   0  0  0  0  0  0  0  0  0  0  0  0
  -13.3080   -3.8270  -21.0680 C   0  0  0  0  0  0  0  0  0  0  0  0
  -12.1250   -4.4660  -20.7240 C   0  0  0  0  0  0  0  0  0  0  0  0
  -12.1960   -5.7160  -19.5060 Cl  0  0  0  0  0  0  0  0  0  0  0  0
  -10.8820   -4.0520  -21.2020 C   0  0  0  0  0  0  0  0  0  0  0  0
  -10.7700   -2.9140  -21.9930 C   0  0  0  0  0  0  0  0  0  0  0  0
   -9.4260   -2.3050  -22.4070 C   0  0  1  0  0  0  0  0  0  0  0  0
   -9.6840   -1.7060  -23.8180 C   0  0  0  0  0  0  0  0  0  0  0  0
  -10.8150   -0.7940  -23.8380 N   0  0  0  0  0  0  0  0  0  0  0  0
  -10.8480    0.3470  -24.7360 C   0  0  0  0  0  0  0  0  0  0  0  0
  -10.5870    1.6440  -23.9790 C   0  0  0  0  0  0  0  0  0  0  0  0
   -9.1320    1.8020  -23.6730 N   0  3  0  0  0  0  0  0  0  0  0  0
   -8.9610    2.6750  -22.4540 C   0  0  0  0  0  0  0  0  0  0  0  0
   -7.5500    3.2190  -22.2870 C   0  0  0  0  0  0  0  0  0  0  0  0
   -7.0020    3.7490  -23.4760 O   0  0  0  0  0  0  0  0  0  0  0  0
   -6.9790    2.7740  -24.4990 C   0  0  0  0  0  0  0  0  0  0  0  0
   -8.3880    2.3440  -24.8750 C   0  0  0  0  0  0  0  0  0  0  0  0
   -8.9380    3.2200  -25.2340 H   0  0  0  0  0  0  0  0  0  0  0  0
   -8.3560    1.5960  -25.6750 H   0  0  0  0  0  0  0  0  0  0  0  0
   -6.3910    1.8920  -24.1930 H   0  0  0  0  0  0  0  0  0  0  0  0
   -6.4940    3.2500  -25.3570 H   0  0  0  0  0  0  0  0  0  0  0  0
   -6.9090    2.4440  -21.8520 H   0  0  0  0  0  0  0  0  0  0  0  0
   -7.5870    4.0420  -21.5730 H   0  0  0  0  0  0  0  0  0  0  0  0
   -9.6700    3.5060  -22.5370 H   0  0  0  0  0  0  0  0  0  0  0  0
   -9.2440    2.0700  -21.5850 H   0  0  0  0  0  0  0  0  0  0  0  0
   -8.7680    0.8580  -23.4370 H   0  0  0  0  0  0  0  0  0  0  0  0
  -11.1440    1.6440  -23.0380 H   0  0  0  0  0  0  0  0  0  0  0  0
  -10.9190    2.5130  -24.5580 H   0  0  0  0  0  0  0  0  0  0  0  0
  -11.8270    0.3760  -25.2140 H   0  0  0  0  0  0  0  0  0  0  0  0
  -10.0890    0.2070  -25.5100 H   0  0  0  0  0  0  0  0  0  0  0  0
   -8.8030   -1.1620  -24.1700 H   0  0  0  0  0  0  0  0  0  0  0  0
   -9.8680   -2.5380  -24.5130 H   0  0  0  0  0  0  0  0  0  0  0  0
   -8.9630   -1.1630  -21.4420 C   0  0  0  0  0  0  0  0  0  0  0  0
   -9.6380   -0.2450  -21.0280 O   0  0  0  0  0  0  0  0  0  0  0  0
   -7.6080   -1.2920  -21.2170 N   0  0  0  0  0  0  0  0  0  0  0  0
   -6.8740   -0.6790  -20.1650 C   0  0  0  0  0  0  0  0  0  0  0  0
   -7.1090   -1.0130  -18.8530 C   0  0  0  0  0  0  0  0  0  0  0  0
   -6.3440   -0.6080  -17.8090 N   0  0  0  0  0  0  0  0  0  0  0  0
   -5.3220    0.1730  -18.0650 C   0  0  0  0  0  0  0  0  0  0  0  0
   -4.9750    0.6200  -19.3720 C   0  0  0  0  0  0  0  0  0  0  0  0
   -3.8960    1.5170  -19.6040 C   0  0  0  0  0  0  0  0  0  0  0  0
   -3.6200    1.9640  -20.8680 C   0  0  0  0  0  0  0  0  0  0  0  0
   -4.3790    1.4990  -21.9650 C   0  0  0  0  0  0  0  0  0  0  0  0
   -5.3910    0.5870  -21.7680 C   0  0  0  0  0  0  0  0  0  0  0  0
   -5.7550    0.1640  -20.4620 C   0  0  0  0  0  0  0  0  0  0  0  0
   -5.9820    0.2400  -22.6100 H   0  0  0  0  0  0  0  0  0  0  0  0
   -4.1700    1.8820  -22.9620 H   0  0  0  0  0  0  0  0  0  0  0  0
   -2.8320    2.6940  -21.0300 H   0  0  0  0  0  0  0  0  0  0  0  0
   -3.3120    1.8560  -18.7520 H   0  0  0  0  0  0  0  0  0  0  0  0
   -4.7080    0.4870  -17.2180 H   0  0  0  0  0  0  0  0  0  0  0  0
   -7.9410   -1.6640  -18.5960 H   0  0  0  0  0  0  0  0  0  0  0  0
   -6.9930   -2.3340  -22.0020 C   0  0  0  0  0  0  0  0  0  0  0  0
   -8.1670   -3.2430  -22.3900 C   0  0  2  0  0  0  0  0  0  0  0  0
   -7.8390   -3.9990  -23.6860 C   0  0  0  0  0  0  0  0  0  0  0  0
   -6.6200   -4.7970  -23.5920 N   0  0  0  0  0  0  0  0  0  0  0  0
   -6.6810   -6.1220  -23.2660 C   0  0  0  0  0  0  0  0  0  0  0  0
   -5.6120   -6.8840  -23.5770 N   0  0  0  0  0  0  0  0  0  0  0  0
   -5.6810   -8.1550  -23.2060 C   0  0  0  0  0  0  0  0  0  0  0  0
   -6.7720   -8.6950  -22.5300 C   0  0  0  0  0  0  0  0  0  0  0  0
   -7.8120   -7.8210  -22.2750 C   0  0  0  0  0  0  0  0  0  0  0  0
   -7.7880   -6.5440  -22.6350 N   0  0  0  0  0  0  0  0  0  0  0  0
   -8.7180   -8.1360  -21.7630 H   0  0  0  0  0  0  0  0  0  0  0  0
   -6.8280   -9.7370  -22.2500 H   0  0  0  0  0  0  0  0  0  0  0  0
   -4.8310   -8.7870  -23.4660 H   0  0  0  0  0  0  0  0  0  0  0  0
   -5.8580   -4.5640  -24.2120 H   0  0  0  0  0  0  0  0  0  0  0  0
   -7.6950   -3.2770  -24.4970 H   0  0  0  0  0  0  0  0  0  0  0  0
   -8.6720   -4.6610  -23.9360 H   0  0  0  0  0  0  0  0  0  0  0  0
   -8.2970   -3.9800  -21.5920 H   0  0  0  0  0  0  0  0  0  0  0  0
   -6.2220   -2.8330  -21.4090 H   0  0  0  0  0  0  0  0  0  0  0  0
   -6.5050   -1.9370  -22.9050 H   0  0  0  0  0  0  0  0  0  0  0  0
   -9.9950   -4.4900  -20.7650 H   0  0  0  0  0  0  0  0  0  0  0  0
  -14.2520   -4.1840  -20.6730 H   0  0  0  0  0  0  0  0  0  0  0  0
  -14.0850   -2.1020  -22.0980 H   0  0  0  0  0  0  0  0  0  0  0  0
  1  2  2  0  0  0  0
  2  3  1  0  0  0  0
  2 12  1  0  0  0  0
  3  4  2  0  0  0  0
  3  9  1  0  0  0  0
  4  5  1  0  0  0  0
  4 76  1  0  0  0  0
  5  6  2  0  0  0  0
  5 75  1  0  0  0  0
  6  7  1  0  0  0  0
  6  8  1  0  0  0  0
  8  9  2  0  0  0  0
  8 74  1  0  0  0  0
 10  9  1  1  0  0  0
 10 11  1  0  0  0  0
 10 36  1  0  0  0  0
 10 56  1  0  0  0  0
 11 12  1  0  0  0  0
 11 34  1  0  0  0  0
 11 35  1  0  0  0  0
 12 13  1  0  0  0  0
 13 14  1  0  0  0  0
 13 32  1  0  0  0  0
 13 33  1  0  0  0  0
 14 15  1  0  0  0  0
 14 30  1  0  0  0  0
 14 31  1  0  0  0  0
 15 16  1  0  0  0  0
 15 20  1  0  0  0  0
 15 29  1  0  0  0  0
 16 17  1  0  0  0  0
 16 27  1  0  0  0  0
 16 28  1  0  0  0  0
 17 18  1  0  0  0  0
 17 25  1  0  0  0  0
 17 26  1  0  0  0  0
 18 19  1  0  0  0  0
 19 20  1  0  0  0  0
 19 23  1  0  0  0  0
 19 24  1  0  0  0  0
 20 21  1  0  0  0  0
 20 22  1  0  0  0  0
 36 37  2  0  0  0  0
 36 38  1  0  0  0  0
 38 39  1  0  0  0  0
 38 55  1  0  0  0  0
 39 40  2  0  0  0  0
 39 48  1  0  0  0  0
 40 41  1  0  0  0  0
 40 54  1  0  0  0  0
 41 42  2  0  0  0  0
 42 43  1  0  0  0  0
 42 53  1  0  0  0  0
 43 44  2  0  0  0  0
 43 48  1  0  0  0  0
 44 45  1  0  0  0  0
 44 52  1  0  0  0  0
 45 46  2  0  0  0  0
 45 51  1  0  0  0  0
 46 47  1  0  0  0  0
 46 50  1  0  0  0  0
 47 48  2  0  0  0  0
 47 49  1  0  0  0  0
 55 56  1  0  0  0  0
 55 72  1  0  0  0  0
 55 73  1  0  0  0  0
 56 57  1  0  0  0  0
 56 71  1  1  0  0  0
 57 58  1  0  0  0  0
 57 69  1  0  0  0  0
 57 70  1  0  0  0  0
 58 59  1  0  0  0  0
 58 68  1  0  0  0  0
 59 60  2  0  0  0  0
 59 64  1  0  0  0  0
 60 61  1  0  0  0  0
 61 62  2  0  0  0  0
 61 67  1  0  0  0  0
 62 63  1  0  0  0  0
 62 66  1  0  0  0  0
 63 64  2  0  0  0  0
 63 65  1  0  0  0  0
M  CHG  1  15   1
M  END
>  <MODEL>
       1

$$$$
