tmp_first_model_16_27.pdb
 OpenBabel08282501503D

 58 62  0  0  1  0  0  0  0  0999 V2000
   -7.0480    3.5730  -22.0980 C   0  0  0  0  0  0  0  0  0  0  0  0
   -7.2910    2.5300  -23.1000 N   0  3  0  0  0  0  0  0  0  0  0  0
   -8.4490    2.8250  -23.9980 C   0  0  0  0  0  0  0  0  0  0  0  0
   -8.7240    1.6660  -24.9550 C   0  0  0  0  0  0  0  0  0  0  0  0
   -9.3800    0.5280  -24.3210 N   0  0  0  0  0  0  0  0  0  0  0  0
   -8.6740   -0.7320  -24.1900 C   0  0  0  0  0  0  0  0  0  0  0  0
   -9.0720   -1.4910  -22.9010 C   0  0  2  0  0  0  0  0  0  0  0  0
   -8.5360   -0.7310  -21.6660 C   0  0  0  0  0  0  0  0  0  0  0  0
   -8.9680    0.2980  -21.1790 O   0  0  0  0  0  0  0  0  0  0  0  0
   -7.4190   -1.3810  -21.2110 N   0  0  0  0  0  0  0  0  0  0  0  0
   -6.6230   -0.8100  -20.1880 C   0  0  0  0  0  0  0  0  0  0  0  0
   -6.9410   -1.0710  -18.8830 C   0  0  0  0  0  0  0  0  0  0  0  0
   -6.1790   -0.6840  -17.8340 N   0  0  0  0  0  0  0  0  0  0  0  0
   -5.1120    0.0330  -18.0890 C   0  0  0  0  0  0  0  0  0  0  0  0
   -4.7230    0.4680  -19.3960 C   0  0  0  0  0  0  0  0  0  0  0  0
   -3.6180    1.3380  -19.6340 C   0  0  0  0  0  0  0  0  0  0  0  0
   -3.2420    1.6640  -20.9100 C   0  0  0  0  0  0  0  0  0  0  0  0
   -3.9550    1.1440  -22.0130 C   0  0  0  0  0  0  0  0  0  0  0  0
   -5.0480    0.3320  -21.8110 C   0  0  0  0  0  0  0  0  0  0  0  0
   -5.4810   -0.0050  -20.4950 C   0  0  0  0  0  0  0  0  0  0  0  0
   -5.5690   -0.0790  -22.6720 H   0  0  0  0  0  0  0  0  0  0  0  0
   -3.6360    1.3860  -23.0240 H   0  0  0  0  0  0  0  0  0  0  0  0
   -2.3820    2.3050  -21.0870 H   0  0  0  0  0  0  0  0  0  0  0  0
   -3.0920    1.7490  -18.7750 H   0  0  0  0  0  0  0  0  0  0  0  0
   -4.4970    0.3000  -17.2250 H   0  0  0  0  0  0  0  0  0  0  0  0
   -7.8180   -1.6690  -18.6400 H   0  0  0  0  0  0  0  0  0  0  0  0
   -7.0570   -2.5690  -21.9560 C   0  0  0  0  0  0  0  0  0  0  0  0
   -8.3150   -2.8570  -22.8040 C   0  0  2  0  0  0  0  0  0  0  0  0
   -7.9730   -3.5650  -24.1220 C   0  0  0  0  0  0  0  0  0  0  0  0
   -7.5160   -4.5440  -23.9340 H   0  0  0  0  0  0  0  0  0  0  0  0
   -8.8590   -3.7230  -24.7470 H   0  0  0  0  0  0  0  0  0  0  0  0
   -7.2510   -2.9800  -24.7090 H   0  0  0  0  0  0  0  0  0  0  0  0
   -8.9600   -3.5120  -22.2140 H   0  0  0  0  0  0  0  0  0  0  0  0
   -6.8040   -3.3900  -21.2730 H   0  0  0  0  0  0  0  0  0  0  0  0
   -6.1730   -2.3870  -22.5880 H   0  0  0  0  0  0  0  0  0  0  0  0
  -10.5860   -1.5590  -22.8300 C   0  0  0  0  0  0  0  0  0  0  0  0
  -11.2270   -2.5130  -22.0330 C   0  0  0  0  0  0  0  0  0  0  0  0
  -12.6030   -2.5170  -21.9550 C   0  0  0  0  0  0  0  0  0  0  0  0
  -13.2090   -3.4420  -21.1930 F   0  0  0  0  0  0  0  0  0  0  0  0
  -13.3900   -1.5890  -22.6290 C   0  0  0  0  0  0  0  0  0  0  0  0
  -12.7590   -0.6070  -23.3660 C   0  0  0  0  0  0  0  0  0  0  0  0
  -11.3680   -0.5700  -23.4470 C   0  0  0  0  0  0  0  0  0  0  0  0
  -10.7350    0.5960  -24.1530 C   0  0  0  0  0  0  0  0  0  0  0  0
  -11.3940    1.5530  -24.5400 O   0  0  0  0  0  0  0  0  0  0  0  0
  -13.3120    0.1710  -23.8810 H   0  0  0  0  0  0  0  0  0  0  0  0
  -14.4660   -1.6430  -22.5390 H   0  0  0  0  0  0  0  0  0  0  0  0
  -10.6860   -3.2410  -21.4380 H   0  0  0  0  0  0  0  0  0  0  0  0
   -8.8790   -1.3870  -25.0520 H   0  0  0  0  0  0  0  0  0  0  0  0
   -7.6010   -0.5110  -24.1550 H   0  0  0  0  0  0  0  0  0  0  0  0
   -7.7820    1.3080  -25.3870 H   0  0  0  0  0  0  0  0  0  0  0  0
   -9.3780    2.0130  -25.7580 H   0  0  0  0  0  0  0  0  0  0  0  0
   -9.3330    3.0130  -23.3800 H   0  0  0  0  0  0  0  0  0  0  0  0
   -8.2400    3.7340  -24.5730 H   0  0  0  0  0  0  0  0  0  0  0  0
   -6.4250    2.4010  -23.6780 H   0  0  0  0  0  0  0  0  0  0  0  0
   -7.5050    1.6380  -22.6000 H   0  0  0  0  0  0  0  0  0  0  0  0
   -6.1800    3.2940  -21.5000 H   0  0  0  0  0  0  0  0  0  0  0  0
   -7.9250    3.6760  -21.4510 H   0  0  0  0  0  0  0  0  0  0  0  0
   -6.8730    4.5460  -22.5700 H   0  0  0  0  0  0  0  0  0  0  0  0
  1  2  1  0  0  0  0
  1 56  1  0  0  0  0
  1 57  1  0  0  0  0
  1 58  1  0  0  0  0
  2  3  1  0  0  0  0
  2 54  1  0  0  0  0
  2 55  1  0  0  0  0
  3  4  1  0  0  0  0
  3 52  1  0  0  0  0
  3 53  1  0  0  0  0
  4  5  1  0  0  0  0
  4 50  1  0  0  0  0
  4 51  1  0  0  0  0
  5  6  1  0  0  0  0
  5 43  1  0  0  0  0
  6  7  1  0  0  0  0
  6 48  1  0  0  0  0
  6 49  1  0  0  0  0
  7  8  1  1  0  0  0
  7 28  1  0  0  0  0
  7 36  1  0  0  0  0
  8  9  2  0  0  0  0
  8 10  1  0  0  0  0
 10 11  1  0  0  0  0
 10 27  1  0  0  0  0
 11 12  2  0  0  0  0
 11 20  1  0  0  0  0
 12 13  1  0  0  0  0
 12 26  1  0  0  0  0
 13 14  2  0  0  0  0
 14 15  1  0  0  0  0
 14 25  1  0  0  0  0
 15 16  2  0  0  0  0
 15 20  1  0  0  0  0
 16 17  1  0  0  0  0
 16 24  1  0  0  0  0
 17 18  2  0  0  0  0
 17 23  1  0  0  0  0
 18 19  1  0  0  0  0
 18 22  1  0  0  0  0
 19 20  2  0  0  0  0
 19 21  1  0  0  0  0
 27 28  1  0  0  0  0
 27 34  1  0  0  0  0
 27 35  1  0  0  0  0
 28 29  1  0  0  0  0
 28 33  1  1  0  0  0
 29 30  1  0  0  0  0
 29 31  1  0  0  0  0
 29 32  1  0  0  0  0
 36 37  2  0  0  0  0
 36 42  1  0  0  0  0
 37 38  1  0  0  0  0
 37 47  1  0  0  0  0
 38 39  1  0  0  0  0
 38 40  2  0  0  0  0
 40 41  1  0  0  0  0
 40 46  1  0  0  0  0
 41 42  2  0  0  0  0
 41 45  1  0  0  0  0
 42 43  1  0  0  0  0
 43 44  2  0  0  0  0
M  CHG  1   2   1
M  END
>  <MODEL>
       1

$$$$
