tmp_first_model_18_47.pdb
 OpenBabel08282502533D

 58 63  0  0  1  0  0  0  0  0999 V2000
   -8.7800    0.5120  -21.0320 O   0  0  0  0  0  0  0  0  0  0  0  0
   -8.1420   -0.1780  -21.8140 C   0  0  0  0  0  0  0  0  0  0  0  0
   -7.4070   -1.3970  -21.2960 C   0  0  0  0  0  0  0  0  0  0  0  0
   -6.5270   -0.9080  -20.1740 C   0  0  0  0  0  0  0  0  0  0  0  0
   -6.8690   -1.0990  -18.8630 C   0  0  0  0  0  0  0  0  0  0  0  0
   -6.2150   -0.5660  -17.7990 N   0  0  0  0  0  0  0  0  0  0  0  0
   -5.1910    0.2110  -18.0670 C   0  0  0  0  0  0  0  0  0  0  0  0
   -4.7290    0.5120  -19.3790 C   0  0  0  0  0  0  0  0  0  0  0  0
   -3.6290    1.3730  -19.6160 C   0  0  0  0  0  0  0  0  0  0  0  0
   -3.2300    1.6670  -20.8910 C   0  0  0  0  0  0  0  0  0  0  0  0
   -3.9230    1.1100  -21.9890 C   0  0  0  0  0  0  0  0  0  0  0  0
   -4.9900    0.2720  -21.7850 C   0  0  0  0  0  0  0  0  0  0  0  0
   -5.4230   -0.0560  -20.4710 C   0  0  0  0  0  0  0  0  0  0  0  0
   -5.5190   -0.1200  -22.6490 H   0  0  0  0  0  0  0  0  0  0  0  0
   -3.6160    1.3650  -23.0010 H   0  0  0  0  0  0  0  0  0  0  0  0
   -2.3870    2.3280  -21.0680 H   0  0  0  0  0  0  0  0  0  0  0  0
   -3.1170    1.8000  -18.7580 H   0  0  0  0  0  0  0  0  0  0  0  0
   -4.6670    0.6540  -17.2200 H   0  0  0  0  0  0  0  0  0  0  0  0
   -7.7360   -1.7150  -18.6170 H   0  0  0  0  0  0  0  0  0  0  0  0
   -6.8330   -1.8570  -22.1030 H   0  0  0  0  0  0  0  0  0  0  0  0
   -8.1560   -2.1100  -20.9370 H   0  0  0  0  0  0  0  0  0  0  0  0
   -7.9580    0.1740  -23.1460 N   0  0  0  0  0  0  0  0  0  0  0  0
   -7.9800   -0.7980  -24.2490 C   0  0  0  0  0  0  0  0  0  0  0  0
   -9.0710   -1.8590  -24.1240 C   0  0  0  0  0  0  0  0  0  0  0  0
   -8.7610   -3.2190  -24.0550 C   0  0  0  0  0  0  0  0  0  0  0  0
   -9.7600   -4.1700  -23.8560 C   0  0  0  0  0  0  0  0  0  0  0  0
  -11.0860   -3.7890  -23.7080 C   0  0  0  0  0  0  0  0  0  0  0  0
  -11.3930   -2.4360  -23.8060 C   0  0  0  0  0  0  0  0  0  0  0  0
  -13.0400   -1.9220  -23.5760 Cl  0  0  0  0  0  0  0  0  0  0  0  0
  -10.4150   -1.4840  -24.0650 C   0  0  0  0  0  0  0  0  0  0  0  0
  -10.7410   -0.4590  -24.2410 H   0  0  0  0  0  0  0  0  0  0  0  0
  -11.8670   -4.5210  -23.5240 H   0  0  0  0  0  0  0  0  0  0  0  0
   -9.4920   -5.2230  -23.8170 H   0  0  0  0  0  0  0  0  0  0  0  0
   -7.7250   -3.5440  -24.1090 H   0  0  0  0  0  0  0  0  0  0  0  0
   -7.0020   -1.2930  -24.3330 H   0  0  0  0  0  0  0  0  0  0  0  0
   -8.1430   -0.2250  -25.1670 H   0  0  0  0  0  0  0  0  0  0  0  0
   -8.0540    1.5930  -23.4000 C   0  0  2  0  0  0  0  0  0  0  0  0
   -9.4450    2.1240  -23.7050 C   0  0  0  0  0  0  0  0  0  0  0  0
   -9.1300    3.5820  -23.9010 N   0  3  1  0  0  0  0  0  0  0  0  0
  -10.0200    4.5300  -23.2280 C   0  0  0  0  0  0  0  0  0  0  0  0
  -10.0060    5.9670  -23.6380 C   0  0  0  0  0  0  0  0  0  0  0  0
  -11.1990    5.1050  -23.9620 C   0  0  0  0  0  0  0  0  0  0  0  0
  -12.1090    5.2530  -23.3890 H   0  0  0  0  0  0  0  0  0  0  0  0
  -11.3400    4.8090  -24.9990 H   0  0  0  0  0  0  0  0  0  0  0  0
   -9.3590    6.2390  -24.4670 H   0  0  0  0  0  0  0  0  0  0  0  0
  -10.0960    6.7020  -22.8480 H   0  0  0  0  0  0  0  0  0  0  0  0
  -10.1820    4.3300  -22.1760 H   0  0  0  0  0  0  0  0  0  0  0  0
   -7.6460    3.5700  -23.5050 C   0  0  2  0  0  0  0  0  0  0  0  0
   -7.1710    2.4010  -24.3840 C   0  0  0  0  0  0  0  0  0  0  0  0
   -6.1100    2.1820  -24.2840 H   0  0  0  0  0  0  0  0  0  0  0  0
   -7.4890    2.4510  -25.4330 H   0  0  0  0  0  0  0  0  0  0  0  0
   -7.6080    2.6200  -22.3150 C   0  0  0  0  0  0  0  0  0  0  0  0
   -8.3160    2.8200  -21.5070 H   0  0  0  0  0  0  0  0  0  0  0  0
   -6.6150    2.4040  -21.9200 H   0  0  0  0  0  0  0  0  0  0  0  0
   -7.1880    4.5490  -23.4870 H   0  0  0  0  0  0  0  0  0  0  0  0
   -9.1740    3.7850  -24.9170 H   0  0  0  0  0  0  0  0  0  0  0  0
  -10.0880    2.0090  -22.8330 H   0  0  0  0  0  0  0  0  0  0  0  0
   -9.9170    1.7010  -24.5980 H   0  0  0  0  0  0  0  0  0  0  0  0
  1  2  2  0  0  0  0
  2  3  1  0  0  0  0
  2 22  1  0  0  0  0
  3  4  1  0  0  0  0
  3 20  1  0  0  0  0
  3 21  1  0  0  0  0
  4  5  2  0  0  0  0
  4 13  1  0  0  0  0
  5  6  1  0  0  0  0
  5 19  1  0  0  0  0
  6  7  2  0  0  0  0
  7  8  1  0  0  0  0
  7 18  1  0  0  0  0
  8  9  2  0  0  0  0
  8 13  1  0  0  0  0
  9 10  1  0  0  0  0
  9 17  1  0  0  0  0
 10 11  2  0  0  0  0
 10 16  1  0  0  0  0
 11 12  1  0  0  0  0
 11 15  1  0  0  0  0
 12 13  2  0  0  0  0
 12 14  1  0  0  0  0
 22 23  1  0  0  0  0
 23 24  1  0  0  0  0
 23 35  1  0  0  0  0
 23 36  1  0  0  0  0
 24 25  2  0  0  0  0
 24 30  1  0  0  0  0
 25 26  1  0  0  0  0
 25 34  1  0  0  0  0
 26 27  2  0  0  0  0
 26 33  1  0  0  0  0
 27 28  1  0  0  0  0
 27 32  1  0  0  0  0
 28 29  1  0  0  0  0
 28 30  2  0  0  0  0
 30 31  1  0  0  0  0
 37 22  1  1  0  0  0
 37 38  1  0  0  0  0
 37 49  1  0  0  0  0
 37 52  1  0  0  0  0
 38 39  1  0  0  0  0
 38 57  1  0  0  0  0
 38 58  1  0  0  0  0
 39 40  1  0  0  0  0
 39 48  1  0  0  0  0
 39 56  1  6  0  0  0
 40 41  1  0  0  0  0
 40 42  1  0  0  0  0
 40 47  1  0  0  0  0
 41 42  1  0  0  0  0
 41 45  1  0  0  0  0
 41 46  1  0  0  0  0
 42 43  1  0  0  0  0
 42 44  1  0  0  0  0
 48 49  1  0  0  0  0
 48 52  1  0  0  0  0
 48 55  1  1  0  0  0
 49 50  1  0  0  0  0
 49 51  1  0  0  0  0
 52 53  1  0  0  0  0
 52 54  1  0  0  0  0
M  CHG  1  39   1
M  END
>  <MODEL>
       1

$$$$
