tmp_first_model_19_77.pdb
 OpenBabel08282503233D

 55 60  0  0  1  0  0  0  0  0999 V2000
   -7.8770   -3.5930  -24.1080 C   0  0  0  0  0  0  0  0  0  0  0  0
   -8.2860   -2.8490  -22.8280 C   0  0  1  0  0  0  0  0  0  0  0  0
   -7.0820   -2.6120  -21.8890 C   0  0  0  0  0  0  0  0  0  0  0  0
   -7.4070   -1.3790  -21.2010 N   0  0  0  0  0  0  0  0  0  0  0  0
   -6.6020   -0.8080  -20.1770 C   0  0  0  0  0  0  0  0  0  0  0  0
   -6.9050   -1.0460  -18.8630 C   0  0  0  0  0  0  0  0  0  0  0  0
   -6.1960   -0.5600  -17.8150 N   0  0  0  0  0  0  0  0  0  0  0  0
   -5.1680    0.2070  -18.0800 C   0  0  0  0  0  0  0  0  0  0  0  0
   -4.7310    0.5310  -19.3970 C   0  0  0  0  0  0  0  0  0  0  0  0
   -3.6000    1.3590  -19.6420 C   0  0  0  0  0  0  0  0  0  0  0  0
   -3.2050    1.6390  -20.9180 C   0  0  0  0  0  0  0  0  0  0  0  0
   -3.9130    1.0900  -22.0110 C   0  0  0  0  0  0  0  0  0  0  0  0
   -5.0050    0.2800  -21.8020 C   0  0  0  0  0  0  0  0  0  0  0  0
   -5.4570   -0.0050  -20.4860 C   0  0  0  0  0  0  0  0  0  0  0  0
   -5.5650   -0.0960  -22.6540 H   0  0  0  0  0  0  0  0  0  0  0  0
   -3.6150    1.3400  -23.0250 H   0  0  0  0  0  0  0  0  0  0  0  0
   -2.3580    2.2960  -21.1000 H   0  0  0  0  0  0  0  0  0  0  0  0
   -3.0740    1.7730  -18.7850 H   0  0  0  0  0  0  0  0  0  0  0  0
   -4.6230    0.6150  -17.2280 H   0  0  0  0  0  0  0  0  0  0  0  0
   -7.7590   -1.6680  -18.6040 H   0  0  0  0  0  0  0  0  0  0  0  0
   -8.4320   -0.6600  -21.7720 C   0  0  0  0  0  0  0  0  0  0  0  0
   -8.8210    0.4070  -21.3470 O   0  0  0  0  0  0  0  0  0  0  0  0
   -8.9710   -1.4500  -23.0000 C   0  0  1  0  0  0  0  0  0  0  0  0
   -8.5180   -0.7780  -24.3250 C   0  0  0  0  0  0  0  0  0  0  0  0
   -9.1970    0.4730  -24.5770 N   0  0  0  0  0  0  0  0  0  0  0  0
   -8.4310    1.6640  -24.9090 C   0  0  0  0  0  0  0  0  0  0  0  0
   -8.1340    2.5200  -23.7130 C   0  0  0  0  0  0  0  0  0  0  0  0
   -8.9520    3.3770  -23.0680 C   0  0  0  0  0  0  0  0  0  0  0  0
   -8.2680    3.9230  -22.0310 O   0  0  0  0  0  0  0  0  0  0  0  0
   -7.0620    3.3350  -22.0730 C   0  0  0  0  0  0  0  0  0  0  0  0
   -6.9060    2.5100  -23.0590 N   0  0  0  0  0  0  0  0  0  0  0  0
   -6.3930    3.5790  -21.2570 H   0  0  0  0  0  0  0  0  0  0  0  0
   -9.9860    3.6650  -23.1770 H   0  0  0  0  0  0  0  0  0  0  0  0
   -9.0290    2.2250  -25.6340 H   0  0  0  0  0  0  0  0  0  0  0  0
   -7.4870    1.3610  -25.3730 H   0  0  0  0  0  0  0  0  0  0  0  0
  -10.5520    0.6020  -24.4420 C   0  0  0  0  0  0  0  0  0  0  0  0
  -11.1500    1.5830  -24.8700 O   0  0  0  0  0  0  0  0  0  0  0  0
  -11.2350   -0.5030  -23.6880 C   0  0  0  0  0  0  0  0  0  0  0  0
  -12.6310   -0.5070  -23.6340 C   0  0  0  0  0  0  0  0  0  0  0  0
  -13.3010   -1.3990  -22.8200 C   0  0  0  0  0  0  0  0  0  0  0  0
  -12.5510   -2.2670  -22.0350 C   0  0  0  0  0  0  0  0  0  0  0  0
  -13.1950   -3.0910  -21.1930 F   0  0  0  0  0  0  0  0  0  0  0  0
  -11.1740   -2.2960  -22.0800 C   0  0  0  0  0  0  0  0  0  0  0  0
  -10.4910   -1.4480  -22.9620 C   0  0  0  0  0  0  0  0  0  0  0  0
  -10.6600   -2.9610  -21.3940 H   0  0  0  0  0  0  0  0  0  0  0  0
  -14.3810   -1.4230  -22.7500 H   0  0  0  0  0  0  0  0  0  0  0  0
  -13.1630    0.2250  -24.2320 H   0  0  0  0  0  0  0  0  0  0  0  0
   -8.7000   -1.4760  -25.1590 H   0  0  0  0  0  0  0  0  0  0  0  0
   -7.4460   -0.5600  -24.2540 H   0  0  0  0  0  0  0  0  0  0  0  0
   -6.1430   -2.5150  -22.4590 H   0  0  0  0  0  0  0  0  0  0  0  0
   -6.9420   -3.4280  -21.1690 H   0  0  0  0  0  0  0  0  0  0  0  0
   -9.0070   -3.4730  -22.2950 H   0  0  0  0  0  0  0  0  0  0  0  0
   -8.7230   -3.7360  -24.7910 H   0  0  0  0  0  0  0  0  0  0  0  0
   -7.0990   -3.0470  -24.6560 H   0  0  0  0  0  0  0  0  0  0  0  0
   -7.4710   -4.5830  -23.8700 H   0  0  0  0  0  0  0  0  0  0  0  0
  1  2  1  0  0  0  0
  1 53  1  0  0  0  0
  1 54  1  0  0  0  0
  1 55  1  0  0  0  0
  2  3  1  0  0  0  0
  2 23  1  0  0  0  0
  2 52  1  1  0  0  0
  3  4  1  0  0  0  0
  3 50  1  0  0  0  0
  3 51  1  0  0  0  0
  4  5  1  0  0  0  0
  4 21  1  0  0  0  0
  5  6  2  0  0  0  0
  5 14  1  0  0  0  0
  6  7  1  0  0  0  0
  6 20  1  0  0  0  0
  7  8  2  0  0  0  0
  8  9  1  0  0  0  0
  8 19  1  0  0  0  0
  9 10  2  0  0  0  0
  9 14  1  0  0  0  0
 10 11  1  0  0  0  0
 10 18  1  0  0  0  0
 11 12  2  0  0  0  0
 11 17  1  0  0  0  0
 12 13  1  0  0  0  0
 12 16  1  0  0  0  0
 13 14  2  0  0  0  0
 13 15  1  0  0  0  0
 21 22  2  0  0  0  0
 23 21  1  1  0  0  0
 23 24  1  0  0  0  0
 23 44  1  0  0  0  0
 24 25  1  0  0  0  0
 24 48  1  0  0  0  0
 24 49  1  0  0  0  0
 25 26  1  0  0  0  0
 25 36  1  0  0  0  0
 26 27  1  0  0  0  0
 26 34  1  0  0  0  0
 26 35  1  0  0  0  0
 27 28  2  0  0  0  0
 27 31  1  0  0  0  0
 28 29  1  0  0  0  0
 28 33  1  0  0  0  0
 29 30  1  0  0  0  0
 30 31  2  0  0  0  0
 30 32  1  0  0  0  0
 36 37  2  0  0  0  0
 36 38  1  0  0  0  0
 38 39  2  0  0  0  0
 38 44  1  0  0  0  0
 39 40  1  0  0  0  0
 39 47  1  0  0  0  0
 40 41  2  0  0  0  0
 40 46  1  0  0  0  0
 41 42  1  0  0  0  0
 41 43  1  0  0  0  0
 43 44  2  0  0  0  0
 43 45  1  0  0  0  0
M  END
>  <MODEL>
       1

$$$$
