tmp_first_model_6_56.pdb
 OpenBabel08272519583D

 57 62  0  0  1  0  0  0  0  0999 V2000
   -7.4430   -3.4640  -23.8150 C   0  0  0  0  0  0  0  0  0  0  0  0
   -8.3550   -2.8940  -22.7200 C   0  0  1  0  0  0  0  0  0  0  0  0
   -7.6430   -2.7330  -21.3610 C   0  0  0  0  0  0  0  0  0  0  0  0
   -7.3670   -1.3140  -21.2700 N   0  0  0  0  0  0  0  0  0  0  0  0
   -6.6030   -0.7610  -20.2180 C   0  0  0  0  0  0  0  0  0  0  0  0
   -6.8910   -1.0730  -18.9150 C   0  0  0  0  0  0  0  0  0  0  0  0
   -6.2160   -0.5980  -17.8430 N   0  0  0  0  0  0  0  0  0  0  0  0
   -5.1980    0.1960  -18.0740 C   0  0  0  0  0  0  0  0  0  0  0  0
   -4.7660    0.5700  -19.3780 C   0  0  0  0  0  0  0  0  0  0  0  0
   -3.6260    1.3950  -19.5780 C   0  0  0  0  0  0  0  0  0  0  0  0
   -3.2260    1.7270  -20.8430 C   0  0  0  0  0  0  0  0  0  0  0  0
   -3.9530    1.2620  -21.9590 C   0  0  0  0  0  0  0  0  0  0  0  0
   -5.0560    0.4610  -21.7930 C   0  0  0  0  0  0  0  0  0  0  0  0
   -5.4920    0.0950  -20.4920 C   0  0  0  0  0  0  0  0  0  0  0  0
   -5.5910    0.1000  -22.6640 H   0  0  0  0  0  0  0  0  0  0  0  0
   -3.6430    1.5350  -22.9640 H   0  0  0  0  0  0  0  0  0  0  0  0
   -2.3490    2.3470  -21.0030 H   0  0  0  0  0  0  0  0  0  0  0  0
   -3.0830    1.7490  -18.7070 H   0  0  0  0  0  0  0  0  0  0  0  0
   -4.6530    0.5760  -17.2090 H   0  0  0  0  0  0  0  0  0  0  0  0
   -7.7290   -1.7290  -18.6850 H   0  0  0  0  0  0  0  0  0  0  0  0
   -8.2510   -0.5590  -22.0130 C   0  0  0  0  0  0  0  0  0  0  0  0
   -8.4060    0.6350  -21.8920 O   0  0  0  0  0  0  0  0  0  0  0  0
   -8.9960   -1.4970  -22.9960 C   0  0  1  0  0  0  0  0  0  0  0  0
   -8.7940   -0.9950  -24.4500 C   0  0  0  0  0  0  0  0  0  0  0  0
   -9.4130    0.3010  -24.6450 N   0  0  0  0  0  0  0  0  0  0  0  0
   -8.6790    1.3970  -25.2550 C   0  0  0  0  0  0  0  0  0  0  0  0
   -8.0820    2.3620  -24.2670 C   0  0  0  0  0  0  0  0  0  0  0  0
   -6.7770    2.3040  -24.0060 N   0  0  0  0  0  0  0  0  0  0  0  0
   -6.3190    3.2890  -23.2280 C   0  0  0  0  0  0  0  0  0  0  0  0
   -7.1180    4.2970  -22.7220 C   0  0  0  0  0  0  0  0  0  0  0  0
   -8.4730    4.2140  -23.0180 C   0  0  0  0  0  0  0  0  0  0  0  0
   -8.9650    3.2360  -23.7640 N   0  0  0  0  0  0  0  0  0  0  0  0
   -9.1750    4.9740  -22.6710 H   0  0  0  0  0  0  0  0  0  0  0  0
   -6.7080    5.1200  -22.1460 H   0  0  0  0  0  0  0  0  0  0  0  0
   -5.2550    3.2660  -23.0060 H   0  0  0  0  0  0  0  0  0  0  0  0
   -9.3990    2.0070  -25.7920 H   0  0  0  0  0  0  0  0  0  0  0  0
   -7.9340    0.9980  -25.9450 H   0  0  0  0  0  0  0  0  0  0  0  0
  -10.7100    0.5250  -24.2770 C   0  0  0  0  0  0  0  0  0  0  0  0
  -11.3540    1.4810  -24.6960 O   0  0  0  0  0  0  0  0  0  0  0  0
  -11.2900   -0.4590  -23.3090 C   0  0  0  0  0  0  0  0  0  0  0  0
  -12.6580   -0.3600  -23.0400 C   0  0  0  0  0  0  0  0  0  0  0  0
  -13.2940   -1.3220  -22.2800 C   0  0  0  0  0  0  0  0  0  0  0  0
  -12.5110   -2.3310  -21.7290 C   0  0  0  0  0  0  0  0  0  0  0  0
  -13.1220   -3.2580  -20.9740 F   0  0  0  0  0  0  0  0  0  0  0  0
  -11.1480   -2.4120  -21.9180 C   0  0  0  0  0  0  0  0  0  0  0  0
  -10.5030   -1.4660  -22.7260 C   0  0  0  0  0  0  0  0  0  0  0  0
  -10.6220   -3.2280  -21.4320 H   0  0  0  0  0  0  0  0  0  0  0  0
  -14.3610   -1.3140  -22.0980 H   0  0  0  0  0  0  0  0  0  0  0  0
  -13.2110    0.4680  -23.4690 H   0  0  0  0  0  0  0  0  0  0  0  0
   -9.2290   -1.7410  -25.1340 H   0  0  0  0  0  0  0  0  0  0  0  0
   -7.7300   -0.9010  -24.6750 H   0  0  0  0  0  0  0  0  0  0  0  0
   -6.7110   -3.3000  -21.2840 H   0  0  0  0  0  0  0  0  0  0  0  0
   -8.3120   -3.0430  -20.5450 H   0  0  0  0  0  0  0  0  0  0  0  0
   -9.1500   -3.6340  -22.6220 H   0  0  0  0  0  0  0  0  0  0  0  0
   -6.5740   -2.8290  -24.0230 H   0  0  0  0  0  0  0  0  0  0  0  0
   -8.0060   -3.5940  -24.7450 H   0  0  0  0  0  0  0  0  0  0  0  0
   -7.0820   -4.4560  -23.5180 H   0  0  0  0  0  0  0  0  0  0  0  0
  1  2  1  0  0  0  0
  1 55  1  0  0  0  0
  1 56  1  0  0  0  0
  1 57  1  0  0  0  0
  2  3  1  0  0  0  0
  2 23  1  0  0  0  0
  2 54  1  1  0  0  0
  3  4  1  0  0  0  0
  3 52  1  0  0  0  0
  3 53  1  0  0  0  0
  4  5  1  0  0  0  0
  4 21  1  0  0  0  0
  5  6  2  0  0  0  0
  5 14  1  0  0  0  0
  6  7  1  0  0  0  0
  6 20  1  0  0  0  0
  7  8  2  0  0  0  0
  8  9  1  0  0  0  0
  8 19  1  0  0  0  0
  9 10  2  0  0  0  0
  9 14  1  0  0  0  0
 10 11  1  0  0  0  0
 10 18  1  0  0  0  0
 11 12  2  0  0  0  0
 11 17  1  0  0  0  0
 12 13  1  0  0  0  0
 12 16  1  0  0  0  0
 13 14  2  0  0  0  0
 13 15  1  0  0  0  0
 21 22  2  0  0  0  0
 23 21  1  1  0  0  0
 23 24  1  0  0  0  0
 23 46  1  0  0  0  0
 24 25  1  0  0  0  0
 24 50  1  0  0  0  0
 24 51  1  0  0  0  0
 25 26  1  0  0  0  0
 25 38  1  0  0  0  0
 26 27  1  0  0  0  0
 26 36  1  0  0  0  0
 26 37  1  0  0  0  0
 27 28  2  0  0  0  0
 27 32  1  0  0  0  0
 28 29  1  0  0  0  0
 29 30  2  0  0  0  0
 29 35  1  0  0  0  0
 30 31  1  0  0  0  0
 30 34  1  0  0  0  0
 31 32  2  0  0  0  0
 31 33  1  0  0  0  0
 38 39  2  0  0  0  0
 38 40  1  0  0  0  0
 40 41  2  0  0  0  0
 40 46  1  0  0  0  0
 41 42  1  0  0  0  0
 41 49  1  0  0  0  0
 42 43  2  0  0  0  0
 42 48  1  0  0  0  0
 43 44  1  0  0  0  0
 43 45  1  0  0  0  0
 45 46  2  0  0  0  0
 45 47  1  0  0  0  0
M  END
>  <MODEL>
       1

$$$$
