tmp_first_model_6_24.pdb
 OpenBabel08272519583D

 65 70  0  0  1  0  0  0  0  0999 V2000
   -5.0030   -7.4630  -22.8160 O   0  0  0  0  0  0  0  0  0  0  0  0
   -5.9110   -7.3360  -23.6170 C   0  0  0  0  0  0  0  0  0  0  0  0
   -7.2260   -6.6250  -23.2620 C   0  0  0  0  0  0  0  0  0  0  0  0
   -7.2180   -5.1720  -23.5980 N   0  3  1  0  0  0  0  0  0  0  0  0
   -7.2990   -4.9430  -25.0930 C   0  0  0  0  0  0  0  0  0  0  0  0
   -7.2280   -3.4830  -25.4250 C   0  0  0  0  0  0  0  0  0  0  0  0
   -6.8110   -3.0960  -26.6960 C   0  0  0  0  0  0  0  0  0  0  0  0
   -6.6820   -1.7570  -27.0340 C   0  0  0  0  0  0  0  0  0  0  0  0
   -6.9690   -0.7990  -26.0670 C   0  0  0  0  0  0  0  0  0  0  0  0
   -6.7810    0.8910  -26.4530 Cl  0  0  0  0  0  0  0  0  0  0  0  0
   -7.4040   -1.1630  -24.8020 C   0  0  0  0  0  0  0  0  0  0  0  0
   -7.5710   -2.5160  -24.4820 C   0  0  0  0  0  0  0  0  0  0  0  0
   -8.0520   -2.9000  -23.0940 C   0  0  2  0  0  0  0  0  0  0  0  0
   -9.2190   -2.0440  -22.5850 C   0  0  0  0  0  0  0  0  0  0  0  0
   -8.6360   -1.0480  -21.5700 C   0  0  0  0  0  0  0  0  0  0  0  0
   -7.2980   -1.5460  -21.2970 N   0  0  0  0  0  0  0  0  0  0  0  0
   -6.5210   -0.9620  -20.2540 C   0  0  0  0  0  0  0  0  0  0  0  0
   -6.8810   -1.1670  -18.9440 C   0  0  0  0  0  0  0  0  0  0  0  0
   -6.2410   -0.6410  -17.8720 N   0  0  0  0  0  0  0  0  0  0  0  0
   -5.2240    0.1540  -18.1050 C   0  0  0  0  0  0  0  0  0  0  0  0
   -4.7730    0.5000  -19.4090 C   0  0  0  0  0  0  0  0  0  0  0  0
   -3.6730    1.3760  -19.6060 C   0  0  0  0  0  0  0  0  0  0  0  0
   -3.3010    1.7460  -20.8690 C   0  0  0  0  0  0  0  0  0  0  0  0
   -4.0190    1.2660  -21.9860 C   0  0  0  0  0  0  0  0  0  0  0  0
   -5.0670    0.3920  -21.8260 C   0  0  0  0  0  0  0  0  0  0  0  0
   -5.4580   -0.0370  -20.5270 C   0  0  0  0  0  0  0  0  0  0  0  0
   -5.5850    0.0070  -22.7040 H   0  0  0  0  0  0  0  0  0  0  0  0
   -3.7180    1.5630  -22.9850 H   0  0  0  0  0  0  0  0  0  0  0  0
   -2.4590    2.4150  -21.0230 H   0  0  0  0  0  0  0  0  0  0  0  0
   -3.1450    1.7500  -18.7330 H   0  0  0  0  0  0  0  0  0  0  0  0
   -4.7110    0.5780  -17.2400 H   0  0  0  0  0  0  0  0  0  0  0  0
   -7.7350   -1.8010  -18.7050 H   0  0  0  0  0  0  0  0  0  0  0  0
   -6.9370   -2.6140  -22.0810 C   0  0  0  0  0  0  0  0  0  0  0  0
   -5.9270   -3.2980  -22.0130 O   0  0  0  0  0  0  0  0  0  0  0  0
   -9.2170   -1.0330  -20.6510 H   0  0  0  0  0  0  0  0  0  0  0  0
   -8.6150   -0.0130  -21.9400 H   0  0  0  0  0  0  0  0  0  0  0  0
   -9.7430   -1.5400  -23.4010 H   0  0  0  0  0  0  0  0  0  0  0  0
   -9.9540   -2.6890  -22.0920 H   0  0  0  0  0  0  0  0  0  0  0  0
   -8.3580   -4.4000  -22.9880 C   0  0  0  0  0  0  0  0  0  0  0  0
   -8.4600   -4.6650  -21.9330 H   0  0  0  0  0  0  0  0  0  0  0  0
   -9.2930   -4.6490  -23.5010 H   0  0  0  0  0  0  0  0  0  0  0  0
   -7.6080   -0.3830  -24.0720 H   0  0  0  0  0  0  0  0  0  0  0  0
   -6.3520   -1.4490  -28.0210 H   0  0  0  0  0  0  0  0  0  0  0  0
   -6.5700   -3.8640  -27.4250 H   0  0  0  0  0  0  0  0  0  0  0  0
   -8.2440   -5.3720  -25.4610 H   0  0  0  0  0  0  0  0  0  0  0  0
   -6.4890   -5.4690  -25.5950 H   0  0  0  0  0  0  0  0  0  0  0  0
   -6.3530   -4.7280  -23.2050 H   0  0  0  0  0  0  0  0  0  0  0  0
   -7.4000   -6.7630  -22.1930 H   0  0  0  0  0  0  0  0  0  0  0  0
   -8.0530   -7.1090  -23.8000 H   0  0  0  0  0  0  0  0  0  0  0  0
   -5.8570   -7.8080  -24.8970 N   0  0  0  0  0  0  0  0  0  0  0  0
   -4.7900   -8.6740  -25.3640 C   0  0  0  0  0  0  0  0  0  0  0  0
   -4.5910   -8.5590  -26.8670 C   0  0  1  0  0  0  0  0  0  0  0  0
   -5.8440   -8.6390  -27.7820 C   0  0  0  0  0  0  0  0  0  0  0  0
   -5.5410   -7.2170  -28.2890 C   0  0  1  0  0  0  0  0  0  0  0  0
   -6.5490   -6.3080  -27.9520 F   0  0  0  0  0  0  0  0  0  0  0  0
   -4.3130   -7.1170  -27.3670 C   0  0  0  0  0  0  0  0  0  0  0  0
   -3.3430   -6.9130  -27.8370 H   0  0  0  0  0  0  0  0  0  0  0  0
   -4.4730   -6.3800  -26.5780 H   0  0  0  0  0  0  0  0  0  0  0  0
   -5.3560   -7.1170  -29.3630 H   0  0  0  0  0  0  0  0  0  0  0  0
   -5.7860   -9.4210  -28.5410 H   0  0  0  0  0  0  0  0  0  0  0  0
   -6.8170   -8.7560  -27.2910 H   0  0  0  0  0  0  0  0  0  0  0  0
   -3.8300   -9.2750  -27.1880 H   0  0  0  0  0  0  0  0  0  0  0  0
   -4.9920   -9.7050  -25.0490 H   0  0  0  0  0  0  0  0  0  0  0  0
   -3.8770   -8.3480  -24.8570 H   0  0  0  0  0  0  0  0  0  0  0  0
   -6.6770   -7.6790  -25.4670 H   0  0  0  0  0  0  0  0  0  0  0  0
  1  2  2  0  0  0  0
  2  3  1  0  0  0  0
  2 50  1  0  0  0  0
  3  4  1  0  0  0  0
  3 48  1  0  0  0  0
  3 49  1  0  0  0  0
  4  5  1  0  0  0  0
  4 39  1  0  0  0  0
  4 47  1  1  0  0  0
  5  6  1  0  0  0  0
  5 45  1  0  0  0  0
  5 46  1  0  0  0  0
  6  7  2  0  0  0  0
  6 12  1  0  0  0  0
  7  8  1  0  0  0  0
  7 44  1  0  0  0  0
  8  9  2  0  0  0  0
  8 43  1  0  0  0  0
  9 10  1  0  0  0  0
  9 11  1  0  0  0  0
 11 12  2  0  0  0  0
 11 42  1  0  0  0  0
 13 12  1  6  0  0  0
 13 14  1  0  0  0  0
 13 33  1  0  0  0  0
 13 39  1  0  0  0  0
 14 15  1  0  0  0  0
 14 37  1  0  0  0  0
 14 38  1  0  0  0  0
 15 16  1  0  0  0  0
 15 35  1  0  0  0  0
 15 36  1  0  0  0  0
 16 17  1  0  0  0  0
 16 33  1  0  0  0  0
 17 18  2  0  0  0  0
 17 26  1  0  0  0  0
 18 19  1  0  0  0  0
 18 32  1  0  0  0  0
 19 20  2  0  0  0  0
 20 21  1  0  0  0  0
 20 31  1  0  0  0  0
 21 22  2  0  0  0  0
 21 26  1  0  0  0  0
 22 23  1  0  0  0  0
 22 30  1  0  0  0  0
 23 24  2  0  0  0  0
 23 29  1  0  0  0  0
 24 25  1  0  0  0  0
 24 28  1  0  0  0  0
 25 26  2  0  0  0  0
 25 27  1  0  0  0  0
 33 34  2  0  0  0  0
 39 40  1  0  0  0  0
 39 41  1  0  0  0  0
 50 51  1  0  0  0  0
 50 65  1  0  0  0  0
 51 52  1  0  0  0  0
 51 63  1  0  0  0  0
 51 64  1  0  0  0  0
 52 53  1  0  0  0  0
 52 56  1  0  0  0  0
 52 62  1  6  0  0  0
 53 54  1  0  0  0  0
 53 60  1  0  0  0  0
 53 61  1  0  0  0  0
 54 55  1  0  0  0  0
 54 56  1  0  0  0  0
 54 59  1  6  0  0  0
 56 57  1  0  0  0  0
 56 58  1  0  0  0  0
M  CHG  1   4   1
M  END
>  <MODEL>
       1

$$$$
