tmp_first_model_2_79.pdb
 OpenBabel08272517383D

 45 49  0  0  0  0  0  0  0  0999 V2000
   -7.6550   -4.1060  -23.8030 C   0  0  0  0  0  0  0  0  0  0  0  0
   -7.7880   -2.9380  -22.9430 N   0  0  0  0  0  0  0  0  0  0  0  0
   -6.7770   -2.5650  -22.0910 C   0  0  0  0  0  0  0  0  0  0  0  0
   -5.6460   -2.9970  -22.0350 O   0  0  0  0  0  0  0  0  0  0  0  0
   -7.3020   -1.5570  -21.2660 N   0  0  0  0  0  0  0  0  0  0  0  0
   -6.5850   -0.9140  -20.2290 C   0  0  0  0  0  0  0  0  0  0  0  0
   -6.9620   -1.0940  -18.9220 C   0  0  0  0  0  0  0  0  0  0  0  0
   -6.3040   -0.5710  -17.8580 N   0  0  0  0  0  0  0  0  0  0  0  0
   -5.2570    0.1730  -18.1170 C   0  0  0  0  0  0  0  0  0  0  0  0
   -4.7920    0.4670  -19.4290 C   0  0  0  0  0  0  0  0  0  0  0  0
   -3.6730    1.3100  -19.6370 C   0  0  0  0  0  0  0  0  0  0  0  0
   -3.2770    1.6230  -20.9070 C   0  0  0  0  0  0  0  0  0  0  0  0
   -3.9820    1.1200  -22.0240 C   0  0  0  0  0  0  0  0  0  0  0  0
   -5.0690    0.2990  -21.8500 C   0  0  0  0  0  0  0  0  0  0  0  0
   -5.4810   -0.0670  -20.5350 C   0  0  0  0  0  0  0  0  0  0  0  0
   -5.6190   -0.0650  -22.7140 H   0  0  0  0  0  0  0  0  0  0  0  0
   -3.6670    1.3980  -23.0260 H   0  0  0  0  0  0  0  0  0  0  0  0
   -2.4250    2.2760  -21.0650 H   0  0  0  0  0  0  0  0  0  0  0  0
   -3.1690    1.7080  -18.7610 H   0  0  0  0  0  0  0  0  0  0  0  0
   -4.7160    0.5940  -17.2690 H   0  0  0  0  0  0  0  0  0  0  0  0
   -7.8340   -1.6980  -18.6900 H   0  0  0  0  0  0  0  0  0  0  0  0
   -8.6490   -1.3440  -21.4970 C   0  0  0  0  0  0  0  0  0  0  0  0
   -9.3150   -0.4610  -21.0080 O   0  0  0  0  0  0  0  0  0  0  0  0
   -9.0600   -2.3960  -22.5010 C   0  0  0  0  0  0  0  0  0  0  0  0
  -10.1140   -1.8720  -23.4770 C   0  0  0  0  0  0  0  0  0  0  0  0
  -11.1390   -2.7640  -22.8530 N   0  0  0  0  0  0  0  0  0  0  0  0
  -11.9610   -3.7290  -23.9560 S   0  0  0  0  0  0  0  0  0  0  0  0
  -12.1630   -2.8780  -25.1180 O   0  0  0  0  0  0  0  0  0  0  0  0
  -11.2300   -4.9830  -24.0460 O   0  0  0  0  0  0  0  0  0  0  0  0
  -13.5600   -4.0780  -23.2510 C   0  0  0  0  0  0  0  0  0  0  0  0
  -14.3030   -3.0290  -22.4920 C   0  0  0  0  0  0  0  0  0  0  0  0
  -13.8430   -4.2560  -21.7880 C   0  0  0  0  0  0  0  0  0  0  0  0
  -14.5750   -5.0200  -21.5680 H   0  0  0  0  0  0  0  0  0  0  0  0
  -13.0440   -4.1610  -21.0630 H   0  0  0  0  0  0  0  0  0  0  0  0
  -15.3490   -2.9120  -22.7350 H   0  0  0  0  0  0  0  0  0  0  0  0
  -13.7550   -2.1220  -22.2760 H   0  0  0  0  0  0  0  0  0  0  0  0
  -14.1290   -4.7240  -23.9100 H   0  0  0  0  0  0  0  0  0  0  0  0
  -10.1070   -3.4080  -22.0080 C   0  0  0  0  0  0  0  0  0  0  0  0
   -9.8860   -4.4400  -22.2790 H   0  0  0  0  0  0  0  0  0  0  0  0
  -10.3270   -3.3450  -20.9530 H   0  0  0  0  0  0  0  0  0  0  0  0
  -10.3660   -0.8200  -23.3480 H   0  0  0  0  0  0  0  0  0  0  0  0
   -9.9200   -2.0860  -24.5260 H   0  0  0  0  0  0  0  0  0  0  0  0
   -8.6270   -4.3810  -24.2200 H   0  0  0  0  0  0  0  0  0  0  0  0
   -6.9730   -3.8930  -24.6300 H   0  0  0  0  0  0  0  0  0  0  0  0
   -7.2580   -4.9620  -23.2460 H   0  0  0  0  0  0  0  0  0  0  0  0
  1  2  1  0  0  0  0
  1 43  1  0  0  0  0
  1 44  1  0  0  0  0
  1 45  1  0  0  0  0
  2  3  1  0  0  0  0
  2 24  1  0  0  0  0
  3  4  2  0  0  0  0
  3  5  1  0  0  0  0
  5  6  1  0  0  0  0
  5 22  1  0  0  0  0
  6  7  2  0  0  0  0
  6 15  1  0  0  0  0
  7  8  1  0  0  0  0
  7 21  1  0  0  0  0
  8  9  2  0  0  0  0
  9 10  1  0  0  0  0
  9 20  1  0  0  0  0
 10 11  2  0  0  0  0
 10 15  1  0  0  0  0
 11 12  1  0  0  0  0
 11 19  1  0  0  0  0
 12 13  2  0  0  0  0
 12 18  1  0  0  0  0
 13 14  1  0  0  0  0
 13 17  1  0  0  0  0
 14 15  2  0  0  0  0
 14 16  1  0  0  0  0
 22 23  2  0  0  0  0
 22 24  1  0  0  0  0
 24 25  1  0  0  0  0
 24 38  1  0  0  0  0
 25 26  1  0  0  0  0
 25 41  1  0  0  0  0
 25 42  1  0  0  0  0
 26 27  1  0  0  0  0
 26 38  1  0  0  0  0
 27 28  2  0  0  0  0
 27 29  2  0  0  0  0
 27 30  1  0  0  0  0
 30 31  1  0  0  0  0
 30 32  1  0  0  0  0
 30 37  1  0  0  0  0
 31 32  1  0  0  0  0
 31 35  1  0  0  0  0
 31 36  1  0  0  0  0
 32 33  1  0  0  0  0
 32 34  1  0  0  0  0
 38 39  1  0  0  0  0
 38 40  1  0  0  0  0
M  END
>  <MODEL>
       1

$$$$
