tmp_first_model_14_73.pdb
 OpenBabel08282500413D

 50 53  0  0  1  0  0  0  0  0999 V2000
   -5.5990   -3.0270  -21.5800 O   0  0  0  0  0  0  0  0  0  0  0  0
   -6.7580   -2.7540  -21.8610 C   0  0  0  0  0  0  0  0  0  0  0  0
   -7.4150   -1.4810  -21.2710 C   0  0  0  0  0  0  0  0  0  0  0  0
   -6.5800   -0.8320  -20.1910 C   0  0  0  0  0  0  0  0  0  0  0  0
   -6.8750   -1.0390  -18.8720 C   0  0  0  0  0  0  0  0  0  0  0  0
   -6.1970   -0.5150  -17.8180 N   0  0  0  0  0  0  0  0  0  0  0  0
   -5.1560    0.2310  -18.0750 C   0  0  0  0  0  0  0  0  0  0  0  0
   -4.7160    0.5310  -19.3880 C   0  0  0  0  0  0  0  0  0  0  0  0
   -3.5880    1.3560  -19.6260 C   0  0  0  0  0  0  0  0  0  0  0  0
   -3.1870    1.6320  -20.9020 C   0  0  0  0  0  0  0  0  0  0  0  0
   -3.9010    1.0870  -21.9940 C   0  0  0  0  0  0  0  0  0  0  0  0
   -4.9980    0.2880  -21.7880 C   0  0  0  0  0  0  0  0  0  0  0  0
   -5.4450   -0.0140  -20.4790 C   0  0  0  0  0  0  0  0  0  0  0  0
   -5.5270   -0.1320  -22.6370 H   0  0  0  0  0  0  0  0  0  0  0  0
   -3.5770    1.3110  -23.0040 H   0  0  0  0  0  0  0  0  0  0  0  0
   -2.3280    2.2720  -21.0860 H   0  0  0  0  0  0  0  0  0  0  0  0
   -3.0560    1.7730  -18.7720 H   0  0  0  0  0  0  0  0  0  0  0  0
   -4.6030    0.6280  -17.2180 H   0  0  0  0  0  0  0  0  0  0  0  0
   -7.7170   -1.6670  -18.5840 H   0  0  0  0  0  0  0  0  0  0  0  0
   -7.6150   -0.7500  -22.0670 H   0  0  0  0  0  0  0  0  0  0  0  0
   -8.3950   -1.7470  -20.8490 H   0  0  0  0  0  0  0  0  0  0  0  0
   -7.5200   -3.5830  -22.6610 N   0  0  0  0  0  0  0  0  0  0  0  0
   -8.6630   -3.1240  -23.4510 C   0  0  0  0  0  0  0  0  0  0  0  0
   -9.7330   -4.1990  -23.5640 C   0  0  0  0  0  0  0  0  0  0  0  0
   -9.1560   -5.4960  -24.1060 C   0  0  0  0  0  0  0  0  0  0  0  0
   -7.9840   -5.9340  -23.2420 C   0  0  0  0  0  0  0  0  0  0  0  0
   -6.9120   -4.8510  -23.1000 C   0  0  1  0  0  0  0  0  0  0  0  0
   -6.0430   -4.6970  -24.3690 C   0  0  0  0  0  0  0  0  0  0  0  0
   -5.2080   -5.9200  -24.6880 C   0  0  0  0  0  0  0  0  0  0  0  0
   -4.0470   -6.1890  -23.9580 C   0  0  0  0  0  0  0  0  0  0  0  0
   -3.2850   -7.3200  -24.2200 C   0  0  0  0  0  0  0  0  0  0  0  0
   -3.6700   -8.2110  -25.2180 C   0  0  0  0  0  0  0  0  0  0  0  0
   -4.8280   -7.9600  -25.9500 C   0  0  0  0  0  0  0  0  0  0  0  0
   -5.5850   -6.8240  -25.6840 C   0  0  0  0  0  0  0  0  0  0  0  0
   -6.4940   -6.6410  -26.2530 H   0  0  0  0  0  0  0  0  0  0  0  0
   -5.1420   -8.6460  -26.7310 H   0  0  0  0  0  0  0  0  0  0  0  0
   -3.0710   -9.0920  -25.4250 H   0  0  0  0  0  0  0  0  0  0  0  0
   -2.3830   -7.5100  -23.6430 H   0  0  0  0  0  0  0  0  0  0  0  0
   -3.7430   -5.5000  -23.1730 H   0  0  0  0  0  0  0  0  0  0  0  0
   -6.6850   -4.4570  -25.2240 H   0  0  0  0  0  0  0  0  0  0  0  0
   -5.3820   -3.8380  -24.2150 H   0  0  0  0  0  0  0  0  0  0  0  0
   -6.2400   -5.1510  -22.2970 H   0  0  0  0  0  0  0  0  0  0  0  0
   -8.3470   -6.1910  -22.2440 H   0  0  0  0  0  0  0  0  0  0  0  0
   -7.5380   -6.8520  -23.6380 H   0  0  0  0  0  0  0  0  0  0  0  0
   -9.9240   -6.2710  -24.1410 H   0  0  0  0  0  0  0  0  0  0  0  0
   -8.8340   -5.3710  -25.1470 H   0  0  0  0  0  0  0  0  0  0  0  0
  -10.1660   -4.3770  -22.5770 H   0  0  0  0  0  0  0  0  0  0  0  0
  -10.5510   -3.8480  -24.1990 H   0  0  0  0  0  0  0  0  0  0  0  0
   -9.0840   -2.2320  -22.9920 H   0  0  0  0  0  0  0  0  0  0  0  0
   -8.3550   -2.8300  -24.4650 H   0  0  0  0  0  0  0  0  0  0  0  0
  1  2  2  0  0  0  0
  2  3  1  0  0  0  0
  2 22  1  0  0  0  0
  3  4  1  0  0  0  0
  3 20  1  0  0  0  0
  3 21  1  0  0  0  0
  4  5  2  0  0  0  0
  4 13  1  0  0  0  0
  5  6  1  0  0  0  0
  5 19  1  0  0  0  0
  6  7  2  0  0  0  0
  7  8  1  0  0  0  0
  7 18  1  0  0  0  0
  8  9  2  0  0  0  0
  8 13  1  0  0  0  0
  9 10  1  0  0  0  0
  9 17  1  0  0  0  0
 10 11  2  0  0  0  0
 10 16  1  0  0  0  0
 11 12  1  0  0  0  0
 11 15  1  0  0  0  0
 12 13  2  0  0  0  0
 12 14  1  0  0  0  0
 22 23  1  0  0  0  0
 22 27  1  0  0  0  0
 23 24  1  0  0  0  0
 23 49  1  0  0  0  0
 23 50  1  0  0  0  0
 24 25  1  0  0  0  0
 24 47  1  0  0  0  0
 24 48  1  0  0  0  0
 25 26  1  0  0  0  0
 25 45  1  0  0  0  0
 25 46  1  0  0  0  0
 26 27  1  0  0  0  0
 26 43  1  0  0  0  0
 26 44  1  0  0  0  0
 27 28  1  0  0  0  0
 27 42  1  1  0  0  0
 28 29  1  0  0  0  0
 28 40  1  0  0  0  0
 28 41  1  0  0  0  0
 29 30  2  0  0  0  0
 29 34  1  0  0  0  0
 30 31  1  0  0  0  0
 30 39  1  0  0  0  0
 31 32  2  0  0  0  0
 31 38  1  0  0  0  0
 32 33  1  0  0  0  0
 32 37  1  0  0  0  0
 33 34  2  0  0  0  0
 33 36  1  0  0  0  0
 34 35  1  0  0  0  0
M  END
>  <MODEL>
       1

$$$$
