tmp_first_model_2_72.pdb
 OpenBabel08272517383D

 41 44  0  0  0  0  0  0  0  0999 V2000
   -5.9670   -3.3690  -21.2330 O   0  0  0  0  0  0  0  0  0  0  0  0
   -6.6730   -2.6670  -21.9340 C   0  0  0  0  0  0  0  0  0  0  0  0
   -7.3970   -1.4580  -21.2820 C   0  0  0  0  0  0  0  0  0  0  0  0
   -6.5780   -0.8280  -20.1750 C   0  0  0  0  0  0  0  0  0  0  0  0
   -6.8720   -1.0460  -18.8520 C   0  0  0  0  0  0  0  0  0  0  0  0
   -6.1890   -0.5390  -17.7900 N   0  0  0  0  0  0  0  0  0  0  0  0
   -5.1560    0.2240  -18.0610 C   0  0  0  0  0  0  0  0  0  0  0  0
   -4.7200    0.5340  -19.3810 C   0  0  0  0  0  0  0  0  0  0  0  0
   -3.5920    1.3620  -19.6220 C   0  0  0  0  0  0  0  0  0  0  0  0
   -3.1960    1.6380  -20.9020 C   0  0  0  0  0  0  0  0  0  0  0  0
   -3.9120    1.0960  -21.9960 C   0  0  0  0  0  0  0  0  0  0  0  0
   -5.0100    0.2940  -21.7930 C   0  0  0  0  0  0  0  0  0  0  0  0
   -5.4460   -0.0070  -20.4710 C   0  0  0  0  0  0  0  0  0  0  0  0
   -5.5440   -0.1050  -22.6570 H   0  0  0  0  0  0  0  0  0  0  0  0
   -3.5900    1.3240  -23.0090 H   0  0  0  0  0  0  0  0  0  0  0  0
   -2.3340    2.2740  -21.0900 H   0  0  0  0  0  0  0  0  0  0  0  0
   -3.0510    1.7760  -18.7730 H   0  0  0  0  0  0  0  0  0  0  0  0
   -4.5980    0.6300  -17.2160 H   0  0  0  0  0  0  0  0  0  0  0  0
   -7.7230   -1.6730  -18.5870 H   0  0  0  0  0  0  0  0  0  0  0  0
   -8.3300   -1.8440  -20.8480 H   0  0  0  0  0  0  0  0  0  0  0  0
   -7.6810   -0.6960  -22.0160 H   0  0  0  0  0  0  0  0  0  0  0  0
   -6.8350   -2.9510  -23.2800 N   0  0  0  0  0  0  0  0  0  0  0  0
   -5.7780   -3.7100  -23.9510 C   0  0  0  0  0  0  0  0  0  0  0  0
   -4.6690   -2.8520  -24.5670 C   0  0  0  0  0  0  0  0  0  0  0  0
   -5.1230   -2.0220  -25.7770 C   0  0  0  0  0  0  0  0  0  0  0  0
   -6.0550   -0.8890  -25.4210 C   0  0  0  0  0  0  0  0  0  0  0  0
   -5.7200    0.7490  -25.8840 S   0  0  0  0  0  0  0  0  0  0  0  0
   -7.1860    1.3130  -25.1770 C   0  0  0  0  0  0  0  0  0  0  0  0
   -7.8880    0.2960  -24.6020 C   0  0  0  0  0  0  0  0  0  0  0  0
   -7.2330   -0.9660  -24.7230 C   0  0  0  0  0  0  0  0  0  0  0  0
   -7.7680   -2.2500  -24.1440 C   0  0  0  0  0  0  0  0  0  0  0  0
   -8.6940   -2.0530  -23.5970 H   0  0  0  0  0  0  0  0  0  0  0  0
   -8.0530   -2.9250  -24.9590 H   0  0  0  0  0  0  0  0  0  0  0  0
   -8.8450    0.4230  -24.0980 H   0  0  0  0  0  0  0  0  0  0  0  0
   -7.4640    2.3550  -25.2110 H   0  0  0  0  0  0  0  0  0  0  0  0
   -5.6280   -2.6870  -26.4930 H   0  0  0  0  0  0  0  0  0  0  0  0
   -4.2480   -1.6280  -26.3020 H   0  0  0  0  0  0  0  0  0  0  0  0
   -3.8360   -3.4990  -24.8760 H   0  0  0  0  0  0  0  0  0  0  0  0
   -4.2680   -2.1820  -23.7990 H   0  0  0  0  0  0  0  0  0  0  0  0
   -6.2410   -4.2980  -24.7490 H   0  0  0  0  0  0  0  0  0  0  0  0
   -5.3610   -4.4150  -23.2340 H   0  0  0  0  0  0  0  0  0  0  0  0
  1  2  2  0  0  0  0
  2  3  1  0  0  0  0
  2 22  1  0  0  0  0
  3  4  1  0  0  0  0
  3 20  1  0  0  0  0
  3 21  1  0  0  0  0
  4  5  2  0  0  0  0
  4 13  1  0  0  0  0
  5  6  1  0  0  0  0
  5 19  1  0  0  0  0
  6  7  2  0  0  0  0
  7  8  1  0  0  0  0
  7 18  1  0  0  0  0
  8  9  2  0  0  0  0
  8 13  1  0  0  0  0
  9 10  1  0  0  0  0
  9 17  1  0  0  0  0
 10 11  2  0  0  0  0
 10 16  1  0  0  0  0
 11 12  1  0  0  0  0
 11 15  1  0  0  0  0
 12 13  2  0  0  0  0
 12 14  1  0  0  0  0
 22 23  1  0  0  0  0
 22 31  1  0  0  0  0
 23 24  1  0  0  0  0
 23 40  1  0  0  0  0
 23 41  1  0  0  0  0
 24 25  1  0  0  0  0
 24 38  1  0  0  0  0
 24 39  1  0  0  0  0
 25 26  1  0  0  0  0
 25 36  1  0  0  0  0
 25 37  1  0  0  0  0
 26 27  1  0  0  0  0
 26 30  2  0  0  0  0
 27 28  1  0  0  0  0
 28 29  2  0  0  0  0
 28 35  1  0  0  0  0
 29 30  1  0  0  0  0
 29 34  1  0  0  0  0
 30 31  1  0  0  0  0
 31 32  1  0  0  0  0
 31 33  1  0  0  0  0
M  END
>  <MODEL>
       1

$$$$
