tmp_first_model_1_96.pdb
 OpenBabel08272517043D

 66 70  0  0  1  0  0  0  0  0999 V2000
   -8.1440   -5.9460  -27.8840 C   0  0  0  0  0  0  0  0  0  0  0  0
   -8.4890   -4.5740  -27.5620 N   0  0  0  0  0  0  0  0  0  0  0  0
   -7.6570   -3.8210  -26.7870 C   0  0  0  0  0  0  0  0  0  0  0  0
   -6.6070   -4.2470  -26.3240 O   0  0  0  0  0  0  0  0  0  0  0  0
   -8.0900   -2.3660  -26.5590 C   0  0  0  0  0  0  0  0  0  0  0  0
   -8.5860   -2.1360  -25.2300 N   0  0  0  0  0  0  0  0  0  0  0  0
   -7.7610   -1.6080  -24.1670 C   0  0  0  0  0  0  0  0  0  0  0  0
   -8.3860   -2.0790  -22.8040 C   0  0  2  0  0  0  0  0  0  0  0  0
   -7.9590   -1.0940  -21.7130 C   0  0  0  0  0  0  0  0  0  0  0  0
   -8.6030   -0.1530  -21.3070 O   0  0  0  0  0  0  0  0  0  0  0  0
   -6.6910   -1.4840  -21.2960 N   0  0  0  0  0  0  0  0  0  0  0  0
   -6.1000   -0.8960  -20.1530 C   0  0  0  0  0  0  0  0  0  0  0  0
   -6.5850   -1.1840  -18.9020 C   0  0  0  0  0  0  0  0  0  0  0  0
   -6.0700   -0.6870  -17.7530 N   0  0  0  0  0  0  0  0  0  0  0  0
   -5.0610    0.1440  -17.8520 C   0  0  0  0  0  0  0  0  0  0  0  0
   -4.4570    0.5240  -19.0860 C   0  0  0  0  0  0  0  0  0  0  0  0
   -3.3770    1.4420  -19.1450 C   0  0  0  0  0  0  0  0  0  0  0  0
   -2.8160    1.7700  -20.3490 C   0  0  0  0  0  0  0  0  0  0  0  0
   -3.3010    1.1970  -21.5450 C   0  0  0  0  0  0  0  0  0  0  0  0
   -4.3560    0.3160  -21.5140 C   0  0  0  0  0  0  0  0  0  0  0  0
   -4.9690   -0.0300  -20.2810 C   0  0  0  0  0  0  0  0  0  0  0  0
   -4.7440   -0.1080  -22.4350 H   0  0  0  0  0  0  0  0  0  0  0  0
   -2.8450    1.4660  -22.4940 H   0  0  0  0  0  0  0  0  0  0  0  0
   -2.0000    2.4870  -20.3960 H   0  0  0  0  0  0  0  0  0  0  0  0
   -3.0300    1.8940  -18.2200 H   0  0  0  0  0  0  0  0  0  0  0  0
   -4.6660    0.5590  -16.9220 H   0  0  0  0  0  0  0  0  0  0  0  0
   -7.4350   -1.8550  -18.7860 H   0  0  0  0  0  0  0  0  0  0  0  0
   -6.3050   -2.8110  -21.7760 C   0  0  0  0  0  0  0  0  0  0  0  0
   -7.6530   -3.3650  -22.2680 C   0  0  2  0  0  0  0  0  0  0  0  0
   -7.6060   -4.4980  -23.2640 C   0  0  0  0  0  0  0  0  0  0  0  0
   -7.1620   -5.6510  -22.5890 O   0  0  0  0  0  0  0  0  0  0  0  0
   -6.9940   -6.7710  -23.4370 C   0  0  0  0  0  0  0  0  0  0  0  0
   -6.4850   -7.8830  -22.5350 C   0  0  0  0  0  0  0  0  0  0  0  0
   -5.6180   -7.5340  -21.9680 H   0  0  0  0  0  0  0  0  0  0  0  0
   -6.1950   -8.7690  -23.1090 H   0  0  0  0  0  0  0  0  0  0  0  0
   -7.2690   -8.1620  -21.8250 H   0  0  0  0  0  0  0  0  0  0  0  0
   -8.2990   -7.1350  -24.1420 C   0  0  0  0  0  0  0  0  0  0  0  0
   -8.2030   -8.0940  -24.6590 H   0  0  0  0  0  0  0  0  0  0  0  0
   -8.5790   -6.3840  -24.8920 H   0  0  0  0  0  0  0  0  0  0  0  0
   -9.1090   -7.2080  -23.4080 H   0  0  0  0  0  0  0  0  0  0  0  0
   -6.2320   -6.5330  -24.2030 H   0  0  0  0  0  0  0  0  0  0  0  0
   -8.6220   -4.6340  -23.6730 H   0  0  0  0  0  0  0  0  0  0  0  0
   -6.9430   -4.2650  -24.1100 H   0  0  0  0  0  0  0  0  0  0  0  0
   -8.1330   -3.7480  -21.3550 H   0  0  0  0  0  0  0  0  0  0  0  0
   -5.5570   -2.7520  -22.5820 H   0  0  0  0  0  0  0  0  0  0  0  0
   -5.8670   -3.4030  -20.9660 H   0  0  0  0  0  0  0  0  0  0  0  0
   -9.9150   -2.1630  -22.9300 C   0  0  0  0  0  0  0  0  0  0  0  0
  -10.6850   -2.8660  -22.0310 C   0  0  0  0  0  0  0  0  0  0  0  0
  -12.1480   -2.7010  -22.0170 C   0  0  0  0  0  0  0  0  0  0  0  0
  -13.1160   -3.3310  -20.7190 Cl  0  0  0  0  0  0  0  0  0  0  0  0
  -12.6530   -1.9270  -22.9750 C   0  0  0  0  0  0  0  0  0  0  0  0
  -11.4020   -1.3400  -24.0560 C   0  0  0  0  0  0  0  0  0  0  0  0
  -11.3690   -1.1180  -24.0970 C   0  0  0  0  0  0  0  0  0  0  0  0
  -10.0270   -2.4610  -24.9440 C   0  0  0  0  0  0  0  0  0  0  0  0
  -10.4350   -3.5540  -25.3170 O   0  0  0  0  0  0  0  0  0  0  0  0
  -11.5960   -0.8310  -25.2160 H   0  0  0  0  0  0  0  0  0  0  0  0
  -13.7340   -1.6290  -23.0250 H   0  0  0  0  0  0  0  0  0  0  0  0
  -10.2600   -3.5320  -21.2850 H   0  0  0  0  0  0  0  0  0  0  0  0
   -6.7150   -1.9620  -24.2880 H   0  0  0  0  0  0  0  0  0  0  0  0
   -7.7170   -0.5080  -24.1810 H   0  0  0  0  0  0  0  0  0  0  0  0
   -8.8440   -2.0780  -27.2980 H   0  0  0  0  0  0  0  0  0  0  0  0
   -7.2030   -1.7380  -26.7320 H   0  0  0  0  0  0  0  0  0  0  0  0
   -9.4680   -4.3190  -27.5690 H   0  0  0  0  0  0  0  0  0  0  0  0
   -8.4650   -6.6540  -27.1060 H   0  0  0  0  0  0  0  0  0  0  0  0
   -8.5920   -6.2340  -28.8400 H   0  0  0  0  0  0  0  0  0  0  0  0
   -7.0570   -6.0090  -27.9600 H   0  0  0  0  0  0  0  0  0  0  0  0
  1  2  1  0  0  0  0
  1 64  1  0  0  0  0
  1 65  1  0  0  0  0
  1 66  1  0  0  0  0
  2  3  1  0  0  0  0
  2 63  1  0  0  0  0
  3  4  2  0  0  0  0
  3  5  1  0  0  0  0
  5  6  1  0  0  0  0
  5 61  1  0  0  0  0
  5 62  1  0  0  0  0
  6  7  1  0  0  0  0
  6 54  1  0  0  0  0
  7  8  1  0  0  0  0
  7 59  1  0  0  0  0
  7 60  1  0  0  0  0
  8  9  1  1  0  0  0
  8 29  1  0  0  0  0
  8 47  1  0  0  0  0
  9 10  2  0  0  0  0
  9 11  1  0  0  0  0
 11 12  1  0  0  0  0
 11 28  1  0  0  0  0
 12 13  2  0  0  0  0
 12 21  1  0  0  0  0
 13 14  1  0  0  0  0
 13 27  1  0  0  0  0
 14 15  2  0  0  0  0
 15 16  1  0  0  0  0
 15 26  1  0  0  0  0
 16 17  2  0  0  0  0
 16 21  1  0  0  0  0
 17 18  1  0  0  0  0
 17 25  1  0  0  0  0
 18 19  2  0  0  0  0
 18 24  1  0  0  0  0
 19 20  1  0  0  0  0
 19 23  1  0  0  0  0
 20 21  2  0  0  0  0
 20 22  1  0  0  0  0
 28 29  1  0  0  0  0
 28 45  1  0  0  0  0
 28 46  1  0  0  0  0
 29 30  1  0  0  0  0
 29 44  1  1  0  0  0
 30 31  1  0  0  0  0
 30 42  1  0  0  0  0
 30 43  1  0  0  0  0
 31 32  1  0  0  0  0
 32 33  1  0  0  0  0
 32 37  1  0  0  0  0
 32 41  1  0  0  0  0
 33 34  1  0  0  0  0
 33 35  1  0  0  0  0
 33 36  1  0  0  0  0
 37 38  1  0  0  0  0
 37 39  1  0  0  0  0
 37 40  1  0  0  0  0
 47 48  2  0  0  0  0
 47 53  1  0  0  0  0
 48 49  1  0  0  0  0
 48 58  1  0  0  0  0
 49 50  1  0  0  0  0
 49 51  2  0  0  0  0
 51 52  1  0  0  0  0
 51 57  1  0  0  0  0
 52 53  2  0  0  0  0
 52 56  1  0  0  0  0
 53 54  1  0  0  0  0
 54 55  2  0  0  0  0
M  END
>  <MODEL>
       1

$$$$
