tmp_first_model_12_15.pdb
 OpenBabel08272523333D

 63 68  0  0  1  0  0  0  0  0999 V2000
   -7.4230    3.4120  -21.9060 C   0  0  0  0  0  0  0  0  0  0  0  0
   -8.3860    2.9180  -22.8780 N   0  0  0  0  0  0  0  0  0  0  0  0
   -7.8780    2.1780  -23.9090 C   0  0  0  0  0  0  0  0  0  0  0  0
   -6.6770    2.0010  -24.0580 O   0  0  0  0  0  0  0  0  0  0  0  0
   -8.8870    1.5690  -24.8810 C   0  0  0  0  0  0  0  0  0  0  0  0
   -9.5100    0.4050  -24.2800 N   0  0  0  0  0  0  0  0  0  0  0  0
   -8.7320   -0.8210  -24.1410 C   0  0  0  0  0  0  0  0  0  0  0  0
   -9.0830   -1.5680  -22.8280 C   0  0  2  0  0  0  0  0  0  0  0  0
   -8.5530   -0.7760  -21.6130 C   0  0  0  0  0  0  0  0  0  0  0  0
   -9.0430    0.2100  -21.1010 O   0  0  0  0  0  0  0  0  0  0  0  0
   -7.3840   -1.3690  -21.1970 N   0  0  0  0  0  0  0  0  0  0  0  0
   -6.6110   -0.7860  -20.1690 C   0  0  0  0  0  0  0  0  0  0  0  0
   -6.9200   -1.0470  -18.8590 C   0  0  0  0  0  0  0  0  0  0  0  0
   -6.2250   -0.5670  -17.8010 N   0  0  0  0  0  0  0  0  0  0  0  0
   -5.1980    0.2080  -18.0590 C   0  0  0  0  0  0  0  0  0  0  0  0
   -4.7830    0.5750  -19.3730 C   0  0  0  0  0  0  0  0  0  0  0  0
   -3.6530    1.3990  -19.6100 C   0  0  0  0  0  0  0  0  0  0  0  0
   -3.3140    1.7650  -20.8830 C   0  0  0  0  0  0  0  0  0  0  0  0
   -4.0960    1.3460  -21.9820 C   0  0  0  0  0  0  0  0  0  0  0  0
   -5.1770    0.5170  -21.7840 C   0  0  0  0  0  0  0  0  0  0  0  0
   -5.5290    0.0920  -20.4730 C   0  0  0  0  0  0  0  0  0  0  0  0
   -5.7710    0.2010  -22.6380 H   0  0  0  0  0  0  0  0  0  0  0  0
   -3.8430    1.6740  -22.9850 H   0  0  0  0  0  0  0  0  0  0  0  0
   -2.4400    2.3840  -21.0560 H   0  0  0  0  0  0  0  0  0  0  0  0
   -3.0780    1.7370  -18.7520 H   0  0  0  0  0  0  0  0  0  0  0  0
   -4.6240    0.5770  -17.2090 H   0  0  0  0  0  0  0  0  0  0  0  0
   -7.7750   -1.6790  -18.6340 H   0  0  0  0  0  0  0  0  0  0  0  0
   -7.0100   -2.5580  -21.9310 C   0  0  0  0  0  0  0  0  0  0  0  0
   -8.2940   -2.9030  -22.6990 C   0  0  2  0  0  0  0  0  0  0  0  0
   -8.0060   -3.6490  -24.0100 C   0  0  0  0  0  0  0  0  0  0  0  0
   -7.4360   -4.9650  -23.7730 N   0  0  0  0  0  0  0  0  0  0  0  0
   -8.0950   -6.1160  -23.5020 C   0  0  0  0  0  0  0  0  0  0  0  0
   -7.1380   -7.0810  -23.2870 C   0  0  0  0  0  0  0  0  0  0  0  0
   -5.9150   -6.4040  -23.4560 C   0  0  0  0  0  0  0  0  0  0  0  0
   -6.1040   -5.1190  -23.7370 N   0  0  0  0  0  0  0  0  0  0  0  0
   -4.9080   -6.8030  -23.4000 H   0  0  0  0  0  0  0  0  0  0  0  0
   -7.2980   -8.1220  -23.0470 H   0  0  0  0  0  0  0  0  0  0  0  0
   -9.1770   -6.1720  -23.4910 H   0  0  0  0  0  0  0  0  0  0  0  0
   -7.2750   -3.1010  -24.6130 H   0  0  0  0  0  0  0  0  0  0  0  0
   -8.9220   -3.7700  -24.6000 H   0  0  0  0  0  0  0  0  0  0  0  0
   -8.8810   -3.5780  -22.0710 H   0  0  0  0  0  0  0  0  0  0  0  0
   -6.1670   -2.3780  -22.6180 H   0  0  0  0  0  0  0  0  0  0  0  0
   -6.7130   -3.3580  -21.2470 H   0  0  0  0  0  0  0  0  0  0  0  0
  -10.5910   -1.6830  -22.7420 C   0  0  0  0  0  0  0  0  0  0  0  0
  -11.1890   -2.6300  -21.9070 C   0  0  0  0  0  0  0  0  0  0  0  0
  -12.5620   -2.6590  -21.7610 C   0  0  0  0  0  0  0  0  0  0  0  0
  -13.2600   -3.7830  -20.6390 Cl  0  0  0  0  0  0  0  0  0  0  0  0
  -13.3980   -1.7830  -22.4500 C   0  0  0  0  0  0  0  0  0  0  0  0
  -12.8140   -0.8260  -23.2500 C   0  0  0  0  0  0  0  0  0  0  0  0
  -11.4290   -0.7560  -23.3740 C   0  0  0  0  0  0  0  0  0  0  0  0
  -10.8700    0.3920  -24.1510 C   0  0  0  0  0  0  0  0  0  0  0  0
  -11.5850    1.2760  -24.6080 O   0  0  0  0  0  0  0  0  0  0  0  0
  -13.4040   -0.0980  -23.7900 H   0  0  0  0  0  0  0  0  0  0  0  0
  -14.4740   -1.8520  -22.3430 H   0  0  0  0  0  0  0  0  0  0  0  0
  -10.6020   -3.3480  -21.3480 H   0  0  0  0  0  0  0  0  0  0  0  0
   -8.9420   -1.4890  -24.9870 H   0  0  0  0  0  0  0  0  0  0  0  0
   -7.6640   -0.5720  -24.1720 H   0  0  0  0  0  0  0  0  0  0  0  0
   -9.6840    2.2780  -25.1330 H   0  0  0  0  0  0  0  0  0  0  0  0
   -8.3670    1.2850  -25.8050 H   0  0  0  0  0  0  0  0  0  0  0  0
   -9.3100    2.6750  -22.5290 H   0  0  0  0  0  0  0  0  0  0  0  0
   -6.9260    2.5730  -21.3910 H   0  0  0  0  0  0  0  0  0  0  0  0
   -7.9060    4.0830  -21.1930 H   0  0  0  0  0  0  0  0  0  0  0  0
   -6.6710    4.0000  -22.4380 H   0  0  0  0  0  0  0  0  0  0  0  0
  1  2  1  0  0  0  0
  1 61  1  0  0  0  0
  1 62  1  0  0  0  0
  1 63  1  0  0  0  0
  2  3  1  0  0  0  0
  2 60  1  0  0  0  0
  3  4  2  0  0  0  0
  3  5  1  0  0  0  0
  5  6  1  0  0  0  0
  5 58  1  0  0  0  0
  5 59  1  0  0  0  0
  6  7  1  0  0  0  0
  6 51  1  0  0  0  0
  7  8  1  0  0  0  0
  7 56  1  0  0  0  0
  7 57  1  0  0  0  0
  8  9  1  1  0  0  0
  8 29  1  0  0  0  0
  8 44  1  0  0  0  0
  9 10  2  0  0  0  0
  9 11  1  0  0  0  0
 11 12  1  0  0  0  0
 11 28  1  0  0  0  0
 12 13  2  0  0  0  0
 12 21  1  0  0  0  0
 13 14  1  0  0  0  0
 13 27  1  0  0  0  0
 14 15  2  0  0  0  0
 15 16  1  0  0  0  0
 15 26  1  0  0  0  0
 16 17  2  0  0  0  0
 16 21  1  0  0  0  0
 17 18  1  0  0  0  0
 17 25  1  0  0  0  0
 18 19  2  0  0  0  0
 18 24  1  0  0  0  0
 19 20  1  0  0  0  0
 19 23  1  0  0  0  0
 20 21  2  0  0  0  0
 20 22  1  0  0  0  0
 28 29  1  0  0  0  0
 28 42  1  0  0  0  0
 28 43  1  0  0  0  0
 29 30  1  0  0  0  0
 29 41  1  1  0  0  0
 30 31  1  0  0  0  0
 30 39  1  0  0  0  0
 30 40  1  0  0  0  0
 31 32  1  0  0  0  0
 31 35  1  0  0  0  0
 32 33  2  0  0  0  0
 32 38  1  0  0  0  0
 33 34  1  0  0  0  0
 33 37  1  0  0  0  0
 34 35  2  0  0  0  0
 34 36  1  0  0  0  0
 44 45  2  0  0  0  0
 44 50  1  0  0  0  0
 45 46  1  0  0  0  0
 45 55  1  0  0  0  0
 46 47  1  0  0  0  0
 46 48  2  0  0  0  0
 48 49  1  0  0  0  0
 48 54  1  0  0  0  0
 49 50  2  0  0  0  0
 49 53  1  0  0  0  0
 50 51  1  0  0  0  0
 51 52  2  0  0  0  0
M  END
>  <MODEL>
       1

$$$$
