tmp_first_model_4_44.pdb
 OpenBabel08272518513D

 60 64  0  0  1  0  0  0  0  0999 V2000
   -7.3330    3.3720  -21.8640 C   0  0  0  0  0  0  0  0  0  0  0  0
   -8.2500    2.9210  -22.9010 N   0  0  0  0  0  0  0  0  0  0  0  0
   -7.7120    2.2100  -23.9350 C   0  0  0  0  0  0  0  0  0  0  0  0
   -6.5070    2.0410  -24.0560 O   0  0  0  0  0  0  0  0  0  0  0  0
   -8.6960    1.6190  -24.9450 C   0  0  0  0  0  0  0  0  0  0  0  0
   -9.3880    0.4780  -24.3700 N   0  0  0  0  0  0  0  0  0  0  0  0
   -8.6580   -0.7720  -24.1950 C   0  0  0  0  0  0  0  0  0  0  0  0
   -9.0620   -1.5000  -22.8870 C   0  0  2  0  0  0  0  0  0  0  0  0
   -8.5150   -0.7390  -21.6490 C   0  0  0  0  0  0  0  0  0  0  0  0
   -8.9540    0.2760  -21.1490 O   0  0  0  0  0  0  0  0  0  0  0  0
   -7.4040   -1.4140  -21.2010 N   0  0  0  0  0  0  0  0  0  0  0  0
   -6.5310   -0.9410  -20.1950 C   0  0  0  0  0  0  0  0  0  0  0  0
   -6.7750   -1.2480  -18.8860 C   0  0  0  0  0  0  0  0  0  0  0  0
   -5.9070   -1.0030  -17.8720 N   0  0  0  0  0  0  0  0  0  0  0  0
   -4.7790   -0.4080  -18.1720 C   0  0  0  0  0  0  0  0  0  0  0  0
   -4.4370    0.0250  -19.4840 C   0  0  0  0  0  0  0  0  0  0  0  0
   -3.2680    0.7810  -19.7440 C   0  0  0  0  0  0  0  0  0  0  0  0
   -3.0530    1.3120  -20.9860 C   0  0  0  0  0  0  0  0  0  0  0  0
   -3.9420    1.0280  -22.0520 C   0  0  0  0  0  0  0  0  0  0  0  0
   -5.0490    0.2450  -21.8370 C   0  0  0  0  0  0  0  0  0  0  0  0
   -5.3340   -0.2500  -20.5380 C   0  0  0  0  0  0  0  0  0  0  0  0
   -5.7150    0.0130  -22.6630 H   0  0  0  0  0  0  0  0  0  0  0  0
   -3.7760    1.4680  -23.0290 H   0  0  0  0  0  0  0  0  0  0  0  0
   -2.2010    1.9620  -21.1590 H   0  0  0  0  0  0  0  0  0  0  0  0
   -2.6120    0.9850  -18.9040 H   0  0  0  0  0  0  0  0  0  0  0  0
   -4.0670   -0.2190  -17.3670 H   0  0  0  0  0  0  0  0  0  0  0  0
   -7.7050   -1.7570  -18.6360 H   0  0  0  0  0  0  0  0  0  0  0  0
   -7.0680   -2.5970  -21.9490 C   0  0  0  0  0  0  0  0  0  0  0  0
   -8.3370   -2.8750  -22.7580 C   0  0  2  0  0  0  0  0  0  0  0  0
   -7.9910   -3.6300  -24.0260 C   0  0  0  0  0  0  0  0  0  0  0  0
   -9.1620   -3.9160  -24.7470 O   0  0  0  0  0  0  0  0  0  0  0  0
   -8.8890   -4.5710  -25.9620 C   0  0  0  0  0  0  0  0  0  0  0  0
   -8.2930   -3.9390  -26.6380 H   0  0  0  0  0  0  0  0  0  0  0  0
   -8.3430   -5.5130  -25.8020 H   0  0  0  0  0  0  0  0  0  0  0  0
   -9.8440   -4.7970  -26.4410 H   0  0  0  0  0  0  0  0  0  0  0  0
   -7.2870   -3.0340  -24.6320 H   0  0  0  0  0  0  0  0  0  0  0  0
   -7.4680   -4.5600  -23.7480 H   0  0  0  0  0  0  0  0  0  0  0  0
   -8.9810   -3.5280  -22.1700 H   0  0  0  0  0  0  0  0  0  0  0  0
   -6.1930   -2.4420  -22.6080 H   0  0  0  0  0  0  0  0  0  0  0  0
   -6.8260   -3.4090  -21.2570 H   0  0  0  0  0  0  0  0  0  0  0  0
  -10.5760   -1.5520  -22.8340 C   0  0  0  0  0  0  0  0  0  0  0  0
  -11.2220   -2.4520  -21.9810 C   0  0  0  0  0  0  0  0  0  0  0  0
  -12.6000   -2.4630  -21.8910 C   0  0  0  0  0  0  0  0  0  0  0  0
  -13.3560   -3.5770  -20.7960 Cl  0  0  0  0  0  0  0  0  0  0  0  0
  -13.3950   -1.5910  -22.6310 C   0  0  0  0  0  0  0  0  0  0  0  0
  -12.7610   -0.6690  -23.4390 C   0  0  0  0  0  0  0  0  0  0  0  0
  -11.3700   -0.6240  -23.5200 C   0  0  0  0  0  0  0  0  0  0  0  0
  -10.7550    0.5030  -24.2950 C   0  0  0  0  0  0  0  0  0  0  0  0
  -11.4280    1.3940  -24.7920 O   0  0  0  0  0  0  0  0  0  0  0  0
  -13.3240    0.0600  -24.0060 H   0  0  0  0  0  0  0  0  0  0  0  0
  -14.4760   -1.6170  -22.5450 H   0  0  0  0  0  0  0  0  0  0  0  0
  -10.6620   -3.1350  -21.3540 H   0  0  0  0  0  0  0  0  0  0  0  0
   -8.8690   -1.4440  -25.0360 H   0  0  0  0  0  0  0  0  0  0  0  0
   -7.5820   -0.5660  -24.1970 H   0  0  0  0  0  0  0  0  0  0  0  0
   -9.4540    2.3460  -25.2540 H   0  0  0  0  0  0  0  0  0  0  0  0
   -8.1310    1.3120  -25.8330 H   0  0  0  0  0  0  0  0  0  0  0  0
   -9.2100    2.7510  -22.6240 H   0  0  0  0  0  0  0  0  0  0  0  0
   -6.6530    4.1290  -22.2670 H   0  0  0  0  0  0  0  0  0  0  0  0
   -6.7390    2.5240  -21.4890 H   0  0  0  0  0  0  0  0  0  0  0  0
   -7.9000    3.8370  -21.0550 H   0  0  0  0  0  0  0  0  0  0  0  0
  1  2  1  0  0  0  0
  1 58  1  0  0  0  0
  1 59  1  0  0  0  0
  1 60  1  0  0  0  0
  2  3  1  0  0  0  0
  2 57  1  0  0  0  0
  3  4  2  0  0  0  0
  3  5  1  0  0  0  0
  5  6  1  0  0  0  0
  5 55  1  0  0  0  0
  5 56  1  0  0  0  0
  6  7  1  0  0  0  0
  6 48  1  0  0  0  0
  7  8  1  0  0  0  0
  7 53  1  0  0  0  0
  7 54  1  0  0  0  0
  8  9  1  1  0  0  0
  8 29  1  0  0  0  0
  8 41  1  0  0  0  0
  9 10  2  0  0  0  0
  9 11  1  0  0  0  0
 11 12  1  0  0  0  0
 11 28  1  0  0  0  0
 12 13  2  0  0  0  0
 12 21  1  0  0  0  0
 13 14  1  0  0  0  0
 13 27  1  0  0  0  0
 14 15  2  0  0  0  0
 15 16  1  0  0  0  0
 15 26  1  0  0  0  0
 16 17  2  0  0  0  0
 16 21  1  0  0  0  0
 17 18  1  0  0  0  0
 17 25  1  0  0  0  0
 18 19  2  0  0  0  0
 18 24  1  0  0  0  0
 19 20  1  0  0  0  0
 19 23  1  0  0  0  0
 20 21  2  0  0  0  0
 20 22  1  0  0  0  0
 28 29  1  0  0  0  0
 28 39  1  0  0  0  0
 28 40  1  0  0  0  0
 29 30  1  0  0  0  0
 29 38  1  1  0  0  0
 30 31  1  0  0  0  0
 30 36  1  0  0  0  0
 30 37  1  0  0  0  0
 31 32  1  0  0  0  0
 32 33  1  0  0  0  0
 32 34  1  0  0  0  0
 32 35  1  0  0  0  0
 41 42  2  0  0  0  0
 41 47  1  0  0  0  0
 42 43  1  0  0  0  0
 42 52  1  0  0  0  0
 43 44  1  0  0  0  0
 43 45  2  0  0  0  0
 45 46  1  0  0  0  0
 45 51  1  0  0  0  0
 46 47  2  0  0  0  0
 46 50  1  0  0  0  0
 47 48  1  0  0  0  0
 48 49  2  0  0  0  0
M  END
>  <MODEL>
       1

$$$$
