tmp_first_model_10_20.pdb
 OpenBabel08272522163D

 66 71  0  0  1  0  0  0  0  0999 V2000
   -6.9130    3.5390  -23.1490 C   0  0  0  0  0  0  0  0  0  0  0  0
   -7.8640    2.9500  -24.0710 N   0  0  0  0  0  0  0  0  0  0  0  0
   -7.4960    1.8570  -24.7820 C   0  0  0  0  0  0  0  0  0  0  0  0
   -6.3540    1.4060  -24.7710 O   0  0  0  0  0  0  0  0  0  0  0  0
   -8.6290    1.2040  -25.5790 C   0  0  0  0  0  0  0  0  0  0  0  0
   -9.3640    0.2830  -24.7320 N   0  0  0  0  0  0  0  0  0  0  0  0
   -8.7920   -1.0200  -24.4620 C   0  0  0  0  0  0  0  0  0  0  0  0
   -8.9740   -1.4890  -22.9980 C   0  0  2  0  0  0  0  0  0  0  0  0
   -8.2230   -0.5480  -22.0270 C   0  0  0  0  0  0  0  0  0  0  0  0
   -8.2920    0.6650  -21.9980 O   0  0  0  0  0  0  0  0  0  0  0  0
   -7.4520   -1.3100  -21.1780 N   0  0  0  0  0  0  0  0  0  0  0  0
   -6.6500   -0.7680  -20.1530 C   0  0  0  0  0  0  0  0  0  0  0  0
   -6.8850   -1.1000  -18.8420 C   0  0  0  0  0  0  0  0  0  0  0  0
   -6.1750   -0.6290  -17.7910 N   0  0  0  0  0  0  0  0  0  0  0  0
   -5.1760    0.1830  -18.0500 C   0  0  0  0  0  0  0  0  0  0  0  0
   -4.8000    0.5800  -19.3640 C   0  0  0  0  0  0  0  0  0  0  0  0
   -3.7190    1.4770  -19.5940 C   0  0  0  0  0  0  0  0  0  0  0  0
   -3.4770    1.9630  -20.8500 C   0  0  0  0  0  0  0  0  0  0  0  0
   -4.2630    1.5260  -21.9420 C   0  0  0  0  0  0  0  0  0  0  0  0
   -5.2570    0.5990  -21.7570 C   0  0  0  0  0  0  0  0  0  0  0  0
   -5.5720    0.1210  -20.4540 C   0  0  0  0  0  0  0  0  0  0  0  0
   -5.8370    0.2720  -22.6120 H   0  0  0  0  0  0  0  0  0  0  0  0
   -4.1070    1.9300  -22.9400 H   0  0  0  0  0  0  0  0  0  0  0  0
   -2.6830    2.6860  -21.0160 H   0  0  0  0  0  0  0  0  0  0  0  0
   -3.1260    1.8010  -18.7420 H   0  0  0  0  0  0  0  0  0  0  0  0
   -4.6120    0.5720  -17.2010 H   0  0  0  0  0  0  0  0  0  0  0  0
   -7.7010   -1.7760  -18.5960 H   0  0  0  0  0  0  0  0  0  0  0  0
   -7.7090   -2.7310  -21.3020 C   0  0  0  0  0  0  0  0  0  0  0  0
   -8.3170   -2.8780  -22.7150 C   0  0  2  0  0  0  0  0  0  0  0  0
   -7.2610   -3.3690  -23.7420 C   0  0  0  0  0  0  0  0  0  0  0  0
   -7.8160   -3.8850  -25.0600 C   0  0  0  0  0  0  0  0  0  0  0  0
   -7.3950   -3.4620  -26.3240 C   0  0  0  0  0  0  0  0  0  0  0  0
   -7.8110   -4.1430  -27.4690 C   0  0  0  0  0  0  0  0  0  0  0  0
   -8.6470   -5.2530  -27.3710 C   0  0  0  0  0  0  0  0  0  0  0  0
   -9.1590   -5.6150  -26.1230 C   0  0  0  0  0  0  0  0  0  0  0  0
   -8.7790   -4.8880  -25.0030 C   0  0  0  0  0  0  0  0  0  0  0  0
   -9.2190   -5.0700  -24.0330 H   0  0  0  0  0  0  0  0  0  0  0  0
   -9.8460   -6.4550  -26.0060 H   0  0  0  0  0  0  0  0  0  0  0  0
   -8.8990   -5.8050  -28.2740 H   0  0  0  0  0  0  0  0  0  0  0  0
   -7.4650   -3.8210  -28.4470 H   0  0  0  0  0  0  0  0  0  0  0  0
   -6.7810   -2.5670  -26.4160 H   0  0  0  0  0  0  0  0  0  0  0  0
   -6.7190   -4.2040  -23.2780 H   0  0  0  0  0  0  0  0  0  0  0  0
   -6.5100   -2.5960  -23.9230 H   0  0  0  0  0  0  0  0  0  0  0  0
   -9.0920   -3.6420  -22.6950 H   0  0  0  0  0  0  0  0  0  0  0  0
   -6.7690   -3.2710  -21.1690 H   0  0  0  0  0  0  0  0  0  0  0  0
   -8.4090   -3.0750  -20.5280 H   0  0  0  0  0  0  0  0  0  0  0  0
  -10.4810   -1.4170  -22.7390 C   0  0  0  0  0  0  0  0  0  0  0  0
  -11.1810   -2.3790  -21.9960 C   0  0  0  0  0  0  0  0  0  0  0  0
  -12.5500   -2.2700  -21.8160 C   0  0  0  0  0  0  0  0  0  0  0  0
  -13.4040   -3.5210  -20.9500 Cl  0  0  0  0  0  0  0  0  0  0  0  0
  -13.2580   -1.1790  -22.3160 C   0  0  0  0  0  0  0  0  0  0  0  0
  -12.5720   -0.2060  -23.0240 C   0  0  0  0  0  0  0  0  0  0  0  0
  -11.2030   -0.3310  -23.2690 C   0  0  0  0  0  0  0  0  0  0  0  0
  -10.5570    0.6640  -24.2020 C   0  0  0  0  0  0  0  0  0  0  0  0
  -11.0670    1.7460  -24.4670 O   0  0  0  0  0  0  0  0  0  0  0  0
  -13.1020    0.6510  -23.4330 H   0  0  0  0  0  0  0  0  0  0  0  0
  -14.3340   -1.1170  -22.1730 H   0  0  0  0  0  0  0  0  0  0  0  0
  -10.6830   -3.2400  -21.5680 H   0  0  0  0  0  0  0  0  0  0  0  0
   -7.7350   -0.9730  -24.7090 H   0  0  0  0  0  0  0  0  0  0  0  0
   -9.2750   -1.7590  -25.1100 H   0  0  0  0  0  0  0  0  0  0  0  0
   -9.3310    1.9450  -25.9700 H   0  0  0  0  0  0  0  0  0  0  0  0
   -8.2010    0.6630  -26.4280 H   0  0  0  0  0  0  0  0  0  0  0  0
   -8.8480    3.0550  -23.8600 H   0  0  0  0  0  0  0  0  0  0  0  0
   -7.3690    4.4030  -22.6620 H   0  0  0  0  0  0  0  0  0  0  0  0
   -6.0200    3.8590  -23.6950 H   0  0  0  0  0  0  0  0  0  0  0  0
   -6.6000    2.8160  -22.3850 H   0  0  0  0  0  0  0  0  0  0  0  0
  1  2  1  0  0  0  0
  1 64  1  0  0  0  0
  1 65  1  0  0  0  0
  1 66  1  0  0  0  0
  2  3  1  0  0  0  0
  2 63  1  0  0  0  0
  3  4  2  0  0  0  0
  3  5  1  0  0  0  0
  5  6  1  0  0  0  0
  5 61  1  0  0  0  0
  5 62  1  0  0  0  0
  6  7  1  0  0  0  0
  6 54  1  0  0  0  0
  7  8  1  0  0  0  0
  7 59  1  0  0  0  0
  7 60  1  0  0  0  0
  8  9  1  1  0  0  0
  8 29  1  0  0  0  0
  8 47  1  0  0  0  0
  9 10  2  0  0  0  0
  9 11  1  0  0  0  0
 11 12  1  0  0  0  0
 11 28  1  0  0  0  0
 12 13  2  0  0  0  0
 12 21  1  0  0  0  0
 13 14  1  0  0  0  0
 13 27  1  0  0  0  0
 14 15  2  0  0  0  0
 15 16  1  0  0  0  0
 15 26  1  0  0  0  0
 16 17  2  0  0  0  0
 16 21  1  0  0  0  0
 17 18  1  0  0  0  0
 17 25  1  0  0  0  0
 18 19  2  0  0  0  0
 18 24  1  0  0  0  0
 19 20  1  0  0  0  0
 19 23  1  0  0  0  0
 20 21  2  0  0  0  0
 20 22  1  0  0  0  0
 28 29  1  0  0  0  0
 28 45  1  0  0  0  0
 28 46  1  0  0  0  0
 29 30  1  0  0  0  0
 29 44  1  1  0  0  0
 30 31  1  0  0  0  0
 30 42  1  0  0  0  0
 30 43  1  0  0  0  0
 31 32  2  0  0  0  0
 31 36  1  0  0  0  0
 32 33  1  0  0  0  0
 32 41  1  0  0  0  0
 33 34  2  0  0  0  0
 33 40  1  0  0  0  0
 34 35  1  0  0  0  0
 34 39  1  0  0  0  0
 35 36  2  0  0  0  0
 35 38  1  0  0  0  0
 36 37  1  0  0  0  0
 47 48  2  0  0  0  0
 47 53  1  0  0  0  0
 48 49  1  0  0  0  0
 48 58  1  0  0  0  0
 49 50  1  0  0  0  0
 49 51  2  0  0  0  0
 51 52  1  0  0  0  0
 51 57  1  0  0  0  0
 52 53  2  0  0  0  0
 52 56  1  0  0  0  0
 53 54  1  0  0  0  0
 54 55  2  0  0  0  0
M  END
>  <MODEL>
       1

$$$$
