tmp_first_model_5_66.pdb
 OpenBabel08272519233D

 44 47  0  0  1  0  0  0  0  0999 V2000
   -9.1310    0.6340  -26.1110 C   0  0  0  0  0  0  0  0  0  0  0  0
   -9.1320    0.7920  -24.5970 C   0  0  0  0  0  0  0  0  0  0  0  0
   -7.7850    0.7520  -23.8450 C   0  0  1  0  0  0  0  0  0  0  0  0
   -6.8420    1.8810  -24.1880 C   0  0  0  0  0  0  0  0  0  0  0  0
   -6.0260    2.0060  -25.3570 C   0  0  0  0  0  0  0  0  0  0  0  0
   -5.3920    3.2100  -25.4310 C   0  0  0  0  0  0  0  0  0  0  0  0
   -5.7360    4.1930  -24.0570 S   0  0  0  0  0  0  0  0  0  0  0  0
   -6.7400    2.9710  -23.3720 C   0  0  0  0  0  0  0  0  0  0  0  0
   -7.3180    3.0910  -22.0000 C   0  0  0  0  0  0  0  0  0  0  0  0
   -8.4810    2.1180  -21.8500 C   0  0  0  0  0  0  0  0  0  0  0  0
   -8.0930    0.8240  -22.4080 N   0  0  0  0  0  0  0  0  0  0  0  0
   -8.2880   -0.2520  -21.5670 C   0  0  0  0  0  0  0  0  0  0  0  0
   -9.1260   -0.1980  -20.6860 O   0  0  0  0  0  0  0  0  0  0  0  0
   -7.3410   -1.4440  -21.6190 C   0  0  0  0  0  0  0  0  0  0  0  0
   -6.3170   -1.2300  -20.5230 C   0  0  0  0  0  0  0  0  0  0  0  0
   -6.5170   -1.7240  -19.2610 C   0  0  0  0  0  0  0  0  0  0  0  0
   -5.6530   -1.5670  -18.2240 N   0  0  0  0  0  0  0  0  0  0  0  0
   -4.5770   -0.8500  -18.4420 C   0  0  0  0  0  0  0  0  0  0  0  0
   -4.3010   -0.1700  -19.6560 C   0  0  0  0  0  0  0  0  0  0  0  0
   -3.2280    0.7540  -19.7950 C   0  0  0  0  0  0  0  0  0  0  0  0
   -3.1180    1.5410  -20.9080 C   0  0  0  0  0  0  0  0  0  0  0  0
   -4.0150    1.3540  -21.9860 C   0  0  0  0  0  0  0  0  0  0  0  0
   -5.0210    0.4210  -21.8880 C   0  0  0  0  0  0  0  0  0  0  0  0
   -5.2240   -0.3340  -20.7110 C   0  0  0  0  0  0  0  0  0  0  0  0
   -5.7220    0.3400  -22.7000 H   0  0  0  0  0  0  0  0  0  0  0  0
   -3.9120    1.9420  -22.8950 H   0  0  0  0  0  0  0  0  0  0  0  0
   -2.3330    2.2930  -20.9690 H   0  0  0  0  0  0  0  0  0  0  0  0
   -2.5910    0.9090  -18.9270 H   0  0  0  0  0  0  0  0  0  0  0  0
   -3.8830   -0.7060  -17.6110 H   0  0  0  0  0  0  0  0  0  0  0  0
   -7.4330   -2.2780  -19.0420 H   0  0  0  0  0  0  0  0  0  0  0  0
   -6.8730   -1.5830  -22.5960 H   0  0  0  0  0  0  0  0  0  0  0  0
   -7.9380   -2.3350  -21.4040 H   0  0  0  0  0  0  0  0  0  0  0  0
   -9.4100    2.4820  -22.3100 H   0  0  0  0  0  0  0  0  0  0  0  0
   -8.6870    1.9440  -20.7940 H   0  0  0  0  0  0  0  0  0  0  0  0
   -7.6060    4.1170  -21.7540 H   0  0  0  0  0  0  0  0  0  0  0  0
   -6.5410    2.8110  -21.2720 H   0  0  0  0  0  0  0  0  0  0  0  0
   -4.7450    3.5880  -26.2100 H   0  0  0  0  0  0  0  0  0  0  0  0
   -5.9060    1.2280  -26.1070 H   0  0  0  0  0  0  0  0  0  0  0  0
   -7.2800   -0.2050  -24.0580 H   0  0  0  0  0  0  0  0  0  0  0  0
   -9.7680    0.0200  -24.1520 H   0  0  0  0  0  0  0  0  0  0  0  0
   -9.5950    1.7530  -24.3440 H   0  0  0  0  0  0  0  0  0  0  0  0
   -8.7570   -0.3440  -26.4390 H   0  0  0  0  0  0  0  0  0  0  0  0
  -10.1710    0.7200  -26.4470 H   0  0  0  0  0  0  0  0  0  0  0  0
   -8.5520    1.4180  -26.6110 H   0  0  0  0  0  0  0  0  0  0  0  0
  1  2  1  0  0  0  0
  1 42  1  0  0  0  0
  1 43  1  0  0  0  0
  1 44  1  0  0  0  0
  2  3  1  0  0  0  0
  2 40  1  0  0  0  0
  2 41  1  0  0  0  0
  3  4  1  0  0  0  0
  3 11  1  0  0  0  0
  3 39  1  6  0  0  0
  4  5  1  0  0  0  0
  4  8  2  0  0  0  0
  5  6  2  0  0  0  0
  5 38  1  0  0  0  0
  6  7  1  0  0  0  0
  6 37  1  0  0  0  0
  7  8  1  0  0  0  0
  8  9  1  0  0  0  0
  9 10  1  0  0  0  0
  9 35  1  0  0  0  0
  9 36  1  0  0  0  0
 10 11  1  0  0  0  0
 10 33  1  0  0  0  0
 10 34  1  0  0  0  0
 11 12  1  0  0  0  0
 12 13  2  0  0  0  0
 12 14  1  0  0  0  0
 14 15  1  0  0  0  0
 14 31  1  0  0  0  0
 14 32  1  0  0  0  0
 15 16  2  0  0  0  0
 15 24  1  0  0  0  0
 16 17  1  0  0  0  0
 16 30  1  0  0  0  0
 17 18  2  0  0  0  0
 18 19  1  0  0  0  0
 18 29  1  0  0  0  0
 19 20  2  0  0  0  0
 19 24  1  0  0  0  0
 20 21  1  0  0  0  0
 20 28  1  0  0  0  0
 21 22  2  0  0  0  0
 21 27  1  0  0  0  0
 22 23  1  0  0  0  0
 22 26  1  0  0  0  0
 23 24  2  0  0  0  0
 23 25  1  0  0  0  0
M  END
>  <MODEL>
       1

$$$$
