tmp_first_model_9_54.pdb
 OpenBabel08272521403D

 40 43  0  0  0  0  0  0  0  0999 V2000
  -10.3200   -2.6560  -22.7800 C   0  0  0  0  0  0  0  0  0  0  0  0
   -8.9710   -2.2750  -22.4190 N   0  0  0  0  0  0  0  0  0  0  0  0
   -7.7680   -2.7050  -22.9010 C   0  0  0  0  0  0  0  0  0  0  0  0
   -7.6550   -3.6320  -24.0550 C   0  0  0  0  0  0  0  0  0  0  0  0
   -7.8710   -5.0470  -23.5790 C   0  0  0  0  0  0  0  0  0  0  0  0
   -9.0300   -5.7480  -23.8990 C   0  0  0  0  0  0  0  0  0  0  0  0
   -9.1460   -7.0870  -23.5480 C   0  0  0  0  0  0  0  0  0  0  0  0
   -8.1710   -7.6720  -22.7490 C   0  0  0  0  0  0  0  0  0  0  0  0
   -7.0480   -6.9510  -22.3500 C   0  0  0  0  0  0  0  0  0  0  0  0
   -6.8860   -5.6430  -22.7900 C   0  0  0  0  0  0  0  0  0  0  0  0
   -5.9830   -5.0760  -22.5630 H   0  0  0  0  0  0  0  0  0  0  0  0
   -6.2800   -7.4260  -21.7400 H   0  0  0  0  0  0  0  0  0  0  0  0
   -8.2960   -8.6980  -22.4390 H   0  0  0  0  0  0  0  0  0  0  0  0
   -9.9830   -7.6900  -23.9070 H   0  0  0  0  0  0  0  0  0  0  0  0
   -9.8530   -5.2390  -24.4090 H   0  0  0  0  0  0  0  0  0  0  0  0
   -8.3900   -3.3890  -24.8330 H   0  0  0  0  0  0  0  0  0  0  0  0
   -6.6650   -3.5230  -24.5100 H   0  0  0  0  0  0  0  0  0  0  0  0
   -6.7710   -2.2620  -22.1930 N   0  0  0  0  0  0  0  0  0  0  0  0
   -7.3370   -1.4400  -21.2540 N   0  0  0  0  0  0  0  0  0  0  0  0
   -6.5760   -0.8570  -20.2060 C   0  0  0  0  0  0  0  0  0  0  0  0
   -6.9000   -1.0730  -18.8860 C   0  0  0  0  0  0  0  0  0  0  0  0
   -6.2100   -0.5570  -17.8440 N   0  0  0  0  0  0  0  0  0  0  0  0
   -5.1790    0.2020  -18.1080 C   0  0  0  0  0  0  0  0  0  0  0  0
   -4.7350    0.5140  -19.4190 C   0  0  0  0  0  0  0  0  0  0  0  0
   -3.6140    1.3570  -19.6380 C   0  0  0  0  0  0  0  0  0  0  0  0
   -3.2270    1.6690  -20.9090 C   0  0  0  0  0  0  0  0  0  0  0  0
   -3.9560    1.1620  -22.0080 C   0  0  0  0  0  0  0  0  0  0  0  0
   -5.0400    0.3430  -21.8250 C   0  0  0  0  0  0  0  0  0  0  0  0
   -5.4520   -0.0240  -20.5130 C   0  0  0  0  0  0  0  0  0  0  0  0
   -5.5930   -0.0530  -22.6700 H   0  0  0  0  0  0  0  0  0  0  0  0
   -3.6420    1.4110  -23.0180 H   0  0  0  0  0  0  0  0  0  0  0  0
   -2.3660    2.3120  -21.0830 H   0  0  0  0  0  0  0  0  0  0  0  0
   -3.0920    1.7520  -18.7700 H   0  0  0  0  0  0  0  0  0  0  0  0
   -4.6360    0.6100  -17.2560 H   0  0  0  0  0  0  0  0  0  0  0  0
   -7.7610   -1.6820  -18.6150 H   0  0  0  0  0  0  0  0  0  0  0  0
   -8.7020   -1.3070  -21.4520 C   0  0  0  0  0  0  0  0  0  0  0  0
   -9.4480   -0.4700  -20.9930 O   0  0  0  0  0  0  0  0  0  0  0  0
  -10.6070   -3.6290  -22.3580 H   0  0  0  0  0  0  0  0  0  0  0  0
  -10.9400   -1.8720  -22.3440 H   0  0  0  0  0  0  0  0  0  0  0  0
  -10.4490   -2.6700  -23.8670 H   0  0  0  0  0  0  0  0  0  0  0  0
  1  2  1  0  0  0  0
  1 38  1  0  0  0  0
  1 39  1  0  0  0  0
  1 40  1  0  0  0  0
  2  3  1  0  0  0  0
  2 36  1  0  0  0  0
  3  4  1  0  0  0  0
  3 18  2  0  0  0  0
  4  5  1  0  0  0  0
  4 16  1  0  0  0  0
  4 17  1  0  0  0  0
  5  6  2  0  0  0  0
  5 10  1  0  0  0  0
  6  7  1  0  0  0  0
  6 15  1  0  0  0  0
  7  8  2  0  0  0  0
  7 14  1  0  0  0  0
  8  9  1  0  0  0  0
  8 13  1  0  0  0  0
  9 10  2  0  0  0  0
  9 12  1  0  0  0  0
 10 11  1  0  0  0  0
 18 19  1  0  0  0  0
 19 20  1  0  0  0  0
 19 36  1  0  0  0  0
 20 21  2  0  0  0  0
 20 29  1  0  0  0  0
 21 22  1  0  0  0  0
 21 35  1  0  0  0  0
 22 23  2  0  0  0  0
 23 24  1  0  0  0  0
 23 34  1  0  0  0  0
 24 25  2  0  0  0  0
 24 29  1  0  0  0  0
 25 26  1  0  0  0  0
 25 33  1  0  0  0  0
 26 27  2  0  0  0  0
 26 32  1  0  0  0  0
 27 28  1  0  0  0  0
 27 31  1  0  0  0  0
 28 29  2  0  0  0  0
 28 30  1  0  0  0  0
 36 37  2  0  0  0  0
M  END
>  <MODEL>
       1

$$$$
