tmp_first_model_17_24.pdb
 OpenBabel08282502223D

 65 70  0  0  1  0  0  0  0  0999 V2000
   -4.9600   -7.3240  -23.7380 O   0  0  0  0  0  0  0  0  0  0  0  0
   -6.0490   -7.3130  -24.2900 C   0  0  0  0  0  0  0  0  0  0  0  0
   -7.2460   -6.6130  -23.6550 C   0  0  0  0  0  0  0  0  0  0  0  0
   -7.1150   -5.1240  -23.8240 N   0  3  1  0  0  0  0  0  0  0  0  0
   -7.2950   -4.7340  -25.3110 C   0  0  0  0  0  0  0  0  0  0  0  0
   -7.2330   -3.2500  -25.5220 C   0  0  0  0  0  0  0  0  0  0  0  0
   -6.8740   -2.7590  -26.7750 C   0  0  0  0  0  0  0  0  0  0  0  0
   -6.8110   -1.3990  -27.0380 C   0  0  0  0  0  0  0  0  0  0  0  0
   -7.1160   -0.5140  -26.0100 C   0  0  0  0  0  0  0  0  0  0  0  0
   -7.0290    1.2000  -26.3050 Cl  0  0  0  0  0  0  0  0  0  0  0  0
   -7.4870   -0.9750  -24.7560 C   0  0  0  0  0  0  0  0  0  0  0  0
   -7.5590   -2.3520  -24.5050 C   0  0  0  0  0  0  0  0  0  0  0  0
   -7.9430   -2.8220  -23.1140 C   0  0  2  0  0  0  0  0  0  0  0  0
   -9.1900   -2.1120  -22.5600 C   0  0  0  0  0  0  0  0  0  0  0  0
   -8.7270   -1.1580  -21.4500 C   0  0  0  0  0  0  0  0  0  0  0  0
   -7.3220   -1.4880  -21.2410 N   0  0  0  0  0  0  0  0  0  0  0  0
   -6.5550   -0.8880  -20.1980 C   0  0  0  0  0  0  0  0  0  0  0  0
   -6.8970   -1.0630  -18.8780 C   0  0  0  0  0  0  0  0  0  0  0  0
   -6.2190   -0.5360  -17.8240 N   0  0  0  0  0  0  0  0  0  0  0  0
   -5.1760    0.2100  -18.0880 C   0  0  0  0  0  0  0  0  0  0  0  0
   -4.7350    0.5200  -19.4030 C   0  0  0  0  0  0  0  0  0  0  0  0
   -3.6150    1.3640  -19.6340 C   0  0  0  0  0  0  0  0  0  0  0  0
   -3.2340    1.6740  -20.9070 C   0  0  0  0  0  0  0  0  0  0  0  0
   -3.9600    1.1620  -22.0080 C   0  0  0  0  0  0  0  0  0  0  0  0
   -5.0400    0.3400  -21.8150 C   0  0  0  0  0  0  0  0  0  0  0  0
   -5.4480   -0.0240  -20.5010 C   0  0  0  0  0  0  0  0  0  0  0  0
   -5.5870   -0.0440  -22.6750 H   0  0  0  0  0  0  0  0  0  0  0  0
   -3.6400    1.4100  -23.0140 H   0  0  0  0  0  0  0  0  0  0  0  0
   -2.3710    2.3100  -21.0880 H   0  0  0  0  0  0  0  0  0  0  0  0
   -3.0770    1.7590  -18.7750 H   0  0  0  0  0  0  0  0  0  0  0  0
   -4.6250    0.6130  -17.2360 H   0  0  0  0  0  0  0  0  0  0  0  0
   -7.7500   -1.6800  -18.5980 H   0  0  0  0  0  0  0  0  0  0  0  0
   -6.8370   -2.4350  -22.1220 C   0  0  0  0  0  0  0  0  0  0  0  0
   -5.7310   -2.9400  -22.1400 O   0  0  0  0  0  0  0  0  0  0  0  0
   -8.8720   -0.0940  -21.6980 H   0  0  0  0  0  0  0  0  0  0  0  0
   -9.2940   -1.3690  -20.5500 H   0  0  0  0  0  0  0  0  0  0  0  0
   -9.7630   -1.6030  -23.3390 H   0  0  0  0  0  0  0  0  0  0  0  0
   -9.8590   -2.8600  -22.1230 H   0  0  0  0  0  0  0  0  0  0  0  0
   -8.1460   -4.3470  -23.0300 C   0  0  0  0  0  0  0  0  0  0  0  0
   -9.1380   -4.5930  -23.4200 H   0  0  0  0  0  0  0  0  0  0  0  0
   -8.1060   -4.6380  -21.9780 H   0  0  0  0  0  0  0  0  0  0  0  0
   -7.7200   -0.2510  -23.9770 H   0  0  0  0  0  0  0  0  0  0  0  0
   -6.5260   -1.0190  -28.0150 H   0  0  0  0  0  0  0  0  0  0  0  0
   -6.6330   -3.4600  -27.5690 H   0  0  0  0  0  0  0  0  0  0  0  0
   -8.2590   -5.1360  -25.6420 H   0  0  0  0  0  0  0  0  0  0  0  0
   -6.5250   -5.2210  -25.9030 H   0  0  0  0  0  0  0  0  0  0  0  0
   -6.1700   -4.8080  -23.4930 H   0  0  0  0  0  0  0  0  0  0  0  0
   -7.2400   -6.8620  -22.5940 H   0  0  0  0  0  0  0  0  0  0  0  0
   -8.1980   -6.9480  -24.0890 H   0  0  0  0  0  0  0  0  0  0  0  0
   -6.2570   -7.8730  -25.5120 N   0  0  0  0  0  0  0  0  0  0  0  0
   -5.1390   -8.4440  -26.2450 C   0  0  0  0  0  0  0  0  0  0  0  0
   -4.1970   -7.3780  -26.7930 C   0  0  1  0  0  0  0  0  0  0  0  0
   -3.1060   -7.8990  -27.7730 C   0  0  0  0  0  0  0  0  0  0  0  0
   -3.7230   -7.0560  -28.9100 C   0  0  1  0  0  0  0  0  0  0  0  0
   -4.2360   -7.8190  -29.9520 F   0  0  0  0  0  0  0  0  0  0  0  0
   -4.8000   -6.5200  -27.9450 C   0  0  0  0  0  0  0  0  0  0  0  0
   -5.8160   -6.8060  -28.2520 H   0  0  0  0  0  0  0  0  0  0  0  0
   -4.8080   -5.4360  -27.7740 H   0  0  0  0  0  0  0  0  0  0  0  0
   -3.0730   -6.3090  -29.3770 H   0  0  0  0  0  0  0  0  0  0  0  0
   -2.0790   -7.6390  -27.4950 H   0  0  0  0  0  0  0  0  0  0  0  0
   -3.1200   -8.9790  -27.9720 H   0  0  0  0  0  0  0  0  0  0  0  0
   -3.8030   -6.8060  -25.9430 H   0  0  0  0  0  0  0  0  0  0  0  0
   -5.5430   -9.0190  -27.0860 H   0  0  0  0  0  0  0  0  0  0  0  0
   -4.5770   -9.1090  -25.5730 H   0  0  0  0  0  0  0  0  0  0  0  0
   -7.1910   -7.9090  -25.8960 H   0  0  0  0  0  0  0  0  0  0  0  0
  1  2  2  0  0  0  0
  2  3  1  0  0  0  0
  2 50  1  0  0  0  0
  3  4  1  0  0  0  0
  3 48  1  0  0  0  0
  3 49  1  0  0  0  0
  4  5  1  0  0  0  0
  4 39  1  0  0  0  0
  4 47  1  1  0  0  0
  5  6  1  0  0  0  0
  5 45  1  0  0  0  0
  5 46  1  0  0  0  0
  6  7  2  0  0  0  0
  6 12  1  0  0  0  0
  7  8  1  0  0  0  0
  7 44  1  0  0  0  0
  8  9  2  0  0  0  0
  8 43  1  0  0  0  0
  9 10  1  0  0  0  0
  9 11  1  0  0  0  0
 11 12  2  0  0  0  0
 11 42  1  0  0  0  0
 13 12  1  6  0  0  0
 13 14  1  0  0  0  0
 13 33  1  0  0  0  0
 13 39  1  0  0  0  0
 14 15  1  0  0  0  0
 14 37  1  0  0  0  0
 14 38  1  0  0  0  0
 15 16  1  0  0  0  0
 15 35  1  0  0  0  0
 15 36  1  0  0  0  0
 16 17  1  0  0  0  0
 16 33  1  0  0  0  0
 17 18  2  0  0  0  0
 17 26  1  0  0  0  0
 18 19  1  0  0  0  0
 18 32  1  0  0  0  0
 19 20  2  0  0  0  0
 20 21  1  0  0  0  0
 20 31  1  0  0  0  0
 21 22  2  0  0  0  0
 21 26  1  0  0  0  0
 22 23  1  0  0  0  0
 22 30  1  0  0  0  0
 23 24  2  0  0  0  0
 23 29  1  0  0  0  0
 24 25  1  0  0  0  0
 24 28  1  0  0  0  0
 25 26  2  0  0  0  0
 25 27  1  0  0  0  0
 33 34  2  0  0  0  0
 39 40  1  0  0  0  0
 39 41  1  0  0  0  0
 50 51  1  0  0  0  0
 50 65  1  0  0  0  0
 51 52  1  0  0  0  0
 51 63  1  0  0  0  0
 51 64  1  0  0  0  0
 52 53  1  0  0  0  0
 52 56  1  0  0  0  0
 52 62  1  1  0  0  0
 53 54  1  0  0  0  0
 53 60  1  0  0  0  0
 53 61  1  0  0  0  0
 54 55  1  0  0  0  0
 54 56  1  0  0  0  0
 54 59  1  6  0  0  0
 56 57  1  0  0  0  0
 56 58  1  0  0  0  0
M  CHG  1   4   1
M  END
>  <MODEL>
       1

$$$$
