tmp_first_model_6_76.pdb
 OpenBabel08272519583D

 66 71  0  0  1  0  0  0  0  0999 V2000
   -8.1960   -3.4700  -24.1020 C   0  0  0  0  0  0  0  0  0  0  0  0
   -8.4650   -2.7340  -22.7830 C   0  0  1  0  0  0  0  0  0  0  0  0
   -7.1830   -2.5230  -21.9490 C   0  0  0  0  0  0  0  0  0  0  0  0
   -7.4580   -1.3160  -21.1890 N   0  0  0  0  0  0  0  0  0  0  0  0
   -6.6200   -0.7910  -20.1650 C   0  0  0  0  0  0  0  0  0  0  0  0
   -6.9130   -1.0440  -18.8520 C   0  0  0  0  0  0  0  0  0  0  0  0
   -6.1990   -0.5660  -17.8040 N   0  0  0  0  0  0  0  0  0  0  0  0
   -5.1710    0.2030  -18.0750 C   0  0  0  0  0  0  0  0  0  0  0  0
   -4.7480    0.5490  -19.3890 C   0  0  0  0  0  0  0  0  0  0  0  0
   -3.6280    1.3930  -19.6340 C   0  0  0  0  0  0  0  0  0  0  0  0
   -3.2580    1.7080  -20.9130 C   0  0  0  0  0  0  0  0  0  0  0  0
   -3.9880    1.1940  -22.0050 C   0  0  0  0  0  0  0  0  0  0  0  0
   -5.0650    0.3620  -21.7960 C   0  0  0  0  0  0  0  0  0  0  0  0
   -5.4900    0.0300  -20.4800 C   0  0  0  0  0  0  0  0  0  0  0  0
   -5.5690   -0.0770  -22.6510 H   0  0  0  0  0  0  0  0  0  0  0  0
   -3.6690    1.4160  -23.0200 H   0  0  0  0  0  0  0  0  0  0  0  0
   -2.3970    2.3480  -21.0970 H   0  0  0  0  0  0  0  0  0  0  0  0
   -3.0850    1.7850  -18.7780 H   0  0  0  0  0  0  0  0  0  0  0  0
   -4.6200    0.6080  -17.2240 H   0  0  0  0  0  0  0  0  0  0  0  0
   -7.7710   -1.6640  -18.5970 H   0  0  0  0  0  0  0  0  0  0  0  0
   -8.5330   -0.5950  -21.6480 C   0  0  0  0  0  0  0  0  0  0  0  0
   -8.9230    0.4490  -21.1550 O   0  0  0  0  0  0  0  0  0  0  0  0
   -9.1330   -1.3220  -22.8770 C   0  0  1  0  0  0  0  0  0  0  0  0
   -8.7120   -0.5860  -24.1700 C   0  0  0  0  0  0  0  0  0  0  0  0
   -9.3140    0.7290  -24.2650 N   0  0  0  0  0  0  0  0  0  0  0  0
   -8.5180    1.7850  -24.8630 C   0  0  0  0  0  0  0  0  0  0  0  0
   -7.5560    2.4180  -23.8690 C   0  0  0  0  0  0  0  0  0  0  0  0
   -8.2810    3.2270  -22.8370 N   0  3  0  0  0  0  0  0  0  0  0  0
   -7.4920    3.3300  -21.5790 C   0  0  0  0  0  0  0  0  0  0  0  0
   -6.3350    4.3080  -21.6370 C   0  0  0  0  0  0  0  0  0  0  0  0
   -6.8020    5.6000  -21.9560 O   0  0  0  0  0  0  0  0  0  0  0  0
   -7.4380    5.5940  -23.2140 C   0  0  0  0  0  0  0  0  0  0  0  0
   -8.6440    4.6470  -23.2540 C   0  0  0  0  0  0  0  0  0  0  0  0
   -9.4030    5.0030  -22.5520 H   0  0  0  0  0  0  0  0  0  0  0  0
   -9.0680    4.6200  -24.2590 H   0  0  0  0  0  0  0  0  0  0  0  0
   -6.7130    5.3070  -23.9890 H   0  0  0  0  0  0  0  0  0  0  0  0
   -7.7630    6.6210  -23.3970 H   0  0  0  0  0  0  0  0  0  0  0  0
   -5.8830    4.3740  -20.6450 H   0  0  0  0  0  0  0  0  0  0  0  0
   -5.5690    3.9740  -22.3570 H   0  0  0  0  0  0  0  0  0  0  0  0
   -7.1440    2.3260  -21.3190 H   0  0  0  0  0  0  0  0  0  0  0  0
   -8.1750    3.6910  -20.8080 H   0  0  0  0  0  0  0  0  0  0  0  0
   -9.1400    2.7020  -22.5770 H   0  0  0  0  0  0  0  0  0  0  0  0
   -6.9920    1.6470  -23.3300 H   0  0  0  0  0  0  0  0  0  0  0  0
   -6.8340    3.0540  -24.3850 H   0  0  0  0  0  0  0  0  0  0  0  0
   -7.9410    1.3740  -25.6980 H   0  0  0  0  0  0  0  0  0  0  0  0
   -9.2180    2.5290  -25.2410 H   0  0  0  0  0  0  0  0  0  0  0  0
  -10.6610    0.8880  -24.1090 C   0  0  0  0  0  0  0  0  0  0  0  0
  -11.2700    1.8900  -24.4710 O   0  0  0  0  0  0  0  0  0  0  0  0
  -11.3640   -0.2370  -23.4040 C   0  0  0  0  0  0  0  0  0  0  0  0
  -12.7520   -0.1630  -23.3110 C   0  0  0  0  0  0  0  0  0  0  0  0
  -13.4430   -1.0970  -22.5680 C   0  0  0  0  0  0  0  0  0  0  0  0
  -12.7330   -2.0840  -21.8870 C   0  0  0  0  0  0  0  0  0  0  0  0
  -13.6210   -3.1090  -20.8000 Cl  0  0  0  0  0  0  0  0  0  0  0  0
  -11.3580   -2.1930  -21.9970 C   0  0  0  0  0  0  0  0  0  0  0  0
  -10.6520   -1.2860  -22.7990 C   0  0  0  0  0  0  0  0  0  0  0  0
  -10.8440   -2.9530  -21.4190 H   0  0  0  0  0  0  0  0  0  0  0  0
  -14.5180   -1.0520  -22.4580 H   0  0  0  0  0  0  0  0  0  0  0  0
  -13.2510    0.6670  -23.8020 H   0  0  0  0  0  0  0  0  0  0  0  0
   -7.6250   -0.4570  -24.1820 H   0  0  0  0  0  0  0  0  0  0  0  0
   -9.0060   -1.2050  -25.0330 H   0  0  0  0  0  0  0  0  0  0  0  0
   -6.9740   -3.3630  -21.2770 H   0  0  0  0  0  0  0  0  0  0  0  0
   -6.3030   -2.3980  -22.5990 H   0  0  0  0  0  0  0  0  0  0  0  0
   -9.1430   -3.3470  -22.1840 H   0  0  0  0  0  0  0  0  0  0  0  0
   -9.1010   -3.5770  -24.7100 H   0  0  0  0  0  0  0  0  0  0  0  0
   -7.4490   -2.9410  -24.7070 H   0  0  0  0  0  0  0  0  0  0  0  0
   -7.8030   -4.4760  -23.9150 H   0  0  0  0  0  0  0  0  0  0  0  0
  1  2  1  0  0  0  0
  1 64  1  0  0  0  0
  1 65  1  0  0  0  0
  1 66  1  0  0  0  0
  2  3  1  0  0  0  0
  2 23  1  0  0  0  0
  2 63  1  1  0  0  0
  3  4  1  0  0  0  0
  3 61  1  0  0  0  0
  3 62  1  0  0  0  0
  4  5  1  0  0  0  0
  4 21  1  0  0  0  0
  5  6  2  0  0  0  0
  5 14  1  0  0  0  0
  6  7  1  0  0  0  0
  6 20  1  0  0  0  0
  7  8  2  0  0  0  0
  8  9  1  0  0  0  0
  8 19  1  0  0  0  0
  9 10  2  0  0  0  0
  9 14  1  0  0  0  0
 10 11  1  0  0  0  0
 10 18  1  0  0  0  0
 11 12  2  0  0  0  0
 11 17  1  0  0  0  0
 12 13  1  0  0  0  0
 12 16  1  0  0  0  0
 13 14  2  0  0  0  0
 13 15  1  0  0  0  0
 21 22  2  0  0  0  0
 23 21  1  1  0  0  0
 23 24  1  0  0  0  0
 23 55  1  0  0  0  0
 24 25  1  0  0  0  0
 24 59  1  0  0  0  0
 24 60  1  0  0  0  0
 25 26  1  0  0  0  0
 25 47  1  0  0  0  0
 26 27  1  0  0  0  0
 26 45  1  0  0  0  0
 26 46  1  0  0  0  0
 27 28  1  0  0  0  0
 27 43  1  0  0  0  0
 27 44  1  0  0  0  0
 28 29  1  0  0  0  0
 28 33  1  0  0  0  0
 28 42  1  0  0  0  0
 29 30  1  0  0  0  0
 29 40  1  0  0  0  0
 29 41  1  0  0  0  0
 30 31  1  0  0  0  0
 30 38  1  0  0  0  0
 30 39  1  0  0  0  0
 31 32  1  0  0  0  0
 32 33  1  0  0  0  0
 32 36  1  0  0  0  0
 32 37  1  0  0  0  0
 33 34  1  0  0  0  0
 33 35  1  0  0  0  0
 47 48  2  0  0  0  0
 47 49  1  0  0  0  0
 49 50  2  0  0  0  0
 49 55  1  0  0  0  0
 50 51  1  0  0  0  0
 50 58  1  0  0  0  0
 51 52  2  0  0  0  0
 51 57  1  0  0  0  0
 52 53  1  0  0  0  0
 52 54  1  0  0  0  0
 54 55  2  0  0  0  0
 54 56  1  0  0  0  0
M  CHG  1  28   1
M  END
>  <MODEL>
       1

$$$$
