tmp_first_model_2_7.pdb
 OpenBabel08272517383D

 44 47  0  0  0  0  0  0  0  0999 V2000
   -9.6230   -5.6940  -28.0340 C   0  0  0  0  0  0  0  0  0  0  0  0
   -9.0540   -5.5820  -26.6190 C   0  0  0  0  0  0  0  0  0  0  0  0
   -8.4130   -3.9140  -26.4400 S   0  0  0  0  0  0  0  0  0  0  0  0
   -9.5790   -3.0350  -26.3780 O   0  0  0  0  0  0  0  0  0  0  0  0
   -7.3870   -3.7090  -27.4480 O   0  0  0  0  0  0  0  0  0  0  0  0
   -7.6230   -3.8780  -24.9460 N   0  0  0  0  0  0  0  0  0  0  0  0
   -8.4110   -3.8610  -23.6890 C   0  0  0  0  0  0  0  0  0  0  0  0
   -7.7880   -2.4960  -23.2980 C   0  0  0  0  0  0  0  0  0  0  0  0
   -7.0010   -2.5610  -24.6300 C   0  0  0  0  0  0  0  0  0  0  0  0
   -5.9230   -2.6600  -24.5090 H   0  0  0  0  0  0  0  0  0  0  0  0
   -7.2270   -1.7650  -25.3440 H   0  0  0  0  0  0  0  0  0  0  0  0
   -6.9180   -2.4800  -22.0530 C   0  0  0  0  0  0  0  0  0  0  0  0
   -6.0080   -3.2210  -21.7810 O   0  0  0  0  0  0  0  0  0  0  0  0
   -7.3580   -1.4030  -21.2770 N   0  0  0  0  0  0  0  0  0  0  0  0
   -6.5840   -0.8260  -20.2270 C   0  0  0  0  0  0  0  0  0  0  0  0
   -6.9250   -1.0610  -18.9240 C   0  0  0  0  0  0  0  0  0  0  0  0
   -6.2460   -0.5650  -17.8570 N   0  0  0  0  0  0  0  0  0  0  0  0
   -5.2040    0.1910  -18.1030 C   0  0  0  0  0  0  0  0  0  0  0  0
   -4.7430    0.5180  -19.4110 C   0  0  0  0  0  0  0  0  0  0  0  0
   -3.6120    1.3510  -19.6310 C   0  0  0  0  0  0  0  0  0  0  0  0
   -3.2090    1.6480  -20.9030 C   0  0  0  0  0  0  0  0  0  0  0  0
   -3.9150    1.1320  -22.0170 C   0  0  0  0  0  0  0  0  0  0  0  0
   -5.0130    0.3320  -21.8290 C   0  0  0  0  0  0  0  0  0  0  0  0
   -5.4510    0.0000  -20.5170 C   0  0  0  0  0  0  0  0  0  0  0  0
   -5.5620   -0.0430  -22.6880 H   0  0  0  0  0  0  0  0  0  0  0  0
   -3.5940    1.3790  -23.0260 H   0  0  0  0  0  0  0  0  0  0  0  0
   -2.3480    2.2920  -21.0760 H   0  0  0  0  0  0  0  0  0  0  0  0
   -3.0900    1.7530  -18.7650 H   0  0  0  0  0  0  0  0  0  0  0  0
   -4.6620    0.5920  -17.2440 H   0  0  0  0  0  0  0  0  0  0  0  0
   -7.7840   -1.6910  -18.7060 H   0  0  0  0  0  0  0  0  0  0  0  0
   -8.4370   -0.7310  -21.8820 C   0  0  0  0  0  0  0  0  0  0  0  0
   -9.0240    0.2250  -21.4300 O   0  0  0  0  0  0  0  0  0  0  0  0
   -8.6710   -1.3830  -23.0670 N   0  0  0  0  0  0  0  0  0  0  0  0
   -9.6820   -0.9470  -24.0020 C   0  0  0  0  0  0  0  0  0  0  0  0
  -10.3970   -1.7510  -24.1960 H   0  0  0  0  0  0  0  0  0  0  0  0
  -10.1940   -0.0990  -23.5470 H   0  0  0  0  0  0  0  0  0  0  0  0
   -9.2260   -0.6350  -24.9480 H   0  0  0  0  0  0  0  0  0  0  0  0
   -8.1080   -4.6760  -23.0300 H   0  0  0  0  0  0  0  0  0  0  0  0
   -9.4960   -3.8550  -23.8180 H   0  0  0  0  0  0  0  0  0  0  0  0
   -9.8310   -5.7150  -25.8600 H   0  0  0  0  0  0  0  0  0  0  0  0
   -8.2260   -6.2730  -26.4260 H   0  0  0  0  0  0  0  0  0  0  0  0
  -10.0780   -6.6740  -28.2190 H   0  0  0  0  0  0  0  0  0  0  0  0
   -8.8180   -5.5140  -28.7440 H   0  0  0  0  0  0  0  0  0  0  0  0
  -10.4080   -4.9470  -28.1960 H   0  0  0  0  0  0  0  0  0  0  0  0
  1  2  1  0  0  0  0
  1 42  1  0  0  0  0
  1 43  1  0  0  0  0
  1 44  1  0  0  0  0
  2  3  1  0  0  0  0
  2 40  1  0  0  0  0
  2 41  1  0  0  0  0
  3  4  2  0  0  0  0
  3  5  2  0  0  0  0
  3  6  1  0  0  0  0
  6  7  1  0  0  0  0
  6  9  1  0  0  0  0
  7  8  1  0  0  0  0
  7 38  1  0  0  0  0
  7 39  1  0  0  0  0
  8  9  1  0  0  0  0
  8 12  1  0  0  0  0
  8 33  1  0  0  0  0
  9 10  1  0  0  0  0
  9 11  1  0  0  0  0
 12 13  2  0  0  0  0
 12 14  1  0  0  0  0
 14 15  1  0  0  0  0
 14 31  1  0  0  0  0
 15 16  2  0  0  0  0
 15 24  1  0  0  0  0
 16 17  1  0  0  0  0
 16 30  1  0  0  0  0
 17 18  2  0  0  0  0
 18 19  1  0  0  0  0
 18 29  1  0  0  0  0
 19 20  2  0  0  0  0
 19 24  1  0  0  0  0
 20 21  1  0  0  0  0
 20 28  1  0  0  0  0
 21 22  2  0  0  0  0
 21 27  1  0  0  0  0
 22 23  1  0  0  0  0
 22 26  1  0  0  0  0
 23 24  2  0  0  0  0
 23 25  1  0  0  0  0
 31 32  2  0  0  0  0
 31 33  1  0  0  0  0
 33 34  1  0  0  0  0
 34 35  1  0  0  0  0
 34 36  1  0  0  0  0
 34 37  1  0  0  0  0
M  END
>  <MODEL>
       1

$$$$
