tmp_first_model_17_23.pdb
 OpenBabel08282502223D

 68 73  0  0  1  0  0  0  0  0999 V2000
  -14.4100   -1.1680  -24.2490 C   0  0  0  0  0  0  0  0  0  0  0  0
  -13.7330   -2.3800  -23.8380 N   0  0  0  0  0  0  0  0  0  0  0  0
  -13.1580   -2.4150  -22.6140 C   0  0  0  0  0  0  0  0  0  0  0  0
  -13.1120   -1.4120  -21.9090 O   0  0  0  0  0  0  0  0  0  0  0  0
  -12.5400   -3.7450  -22.1650 C   0  0  0  0  0  0  0  0  0  0  0  0
  -11.1570   -3.8920  -22.5920 N   0  0  0  0  0  0  0  0  0  0  0  0
  -10.1020   -3.3760  -21.7220 C   0  0  0  0  0  0  0  0  0  0  0  0
   -8.8300   -2.9360  -22.4890 C   0  0  2  0  0  0  0  0  0  0  0  0
   -7.7120   -2.7490  -21.4450 C   0  0  0  0  0  0  0  0  0  0  0  0
   -7.1200   -3.6300  -20.8520 O   0  0  0  0  0  0  0  0  0  0  0  0
   -7.4760   -1.3980  -21.2630 N   0  0  0  0  0  0  0  0  0  0  0  0
   -6.6670   -0.9120  -20.2010 C   0  0  0  0  0  0  0  0  0  0  0  0
   -6.9480   -1.2120  -18.8880 C   0  0  0  0  0  0  0  0  0  0  0  0
   -6.2960   -0.6760  -17.8200 N   0  0  0  0  0  0  0  0  0  0  0  0
   -5.3060    0.1480  -18.0640 C   0  0  0  0  0  0  0  0  0  0  0  0
   -4.8660    0.4980  -19.3720 C   0  0  0  0  0  0  0  0  0  0  0  0
   -3.7560    1.3570  -19.5850 C   0  0  0  0  0  0  0  0  0  0  0  0
   -3.3460    1.6460  -20.8570 C   0  0  0  0  0  0  0  0  0  0  0  0
   -4.0180    1.0910  -21.9690 C   0  0  0  0  0  0  0  0  0  0  0  0
   -5.0950    0.2590  -21.7910 C   0  0  0  0  0  0  0  0  0  0  0  0
   -5.5560   -0.0470  -20.4810 C   0  0  0  0  0  0  0  0  0  0  0  0
   -5.5930   -0.1840  -22.6490 H   0  0  0  0  0  0  0  0  0  0  0  0
   -3.6710    1.3230  -22.9710 H   0  0  0  0  0  0  0  0  0  0  0  0
   -2.4980    2.3020  -21.0240 H   0  0  0  0  0  0  0  0  0  0  0  0
   -3.2460    1.7750  -18.7210 H   0  0  0  0  0  0  0  0  0  0  0  0
   -4.7860    0.5790  -17.2060 H   0  0  0  0  0  0  0  0  0  0  0  0
   -7.7440   -1.9100  -18.6390 H   0  0  0  0  0  0  0  0  0  0  0  0
   -8.4240   -0.5600  -21.9910 C   0  0  0  0  0  0  0  0  0  0  0  0
   -8.9340   -1.4950  -23.0970 C   0  0  2  0  0  0  0  0  0  0  0  0
  -10.3110   -1.1030  -23.6660 C   0  0  0  0  0  0  0  0  0  0  0  0
  -10.3030    0.1110  -24.4510 N   0  0  0  0  0  0  0  0  0  0  0  0
  -10.5420    1.3700  -23.9160 C   0  0  0  0  0  0  0  0  0  0  0  0
  -11.5360    1.5720  -22.9480 C   0  0  0  0  0  0  0  0  0  0  0  0
  -11.8000    2.8600  -22.4880 C   0  0  0  0  0  0  0  0  0  0  0  0
  -11.0910    3.9540  -22.9750 C   0  0  0  0  0  0  0  0  0  0  0  0
  -10.1030    3.7530  -23.9330 C   0  0  0  0  0  0  0  0  0  0  0  0
   -9.8240    2.4760  -24.3950 C   0  0  0  0  0  0  0  0  0  0  0  0
   -9.0520    2.3180  -25.1460 H   0  0  0  0  0  0  0  0  0  0  0  0
   -9.5230    4.5950  -24.3080 H   0  0  0  0  0  0  0  0  0  0  0  0
  -11.2790    4.9480  -22.5830 H   0  0  0  0  0  0  0  0  0  0  0  0
  -12.5350    3.0100  -21.6990 H   0  0  0  0  0  0  0  0  0  0  0  0
  -12.0970    0.7190  -22.5620 H   0  0  0  0  0  0  0  0  0  0  0  0
   -9.6850    0.0930  -25.2460 H   0  0  0  0  0  0  0  0  0  0  0  0
  -11.0240   -0.9830  -22.8490 H   0  0  0  0  0  0  0  0  0  0  0  0
  -10.6660   -1.9120  -24.3140 H   0  0  0  0  0  0  0  0  0  0  0  0
   -8.2200   -1.4560  -23.9320 H   0  0  0  0  0  0  0  0  0  0  0  0
   -7.9430    0.3480  -22.3700 H   0  0  0  0  0  0  0  0  0  0  0  0
   -9.2430   -0.2460  -21.3240 H   0  0  0  0  0  0  0  0  0  0  0  0
   -8.4930   -4.0000  -23.5180 C   0  0  0  0  0  0  0  0  0  0  0  0
   -7.1760   -4.1670  -23.9650 C   0  0  0  0  0  0  0  0  0  0  0  0
   -6.8820   -5.1580  -24.8890 C   0  0  0  0  0  0  0  0  0  0  0  0
   -5.2290   -5.3980  -25.3840 Cl  0  0  0  0  0  0  0  0  0  0  0  0
   -7.8810   -5.9520  -25.4560 C   0  0  0  0  0  0  0  0  0  0  0  0
   -9.1930   -5.7320  -25.0770 C   0  0  0  0  0  0  0  0  0  0  0  0
   -9.4970   -4.7740  -24.1110 C   0  0  0  0  0  0  0  0  0  0  0  0
  -10.9310   -4.5720  -23.7520 C   0  0  0  0  0  0  0  0  0  0  0  0
  -11.8440   -4.9750  -24.4660 O   0  0  0  0  0  0  0  0  0  0  0  0
  -10.0090   -6.2790  -25.5410 H   0  0  0  0  0  0  0  0  0  0  0  0
   -7.6280   -6.7000  -26.2020 H   0  0  0  0  0  0  0  0  0  0  0  0
   -6.3890   -3.5150  -23.5960 H   0  0  0  0  0  0  0  0  0  0  0  0
   -9.8160   -4.1180  -20.9650 H   0  0  0  0  0  0  0  0  0  0  0  0
  -10.5180   -2.5120  -21.1940 H   0  0  0  0  0  0  0  0  0  0  0  0
  -12.5560   -3.7780  -21.0730 H   0  0  0  0  0  0  0  0  0  0  0  0
  -13.1060   -4.5890  -22.5740 H   0  0  0  0  0  0  0  0  0  0  0  0
  -13.5720   -3.1190  -24.5030 H   0  0  0  0  0  0  0  0  0  0  0  0
  -13.7550   -0.3000  -24.1020 H   0  0  0  0  0  0  0  0  0  0  0  0
  -15.2910   -0.9940  -23.6270 H   0  0  0  0  0  0  0  0  0  0  0  0
  -14.7090   -1.2500  -25.2950 H   0  0  0  0  0  0  0  0  0  0  0  0
  1  2  1  0  0  0  0
  1 66  1  0  0  0  0
  1 67  1  0  0  0  0
  1 68  1  0  0  0  0
  2  3  1  0  0  0  0
  2 65  1  0  0  0  0
  3  4  2  0  0  0  0
  3  5  1  0  0  0  0
  5  6  1  0  0  0  0
  5 63  1  0  0  0  0
  5 64  1  0  0  0  0
  6  7  1  0  0  0  0
  6 56  1  0  0  0  0
  7  8  1  0  0  0  0
  7 61  1  0  0  0  0
  7 62  1  0  0  0  0
  8  9  1  1  0  0  0
  8 29  1  0  0  0  0
  8 49  1  0  0  0  0
  9 10  2  0  0  0  0
  9 11  1  0  0  0  0
 11 12  1  0  0  0  0
 11 28  1  0  0  0  0
 12 13  2  0  0  0  0
 12 21  1  0  0  0  0
 13 14  1  0  0  0  0
 13 27  1  0  0  0  0
 14 15  2  0  0  0  0
 15 16  1  0  0  0  0
 15 26  1  0  0  0  0
 16 17  2  0  0  0  0
 16 21  1  0  0  0  0
 17 18  1  0  0  0  0
 17 25  1  0  0  0  0
 18 19  2  0  0  0  0
 18 24  1  0  0  0  0
 19 20  1  0  0  0  0
 19 23  1  0  0  0  0
 20 21  2  0  0  0  0
 20 22  1  0  0  0  0
 28 29  1  0  0  0  0
 28 47  1  0  0  0  0
 28 48  1  0  0  0  0
 29 30  1  0  0  0  0
 29 46  1  6  0  0  0
 30 31  1  0  0  0  0
 30 44  1  0  0  0  0
 30 45  1  0  0  0  0
 31 32  1  0  0  0  0
 31 43  1  0  0  0  0
 32 33  2  0  0  0  0
 32 37  1  0  0  0  0
 33 34  1  0  0  0  0
 33 42  1  0  0  0  0
 34 35  2  0  0  0  0
 34 41  1  0  0  0  0
 35 36  1  0  0  0  0
 35 40  1  0  0  0  0
 36 37  2  0  0  0  0
 36 39  1  0  0  0  0
 37 38  1  0  0  0  0
 49 50  2  0  0  0  0
 49 55  1  0  0  0  0
 50 51  1  0  0  0  0
 50 60  1  0  0  0  0
 51 52  1  0  0  0  0
 51 53  2  0  0  0  0
 53 54  1  0  0  0  0
 53 59  1  0  0  0  0
 54 55  2  0  0  0  0
 54 58  1  0  0  0  0
 55 56  1  0  0  0  0
 56 57  2  0  0  0  0
M  END
>  <MODEL>
       1

$$$$
