tmp_first_model_5_82.pdb
 OpenBabel08272519233D

 54 57  0  0  1  0  0  0  0  0999 V2000
   -6.0140   -4.4930  -24.7030 C   0  0  0  0  0  0  0  0  0  0  0  0
   -6.7530   -3.3090  -24.5000 O   0  0  0  0  0  0  0  0  0  0  0  0
   -8.0430   -3.4660  -24.0810 C   0  0  0  0  0  0  0  0  0  0  0  0
   -8.6170   -4.7120  -23.8270 C   0  0  0  0  0  0  0  0  0  0  0  0
   -9.9410   -4.7890  -23.4120 C   0  0  0  0  0  0  0  0  0  0  0  0
  -10.6920   -3.6440  -23.2020 C   0  0  0  0  0  0  0  0  0  0  0  0
  -10.1060   -2.4030  -23.4370 C   0  0  0  0  0  0  0  0  0  0  0  0
   -8.7920   -2.3000  -23.8830 C   0  0  0  0  0  0  0  0  0  0  0  0
   -8.1810   -0.9480  -24.1950 C   0  0  1  0  0  0  0  0  0  0  0  0
   -8.7800   -0.4800  -25.5260 C   0  0  0  0  0  0  0  0  0  0  0  0
   -8.4080    0.9560  -25.8710 C   0  0  1  0  0  0  0  0  0  0  0  0
   -9.0190    1.3860  -27.2020 C   0  0  0  0  0  0  0  0  0  0  0  0
   -8.7280    2.4120  -27.4500 H   0  0  0  0  0  0  0  0  0  0  0  0
   -8.6990    0.7300  -28.0200 H   0  0  0  0  0  0  0  0  0  0  0  0
  -10.1140    1.3510  -27.1540 H   0  0  0  0  0  0  0  0  0  0  0  0
   -8.8890    1.8440  -24.7270 C   0  0  0  0  0  0  0  0  0  0  0  0
   -8.2530    1.4430  -23.4090 C   0  0  0  0  0  0  0  0  0  0  0  0
   -8.4250    0.0160  -23.1200 N   0  0  0  0  0  0  0  0  0  0  0  0
   -8.3110   -0.3200  -21.7750 C   0  0  0  0  0  0  0  0  0  0  0  0
   -8.8590    0.3450  -20.9180 O   0  0  0  0  0  0  0  0  0  0  0  0
   -7.4470   -1.5170  -21.3500 C   0  0  0  0  0  0  0  0  0  0  0  0
   -6.5130   -1.0680  -20.2600 C   0  0  0  0  0  0  0  0  0  0  0  0
   -6.8140   -1.2210  -18.9330 C   0  0  0  0  0  0  0  0  0  0  0  0
   -5.9810   -0.9020  -17.9070 N   0  0  0  0  0  0  0  0  0  0  0  0
   -4.8210   -0.3750  -18.2220 C   0  0  0  0  0  0  0  0  0  0  0  0
   -4.4310   -0.0520  -19.5480 C   0  0  0  0  0  0  0  0  0  0  0  0
   -3.2680    0.7100  -19.8120 C   0  0  0  0  0  0  0  0  0  0  0  0
   -3.1520    1.3970  -20.9860 C   0  0  0  0  0  0  0  0  0  0  0  0
   -4.0700    1.1540  -22.0440 C   0  0  0  0  0  0  0  0  0  0  0  0
   -5.0910    0.2540  -21.8650 C   0  0  0  0  0  0  0  0  0  0  0  0
   -5.3480   -0.3140  -20.5850 C   0  0  0  0  0  0  0  0  0  0  0  0
   -5.6900   -0.0590  -22.7170 H   0  0  0  0  0  0  0  0  0  0  0  0
   -3.9070    1.6230  -23.0140 H   0  0  0  0  0  0  0  0  0  0  0  0
   -2.2890    2.0250  -21.1730 H   0  0  0  0  0  0  0  0  0  0  0  0
   -2.5600    0.8430  -19.0000 H   0  0  0  0  0  0  0  0  0  0  0  0
   -4.1520   -0.1070  -17.4030 H   0  0  0  0  0  0  0  0  0  0  0  0
   -7.7950   -1.6040  -18.6430 H   0  0  0  0  0  0  0  0  0  0  0  0
   -6.8800   -1.9290  -22.1920 H   0  0  0  0  0  0  0  0  0  0  0  0
   -8.1240   -2.3050  -20.9960 H   0  0  0  0  0  0  0  0  0  0  0  0
   -8.7030    1.9830  -22.5750 H   0  0  0  0  0  0  0  0  0  0  0  0
   -7.1790    1.7050  -23.4170 H   0  0  0  0  0  0  0  0  0  0  0  0
   -9.9830    1.7660  -24.6450 H   0  0  0  0  0  0  0  0  0  0  0  0
   -8.6520    2.8960  -24.9300 H   0  0  0  0  0  0  0  0  0  0  0  0
   -7.3090    1.0360  -25.9460 H   0  0  0  0  0  0  0  0  0  0  0  0
   -8.4540   -1.1730  -26.3120 H   0  0  0  0  0  0  0  0  0  0  0  0
   -9.8760   -0.5680  -25.4600 H   0  0  0  0  0  0  0  0  0  0  0  0
   -7.0990   -1.0720  -24.3330 H   0  0  0  0  0  0  0  0  0  0  0  0
  -10.6970   -1.5020  -23.2710 H   0  0  0  0  0  0  0  0  0  0  0  0
  -11.7240   -3.7140  -22.8680 H   0  0  0  0  0  0  0  0  0  0  0  0
  -10.3810   -5.7640  -23.2690 H   0  0  0  0  0  0  0  0  0  0  0  0
   -8.0510   -5.6260  -23.9460 H   0  0  0  0  0  0  0  0  0  0  0  0
   -5.8990   -5.0420  -23.7590 H   0  0  0  0  0  0  0  0  0  0  0  0
   -5.0330   -4.1930  -25.0740 H   0  0  0  0  0  0  0  0  0  0  0  0
   -6.5070   -5.1350  -25.4440 H   0  0  0  0  0  0  0  0  0  0  0  0
  1  2  1  0  0  0  0
  1 52  1  0  0  0  0
  1 53  1  0  0  0  0
  1 54  1  0  0  0  0
  2  3  1  0  0  0  0
  3  4  2  0  0  0  0
  3  8  1  0  0  0  0
  4  5  1  0  0  0  0
  4 51  1  0  0  0  0
  5  6  2  0  0  0  0
  5 50  1  0  0  0  0
  6  7  1  0  0  0  0
  6 49  1  0  0  0  0
  7  8  2  0  0  0  0
  7 48  1  0  0  0  0
  8  9  1  0  0  0  0
  9 10  1  0  0  0  0
  9 18  1  0  0  0  0
  9 47  1  6  0  0  0
 10 11  1  0  0  0  0
 10 45  1  0  0  0  0
 10 46  1  0  0  0  0
 11 12  1  0  0  0  0
 11 16  1  0  0  0  0
 11 44  1  6  0  0  0
 12 13  1  0  0  0  0
 12 14  1  0  0  0  0
 12 15  1  0  0  0  0
 16 17  1  0  0  0  0
 16 42  1  0  0  0  0
 16 43  1  0  0  0  0
 17 18  1  0  0  0  0
 17 40  1  0  0  0  0
 17 41  1  0  0  0  0
 18 19  1  0  0  0  0
 19 20  2  0  0  0  0
 19 21  1  0  0  0  0
 21 22  1  0  0  0  0
 21 38  1  0  0  0  0
 21 39  1  0  0  0  0
 22 23  2  0  0  0  0
 22 31  1  0  0  0  0
 23 24  1  0  0  0  0
 23 37  1  0  0  0  0
 24 25  2  0  0  0  0
 25 26  1  0  0  0  0
 25 36  1  0  0  0  0
 26 27  2  0  0  0  0
 26 31  1  0  0  0  0
 27 28  1  0  0  0  0
 27 35  1  0  0  0  0
 28 29  2  0  0  0  0
 28 34  1  0  0  0  0
 29 30  1  0  0  0  0
 29 33  1  0  0  0  0
 30 31  2  0  0  0  0
 30 32  1  0  0  0  0
M  END
>  <MODEL>
       1

$$$$
