tmp_first_model_8_73.pdb
 OpenBabel08272521063D

 50 53  0  0  1  0  0  0  0  0999 V2000
   -5.6000   -3.0240  -21.5770 O   0  0  0  0  0  0  0  0  0  0  0  0
   -6.7560   -2.7510  -21.8610 C   0  0  0  0  0  0  0  0  0  0  0  0
   -7.4150   -1.4780  -21.2680 C   0  0  0  0  0  0  0  0  0  0  0  0
   -6.5820   -0.8320  -20.1840 C   0  0  0  0  0  0  0  0  0  0  0  0
   -6.8740   -1.0450  -18.8620 C   0  0  0  0  0  0  0  0  0  0  0  0
   -6.1870   -0.5470  -17.8010 N   0  0  0  0  0  0  0  0  0  0  0  0
   -5.1580    0.2220  -18.0640 C   0  0  0  0  0  0  0  0  0  0  0  0
   -4.7230    0.5310  -19.3820 C   0  0  0  0  0  0  0  0  0  0  0  0
   -3.5930    1.3580  -19.6180 C   0  0  0  0  0  0  0  0  0  0  0  0
   -3.2000    1.6440  -20.8980 C   0  0  0  0  0  0  0  0  0  0  0  0
   -3.9320    1.1230  -21.9860 C   0  0  0  0  0  0  0  0  0  0  0  0
   -5.0100    0.2960  -21.7850 C   0  0  0  0  0  0  0  0  0  0  0  0
   -5.4470   -0.0130  -20.4710 C   0  0  0  0  0  0  0  0  0  0  0  0
   -5.5240   -0.1320  -22.6370 H   0  0  0  0  0  0  0  0  0  0  0  0
   -3.5870    1.3210  -22.9960 H   0  0  0  0  0  0  0  0  0  0  0  0
   -2.3290    2.2670  -21.0880 H   0  0  0  0  0  0  0  0  0  0  0  0
   -3.0540    1.7740  -18.7690 H   0  0  0  0  0  0  0  0  0  0  0  0
   -4.6020    0.6280  -17.2170 H   0  0  0  0  0  0  0  0  0  0  0  0
   -7.7200   -1.6700  -18.5860 H   0  0  0  0  0  0  0  0  0  0  0  0
   -7.6150   -0.7470  -22.0640 H   0  0  0  0  0  0  0  0  0  0  0  0
   -8.3960   -1.7460  -20.8470 H   0  0  0  0  0  0  0  0  0  0  0  0
   -7.5160   -3.5790  -22.6630 N   0  0  0  0  0  0  0  0  0  0  0  0
   -8.6630   -3.1250  -23.4530 C   0  0  0  0  0  0  0  0  0  0  0  0
   -9.7340   -4.2010  -23.5650 C   0  0  0  0  0  0  0  0  0  0  0  0
   -9.1570   -5.4970  -24.1070 C   0  0  0  0  0  0  0  0  0  0  0  0
   -7.9710   -5.9240  -23.2520 C   0  0  0  0  0  0  0  0  0  0  0  0
   -6.9010   -4.8460  -23.1110 C   0  0  1  0  0  0  0  0  0  0  0  0
   -6.0380   -4.6930  -24.3750 C   0  0  0  0  0  0  0  0  0  0  0  0
   -5.2070   -5.9200  -24.6890 C   0  0  0  0  0  0  0  0  0  0  0  0
   -4.0470   -6.1880  -23.9570 C   0  0  0  0  0  0  0  0  0  0  0  0
   -3.2840   -7.3200  -24.2200 C   0  0  0  0  0  0  0  0  0  0  0  0
   -3.6710   -8.2100  -25.2170 C   0  0  0  0  0  0  0  0  0  0  0  0
   -4.8270   -7.9600  -25.9500 C   0  0  0  0  0  0  0  0  0  0  0  0
   -5.5860   -6.8240  -25.6830 C   0  0  0  0  0  0  0  0  0  0  0  0
   -6.4950   -6.6410  -26.2540 H   0  0  0  0  0  0  0  0  0  0  0  0
   -5.1410   -8.6460  -26.7320 H   0  0  0  0  0  0  0  0  0  0  0  0
   -3.0720   -9.0910  -25.4260 H   0  0  0  0  0  0  0  0  0  0  0  0
   -2.3830   -7.5100  -23.6440 H   0  0  0  0  0  0  0  0  0  0  0  0
   -3.7420   -5.5000  -23.1720 H   0  0  0  0  0  0  0  0  0  0  0  0
   -6.6840   -4.4570  -25.2260 H   0  0  0  0  0  0  0  0  0  0  0  0
   -5.3790   -3.8360  -24.2190 H   0  0  0  0  0  0  0  0  0  0  0  0
   -6.2390   -5.1580  -22.3010 H   0  0  0  0  0  0  0  0  0  0  0  0
   -8.2890   -6.1190  -22.2290 H   0  0  0  0  0  0  0  0  0  0  0  0
   -7.5420   -6.8560  -23.6350 H   0  0  0  0  0  0  0  0  0  0  0  0
   -9.9240   -6.2760  -24.1430 H   0  0  0  0  0  0  0  0  0  0  0  0
   -8.8370   -5.3710  -25.1480 H   0  0  0  0  0  0  0  0  0  0  0  0
  -10.1660   -4.3770  -22.5770 H   0  0  0  0  0  0  0  0  0  0  0  0
  -10.5520   -3.8510  -24.2010 H   0  0  0  0  0  0  0  0  0  0  0  0
   -9.0890   -2.2320  -22.9940 H   0  0  0  0  0  0  0  0  0  0  0  0
   -8.3560   -2.8290  -24.4680 H   0  0  0  0  0  0  0  0  0  0  0  0
  1  2  2  0  0  0  0
  2  3  1  0  0  0  0
  2 22  1  0  0  0  0
  3  4  1  0  0  0  0
  3 20  1  0  0  0  0
  3 21  1  0  0  0  0
  4  5  2  0  0  0  0
  4 13  1  0  0  0  0
  5  6  1  0  0  0  0
  5 19  1  0  0  0  0
  6  7  2  0  0  0  0
  7  8  1  0  0  0  0
  7 18  1  0  0  0  0
  8  9  2  0  0  0  0
  8 13  1  0  0  0  0
  9 10  1  0  0  0  0
  9 17  1  0  0  0  0
 10 11  2  0  0  0  0
 10 16  1  0  0  0  0
 11 12  1  0  0  0  0
 11 15  1  0  0  0  0
 12 13  2  0  0  0  0
 12 14  1  0  0  0  0
 22 23  1  0  0  0  0
 22 27  1  0  0  0  0
 23 24  1  0  0  0  0
 23 49  1  0  0  0  0
 23 50  1  0  0  0  0
 24 25  1  0  0  0  0
 24 47  1  0  0  0  0
 24 48  1  0  0  0  0
 25 26  1  0  0  0  0
 25 45  1  0  0  0  0
 25 46  1  0  0  0  0
 26 27  1  0  0  0  0
 26 43  1  0  0  0  0
 26 44  1  0  0  0  0
 27 28  1  0  0  0  0
 27 42  1  1  0  0  0
 28 29  1  0  0  0  0
 28 40  1  0  0  0  0
 28 41  1  0  0  0  0
 29 30  2  0  0  0  0
 29 34  1  0  0  0  0
 30 31  1  0  0  0  0
 30 39  1  0  0  0  0
 31 32  2  0  0  0  0
 31 38  1  0  0  0  0
 32 33  1  0  0  0  0
 32 37  1  0  0  0  0
 33 34  2  0  0  0  0
 33 36  1  0  0  0  0
 34 35  1  0  0  0  0
M  END
>  <MODEL>
       1

$$$$
