tmp_first_model_19_26.pdb
 OpenBabel08282503233D

 55 60  0  0  1  0  0  0  0  0999 V2000
   -7.8790   -3.6230  -24.0840 C   0  0  0  0  0  0  0  0  0  0  0  0
   -8.2920   -2.8540  -22.8190 C   0  0  1  0  0  0  0  0  0  0  0  0
   -7.0950   -2.6240  -21.8710 C   0  0  0  0  0  0  0  0  0  0  0  0
   -7.4090   -1.3780  -21.2020 N   0  0  0  0  0  0  0  0  0  0  0  0
   -6.6080   -0.8020  -20.1800 C   0  0  0  0  0  0  0  0  0  0  0  0
   -6.9050   -1.0460  -18.8650 C   0  0  0  0  0  0  0  0  0  0  0  0
   -6.1940   -0.5630  -17.8180 N   0  0  0  0  0  0  0  0  0  0  0  0
   -5.1680    0.2100  -18.0820 C   0  0  0  0  0  0  0  0  0  0  0  0
   -4.7340    0.5350  -19.3990 C   0  0  0  0  0  0  0  0  0  0  0  0
   -3.6020    1.3610  -19.6430 C   0  0  0  0  0  0  0  0  0  0  0  0
   -3.2060    1.6430  -20.9210 C   0  0  0  0  0  0  0  0  0  0  0  0
   -3.9160    1.0950  -22.0140 C   0  0  0  0  0  0  0  0  0  0  0  0
   -5.0090    0.2860  -21.8020 C   0  0  0  0  0  0  0  0  0  0  0  0
   -5.4620    0.0010  -20.4870 C   0  0  0  0  0  0  0  0  0  0  0  0
   -5.5640   -0.0950  -22.6540 H   0  0  0  0  0  0  0  0  0  0  0  0
   -3.6210    1.3410  -23.0280 H   0  0  0  0  0  0  0  0  0  0  0  0
   -2.3550    2.2940  -21.1010 H   0  0  0  0  0  0  0  0  0  0  0  0
   -3.0750    1.7740  -18.7870 H   0  0  0  0  0  0  0  0  0  0  0  0
   -4.6240    0.6150  -17.2270 H   0  0  0  0  0  0  0  0  0  0  0  0
   -7.7540   -1.6710  -18.6000 H   0  0  0  0  0  0  0  0  0  0  0  0
   -8.4140   -0.6480  -21.7960 C   0  0  0  0  0  0  0  0  0  0  0  0
   -8.7760    0.4350  -21.3930 O   0  0  0  0  0  0  0  0  0  0  0  0
   -8.9510   -1.4480  -23.0170 C   0  0  1  0  0  0  0  0  0  0  0  0
   -8.4800   -0.8040  -24.3450 C   0  0  0  0  0  0  0  0  0  0  0  0
   -9.1320    0.4540  -24.6160 N   0  0  0  0  0  0  0  0  0  0  0  0
   -8.3410    1.6300  -24.9490 C   0  0  0  0  0  0  0  0  0  0  0  0
   -8.0440    2.4980  -23.7550 C   0  0  0  0  0  0  0  0  0  0  0  0
   -8.8770    3.4260  -23.1130 C   0  0  0  0  0  0  0  0  0  0  0  0
   -8.2170    3.9570  -22.0890 N   0  0  0  0  0  0  0  0  0  0  0  0
   -7.0520    3.3510  -22.1280 N   0  0  0  0  0  0  0  0  0  0  0  0
   -6.8770    2.4740  -23.1050 N   0  0  0  0  0  0  0  0  0  0  0  0
   -6.3700    3.5050  -21.3970 H   0  0  0  0  0  0  0  0  0  0  0  0
   -9.9060    3.6930  -23.3240 H   0  0  0  0  0  0  0  0  0  0  0  0
   -7.3950    1.3090  -25.3970 H   0  0  0  0  0  0  0  0  0  0  0  0
   -8.9110    2.2040  -25.6850 H   0  0  0  0  0  0  0  0  0  0  0  0
  -10.4870    0.6000  -24.5130 C   0  0  0  0  0  0  0  0  0  0  0  0
  -11.0610    1.5740  -24.9860 O   0  0  0  0  0  0  0  0  0  0  0  0
  -11.1920   -0.4790  -23.7410 C   0  0  0  0  0  0  0  0  0  0  0  0
  -12.5870   -0.4620  -23.6970 C   0  0  0  0  0  0  0  0  0  0  0  0
  -13.2820   -1.3260  -22.8740 C   0  0  0  0  0  0  0  0  0  0  0  0
  -12.5490   -2.1880  -22.0700 C   0  0  0  0  0  0  0  0  0  0  0  0
  -13.2110   -2.9880  -21.2190 F   0  0  0  0  0  0  0  0  0  0  0  0
  -11.1720   -2.2430  -22.1010 C   0  0  0  0  0  0  0  0  0  0  0  0
  -10.4690   -1.4230  -22.9930 C   0  0  0  0  0  0  0  0  0  0  0  0
  -10.6760   -2.9020  -21.3960 H   0  0  0  0  0  0  0  0  0  0  0  0
  -14.3650   -1.3340  -22.8090 H   0  0  0  0  0  0  0  0  0  0  0  0
  -13.1060    0.2640  -24.3080 H   0  0  0  0  0  0  0  0  0  0  0  0
   -7.4080   -0.5960  -24.2690 H   0  0  0  0  0  0  0  0  0  0  0  0
   -8.6640   -1.5040  -25.1760 H   0  0  0  0  0  0  0  0  0  0  0  0
   -6.1470   -2.5560  -22.4290 H   0  0  0  0  0  0  0  0  0  0  0  0
   -6.9730   -3.4310  -21.1390 H   0  0  0  0  0  0  0  0  0  0  0  0
   -9.0310   -3.4590  -22.2880 H   0  0  0  0  0  0  0  0  0  0  0  0
   -7.4900   -4.6160  -23.8310 H   0  0  0  0  0  0  0  0  0  0  0  0
   -7.0870   -3.0980  -24.6340 H   0  0  0  0  0  0  0  0  0  0  0  0
   -8.7170   -3.7630  -24.7760 H   0  0  0  0  0  0  0  0  0  0  0  0
  1  2  1  0  0  0  0
  1 53  1  0  0  0  0
  1 54  1  0  0  0  0
  1 55  1  0  0  0  0
  2  3  1  0  0  0  0
  2 23  1  0  0  0  0
  2 52  1  1  0  0  0
  3  4  1  0  0  0  0
  3 50  1  0  0  0  0
  3 51  1  0  0  0  0
  4  5  1  0  0  0  0
  4 21  1  0  0  0  0
  5  6  2  0  0  0  0
  5 14  1  0  0  0  0
  6  7  1  0  0  0  0
  6 20  1  0  0  0  0
  7  8  2  0  0  0  0
  8  9  1  0  0  0  0
  8 19  1  0  0  0  0
  9 10  2  0  0  0  0
  9 14  1  0  0  0  0
 10 11  1  0  0  0  0
 10 18  1  0  0  0  0
 11 12  2  0  0  0  0
 11 17  1  0  0  0  0
 12 13  1  0  0  0  0
 12 16  1  0  0  0  0
 13 14  2  0  0  0  0
 13 15  1  0  0  0  0
 21 22  2  0  0  0  0
 23 21  1  1  0  0  0
 23 24  1  0  0  0  0
 23 44  1  0  0  0  0
 24 25  1  0  0  0  0
 24 48  1  0  0  0  0
 24 49  1  0  0  0  0
 25 26  1  0  0  0  0
 25 36  1  0  0  0  0
 26 27  1  0  0  0  0
 26 34  1  0  0  0  0
 26 35  1  0  0  0  0
 27 28  1  0  0  0  0
 27 31  2  0  0  0  0
 28 29  2  0  0  0  0
 28 33  1  0  0  0  0
 29 30  1  0  0  0  0
 30 31  1  0  0  0  0
 30 32  1  0  0  0  0
 36 37  2  0  0  0  0
 36 38  1  0  0  0  0
 38 39  2  0  0  0  0
 38 44  1  0  0  0  0
 39 40  1  0  0  0  0
 39 47  1  0  0  0  0
 40 41  2  0  0  0  0
 40 46  1  0  0  0  0
 41 42  1  0  0  0  0
 41 43  1  0  0  0  0
 43 44  2  0  0  0  0
 43 45  1  0  0  0  0
M  END
>  <MODEL>
       1

$$$$
