tmp_first_model_7_31.pdb
 OpenBabel08272520323D

 66 71  0  0  1  0  0  0  0  0999 V2000
   -7.5990    3.2360  -21.8600 C   0  0  0  0  0  0  0  0  0  0  0  0
   -8.7100    2.7690  -22.6720 N   0  0  0  0  0  0  0  0  0  0  0  0
   -8.3640    1.9730  -23.7220 C   0  0  0  0  0  0  0  0  0  0  0  0
   -7.1950    1.7150  -23.9790 O   0  0  0  0  0  0  0  0  0  0  0  0
   -9.4890    1.3790  -24.5620 C   0  0  0  0  0  0  0  0  0  0  0  0
   -9.9690    0.1770  -23.9190 N   0  0  0  0  0  0  0  0  0  0  0  0
   -9.1500   -1.0250  -23.9490 C   0  0  0  0  0  0  0  0  0  0  0  0
   -9.2640   -1.8180  -22.6160 C   0  0  2  0  0  0  0  0  0  0  0  0
   -8.6640   -0.9480  -21.4850 C   0  0  0  0  0  0  0  0  0  0  0  0
   -9.1800    0.0200  -20.9590 O   0  0  0  0  0  0  0  0  0  0  0  0
   -7.4060   -1.4230  -21.1900 N   0  0  0  0  0  0  0  0  0  0  0  0
   -6.6110   -0.8300  -20.1780 C   0  0  0  0  0  0  0  0  0  0  0  0
   -6.9210   -1.0490  -18.8580 C   0  0  0  0  0  0  0  0  0  0  0  0
   -6.2120   -0.5560  -17.8170 N   0  0  0  0  0  0  0  0  0  0  0  0
   -5.1740    0.1950  -18.0900 C   0  0  0  0  0  0  0  0  0  0  0  0
   -4.7460    0.5100  -19.4100 C   0  0  0  0  0  0  0  0  0  0  0  0
   -3.6250    1.3480  -19.6480 C   0  0  0  0  0  0  0  0  0  0  0  0
   -3.2550    1.6620  -20.9270 C   0  0  0  0  0  0  0  0  0  0  0  0
   -3.9890    1.1590  -22.0220 C   0  0  0  0  0  0  0  0  0  0  0  0
   -5.0790    0.3430  -21.8190 C   0  0  0  0  0  0  0  0  0  0  0  0
   -5.4820   -0.0120  -20.5010 C   0  0  0  0  0  0  0  0  0  0  0  0
   -5.6530    0.0040  -22.6750 H   0  0  0  0  0  0  0  0  0  0  0  0
   -3.6900    1.4190  -23.0330 H   0  0  0  0  0  0  0  0  0  0  0  0
   -2.4040    2.3120  -21.1020 H   0  0  0  0  0  0  0  0  0  0  0  0
   -3.0920    1.7500  -18.7910 H   0  0  0  0  0  0  0  0  0  0  0  0
   -4.6070    0.5970  -17.2480 H   0  0  0  0  0  0  0  0  0  0  0  0
   -7.7830   -1.6600  -18.6040 H   0  0  0  0  0  0  0  0  0  0  0  0
   -7.0120   -2.5820  -21.9710 C   0  0  0  0  0  0  0  0  0  0  0  0
   -8.3440   -3.0720  -22.5750 C   0  0  2  0  0  0  0  0  0  0  0  0
   -8.1940   -3.8090  -23.9060 C   0  0  0  0  0  0  0  0  0  0  0  0
   -7.5360   -5.0810  -23.7500 N   0  0  0  0  0  0  0  0  0  0  0  0
   -7.1780   -5.8650  -24.7970 C   0  0  0  0  0  0  0  0  0  0  0  0
   -7.5790   -5.6060  -26.1220 C   0  0  0  0  0  0  0  0  0  0  0  0
   -7.1690   -6.5140  -27.0780 C   0  0  0  0  0  0  0  0  0  0  0  0
   -6.3900   -7.5680  -26.8110 N   0  0  0  0  0  0  0  0  0  0  0  0
   -6.0670   -7.6990  -25.5300 C   0  0  0  0  0  0  0  0  0  0  0  0
   -6.4210   -6.9320  -24.5040 N   0  0  0  0  0  0  0  0  0  0  0  0
   -5.4340   -8.5460  -25.2730 H   0  0  0  0  0  0  0  0  0  0  0  0
   -7.4740   -6.3960  -28.1160 H   0  0  0  0  0  0  0  0  0  0  0  0
   -8.1680   -4.7380  -26.3940 H   0  0  0  0  0  0  0  0  0  0  0  0
   -7.1210   -5.3540  -22.8740 H   0  0  0  0  0  0  0  0  0  0  0  0
   -9.1880   -3.9780  -24.3420 H   0  0  0  0  0  0  0  0  0  0  0  0
   -7.6280   -3.1850  -24.6170 H   0  0  0  0  0  0  0  0  0  0  0  0
   -8.7710   -3.7780  -21.8550 H   0  0  0  0  0  0  0  0  0  0  0  0
   -6.5510   -3.3350  -21.3250 H   0  0  0  0  0  0  0  0  0  0  0  0
   -6.2780   -2.3160  -22.7500 H   0  0  0  0  0  0  0  0  0  0  0  0
  -10.7450   -2.0530  -22.3800 C   0  0  0  0  0  0  0  0  0  0  0  0
  -11.2330   -3.1450  -21.6590 C   0  0  0  0  0  0  0  0  0  0  0  0
  -12.5820   -3.2100  -21.3620 C   0  0  0  0  0  0  0  0  0  0  0  0
  -13.1500   -4.3380  -20.1820 Cl  0  0  0  0  0  0  0  0  0  0  0  0
  -13.5130   -2.3120  -21.8680 C   0  0  0  0  0  0  0  0  0  0  0  0
  -13.0430   -1.2410  -22.5930 C   0  0  0  0  0  0  0  0  0  0  0  0
  -11.6720   -1.0700  -22.7660 C   0  0  0  0  0  0  0  0  0  0  0  0
  -11.1910    0.2230  -23.3290 C   0  0  0  0  0  0  0  0  0  0  0  0
  -11.8370    1.2640  -23.2590 O   0  0  0  0  0  0  0  0  0  0  0  0
  -13.7300   -0.5050  -22.9900 H   0  0  0  0  0  0  0  0  0  0  0  0
  -14.5580   -2.4370  -21.6060 H   0  0  0  0  0  0  0  0  0  0  0  0
  -10.5850   -3.9130  -21.2530 H   0  0  0  0  0  0  0  0  0  0  0  0
   -8.1170   -0.7100  -24.1220 H   0  0  0  0  0  0  0  0  0  0  0  0
   -9.4780   -1.6570  -24.7840 H   0  0  0  0  0  0  0  0  0  0  0  0
   -9.0930    1.1320  -25.5550 H   0  0  0  0  0  0  0  0  0  0  0  0
  -10.3400    2.0600  -24.6540 H   0  0  0  0  0  0  0  0  0  0  0  0
   -9.6070    2.6520  -22.2150 H   0  0  0  0  0  0  0  0  0  0  0  0
   -7.9290    3.9390  -21.0900 H   0  0  0  0  0  0  0  0  0  0  0  0
   -7.0640    2.3720  -21.4320 H   0  0  0  0  0  0  0  0  0  0  0  0
   -6.9110    3.7750  -22.5110 H   0  0  0  0  0  0  0  0  0  0  0  0
  1  2  1  0  0  0  0
  1 64  1  0  0  0  0
  1 65  1  0  0  0  0
  1 66  1  0  0  0  0
  2  3  1  0  0  0  0
  2 63  1  0  0  0  0
  3  4  2  0  0  0  0
  3  5  1  0  0  0  0
  5  6  1  0  0  0  0
  5 61  1  0  0  0  0
  5 62  1  0  0  0  0
  6  7  1  0  0  0  0
  6 54  1  0  0  0  0
  7  8  1  0  0  0  0
  7 59  1  0  0  0  0
  7 60  1  0  0  0  0
  8  9  1  1  0  0  0
  8 29  1  0  0  0  0
  8 47  1  0  0  0  0
  9 10  2  0  0  0  0
  9 11  1  0  0  0  0
 11 12  1  0  0  0  0
 11 28  1  0  0  0  0
 12 13  2  0  0  0  0
 12 21  1  0  0  0  0
 13 14  1  0  0  0  0
 13 27  1  0  0  0  0
 14 15  2  0  0  0  0
 15 16  1  0  0  0  0
 15 26  1  0  0  0  0
 16 17  2  0  0  0  0
 16 21  1  0  0  0  0
 17 18  1  0  0  0  0
 17 25  1  0  0  0  0
 18 19  2  0  0  0  0
 18 24  1  0  0  0  0
 19 20  1  0  0  0  0
 19 23  1  0  0  0  0
 20 21  2  0  0  0  0
 20 22  1  0  0  0  0
 28 29  1  0  0  0  0
 28 45  1  0  0  0  0
 28 46  1  0  0  0  0
 29 30  1  0  0  0  0
 29 44  1  1  0  0  0
 30 31  1  0  0  0  0
 30 42  1  0  0  0  0
 30 43  1  0  0  0  0
 31 32  1  0  0  0  0
 31 41  1  0  0  0  0
 32 33  2  0  0  0  0
 32 37  1  0  0  0  0
 33 34  1  0  0  0  0
 33 40  1  0  0  0  0
 34 35  2  0  0  0  0
 34 39  1  0  0  0  0
 35 36  1  0  0  0  0
 36 37  2  0  0  0  0
 36 38  1  0  0  0  0
 47 48  2  0  0  0  0
 47 53  1  0  0  0  0
 48 49  1  0  0  0  0
 48 58  1  0  0  0  0
 49 50  1  0  0  0  0
 49 51  2  0  0  0  0
 51 52  1  0  0  0  0
 51 57  1  0  0  0  0
 52 53  2  0  0  0  0
 52 56  1  0  0  0  0
 53 54  1  0  0  0  0
 54 55  2  0  0  0  0
M  END
>  <MODEL>
       1

$$$$
