tmp_first_model_12_51.pdb
 OpenBabel08272523333D

 50 52  0  0  0  0  0  0  0  0999 V2000
   -9.1700   -1.9600  -25.2570 C   0  0  0  0  0  0  0  0  0  0  0  0
   -8.2640   -2.4380  -24.4140 C   0  0  0  0  0  0  0  0  0  0  0  0
   -8.6950   -3.1120  -23.1330 C   0  0  0  0  0  0  0  0  0  0  0  0
   -9.3050   -2.1390  -22.2290 N   0  0  0  0  0  0  0  0  0  0  0  0
   -8.6170   -1.2030  -21.4700 C   0  0  0  0  0  0  0  0  0  0  0  0
   -9.1570   -0.2390  -20.9540 O   0  0  0  0  0  0  0  0  0  0  0  0
   -7.2900   -1.5070  -21.2400 N   0  0  0  0  0  0  0  0  0  0  0  0
   -6.5860   -0.8580  -20.1990 C   0  0  0  0  0  0  0  0  0  0  0  0
   -6.9230   -1.0750  -18.8820 C   0  0  0  0  0  0  0  0  0  0  0  0
   -6.2390   -0.5750  -17.8230 N   0  0  0  0  0  0  0  0  0  0  0  0
   -5.2090    0.1910  -18.0940 C   0  0  0  0  0  0  0  0  0  0  0  0
   -4.7790    0.5300  -19.4070 C   0  0  0  0  0  0  0  0  0  0  0  0
   -3.6550    1.3650  -19.6250 C   0  0  0  0  0  0  0  0  0  0  0  0
   -3.2910    1.7100  -20.8980 C   0  0  0  0  0  0  0  0  0  0  0  0
   -4.0590    1.2740  -22.0020 C   0  0  0  0  0  0  0  0  0  0  0  0
   -5.1390    0.4390  -21.8230 C   0  0  0  0  0  0  0  0  0  0  0  0
   -5.5020    0.0240  -20.5090 C   0  0  0  0  0  0  0  0  0  0  0  0
   -5.6940    0.0900  -22.6950 H   0  0  0  0  0  0  0  0  0  0  0  0
   -3.7500    1.5580  -23.0060 H   0  0  0  0  0  0  0  0  0  0  0  0
   -2.4050    2.3130  -21.0700 H   0  0  0  0  0  0  0  0  0  0  0  0
   -3.0970    1.7020  -18.7560 H   0  0  0  0  0  0  0  0  0  0  0  0
   -4.6530    0.6000  -17.2530 H   0  0  0  0  0  0  0  0  0  0  0  0
   -7.7830   -1.7000  -18.6440 H   0  0  0  0  0  0  0  0  0  0  0  0
   -6.7700   -1.9960  -21.9540 H   0  0  0  0  0  0  0  0  0  0  0  0
  -10.7140   -2.0170  -22.3260 C   0  0  0  0  0  0  0  0  0  0  0  0
  -11.4810   -3.1610  -22.1180 C   0  0  0  0  0  0  0  0  0  0  0  0
  -12.8580   -3.0850  -22.1520 C   0  0  0  0  0  0  0  0  0  0  0  0
  -13.4920   -1.8840  -22.4760 C   0  0  0  0  0  0  0  0  0  0  0  0
  -12.7130   -0.7550  -22.7090 C   0  0  0  0  0  0  0  0  0  0  0  0
  -13.4850    0.7700  -23.0840 Cl  0  0  0  0  0  0  0  0  0  0  0  0
  -11.3280   -0.8000  -22.6270 C   0  0  0  0  0  0  0  0  0  0  0  0
  -10.7510    0.1050  -22.7800 H   0  0  0  0  0  0  0  0  0  0  0  0
  -14.5700   -1.8130  -22.5600 H   0  0  0  0  0  0  0  0  0  0  0  0
  -13.4010   -3.9950  -21.9280 H   0  0  0  0  0  0  0  0  0  0  0  0
  -10.9980   -4.1200  -21.9230 H   0  0  0  0  0  0  0  0  0  0  0  0
   -9.4830   -3.8300  -23.3640 H   0  0  0  0  0  0  0  0  0  0  0  0
   -7.9120   -3.6740  -22.6170 H   0  0  0  0  0  0  0  0  0  0  0  0
   -6.8200   -2.1430  -24.6680 C   0  0  0  0  0  0  0  0  0  0  0  0
   -6.4540   -1.1260  -25.2420 O   0  0  0  0  0  0  0  0  0  0  0  0
   -5.9490   -3.0740  -24.1760 N   0  0  0  0  0  0  0  0  0  0  0  0
   -4.5160   -2.8900  -24.3400 C   0  0  0  0  0  0  0  0  0  0  0  0
   -3.9840   -3.0190  -25.7670 C   0  0  0  0  0  0  0  0  0  0  0  0
   -4.4340   -2.2700  -26.4250 H   0  0  0  0  0  0  0  0  0  0  0  0
   -4.1510   -4.0070  -26.2060 H   0  0  0  0  0  0  0  0  0  0  0  0
   -2.9060   -2.8350  -25.7540 H   0  0  0  0  0  0  0  0  0  0  0  0
   -4.3020   -1.8770  -23.9890 H   0  0  0  0  0  0  0  0  0  0  0  0
   -4.0190   -3.5960  -23.6650 H   0  0  0  0  0  0  0  0  0  0  0  0
   -6.3130   -4.0060  -24.0380 H   0  0  0  0  0  0  0  0  0  0  0  0
   -8.8760   -1.3790  -26.1260 H   0  0  0  0  0  0  0  0  0  0  0  0
  -10.2320   -2.1290  -25.0720 H   0  0  0  0  0  0  0  0  0  0  0  0
  1  2  2  0  0  0  0
  1 49  1  0  0  0  0
  1 50  1  0  0  0  0
  2  3  1  0  0  0  0
  2 38  1  0  0  0  0
  3  4  1  0  0  0  0
  3 36  1  0  0  0  0
  3 37  1  0  0  0  0
  4  5  1  0  0  0  0
  4 25  1  0  0  0  0
  5  6  2  0  0  0  0
  5  7  1  0  0  0  0
  7  8  1  0  0  0  0
  7 24  1  0  0  0  0
  8  9  2  0  0  0  0
  8 17  1  0  0  0  0
  9 10  1  0  0  0  0
  9 23  1  0  0  0  0
 10 11  2  0  0  0  0
 11 12  1  0  0  0  0
 11 22  1  0  0  0  0
 12 13  2  0  0  0  0
 12 17  1  0  0  0  0
 13 14  1  0  0  0  0
 13 21  1  0  0  0  0
 14 15  2  0  0  0  0
 14 20  1  0  0  0  0
 15 16  1  0  0  0  0
 15 19  1  0  0  0  0
 16 17  2  0  0  0  0
 16 18  1  0  0  0  0
 25 26  2  0  0  0  0
 25 31  1  0  0  0  0
 26 27  1  0  0  0  0
 26 35  1  0  0  0  0
 27 28  2  0  0  0  0
 27 34  1  0  0  0  0
 28 29  1  0  0  0  0
 28 33  1  0  0  0  0
 29 30  1  0  0  0  0
 29 31  2  0  0  0  0
 31 32  1  0  0  0  0
 38 39  2  0  0  0  0
 38 40  1  0  0  0  0
 40 41  1  0  0  0  0
 40 48  1  0  0  0  0
 41 42  1  0  0  0  0
 41 46  1  0  0  0  0
 41 47  1  0  0  0  0
 42 43  1  0  0  0  0
 42 44  1  0  0  0  0
 42 45  1  0  0  0  0
M  END
>  <MODEL>
       1

$$$$
