tmp_first_model_5_21.pdb
 OpenBabel08272519223D

 63 68  0  0  1  0  0  0  0  0999 V2000
   -8.0580   -4.0200  -23.8620 C   0  0  0  0  0  0  0  0  0  0  0  0
   -8.2970   -3.0770  -22.6850 C   0  0  1  0  0  0  0  0  0  0  0  0
   -7.0720   -2.8410  -21.7970 C   0  0  0  0  0  0  0  0  0  0  0  0
   -7.3890   -1.5900  -21.1230 N   0  0  0  0  0  0  0  0  0  0  0  0
   -6.4880   -1.0910  -20.1370 C   0  0  0  0  0  0  0  0  0  0  0  0
   -6.6000   -1.5240  -18.8400 C   0  0  0  0  0  0  0  0  0  0  0  0
   -5.6310   -1.4030  -17.8980 N   0  0  0  0  0  0  0  0  0  0  0  0
   -4.5250   -0.7880  -18.2490 C   0  0  0  0  0  0  0  0  0  0  0  0
   -4.3320   -0.1650  -19.5110 C   0  0  0  0  0  0  0  0  0  0  0  0
   -3.2050    0.6680  -19.7560 C   0  0  0  0  0  0  0  0  0  0  0  0
   -3.1520    1.4320  -20.8880 C   0  0  0  0  0  0  0  0  0  0  0  0
   -4.1680    1.3280  -21.8680 C   0  0  0  0  0  0  0  0  0  0  0  0
   -5.2510    0.5110  -21.6590 C   0  0  0  0  0  0  0  0  0  0  0  0
   -5.3650   -0.2600  -20.4710 C   0  0  0  0  0  0  0  0  0  0  0  0
   -6.0700    0.5000  -22.3720 H   0  0  0  0  0  0  0  0  0  0  0  0
   -4.0970    1.8890  -22.7930 H   0  0  0  0  0  0  0  0  0  0  0  0
   -2.3190    2.1100  -21.0470 H   0  0  0  0  0  0  0  0  0  0  0  0
   -2.4610    0.7570  -18.9690 H   0  0  0  0  0  0  0  0  0  0  0  0
   -3.7330   -0.7120  -17.5000 H   0  0  0  0  0  0  0  0  0  0  0  0
   -7.5280   -1.9960  -18.5160 H   0  0  0  0  0  0  0  0  0  0  0  0
   -8.3330   -0.8380  -21.7980 C   0  0  0  0  0  0  0  0  0  0  0  0
   -8.7020    0.2700  -21.4770 O   0  0  0  0  0  0  0  0  0  0  0  0
   -8.7860   -1.6480  -23.0490 C   0  0  1  0  0  0  0  0  0  0  0  0
   -8.0060   -1.0970  -24.2900 C   0  0  0  0  0  0  0  0  0  0  0  0
   -8.5100    0.2010  -24.7410 N   0  0  0  0  0  0  0  0  0  0  0  0
   -7.6260    1.1050  -25.4660 C   0  0  0  0  0  0  0  0  0  0  0  0
   -7.3120    2.3840  -24.6640 C   0  0  0  0  0  0  0  0  0  0  0  0
   -6.2130    2.6150  -24.1850 O   0  0  0  0  0  0  0  0  0  0  0  0
   -8.3500    3.2420  -24.5540 N   0  0  0  0  0  0  0  0  0  0  0  0
   -8.3600    4.2910  -23.5620 C   0  0  0  0  0  0  0  0  0  0  0  0
   -9.4520    5.2780  -23.8790 C   0  0  0  0  0  0  0  0  0  0  0  0
  -10.0930    6.0240  -22.7470 C   0  0  0  0  0  0  0  0  0  0  0  0
  -10.8570    4.9480  -23.4550 C   0  0  0  0  0  0  0  0  0  0  0  0
  -11.0210    4.0060  -22.9370 H   0  0  0  0  0  0  0  0  0  0  0  0
  -11.6760    5.2410  -24.1030 H   0  0  0  0  0  0  0  0  0  0  0  0
   -9.7250    5.8100  -21.7470 H   0  0  0  0  0  0  0  0  0  0  0  0
  -10.3840    7.0540  -22.9120 H   0  0  0  0  0  0  0  0  0  0  0  0
   -9.3330    5.8020  -24.8270 H   0  0  0  0  0  0  0  0  0  0  0  0
   -7.3660    4.7460  -23.5500 H   0  0  0  0  0  0  0  0  0  0  0  0
   -8.5310    3.8750  -22.5550 H   0  0  0  0  0  0  0  0  0  0  0  0
   -9.2360    2.9360  -24.9380 H   0  0  0  0  0  0  0  0  0  0  0  0
   -8.1330    1.3830  -26.3990 H   0  0  0  0  0  0  0  0  0  0  0  0
   -6.6850    0.5940  -25.6800 H   0  0  0  0  0  0  0  0  0  0  0  0
   -9.8400    0.4700  -24.8030 C   0  0  0  0  0  0  0  0  0  0  0  0
  -10.2860    1.4630  -25.3860 O   0  0  0  0  0  0  0  0  0  0  0  0
  -10.7540   -0.5040  -24.1460 C   0  0  0  0  0  0  0  0  0  0  0  0
  -12.1190   -0.3250  -24.3800 C   0  0  0  0  0  0  0  0  0  0  0  0
  -13.0500   -1.1810  -23.8260 C   0  0  0  0  0  0  0  0  0  0  0  0
  -12.5750   -2.1850  -22.9910 C   0  0  0  0  0  0  0  0  0  0  0  0
  -13.4740   -2.9930  -22.4000 F   0  0  0  0  0  0  0  0  0  0  0  0
  -11.2340   -2.3660  -22.7150 C   0  0  0  0  0  0  0  0  0  0  0  0
  -10.2770   -1.5310  -23.3170 C   0  0  0  0  0  0  0  0  0  0  0  0
  -10.9720   -3.1540  -22.0160 H   0  0  0  0  0  0  0  0  0  0  0  0
  -14.1230   -1.0880  -23.9770 H   0  0  0  0  0  0  0  0  0  0  0  0
  -12.4190    0.5290  -24.9750 H   0  0  0  0  0  0  0  0  0  0  0  0
   -6.9470   -0.9760  -24.0250 H   0  0  0  0  0  0  0  0  0  0  0  0
   -8.0600   -1.8060  -25.1290 H   0  0  0  0  0  0  0  0  0  0  0  0
   -6.9120   -3.6400  -21.0660 H   0  0  0  0  0  0  0  0  0  0  0  0
   -6.1490   -2.7480  -22.3930 H   0  0  0  0  0  0  0  0  0  0  0  0
   -9.0620   -3.5200  -22.0400 H   0  0  0  0  0  0  0  0  0  0  0  0
   -7.1860   -3.7180  -24.4570 H   0  0  0  0  0  0  0  0  0  0  0  0
   -7.8840   -5.0420  -23.5110 H   0  0  0  0  0  0  0  0  0  0  0  0
   -8.9300   -4.0300  -24.5280 H   0  0  0  0  0  0  0  0  0  0  0  0
  1  2  1  0  0  0  0
  1 61  1  0  0  0  0
  1 62  1  0  0  0  0
  1 63  1  0  0  0  0
  2  3  1  0  0  0  0
  2 23  1  0  0  0  0
  2 60  1  1  0  0  0
  3  4  1  0  0  0  0
  3 58  1  0  0  0  0
  3 59  1  0  0  0  0
  4  5  1  0  0  0  0
  4 21  1  0  0  0  0
  5  6  2  0  0  0  0
  5 14  1  0  0  0  0
  6  7  1  0  0  0  0
  6 20  1  0  0  0  0
  7  8  2  0  0  0  0
  8  9  1  0  0  0  0
  8 19  1  0  0  0  0
  9 10  2  0  0  0  0
  9 14  1  0  0  0  0
 10 11  1  0  0  0  0
 10 18  1  0  0  0  0
 11 12  2  0  0  0  0
 11 17  1  0  0  0  0
 12 13  1  0  0  0  0
 12 16  1  0  0  0  0
 13 14  2  0  0  0  0
 13 15  1  0  0  0  0
 21 22  2  0  0  0  0
 23 21  1  1  0  0  0
 23 24  1  0  0  0  0
 23 52  1  0  0  0  0
 24 25  1  0  0  0  0
 24 56  1  0  0  0  0
 24 57  1  0  0  0  0
 25 26  1  0  0  0  0
 25 44  1  0  0  0  0
 26 27  1  0  0  0  0
 26 42  1  0  0  0  0
 26 43  1  0  0  0  0
 27 28  2  0  0  0  0
 27 29  1  0  0  0  0
 29 30  1  0  0  0  0
 29 41  1  0  0  0  0
 30 31  1  0  0  0  0
 30 39  1  0  0  0  0
 30 40  1  0  0  0  0
 31 32  1  0  0  0  0
 31 33  1  0  0  0  0
 31 38  1  0  0  0  0
 32 33  1  0  0  0  0
 32 36  1  0  0  0  0
 32 37  1  0  0  0  0
 33 34  1  0  0  0  0
 33 35  1  0  0  0  0
 44 45  2  0  0  0  0
 44 46  1  0  0  0  0
 46 47  2  0  0  0  0
 46 52  1  0  0  0  0
 47 48  1  0  0  0  0
 47 55  1  0  0  0  0
 48 49  2  0  0  0  0
 48 54  1  0  0  0  0
 49 50  1  0  0  0  0
 49 51  1  0  0  0  0
 51 52  2  0  0  0  0
 51 53  1  0  0  0  0
M  END
>  <MODEL>
       1

$$$$
