tmp_first_model_19_62.pdb
 OpenBabel08282503233D

 44 47  0  0  0  0  0  0  0  0999 V2000
   -5.6330   -3.2110  -21.3550 O   0  0  0  0  0  0  0  0  0  0  0  0
   -6.7560   -2.9120  -21.7260 C   0  0  0  0  0  0  0  0  0  0  0  0
   -7.3930   -1.5750  -21.3100 C   0  0  0  0  0  0  0  0  0  0  0  0
   -6.5950   -0.8970  -20.2310 C   0  0  0  0  0  0  0  0  0  0  0  0
   -6.9220   -1.1070  -18.9200 C   0  0  0  0  0  0  0  0  0  0  0  0
   -6.2600   -0.6010  -17.8480 N   0  0  0  0  0  0  0  0  0  0  0  0
   -5.2200    0.1610  -18.1010 C   0  0  0  0  0  0  0  0  0  0  0  0
   -4.7530    0.4550  -19.4100 C   0  0  0  0  0  0  0  0  0  0  0  0
   -3.6250    1.2860  -19.6370 C   0  0  0  0  0  0  0  0  0  0  0  0
   -3.2190    1.5770  -20.9120 C   0  0  0  0  0  0  0  0  0  0  0  0
   -3.9140    1.0350  -22.0160 C   0  0  0  0  0  0  0  0  0  0  0  0
   -4.9990    0.2120  -21.8240 C   0  0  0  0  0  0  0  0  0  0  0  0
   -5.4540   -0.0900  -20.5130 C   0  0  0  0  0  0  0  0  0  0  0  0
   -5.5190   -0.2110  -22.6780 H   0  0  0  0  0  0  0  0  0  0  0  0
   -3.5940    1.2840  -23.0250 H   0  0  0  0  0  0  0  0  0  0  0  0
   -2.3710    2.2360  -21.0810 H   0  0  0  0  0  0  0  0  0  0  0  0
   -3.1090    1.7040  -18.7750 H   0  0  0  0  0  0  0  0  0  0  0  0
   -4.6880    0.5770  -17.2440 H   0  0  0  0  0  0  0  0  0  0  0  0
   -7.7830   -1.7260  -18.6680 H   0  0  0  0  0  0  0  0  0  0  0  0
   -8.4020   -1.7820  -20.9270 H   0  0  0  0  0  0  0  0  0  0  0  0
   -7.5150   -0.9310  -22.1910 H   0  0  0  0  0  0  0  0  0  0  0  0
   -7.5020   -3.7580  -22.5090 N   0  0  0  0  0  0  0  0  0  0  0  0
   -7.1360   -5.1690  -22.4900 C   0  0  0  0  0  0  0  0  0  0  0  0
   -7.3150   -5.7900  -23.8580 C   0  0  0  0  0  0  0  0  0  0  0  0
   -8.7480   -5.6130  -24.3400 C   0  0  0  0  0  0  0  0  0  0  0  0
   -8.9470   -6.4280  -25.6060 C   0  0  0  0  0  0  0  0  0  0  0  0
  -10.2970   -6.6230  -26.2410 C   0  0  0  0  0  0  0  0  0  0  0  0
   -9.2150   -5.8770  -26.9720 C   0  0  0  0  0  0  0  0  0  0  0  0
   -9.3180   -4.8050  -27.1180 H   0  0  0  0  0  0  0  0  0  0  0  0
   -8.7300   -6.3850  -27.7970 H   0  0  0  0  0  0  0  0  0  0  0  0
  -10.5810   -7.6120  -26.5960 H   0  0  0  0  0  0  0  0  0  0  0  0
  -11.1280   -6.0390  -25.8540 H   0  0  0  0  0  0  0  0  0  0  0  0
   -8.3150   -7.3160  -25.6090 H   0  0  0  0  0  0  0  0  0  0  0  0
   -9.0970   -4.1230  -24.3650 C   0  0  0  0  0  0  0  0  0  0  0  0
   -8.8700   -3.5240  -22.9710 C   0  0  0  0  0  0  0  0  0  0  0  0
   -9.5700   -4.0100  -22.2720 H   0  0  0  0  0  0  0  0  0  0  0  0
   -9.0930   -2.4550  -22.9710 H   0  0  0  0  0  0  0  0  0  0  0  0
   -8.4780   -3.5910  -25.0960 H   0  0  0  0  0  0  0  0  0  0  0  0
  -10.1440   -3.9690  -24.6550 H   0  0  0  0  0  0  0  0  0  0  0  0
   -9.3880   -6.0570  -23.5730 H   0  0  0  0  0  0  0  0  0  0  0  0
   -7.0750   -6.8590  -23.8120 H   0  0  0  0  0  0  0  0  0  0  0  0
   -6.6370   -5.3360  -24.5890 H   0  0  0  0  0  0  0  0  0  0  0  0
   -6.1130   -5.2580  -22.1300 H   0  0  0  0  0  0  0  0  0  0  0  0
   -7.7880   -5.6940  -21.7730 H   0  0  0  0  0  0  0  0  0  0  0  0
  1  2  2  0  0  0  0
  2  3  1  0  0  0  0
  2 22  1  0  0  0  0
  3  4  1  0  0  0  0
  3 20  1  0  0  0  0
  3 21  1  0  0  0  0
  4  5  2  0  0  0  0
  4 13  1  0  0  0  0
  5  6  1  0  0  0  0
  5 19  1  0  0  0  0
  6  7  2  0  0  0  0
  7  8  1  0  0  0  0
  7 18  1  0  0  0  0
  8  9  2  0  0  0  0
  8 13  1  0  0  0  0
  9 10  1  0  0  0  0
  9 17  1  0  0  0  0
 10 11  2  0  0  0  0
 10 16  1  0  0  0  0
 11 12  1  0  0  0  0
 11 15  1  0  0  0  0
 12 13  2  0  0  0  0
 12 14  1  0  0  0  0
 22 23  1  0  0  0  0
 22 35  1  0  0  0  0
 23 24  1  0  0  0  0
 23 43  1  0  0  0  0
 23 44  1  0  0  0  0
 24 25  1  0  0  0  0
 24 41  1  0  0  0  0
 24 42  1  0  0  0  0
 25 26  1  0  0  0  0
 25 34  1  0  0  0  0
 25 40  1  0  0  0  0
 26 27  1  0  0  0  0
 26 28  1  0  0  0  0
 26 33  1  0  0  0  0
 27 28  1  0  0  0  0
 27 31  1  0  0  0  0
 27 32  1  0  0  0  0
 28 29  1  0  0  0  0
 28 30  1  0  0  0  0
 34 35  1  0  0  0  0
 34 38  1  0  0  0  0
 34 39  1  0  0  0  0
 35 36  1  0  0  0  0
 35 37  1  0  0  0  0
M  END
>  <MODEL>
       1

$$$$
