tmp_first_model_1_43.pdb
 OpenBabel08272517043D

 67 72  0  0  1  0  0  0  0  0999 V2000
   -8.2630    0.5250  -29.6000 C   0  0  0  0  0  0  0  0  0  0  0  0
   -8.2760   -0.4970  -28.5700 N   0  0  0  0  0  0  0  0  0  0  0  0
   -7.3870   -0.4440  -27.5310 C   0  0  0  0  0  0  0  0  0  0  0  0
   -6.5870    0.4640  -27.3830 O   0  0  0  0  0  0  0  0  0  0  0  0
   -7.3940   -1.6780  -26.5910 C   0  0  0  0  0  0  0  0  0  0  0  0
   -8.0490   -1.4770  -25.2960 N   0  0  0  0  0  0  0  0  0  0  0  0
   -7.3280   -1.3880  -24.0250 C   0  0  0  0  0  0  0  0  0  0  0  0
   -8.0430   -2.0220  -22.7730 C   0  0  2  0  0  0  0  0  0  0  0  0
   -7.6050   -1.2090  -21.5550 C   0  0  0  0  0  0  0  0  0  0  0  0
   -8.0800   -0.1680  -21.1430 O   0  0  0  0  0  0  0  0  0  0  0  0
   -6.5180   -1.8490  -20.9910 N   0  0  0  0  0  0  0  0  0  0  0  0
   -5.8600   -1.1670  -19.9440 C   0  0  0  0  0  0  0  0  0  0  0  0
   -6.2970   -1.3070  -18.6530 C   0  0  0  0  0  0  0  0  0  0  0  0
   -5.8140   -0.6050  -17.6010 N   0  0  0  0  0  0  0  0  0  0  0  0
   -4.8940    0.2970  -17.8520 C   0  0  0  0  0  0  0  0  0  0  0  0
   -4.3660    0.5560  -19.1460 C   0  0  0  0  0  0  0  0  0  0  0  0
   -3.3750    1.5510  -19.3580 C   0  0  0  0  0  0  0  0  0  0  0  0
   -2.9310    1.8210  -20.6240 C   0  0  0  0  0  0  0  0  0  0  0  0
   -3.4510    1.1090  -21.7320 C   0  0  0  0  0  0  0  0  0  0  0  0
   -4.3960    0.1290  -21.5500 C   0  0  0  0  0  0  0  0  0  0  0  0
   -4.8730   -0.1790  -20.2410 C   0  0  0  0  0  0  0  0  0  0  0  0
   -4.7910   -0.4070  -22.4110 H   0  0  0  0  0  0  0  0  0  0  0  0
   -3.1020    1.3430  -22.7360 H   0  0  0  0  0  0  0  0  0  0  0  0
   -2.1850    2.5930  -20.7920 H   0  0  0  0  0  0  0  0  0  0  0  0
   -2.9980    2.0970  -18.4960 H   0  0  0  0  0  0  0  0  0  0  0  0
   -4.5350    0.8860  -17.0090 H   0  0  0  0  0  0  0  0  0  0  0  0
   -7.0990   -2.0070  -18.4300 H   0  0  0  0  0  0  0  0  0  0  0  0
   -6.1630   -3.1090  -21.6480 C   0  0  0  0  0  0  0  0  0  0  0  0
   -7.5000   -3.4240  -22.3400 C   0  0  2  0  0  0  0  0  0  0  0  0
   -7.5830   -4.5040  -23.4220 C   0  0  0  0  0  0  0  0  0  0  0  0
   -6.4090   -4.6040  -24.2490 N   0  0  0  0  0  0  0  0  0  0  0  0
   -5.2770   -5.2590  -23.8690 C   0  0  0  0  0  0  0  0  0  0  0  0
   -5.2970   -6.4710  -22.6160 S   0  0  0  0  0  0  0  0  0  0  0  0
   -3.5900   -6.6510  -22.8440 C   0  0  0  0  0  0  0  0  0  0  0  0
   -3.0590   -5.8840  -23.7370 N   0  0  0  0  0  0  0  0  0  0  0  0
   -4.0050   -5.0860  -24.3410 C   0  0  0  0  0  0  0  0  0  0  0  0
   -3.6170   -4.0970  -25.3960 C   0  0  0  0  0  0  0  0  0  0  0  0
   -3.8840   -3.0750  -25.0980 H   0  0  0  0  0  0  0  0  0  0  0  0
   -4.1210   -4.2970  -26.3500 H   0  0  0  0  0  0  0  0  0  0  0  0
   -2.5400   -4.1240  -25.5700 H   0  0  0  0  0  0  0  0  0  0  0  0
   -3.0390   -7.3720  -22.2560 H   0  0  0  0  0  0  0  0  0  0  0  0
   -6.4050   -4.0950  -25.1190 H   0  0  0  0  0  0  0  0  0  0  0  0
   -8.4370   -4.2700  -24.0670 H   0  0  0  0  0  0  0  0  0  0  0  0
   -7.7830   -5.4810  -22.9670 H   0  0  0  0  0  0  0  0  0  0  0  0
   -8.1620   -3.7540  -21.5300 H   0  0  0  0  0  0  0  0  0  0  0  0
   -5.8370   -3.8740  -20.9320 H   0  0  0  0  0  0  0  0  0  0  0  0
   -5.3570   -2.9640  -22.3850 H   0  0  0  0  0  0  0  0  0  0  0  0
   -9.5340   -2.0120  -22.9080 C   0  0  0  0  0  0  0  0  0  0  0  0
  -10.3530   -2.4350  -21.8440 C   0  0  0  0  0  0  0  0  0  0  0  0
  -11.7310   -2.4390  -22.0150 C   0  0  0  0  0  0  0  0  0  0  0  0
  -12.8380   -3.0980  -20.8410 Cl  0  0  0  0  0  0  0  0  0  0  0  0
  -12.3270   -1.9290  -23.1630 C   0  0  0  0  0  0  0  0  0  0  0  0
  -11.5060   -1.4800  -24.1790 C   0  0  0  0  0  0  0  0  0  0  0  0
  -10.1340   -1.5890  -24.0880 C   0  0  0  0  0  0  0  0  0  0  0  0
   -9.3950   -1.3200  -25.3500 C   0  0  0  0  0  0  0  0  0  0  0  0
   -9.9860   -1.0600  -26.4010 O   0  0  0  0  0  0  0  0  0  0  0  0
  -11.8480   -1.0210  -25.1000 H   0  0  0  0  0  0  0  0  0  0  0  0
  -13.4180   -1.9200  -23.2070 H   0  0  0  0  0  0  0  0  0  0  0  0
   -9.8960   -2.7590  -20.9110 H   0  0  0  0  0  0  0  0  0  0  0  0
   -6.3580   -1.8790  -24.1540 H   0  0  0  0  0  0  0  0  0  0  0  0
   -7.1480   -0.3350  -23.7640 H   0  0  0  0  0  0  0  0  0  0  0  0
   -7.9220   -2.4920  -27.1050 H   0  0  0  0  0  0  0  0  0  0  0  0
   -6.3490   -1.9600  -26.4150 H   0  0  0  0  0  0  0  0  0  0  0  0
   -9.1210   -1.0440  -28.4490 H   0  0  0  0  0  0  0  0  0  0  0  0
   -8.9520    0.2360  -30.3980 H   0  0  0  0  0  0  0  0  0  0  0  0
   -7.2580    0.6100  -30.0220 H   0  0  0  0  0  0  0  0  0  0  0  0
   -8.5500    1.5140  -29.2250 H   0  0  0  0  0  0  0  0  0  0  0  0
  1  2  1  0  0  0  0
  1 65  1  0  0  0  0
  1 66  1  0  0  0  0
  1 67  1  0  0  0  0
  2  3  1  0  0  0  0
  2 64  1  0  0  0  0
  3  4  2  0  0  0  0
  3  5  1  0  0  0  0
  5  6  1  0  0  0  0
  5 62  1  0  0  0  0
  5 63  1  0  0  0  0
  6  7  1  0  0  0  0
  6 55  1  0  0  0  0
  7  8  1  0  0  0  0
  7 60  1  0  0  0  0
  7 61  1  0  0  0  0
  8  9  1  1  0  0  0
  8 29  1  0  0  0  0
  8 48  1  0  0  0  0
  9 10  2  0  0  0  0
  9 11  1  0  0  0  0
 11 12  1  0  0  0  0
 11 28  1  0  0  0  0
 12 13  2  0  0  0  0
 12 21  1  0  0  0  0
 13 14  1  0  0  0  0
 13 27  1  0  0  0  0
 14 15  2  0  0  0  0
 15 16  1  0  0  0  0
 15 26  1  0  0  0  0
 16 17  2  0  0  0  0
 16 21  1  0  0  0  0
 17 18  1  0  0  0  0
 17 25  1  0  0  0  0
 18 19  2  0  0  0  0
 18 24  1  0  0  0  0
 19 20  1  0  0  0  0
 19 23  1  0  0  0  0
 20 21  2  0  0  0  0
 20 22  1  0  0  0  0
 28 29  1  0  0  0  0
 28 46  1  0  0  0  0
 28 47  1  0  0  0  0
 29 30  1  0  0  0  0
 29 45  1  1  0  0  0
 30 31  1  0  0  0  0
 30 43  1  0  0  0  0
 30 44  1  0  0  0  0
 31 32  1  0  0  0  0
 31 42  1  0  0  0  0
 32 33  1  0  0  0  0
 32 36  2  0  0  0  0
 33 34  1  0  0  0  0
 34 35  2  0  0  0  0
 34 41  1  0  0  0  0
 35 36  1  0  0  0  0
 36 37  1  0  0  0  0
 37 38  1  0  0  0  0
 37 39  1  0  0  0  0
 37 40  1  0  0  0  0
 48 49  2  0  0  0  0
 48 54  1  0  0  0  0
 49 50  1  0  0  0  0
 49 59  1  0  0  0  0
 50 51  1  0  0  0  0
 50 52  2  0  0  0  0
 52 53  1  0  0  0  0
 52 58  1  0  0  0  0
 53 54  2  0  0  0  0
 53 57  1  0  0  0  0
 54 55  1  0  0  0  0
 55 56  2  0  0  0  0
M  END
>  <MODEL>
       1

$$$$
