tmp_first_model_15_66.pdb
 OpenBabel08282501153D

 44 47  0  0  1  0  0  0  0  0999 V2000
   -7.9250   -5.9460  -23.4850 C   0  0  0  0  0  0  0  0  0  0  0  0
   -6.4850   -5.5050  -23.2830 C   0  0  0  0  0  0  0  0  0  0  0  0
   -6.1820   -4.1030  -23.8570 C   0  0  1  0  0  0  0  0  0  0  0  0
   -6.2710   -4.1000  -25.3620 C   0  0  0  0  0  0  0  0  0  0  0  0
   -5.3170   -4.6960  -26.2500 C   0  0  0  0  0  0  0  0  0  0  0  0
   -5.7030   -4.6230  -27.5560 C   0  0  0  0  0  0  0  0  0  0  0  0
   -7.2320   -3.8430  -27.7310 S   0  0  0  0  0  0  0  0  0  0  0  0
   -7.3520   -3.6100  -26.0210 C   0  0  0  0  0  0  0  0  0  0  0  0
   -8.5090   -3.0250  -25.2860 C   0  0  0  0  0  0  0  0  0  0  0  0
   -8.0450   -2.3210  -24.0060 C   0  0  0  0  0  0  0  0  0  0  0  0
   -7.0170   -3.0420  -23.2400 N   0  0  0  0  0  0  0  0  0  0  0  0
   -6.6800   -2.6650  -21.9540 C   0  0  0  0  0  0  0  0  0  0  0  0
   -5.8200   -3.2590  -21.3250 O   0  0  0  0  0  0  0  0  0  0  0  0
   -7.3970   -1.4630  -21.2860 C   0  0  0  0  0  0  0  0  0  0  0  0
   -6.5780   -0.8290  -20.1820 C   0  0  0  0  0  0  0  0  0  0  0  0
   -6.8730   -1.0470  -18.8590 C   0  0  0  0  0  0  0  0  0  0  0  0
   -6.1910   -0.5420  -17.7940 N   0  0  0  0  0  0  0  0  0  0  0  0
   -5.1590    0.2230  -18.0620 C   0  0  0  0  0  0  0  0  0  0  0  0
   -4.7210    0.5320  -19.3800 C   0  0  0  0  0  0  0  0  0  0  0  0
   -3.5920    1.3600  -19.6210 C   0  0  0  0  0  0  0  0  0  0  0  0
   -3.1930    1.6380  -20.9020 C   0  0  0  0  0  0  0  0  0  0  0  0
   -3.9070    1.0970  -21.9940 C   0  0  0  0  0  0  0  0  0  0  0  0
   -5.0040    0.2970  -21.7850 C   0  0  0  0  0  0  0  0  0  0  0  0
   -5.4460   -0.0080  -20.4710 C   0  0  0  0  0  0  0  0  0  0  0  0
   -5.5370   -0.1120  -22.6370 H   0  0  0  0  0  0  0  0  0  0  0  0
   -3.5860    1.3220  -23.0060 H   0  0  0  0  0  0  0  0  0  0  0  0
   -2.3320    2.2740  -21.0880 H   0  0  0  0  0  0  0  0  0  0  0  0
   -3.0540    1.7750  -18.7720 H   0  0  0  0  0  0  0  0  0  0  0  0
   -4.6010    0.6290  -17.2160 H   0  0  0  0  0  0  0  0  0  0  0  0
   -7.7210   -1.6720  -18.5880 H   0  0  0  0  0  0  0  0  0  0  0  0
   -7.6830   -0.6950  -22.0170 H   0  0  0  0  0  0  0  0  0  0  0  0
   -8.3330   -1.8390  -20.8490 H   0  0  0  0  0  0  0  0  0  0  0  0
   -8.9210   -2.1640  -23.3670 H   0  0  0  0  0  0  0  0  0  0  0  0
   -7.6710   -1.3270  -24.2830 H   0  0  0  0  0  0  0  0  0  0  0  0
   -9.2220   -3.8260  -25.0480 H   0  0  0  0  0  0  0  0  0  0  0  0
   -9.0570   -2.3210  -25.9160 H   0  0  0  0  0  0  0  0  0  0  0  0
   -5.1800   -4.9920  -28.4280 H   0  0  0  0  0  0  0  0  0  0  0  0
   -4.3930   -5.1690  -25.9300 H   0  0  0  0  0  0  0  0  0  0  0  0
   -5.1370   -3.8770  -23.6050 H   0  0  0  0  0  0  0  0  0  0  0  0
   -5.8140   -6.2180  -23.7790 H   0  0  0  0  0  0  0  0  0  0  0  0
   -6.2240   -5.5070  -22.2220 H   0  0  0  0  0  0  0  0  0  0  0  0
   -8.0900   -6.9240  -23.0270 H   0  0  0  0  0  0  0  0  0  0  0  0
   -8.1820   -6.0210  -24.5460 H   0  0  0  0  0  0  0  0  0  0  0  0
   -8.6150   -5.2360  -23.0230 H   0  0  0  0  0  0  0  0  0  0  0  0
  1  2  1  0  0  0  0
  1 42  1  0  0  0  0
  1 43  1  0  0  0  0
  1 44  1  0  0  0  0
  2  3  1  0  0  0  0
  2 40  1  0  0  0  0
  2 41  1  0  0  0  0
  3  4  1  0  0  0  0
  3 11  1  0  0  0  0
  3 39  1  1  0  0  0
  4  5  1  0  0  0  0
  4  8  2  0  0  0  0
  5  6  2  0  0  0  0
  5 38  1  0  0  0  0
  6  7  1  0  0  0  0
  6 37  1  0  0  0  0
  7  8  1  0  0  0  0
  8  9  1  0  0  0  0
  9 10  1  0  0  0  0
  9 35  1  0  0  0  0
  9 36  1  0  0  0  0
 10 11  1  0  0  0  0
 10 33  1  0  0  0  0
 10 34  1  0  0  0  0
 11 12  1  0  0  0  0
 12 13  2  0  0  0  0
 12 14  1  0  0  0  0
 14 15  1  0  0  0  0
 14 31  1  0  0  0  0
 14 32  1  0  0  0  0
 15 16  2  0  0  0  0
 15 24  1  0  0  0  0
 16 17  1  0  0  0  0
 16 30  1  0  0  0  0
 17 18  2  0  0  0  0
 18 19  1  0  0  0  0
 18 29  1  0  0  0  0
 19 20  2  0  0  0  0
 19 24  1  0  0  0  0
 20 21  1  0  0  0  0
 20 28  1  0  0  0  0
 21 22  2  0  0  0  0
 21 27  1  0  0  0  0
 22 23  1  0  0  0  0
 22 26  1  0  0  0  0
 23 24  2  0  0  0  0
 23 25  1  0  0  0  0
M  END
>  <MODEL>
       1

$$$$
