tmp_first_model_13_50.pdb
 OpenBabel08282500103D

 66 70  0  0  1  0  0  0  0  0999 V2000
   -7.4010    3.3710  -21.7910 C   0  0  0  0  0  0  0  0  0  0  0  0
   -8.2320    2.8950  -22.8780 N   0  0  0  0  0  0  0  0  0  0  0  0
   -7.6530    2.2240  -23.8970 C   0  0  0  0  0  0  0  0  0  0  0  0
   -6.4380    2.1350  -24.0120 O   0  0  0  0  0  0  0  0  0  0  0  0
   -8.6090    1.6000  -24.9240 C   0  0  0  0  0  0  0  0  0  0  0  0
   -9.3570    0.4610  -24.4190 N   0  0  0  0  0  0  0  0  0  0  0  0
   -8.6610   -0.7990  -24.2420 C   0  0  0  0  0  0  0  0  0  0  0  0
   -9.0600   -1.4970  -22.9160 C   0  0  2  0  0  0  0  0  0  0  0  0
   -8.5010   -0.7020  -21.7030 C   0  0  0  0  0  0  0  0  0  0  0  0
   -8.9250    0.3360  -21.2420 O   0  0  0  0  0  0  0  0  0  0  0  0
   -7.4080   -1.3750  -21.2040 N   0  0  0  0  0  0  0  0  0  0  0  0
   -6.6060   -0.8050  -20.1770 C   0  0  0  0  0  0  0  0  0  0  0  0
   -6.9060   -1.0390  -18.8600 C   0  0  0  0  0  0  0  0  0  0  0  0
   -6.1970   -0.5470  -17.8180 N   0  0  0  0  0  0  0  0  0  0  0  0
   -5.1630    0.2100  -18.0810 C   0  0  0  0  0  0  0  0  0  0  0  0
   -4.7260    0.5320  -19.3960 C   0  0  0  0  0  0  0  0  0  0  0  0
   -3.5990    1.3660  -19.6420 C   0  0  0  0  0  0  0  0  0  0  0  0
   -3.2130    1.6550  -20.9210 C   0  0  0  0  0  0  0  0  0  0  0  0
   -3.9360    1.1220  -22.0130 C   0  0  0  0  0  0  0  0  0  0  0  0
   -5.0290    0.3160  -21.8000 C   0  0  0  0  0  0  0  0  0  0  0  0
   -5.4630    0.0040  -20.4850 C   0  0  0  0  0  0  0  0  0  0  0  0
   -5.5840   -0.0750  -22.6480 H   0  0  0  0  0  0  0  0  0  0  0  0
   -3.6470    1.3600  -23.0300 H   0  0  0  0  0  0  0  0  0  0  0  0
   -2.3620    2.3060  -21.1030 H   0  0  0  0  0  0  0  0  0  0  0  0
   -3.0690    1.7750  -18.7850 H   0  0  0  0  0  0  0  0  0  0  0  0
   -4.6170    0.6130  -17.2270 H   0  0  0  0  0  0  0  0  0  0  0  0
   -7.7560   -1.6640  -18.5970 H   0  0  0  0  0  0  0  0  0  0  0  0
   -7.0810   -2.5990  -21.9120 C   0  0  0  0  0  0  0  0  0  0  0  0
   -8.3430   -2.8710  -22.7580 C   0  0  2  0  0  0  0  0  0  0  0  0
   -8.0170   -3.6530  -24.0380 C   0  0  0  0  0  0  0  0  0  0  0  0
   -7.4910   -4.9290  -23.7250 O   0  0  0  0  0  0  0  0  0  0  0  0
   -8.4670   -5.9680  -23.6390 C   0  0  0  0  0  0  0  0  0  0  0  0
   -8.5690   -6.6990  -24.9770 C   0  0  0  0  0  0  0  0  0  0  0  0
   -8.8670   -6.0170  -25.7820 H   0  0  0  0  0  0  0  0  0  0  0  0
   -7.5960   -7.1310  -25.2360 H   0  0  0  0  0  0  0  0  0  0  0  0
   -9.3100   -7.5060  -24.9200 H   0  0  0  0  0  0  0  0  0  0  0  0
   -8.0510   -6.9030  -22.5140 C   0  0  0  0  0  0  0  0  0  0  0  0
   -7.0750   -7.3490  -22.7330 H   0  0  0  0  0  0  0  0  0  0  0  0
   -8.7840   -7.7090  -22.3960 H   0  0  0  0  0  0  0  0  0  0  0  0
   -7.9740   -6.3530  -21.5710 H   0  0  0  0  0  0  0  0  0  0  0  0
   -9.4490   -5.5190  -23.4020 H   0  0  0  0  0  0  0  0  0  0  0  0
   -8.9110   -3.7390  -24.6810 H   0  0  0  0  0  0  0  0  0  0  0  0
   -7.2390   -3.1340  -24.6140 H   0  0  0  0  0  0  0  0  0  0  0  0
   -9.0090   -3.5070  -22.1680 H   0  0  0  0  0  0  0  0  0  0  0  0
   -6.8620   -3.4120  -21.2100 H   0  0  0  0  0  0  0  0  0  0  0  0
   -6.1880   -2.4720  -22.5440 H   0  0  0  0  0  0  0  0  0  0  0  0
  -10.5770   -1.5220  -22.8420 C   0  0  0  0  0  0  0  0  0  0  0  0
  -11.2290   -2.3900  -21.9580 C   0  0  0  0  0  0  0  0  0  0  0  0
  -12.6060   -2.3780  -21.8800 C   0  0  0  0  0  0  0  0  0  0  0  0
  -13.2160   -3.2220  -21.0320 F   0  0  0  0  0  0  0  0  0  0  0  0
  -13.3910   -1.5170  -22.6360 C   0  0  0  0  0  0  0  0  0  0  0  0
  -12.7500   -0.6130  -23.4590 C   0  0  0  0  0  0  0  0  0  0  0  0
  -11.3570   -0.5890  -23.5430 C   0  0  0  0  0  0  0  0  0  0  0  0
  -10.7220    0.5250  -24.3260 C   0  0  0  0  0  0  0  0  0  0  0  0
  -11.3800    1.4370  -24.8060 O   0  0  0  0  0  0  0  0  0  0  0  0
  -13.3030    0.1180  -24.0390 H   0  0  0  0  0  0  0  0  0  0  0  0
  -14.4700   -1.5550  -22.5430 H   0  0  0  0  0  0  0  0  0  0  0  0
  -10.6910   -3.0610  -21.2990 H   0  0  0  0  0  0  0  0  0  0  0  0
   -8.8700   -1.4770  -25.0860 H   0  0  0  0  0  0  0  0  0  0  0  0
   -7.5910   -0.5720  -24.2270 H   0  0  0  0  0  0  0  0  0  0  0  0
   -9.3640    2.3110  -25.2770 H   0  0  0  0  0  0  0  0  0  0  0  0
   -7.9670    1.3070  -25.7610 H   0  0  0  0  0  0  0  0  0  0  0  0
   -9.2340    2.8440  -22.7480 H   0  0  0  0  0  0  0  0  0  0  0  0
   -6.7080    4.1480  -22.1350 H   0  0  0  0  0  0  0  0  0  0  0  0
   -6.8120    2.5510  -21.3500 H   0  0  0  0  0  0  0  0  0  0  0  0
   -8.0670    3.8010  -21.0520 H   0  0  0  0  0  0  0  0  0  0  0  0
  1  2  1  0  0  0  0
  1 64  1  0  0  0  0
  1 65  1  0  0  0  0
  1 66  1  0  0  0  0
  2  3  1  0  0  0  0
  2 63  1  0  0  0  0
  3  4  2  0  0  0  0
  3  5  1  0  0  0  0
  5  6  1  0  0  0  0
  5 61  1  0  0  0  0
  5 62  1  0  0  0  0
  6  7  1  0  0  0  0
  6 54  1  0  0  0  0
  7  8  1  0  0  0  0
  7 59  1  0  0  0  0
  7 60  1  0  0  0  0
  8  9  1  1  0  0  0
  8 29  1  0  0  0  0
  8 47  1  0  0  0  0
  9 10  2  0  0  0  0
  9 11  1  0  0  0  0
 11 12  1  0  0  0  0
 11 28  1  0  0  0  0
 12 13  2  0  0  0  0
 12 21  1  0  0  0  0
 13 14  1  0  0  0  0
 13 27  1  0  0  0  0
 14 15  2  0  0  0  0
 15 16  1  0  0  0  0
 15 26  1  0  0  0  0
 16 17  2  0  0  0  0
 16 21  1  0  0  0  0
 17 18  1  0  0  0  0
 17 25  1  0  0  0  0
 18 19  2  0  0  0  0
 18 24  1  0  0  0  0
 19 20  1  0  0  0  0
 19 23  1  0  0  0  0
 20 21  2  0  0  0  0
 20 22  1  0  0  0  0
 28 29  1  0  0  0  0
 28 45  1  0  0  0  0
 28 46  1  0  0  0  0
 29 30  1  0  0  0  0
 29 44  1  1  0  0  0
 30 31  1  0  0  0  0
 30 42  1  0  0  0  0
 30 43  1  0  0  0  0
 31 32  1  0  0  0  0
 32 33  1  0  0  0  0
 32 37  1  0  0  0  0
 32 41  1  0  0  0  0
 33 34  1  0  0  0  0
 33 35  1  0  0  0  0
 33 36  1  0  0  0  0
 37 38  1  0  0  0  0
 37 39  1  0  0  0  0
 37 40  1  0  0  0  0
 47 48  2  0  0  0  0
 47 53  1  0  0  0  0
 48 49  1  0  0  0  0
 48 58  1  0  0  0  0
 49 50  1  0  0  0  0
 49 51  2  0  0  0  0
 51 52  1  0  0  0  0
 51 57  1  0  0  0  0
 52 53  2  0  0  0  0
 52 56  1  0  0  0  0
 53 54  1  0  0  0  0
 54 55  2  0  0  0  0
M  END
>  <MODEL>
       1

$$$$
