tmp_first_model_20_15.pdb
 OpenBabel08282503553D

 63 68  0  0  1  0  0  0  0  0999 V2000
   -7.6710    2.9920  -22.4370 C   0  0  0  0  0  0  0  0  0  0  0  0
   -8.5880    2.5220  -23.4500 N   0  0  0  0  0  0  0  0  0  0  0  0
   -8.0930    1.9420  -24.5690 C   0  0  0  0  0  0  0  0  0  0  0  0
   -6.9080    1.9430  -24.8590 O   0  0  0  0  0  0  0  0  0  0  0  0
   -9.1520    1.2130  -25.4020 C   0  0  0  0  0  0  0  0  0  0  0  0
   -9.7500    0.1400  -24.6220 N   0  0  0  0  0  0  0  0  0  0  0  0
   -8.8450   -0.9240  -24.2300 C   0  0  0  0  0  0  0  0  0  0  0  0
   -9.1990   -1.6170  -22.8750 C   0  0  2  0  0  0  0  0  0  0  0  0
   -8.6900   -0.7390  -21.6950 C   0  0  0  0  0  0  0  0  0  0  0  0
   -9.2390    0.2470  -21.2420 O   0  0  0  0  0  0  0  0  0  0  0  0
   -7.4920   -1.2570  -21.2510 N   0  0  0  0  0  0  0  0  0  0  0  0
   -6.7190   -0.6950  -20.1980 C   0  0  0  0  0  0  0  0  0  0  0  0
   -7.0210   -0.9630  -18.8870 C   0  0  0  0  0  0  0  0  0  0  0  0
   -6.2910   -0.5350  -17.8240 N   0  0  0  0  0  0  0  0  0  0  0  0
   -5.2170    0.1740  -18.0730 C   0  0  0  0  0  0  0  0  0  0  0  0
   -4.7750    0.5200  -19.3830 C   0  0  0  0  0  0  0  0  0  0  0  0
   -3.6070    1.2990  -19.6120 C   0  0  0  0  0  0  0  0  0  0  0  0
   -3.2240    1.6180  -20.8870 C   0  0  0  0  0  0  0  0  0  0  0  0
   -3.9890    1.1800  -21.9900 C   0  0  0  0  0  0  0  0  0  0  0  0
   -5.1240    0.4290  -21.7930 C   0  0  0  0  0  0  0  0  0  0  0  0
   -5.5460    0.0750  -20.4830 C   0  0  0  0  0  0  0  0  0  0  0  0
   -5.7450    0.1640  -22.6450 H   0  0  0  0  0  0  0  0  0  0  0  0
   -3.6960    1.4540  -22.9990 H   0  0  0  0  0  0  0  0  0  0  0  0
   -2.3400    2.2250  -21.0610 H   0  0  0  0  0  0  0  0  0  0  0  0
   -3.0300    1.6410  -18.7580 H   0  0  0  0  0  0  0  0  0  0  0  0
   -4.6350    0.5160  -17.2140 H   0  0  0  0  0  0  0  0  0  0  0  0
   -7.8910   -1.5720  -18.6500 H   0  0  0  0  0  0  0  0  0  0  0  0
   -7.0550   -2.4370  -21.9680 C   0  0  0  0  0  0  0  0  0  0  0  0
   -8.3330   -2.8970  -22.6940 C   0  0  2  0  0  0  0  0  0  0  0  0
   -8.0590   -3.6680  -23.9960 C   0  0  0  0  0  0  0  0  0  0  0  0
   -7.4610   -4.9680  -23.7870 N   0  0  0  0  0  0  0  0  0  0  0  0
   -8.0870   -6.1620  -23.6950 C   0  0  0  0  0  0  0  0  0  0  0  0
   -7.1170   -7.1000  -23.4150 C   0  0  0  0  0  0  0  0  0  0  0  0
   -5.9210   -6.3530  -23.3630 C   0  0  0  0  0  0  0  0  0  0  0  0
   -6.1410   -5.0610  -23.5830 N   0  0  0  0  0  0  0  0  0  0  0  0
   -4.9070   -6.6840  -23.1650 H   0  0  0  0  0  0  0  0  0  0  0  0
   -7.2530   -8.1650  -23.2740 H   0  0  0  0  0  0  0  0  0  0  0  0
   -9.1560   -6.2450  -23.8540 H   0  0  0  0  0  0  0  0  0  0  0  0
   -7.3480   -3.1190  -24.6220 H   0  0  0  0  0  0  0  0  0  0  0  0
   -8.9960   -3.8140  -24.5460 H   0  0  0  0  0  0  0  0  0  0  0  0
   -8.8670   -3.5650  -22.0140 H   0  0  0  0  0  0  0  0  0  0  0  0
   -6.2340   -2.2180  -22.6710 H   0  0  0  0  0  0  0  0  0  0  0  0
   -6.6790   -3.1850  -21.2650 H   0  0  0  0  0  0  0  0  0  0  0  0
  -10.7080   -1.8100  -22.7750 C   0  0  0  0  0  0  0  0  0  0  0  0
  -11.2920   -2.7870  -21.9490 C   0  0  0  0  0  0  0  0  0  0  0  0
  -12.6660   -2.8320  -21.7730 C   0  0  0  0  0  0  0  0  0  0  0  0
  -13.3690   -4.0270  -20.7200 Cl  0  0  0  0  0  0  0  0  0  0  0  0
  -13.5170   -1.9240  -22.3990 C   0  0  0  0  0  0  0  0  0  0  0  0
  -12.9540   -0.9480  -23.1930 C   0  0  0  0  0  0  0  0  0  0  0  0
  -11.5720   -0.8860  -23.3820 C   0  0  0  0  0  0  0  0  0  0  0  0
  -11.0450    0.2490  -24.2070 C   0  0  0  0  0  0  0  0  0  0  0  0
  -11.7400    1.2220  -24.4750 O   0  0  0  0  0  0  0  0  0  0  0  0
  -13.5720   -0.1930  -23.6670 H   0  0  0  0  0  0  0  0  0  0  0  0
  -14.5890   -1.9810  -22.2330 H   0  0  0  0  0  0  0  0  0  0  0  0
  -10.6960   -3.5070  -21.4000 H   0  0  0  0  0  0  0  0  0  0  0  0
   -8.7950   -1.6540  -25.0450 H   0  0  0  0  0  0  0  0  0  0  0  0
   -7.8490   -0.4750  -24.1450 H   0  0  0  0  0  0  0  0  0  0  0  0
   -9.9650    1.8780  -25.6910 H   0  0  0  0  0  0  0  0  0  0  0  0
   -8.6730    0.8340  -26.3070 H   0  0  0  0  0  0  0  0  0  0  0  0
   -9.5060    2.2360  -23.1420 H   0  0  0  0  0  0  0  0  0  0  0  0
   -6.9550    2.2130  -22.1590 H   0  0  0  0  0  0  0  0  0  0  0  0
   -8.2330    3.2900  -21.5550 H   0  0  0  0  0  0  0  0  0  0  0  0
   -7.1000    3.8510  -22.7950 H   0  0  0  0  0  0  0  0  0  0  0  0
  1  2  1  0  0  0  0
  1 61  1  0  0  0  0
  1 62  1  0  0  0  0
  1 63  1  0  0  0  0
  2  3  1  0  0  0  0
  2 60  1  0  0  0  0
  3  4  2  0  0  0  0
  3  5  1  0  0  0  0
  5  6  1  0  0  0  0
  5 58  1  0  0  0  0
  5 59  1  0  0  0  0
  6  7  1  0  0  0  0
  6 51  1  0  0  0  0
  7  8  1  0  0  0  0
  7 56  1  0  0  0  0
  7 57  1  0  0  0  0
  8  9  1  1  0  0  0
  8 29  1  0  0  0  0
  8 44  1  0  0  0  0
  9 10  2  0  0  0  0
  9 11  1  0  0  0  0
 11 12  1  0  0  0  0
 11 28  1  0  0  0  0
 12 13  2  0  0  0  0
 12 21  1  0  0  0  0
 13 14  1  0  0  0  0
 13 27  1  0  0  0  0
 14 15  2  0  0  0  0
 15 16  1  0  0  0  0
 15 26  1  0  0  0  0
 16 17  2  0  0  0  0
 16 21  1  0  0  0  0
 17 18  1  0  0  0  0
 17 25  1  0  0  0  0
 18 19  2  0  0  0  0
 18 24  1  0  0  0  0
 19 20  1  0  0  0  0
 19 23  1  0  0  0  0
 20 21  2  0  0  0  0
 20 22  1  0  0  0  0
 28 29  1  0  0  0  0
 28 42  1  0  0  0  0
 28 43  1  0  0  0  0
 29 30  1  0  0  0  0
 29 41  1  1  0  0  0
 30 31  1  0  0  0  0
 30 39  1  0  0  0  0
 30 40  1  0  0  0  0
 31 32  1  0  0  0  0
 31 35  1  0  0  0  0
 32 33  2  0  0  0  0
 32 38  1  0  0  0  0
 33 34  1  0  0  0  0
 33 37  1  0  0  0  0
 34 35  2  0  0  0  0
 34 36  1  0  0  0  0
 44 45  2  0  0  0  0
 44 50  1  0  0  0  0
 45 46  1  0  0  0  0
 45 55  1  0  0  0  0
 46 47  1  0  0  0  0
 46 48  2  0  0  0  0
 48 49  1  0  0  0  0
 48 54  1  0  0  0  0
 49 50  2  0  0  0  0
 49 53  1  0  0  0  0
 50 51  1  0  0  0  0
 51 52  2  0  0  0  0
M  END
>  <MODEL>
       1

$$$$
