tmp_first_model_7_82.pdb
 OpenBabel08272520323D

 54 57  0  0  1  0  0  0  0  0999 V2000
   -9.4770    1.4580  -24.5860 C   0  0  0  0  0  0  0  0  0  0  0  0
   -8.9100    0.1710  -24.4550 O   0  0  0  0  0  0  0  0  0  0  0  0
   -7.6210   -0.0590  -24.8490 C   0  0  0  0  0  0  0  0  0  0  0  0
   -6.7880    0.9280  -25.3870 C   0  0  0  0  0  0  0  0  0  0  0  0
   -5.4810    0.6110  -25.7600 C   0  0  0  0  0  0  0  0  0  0  0  0
   -4.9910   -0.6800  -25.6080 C   0  0  0  0  0  0  0  0  0  0  0  0
   -5.8260   -1.6450  -25.0590 C   0  0  0  0  0  0  0  0  0  0  0  0
   -7.1230   -1.3630  -24.6500 C   0  0  0  0  0  0  0  0  0  0  0  0
   -7.9880   -2.4720  -24.0490 C   0  0  1  0  0  0  0  0  0  0  0  0
   -8.5380   -3.3730  -25.1590 C   0  0  0  0  0  0  0  0  0  0  0  0
   -9.2360   -4.6030  -24.5950 C   0  0  1  0  0  0  0  0  0  0  0  0
   -9.8740   -5.4480  -25.6970 C   0  0  0  0  0  0  0  0  0  0  0  0
  -10.5890   -4.8650  -26.2870 H   0  0  0  0  0  0  0  0  0  0  0  0
   -9.1240   -5.8150  -26.4060 H   0  0  0  0  0  0  0  0  0  0  0  0
  -10.3940   -6.3220  -25.2830 H   0  0  0  0  0  0  0  0  0  0  0  0
   -8.2680   -5.4300  -23.7340 C   0  0  0  0  0  0  0  0  0  0  0  0
   -6.9950   -4.6710  -23.3580 C   0  0  0  0  0  0  0  0  0  0  0  0
   -7.2860   -3.2710  -23.0390 N   0  0  0  0  0  0  0  0  0  0  0  0
   -6.7360   -2.7280  -21.8870 C   0  0  0  0  0  0  0  0  0  0  0  0
   -5.7990   -3.2580  -21.3150 O   0  0  0  0  0  0  0  0  0  0  0  0
   -7.3990   -1.4620  -21.2850 C   0  0  0  0  0  0  0  0  0  0  0  0
   -6.5760   -0.8300  -20.1850 C   0  0  0  0  0  0  0  0  0  0  0  0
   -6.8700   -1.0470  -18.8640 C   0  0  0  0  0  0  0  0  0  0  0  0
   -6.1830   -0.5410  -17.8040 N   0  0  0  0  0  0  0  0  0  0  0  0
   -5.1550    0.2230  -18.0700 C   0  0  0  0  0  0  0  0  0  0  0  0
   -4.7170    0.5310  -19.3850 C   0  0  0  0  0  0  0  0  0  0  0  0
   -3.5890    1.3540  -19.6260 C   0  0  0  0  0  0  0  0  0  0  0  0
   -3.1930    1.6360  -20.9020 C   0  0  0  0  0  0  0  0  0  0  0  0
   -3.9140    1.0970  -21.9930 C   0  0  0  0  0  0  0  0  0  0  0  0
   -5.0060    0.2890  -21.7970 C   0  0  0  0  0  0  0  0  0  0  0  0
   -5.4430   -0.0120  -20.4800 C   0  0  0  0  0  0  0  0  0  0  0  0
   -5.5330   -0.1200  -22.6610 H   0  0  0  0  0  0  0  0  0  0  0  0
   -3.5950    1.3270  -23.0040 H   0  0  0  0  0  0  0  0  0  0  0  0
   -2.3350    2.2800  -21.0880 H   0  0  0  0  0  0  0  0  0  0  0  0
   -3.0580    1.7750  -18.7730 H   0  0  0  0  0  0  0  0  0  0  0  0
   -4.6020    0.6290  -17.2170 H   0  0  0  0  0  0  0  0  0  0  0  0
   -7.7200   -1.6710  -18.5850 H   0  0  0  0  0  0  0  0  0  0  0  0
   -7.6500   -0.7190  -22.0520 H   0  0  0  0  0  0  0  0  0  0  0  0
   -8.3620   -1.7790  -20.8570 H   0  0  0  0  0  0  0  0  0  0  0  0
   -6.2580   -4.7540  -24.1700 H   0  0  0  0  0  0  0  0  0  0  0  0
   -6.5260   -5.1220  -22.4840 H   0  0  0  0  0  0  0  0  0  0  0  0
   -7.9800   -6.3450  -24.2630 H   0  0  0  0  0  0  0  0  0  0  0  0
   -8.7850   -5.7580  -22.8280 H   0  0  0  0  0  0  0  0  0  0  0  0
  -10.0440   -4.2470  -23.9440 H   0  0  0  0  0  0  0  0  0  0  0  0
   -9.2430   -2.7840  -25.7510 H   0  0  0  0  0  0  0  0  0  0  0  0
   -7.7480   -3.6690  -25.8610 H   0  0  0  0  0  0  0  0  0  0  0  0
   -8.8460   -2.0010  -23.5640 H   0  0  0  0  0  0  0  0  0  0  0  0
   -5.4390   -2.6540  -24.9550 H   0  0  0  0  0  0  0  0  0  0  0  0
   -3.9790   -0.9410  -25.9110 H   0  0  0  0  0  0  0  0  0  0  0  0
   -4.8370    1.3780  -26.1770 H   0  0  0  0  0  0  0  0  0  0  0  0
   -7.1420    1.9470  -25.5200 H   0  0  0  0  0  0  0  0  0  0  0  0
   -9.5310    1.8130  -25.6220 H   0  0  0  0  0  0  0  0  0  0  0  0
   -8.9640    2.2160  -23.9810 H   0  0  0  0  0  0  0  0  0  0  0  0
  -10.4930    1.3660  -24.2100 H   0  0  0  0  0  0  0  0  0  0  0  0
  1  2  1  0  0  0  0
  1 52  1  0  0  0  0
  1 53  1  0  0  0  0
  1 54  1  0  0  0  0
  2  3  1  0  0  0  0
  3  4  2  0  0  0  0
  3  8  1  0  0  0  0
  4  5  1  0  0  0  0
  4 51  1  0  0  0  0
  5  6  2  0  0  0  0
  5 50  1  0  0  0  0
  6  7  1  0  0  0  0
  6 49  1  0  0  0  0
  7  8  2  0  0  0  0
  7 48  1  0  0  0  0
  8  9  1  0  0  0  0
  9 10  1  0  0  0  0
  9 18  1  0  0  0  0
  9 47  1  1  0  0  0
 10 11  1  0  0  0  0
 10 45  1  0  0  0  0
 10 46  1  0  0  0  0
 11 12  1  0  0  0  0
 11 16  1  0  0  0  0
 11 44  1  1  0  0  0
 12 13  1  0  0  0  0
 12 14  1  0  0  0  0
 12 15  1  0  0  0  0
 16 17  1  0  0  0  0
 16 42  1  0  0  0  0
 16 43  1  0  0  0  0
 17 18  1  0  0  0  0
 17 40  1  0  0  0  0
 17 41  1  0  0  0  0
 18 19  1  0  0  0  0
 19 20  2  0  0  0  0
 19 21  1  0  0  0  0
 21 22  1  0  0  0  0
 21 38  1  0  0  0  0
 21 39  1  0  0  0  0
 22 23  2  0  0  0  0
 22 31  1  0  0  0  0
 23 24  1  0  0  0  0
 23 37  1  0  0  0  0
 24 25  2  0  0  0  0
 25 26  1  0  0  0  0
 25 36  1  0  0  0  0
 26 27  2  0  0  0  0
 26 31  1  0  0  0  0
 27 28  1  0  0  0  0
 27 35  1  0  0  0  0
 28 29  2  0  0  0  0
 28 34  1  0  0  0  0
 29 30  1  0  0  0  0
 29 33  1  0  0  0  0
 30 31  2  0  0  0  0
 30 32  1  0  0  0  0
M  END
>  <MODEL>
       1

$$$$
