tmp_first_model_17_52.pdb
 OpenBabel08282502223D

 57 60  0  0  0  0  0  0  0  0999 V2000
   -2.3320   -1.1810  -28.0580 C   0  0  0  0  0  0  0  0  0  0  0  0
   -3.4110   -0.1250  -27.8140 C   0  0  0  0  0  0  0  0  0  0  0  0
   -4.3360   -0.5200  -26.6650 C   0  0  0  0  0  0  0  0  0  0  0  0
   -4.0830   -0.2060  -25.5150 O   0  0  0  0  0  0  0  0  0  0  0  0
   -5.4440   -1.2820  -26.9800 N   0  0  0  0  0  0  0  0  0  0  0  0
   -6.4870   -1.6030  -26.0700 C   0  0  0  0  0  0  0  0  0  0  0  0
   -7.1300   -2.8450  -26.1550 C   0  0  0  0  0  0  0  0  0  0  0  0
   -8.1430   -3.1530  -25.2550 C   0  0  0  0  0  0  0  0  0  0  0  0
   -8.5450   -2.2510  -24.2760 C   0  0  0  0  0  0  0  0  0  0  0  0
   -7.9110   -1.0070  -24.2020 C   0  0  0  0  0  0  0  0  0  0  0  0
   -8.2910   -0.0480  -23.2070 N   0  0  0  0  0  0  0  0  0  0  0  0
   -8.9390    1.1930  -23.6560 C   0  0  0  0  0  0  0  0  0  0  0  0
  -10.3870    1.0180  -24.0580 C   0  0  0  0  0  0  0  0  0  0  0  0
  -10.7020    0.5190  -25.3170 C   0  0  0  0  0  0  0  0  0  0  0  0
  -12.0210    0.2710  -25.6660 C   0  0  0  0  0  0  0  0  0  0  0  0
  -13.0560    0.5480  -24.7780 C   0  0  0  0  0  0  0  0  0  0  0  0
  -12.7500    1.0580  -23.5210 C   0  0  0  0  0  0  0  0  0  0  0  0
  -11.4250    1.2910  -23.1670 C   0  0  0  0  0  0  0  0  0  0  0  0
  -11.1850    1.6620  -22.1770 H   0  0  0  0  0  0  0  0  0  0  0  0
  -13.5460    1.2660  -22.8100 H   0  0  0  0  0  0  0  0  0  0  0  0
  -14.0910    0.3660  -25.0520 H   0  0  0  0  0  0  0  0  0  0  0  0
  -12.1940   -0.1750  -26.6340 H   0  0  0  0  0  0  0  0  0  0  0  0
   -9.9170    0.2930  -26.0350 H   0  0  0  0  0  0  0  0  0  0  0  0
   -8.8580    1.9330  -22.8550 H   0  0  0  0  0  0  0  0  0  0  0  0
   -8.3670    1.5600  -24.5140 H   0  0  0  0  0  0  0  0  0  0  0  0
   -8.3820   -0.3530  -21.8510 C   0  0  0  0  0  0  0  0  0  0  0  0
   -9.1480    0.2420  -21.1150 O   0  0  0  0  0  0  0  0  0  0  0  0
   -7.4280   -1.4100  -21.2730 C   0  0  0  0  0  0  0  0  0  0  0  0
   -6.5680   -0.8290  -20.1710 C   0  0  0  0  0  0  0  0  0  0  0  0
   -6.8760   -1.0390  -18.8530 C   0  0  0  0  0  0  0  0  0  0  0  0
   -6.1930   -0.5310  -17.7900 N   0  0  0  0  0  0  0  0  0  0  0  0
   -5.1550    0.2210  -18.0630 C   0  0  0  0  0  0  0  0  0  0  0  0
   -4.7190    0.5350  -19.3770 C   0  0  0  0  0  0  0  0  0  0  0  0
   -3.5990    1.3680  -19.6210 C   0  0  0  0  0  0  0  0  0  0  0  0
   -3.2150    1.6630  -20.9000 C   0  0  0  0  0  0  0  0  0  0  0  0
   -3.9350    1.1300  -21.9960 C   0  0  0  0  0  0  0  0  0  0  0  0
   -5.0210    0.3150  -21.7910 C   0  0  0  0  0  0  0  0  0  0  0  0
   -5.4450   -0.0030  -20.4740 C   0  0  0  0  0  0  0  0  0  0  0  0
   -5.5600   -0.0820  -22.6530 H   0  0  0  0  0  0  0  0  0  0  0  0
   -3.6170    1.3530  -23.0100 H   0  0  0  0  0  0  0  0  0  0  0  0
   -2.3510    2.2990  -21.0860 H   0  0  0  0  0  0  0  0  0  0  0  0
   -3.0550    1.7760  -18.7700 H   0  0  0  0  0  0  0  0  0  0  0  0
   -4.6000    0.6280  -17.2140 H   0  0  0  0  0  0  0  0  0  0  0  0
   -7.7300   -1.6610  -18.5830 H   0  0  0  0  0  0  0  0  0  0  0  0
   -8.0530   -2.2050  -20.8450 H   0  0  0  0  0  0  0  0  0  0  0  0
   -6.8130   -1.8650  -22.0580 H   0  0  0  0  0  0  0  0  0  0  0  0
   -6.9100   -0.6780  -25.1150 C   0  0  0  0  0  0  0  0  0  0  0  0
   -6.4420    0.2970  -25.0720 H   0  0  0  0  0  0  0  0  0  0  0  0
   -9.3470   -2.5030  -23.5800 H   0  0  0  0  0  0  0  0  0  0  0  0
   -8.6320   -4.1210  -25.3080 H   0  0  0  0  0  0  0  0  0  0  0  0
   -6.8370   -3.5810  -26.9020 H   0  0  0  0  0  0  0  0  0  0  0  0
   -5.4820   -1.7240  -27.8860 H   0  0  0  0  0  0  0  0  0  0  0  0
   -2.9320    0.8090  -27.5090 H   0  0  0  0  0  0  0  0  0  0  0  0
   -3.9630    0.0820  -28.7410 H   0  0  0  0  0  0  0  0  0  0  0  0
   -2.7840   -2.1310  -28.3570 H   0  0  0  0  0  0  0  0  0  0  0  0
   -1.6410   -0.8720  -28.8510 H   0  0  0  0  0  0  0  0  0  0  0  0
   -1.7400   -1.3570  -27.1540 H   0  0  0  0  0  0  0  0  0  0  0  0
  1  2  1  0  0  0  0
  1 55  1  0  0  0  0
  1 56  1  0  0  0  0
  1 57  1  0  0  0  0
  2  3  1  0  0  0  0
  2 53  1  0  0  0  0
  2 54  1  0  0  0  0
  3  4  2  0  0  0  0
  3  5  1  0  0  0  0
  5  6  1  0  0  0  0
  5 52  1  0  0  0  0
  6  7  2  0  0  0  0
  6 47  1  0  0  0  0
  7  8  1  0  0  0  0
  7 51  1  0  0  0  0
  8  9  2  0  0  0  0
  8 50  1  0  0  0  0
  9 10  1  0  0  0  0
  9 49  1  0  0  0  0
 10 11  1  0  0  0  0
 10 47  2  0  0  0  0
 11 12  1  0  0  0  0
 11 26  1  0  0  0  0
 12 13  1  0  0  0  0
 12 24  1  0  0  0  0
 12 25  1  0  0  0  0
 13 14  2  0  0  0  0
 13 18  1  0  0  0  0
 14 15  1  0  0  0  0
 14 23  1  0  0  0  0
 15 16  2  0  0  0  0
 15 22  1  0  0  0  0
 16 17  1  0  0  0  0
 16 21  1  0  0  0  0
 17 18  2  0  0  0  0
 17 20  1  0  0  0  0
 18 19  1  0  0  0  0
 26 27  2  0  0  0  0
 26 28  1  0  0  0  0
 28 29  1  0  0  0  0
 28 45  1  0  0  0  0
 28 46  1  0  0  0  0
 29 30  2  0  0  0  0
 29 38  1  0  0  0  0
 30 31  1  0  0  0  0
 30 44  1  0  0  0  0
 31 32  2  0  0  0  0
 32 33  1  0  0  0  0
 32 43  1  0  0  0  0
 33 34  2  0  0  0  0
 33 38  1  0  0  0  0
 34 35  1  0  0  0  0
 34 42  1  0  0  0  0
 35 36  2  0  0  0  0
 35 41  1  0  0  0  0
 36 37  1  0  0  0  0
 36 40  1  0  0  0  0
 37 38  2  0  0  0  0
 37 39  1  0  0  0  0
 47 48  1  0  0  0  0
M  END
>  <MODEL>
       1

$$$$
