tmp_first_model_1_69.pdb
 OpenBabel08272517043D

 63 67  0  0  0  0  0  0  0  0999 V2000
   -3.5380    3.0420  -26.2690 C   0  0  0  0  0  0  0  0  0  0  0  0
   -4.3600    2.0220  -26.0310 C   0  0  0  0  0  0  0  0  0  0  0  0
   -4.8650    1.1370  -27.1280 C   0  0  0  0  0  0  0  0  0  0  0  0
   -4.6740    1.3820  -28.3040 O   0  0  0  0  0  0  0  0  0  0  0  0
   -5.6600    0.0430  -26.7310 N   0  0  0  0  0  0  0  0  0  0  0  0
   -6.9680   -0.0410  -27.3710 C   0  0  0  0  0  0  0  0  0  0  0  0
   -7.6500   -1.3690  -27.0850 C   0  0  0  0  0  0  0  0  0  0  0  0
   -7.6370   -1.6630  -25.5860 C   0  0  0  0  0  0  0  0  0  0  0  0
   -6.2220   -1.6480  -25.0540 C   0  0  0  0  0  0  0  0  0  0  0  0
   -5.2750   -0.8310  -25.7050 C   0  0  0  0  0  0  0  0  0  0  0  0
   -3.9210   -0.9310  -25.3660 C   0  0  0  0  0  0  0  0  0  0  0  0
   -3.5130   -1.7780  -24.3600 C   0  0  0  0  0  0  0  0  0  0  0  0
   -4.4520   -2.5070  -23.6250 C   0  0  0  0  0  0  0  0  0  0  0  0
   -5.7910   -2.3940  -23.9590 C   0  0  0  0  0  0  0  0  0  0  0  0
   -6.8300   -3.1860  -23.0620 N   0  3  0  0  0  0  0  0  0  0  0  0
   -6.7010   -4.7070  -23.2750 C   0  0  0  0  0  0  0  0  0  0  0  0
   -7.0290   -5.0850  -24.6950 C   0  0  0  0  0  0  0  0  0  0  0  0
   -8.3410   -5.3830  -25.0650 C   0  0  0  0  0  0  0  0  0  0  0  0
   -8.6630   -5.6940  -26.3820 C   0  0  0  0  0  0  0  0  0  0  0  0
   -7.6760   -5.7240  -27.3620 C   0  0  0  0  0  0  0  0  0  0  0  0
   -6.3680   -5.4330  -26.9900 C   0  0  0  0  0  0  0  0  0  0  0  0
   -5.1210   -5.4510  -28.2110 Cl  0  0  0  0  0  0  0  0  0  0  0  0
   -6.0340   -5.1240  -25.6770 C   0  0  0  0  0  0  0  0  0  0  0  0
   -5.0050   -4.8810  -25.4200 H   0  0  0  0  0  0  0  0  0  0  0  0
   -7.9090   -5.9710  -28.3950 H   0  0  0  0  0  0  0  0  0  0  0  0
   -9.6920   -5.9270  -26.6460 H   0  0  0  0  0  0  0  0  0  0  0  0
   -9.1200   -5.3530  -24.3070 H   0  0  0  0  0  0  0  0  0  0  0  0
   -7.3510   -5.2280  -22.5670 H   0  0  0  0  0  0  0  0  0  0  0  0
   -5.6730   -4.9780  -23.0380 H   0  0  0  0  0  0  0  0  0  0  0  0
   -6.7280   -2.8350  -21.6480 C   0  0  0  0  0  0  0  0  0  0  0  0
   -6.1220   -3.5610  -20.8930 O   0  0  0  0  0  0  0  0  0  0  0  0
   -7.3820   -1.5100  -21.2330 C   0  0  0  0  0  0  0  0  0  0  0  0
   -6.5850   -0.8040  -20.1660 C   0  0  0  0  0  0  0  0  0  0  0  0
   -6.8750   -1.0330  -18.8470 C   0  0  0  0  0  0  0  0  0  0  0  0
   -6.1810   -0.5430  -17.7900 N   0  0  0  0  0  0  0  0  0  0  0  0
   -5.1540    0.2220  -18.0620 C   0  0  0  0  0  0  0  0  0  0  0  0
   -4.7220    0.5390  -19.3800 C   0  0  0  0  0  0  0  0  0  0  0  0
   -3.5880    1.3550  -19.6190 C   0  0  0  0  0  0  0  0  0  0  0  0
   -3.1910    1.6330  -20.8980 C   0  0  0  0  0  0  0  0  0  0  0  0
   -3.9180    1.1100  -21.9920 C   0  0  0  0  0  0  0  0  0  0  0  0
   -5.0270    0.3250  -21.7890 C   0  0  0  0  0  0  0  0  0  0  0  0
   -5.4570    0.0150  -20.4710 C   0  0  0  0  0  0  0  0  0  0  0  0
   -5.5760   -0.0740  -22.6400 H   0  0  0  0  0  0  0  0  0  0  0  0
   -3.5960    1.3430  -23.0060 H   0  0  0  0  0  0  0  0  0  0  0  0
   -2.3270    2.2660  -21.0760 H   0  0  0  0  0  0  0  0  0  0  0  0
   -3.0580    1.7600  -18.7610 H   0  0  0  0  0  0  0  0  0  0  0  0
   -4.6060    0.6300  -17.2130 H   0  0  0  0  0  0  0  0  0  0  0  0
   -7.7210   -1.6690  -18.5830 H   0  0  0  0  0  0  0  0  0  0  0  0
   -8.3790   -1.7450  -20.8280 H   0  0  0  0  0  0  0  0  0  0  0  0
   -7.5470   -0.8740  -22.1080 H   0  0  0  0  0  0  0  0  0  0  0  0
   -7.7340   -2.8510  -23.4470 H   0  0  0  0  0  0  0  0  0  0  0  0
   -4.1950   -3.1230  -22.7700 H   0  0  0  0  0  0  0  0  0  0  0  0
   -2.4430   -1.7910  -24.1840 H   0  0  0  0  0  0  0  0  0  0  0  0
   -3.1550   -0.3710  -25.8950 H   0  0  0  0  0  0  0  0  0  0  0  0
   -8.1150   -2.6290  -25.3940 H   0  0  0  0  0  0  0  0  0  0  0  0
   -8.2270   -0.9100  -25.0440 H   0  0  0  0  0  0  0  0  0  0  0  0
   -7.1510   -2.1830  -27.6290 H   0  0  0  0  0  0  0  0  0  0  0  0
   -8.6790   -1.3180  -27.4570 H   0  0  0  0  0  0  0  0  0  0  0  0
   -6.8110    0.1180  -28.4440 H   0  0  0  0  0  0  0  0  0  0  0  0
   -7.5970    0.7850  -27.0000 H   0  0  0  0  0  0  0  0  0  0  0  0
   -4.7560    1.8280  -25.0340 H   0  0  0  0  0  0  0  0  0  0  0  0
   -3.2200    3.7170  -25.4780 H   0  0  0  0  0  0  0  0  0  0  0  0
   -3.1660    3.2530  -27.2680 H   0  0  0  0  0  0  0  0  0  0  0  0
  1  2  2  0  0  0  0
  1 62  1  0  0  0  0
  1 63  1  0  0  0  0
  2  3  1  0  0  0  0
  2 61  1  0  0  0  0
  3  4  2  0  0  0  0
  3  5  1  0  0  0  0
  5  6  1  0  0  0  0
  5 10  1  0  0  0  0
  6  7  1  0  0  0  0
  6 59  1  0  0  0  0
  6 60  1  0  0  0  0
  7  8  1  0  0  0  0
  7 57  1  0  0  0  0
  7 58  1  0  0  0  0
  8  9  1  0  0  0  0
  8 55  1  0  0  0  0
  8 56  1  0  0  0  0
  9 10  2  0  0  0  0
  9 14  1  0  0  0  0
 10 11  1  0  0  0  0
 11 12  2  0  0  0  0
 11 54  1  0  0  0  0
 12 13  1  0  0  0  0
 12 53  1  0  0  0  0
 13 14  2  0  0  0  0
 13 52  1  0  0  0  0
 14 15  1  0  0  0  0
 15 16  1  0  0  0  0
 15 30  1  0  0  0  0
 15 51  1  0  0  0  0
 16 17  1  0  0  0  0
 16 28  1  0  0  0  0
 16 29  1  0  0  0  0
 17 18  2  0  0  0  0
 17 23  1  0  0  0  0
 18 19  1  0  0  0  0
 18 27  1  0  0  0  0
 19 20  2  0  0  0  0
 19 26  1  0  0  0  0
 20 21  1  0  0  0  0
 20 25  1  0  0  0  0
 21 22  1  0  0  0  0
 21 23  2  0  0  0  0
 23 24  1  0  0  0  0
 30 31  2  0  0  0  0
 30 32  1  0  0  0  0
 32 33  1  0  0  0  0
 32 49  1  0  0  0  0
 32 50  1  0  0  0  0
 33 34  2  0  0  0  0
 33 42  1  0  0  0  0
 34 35  1  0  0  0  0
 34 48  1  0  0  0  0
 35 36  2  0  0  0  0
 36 37  1  0  0  0  0
 36 47  1  0  0  0  0
 37 38  2  0  0  0  0
 37 42  1  0  0  0  0
 38 39  1  0  0  0  0
 38 46  1  0  0  0  0
 39 40  2  0  0  0  0
 39 45  1  0  0  0  0
 40 41  1  0  0  0  0
 40 44  1  0  0  0  0
 41 42  2  0  0  0  0
 41 43  1  0  0  0  0
M  CHG  1  15   1
M  END
>  <MODEL>
       1

$$$$
