tmp_first_model_14_82.pdb
 OpenBabel08282500413D

 54 57  0  0  1  0  0  0  0  0999 V2000
   -9.4600    1.4560  -24.5740 C   0  0  0  0  0  0  0  0  0  0  0  0
   -8.9050    0.1660  -24.4490 O   0  0  0  0  0  0  0  0  0  0  0  0
   -7.6190   -0.0610  -24.8490 C   0  0  0  0  0  0  0  0  0  0  0  0
   -6.7880    0.9270  -25.3880 C   0  0  0  0  0  0  0  0  0  0  0  0
   -5.4820    0.6110  -25.7610 C   0  0  0  0  0  0  0  0  0  0  0  0
   -4.9930   -0.6810  -25.6100 C   0  0  0  0  0  0  0  0  0  0  0  0
   -5.8270   -1.6460  -25.0610 C   0  0  0  0  0  0  0  0  0  0  0  0
   -7.1230   -1.3650  -24.6500 C   0  0  0  0  0  0  0  0  0  0  0  0
   -7.9880   -2.4730  -24.0490 C   0  0  1  0  0  0  0  0  0  0  0  0
   -8.5380   -3.3740  -25.1590 C   0  0  0  0  0  0  0  0  0  0  0  0
   -9.2380   -4.6030  -24.5950 C   0  0  1  0  0  0  0  0  0  0  0  0
   -9.8870   -5.4460  -25.6940 C   0  0  0  0  0  0  0  0  0  0  0  0
  -10.6240   -4.8700  -26.2650 H   0  0  0  0  0  0  0  0  0  0  0  0
   -9.1360   -5.8100  -26.4060 H   0  0  0  0  0  0  0  0  0  0  0  0
  -10.3990   -6.3230  -25.2800 H   0  0  0  0  0  0  0  0  0  0  0  0
   -8.2690   -5.4300  -23.7350 C   0  0  0  0  0  0  0  0  0  0  0  0
   -6.9950   -4.6710  -23.3580 C   0  0  0  0  0  0  0  0  0  0  0  0
   -7.2860   -3.2710  -23.0390 N   0  0  0  0  0  0  0  0  0  0  0  0
   -6.7360   -2.7290  -21.8880 C   0  0  0  0  0  0  0  0  0  0  0  0
   -5.7960   -3.2550  -21.3190 O   0  0  0  0  0  0  0  0  0  0  0  0
   -7.4000   -1.4640  -21.2870 C   0  0  0  0  0  0  0  0  0  0  0  0
   -6.5750   -0.8310  -20.1900 C   0  0  0  0  0  0  0  0  0  0  0  0
   -6.8730   -1.0410  -18.8700 C   0  0  0  0  0  0  0  0  0  0  0  0
   -6.1960   -0.5140  -17.8150 N   0  0  0  0  0  0  0  0  0  0  0  0
   -5.1550    0.2320  -18.0760 C   0  0  0  0  0  0  0  0  0  0  0  0
   -4.7140    0.5330  -19.3890 C   0  0  0  0  0  0  0  0  0  0  0  0
   -3.5890    1.3580  -19.6270 C   0  0  0  0  0  0  0  0  0  0  0  0
   -3.1930    1.6370  -20.9030 C   0  0  0  0  0  0  0  0  0  0  0  0
   -3.9110    1.0920  -21.9940 C   0  0  0  0  0  0  0  0  0  0  0  0
   -5.0050    0.2880  -21.7980 C   0  0  0  0  0  0  0  0  0  0  0  0
   -5.4430   -0.0110  -20.4830 C   0  0  0  0  0  0  0  0  0  0  0  0
   -5.5330   -0.1190  -22.6630 H   0  0  0  0  0  0  0  0  0  0  0  0
   -3.5910    1.3210  -23.0050 H   0  0  0  0  0  0  0  0  0  0  0  0
   -2.3350    2.2790  -21.0900 H   0  0  0  0  0  0  0  0  0  0  0  0
   -3.0560    1.7750  -18.7730 H   0  0  0  0  0  0  0  0  0  0  0  0
   -4.6020    0.6290  -17.2180 H   0  0  0  0  0  0  0  0  0  0  0  0
   -7.7180   -1.6690  -18.5860 H   0  0  0  0  0  0  0  0  0  0  0  0
   -7.6500   -0.7190  -22.0540 H   0  0  0  0  0  0  0  0  0  0  0  0
   -8.3630   -1.7790  -20.8570 H   0  0  0  0  0  0  0  0  0  0  0  0
   -6.2580   -4.7540  -24.1700 H   0  0  0  0  0  0  0  0  0  0  0  0
   -6.5260   -5.1220  -22.4840 H   0  0  0  0  0  0  0  0  0  0  0  0
   -7.9810   -6.3460  -24.2630 H   0  0  0  0  0  0  0  0  0  0  0  0
   -8.7840   -5.7580  -22.8290 H   0  0  0  0  0  0  0  0  0  0  0  0
  -10.0440   -4.2460  -23.9430 H   0  0  0  0  0  0  0  0  0  0  0  0
   -9.2430   -2.7850  -25.7520 H   0  0  0  0  0  0  0  0  0  0  0  0
   -7.7480   -3.6690  -25.8610 H   0  0  0  0  0  0  0  0  0  0  0  0
   -8.8450   -2.0020  -23.5630 H   0  0  0  0  0  0  0  0  0  0  0  0
   -5.4420   -2.6540  -24.9560 H   0  0  0  0  0  0  0  0  0  0  0  0
   -3.9790   -0.9380  -25.9100 H   0  0  0  0  0  0  0  0  0  0  0  0
   -4.8370    1.3780  -26.1760 H   0  0  0  0  0  0  0  0  0  0  0  0
   -7.1420    1.9460  -25.5210 H   0  0  0  0  0  0  0  0  0  0  0  0
   -9.5010    1.8090  -25.6120 H   0  0  0  0  0  0  0  0  0  0  0  0
   -8.9510    2.2170  -23.9730 H   0  0  0  0  0  0  0  0  0  0  0  0
  -10.4690    1.3620  -24.1810 H   0  0  0  0  0  0  0  0  0  0  0  0
  1  2  1  0  0  0  0
  1 52  1  0  0  0  0
  1 53  1  0  0  0  0
  1 54  1  0  0  0  0
  2  3  1  0  0  0  0
  3  4  2  0  0  0  0
  3  8  1  0  0  0  0
  4  5  1  0  0  0  0
  4 51  1  0  0  0  0
  5  6  2  0  0  0  0
  5 50  1  0  0  0  0
  6  7  1  0  0  0  0
  6 49  1  0  0  0  0
  7  8  2  0  0  0  0
  7 48  1  0  0  0  0
  8  9  1  0  0  0  0
  9 10  1  0  0  0  0
  9 18  1  0  0  0  0
  9 47  1  1  0  0  0
 10 11  1  0  0  0  0
 10 45  1  0  0  0  0
 10 46  1  0  0  0  0
 11 12  1  0  0  0  0
 11 16  1  0  0  0  0
 11 44  1  1  0  0  0
 12 13  1  0  0  0  0
 12 14  1  0  0  0  0
 12 15  1  0  0  0  0
 16 17  1  0  0  0  0
 16 42  1  0  0  0  0
 16 43  1  0  0  0  0
 17 18  1  0  0  0  0
 17 40  1  0  0  0  0
 17 41  1  0  0  0  0
 18 19  1  0  0  0  0
 19 20  2  0  0  0  0
 19 21  1  0  0  0  0
 21 22  1  0  0  0  0
 21 38  1  0  0  0  0
 21 39  1  0  0  0  0
 22 23  2  0  0  0  0
 22 31  1  0  0  0  0
 23 24  1  0  0  0  0
 23 37  1  0  0  0  0
 24 25  2  0  0  0  0
 25 26  1  0  0  0  0
 25 36  1  0  0  0  0
 26 27  2  0  0  0  0
 26 31  1  0  0  0  0
 27 28  1  0  0  0  0
 27 35  1  0  0  0  0
 28 29  2  0  0  0  0
 28 34  1  0  0  0  0
 29 30  1  0  0  0  0
 29 33  1  0  0  0  0
 30 31  2  0  0  0  0
 30 32  1  0  0  0  0
M  END
>  <MODEL>
       1

$$$$
