tmp_first_model_1_68.pdb
 OpenBabel08272517043D

 65 70  0  0  1  0  0  0  0  0999 V2000
   -8.7740    0.2320  -20.7230 O   0  0  0  0  0  0  0  0  0  0  0  0
   -8.1420   -0.2060  -21.6650 C   0  0  0  0  0  0  0  0  0  0  0  0
   -7.2500   -1.4050  -21.3660 C   0  0  0  0  0  0  0  0  0  0  0  0
   -6.3630   -0.9620  -20.2390 C   0  0  0  0  0  0  0  0  0  0  0  0
   -6.7310   -1.1840  -18.9400 C   0  0  0  0  0  0  0  0  0  0  0  0
   -6.1330   -0.6320  -17.8580 N   0  0  0  0  0  0  0  0  0  0  0  0
   -5.1280    0.1850  -18.0770 C   0  0  0  0  0  0  0  0  0  0  0  0
   -4.6290    0.4970  -19.3720 C   0  0  0  0  0  0  0  0  0  0  0  0
   -3.5550    1.4020  -19.5750 C   0  0  0  0  0  0  0  0  0  0  0  0
   -3.1310    1.7190  -20.8390 C   0  0  0  0  0  0  0  0  0  0  0  0
   -3.7750    1.1550  -21.9610 C   0  0  0  0  0  0  0  0  0  0  0  0
   -4.8190    0.2780  -21.7910 C   0  0  0  0  0  0  0  0  0  0  0  0
   -5.2720   -0.0820  -20.4930 C   0  0  0  0  0  0  0  0  0  0  0  0
   -5.3010   -0.1280  -22.6750 H   0  0  0  0  0  0  0  0  0  0  0  0
   -3.4520    1.4240  -22.9650 H   0  0  0  0  0  0  0  0  0  0  0  0
   -2.3060    2.4090  -20.9890 H   0  0  0  0  0  0  0  0  0  0  0  0
   -3.0800    1.8370  -18.7000 H   0  0  0  0  0  0  0  0  0  0  0  0
   -4.6620    0.6570  -17.2070 H   0  0  0  0  0  0  0  0  0  0  0  0
   -7.6020   -1.8050  -18.7280 H   0  0  0  0  0  0  0  0  0  0  0  0
   -6.6680   -1.7370  -22.2220 H   0  0  0  0  0  0  0  0  0  0  0  0
   -7.9200   -2.2070  -21.0280 H   0  0  0  0  0  0  0  0  0  0  0  0
   -8.1390    0.3860  -22.9080 N   0  0  0  0  0  0  0  0  0  0  0  0
   -7.8760   -0.3810  -24.1230 C   0  0  0  0  0  0  0  0  0  0  0  0
   -9.0420   -1.2430  -24.5470 C   0  0  0  0  0  0  0  0  0  0  0  0
   -9.9850   -0.7830  -25.4600 C   0  0  0  0  0  0  0  0  0  0  0  0
  -11.0860   -1.5680  -25.7780 C   0  0  0  0  0  0  0  0  0  0  0  0
  -11.2510   -2.8250  -25.2070 C   0  0  0  0  0  0  0  0  0  0  0  0
  -10.2970   -3.2840  -24.3120 C   0  0  0  0  0  0  0  0  0  0  0  0
  -10.4810   -4.8670  -23.6010 Cl  0  0  0  0  0  0  0  0  0  0  0  0
   -9.2020   -2.5050  -23.9690 C   0  0  0  0  0  0  0  0  0  0  0  0
   -8.4750   -2.8980  -23.2640 H   0  0  0  0  0  0  0  0  0  0  0  0
  -12.1180   -3.4360  -25.4300 H   0  0  0  0  0  0  0  0  0  0  0  0
  -11.8210   -1.2080  -26.4910 H   0  0  0  0  0  0  0  0  0  0  0  0
   -9.8520    0.1820  -25.9510 H   0  0  0  0  0  0  0  0  0  0  0  0
   -7.6030    0.3090  -24.9210 H   0  0  0  0  0  0  0  0  0  0  0  0
   -7.0110   -1.0240  -23.9540 H   0  0  0  0  0  0  0  0  0  0  0  0
   -8.5150    1.8000  -22.9630 C   0  0  2  0  0  0  0  0  0  0  0  0
  -10.0210    2.1520  -22.9580 C   0  0  0  0  0  0  0  0  0  0  0  0
  -10.0340    3.6330  -23.4350 C   0  0  0  0  0  0  0  0  0  0  0  0
   -8.5540    3.9200  -23.7020 C   0  0  2  0  0  0  0  0  0  0  0  0
   -8.0350    2.5770  -24.1940 C   0  0  0  0  0  0  0  0  0  0  0  0
   -6.9480    2.5200  -24.3220 H   0  0  0  0  0  0  0  0  0  0  0  0
   -8.5440    2.2590  -25.1090 H   0  0  0  0  0  0  0  0  0  0  0  0
   -7.8920    4.0510  -22.3110 N   0  3  2  0  0  0  0  0  0  0  0  0
   -6.5570    4.7180  -22.2920 C   0  0  0  0  0  0  0  0  0  0  0  0
   -6.6860    6.2370  -22.3040 C   0  0  0  0  0  0  0  0  0  0  0  0
   -6.7150    6.8960  -20.9130 C   0  0  0  0  0  0  0  0  0  0  0  0
   -5.3570    7.3390  -21.0440 O   0  0  0  0  0  0  0  0  0  0  0  0
   -5.3370    6.9550  -22.4270 C   0  0  0  0  0  0  0  0  0  0  0  0
   -4.4770    6.3180  -22.6680 H   0  0  0  0  0  0  0  0  0  0  0  0
   -5.3360    7.8290  -23.0940 H   0  0  0  0  0  0  0  0  0  0  0  0
   -7.3980    7.7470  -20.8050 H   0  0  0  0  0  0  0  0  0  0  0  0
   -6.8440    6.2110  -20.0660 H   0  0  0  0  0  0  0  0  0  0  0  0
   -7.4770    6.5520  -22.9910 H   0  0  0  0  0  0  0  0  0  0  0  0
   -5.9600    4.3760  -23.1510 H   0  0  0  0  0  0  0  0  0  0  0  0
   -6.0150    4.4120  -21.3860 H   0  0  0  0  0  0  0  0  0  0  0  0
   -7.8720    2.6240  -21.8210 C   0  0  0  0  0  0  0  0  0  0  0  0
   -8.4360    2.5520  -20.8950 H   0  0  0  0  0  0  0  0  0  0  0  0
   -6.8440    2.3090  -21.6330 H   0  0  0  0  0  0  0  0  0  0  0  0
   -8.5100    4.6030  -21.6880 H   0  0  0  0  0  0  0  0  0  0  0  0
   -8.3440    4.7900  -24.3160 H   0  0  0  0  0  0  0  0  0  0  0  0
  -10.6530    3.7750  -24.3280 H   0  0  0  0  0  0  0  0  0  0  0  0
  -10.4100    4.3150  -22.6650 H   0  0  0  0  0  0  0  0  0  0  0  0
  -10.5550    1.5050  -23.6590 H   0  0  0  0  0  0  0  0  0  0  0  0
  -10.4530    2.0530  -21.9630 H   0  0  0  0  0  0  0  0  0  0  0  0
  1  2  2  0  0  0  0
  2  3  1  0  0  0  0
  2 22  1  0  0  0  0
  3  4  1  0  0  0  0
  3 20  1  0  0  0  0
  3 21  1  0  0  0  0
  4  5  2  0  0  0  0
  4 13  1  0  0  0  0
  5  6  1  0  0  0  0
  5 19  1  0  0  0  0
  6  7  2  0  0  0  0
  7  8  1  0  0  0  0
  7 18  1  0  0  0  0
  8  9  2  0  0  0  0
  8 13  1  0  0  0  0
  9 10  1  0  0  0  0
  9 17  1  0  0  0  0
 10 11  2  0  0  0  0
 10 16  1  0  0  0  0
 11 12  1  0  0  0  0
 11 15  1  0  0  0  0
 12 13  2  0  0  0  0
 12 14  1  0  0  0  0
 22 23  1  0  0  0  0
 23 24  1  0  0  0  0
 23 35  1  0  0  0  0
 23 36  1  0  0  0  0
 24 25  2  0  0  0  0
 24 30  1  0  0  0  0
 25 26  1  0  0  0  0
 25 34  1  0  0  0  0
 26 27  2  0  0  0  0
 26 33  1  0  0  0  0
 27 28  1  0  0  0  0
 27 32  1  0  0  0  0
 28 29  1  0  0  0  0
 28 30  2  0  0  0  0
 30 31  1  0  0  0  0
 37 22  1  1  0  0  0
 37 38  1  0  0  0  0
 37 41  1  0  0  0  0
 37 57  1  0  0  0  0
 38 39  1  0  0  0  0
 38 64  1  0  0  0  0
 38 65  1  0  0  0  0
 39 40  1  0  0  0  0
 39 62  1  0  0  0  0
 39 63  1  0  0  0  0
 40 41  1  0  0  0  0
 40 44  1  0  0  0  0
 40 61  1  6  0  0  0
 41 42  1  0  0  0  0
 41 43  1  0  0  0  0
 44 45  1  0  0  0  0
 44 57  1  0  0  0  0
 44 60  1  1  0  0  0
 45 46  1  0  0  0  0
 45 55  1  0  0  0  0
 45 56  1  0  0  0  0
 46 47  1  0  0  0  0
 46 49  1  0  0  0  0
 46 54  1  0  0  0  0
 47 48  1  0  0  0  0
 47 52  1  0  0  0  0
 47 53  1  0  0  0  0
 48 49  1  0  0  0  0
 49 50  1  0  0  0  0
 49 51  1  0  0  0  0
 57 58  1  0  0  0  0
 57 59  1  0  0  0  0
M  CHG  1  44   1
M  END
>  <MODEL>
       1

$$$$
