tmp_first_model_14_28.pdb
 OpenBabel08282500413D

 64 68  0  0  1  0  0  0  0  0999 V2000
   -7.4850    3.1230  -21.8490 C   0  0  0  0  0  0  0  0  0  0  0  0
   -8.6240    2.5710  -22.5580 N   0  0  0  0  0  0  0  0  0  0  0  0
   -8.3810    1.7560  -23.6250 C   0  0  0  0  0  0  0  0  0  0  0  0
   -7.2510    1.4320  -23.9620 O   0  0  0  0  0  0  0  0  0  0  0  0
   -9.6020    1.2670  -24.3950 C   0  0  0  0  0  0  0  0  0  0  0  0
  -10.0630   -0.0040  -23.8840 N   0  0  0  0  0  0  0  0  0  0  0  0
   -9.1980   -1.1750  -23.9120 C   0  0  0  0  0  0  0  0  0  0  0  0
   -9.2960   -1.9420  -22.5650 C   0  0  2  0  0  0  0  0  0  0  0  0
   -8.7050   -1.0190  -21.4610 C   0  0  0  0  0  0  0  0  0  0  0  0
   -9.2340   -0.0510  -20.9570 O   0  0  0  0  0  0  0  0  0  0  0  0
   -7.4130   -1.4360  -21.1890 N   0  0  0  0  0  0  0  0  0  0  0  0
   -6.6240   -0.8230  -20.1860 C   0  0  0  0  0  0  0  0  0  0  0  0
   -6.9550   -1.0030  -18.8650 C   0  0  0  0  0  0  0  0  0  0  0  0
   -6.2610   -0.4800  -17.8310 N   0  0  0  0  0  0  0  0  0  0  0  0
   -5.2000    0.2340  -18.1100 C   0  0  0  0  0  0  0  0  0  0  0  0
   -4.7530    0.5150  -19.4290 C   0  0  0  0  0  0  0  0  0  0  0  0
   -3.6250    1.3430  -19.6680 C   0  0  0  0  0  0  0  0  0  0  0  0
   -3.2480    1.6460  -20.9470 C   0  0  0  0  0  0  0  0  0  0  0  0
   -3.9830    1.1360  -22.0390 C   0  0  0  0  0  0  0  0  0  0  0  0
   -5.0800    0.3280  -21.8340 C   0  0  0  0  0  0  0  0  0  0  0  0
   -5.4860   -0.0200  -20.5160 C   0  0  0  0  0  0  0  0  0  0  0  0
   -5.6730    0.0170  -22.6890 H   0  0  0  0  0  0  0  0  0  0  0  0
   -3.6890    1.3990  -23.0510 H   0  0  0  0  0  0  0  0  0  0  0  0
   -2.3970    2.2970  -21.1260 H   0  0  0  0  0  0  0  0  0  0  0  0
   -3.0910    1.7430  -18.8110 H   0  0  0  0  0  0  0  0  0  0  0  0
   -4.6410    0.6430  -17.2690 H   0  0  0  0  0  0  0  0  0  0  0  0
   -7.8200   -1.6100  -18.6080 H   0  0  0  0  0  0  0  0  0  0  0  0
   -6.9830   -2.5760  -21.9730 C   0  0  0  0  0  0  0  0  0  0  0  0
   -8.3220   -3.1490  -22.4790 C   0  0  2  0  0  0  0  0  0  0  0  0
   -8.1950   -3.9750  -23.7560 C   0  0  0  0  0  0  0  0  0  0  0  0
   -7.3680   -5.5200  -23.4410 S   0  0  0  0  0  0  0  0  0  0  0  0
   -8.1710   -6.2930  -22.5000 O   0  0  0  0  0  0  0  0  0  0  0  0
   -5.9690   -5.2710  -23.1300 O   0  0  0  0  0  0  0  0  0  0  0  0
   -7.3740   -6.1770  -24.9730 N   0  0  0  0  0  0  0  0  0  0  0  0
   -8.5990   -6.7700  -25.5010 C   0  0  0  0  0  0  0  0  0  0  0  0
   -9.1000   -7.4360  -24.7860 H   0  0  0  0  0  0  0  0  0  0  0  0
   -8.3190   -7.3360  -26.3910 H   0  0  0  0  0  0  0  0  0  0  0  0
   -9.2950   -5.9880  -25.8280 H   0  0  0  0  0  0  0  0  0  0  0  0
   -6.5330   -6.7330  -25.0820 H   0  0  0  0  0  0  0  0  0  0  0  0
   -9.1850   -4.2210  -24.1490 H   0  0  0  0  0  0  0  0  0  0  0  0
   -7.6220   -3.4580  -24.5330 H   0  0  0  0  0  0  0  0  0  0  0  0
   -8.6850   -3.8160  -21.6920 H   0  0  0  0  0  0  0  0  0  0  0  0
   -6.3280   -2.2730  -22.8060 H   0  0  0  0  0  0  0  0  0  0  0  0
   -6.4320   -3.3030  -21.3690 H   0  0  0  0  0  0  0  0  0  0  0  0
  -10.7750   -2.2510  -22.3500 C   0  0  0  0  0  0  0  0  0  0  0  0
  -11.2380   -3.3450  -21.6070 C   0  0  0  0  0  0  0  0  0  0  0  0
  -12.5740   -3.4090  -21.2350 C   0  0  0  0  0  0  0  0  0  0  0  0
  -13.0990   -4.4930  -19.9860 Cl  0  0  0  0  0  0  0  0  0  0  0  0
  -13.5310   -2.5310  -21.7300 C   0  0  0  0  0  0  0  0  0  0  0  0
  -13.1000   -1.4980  -22.5260 C   0  0  0  0  0  0  0  0  0  0  0  0
  -11.7440   -1.3350  -22.7870 C   0  0  0  0  0  0  0  0  0  0  0  0
  -11.3670   -0.0880  -23.5020 C   0  0  0  0  0  0  0  0  0  0  0  0
  -12.1860    0.8040  -23.7090 O   0  0  0  0  0  0  0  0  0  0  0  0
  -13.7890   -0.7670  -22.9290 H   0  0  0  0  0  0  0  0  0  0  0  0
  -14.5710   -2.6370  -21.4410 H   0  0  0  0  0  0  0  0  0  0  0  0
  -10.5670   -4.1170  -21.2510 H   0  0  0  0  0  0  0  0  0  0  0  0
   -8.1750   -0.8330  -24.0940 H   0  0  0  0  0  0  0  0  0  0  0  0
   -9.4990   -1.8380  -24.7360 H   0  0  0  0  0  0  0  0  0  0  0  0
  -10.4290    1.9650  -24.2550 H   0  0  0  0  0  0  0  0  0  0  0  0
   -9.3700    1.1850  -25.4680 H   0  0  0  0  0  0  0  0  0  0  0  0
   -9.4890    2.4780  -22.0380 H   0  0  0  0  0  0  0  0  0  0  0  0
   -6.8820    2.3310  -21.3960 H   0  0  0  0  0  0  0  0  0  0  0  0
   -7.8270    3.7900  -21.0620 H   0  0  0  0  0  0  0  0  0  0  0  0
   -6.8540    3.7060  -22.5240 H   0  0  0  0  0  0  0  0  0  0  0  0
  1  2  1  0  0  0  0
  1 62  1  0  0  0  0
  1 63  1  0  0  0  0
  1 64  1  0  0  0  0
  2  3  1  0  0  0  0
  2 61  1  0  0  0  0
  3  4  2  0  0  0  0
  3  5  1  0  0  0  0
  5  6  1  0  0  0  0
  5 59  1  0  0  0  0
  5 60  1  0  0  0  0
  6  7  1  0  0  0  0
  6 52  1  0  0  0  0
  7  8  1  0  0  0  0
  7 57  1  0  0  0  0
  7 58  1  0  0  0  0
  8  9  1  1  0  0  0
  8 29  1  0  0  0  0
  8 45  1  0  0  0  0
  9 10  2  0  0  0  0
  9 11  1  0  0  0  0
 11 12  1  0  0  0  0
 11 28  1  0  0  0  0
 12 13  2  0  0  0  0
 12 21  1  0  0  0  0
 13 14  1  0  0  0  0
 13 27  1  0  0  0  0
 14 15  2  0  0  0  0
 15 16  1  0  0  0  0
 15 26  1  0  0  0  0
 16 17  2  0  0  0  0
 16 21  1  0  0  0  0
 17 18  1  0  0  0  0
 17 25  1  0  0  0  0
 18 19  2  0  0  0  0
 18 24  1  0  0  0  0
 19 20  1  0  0  0  0
 19 23  1  0  0  0  0
 20 21  2  0  0  0  0
 20 22  1  0  0  0  0
 28 29  1  0  0  0  0
 28 43  1  0  0  0  0
 28 44  1  0  0  0  0
 29 30  1  0  0  0  0
 29 42  1  1  0  0  0
 30 31  1  0  0  0  0
 30 40  1  0  0  0  0
 30 41  1  0  0  0  0
 31 32  2  0  0  0  0
 31 33  2  0  0  0  0
 31 34  1  0  0  0  0
 34 35  1  0  0  0  0
 34 39  1  0  0  0  0
 35 36  1  0  0  0  0
 35 37  1  0  0  0  0
 35 38  1  0  0  0  0
 45 46  2  0  0  0  0
 45 51  1  0  0  0  0
 46 47  1  0  0  0  0
 46 56  1  0  0  0  0
 47 48  1  0  0  0  0
 47 49  2  0  0  0  0
 49 50  1  0  0  0  0
 49 55  1  0  0  0  0
 50 51  2  0  0  0  0
 50 54  1  0  0  0  0
 51 52  1  0  0  0  0
 52 53  2  0  0  0  0
M  END
>  <MODEL>
       1

$$$$
