tmp_first_model_15_86.pdb
 OpenBabel08282501153D

 43 45  0  0  1  0  0  0  0  0999 V2000
   -8.9380   -6.1070  -25.1870 C   0  0  0  0  0  0  0  0  0  0  0  0
   -8.3040   -4.9940  -24.3610 C   0  0  1  0  0  0  0  0  0  0  0  0
   -6.7980   -5.2160  -24.1710 C   0  0  0  0  0  0  0  0  0  0  0  0
   -6.0430   -3.9020  -23.9490 C   0  0  0  0  0  0  0  0  0  0  0  0
   -6.8740   -2.8960  -23.2900 N   0  0  0  0  0  0  0  0  0  0  0  0
   -6.6770   -2.6570  -21.9490 C   0  0  0  0  0  0  0  0  0  0  0  0
   -5.9210   -3.3470  -21.2830 O   0  0  0  0  0  0  0  0  0  0  0  0
   -7.3990   -1.4620  -21.2810 C   0  0  0  0  0  0  0  0  0  0  0  0
   -6.5790   -0.8270  -20.1790 C   0  0  0  0  0  0  0  0  0  0  0  0
   -6.8730   -1.0460  -18.8590 C   0  0  0  0  0  0  0  0  0  0  0  0
   -6.1890   -0.5420  -17.7930 N   0  0  0  0  0  0  0  0  0  0  0  0
   -5.1590    0.2230  -18.0620 C   0  0  0  0  0  0  0  0  0  0  0  0
   -4.7210    0.5330  -19.3790 C   0  0  0  0  0  0  0  0  0  0  0  0
   -3.5930    1.3590  -19.6220 C   0  0  0  0  0  0  0  0  0  0  0  0
   -3.1940    1.6380  -20.9000 C   0  0  0  0  0  0  0  0  0  0  0  0
   -3.9090    1.0970  -21.9930 C   0  0  0  0  0  0  0  0  0  0  0  0
   -5.0040    0.2960  -21.7850 C   0  0  0  0  0  0  0  0  0  0  0  0
   -5.4480   -0.0060  -20.4720 C   0  0  0  0  0  0  0  0  0  0  0  0
   -5.5350   -0.1130  -22.6400 H   0  0  0  0  0  0  0  0  0  0  0  0
   -3.5870    1.3230  -23.0050 H   0  0  0  0  0  0  0  0  0  0  0  0
   -2.3330    2.2760  -21.0880 H   0  0  0  0  0  0  0  0  0  0  0  0
   -3.0560    1.7750  -18.7710 H   0  0  0  0  0  0  0  0  0  0  0  0
   -4.6010    0.6290  -17.2150 H   0  0  0  0  0  0  0  0  0  0  0  0
   -7.7210   -1.6720  -18.5860 H   0  0  0  0  0  0  0  0  0  0  0  0
   -8.3260   -1.8520  -20.8420 H   0  0  0  0  0  0  0  0  0  0  0  0
   -7.6990   -0.7000  -22.0130 H   0  0  0  0  0  0  0  0  0  0  0  0
   -8.0520   -2.4740  -24.0560 C   0  0  1  0  0  0  0  0  0  0  0  0
   -7.7720   -1.2210  -24.8790 C   0  0  0  0  0  0  0  0  0  0  0  0
   -7.4500   -0.3890  -24.2460 H   0  0  0  0  0  0  0  0  0  0  0  0
   -8.6660   -0.8960  -25.4220 H   0  0  0  0  0  0  0  0  0  0  0  0
   -6.9790   -1.4070  -25.6100 H   0  0  0  0  0  0  0  0  0  0  0  0
   -8.5570   -3.6170  -24.9590 C   0  0  0  0  0  0  0  0  0  0  0  0
   -9.6290   -3.4800  -25.1380 H   0  0  0  0  0  0  0  0  0  0  0  0
   -8.0980   -3.5580  -25.9520 H   0  0  0  0  0  0  0  0  0  0  0  0
   -8.8440   -2.2570  -23.3340 H   0  0  0  0  0  0  0  0  0  0  0  0
   -5.1440   -4.0640  -23.3580 H   0  0  0  0  0  0  0  0  0  0  0  0
   -5.7180   -3.5030  -24.9160 H   0  0  0  0  0  0  0  0  0  0  0  0
   -6.3780   -5.7270  -25.0460 H   0  0  0  0  0  0  0  0  0  0  0  0
   -6.6320   -5.8870  -23.3240 H   0  0  0  0  0  0  0  0  0  0  0  0
   -8.7700   -5.0080  -23.3710 H   0  0  0  0  0  0  0  0  0  0  0  0
  -10.0230   -5.9840  -25.2640 H   0  0  0  0  0  0  0  0  0  0  0  0
   -8.7450   -7.0910  -24.7470 H   0  0  0  0  0  0  0  0  0  0  0  0
   -8.5380   -6.1200  -26.2060 H   0  0  0  0  0  0  0  0  0  0  0  0
  1  2  1  0  0  0  0
  1 41  1  0  0  0  0
  1 42  1  0  0  0  0
  1 43  1  0  0  0  0
  2  3  1  0  0  0  0
  2 32  1  0  0  0  0
  2 40  1  1  0  0  0
  3  4  1  0  0  0  0
  3 38  1  0  0  0  0
  3 39  1  0  0  0  0
  4  5  1  0  0  0  0
  4 36  1  0  0  0  0
  4 37  1  0  0  0  0
  5  6  1  0  0  0  0
  5 27  1  0  0  0  0
  6  7  2  0  0  0  0
  6  8  1  0  0  0  0
  8  9  1  0  0  0  0
  8 25  1  0  0  0  0
  8 26  1  0  0  0  0
  9 10  2  0  0  0  0
  9 18  1  0  0  0  0
 10 11  1  0  0  0  0
 10 24  1  0  0  0  0
 11 12  2  0  0  0  0
 12 13  1  0  0  0  0
 12 23  1  0  0  0  0
 13 14  2  0  0  0  0
 13 18  1  0  0  0  0
 14 15  1  0  0  0  0
 14 22  1  0  0  0  0
 15 16  2  0  0  0  0
 15 21  1  0  0  0  0
 16 17  1  0  0  0  0
 16 20  1  0  0  0  0
 17 18  2  0  0  0  0
 17 19  1  0  0  0  0
 27 28  1  0  0  0  0
 27 32  1  0  0  0  0
 27 35  1  1  0  0  0
 28 29  1  0  0  0  0
 28 30  1  0  0  0  0
 28 31  1  0  0  0  0
 32 33  1  0  0  0  0
 32 34  1  0  0  0  0
M  END
>  <MODEL>
       1

$$$$
