tmp_first_model_20_87.pdb
 OpenBabel08282503553D

 59 64  0  0  1  0  0  0  0  0999 V2000
   -7.8690   -3.6830  -24.0560 C   0  0  0  0  0  0  0  0  0  0  0  0
   -8.2700   -2.8880  -22.8070 C   0  0  1  0  0  0  0  0  0  0  0  0
   -7.0700   -2.6410  -21.8670 C   0  0  0  0  0  0  0  0  0  0  0  0
   -7.3980   -1.3980  -21.1990 N   0  0  0  0  0  0  0  0  0  0  0  0
   -6.6020   -0.8160  -20.1740 C   0  0  0  0  0  0  0  0  0  0  0  0
   -6.9080   -1.0440  -18.8580 C   0  0  0  0  0  0  0  0  0  0  0  0
   -6.2060   -0.5450  -17.8080 N   0  0  0  0  0  0  0  0  0  0  0  0
   -5.1670    0.2060  -18.0790 C   0  0  0  0  0  0  0  0  0  0  0  0
   -4.7310    0.5250  -19.3970 C   0  0  0  0  0  0  0  0  0  0  0  0
   -3.6020    1.3560  -19.6390 C   0  0  0  0  0  0  0  0  0  0  0  0
   -3.2110    1.6430  -20.9160 C   0  0  0  0  0  0  0  0  0  0  0  0
   -3.9260    1.1060  -22.0130 C   0  0  0  0  0  0  0  0  0  0  0  0
   -5.0220    0.3030  -21.8040 C   0  0  0  0  0  0  0  0  0  0  0  0
   -5.4620   -0.0050  -20.4860 C   0  0  0  0  0  0  0  0  0  0  0  0
   -5.5710   -0.0830  -22.6580 H   0  0  0  0  0  0  0  0  0  0  0  0
   -3.6160    1.3460  -23.0230 H   0  0  0  0  0  0  0  0  0  0  0  0
   -2.3610    2.2930  -21.1020 H   0  0  0  0  0  0  0  0  0  0  0  0
   -3.0680    1.7640  -18.7840 H   0  0  0  0  0  0  0  0  0  0  0  0
   -4.6170    0.6110  -17.2280 H   0  0  0  0  0  0  0  0  0  0  0  0
   -7.7580   -1.6690  -18.5980 H   0  0  0  0  0  0  0  0  0  0  0  0
   -8.4260   -0.6950  -21.7880 C   0  0  0  0  0  0  0  0  0  0  0  0
   -8.8590    0.3530  -21.3570 O   0  0  0  0  0  0  0  0  0  0  0  0
   -8.9240   -1.4820  -23.0310 C   0  0  1  0  0  0  0  0  0  0  0  0
   -8.4080   -0.8380  -24.3450 C   0  0  0  0  0  0  0  0  0  0  0  0
   -9.0500    0.4280  -24.6380 N   0  0  0  0  0  0  0  0  0  0  0  0
   -8.2950    1.5130  -25.2450 C   0  0  0  0  0  0  0  0  0  0  0  0
   -8.1800    2.7200  -24.3550 C   0  0  0  0  0  0  0  0  0  0  0  0
   -7.5950    2.8430  -23.1110 C   0  0  0  0  0  0  0  0  0  0  0  0
   -7.8170    4.1870  -22.7380 C   0  0  0  0  0  0  0  0  0  0  0  0
   -8.4520    4.8480  -23.6960 N   0  0  0  0  0  0  0  0  0  0  0  0
   -8.6540    3.9510  -24.6680 N   0  0  0  0  0  0  0  0  0  0  0  0
   -9.3000    4.3870  -25.8900 C   0  0  0  0  0  0  0  0  0  0  0  0
  -10.1990    3.7870  -26.0570 H   0  0  0  0  0  0  0  0  0  0  0  0
   -8.6090    4.2960  -26.7390 H   0  0  0  0  0  0  0  0  0  0  0  0
   -9.5470    5.4400  -25.7330 H   0  0  0  0  0  0  0  0  0  0  0  0
   -7.5890    4.7230  -21.8220 H   0  0  0  0  0  0  0  0  0  0  0  0
   -7.0990    2.0460  -22.5710 H   0  0  0  0  0  0  0  0  0  0  0  0
   -8.7400    1.7730  -26.2140 H   0  0  0  0  0  0  0  0  0  0  0  0
   -7.2900    1.1260  -25.4300 H   0  0  0  0  0  0  0  0  0  0  0  0
  -10.4040    0.5690  -24.5720 C   0  0  0  0  0  0  0  0  0  0  0  0
  -10.9790    1.5250  -25.0830 O   0  0  0  0  0  0  0  0  0  0  0  0
  -11.1380   -0.4940  -23.8080 C   0  0  0  0  0  0  0  0  0  0  0  0
  -12.5340   -0.4590  -23.8030 C   0  0  0  0  0  0  0  0  0  0  0  0
  -13.2560   -1.3250  -23.0050 C   0  0  0  0  0  0  0  0  0  0  0  0
  -12.5550   -2.2020  -22.1860 C   0  0  0  0  0  0  0  0  0  0  0  0
  -13.2490   -3.0060  -21.3630 F   0  0  0  0  0  0  0  0  0  0  0  0
  -11.1780   -2.2690  -22.1800 C   0  0  0  0  0  0  0  0  0  0  0  0
  -10.4440   -1.4500  -23.0470 C   0  0  0  0  0  0  0  0  0  0  0  0
  -10.7090   -2.9420  -21.4700 H   0  0  0  0  0  0  0  0  0  0  0  0
  -14.3380   -1.3190  -22.9740 H   0  0  0  0  0  0  0  0  0  0  0  0
  -13.0250    0.2830  -24.4230 H   0  0  0  0  0  0  0  0  0  0  0  0
   -8.5760   -1.5460  -25.1730 H   0  0  0  0  0  0  0  0  0  0  0  0
   -7.3300   -0.6630  -24.2430 H   0  0  0  0  0  0  0  0  0  0  0  0
   -6.1300   -2.5560  -22.4350 H   0  0  0  0  0  0  0  0  0  0  0  0
   -6.9350   -3.4440  -21.1320 H   0  0  0  0  0  0  0  0  0  0  0  0
   -9.0070   -3.4760  -22.2540 H   0  0  0  0  0  0  0  0  0  0  0  0
   -8.7120   -3.8230  -24.7440 H   0  0  0  0  0  0  0  0  0  0  0  0
   -7.0690   -3.1760  -24.6100 H   0  0  0  0  0  0  0  0  0  0  0  0
   -7.4940   -4.6760  -23.7820 H   0  0  0  0  0  0  0  0  0  0  0  0
  1  2  1  0  0  0  0
  1 57  1  0  0  0  0
  1 58  1  0  0  0  0
  1 59  1  0  0  0  0
  2  3  1  0  0  0  0
  2 23  1  0  0  0  0
  2 56  1  1  0  0  0
  3  4  1  0  0  0  0
  3 54  1  0  0  0  0
  3 55  1  0  0  0  0
  4  5  1  0  0  0  0
  4 21  1  0  0  0  0
  5  6  2  0  0  0  0
  5 14  1  0  0  0  0
  6  7  1  0  0  0  0
  6 20  1  0  0  0  0
  7  8  2  0  0  0  0
  8  9  1  0  0  0  0
  8 19  1  0  0  0  0
  9 10  2  0  0  0  0
  9 14  1  0  0  0  0
 10 11  1  0  0  0  0
 10 18  1  0  0  0  0
 11 12  2  0  0  0  0
 11 17  1  0  0  0  0
 12 13  1  0  0  0  0
 12 16  1  0  0  0  0
 13 14  2  0  0  0  0
 13 15  1  0  0  0  0
 21 22  2  0  0  0  0
 23 21  1  1  0  0  0
 23 24  1  0  0  0  0
 23 48  1  0  0  0  0
 24 25  1  0  0  0  0
 24 52  1  0  0  0  0
 24 53  1  0  0  0  0
 25 26  1  0  0  0  0
 25 40  1  0  0  0  0
 26 27  1  0  0  0  0
 26 38  1  0  0  0  0
 26 39  1  0  0  0  0
 27 28  2  0  0  0  0
 27 31  1  0  0  0  0
 28 29  1  0  0  0  0
 28 37  1  0  0  0  0
 29 30  2  0  0  0  0
 29 36  1  0  0  0  0
 30 31  1  0  0  0  0
 31 32  1  0  0  0  0
 32 33  1  0  0  0  0
 32 34  1  0  0  0  0
 32 35  1  0  0  0  0
 40 41  2  0  0  0  0
 40 42  1  0  0  0  0
 42 43  2  0  0  0  0
 42 48  1  0  0  0  0
 43 44  1  0  0  0  0
 43 51  1  0  0  0  0
 44 45  2  0  0  0  0
 44 50  1  0  0  0  0
 45 46  1  0  0  0  0
 45 47  1  0  0  0  0
 47 48  2  0  0  0  0
 47 49  1  0  0  0  0
M  END
>  <MODEL>
       1

$$$$
