tmp_first_model_9_55.pdb
 OpenBabel08272521403D

 61 66  0  0  1  0  0  0  0  0999 V2000
   -9.1410   -4.6280  -25.8230 C   0  0  0  0  0  0  0  0  0  0  0  0
   -9.3230   -4.0080  -24.5700 O   0  0  0  0  0  0  0  0  0  0  0  0
   -8.1030   -3.6480  -23.9720 C   0  0  0  0  0  0  0  0  0  0  0  0
   -8.3710   -2.9240  -22.6600 C   0  0  1  0  0  0  0  0  0  0  0  0
   -7.0620   -2.5310  -21.9610 C   0  0  0  0  0  0  0  0  0  0  0  0
   -7.4150   -1.3490  -21.2030 N   0  0  0  0  0  0  0  0  0  0  0  0
   -6.6090   -0.7990  -20.1760 C   0  0  0  0  0  0  0  0  0  0  0  0
   -6.9140   -1.0400  -18.8590 C   0  0  0  0  0  0  0  0  0  0  0  0
   -6.2060   -0.5510  -17.8140 N   0  0  0  0  0  0  0  0  0  0  0  0
   -5.1770    0.2130  -18.0840 C   0  0  0  0  0  0  0  0  0  0  0  0
   -4.7470    0.5370  -19.4020 C   0  0  0  0  0  0  0  0  0  0  0  0
   -3.6260    1.3740  -19.6420 C   0  0  0  0  0  0  0  0  0  0  0  0
   -3.2360    1.6600  -20.9220 C   0  0  0  0  0  0  0  0  0  0  0  0
   -3.9360    1.1150  -22.0190 C   0  0  0  0  0  0  0  0  0  0  0  0
   -5.0150    0.2860  -21.8090 C   0  0  0  0  0  0  0  0  0  0  0  0
   -5.4630   -0.0070  -20.4920 C   0  0  0  0  0  0  0  0  0  0  0  0
   -5.5640   -0.0970  -22.6630 H   0  0  0  0  0  0  0  0  0  0  0  0
   -3.6200    1.3660  -23.0300 H   0  0  0  0  0  0  0  0  0  0  0  0
   -2.3830    2.3080  -21.1010 H   0  0  0  0  0  0  0  0  0  0  0  0
   -3.0910    1.7730  -18.7860 H   0  0  0  0  0  0  0  0  0  0  0  0
   -4.6080    0.6110  -17.2420 H   0  0  0  0  0  0  0  0  0  0  0  0
   -7.7770   -1.6560  -18.6120 H   0  0  0  0  0  0  0  0  0  0  0  0
   -8.6400   -0.8110  -21.5330 C   0  0  0  0  0  0  0  0  0  0  0  0
   -9.1480    0.1450  -20.9870 O   0  0  0  0  0  0  0  0  0  0  0  0
   -9.2230   -1.6250  -22.7140 C   0  0  1  0  0  0  0  0  0  0  0  0
   -9.0030   -0.8620  -24.0390 C   0  0  0  0  0  0  0  0  0  0  0  0
   -9.8190    0.3350  -24.1170 N   0  0  0  0  0  0  0  0  0  0  0  0
   -9.1910    1.5540  -24.5980 C   0  0  0  0  0  0  0  0  0  0  0  0
   -8.3400    2.2290  -23.5610 C   0  0  0  0  0  0  0  0  0  0  0  0
   -6.9960    2.2810  -23.4100 C   0  0  0  0  0  0  0  0  0  0  0  0
   -6.7240    3.0270  -22.2890 N   0  3  0  0  0  0  0  0  0  0  0  0
   -7.8670    3.4430  -21.7550 C   0  0  0  0  0  0  0  0  0  0  0  0
   -8.8750    2.9600  -22.5060 N   0  0  0  0  0  0  0  0  0  0  0  0
   -9.8460    2.9470  -22.2200 H   0  0  0  0  0  0  0  0  0  0  0  0
   -7.9410    4.1060  -20.9030 H   0  0  0  0  0  0  0  0  0  0  0  0
   -5.8060    3.0570  -21.8620 H   0  0  0  0  0  0  0  0  0  0  0  0
   -6.1670    1.8510  -23.9560 H   0  0  0  0  0  0  0  0  0  0  0  0
   -8.5930    1.3000  -25.4860 H   0  0  0  0  0  0  0  0  0  0  0  0
  -10.0030    2.2120  -24.9190 H   0  0  0  0  0  0  0  0  0  0  0  0
  -11.1640    0.3000  -23.8710 C   0  0  0  0  0  0  0  0  0  0  0  0
  -11.9340    1.1840  -24.2250 O   0  0  0  0  0  0  0  0  0  0  0  0
  -11.6350   -0.9010  -23.1100 C   0  0  0  0  0  0  0  0  0  0  0  0
  -13.0090   -1.0360  -22.9120 C   0  0  0  0  0  0  0  0  0  0  0  0
  -13.4970   -2.0390  -22.0990 C   0  0  0  0  0  0  0  0  0  0  0  0
  -12.5880   -2.9020  -21.4920 C   0  0  0  0  0  0  0  0  0  0  0  0
  -13.1750   -4.0720  -20.3520 Cl  0  0  0  0  0  0  0  0  0  0  0  0
  -11.2290   -2.8180  -21.7290 C   0  0  0  0  0  0  0  0  0  0  0  0
  -10.7210   -1.8100  -22.5530 C   0  0  0  0  0  0  0  0  0  0  0  0
  -10.5760   -3.5280  -21.2330 H   0  0  0  0  0  0  0  0  0  0  0  0
  -14.5540   -2.1500  -21.8900 H   0  0  0  0  0  0  0  0  0  0  0  0
  -13.6710   -0.3180  -23.3850 H   0  0  0  0  0  0  0  0  0  0  0  0
   -9.2580   -1.5410  -24.8590 H   0  0  0  0  0  0  0  0  0  0  0  0
   -7.9520   -0.5700  -24.1450 H   0  0  0  0  0  0  0  0  0  0  0  0
   -6.2790   -2.3150  -22.7030 H   0  0  0  0  0  0  0  0  0  0  0  0
   -6.6970   -3.3220  -21.2970 H   0  0  0  0  0  0  0  0  0  0  0  0
   -8.8970   -3.6290  -22.0200 H   0  0  0  0  0  0  0  0  0  0  0  0
   -7.5140   -2.9990  -24.6440 H   0  0  0  0  0  0  0  0  0  0  0  0
   -7.4980   -4.5500  -23.7750 H   0  0  0  0  0  0  0  0  0  0  0  0
   -8.5140   -5.5310  -25.7470 H   0  0  0  0  0  0  0  0  0  0  0  0
  -10.1250   -4.9200  -26.1970 H   0  0  0  0  0  0  0  0  0  0  0  0
   -8.6810   -3.9420  -26.5530 H   0  0  0  0  0  0  0  0  0  0  0  0
  1  2  1  0  0  0  0
  1 59  1  0  0  0  0
  1 60  1  0  0  0  0
  1 61  1  0  0  0  0
  2  3  1  0  0  0  0
  3  4  1  0  0  0  0
  3 57  1  0  0  0  0
  3 58  1  0  0  0  0
  4  5  1  0  0  0  0
  4 25  1  0  0  0  0
  4 56  1  1  0  0  0
  5  6  1  0  0  0  0
  5 54  1  0  0  0  0
  5 55  1  0  0  0  0
  6  7  1  0  0  0  0
  6 23  1  0  0  0  0
  7  8  2  0  0  0  0
  7 16  1  0  0  0  0
  8  9  1  0  0  0  0
  8 22  1  0  0  0  0
  9 10  2  0  0  0  0
 10 11  1  0  0  0  0
 10 21  1  0  0  0  0
 11 12  2  0  0  0  0
 11 16  1  0  0  0  0
 12 13  1  0  0  0  0
 12 20  1  0  0  0  0
 13 14  2  0  0  0  0
 13 19  1  0  0  0  0
 14 15  1  0  0  0  0
 14 18  1  0  0  0  0
 15 16  2  0  0  0  0
 15 17  1  0  0  0  0
 23 24  2  0  0  0  0
 25 23  1  1  0  0  0
 25 26  1  0  0  0  0
 25 48  1  0  0  0  0
 26 27  1  0  0  0  0
 26 52  1  0  0  0  0
 26 53  1  0  0  0  0
 27 28  1  0  0  0  0
 27 40  1  0  0  0  0
 28 29  1  0  0  0  0
 28 38  1  0  0  0  0
 28 39  1  0  0  0  0
 29 30  2  0  0  0  0
 29 33  1  0  0  0  0
 30 31  1  0  0  0  0
 30 37  1  0  0  0  0
 31 32  2  0  0  0  0
 31 36  1  0  0  0  0
 32 33  1  0  0  0  0
 32 35  1  0  0  0  0
 33 34  1  0  0  0  0
 40 41  2  0  0  0  0
 40 42  1  0  0  0  0
 42 43  2  0  0  0  0
 42 48  1  0  0  0  0
 43 44  1  0  0  0  0
 43 51  1  0  0  0  0
 44 45  2  0  0  0  0
 44 50  1  0  0  0  0
 45 46  1  0  0  0  0
 45 47  1  0  0  0  0
 47 48  2  0  0  0  0
 47 49  1  0  0  0  0
M  CHG  1  31   1
M  END
>  <MODEL>
       1

$$$$
