tmp_first_model_1_34.pdb
 OpenBabel08272517043D

 66 70  0  0  1  0  0  0  0  0999 V2000
   -8.2520   -5.5010  -27.8100 C   0  0  0  0  0  0  0  0  0  0  0  0
   -8.3950   -4.0790  -27.5840 N   0  0  0  0  0  0  0  0  0  0  0  0
   -7.5540   -3.4240  -26.7350 C   0  0  0  0  0  0  0  0  0  0  0  0
   -6.5410   -3.9240  -26.2660 O   0  0  0  0  0  0  0  0  0  0  0  0
   -7.9550   -1.9690  -26.4360 C   0  0  0  0  0  0  0  0  0  0  0  0
   -8.4940   -1.7490  -25.1090 N   0  0  0  0  0  0  0  0  0  0  0  0
   -7.5670   -1.4750  -24.0210 C   0  0  0  0  0  0  0  0  0  0  0  0
   -8.2540   -2.0950  -22.7590 C   0  0  2  0  0  0  0  0  0  0  0  0
   -7.9900   -1.1860  -21.5550 C   0  0  0  0  0  0  0  0  0  0  0  0
   -8.6360   -0.2410  -21.1610 O   0  0  0  0  0  0  0  0  0  0  0  0
   -6.8060   -1.6440  -21.0010 N   0  0  0  0  0  0  0  0  0  0  0  0
   -6.1580   -0.9460  -19.9570 C   0  0  0  0  0  0  0  0  0  0  0  0
   -6.5760   -1.1340  -18.6680 C   0  0  0  0  0  0  0  0  0  0  0  0
   -6.0020   -0.5570  -17.5860 N   0  0  0  0  0  0  0  0  0  0  0  0
   -5.0030    0.2620  -17.8030 C   0  0  0  0  0  0  0  0  0  0  0  0
   -4.4770    0.5620  -19.0940 C   0  0  0  0  0  0  0  0  0  0  0  0
   -3.4080    1.4770  -19.2770 C   0  0  0  0  0  0  0  0  0  0  0  0
   -2.9270    1.7350  -20.5310 C   0  0  0  0  0  0  0  0  0  0  0  0
   -3.4890    1.0950  -21.6580 C   0  0  0  0  0  0  0  0  0  0  0  0
   -4.5340    0.2160  -21.5070 C   0  0  0  0  0  0  0  0  0  0  0  0
   -5.0570   -0.0700  -20.2160 C   0  0  0  0  0  0  0  0  0  0  0  0
   -4.9740   -0.2560  -22.3800 H   0  0  0  0  0  0  0  0  0  0  0  0
   -3.0980    1.3090  -22.6490 H   0  0  0  0  0  0  0  0  0  0  0  0
   -2.1170    2.4460  -20.6730 H   0  0  0  0  0  0  0  0  0  0  0  0
   -2.9990    1.9730  -18.4010 H   0  0  0  0  0  0  0  0  0  0  0  0
   -4.5510    0.7340  -16.9300 H   0  0  0  0  0  0  0  0  0  0  0  0
   -7.4170   -1.7970  -18.4760 H   0  0  0  0  0  0  0  0  0  0  0  0
   -6.3330   -2.9070  -21.5620 C   0  0  0  0  0  0  0  0  0  0  0  0
   -7.6020   -3.4170  -22.2500 C   0  0  2  0  0  0  0  0  0  0  0  0
   -7.4790   -4.5060  -23.2980 C   0  0  0  0  0  0  0  0  0  0  0  0
   -7.3140   -5.7400  -22.6340 O   0  0  0  0  0  0  0  0  0  0  0  0
   -7.1450   -6.8350  -23.5160 C   0  0  0  0  0  0  0  0  0  0  0  0
   -6.5280   -7.9440  -22.6760 C   0  0  0  0  0  0  0  0  0  0  0  0
   -5.7120   -7.5370  -22.0740 H   0  0  0  0  0  0  0  0  0  0  0  0
   -6.1300   -8.7510  -23.2950 H   0  0  0  0  0  0  0  0  0  0  0  0
   -7.2840   -8.3560  -22.0000 H   0  0  0  0  0  0  0  0  0  0  0  0
   -8.4700   -7.2680  -24.1520 C   0  0  0  0  0  0  0  0  0  0  0  0
   -8.3100   -8.1050  -24.8400 H   0  0  0  0  0  0  0  0  0  0  0  0
   -8.9390   -6.4560  -24.7210 H   0  0  0  0  0  0  0  0  0  0  0  0
   -9.1780   -7.5800  -23.3770 H   0  0  0  0  0  0  0  0  0  0  0  0
   -6.4450   -6.5340  -24.3170 H   0  0  0  0  0  0  0  0  0  0  0  0
   -8.3870   -4.5280  -23.9210 H   0  0  0  0  0  0  0  0  0  0  0  0
   -6.6390   -4.3090  -23.9810 H   0  0  0  0  0  0  0  0  0  0  0  0
   -8.2270   -3.8330  -21.4490 H   0  0  0  0  0  0  0  0  0  0  0  0
   -5.5170   -2.7550  -22.2890 H   0  0  0  0  0  0  0  0  0  0  0  0
   -5.9720   -3.5730  -20.7730 H   0  0  0  0  0  0  0  0  0  0  0  0
   -9.6600   -2.2740  -23.1900 C   0  0  0  0  0  0  0  0  0  0  0  0
  -10.6260   -2.6510  -22.2790 C   0  0  0  0  0  0  0  0  0  0  0  0
  -12.0530   -2.5520  -22.3390 C   0  0  0  0  0  0  0  0  0  0  0  0
  -12.7730   -3.3420  -20.8600 Cl  0  0  0  0  0  0  0  0  0  0  0  0
  -12.9820   -1.9860  -23.0510 C   0  0  0  0  0  0  0  0  0  0  0  0
  -11.5530   -1.4220  -24.0260 C   0  0  0  0  0  0  0  0  0  0  0  0
  -11.4660   -1.2050  -23.8900 C   0  0  0  0  0  0  0  0  0  0  0  0
   -9.6890   -2.4160  -24.6650 C   0  0  0  0  0  0  0  0  0  0  0  0
  -10.1530   -3.3200  -25.3800 O   0  0  0  0  0  0  0  0  0  0  0  0
  -10.9200   -1.1920  -24.9590 H   0  0  0  0  0  0  0  0  0  0  0  0
  -14.0780   -2.0050  -23.0190 H   0  0  0  0  0  0  0  0  0  0  0  0
  -10.2670   -3.1270  -21.3680 H   0  0  0  0  0  0  0  0  0  0  0  0
   -6.5840   -1.9290  -24.2360 H   0  0  0  0  0  0  0  0  0  0  0  0
   -7.4130   -0.3890  -23.8870 H   0  0  0  0  0  0  0  0  0  0  0  0
   -8.6280   -1.5960  -27.2190 H   0  0  0  0  0  0  0  0  0  0  0  0
   -7.0360   -1.3760  -26.4880 H   0  0  0  0  0  0  0  0  0  0  0  0
   -9.3350   -3.7140  -27.6310 H   0  0  0  0  0  0  0  0  0  0  0  0
   -8.5480   -6.0980  -26.9340 H   0  0  0  0  0  0  0  0  0  0  0  0
   -8.8700   -5.7890  -28.6640 H   0  0  0  0  0  0  0  0  0  0  0  0
   -7.2070   -5.7260  -28.0340 H   0  0  0  0  0  0  0  0  0  0  0  0
  1  2  1  0  0  0  0
  1 64  1  0  0  0  0
  1 65  1  0  0  0  0
  1 66  1  0  0  0  0
  2  3  1  0  0  0  0
  2 63  1  0  0  0  0
  3  4  2  0  0  0  0
  3  5  1  0  0  0  0
  5  6  1  0  0  0  0
  5 61  1  0  0  0  0
  5 62  1  0  0  0  0
  6  7  1  0  0  0  0
  6 54  1  0  0  0  0
  7  8  1  0  0  0  0
  7 59  1  0  0  0  0
  7 60  1  0  0  0  0
  8  9  1  1  0  0  0
  8 29  1  0  0  0  0
  8 47  1  0  0  0  0
  9 10  2  0  0  0  0
  9 11  1  0  0  0  0
 11 12  1  0  0  0  0
 11 28  1  0  0  0  0
 12 13  2  0  0  0  0
 12 21  1  0  0  0  0
 13 14  1  0  0  0  0
 13 27  1  0  0  0  0
 14 15  2  0  0  0  0
 15 16  1  0  0  0  0
 15 26  1  0  0  0  0
 16 17  2  0  0  0  0
 16 21  1  0  0  0  0
 17 18  1  0  0  0  0
 17 25  1  0  0  0  0
 18 19  2  0  0  0  0
 18 24  1  0  0  0  0
 19 20  1  0  0  0  0
 19 23  1  0  0  0  0
 20 21  2  0  0  0  0
 20 22  1  0  0  0  0
 28 29  1  0  0  0  0
 28 45  1  0  0  0  0
 28 46  1  0  0  0  0
 29 30  1  0  0  0  0
 29 44  1  1  0  0  0
 30 31  1  0  0  0  0
 30 42  1  0  0  0  0
 30 43  1  0  0  0  0
 31 32  1  0  0  0  0
 32 33  1  0  0  0  0
 32 37  1  0  0  0  0
 32 41  1  0  0  0  0
 33 34  1  0  0  0  0
 33 35  1  0  0  0  0
 33 36  1  0  0  0  0
 37 38  1  0  0  0  0
 37 39  1  0  0  0  0
 37 40  1  0  0  0  0
 47 48  2  0  0  0  0
 47 53  1  0  0  0  0
 48 49  1  0  0  0  0
 48 58  1  0  0  0  0
 49 50  1  0  0  0  0
 49 51  2  0  0  0  0
 51 52  1  0  0  0  0
 51 57  1  0  0  0  0
 52 53  2  0  0  0  0
 52 56  1  0  0  0  0
 53 54  1  0  0  0  0
 54 55  2  0  0  0  0
M  END
>  <MODEL>
       1

$$$$
