tmp_first_model_12_53.pdb
 OpenBabel08272523333D

 59 63  0  0  1  0  0  0  0  0999 V2000
   -7.5610   -1.4350  -29.5030 C   0  0  0  0  0  0  0  0  0  0  0  0
   -6.9260   -0.0580  -29.3660 C   0  0  0  0  0  0  0  0  0  0  0  0
   -7.1920    0.5690  -28.0830 N   0  0  0  0  0  0  0  0  0  0  0  0
   -6.5920    0.0830  -26.9630 C   0  0  0  0  0  0  0  0  0  0  0  0
   -5.7290   -0.7760  -26.9740 O   0  0  0  0  0  0  0  0  0  0  0  0
   -7.0970    0.6860  -25.6560 C   0  0  0  0  0  0  0  0  0  0  0  0
   -8.2170   -0.0500  -25.1170 N   0  0  0  0  0  0  0  0  0  0  0  0
   -7.9750   -1.3300  -24.4850 C   0  0  0  0  0  0  0  0  0  0  0  0
   -8.7500   -1.4700  -23.1580 C   0  0  2  0  0  0  0  0  0  0  0  0
   -8.1330   -0.5570  -22.0830 C   0  0  0  0  0  0  0  0  0  0  0  0
   -8.2470    0.6440  -21.9850 O   0  0  0  0  0  0  0  0  0  0  0  0
   -7.3990   -1.3270  -21.2190 N   0  0  0  0  0  0  0  0  0  0  0  0
   -6.6270   -0.7590  -20.1850 C   0  0  0  0  0  0  0  0  0  0  0  0
   -6.9030   -1.0660  -18.8740 C   0  0  0  0  0  0  0  0  0  0  0  0
   -6.2070   -0.5900  -17.8130 N   0  0  0  0  0  0  0  0  0  0  0  0
   -5.2010    0.2140  -18.0700 C   0  0  0  0  0  0  0  0  0  0  0  0
   -4.7970    0.5910  -19.3820 C   0  0  0  0  0  0  0  0  0  0  0  0
   -3.6490    1.3980  -19.6010 C   0  0  0  0  0  0  0  0  0  0  0  0
   -3.2590    1.7260  -20.8710 C   0  0  0  0  0  0  0  0  0  0  0  0
   -4.0170    1.2920  -21.9830 C   0  0  0  0  0  0  0  0  0  0  0  0
   -5.1050    0.4750  -21.8000 C   0  0  0  0  0  0  0  0  0  0  0  0
   -5.5240    0.1010  -20.4870 C   0  0  0  0  0  0  0  0  0  0  0  0
   -5.6390    0.0940  -22.6680 H   0  0  0  0  0  0  0  0  0  0  0  0
   -3.7020    1.5660  -22.9870 H   0  0  0  0  0  0  0  0  0  0  0  0
   -2.3710    2.3330  -21.0370 H   0  0  0  0  0  0  0  0  0  0  0  0
   -3.0770    1.7200  -18.7340 H   0  0  0  0  0  0  0  0  0  0  0  0
   -4.6280    0.5900  -17.2210 H   0  0  0  0  0  0  0  0  0  0  0  0
   -7.7480   -1.7150  -18.6360 H   0  0  0  0  0  0  0  0  0  0  0  0
   -7.4320   -2.7380  -21.5190 C   0  0  0  0  0  0  0  0  0  0  0  0
   -8.5680   -2.8870  -22.5430 C   0  0  2  0  0  0  0  0  0  0  0  0
   -8.3350   -4.0510  -23.5140 C   0  0  0  0  0  0  0  0  0  0  0  0
   -9.1310   -4.1440  -24.2640 H   0  0  0  0  0  0  0  0  0  0  0  0
   -7.3850   -3.9380  -24.0510 H   0  0  0  0  0  0  0  0  0  0  0  0
   -8.2880   -5.0090  -22.9800 H   0  0  0  0  0  0  0  0  0  0  0  0
   -9.4820   -3.1120  -21.9930 H   0  0  0  0  0  0  0  0  0  0  0  0
   -6.4730   -3.0790  -21.9300 H   0  0  0  0  0  0  0  0  0  0  0  0
   -7.6230   -3.2910  -20.6030 H   0  0  0  0  0  0  0  0  0  0  0  0
  -10.1840   -1.0510  -23.3970 C   0  0  0  0  0  0  0  0  0  0  0  0
  -11.1910   -1.4450  -22.5080 C   0  0  0  0  0  0  0  0  0  0  0  0
  -12.5000   -1.0660  -22.7460 C   0  0  0  0  0  0  0  0  0  0  0  0
  -13.7610   -1.6640  -21.6990 Cl  0  0  0  0  0  0  0  0  0  0  0  0
  -12.8380   -0.2160  -23.8030 C   0  0  0  0  0  0  0  0  0  0  0  0
  -11.8330    0.2550  -24.6250 C   0  0  0  0  0  0  0  0  0  0  0  0
  -10.5220   -0.1730  -24.4380 C   0  0  0  0  0  0  0  0  0  0  0  0
   -9.4840    0.3920  -25.3560 C   0  0  0  0  0  0  0  0  0  0  0  0
   -9.7450    1.2260  -26.2230 O   0  0  0  0  0  0  0  0  0  0  0  0
  -12.0150    0.9700  -25.4220 H   0  0  0  0  0  0  0  0  0  0  0  0
  -13.8770    0.0620  -23.9450 H   0  0  0  0  0  0  0  0  0  0  0  0
  -10.9580   -2.0220  -21.6160 H   0  0  0  0  0  0  0  0  0  0  0  0
   -6.8970   -1.4280  -24.3200 H   0  0  0  0  0  0  0  0  0  0  0  0
   -8.3000   -2.1280  -25.1650 H   0  0  0  0  0  0  0  0  0  0  0  0
   -7.4380    1.7110  -25.8140 H   0  0  0  0  0  0  0  0  0  0  0  0
   -6.2670    0.6500  -24.9390 H   0  0  0  0  0  0  0  0  0  0  0  0
   -8.0210    1.1400  -27.9710 H   0  0  0  0  0  0  0  0  0  0  0  0
   -5.8440   -0.1510  -29.4610 H   0  0  0  0  0  0  0  0  0  0  0  0
   -7.2620    0.6200  -30.1550 H   0  0  0  0  0  0  0  0  0  0  0  0
   -7.1630   -2.1110  -28.7430 H   0  0  0  0  0  0  0  0  0  0  0  0
   -7.3330   -1.8630  -30.4810 H   0  0  0  0  0  0  0  0  0  0  0  0
   -8.6460   -1.3930  -29.3810 H   0  0  0  0  0  0  0  0  0  0  0  0
  1  2  1  0  0  0  0
  1 57  1  0  0  0  0
  1 58  1  0  0  0  0
  1 59  1  0  0  0  0
  2  3  1  0  0  0  0
  2 55  1  0  0  0  0
  2 56  1  0  0  0  0
  3  4  1  0  0  0  0
  3 54  1  0  0  0  0
  4  5  2  0  0  0  0
  4  6  1  0  0  0  0
  6  7  1  0  0  0  0
  6 52  1  0  0  0  0
  6 53  1  0  0  0  0
  7  8  1  0  0  0  0
  7 45  1  0  0  0  0
  8  9  1  0  0  0  0
  8 50  1  0  0  0  0
  8 51  1  0  0  0  0
  9 10  1  1  0  0  0
  9 30  1  0  0  0  0
  9 38  1  0  0  0  0
 10 11  2  0  0  0  0
 10 12  1  0  0  0  0
 12 13  1  0  0  0  0
 12 29  1  0  0  0  0
 13 14  2  0  0  0  0
 13 22  1  0  0  0  0
 14 15  1  0  0  0  0
 14 28  1  0  0  0  0
 15 16  2  0  0  0  0
 16 17  1  0  0  0  0
 16 27  1  0  0  0  0
 17 18  2  0  0  0  0
 17 22  1  0  0  0  0
 18 19  1  0  0  0  0
 18 26  1  0  0  0  0
 19 20  2  0  0  0  0
 19 25  1  0  0  0  0
 20 21  1  0  0  0  0
 20 24  1  0  0  0  0
 21 22  2  0  0  0  0
 21 23  1  0  0  0  0
 29 30  1  0  0  0  0
 29 36  1  0  0  0  0
 29 37  1  0  0  0  0
 30 31  1  0  0  0  0
 30 35  1  1  0  0  0
 31 32  1  0  0  0  0
 31 33  1  0  0  0  0
 31 34  1  0  0  0  0
 38 39  2  0  0  0  0
 38 44  1  0  0  0  0
 39 40  1  0  0  0  0
 39 49  1  0  0  0  0
 40 41  1  0  0  0  0
 40 42  2  0  0  0  0
 42 43  1  0  0  0  0
 42 48  1  0  0  0  0
 43 44  2  0  0  0  0
 43 47  1  0  0  0  0
 44 45  1  0  0  0  0
 45 46  2  0  0  0  0
M  END
>  <MODEL>
       1

$$$$
