tmp_first_model_8_39.pdb
 OpenBabel08272521063D

 40 44  0  0  1  0  0  0  0  0999 V2000
   -7.2340    0.9250  -25.5980 C   0  0  0  0  0  0  0  0  0  0  0  0
   -6.5070   -0.3990  -25.4020 C   0  0  0  0  0  0  0  0  0  0  0  0
   -5.2940   -0.5220  -25.5210 O   0  0  0  0  0  0  0  0  0  0  0  0
   -7.2740   -1.4780  -25.0840 N   0  0  0  0  0  0  0  0  0  0  0  0
   -6.6400   -2.7680  -24.7380 C   0  0  0  0  0  0  0  0  0  0  0  0
   -7.8110   -3.4860  -24.0470 C   0  0  2  0  0  0  0  0  0  0  0  0
   -9.0040   -2.9600  -24.8630 C   0  0  0  0  0  0  0  0  0  0  0  0
   -8.6620   -1.4870  -24.5560 C   0  0  1  0  0  0  0  0  0  0  0  0
   -8.5630   -1.5560  -23.0870 C   0  0  0  0  0  0  0  0  0  0  0  0
   -8.1640   -0.6150  -22.0830 C   0  0  0  0  0  0  0  0  0  0  0  0
   -8.3450    0.5760  -21.9870 O   0  5  0  0  0  0  0  0  0  0  0  0
   -7.4000   -1.3940  -21.1800 N   0  0  0  0  0  0  0  0  0  0  0  0
   -6.5830   -0.8300  -20.1690 C   0  0  0  0  0  0  0  0  0  0  0  0
   -6.8920   -1.0650  -18.8560 C   0  0  0  0  0  0  0  0  0  0  0  0
   -6.1970   -0.5580  -17.8110 N   0  0  0  0  0  0  0  0  0  0  0  0
   -5.1690    0.2070  -18.0800 C   0  0  0  0  0  0  0  0  0  0  0  0
   -4.7340    0.5290  -19.3950 C   0  0  0  0  0  0  0  0  0  0  0  0
   -3.6040    1.3620  -19.6250 C   0  0  0  0  0  0  0  0  0  0  0  0
   -3.2140    1.6580  -20.9010 C   0  0  0  0  0  0  0  0  0  0  0  0
   -3.9380    1.1330  -21.9960 C   0  0  0  0  0  0  0  0  0  0  0  0
   -5.0080    0.2990  -21.8020 C   0  0  0  0  0  0  0  0  0  0  0  0
   -5.4570   -0.0040  -20.4860 C   0  0  0  0  0  0  0  0  0  0  0  0
   -5.4910   -0.1460  -22.6700 H   0  0  0  0  0  0  0  0  0  0  0  0
   -3.6070    1.3430  -23.0100 H   0  0  0  0  0  0  0  0  0  0  0  0
   -2.3360    2.2720  -21.0870 H   0  0  0  0  0  0  0  0  0  0  0  0
   -3.0730    1.7610  -18.7660 H   0  0  0  0  0  0  0  0  0  0  0  0
   -4.6280    0.6160  -17.2270 H   0  0  0  0  0  0  0  0  0  0  0  0
   -7.7450   -1.6870  -18.6010 H   0  0  0  0  0  0  0  0  0  0  0  0
   -7.2540   -2.7120  -21.6320 C   0  0  0  0  0  0  0  0  0  0  0  0
   -6.5350   -3.5610  -21.1620 O   0  0  0  0  0  0  0  0  0  0  0  0
   -8.0620   -2.7890  -22.7630 N   0  0  0  0  0  0  0  0  0  0  0  0
   -9.2800   -0.6910  -24.9800 H   0  0  0  0  0  0  0  0  0  0  0  0
   -9.9660   -3.2770  -24.4630 H   0  0  0  0  0  0  0  0  0  0  0  0
   -8.9260   -3.1970  -25.9280 H   0  0  0  0  0  0  0  0  0  0  0  0
   -7.7000   -4.5540  -23.9050 H   0  0  0  0  0  0  0  0  0  0  0  0
   -5.7900   -2.6270  -24.0600 H   0  0  0  0  0  0  0  0  0  0  0  0
   -6.2950   -3.2680  -25.6450 H   0  0  0  0  0  0  0  0  0  0  0  0
   -6.4850    1.6570  -25.9040 H   0  0  0  0  0  0  0  0  0  0  0  0
   -7.7230    1.2520  -24.6720 H   0  0  0  0  0  0  0  0  0  0  0  0
   -8.0160    0.8610  -26.3650 H   0  0  0  0  0  0  0  0  0  0  0  0
  1  2  1  0  0  0  0
  1 38  1  0  0  0  0
  1 39  1  0  0  0  0
  1 40  1  0  0  0  0
  2  3  2  0  0  0  0
  2  4  1  0  0  0  0
  4  5  1  0  0  0  0
  4  8  1  0  0  0  0
  5  6  1  0  0  0  0
  5 36  1  0  0  0  0
  5 37  1  0  0  0  0
  6  7  1  0  0  0  0
  6 31  1  0  0  0  0
  6 35  1  1  0  0  0
  7  8  1  0  0  0  0
  7 33  1  0  0  0  0
  7 34  1  0  0  0  0
  8  9  1  0  0  0  0
  8 32  1  6  0  0  0
  9 10  2  0  0  0  0
  9 31  1  0  0  0  0
 10 11  1  0  0  0  0
 10 12  1  0  0  0  0
 12 13  1  0  0  0  0
 12 29  1  0  0  0  0
 13 14  2  0  0  0  0
 13 22  1  0  0  0  0
 14 15  1  0  0  0  0
 14 28  1  0  0  0  0
 15 16  2  0  0  0  0
 16 17  1  0  0  0  0
 16 27  1  0  0  0  0
 17 18  2  0  0  0  0
 17 22  1  0  0  0  0
 18 19  1  0  0  0  0
 18 26  1  0  0  0  0
 19 20  2  0  0  0  0
 19 25  1  0  0  0  0
 20 21  1  0  0  0  0
 20 24  1  0  0  0  0
 21 22  2  0  0  0  0
 21 23  1  0  0  0  0
 29 30  2  0  0  0  0
 29 31  1  0  0  0  0
M  CHG  1  11  -1
M  END
>  <MODEL>
       1

$$$$
