tmp_first_model_5_69.pdb
 OpenBabel08272519233D

 63 67  0  0  0  0  0  0  0  0999 V2000
  -10.6870   -6.0310  -28.2360 C   0  0  0  0  0  0  0  0  0  0  0  0
  -10.3470   -5.4400  -27.0940 C   0  0  0  0  0  0  0  0  0  0  0  0
  -10.0010   -3.9910  -27.0720 C   0  0  0  0  0  0  0  0  0  0  0  0
   -9.7960   -3.3670  -28.1050 O   0  0  0  0  0  0  0  0  0  0  0  0
   -9.9890   -3.4010  -25.8100 N   0  0  0  0  0  0  0  0  0  0  0  0
  -10.8560   -3.9500  -24.7580 C   0  0  0  0  0  0  0  0  0  0  0  0
  -11.4370   -2.8300  -23.9140 C   0  0  0  0  0  0  0  0  0  0  0  0
  -10.3110   -2.0210  -23.2930 C   0  0  0  0  0  0  0  0  0  0  0  0
   -9.2870   -1.5820  -24.3200 C   0  0  0  0  0  0  0  0  0  0  0  0
   -9.1430   -2.2960  -25.5300 C   0  0  0  0  0  0  0  0  0  0  0  0
   -8.1340   -1.9280  -26.4360 C   0  0  0  0  0  0  0  0  0  0  0  0
   -7.2850   -0.8710  -26.1570 C   0  0  0  0  0  0  0  0  0  0  0  0
   -7.4280   -0.1500  -24.9790 C   0  0  0  0  0  0  0  0  0  0  0  0
   -8.4170   -0.5210  -24.0790 C   0  0  0  0  0  0  0  0  0  0  0  0
   -8.5110    0.3490  -22.8000 N   0  3  0  0  0  0  0  0  0  0  0  0
   -9.6700    1.4250  -22.8720 C   0  0  0  0  0  0  0  0  0  0  0  0
   -9.4170    2.3410  -24.0350 C   0  0  0  0  0  0  0  0  0  0  0  0
  -10.0860    2.1630  -25.2470 C   0  0  0  0  0  0  0  0  0  0  0  0
   -9.8330    2.9990  -26.3290 C   0  0  0  0  0  0  0  0  0  0  0  0
   -8.9050    4.0300  -26.2160 C   0  0  0  0  0  0  0  0  0  0  0  0
   -8.2370    4.2000  -25.0090 C   0  0  0  0  0  0  0  0  0  0  0  0
   -7.0790    5.4940  -24.8490 Cl  0  0  0  0  0  0  0  0  0  0  0  0
   -8.4720    3.3640  -23.9260 C   0  0  0  0  0  0  0  0  0  0  0  0
   -7.9300    3.5190  -22.9960 H   0  0  0  0  0  0  0  0  0  0  0  0
   -8.6990    4.6980  -27.0460 H   0  0  0  0  0  0  0  0  0  0  0  0
  -10.3610    2.8500  -27.2680 H   0  0  0  0  0  0  0  0  0  0  0  0
  -10.7900    1.3370  -25.3290 H   0  0  0  0  0  0  0  0  0  0  0  0
   -9.7020    1.9580  -21.9210 H   0  0  0  0  0  0  0  0  0  0  0  0
  -10.6090    0.8840  -22.9940 H   0  0  0  0  0  0  0  0  0  0  0  0
   -8.4290   -0.3370  -21.5180 C   0  0  0  0  0  0  0  0  0  0  0  0
   -9.1470   -0.0000  -20.6120 O   0  0  0  0  0  0  0  0  0  0  0  0
   -7.4200   -1.4630  -21.3580 C   0  0  0  0  0  0  0  0  0  0  0  0
   -6.4490   -1.0920  -20.2760 C   0  0  0  0  0  0  0  0  0  0  0  0
   -6.7450   -1.3040  -18.9520 C   0  0  0  0  0  0  0  0  0  0  0  0
   -5.8900   -1.0590  -17.9290 N   0  0  0  0  0  0  0  0  0  0  0  0
   -4.7330   -0.5210  -18.2370 C   0  0  0  0  0  0  0  0  0  0  0  0
   -4.3770   -0.0820  -19.5500 C   0  0  0  0  0  0  0  0  0  0  0  0
   -3.2380    0.7340  -19.8120 C   0  0  0  0  0  0  0  0  0  0  0  0
   -3.1320    1.4250  -20.9850 C   0  0  0  0  0  0  0  0  0  0  0  0
   -4.0390    1.1750  -22.0450 C   0  0  0  0  0  0  0  0  0  0  0  0
   -5.0530    0.2570  -21.8750 C   0  0  0  0  0  0  0  0  0  0  0  0
   -5.2900   -0.3320  -20.5980 C   0  0  0  0  0  0  0  0  0  0  0  0
   -5.6630    0.0020  -22.7390 H   0  0  0  0  0  0  0  0  0  0  0  0
   -3.9070    1.6980  -22.9880 H   0  0  0  0  0  0  0  0  0  0  0  0
   -2.2770    2.0750  -21.1570 H   0  0  0  0  0  0  0  0  0  0  0  0
   -2.5070    0.8880  -19.0240 H   0  0  0  0  0  0  0  0  0  0  0  0
   -4.0450   -0.3550  -17.4090 H   0  0  0  0  0  0  0  0  0  0  0  0
   -7.7160   -1.6990  -18.6510 H   0  0  0  0  0  0  0  0  0  0  0  0
   -6.9340   -1.6870  -22.3090 H   0  0  0  0  0  0  0  0  0  0  0  0
   -8.0000   -2.3400  -21.0450 H   0  0  0  0  0  0  0  0  0  0  0  0
   -7.6410    0.9340  -22.8750 H   0  0  0  0  0  0  0  0  0  0  0  0
   -6.8090    0.7190  -24.7720 H   0  0  0  0  0  0  0  0  0  0  0  0
   -6.5200   -0.6020  -26.8820 H   0  0  0  0  0  0  0  0  0  0  0  0
   -8.0230   -2.4670  -27.3620 H   0  0  0  0  0  0  0  0  0  0  0  0
  -10.7180   -1.1650  -22.7470 H   0  0  0  0  0  0  0  0  0  0  0  0
   -9.8020   -2.6290  -22.5320 H   0  0  0  0  0  0  0  0  0  0  0  0
  -12.0610   -2.1870  -24.5400 H   0  0  0  0  0  0  0  0  0  0  0  0
  -12.0810   -3.2540  -23.1350 H   0  0  0  0  0  0  0  0  0  0  0  0
  -11.6610   -4.5090  -25.2410 H   0  0  0  0  0  0  0  0  0  0  0  0
  -10.3010   -4.6520  -24.1160 H   0  0  0  0  0  0  0  0  0  0  0  0
  -10.3180   -6.0010  -26.1640 H   0  0  0  0  0  0  0  0  0  0  0  0
  -10.6700   -5.4690  -29.1630 H   0  0  0  0  0  0  0  0  0  0  0  0
  -11.0250   -7.0590  -28.2560 H   0  0  0  0  0  0  0  0  0  0  0  0
  1  2  2  0  0  0  0
  1 62  1  0  0  0  0
  1 63  1  0  0  0  0
  2  3  1  0  0  0  0
  2 61  1  0  0  0  0
  3  4  2  0  0  0  0
  3  5  1  0  0  0  0
  5  6  1  0  0  0  0
  5 10  1  0  0  0  0
  6  7  1  0  0  0  0
  6 59  1  0  0  0  0
  6 60  1  0  0  0  0
  7  8  1  0  0  0  0
  7 57  1  0  0  0  0
  7 58  1  0  0  0  0
  8  9  1  0  0  0  0
  8 55  1  0  0  0  0
  8 56  1  0  0  0  0
  9 10  2  0  0  0  0
  9 14  1  0  0  0  0
 10 11  1  0  0  0  0
 11 12  2  0  0  0  0
 11 54  1  0  0  0  0
 12 13  1  0  0  0  0
 12 53  1  0  0  0  0
 13 14  2  0  0  0  0
 13 52  1  0  0  0  0
 14 15  1  0  0  0  0
 15 16  1  0  0  0  0
 15 30  1  0  0  0  0
 15 51  1  0  0  0  0
 16 17  1  0  0  0  0
 16 28  1  0  0  0  0
 16 29  1  0  0  0  0
 17 18  2  0  0  0  0
 17 23  1  0  0  0  0
 18 19  1  0  0  0  0
 18 27  1  0  0  0  0
 19 20  2  0  0  0  0
 19 26  1  0  0  0  0
 20 21  1  0  0  0  0
 20 25  1  0  0  0  0
 21 22  1  0  0  0  0
 21 23  2  0  0  0  0
 23 24  1  0  0  0  0
 30 31  2  0  0  0  0
 30 32  1  0  0  0  0
 32 33  1  0  0  0  0
 32 49  1  0  0  0  0
 32 50  1  0  0  0  0
 33 34  2  0  0  0  0
 33 42  1  0  0  0  0
 34 35  1  0  0  0  0
 34 48  1  0  0  0  0
 35 36  2  0  0  0  0
 36 37  1  0  0  0  0
 36 47  1  0  0  0  0
 37 38  2  0  0  0  0
 37 42  1  0  0  0  0
 38 39  1  0  0  0  0
 38 46  1  0  0  0  0
 39 40  2  0  0  0  0
 39 45  1  0  0  0  0
 40 41  1  0  0  0  0
 40 44  1  0  0  0  0
 41 42  2  0  0  0  0
 41 43  1  0  0  0  0
M  CHG  1  15   1
M  END
>  <MODEL>
       1

$$$$
