tmp_first_model_3_83.pdb
 OpenBabel08272518143D

 46 50  0  0  1  0  0  0  0  0999 V2000
   -5.9920   -4.3430  -26.9530 N   0  0  0  0  0  0  0  0  0  0  0  0
   -5.7270   -2.7250  -26.7580 S   0  0  0  0  0  0  0  0  0  0  0  0
   -4.7550   -2.6290  -25.6830 O   0  0  0  0  0  0  0  0  0  0  0  0
   -5.4730   -2.2150  -28.0920 O   0  0  0  0  0  0  0  0  0  0  0  0
   -7.2540   -2.0170  -26.1880 C   0  0  0  0  0  0  0  0  0  0  0  0
   -8.1340   -1.4360  -27.0980 C   0  0  0  0  0  0  0  0  0  0  0  0
   -9.3150   -0.8810  -26.6400 C   0  0  0  0  0  0  0  0  0  0  0  0
   -9.6290   -0.9120  -25.2790 C   0  0  0  0  0  0  0  0  0  0  0  0
   -8.7710   -1.5430  -24.3750 C   0  0  0  0  0  0  0  0  0  0  0  0
   -7.5810   -2.0930  -24.8450 C   0  0  0  0  0  0  0  0  0  0  0  0
   -6.8950   -2.5720  -24.1540 H   0  0  0  0  0  0  0  0  0  0  0  0
   -9.0930   -1.5970  -22.8950 C   0  0  1  0  0  0  0  0  0  0  0  0
  -10.5850   -1.2800  -22.6670 C   0  0  0  0  0  0  0  0  0  0  0  0
  -11.0310   -0.1020  -23.5220 C   0  0  0  0  0  0  0  0  0  0  0  0
  -10.8070   -0.3390  -24.9140 O   0  0  0  0  0  0  0  0  0  0  0  0
  -12.1130    0.0430  -23.4370 H   0  0  0  0  0  0  0  0  0  0  0  0
  -10.5190    0.8170  -23.2090 H   0  0  0  0  0  0  0  0  0  0  0  0
  -10.7350   -1.0720  -21.6060 H   0  0  0  0  0  0  0  0  0  0  0  0
  -11.1840   -2.1650  -22.9200 H   0  0  0  0  0  0  0  0  0  0  0  0
   -8.7140   -2.8480  -22.2800 N   0  0  0  0  0  0  0  0  0  0  0  0
   -7.7980   -2.7520  -21.2770 C   0  0  0  0  0  0  0  0  0  0  0  0
   -7.3360   -3.6500  -20.6110 O   0  0  0  0  0  0  0  0  0  0  0  0
   -7.4510   -1.3820  -21.1900 N   0  0  0  0  0  0  0  0  0  0  0  0
   -6.5990   -0.8350  -20.1850 C   0  0  0  0  0  0  0  0  0  0  0  0
   -6.9000   -1.0660  -18.8670 C   0  0  0  0  0  0  0  0  0  0  0  0
   -6.2120   -0.5430  -17.8240 N   0  0  0  0  0  0  0  0  0  0  0  0
   -5.1760    0.2120  -18.0930 C   0  0  0  0  0  0  0  0  0  0  0  0
   -4.7330    0.5140  -19.4070 C   0  0  0  0  0  0  0  0  0  0  0  0
   -3.6000    1.3430  -19.6370 C   0  0  0  0  0  0  0  0  0  0  0  0
   -3.1870    1.6140  -20.9110 C   0  0  0  0  0  0  0  0  0  0  0  0
   -3.8870    1.0600  -22.0060 C   0  0  0  0  0  0  0  0  0  0  0  0
   -4.9840    0.2590  -21.8060 C   0  0  0  0  0  0  0  0  0  0  0  0
   -5.4530   -0.0280  -20.4960 C   0  0  0  0  0  0  0  0  0  0  0  0
   -5.5200   -0.1480  -22.6560 H   0  0  0  0  0  0  0  0  0  0  0  0
   -3.5610    1.2790  -23.0170 H   0  0  0  0  0  0  0  0  0  0  0  0
   -2.3270    2.2550  -21.0910 H   0  0  0  0  0  0  0  0  0  0  0  0
   -3.0800    1.7630  -18.7800 H   0  0  0  0  0  0  0  0  0  0  0  0
   -4.6270    0.6160  -17.2420 H   0  0  0  0  0  0  0  0  0  0  0  0
   -7.7490   -1.6880  -18.5950 H   0  0  0  0  0  0  0  0  0  0  0  0
   -8.2020   -0.6260  -22.0960 C   0  0  0  0  0  0  0  0  0  0  0  0
   -8.1630    0.5720  -22.2130 O   0  0  0  0  0  0  0  0  0  0  0  0
   -9.1480   -3.7260  -22.5110 H   0  0  0  0  0  0  0  0  0  0  0  0
  -10.0120   -0.4070  -27.3170 H   0  0  0  0  0  0  0  0  0  0  0  0
   -7.8800   -1.4160  -28.1530 H   0  0  0  0  0  0  0  0  0  0  0  0
   -6.1670   -4.8130  -26.0720 H   0  0  0  0  0  0  0  0  0  0  0  0
   -6.6550   -4.5410  -27.6930 H   0  0  0  0  0  0  0  0  0  0  0  0
  1  2  1  0  0  0  0
  1 45  1  0  0  0  0
  1 46  1  0  0  0  0
  2  3  2  0  0  0  0
  2  4  2  0  0  0  0
  2  5  1  0  0  0  0
  5  6  2  0  0  0  0
  5 10  1  0  0  0  0
  6  7  1  0  0  0  0
  6 44  1  0  0  0  0
  7  8  2  0  0  0  0
  7 43  1  0  0  0  0
  8  9  1  0  0  0  0
  8 15  1  0  0  0  0
  9 10  2  0  0  0  0
 10 11  1  0  0  0  0
 12  9  1  6  0  0  0
 12 13  1  0  0  0  0
 12 20  1  0  0  0  0
 12 40  1  0  0  0  0
 13 14  1  0  0  0  0
 13 18  1  0  0  0  0
 13 19  1  0  0  0  0
 14 15  1  0  0  0  0
 14 16  1  0  0  0  0
 14 17  1  0  0  0  0
 20 21  1  0  0  0  0
 20 42  1  0  0  0  0
 21 22  2  0  0  0  0
 21 23  1  0  0  0  0
 23 24  1  0  0  0  0
 23 40  1  0  0  0  0
 24 25  2  0  0  0  0
 24 33  1  0  0  0  0
 25 26  1  0  0  0  0
 25 39  1  0  0  0  0
 26 27  2  0  0  0  0
 27 28  1  0  0  0  0
 27 38  1  0  0  0  0
 28 29  2  0  0  0  0
 28 33  1  0  0  0  0
 29 30  1  0  0  0  0
 29 37  1  0  0  0  0
 30 31  2  0  0  0  0
 30 36  1  0  0  0  0
 31 32  1  0  0  0  0
 31 35  1  0  0  0  0
 32 33  2  0  0  0  0
 32 34  1  0  0  0  0
 40 41  2  0  0  0  0
M  END
>  <MODEL>
       1

$$$$
