tmp_first_model_14_25.pdb
 OpenBabel08282500413D

 70 75  0  0  1  0  0  0  0  0999 V2000
   -5.8250   -7.7020  -25.5340 O   0  0  0  0  0  0  0  0  0  0  0  0
   -5.6700   -7.1060  -24.4860 C   0  0  0  0  0  0  0  0  0  0  0  0
   -6.8310   -6.3740  -23.8140 C   0  0  0  0  0  0  0  0  0  0  0  0
   -6.8010   -4.8870  -23.9350 N   0  3  1  0  0  0  0  0  0  0  0  0
   -6.7490   -4.5130  -25.3990 C   0  0  0  0  0  0  0  0  0  0  0  0
   -6.7660   -3.0220  -25.6140 C   0  0  0  0  0  0  0  0  0  0  0  0
   -6.2880   -2.4750  -26.8050 C   0  0  0  0  0  0  0  0  0  0  0  0
   -6.3150   -1.1050  -27.0270 C   0  0  0  0  0  0  0  0  0  0  0  0
   -6.8320   -0.2750  -26.0360 C   0  0  0  0  0  0  0  0  0  0  0  0
   -6.8410    1.4520  -26.2850 Cl  0  0  0  0  0  0  0  0  0  0  0  0
   -7.3190   -0.8010  -24.8470 C   0  0  0  0  0  0  0  0  0  0  0  0
   -7.3090   -2.1850  -24.6450 C   0  0  0  0  0  0  0  0  0  0  0  0
   -7.8180   -2.7330  -23.3320 C   0  0  2  0  0  0  0  0  0  0  0  0
   -6.7990   -2.4340  -22.2350 C   0  0  0  0  0  0  0  0  0  0  0  0
   -5.7120   -2.9900  -22.2080 O   0  0  0  0  0  0  0  0  0  0  0  0
   -7.2530   -1.5100  -21.3180 N   0  0  0  0  0  0  0  0  0  0  0  0
   -6.5150   -0.8940  -20.2790 C   0  0  0  0  0  0  0  0  0  0  0  0
   -6.9080   -1.0530  -18.9750 C   0  0  0  0  0  0  0  0  0  0  0  0
   -6.2680   -0.5200  -17.9070 N   0  0  0  0  0  0  0  0  0  0  0  0
   -5.2060    0.2100  -18.1390 C   0  0  0  0  0  0  0  0  0  0  0  0
   -4.7310    0.5150  -19.4430 C   0  0  0  0  0  0  0  0  0  0  0  0
   -3.6110    1.3620  -19.6520 C   0  0  0  0  0  0  0  0  0  0  0  0
   -3.2300    1.6970  -20.9210 C   0  0  0  0  0  0  0  0  0  0  0  0
   -3.9470    1.2080  -22.0350 C   0  0  0  0  0  0  0  0  0  0  0  0
   -5.0180    0.3670  -21.8640 C   0  0  0  0  0  0  0  0  0  0  0  0
   -5.4180   -0.0230  -20.5550 C   0  0  0  0  0  0  0  0  0  0  0  0
   -5.5710    0.0080  -22.7250 H   0  0  0  0  0  0  0  0  0  0  0  0
   -3.6480    1.5100  -23.0340 H   0  0  0  0  0  0  0  0  0  0  0  0
   -2.3850    2.3590  -21.0810 H   0  0  0  0  0  0  0  0  0  0  0  0
   -3.0780    1.7470  -18.7860 H   0  0  0  0  0  0  0  0  0  0  0  0
   -4.6750    0.6150  -17.2770 H   0  0  0  0  0  0  0  0  0  0  0  0
   -7.7880   -1.6530  -18.7470 H   0  0  0  0  0  0  0  0  0  0  0  0
   -8.2590   -1.4150  -21.2530 H   0  0  0  0  0  0  0  0  0  0  0  0
   -8.0290   -4.2450  -23.3370 C   0  0  0  0  0  0  0  0  0  0  0  0
   -8.9170   -4.5400  -23.9110 H   0  0  0  0  0  0  0  0  0  0  0  0
   -8.1450   -4.6010  -22.3120 H   0  0  0  0  0  0  0  0  0  0  0  0
   -8.7510   -2.2240  -23.0850 H   0  0  0  0  0  0  0  0  0  0  0  0
   -7.6950   -0.1310  -24.0760 H   0  0  0  0  0  0  0  0  0  0  0  0
   -5.9320   -0.6840  -27.9520 H   0  0  0  0  0  0  0  0  0  0  0  0
   -5.8830   -3.1270  -27.5760 H   0  0  0  0  0  0  0  0  0  0  0  0
   -7.6210   -4.9790  -25.8800 H   0  0  0  0  0  0  0  0  0  0  0  0
   -5.8560   -4.9600  -25.8380 H   0  0  0  0  0  0  0  0  0  0  0  0
   -5.9880   -4.4670  -23.4320 H   0  0  0  0  0  0  0  0  0  0  0  0
   -7.7390   -6.7310  -24.3090 H   0  0  0  0  0  0  0  0  0  0  0  0
   -6.8660   -6.6610  -22.7620 H   0  0  0  0  0  0  0  0  0  0  0  0
   -4.4730   -7.0530  -23.8170 N   0  0  0  0  0  0  0  0  0  0  0  0
   -3.2810   -7.6640  -24.2590 C   0  0  0  0  0  0  0  0  0  0  0  0
   -2.0500   -7.0780  -23.9540 C   0  0  0  0  0  0  0  0  0  0  0  0
   -0.8680   -7.6600  -24.3860 C   0  0  0  0  0  0  0  0  0  0  0  0
   -0.9000   -8.8280  -25.1420 C   0  0  0  0  0  0  0  0  0  0  0  0
    0.3080   -9.4640  -25.5360 N   0  0  0  0  0  0  0  0  0  0  0  0
    1.2680   -9.8290  -24.4930 C   0  0  0  0  0  0  0  0  0  0  0  0
    2.5970  -10.1980  -25.1260 C   0  0  0  0  0  0  0  0  0  0  0  0
    2.3860  -11.1680  -26.1290 O   0  0  0  0  0  0  0  0  0  0  0  0
    1.6870  -10.6250  -27.2180 C   0  0  0  0  0  0  0  0  0  0  0  0
    0.4000   -9.9120  -26.8330 C   0  0  0  0  0  0  0  0  0  0  0  0
   -0.4510   -9.6990  -27.6790 O   0  0  0  0  0  0  0  0  0  0  0  0
    2.3020   -9.9010  -27.7790 H   0  0  0  0  0  0  0  0  0  0  0  0
    1.4290  -11.4320  -27.9060 H   0  0  0  0  0  0  0  0  0  0  0  0
    3.0990   -9.3070  -25.5390 H   0  0  0  0  0  0  0  0  0  0  0  0
    3.2540  -10.6480  -24.3760 H   0  0  0  0  0  0  0  0  0  0  0  0
    1.4030   -8.9940  -23.7970 H   0  0  0  0  0  0  0  0  0  0  0  0
    0.8840  -10.6770  -23.9090 H   0  0  0  0  0  0  0  0  0  0  0  0
   -2.1310   -9.3920  -25.4670 C   0  0  0  0  0  0  0  0  0  0  0  0
   -3.3080   -8.8510  -24.9860 C   0  0  0  0  0  0  0  0  0  0  0  0
   -4.2430   -9.3480  -25.1980 H   0  0  0  0  0  0  0  0  0  0  0  0
   -2.1740  -10.2480  -26.1300 H   0  0  0  0  0  0  0  0  0  0  0  0
    0.0910   -7.1960  -24.1650 H   0  0  0  0  0  0  0  0  0  0  0  0
   -2.0070   -6.1440  -23.4030 H   0  0  0  0  0  0  0  0  0  0  0  0
   -4.3990   -6.4960  -22.9800 H   0  0  0  0  0  0  0  0  0  0  0  0
  1  2  2  0  0  0  0
  2  3  1  0  0  0  0
  2 46  1  0  0  0  0
  3  4  1  0  0  0  0
  3 44  1  0  0  0  0
  3 45  1  0  0  0  0
  4  5  1  0  0  0  0
  4 34  1  0  0  0  0
  4 43  1  1  0  0  0
  5  6  1  0  0  0  0
  5 41  1  0  0  0  0
  5 42  1  0  0  0  0
  6  7  2  0  0  0  0
  6 12  1  0  0  0  0
  7  8  1  0  0  0  0
  7 40  1  0  0  0  0
  8  9  2  0  0  0  0
  8 39  1  0  0  0  0
  9 10  1  0  0  0  0
  9 11  1  0  0  0  0
 11 12  2  0  0  0  0
 11 38  1  0  0  0  0
 12 13  1  0  0  0  0
 13 14  1  0  0  0  0
 13 34  1  0  0  0  0
 13 37  1  1  0  0  0
 14 15  2  0  0  0  0
 14 16  1  0  0  0  0
 16 17  1  0  0  0  0
 16 33  1  0  0  0  0
 17 18  2  0  0  0  0
 17 26  1  0  0  0  0
 18 19  1  0  0  0  0
 18 32  1  0  0  0  0
 19 20  2  0  0  0  0
 20 21  1  0  0  0  0
 20 31  1  0  0  0  0
 21 22  2  0  0  0  0
 21 26  1  0  0  0  0
 22 23  1  0  0  0  0
 22 30  1  0  0  0  0
 23 24  2  0  0  0  0
 23 29  1  0  0  0  0
 24 25  1  0  0  0  0
 24 28  1  0  0  0  0
 25 26  2  0  0  0  0
 25 27  1  0  0  0  0
 34 35  1  0  0  0  0
 34 36  1  0  0  0  0
 46 47  1  0  0  0  0
 46 70  1  0  0  0  0
 47 48  2  0  0  0  0
 47 65  1  0  0  0  0
 48 49  1  0  0  0  0
 48 69  1  0  0  0  0
 49 50  2  0  0  0  0
 49 68  1  0  0  0  0
 50 51  1  0  0  0  0
 50 64  1  0  0  0  0
 51 52  1  0  0  0  0
 51 56  1  0  0  0  0
 52 53  1  0  0  0  0
 52 62  1  0  0  0  0
 52 63  1  0  0  0  0
 53 54  1  0  0  0  0
 53 60  1  0  0  0  0
 53 61  1  0  0  0  0
 54 55  1  0  0  0  0
 55 56  1  0  0  0  0
 55 58  1  0  0  0  0
 55 59  1  0  0  0  0
 56 57  2  0  0  0  0
 64 65  2  0  0  0  0
 64 67  1  0  0  0  0
 65 66  1  0  0  0  0
M  CHG  1   4   1
M  END
>  <MODEL>
       1

$$$$
