tmp_first_model_20_83.pdb
 OpenBabel08282503553D

 46 50  0  0  1  0  0  0  0  0999 V2000
   -3.8760   -1.3990  -25.3060 N   0  0  0  0  0  0  0  0  0  0  0  0
   -4.7190   -1.9840  -26.6250 S   0  0  0  0  0  0  0  0  0  0  0  0
   -4.3680   -1.1710  -27.7800 O   0  0  0  0  0  0  0  0  0  0  0  0
   -4.5340   -3.4220  -26.6330 O   0  0  0  0  0  0  0  0  0  0  0  0
   -6.3770   -1.5700  -26.1700 C   0  0  0  0  0  0  0  0  0  0  0  0
   -7.1740   -0.9970  -27.1540 C   0  0  0  0  0  0  0  0  0  0  0  0
   -8.4750   -0.6470  -26.8520 C   0  0  0  0  0  0  0  0  0  0  0  0
   -8.9800   -0.8820  -25.5710 C   0  0  0  0  0  0  0  0  0  0  0  0
   -8.1730   -1.4400  -24.5700 C   0  0  0  0  0  0  0  0  0  0  0  0
   -6.8600   -1.7940  -24.8890 C   0  0  0  0  0  0  0  0  0  0  0  0
   -6.1890   -2.2010  -24.1380 H   0  0  0  0  0  0  0  0  0  0  0  0
   -8.7150   -1.6600  -23.1640 C   0  0  1  0  0  0  0  0  0  0  0  0
  -10.2500   -1.5720  -23.1910 C   0  0  0  0  0  0  0  0  0  0  0  0
  -10.6980   -0.4000  -24.0470 C   0  0  0  0  0  0  0  0  0  0  0  0
  -10.3010   -0.6030  -25.3960 O   0  0  0  0  0  0  0  0  0  0  0  0
  -10.2710    0.5420  -23.6790 H   0  0  0  0  0  0  0  0  0  0  0  0
  -11.7870   -0.3140  -24.0700 H   0  0  0  0  0  0  0  0  0  0  0  0
  -10.6430   -1.4800  -22.1780 H   0  0  0  0  0  0  0  0  0  0  0  0
  -10.6270   -2.5070  -23.6190 H   0  0  0  0  0  0  0  0  0  0  0  0
   -8.2510   -2.9060  -22.5750 N   0  0  0  0  0  0  0  0  0  0  0  0
   -7.3530   -2.7560  -21.5610 C   0  0  0  0  0  0  0  0  0  0  0  0
   -6.6440   -3.5900  -21.0360 O   0  0  0  0  0  0  0  0  0  0  0  0
   -7.3620   -1.3860  -21.2570 N   0  0  0  0  0  0  0  0  0  0  0  0
   -6.5890   -0.8210  -20.2150 C   0  0  0  0  0  0  0  0  0  0  0  0
   -6.9160   -1.0560  -18.9050 C   0  0  0  0  0  0  0  0  0  0  0  0
   -6.2470   -0.5470  -17.8400 N   0  0  0  0  0  0  0  0  0  0  0  0
   -5.2060    0.2040  -18.1000 C   0  0  0  0  0  0  0  0  0  0  0  0
   -4.7460    0.5120  -19.4130 C   0  0  0  0  0  0  0  0  0  0  0  0
   -3.6030    1.3240  -19.6330 C   0  0  0  0  0  0  0  0  0  0  0  0
   -3.1880    1.5860  -20.9090 C   0  0  0  0  0  0  0  0  0  0  0  0
   -3.8800    1.0470  -22.0150 C   0  0  0  0  0  0  0  0  0  0  0  0
   -4.9850    0.2590  -21.8320 C   0  0  0  0  0  0  0  0  0  0  0  0
   -5.4530   -0.0140  -20.5150 C   0  0  0  0  0  0  0  0  0  0  0  0
   -5.5130   -0.1510  -22.6910 H   0  0  0  0  0  0  0  0  0  0  0  0
   -3.5310    1.2660  -23.0190 H   0  0  0  0  0  0  0  0  0  0  0  0
   -2.3230    2.2150  -21.0810 H   0  0  0  0  0  0  0  0  0  0  0  0
   -3.0750    1.7230  -18.7710 H   0  0  0  0  0  0  0  0  0  0  0  0
   -4.6650    0.6050  -17.2420 H   0  0  0  0  0  0  0  0  0  0  0  0
   -7.7760   -1.6780  -18.6820 H   0  0  0  0  0  0  0  0  0  0  0  0
   -8.1490   -0.6560  -22.1490 C   0  0  0  0  0  0  0  0  0  0  0  0
   -8.3520    0.5300  -22.0890 O   0  0  0  0  0  0  0  0  0  0  0  0
   -8.3520   -3.7950  -23.0310 H   0  0  0  0  0  0  0  0  0  0  0  0
   -9.1150   -0.1940  -27.6000 H   0  0  0  0  0  0  0  0  0  0  0  0
   -6.7370   -0.7940  -28.1270 H   0  0  0  0  0  0  0  0  0  0  0  0
   -3.0020   -1.9140  -25.2070 H   0  0  0  0  0  0  0  0  0  0  0  0
   -3.6810   -0.4160  -25.4590 H   0  0  0  0  0  0  0  0  0  0  0  0
  1  2  1  0  0  0  0
  1 45  1  0  0  0  0
  1 46  1  0  0  0  0
  2  3  2  0  0  0  0
  2  4  2  0  0  0  0
  2  5  1  0  0  0  0
  5  6  2  0  0  0  0
  5 10  1  0  0  0  0
  6  7  1  0  0  0  0
  6 44  1  0  0  0  0
  7  8  2  0  0  0  0
  7 43  1  0  0  0  0
  8  9  1  0  0  0  0
  8 15  1  0  0  0  0
  9 10  2  0  0  0  0
 10 11  1  0  0  0  0
 12  9  1  6  0  0  0
 12 13  1  0  0  0  0
 12 20  1  0  0  0  0
 12 40  1  0  0  0  0
 13 14  1  0  0  0  0
 13 18  1  0  0  0  0
 13 19  1  0  0  0  0
 14 15  1  0  0  0  0
 14 16  1  0  0  0  0
 14 17  1  0  0  0  0
 20 21  1  0  0  0  0
 20 42  1  0  0  0  0
 21 22  2  0  0  0  0
 21 23  1  0  0  0  0
 23 24  1  0  0  0  0
 23 40  1  0  0  0  0
 24 25  2  0  0  0  0
 24 33  1  0  0  0  0
 25 26  1  0  0  0  0
 25 39  1  0  0  0  0
 26 27  2  0  0  0  0
 27 28  1  0  0  0  0
 27 38  1  0  0  0  0
 28 29  2  0  0  0  0
 28 33  1  0  0  0  0
 29 30  1  0  0  0  0
 29 37  1  0  0  0  0
 30 31  2  0  0  0  0
 30 36  1  0  0  0  0
 31 32  1  0  0  0  0
 31 35  1  0  0  0  0
 32 33  2  0  0  0  0
 32 34  1  0  0  0  0
 40 41  2  0  0  0  0
M  END
>  <MODEL>
       1

$$$$
