tmp_first_model_1_84.pdb
 OpenBabel08272517043D

 63 68  0  0  1  0  0  0  0  0999 V2000
   -7.3550   -4.9440  -23.0000 C   0  0  0  0  0  0  0  0  0  0  0  0
   -7.3910   -3.6050  -22.2700 C   0  0  1  0  0  0  0  0  0  0  0  0
   -6.2800   -3.3100  -21.2480 C   0  0  0  0  0  0  0  0  0  0  0  0
   -6.5420   -1.9030  -20.9790 N   0  0  0  0  0  0  0  0  0  0  0  0
   -6.0450   -1.1350  -19.9180 C   0  0  0  0  0  0  0  0  0  0  0  0
   -6.5070   -1.3220  -18.6450 C   0  0  0  0  0  0  0  0  0  0  0  0
   -6.0500   -0.6410  -17.5710 N   0  0  0  0  0  0  0  0  0  0  0  0
   -5.0960    0.2360  -17.7810 C   0  0  0  0  0  0  0  0  0  0  0  0
   -4.5420    0.5280  -19.0580 C   0  0  0  0  0  0  0  0  0  0  0  0
   -3.4730    1.4440  -19.2330 C   0  0  0  0  0  0  0  0  0  0  0  0
   -3.0250    1.7550  -20.4870 C   0  0  0  0  0  0  0  0  0  0  0  0
   -3.6330    1.1850  -21.6290 C   0  0  0  0  0  0  0  0  0  0  0  0
   -4.6480    0.2790  -21.4820 C   0  0  0  0  0  0  0  0  0  0  0  0
   -5.0830   -0.1160  -20.1840 C   0  0  0  0  0  0  0  0  0  0  0  0
   -5.1420   -0.1120  -22.3650 H   0  0  0  0  0  0  0  0  0  0  0  0
   -3.3080    1.4710  -22.6270 H   0  0  0  0  0  0  0  0  0  0  0  0
   -2.2100    2.4590  -20.6170 H   0  0  0  0  0  0  0  0  0  0  0  0
   -3.0340    1.8930  -18.3470 H   0  0  0  0  0  0  0  0  0  0  0  0
   -4.7210    0.7710  -16.9120 H   0  0  0  0  0  0  0  0  0  0  0  0
   -7.3080   -2.0410  -18.4670 H   0  0  0  0  0  0  0  0  0  0  0  0
   -7.2570   -1.2760  -21.9680 C   0  0  0  0  0  0  0  0  0  0  0  0
   -7.6390   -0.1260  -21.9210 O   0  0  0  0  0  0  0  0  0  0  0  0
   -7.4320   -2.2910  -23.1120 C   0  0  1  0  0  0  0  0  0  0  0  0
   -6.2340   -2.1220  -24.1030 C   0  0  0  0  0  0  0  0  0  0  0  0
   -6.3080   -0.9030  -24.9190 N   0  0  0  0  0  0  0  0  0  0  0  0
   -5.1080   -0.3730  -25.5660 C   0  0  0  0  0  0  0  0  0  0  0  0
   -5.1030   -0.6110  -27.0950 C   0  0  0  0  0  0  0  0  0  0  0  0
   -4.6970   -1.6530  -27.5820 O   0  0  0  0  0  0  0  0  0  0  0  0
   -5.5520    0.4380  -27.8540 N   0  0  0  0  0  0  0  0  0  0  0  0
   -5.8680    0.2450  -29.2620 C   0  0  0  0  0  0  0  0  0  0  0  0
   -4.7760    0.6840  -30.2070 C   0  0  0  0  0  0  0  0  0  0  0  0
   -4.6970    2.0550  -30.3100 F   0  0  0  0  0  0  0  0  0  0  0  0
   -4.4900   -0.0680  -31.4620 C   0  0  0  0  0  0  0  0  0  0  0  0
   -3.4880   -0.0510  -30.3270 C   0  0  0  0  0  0  0  0  0  0  0  0
   -2.6080    0.5680  -30.4740 H   0  0  0  0  0  0  0  0  0  0  0  0
   -3.3640   -0.9490  -29.7250 H   0  0  0  0  0  0  0  0  0  0  0  0
   -5.0410   -0.9840  -31.6720 H   0  0  0  0  0  0  0  0  0  0  0  0
   -4.2400    0.5410  -32.3250 H   0  0  0  0  0  0  0  0  0  0  0  0
   -6.7700    0.8140  -29.5100 H   0  0  0  0  0  0  0  0  0  0  0  0
   -6.0760   -0.8170  -29.4350 H   0  0  0  0  0  0  0  0  0  0  0  0
   -6.0940    1.1340  -27.3600 H   0  0  0  0  0  0  0  0  0  0  0  0
   -4.2310   -0.8710  -25.1470 H   0  0  0  0  0  0  0  0  0  0  0  0
   -5.0210    0.7020  -25.3590 H   0  0  0  0  0  0  0  0  0  0  0  0
   -7.4620   -0.2430  -25.1720 C   0  0  0  0  0  0  0  0  0  0  0  0
   -7.4850    0.8250  -25.7880 O   0  0  0  0  0  0  0  0  0  0  0  0
   -8.7150   -0.9000  -24.7090 C   0  0  0  0  0  0  0  0  0  0  0  0
   -9.9060   -0.3920  -25.2020 C   0  0  0  0  0  0  0  0  0  0  0  0
  -11.1150   -0.9390  -24.8450 C   0  0  0  0  0  0  0  0  0  0  0  0
  -11.1050   -2.0070  -23.9480 C   0  0  0  0  0  0  0  0  0  0  0  0
  -12.2670   -2.5440  -23.5440 F   0  0  0  0  0  0  0  0  0  0  0  0
   -9.9350   -2.5110  -23.4170 C   0  0  0  0  0  0  0  0  0  0  0  0
   -8.7120   -1.9690  -23.8110 C   0  0  0  0  0  0  0  0  0  0  0  0
  -10.0000   -3.2790  -22.6540 H   0  0  0  0  0  0  0  0  0  0  0  0
  -12.0400   -0.5270  -25.2290 H   0  0  0  0  0  0  0  0  0  0  0  0
   -9.8200    0.4810  -25.8360 H   0  0  0  0  0  0  0  0  0  0  0  0
   -5.2940   -2.0810  -23.5440 H   0  0  0  0  0  0  0  0  0  0  0  0
   -6.1810   -2.9970  -24.7570 H   0  0  0  0  0  0  0  0  0  0  0  0
   -6.3370   -3.8850  -20.3200 H   0  0  0  0  0  0  0  0  0  0  0  0
   -5.2810   -3.4640  -21.6890 H   0  0  0  0  0  0  0  0  0  0  0  0
   -8.3100   -3.5850  -21.6700 H   0  0  0  0  0  0  0  0  0  0  0  0
   -8.1720   -5.0030  -23.7300 H   0  0  0  0  0  0  0  0  0  0  0  0
   -6.4210   -5.1190  -23.5440 H   0  0  0  0  0  0  0  0  0  0  0  0
   -7.4830   -5.7760  -22.2960 H   0  0  0  0  0  0  0  0  0  0  0  0
  1  2  1  0  0  0  0
  1 61  1  0  0  0  0
  1 62  1  0  0  0  0
  1 63  1  0  0  0  0
  2  3  1  0  0  0  0
  2 23  1  0  0  0  0
  2 60  1  1  0  0  0
  3  4  1  0  0  0  0
  3 58  1  0  0  0  0
  3 59  1  0  0  0  0
  4  5  1  0  0  0  0
  4 21  1  0  0  0  0
  5  6  2  0  0  0  0
  5 14  1  0  0  0  0
  6  7  1  0  0  0  0
  6 20  1  0  0  0  0
  7  8  2  0  0  0  0
  8  9  1  0  0  0  0
  8 19  1  0  0  0  0
  9 10  2  0  0  0  0
  9 14  1  0  0  0  0
 10 11  1  0  0  0  0
 10 18  1  0  0  0  0
 11 12  2  0  0  0  0
 11 17  1  0  0  0  0
 12 13  1  0  0  0  0
 12 16  1  0  0  0  0
 13 14  2  0  0  0  0
 13 15  1  0  0  0  0
 21 22  2  0  0  0  0
 23 21  1  1  0  0  0
 23 24  1  0  0  0  0
 23 52  1  0  0  0  0
 24 25  1  0  0  0  0
 24 56  1  0  0  0  0
 24 57  1  0  0  0  0
 25 26  1  0  0  0  0
 25 44  1  0  0  0  0
 26 27  1  0  0  0  0
 26 42  1  0  0  0  0
 26 43  1  0  0  0  0
 27 28  2  0  0  0  0
 27 29  1  0  0  0  0
 29 30  1  0  0  0  0
 29 41  1  0  0  0  0
 30 31  1  0  0  0  0
 30 39  1  0  0  0  0
 30 40  1  0  0  0  0
 31 32  1  0  0  0  0
 31 33  1  0  0  0  0
 31 34  1  0  0  0  0
 33 34  1  0  0  0  0
 33 37  1  0  0  0  0
 33 38  1  0  0  0  0
 34 35  1  0  0  0  0
 34 36  1  0  0  0  0
 44 45  2  0  0  0  0
 44 46  1  0  0  0  0
 46 47  2  0  0  0  0
 46 52  1  0  0  0  0
 47 48  1  0  0  0  0
 47 55  1  0  0  0  0
 48 49  2  0  0  0  0
 48 54  1  0  0  0  0
 49 50  1  0  0  0  0
 49 51  1  0  0  0  0
 51 52  2  0  0  0  0
 51 53  1  0  0  0  0
M  END
>  <MODEL>
       1

$$$$
