tmp_first_model_6_88.pdb
 OpenBabel08272519583D

 40 42  0  0  0  0  0  0  0  0999 V2000
   -5.5060   -2.9810  -21.3320 O   0  0  0  0  0  0  0  0  0  0  0  0
   -6.6730   -2.7720  -21.6390 C   0  0  0  0  0  0  0  0  0  0  0  0
   -7.3850   -1.4800  -21.2380 C   0  0  0  0  0  0  0  0  0  0  0  0
   -6.6250   -0.7920  -20.1570 C   0  0  0  0  0  0  0  0  0  0  0  0
   -6.9140   -1.0710  -18.8490 C   0  0  0  0  0  0  0  0  0  0  0  0
   -6.2370   -0.5860  -17.7780 N   0  0  0  0  0  0  0  0  0  0  0  0
   -5.2100    0.1880  -18.0350 C   0  0  0  0  0  0  0  0  0  0  0  0
   -4.7750    0.5360  -19.3430 C   0  0  0  0  0  0  0  0  0  0  0  0
   -3.6550    1.3770  -19.5720 C   0  0  0  0  0  0  0  0  0  0  0  0
   -3.3000    1.7280  -20.8450 C   0  0  0  0  0  0  0  0  0  0  0  0
   -4.0420    1.2510  -21.9480 C   0  0  0  0  0  0  0  0  0  0  0  0
   -5.1120    0.4110  -21.7570 C   0  0  0  0  0  0  0  0  0  0  0  0
   -5.5110    0.0440  -20.4440 C   0  0  0  0  0  0  0  0  0  0  0  0
   -5.6340    0.0020  -22.6160 H   0  0  0  0  0  0  0  0  0  0  0  0
   -3.7510    1.5340  -22.9550 H   0  0  0  0  0  0  0  0  0  0  0  0
   -2.4500    2.3830  -21.0170 H   0  0  0  0  0  0  0  0  0  0  0  0
   -3.1070    1.7520  -18.7110 H   0  0  0  0  0  0  0  0  0  0  0  0
   -4.6660    0.5800  -17.1750 H   0  0  0  0  0  0  0  0  0  0  0  0
   -7.7410   -1.7420  -18.6170 H   0  0  0  0  0  0  0  0  0  0  0  0
   -8.3910   -1.7260  -20.8750 H   0  0  0  0  0  0  0  0  0  0  0  0
   -7.5060   -0.8410  -22.1210 H   0  0  0  0  0  0  0  0  0  0  0  0
   -7.4070   -3.6820  -22.3340 N   0  0  0  0  0  0  0  0  0  0  0  0
   -6.8220   -5.0080  -22.5040 C   0  0  0  0  0  0  0  0  0  0  0  0
   -7.9520   -5.9970  -22.6930 C   0  0  0  0  0  0  0  0  0  0  0  0
   -8.7270   -5.7080  -23.9920 C   0  0  0  0  0  0  0  0  0  0  0  0
  -10.0280   -6.4810  -23.9810 C   0  0  0  0  0  0  0  0  0  0  0  0
   -9.8370   -7.7790  -23.6120 F   0  0  0  0  0  0  0  0  0  0  0  0
  -10.8370   -5.9010  -23.0440 F   0  0  0  0  0  0  0  0  0  0  0  0
  -10.5800   -6.4900  -24.9290 H   0  0  0  0  0  0  0  0  0  0  0  0
   -8.9990   -4.1950  -24.1430 C   0  0  0  0  0  0  0  0  0  0  0  0
   -8.7740   -3.4700  -22.8140 C   0  0  0  0  0  0  0  0  0  0  0  0
   -8.9620   -2.4010  -22.9330 H   0  0  0  0  0  0  0  0  0  0  0  0
   -9.5100   -3.8270  -22.0790 H   0  0  0  0  0  0  0  0  0  0  0  0
   -8.3460   -3.7630  -24.9130 H   0  0  0  0  0  0  0  0  0  0  0  0
  -10.0350   -4.0290  -24.4620 H   0  0  0  0  0  0  0  0  0  0  0  0
   -8.1540   -6.0520  -24.8620 H   0  0  0  0  0  0  0  0  0  0  0  0
   -8.6030   -5.8870  -21.8140 H   0  0  0  0  0  0  0  0  0  0  0  0
   -7.5850   -7.0250  -22.7030 H   0  0  0  0  0  0  0  0  0  0  0  0
   -6.2560   -5.2560  -21.6050 H   0  0  0  0  0  0  0  0  0  0  0  0
   -6.0920   -5.0020  -23.3240 H   0  0  0  0  0  0  0  0  0  0  0  0
  1  2  2  0  0  0  0
  2  3  1  0  0  0  0
  2 22  1  0  0  0  0
  3  4  1  0  0  0  0
  3 20  1  0  0  0  0
  3 21  1  0  0  0  0
  4  5  2  0  0  0  0
  4 13  1  0  0  0  0
  5  6  1  0  0  0  0
  5 19  1  0  0  0  0
  6  7  2  0  0  0  0
  7  8  1  0  0  0  0
  7 18  1  0  0  0  0
  8  9  2  0  0  0  0
  8 13  1  0  0  0  0
  9 10  1  0  0  0  0
  9 17  1  0  0  0  0
 10 11  2  0  0  0  0
 10 16  1  0  0  0  0
 11 12  1  0  0  0  0
 11 15  1  0  0  0  0
 12 13  2  0  0  0  0
 12 14  1  0  0  0  0
 22 23  1  0  0  0  0
 22 31  1  0  0  0  0
 23 24  1  0  0  0  0
 23 39  1  0  0  0  0
 23 40  1  0  0  0  0
 24 25  1  0  0  0  0
 24 37  1  0  0  0  0
 24 38  1  0  0  0  0
 25 26  1  0  0  0  0
 25 30  1  0  0  0  0
 25 36  1  0  0  0  0
 26 27  1  0  0  0  0
 26 28  1  0  0  0  0
 26 29  1  0  0  0  0
 30 31  1  0  0  0  0
 30 34  1  0  0  0  0
 30 35  1  0  0  0  0
 31 32  1  0  0  0  0
 31 33  1  0  0  0  0
M  END
>  <MODEL>
       1

$$$$
