tmp_first_model_6_58.pdb
 OpenBabel08272519583D

 42 45  0  0  1  0  0  0  0  0999 V2000
  -10.9710   -5.0740  -23.5540 C   0  0  0  0  0  0  0  0  0  0  0  0
  -10.0650   -3.9310  -23.6520 N   0  0  0  0  0  0  0  0  0  0  0  0
   -9.4210   -3.4030  -22.4520 C   0  0  0  0  0  0  0  0  0  0  0  0
   -9.4100   -1.8690  -22.5090 C   0  0  1  0  0  0  0  0  0  0  0  0
   -8.6520   -1.1450  -21.3930 C   0  0  0  0  0  0  0  0  0  0  0  0
   -9.1670   -0.2240  -20.7840 O   0  0  0  0  0  0  0  0  0  0  0  0
   -7.3260   -1.4710  -21.1990 N   0  0  0  0  0  0  0  0  0  0  0  0
   -6.5700   -0.8510  -20.1770 C   0  0  0  0  0  0  0  0  0  0  0  0
   -6.9000   -1.0630  -18.8650 C   0  0  0  0  0  0  0  0  0  0  0  0
   -6.2100   -0.5560  -17.8160 N   0  0  0  0  0  0  0  0  0  0  0  0
   -5.1760    0.2040  -18.0830 C   0  0  0  0  0  0  0  0  0  0  0  0
   -4.7380    0.5300  -19.3970 C   0  0  0  0  0  0  0  0  0  0  0  0
   -3.6180    1.3680  -19.6320 C   0  0  0  0  0  0  0  0  0  0  0  0
   -3.2470    1.6820  -20.9110 C   0  0  0  0  0  0  0  0  0  0  0  0
   -3.9940    1.1880  -22.0050 C   0  0  0  0  0  0  0  0  0  0  0  0
   -5.0760    0.3640  -21.8030 C   0  0  0  0  0  0  0  0  0  0  0  0
   -5.4630    0.0020  -20.4870 C   0  0  0  0  0  0  0  0  0  0  0  0
   -5.6230   -0.0370  -22.6540 H   0  0  0  0  0  0  0  0  0  0  0  0
   -3.6750    1.4120  -23.0190 H   0  0  0  0  0  0  0  0  0  0  0  0
   -2.3770    2.3070  -21.0930 H   0  0  0  0  0  0  0  0  0  0  0  0
   -3.0740    1.7560  -18.7750 H   0  0  0  0  0  0  0  0  0  0  0  0
   -4.6300    0.6100  -17.2320 H   0  0  0  0  0  0  0  0  0  0  0  0
   -7.7590   -1.6820  -18.6140 H   0  0  0  0  0  0  0  0  0  0  0  0
   -6.8150   -1.9110  -21.9520 H   0  0  0  0  0  0  0  0  0  0  0  0
   -8.9020   -1.3860  -23.8530 C   0  0  0  0  0  0  0  0  0  0  0  0
   -8.3630   -0.1020  -23.9720 C   0  0  0  0  0  0  0  0  0  0  0  0
   -7.8890    0.3320  -25.1970 C   0  0  0  0  0  0  0  0  0  0  0  0
   -7.1320    1.9010  -25.3030 Cl  0  0  0  0  0  0  0  0  0  0  0  0
   -7.9870   -0.4730  -26.3280 C   0  0  0  0  0  0  0  0  0  0  0  0
   -8.5590   -1.7310  -26.2160 C   0  0  0  0  0  0  0  0  0  0  0  0
   -8.9930   -2.2040  -24.9770 C   0  0  0  0  0  0  0  0  0  0  0  0
   -9.5620   -3.5920  -24.8880 C   0  0  0  0  0  0  0  0  0  0  0  0
   -9.6210   -4.3410  -25.8510 O   0  0  0  0  0  0  0  0  0  0  0  0
   -8.6790   -2.3760  -27.0800 H   0  0  0  0  0  0  0  0  0  0  0  0
   -7.6090   -0.1050  -27.2750 H   0  0  0  0  0  0  0  0  0  0  0  0
   -8.2940    0.5470  -23.1050 H   0  0  0  0  0  0  0  0  0  0  0  0
  -10.4480   -1.5310  -22.3860 H   0  0  0  0  0  0  0  0  0  0  0  0
   -8.4040   -3.8150  -22.3360 H   0  0  0  0  0  0  0  0  0  0  0  0
  -10.0210   -3.7280  -21.5980 H   0  0  0  0  0  0  0  0  0  0  0  0
  -11.9680   -4.8510  -23.9570 H   0  0  0  0  0  0  0  0  0  0  0  0
  -10.5890   -5.9470  -24.0940 H   0  0  0  0  0  0  0  0  0  0  0  0
  -11.0850   -5.3250  -22.4980 H   0  0  0  0  0  0  0  0  0  0  0  0
  1  2  1  0  0  0  0
  1 40  1  0  0  0  0
  1 41  1  0  0  0  0
  1 42  1  0  0  0  0
  2  3  1  0  0  0  0
  2 32  1  0  0  0  0
  3  4  1  0  0  0  0
  3 38  1  0  0  0  0
  3 39  1  0  0  0  0
  4  5  1  0  0  0  0
  4 25  1  0  0  0  0
  4 37  1  1  0  0  0
  5  6  2  0  0  0  0
  5  7  1  0  0  0  0
  7  8  1  0  0  0  0
  7 24  1  0  0  0  0
  8  9  2  0  0  0  0
  8 17  1  0  0  0  0
  9 10  1  0  0  0  0
  9 23  1  0  0  0  0
 10 11  2  0  0  0  0
 11 12  1  0  0  0  0
 11 22  1  0  0  0  0
 12 13  2  0  0  0  0
 12 17  1  0  0  0  0
 13 14  1  0  0  0  0
 13 21  1  0  0  0  0
 14 15  2  0  0  0  0
 14 20  1  0  0  0  0
 15 16  1  0  0  0  0
 15 19  1  0  0  0  0
 16 17  2  0  0  0  0
 16 18  1  0  0  0  0
 25 26  2  0  0  0  0
 25 31  1  0  0  0  0
 26 27  1  0  0  0  0
 26 36  1  0  0  0  0
 27 28  1  0  0  0  0
 27 29  2  0  0  0  0
 29 30  1  0  0  0  0
 29 35  1  0  0  0  0
 30 31  2  0  0  0  0
 30 34  1  0  0  0  0
 31 32  1  0  0  0  0
 32 33  2  0  0  0  0
M  END
>  <MODEL>
       1

$$$$
