tmp_first_model_10_11.pdb
 OpenBabel08272522163D

 48 52  0  0  0  0  0  0  0  0999 V2000
   -9.3990   -4.0300  -22.4670 C   0  0  0  0  0  0  0  0  0  0  0  0
   -8.7960   -2.7600  -22.1410 N   0  0  0  0  0  0  0  0  0  0  0  0
   -7.8380   -2.6410  -21.1790 C   0  0  0  0  0  0  0  0  0  0  0  0
   -7.3580   -3.5200  -20.4940 O   0  0  0  0  0  0  0  0  0  0  0  0
   -7.4940   -1.2810  -21.1250 N   0  0  0  0  0  0  0  0  0  0  0  0
   -6.6470   -0.7640  -20.1250 C   0  0  0  0  0  0  0  0  0  0  0  0
   -6.8920   -1.1000  -18.8190 C   0  0  0  0  0  0  0  0  0  0  0  0
   -6.1870   -0.6230  -17.7720 N   0  0  0  0  0  0  0  0  0  0  0  0
   -5.1870    0.1800  -18.0420 C   0  0  0  0  0  0  0  0  0  0  0  0
   -4.8100    0.5740  -19.3570 C   0  0  0  0  0  0  0  0  0  0  0  0
   -3.7270    1.4630  -19.5850 C   0  0  0  0  0  0  0  0  0  0  0  0
   -3.4760    1.9370  -20.8430 C   0  0  0  0  0  0  0  0  0  0  0  0
   -4.2510    1.4940  -21.9400 C   0  0  0  0  0  0  0  0  0  0  0  0
   -5.2560    0.5780  -21.7570 C   0  0  0  0  0  0  0  0  0  0  0  0
   -5.5770    0.1180  -20.4460 C   0  0  0  0  0  0  0  0  0  0  0  0
   -5.8200    0.2170  -22.6110 H   0  0  0  0  0  0  0  0  0  0  0  0
   -4.0260    1.8430  -22.9450 H   0  0  0  0  0  0  0  0  0  0  0  0
   -2.6740    2.6520  -21.0150 H   0  0  0  0  0  0  0  0  0  0  0  0
   -3.1300    1.7710  -18.7310 H   0  0  0  0  0  0  0  0  0  0  0  0
   -4.6210    0.5670  -17.1950 H   0  0  0  0  0  0  0  0  0  0  0  0
   -7.6970   -1.7900  -18.5840 H   0  0  0  0  0  0  0  0  0  0  0  0
   -8.2710   -0.5180  -21.9900 C   0  0  0  0  0  0  0  0  0  0  0  0
   -8.2280    0.6830  -22.1340 O   0  0  0  0  0  0  0  0  0  0  0  0
   -9.1670   -1.4910  -22.7070 C   0  0  0  0  0  0  0  0  0  0  0  0
  -10.6490   -1.0810  -22.7260 C   0  0  0  0  0  0  0  0  0  0  0  0
  -10.5940   -1.0050  -24.2130 N   0  0  0  0  0  0  0  0  0  0  0  0
  -11.6580   -2.0010  -25.0490 S   0  0  0  0  0  0  0  0  0  0  0  0
  -11.4870   -3.3630  -24.5690 O   0  0  0  0  0  0  0  0  0  0  0  0
  -12.9600   -1.3600  -25.0110 O   0  0  0  0  0  0  0  0  0  0  0  0
  -11.0080   -1.8890  -26.7000 C   0  0  0  0  0  0  0  0  0  0  0  0
  -10.0570   -2.7760  -27.1990 C   0  0  0  0  0  0  0  0  0  0  0  0
   -9.7670   -2.7590  -28.5610 C   0  0  0  0  0  0  0  0  0  0  0  0
  -10.4250   -1.8580  -29.3990 C   0  0  0  0  0  0  0  0  0  0  0  0
  -11.3040   -0.9210  -28.8640 C   0  0  0  0  0  0  0  0  0  0  0  0
  -11.5270   -0.8820  -27.4940 C   0  0  0  0  0  0  0  0  0  0  0  0
  -12.1090   -0.1110  -27.0030 H   0  0  0  0  0  0  0  0  0  0  0  0
  -11.7990   -0.2210  -29.5230 H   0  0  0  0  0  0  0  0  0  0  0  0
  -10.2860   -1.8990  -30.4750 H   0  0  0  0  0  0  0  0  0  0  0  0
   -9.0410   -3.4660  -28.9570 H   0  0  0  0  0  0  0  0  0  0  0  0
   -9.5350   -3.4690  -26.5460 H   0  0  0  0  0  0  0  0  0  0  0  0
   -9.1630   -1.3730  -24.2330 C   0  0  0  0  0  0  0  0  0  0  0  0
   -8.9050   -2.3050  -24.7410 H   0  0  0  0  0  0  0  0  0  0  0  0
   -8.5450   -0.5570  -24.6050 H   0  0  0  0  0  0  0  0  0  0  0  0
  -11.3400   -1.8170  -22.3080 H   0  0  0  0  0  0  0  0  0  0  0  0
  -10.8080   -0.0960  -22.2830 H   0  0  0  0  0  0  0  0  0  0  0  0
  -10.4220   -4.0940  -22.0830 H   0  0  0  0  0  0  0  0  0  0  0  0
   -9.4380   -4.1990  -23.5440 H   0  0  0  0  0  0  0  0  0  0  0  0
   -8.7730   -4.7810  -21.9900 H   0  0  0  0  0  0  0  0  0  0  0  0
  1  2  1  0  0  0  0
  1 46  1  0  0  0  0
  1 47  1  0  0  0  0
  1 48  1  0  0  0  0
  2  3  1  0  0  0  0
  2 24  1  0  0  0  0
  3  4  2  0  0  0  0
  3  5  1  0  0  0  0
  5  6  1  0  0  0  0
  5 22  1  0  0  0  0
  6  7  2  0  0  0  0
  6 15  1  0  0  0  0
  7  8  1  0  0  0  0
  7 21  1  0  0  0  0
  8  9  2  0  0  0  0
  9 10  1  0  0  0  0
  9 20  1  0  0  0  0
 10 11  2  0  0  0  0
 10 15  1  0  0  0  0
 11 12  1  0  0  0  0
 11 19  1  0  0  0  0
 12 13  2  0  0  0  0
 12 18  1  0  0  0  0
 13 14  1  0  0  0  0
 13 17  1  0  0  0  0
 14 15  2  0  0  0  0
 14 16  1  0  0  0  0
 22 23  2  0  0  0  0
 22 24  1  0  0  0  0
 24 25  1  0  0  0  0
 24 41  1  0  0  0  0
 25 26  1  0  0  0  0
 25 44  1  0  0  0  0
 25 45  1  0  0  0  0
 26 27  1  0  0  0  0
 26 41  1  0  0  0  0
 27 28  2  0  0  0  0
 27 29  2  0  0  0  0
 27 30  1  0  0  0  0
 30 31  2  0  0  0  0
 30 35  1  0  0  0  0
 31 32  1  0  0  0  0
 31 40  1  0  0  0  0
 32 33  2  0  0  0  0
 32 39  1  0  0  0  0
 33 34  1  0  0  0  0
 33 38  1  0  0  0  0
 34 35  2  0  0  0  0
 34 37  1  0  0  0  0
 35 36  1  0  0  0  0
 41 42  1  0  0  0  0
 41 43  1  0  0  0  0
M  END
>  <MODEL>
       1

$$$$
