tmp_first_model_2_74.pdb
 OpenBabel08272517383D

 43 47  0  0  1  0  0  0  0  0999 V2000
   -9.4300   -0.4550  -20.9870 O   0  0  0  0  0  0  0  0  0  0  0  0
   -8.7460   -1.3650  -21.3790 C   0  0  0  0  0  0  0  0  0  0  0  0
   -9.1360   -2.4510  -22.1160 N   0  0  0  0  0  0  0  0  0  0  0  0
   -8.0390   -3.1460  -22.7410 C   0  0  1  0  0  0  0  0  0  0  0  0
   -8.1040   -4.6880  -22.7160 C   0  0  0  0  0  0  0  0  0  0  0  0
   -8.2240   -4.7220  -24.2740 C   0  0  2  0  0  0  0  0  0  0  0  0
   -7.1760   -5.5220  -24.9850 C   0  0  0  0  0  0  0  0  0  0  0  0
   -5.8200   -5.2770  -24.7400 C   0  0  0  0  0  0  0  0  0  0  0  0
   -4.8300   -6.0100  -25.3840 C   0  0  0  0  0  0  0  0  0  0  0  0
   -5.1800   -7.0120  -26.2880 C   0  0  0  0  0  0  0  0  0  0  0  0
   -6.5200   -7.2750  -26.5430 C   0  0  0  0  0  0  0  0  0  0  0  0
   -7.4980   -6.5330  -25.8910 C   0  0  0  0  0  0  0  0  0  0  0  0
   -9.1680   -6.9140  -26.2470 Cl  0  0  0  0  0  0  0  0  0  0  0  0
   -6.8250   -8.0470  -27.2430 H   0  0  0  0  0  0  0  0  0  0  0  0
   -4.4110   -7.5870  -26.7970 H   0  0  0  0  0  0  0  0  0  0  0  0
   -3.7840   -5.7960  -25.1830 H   0  0  0  0  0  0  0  0  0  0  0  0
   -5.5490   -4.4930  -24.0310 H   0  0  0  0  0  0  0  0  0  0  0  0
   -8.0350   -3.1700  -24.2990 C   0  0  0  0  0  0  0  0  0  0  0  0
   -8.8570   -2.6040  -24.7510 H   0  0  0  0  0  0  0  0  0  0  0  0
   -7.0980   -2.8280  -24.7570 H   0  0  0  0  0  0  0  0  0  0  0  0
   -9.2250   -5.0200  -24.6010 H   0  0  0  0  0  0  0  0  0  0  0  0
   -8.9690   -5.0620  -22.1610 H   0  0  0  0  0  0  0  0  0  0  0  0
   -7.1940   -5.1500  -22.3160 H   0  0  0  0  0  0  0  0  0  0  0  0
   -6.8400   -2.5170  -22.0500 C   0  0  0  0  0  0  0  0  0  0  0  0
   -5.6780   -2.8140  -22.2190 O   0  0  0  0  0  0  0  0  0  0  0  0
   -7.3410   -1.5160  -21.2060 N   0  0  0  0  0  0  0  0  0  0  0  0
   -6.5850   -0.8590  -20.1860 C   0  0  0  0  0  0  0  0  0  0  0  0
   -6.9100   -1.0600  -18.8660 C   0  0  0  0  0  0  0  0  0  0  0  0
   -6.2170   -0.5430  -17.8230 N   0  0  0  0  0  0  0  0  0  0  0  0
   -5.1800    0.2080  -18.0950 C   0  0  0  0  0  0  0  0  0  0  0  0
   -4.7470    0.5240  -19.4100 C   0  0  0  0  0  0  0  0  0  0  0  0
   -3.6170    1.3570  -19.6370 C   0  0  0  0  0  0  0  0  0  0  0  0
   -3.2270    1.6590  -20.9110 C   0  0  0  0  0  0  0  0  0  0  0  0
   -3.9570    1.1450  -22.0070 C   0  0  0  0  0  0  0  0  0  0  0  0
   -5.0500    0.3370  -21.8130 C   0  0  0  0  0  0  0  0  0  0  0  0
   -5.4700   -0.0120  -20.4990 C   0  0  0  0  0  0  0  0  0  0  0  0
   -5.5980   -0.0500  -22.6660 H   0  0  0  0  0  0  0  0  0  0  0  0
   -3.6460    1.3960  -23.0150 H   0  0  0  0  0  0  0  0  0  0  0  0
   -2.3690    2.3040  -21.0900 H   0  0  0  0  0  0  0  0  0  0  0  0
   -3.0850    1.7550  -18.7770 H   0  0  0  0  0  0  0  0  0  0  0  0
   -4.6280    0.6110  -17.2460 H   0  0  0  0  0  0  0  0  0  0  0  0
   -7.7560   -1.6850  -18.5970 H   0  0  0  0  0  0  0  0  0  0  0  0
  -10.1000   -2.6060  -22.3650 H   0  0  0  0  0  0  0  0  0  0  0  0
  1  2  2  0  0  0  0
  2  3  1  0  0  0  0
  2 26  1  0  0  0  0
  3  4  1  0  0  0  0
  3 43  1  0  0  0  0
  4  5  1  0  0  0  0
  4 18  1  0  0  0  0
  4 24  1  1  0  0  0
  5  6  1  0  0  0  0
  5 22  1  0  0  0  0
  5 23  1  0  0  0  0
  6  7  1  0  0  0  0
  6 18  1  0  0  0  0
  6 21  1  6  0  0  0
  7  8  2  0  0  0  0
  7 12  1  0  0  0  0
  8  9  1  0  0  0  0
  8 17  1  0  0  0  0
  9 10  2  0  0  0  0
  9 16  1  0  0  0  0
 10 11  1  0  0  0  0
 10 15  1  0  0  0  0
 11 12  2  0  0  0  0
 11 14  1  0  0  0  0
 12 13  1  0  0  0  0
 18 19  1  0  0  0  0
 18 20  1  0  0  0  0
 24 25  2  0  0  0  0
 24 26  1  0  0  0  0
 26 27  1  0  0  0  0
 27 28  2  0  0  0  0
 27 36  1  0  0  0  0
 28 29  1  0  0  0  0
 28 42  1  0  0  0  0
 29 30  2  0  0  0  0
 30 31  1  0  0  0  0
 30 41  1  0  0  0  0
 31 32  2  0  0  0  0
 31 36  1  0  0  0  0
 32 33  1  0  0  0  0
 32 40  1  0  0  0  0
 33 34  2  0  0  0  0
 33 39  1  0  0  0  0
 34 35  1  0  0  0  0
 34 38  1  0  0  0  0
 35 36  2  0  0  0  0
 35 37  1  0  0  0  0
M  END
>  <MODEL>
       1

$$$$
