tmp_first_model_5_75.pdb
 OpenBabel08272519233D

 66 71  0  0  1  0  0  0  0  0999 V2000
   -7.3520    0.9110  -29.0950 C   0  0  0  0  0  0  0  0  0  0  0  0
   -7.7570    1.1350  -27.7190 N   0  0  0  0  0  0  0  0  0  0  0  0
   -6.9230    0.7800  -26.7100 C   0  0  0  0  0  0  0  0  0  0  0  0
   -5.8810    0.1680  -26.8910 O   0  0  0  0  0  0  0  0  0  0  0  0
   -7.3870    1.1740  -25.3020 C   0  0  0  0  0  0  0  0  0  0  0  0
   -8.3800    0.2570  -24.7720 N   0  0  0  0  0  0  0  0  0  0  0  0
   -7.9710   -1.0730  -24.3460 C   0  0  0  0  0  0  0  0  0  0  0  0
   -8.7750   -1.5430  -23.0920 C   0  0  2  0  0  0  0  0  0  0  0  0
   -8.3170   -0.7390  -21.8380 C   0  0  0  0  0  0  0  0  0  0  0  0
   -8.6840    0.3600  -21.4830 O   0  0  0  0  0  0  0  0  0  0  0  0
   -7.3850   -1.5110  -21.1620 N   0  0  0  0  0  0  0  0  0  0  0  0
   -6.4870   -1.0610  -20.1610 C   0  0  0  0  0  0  0  0  0  0  0  0
   -6.6040   -1.5270  -18.8750 C   0  0  0  0  0  0  0  0  0  0  0  0
   -5.6500   -1.3940  -17.9200 N   0  0  0  0  0  0  0  0  0  0  0  0
   -4.5490   -0.7630  -18.2530 C   0  0  0  0  0  0  0  0  0  0  0  0
   -4.3400   -0.1440  -19.5120 C   0  0  0  0  0  0  0  0  0  0  0  0
   -3.2070    0.6790  -19.7530 C   0  0  0  0  0  0  0  0  0  0  0  0
   -3.1370    1.4370  -20.8870 C   0  0  0  0  0  0  0  0  0  0  0  0
   -4.1280    1.3050  -21.8890 C   0  0  0  0  0  0  0  0  0  0  0  0
   -5.2150    0.4930  -21.6920 C   0  0  0  0  0  0  0  0  0  0  0  0
   -5.3500   -0.2540  -20.4900 C   0  0  0  0  0  0  0  0  0  0  0  0
   -6.0250    0.4750  -22.4140 H   0  0  0  0  0  0  0  0  0  0  0  0
   -4.0230    1.8560  -22.8170 H   0  0  0  0  0  0  0  0  0  0  0  0
   -2.3030    2.1150  -21.0410 H   0  0  0  0  0  0  0  0  0  0  0  0
   -2.4690    0.7660  -18.9620 H   0  0  0  0  0  0  0  0  0  0  0  0
   -3.7670   -0.6680  -17.4980 H   0  0  0  0  0  0  0  0  0  0  0  0
   -7.5240   -2.0170  -18.5560 H   0  0  0  0  0  0  0  0  0  0  0  0
   -7.1030   -2.7700  -21.8210 C   0  0  0  0  0  0  0  0  0  0  0  0
   -8.3710   -2.9700  -22.6440 C   0  0  2  0  0  0  0  0  0  0  0  0
   -8.2620   -4.0030  -23.7660 C   0  0  0  0  0  0  0  0  0  0  0  0
   -8.1580   -5.3750  -23.3060 N   0  0  0  0  0  0  0  0  0  0  0  0
   -6.9750   -5.8770  -22.8040 C   0  0  0  0  0  0  0  0  0  0  0  0
   -5.7160   -5.5480  -23.3550 C   0  0  0  0  0  0  0  0  0  0  0  0
   -4.5970   -6.1190  -22.9390 N   0  0  0  0  0  0  0  0  0  0  0  0
   -4.7050   -6.9950  -21.9390 C   0  0  0  0  0  0  0  0  0  0  0  0
   -5.9260   -7.2550  -21.3410 C   0  0  0  0  0  0  0  0  0  0  0  0
   -7.0660   -6.7160  -21.7740 N   0  0  0  0  0  0  0  0  0  0  0  0
   -5.9960   -7.9130  -20.4800 H   0  0  0  0  0  0  0  0  0  0  0  0
   -3.8020   -7.5060  -21.6230 H   0  0  0  0  0  0  0  0  0  0  0  0
   -5.6100   -4.8300  -24.1660 H   0  0  0  0  0  0  0  0  0  0  0  0
   -8.9420   -5.7080  -22.7590 H   0  0  0  0  0  0  0  0  0  0  0  0
   -7.3820   -3.7840  -24.3790 H   0  0  0  0  0  0  0  0  0  0  0  0
   -9.1390   -3.9260  -24.4200 H   0  0  0  0  0  0  0  0  0  0  0  0
   -9.1280   -3.3070  -21.9250 H   0  0  0  0  0  0  0  0  0  0  0  0
   -6.9270   -3.5610  -21.0870 H   0  0  0  0  0  0  0  0  0  0  0  0
   -6.2080   -2.7210  -22.4670 H   0  0  0  0  0  0  0  0  0  0  0  0
  -10.2480   -1.3760  -23.4170 C   0  0  0  0  0  0  0  0  0  0  0  0
  -11.2390   -2.2090  -22.8710 C   0  0  0  0  0  0  0  0  0  0  0  0
  -12.5730   -1.9860  -23.1580 C   0  0  0  0  0  0  0  0  0  0  0  0
  -13.7930   -2.9970  -22.4390 Cl  0  0  0  0  0  0  0  0  0  0  0  0
  -12.9820   -0.9450  -23.9830 C   0  0  0  0  0  0  0  0  0  0  0  0
  -12.0190   -0.1140  -24.5120 C   0  0  0  0  0  0  0  0  0  0  0  0
  -10.6670   -0.3450  -24.2760 C   0  0  0  0  0  0  0  0  0  0  0  0
   -9.6920    0.5400  -24.9920 C   0  0  0  0  0  0  0  0  0  0  0  0
  -10.0400    1.4670  -25.7260 O   0  0  0  0  0  0  0  0  0  0  0  0
  -12.2880    0.7470  -25.1100 H   0  0  0  0  0  0  0  0  0  0  0  0
  -14.0390   -0.7970  -24.1750 H   0  0  0  0  0  0  0  0  0  0  0  0
  -10.9940   -3.0300  -22.2090 H   0  0  0  0  0  0  0  0  0  0  0  0
   -8.1400   -1.7860  -25.1670 H   0  0  0  0  0  0  0  0  0  0  0  0
   -6.8910   -1.0550  -24.1570 H   0  0  0  0  0  0  0  0  0  0  0  0
   -6.5090    1.1790  -24.6490 H   0  0  0  0  0  0  0  0  0  0  0  0
   -7.8390    2.1710  -25.3010 H   0  0  0  0  0  0  0  0  0  0  0  0
   -8.6640    1.5330  -27.5030 H   0  0  0  0  0  0  0  0  0  0  0  0
   -6.3100    1.2210  -29.2240 H   0  0  0  0  0  0  0  0  0  0  0  0
   -7.4200   -0.1460  -29.3830 H   0  0  0  0  0  0  0  0  0  0  0  0
   -7.9880    1.5060  -29.7550 H   0  0  0  0  0  0  0  0  0  0  0  0
  1  2  1  0  0  0  0
  1 64  1  0  0  0  0
  1 65  1  0  0  0  0
  1 66  1  0  0  0  0
  2  3  1  0  0  0  0
  2 63  1  0  0  0  0
  3  4  2  0  0  0  0
  3  5  1  0  0  0  0
  5  6  1  0  0  0  0
  5 61  1  0  0  0  0
  5 62  1  0  0  0  0
  6  7  1  0  0  0  0
  6 54  1  0  0  0  0
  7  8  1  0  0  0  0
  7 59  1  0  0  0  0
  7 60  1  0  0  0  0
  8  9  1  1  0  0  0
  8 29  1  0  0  0  0
  8 47  1  0  0  0  0
  9 10  2  0  0  0  0
  9 11  1  0  0  0  0
 11 12  1  0  0  0  0
 11 28  1  0  0  0  0
 12 13  2  0  0  0  0
 12 21  1  0  0  0  0
 13 14  1  0  0  0  0
 13 27  1  0  0  0  0
 14 15  2  0  0  0  0
 15 16  1  0  0  0  0
 15 26  1  0  0  0  0
 16 17  2  0  0  0  0
 16 21  1  0  0  0  0
 17 18  1  0  0  0  0
 17 25  1  0  0  0  0
 18 19  2  0  0  0  0
 18 24  1  0  0  0  0
 19 20  1  0  0  0  0
 19 23  1  0  0  0  0
 20 21  2  0  0  0  0
 20 22  1  0  0  0  0
 28 29  1  0  0  0  0
 28 45  1  0  0  0  0
 28 46  1  0  0  0  0
 29 30  1  0  0  0  0
 29 44  1  1  0  0  0
 30 31  1  0  0  0  0
 30 42  1  0  0  0  0
 30 43  1  0  0  0  0
 31 32  1  0  0  0  0
 31 41  1  0  0  0  0
 32 33  2  0  0  0  0
 32 37  1  0  0  0  0
 33 34  1  0  0  0  0
 33 40  1  0  0  0  0
 34 35  2  0  0  0  0
 35 36  1  0  0  0  0
 35 39  1  0  0  0  0
 36 37  2  0  0  0  0
 36 38  1  0  0  0  0
 47 48  2  0  0  0  0
 47 53  1  0  0  0  0
 48 49  1  0  0  0  0
 48 58  1  0  0  0  0
 49 50  1  0  0  0  0
 49 51  2  0  0  0  0
 51 52  1  0  0  0  0
 51 57  1  0  0  0  0
 52 53  2  0  0  0  0
 52 56  1  0  0  0  0
 53 54  1  0  0  0  0
 54 55  2  0  0  0  0
M  END
>  <MODEL>
       1

$$$$
