tmp_first_model_9_1.pdb
 OpenBabel08272521403D

 68 73  0  0  1  0  0  0  0  0999 V2000
   -7.3030    3.4630  -21.8800 C   0  0  0  0  0  0  0  0  0  0  0  0
   -8.2940    2.9120  -22.7950 N   0  0  0  0  0  0  0  0  0  0  0  0
   -7.8780    2.2350  -23.8980 C   0  0  0  0  0  0  0  0  0  0  0  0
   -6.6910    2.0610  -24.1460 O   0  0  0  0  0  0  0  0  0  0  0  0
   -8.9950    1.6930  -24.8110 C   0  0  0  0  0  0  0  0  0  0  0  0
   -9.5980    0.5020  -24.2300 N   0  0  0  0  0  0  0  0  0  0  0  0
   -8.7610   -0.6790  -24.0670 C   0  0  0  0  0  0  0  0  0  0  0  0
   -9.1000   -1.4830  -22.7770 C   0  0  2  0  0  0  0  0  0  0  0  0
   -8.6040   -0.6820  -21.5470 C   0  0  0  0  0  0  0  0  0  0  0  0
   -9.1200    0.2970  -21.0500 O   0  0  0  0  0  0  0  0  0  0  0  0
   -7.4400   -1.2540  -21.0930 N   0  0  0  0  0  0  0  0  0  0  0  0
   -6.6390   -0.6890  -20.0870 C   0  0  0  0  0  0  0  0  0  0  0  0
   -6.9140   -0.9630  -18.7750 C   0  0  0  0  0  0  0  0  0  0  0  0
   -6.1690   -0.5110  -17.7430 N   0  0  0  0  0  0  0  0  0  0  0  0
   -5.1310    0.2360  -18.0310 C   0  0  0  0  0  0  0  0  0  0  0  0
   -4.7170    0.5650  -19.3550 C   0  0  0  0  0  0  0  0  0  0  0  0
   -3.5870    1.3840  -19.6200 C   0  0  0  0  0  0  0  0  0  0  0  0
   -3.2230    1.6720  -20.9080 C   0  0  0  0  0  0  0  0  0  0  0  0
   -3.9730    1.1610  -21.9930 C   0  0  0  0  0  0  0  0  0  0  0  0
   -5.0810    0.3820  -21.7630 C   0  0  0  0  0  0  0  0  0  0  0  0
   -5.4850    0.0730  -20.4320 C   0  0  0  0  0  0  0  0  0  0  0  0
   -5.6660    0.0210  -22.6060 H   0  0  0  0  0  0  0  0  0  0  0  0
   -3.6850    1.3980  -23.0140 H   0  0  0  0  0  0  0  0  0  0  0  0
   -2.3670    2.3120  -21.1040 H   0  0  0  0  0  0  0  0  0  0  0  0
   -3.0450    1.7890  -18.7700 H   0  0  0  0  0  0  0  0  0  0  0  0
   -4.5540    0.6190  -17.1910 H   0  0  0  0  0  0  0  0  0  0  0  0
   -7.7700   -1.5890  -18.5260 H   0  0  0  0  0  0  0  0  0  0  0  0
   -6.9900   -2.3990  -21.8260 C   0  0  0  0  0  0  0  0  0  0  0  0
   -8.2260   -2.7780  -22.6380 C   0  0  2  0  0  0  0  0  0  0  0  0
   -7.7890   -3.4770  -23.9080 C   0  0  0  0  0  0  0  0  0  0  0  0
   -8.9320   -4.0220  -24.5810 N   0  0  0  0  0  0  0  0  0  0  0  0
   -8.7970   -4.5760  -25.8360 C   0  0  0  0  0  0  0  0  0  0  0  0
   -7.6260   -4.7050  -26.6240 C   0  0  0  0  0  0  0  0  0  0  0  0
   -7.8950   -5.2770  -27.7940 N   0  0  0  0  0  0  0  0  0  0  0  0
   -9.1980   -5.5530  -27.7540 N   0  0  0  0  0  0  0  0  0  0  0  0
   -9.8970   -5.9990  -28.9230 C   0  0  0  0  0  0  0  0  0  0  0  0
  -10.6350   -5.2510  -29.2100 H   0  0  0  0  0  0  0  0  0  0  0  0
  -10.4180   -6.9410  -28.7470 H   0  0  0  0  0  0  0  0  0  0  0  0
   -9.1560   -6.1100  -29.7070 H   0  0  0  0  0  0  0  0  0  0  0  0
   -9.7900   -5.1490  -26.6050 C   0  0  0  0  0  0  0  0  0  0  0  0
  -10.8340   -5.3480  -26.4310 H   0  0  0  0  0  0  0  0  0  0  0  0
   -6.6080   -4.4220  -26.3640 H   0  0  0  0  0  0  0  0  0  0  0  0
   -9.8460   -3.6430  -24.3680 H   0  0  0  0  0  0  0  0  0  0  0  0
   -7.2080   -2.7670  -24.5260 H   0  0  0  0  0  0  0  0  0  0  0  0
   -7.0850   -4.2900  -23.6830 H   0  0  0  0  0  0  0  0  0  0  0  0
   -8.7980   -3.4990  -22.0510 H   0  0  0  0  0  0  0  0  0  0  0  0
   -6.1270   -2.1540  -22.4660 H   0  0  0  0  0  0  0  0  0  0  0  0
   -6.6660   -3.2030  -21.1530 H   0  0  0  0  0  0  0  0  0  0  0  0
  -10.6140   -1.6760  -22.7140 C   0  0  0  0  0  0  0  0  0  0  0  0
  -11.2010   -2.6720  -21.9150 C   0  0  0  0  0  0  0  0  0  0  0  0
  -12.5790   -2.7400  -21.7730 C   0  0  0  0  0  0  0  0  0  0  0  0
  -13.2780   -3.9230  -20.7000 Cl  0  0  0  0  0  0  0  0  0  0  0  0
  -13.4230   -1.8530  -22.4380 C   0  0  0  0  0  0  0  0  0  0  0  0
  -12.8590   -0.8650  -23.2190 C   0  0  0  0  0  0  0  0  0  0  0  0
  -11.4740   -0.7500  -23.3350 C   0  0  0  0  0  0  0  0  0  0  0  0
  -10.9570    0.4380  -24.0940 C   0  0  0  0  0  0  0  0  0  0  0  0
  -11.7090    1.2980  -24.5350 O   0  0  0  0  0  0  0  0  0  0  0  0
  -13.4800   -0.1430  -23.7400 H   0  0  0  0  0  0  0  0  0  0  0  0
  -14.4980   -1.9300  -22.3250 H   0  0  0  0  0  0  0  0  0  0  0  0
  -10.6050   -3.3860  -21.3570 H   0  0  0  0  0  0  0  0  0  0  0  0
   -7.7250   -0.3370  -24.0060 H   0  0  0  0  0  0  0  0  0  0  0  0
   -8.8640   -1.3170  -24.9560 H   0  0  0  0  0  0  0  0  0  0  0  0
   -9.8050    2.4170  -24.9510 H   0  0  0  0  0  0  0  0  0  0  0  0
   -8.5730    1.4890  -25.8050 H   0  0  0  0  0  0  0  0  0  0  0  0
   -9.2380    2.7730  -22.4570 H   0  0  0  0  0  0  0  0  0  0  0  0
   -6.6480    4.1520  -22.4180 H   0  0  0  0  0  0  0  0  0  0  0  0
   -7.8000    4.0150  -21.0780 H   0  0  0  0  0  0  0  0  0  0  0  0
   -6.6680    2.6730  -21.4580 H   0  0  0  0  0  0  0  0  0  0  0  0
  1  2  1  0  0  0  0
  1 66  1  0  0  0  0
  1 67  1  0  0  0  0
  1 68  1  0  0  0  0
  2  3  1  0  0  0  0
  2 65  1  0  0  0  0
  3  4  2  0  0  0  0
  3  5  1  0  0  0  0
  5  6  1  0  0  0  0
  5 63  1  0  0  0  0
  5 64  1  0  0  0  0
  6  7  1  0  0  0  0
  6 56  1  0  0  0  0
  7  8  1  0  0  0  0
  7 61  1  0  0  0  0
  7 62  1  0  0  0  0
  8  9  1  1  0  0  0
  8 29  1  0  0  0  0
  8 49  1  0  0  0  0
  9 10  2  0  0  0  0
  9 11  1  0  0  0  0
 11 12  1  0  0  0  0
 11 28  1  0  0  0  0
 12 13  2  0  0  0  0
 12 21  1  0  0  0  0
 13 14  1  0  0  0  0
 13 27  1  0  0  0  0
 14 15  2  0  0  0  0
 15 16  1  0  0  0  0
 15 26  1  0  0  0  0
 16 17  2  0  0  0  0
 16 21  1  0  0  0  0
 17 18  1  0  0  0  0
 17 25  1  0  0  0  0
 18 19  2  0  0  0  0
 18 24  1  0  0  0  0
 19 20  1  0  0  0  0
 19 23  1  0  0  0  0
 20 21  2  0  0  0  0
 20 22  1  0  0  0  0
 28 29  1  0  0  0  0
 28 47  1  0  0  0  0
 28 48  1  0  0  0  0
 29 30  1  0  0  0  0
 29 46  1  1  0  0  0
 30 31  1  0  0  0  0
 30 44  1  0  0  0  0
 30 45  1  0  0  0  0
 31 32  1  0  0  0  0
 31 43  1  0  0  0  0
 32 33  1  0  0  0  0
 32 40  2  0  0  0  0
 33 34  2  0  0  0  0
 33 42  1  0  0  0  0
 34 35  1  0  0  0  0
 35 36  1  0  0  0  0
 35 40  1  0  0  0  0
 36 37  1  0  0  0  0
 36 38  1  0  0  0  0
 36 39  1  0  0  0  0
 40 41  1  0  0  0  0
 49 50  2  0  0  0  0
 49 55  1  0  0  0  0
 50 51  1  0  0  0  0
 50 60  1  0  0  0  0
 51 52  1  0  0  0  0
 51 53  2  0  0  0  0
 53 54  1  0  0  0  0
 53 59  1  0  0  0  0
 54 55  2  0  0  0  0
 54 58  1  0  0  0  0
 55 56  1  0  0  0  0
 56 57  2  0  0  0  0
M  END
>  <MODEL>
       1

$$$$
