tmp_first_model_18_32.pdb
 OpenBabel08282502533D

 57 62  0  0  1  0  0  0  0  0999 V2000
  -10.2220   -2.9750  -22.0740 C   0  0  0  0  0  0  0  0  0  0  0  0
   -9.1490   -2.0280  -22.6330 C   0  0  1  0  0  0  0  0  0  0  0  0
   -8.6780   -1.0460  -21.5400 C   0  0  0  0  0  0  0  0  0  0  0  0
   -7.3390   -1.4700  -21.2060 N   0  0  0  0  0  0  0  0  0  0  0  0
   -6.5670   -0.8630  -20.1860 C   0  0  0  0  0  0  0  0  0  0  0  0
   -6.9050   -1.0560  -18.8710 C   0  0  0  0  0  0  0  0  0  0  0  0
   -6.2240   -0.5430  -17.8170 N   0  0  0  0  0  0  0  0  0  0  0  0
   -5.1840    0.2110  -18.0860 C   0  0  0  0  0  0  0  0  0  0  0  0
   -4.7410    0.5160  -19.4060 C   0  0  0  0  0  0  0  0  0  0  0  0
   -3.6190    1.3560  -19.6340 C   0  0  0  0  0  0  0  0  0  0  0  0
   -3.2320    1.6650  -20.9090 C   0  0  0  0  0  0  0  0  0  0  0  0
   -3.9520    1.1510  -22.0130 C   0  0  0  0  0  0  0  0  0  0  0  0
   -5.0380    0.3330  -21.8230 C   0  0  0  0  0  0  0  0  0  0  0  0
   -5.4520   -0.0210  -20.5030 C   0  0  0  0  0  0  0  0  0  0  0  0
   -5.5830   -0.0500  -22.6870 H   0  0  0  0  0  0  0  0  0  0  0  0
   -3.6400    1.4080  -23.0220 H   0  0  0  0  0  0  0  0  0  0  0  0
   -2.3740    2.3080  -21.0840 H   0  0  0  0  0  0  0  0  0  0  0  0
   -3.0900    1.7540  -18.7720 H   0  0  0  0  0  0  0  0  0  0  0  0
   -4.6330    0.6230  -17.2400 H   0  0  0  0  0  0  0  0  0  0  0  0
   -7.7610   -1.6840  -18.6220 H   0  0  0  0  0  0  0  0  0  0  0  0
   -6.8190   -2.4190  -22.0490 C   0  0  0  0  0  0  0  0  0  0  0  0
   -5.7270   -2.9320  -21.9160 O   0  0  0  0  0  0  0  0  0  0  0  0
   -7.8460   -2.6980  -23.1620 C   0  0  1  0  0  0  0  0  0  0  0  0
   -7.9770   -4.2170  -23.3770 C   0  0  0  0  0  0  0  0  0  0  0  0
   -6.7680   -4.7670  -23.9750 N   0  0  0  0  0  0  0  0  0  0  0  0
   -6.1500   -5.9160  -23.3210 C   0  0  0  0  0  0  0  0  0  0  0  0
   -7.1410   -7.0360  -23.2950 C   0  0  0  0  0  0  0  0  0  0  0  0
   -7.8010   -7.5480  -22.2780 N   0  0  0  0  0  0  0  0  0  0  0  0
   -8.8390   -8.2170  -22.8150 N   0  0  0  0  0  0  0  0  0  0  0  0
   -8.8260   -8.1440  -24.0940 N   0  0  0  0  0  0  0  0  0  0  0  0
   -7.7330   -7.4460  -24.4260 N   0  0  0  0  0  0  0  0  0  0  0  0
   -7.2530   -7.3730  -25.7800 C   0  0  0  0  0  0  0  0  0  0  0  0
   -7.4800   -6.4200  -26.2530 H   0  0  0  0  0  0  0  0  0  0  0  0
   -6.1780   -7.5280  -25.7860 H   0  0  0  0  0  0  0  0  0  0  0  0
   -7.7450   -8.1680  -26.3210 H   0  0  0  0  0  0  0  0  0  0  0  0
   -5.8580   -5.6570  -22.2960 H   0  0  0  0  0  0  0  0  0  0  0  0
   -5.2480   -6.1560  -23.8910 H   0  0  0  0  0  0  0  0  0  0  0  0
   -6.1980   -4.2260  -25.0870 C   0  0  0  0  0  0  0  0  0  0  0  0
   -5.3760   -4.8270  -25.7780 O   0  0  0  0  0  0  0  0  0  0  0  0
   -6.6030   -2.8210  -25.3820 C   0  0  0  0  0  0  0  0  0  0  0  0
   -6.1290   -2.2580  -26.5630 C   0  0  0  0  0  0  0  0  0  0  0  0
   -6.3630   -0.9280  -26.8440 C   0  0  0  0  0  0  0  0  0  0  0  0
   -7.0670   -0.1730  -25.9130 C   0  0  0  0  0  0  0  0  0  0  0  0
   -7.2750    1.1320  -26.1700 F   0  0  0  0  0  0  0  0  0  0  0  0
   -7.5570   -0.7120  -24.7370 C   0  0  0  0  0  0  0  0  0  0  0  0
   -7.3520   -2.0730  -24.4650 C   0  0  0  0  0  0  0  0  0  0  0  0
   -8.0930   -0.0520  -24.0610 H   0  0  0  0  0  0  0  0  0  0  0  0
   -5.9950   -0.4500  -27.7430 H   0  0  0  0  0  0  0  0  0  0  0  0
   -5.5580   -2.8970  -27.2280 H   0  0  0  0  0  0  0  0  0  0  0  0
   -8.8390   -4.4080  -24.0310 H   0  0  0  0  0  0  0  0  0  0  0  0
   -8.1400   -4.7270  -22.4250 H   0  0  0  0  0  0  0  0  0  0  0  0
   -8.6890    0.0020  -21.8690 H   0  0  0  0  0  0  0  0  0  0  0  0
   -9.3240   -1.1100  -20.6690 H   0  0  0  0  0  0  0  0  0  0  0  0
   -9.6250   -1.4850  -23.4560 H   0  0  0  0  0  0  0  0  0  0  0  0
  -10.6060   -3.6550  -22.8420 H   0  0  0  0  0  0  0  0  0  0  0  0
  -11.0750   -2.3990  -21.6970 H   0  0  0  0  0  0  0  0  0  0  0  0
   -9.8360   -3.5770  -21.2440 H   0  0  0  0  0  0  0  0  0  0  0  0
  1  2  1  0  0  0  0
  1 55  1  0  0  0  0
  1 56  1  0  0  0  0
  1 57  1  0  0  0  0
  2  3  1  0  0  0  0
  2 23  1  0  0  0  0
  2 54  1  6  0  0  0
  3  4  1  0  0  0  0
  3 52  1  0  0  0  0
  3 53  1  0  0  0  0
  4  5  1  0  0  0  0
  4 21  1  0  0  0  0
  5  6  2  0  0  0  0
  5 14  1  0  0  0  0
  6  7  1  0  0  0  0
  6 20  1  0  0  0  0
  7  8  2  0  0  0  0
  8  9  1  0  0  0  0
  8 19  1  0  0  0  0
  9 10  2  0  0  0  0
  9 14  1  0  0  0  0
 10 11  1  0  0  0  0
 10 18  1  0  0  0  0
 11 12  2  0  0  0  0
 11 17  1  0  0  0  0
 12 13  1  0  0  0  0
 12 16  1  0  0  0  0
 13 14  2  0  0  0  0
 13 15  1  0  0  0  0
 21 22  2  0  0  0  0
 23 21  1  1  0  0  0
 23 24  1  0  0  0  0
 23 46  1  0  0  0  0
 24 25  1  0  0  0  0
 24 50  1  0  0  0  0
 24 51  1  0  0  0  0
 25 26  1  0  0  0  0
 25 38  1  0  0  0  0
 26 27  1  0  0  0  0
 26 36  1  0  0  0  0
 26 37  1  0  0  0  0
 27 28  2  0  0  0  0
 27 31  1  0  0  0  0
 28 29  1  0  0  0  0
 29 30  2  0  0  0  0
 30 31  1  0  0  0  0
 31 32  1  0  0  0  0
 32 33  1  0  0  0  0
 32 34  1  0  0  0  0
 32 35  1  0  0  0  0
 38 39  2  0  0  0  0
 38 40  1  0  0  0  0
 40 41  2  0  0  0  0
 40 46  1  0  0  0  0
 41 42  1  0  0  0  0
 41 49  1  0  0  0  0
 42 43  2  0  0  0  0
 42 48  1  0  0  0  0
 43 44  1  0  0  0  0
 43 45  1  0  0  0  0
 45 46  2  0  0  0  0
 45 47  1  0  0  0  0
M  END
>  <MODEL>
       1

$$$$
