tmp_first_model_9_74.pdb
 OpenBabel08272521403D

 43 47  0  0  1  0  0  0  0  0999 V2000
   -9.4300   -0.4550  -20.9880 O   0  0  0  0  0  0  0  0  0  0  0  0
   -8.7460   -1.3650  -21.3800 C   0  0  0  0  0  0  0  0  0  0  0  0
   -9.1370   -2.4530  -22.1140 N   0  0  0  0  0  0  0  0  0  0  0  0
   -8.0410   -3.1480  -22.7410 C   0  0  1  0  0  0  0  0  0  0  0  0
   -8.1050   -4.6900  -22.7170 C   0  0  0  0  0  0  0  0  0  0  0  0
   -8.2240   -4.7230  -24.2750 C   0  0  2  0  0  0  0  0  0  0  0  0
   -7.1770   -5.5230  -24.9870 C   0  0  0  0  0  0  0  0  0  0  0  0
   -5.8200   -5.2780  -24.7420 C   0  0  0  0  0  0  0  0  0  0  0  0
   -4.8310   -6.0110  -25.3860 C   0  0  0  0  0  0  0  0  0  0  0  0
   -5.1810   -7.0130  -26.2900 C   0  0  0  0  0  0  0  0  0  0  0  0
   -6.5200   -7.2770  -26.5450 C   0  0  0  0  0  0  0  0  0  0  0  0
   -7.4980   -6.5340  -25.8930 C   0  0  0  0  0  0  0  0  0  0  0  0
   -9.1670   -6.9170  -26.2490 Cl  0  0  0  0  0  0  0  0  0  0  0  0
   -6.8270   -8.0530  -27.2410 H   0  0  0  0  0  0  0  0  0  0  0  0
   -4.4110   -7.5880  -26.7980 H   0  0  0  0  0  0  0  0  0  0  0  0
   -3.7870   -5.7960  -25.1800 H   0  0  0  0  0  0  0  0  0  0  0  0
   -5.5480   -4.4960  -24.0300 H   0  0  0  0  0  0  0  0  0  0  0  0
   -8.0350   -3.1710  -24.2980 C   0  0  0  0  0  0  0  0  0  0  0  0
   -8.8570   -2.6040  -24.7510 H   0  0  0  0  0  0  0  0  0  0  0  0
   -7.0980   -2.8270  -24.7560 H   0  0  0  0  0  0  0  0  0  0  0  0
   -9.2250   -5.0190  -24.6020 H   0  0  0  0  0  0  0  0  0  0  0  0
   -8.9700   -5.0690  -22.1640 H   0  0  0  0  0  0  0  0  0  0  0  0
   -7.1940   -5.1500  -22.3160 H   0  0  0  0  0  0  0  0  0  0  0  0
   -6.8410   -2.5180  -22.0520 C   0  0  0  0  0  0  0  0  0  0  0  0
   -5.6800   -2.8140  -22.2230 O   0  0  0  0  0  0  0  0  0  0  0  0
   -7.3410   -1.5160  -21.2080 N   0  0  0  0  0  0  0  0  0  0  0  0
   -6.5840   -0.8580  -20.1890 C   0  0  0  0  0  0  0  0  0  0  0  0
   -6.9060   -1.0600  -18.8690 C   0  0  0  0  0  0  0  0  0  0  0  0
   -6.2080   -0.5450  -17.8300 N   0  0  0  0  0  0  0  0  0  0  0  0
   -5.1750    0.2090  -18.0990 C   0  0  0  0  0  0  0  0  0  0  0  0
   -4.7440    0.5260  -19.4140 C   0  0  0  0  0  0  0  0  0  0  0  0
   -3.6140    1.3580  -19.6390 C   0  0  0  0  0  0  0  0  0  0  0  0
   -3.2250    1.6620  -20.9130 C   0  0  0  0  0  0  0  0  0  0  0  0
   -3.9570    1.1480  -22.0070 C   0  0  0  0  0  0  0  0  0  0  0  0
   -5.0500    0.3390  -21.8140 C   0  0  0  0  0  0  0  0  0  0  0  0
   -5.4690   -0.0100  -20.5010 C   0  0  0  0  0  0  0  0  0  0  0  0
   -5.5950   -0.0520  -22.6670 H   0  0  0  0  0  0  0  0  0  0  0  0
   -3.6460    1.3910  -23.0170 H   0  0  0  0  0  0  0  0  0  0  0  0
   -2.3670    2.3060  -21.0920 H   0  0  0  0  0  0  0  0  0  0  0  0
   -3.0850    1.7560  -18.7780 H   0  0  0  0  0  0  0  0  0  0  0  0
   -4.6260    0.6110  -17.2490 H   0  0  0  0  0  0  0  0  0  0  0  0
   -7.7530   -1.6830  -18.5950 H   0  0  0  0  0  0  0  0  0  0  0  0
  -10.1010   -2.6050  -22.3670 H   0  0  0  0  0  0  0  0  0  0  0  0
  1  2  2  0  0  0  0
  2  3  1  0  0  0  0
  2 26  1  0  0  0  0
  3  4  1  0  0  0  0
  3 43  1  0  0  0  0
  4  5  1  0  0  0  0
  4 18  1  0  0  0  0
  4 24  1  1  0  0  0
  5  6  1  0  0  0  0
  5 22  1  0  0  0  0
  5 23  1  0  0  0  0
  6  7  1  0  0  0  0
  6 18  1  0  0  0  0
  6 21  1  6  0  0  0
  7  8  2  0  0  0  0
  7 12  1  0  0  0  0
  8  9  1  0  0  0  0
  8 17  1  0  0  0  0
  9 10  2  0  0  0  0
  9 16  1  0  0  0  0
 10 11  1  0  0  0  0
 10 15  1  0  0  0  0
 11 12  2  0  0  0  0
 11 14  1  0  0  0  0
 12 13  1  0  0  0  0
 18 19  1  0  0  0  0
 18 20  1  0  0  0  0
 24 25  2  0  0  0  0
 24 26  1  0  0  0  0
 26 27  1  0  0  0  0
 27 28  2  0  0  0  0
 27 36  1  0  0  0  0
 28 29  1  0  0  0  0
 28 42  1  0  0  0  0
 29 30  2  0  0  0  0
 30 31  1  0  0  0  0
 30 41  1  0  0  0  0
 31 32  2  0  0  0  0
 31 36  1  0  0  0  0
 32 33  1  0  0  0  0
 32 40  1  0  0  0  0
 33 34  2  0  0  0  0
 33 39  1  0  0  0  0
 34 35  1  0  0  0  0
 34 38  1  0  0  0  0
 35 36  2  0  0  0  0
 35 37  1  0  0  0  0
M  END
>  <MODEL>
       1

$$$$
