tmp_first_model_17_12.pdb
 OpenBabel08282502223D

 76 82  0  0  1  0  0  0  0  0999 V2000
  -12.6740    0.0020  -23.6100 O   0  0  0  0  0  0  0  0  0  0  0  0
  -11.6860   -0.6870  -23.3710 C   0  0  0  0  0  0  0  0  0  0  0  0
  -11.7970   -1.8650  -22.4720 C   0  0  0  0  0  0  0  0  0  0  0  0
  -13.0220   -2.0600  -21.8440 C   0  0  0  0  0  0  0  0  0  0  0  0
  -13.1590   -3.0540  -20.9070 C   0  0  0  0  0  0  0  0  0  0  0  0
  -12.1630   -4.0070  -20.7950 C   0  0  0  0  0  0  0  0  0  0  0  0
  -12.2340   -5.0460  -19.3280 Cl  0  0  0  0  0  0  0  0  0  0  0  0
  -10.9610   -3.8650  -21.4860 C   0  0  0  0  0  0  0  0  0  0  0  0
  -10.6950   -2.6740  -22.1760 C   0  0  0  0  0  0  0  0  0  0  0  0
   -9.2970   -2.1600  -22.5030 C   0  0  1  0  0  0  0  0  0  0  0  0
   -9.3990   -1.4110  -23.8600 C   0  0  0  0  0  0  0  0  0  0  0  0
  -10.4390   -0.3970  -23.8280 N   0  0  0  0  0  0  0  0  0  0  0  0
  -10.2150    0.8570  -24.5230 C   0  0  0  0  0  0  0  0  0  0  0  0
   -9.2740    1.7780  -23.7310 C   0  0  0  0  0  0  0  0  0  0  0  0
   -9.9900    2.9140  -23.1180 N   0  3  0  0  0  0  0  0  0  0  0  0
  -10.4120    3.9370  -24.1270 C   0  0  0  0  0  0  0  0  0  0  0  0
  -10.8230    5.2030  -23.3720 C   0  0  0  0  0  0  0  0  0  0  0  0
  -11.0460    4.9180  -22.0030 O   0  0  0  0  0  0  0  0  0  0  0  0
  -11.8820    3.7980  -21.8140 C   0  0  0  0  0  0  0  0  0  0  0  0
  -11.1350    2.5190  -22.2050 C   0  0  0  0  0  0  0  0  0  0  0  0
  -10.7060    2.0120  -21.3340 H   0  0  0  0  0  0  0  0  0  0  0  0
  -11.8230    1.8470  -22.7080 H   0  0  0  0  0  0  0  0  0  0  0  0
  -12.1400    3.7570  -20.7520 H   0  0  0  0  0  0  0  0  0  0  0  0
  -12.8060    3.8970  -22.4030 H   0  0  0  0  0  0  0  0  0  0  0  0
  -10.0210    5.9470  -23.3920 H   0  0  0  0  0  0  0  0  0  0  0  0
  -11.7200    5.6480  -23.8280 H   0  0  0  0  0  0  0  0  0  0  0  0
   -9.5660    4.1310  -24.7900 H   0  0  0  0  0  0  0  0  0  0  0  0
  -11.2420    3.5580  -24.7310 H   0  0  0  0  0  0  0  0  0  0  0  0
   -9.3450    3.4110  -22.4730 H   0  0  0  0  0  0  0  0  0  0  0  0
   -8.7790    1.2290  -22.9260 H   0  0  0  0  0  0  0  0  0  0  0  0
   -8.4920    2.1830  -24.3830 H   0  0  0  0  0  0  0  0  0  0  0  0
   -9.8290    0.6500  -25.5260 H   0  0  0  0  0  0  0  0  0  0  0  0
  -11.1960    1.3190  -24.6650 H   0  0  0  0  0  0  0  0  0  0  0  0
   -8.4530   -0.9210  -24.1010 H   0  0  0  0  0  0  0  0  0  0  0  0
   -9.6180   -2.1250  -24.6670 H   0  0  0  0  0  0  0  0  0  0  0  0
   -8.7340   -1.1550  -21.4590 C   0  0  0  0  0  0  0  0  0  0  0  0
   -9.3140   -0.1860  -21.0070 O   0  0  0  0  0  0  0  0  0  0  0  0
   -7.4120   -1.4690  -21.2070 N   0  0  0  0  0  0  0  0  0  0  0  0
   -6.6500   -0.8340  -20.1870 C   0  0  0  0  0  0  0  0  0  0  0  0
   -6.9560   -1.0470  -18.8630 C   0  0  0  0  0  0  0  0  0  0  0  0
   -6.2490   -0.5530  -17.8130 N   0  0  0  0  0  0  0  0  0  0  0  0
   -5.2040    0.1900  -18.0830 C   0  0  0  0  0  0  0  0  0  0  0  0
   -4.7770    0.5040  -19.4030 C   0  0  0  0  0  0  0  0  0  0  0  0
   -3.6520    1.3390  -19.6320 C   0  0  0  0  0  0  0  0  0  0  0  0
   -3.2710    1.6500  -20.9080 C   0  0  0  0  0  0  0  0  0  0  0  0
   -3.9920    1.1350  -22.0080 C   0  0  0  0  0  0  0  0  0  0  0  0
   -5.0810    0.3180  -21.8110 C   0  0  0  0  0  0  0  0  0  0  0  0
   -5.5080   -0.0190  -20.4980 C   0  0  0  0  0  0  0  0  0  0  0  0
   -5.6280   -0.0580  -22.6700 H   0  0  0  0  0  0  0  0  0  0  0  0
   -3.6760    1.3860  -23.0170 H   0  0  0  0  0  0  0  0  0  0  0  0
   -2.4090    2.2880  -21.0870 H   0  0  0  0  0  0  0  0  0  0  0  0
   -3.1090    1.7280  -18.7730 H   0  0  0  0  0  0  0  0  0  0  0  0
   -4.6280    0.5880  -17.2440 H   0  0  0  0  0  0  0  0  0  0  0  0
   -7.8100   -1.6670  -18.6030 H   0  0  0  0  0  0  0  0  0  0  0  0
   -6.9180   -2.5760  -22.0140 C   0  0  0  0  0  0  0  0  0  0  0  0
   -8.2090   -3.2500  -22.4960 C   0  0  2  0  0  0  0  0  0  0  0  0
   -8.0950   -4.0040  -23.8120 C   0  0  0  0  0  0  0  0  0  0  0  0
   -7.1770   -5.1090  -23.7160 N   0  0  0  0  0  0  0  0  0  0  0  0
   -6.9120   -5.9090  -24.7750 C   0  0  0  0  0  0  0  0  0  0  0  0
   -6.0670   -6.9310  -24.5390 N   0  0  0  0  0  0  0  0  0  0  0  0
   -5.7790   -7.6870  -25.5860 C   0  0  0  0  0  0  0  0  0  0  0  0
   -6.3020   -7.4730  -26.8570 C   0  0  0  0  0  0  0  0  0  0  0  0
   -7.1780   -6.4050  -26.9730 C   0  0  0  0  0  0  0  0  0  0  0  0
   -7.4890   -5.6090  -25.9520 N   0  0  0  0  0  0  0  0  0  0  0  0
   -7.6440   -6.1730  -27.9310 H   0  0  0  0  0  0  0  0  0  0  0  0
   -6.0490   -8.1080  -27.6960 H   0  0  0  0  0  0  0  0  0  0  0  0
   -5.0890   -8.5060  -25.3940 H   0  0  0  0  0  0  0  0  0  0  0  0
   -6.8220   -5.4120  -22.8240 H   0  0  0  0  0  0  0  0  0  0  0  0
   -7.7470   -3.3410  -24.6160 H   0  0  0  0  0  0  0  0  0  0  0  0
   -9.0880   -4.3710  -24.1060 H   0  0  0  0  0  0  0  0  0  0  0  0
   -8.4770   -3.9560  -21.7060 H   0  0  0  0  0  0  0  0  0  0  0  0
   -6.3110   -3.2480  -21.4000 H   0  0  0  0  0  0  0  0  0  0  0  0
   -6.2960   -2.2300  -22.8520 H   0  0  0  0  0  0  0  0  0  0  0  0
  -10.2100   -4.6340  -21.3830 H   0  0  0  0  0  0  0  0  0  0  0  0
  -14.0440   -3.1240  -20.2880 H   0  0  0  0  0  0  0  0  0  0  0  0
  -13.8360   -1.3830  -22.0750 H   0  0  0  0  0  0  0  0  0  0  0  0
  1  2  2  0  0  0  0
  2  3  1  0  0  0  0
  2 12  1  0  0  0  0
  3  4  2  0  0  0  0
  3  9  1  0  0  0  0
  4  5  1  0  0  0  0
  4 76  1  0  0  0  0
  5  6  2  0  0  0  0
  5 75  1  0  0  0  0
  6  7  1  0  0  0  0
  6  8  1  0  0  0  0
  8  9  2  0  0  0  0
  8 74  1  0  0  0  0
 10  9  1  1  0  0  0
 10 11  1  0  0  0  0
 10 36  1  0  0  0  0
 10 56  1  0  0  0  0
 11 12  1  0  0  0  0
 11 34  1  0  0  0  0
 11 35  1  0  0  0  0
 12 13  1  0  0  0  0
 13 14  1  0  0  0  0
 13 32  1  0  0  0  0
 13 33  1  0  0  0  0
 14 15  1  0  0  0  0
 14 30  1  0  0  0  0
 14 31  1  0  0  0  0
 15 16  1  0  0  0  0
 15 20  1  0  0  0  0
 15 29  1  0  0  0  0
 16 17  1  0  0  0  0
 16 27  1  0  0  0  0
 16 28  1  0  0  0  0
 17 18  1  0  0  0  0
 17 25  1  0  0  0  0
 17 26  1  0  0  0  0
 18 19  1  0  0  0  0
 19 20  1  0  0  0  0
 19 23  1  0  0  0  0
 19 24  1  0  0  0  0
 20 21  1  0  0  0  0
 20 22  1  0  0  0  0
 36 37  2  0  0  0  0
 36 38  1  0  0  0  0
 38 39  1  0  0  0  0
 38 55  1  0  0  0  0
 39 40  2  0  0  0  0
 39 48  1  0  0  0  0
 40 41  1  0  0  0  0
 40 54  1  0  0  0  0
 41 42  2  0  0  0  0
 42 43  1  0  0  0  0
 42 53  1  0  0  0  0
 43 44  2  0  0  0  0
 43 48  1  0  0  0  0
 44 45  1  0  0  0  0
 44 52  1  0  0  0  0
 45 46  2  0  0  0  0
 45 51  1  0  0  0  0
 46 47  1  0  0  0  0
 46 50  1  0  0  0  0
 47 48  2  0  0  0  0
 47 49  1  0  0  0  0
 55 56  1  0  0  0  0
 55 72  1  0  0  0  0
 55 73  1  0  0  0  0
 56 57  1  0  0  0  0
 56 71  1  1  0  0  0
 57 58  1  0  0  0  0
 57 69  1  0  0  0  0
 57 70  1  0  0  0  0
 58 59  1  0  0  0  0
 58 68  1  0  0  0  0
 59 60  2  0  0  0  0
 59 64  1  0  0  0  0
 60 61  1  0  0  0  0
 61 62  2  0  0  0  0
 61 67  1  0  0  0  0
 62 63  1  0  0  0  0
 62 66  1  0  0  0  0
 63 64  2  0  0  0  0
 63 65  1  0  0  0  0
M  CHG  1  15   1
M  END
>  <MODEL>
       1

$$$$
