tmp_first_model_10_66.pdb
 OpenBabel08272522163D

 44 47  0  0  1  0  0  0  0  0999 V2000
  -10.7030   -3.4750  -21.7770 C   0  0  0  0  0  0  0  0  0  0  0  0
  -10.4030   -3.5080  -21.9870 C   0  0  0  0  0  0  0  0  0  0  0  0
   -9.9410   -2.3480  -22.6290 C   0  0  1  0  0  0  0  0  0  0  0  0
  -10.3520   -2.3060  -24.0520 C   0  0  0  0  0  0  0  0  0  0  0  0
  -10.2100   -3.3880  -24.9990 C   0  0  0  0  0  0  0  0  0  0  0  0
  -10.5290   -3.0420  -26.2730 C   0  0  0  0  0  0  0  0  0  0  0  0
  -11.0470   -1.4000  -26.3630 S   0  0  0  0  0  0  0  0  0  0  0  0
  -10.7420   -1.1640  -24.6780 C   0  0  0  0  0  0  0  0  0  0  0  0
  -10.8000    0.1840  -24.0160 C   0  0  0  0  0  0  0  0  0  0  0  0
  -10.9410    0.0100  -22.5100 C   0  0  0  0  0  0  0  0  0  0  0  0
   -9.9650   -0.9790  -21.9860 N   0  0  0  0  0  0  0  0  0  0  0  0
   -8.8490   -0.4200  -21.3630 C   0  0  0  0  0  0  0  0  0  0  0  0
   -8.7950    0.7710  -21.1160 O   0  0  0  0  0  0  0  0  0  0  0  0
   -7.6220   -1.3020  -21.0130 C   0  0  0  0  0  0  0  0  0  0  0  0
   -6.7150   -0.6730  -19.9780 C   0  0  0  0  0  0  0  0  0  0  0  0
   -6.8350   -1.0200  -18.6570 C   0  0  0  0  0  0  0  0  0  0  0  0
   -6.0710   -0.5540  -17.6320 N   0  0  0  0  0  0  0  0  0  0  0  0
   -5.1260    0.2990  -17.9430 C   0  0  0  0  0  0  0  0  0  0  0  0
   -4.8790    0.7590  -19.2630 C   0  0  0  0  0  0  0  0  0  0  0  0
   -3.8310    1.6750  -19.5330 C   0  0  0  0  0  0  0  0  0  0  0  0
   -3.6200    2.1290  -20.8050 C   0  0  0  0  0  0  0  0  0  0  0  0
   -4.4610    1.6970  -21.8540 C   0  0  0  0  0  0  0  0  0  0  0  0
   -5.4860    0.8140  -21.6140 C   0  0  0  0  0  0  0  0  0  0  0  0
   -5.7120    0.2930  -20.3100 C   0  0  0  0  0  0  0  0  0  0  0  0
   -6.1500    0.5280  -22.4240 H   0  0  0  0  0  0  0  0  0  0  0  0
   -4.2920    2.0750  -22.8580 H   0  0  0  0  0  0  0  0  0  0  0  0
   -2.8170    2.8340  -21.0070 H   0  0  0  0  0  0  0  0  0  0  0  0
   -3.2190    2.0120  -18.6970 H   0  0  0  0  0  0  0  0  0  0  0  0
   -4.4970    0.6710  -17.1300 H   0  0  0  0  0  0  0  0  0  0  0  0
   -7.5870   -1.7380  -18.3370 H   0  0  0  0  0  0  0  0  0  0  0  0
   -7.0680   -1.4580  -21.9500 H   0  0  0  0  0  0  0  0  0  0  0  0
   -7.9280   -2.2980  -20.6540 H   0  0  0  0  0  0  0  0  0  0  0  0
  -10.7590    0.9560  -21.9950 H   0  0  0  0  0  0  0  0  0  0  0  0
  -11.9730   -0.2950  -22.2750 H   0  0  0  0  0  0  0  0  0  0  0  0
   -9.8840    0.7460  -24.2550 H   0  0  0  0  0  0  0  0  0  0  0  0
  -11.6330    0.7710  -24.4080 H   0  0  0  0  0  0  0  0  0  0  0  0
  -10.4570   -3.6370  -27.1790 H   0  0  0  0  0  0  0  0  0  0  0  0
   -9.8500   -4.3780  -24.7320 H   0  0  0  0  0  0  0  0  0  0  0  0
   -8.8460   -2.4880  -22.7480 H   0  0  0  0  0  0  0  0  0  0  0  0
  -11.8400   -2.6240  -21.2490 H   0  0  0  0  0  0  0  0  0  0  0  0
   -9.7220   -3.6430  -20.9540 H   0  0  0  0  0  0  0  0  0  0  0  0
  -11.7250   -4.1310  -20.8980 H   0  0  0  0  0  0  0  0  0  0  0  0
  -11.1080   -4.1310  -22.7850 H   0  0  0  0  0  0  0  0  0  0  0  0
   -9.4470   -4.2040  -22.6880 H   0  0  0  0  0  0  0  0  0  0  0  0
  1  2  1  0  0  0  0
  1 42  1  0  0  0  0
  1 43  1  0  0  0  0
  1 44  1  0  0  0  0
  2  3  1  0  0  0  0
  2 40  1  0  0  0  0
  2 41  1  0  0  0  0
  3  4  1  0  0  0  0
  3 11  1  0  0  0  0
  3 39  1  6  0  0  0
  4  5  1  0  0  0  0
  4  8  2  0  0  0  0
  5  6  2  0  0  0  0
  5 38  1  0  0  0  0
  6  7  1  0  0  0  0
  6 37  1  0  0  0  0
  7  8  1  0  0  0  0
  8  9  1  0  0  0  0
  9 10  1  0  0  0  0
  9 35  1  0  0  0  0
  9 36  1  0  0  0  0
 10 11  1  0  0  0  0
 10 33  1  0  0  0  0
 10 34  1  0  0  0  0
 11 12  1  0  0  0  0
 12 13  2  0  0  0  0
 12 14  1  0  0  0  0
 14 15  1  0  0  0  0
 14 31  1  0  0  0  0
 14 32  1  0  0  0  0
 15 16  2  0  0  0  0
 15 24  1  0  0  0  0
 16 17  1  0  0  0  0
 16 30  1  0  0  0  0
 17 18  2  0  0  0  0
 18 19  1  0  0  0  0
 18 29  1  0  0  0  0
 19 20  2  0  0  0  0
 19 24  1  0  0  0  0
 20 21  1  0  0  0  0
 20 28  1  0  0  0  0
 21 22  2  0  0  0  0
 21 27  1  0  0  0  0
 22 23  1  0  0  0  0
 22 26  1  0  0  0  0
 23 24  2  0  0  0  0
 23 25  1  0  0  0  0
M  END
>  <MODEL>
       1

$$$$
