tmp_first_model_5_84.pdb
 OpenBabel08272519233D

 63 68  0  0  1  0  0  0  0  0999 V2000
   -7.9370   -3.4790  -24.1880 C   0  0  0  0  0  0  0  0  0  0  0  0
   -8.2830   -2.8110  -22.8630 C   0  0  1  0  0  0  0  0  0  0  0  0
   -7.0510   -2.6000  -21.9740 C   0  0  0  0  0  0  0  0  0  0  0  0
   -7.4220   -1.4470  -21.1810 N   0  0  0  0  0  0  0  0  0  0  0  0
   -6.5600   -0.9380  -20.1910 C   0  0  0  0  0  0  0  0  0  0  0  0
   -6.8420   -1.1270  -18.8670 C   0  0  0  0  0  0  0  0  0  0  0  0
   -5.9770   -0.8540  -17.8620 N   0  0  0  0  0  0  0  0  0  0  0  0
   -4.8030   -0.3740  -18.2070 C   0  0  0  0  0  0  0  0  0  0  0  0
   -4.4260   -0.0430  -19.5450 C   0  0  0  0  0  0  0  0  0  0  0  0
   -3.2520    0.7060  -19.8390 C   0  0  0  0  0  0  0  0  0  0  0  0
   -3.1550    1.4020  -21.0130 C   0  0  0  0  0  0  0  0  0  0  0  0
   -4.0810    1.1530  -22.0560 C   0  0  0  0  0  0  0  0  0  0  0  0
   -5.1050    0.2610  -21.8630 C   0  0  0  0  0  0  0  0  0  0  0  0
   -5.3650   -0.2630  -20.5670 C   0  0  0  0  0  0  0  0  0  0  0  0
   -5.7460   -0.0030  -22.6940 H   0  0  0  0  0  0  0  0  0  0  0  0
   -3.9640    1.6410  -23.0180 H   0  0  0  0  0  0  0  0  0  0  0  0
   -2.2890    2.0280  -21.2030 H   0  0  0  0  0  0  0  0  0  0  0  0
   -2.5110    0.8210  -19.0560 H   0  0  0  0  0  0  0  0  0  0  0  0
   -4.1050   -0.1380  -17.4030 H   0  0  0  0  0  0  0  0  0  0  0  0
   -7.8120   -1.5170  -18.5760 H   0  0  0  0  0  0  0  0  0  0  0  0
   -8.4710   -0.7090  -21.6760 C   0  0  0  0  0  0  0  0  0  0  0  0
   -8.8490    0.3390  -21.1830 O   0  0  0  0  0  0  0  0  0  0  0  0
   -9.0140   -1.4280  -22.9310 C   0  0  1  0  0  0  0  0  0  0  0  0
   -8.6340   -0.6340  -24.2050 C   0  0  0  0  0  0  0  0  0  0  0  0
   -9.4060    0.5930  -24.3290 N   0  0  0  0  0  0  0  0  0  0  0  0
   -8.7290    1.7840  -24.8090 C   0  0  0  0  0  0  0  0  0  0  0  0
   -7.6830    2.2400  -23.7850 C   0  0  0  0  0  0  0  0  0  0  0  0
   -6.5030    1.9460  -23.8960 O   0  0  0  0  0  0  0  0  0  0  0  0
   -8.1720    2.9480  -22.7310 N   0  0  0  0  0  0  0  0  0  0  0  0
   -7.2990    3.3300  -21.6340 C   0  0  0  0  0  0  0  0  0  0  0  0
   -6.5920    4.6430  -21.8630 C   0  0  0  0  0  0  0  0  0  0  0  0
   -5.6610    4.5270  -22.8690 F   0  0  0  0  0  0  0  0  0  0  0  0
   -7.2860    5.9590  -21.7780 C   0  0  0  0  0  0  0  0  0  0  0  0
   -6.2250    5.5830  -20.7670 C   0  0  0  0  0  0  0  0  0  0  0  0
   -5.2650    6.0760  -20.8660 H   0  0  0  0  0  0  0  0  0  0  0  0
   -6.5280    5.3780  -19.7470 H   0  0  0  0  0  0  0  0  0  0  0  0
   -7.0070    6.7040  -22.5160 H   0  0  0  0  0  0  0  0  0  0  0  0
   -8.3230    5.9860  -21.4580 H   0  0  0  0  0  0  0  0  0  0  0  0
   -7.9150    3.3840  -20.7400 H   0  0  0  0  0  0  0  0  0  0  0  0
   -6.5510    2.5460  -21.4840 H   0  0  0  0  0  0  0  0  0  0  0  0
   -9.1680    2.9550  -22.5590 H   0  0  0  0  0  0  0  0  0  0  0  0
   -9.4880    2.5500  -24.9820 H   0  0  0  0  0  0  0  0  0  0  0  0
   -8.2230    1.5790  -25.7600 H   0  0  0  0  0  0  0  0  0  0  0  0
  -10.7740    0.5650  -24.2670 C   0  0  0  0  0  0  0  0  0  0  0  0
  -11.4810    1.4770  -24.6730 O   0  0  0  0  0  0  0  0  0  0  0  0
  -11.3380   -0.6850  -23.6540 C   0  0  0  0  0  0  0  0  0  0  0  0
  -12.6890   -0.9840  -23.8320 C   0  0  0  0  0  0  0  0  0  0  0  0
  -13.2620   -2.0480  -23.1610 C   0  0  0  0  0  0  0  0  0  0  0  0
  -12.4900   -2.7300  -22.2300 C   0  0  0  0  0  0  0  0  0  0  0  0
  -13.0710   -3.6840  -21.4840 F   0  0  0  0  0  0  0  0  0  0  0  0
  -11.1490   -2.4680  -22.0580 C   0  0  0  0  0  0  0  0  0  0  0  0
  -10.5240   -1.5320  -22.8890 C   0  0  0  0  0  0  0  0  0  0  0  0
  -10.6090   -3.0230  -21.3020 H   0  0  0  0  0  0  0  0  0  0  0  0
  -14.3110   -2.3010  -23.2640 H   0  0  0  0  0  0  0  0  0  0  0  0
  -13.2800   -0.3800  -24.5130 H   0  0  0  0  0  0  0  0  0  0  0  0
   -7.5740   -0.3720  -24.1830 H   0  0  0  0  0  0  0  0  0  0  0  0
   -8.8080   -1.2660  -25.0870 H   0  0  0  0  0  0  0  0  0  0  0  0
   -6.8500   -3.4710  -21.3350 H   0  0  0  0  0  0  0  0  0  0  0  0
   -6.1420   -2.4190  -22.5720 H   0  0  0  0  0  0  0  0  0  0  0  0
   -8.9430   -3.4910  -22.3180 H   0  0  0  0  0  0  0  0  0  0  0  0
   -7.2080   -2.8870  -24.7530 H   0  0  0  0  0  0  0  0  0  0  0  0
   -7.4880   -4.4600  -24.0070 H   0  0  0  0  0  0  0  0  0  0  0  0
   -8.8220   -3.6200  -24.8180 H   0  0  0  0  0  0  0  0  0  0  0  0
  1  2  1  0  0  0  0
  1 61  1  0  0  0  0
  1 62  1  0  0  0  0
  1 63  1  0  0  0  0
  2  3  1  0  0  0  0
  2 23  1  0  0  0  0
  2 60  1  1  0  0  0
  3  4  1  0  0  0  0
  3 58  1  0  0  0  0
  3 59  1  0  0  0  0
  4  5  1  0  0  0  0
  4 21  1  0  0  0  0
  5  6  2  0  0  0  0
  5 14  1  0  0  0  0
  6  7  1  0  0  0  0
  6 20  1  0  0  0  0
  7  8  2  0  0  0  0
  8  9  1  0  0  0  0
  8 19  1  0  0  0  0
  9 10  2  0  0  0  0
  9 14  1  0  0  0  0
 10 11  1  0  0  0  0
 10 18  1  0  0  0  0
 11 12  2  0  0  0  0
 11 17  1  0  0  0  0
 12 13  1  0  0  0  0
 12 16  1  0  0  0  0
 13 14  2  0  0  0  0
 13 15  1  0  0  0  0
 21 22  2  0  0  0  0
 23 21  1  1  0  0  0
 23 24  1  0  0  0  0
 23 52  1  0  0  0  0
 24 25  1  0  0  0  0
 24 56  1  0  0  0  0
 24 57  1  0  0  0  0
 25 26  1  0  0  0  0
 25 44  1  0  0  0  0
 26 27  1  0  0  0  0
 26 42  1  0  0  0  0
 26 43  1  0  0  0  0
 27 28  2  0  0  0  0
 27 29  1  0  0  0  0
 29 30  1  0  0  0  0
 29 41  1  0  0  0  0
 30 31  1  0  0  0  0
 30 39  1  0  0  0  0
 30 40  1  0  0  0  0
 31 32  1  0  0  0  0
 31 33  1  0  0  0  0
 31 34  1  0  0  0  0
 33 34  1  0  0  0  0
 33 37  1  0  0  0  0
 33 38  1  0  0  0  0
 34 35  1  0  0  0  0
 34 36  1  0  0  0  0
 44 45  2  0  0  0  0
 44 46  1  0  0  0  0
 46 47  2  0  0  0  0
 46 52  1  0  0  0  0
 47 48  1  0  0  0  0
 47 55  1  0  0  0  0
 48 49  2  0  0  0  0
 48 54  1  0  0  0  0
 49 50  1  0  0  0  0
 49 51  1  0  0  0  0
 51 52  2  0  0  0  0
 51 53  1  0  0  0  0
M  END
>  <MODEL>
       1

$$$$
