tmp_first_model_4_97.pdb
 OpenBabel08272518513D

 40 43  0  0  1  0  0  0  0  0999 V2000
  -12.6770   -3.7160  -21.1360 C   0  0  0  0  0  0  0  0  0  0  0  0
  -11.5620   -2.8010  -21.6640 C   0  0  2  0  0  0  0  0  0  0  0  0
  -12.0200   -2.2540  -23.0030 C   0  0  0  0  0  0  0  0  0  0  0  0
  -11.1200   -1.3120  -23.5400 O   0  0  0  0  0  0  0  0  0  0  0  0
   -9.8520   -1.8680  -23.7660 C   0  0  0  0  0  0  0  0  0  0  0  0
   -9.1840   -2.3970  -22.4900 C   0  0  1  0  0  0  0  0  0  0  0  0
  -10.1520   -3.3880  -21.7910 C   0  0  0  0  0  0  0  0  0  0  0  0
  -10.1780   -4.3070  -22.3930 H   0  0  0  0  0  0  0  0  0  0  0  0
   -9.7280   -3.6420  -20.8120 H   0  0  0  0  0  0  0  0  0  0  0  0
   -7.9290   -3.0260  -22.8540 N   0  0  0  0  0  0  0  0  0  0  0  0
   -6.8640   -2.6330  -22.0970 C   0  0  0  0  0  0  0  0  0  0  0  0
   -5.7330   -3.0700  -22.1000 O   0  0  0  0  0  0  0  0  0  0  0  0
   -7.3280   -1.5860  -21.2890 N   0  0  0  0  0  0  0  0  0  0  0  0
   -6.5060   -1.0630  -20.2530 C   0  0  0  0  0  0  0  0  0  0  0  0
   -6.7610   -1.3480  -18.9350 C   0  0  0  0  0  0  0  0  0  0  0  0
   -5.8810   -1.1190  -17.9300 N   0  0  0  0  0  0  0  0  0  0  0  0
   -4.7390   -0.5540  -18.2360 C   0  0  0  0  0  0  0  0  0  0  0  0
   -4.4070   -0.1020  -19.5400 C   0  0  0  0  0  0  0  0  0  0  0  0
   -3.2220    0.6400  -19.7760 C   0  0  0  0  0  0  0  0  0  0  0  0
   -3.0060    1.2060  -21.0030 C   0  0  0  0  0  0  0  0  0  0  0  0
   -3.9380    1.0060  -22.0510 C   0  0  0  0  0  0  0  0  0  0  0  0
   -5.0520    0.2260  -21.8630 C   0  0  0  0  0  0  0  0  0  0  0  0
   -5.3270   -0.3300  -20.5830 C   0  0  0  0  0  0  0  0  0  0  0  0
   -5.7290    0.0180  -22.6850 H   0  0  0  0  0  0  0  0  0  0  0  0
   -3.7720    1.4810  -23.0160 H   0  0  0  0  0  0  0  0  0  0  0  0
   -2.1530    1.8620  -21.1600 H   0  0  0  0  0  0  0  0  0  0  0  0
   -2.5440    0.7950  -18.9430 H   0  0  0  0  0  0  0  0  0  0  0  0
   -4.0200   -0.4000  -17.4300 H   0  0  0  0  0  0  0  0  0  0  0  0
   -7.6990   -1.8160  -18.6480 H   0  0  0  0  0  0  0  0  0  0  0  0
   -8.6730   -1.2980  -21.5310 C   0  0  0  0  0  0  0  0  0  0  0  0
   -9.2800   -0.3690  -21.0610 O   0  0  0  0  0  0  0  0  0  0  0  0
   -7.9080   -3.9210  -23.3200 H   0  0  0  0  0  0  0  0  0  0  0  0
   -9.2310   -1.0980  -24.2260 H   0  0  0  0  0  0  0  0  0  0  0  0
   -9.9120   -2.7210  -24.4640 H   0  0  0  0  0  0  0  0  0  0  0  0
  -12.9730   -1.7220  -22.8780 H   0  0  0  0  0  0  0  0  0  0  0  0
  -12.1590   -3.1140  -23.6880 H   0  0  0  0  0  0  0  0  0  0  0  0
  -11.4280   -1.9600  -20.9920 H   0  0  0  0  0  0  0  0  0  0  0  0
  -12.4210   -4.2970  -20.2440 H   0  0  0  0  0  0  0  0  0  0  0  0
  -12.9860   -4.4260  -21.9120 H   0  0  0  0  0  0  0  0  0  0  0  0
  -13.5550   -3.0990  -20.8920 H   0  0  0  0  0  0  0  0  0  0  0  0
  1  2  1  0  0  0  0
  1 38  1  0  0  0  0
  1 39  1  0  0  0  0
  1 40  1  0  0  0  0
  2  3  1  0  0  0  0
  2  7  1  0  0  0  0
  2 37  1  1  0  0  0
  3  4  1  0  0  0  0
  3 35  1  0  0  0  0
  3 36  1  0  0  0  0
  4  5  1  0  0  0  0
  5  6  1  0  0  0  0
  5 33  1  0  0  0  0
  5 34  1  0  0  0  0
  6  7  1  0  0  0  0
  6 10  1  0  0  0  0
  6 30  1  1  0  0  0
  7  8  1  0  0  0  0
  7  9  1  0  0  0  0
 10 11  1  0  0  0  0
 10 32  1  0  0  0  0
 11 12  2  0  0  0  0
 11 13  1  0  0  0  0
 13 14  1  0  0  0  0
 13 30  1  0  0  0  0
 14 15  2  0  0  0  0
 14 23  1  0  0  0  0
 15 16  1  0  0  0  0
 15 29  1  0  0  0  0
 16 17  2  0  0  0  0
 17 18  1  0  0  0  0
 17 28  1  0  0  0  0
 18 19  2  0  0  0  0
 18 23  1  0  0  0  0
 19 20  1  0  0  0  0
 19 27  1  0  0  0  0
 20 21  2  0  0  0  0
 20 26  1  0  0  0  0
 21 22  1  0  0  0  0
 21 25  1  0  0  0  0
 22 23  2  0  0  0  0
 22 24  1  0  0  0  0
 30 31  2  0  0  0  0
M  END
>  <MODEL>
       1

$$$$
