tmp_first_model_1_6.pdb
 OpenBabel08272517043D

 43 45  0  0  0  0  0  0  0  0999 V2000
   -9.3210   -8.1160  -24.9630 C   0  0  0  0  0  0  0  0  0  0  0  0
   -9.3200   -6.6040  -25.1470 C   0  0  0  0  0  0  0  0  0  0  0  0
   -9.0020   -5.8140  -23.8750 C   0  0  0  0  0  0  0  0  0  0  0  0
   -7.5660   -5.9950  -23.4000 C   0  0  0  0  0  0  0  0  0  0  0  0
   -7.2680   -5.1710  -22.1560 C   0  0  0  0  0  0  0  0  0  0  0  0
   -7.6210   -3.7600  -22.3150 N   0  0  0  0  0  0  0  0  0  0  0  0
   -6.7910   -2.7980  -21.7750 C   0  0  0  0  0  0  0  0  0  0  0  0
   -5.5880   -2.9790  -21.6750 O   0  0  0  0  0  0  0  0  0  0  0  0
   -7.4230   -1.4830  -21.2560 C   0  0  0  0  0  0  0  0  0  0  0  0
   -6.5830   -0.8240  -20.1820 C   0  0  0  0  0  0  0  0  0  0  0  0
   -6.8740   -1.0420  -18.8640 C   0  0  0  0  0  0  0  0  0  0  0  0
   -6.1830   -0.5500  -17.8010 N   0  0  0  0  0  0  0  0  0  0  0  0
   -5.1580    0.2220  -18.0660 C   0  0  0  0  0  0  0  0  0  0  0  0
   -4.7210    0.5330  -19.3800 C   0  0  0  0  0  0  0  0  0  0  0  0
   -3.5920    1.3590  -19.6210 C   0  0  0  0  0  0  0  0  0  0  0  0
   -3.1890    1.6340  -20.8970 C   0  0  0  0  0  0  0  0  0  0  0  0
   -3.8990    1.0890  -21.9920 C   0  0  0  0  0  0  0  0  0  0  0  0
   -4.9960    0.2890  -21.7850 C   0  0  0  0  0  0  0  0  0  0  0  0
   -5.4450   -0.0100  -20.4750 C   0  0  0  0  0  0  0  0  0  0  0  0
   -5.5180   -0.1380  -22.6360 H   0  0  0  0  0  0  0  0  0  0  0  0
   -3.5700    1.3080  -23.0030 H   0  0  0  0  0  0  0  0  0  0  0  0
   -2.3270    2.2710  -21.0850 H   0  0  0  0  0  0  0  0  0  0  0  0
   -3.0560    1.7750  -18.7680 H   0  0  0  0  0  0  0  0  0  0  0  0
   -4.6040    0.6280  -17.2150 H   0  0  0  0  0  0  0  0  0  0  0  0
   -7.7190   -1.6690  -18.5860 H   0  0  0  0  0  0  0  0  0  0  0  0
   -7.5650   -0.7910  -22.0970 H   0  0  0  0  0  0  0  0  0  0  0  0
   -8.4250   -1.6870  -20.8480 H   0  0  0  0  0  0  0  0  0  0  0  0
   -8.9690   -3.5130  -22.8030 C   0  0  0  0  0  0  0  0  0  0  0  0
   -9.2710   -4.3260  -24.0590 C   0  0  0  0  0  0  0  0  0  0  0  0
   -8.6690   -3.9550  -24.8940 H   0  0  0  0  0  0  0  0  0  0  0  0
  -10.3150   -4.1700  -24.3490 H   0  0  0  0  0  0  0  0  0  0  0  0
   -9.7180   -3.7570  -22.0350 H   0  0  0  0  0  0  0  0  0  0  0  0
   -9.0770   -2.4520  -23.0300 H   0  0  0  0  0  0  0  0  0  0  0  0
   -7.8220   -5.6080  -21.3130 H   0  0  0  0  0  0  0  0  0  0  0  0
   -6.2120   -5.2280  -21.8980 H   0  0  0  0  0  0  0  0  0  0  0  0
   -6.8800   -5.7020  -24.2000 H   0  0  0  0  0  0  0  0  0  0  0  0
   -7.3550   -7.0500  -23.1940 H   0  0  0  0  0  0  0  0  0  0  0  0
   -9.6720   -6.1770  -23.0860 H   0  0  0  0  0  0  0  0  0  0  0  0
  -10.3000   -6.2950  -25.5260 H   0  0  0  0  0  0  0  0  0  0  0  0
   -8.5990   -6.3310  -25.9260 H   0  0  0  0  0  0  0  0  0  0  0  0
   -9.9730   -8.4140  -24.1360 H   0  0  0  0  0  0  0  0  0  0  0  0
   -8.3190   -8.4830  -24.7370 H   0  0  0  0  0  0  0  0  0  0  0  0
   -9.6690   -8.6340  -25.8630 H   0  0  0  0  0  0  0  0  0  0  0  0
  1  2  1  0  0  0  0
  1 41  1  0  0  0  0
  1 42  1  0  0  0  0
  1 43  1  0  0  0  0
  2  3  1  0  0  0  0
  2 39  1  0  0  0  0
  2 40  1  0  0  0  0
  3  4  1  0  0  0  0
  3 29  1  0  0  0  0
  3 38  1  0  0  0  0
  4  5  1  0  0  0  0
  4 36  1  0  0  0  0
  4 37  1  0  0  0  0
  5  6  1  0  0  0  0
  5 34  1  0  0  0  0
  5 35  1  0  0  0  0
  6  7  1  0  0  0  0
  6 28  1  0  0  0  0
  7  8  2  0  0  0  0
  7  9  1  0  0  0  0
  9 10  1  0  0  0  0
  9 26  1  0  0  0  0
  9 27  1  0  0  0  0
 10 11  2  0  0  0  0
 10 19  1  0  0  0  0
 11 12  1  0  0  0  0
 11 25  1  0  0  0  0
 12 13  2  0  0  0  0
 13 14  1  0  0  0  0
 13 24  1  0  0  0  0
 14 15  2  0  0  0  0
 14 19  1  0  0  0  0
 15 16  1  0  0  0  0
 15 23  1  0  0  0  0
 16 17  2  0  0  0  0
 16 22  1  0  0  0  0
 17 18  1  0  0  0  0
 17 21  1  0  0  0  0
 18 19  2  0  0  0  0
 18 20  1  0  0  0  0
 28 29  1  0  0  0  0
 28 32  1  0  0  0  0
 28 33  1  0  0  0  0
 29 30  1  0  0  0  0
 29 31  1  0  0  0  0
M  END
>  <MODEL>
       1

$$$$
