tmp_first_model_6_73.pdb
 OpenBabel08272519583D

 50 53  0  0  1  0  0  0  0  0999 V2000
   -5.5900   -3.0360  -21.5670 O   0  0  0  0  0  0  0  0  0  0  0  0
   -6.7440   -2.7570  -21.8480 C   0  0  0  0  0  0  0  0  0  0  0  0
   -7.4100   -1.4780  -21.2680 C   0  0  0  0  0  0  0  0  0  0  0  0
   -6.5770   -0.8320  -20.1820 C   0  0  0  0  0  0  0  0  0  0  0  0
   -6.8740   -1.0500  -18.8650 C   0  0  0  0  0  0  0  0  0  0  0  0
   -6.1890   -0.5470  -17.8040 N   0  0  0  0  0  0  0  0  0  0  0  0
   -5.1580    0.2180  -18.0670 C   0  0  0  0  0  0  0  0  0  0  0  0
   -4.7230    0.5330  -19.3780 C   0  0  0  0  0  0  0  0  0  0  0  0
   -3.5950    1.3590  -19.6170 C   0  0  0  0  0  0  0  0  0  0  0  0
   -3.2050    1.6550  -20.8940 C   0  0  0  0  0  0  0  0  0  0  0  0
   -3.9400    1.1430  -21.9830 C   0  0  0  0  0  0  0  0  0  0  0  0
   -5.0270    0.3270  -21.7810 C   0  0  0  0  0  0  0  0  0  0  0  0
   -5.4530   -0.0020  -20.4720 C   0  0  0  0  0  0  0  0  0  0  0  0
   -5.5240   -0.1250  -22.6330 H   0  0  0  0  0  0  0  0  0  0  0  0
   -3.5910    1.3270  -22.9960 H   0  0  0  0  0  0  0  0  0  0  0  0
   -2.3260    2.2710  -21.0820 H   0  0  0  0  0  0  0  0  0  0  0  0
   -3.0580    1.7670  -18.7630 H   0  0  0  0  0  0  0  0  0  0  0  0
   -4.6080    0.6270  -17.2150 H   0  0  0  0  0  0  0  0  0  0  0  0
   -7.7240   -1.6730  -18.5850 H   0  0  0  0  0  0  0  0  0  0  0  0
   -7.6140   -0.7540  -22.0720 H   0  0  0  0  0  0  0  0  0  0  0  0
   -8.3930   -1.7520  -20.8530 H   0  0  0  0  0  0  0  0  0  0  0  0
   -7.4960   -3.5810  -22.6630 N   0  0  0  0  0  0  0  0  0  0  0  0
   -8.6410   -3.1260  -23.4320 C   0  0  0  0  0  0  0  0  0  0  0  0
   -9.7010   -4.2130  -23.5100 C   0  0  0  0  0  0  0  0  0  0  0  0
   -9.1490   -5.5100  -24.0940 C   0  0  0  0  0  0  0  0  0  0  0  0
   -7.9700   -5.9480  -23.2350 C   0  0  0  0  0  0  0  0  0  0  0  0
   -6.9020   -4.8570  -23.0980 C   0  0  1  0  0  0  0  0  0  0  0  0
   -6.0430   -4.6940  -24.3700 C   0  0  0  0  0  0  0  0  0  0  0  0
   -5.2110   -5.9210  -24.6850 C   0  0  0  0  0  0  0  0  0  0  0  0
   -4.0470   -6.1890  -23.9580 C   0  0  0  0  0  0  0  0  0  0  0  0
   -3.2850   -7.3210  -24.2210 C   0  0  0  0  0  0  0  0  0  0  0  0
   -3.6710   -8.2130  -25.2180 C   0  0  0  0  0  0  0  0  0  0  0  0
   -4.8280   -7.9610  -25.9510 C   0  0  0  0  0  0  0  0  0  0  0  0
   -5.5870   -6.8240  -25.6830 C   0  0  0  0  0  0  0  0  0  0  0  0
   -6.4960   -6.6380  -26.2540 H   0  0  0  0  0  0  0  0  0  0  0  0
   -5.1370   -8.6470  -26.7360 H   0  0  0  0  0  0  0  0  0  0  0  0
   -3.0700   -9.0940  -25.4260 H   0  0  0  0  0  0  0  0  0  0  0  0
   -2.3830   -7.5100  -23.6430 H   0  0  0  0  0  0  0  0  0  0  0  0
   -3.7450   -5.4990  -23.1730 H   0  0  0  0  0  0  0  0  0  0  0  0
   -6.6890   -4.4560  -25.2270 H   0  0  0  0  0  0  0  0  0  0  0  0
   -5.3820   -3.8340  -24.2110 H   0  0  0  0  0  0  0  0  0  0  0  0
   -6.2340   -5.1460  -22.2890 H   0  0  0  0  0  0  0  0  0  0  0  0
   -8.3470   -6.1900  -22.2350 H   0  0  0  0  0  0  0  0  0  0  0  0
   -7.5190   -6.8610  -23.6370 H   0  0  0  0  0  0  0  0  0  0  0  0
   -9.9320   -6.2820  -24.1150 H   0  0  0  0  0  0  0  0  0  0  0  0
   -8.8380   -5.3700  -25.1430 H   0  0  0  0  0  0  0  0  0  0  0  0
  -10.1290   -4.3990  -22.5150 H   0  0  0  0  0  0  0  0  0  0  0  0
  -10.5030   -3.8210  -24.1150 H   0  0  0  0  0  0  0  0  0  0  0  0
   -9.0750   -2.2320  -22.9790 H   0  0  0  0  0  0  0  0  0  0  0  0
   -8.3480   -2.8390  -24.4580 H   0  0  0  0  0  0  0  0  0  0  0  0
  1  2  2  0  0  0  0
  2  3  1  0  0  0  0
  2 22  1  0  0  0  0
  3  4  1  0  0  0  0
  3 20  1  0  0  0  0
  3 21  1  0  0  0  0
  4  5  2  0  0  0  0
  4 13  1  0  0  0  0
  5  6  1  0  0  0  0
  5 19  1  0  0  0  0
  6  7  2  0  0  0  0
  7  8  1  0  0  0  0
  7 18  1  0  0  0  0
  8  9  2  0  0  0  0
  8 13  1  0  0  0  0
  9 10  1  0  0  0  0
  9 17  1  0  0  0  0
 10 11  2  0  0  0  0
 10 16  1  0  0  0  0
 11 12  1  0  0  0  0
 11 15  1  0  0  0  0
 12 13  2  0  0  0  0
 12 14  1  0  0  0  0
 22 23  1  0  0  0  0
 22 27  1  0  0  0  0
 23 24  1  0  0  0  0
 23 49  1  0  0  0  0
 23 50  1  0  0  0  0
 24 25  1  0  0  0  0
 24 47  1  0  0  0  0
 24 48  1  0  0  0  0
 25 26  1  0  0  0  0
 25 45  1  0  0  0  0
 25 46  1  0  0  0  0
 26 27  1  0  0  0  0
 26 43  1  0  0  0  0
 26 44  1  0  0  0  0
 27 28  1  0  0  0  0
 27 42  1  1  0  0  0
 28 29  1  0  0  0  0
 28 40  1  0  0  0  0
 28 41  1  0  0  0  0
 29 30  2  0  0  0  0
 29 34  1  0  0  0  0
 30 31  1  0  0  0  0
 30 39  1  0  0  0  0
 31 32  2  0  0  0  0
 31 38  1  0  0  0  0
 32 33  1  0  0  0  0
 32 37  1  0  0  0  0
 33 34  2  0  0  0  0
 33 36  1  0  0  0  0
 34 35  1  0  0  0  0
M  END
>  <MODEL>
       1

$$$$
