tmp_first_model_19_47.pdb
 OpenBabel08282503233D

 58 63  0  0  1  0  0  0  0  0999 V2000
   -8.5040    0.7140  -21.4040 O   0  0  0  0  0  0  0  0  0  0  0  0
   -8.4550   -0.4140  -21.8500 C   0  0  0  0  0  0  0  0  0  0  0  0
   -7.4450   -1.4290  -21.2630 C   0  0  0  0  0  0  0  0  0  0  0  0
   -6.5780   -0.8300  -20.1820 C   0  0  0  0  0  0  0  0  0  0  0  0
   -6.8770   -1.0390  -18.8630 C   0  0  0  0  0  0  0  0  0  0  0  0
   -6.1890   -0.5420  -17.8010 N   0  0  0  0  0  0  0  0  0  0  0  0
   -5.1570    0.2220  -18.0650 C   0  0  0  0  0  0  0  0  0  0  0  0
   -4.7240    0.5340  -19.3820 C   0  0  0  0  0  0  0  0  0  0  0  0
   -3.5970    1.3640  -19.6240 C   0  0  0  0  0  0  0  0  0  0  0  0
   -3.2120    1.6610  -20.9020 C   0  0  0  0  0  0  0  0  0  0  0  0
   -3.9360    1.1350  -21.9940 C   0  0  0  0  0  0  0  0  0  0  0  0
   -5.0270    0.3270  -21.7880 C   0  0  0  0  0  0  0  0  0  0  0  0
   -5.4540    0.0010  -20.4730 C   0  0  0  0  0  0  0  0  0  0  0  0
   -5.5770   -0.0600  -22.6400 H   0  0  0  0  0  0  0  0  0  0  0  0
   -3.6240    1.3800  -23.0050 H   0  0  0  0  0  0  0  0  0  0  0  0
   -2.3570    2.3080  -21.0860 H   0  0  0  0  0  0  0  0  0  0  0  0
   -3.0590    1.7760  -18.7720 H   0  0  0  0  0  0  0  0  0  0  0  0
   -4.6020    0.6290  -17.2160 H   0  0  0  0  0  0  0  0  0  0  0  0
   -7.7310   -1.6590  -18.5880 H   0  0  0  0  0  0  0  0  0  0  0  0
   -6.8300   -1.8590  -22.0640 H   0  0  0  0  0  0  0  0  0  0  0  0
   -8.0180   -2.2620  -20.8340 H   0  0  0  0  0  0  0  0  0  0  0  0
   -9.3040   -0.8280  -22.8740 N   0  0  0  0  0  0  0  0  0  0  0  0
   -9.2700   -2.1310  -23.5270 C   0  0  0  0  0  0  0  0  0  0  0  0
   -8.5420   -2.1610  -24.8610 C   0  0  0  0  0  0  0  0  0  0  0  0
   -7.4410   -1.3430  -25.1030 C   0  0  0  0  0  0  0  0  0  0  0  0
   -6.7660   -1.4070  -26.3150 C   0  0  0  0  0  0  0  0  0  0  0  0
   -7.1730   -2.2820  -27.3130 C   0  0  0  0  0  0  0  0  0  0  0  0
   -8.2690   -3.1000  -27.0670 C   0  0  0  0  0  0  0  0  0  0  0  0
   -8.7940   -4.2110  -28.3040 Cl  0  0  0  0  0  0  0  0  0  0  0  0
   -8.9510   -3.0520  -25.8550 C   0  0  0  0  0  0  0  0  0  0  0  0
   -9.7990   -3.7160  -25.6990 H   0  0  0  0  0  0  0  0  0  0  0  0
   -6.6520   -2.3320  -28.2650 H   0  0  0  0  0  0  0  0  0  0  0  0
   -5.9100   -0.7620  -26.4850 H   0  0  0  0  0  0  0  0  0  0  0  0
   -7.0950   -0.6500  -24.3380 H   0  0  0  0  0  0  0  0  0  0  0  0
  -10.3030   -2.4520  -23.6870 H   0  0  0  0  0  0  0  0  0  0  0  0
   -8.8320   -2.8620  -22.8430 H   0  0  0  0  0  0  0  0  0  0  0  0
  -10.2370    0.1520  -23.4000 C   0  0  2  0  0  0  0  0  0  0  0  0
  -11.3910    0.6140  -22.4910 C   0  0  0  0  0  0  0  0  0  0  0  0
  -12.0730    1.5930  -23.4140 N   0  3  1  0  0  0  0  0  0  0  0  0
  -12.2540    2.9520  -22.8860 C   0  0  0  0  0  0  0  0  0  0  0  0
  -13.5240    3.2850  -22.1750 C   0  0  0  0  0  0  0  0  0  0  0  0
  -13.2600    3.8370  -23.5480 C   0  0  0  0  0  0  0  0  0  0  0  0
  -13.0460    4.8960  -23.6430 H   0  0  0  0  0  0  0  0  0  0  0  0
  -13.8100    3.3990  -24.3760 H   0  0  0  0  0  0  0  0  0  0  0  0
  -13.4770    3.9700  -21.3350 H   0  0  0  0  0  0  0  0  0  0  0  0
  -14.2400    2.4750  -22.0830 H   0  0  0  0  0  0  0  0  0  0  0  0
  -11.3460    3.4140  -22.5210 H   0  0  0  0  0  0  0  0  0  0  0  0
  -11.1650    1.4910  -24.6100 C   0  0  2  0  0  0  0  0  0  0  0  0
  -11.0150   -0.0310  -24.7280 C   0  0  0  0  0  0  0  0  0  0  0  0
  -10.4050   -0.3310  -25.5730 H   0  0  0  0  0  0  0  0  0  0  0  0
  -11.9460   -0.6100  -24.6720 H   0  0  0  0  0  0  0  0  0  0  0  0
   -9.7710    1.5160  -23.9700 C   0  0  0  0  0  0  0  0  0  0  0  0
   -8.9690    1.4210  -24.6980 H   0  0  0  0  0  0  0  0  0  0  0  0
   -9.5630    2.2920  -23.2280 H   0  0  0  0  0  0  0  0  0  0  0  0
  -11.4550    2.1270  -25.4390 H   0  0  0  0  0  0  0  0  0  0  0  0
  -13.0160    1.2460  -23.6600 H   0  0  0  0  0  0  0  0  0  0  0  0
  -11.0330    1.1610  -21.6250 H   0  0  0  0  0  0  0  0  0  0  0  0
  -12.0820   -0.1800  -22.2010 H   0  0  0  0  0  0  0  0  0  0  0  0
  1  2  2  0  0  0  0
  2  3  1  0  0  0  0
  2 22  1  0  0  0  0
  3  4  1  0  0  0  0
  3 20  1  0  0  0  0
  3 21  1  0  0  0  0
  4  5  2  0  0  0  0
  4 13  1  0  0  0  0
  5  6  1  0  0  0  0
  5 19  1  0  0  0  0
  6  7  2  0  0  0  0
  7  8  1  0  0  0  0
  7 18  1  0  0  0  0
  8  9  2  0  0  0  0
  8 13  1  0  0  0  0
  9 10  1  0  0  0  0
  9 17  1  0  0  0  0
 10 11  2  0  0  0  0
 10 16  1  0  0  0  0
 11 12  1  0  0  0  0
 11 15  1  0  0  0  0
 12 13  2  0  0  0  0
 12 14  1  0  0  0  0
 22 23  1  0  0  0  0
 23 24  1  0  0  0  0
 23 35  1  0  0  0  0
 23 36  1  0  0  0  0
 24 25  2  0  0  0  0
 24 30  1  0  0  0  0
 25 26  1  0  0  0  0
 25 34  1  0  0  0  0
 26 27  2  0  0  0  0
 26 33  1  0  0  0  0
 27 28  1  0  0  0  0
 27 32  1  0  0  0  0
 28 29  1  0  0  0  0
 28 30  2  0  0  0  0
 30 31  1  0  0  0  0
 37 22  1  1  0  0  0
 37 38  1  0  0  0  0
 37 49  1  0  0  0  0
 37 52  1  0  0  0  0
 38 39  1  0  0  0  0
 38 57  1  0  0  0  0
 38 58  1  0  0  0  0
 39 40  1  0  0  0  0
 39 48  1  0  0  0  0
 39 56  1  6  0  0  0
 40 41  1  0  0  0  0
 40 42  1  0  0  0  0
 40 47  1  0  0  0  0
 41 42  1  0  0  0  0
 41 45  1  0  0  0  0
 41 46  1  0  0  0  0
 42 43  1  0  0  0  0
 42 44  1  0  0  0  0
 48 49  1  0  0  0  0
 48 52  1  0  0  0  0
 48 55  1  6  0  0  0
 49 50  1  0  0  0  0
 49 51  1  0  0  0  0
 52 53  1  0  0  0  0
 52 54  1  0  0  0  0
M  CHG  1  39   1
M  END
>  <MODEL>
       1

$$$$
