tmp_first_model_18_8.pdb
 OpenBabel08282502533D

 60 64  0  0  1  0  0  0  0  0999 V2000
   -8.4370    4.4880  -23.6600 C   0  0  0  0  0  0  0  0  0  0  0  0
   -8.4530    3.3900  -24.6080 N   0  0  0  0  0  0  0  0  0  0  0  0
   -7.5720    2.3630  -24.4340 C   0  0  0  0  0  0  0  0  0  0  0  0
   -6.6830    2.3740  -23.5950 O   0  0  0  0  0  0  0  0  0  0  0  0
   -7.7740    1.2050  -25.4140 C   0  0  0  0  0  0  0  0  0  0  0  0
   -8.6540    0.1940  -24.8640 N   0  0  0  0  0  0  0  0  0  0  0  0
   -8.1300   -1.0680  -24.3890 C   0  0  0  0  0  0  0  0  0  0  0  0
   -8.8260   -1.5320  -23.0840 C   0  0  2  0  0  0  0  0  0  0  0  0
   -8.3560   -0.6720  -21.8810 C   0  0  0  0  0  0  0  0  0  0  0  0
   -8.7040    0.4420  -21.5660 O   0  0  0  0  0  0  0  0  0  0  0  0
   -7.4100   -1.4090  -21.1950 N   0  0  0  0  0  0  0  0  0  0  0  0
   -6.6100   -0.8350  -20.1800 C   0  0  0  0  0  0  0  0  0  0  0  0
   -6.9150   -1.0830  -18.8680 C   0  0  0  0  0  0  0  0  0  0  0  0
   -6.2370   -0.5780  -17.8080 N   0  0  0  0  0  0  0  0  0  0  0  0
   -5.2120    0.1940  -18.0800 C   0  0  0  0  0  0  0  0  0  0  0  0
   -4.7680    0.5070  -19.3970 C   0  0  0  0  0  0  0  0  0  0  0  0
   -3.6360    1.3320  -19.6220 C   0  0  0  0  0  0  0  0  0  0  0  0
   -3.2210    1.6090  -20.8910 C   0  0  0  0  0  0  0  0  0  0  0  0
   -3.9190    1.0820  -22.0000 C   0  0  0  0  0  0  0  0  0  0  0  0
   -5.0230    0.2870  -21.8110 C   0  0  0  0  0  0  0  0  0  0  0  0
   -5.4770   -0.0220  -20.4990 C   0  0  0  0  0  0  0  0  0  0  0  0
   -5.5620   -0.0760  -22.6830 H   0  0  0  0  0  0  0  0  0  0  0  0
   -3.5860    1.3140  -23.0060 H   0  0  0  0  0  0  0  0  0  0  0  0
   -2.3510    2.2360  -21.0560 H   0  0  0  0  0  0  0  0  0  0  0  0
   -3.1230    1.7380  -18.7540 H   0  0  0  0  0  0  0  0  0  0  0  0
   -4.6560    0.6090  -17.2380 H   0  0  0  0  0  0  0  0  0  0  0  0
   -7.7700   -1.7150  -18.6370 H   0  0  0  0  0  0  0  0  0  0  0  0
   -7.1640   -2.7340  -21.7200 C   0  0  0  0  0  0  0  0  0  0  0  0
   -8.3480   -2.9430  -22.6670 C   0  0  2  0  0  0  0  0  0  0  0  0
   -8.0450   -3.8850  -23.8120 C   0  0  0  0  0  0  0  0  0  0  0  0
   -7.8000   -5.1530  -23.2690 O   0  0  0  0  0  0  0  0  0  0  0  0
   -7.4600   -6.1030  -24.2410 C   0  0  0  0  0  0  0  0  0  0  0  0
   -6.5390   -5.8280  -24.7760 H   0  0  0  0  0  0  0  0  0  0  0  0
   -7.2970   -7.0510  -23.7260 H   0  0  0  0  0  0  0  0  0  0  0  0
   -8.2600   -6.2350  -24.9840 H   0  0  0  0  0  0  0  0  0  0  0  0
   -8.8940   -3.9080  -24.5160 H   0  0  0  0  0  0  0  0  0  0  0  0
   -7.1690   -3.5240  -24.3770 H   0  0  0  0  0  0  0  0  0  0  0  0
   -9.1450   -3.4110  -22.0900 H   0  0  0  0  0  0  0  0  0  0  0  0
   -6.1970   -2.8060  -22.2400 H   0  0  0  0  0  0  0  0  0  0  0  0
   -7.1530   -3.4640  -20.9110 H   0  0  0  0  0  0  0  0  0  0  0  0
  -10.3180   -1.4340  -23.3070 C   0  0  0  0  0  0  0  0  0  0  0  0
  -11.2010   -2.1050  -22.4600 C   0  0  0  0  0  0  0  0  0  0  0  0
  -12.5580   -1.8920  -22.5820 C   0  0  0  0  0  0  0  0  0  0  0  0
  -13.6010   -2.6580  -21.4320 Cl  0  0  0  0  0  0  0  0  0  0  0  0
  -13.1110   -1.0800  -23.5730 C   0  0  0  0  0  0  0  0  0  0  0  0
  -12.2400   -0.4370  -24.4260 C   0  0  0  0  0  0  0  0  0  0  0  0
  -10.8630   -0.5640  -24.2560 C   0  0  0  0  0  0  0  0  0  0  0  0
   -9.9910    0.3920  -24.9980 C   0  0  0  0  0  0  0  0  0  0  0  0
  -10.4410    1.3370  -25.6430 O   0  0  0  0  0  0  0  0  0  0  0  0
  -12.5940    0.2340  -25.1980 H   0  0  0  0  0  0  0  0  0  0  0  0
  -14.1850   -0.9270  -23.6310 H   0  0  0  0  0  0  0  0  0  0  0  0
  -10.8390   -2.7650  -21.6790 H   0  0  0  0  0  0  0  0  0  0  0  0
   -7.0530   -0.9540  -24.2340 H   0  0  0  0  0  0  0  0  0  0  0  0
   -8.2850   -1.8370  -25.1560 H   0  0  0  0  0  0  0  0  0  0  0  0
   -8.2150    1.5720  -26.3480 H   0  0  0  0  0  0  0  0  0  0  0  0
   -6.8080    0.7390  -25.6080 H   0  0  0  0  0  0  0  0  0  0  0  0
   -9.2960    3.2070  -25.1370 H   0  0  0  0  0  0  0  0  0  0  0  0
   -9.1640    5.2420  -23.9700 H   0  0  0  0  0  0  0  0  0  0  0  0
   -7.4440    4.9480  -23.6440 H   0  0  0  0  0  0  0  0  0  0  0  0
   -8.6900    4.1400  -22.6500 H   0  0  0  0  0  0  0  0  0  0  0  0
  1  2  1  0  0  0  0
  1 58  1  0  0  0  0
  1 59  1  0  0  0  0
  1 60  1  0  0  0  0
  2  3  1  0  0  0  0
  2 57  1  0  0  0  0
  3  4  2  0  0  0  0
  3  5  1  0  0  0  0
  5  6  1  0  0  0  0
  5 55  1  0  0  0  0
  5 56  1  0  0  0  0
  6  7  1  0  0  0  0
  6 48  1  0  0  0  0
  7  8  1  0  0  0  0
  7 53  1  0  0  0  0
  7 54  1  0  0  0  0
  8  9  1  1  0  0  0
  8 29  1  0  0  0  0
  8 41  1  0  0  0  0
  9 10  2  0  0  0  0
  9 11  1  0  0  0  0
 11 12  1  0  0  0  0
 11 28  1  0  0  0  0
 12 13  2  0  0  0  0
 12 21  1  0  0  0  0
 13 14  1  0  0  0  0
 13 27  1  0  0  0  0
 14 15  2  0  0  0  0
 15 16  1  0  0  0  0
 15 26  1  0  0  0  0
 16 17  2  0  0  0  0
 16 21  1  0  0  0  0
 17 18  1  0  0  0  0
 17 25  1  0  0  0  0
 18 19  2  0  0  0  0
 18 24  1  0  0  0  0
 19 20  1  0  0  0  0
 19 23  1  0  0  0  0
 20 21  2  0  0  0  0
 20 22  1  0  0  0  0
 28 29  1  0  0  0  0
 28 39  1  0  0  0  0
 28 40  1  0  0  0  0
 29 30  1  0  0  0  0
 29 38  1  1  0  0  0
 30 31  1  0  0  0  0
 30 36  1  0  0  0  0
 30 37  1  0  0  0  0
 31 32  1  0  0  0  0
 32 33  1  0  0  0  0
 32 34  1  0  0  0  0
 32 35  1  0  0  0  0
 41 42  2  0  0  0  0
 41 47  1  0  0  0  0
 42 43  1  0  0  0  0
 42 52  1  0  0  0  0
 43 44  1  0  0  0  0
 43 45  2  0  0  0  0
 45 46  1  0  0  0  0
 45 51  1  0  0  0  0
 46 47  2  0  0  0  0
 46 50  1  0  0  0  0
 47 48  1  0  0  0  0
 48 49  2  0  0  0  0
M  END
>  <MODEL>
       1

$$$$
