tmp_first_model_14_78.pdb
 OpenBabel08282500413D

 56 60  0  0  1  0  0  0  0  0999 V2000
  -14.5140   -1.5510  -23.8430 C   0  0  0  0  0  0  0  0  0  0  0  0
  -13.7370   -2.6800  -23.3920 N   0  0  0  0  0  0  0  0  0  0  0  0
  -13.3430   -2.7430  -22.0980 C   0  0  0  0  0  0  0  0  0  0  0  0
  -13.7070   -1.9280  -21.2650 O   0  0  0  0  0  0  0  0  0  0  0  0
  -12.4370   -3.9200  -21.7580 C   0  0  0  0  0  0  0  0  0  0  0  0
  -11.1060   -3.8370  -22.3340 N   0  0  0  0  0  0  0  0  0  0  0  0
   -9.9750   -3.3580  -21.5380 C   0  0  0  0  0  0  0  0  0  0  0  0
   -8.7920   -2.8740  -22.4090 C   0  0  2  0  0  0  0  0  0  0  0  0
   -7.5560   -2.6540  -21.5260 C   0  0  0  0  0  0  0  0  0  0  0  0
   -6.7620   -3.4940  -21.1580 O   0  0  0  0  0  0  0  0  0  0  0  0
   -7.4300   -1.3100  -21.2620 N   0  0  0  0  0  0  0  0  0  0  0  0
   -6.5990   -0.8240  -20.2260 C   0  0  0  0  0  0  0  0  0  0  0  0
   -6.9220   -1.0450  -18.9110 C   0  0  0  0  0  0  0  0  0  0  0  0
   -6.2610   -0.4940  -17.8650 N   0  0  0  0  0  0  0  0  0  0  0  0
   -5.2270    0.2610  -18.1290 C   0  0  0  0  0  0  0  0  0  0  0  0
   -4.7620    0.5440  -19.4420 C   0  0  0  0  0  0  0  0  0  0  0  0
   -3.6200    1.3520  -19.6690 C   0  0  0  0  0  0  0  0  0  0  0  0
   -3.2100    1.6170  -20.9440 C   0  0  0  0  0  0  0  0  0  0  0  0
   -3.9150    1.0800  -22.0450 C   0  0  0  0  0  0  0  0  0  0  0  0
   -5.0190    0.2840  -21.8510 C   0  0  0  0  0  0  0  0  0  0  0  0
   -5.4700   -0.0010  -20.5350 C   0  0  0  0  0  0  0  0  0  0  0  0
   -5.5460   -0.1400  -22.7000 H   0  0  0  0  0  0  0  0  0  0  0  0
   -3.5770    1.2960  -23.0530 H   0  0  0  0  0  0  0  0  0  0  0  0
   -2.3430    2.2470  -21.1210 H   0  0  0  0  0  0  0  0  0  0  0  0
   -3.0920    1.7570  -18.8090 H   0  0  0  0  0  0  0  0  0  0  0  0
   -4.6900    0.6820  -17.2790 H   0  0  0  0  0  0  0  0  0  0  0  0
   -7.7670   -1.6790  -18.6520 H   0  0  0  0  0  0  0  0  0  0  0  0
   -8.4330   -0.4890  -21.9100 C   0  0  0  0  0  0  0  0  0  0  0  0
   -9.0200   -1.4270  -22.9760 C   0  0  2  0  0  0  0  0  0  0  0  0
  -10.4610   -1.0990  -23.3390 C   0  0  0  0  0  0  0  0  0  0  0  0
  -11.0870   -1.1040  -22.4410 H   0  0  0  0  0  0  0  0  0  0  0  0
  -10.5540   -0.1190  -23.8130 H   0  0  0  0  0  0  0  0  0  0  0  0
  -10.8520   -1.8570  -24.0220 H   0  0  0  0  0  0  0  0  0  0  0  0
   -8.3890   -1.3660  -23.8750 H   0  0  0  0  0  0  0  0  0  0  0  0
   -7.9710    0.4040  -22.3430 H   0  0  0  0  0  0  0  0  0  0  0  0
   -9.2040   -0.1540  -21.1940 H   0  0  0  0  0  0  0  0  0  0  0  0
   -8.5200   -3.9140  -23.4630 C   0  0  0  0  0  0  0  0  0  0  0  0
   -7.2410   -4.0720  -24.0000 C   0  0  0  0  0  0  0  0  0  0  0  0
   -7.0180   -5.0290  -24.9730 C   0  0  0  0  0  0  0  0  0  0  0  0
   -5.4280   -5.1670  -25.6740 Cl  0  0  0  0  0  0  0  0  0  0  0  0
   -8.0290   -5.8900  -25.4000 C   0  0  0  0  0  0  0  0  0  0  0  0
   -9.3030   -5.7170  -24.8920 C   0  0  0  0  0  0  0  0  0  0  0  0
   -9.5490   -4.7140  -23.9590 C   0  0  0  0  0  0  0  0  0  0  0  0
  -10.9440   -4.4880  -23.5180 C   0  0  0  0  0  0  0  0  0  0  0  0
  -11.9090   -4.8670  -24.1880 O   0  0  0  0  0  0  0  0  0  0  0  0
  -10.1270   -6.3520  -25.2020 H   0  0  0  0  0  0  0  0  0  0  0  0
   -7.8200   -6.6660  -26.1280 H   0  0  0  0  0  0  0  0  0  0  0  0
   -6.4070   -3.4820  -23.6410 H   0  0  0  0  0  0  0  0  0  0  0  0
   -9.6430   -4.1580  -20.8690 H   0  0  0  0  0  0  0  0  0  0  0  0
  -10.2840   -2.4990  -20.9350 H   0  0  0  0  0  0  0  0  0  0  0  0
  -12.9170   -4.7720  -22.2400 H   0  0  0  0  0  0  0  0  0  0  0  0
  -12.3820   -4.0840  -20.6800 H   0  0  0  0  0  0  0  0  0  0  0  0
  -13.3990   -3.3760  -24.0410 H   0  0  0  0  0  0  0  0  0  0  0  0
  -13.9070   -0.6380  -23.8490 H   0  0  0  0  0  0  0  0  0  0  0  0
  -14.8730   -1.7640  -24.8500 H   0  0  0  0  0  0  0  0  0  0  0  0
  -15.3600   -1.3930  -23.1700 H   0  0  0  0  0  0  0  0  0  0  0  0
  1  2  1  0  0  0  0
  1 54  1  0  0  0  0
  1 55  1  0  0  0  0
  1 56  1  0  0  0  0
  2  3  1  0  0  0  0
  2 53  1  0  0  0  0
  3  4  2  0  0  0  0
  3  5  1  0  0  0  0
  5  6  1  0  0  0  0
  5 51  1  0  0  0  0
  5 52  1  0  0  0  0
  6  7  1  0  0  0  0
  6 44  1  0  0  0  0
  7  8  1  0  0  0  0
  7 49  1  0  0  0  0
  7 50  1  0  0  0  0
  8  9  1  1  0  0  0
  8 29  1  0  0  0  0
  8 37  1  0  0  0  0
  9 10  2  0  0  0  0
  9 11  1  0  0  0  0
 11 12  1  0  0  0  0
 11 28  1  0  0  0  0
 12 13  2  0  0  0  0
 12 21  1  0  0  0  0
 13 14  1  0  0  0  0
 13 27  1  0  0  0  0
 14 15  2  0  0  0  0
 15 16  1  0  0  0  0
 15 26  1  0  0  0  0
 16 17  2  0  0  0  0
 16 21  1  0  0  0  0
 17 18  1  0  0  0  0
 17 25  1  0  0  0  0
 18 19  2  0  0  0  0
 18 24  1  0  0  0  0
 19 20  1  0  0  0  0
 19 23  1  0  0  0  0
 20 21  2  0  0  0  0
 20 22  1  0  0  0  0
 28 29  1  0  0  0  0
 28 35  1  0  0  0  0
 28 36  1  0  0  0  0
 29 30  1  0  0  0  0
 29 34  1  6  0  0  0
 30 31  1  0  0  0  0
 30 32  1  0  0  0  0
 30 33  1  0  0  0  0
 37 38  2  0  0  0  0
 37 43  1  0  0  0  0
 38 39  1  0  0  0  0
 38 48  1  0  0  0  0
 39 40  1  0  0  0  0
 39 41  2  0  0  0  0
 41 42  1  0  0  0  0
 41 47  1  0  0  0  0
 42 43  2  0  0  0  0
 42 46  1  0  0  0  0
 43 44  1  0  0  0  0
 44 45  2  0  0  0  0
M  END
>  <MODEL>
       1

$$$$
