tmp_first_model_1_19.pdb
 OpenBabel08272517043D

 42 45  0  0  1  0  0  0  0  0999 V2000
   -8.4630    0.5860  -21.5810 O   0  0  0  0  0  0  0  0  0  0  0  0
   -8.2320   -0.5450  -21.9550 C   0  0  0  0  0  0  0  0  0  0  0  0
   -8.7650   -1.1090  -23.2790 C   0  0  1  0  0  0  0  0  0  0  0  0
   -7.7650   -0.8690  -24.4020 C   0  0  0  0  0  0  0  0  0  0  0  0
   -6.9980   -1.8790  -24.9770 C   0  0  0  0  0  0  0  0  0  0  0  0
   -6.0610   -1.5950  -25.9600 C   0  0  0  0  0  0  0  0  0  0  0  0
   -5.8770   -0.2910  -26.4020 C   0  0  0  0  0  0  0  0  0  0  0  0
   -4.6880    0.0230  -27.6200 Cl  0  0  0  0  0  0  0  0  0  0  0  0
   -6.6530    0.7290  -25.8510 C   0  0  0  0  0  0  0  0  0  0  0  0
   -6.4550    2.3710  -26.3660 Cl  0  0  0  0  0  0  0  0  0  0  0  0
   -7.5890    0.4350  -24.8670 C   0  0  0  0  0  0  0  0  0  0  0  0
   -8.1740    1.2500  -24.4540 H   0  0  0  0  0  0  0  0  0  0  0  0
   -5.4630   -2.3890  -26.3870 H   0  0  0  0  0  0  0  0  0  0  0  0
   -7.1170   -2.9110  -24.6670 H   0  0  0  0  0  0  0  0  0  0  0  0
   -9.2390   -2.5520  -23.1310 C   0  0  0  0  0  0  0  0  0  0  0  0
   -8.4130   -3.4280  -22.1840 C   0  0  2  0  0  0  0  0  0  0  0  0
   -9.2740   -3.8620  -21.1520 O   0  0  0  0  0  0  0  0  0  0  0  0
   -9.4300   -3.0990  -20.5750 H   0  0  0  0  0  0  0  0  0  0  0  0
   -7.1440   -2.7420  -21.6730 C   0  0  0  0  0  0  0  0  0  0  0  0
   -7.4290   -1.3910  -21.2120 N   0  0  0  0  0  0  0  0  0  0  0  0
   -6.6100   -0.8090  -20.1860 C   0  0  0  0  0  0  0  0  0  0  0  0
   -6.8890   -1.0490  -18.8670 C   0  0  0  0  0  0  0  0  0  0  0  0
   -6.1880   -0.5550  -17.8150 N   0  0  0  0  0  0  0  0  0  0  0  0
   -5.1610    0.2190  -18.0730 C   0  0  0  0  0  0  0  0  0  0  0  0
   -4.7280    0.5320  -19.3920 C   0  0  0  0  0  0  0  0  0  0  0  0
   -3.5960    1.3600  -19.6320 C   0  0  0  0  0  0  0  0  0  0  0  0
   -3.2000    1.6330  -20.9140 C   0  0  0  0  0  0  0  0  0  0  0  0
   -3.9100    1.0870  -22.0080 C   0  0  0  0  0  0  0  0  0  0  0  0
   -5.0070    0.2850  -21.8000 C   0  0  0  0  0  0  0  0  0  0  0  0
   -5.4600   -0.0010  -20.4840 C   0  0  0  0  0  0  0  0  0  0  0  0
   -5.5430   -0.1400  -22.6440 H   0  0  0  0  0  0  0  0  0  0  0  0
   -3.5880    1.3060  -23.0200 H   0  0  0  0  0  0  0  0  0  0  0  0
   -2.3410    2.2710  -21.1050 H   0  0  0  0  0  0  0  0  0  0  0  0
   -3.0560    1.7770  -18.7840 H   0  0  0  0  0  0  0  0  0  0  0  0
   -4.6090    0.6240  -17.2200 H   0  0  0  0  0  0  0  0  0  0  0  0
   -7.7340   -1.6750  -18.5970 H   0  0  0  0  0  0  0  0  0  0  0  0
   -6.3530   -2.7560  -22.4400 H   0  0  0  0  0  0  0  0  0  0  0  0
   -6.7570   -3.2970  -20.8170 H   0  0  0  0  0  0  0  0  0  0  0  0
   -8.1100   -4.3500  -22.6840 H   0  0  0  0  0  0  0  0  0  0  0  0
  -10.2490   -2.5530  -22.7000 H   0  0  0  0  0  0  0  0  0  0  0  0
   -9.3410   -3.0390  -24.1050 H   0  0  0  0  0  0  0  0  0  0  0  0
   -9.6410   -0.4970  -23.4980 H   0  0  0  0  0  0  0  0  0  0  0  0
  1  2  2  0  0  0  0
  2  3  1  0  0  0  0
  2 20  1  0  0  0  0
  3  4  1  0  0  0  0
  3 15  1  0  0  0  0
  3 42  1  6  0  0  0
  4  5  2  0  0  0  0
  4 11  1  0  0  0  0
  5  6  1  0  0  0  0
  5 14  1  0  0  0  0
  6  7  2  0  0  0  0
  6 13  1  0  0  0  0
  7  8  1  0  0  0  0
  7  9  1  0  0  0  0
  9 10  1  0  0  0  0
  9 11  2  0  0  0  0
 11 12  1  0  0  0  0
 15 16  1  0  0  0  0
 15 40  1  0  0  0  0
 15 41  1  0  0  0  0
 16 17  1  0  0  0  0
 16 19  1  0  0  0  0
 16 39  1  6  0  0  0
 17 18  1  0  0  0  0
 19 20  1  0  0  0  0
 19 37  1  0  0  0  0
 19 38  1  0  0  0  0
 20 21  1  0  0  0  0
 21 22  2  0  0  0  0
 21 30  1  0  0  0  0
 22 23  1  0  0  0  0
 22 36  1  0  0  0  0
 23 24  2  0  0  0  0
 24 25  1  0  0  0  0
 24 35  1  0  0  0  0
 25 26  2  0  0  0  0
 25 30  1  0  0  0  0
 26 27  1  0  0  0  0
 26 34  1  0  0  0  0
 27 28  2  0  0  0  0
 27 33  1  0  0  0  0
 28 29  1  0  0  0  0
 28 32  1  0  0  0  0
 29 30  2  0  0  0  0
 29 31  1  0  0  0  0
M  END
>  <MODEL>
       1

$$$$
