tmp_first_model_10_59.pdb
 OpenBabel08272522163D

 60 65  0  0  1  0  0  0  0  0999 V2000
   -7.3580    3.4200  -21.8910 C   0  0  0  0  0  0  0  0  0  0  0  0
   -8.2580    2.9570  -22.9330 N   0  0  0  0  0  0  0  0  0  0  0  0
   -7.7040    2.2260  -23.9450 C   0  0  0  0  0  0  0  0  0  0  0  0
   -6.5000    2.0480  -24.0490 O   0  0  0  0  0  0  0  0  0  0  0  0
   -8.6860    1.6270  -24.9490 C   0  0  0  0  0  0  0  0  0  0  0  0
   -9.3680    0.4900  -24.3640 N   0  0  0  0  0  0  0  0  0  0  0  0
   -8.6330   -0.7500  -24.1890 C   0  0  0  0  0  0  0  0  0  0  0  0
   -9.0260   -1.4810  -22.8870 C   0  0  2  0  0  0  0  0  0  0  0  0
   -8.5020   -0.7140  -21.6510 C   0  0  0  0  0  0  0  0  0  0  0  0
   -8.9330    0.3160  -21.1710 O   0  0  0  0  0  0  0  0  0  0  0  0
   -7.4140   -1.3900  -21.1590 N   0  0  0  0  0  0  0  0  0  0  0  0
   -6.6230   -0.8030  -20.1440 C   0  0  0  0  0  0  0  0  0  0  0  0
   -6.9270   -1.0560  -18.8330 C   0  0  0  0  0  0  0  0  0  0  0  0
   -6.2230   -0.5790  -17.7800 N   0  0  0  0  0  0  0  0  0  0  0  0
   -5.2000    0.1990  -18.0470 C   0  0  0  0  0  0  0  0  0  0  0  0
   -4.7930    0.5640  -19.3660 C   0  0  0  0  0  0  0  0  0  0  0  0
   -3.6880    1.4210  -19.6160 C   0  0  0  0  0  0  0  0  0  0  0  0
   -3.4220    1.8680  -20.8810 C   0  0  0  0  0  0  0  0  0  0  0  0
   -4.2190    1.4510  -21.9710 C   0  0  0  0  0  0  0  0  0  0  0  0
   -5.2210    0.5280  -21.7740 C   0  0  0  0  0  0  0  0  0  0  0  0
   -5.5480    0.0800  -20.4610 C   0  0  0  0  0  0  0  0  0  0  0  0
   -5.7850    0.1570  -22.6280 H   0  0  0  0  0  0  0  0  0  0  0  0
   -4.0700    1.8890  -22.9530 H   0  0  0  0  0  0  0  0  0  0  0  0
   -2.5860    2.5440  -21.0520 H   0  0  0  0  0  0  0  0  0  0  0  0
   -3.0870    1.7370  -18.7680 H   0  0  0  0  0  0  0  0  0  0  0  0
   -4.6230    0.5640  -17.1970 H   0  0  0  0  0  0  0  0  0  0  0  0
   -7.7850   -1.6830  -18.6030 H   0  0  0  0  0  0  0  0  0  0  0  0
   -7.0490   -2.5790  -21.8940 C   0  0  0  0  0  0  0  0  0  0  0  0
   -8.2790   -2.8510  -22.7800 C   0  0  2  0  0  0  0  0  0  0  0  0
   -7.8580   -3.5610  -24.0830 C   0  0  0  0  0  0  0  0  0  0  0  0
   -7.1390   -4.8340  -23.7740 C   0  0  0  0  0  0  0  0  0  0  0  0
   -5.8230   -4.9990  -23.8390 N   0  0  0  0  0  0  0  0  0  0  0  0
   -5.6160   -6.2520  -23.4410 N   0  0  0  0  0  0  0  0  0  0  0  0
   -6.7610   -6.8090  -23.1510 N   0  5  0  0  0  0  0  0  0  0  0  0
   -7.7450   -5.9350  -23.3450 N   0  0  0  0  0  0  0  0  0  0  0  0
   -7.1570   -2.9380  -24.6430 H   0  0  0  0  0  0  0  0  0  0  0  0
   -8.7150   -3.7980  -24.7220 H   0  0  0  0  0  0  0  0  0  0  0  0
   -8.9340   -3.5570  -22.2630 H   0  0  0  0  0  0  0  0  0  0  0  0
   -6.8360   -3.4180  -21.2260 H   0  0  0  0  0  0  0  0  0  0  0  0
   -6.1380   -2.4180  -22.4940 H   0  0  0  0  0  0  0  0  0  0  0  0
  -10.5390   -1.5360  -22.8300 C   0  0  0  0  0  0  0  0  0  0  0  0
  -11.1800   -2.4340  -21.9760 C   0  0  0  0  0  0  0  0  0  0  0  0
  -12.5600   -2.4440  -21.8900 C   0  0  0  0  0  0  0  0  0  0  0  0
  -13.3230   -3.5580  -20.8020 Cl  0  0  0  0  0  0  0  0  0  0  0  0
  -13.3580   -1.5760  -22.6330 C   0  0  0  0  0  0  0  0  0  0  0  0
  -12.7270   -0.6580  -23.4430 C   0  0  0  0  0  0  0  0  0  0  0  0
  -11.3380   -0.6120  -23.5160 C   0  0  0  0  0  0  0  0  0  0  0  0
  -10.7330    0.5060  -24.3010 C   0  0  0  0  0  0  0  0  0  0  0  0
  -11.4070    1.3870  -24.8180 O   0  0  0  0  0  0  0  0  0  0  0  0
  -13.2850    0.0640  -24.0240 H   0  0  0  0  0  0  0  0  0  0  0  0
  -14.4400   -1.6090  -22.5520 H   0  0  0  0  0  0  0  0  0  0  0  0
  -10.6130   -3.1230  -21.3600 H   0  0  0  0  0  0  0  0  0  0  0  0
   -7.5610   -0.5260  -24.1930 H   0  0  0  0  0  0  0  0  0  0  0  0
   -8.8420   -1.4300  -25.0250 H   0  0  0  0  0  0  0  0  0  0  0  0
   -8.1200    1.3120  -25.8320 H   0  0  0  0  0  0  0  0  0  0  0  0
   -9.4530    2.3450  -25.2560 H   0  0  0  0  0  0  0  0  0  0  0  0
   -9.2120    2.7550  -22.6550 H   0  0  0  0  0  0  0  0  0  0  0  0
   -6.7970    2.5730  -21.4700 H   0  0  0  0  0  0  0  0  0  0  0  0
   -6.6450    4.1400  -22.3030 H   0  0  0  0  0  0  0  0  0  0  0  0
   -7.9210    3.9200  -21.1020 H   0  0  0  0  0  0  0  0  0  0  0  0
  1  2  1  0  0  0  0
  1 58  1  0  0  0  0
  1 59  1  0  0  0  0
  1 60  1  0  0  0  0
  2  3  1  0  0  0  0
  2 57  1  0  0  0  0
  3  4  2  0  0  0  0
  3  5  1  0  0  0  0
  5  6  1  0  0  0  0
  5 55  1  0  0  0  0
  5 56  1  0  0  0  0
  6  7  1  0  0  0  0
  6 48  1  0  0  0  0
  7  8  1  0  0  0  0
  7 53  1  0  0  0  0
  7 54  1  0  0  0  0
  8  9  1  1  0  0  0
  8 29  1  0  0  0  0
  8 41  1  0  0  0  0
  9 10  2  0  0  0  0
  9 11  1  0  0  0  0
 11 12  1  0  0  0  0
 11 28  1  0  0  0  0
 12 13  2  0  0  0  0
 12 21  1  0  0  0  0
 13 14  1  0  0  0  0
 13 27  1  0  0  0  0
 14 15  2  0  0  0  0
 15 16  1  0  0  0  0
 15 26  1  0  0  0  0
 16 17  2  0  0  0  0
 16 21  1  0  0  0  0
 17 18  1  0  0  0  0
 17 25  1  0  0  0  0
 18 19  2  0  0  0  0
 18 24  1  0  0  0  0
 19 20  1  0  0  0  0
 19 23  1  0  0  0  0
 20 21  2  0  0  0  0
 20 22  1  0  0  0  0
 28 29  1  0  0  0  0
 28 39  1  0  0  0  0
 28 40  1  0  0  0  0
 29 30  1  0  0  0  0
 29 38  1  1  0  0  0
 30 31  1  0  0  0  0
 30 36  1  0  0  0  0
 30 37  1  0  0  0  0
 31 32  1  0  0  0  0
 31 35  2  0  0  0  0
 32 33  2  0  0  0  0
 33 34  1  0  0  0  0
 34 35  1  0  0  0  0
 41 42  2  0  0  0  0
 41 47  1  0  0  0  0
 42 43  1  0  0  0  0
 42 52  1  0  0  0  0
 43 44  1  0  0  0  0
 43 45  2  0  0  0  0
 45 46  1  0  0  0  0
 45 51  1  0  0  0  0
 46 47  2  0  0  0  0
 46 50  1  0  0  0  0
 47 48  1  0  0  0  0
 48 49  2  0  0  0  0
M  CHG  1  34  -1
M  END
>  <MODEL>
       1

$$$$
