tmp_first_model_12_43.pdb
 OpenBabel08272523333D

 67 72  0  0  1  0  0  0  0  0999 V2000
   -7.3810    3.3200  -22.0390 C   0  0  0  0  0  0  0  0  0  0  0  0
   -8.2460    2.7980  -23.0770 N   0  0  0  0  0  0  0  0  0  0  0  0
   -7.6860    2.0730  -24.0820 C   0  0  0  0  0  0  0  0  0  0  0  0
   -6.4820    1.9110  -24.1710 O   0  0  0  0  0  0  0  0  0  0  0  0
   -8.6620    1.4440  -25.0770 C   0  0  0  0  0  0  0  0  0  0  0  0
   -9.3420    0.3230  -24.4560 N   0  0  0  0  0  0  0  0  0  0  0  0
   -8.5810   -0.9000  -24.2240 C   0  0  0  0  0  0  0  0  0  0  0  0
   -9.0060   -1.6080  -22.9170 C   0  0  2  0  0  0  0  0  0  0  0  0
   -8.5040   -0.7960  -21.6980 C   0  0  0  0  0  0  0  0  0  0  0  0
   -8.9740    0.2230  -21.2290 O   0  0  0  0  0  0  0  0  0  0  0  0
   -7.3850   -1.4100  -21.2000 N   0  0  0  0  0  0  0  0  0  0  0  0
   -6.6260   -0.7990  -20.1790 C   0  0  0  0  0  0  0  0  0  0  0  0
   -6.9420   -1.0560  -18.8700 C   0  0  0  0  0  0  0  0  0  0  0  0
   -6.2600   -0.5660  -17.8110 N   0  0  0  0  0  0  0  0  0  0  0  0
   -5.2190    0.1930  -18.0630 C   0  0  0  0  0  0  0  0  0  0  0  0
   -4.7970    0.5540  -19.3760 C   0  0  0  0  0  0  0  0  0  0  0  0
   -3.6770    1.3950  -19.6010 C   0  0  0  0  0  0  0  0  0  0  0  0
   -3.3450    1.7900  -20.8700 C   0  0  0  0  0  0  0  0  0  0  0  0
   -4.1450    1.4000  -21.9670 C   0  0  0  0  0  0  0  0  0  0  0  0
   -5.2140    0.5520  -21.7810 C   0  0  0  0  0  0  0  0  0  0  0  0
   -5.5510    0.0890  -20.4780 C   0  0  0  0  0  0  0  0  0  0  0  0
   -5.8270    0.2840  -22.6350 H   0  0  0  0  0  0  0  0  0  0  0  0
   -3.9180    1.7660  -22.9650 H   0  0  0  0  0  0  0  0  0  0  0  0
   -2.4770    2.4220  -21.0360 H   0  0  0  0  0  0  0  0  0  0  0  0
   -3.1060    1.7280  -18.7400 H   0  0  0  0  0  0  0  0  0  0  0  0
   -4.6610    0.5760  -17.2090 H   0  0  0  0  0  0  0  0  0  0  0  0
   -7.7980   -1.6890  -18.6490 H   0  0  0  0  0  0  0  0  0  0  0  0
   -7.0120   -2.6210  -21.8890 C   0  0  0  0  0  0  0  0  0  0  0  0
   -8.2550   -2.9640  -22.7170 C   0  0  2  0  0  0  0  0  0  0  0  0
   -7.8110   -3.7790  -23.9330 C   0  0  0  0  0  0  0  0  0  0  0  0
   -8.9130   -4.2480  -24.7180 N   0  0  0  0  0  0  0  0  0  0  0  0
   -8.7690   -4.9300  -25.8960 C   0  0  0  0  0  0  0  0  0  0  0  0
   -7.2500   -5.2890  -26.6420 S   0  0  0  0  0  0  0  0  0  0  0  0
   -8.1280   -6.0120  -27.9630 C   0  0  0  0  0  0  0  0  0  0  0  0
   -9.4120   -6.0150  -27.8440 N   0  0  0  0  0  0  0  0  0  0  0  0
   -9.7890   -5.3950  -26.6730 C   0  0  0  0  0  0  0  0  0  0  0  0
  -11.2070   -5.1480  -26.3020 C   0  0  0  0  0  0  0  0  0  0  0  0
  -11.8900   -5.5210  -27.0660 H   0  0  0  0  0  0  0  0  0  0  0  0
  -11.3420   -4.0640  -26.1860 H   0  0  0  0  0  0  0  0  0  0  0  0
  -11.4740   -5.6030  -25.3410 H   0  0  0  0  0  0  0  0  0  0  0  0
   -7.5940   -6.3810  -28.8320 H   0  0  0  0  0  0  0  0  0  0  0  0
   -9.8510   -4.0160  -24.4230 H   0  0  0  0  0  0  0  0  0  0  0  0
   -7.1390   -3.1730  -24.5540 H   0  0  0  0  0  0  0  0  0  0  0  0
   -7.2210   -4.6340  -23.5760 H   0  0  0  0  0  0  0  0  0  0  0  0
   -8.9000   -3.6040  -22.1060 H   0  0  0  0  0  0  0  0  0  0  0  0
   -6.1410   -2.4690  -22.5440 H   0  0  0  0  0  0  0  0  0  0  0  0
   -6.7580   -3.4210  -21.1880 H   0  0  0  0  0  0  0  0  0  0  0  0
  -10.5210   -1.6780  -22.8690 C   0  0  0  0  0  0  0  0  0  0  0  0
  -11.1630   -2.5540  -21.9830 C   0  0  0  0  0  0  0  0  0  0  0  0
  -12.5410   -2.5490  -21.8640 C   0  0  0  0  0  0  0  0  0  0  0  0
  -13.2890   -3.6190  -20.7040 Cl  0  0  0  0  0  0  0  0  0  0  0  0
  -13.3310   -1.6770  -22.6140 C   0  0  0  0  0  0  0  0  0  0  0  0
  -12.7060   -0.7780  -23.4570 C   0  0  0  0  0  0  0  0  0  0  0  0
  -11.3160   -0.7570  -23.5690 C   0  0  0  0  0  0  0  0  0  0  0  0
  -10.7100    0.3310  -24.4030 C   0  0  0  0  0  0  0  0  0  0  0  0
  -11.3930    1.1800  -24.9620 O   0  0  0  0  0  0  0  0  0  0  0  0
  -13.2790   -0.0680  -24.0430 H   0  0  0  0  0  0  0  0  0  0  0  0
  -14.4130   -1.7140  -22.5240 H   0  0  0  0  0  0  0  0  0  0  0  0
  -10.6040   -3.2270  -21.3440 H   0  0  0  0  0  0  0  0  0  0  0  0
   -7.5190   -0.6410  -24.1720 H   0  0  0  0  0  0  0  0  0  0  0  0
   -8.7240   -1.5890  -25.0690 H   0  0  0  0  0  0  0  0  0  0  0  0
   -8.1060    1.1160  -25.9630 H   0  0  0  0  0  0  0  0  0  0  0  0
   -9.4270    2.1550  -25.3990 H   0  0  0  0  0  0  0  0  0  0  0  0
   -9.1880    2.5650  -22.8100 H   0  0  0  0  0  0  0  0  0  0  0  0
   -7.9580    3.9330  -21.3480 H   0  0  0  0  0  0  0  0  0  0  0  0
   -6.8970    2.5050  -21.4920 H   0  0  0  0  0  0  0  0  0  0  0  0
   -6.6080    3.9400  -22.4890 H   0  0  0  0  0  0  0  0  0  0  0  0
  1  2  1  0  0  0  0
  1 65  1  0  0  0  0
  1 66  1  0  0  0  0
  1 67  1  0  0  0  0
  2  3  1  0  0  0  0
  2 64  1  0  0  0  0
  3  4  2  0  0  0  0
  3  5  1  0  0  0  0
  5  6  1  0  0  0  0
  5 62  1  0  0  0  0
  5 63  1  0  0  0  0
  6  7  1  0  0  0  0
  6 55  1  0  0  0  0
  7  8  1  0  0  0  0
  7 60  1  0  0  0  0
  7 61  1  0  0  0  0
  8  9  1  1  0  0  0
  8 29  1  0  0  0  0
  8 48  1  0  0  0  0
  9 10  2  0  0  0  0
  9 11  1  0  0  0  0
 11 12  1  0  0  0  0
 11 28  1  0  0  0  0
 12 13  2  0  0  0  0
 12 21  1  0  0  0  0
 13 14  1  0  0  0  0
 13 27  1  0  0  0  0
 14 15  2  0  0  0  0
 15 16  1  0  0  0  0
 15 26  1  0  0  0  0
 16 17  2  0  0  0  0
 16 21  1  0  0  0  0
 17 18  1  0  0  0  0
 17 25  1  0  0  0  0
 18 19  2  0  0  0  0
 18 24  1  0  0  0  0
 19 20  1  0  0  0  0
 19 23  1  0  0  0  0
 20 21  2  0  0  0  0
 20 22  1  0  0  0  0
 28 29  1  0  0  0  0
 28 46  1  0  0  0  0
 28 47  1  0  0  0  0
 29 30  1  0  0  0  0
 29 45  1  1  0  0  0
 30 31  1  0  0  0  0
 30 43  1  0  0  0  0
 30 44  1  0  0  0  0
 31 32  1  0  0  0  0
 31 42  1  0  0  0  0
 32 33  1  0  0  0  0
 32 36  2  0  0  0  0
 33 34  1  0  0  0  0
 34 35  2  0  0  0  0
 34 41  1  0  0  0  0
 35 36  1  0  0  0  0
 36 37  1  0  0  0  0
 37 38  1  0  0  0  0
 37 39  1  0  0  0  0
 37 40  1  0  0  0  0
 48 49  2  0  0  0  0
 48 54  1  0  0  0  0
 49 50  1  0  0  0  0
 49 59  1  0  0  0  0
 50 51  1  0  0  0  0
 50 52  2  0  0  0  0
 52 53  1  0  0  0  0
 52 58  1  0  0  0  0
 53 54  2  0  0  0  0
 53 57  1  0  0  0  0
 54 55  1  0  0  0  0
 55 56  2  0  0  0  0
M  END
>  <MODEL>
       1

$$$$
