tmp_first_model_19_89.pdb
 OpenBabel08282503233D

 43 45  0  0  0  0  0  0  0  0999 V2000
   -6.1710   -4.4180  -27.1880 C   0  0  0  0  0  0  0  0  0  0  0  0
   -6.0040   -3.3830  -26.0700 C   0  0  0  0  0  0  0  0  0  0  0  0
   -5.3450   -2.1320  -26.6650 C   0  0  0  0  0  0  0  0  0  0  0  0
   -4.3650   -2.3750  -27.0900 H   0  0  0  0  0  0  0  0  0  0  0  0
   -5.9590   -1.7190  -27.4720 H   0  0  0  0  0  0  0  0  0  0  0  0
   -5.1940   -1.3360  -25.9320 H   0  0  0  0  0  0  0  0  0  0  0  0
   -5.1420   -3.9830  -24.9520 C   0  0  0  0  0  0  0  0  0  0  0  0
   -5.0880   -3.1180  -23.7000 C   0  0  0  0  0  0  0  0  0  0  0  0
   -6.4200   -2.7530  -23.2310 N   0  0  0  0  0  0  0  0  0  0  0  0
   -6.6330   -2.6890  -21.8590 C   0  0  0  0  0  0  0  0  0  0  0  0
   -6.2030   -3.5440  -21.1110 O   0  0  0  0  0  0  0  0  0  0  0  0
   -7.3900   -1.4740  -21.2780 C   0  0  0  0  0  0  0  0  0  0  0  0
   -6.5810   -0.8190  -20.1780 C   0  0  0  0  0  0  0  0  0  0  0  0
   -6.8740   -1.0450  -18.8590 C   0  0  0  0  0  0  0  0  0  0  0  0
   -6.1840   -0.5470  -17.7980 N   0  0  0  0  0  0  0  0  0  0  0  0
   -5.1570    0.2230  -18.0660 C   0  0  0  0  0  0  0  0  0  0  0  0
   -4.7210    0.5330  -19.3820 C   0  0  0  0  0  0  0  0  0  0  0  0
   -3.5880    1.3510  -19.6240 C   0  0  0  0  0  0  0  0  0  0  0  0
   -3.1890    1.6320  -20.9020 C   0  0  0  0  0  0  0  0  0  0  0  0
   -3.9070    1.0960  -21.9950 C   0  0  0  0  0  0  0  0  0  0  0  0
   -5.0050    0.2980  -21.7890 C   0  0  0  0  0  0  0  0  0  0  0  0
   -5.4470   -0.0030  -20.4730 C   0  0  0  0  0  0  0  0  0  0  0  0
   -5.5440   -0.1030  -22.6440 H   0  0  0  0  0  0  0  0  0  0  0  0
   -3.5860    1.3260  -23.0060 H   0  0  0  0  0  0  0  0  0  0  0  0
   -2.3290    2.2710  -21.0850 H   0  0  0  0  0  0  0  0  0  0  0  0
   -3.0550    1.7670  -18.7720 H   0  0  0  0  0  0  0  0  0  0  0  0
   -4.6040    0.6290  -17.2160 H   0  0  0  0  0  0  0  0  0  0  0  0
   -7.7220   -1.6710  -18.5850 H   0  0  0  0  0  0  0  0  0  0  0  0
   -8.3260   -1.8500  -20.8480 H   0  0  0  0  0  0  0  0  0  0  0  0
   -7.6530   -0.7400  -22.0510 H   0  0  0  0  0  0  0  0  0  0  0  0
   -7.3110   -2.1750  -24.2200 C   0  0  0  0  0  0  0  0  0  0  0  0
   -7.3770   -3.0470  -25.4780 C   0  0  0  0  0  0  0  0  0  0  0  0
   -7.9880   -2.5460  -26.2350 H   0  0  0  0  0  0  0  0  0  0  0  0
   -7.8990   -3.9800  -25.2370 H   0  0  0  0  0  0  0  0  0  0  0  0
   -7.0200   -1.1470  -24.4920 H   0  0  0  0  0  0  0  0  0  0  0  0
   -8.3070   -2.1160  -23.7810 H   0  0  0  0  0  0  0  0  0  0  0  0
   -4.6000   -3.6540  -22.8870 H   0  0  0  0  0  0  0  0  0  0  0  0
   -4.4820   -2.2150  -23.8920 H   0  0  0  0  0  0  0  0  0  0  0  0
   -4.1280   -4.1550  -25.3290 H   0  0  0  0  0  0  0  0  0  0  0  0
   -5.5400   -4.9680  -24.6830 H   0  0  0  0  0  0  0  0  0  0  0  0
   -5.2020   -4.6910  -27.6230 H   0  0  0  0  0  0  0  0  0  0  0  0
   -6.6380   -5.3380  -26.8190 H   0  0  0  0  0  0  0  0  0  0  0  0
   -6.7990   -4.0300  -27.9980 H   0  0  0  0  0  0  0  0  0  0  0  0
  1  2  1  0  0  0  0
  1 41  1  0  0  0  0
  1 42  1  0  0  0  0
  1 43  1  0  0  0  0
  2  3  1  0  0  0  0
  2  7  1  0  0  0  0
  2 32  1  0  0  0  0
  3  4  1  0  0  0  0
  3  5  1  0  0  0  0
  3  6  1  0  0  0  0
  7  8  1  0  0  0  0
  7 39  1  0  0  0  0
  7 40  1  0  0  0  0
  8  9  1  0  0  0  0
  8 37  1  0  0  0  0
  8 38  1  0  0  0  0
  9 10  1  0  0  0  0
  9 31  1  0  0  0  0
 10 11  2  0  0  0  0
 10 12  1  0  0  0  0
 12 13  1  0  0  0  0
 12 29  1  0  0  0  0
 12 30  1  0  0  0  0
 13 14  2  0  0  0  0
 13 22  1  0  0  0  0
 14 15  1  0  0  0  0
 14 28  1  0  0  0  0
 15 16  2  0  0  0  0
 16 17  1  0  0  0  0
 16 27  1  0  0  0  0
 17 18  2  0  0  0  0
 17 22  1  0  0  0  0
 18 19  1  0  0  0  0
 18 26  1  0  0  0  0
 19 20  2  0  0  0  0
 19 25  1  0  0  0  0
 20 21  1  0  0  0  0
 20 24  1  0  0  0  0
 21 22  2  0  0  0  0
 21 23  1  0  0  0  0
 31 32  1  0  0  0  0
 31 35  1  0  0  0  0
 31 36  1  0  0  0  0
 32 33  1  0  0  0  0
 32 34  1  0  0  0  0
M  END
>  <MODEL>
       1

$$$$
