tmp_first_model_3_12.pdb
 OpenBabel08272518143D

 76 82  0  0  1  0  0  0  0  0999 V2000
  -12.4830    0.3540  -24.5700 O   0  0  0  0  0  0  0  0  0  0  0  0
  -11.6840   -0.4100  -24.0500 C   0  0  0  0  0  0  0  0  0  0  0  0
  -12.0400   -1.3380  -22.9330 C   0  0  0  0  0  0  0  0  0  0  0  0
  -13.2410   -1.1550  -22.2500 C   0  0  0  0  0  0  0  0  0  0  0  0
  -13.6020   -2.0440  -21.2640 C   0  0  0  0  0  0  0  0  0  0  0  0
  -12.8120   -3.1790  -21.0620 C   0  0  0  0  0  0  0  0  0  0  0  0
  -13.3610   -4.4710  -20.0430 Cl  0  0  0  0  0  0  0  0  0  0  0  0
  -11.5870   -3.3200  -21.6720 C   0  0  0  0  0  0  0  0  0  0  0  0
  -11.1200   -2.3040  -22.5000 C   0  0  0  0  0  0  0  0  0  0  0  0
   -9.6480   -2.0810  -22.7210 C   0  0  1  0  0  0  0  0  0  0  0  0
   -9.4920   -1.5150  -24.1460 C   0  0  0  0  0  0  0  0  0  0  0  0
  -10.3530   -0.3760  -24.3660 N   0  0  0  0  0  0  0  0  0  0  0  0
   -9.8450    0.9470  -24.6640 C   0  0  0  0  0  0  0  0  0  0  0  0
  -10.0030    1.8860  -23.4520 C   0  0  0  0  0  0  0  0  0  0  0  0
  -10.3370    3.2970  -23.8080 N   0  3  0  0  0  0  0  0  0  0  0  0
   -9.5790    3.8670  -24.9780 C   0  0  0  0  0  0  0  0  0  0  0  0
   -9.9300    5.3370  -25.1250 C   0  0  0  0  0  0  0  0  0  0  0  0
  -11.3200    5.5240  -25.3090 O   0  0  0  0  0  0  0  0  0  0  0  0
  -12.0720    5.0030  -24.2310 C   0  0  0  0  0  0  0  0  0  0  0  0
  -11.8220    3.5190  -24.0030 C   0  0  0  0  0  0  0  0  0  0  0  0
  -12.3370    3.1660  -23.1050 H   0  0  0  0  0  0  0  0  0  0  0  0
  -12.1700    2.9180  -24.8460 H   0  0  0  0  0  0  0  0  0  0  0  0
  -11.8190    5.5400  -23.3020 H   0  0  0  0  0  0  0  0  0  0  0  0
  -13.1220    5.1910  -24.4680 H   0  0  0  0  0  0  0  0  0  0  0  0
   -9.4340    5.7710  -25.9960 H   0  0  0  0  0  0  0  0  0  0  0  0
   -9.5870    5.8740  -24.2270 H   0  0  0  0  0  0  0  0  0  0  0  0
   -8.5080    3.7260  -24.8210 H   0  0  0  0  0  0  0  0  0  0  0  0
   -9.8760    3.3340  -25.8840 H   0  0  0  0  0  0  0  0  0  0  0  0
  -10.0670    3.8520  -22.9670 H   0  0  0  0  0  0  0  0  0  0  0  0
   -9.1050    1.8870  -22.8320 H   0  0  0  0  0  0  0  0  0  0  0  0
  -10.8160    1.5240  -22.8200 H   0  0  0  0  0  0  0  0  0  0  0  0
   -8.7970    0.8760  -24.9740 H   0  0  0  0  0  0  0  0  0  0  0  0
  -10.4280    1.3320  -25.5020 H   0  0  0  0  0  0  0  0  0  0  0  0
   -9.7580   -2.3200  -24.8450 H   0  0  0  0  0  0  0  0  0  0  0  0
   -8.4540   -1.2150  -24.3220 H   0  0  0  0  0  0  0  0  0  0  0  0
   -9.1200   -1.0600  -21.6710 C   0  0  0  0  0  0  0  0  0  0  0  0
   -9.6880   -0.0870  -21.2230 O   0  0  0  0  0  0  0  0  0  0  0  0
   -7.8530   -1.4470  -21.3160 N   0  0  0  0  0  0  0  0  0  0  0  0
   -7.1360   -0.8470  -20.2610 C   0  0  0  0  0  0  0  0  0  0  0  0
   -7.5010   -1.0460  -18.9550 C   0  0  0  0  0  0  0  0  0  0  0  0
   -6.7750   -0.6090  -17.8940 N   0  0  0  0  0  0  0  0  0  0  0  0
   -5.6700    0.0540  -18.1370 C   0  0  0  0  0  0  0  0  0  0  0  0
   -5.1990    0.3510  -19.4490 C   0  0  0  0  0  0  0  0  0  0  0  0
   -4.0190    1.1030  -19.6870 C   0  0  0  0  0  0  0  0  0  0  0  0
   -3.5770    1.3150  -20.9640 C   0  0  0  0  0  0  0  0  0  0  0  0
   -4.2860    0.7850  -22.0640 C   0  0  0  0  0  0  0  0  0  0  0  0
   -5.4450    0.0780  -21.8620 C   0  0  0  0  0  0  0  0  0  0  0  0
   -5.9320   -0.1400  -20.5480 C   0  0  0  0  0  0  0  0  0  0  0  0
   -6.0070   -0.3160  -22.7030 H   0  0  0  0  0  0  0  0  0  0  0  0
   -3.9160    0.9400  -23.0700 H   0  0  0  0  0  0  0  0  0  0  0  0
   -2.6730    1.8920  -21.1420 H   0  0  0  0  0  0  0  0  0  0  0  0
   -3.4840    1.5080  -18.8330 H   0  0  0  0  0  0  0  0  0  0  0  0
   -5.0770    0.3800  -17.2770 H   0  0  0  0  0  0  0  0  0  0  0  0
   -8.4020   -1.6060  -18.7090 H   0  0  0  0  0  0  0  0  0  0  0  0
   -7.4280   -2.6860  -21.9220 C   0  0  0  0  0  0  0  0  0  0  0  0
   -8.7480   -3.3010  -22.3990 C   0  0  2  0  0  0  0  0  0  0  0  0
   -8.5010   -4.3480  -23.4740 C   0  0  0  0  0  0  0  0  0  0  0  0
   -9.6730   -5.0090  -24.0170 N   0  0  0  0  0  0  0  0  0  0  0  0
   -9.5410   -5.8200  -25.1050 C   0  0  0  0  0  0  0  0  0  0  0  0
  -10.5980   -6.5720  -25.4590 N   0  0  0  0  0  0  0  0  0  0  0  0
  -10.4540   -7.2870  -26.5680 C   0  0  0  0  0  0  0  0  0  0  0  0
   -9.3010   -7.2720  -27.3500 C   0  0  0  0  0  0  0  0  0  0  0  0
   -8.2600   -6.4940  -26.8630 C   0  0  0  0  0  0  0  0  0  0  0  0
   -8.3560   -5.7820  -25.7450 N   0  0  0  0  0  0  0  0  0  0  0  0
   -7.3070   -6.4180  -27.3900 H   0  0  0  0  0  0  0  0  0  0  0  0
   -9.2240   -7.8350  -28.2730 H   0  0  0  0  0  0  0  0  0  0  0  0
  -11.3100   -7.9010  -26.8460 H   0  0  0  0  0  0  0  0  0  0  0  0
  -10.5540   -5.0470  -23.5230 H   0  0  0  0  0  0  0  0  0  0  0  0
   -7.8040   -5.1040  -23.0900 H   0  0  0  0  0  0  0  0  0  0  0  0
   -8.0020   -3.8650  -24.3170 H   0  0  0  0  0  0  0  0  0  0  0  0
   -9.2050   -3.7620  -21.5230 H   0  0  0  0  0  0  0  0  0  0  0  0
   -6.7370   -2.5260  -22.7630 H   0  0  0  0  0  0  0  0  0  0  0  0
   -6.8990   -3.2930  -21.1850 H   0  0  0  0  0  0  0  0  0  0  0  0
  -10.9940   -4.2010  -21.4630 H   0  0  0  0  0  0  0  0  0  0  0  0
  -14.5160   -1.9330  -20.6930 H   0  0  0  0  0  0  0  0  0  0  0  0
  -13.8950   -0.3240  -22.4850 H   0  0  0  0  0  0  0  0  0  0  0  0
  1  2  2  0  0  0  0
  2  3  1  0  0  0  0
  2 12  1  0  0  0  0
  3  4  2  0  0  0  0
  3  9  1  0  0  0  0
  4  5  1  0  0  0  0
  4 76  1  0  0  0  0
  5  6  2  0  0  0  0
  5 75  1  0  0  0  0
  6  7  1  0  0  0  0
  6  8  1  0  0  0  0
  8  9  2  0  0  0  0
  8 74  1  0  0  0  0
 10  9  1  1  0  0  0
 10 11  1  0  0  0  0
 10 36  1  0  0  0  0
 10 56  1  0  0  0  0
 11 12  1  0  0  0  0
 11 34  1  0  0  0  0
 11 35  1  0  0  0  0
 12 13  1  0  0  0  0
 13 14  1  0  0  0  0
 13 32  1  0  0  0  0
 13 33  1  0  0  0  0
 14 15  1  0  0  0  0
 14 30  1  0  0  0  0
 14 31  1  0  0  0  0
 15 16  1  0  0  0  0
 15 20  1  0  0  0  0
 15 29  1  0  0  0  0
 16 17  1  0  0  0  0
 16 27  1  0  0  0  0
 16 28  1  0  0  0  0
 17 18  1  0  0  0  0
 17 25  1  0  0  0  0
 17 26  1  0  0  0  0
 18 19  1  0  0  0  0
 19 20  1  0  0  0  0
 19 23  1  0  0  0  0
 19 24  1  0  0  0  0
 20 21  1  0  0  0  0
 20 22  1  0  0  0  0
 36 37  2  0  0  0  0
 36 38  1  0  0  0  0
 38 39  1  0  0  0  0
 38 55  1  0  0  0  0
 39 40  2  0  0  0  0
 39 48  1  0  0  0  0
 40 41  1  0  0  0  0
 40 54  1  0  0  0  0
 41 42  2  0  0  0  0
 42 43  1  0  0  0  0
 42 53  1  0  0  0  0
 43 44  2  0  0  0  0
 43 48  1  0  0  0  0
 44 45  1  0  0  0  0
 44 52  1  0  0  0  0
 45 46  2  0  0  0  0
 45 51  1  0  0  0  0
 46 47  1  0  0  0  0
 46 50  1  0  0  0  0
 47 48  2  0  0  0  0
 47 49  1  0  0  0  0
 55 56  1  0  0  0  0
 55 72  1  0  0  0  0
 55 73  1  0  0  0  0
 56 57  1  0  0  0  0
 56 71  1  1  0  0  0
 57 58  1  0  0  0  0
 57 69  1  0  0  0  0
 57 70  1  0  0  0  0
 58 59  1  0  0  0  0
 58 68  1  0  0  0  0
 59 60  2  0  0  0  0
 59 64  1  0  0  0  0
 60 61  1  0  0  0  0
 61 62  2  0  0  0  0
 61 67  1  0  0  0  0
 62 63  1  0  0  0  0
 62 66  1  0  0  0  0
 63 64  2  0  0  0  0
 63 65  1  0  0  0  0
M  CHG  1  15   1
M  END
>  <MODEL>
       1

$$$$
