tmp_first_model_7_5.pdb
 OpenBabel08272520323D

 58 61  0  0  1  0  0  0  0  0999 V2000
   -8.1550   -4.6230  -21.7210 C   0  0  0  0  0  0  0  0  0  0  0  0
   -7.0980   -3.8590  -21.4370 C   0  0  0  0  0  0  0  0  0  0  0  0
   -6.7670   -2.5140  -21.9910 C   0  0  0  0  0  0  0  0  0  0  0  0
   -7.3600   -1.4160  -21.2280 N   0  0  0  0  0  0  0  0  0  0  0  0
   -8.5890   -0.8090  -21.4610 C   0  0  0  0  0  0  0  0  0  0  0  0
   -9.0240    0.0090  -20.6770 O   0  0  0  0  0  0  0  0  0  0  0  0
   -9.3280   -1.1070  -22.7760 C   0  0  2  0  0  0  0  0  0  0  0  0
   -8.7450   -0.2280  -23.8970 C   0  0  0  0  0  0  0  0  0  0  0  0
   -9.0870    1.1670  -23.6590 N   0  0  0  0  0  0  0  0  0  0  0  0
   -8.0460    2.1740  -23.7300 C   0  0  0  0  0  0  0  0  0  0  0  0
   -7.5190    2.3260  -25.1560 C   0  0  0  0  0  0  0  0  0  0  0  0
   -6.4690    1.8250  -25.5260 O   0  0  0  0  0  0  0  0  0  0  0  0
   -8.3350    3.0240  -25.9860 N   0  0  0  0  0  0  0  0  0  0  0  0
   -7.9380    3.2060  -27.3690 C   0  0  0  0  0  0  0  0  0  0  0  0
   -6.9850    3.7430  -27.4210 H   0  0  0  0  0  0  0  0  0  0  0  0
   -7.8090    2.2380  -27.8640 H   0  0  0  0  0  0  0  0  0  0  0  0
   -8.7030    3.7810  -27.8960 H   0  0  0  0  0  0  0  0  0  0  0  0
   -9.2320    3.3460  -25.6560 H   0  0  0  0  0  0  0  0  0  0  0  0
   -7.2140    1.8770  -23.0810 H   0  0  0  0  0  0  0  0  0  0  0  0
   -8.4710    3.1170  -23.3720 H   0  0  0  0  0  0  0  0  0  0  0  0
  -10.3860    1.5500  -23.4820 C   0  0  0  0  0  0  0  0  0  0  0  0
  -10.7850    2.6800  -23.7400 O   0  0  0  0  0  0  0  0  0  0  0  0
  -11.2930    0.4810  -22.9600 C   0  0  0  0  0  0  0  0  0  0  0  0
  -12.6450    0.7860  -22.8060 C   0  0  0  0  0  0  0  0  0  0  0  0
  -13.5370   -0.1830  -22.3910 C   0  0  0  0  0  0  0  0  0  0  0  0
  -13.0530   -1.4580  -22.1000 C   0  0  0  0  0  0  0  0  0  0  0  0
  -14.1710   -2.6800  -21.5660 Cl  0  0  0  0  0  0  0  0  0  0  0  0
  -11.7050   -1.7630  -22.2230 C   0  0  0  0  0  0  0  0  0  0  0  0
  -10.8030   -0.7890  -22.6560 C   0  0  0  0  0  0  0  0  0  0  0  0
  -11.3580   -2.7650  -21.9810 H   0  0  0  0  0  0  0  0  0  0  0  0
  -14.5960    0.0370  -22.2910 H   0  0  0  0  0  0  0  0  0  0  0  0
  -12.9680    1.7980  -23.0260 H   0  0  0  0  0  0  0  0  0  0  0  0
   -9.1430   -0.5640  -24.8650 H   0  0  0  0  0  0  0  0  0  0  0  0
   -7.6550   -0.2940  -23.9490 H   0  0  0  0  0  0  0  0  0  0  0  0
   -9.2200   -2.1620  -23.0370 H   0  0  0  0  0  0  0  0  0  0  0  0
   -6.5910   -0.8560  -20.1760 C   0  0  0  0  0  0  0  0  0  0  0  0
   -6.9000   -1.1120  -18.8680 C   0  0  0  0  0  0  0  0  0  0  0  0
   -6.1970   -0.6160  -17.8230 N   0  0  0  0  0  0  0  0  0  0  0  0
   -5.1770    0.1620  -18.0900 C   0  0  0  0  0  0  0  0  0  0  0  0
   -4.7450    0.4910  -19.4050 C   0  0  0  0  0  0  0  0  0  0  0  0
   -3.6230    1.3250  -19.6450 C   0  0  0  0  0  0  0  0  0  0  0  0
   -3.2420    1.6330  -20.9200 C   0  0  0  0  0  0  0  0  0  0  0  0
   -3.9630    1.1250  -22.0220 C   0  0  0  0  0  0  0  0  0  0  0  0
   -5.0510    0.3140  -21.8180 C   0  0  0  0  0  0  0  0  0  0  0  0
   -5.4650   -0.0350  -20.4960 C   0  0  0  0  0  0  0  0  0  0  0  0
   -5.5940   -0.0590  -22.6840 H   0  0  0  0  0  0  0  0  0  0  0  0
   -3.6570    1.3830  -23.0330 H   0  0  0  0  0  0  0  0  0  0  0  0
   -2.3890    2.2820  -21.0910 H   0  0  0  0  0  0  0  0  0  0  0  0
   -3.1000    1.7300  -18.7860 H   0  0  0  0  0  0  0  0  0  0  0  0
   -4.6280    0.5750  -17.2440 H   0  0  0  0  0  0  0  0  0  0  0  0
   -7.7500   -1.7500  -18.6190 H   0  0  0  0  0  0  0  0  0  0  0  0
   -7.0340   -2.4170  -23.0490 H   0  0  0  0  0  0  0  0  0  0  0  0
   -5.6910   -2.4370  -21.8280 H   0  0  0  0  0  0  0  0  0  0  0  0
   -5.9510   -4.1980  -20.4790 C   0  0  0  0  0  0  0  0  0  0  0  0
   -5.1170   -3.2730  -20.3530 O   0  0  0  0  0  0  0  0  0  0  0  0
   -5.8620   -5.3180  -19.9560 O   0  5  0  0  0  0  0  0  0  0  0  0
   -8.9210   -4.2410  -22.3990 H   0  0  0  0  0  0  0  0  0  0  0  0
   -8.3410   -5.6040  -21.2850 H   0  0  0  0  0  0  0  0  0  0  0  0
  1  2  2  0  0  0  0
  1 57  1  0  0  0  0
  1 58  1  0  0  0  0
  2  3  1  0  0  0  0
  2 54  1  0  0  0  0
  3  4  1  0  0  0  0
  3 52  1  0  0  0  0
  3 53  1  0  0  0  0
  4  5  1  0  0  0  0
  4 36  1  0  0  0  0
  5  6  2  0  0  0  0
  5  7  1  0  0  0  0
  7  8  1  0  0  0  0
  7 29  1  0  0  0  0
  7 35  1  6  0  0  0
  8  9  1  0  0  0  0
  8 33  1  0  0  0  0
  8 34  1  0  0  0  0
  9 10  1  0  0  0  0
  9 21  1  0  0  0  0
 10 11  1  0  0  0  0
 10 19  1  0  0  0  0
 10 20  1  0  0  0  0
 11 12  2  0  0  0  0
 11 13  1  0  0  0  0
 13 14  1  0  0  0  0
 13 18  1  0  0  0  0
 14 15  1  0  0  0  0
 14 16  1  0  0  0  0
 14 17  1  0  0  0  0
 21 22  2  0  0  0  0
 21 23  1  0  0  0  0
 23 24  2  0  0  0  0
 23 29  1  0  0  0  0
 24 25  1  0  0  0  0
 24 32  1  0  0  0  0
 25 26  2  0  0  0  0
 25 31  1  0  0  0  0
 26 27  1  0  0  0  0
 26 28  1  0  0  0  0
 28 29  2  0  0  0  0
 28 30  1  0  0  0  0
 36 37  2  0  0  0  0
 36 45  1  0  0  0  0
 37 38  1  0  0  0  0
 37 51  1  0  0  0  0
 38 39  2  0  0  0  0
 39 40  1  0  0  0  0
 39 50  1  0  0  0  0
 40 41  2  0  0  0  0
 40 45  1  0  0  0  0
 41 42  1  0  0  0  0
 41 49  1  0  0  0  0
 42 43  2  0  0  0  0
 42 48  1  0  0  0  0
 43 44  1  0  0  0  0
 43 47  1  0  0  0  0
 44 45  2  0  0  0  0
 44 46  1  0  0  0  0
 54 55  2  0  0  0  0
 54 56  1  0  0  0  0
M  CHG  1  56  -1
M  END
>  <MODEL>
       1

$$$$
