tmp_first_model_3_13.pdb
 OpenBabel08272518143D

 69 74  0  0  1  0  0  0  0  0999 V2000
   -7.3480    3.3820  -21.9240 C   0  0  0  0  0  0  0  0  0  0  0  0
   -8.2730    2.8760  -22.9230 N   0  0  0  0  0  0  0  0  0  0  0  0
   -7.7580    2.1710  -23.9670 C   0  0  0  0  0  0  0  0  0  0  0  0
   -6.5550    1.9990  -24.0970 O   0  0  0  0  0  0  0  0  0  0  0  0
   -8.7650    1.5810  -24.9600 C   0  0  0  0  0  0  0  0  0  0  0  0
   -9.4230    0.4220  -24.3790 N   0  0  0  0  0  0  0  0  0  0  0  0
   -8.6460   -0.7970  -24.1990 C   0  0  0  0  0  0  0  0  0  0  0  0
   -9.0230   -1.5200  -22.8810 C   0  0  2  0  0  0  0  0  0  0  0  0
   -8.5100   -0.7380  -21.6570 C   0  0  0  0  0  0  0  0  0  0  0  0
   -8.9950    0.2520  -21.1520 O   0  0  0  0  0  0  0  0  0  0  0  0
   -7.3750   -1.3690  -21.1990 N   0  0  0  0  0  0  0  0  0  0  0  0
   -6.6040   -0.7980  -20.1650 C   0  0  0  0  0  0  0  0  0  0  0  0
   -6.9370   -1.0210  -18.8550 C   0  0  0  0  0  0  0  0  0  0  0  0
   -6.2420   -0.5330  -17.8000 N   0  0  0  0  0  0  0  0  0  0  0  0
   -5.1910    0.2080  -18.0670 C   0  0  0  0  0  0  0  0  0  0  0  0
   -4.7450    0.5240  -19.3820 C   0  0  0  0  0  0  0  0  0  0  0  0
   -3.6160    1.3510  -19.6250 C   0  0  0  0  0  0  0  0  0  0  0  0
   -3.2350    1.6500  -20.9040 C   0  0  0  0  0  0  0  0  0  0  0  0
   -3.9680    1.1500  -22.0050 C   0  0  0  0  0  0  0  0  0  0  0  0
   -5.0660    0.3510  -21.7980 C   0  0  0  0  0  0  0  0  0  0  0  0
   -5.4740    0.0120  -20.4780 C   0  0  0  0  0  0  0  0  0  0  0  0
   -5.6470    0.0040  -22.6490 H   0  0  0  0  0  0  0  0  0  0  0  0
   -3.6750    1.4100  -23.0160 H   0  0  0  0  0  0  0  0  0  0  0  0
   -2.3720    2.2840  -21.0820 H   0  0  0  0  0  0  0  0  0  0  0  0
   -3.0800    1.7500  -18.7690 H   0  0  0  0  0  0  0  0  0  0  0  0
   -4.6330    0.6030  -17.2180 H   0  0  0  0  0  0  0  0  0  0  0  0
   -7.8080   -1.6290  -18.6210 H   0  0  0  0  0  0  0  0  0  0  0  0
   -6.9910   -2.5480  -21.9460 C   0  0  0  0  0  0  0  0  0  0  0  0
   -8.2810   -2.8670  -22.7080 C   0  0  2  0  0  0  0  0  0  0  0  0
   -8.1240   -3.6950  -23.9850 C   0  0  0  0  0  0  0  0  0  0  0  0
   -7.6790   -5.0540  -23.7370 N   0  0  0  0  0  0  0  0  0  0  0  0
   -6.3710   -5.3610  -23.4880 C   0  0  0  0  0  0  0  0  0  0  0  0
   -5.3110   -4.6760  -24.1090 C   0  0  0  0  0  0  0  0  0  0  0  0
   -4.0720   -5.2410  -23.9520 C   0  0  0  0  0  0  0  0  0  0  0  0
   -3.8150   -6.2840  -23.1580 N   0  0  0  0  0  0  0  0  0  0  0  0
   -4.8690   -6.7630  -22.4970 C   0  0  0  0  0  0  0  0  0  0  0  0
   -4.6320   -7.8550  -21.4920 C   0  0  0  0  0  0  0  0  0  0  0  0
   -3.6160   -8.2510  -21.5920 H   0  0  0  0  0  0  0  0  0  0  0  0
   -5.3860   -8.6380  -21.6300 H   0  0  0  0  0  0  0  0  0  0  0  0
   -4.7640   -7.4640  -20.4770 H   0  0  0  0  0  0  0  0  0  0  0  0
   -6.1380   -6.3700  -22.6430 N   0  0  0  0  0  0  0  0  0  0  0  0
   -3.2280   -4.8340  -24.5030 H   0  0  0  0  0  0  0  0  0  0  0  0
   -5.4370   -3.7810  -24.7120 H   0  0  0  0  0  0  0  0  0  0  0  0
   -8.3200   -5.6500  -23.2260 H   0  0  0  0  0  0  0  0  0  0  0  0
   -7.4130   -3.2190  -24.6660 H   0  0  0  0  0  0  0  0  0  0  0  0
   -9.0870   -3.7360  -24.5100 H   0  0  0  0  0  0  0  0  0  0  0  0
   -8.8720   -3.4760  -22.0180 H   0  0  0  0  0  0  0  0  0  0  0  0
   -6.1400   -2.3570  -22.6190 H   0  0  0  0  0  0  0  0  0  0  0  0
   -6.7000   -3.3590  -21.2720 H   0  0  0  0  0  0  0  0  0  0  0  0
  -10.5220   -1.6290  -22.7970 C   0  0  0  0  0  0  0  0  0  0  0  0
  -11.0960   -2.5300  -21.8950 C   0  0  0  0  0  0  0  0  0  0  0  0
  -12.4620   -2.5820  -21.7310 C   0  0  0  0  0  0  0  0  0  0  0  0
  -13.0520   -3.6660  -20.5010 Cl  0  0  0  0  0  0  0  0  0  0  0  0
  -13.3120   -1.7610  -22.4730 C   0  0  0  0  0  0  0  0  0  0  0  0
  -12.7440   -0.8400  -23.3370 C   0  0  0  0  0  0  0  0  0  0  0  0
  -11.3590   -0.7340  -23.4680 C   0  0  0  0  0  0  0  0  0  0  0  0
  -10.7920    0.4100  -24.2700 C   0  0  0  0  0  0  0  0  0  0  0  0
  -11.4990    1.2760  -24.7600 O   0  0  0  0  0  0  0  0  0  0  0  0
  -13.3610   -0.1560  -23.9060 H   0  0  0  0  0  0  0  0  0  0  0  0
  -14.3870   -1.8210  -22.3400 H   0  0  0  0  0  0  0  0  0  0  0  0
  -10.5080   -3.1900  -21.2680 H   0  0  0  0  0  0  0  0  0  0  0  0
   -7.5820   -0.5380  -24.1940 H   0  0  0  0  0  0  0  0  0  0  0  0
   -8.8200   -1.4660  -25.0540 H   0  0  0  0  0  0  0  0  0  0  0  0
   -8.2230    1.3030  -25.8720 H   0  0  0  0  0  0  0  0  0  0  0  0
   -9.5430    2.2950  -25.2450 H   0  0  0  0  0  0  0  0  0  0  0  0
   -9.2170    2.6770  -22.6230 H   0  0  0  0  0  0  0  0  0  0  0  0
   -6.6300    4.0610  -22.3880 H   0  0  0  0  0  0  0  0  0  0  0  0
   -7.9010    3.9560  -21.1790 H   0  0  0  0  0  0  0  0  0  0  0  0
   -6.7950    2.5550  -21.4540 H   0  0  0  0  0  0  0  0  0  0  0  0
  1  2  1  0  0  0  0
  1 67  1  0  0  0  0
  1 68  1  0  0  0  0
  1 69  1  0  0  0  0
  2  3  1  0  0  0  0
  2 66  1  0  0  0  0
  3  4  2  0  0  0  0
  3  5  1  0  0  0  0
  5  6  1  0  0  0  0
  5 64  1  0  0  0  0
  5 65  1  0  0  0  0
  6  7  1  0  0  0  0
  6 57  1  0  0  0  0
  7  8  1  0  0  0  0
  7 62  1  0  0  0  0
  7 63  1  0  0  0  0
  8  9  1  1  0  0  0
  8 29  1  0  0  0  0
  8 50  1  0  0  0  0
  9 10  2  0  0  0  0
  9 11  1  0  0  0  0
 11 12  1  0  0  0  0
 11 28  1  0  0  0  0
 12 13  2  0  0  0  0
 12 21  1  0  0  0  0
 13 14  1  0  0  0  0
 13 27  1  0  0  0  0
 14 15  2  0  0  0  0
 15 16  1  0  0  0  0
 15 26  1  0  0  0  0
 16 17  2  0  0  0  0
 16 21  1  0  0  0  0
 17 18  1  0  0  0  0
 17 25  1  0  0  0  0
 18 19  2  0  0  0  0
 18 24  1  0  0  0  0
 19 20  1  0  0  0  0
 19 23  1  0  0  0  0
 20 21  2  0  0  0  0
 20 22  1  0  0  0  0
 28 29  1  0  0  0  0
 28 48  1  0  0  0  0
 28 49  1  0  0  0  0
 29 30  1  0  0  0  0
 29 47  1  1  0  0  0
 30 31  1  0  0  0  0
 30 45  1  0  0  0  0
 30 46  1  0  0  0  0
 31 32  1  0  0  0  0
 31 44  1  0  0  0  0
 32 33  2  0  0  0  0
 32 41  1  0  0  0  0
 33 34  1  0  0  0  0
 33 43  1  0  0  0  0
 34 35  2  0  0  0  0
 34 42  1  0  0  0  0
 35 36  1  0  0  0  0
 36 37  1  0  0  0  0
 36 41  2  0  0  0  0
 37 38  1  0  0  0  0
 37 39  1  0  0  0  0
 37 40  1  0  0  0  0
 50 51  2  0  0  0  0
 50 56  1  0  0  0  0
 51 52  1  0  0  0  0
 51 61  1  0  0  0  0
 52 53  1  0  0  0  0
 52 54  2  0  0  0  0
 54 55  1  0  0  0  0
 54 60  1  0  0  0  0
 55 56  2  0  0  0  0
 55 59  1  0  0  0  0
 56 57  1  0  0  0  0
 57 58  2  0  0  0  0
M  END
>  <MODEL>
       1

$$$$
