tmp_first_model_8_87.pdb
 OpenBabel08272521063D

 59 64  0  0  1  0  0  0  0  0999 V2000
   -7.8700   -3.6830  -24.0560 C   0  0  0  0  0  0  0  0  0  0  0  0
   -8.2710   -2.8870  -22.8070 C   0  0  1  0  0  0  0  0  0  0  0  0
   -7.0710   -2.6410  -21.8670 C   0  0  0  0  0  0  0  0  0  0  0  0
   -7.4000   -1.3990  -21.1980 N   0  0  0  0  0  0  0  0  0  0  0  0
   -6.6040   -0.8180  -20.1740 C   0  0  0  0  0  0  0  0  0  0  0  0
   -6.9060   -1.0510  -18.8600 C   0  0  0  0  0  0  0  0  0  0  0  0
   -6.1980   -0.5600  -17.8100 N   0  0  0  0  0  0  0  0  0  0  0  0
   -5.1670    0.2030  -18.0790 C   0  0  0  0  0  0  0  0  0  0  0  0
   -4.7370    0.5300  -19.3960 C   0  0  0  0  0  0  0  0  0  0  0  0
   -3.6120    1.3660  -19.6340 C   0  0  0  0  0  0  0  0  0  0  0  0
   -3.2320    1.6670  -20.9120 C   0  0  0  0  0  0  0  0  0  0  0  0
   -3.9620    1.1490  -22.0060 C   0  0  0  0  0  0  0  0  0  0  0  0
   -5.0420    0.3250  -21.8020 C   0  0  0  0  0  0  0  0  0  0  0  0
   -5.4720    0.0040  -20.4850 C   0  0  0  0  0  0  0  0  0  0  0  0
   -5.5700   -0.0840  -22.6580 H   0  0  0  0  0  0  0  0  0  0  0  0
   -3.6380    1.3720  -23.0160 H   0  0  0  0  0  0  0  0  0  0  0  0
   -2.3660    2.2950  -21.1010 H   0  0  0  0  0  0  0  0  0  0  0  0
   -3.0750    1.7680  -18.7790 H   0  0  0  0  0  0  0  0  0  0  0  0
   -4.6200    0.6120  -17.2280 H   0  0  0  0  0  0  0  0  0  0  0  0
   -7.7590   -1.6720  -18.5990 H   0  0  0  0  0  0  0  0  0  0  0  0
   -8.4250   -0.6940  -21.7880 C   0  0  0  0  0  0  0  0  0  0  0  0
   -8.8540    0.3560  -21.3580 O   0  0  0  0  0  0  0  0  0  0  0  0
   -8.9240   -1.4800  -23.0310 C   0  0  1  0  0  0  0  0  0  0  0  0
   -8.4080   -0.8380  -24.3440 C   0  0  0  0  0  0  0  0  0  0  0  0
   -9.0500    0.4310  -24.6360 N   0  0  0  0  0  0  0  0  0  0  0  0
   -8.2970    1.5190  -25.2420 C   0  0  0  0  0  0  0  0  0  0  0  0
   -8.1730    2.7220  -24.3450 C   0  0  0  0  0  0  0  0  0  0  0  0
   -7.5770    2.8190  -23.1050 C   0  0  0  0  0  0  0  0  0  0  0  0
   -7.7660    4.1600  -22.7120 C   0  0  0  0  0  0  0  0  0  0  0  0
   -8.4010    4.8480  -23.6550 N   0  0  0  0  0  0  0  0  0  0  0  0
   -8.6220    3.9670  -24.6400 N   0  0  0  0  0  0  0  0  0  0  0  0
   -9.2620    4.4010  -25.8630 C   0  0  0  0  0  0  0  0  0  0  0  0
  -10.1380    3.7750  -26.0190 H   0  0  0  0  0  0  0  0  0  0  0  0
   -8.5780    4.3080  -26.7160 H   0  0  0  0  0  0  0  0  0  0  0  0
   -9.5330    5.4500  -25.7200 H   0  0  0  0  0  0  0  0  0  0  0  0
   -7.4820    4.6600  -21.7920 H   0  0  0  0  0  0  0  0  0  0  0  0
   -7.0960    2.0100  -22.5730 H   0  0  0  0  0  0  0  0  0  0  0  0
   -8.7450    1.7770  -26.2090 H   0  0  0  0  0  0  0  0  0  0  0  0
   -7.2950    1.1270  -25.4290 H   0  0  0  0  0  0  0  0  0  0  0  0
  -10.4030    0.5730  -24.5700 C   0  0  0  0  0  0  0  0  0  0  0  0
  -10.9760    1.5310  -25.0780 O   0  0  0  0  0  0  0  0  0  0  0  0
  -11.1360   -0.4920  -23.8060 C   0  0  0  0  0  0  0  0  0  0  0  0
  -12.5320   -0.4570  -23.8010 C   0  0  0  0  0  0  0  0  0  0  0  0
  -13.2540   -1.3240  -23.0040 C   0  0  0  0  0  0  0  0  0  0  0  0
  -12.5530   -2.2030  -22.1860 C   0  0  0  0  0  0  0  0  0  0  0  0
  -13.2470   -3.0090  -21.3660 F   0  0  0  0  0  0  0  0  0  0  0  0
  -11.1760   -2.2690  -22.1800 C   0  0  0  0  0  0  0  0  0  0  0  0
  -10.4430   -1.4480  -23.0460 C   0  0  0  0  0  0  0  0  0  0  0  0
  -10.7050   -2.9420  -21.4710 H   0  0  0  0  0  0  0  0  0  0  0  0
  -14.3360   -1.3170  -22.9740 H   0  0  0  0  0  0  0  0  0  0  0  0
  -13.0240    0.2850  -24.4190 H   0  0  0  0  0  0  0  0  0  0  0  0
   -8.5770   -1.5470  -25.1700 H   0  0  0  0  0  0  0  0  0  0  0  0
   -7.3310   -0.6630  -24.2420 H   0  0  0  0  0  0  0  0  0  0  0  0
   -6.1300   -2.5550  -22.4350 H   0  0  0  0  0  0  0  0  0  0  0  0
   -6.9350   -3.4430  -21.1310 H   0  0  0  0  0  0  0  0  0  0  0  0
   -9.0090   -3.4740  -22.2540 H   0  0  0  0  0  0  0  0  0  0  0  0
   -8.7120   -3.8230  -24.7440 H   0  0  0  0  0  0  0  0  0  0  0  0
   -7.0690   -3.1760  -24.6100 H   0  0  0  0  0  0  0  0  0  0  0  0
   -7.4950   -4.6760  -23.7820 H   0  0  0  0  0  0  0  0  0  0  0  0
  1  2  1  0  0  0  0
  1 57  1  0  0  0  0
  1 58  1  0  0  0  0
  1 59  1  0  0  0  0
  2  3  1  0  0  0  0
  2 23  1  0  0  0  0
  2 56  1  1  0  0  0
  3  4  1  0  0  0  0
  3 54  1  0  0  0  0
  3 55  1  0  0  0  0
  4  5  1  0  0  0  0
  4 21  1  0  0  0  0
  5  6  2  0  0  0  0
  5 14  1  0  0  0  0
  6  7  1  0  0  0  0
  6 20  1  0  0  0  0
  7  8  2  0  0  0  0
  8  9  1  0  0  0  0
  8 19  1  0  0  0  0
  9 10  2  0  0  0  0
  9 14  1  0  0  0  0
 10 11  1  0  0  0  0
 10 18  1  0  0  0  0
 11 12  2  0  0  0  0
 11 17  1  0  0  0  0
 12 13  1  0  0  0  0
 12 16  1  0  0  0  0
 13 14  2  0  0  0  0
 13 15  1  0  0  0  0
 21 22  2  0  0  0  0
 23 21  1  1  0  0  0
 23 24  1  0  0  0  0
 23 48  1  0  0  0  0
 24 25  1  0  0  0  0
 24 52  1  0  0  0  0
 24 53  1  0  0  0  0
 25 26  1  0  0  0  0
 25 40  1  0  0  0  0
 26 27  1  0  0  0  0
 26 38  1  0  0  0  0
 26 39  1  0  0  0  0
 27 28  2  0  0  0  0
 27 31  1  0  0  0  0
 28 29  1  0  0  0  0
 28 37  1  0  0  0  0
 29 30  2  0  0  0  0
 29 36  1  0  0  0  0
 30 31  1  0  0  0  0
 31 32  1  0  0  0  0
 32 33  1  0  0  0  0
 32 34  1  0  0  0  0
 32 35  1  0  0  0  0
 40 41  2  0  0  0  0
 40 42  1  0  0  0  0
 42 43  2  0  0  0  0
 42 48  1  0  0  0  0
 43 44  1  0  0  0  0
 43 51  1  0  0  0  0
 44 45  2  0  0  0  0
 44 50  1  0  0  0  0
 45 46  1  0  0  0  0
 45 47  1  0  0  0  0
 47 48  2  0  0  0  0
 47 49  1  0  0  0  0
M  END
>  <MODEL>
       1

$$$$
