tmp_first_model_8_9.pdb
 OpenBabel08272521063D

 41 43  0  0  1  0  0  0  0  0999 V2000
  -13.1790   -2.9270  -22.9040 C   0  0  0  0  0  0  0  0  0  0  0  0
  -11.9700   -2.0480  -23.2190 C   0  0  1  0  0  0  0  0  0  0  0  0
  -12.1570   -0.6590  -22.6450 C   0  0  0  0  0  0  0  0  0  0  0  0
  -11.3190    0.3560  -22.8350 C   0  0  0  0  0  0  0  0  0  0  0  0
  -10.0220    0.2180  -23.6030 C   0  0  0  0  0  0  0  0  0  0  0  0
   -9.0910   -0.7820  -23.0590 N   0  0  0  0  0  0  0  0  0  0  0  0
   -8.3790   -0.4050  -21.9310 C   0  0  0  0  0  0  0  0  0  0  0  0
   -8.4800    0.7170  -21.4710 O   0  0  0  0  0  0  0  0  0  0  0  0
   -7.4320   -1.4340  -21.2730 C   0  0  0  0  0  0  0  0  0  0  0  0
   -6.5800   -0.8300  -20.1820 C   0  0  0  0  0  0  0  0  0  0  0  0
   -6.8780   -1.0400  -18.8620 C   0  0  0  0  0  0  0  0  0  0  0  0
   -6.1910   -0.5410  -17.8000 N   0  0  0  0  0  0  0  0  0  0  0  0
   -5.1570    0.2200  -18.0650 C   0  0  0  0  0  0  0  0  0  0  0  0
   -4.7250    0.5360  -19.3800 C   0  0  0  0  0  0  0  0  0  0  0  0
   -3.6000    1.3670  -19.6190 C   0  0  0  0  0  0  0  0  0  0  0  0
   -3.2190    1.6680  -20.8980 C   0  0  0  0  0  0  0  0  0  0  0  0
   -3.9570    1.1550  -21.9880 C   0  0  0  0  0  0  0  0  0  0  0  0
   -5.0350    0.3300  -21.7850 C   0  0  0  0  0  0  0  0  0  0  0  0
   -5.4550    0.0010  -20.4710 C   0  0  0  0  0  0  0  0  0  0  0  0
   -5.5760   -0.0660  -22.6380 H   0  0  0  0  0  0  0  0  0  0  0  0
   -3.6290    1.3790  -22.9990 H   0  0  0  0  0  0  0  0  0  0  0  0
   -2.3540    2.3000  -21.0890 H   0  0  0  0  0  0  0  0  0  0  0  0
   -3.0560    1.7760  -18.7700 H   0  0  0  0  0  0  0  0  0  0  0  0
   -4.6020    0.6270  -17.2160 H   0  0  0  0  0  0  0  0  0  0  0  0
   -7.7300   -1.6600  -18.5860 H   0  0  0  0  0  0  0  0  0  0  0  0
   -6.7960   -1.8990  -22.0380 H   0  0  0  0  0  0  0  0  0  0  0  0
   -8.0420   -2.2440  -20.8450 H   0  0  0  0  0  0  0  0  0  0  0  0
   -9.3950   -2.1690  -23.3970 C   0  0  0  0  0  0  0  0  0  0  0  0
  -10.6670   -2.7290  -22.7530 C   0  0  0  0  0  0  0  0  0  0  0  0
  -10.5870   -2.6370  -21.6640 H   0  0  0  0  0  0  0  0  0  0  0  0
  -10.7250   -3.8070  -22.9660 H   0  0  0  0  0  0  0  0  0  0  0  0
   -8.5300   -2.7930  -23.1560 H   0  0  0  0  0  0  0  0  0  0  0  0
   -9.5100   -2.2200  -24.4850 H   0  0  0  0  0  0  0  0  0  0  0  0
  -10.2460   -0.0760  -24.6350 H   0  0  0  0  0  0  0  0  0  0  0  0
   -9.5080    1.1800  -23.6530 H   0  0  0  0  0  0  0  0  0  0  0  0
  -11.5330    1.3280  -22.3880 H   0  0  0  0  0  0  0  0  0  0  0  0
  -13.0290   -0.4930  -22.0120 H   0  0  0  0  0  0  0  0  0  0  0  0
  -11.9080   -1.9510  -24.3130 H   0  0  0  0  0  0  0  0  0  0  0  0
  -13.0970   -3.9090  -23.3850 H   0  0  0  0  0  0  0  0  0  0  0  0
  -13.2640   -3.0900  -21.8220 H   0  0  0  0  0  0  0  0  0  0  0  0
  -14.1070   -2.4570  -23.2510 H   0  0  0  0  0  0  0  0  0  0  0  0
  1  2  1  0  0  0  0
  1 39  1  0  0  0  0
  1 40  1  0  0  0  0
  1 41  1  0  0  0  0
  2  3  1  0  0  0  0
  2 29  1  0  0  0  0
  2 38  1  6  0  0  0
  3  4  2  0  0  0  0
  3 37  1  0  0  0  0
  4  5  1  0  0  0  0
  4 36  1  0  0  0  0
  5  6  1  0  0  0  0
  5 34  1  0  0  0  0
  5 35  1  0  0  0  0
  6  7  1  0  0  0  0
  6 28  1  0  0  0  0
  7  8  2  0  0  0  0
  7  9  1  0  0  0  0
  9 10  1  0  0  0  0
  9 26  1  0  0  0  0
  9 27  1  0  0  0  0
 10 11  2  0  0  0  0
 10 19  1  0  0  0  0
 11 12  1  0  0  0  0
 11 25  1  0  0  0  0
 12 13  2  0  0  0  0
 13 14  1  0  0  0  0
 13 24  1  0  0  0  0
 14 15  2  0  0  0  0
 14 19  1  0  0  0  0
 15 16  1  0  0  0  0
 15 23  1  0  0  0  0
 16 17  2  0  0  0  0
 16 22  1  0  0  0  0
 17 18  1  0  0  0  0
 17 21  1  0  0  0  0
 18 19  2  0  0  0  0
 18 20  1  0  0  0  0
 28 29  1  0  0  0  0
 28 32  1  0  0  0  0
 28 33  1  0  0  0  0
 29 30  1  0  0  0  0
 29 31  1  0  0  0  0
M  END
>  <MODEL>
       1

$$$$
