tmp_first_model_18_53.pdb
 OpenBabel08282502533D

 59 63  0  0  1  0  0  0  0  0999 V2000
  -10.5130   -0.5770  -29.2440 C   0  0  0  0  0  0  0  0  0  0  0  0
   -9.9070    0.8260  -29.2190 C   0  0  0  0  0  0  0  0  0  0  0  0
   -9.6550    1.2830  -27.8640 N   0  0  0  0  0  0  0  0  0  0  0  0
   -8.6060    0.7380  -27.1790 C   0  0  0  0  0  0  0  0  0  0  0  0
   -7.7320    0.0500  -27.6890 O   0  0  0  0  0  0  0  0  0  0  0  0
   -8.6500    1.0250  -25.6760 C   0  0  0  0  0  0  0  0  0  0  0  0
   -9.3310   -0.0500  -24.9810 N   0  0  0  0  0  0  0  0  0  0  0  0
   -8.5910   -1.2210  -24.5580 C   0  0  0  0  0  0  0  0  0  0  0  0
   -8.9590   -1.6290  -23.1110 C   0  0  2  0  0  0  0  0  0  0  0  0
   -8.2700   -0.6320  -22.1260 C   0  0  0  0  0  0  0  0  0  0  0  0
   -8.3900    0.5740  -22.1020 O   0  0  0  0  0  0  0  0  0  0  0  0
   -7.4350   -1.3490  -21.2860 N   0  0  0  0  0  0  0  0  0  0  0  0
   -6.6510   -0.7810  -20.2440 C   0  0  0  0  0  0  0  0  0  0  0  0
   -6.9410   -1.0620  -18.9300 C   0  0  0  0  0  0  0  0  0  0  0  0
   -6.2610   -0.5770  -17.8590 N   0  0  0  0  0  0  0  0  0  0  0  0
   -5.2330    0.1990  -18.1050 C   0  0  0  0  0  0  0  0  0  0  0  0
   -4.7840    0.5310  -19.4140 C   0  0  0  0  0  0  0  0  0  0  0  0
   -3.6400    1.3480  -19.6170 C   0  0  0  0  0  0  0  0  0  0  0  0
   -3.1960    1.6120  -20.8840 C   0  0  0  0  0  0  0  0  0  0  0  0
   -3.8640    1.0610  -21.9990 C   0  0  0  0  0  0  0  0  0  0  0  0
   -4.9770    0.2750  -21.8280 C   0  0  0  0  0  0  0  0  0  0  0  0
   -5.4860    0.0120  -20.5260 C   0  0  0  0  0  0  0  0  0  0  0  0
   -5.4690   -0.1630  -22.6900 H   0  0  0  0  0  0  0  0  0  0  0  0
   -3.4940    1.2620  -23.0000 H   0  0  0  0  0  0  0  0  0  0  0  0
   -2.3270    2.2430  -21.0390 H   0  0  0  0  0  0  0  0  0  0  0  0
   -3.1340    1.7510  -18.7440 H   0  0  0  0  0  0  0  0  0  0  0  0
   -4.6870    0.5900  -17.2470 H   0  0  0  0  0  0  0  0  0  0  0  0
   -7.7850   -1.7050  -18.6870 H   0  0  0  0  0  0  0  0  0  0  0  0
   -7.6780   -2.7730  -21.3370 C   0  0  0  0  0  0  0  0  0  0  0  0
   -8.3560   -3.0120  -22.7040 C   0  0  2  0  0  0  0  0  0  0  0  0
   -7.4310   -3.6810  -23.7330 C   0  0  0  0  0  0  0  0  0  0  0  0
   -7.9650   -3.8660  -24.6710 H   0  0  0  0  0  0  0  0  0  0  0  0
   -7.1000   -4.6590  -23.3670 H   0  0  0  0  0  0  0  0  0  0  0  0
   -6.5390   -3.0870  -23.9610 H   0  0  0  0  0  0  0  0  0  0  0  0
   -9.1810   -3.7170  -22.5740 H   0  0  0  0  0  0  0  0  0  0  0  0
   -8.3550   -3.0670  -20.5210 H   0  0  0  0  0  0  0  0  0  0  0  0
   -6.7300   -3.3120  -21.2150 H   0  0  0  0  0  0  0  0  0  0  0  0
  -10.4920   -1.6330  -23.0130 C   0  0  0  0  0  0  0  0  0  0  0  0
  -11.1490   -2.3330  -21.9900 C   0  0  0  0  0  0  0  0  0  0  0  0
  -12.5270   -2.2870  -21.8640 C   0  0  0  0  0  0  0  0  0  0  0  0
  -13.2940   -3.2010  -20.6010 Cl  0  0  0  0  0  0  0  0  0  0  0  0
  -13.3240   -1.5670  -22.7530 C   0  0  0  0  0  0  0  0  0  0  0  0
  -12.6860   -0.8410  -23.7400 C   0  0  0  0  0  0  0  0  0  0  0  0
  -11.3010   -0.8970  -23.8880 C   0  0  0  0  0  0  0  0  0  0  0  0
  -10.6900   -0.0480  -24.9500 C   0  0  0  0  0  0  0  0  0  0  0  0
  -11.3610    0.6650  -25.7000 O   0  0  0  0  0  0  0  0  0  0  0  0
  -13.2140   -0.1670  -24.4080 H   0  0  0  0  0  0  0  0  0  0  0  0
  -14.4050   -1.5830  -22.6630 H   0  0  0  0  0  0  0  0  0  0  0  0
  -10.6000   -2.9070  -21.2560 H   0  0  0  0  0  0  0  0  0  0  0  0
   -7.5260   -1.0010  -24.6630 H   0  0  0  0  0  0  0  0  0  0  0  0
   -8.8110   -2.0630  -25.2240 H   0  0  0  0  0  0  0  0  0  0  0  0
   -7.6390    1.1190  -25.2630 H   0  0  0  0  0  0  0  0  0  0  0  0
   -9.1850    1.9570  -25.4750 H   0  0  0  0  0  0  0  0  0  0  0  0
  -10.4830    1.4530  -27.2970 H   0  0  0  0  0  0  0  0  0  0  0  0
   -8.9500    0.8460  -29.7510 H   0  0  0  0  0  0  0  0  0  0  0  0
  -10.5720    1.5580  -29.6900 H   0  0  0  0  0  0  0  0  0  0  0  0
  -10.7260   -0.9040  -30.2640 H   0  0  0  0  0  0  0  0  0  0  0  0
   -9.8120   -1.2870  -28.7960 H   0  0  0  0  0  0  0  0  0  0  0  0
  -11.4490   -0.6090  -28.6730 H   0  0  0  0  0  0  0  0  0  0  0  0
  1  2  1  0  0  0  0
  1 57  1  0  0  0  0
  1 58  1  0  0  0  0
  1 59  1  0  0  0  0
  2  3  1  0  0  0  0
  2 55  1  0  0  0  0
  2 56  1  0  0  0  0
  3  4  1  0  0  0  0
  3 54  1  0  0  0  0
  4  5  2  0  0  0  0
  4  6  1  0  0  0  0
  6  7  1  0  0  0  0
  6 52  1  0  0  0  0
  6 53  1  0  0  0  0
  7  8  1  0  0  0  0
  7 45  1  0  0  0  0
  8  9  1  0  0  0  0
  8 50  1  0  0  0  0
  8 51  1  0  0  0  0
  9 10  1  1  0  0  0
  9 30  1  0  0  0  0
  9 38  1  0  0  0  0
 10 11  2  0  0  0  0
 10 12  1  0  0  0  0
 12 13  1  0  0  0  0
 12 29  1  0  0  0  0
 13 14  2  0  0  0  0
 13 22  1  0  0  0  0
 14 15  1  0  0  0  0
 14 28  1  0  0  0  0
 15 16  2  0  0  0  0
 16 17  1  0  0  0  0
 16 27  1  0  0  0  0
 17 18  2  0  0  0  0
 17 22  1  0  0  0  0
 18 19  1  0  0  0  0
 18 26  1  0  0  0  0
 19 20  2  0  0  0  0
 19 25  1  0  0  0  0
 20 21  1  0  0  0  0
 20 24  1  0  0  0  0
 21 22  2  0  0  0  0
 21 23  1  0  0  0  0
 29 30  1  0  0  0  0
 29 36  1  0  0  0  0
 29 37  1  0  0  0  0
 30 31  1  0  0  0  0
 30 35  1  1  0  0  0
 31 32  1  0  0  0  0
 31 33  1  0  0  0  0
 31 34  1  0  0  0  0
 38 39  2  0  0  0  0
 38 44  1  0  0  0  0
 39 40  1  0  0  0  0
 39 49  1  0  0  0  0
 40 41  1  0  0  0  0
 40 42  2  0  0  0  0
 42 43  1  0  0  0  0
 42 48  1  0  0  0  0
 43 44  2  0  0  0  0
 43 47  1  0  0  0  0
 44 45  1  0  0  0  0
 45 46  2  0  0  0  0
M  END
>  <MODEL>
       1

$$$$
