tmp_first_model_6_20.pdb
 OpenBabel08272519583D

 66 71  0  0  1  0  0  0  0  0999 V2000
   -7.4320    3.3680  -21.7910 C   0  0  0  0  0  0  0  0  0  0  0  0
   -8.3170    2.9150  -22.8450 N   0  0  0  0  0  0  0  0  0  0  0  0
   -7.7580    2.2210  -23.8650 C   0  0  0  0  0  0  0  0  0  0  0  0
   -6.5480    2.1040  -23.9850 O   0  0  0  0  0  0  0  0  0  0  0  0
   -8.7030    1.5940  -24.8870 C   0  0  0  0  0  0  0  0  0  0  0  0
   -9.4140    0.4410  -24.3670 N   0  0  0  0  0  0  0  0  0  0  0  0
   -8.6850   -0.8030  -24.2020 C   0  0  0  0  0  0  0  0  0  0  0  0
   -9.0790   -1.5280  -22.8890 C   0  0  2  0  0  0  0  0  0  0  0  0
   -8.5310   -0.7460  -21.6680 C   0  0  0  0  0  0  0  0  0  0  0  0
   -8.9930    0.2660  -21.1790 O   0  0  0  0  0  0  0  0  0  0  0  0
   -7.3990   -1.3800  -21.2050 N   0  0  0  0  0  0  0  0  0  0  0  0
   -6.6050   -0.8100  -20.1730 C   0  0  0  0  0  0  0  0  0  0  0  0
   -6.9110   -1.0500  -18.8570 C   0  0  0  0  0  0  0  0  0  0  0  0
   -6.2090   -0.5600  -17.8060 N   0  0  0  0  0  0  0  0  0  0  0  0
   -5.1750    0.2020  -18.0720 C   0  0  0  0  0  0  0  0  0  0  0  0
   -4.7440    0.5420  -19.3860 C   0  0  0  0  0  0  0  0  0  0  0  0
   -3.6190    1.3770  -19.6290 C   0  0  0  0  0  0  0  0  0  0  0  0
   -3.2430    1.6880  -20.9070 C   0  0  0  0  0  0  0  0  0  0  0  0
   -3.9850    1.1920  -22.0020 C   0  0  0  0  0  0  0  0  0  0  0  0
   -5.0710    0.3730  -21.7940 C   0  0  0  0  0  0  0  0  0  0  0  0
   -5.4840    0.0270  -20.4810 C   0  0  0  0  0  0  0  0  0  0  0  0
   -5.6080   -0.0290  -22.6500 H   0  0  0  0  0  0  0  0  0  0  0  0
   -3.6850    1.4230  -23.0190 H   0  0  0  0  0  0  0  0  0  0  0  0
   -2.3730    2.3150  -21.0880 H   0  0  0  0  0  0  0  0  0  0  0  0
   -3.0700    1.7600  -18.7710 H   0  0  0  0  0  0  0  0  0  0  0  0
   -4.6210    0.6040  -17.2230 H   0  0  0  0  0  0  0  0  0  0  0  0
   -7.7690   -1.6720  -18.6090 H   0  0  0  0  0  0  0  0  0  0  0  0
   -7.0550   -2.5850  -21.9320 C   0  0  0  0  0  0  0  0  0  0  0  0
   -8.3290   -2.8910  -22.7490 C   0  0  2  0  0  0  0  0  0  0  0  0
   -8.0200   -3.6730  -24.0460 C   0  0  0  0  0  0  0  0  0  0  0  0
   -7.4770   -5.0610  -23.7750 C   0  0  0  0  0  0  0  0  0  0  0  0
   -8.3520   -6.1170  -23.5010 C   0  0  0  0  0  0  0  0  0  0  0  0
   -7.8740   -7.3930  -23.2160 C   0  0  0  0  0  0  0  0  0  0  0  0
   -6.5020   -7.6370  -23.1960 C   0  0  0  0  0  0  0  0  0  0  0  0
   -5.6170   -6.5960  -23.4700 C   0  0  0  0  0  0  0  0  0  0  0  0
   -6.1020   -5.3210  -23.7540 C   0  0  0  0  0  0  0  0  0  0  0  0
   -5.4010   -4.5120  -23.9650 H   0  0  0  0  0  0  0  0  0  0  0  0
   -4.5440   -6.7810  -23.4610 H   0  0  0  0  0  0  0  0  0  0  0  0
   -6.1260   -8.6340  -22.9700 H   0  0  0  0  0  0  0  0  0  0  0  0
   -8.5770   -8.1980  -23.0100 H   0  0  0  0  0  0  0  0  0  0  0  0
   -9.4270   -5.9350  -23.5140 H   0  0  0  0  0  0  0  0  0  0  0  0
   -8.9390   -3.7540  -24.6440 H   0  0  0  0  0  0  0  0  0  0  0  0
   -7.2910   -3.1110  -24.6490 H   0  0  0  0  0  0  0  0  0  0  0  0
   -8.9740   -3.5280  -22.1380 H   0  0  0  0  0  0  0  0  0  0  0  0
   -6.7940   -3.4020  -21.2460 H   0  0  0  0  0  0  0  0  0  0  0  0
   -6.1850   -2.4130  -22.5870 H   0  0  0  0  0  0  0  0  0  0  0  0
  -10.5980   -1.5880  -22.8230 C   0  0  0  0  0  0  0  0  0  0  0  0
  -11.2310   -2.4350  -21.9070 C   0  0  0  0  0  0  0  0  0  0  0  0
  -12.6090   -2.3880  -21.7740 C   0  0  0  0  0  0  0  0  0  0  0  0
  -13.3870   -3.2190  -20.4590 Cl  0  0  0  0  0  0  0  0  0  0  0  0
  -13.4020   -1.5850  -22.5960 C   0  0  0  0  0  0  0  0  0  0  0  0
  -12.7810   -0.7160  -23.4620 C   0  0  0  0  0  0  0  0  0  0  0  0
  -11.3920   -0.6770  -23.5360 C   0  0  0  0  0  0  0  0  0  0  0  0
  -10.7790    0.4750  -24.2750 C   0  0  0  0  0  0  0  0  0  0  0  0
  -11.4570    1.3960  -24.7120 O   0  0  0  0  0  0  0  0  0  0  0  0
  -13.3200    0.0150  -24.0510 H   0  0  0  0  0  0  0  0  0  0  0  0
  -14.4810   -1.6350  -22.5330 H   0  0  0  0  0  0  0  0  0  0  0  0
  -10.6560   -3.1310  -21.3030 H   0  0  0  0  0  0  0  0  0  0  0  0
   -8.8990   -1.4740  -25.0490 H   0  0  0  0  0  0  0  0  0  0  0  0
   -7.6170   -0.5550  -24.1990 H   0  0  0  0  0  0  0  0  0  0  0  0
   -9.4840    2.2960  -25.1860 H   0  0  0  0  0  0  0  0  0  0  0  0
   -8.0750    1.3160  -25.7450 H   0  0  0  0  0  0  0  0  0  0  0  0
   -9.3010    2.7900  -22.6450 H   0  0  0  0  0  0  0  0  0  0  0  0
   -6.7350    4.1150  -22.1830 H   0  0  0  0  0  0  0  0  0  0  0  0
   -8.0220    3.8030  -20.9870 H   0  0  0  0  0  0  0  0  0  0  0  0
   -6.8360    2.5250  -21.4190 H   0  0  0  0  0  0  0  0  0  0  0  0
  1  2  1  0  0  0  0
  1 64  1  0  0  0  0
  1 65  1  0  0  0  0
  1 66  1  0  0  0  0
  2  3  1  0  0  0  0
  2 63  1  0  0  0  0
  3  4  2  0  0  0  0
  3  5  1  0  0  0  0
  5  6  1  0  0  0  0
  5 61  1  0  0  0  0
  5 62  1  0  0  0  0
  6  7  1  0  0  0  0
  6 54  1  0  0  0  0
  7  8  1  0  0  0  0
  7 59  1  0  0  0  0
  7 60  1  0  0  0  0
  8  9  1  1  0  0  0
  8 29  1  0  0  0  0
  8 47  1  0  0  0  0
  9 10  2  0  0  0  0
  9 11  1  0  0  0  0
 11 12  1  0  0  0  0
 11 28  1  0  0  0  0
 12 13  2  0  0  0  0
 12 21  1  0  0  0  0
 13 14  1  0  0  0  0
 13 27  1  0  0  0  0
 14 15  2  0  0  0  0
 15 16  1  0  0  0  0
 15 26  1  0  0  0  0
 16 17  2  0  0  0  0
 16 21  1  0  0  0  0
 17 18  1  0  0  0  0
 17 25  1  0  0  0  0
 18 19  2  0  0  0  0
 18 24  1  0  0  0  0
 19 20  1  0  0  0  0
 19 23  1  0  0  0  0
 20 21  2  0  0  0  0
 20 22  1  0  0  0  0
 28 29  1  0  0  0  0
 28 45  1  0  0  0  0
 28 46  1  0  0  0  0
 29 30  1  0  0  0  0
 29 44  1  1  0  0  0
 30 31  1  0  0  0  0
 30 42  1  0  0  0  0
 30 43  1  0  0  0  0
 31 32  2  0  0  0  0
 31 36  1  0  0  0  0
 32 33  1  0  0  0  0
 32 41  1  0  0  0  0
 33 34  2  0  0  0  0
 33 40  1  0  0  0  0
 34 35  1  0  0  0  0
 34 39  1  0  0  0  0
 35 36  2  0  0  0  0
 35 38  1  0  0  0  0
 36 37  1  0  0  0  0
 47 48  2  0  0  0  0
 47 53  1  0  0  0  0
 48 49  1  0  0  0  0
 48 58  1  0  0  0  0
 49 50  1  0  0  0  0
 49 51  2  0  0  0  0
 51 52  1  0  0  0  0
 51 57  1  0  0  0  0
 52 53  2  0  0  0  0
 52 56  1  0  0  0  0
 53 54  1  0  0  0  0
 54 55  2  0  0  0  0
M  END
>  <MODEL>
       1

$$$$
