tmp_first_model_10_73.pdb
 OpenBabel08272522163D

 50 53  0  0  1  0  0  0  0  0999 V2000
   -8.7570    0.6140  -21.1550 O   0  0  0  0  0  0  0  0  0  0  0  0
   -8.6690   -0.4920  -21.6730 C   0  0  0  0  0  0  0  0  0  0  0  0
   -7.5020   -1.4200  -21.3060 C   0  0  0  0  0  0  0  0  0  0  0  0
   -6.6640   -0.8250  -20.2120 C   0  0  0  0  0  0  0  0  0  0  0  0
   -6.9440   -1.1180  -18.9050 C   0  0  0  0  0  0  0  0  0  0  0  0
   -6.2520   -0.6600  -17.8270 N   0  0  0  0  0  0  0  0  0  0  0  0
   -5.2550    0.1570  -18.0810 C   0  0  0  0  0  0  0  0  0  0  0  0
   -4.8760    0.5810  -19.3880 C   0  0  0  0  0  0  0  0  0  0  0  0
   -3.8030    1.4840  -19.6050 C   0  0  0  0  0  0  0  0  0  0  0  0
   -3.5860    2.0180  -20.8500 C   0  0  0  0  0  0  0  0  0  0  0  0
   -4.3920    1.6150  -21.9410 C   0  0  0  0  0  0  0  0  0  0  0  0
   -5.3900    0.6830  -21.7780 C   0  0  0  0  0  0  0  0  0  0  0  0
   -5.6360    0.1220  -20.4910 C   0  0  0  0  0  0  0  0  0  0  0  0
   -6.0240    0.4290  -22.6260 H   0  0  0  0  0  0  0  0  0  0  0  0
   -4.1930    2.0230  -22.9260 H   0  0  0  0  0  0  0  0  0  0  0  0
   -2.8130    2.7640  -21.0040 H   0  0  0  0  0  0  0  0  0  0  0  0
   -3.2070    1.7960  -18.7530 H   0  0  0  0  0  0  0  0  0  0  0  0
   -4.6890    0.5270  -17.2230 H   0  0  0  0  0  0  0  0  0  0  0  0
   -7.7740   -1.7870  -18.6710 H   0  0  0  0  0  0  0  0  0  0  0  0
   -7.9190   -2.3750  -20.9550 H   0  0  0  0  0  0  0  0  0  0  0  0
   -6.8970   -1.6460  -22.1950 H   0  0  0  0  0  0  0  0  0  0  0  0
   -9.6080   -0.9510  -22.5630 N   0  0  0  0  0  0  0  0  0  0  0  0
  -10.7600   -0.0960  -22.8310 C   0  0  0  0  0  0  0  0  0  0  0  0
  -12.0260   -0.8930  -22.5610 C   0  0  0  0  0  0  0  0  0  0  0  0
  -12.0680   -2.1070  -23.4800 C   0  0  0  0  0  0  0  0  0  0  0  0
  -10.8610   -2.9960  -23.1760 C   0  0  0  0  0  0  0  0  0  0  0  0
   -9.5580   -2.1910  -23.3490 C   0  0  1  0  0  0  0  0  0  0  0  0
   -9.3240   -1.8510  -24.8360 C   0  0  0  0  0  0  0  0  0  0  0  0
   -7.9980   -1.1770  -25.0720 C   0  0  0  0  0  0  0  0  0  0  0  0
   -6.8410   -1.9520  -25.1490 C   0  0  0  0  0  0  0  0  0  0  0  0
   -5.5960   -1.3620  -25.3210 C   0  0  0  0  0  0  0  0  0  0  0  0
   -5.4950    0.0240  -25.4200 C   0  0  0  0  0  0  0  0  0  0  0  0
   -6.6400    0.8110  -25.3370 C   0  0  0  0  0  0  0  0  0  0  0  0
   -7.8820    0.2130  -25.1560 C   0  0  0  0  0  0  0  0  0  0  0  0
   -8.7680    0.8380  -25.0820 H   0  0  0  0  0  0  0  0  0  0  0  0
   -6.5690    1.8930  -25.4160 H   0  0  0  0  0  0  0  0  0  0  0  0
   -4.5220    0.4920  -25.5430 H   0  0  0  0  0  0  0  0  0  0  0  0
   -4.7090   -1.9830  -25.3870 H   0  0  0  0  0  0  0  0  0  0  0  0
   -6.9280   -3.0340  -25.0760 H   0  0  0  0  0  0  0  0  0  0  0  0
  -10.1380   -1.2050  -25.1800 H   0  0  0  0  0  0  0  0  0  0  0  0
   -9.3860   -2.7730  -25.4260 H   0  0  0  0  0  0  0  0  0  0  0  0
   -8.7210   -2.8000  -22.9900 H   0  0  0  0  0  0  0  0  0  0  0  0
  -10.9090   -3.3740  -22.1430 H   0  0  0  0  0  0  0  0  0  0  0  0
  -10.8490   -3.8780  -23.8350 H   0  0  0  0  0  0  0  0  0  0  0  0
  -13.0000   -2.6660  -23.3610 H   0  0  0  0  0  0  0  0  0  0  0  0
  -12.0260   -1.7710  -24.5240 H   0  0  0  0  0  0  0  0  0  0  0  0
  -11.9590   -1.2760  -21.5480 H   0  0  0  0  0  0  0  0  0  0  0  0
  -12.9170   -0.2620  -22.6520 H   0  0  0  0  0  0  0  0  0  0  0  0
  -10.7560    0.2500  -23.8750 H   0  0  0  0  0  0  0  0  0  0  0  0
  -10.6580    0.7900  -22.2080 H   0  0  0  0  0  0  0  0  0  0  0  0
  1  2  2  0  0  0  0
  2  3  1  0  0  0  0
  2 22  1  0  0  0  0
  3  4  1  0  0  0  0
  3 20  1  0  0  0  0
  3 21  1  0  0  0  0
  4  5  2  0  0  0  0
  4 13  1  0  0  0  0
  5  6  1  0  0  0  0
  5 19  1  0  0  0  0
  6  7  2  0  0  0  0
  7  8  1  0  0  0  0
  7 18  1  0  0  0  0
  8  9  2  0  0  0  0
  8 13  1  0  0  0  0
  9 10  1  0  0  0  0
  9 17  1  0  0  0  0
 10 11  2  0  0  0  0
 10 16  1  0  0  0  0
 11 12  1  0  0  0  0
 11 15  1  0  0  0  0
 12 13  2  0  0  0  0
 12 14  1  0  0  0  0
 22 23  1  0  0  0  0
 22 27  1  0  0  0  0
 23 24  1  0  0  0  0
 23 49  1  0  0  0  0
 23 50  1  0  0  0  0
 24 25  1  0  0  0  0
 24 47  1  0  0  0  0
 24 48  1  0  0  0  0
 25 26  1  0  0  0  0
 25 45  1  0  0  0  0
 25 46  1  0  0  0  0
 26 27  1  0  0  0  0
 26 43  1  0  0  0  0
 26 44  1  0  0  0  0
 27 28  1  0  0  0  0
 27 42  1  1  0  0  0
 28 29  1  0  0  0  0
 28 40  1  0  0  0  0
 28 41  1  0  0  0  0
 29 30  2  0  0  0  0
 29 34  1  0  0  0  0
 30 31  1  0  0  0  0
 30 39  1  0  0  0  0
 31 32  2  0  0  0  0
 31 38  1  0  0  0  0
 32 33  1  0  0  0  0
 32 37  1  0  0  0  0
 33 34  2  0  0  0  0
 33 36  1  0  0  0  0
 34 35  1  0  0  0  0
M  END
>  <MODEL>
       1

$$$$
