tmp_first_model_2_28.pdb
 OpenBabel08272517383D

 64 68  0  0  1  0  0  0  0  0999 V2000
   -7.4830    3.2260  -21.9370 C   0  0  0  0  0  0  0  0  0  0  0  0
   -8.5880    2.6890  -22.7170 N   0  0  0  0  0  0  0  0  0  0  0  0
   -8.2900    1.9180  -23.7990 C   0  0  0  0  0  0  0  0  0  0  0  0
   -7.1320    1.6660  -24.1010 O   0  0  0  0  0  0  0  0  0  0  0  0
   -9.4450    1.3550  -24.6410 C   0  0  0  0  0  0  0  0  0  0  0  0
   -9.9510    0.1330  -24.0460 N   0  0  0  0  0  0  0  0  0  0  0  0
   -9.0980   -1.0470  -23.9910 C   0  0  0  0  0  0  0  0  0  0  0  0
   -9.2620   -1.8060  -22.6450 C   0  0  2  0  0  0  0  0  0  0  0  0
   -8.6900   -0.9190  -21.5030 C   0  0  0  0  0  0  0  0  0  0  0  0
   -9.2150    0.0460  -20.9840 O   0  0  0  0  0  0  0  0  0  0  0  0
   -7.4340   -1.3880  -21.1770 N   0  0  0  0  0  0  0  0  0  0  0  0
   -6.6500   -0.7990  -20.1570 C   0  0  0  0  0  0  0  0  0  0  0  0
   -6.9540   -1.0360  -18.8400 C   0  0  0  0  0  0  0  0  0  0  0  0
   -6.2450   -0.5510  -17.7940 N   0  0  0  0  0  0  0  0  0  0  0  0
   -5.2010    0.1970  -18.0690 C   0  0  0  0  0  0  0  0  0  0  0  0
   -4.7680    0.5140  -19.3880 C   0  0  0  0  0  0  0  0  0  0  0  0
   -3.6450    1.3470  -19.6300 C   0  0  0  0  0  0  0  0  0  0  0  0
   -3.2640    1.6470  -20.9120 C   0  0  0  0  0  0  0  0  0  0  0  0
   -4.0000    1.1400  -22.0070 C   0  0  0  0  0  0  0  0  0  0  0  0
   -5.1030    0.3470  -21.7990 C   0  0  0  0  0  0  0  0  0  0  0  0
   -5.5100    0.0030  -20.4790 C   0  0  0  0  0  0  0  0  0  0  0  0
   -5.6930    0.0180  -22.6510 H   0  0  0  0  0  0  0  0  0  0  0  0
   -3.6990    1.3930  -23.0210 H   0  0  0  0  0  0  0  0  0  0  0  0
   -2.4060    2.2890  -21.0930 H   0  0  0  0  0  0  0  0  0  0  0  0
   -3.1100    1.7480  -18.7750 H   0  0  0  0  0  0  0  0  0  0  0  0
   -4.6400    0.5960  -17.2250 H   0  0  0  0  0  0  0  0  0  0  0  0
   -7.8110   -1.6600  -18.5900 H   0  0  0  0  0  0  0  0  0  0  0  0
   -7.0020   -2.5300  -21.9500 C   0  0  0  0  0  0  0  0  0  0  0  0
   -8.3240   -3.0470  -22.5440 C   0  0  2  0  0  0  0  0  0  0  0  0
   -8.1180   -3.8270  -23.8340 C   0  0  0  0  0  0  0  0  0  0  0  0
   -7.0070   -5.2020  -23.5930 S   0  0  0  0  0  0  0  0  0  0  0  0
   -5.6300   -4.7060  -23.5780 O   0  0  0  0  0  0  0  0  0  0  0  0
   -7.4820   -6.0400  -22.5020 O   0  0  0  0  0  0  0  0  0  0  0  0
   -7.3140   -6.0420  -24.9870 N   0  0  0  0  0  0  0  0  0  0  0  0
   -6.6590   -5.6360  -26.2210 C   0  0  0  0  0  0  0  0  0  0  0  0
   -7.1410   -4.7380  -26.6220 H   0  0  0  0  0  0  0  0  0  0  0  0
   -6.8020   -6.4380  -26.9460 H   0  0  0  0  0  0  0  0  0  0  0  0
   -5.5910   -5.4360  -26.0880 H   0  0  0  0  0  0  0  0  0  0  0  0
   -7.3490   -7.0320  -24.7840 H   0  0  0  0  0  0  0  0  0  0  0  0
   -7.6580   -3.2020  -24.6090 H   0  0  0  0  0  0  0  0  0  0  0  0
   -9.0630   -4.2370  -24.2050 H   0  0  0  0  0  0  0  0  0  0  0  0
   -8.7460   -3.7300  -21.8020 H   0  0  0  0  0  0  0  0  0  0  0  0
   -6.5090   -3.2800  -21.3250 H   0  0  0  0  0  0  0  0  0  0  0  0
   -6.2820   -2.2360  -22.7260 H   0  0  0  0  0  0  0  0  0  0  0  0
  -10.7570   -2.0580  -22.4640 C   0  0  0  0  0  0  0  0  0  0  0  0
  -11.2620   -3.1110  -21.6880 C   0  0  0  0  0  0  0  0  0  0  0  0
  -12.6130   -3.1520  -21.3770 C   0  0  0  0  0  0  0  0  0  0  0  0
  -13.2180   -4.2320  -20.1650 Cl  0  0  0  0  0  0  0  0  0  0  0  0
  -13.5280   -2.2590  -21.9230 C   0  0  0  0  0  0  0  0  0  0  0  0
  -13.0580   -1.2530  -22.7300 C   0  0  0  0  0  0  0  0  0  0  0  0
  -11.6910   -1.1330  -22.9640 C   0  0  0  0  0  0  0  0  0  0  0  0
  -11.2750    0.0750  -23.7310 C   0  0  0  0  0  0  0  0  0  0  0  0
  -12.0770    0.9480  -24.0460 O   0  0  0  0  0  0  0  0  0  0  0  0
  -13.7220   -0.5130  -23.1650 H   0  0  0  0  0  0  0  0  0  0  0  0
  -14.5770   -2.3400  -21.6640 H   0  0  0  0  0  0  0  0  0  0  0  0
  -10.6120   -3.8670  -21.2620 H   0  0  0  0  0  0  0  0  0  0  0  0
   -8.0650   -0.7100  -24.1200 H   0  0  0  0  0  0  0  0  0  0  0  0
   -9.3540   -1.7170  -24.8240 H   0  0  0  0  0  0  0  0  0  0  0  0
  -10.2940    2.0440  -24.7060 H   0  0  0  0  0  0  0  0  0  0  0  0
   -9.0730    1.1760  -25.6640 H   0  0  0  0  0  0  0  0  0  0  0  0
   -9.4830    2.5800  -22.2560 H   0  0  0  0  0  0  0  0  0  0  0  0
   -6.7780    3.7400  -22.5970 H   0  0  0  0  0  0  0  0  0  0  0  0
   -7.8670    3.9380  -21.2060 H   0  0  0  0  0  0  0  0  0  0  0  0
   -6.9380    2.4220  -21.4270 H   0  0  0  0  0  0  0  0  0  0  0  0
  1  2  1  0  0  0  0
  1 62  1  0  0  0  0
  1 63  1  0  0  0  0
  1 64  1  0  0  0  0
  2  3  1  0  0  0  0
  2 61  1  0  0  0  0
  3  4  2  0  0  0  0
  3  5  1  0  0  0  0
  5  6  1  0  0  0  0
  5 59  1  0  0  0  0
  5 60  1  0  0  0  0
  6  7  1  0  0  0  0
  6 52  1  0  0  0  0
  7  8  1  0  0  0  0
  7 57  1  0  0  0  0
  7 58  1  0  0  0  0
  8  9  1  1  0  0  0
  8 29  1  0  0  0  0
  8 45  1  0  0  0  0
  9 10  2  0  0  0  0
  9 11  1  0  0  0  0
 11 12  1  0  0  0  0
 11 28  1  0  0  0  0
 12 13  2  0  0  0  0
 12 21  1  0  0  0  0
 13 14  1  0  0  0  0
 13 27  1  0  0  0  0
 14 15  2  0  0  0  0
 15 16  1  0  0  0  0
 15 26  1  0  0  0  0
 16 17  2  0  0  0  0
 16 21  1  0  0  0  0
 17 18  1  0  0  0  0
 17 25  1  0  0  0  0
 18 19  2  0  0  0  0
 18 24  1  0  0  0  0
 19 20  1  0  0  0  0
 19 23  1  0  0  0  0
 20 21  2  0  0  0  0
 20 22  1  0  0  0  0
 28 29  1  0  0  0  0
 28 43  1  0  0  0  0
 28 44  1  0  0  0  0
 29 30  1  0  0  0  0
 29 42  1  1  0  0  0
 30 31  1  0  0  0  0
 30 40  1  0  0  0  0
 30 41  1  0  0  0  0
 31 32  2  0  0  0  0
 31 33  2  0  0  0  0
 31 34  1  0  0  0  0
 34 35  1  0  0  0  0
 34 39  1  0  0  0  0
 35 36  1  0  0  0  0
 35 37  1  0  0  0  0
 35 38  1  0  0  0  0
 45 46  2  0  0  0  0
 45 51  1  0  0  0  0
 46 47  1  0  0  0  0
 46 56  1  0  0  0  0
 47 48  1  0  0  0  0
 47 49  2  0  0  0  0
 49 50  1  0  0  0  0
 49 55  1  0  0  0  0
 50 51  2  0  0  0  0
 50 54  1  0  0  0  0
 51 52  1  0  0  0  0
 52 53  2  0  0  0  0
M  END
>  <MODEL>
       1

$$$$
