tmp_first_model_6_31.pdb
 OpenBabel08272519583D

 66 71  0  0  1  0  0  0  0  0999 V2000
   -8.5800    2.7680  -28.4200 C   0  0  0  0  0  0  0  0  0  0  0  0
   -8.6250    2.7800  -26.9670 N   0  0  0  0  0  0  0  0  0  0  0  0
   -7.9150    1.8220  -26.2910 C   0  0  0  0  0  0  0  0  0  0  0  0
   -7.1080    1.0760  -26.8170 O   0  0  0  0  0  0  0  0  0  0  0  0
   -8.2020    1.7880  -24.7870 C   0  0  0  0  0  0  0  0  0  0  0  0
   -9.0290    0.6610  -24.4080 N   0  0  0  0  0  0  0  0  0  0  0  0
   -8.4480   -0.6590  -24.2430 C   0  0  0  0  0  0  0  0  0  0  0  0
   -9.0060   -1.3560  -22.9700 C   0  0  2  0  0  0  0  0  0  0  0  0
   -8.4870   -0.6250  -21.7080 C   0  0  0  0  0  0  0  0  0  0  0  0
   -8.9170    0.3900  -21.2090 O   0  0  0  0  0  0  0  0  0  0  0  0
   -7.4120   -1.3350  -21.2170 N   0  0  0  0  0  0  0  0  0  0  0  0
   -6.6210   -0.7910  -20.1750 C   0  0  0  0  0  0  0  0  0  0  0  0
   -6.9300   -1.0570  -18.8680 C   0  0  0  0  0  0  0  0  0  0  0  0
   -6.2270   -0.5920  -17.8050 N   0  0  0  0  0  0  0  0  0  0  0  0
   -5.1940    0.1760  -18.0560 C   0  0  0  0  0  0  0  0  0  0  0  0
   -4.7720    0.5430  -19.3660 C   0  0  0  0  0  0  0  0  0  0  0  0
   -3.6530    1.3870  -19.5870 C   0  0  0  0  0  0  0  0  0  0  0  0
   -3.2890    1.7360  -20.8590 C   0  0  0  0  0  0  0  0  0  0  0  0
   -4.0280    1.2630  -21.9660 C   0  0  0  0  0  0  0  0  0  0  0  0
   -5.1060    0.4340  -21.7800 C   0  0  0  0  0  0  0  0  0  0  0  0
   -5.5040    0.0520  -20.4680 C   0  0  0  0  0  0  0  0  0  0  0  0
   -5.6480    0.0550  -22.6410 H   0  0  0  0  0  0  0  0  0  0  0  0
   -3.7270    1.5380  -22.9730 H   0  0  0  0  0  0  0  0  0  0  0  0
   -2.4310    2.3790  -21.0290 H   0  0  0  0  0  0  0  0  0  0  0  0
   -3.1060    1.7540  -18.7240 H   0  0  0  0  0  0  0  0  0  0  0  0
   -4.6310    0.5540  -17.2010 H   0  0  0  0  0  0  0  0  0  0  0  0
   -7.7940   -1.6780  -18.6350 H   0  0  0  0  0  0  0  0  0  0  0  0
   -7.0880   -2.5400  -21.9600 C   0  0  0  0  0  0  0  0  0  0  0  0
   -8.4040   -2.7970  -22.7510 C   0  0  2  0  0  0  0  0  0  0  0  0
   -8.2740   -3.6570  -24.0240 C   0  0  0  0  0  0  0  0  0  0  0  0
   -7.6170   -4.9210  -23.8650 N   0  0  0  0  0  0  0  0  0  0  0  0
   -8.3370   -6.0450  -23.6170 C   0  0  0  0  0  0  0  0  0  0  0  0
   -9.8510   -5.9330  -23.8240 C   0  0  0  0  0  0  0  0  0  0  0  0
   -9.6880   -5.7390  -23.8600 C   0  0  0  0  0  0  0  0  0  0  0  0
   -9.6310   -8.4560  -23.3510 N   0  0  0  0  0  0  0  0  0  0  0  0
   -8.3990   -8.3120  -23.2310 C   0  0  0  0  0  0  0  0  0  0  0  0
   -7.6530   -7.0840  -23.2870 N   0  0  0  0  0  0  0  0  0  0  0  0
   -7.7360   -9.1810  -23.0810 H   0  0  0  0  0  0  0  0  0  0  0  0
  -10.2260   -5.4830  -24.8640 H   0  0  0  0  0  0  0  0  0  0  0  0
  -10.5270   -5.0230  -23.3920 H   0  0  0  0  0  0  0  0  0  0  0  0
   -6.6530   -4.9520  -23.5890 H   0  0  0  0  0  0  0  0  0  0  0  0
   -7.6610   -3.0710  -24.7340 H   0  0  0  0  0  0  0  0  0  0  0  0
   -9.2300   -3.7710  -24.5080 H   0  0  0  0  0  0  0  0  0  0  0  0
   -9.0520   -3.2860  -22.0230 H   0  0  0  0  0  0  0  0  0  0  0  0
   -6.2070   -2.4090  -22.6110 H   0  0  0  0  0  0  0  0  0  0  0  0
   -6.8410   -3.3320  -21.2430 H   0  0  0  0  0  0  0  0  0  0  0  0
  -10.5250   -1.2690  -23.0270 C   0  0  0  0  0  0  0  0  0  0  0  0
  -11.3240   -2.1410  -22.2700 C   0  0  0  0  0  0  0  0  0  0  0  0
  -12.7020   -2.0010  -22.2800 C   0  0  0  0  0  0  0  0  0  0  0  0
  -13.6660   -3.0010  -21.2310 Cl  0  0  0  0  0  0  0  0  0  0  0  0
  -13.3400   -1.0510  -23.0760 C   0  0  0  0  0  0  0  0  0  0  0  0
  -12.5600   -0.1810  -23.8110 C   0  0  0  0  0  0  0  0  0  0  0  0
  -11.1680   -0.2610  -23.7630 C   0  0  0  0  0  0  0  0  0  0  0  0
  -10.3830    0.8270  -24.4310 C   0  0  0  0  0  0  0  0  0  0  0  0
  -10.9150    1.8210  -24.9180 O   0  0  0  0  0  0  0  0  0  0  0  0
  -13.0060    0.6030  -24.4120 H   0  0  0  0  0  0  0  0  0  0  0  0
  -14.4230   -0.9830  -23.0880 H   0  0  0  0  0  0  0  0  0  0  0  0
  -10.8980   -2.8950  -21.6170 H   0  0  0  0  0  0  0  0  0  0  0  0
   -8.6840   -1.2620  -25.1290 H   0  0  0  0  0  0  0  0  0  0  0  0
   -7.3590   -0.5570  -24.2000 H   0  0  0  0  0  0  0  0  0  0  0  0
   -8.7230    2.6990  -24.4830 H   0  0  0  0  0  0  0  0  0  0  0  0
   -7.2560    1.7320  -24.2370 H   0  0  0  0  0  0  0  0  0  0  0  0
   -9.5380    2.9520  -26.5590 H   0  0  0  0  0  0  0  0  0  0  0  0
   -7.5740    3.0350  -28.7490 H   0  0  0  0  0  0  0  0  0  0  0  0
   -9.2900    3.5050  -28.8020 H   0  0  0  0  0  0  0  0  0  0  0  0
   -8.8230    1.7830  -28.8420 H   0  0  0  0  0  0  0  0  0  0  0  0
  1  2  1  0  0  0  0
  1 64  1  0  0  0  0
  1 65  1  0  0  0  0
  1 66  1  0  0  0  0
  2  3  1  0  0  0  0
  2 63  1  0  0  0  0
  3  4  2  0  0  0  0
  3  5  1  0  0  0  0
  5  6  1  0  0  0  0
  5 61  1  0  0  0  0
  5 62  1  0  0  0  0
  6  7  1  0  0  0  0
  6 54  1  0  0  0  0
  7  8  1  0  0  0  0
  7 59  1  0  0  0  0
  7 60  1  0  0  0  0
  8  9  1  1  0  0  0
  8 29  1  0  0  0  0
  8 47  1  0  0  0  0
  9 10  2  0  0  0  0
  9 11  1  0  0  0  0
 11 12  1  0  0  0  0
 11 28  1  0  0  0  0
 12 13  2  0  0  0  0
 12 21  1  0  0  0  0
 13 14  1  0  0  0  0
 13 27  1  0  0  0  0
 14 15  2  0  0  0  0
 15 16  1  0  0  0  0
 15 26  1  0  0  0  0
 16 17  2  0  0  0  0
 16 21  1  0  0  0  0
 17 18  1  0  0  0  0
 17 25  1  0  0  0  0
 18 19  2  0  0  0  0
 18 24  1  0  0  0  0
 19 20  1  0  0  0  0
 19 23  1  0  0  0  0
 20 21  2  0  0  0  0
 20 22  1  0  0  0  0
 28 29  1  0  0  0  0
 28 45  1  0  0  0  0
 28 46  1  0  0  0  0
 29 30  1  0  0  0  0
 29 44  1  1  0  0  0
 30 31  1  0  0  0  0
 30 42  1  0  0  0  0
 30 43  1  0  0  0  0
 31 32  1  0  0  0  0
 31 41  1  0  0  0  0
 32 33  2  0  0  0  0
 32 37  1  0  0  0  0
 33 34  1  0  0  0  0
 33 40  1  0  0  0  0
 34 35  2  0  0  0  0
 34 39  1  0  0  0  0
 35 36  1  0  0  0  0
 36 37  2  0  0  0  0
 36 38  1  0  0  0  0
 47 48  2  0  0  0  0
 47 53  1  0  0  0  0
 48 49  1  0  0  0  0
 48 58  1  0  0  0  0
 49 50  1  0  0  0  0
 49 51  2  0  0  0  0
 51 52  1  0  0  0  0
 51 57  1  0  0  0  0
 52 53  2  0  0  0  0
 52 56  1  0  0  0  0
 53 54  1  0  0  0  0
 54 55  2  0  0  0  0
M  END
>  <MODEL>
       1

$$$$
