tmp_first_model_18_61.pdb
 OpenBabel08282502533D

 44 47  0  0  0  0  0  0  0  0999 V2000
   -9.0470    0.2920  -21.0410 O   0  0  0  0  0  0  0  0  0  0  0  0
   -8.3240   -0.3060  -21.8100 C   0  0  0  0  0  0  0  0  0  0  0  0
   -7.4250   -1.4230  -21.2770 C   0  0  0  0  0  0  0  0  0  0  0  0
   -6.5650   -0.8420  -20.1740 C   0  0  0  0  0  0  0  0  0  0  0  0
   -6.8760   -1.0430  -18.8540 C   0  0  0  0  0  0  0  0  0  0  0  0
   -6.1910   -0.5360  -17.7920 N   0  0  0  0  0  0  0  0  0  0  0  0
   -5.1570    0.2240  -18.0630 C   0  0  0  0  0  0  0  0  0  0  0  0
   -4.7240    0.5360  -19.3800 C   0  0  0  0  0  0  0  0  0  0  0  0
   -3.6020    1.3690  -19.6220 C   0  0  0  0  0  0  0  0  0  0  0  0
   -3.2120    1.6640  -20.9010 C   0  0  0  0  0  0  0  0  0  0  0  0
   -3.9330    1.1290  -21.9930 C   0  0  0  0  0  0  0  0  0  0  0  0
   -5.0200    0.3170  -21.7850 C   0  0  0  0  0  0  0  0  0  0  0  0
   -5.4490   -0.0030  -20.4700 C   0  0  0  0  0  0  0  0  0  0  0  0
   -5.5490   -0.0910  -22.6390 H   0  0  0  0  0  0  0  0  0  0  0  0
   -3.6160    1.3630  -23.0050 H   0  0  0  0  0  0  0  0  0  0  0  0
   -2.3580    2.3100  -21.0850 H   0  0  0  0  0  0  0  0  0  0  0  0
   -3.0670    1.7790  -18.7700 H   0  0  0  0  0  0  0  0  0  0  0  0
   -4.6040    0.6290  -17.2140 H   0  0  0  0  0  0  0  0  0  0  0  0
   -7.7280   -1.6610  -18.5790 H   0  0  0  0  0  0  0  0  0  0  0  0
   -6.8200   -1.8650  -22.0770 H   0  0  0  0  0  0  0  0  0  0  0  0
   -8.0710   -2.1990  -20.8470 H   0  0  0  0  0  0  0  0  0  0  0  0
   -8.1970    0.0560  -23.1470 N   0  0  0  0  0  0  0  0  0  0  0  0
   -8.2930   -0.8810  -24.2570 C   0  0  0  0  0  0  0  0  0  0  0  0
   -7.2930   -0.5150  -25.3450 C   0  0  0  0  0  0  0  0  0  0  0  0
   -7.4460    0.9350  -25.7880 C   0  0  0  0  0  0  0  0  0  0  0  0
   -6.4890    1.3370  -26.9360 C   0  0  0  0  0  0  0  0  0  0  0  0
   -7.6900    1.5940  -27.8770 C   0  0  0  0  0  0  0  0  0  0  0  0
   -8.6530    1.1940  -26.7350 C   0  0  0  0  0  0  0  0  0  0  0  0
   -9.3300    1.9820  -26.3960 H   0  0  0  0  0  0  0  0  0  0  0  0
   -9.2690    0.3130  -26.9310 H   0  0  0  0  0  0  0  0  0  0  0  0
   -7.7290    0.9540  -28.7620 H   0  0  0  0  0  0  0  0  0  0  0  0
   -7.7900    2.6250  -28.2270 H   0  0  0  0  0  0  0  0  0  0  0  0
   -5.8680    2.2100  -26.7190 H   0  0  0  0  0  0  0  0  0  0  0  0
   -5.8090    0.5430  -27.2520 H   0  0  0  0  0  0  0  0  0  0  0  0
   -7.3910    1.8590  -24.5780 C   0  0  0  0  0  0  0  0  0  0  0  0
   -8.3960    1.4550  -23.5010 C   0  0  0  0  0  0  0  0  0  0  0  0
   -8.2570    2.0460  -22.5970 H   0  0  0  0  0  0  0  0  0  0  0  0
   -9.4220    1.6570  -23.8450 H   0  0  0  0  0  0  0  0  0  0  0  0
   -7.5770    2.8870  -24.9000 H   0  0  0  0  0  0  0  0  0  0  0  0
   -6.3770    1.8550  -24.1550 H   0  0  0  0  0  0  0  0  0  0  0  0
   -7.4210   -1.1750  -26.2070 H   0  0  0  0  0  0  0  0  0  0  0  0
   -6.2750   -0.6810  -24.9730 H   0  0  0  0  0  0  0  0  0  0  0  0
   -8.1190   -1.8850  -23.8780 H   0  0  0  0  0  0  0  0  0  0  0  0
   -9.3110   -0.8840  -24.6880 H   0  0  0  0  0  0  0  0  0  0  0  0
  1  2  2  0  0  0  0
  2  3  1  0  0  0  0
  2 22  1  0  0  0  0
  3  4  1  0  0  0  0
  3 20  1  0  0  0  0
  3 21  1  0  0  0  0
  4  5  2  0  0  0  0
  4 13  1  0  0  0  0
  5  6  1  0  0  0  0
  5 19  1  0  0  0  0
  6  7  2  0  0  0  0
  7  8  1  0  0  0  0
  7 18  1  0  0  0  0
  8  9  2  0  0  0  0
  8 13  1  0  0  0  0
  9 10  1  0  0  0  0
  9 17  1  0  0  0  0
 10 11  2  0  0  0  0
 10 16  1  0  0  0  0
 11 12  1  0  0  0  0
 11 15  1  0  0  0  0
 12 13  2  0  0  0  0
 12 14  1  0  0  0  0
 22 23  1  0  0  0  0
 22 36  1  0  0  0  0
 23 24  1  0  0  0  0
 23 43  1  0  0  0  0
 23 44  1  0  0  0  0
 24 25  1  0  0  0  0
 24 41  1  0  0  0  0
 24 42  1  0  0  0  0
 25 26  1  0  0  0  0
 25 28  1  0  0  0  0
 25 35  1  0  0  0  0
 26 27  1  0  0  0  0
 26 33  1  0  0  0  0
 26 34  1  0  0  0  0
 27 28  1  0  0  0  0
 27 31  1  0  0  0  0
 27 32  1  0  0  0  0
 28 29  1  0  0  0  0
 28 30  1  0  0  0  0
 35 36  1  0  0  0  0
 35 39  1  0  0  0  0
 35 40  1  0  0  0  0
 36 37  1  0  0  0  0
 36 38  1  0  0  0  0
M  END
>  <MODEL>
       1

$$$$
