tmp_first_model_16_76.pdb
 OpenBabel08282501503D

 66 71  0  0  1  0  0  0  0  0999 V2000
   -8.1960   -3.4730  -24.1050 C   0  0  0  0  0  0  0  0  0  0  0  0
   -8.4710   -2.7360  -22.7870 C   0  0  1  0  0  0  0  0  0  0  0  0
   -7.1860   -2.5250  -21.9550 C   0  0  0  0  0  0  0  0  0  0  0  0
   -7.4590   -1.3100  -21.2120 N   0  0  0  0  0  0  0  0  0  0  0  0
   -6.6330   -0.7970  -20.1830 C   0  0  0  0  0  0  0  0  0  0  0  0
   -6.9420   -1.0690  -18.8770 C   0  0  0  0  0  0  0  0  0  0  0  0
   -6.1770   -0.6870  -17.8290 N   0  0  0  0  0  0  0  0  0  0  0  0
   -5.1110    0.0350  -18.0830 C   0  0  0  0  0  0  0  0  0  0  0  0
   -4.7220    0.4710  -19.3900 C   0  0  0  0  0  0  0  0  0  0  0  0
   -3.6240    1.3490  -19.6320 C   0  0  0  0  0  0  0  0  0  0  0  0
   -3.2520    1.6720  -20.9120 C   0  0  0  0  0  0  0  0  0  0  0  0
   -3.9550    1.1380  -22.0130 C   0  0  0  0  0  0  0  0  0  0  0  0
   -5.0400    0.3150  -21.8060 C   0  0  0  0  0  0  0  0  0  0  0  0
   -5.4780   -0.0080  -20.4870 C   0  0  0  0  0  0  0  0  0  0  0  0
   -5.5650   -0.0960  -22.6630 H   0  0  0  0  0  0  0  0  0  0  0  0
   -3.6380    1.3860  -23.0230 H   0  0  0  0  0  0  0  0  0  0  0  0
   -2.4050    2.3300  -21.0910 H   0  0  0  0  0  0  0  0  0  0  0  0
   -3.1000    1.7690  -18.7780 H   0  0  0  0  0  0  0  0  0  0  0  0
   -4.4990    0.3090  -17.2210 H   0  0  0  0  0  0  0  0  0  0  0  0
   -7.8230   -1.6620  -18.6350 H   0  0  0  0  0  0  0  0  0  0  0  0
   -8.5400   -0.5950  -21.6560 C   0  0  0  0  0  0  0  0  0  0  0  0
   -8.9240    0.4490  -21.1580 O   0  0  0  0  0  0  0  0  0  0  0  0
   -9.1390   -1.3250  -22.8810 C   0  0  1  0  0  0  0  0  0  0  0  0
   -8.7140   -0.5880  -24.1730 C   0  0  0  0  0  0  0  0  0  0  0  0
   -9.3150    0.7270  -24.2650 N   0  0  0  0  0  0  0  0  0  0  0  0
   -8.5140    1.7850  -24.8570 C   0  0  0  0  0  0  0  0  0  0  0  0
   -7.5480    2.4130  -23.8580 C   0  0  0  0  0  0  0  0  0  0  0  0
   -8.2700    3.2130  -22.8200 N   0  3  0  0  0  0  0  0  0  0  0  0
   -7.4930    3.3100  -21.5470 C   0  0  0  0  0  0  0  0  0  0  0  0
   -6.3370    4.2960  -21.6100 C   0  0  0  0  0  0  0  0  0  0  0  0
   -6.8050    5.5880  -21.9370 O   0  0  0  0  0  0  0  0  0  0  0  0
   -7.4340    5.5830  -23.2020 C   0  0  0  0  0  0  0  0  0  0  0  0
   -8.6360    4.6360  -23.2430 C   0  0  0  0  0  0  0  0  0  0  0  0
   -9.3960    4.9930  -22.5440 H   0  0  0  0  0  0  0  0  0  0  0  0
   -9.0600    4.6070  -24.2500 H   0  0  0  0  0  0  0  0  0  0  0  0
   -6.7070    5.3030  -23.9800 H   0  0  0  0  0  0  0  0  0  0  0  0
   -7.7590    6.6100  -23.3820 H   0  0  0  0  0  0  0  0  0  0  0  0
   -5.8690    4.3830  -20.6250 H   0  0  0  0  0  0  0  0  0  0  0  0
   -5.5770    3.9540  -22.3350 H   0  0  0  0  0  0  0  0  0  0  0  0
   -7.1610    2.3080  -21.2680 H   0  0  0  0  0  0  0  0  0  0  0  0
   -8.2080    3.6770  -20.8130 H   0  0  0  0  0  0  0  0  0  0  0  0
   -9.1360    2.6930  -22.5730 H   0  0  0  0  0  0  0  0  0  0  0  0
   -6.9830    1.6390  -23.3260 H   0  0  0  0  0  0  0  0  0  0  0  0
   -6.8320    3.0540  -24.3770 H   0  0  0  0  0  0  0  0  0  0  0  0
   -7.9340    1.3780  -25.6920 H   0  0  0  0  0  0  0  0  0  0  0  0
   -9.2120    2.5320  -25.2330 H   0  0  0  0  0  0  0  0  0  0  0  0
  -10.6620    0.8880  -24.0980 C   0  0  0  0  0  0  0  0  0  0  0  0
  -11.2650    1.8920  -24.4590 O   0  0  0  0  0  0  0  0  0  0  0  0
  -11.3680   -0.2360  -23.3920 C   0  0  0  0  0  0  0  0  0  0  0  0
  -12.7560   -0.1730  -23.2900 C   0  0  0  0  0  0  0  0  0  0  0  0
  -13.4440   -1.1160  -22.5540 C   0  0  0  0  0  0  0  0  0  0  0  0
  -12.7270   -2.1160  -21.8970 C   0  0  0  0  0  0  0  0  0  0  0  0
  -13.5810   -3.2480  -20.8880 Cl  0  0  0  0  0  0  0  0  0  0  0  0
  -11.3520   -2.2000  -21.9980 C   0  0  0  0  0  0  0  0  0  0  0  0
  -10.6530   -1.2850  -22.7940 C   0  0  0  0  0  0  0  0  0  0  0  0
  -10.8380   -2.9580  -21.4170 H   0  0  0  0  0  0  0  0  0  0  0  0
  -14.5210   -1.0690  -22.4510 H   0  0  0  0  0  0  0  0  0  0  0  0
  -13.2580    0.6500  -23.7860 H   0  0  0  0  0  0  0  0  0  0  0  0
   -7.6250   -0.4600  -24.1810 H   0  0  0  0  0  0  0  0  0  0  0  0
   -9.0080   -1.2080  -25.0360 H   0  0  0  0  0  0  0  0  0  0  0  0
   -6.9780   -3.3610  -21.2740 H   0  0  0  0  0  0  0  0  0  0  0  0
   -6.3010   -2.4050  -22.6010 H   0  0  0  0  0  0  0  0  0  0  0  0
   -9.1450   -3.3500  -22.1850 H   0  0  0  0  0  0  0  0  0  0  0  0
   -9.1020   -3.5780  -24.7130 H   0  0  0  0  0  0  0  0  0  0  0  0
   -7.4480   -2.9410  -24.7080 H   0  0  0  0  0  0  0  0  0  0  0  0
   -7.8020   -4.4790  -23.9150 H   0  0  0  0  0  0  0  0  0  0  0  0
  1  2  1  0  0  0  0
  1 64  1  0  0  0  0
  1 65  1  0  0  0  0
  1 66  1  0  0  0  0
  2  3  1  0  0  0  0
  2 23  1  0  0  0  0
  2 63  1  1  0  0  0
  3  4  1  0  0  0  0
  3 61  1  0  0  0  0
  3 62  1  0  0  0  0
  4  5  1  0  0  0  0
  4 21  1  0  0  0  0
  5  6  2  0  0  0  0
  5 14  1  0  0  0  0
  6  7  1  0  0  0  0
  6 20  1  0  0  0  0
  7  8  2  0  0  0  0
  8  9  1  0  0  0  0
  8 19  1  0  0  0  0
  9 10  2  0  0  0  0
  9 14  1  0  0  0  0
 10 11  1  0  0  0  0
 10 18  1  0  0  0  0
 11 12  2  0  0  0  0
 11 17  1  0  0  0  0
 12 13  1  0  0  0  0
 12 16  1  0  0  0  0
 13 14  2  0  0  0  0
 13 15  1  0  0  0  0
 21 22  2  0  0  0  0
 23 21  1  1  0  0  0
 23 24  1  0  0  0  0
 23 55  1  0  0  0  0
 24 25  1  0  0  0  0
 24 59  1  0  0  0  0
 24 60  1  0  0  0  0
 25 26  1  0  0  0  0
 25 47  1  0  0  0  0
 26 27  1  0  0  0  0
 26 45  1  0  0  0  0
 26 46  1  0  0  0  0
 27 28  1  0  0  0  0
 27 43  1  0  0  0  0
 27 44  1  0  0  0  0
 28 29  1  0  0  0  0
 28 33  1  0  0  0  0
 28 42  1  0  0  0  0
 29 30  1  0  0  0  0
 29 40  1  0  0  0  0
 29 41  1  0  0  0  0
 30 31  1  0  0  0  0
 30 38  1  0  0  0  0
 30 39  1  0  0  0  0
 31 32  1  0  0  0  0
 32 33  1  0  0  0  0
 32 36  1  0  0  0  0
 32 37  1  0  0  0  0
 33 34  1  0  0  0  0
 33 35  1  0  0  0  0
 47 48  2  0  0  0  0
 47 49  1  0  0  0  0
 49 50  2  0  0  0  0
 49 55  1  0  0  0  0
 50 51  1  0  0  0  0
 50 58  1  0  0  0  0
 51 52  2  0  0  0  0
 51 57  1  0  0  0  0
 52 53  1  0  0  0  0
 52 54  1  0  0  0  0
 54 55  2  0  0  0  0
 54 56  1  0  0  0  0
M  CHG  1  28   1
M  END
>  <MODEL>
       1

$$$$
