tmp_first_model_14_81.pdb
 OpenBabel08282500413D

 36 38  0  0  0  0  0  0  0  0999 V2000
   -8.5080    0.7110  -21.4640 O   0  0  0  0  0  0  0  0  0  0  0  0
   -8.3860   -0.4020  -21.9340 C   0  0  0  0  0  0  0  0  0  0  0  0
   -7.4390   -1.4340  -21.2790 C   0  0  0  0  0  0  0  0  0  0  0  0
   -6.5810   -0.8290  -20.1910 C   0  0  0  0  0  0  0  0  0  0  0  0
   -6.8810   -1.0330  -18.8700 C   0  0  0  0  0  0  0  0  0  0  0  0
   -6.2020   -0.5100  -17.8160 N   0  0  0  0  0  0  0  0  0  0  0  0
   -5.1550    0.2310  -18.0740 C   0  0  0  0  0  0  0  0  0  0  0  0
   -4.7200    0.5350  -19.3880 C   0  0  0  0  0  0  0  0  0  0  0  0
   -3.5940    1.3650  -19.6240 C   0  0  0  0  0  0  0  0  0  0  0  0
   -3.2080    1.6580  -20.9040 C   0  0  0  0  0  0  0  0  0  0  0  0
   -3.9330    1.1300  -21.9950 C   0  0  0  0  0  0  0  0  0  0  0  0
   -5.0270    0.3230  -21.7890 C   0  0  0  0  0  0  0  0  0  0  0  0
   -5.4540    0.0020  -20.4760 C   0  0  0  0  0  0  0  0  0  0  0  0
   -5.5770   -0.0670  -22.6380 H   0  0  0  0  0  0  0  0  0  0  0  0
   -3.6230    1.3720  -23.0050 H   0  0  0  0  0  0  0  0  0  0  0  0
   -2.3530    2.3040  -21.0880 H   0  0  0  0  0  0  0  0  0  0  0  0
   -3.0570    1.7750  -18.7730 H   0  0  0  0  0  0  0  0  0  0  0  0
   -4.6020    0.6270  -17.2190 H   0  0  0  0  0  0  0  0  0  0  0  0
   -7.7260   -1.6570  -18.5840 H   0  0  0  0  0  0  0  0  0  0  0  0
   -6.8030   -1.9000  -22.0420 H   0  0  0  0  0  0  0  0  0  0  0  0
   -8.0410   -2.2450  -20.8450 H   0  0  0  0  0  0  0  0  0  0  0  0
   -9.0590   -0.7720  -23.0900 N   0  0  0  0  0  0  0  0  0  0  0  0
  -10.0030    0.1930  -23.6440 C   0  0  0  0  0  0  0  0  0  0  0  0
  -11.3760    0.2110  -23.0260 C   0  0  0  0  0  0  0  0  0  0  0  0
  -12.0180   -0.7920  -22.4180 C   0  0  0  0  0  0  0  0  0  0  0  0
  -11.5690   -2.1760  -22.1560 C   0  0  0  0  0  0  0  0  0  0  0  0
  -10.4460   -2.7810  -22.5510 C   0  0  0  0  0  0  0  0  0  0  0  0
   -9.3670   -2.1600  -23.4040 C   0  0  0  0  0  0  0  0  0  0  0  0
   -8.4500   -2.7530  -23.3600 H   0  0  0  0  0  0  0  0  0  0  0  0
   -9.6840   -2.1740  -24.4530 H   0  0  0  0  0  0  0  0  0  0  0  0
  -10.2830   -3.8160  -22.2470 H   0  0  0  0  0  0  0  0  0  0  0  0
  -12.2760   -2.7640  -21.5740 H   0  0  0  0  0  0  0  0  0  0  0  0
  -13.0200   -0.5920  -22.0410 H   0  0  0  0  0  0  0  0  0  0  0  0
  -11.8740    1.1800  -23.1080 H   0  0  0  0  0  0  0  0  0  0  0  0
  -10.1110   -0.0420  -24.7090 H   0  0  0  0  0  0  0  0  0  0  0  0
   -9.5580    1.1900  -23.5950 H   0  0  0  0  0  0  0  0  0  0  0  0
  1  2  2  0  0  0  0
  2  3  1  0  0  0  0
  2 22  1  0  0  0  0
  3  4  1  0  0  0  0
  3 20  1  0  0  0  0
  3 21  1  0  0  0  0
  4  5  2  0  0  0  0
  4 13  1  0  0  0  0
  5  6  1  0  0  0  0
  5 19  1  0  0  0  0
  6  7  2  0  0  0  0
  7  8  1  0  0  0  0
  7 18  1  0  0  0  0
  8  9  2  0  0  0  0
  8 13  1  0  0  0  0
  9 10  1  0  0  0  0
  9 17  1  0  0  0  0
 10 11  2  0  0  0  0
 10 16  1  0  0  0  0
 11 12  1  0  0  0  0
 11 15  1  0  0  0  0
 12 13  2  0  0  0  0
 12 14  1  0  0  0  0
 22 23  1  0  0  0  0
 22 28  1  0  0  0  0
 23 24  1  0  0  0  0
 23 35  1  0  0  0  0
 23 36  1  0  0  0  0
 24 25  2  0  0  0  0
 24 34  1  0  0  0  0
 25 26  1  0  0  0  0
 25 33  1  0  0  0  0
 26 27  2  0  0  0  0
 26 32  1  0  0  0  0
 27 28  1  0  0  0  0
 27 31  1  0  0  0  0
 28 29  1  0  0  0  0
 28 30  1  0  0  0  0
M  END
>  <MODEL>
       1

$$$$
