tmp_first_model_1_5.pdb
 OpenBabel08272517043D

 58 61  0  0  1  0  0  0  0  0999 V2000
   -5.7770   -3.3040  -23.5190 C   0  0  0  0  0  0  0  0  0  0  0  0
   -6.1410   -3.2600  -22.2440 C   0  0  0  0  0  0  0  0  0  0  0  0
   -7.3900   -2.9160  -21.5130 C   0  0  0  0  0  0  0  0  0  0  0  0
   -7.4300   -1.4810  -21.2260 N   0  0  0  0  0  0  0  0  0  0  0  0
   -8.2810   -0.5250  -21.7990 C   0  0  0  0  0  0  0  0  0  0  0  0
   -8.5810    0.4660  -21.1590 O   0  0  0  0  0  0  0  0  0  0  0  0
   -8.7190   -0.7540  -23.2380 C   0  0  2  0  0  0  0  0  0  0  0  0
   -8.4140    0.4840  -24.0730 C   0  0  0  0  0  0  0  0  0  0  0  0
   -8.7650    0.1830  -25.4610 N   0  0  0  0  0  0  0  0  0  0  0  0
   -7.8870    0.7680  -26.4670 C   0  0  0  0  0  0  0  0  0  0  0  0
   -6.7530   -0.1130  -27.0250 C   0  0  0  0  0  0  0  0  0  0  0  0
   -6.5990   -0.2590  -28.2280 O   0  0  0  0  0  0  0  0  0  0  0  0
   -5.9190   -0.6980  -26.1210 N   0  0  0  0  0  0  0  0  0  0  0  0
   -4.8980   -1.6170  -26.5850 C   0  0  0  0  0  0  0  0  0  0  0  0
   -4.4040   -1.2120  -27.4720 H   0  0  0  0  0  0  0  0  0  0  0  0
   -4.1580   -1.7580  -25.7930 H   0  0  0  0  0  0  0  0  0  0  0  0
   -5.3260   -2.5900  -26.8610 H   0  0  0  0  0  0  0  0  0  0  0  0
   -5.9670   -0.4800  -25.1370 H   0  0  0  0  0  0  0  0  0  0  0  0
   -8.4610    1.1050  -27.3320 H   0  0  0  0  0  0  0  0  0  0  0  0
   -7.4340    1.6650  -26.0170 H   0  0  0  0  0  0  0  0  0  0  0  0
   -9.8600   -0.5940  -25.9300 C   0  0  0  0  0  0  0  0  0  0  0  0
   -9.7490   -1.0730  -27.0570 O   0  0  0  0  0  0  0  0  0  0  0  0
  -10.8900   -0.4500  -24.7760 C   0  0  0  0  0  0  0  0  0  0  0  0
  -11.2350   -0.6940  -24.8570 C   0  0  0  0  0  0  0  0  0  0  0  0
  -11.2050   -2.8670  -23.1200 C   0  0  0  0  0  0  0  0  0  0  0  0
  -12.3490   -2.4640  -22.4880 C   0  0  0  0  0  0  0  0  0  0  0  0
  -13.0430   -3.2150  -21.0720 Cl  0  0  0  0  0  0  0  0  0  0  0  0
  -10.7480   -1.8460  -22.3350 C   0  0  0  0  0  0  0  0  0  0  0  0
  -10.2120   -1.0310  -23.4110 C   0  0  0  0  0  0  0  0  0  0  0  0
  -10.3370   -1.8110  -21.3140 H   0  0  0  0  0  0  0  0  0  0  0  0
  -13.0650   -1.8240  -23.0110 H   0  0  0  0  0  0  0  0  0  0  0  0
  -11.6010   -1.6820  -25.1330 H   0  0  0  0  0  0  0  0  0  0  0  0
   -8.9760    1.3370  -23.6640 H   0  0  0  0  0  0  0  0  0  0  0  0
   -7.3540    0.7590  -24.0320 H   0  0  0  0  0  0  0  0  0  0  0  0
   -8.1790   -1.6210  -23.6310 H   0  0  0  0  0  0  0  0  0  0  0  0
   -6.5870   -1.0170  -20.1810 C   0  0  0  0  0  0  0  0  0  0  0  0
   -6.9120   -1.2480  -18.8700 C   0  0  0  0  0  0  0  0  0  0  0  0
   -6.2400   -0.7320  -17.8140 N   0  0  0  0  0  0  0  0  0  0  0  0
   -5.2170    0.0500  -18.0640 C   0  0  0  0  0  0  0  0  0  0  0  0
   -4.7570    0.3520  -19.3750 C   0  0  0  0  0  0  0  0  0  0  0  0
   -3.6540    1.2190  -19.6030 C   0  0  0  0  0  0  0  0  0  0  0  0
   -3.2410    1.4970  -20.8780 C   0  0  0  0  0  0  0  0  0  0  0  0
   -3.9000    0.9140  -21.9850 C   0  0  0  0  0  0  0  0  0  0  0  0
   -4.9650    0.0670  -21.7860 C   0  0  0  0  0  0  0  0  0  0  0  0
   -5.4420   -0.2110  -20.4750 C   0  0  0  0  0  0  0  0  0  0  0  0
   -5.4690   -0.4000  -22.6300 H   0  0  0  0  0  0  0  0  0  0  0  0
   -3.5680    1.1420  -22.9950 H   0  0  0  0  0  0  0  0  0  0  0  0
   -2.4120    2.1810  -21.0510 H   0  0  0  0  0  0  0  0  0  0  0  0
   -3.1550    1.6600  -18.7430 H   0  0  0  0  0  0  0  0  0  0  0  0
   -4.6910    0.4700  -17.2070 H   0  0  0  0  0  0  0  0  0  0  0  0
   -7.7610   -1.8860  -18.6210 H   0  0  0  0  0  0  0  0  0  0  0  0
   -7.2250   -3.4060  -20.5490 H   0  0  0  0  0  0  0  0  0  0  0  0
   -8.3070   -3.2550  -21.9970 H   0  0  0  0  0  0  0  0  0  0  0  0
   -5.0720   -3.5490  -21.2220 C   0  0  0  0  0  0  0  0  0  0  0  0
   -3.9420   -3.7370  -21.7110 O   0  0  0  0  0  0  0  0  0  0  0  0
   -5.4380   -3.6700  -20.0350 O   0  5  0  0  0  0  0  0  0  0  0  0
   -6.4690   -3.1400  -24.3490 H   0  0  0  0  0  0  0  0  0  0  0  0
   -4.7280   -3.5210  -23.7140 H   0  0  0  0  0  0  0  0  0  0  0  0
  1  2  2  0  0  0  0
  1 57  1  0  0  0  0
  1 58  1  0  0  0  0
  2  3  1  0  0  0  0
  2 54  1  0  0  0  0
  3  4  1  0  0  0  0
  3 52  1  0  0  0  0
  3 53  1  0  0  0  0
  4  5  1  0  0  0  0
  4 36  1  0  0  0  0
  5  6  2  0  0  0  0
  5  7  1  0  0  0  0
  7  8  1  0  0  0  0
  7 29  1  0  0  0  0
  7 35  1  6  0  0  0
  8  9  1  0  0  0  0
  8 33  1  0  0  0  0
  8 34  1  0  0  0  0
  9 10  1  0  0  0  0
  9 21  1  0  0  0  0
 10 11  1  0  0  0  0
 10 19  1  0  0  0  0
 10 20  1  0  0  0  0
 11 12  2  0  0  0  0
 11 13  1  0  0  0  0
 13 14  1  0  0  0  0
 13 18  1  0  0  0  0
 14 15  1  0  0  0  0
 14 16  1  0  0  0  0
 14 17  1  0  0  0  0
 21 22  2  0  0  0  0
 21 23  1  0  0  0  0
 23 24  2  0  0  0  0
 23 29  1  0  0  0  0
 24 25  1  0  0  0  0
 24 32  1  0  0  0  0
 25 26  2  0  0  0  0
 25 31  1  0  0  0  0
 26 27  1  0  0  0  0
 26 28  1  0  0  0  0
 28 29  2  0  0  0  0
 28 30  1  0  0  0  0
 36 37  2  0  0  0  0
 36 45  1  0  0  0  0
 37 38  1  0  0  0  0
 37 51  1  0  0  0  0
 38 39  2  0  0  0  0
 39 40  1  0  0  0  0
 39 50  1  0  0  0  0
 40 41  2  0  0  0  0
 40 45  1  0  0  0  0
 41 42  1  0  0  0  0
 41 49  1  0  0  0  0
 42 43  2  0  0  0  0
 42 48  1  0  0  0  0
 43 44  1  0  0  0  0
 43 47  1  0  0  0  0
 44 45  2  0  0  0  0
 44 46  1  0  0  0  0
 54 55  2  0  0  0  0
 54 56  1  0  0  0  0
M  CHG  1  56  -1
M  END
>  <MODEL>
       1

$$$$
