tmp_first_model_15_21.pdb
 OpenBabel08282501153D

 63 68  0  0  1  0  0  0  0  0999 V2000
   -8.1560   -3.7940  -23.9130 C   0  0  0  0  0  0  0  0  0  0  0  0
   -8.3290   -3.0460  -22.5960 C   0  0  1  0  0  0  0  0  0  0  0  0
   -7.0130   -2.4570  -22.0510 C   0  0  0  0  0  0  0  0  0  0  0  0
   -7.4670   -1.3620  -21.2160 N   0  0  0  0  0  0  0  0  0  0  0  0
   -6.6790   -0.7950  -20.1750 C   0  0  0  0  0  0  0  0  0  0  0  0
   -6.9910   -1.0260  -18.8560 C   0  0  0  0  0  0  0  0  0  0  0  0
   -6.2800   -0.5420  -17.8080 N   0  0  0  0  0  0  0  0  0  0  0  0
   -5.2360    0.2080  -18.0750 C   0  0  0  0  0  0  0  0  0  0  0  0
   -4.7910    0.5220  -19.3910 C   0  0  0  0  0  0  0  0  0  0  0  0
   -3.6710    1.3640  -19.6350 C   0  0  0  0  0  0  0  0  0  0  0  0
   -3.2790    1.6510  -20.9150 C   0  0  0  0  0  0  0  0  0  0  0  0
   -3.9940    1.1170  -22.0080 C   0  0  0  0  0  0  0  0  0  0  0  0
   -5.0830    0.3000  -21.7970 C   0  0  0  0  0  0  0  0  0  0  0  0
   -5.5180   -0.0150  -20.4810 C   0  0  0  0  0  0  0  0  0  0  0  0
   -5.6690   -0.0400  -22.6450 H   0  0  0  0  0  0  0  0  0  0  0  0
   -3.7010    1.3750  -23.0220 H   0  0  0  0  0  0  0  0  0  0  0  0
   -2.4270    2.3010  -21.0960 H   0  0  0  0  0  0  0  0  0  0  0  0
   -3.1480    1.7840  -18.7800 H   0  0  0  0  0  0  0  0  0  0  0  0
   -4.6780    0.6120  -17.2280 H   0  0  0  0  0  0  0  0  0  0  0  0
   -7.8460   -1.6470  -18.5940 H   0  0  0  0  0  0  0  0  0  0  0  0
   -8.7570   -0.9650  -21.4930 C   0  0  0  0  0  0  0  0  0  0  0  0
   -9.3260   -0.0320  -20.9520 O   0  0  0  0  0  0  0  0  0  0  0  0
   -9.3470   -1.8680  -22.6140 C   0  0  1  0  0  0  0  0  0  0  0  0
   -9.3240   -1.1240  -23.9820 C   0  0  0  0  0  0  0  0  0  0  0  0
  -10.2930   -0.0490  -24.0890 N   0  0  0  0  0  0  0  0  0  0  0  0
   -9.8940    1.1470  -24.8140 C   0  0  0  0  0  0  0  0  0  0  0  0
   -8.6410    1.7290  -24.1480 C   0  0  0  0  0  0  0  0  0  0  0  0
   -7.5440    1.7290  -24.6830 O   0  0  0  0  0  0  0  0  0  0  0  0
   -8.8920    2.1630  -22.8860 N   0  0  0  0  0  0  0  0  0  0  0  0
   -7.8650    2.5320  -21.9270 C   0  0  0  0  0  0  0  0  0  0  0  0
   -7.5670    4.0160  -21.9370 C   0  0  0  0  0  0  0  0  0  0  0  0
   -6.4230    4.5730  -21.1440 C   0  0  0  0  0  0  0  0  0  0  0  0
   -6.3370    4.5080  -22.6460 C   0  0  0  0  0  0  0  0  0  0  0  0
   -5.6540    3.7680  -23.0720 H   0  0  0  0  0  0  0  0  0  0  0  0
   -6.3930    5.4440  -23.1880 H   0  0  0  0  0  0  0  0  0  0  0  0
   -5.7830    3.8870  -20.5860 H   0  0  0  0  0  0  0  0  0  0  0  0
   -6.5340    5.5560  -20.6910 H   0  0  0  0  0  0  0  0  0  0  0  0
   -8.4470    4.6490  -22.0340 H   0  0  0  0  0  0  0  0  0  0  0  0
   -8.2330    2.1770  -20.9600 H   0  0  0  0  0  0  0  0  0  0  0  0
   -6.9540    1.9620  -22.1490 H   0  0  0  0  0  0  0  0  0  0  0  0
   -9.8040    1.9690  -22.5020 H   0  0  0  0  0  0  0  0  0  0  0  0
  -10.7400    1.8350  -24.7380 H   0  0  0  0  0  0  0  0  0  0  0  0
   -9.6780    0.9500  -25.8710 H   0  0  0  0  0  0  0  0  0  0  0  0
  -11.5070   -0.0800  -23.4730 C   0  0  0  0  0  0  0  0  0  0  0  0
  -12.3000    0.8520  -23.5470 O   0  0  0  0  0  0  0  0  0  0  0  0
  -11.8150   -1.3240  -22.7020 C   0  0  0  0  0  0  0  0  0  0  0  0
  -13.1520   -1.5420  -22.3720 C   0  0  0  0  0  0  0  0  0  0  0  0
  -13.5240   -2.6480  -21.6440 C   0  0  0  0  0  0  0  0  0  0  0  0
  -12.5210   -3.5320  -21.2780 C   0  0  0  0  0  0  0  0  0  0  0  0
  -12.8720   -4.5410  -20.4680 F   0  0  0  0  0  0  0  0  0  0  0  0
  -11.1960   -3.3830  -21.6460 C   0  0  0  0  0  0  0  0  0  0  0  0
  -10.8020   -2.2290  -22.3370 C   0  0  0  0  0  0  0  0  0  0  0  0
  -10.4980   -4.1470  -21.3200 H   0  0  0  0  0  0  0  0  0  0  0  0
  -14.5480   -2.8430  -21.3430 H   0  0  0  0  0  0  0  0  0  0  0  0
  -13.8850   -0.8150  -22.6960 H   0  0  0  0  0  0  0  0  0  0  0  0
   -8.3400   -0.6810  -24.1410 H   0  0  0  0  0  0  0  0  0  0  0  0
   -9.5030   -1.8380  -24.7940 H   0  0  0  0  0  0  0  0  0  0  0  0
   -6.3540   -2.1060  -22.8610 H   0  0  0  0  0  0  0  0  0  0  0  0
   -6.4430   -3.1840  -21.4620 H   0  0  0  0  0  0  0  0  0  0  0  0
   -8.6820   -3.7400  -21.8280 H   0  0  0  0  0  0  0  0  0  0  0  0
   -7.7040   -3.1430  -24.6730 H   0  0  0  0  0  0  0  0  0  0  0  0
   -7.5040   -4.6660  -23.7990 H   0  0  0  0  0  0  0  0  0  0  0  0
   -9.1230   -4.1360  -24.2970 H   0  0  0  0  0  0  0  0  0  0  0  0
  1  2  1  0  0  0  0
  1 61  1  0  0  0  0
  1 62  1  0  0  0  0
  1 63  1  0  0  0  0
  2  3  1  0  0  0  0
  2 23  1  0  0  0  0
  2 60  1  1  0  0  0
  3  4  1  0  0  0  0
  3 58  1  0  0  0  0
  3 59  1  0  0  0  0
  4  5  1  0  0  0  0
  4 21  1  0  0  0  0
  5  6  2  0  0  0  0
  5 14  1  0  0  0  0
  6  7  1  0  0  0  0
  6 20  1  0  0  0  0
  7  8  2  0  0  0  0
  8  9  1  0  0  0  0
  8 19  1  0  0  0  0
  9 10  2  0  0  0  0
  9 14  1  0  0  0  0
 10 11  1  0  0  0  0
 10 18  1  0  0  0  0
 11 12  2  0  0  0  0
 11 17  1  0  0  0  0
 12 13  1  0  0  0  0
 12 16  1  0  0  0  0
 13 14  2  0  0  0  0
 13 15  1  0  0  0  0
 21 22  2  0  0  0  0
 23 21  1  1  0  0  0
 23 24  1  0  0  0  0
 23 52  1  0  0  0  0
 24 25  1  0  0  0  0
 24 56  1  0  0  0  0
 24 57  1  0  0  0  0
 25 26  1  0  0  0  0
 25 44  1  0  0  0  0
 26 27  1  0  0  0  0
 26 42  1  0  0  0  0
 26 43  1  0  0  0  0
 27 28  2  0  0  0  0
 27 29  1  0  0  0  0
 29 30  1  0  0  0  0
 29 41  1  0  0  0  0
 30 31  1  0  0  0  0
 30 39  1  0  0  0  0
 30 40  1  0  0  0  0
 31 32  1  0  0  0  0
 31 33  1  0  0  0  0
 31 38  1  0  0  0  0
 32 33  1  0  0  0  0
 32 36  1  0  0  0  0
 32 37  1  0  0  0  0
 33 34  1  0  0  0  0
 33 35  1  0  0  0  0
 44 45  2  0  0  0  0
 44 46  1  0  0  0  0
 46 47  2  0  0  0  0
 46 52  1  0  0  0  0
 47 48  1  0  0  0  0
 47 55  1  0  0  0  0
 48 49  2  0  0  0  0
 48 54  1  0  0  0  0
 49 50  1  0  0  0  0
 49 51  1  0  0  0  0
 51 52  2  0  0  0  0
 51 53  1  0  0  0  0
M  END
>  <MODEL>
       1

$$$$
