tmp_first_model_5_8.pdb
 OpenBabel08272519223D

 60 64  0  0  1  0  0  0  0  0999 V2000
  -14.7190   -1.7500  -23.3220 C   0  0  0  0  0  0  0  0  0  0  0  0
  -13.7780   -2.7560  -22.8980 N   0  0  0  0  0  0  0  0  0  0  0  0
  -13.3680   -2.9500  -21.6210 C   0  0  0  0  0  0  0  0  0  0  0  0
  -13.7780   -2.3260  -20.6550 O   0  0  0  0  0  0  0  0  0  0  0  0
  -12.3600   -4.0990  -21.5740 C   0  0  0  0  0  0  0  0  0  0  0  0
  -11.1510   -3.8870  -22.3500 N   0  0  0  0  0  0  0  0  0  0  0  0
  -10.0070   -3.3960  -21.6160 C   0  0  0  0  0  0  0  0  0  0  0  0
   -8.8470   -2.8890  -22.4970 C   0  0  2  0  0  0  0  0  0  0  0  0
   -7.6690   -2.7440  -21.5320 C   0  0  0  0  0  0  0  0  0  0  0  0
   -7.0150   -3.6480  -21.0480 O   0  0  0  0  0  0  0  0  0  0  0  0
   -7.4700   -1.4090  -21.2380 N   0  0  0  0  0  0  0  0  0  0  0  0
   -6.5210   -1.0640  -20.2420 C   0  0  0  0  0  0  0  0  0  0  0  0
   -6.6750   -1.4980  -18.9510 C   0  0  0  0  0  0  0  0  0  0  0  0
   -5.7350   -1.3710  -17.9810 N   0  0  0  0  0  0  0  0  0  0  0  0
   -4.6290   -0.7390  -18.2970 C   0  0  0  0  0  0  0  0  0  0  0  0
   -4.3860   -0.1480  -19.5650 C   0  0  0  0  0  0  0  0  0  0  0  0
   -3.2600    0.6820  -19.8100 C   0  0  0  0  0  0  0  0  0  0  0  0
   -3.1890    1.4260  -20.9550 C   0  0  0  0  0  0  0  0  0  0  0  0
   -4.1480    1.2460  -21.9820 C   0  0  0  0  0  0  0  0  0  0  0  0
   -5.2190    0.4150  -21.7890 C   0  0  0  0  0  0  0  0  0  0  0  0
   -5.3830   -0.2670  -20.5580 C   0  0  0  0  0  0  0  0  0  0  0  0
   -5.9390    0.2530  -22.5820 H   0  0  0  0  0  0  0  0  0  0  0  0
   -4.0330    1.7500  -22.9360 H   0  0  0  0  0  0  0  0  0  0  0  0
   -2.3500    2.0900  -21.1360 H   0  0  0  0  0  0  0  0  0  0  0  0
   -2.5410    0.8060  -19.0080 H   0  0  0  0  0  0  0  0  0  0  0  0
   -3.8660   -0.6310  -17.5290 H   0  0  0  0  0  0  0  0  0  0  0  0
   -7.5950   -2.0000  -18.6640 H   0  0  0  0  0  0  0  0  0  0  0  0
   -8.4600   -0.5310  -21.8620 C   0  0  0  0  0  0  0  0  0  0  0  0
   -9.0080   -1.4170  -22.9990 C   0  0  2  0  0  0  0  0  0  0  0  0
  -10.4230   -1.0830  -23.4290 C   0  0  0  0  0  0  0  0  0  0  0  0
  -10.4980    0.2210  -23.9490 O   0  0  0  0  0  0  0  0  0  0  0  0
  -11.8320    0.5040  -24.2830 C   0  0  0  0  0  0  0  0  0  0  0  0
  -12.4610    0.5780  -23.3830 H   0  0  0  0  0  0  0  0  0  0  0  0
  -12.2450   -0.3020  -24.9070 H   0  0  0  0  0  0  0  0  0  0  0  0
  -11.8750    1.4450  -24.8340 H   0  0  0  0  0  0  0  0  0  0  0  0
  -10.7350   -1.8050  -24.1970 H   0  0  0  0  0  0  0  0  0  0  0  0
  -11.1140   -1.1930  -22.5800 H   0  0  0  0  0  0  0  0  0  0  0  0
   -8.3510   -1.2930  -23.8680 H   0  0  0  0  0  0  0  0  0  0  0  0
   -9.2460   -0.2520  -21.1440 H   0  0  0  0  0  0  0  0  0  0  0  0
   -8.0170    0.4000  -22.2280 H   0  0  0  0  0  0  0  0  0  0  0  0
   -8.6030   -3.9200  -23.5780 C   0  0  0  0  0  0  0  0  0  0  0  0
   -7.3190   -4.1100  -24.1020 C   0  0  0  0  0  0  0  0  0  0  0  0
   -7.0850   -5.1180  -25.0200 C   0  0  0  0  0  0  0  0  0  0  0  0
   -5.4640   -5.3620  -25.6080 Cl  0  0  0  0  0  0  0  0  0  0  0  0
   -8.1170   -5.9320  -25.4850 C   0  0  0  0  0  0  0  0  0  0  0  0
   -9.4020   -5.6950  -25.0250 C   0  0  0  0  0  0  0  0  0  0  0  0
   -9.6520   -4.7040  -24.0750 C   0  0  0  0  0  0  0  0  0  0  0  0
  -11.0420   -4.5130  -23.5590 C   0  0  0  0  0  0  0  0  0  0  0  0
  -12.0450   -4.8830  -24.1720 O   0  0  0  0  0  0  0  0  0  0  0  0
  -10.2350   -6.2830  -25.3930 H   0  0  0  0  0  0  0  0  0  0  0  0
   -7.9080   -6.7260  -26.1980 H   0  0  0  0  0  0  0  0  0  0  0  0
   -6.4990   -3.4860  -23.7610 H   0  0  0  0  0  0  0  0  0  0  0  0
   -9.6020   -4.1960  -20.9890 H   0  0  0  0  0  0  0  0  0  0  0  0
  -10.3570   -2.5910  -20.9630 H   0  0  0  0  0  0  0  0  0  0  0  0
  -12.8680   -4.9140  -22.0810 H   0  0  0  0  0  0  0  0  0  0  0  0
  -12.1150   -4.3720  -20.5470 H   0  0  0  0  0  0  0  0  0  0  0  0
  -13.4800   -3.4490  -23.5770 H   0  0  0  0  0  0  0  0  0  0  0  0
  -15.1900   -1.2990  -22.4490 H   0  0  0  0  0  0  0  0  0  0  0  0
  -15.4870   -2.1960  -23.9560 H   0  0  0  0  0  0  0  0  0  0  0  0
  -14.1930   -0.9800  -23.9020 H   0  0  0  0  0  0  0  0  0  0  0  0
  1  2  1  0  0  0  0
  1 58  1  0  0  0  0
  1 59  1  0  0  0  0
  1 60  1  0  0  0  0
  2  3  1  0  0  0  0
  2 57  1  0  0  0  0
  3  4  2  0  0  0  0
  3  5  1  0  0  0  0
  5  6  1  0  0  0  0
  5 55  1  0  0  0  0
  5 56  1  0  0  0  0
  6  7  1  0  0  0  0
  6 48  1  0  0  0  0
  7  8  1  0  0  0  0
  7 53  1  0  0  0  0
  7 54  1  0  0  0  0
  8  9  1  1  0  0  0
  8 29  1  0  0  0  0
  8 41  1  0  0  0  0
  9 10  2  0  0  0  0
  9 11  1  0  0  0  0
 11 12  1  0  0  0  0
 11 28  1  0  0  0  0
 12 13  2  0  0  0  0
 12 21  1  0  0  0  0
 13 14  1  0  0  0  0
 13 27  1  0  0  0  0
 14 15  2  0  0  0  0
 15 16  1  0  0  0  0
 15 26  1  0  0  0  0
 16 17  2  0  0  0  0
 16 21  1  0  0  0  0
 17 18  1  0  0  0  0
 17 25  1  0  0  0  0
 18 19  2  0  0  0  0
 18 24  1  0  0  0  0
 19 20  1  0  0  0  0
 19 23  1  0  0  0  0
 20 21  2  0  0  0  0
 20 22  1  0  0  0  0
 28 29  1  0  0  0  0
 28 39  1  0  0  0  0
 28 40  1  0  0  0  0
 29 30  1  0  0  0  0
 29 38  1  6  0  0  0
 30 31  1  0  0  0  0
 30 36  1  0  0  0  0
 30 37  1  0  0  0  0
 31 32  1  0  0  0  0
 32 33  1  0  0  0  0
 32 34  1  0  0  0  0
 32 35  1  0  0  0  0
 41 42  2  0  0  0  0
 41 47  1  0  0  0  0
 42 43  1  0  0  0  0
 42 52  1  0  0  0  0
 43 44  1  0  0  0  0
 43 45  2  0  0  0  0
 45 46  1  0  0  0  0
 45 51  1  0  0  0  0
 46 47  2  0  0  0  0
 46 50  1  0  0  0  0
 47 48  1  0  0  0  0
 48 49  2  0  0  0  0
M  END
>  <MODEL>
       1

$$$$
