tmp_first_model_7_57.pdb
 OpenBabel08272520323D

 59 63  0  0  1  0  0  0  0  0999 V2000
   -9.9020    1.7510  -28.0470 C   0  0  0  0  0  0  0  0  0  0  0  0
   -9.8120    1.7840  -26.6020 N   0  0  0  0  0  0  0  0  0  0  0  0
   -8.7030    1.2690  -26.0030 C   0  0  0  0  0  0  0  0  0  0  0  0
   -7.7820    0.7690  -26.6300 O   0  0  0  0  0  0  0  0  0  0  0  0
   -8.7350    1.3250  -24.4780 C   0  0  0  0  0  0  0  0  0  0  0  0
   -9.5030    0.2090  -23.9800 N   0  0  0  0  0  0  0  0  0  0  0  0
   -8.9420   -1.1220  -24.0800 C   0  0  0  0  0  0  0  0  0  0  0  0
   -9.2250   -1.9060  -22.7680 C   0  0  2  0  0  0  0  0  0  0  0  0
   -8.6940   -1.0580  -21.5730 C   0  0  0  0  0  0  0  0  0  0  0  0
   -9.2950   -0.1850  -20.9880 O   0  0  0  0  0  0  0  0  0  0  0  0
   -7.3960   -1.4440  -21.3000 N   0  0  0  0  0  0  0  0  0  0  0  0
   -6.6370   -0.8410  -20.2580 C   0  0  0  0  0  0  0  0  0  0  0  0
   -6.9760   -1.0450  -18.9420 C   0  0  0  0  0  0  0  0  0  0  0  0
   -6.2690   -0.5750  -17.8820 N   0  0  0  0  0  0  0  0  0  0  0  0
   -5.2100    0.1500  -18.1330 C   0  0  0  0  0  0  0  0  0  0  0  0
   -4.7590    0.4720  -19.4430 C   0  0  0  0  0  0  0  0  0  0  0  0
   -3.6310    1.3070  -19.6580 C   0  0  0  0  0  0  0  0  0  0  0  0
   -3.2450    1.6300  -20.9280 C   0  0  0  0  0  0  0  0  0  0  0  0
   -3.9640    1.1340  -22.0360 C   0  0  0  0  0  0  0  0  0  0  0  0
   -5.0560    0.3190  -21.8520 C   0  0  0  0  0  0  0  0  0  0  0  0
   -5.4850   -0.0340  -20.5460 C   0  0  0  0  0  0  0  0  0  0  0  0
   -5.6080   -0.0500  -22.7110 H   0  0  0  0  0  0  0  0  0  0  0  0
   -3.6590    1.4070  -23.0390 H   0  0  0  0  0  0  0  0  0  0  0  0
   -2.3950    2.2880  -21.0890 H   0  0  0  0  0  0  0  0  0  0  0  0
   -3.1090    1.6970  -18.7890 H   0  0  0  0  0  0  0  0  0  0  0  0
   -4.6500    0.5290  -17.2770 H   0  0  0  0  0  0  0  0  0  0  0  0
   -7.8610   -1.6260  -18.6950 H   0  0  0  0  0  0  0  0  0  0  0  0
   -6.9460   -2.5210  -22.1710 C   0  0  0  0  0  0  0  0  0  0  0  0
   -8.2780   -3.1620  -22.6780 C   0  0  0  0  0  0  0  0  0  0  0  0
   -8.0830   -3.9350  -23.9790 C   0  0  0  0  0  0  0  0  0  0  0  0
   -7.4460   -4.8090  -23.8110 H   0  0  0  0  0  0  0  0  0  0  0  0
   -9.0550   -4.2970  -24.3310 H   0  0  0  0  0  0  0  0  0  0  0  0
   -7.6370   -3.3260  -24.7690 H   0  0  0  0  0  0  0  0  0  0  0  0
   -8.7740   -4.1460  -21.6370 C   0  0  0  0  0  0  0  0  0  0  0  0
   -7.9610   -4.8080  -21.3360 H   0  0  0  0  0  0  0  0  0  0  0  0
   -9.5440   -4.7990  -22.0400 H   0  0  0  0  0  0  0  0  0  0  0  0
   -9.1880   -3.6110  -20.7840 H   0  0  0  0  0  0  0  0  0  0  0  0
   -6.3570   -2.1170  -23.0110 H   0  0  0  0  0  0  0  0  0  0  0  0
   -6.2990   -3.2150  -21.6230 H   0  0  0  0  0  0  0  0  0  0  0  0
  -10.7620   -1.9800  -22.6940 C   0  0  0  0  0  0  0  0  0  0  0  0
  -11.5710   -3.0900  -22.3960 C   0  0  0  0  0  0  0  0  0  0  0  0
  -12.9480   -2.9730  -22.3070 C   0  0  0  0  0  0  0  0  0  0  0  0
  -13.8980   -4.4060  -22.0250 Cl  0  0  0  0  0  0  0  0  0  0  0  0
  -13.5990   -1.7550  -22.4650 C   0  0  0  0  0  0  0  0  0  0  0  0
  -12.8360   -0.6520  -22.7810 C   0  0  0  0  0  0  0  0  0  0  0  0
  -11.4570   -0.7750  -22.9430 C   0  0  0  0  0  0  0  0  0  0  0  0
  -10.7550    0.4270  -23.4920 C   0  0  0  0  0  0  0  0  0  0  0  0
  -11.2910    1.5290  -23.5270 O   0  0  0  0  0  0  0  0  0  0  0  0
  -13.2890    0.3240  -22.9400 H   0  0  0  0  0  0  0  0  0  0  0  0
  -14.6760   -1.6860  -22.3860 H   0  0  0  0  0  0  0  0  0  0  0  0
  -11.1770   -4.0760  -22.2380 H   0  0  0  0  0  0  0  0  0  0  0  0
   -9.3900   -1.6750  -24.9190 H   0  0  0  0  0  0  0  0  0  0  0  0
   -7.8690   -1.0250  -24.2770 H   0  0  0  0  0  0  0  0  0  0  0  0
   -9.2170    2.2400  -24.1300 H   0  0  0  0  0  0  0  0  0  0  0  0
   -7.7220    1.2760  -24.0580 H   0  0  0  0  0  0  0  0  0  0  0  0
  -10.6500    1.8860  -26.0490 H   0  0  0  0  0  0  0  0  0  0  0  0
   -9.0440    2.2800  -28.4730 H   0  0  0  0  0  0  0  0  0  0  0  0
   -9.8850    0.7240  -28.4310 H   0  0  0  0  0  0  0  0  0  0  0  0
  -10.8250    2.2480  -28.3520 H   0  0  0  0  0  0  0  0  0  0  0  0
  1  2  1  0  0  0  0
  1 57  1  0  0  0  0
  1 58  1  0  0  0  0
  1 59  1  0  0  0  0
  2  3  1  0  0  0  0
  2 56  1  0  0  0  0
  3  4  2  0  0  0  0
  3  5  1  0  0  0  0
  5  6  1  0  0  0  0
  5 54  1  0  0  0  0
  5 55  1  0  0  0  0
  6  7  1  0  0  0  0
  6 47  1  0  0  0  0
  7  8  1  0  0  0  0
  7 52  1  0  0  0  0
  7 53  1  0  0  0  0
  8  9  1  1  0  0  0
  8 29  1  0  0  0  0
  8 40  1  0  0  0  0
  9 10  2  0  0  0  0
  9 11  1  0  0  0  0
 11 12  1  0  0  0  0
 11 28  1  0  0  0  0
 12 13  2  0  0  0  0
 12 21  1  0  0  0  0
 13 14  1  0  0  0  0
 13 27  1  0  0  0  0
 14 15  2  0  0  0  0
 15 16  1  0  0  0  0
 15 26  1  0  0  0  0
 16 17  2  0  0  0  0
 16 21  1  0  0  0  0
 17 18  1  0  0  0  0
 17 25  1  0  0  0  0
 18 19  2  0  0  0  0
 18 24  1  0  0  0  0
 19 20  1  0  0  0  0
 19 23  1  0  0  0  0
 20 21  2  0  0  0  0
 20 22  1  0  0  0  0
 28 29  1  0  0  0  0
 28 38  1  0  0  0  0
 28 39  1  0  0  0  0
 29 30  1  0  0  0  0
 29 34  1  0  0  0  0
 30 31  1  0  0  0  0
 30 32  1  0  0  0  0
 30 33  1  0  0  0  0
 34 35  1  0  0  0  0
 34 36  1  0  0  0  0
 34 37  1  0  0  0  0
 40 41  2  0  0  0  0
 40 46  1  0  0  0  0
 41 42  1  0  0  0  0
 41 51  1  0  0  0  0
 42 43  1  0  0  0  0
 42 44  2  0  0  0  0
 44 45  1  0  0  0  0
 44 50  1  0  0  0  0
 45 46  2  0  0  0  0
 45 49  1  0  0  0  0
 46 47  1  0  0  0  0
 47 48  2  0  0  0  0
M  END
>  <MODEL>
       1

$$$$
