tmp_first_model_3_49.pdb
 OpenBabel08272518143D

 67 72  0  0  1  0  0  0  0  0999 V2000
   -7.7520   -6.0530  -26.7590 C   0  0  0  0  0  0  0  0  0  0  0  0
   -8.0820   -4.6560  -26.9870 N   0  0  0  0  0  0  0  0  0  0  0  0
   -7.1340   -3.7180  -26.7270 C   0  0  0  0  0  0  0  0  0  0  0  0
   -6.0010   -4.0010  -26.3610 O   0  0  0  0  0  0  0  0  0  0  0  0
   -7.5910   -2.2690  -26.8610 C   0  0  0  0  0  0  0  0  0  0  0  0
   -8.4440   -1.9140  -25.7380 N   0  0  0  0  0  0  0  0  0  0  0  0
   -7.8580   -1.3600  -24.5210 C   0  0  0  0  0  0  0  0  0  0  0  0
   -8.6920   -1.6210  -23.2290 C   0  0  2  0  0  0  0  0  0  0  0  0
   -8.1230   -0.6810  -22.1490 C   0  0  0  0  0  0  0  0  0  0  0  0
   -8.2400    0.5250  -22.1120 O   0  0  0  0  0  0  0  0  0  0  0  0
   -7.4090   -1.4200  -21.2250 N   0  0  0  0  0  0  0  0  0  0  0  0
   -6.6140   -0.8270  -20.2110 C   0  0  0  0  0  0  0  0  0  0  0  0
   -6.9140   -1.0690  -18.8940 C   0  0  0  0  0  0  0  0  0  0  0  0
   -6.2400   -0.5570  -17.8350 N   0  0  0  0  0  0  0  0  0  0  0  0
   -5.2060    0.2070  -18.0980 C   0  0  0  0  0  0  0  0  0  0  0  0
   -4.7610    0.5130  -19.4140 C   0  0  0  0  0  0  0  0  0  0  0  0
   -3.6240    1.3350  -19.6300 C   0  0  0  0  0  0  0  0  0  0  0  0
   -3.1960    1.6060  -20.9000 C   0  0  0  0  0  0  0  0  0  0  0  0
   -3.8830    1.0640  -22.0090 C   0  0  0  0  0  0  0  0  0  0  0  0
   -4.9860    0.2710  -21.8250 C   0  0  0  0  0  0  0  0  0  0  0  0
   -5.4690   -0.0180  -20.5160 C   0  0  0  0  0  0  0  0  0  0  0  0
   -5.5060   -0.1290  -22.6900 H   0  0  0  0  0  0  0  0  0  0  0  0
   -3.5330    1.2840  -23.0130 H   0  0  0  0  0  0  0  0  0  0  0  0
   -2.3300    2.2410  -21.0630 H   0  0  0  0  0  0  0  0  0  0  0  0
   -3.1150    1.7490  -18.7640 H   0  0  0  0  0  0  0  0  0  0  0  0
   -4.6530    0.6160  -17.2510 H   0  0  0  0  0  0  0  0  0  0  0  0
   -7.7670   -1.6980  -18.6460 H   0  0  0  0  0  0  0  0  0  0  0  0
   -7.3650   -2.8420  -21.5130 C   0  0  0  0  0  0  0  0  0  0  0  0
   -8.5060   -3.0170  -22.5280 C   0  0  2  0  0  0  0  0  0  0  0  0
   -8.3160   -4.1980  -23.4830 C   0  0  0  0  0  0  0  0  0  0  0  0
   -8.2720   -5.4750  -22.8060 N   0  0  0  0  0  0  0  0  0  0  0  0
   -7.1580   -6.2770  -22.7260 C   0  0  0  0  0  0  0  0  0  0  0  0
   -7.0580   -7.5690  -22.2880 C   0  0  0  0  0  0  0  0  0  0  0  0
   -5.7840   -8.0910  -22.2240 N   0  0  0  0  0  0  0  0  0  0  0  0
   -4.9090   -7.2290  -22.6290 C   0  0  0  0  0  0  0  0  0  0  0  0
   -3.4350   -7.4210  -22.6850 C   0  0  0  0  0  0  0  0  0  0  0  0
   -3.0970   -7.5580  -23.7190 H   0  0  0  0  0  0  0  0  0  0  0  0
   -3.1380   -8.2970  -22.1080 H   0  0  0  0  0  0  0  0  0  0  0  0
   -2.9410   -6.5360  -22.2770 H   0  0  0  0  0  0  0  0  0  0  0  0
   -5.5600   -5.6960  -23.1490 S   0  0  0  0  0  0  0  0  0  0  0  0
   -7.8960   -8.1980  -22.0050 H   0  0  0  0  0  0  0  0  0  0  0  0
   -9.1310   -5.8570  -22.4320 H   0  0  0  0  0  0  0  0  0  0  0  0
   -7.3730   -4.0830  -24.0280 H   0  0  0  0  0  0  0  0  0  0  0  0
   -9.1430   -4.1830  -24.2040 H   0  0  0  0  0  0  0  0  0  0  0  0
   -9.4300   -3.1940  -21.9520 H   0  0  0  0  0  0  0  0  0  0  0  0
   -6.3810   -3.1380  -21.9160 H   0  0  0  0  0  0  0  0  0  0  0  0
   -7.5230   -3.4160  -20.5930 H   0  0  0  0  0  0  0  0  0  0  0  0
  -10.1450   -1.3210  -23.5640 C   0  0  0  0  0  0  0  0  0  0  0  0
  -11.0780   -1.0700  -22.5540 C   0  0  0  0  0  0  0  0  0  0  0  0
  -12.4310   -0.9850  -22.8630 C   0  0  0  0  0  0  0  0  0  0  0  0
  -13.6390   -1.1360  -21.6270 Cl  0  0  0  0  0  0  0  0  0  0  0  0
  -12.8830   -0.9370  -24.1810 C   0  0  0  0  0  0  0  0  0  0  0  0
  -11.9620   -1.1480  -25.1790 C   0  0  0  0  0  0  0  0  0  0  0  0
  -10.6310   -1.4100  -24.8710 C   0  0  0  0  0  0  0  0  0  0  0  0
   -9.7820   -1.9150  -25.9720 C   0  0  0  0  0  0  0  0  0  0  0  0
  -10.2580   -2.3410  -27.0260 O   0  0  0  0  0  0  0  0  0  0  0  0
  -12.2600   -1.2310  -26.2180 H   0  0  0  0  0  0  0  0  0  0  0  0
  -13.9370   -0.8070  -24.4040 H   0  0  0  0  0  0  0  0  0  0  0  0
  -10.7230   -0.9600  -21.5380 H   0  0  0  0  0  0  0  0  0  0  0  0
   -7.7810   -0.2690  -24.6290 H   0  0  0  0  0  0  0  0  0  0  0  0
   -6.8430   -1.7670  -24.4220 H   0  0  0  0  0  0  0  0  0  0  0  0
   -6.7230   -1.6070  -26.8990 H   0  0  0  0  0  0  0  0  0  0  0  0
   -8.1860   -2.1390  -27.7700 H   0  0  0  0  0  0  0  0  0  0  0  0
   -9.0280   -4.3800  -27.2230 H   0  0  0  0  0  0  0  0  0  0  0  0
   -6.9310   -6.3490  -27.4220 H   0  0  0  0  0  0  0  0  0  0  0  0
   -7.4410   -6.2140  -25.7150 H   0  0  0  0  0  0  0  0  0  0  0  0
   -8.6240   -6.6740  -26.9770 H   0  0  0  0  0  0  0  0  0  0  0  0
  1  2  1  0  0  0  0
  1 65  1  0  0  0  0
  1 66  1  0  0  0  0
  1 67  1  0  0  0  0
  2  3  1  0  0  0  0
  2 64  1  0  0  0  0
  3  4  2  0  0  0  0
  3  5  1  0  0  0  0
  5  6  1  0  0  0  0
  5 62  1  0  0  0  0
  5 63  1  0  0  0  0
  6  7  1  0  0  0  0
  6 55  1  0  0  0  0
  7  8  1  0  0  0  0
  7 60  1  0  0  0  0
  7 61  1  0  0  0  0
  8  9  1  1  0  0  0
  8 29  1  0  0  0  0
  8 48  1  0  0  0  0
  9 10  2  0  0  0  0
  9 11  1  0  0  0  0
 11 12  1  0  0  0  0
 11 28  1  0  0  0  0
 12 13  2  0  0  0  0
 12 21  1  0  0  0  0
 13 14  1  0  0  0  0
 13 27  1  0  0  0  0
 14 15  2  0  0  0  0
 15 16  1  0  0  0  0
 15 26  1  0  0  0  0
 16 17  2  0  0  0  0
 16 21  1  0  0  0  0
 17 18  1  0  0  0  0
 17 25  1  0  0  0  0
 18 19  2  0  0  0  0
 18 24  1  0  0  0  0
 19 20  1  0  0  0  0
 19 23  1  0  0  0  0
 20 21  2  0  0  0  0
 20 22  1  0  0  0  0
 28 29  1  0  0  0  0
 28 46  1  0  0  0  0
 28 47  1  0  0  0  0
 29 30  1  0  0  0  0
 29 45  1  1  0  0  0
 30 31  1  0  0  0  0
 30 43  1  0  0  0  0
 30 44  1  0  0  0  0
 31 32  1  0  0  0  0
 31 42  1  0  0  0  0
 32 33  2  0  0  0  0
 32 40  1  0  0  0  0
 33 34  1  0  0  0  0
 33 41  1  0  0  0  0
 34 35  2  0  0  0  0
 35 36  1  0  0  0  0
 35 40  1  0  0  0  0
 36 37  1  0  0  0  0
 36 38  1  0  0  0  0
 36 39  1  0  0  0  0
 48 49  2  0  0  0  0
 48 54  1  0  0  0  0
 49 50  1  0  0  0  0
 49 59  1  0  0  0  0
 50 51  1  0  0  0  0
 50 52  2  0  0  0  0
 52 53  1  0  0  0  0
 52 58  1  0  0  0  0
 53 54  2  0  0  0  0
 53 57  1  0  0  0  0
 54 55  1  0  0  0  0
 55 56  2  0  0  0  0
M  END
>  <MODEL>
       1

$$$$
