tmp_first_model_12_74.pdb
 OpenBabel08272523333D

 43 47  0  0  1  0  0  0  0  0999 V2000
   -9.4150   -0.4340  -20.9950 O   0  0  0  0  0  0  0  0  0  0  0  0
   -8.7410   -1.3610  -21.3830 C   0  0  0  0  0  0  0  0  0  0  0  0
   -9.1350   -2.4460  -22.1160 N   0  0  0  0  0  0  0  0  0  0  0  0
   -8.0370   -3.1470  -22.7370 C   0  0  1  0  0  0  0  0  0  0  0  0
   -8.1050   -4.6890  -22.7140 C   0  0  0  0  0  0  0  0  0  0  0  0
   -8.2240   -4.7220  -24.2730 C   0  0  2  0  0  0  0  0  0  0  0  0
   -7.1780   -5.5230  -24.9870 C   0  0  0  0  0  0  0  0  0  0  0  0
   -5.8220   -5.2780  -24.7420 C   0  0  0  0  0  0  0  0  0  0  0  0
   -4.8300   -6.0110  -25.3850 C   0  0  0  0  0  0  0  0  0  0  0  0
   -5.1790   -7.0130  -26.2890 C   0  0  0  0  0  0  0  0  0  0  0  0
   -6.5200   -7.2770  -26.5440 C   0  0  0  0  0  0  0  0  0  0  0  0
   -7.4990   -6.5350  -25.8930 C   0  0  0  0  0  0  0  0  0  0  0  0
   -9.1670   -6.9190  -26.2490 Cl  0  0  0  0  0  0  0  0  0  0  0  0
   -6.8250   -8.0480  -27.2450 H   0  0  0  0  0  0  0  0  0  0  0  0
   -4.4090   -7.5880  -26.7970 H   0  0  0  0  0  0  0  0  0  0  0  0
   -3.7850   -5.7950  -25.1780 H   0  0  0  0  0  0  0  0  0  0  0  0
   -5.5510   -4.4960  -24.0290 H   0  0  0  0  0  0  0  0  0  0  0  0
   -8.0330   -3.1700  -24.2950 C   0  0  0  0  0  0  0  0  0  0  0  0
   -8.8530   -2.6040  -24.7490 H   0  0  0  0  0  0  0  0  0  0  0  0
   -7.0970   -2.8300  -24.7560 H   0  0  0  0  0  0  0  0  0  0  0  0
   -9.2220   -5.0210  -24.6050 H   0  0  0  0  0  0  0  0  0  0  0  0
   -8.9690   -5.0730  -22.1640 H   0  0  0  0  0  0  0  0  0  0  0  0
   -7.1940   -5.1550  -22.3190 H   0  0  0  0  0  0  0  0  0  0  0  0
   -6.8390   -2.5140  -22.0490 C   0  0  0  0  0  0  0  0  0  0  0  0
   -5.6730   -2.7980  -22.2170 O   0  0  0  0  0  0  0  0  0  0  0  0
   -7.3390   -1.5110  -21.2090 N   0  0  0  0  0  0  0  0  0  0  0  0
   -6.5880   -0.8520  -20.1860 C   0  0  0  0  0  0  0  0  0  0  0  0
   -6.9100   -1.0640  -18.8670 C   0  0  0  0  0  0  0  0  0  0  0  0
   -6.2170   -0.5500  -17.8210 N   0  0  0  0  0  0  0  0  0  0  0  0
   -5.1810    0.2040  -18.0940 C   0  0  0  0  0  0  0  0  0  0  0  0
   -4.7560    0.5370  -19.4080 C   0  0  0  0  0  0  0  0  0  0  0  0
   -3.6280    1.3710  -19.6300 C   0  0  0  0  0  0  0  0  0  0  0  0
   -3.2620    1.7100  -20.9010 C   0  0  0  0  0  0  0  0  0  0  0  0
   -4.0280    1.2510  -21.9940 C   0  0  0  0  0  0  0  0  0  0  0  0
   -5.1150    0.4270  -21.8060 C   0  0  0  0  0  0  0  0  0  0  0  0
   -5.4970    0.0270  -20.4960 C   0  0  0  0  0  0  0  0  0  0  0  0
   -5.6350    0.0040  -22.6610 H   0  0  0  0  0  0  0  0  0  0  0  0
   -3.6930    1.4760  -23.0020 H   0  0  0  0  0  0  0  0  0  0  0  0
   -2.3730    2.3110  -21.0810 H   0  0  0  0  0  0  0  0  0  0  0  0
   -3.0800    1.7370  -18.7670 H   0  0  0  0  0  0  0  0  0  0  0  0
   -4.6300    0.6060  -17.2460 H   0  0  0  0  0  0  0  0  0  0  0  0
   -7.7590   -1.6890  -18.6000 H   0  0  0  0  0  0  0  0  0  0  0  0
  -10.0990   -2.6030  -22.3630 H   0  0  0  0  0  0  0  0  0  0  0  0
  1  2  2  0  0  0  0
  2  3  1  0  0  0  0
  2 26  1  0  0  0  0
  3  4  1  0  0  0  0
  3 43  1  0  0  0  0
  4  5  1  0  0  0  0
  4 18  1  0  0  0  0
  4 24  1  1  0  0  0
  5  6  1  0  0  0  0
  5 22  1  0  0  0  0
  5 23  1  0  0  0  0
  6  7  1  0  0  0  0
  6 18  1  0  0  0  0
  6 21  1  6  0  0  0
  7  8  2  0  0  0  0
  7 12  1  0  0  0  0
  8  9  1  0  0  0  0
  8 17  1  0  0  0  0
  9 10  2  0  0  0  0
  9 16  1  0  0  0  0
 10 11  1  0  0  0  0
 10 15  1  0  0  0  0
 11 12  2  0  0  0  0
 11 14  1  0  0  0  0
 12 13  1  0  0  0  0
 18 19  1  0  0  0  0
 18 20  1  0  0  0  0
 24 25  2  0  0  0  0
 24 26  1  0  0  0  0
 26 27  1  0  0  0  0
 27 28  2  0  0  0  0
 27 36  1  0  0  0  0
 28 29  1  0  0  0  0
 28 42  1  0  0  0  0
 29 30  2  0  0  0  0
 30 31  1  0  0  0  0
 30 41  1  0  0  0  0
 31 32  2  0  0  0  0
 31 36  1  0  0  0  0
 32 33  1  0  0  0  0
 32 40  1  0  0  0  0
 33 34  2  0  0  0  0
 33 39  1  0  0  0  0
 34 35  1  0  0  0  0
 34 38  1  0  0  0  0
 35 36  2  0  0  0  0
 35 37  1  0  0  0  0
M  END
>  <MODEL>
       1

$$$$
