tmp_first_model_4_28.pdb
 OpenBabel08272518513D

 64 68  0  0  1  0  0  0  0  0999 V2000
   -5.0020   -3.9590  -19.6590 C   0  0  0  0  0  0  0  0  0  0  0  0
   -5.5030   -4.6360  -20.8310 N   0  0  0  0  0  0  0  0  0  0  0  0
   -5.9650   -5.9000  -20.7800 C   0  0  0  0  0  0  0  0  0  0  0  0
   -5.6590   -6.7080  -19.9140 O   0  0  0  0  0  0  0  0  0  0  0  0
   -6.9940   -6.3040  -21.8440 C   0  0  0  0  0  0  0  0  0  0  0  0
   -7.3280   -5.3110  -22.8440 N   0  0  0  0  0  0  0  0  0  0  0  0
   -8.2980   -4.2760  -22.5050 C   0  0  0  0  0  0  0  0  0  0  0  0
   -8.0020   -2.9270  -23.2100 C   0  0  2  0  0  0  0  0  0  0  0  0
   -6.8470   -2.2240  -22.4730 C   0  0  0  0  0  0  0  0  0  0  0  0
   -5.6590   -2.4520  -22.6290 O   0  0  0  0  0  0  0  0  0  0  0  0
   -7.3600   -1.3640  -21.5150 N   0  0  0  0  0  0  0  0  0  0  0  0
   -6.5600   -0.9570  -20.4290 C   0  0  0  0  0  0  0  0  0  0  0  0
   -6.8720   -1.3190  -19.1390 C   0  0  0  0  0  0  0  0  0  0  0  0
   -6.0250   -1.2040  -18.1010 N   0  0  0  0  0  0  0  0  0  0  0  0
   -4.8440   -0.6730  -18.3360 C   0  0  0  0  0  0  0  0  0  0  0  0
   -4.4320   -0.1760  -19.5970 C   0  0  0  0  0  0  0  0  0  0  0  0
   -3.1580    0.4020  -19.8030 C   0  0  0  0  0  0  0  0  0  0  0  0
   -2.8070    0.9400  -21.0170 C   0  0  0  0  0  0  0  0  0  0  0  0
   -3.7270    0.9200  -22.0800 C   0  0  0  0  0  0  0  0  0  0  0  0
   -4.9680    0.3530  -21.9110 C   0  0  0  0  0  0  0  0  0  0  0  0
   -5.3320   -0.2610  -20.6790 C   0  0  0  0  0  0  0  0  0  0  0  0
   -5.6740    0.3480  -22.7340 H   0  0  0  0  0  0  0  0  0  0  0  0
   -3.4540    1.3500  -23.0400 H   0  0  0  0  0  0  0  0  0  0  0  0
   -1.8350    1.4020  -21.1540 H   0  0  0  0  0  0  0  0  0  0  0  0
   -2.4780    0.4490  -18.9630 H   0  0  0  0  0  0  0  0  0  0  0  0
   -4.1520   -0.6450  -17.5000 H   0  0  0  0  0  0  0  0  0  0  0  0
   -7.8160   -1.8070  -18.9030 H   0  0  0  0  0  0  0  0  0  0  0  0
   -8.8180   -1.4390  -21.4810 C   0  0  0  0  0  0  0  0  0  0  0  0
   -9.1030   -1.8720  -22.9240 C   0  0  2  0  0  0  0  0  0  0  0  0
  -10.5370   -2.2760  -23.2290 C   0  0  0  0  0  0  0  0  0  0  0  0
  -11.5370   -0.8750  -23.7140 S   0  0  0  0  0  0  0  0  0  0  0  0
  -11.4780    0.1430  -22.6770 O   0  0  0  0  0  0  0  0  0  0  0  0
  -12.8180   -1.3810  -24.1850 O   0  0  0  0  0  0  0  0  0  0  0  0
  -10.6580   -0.2290  -24.9730 N   0  0  0  0  0  0  0  0  0  0  0  0
  -10.9330   -0.6150  -26.3470 C   0  0  0  0  0  0  0  0  0  0  0  0
  -10.6050    0.1960  -26.9970 H   0  0  0  0  0  0  0  0  0  0  0  0
  -10.3440   -1.5000  -26.5940 H   0  0  0  0  0  0  0  0  0  0  0  0
  -11.9920   -0.8240  -26.5220 H   0  0  0  0  0  0  0  0  0  0  0  0
  -10.5570    0.7600  -24.7750 H   0  0  0  0  0  0  0  0  0  0  0  0
  -10.6000   -2.9940  -24.0560 H   0  0  0  0  0  0  0  0  0  0  0  0
  -11.0190   -2.7110  -22.3480 H   0  0  0  0  0  0  0  0  0  0  0  0
   -8.8320   -1.0060  -23.5340 H   0  0  0  0  0  0  0  0  0  0  0  0
   -9.1650   -2.2120  -20.7780 H   0  0  0  0  0  0  0  0  0  0  0  0
   -9.2710   -0.4860  -21.2080 H   0  0  0  0  0  0  0  0  0  0  0  0
   -7.7120   -3.1870  -24.6700 C   0  0  0  0  0  0  0  0  0  0  0  0
   -7.8360   -2.1620  -25.6240 C   0  0  0  0  0  0  0  0  0  0  0  0
   -7.4450   -2.3740  -26.9330 C   0  0  0  0  0  0  0  0  0  0  0  0
   -7.5190   -1.0390  -28.0570 Cl  0  0  0  0  0  0  0  0  0  0  0  0
   -6.9900   -3.6150  -27.3680 C   0  0  0  0  0  0  0  0  0  0  0  0
   -6.9160   -4.6440  -26.4480 C   0  0  0  0  0  0  0  0  0  0  0  0
   -7.2470   -4.4380  -25.1080 C   0  0  0  0  0  0  0  0  0  0  0  0
   -7.0730   -5.5990  -24.1670 C   0  0  0  0  0  0  0  0  0  0  0  0
   -6.6920   -6.6960  -24.5520 O   0  0  0  0  0  0  0  0  0  0  0  0
   -6.5820   -5.6300  -26.7510 H   0  0  0  0  0  0  0  0  0  0  0  0
   -6.6920   -3.7470  -28.4030 H   0  0  0  0  0  0  0  0  0  0  0  0
   -8.2440   -1.1910  -25.3640 H   0  0  0  0  0  0  0  0  0  0  0  0
   -8.2830   -4.1230  -21.4260 H   0  0  0  0  0  0  0  0  0  0  0  0
   -9.3030   -4.6250  -22.7770 H   0  0  0  0  0  0  0  0  0  0  0  0
   -6.6360   -7.1890  -22.3730 H   0  0  0  0  0  0  0  0  0  0  0  0
   -7.8930   -6.6150  -21.2980 H   0  0  0  0  0  0  0  0  0  0  0  0
   -5.6360   -4.0780  -21.6640 H   0  0  0  0  0  0  0  0  0  0  0  0
   -4.2390   -4.5480  -19.1690 H   0  0  0  0  0  0  0  0  0  0  0  0
   -4.5850   -2.9880  -19.9450 H   0  0  0  0  0  0  0  0  0  0  0  0
   -5.7910   -3.7740  -18.9250 H   0  0  0  0  0  0  0  0  0  0  0  0
  1  2  1  0  0  0  0
  1 62  1  0  0  0  0
  1 63  1  0  0  0  0
  1 64  1  0  0  0  0
  2  3  1  0  0  0  0
  2 61  1  0  0  0  0
  3  4  2  0  0  0  0
  3  5  1  0  0  0  0
  5  6  1  0  0  0  0
  5 59  1  0  0  0  0
  5 60  1  0  0  0  0
  6  7  1  0  0  0  0
  6 52  1  0  0  0  0
  7  8  1  0  0  0  0
  7 57  1  0  0  0  0
  7 58  1  0  0  0  0
  8  9  1  1  0  0  0
  8 29  1  0  0  0  0
  8 45  1  0  0  0  0
  9 10  2  0  0  0  0
  9 11  1  0  0  0  0
 11 12  1  0  0  0  0
 11 28  1  0  0  0  0
 12 13  2  0  0  0  0
 12 21  1  0  0  0  0
 13 14  1  0  0  0  0
 13 27  1  0  0  0  0
 14 15  2  0  0  0  0
 15 16  1  0  0  0  0
 15 26  1  0  0  0  0
 16 17  2  0  0  0  0
 16 21  1  0  0  0  0
 17 18  1  0  0  0  0
 17 25  1  0  0  0  0
 18 19  2  0  0  0  0
 18 24  1  0  0  0  0
 19 20  1  0  0  0  0
 19 23  1  0  0  0  0
 20 21  2  0  0  0  0
 20 22  1  0  0  0  0
 28 29  1  0  0  0  0
 28 43  1  0  0  0  0
 28 44  1  0  0  0  0
 29 30  1  0  0  0  0
 29 42  1  6  0  0  0
 30 31  1  0  0  0  0
 30 40  1  0  0  0  0
 30 41  1  0  0  0  0
 31 32  2  0  0  0  0
 31 33  2  0  0  0  0
 31 34  1  0  0  0  0
 34 35  1  0  0  0  0
 34 39  1  0  0  0  0
 35 36  1  0  0  0  0
 35 37  1  0  0  0  0
 35 38  1  0  0  0  0
 45 46  2  0  0  0  0
 45 51  1  0  0  0  0
 46 47  1  0  0  0  0
 46 56  1  0  0  0  0
 47 48  1  0  0  0  0
 47 49  2  0  0  0  0
 49 50  1  0  0  0  0
 49 55  1  0  0  0  0
 50 51  2  0  0  0  0
 50 54  1  0  0  0  0
 51 52  1  0  0  0  0
 52 53  2  0  0  0  0
M  END
>  <MODEL>
       1

$$$$
