tmp_first_model_7_47.pdb
 OpenBabel08272520323D

 58 63  0  0  1  0  0  0  0  0999 V2000
   -8.8630    0.5350  -21.0440 O   0  0  0  0  0  0  0  0  0  0  0  0
   -8.2330   -0.1860  -21.7970 C   0  0  0  0  0  0  0  0  0  0  0  0
   -7.4300   -1.3560  -21.2410 C   0  0  0  0  0  0  0  0  0  0  0  0
   -6.5400   -0.8490  -20.1500 C   0  0  0  0  0  0  0  0  0  0  0  0
   -6.8530   -1.0630  -18.8350 C   0  0  0  0  0  0  0  0  0  0  0  0
   -6.1690   -0.5530  -17.7820 N   0  0  0  0  0  0  0  0  0  0  0  0
   -5.1410    0.2090  -18.0590 C   0  0  0  0  0  0  0  0  0  0  0  0
   -4.7070    0.5230  -19.3770 C   0  0  0  0  0  0  0  0  0  0  0  0
   -3.5930    1.3610  -19.6230 C   0  0  0  0  0  0  0  0  0  0  0  0
   -3.2170    1.6690  -20.9010 C   0  0  0  0  0  0  0  0  0  0  0  0
   -3.9510    1.1590  -21.9940 C   0  0  0  0  0  0  0  0  0  0  0  0
   -5.0380    0.3480  -21.7850 C   0  0  0  0  0  0  0  0  0  0  0  0
   -5.4370   -0.0070  -20.4640 C   0  0  0  0  0  0  0  0  0  0  0  0
   -5.6030   -0.0140  -22.6410 H   0  0  0  0  0  0  0  0  0  0  0  0
   -3.6530    1.4240  -23.0070 H   0  0  0  0  0  0  0  0  0  0  0  0
   -2.3680    2.3210  -21.0800 H   0  0  0  0  0  0  0  0  0  0  0  0
   -3.0610    1.7670  -18.7680 H   0  0  0  0  0  0  0  0  0  0  0  0
   -4.5940    0.6270  -17.2120 H   0  0  0  0  0  0  0  0  0  0  0  0
   -7.7160   -1.6790  -18.5780 H   0  0  0  0  0  0  0  0  0  0  0  0
   -6.8460   -1.8360  -22.0260 H   0  0  0  0  0  0  0  0  0  0  0  0
   -8.1350   -2.0950  -20.8490 H   0  0  0  0  0  0  0  0  0  0  0  0
   -8.1610    0.0390  -23.1640 N   0  0  0  0  0  0  0  0  0  0  0  0
   -8.0100   -1.0530  -24.1140 C   0  0  0  0  0  0  0  0  0  0  0  0
   -9.0280   -2.1350  -23.8520 C   0  0  0  0  0  0  0  0  0  0  0  0
  -10.3760   -1.7970  -23.7310 C   0  0  0  0  0  0  0  0  0  0  0  0
  -11.3430   -2.7770  -23.5580 C   0  0  0  0  0  0  0  0  0  0  0  0
  -10.9530   -4.1140  -23.5000 C   0  0  0  0  0  0  0  0  0  0  0  0
   -9.6030   -4.4320  -23.5410 C   0  0  0  0  0  0  0  0  0  0  0  0
   -9.0870   -6.0900  -23.4050 Cl  0  0  0  0  0  0  0  0  0  0  0  0
   -8.6330   -3.4600  -23.7360 C   0  0  0  0  0  0  0  0  0  0  0  0
   -7.5940   -3.7730  -23.8460 H   0  0  0  0  0  0  0  0  0  0  0  0
  -11.7000   -4.8960  -23.4620 H   0  0  0  0  0  0  0  0  0  0  0  0
  -12.3880   -2.4910  -23.4720 H   0  0  0  0  0  0  0  0  0  0  0  0
  -10.6650   -0.7520  -23.7600 H   0  0  0  0  0  0  0  0  0  0  0  0
   -6.9910   -1.4740  -24.0740 H   0  0  0  0  0  0  0  0  0  0  0  0
   -8.1630   -0.6280  -25.1070 H   0  0  0  0  0  0  0  0  0  0  0  0
   -8.4310    1.3850  -23.5900 C   0  0  2  0  0  0  0  0  0  0  0  0
   -7.3990    2.4420  -23.1430 C   0  0  0  0  0  0  0  0  0  0  0  0
   -8.0570    3.6740  -23.7170 N   0  3  1  0  0  0  0  0  0  0  0  0
   -7.2030    4.4870  -24.5910 C   0  0  0  0  0  0  0  0  0  0  0  0
   -7.5630    5.9260  -24.7670 C   0  0  0  0  0  0  0  0  0  0  0  0
   -6.3520    5.5310  -23.9430 C   0  0  0  0  0  0  0  0  0  0  0  0
   -6.4290    5.5900  -22.8560 H   0  0  0  0  0  0  0  0  0  0  0  0
   -5.3590    5.7210  -24.3440 H   0  0  0  0  0  0  0  0  0  0  0  0
   -7.4080    6.3840  -25.7400 H   0  0  0  0  0  0  0  0  0  0  0  0
   -8.4530    6.2680  -24.2370 H   0  0  0  0  0  0  0  0  0  0  0  0
   -6.7950    3.9480  -25.4390 H   0  0  0  0  0  0  0  0  0  0  0  0
   -9.2730    3.0430  -24.3730 C   0  0  2  0  0  0  0  0  0  0  0  0
   -9.7530    2.1270  -23.2470 C   0  0  0  0  0  0  0  0  0  0  0  0
  -10.6550    1.5570  -23.4810 H   0  0  0  0  0  0  0  0  0  0  0  0
   -9.7970    2.5710  -22.2500 H   0  0  0  0  0  0  0  0  0  0  0  0
   -8.6850    1.7970  -25.0570 C   0  0  0  0  0  0  0  0  0  0  0  0
   -9.4560    1.2000  -25.5490 H   0  0  0  0  0  0  0  0  0  0  0  0
   -7.8120    1.9360  -25.7070 H   0  0  0  0  0  0  0  0  0  0  0  0
   -9.9070    3.7600  -24.8750 H   0  0  0  0  0  0  0  0  0  0  0  0
   -8.3830    4.2800  -22.9360 H   0  0  0  0  0  0  0  0  0  0  0  0
   -7.3230    2.5090  -22.0540 H   0  0  0  0  0  0  0  0  0  0  0  0
   -6.4100    2.3160  -23.5850 H   0  0  0  0  0  0  0  0  0  0  0  0
  1  2  2  0  0  0  0
  2  3  1  0  0  0  0
  2 22  1  0  0  0  0
  3  4  1  0  0  0  0
  3 20  1  0  0  0  0
  3 21  1  0  0  0  0
  4  5  2  0  0  0  0
  4 13  1  0  0  0  0
  5  6  1  0  0  0  0
  5 19  1  0  0  0  0
  6  7  2  0  0  0  0
  7  8  1  0  0  0  0
  7 18  1  0  0  0  0
  8  9  2  0  0  0  0
  8 13  1  0  0  0  0
  9 10  1  0  0  0  0
  9 17  1  0  0  0  0
 10 11  2  0  0  0  0
 10 16  1  0  0  0  0
 11 12  1  0  0  0  0
 11 15  1  0  0  0  0
 12 13  2  0  0  0  0
 12 14  1  0  0  0  0
 22 23  1  0  0  0  0
 23 24  1  0  0  0  0
 23 35  1  0  0  0  0
 23 36  1  0  0  0  0
 24 25  2  0  0  0  0
 24 30  1  0  0  0  0
 25 26  1  0  0  0  0
 25 34  1  0  0  0  0
 26 27  2  0  0  0  0
 26 33  1  0  0  0  0
 27 28  1  0  0  0  0
 27 32  1  0  0  0  0
 28 29  1  0  0  0  0
 28 30  2  0  0  0  0
 30 31  1  0  0  0  0
 37 22  1  1  0  0  0
 37 38  1  0  0  0  0
 37 49  1  0  0  0  0
 37 52  1  0  0  0  0
 38 39  1  0  0  0  0
 38 57  1  0  0  0  0
 38 58  1  0  0  0  0
 39 40  1  0  0  0  0
 39 48  1  0  0  0  0
 39 56  1  1  0  0  0
 40 41  1  0  0  0  0
 40 42  1  0  0  0  0
 40 47  1  0  0  0  0
 41 42  1  0  0  0  0
 41 45  1  0  0  0  0
 41 46  1  0  0  0  0
 42 43  1  0  0  0  0
 42 44  1  0  0  0  0
 48 49  1  0  0  0  0
 48 52  1  0  0  0  0
 48 55  1  6  0  0  0
 49 50  1  0  0  0  0
 49 51  1  0  0  0  0
 52 53  1  0  0  0  0
 52 54  1  0  0  0  0
M  CHG  1  39   1
M  END
>  <MODEL>
       1

$$$$
