tmp_first_model_14_32.pdb
 OpenBabel08282500413D

 57 62  0  0  1  0  0  0  0  0999 V2000
   -8.2420   -4.1140  -23.5030 C   0  0  0  0  0  0  0  0  0  0  0  0
   -8.4600   -2.9470  -22.5550 C   0  0  1  0  0  0  0  0  0  0  0  0
   -7.3230   -2.7410  -21.5540 C   0  0  0  0  0  0  0  0  0  0  0  0
   -7.3900   -1.3280  -21.2650 N   0  0  0  0  0  0  0  0  0  0  0  0
   -6.6080   -0.7550  -20.2470 C   0  0  0  0  0  0  0  0  0  0  0  0
   -6.9250   -1.0080  -18.9380 C   0  0  0  0  0  0  0  0  0  0  0  0
   -6.2630   -0.4940  -17.8800 N   0  0  0  0  0  0  0  0  0  0  0  0
   -5.2160    0.2510  -18.1320 C   0  0  0  0  0  0  0  0  0  0  0  0
   -4.7510    0.5460  -19.4440 C   0  0  0  0  0  0  0  0  0  0  0  0
   -3.6030    1.3500  -19.6540 C   0  0  0  0  0  0  0  0  0  0  0  0
   -3.1700    1.6200  -20.9210 C   0  0  0  0  0  0  0  0  0  0  0  0
   -3.8510    1.0850  -22.0380 C   0  0  0  0  0  0  0  0  0  0  0  0
   -4.9630    0.3020  -21.8610 C   0  0  0  0  0  0  0  0  0  0  0  0
   -5.4540    0.0280  -20.5500 C   0  0  0  0  0  0  0  0  0  0  0  0
   -5.4750   -0.0970  -22.7320 H   0  0  0  0  0  0  0  0  0  0  0  0
   -3.4920    1.3020  -23.0390 H   0  0  0  0  0  0  0  0  0  0  0  0
   -2.3030    2.2520  -21.0760 H   0  0  0  0  0  0  0  0  0  0  0  0
   -3.0940    1.7500  -18.7830 H   0  0  0  0  0  0  0  0  0  0  0  0
   -4.6660    0.6490  -17.2780 H   0  0  0  0  0  0  0  0  0  0  0  0
   -7.7780   -1.6450  -18.7080 H   0  0  0  0  0  0  0  0  0  0  0  0
   -8.1400   -0.5860  -22.1440 C   0  0  0  0  0  0  0  0  0  0  0  0
   -8.2800    0.6190  -22.0730 O   0  0  0  0  0  0  0  0  0  0  0  0
   -8.6910   -1.5380  -23.2180 C   0  0  1  0  0  0  0  0  0  0  0  0
   -7.8860   -1.2320  -24.5040 C   0  0  0  0  0  0  0  0  0  0  0  0
   -8.4680   -1.8260  -25.6980 N   0  0  0  0  0  0  0  0  0  0  0  0
   -7.5680   -2.3620  -26.7000 C   0  0  0  0  0  0  0  0  0  0  0  0
   -6.6790   -1.3150  -27.2730 C   0  0  0  0  0  0  0  0  0  0  0  0
   -5.4680   -0.9910  -26.8780 N   0  0  0  0  0  0  0  0  0  0  0  0
   -5.0490   -0.0330  -27.7330 N   0  0  0  0  0  0  0  0  0  0  0  0
   -5.9560    0.2400  -28.6040 N   0  0  0  0  0  0  0  0  0  0  0  0
   -7.0070   -0.5550  -28.3320 N   0  0  0  0  0  0  0  0  0  0  0  0
   -8.3190   -0.4230  -28.9570 C   0  0  0  0  0  0  0  0  0  0  0  0
   -8.2790    0.4330  -29.6350 H   0  0  0  0  0  0  0  0  0  0  0  0
   -9.0530   -0.2400  -28.1650 H   0  0  0  0  0  0  0  0  0  0  0  0
   -8.6030   -1.3440  -29.4850 H   0  0  0  0  0  0  0  0  0  0  0  0
   -6.9660   -3.1580  -26.2510 H   0  0  0  0  0  0  0  0  0  0  0  0
   -8.1900   -2.8180  -27.4720 H   0  0  0  0  0  0  0  0  0  0  0  0
   -9.8070   -1.8290  -25.9560 C   0  0  0  0  0  0  0  0  0  0  0  0
  -10.2770   -2.1270  -27.0500 O   0  0  0  0  0  0  0  0  0  0  0  0
  -10.6750   -1.4970  -24.7960 C   0  0  0  0  0  0  0  0  0  0  0  0
  -12.0420   -1.4360  -25.0300 C   0  0  0  0  0  0  0  0  0  0  0  0
  -12.9240   -1.1620  -24.0110 C   0  0  0  0  0  0  0  0  0  0  0  0
  -12.4020   -1.0220  -22.7350 C   0  0  0  0  0  0  0  0  0  0  0  0
  -13.2790   -0.8280  -21.7440 F   0  0  0  0  0  0  0  0  0  0  0  0
  -11.0470   -1.0880  -22.4610 C   0  0  0  0  0  0  0  0  0  0  0  0
  -10.1570   -1.3240  -23.5120 C   0  0  0  0  0  0  0  0  0  0  0  0
  -10.6700   -0.9410  -21.4560 H   0  0  0  0  0  0  0  0  0  0  0  0
  -13.9860   -1.0320  -24.1830 H   0  0  0  0  0  0  0  0  0  0  0  0
  -12.3690   -1.6240  -26.0390 H   0  0  0  0  0  0  0  0  0  0  0  0
   -7.8020   -0.1370  -24.5940 H   0  0  0  0  0  0  0  0  0  0  0  0
   -6.8590   -1.5960  -24.4150 H   0  0  0  0  0  0  0  0  0  0  0  0
   -6.3430   -3.0360  -21.9620 H   0  0  0  0  0  0  0  0  0  0  0  0
   -7.4560   -3.2780  -20.6180 H   0  0  0  0  0  0  0  0  0  0  0  0
   -9.3720   -3.1370  -21.9700 H   0  0  0  0  0  0  0  0  0  0  0  0
   -8.1700   -5.0520  -22.9440 H   0  0  0  0  0  0  0  0  0  0  0  0
   -7.3100   -3.9790  -24.0630 H   0  0  0  0  0  0  0  0  0  0  0  0
   -9.0640   -4.1890  -24.2210 H   0  0  0  0  0  0  0  0  0  0  0  0
  1  2  1  0  0  0  0
  1 55  1  0  0  0  0
  1 56  1  0  0  0  0
  1 57  1  0  0  0  0
  2  3  1  0  0  0  0
  2 23  1  0  0  0  0
  2 54  1  1  0  0  0
  3  4  1  0  0  0  0
  3 52  1  0  0  0  0
  3 53  1  0  0  0  0
  4  5  1  0  0  0  0
  4 21  1  0  0  0  0
  5  6  2  0  0  0  0
  5 14  1  0  0  0  0
  6  7  1  0  0  0  0
  6 20  1  0  0  0  0
  7  8  2  0  0  0  0
  8  9  1  0  0  0  0
  8 19  1  0  0  0  0
  9 10  2  0  0  0  0
  9 14  1  0  0  0  0
 10 11  1  0  0  0  0
 10 18  1  0  0  0  0
 11 12  2  0  0  0  0
 11 17  1  0  0  0  0
 12 13  1  0  0  0  0
 12 16  1  0  0  0  0
 13 14  2  0  0  0  0
 13 15  1  0  0  0  0
 21 22  2  0  0  0  0
 23 21  1  1  0  0  0
 23 24  1  0  0  0  0
 23 46  1  0  0  0  0
 24 25  1  0  0  0  0
 24 50  1  0  0  0  0
 24 51  1  0  0  0  0
 25 26  1  0  0  0  0
 25 38  1  0  0  0  0
 26 27  1  0  0  0  0
 26 36  1  0  0  0  0
 26 37  1  0  0  0  0
 27 28  2  0  0  0  0
 27 31  1  0  0  0  0
 28 29  1  0  0  0  0
 29 30  2  0  0  0  0
 30 31  1  0  0  0  0
 31 32  1  0  0  0  0
 32 33  1  0  0  0  0
 32 34  1  0  0  0  0
 32 35  1  0  0  0  0
 38 39  2  0  0  0  0
 38 40  1  0  0  0  0
 40 41  2  0  0  0  0
 40 46  1  0  0  0  0
 41 42  1  0  0  0  0
 41 49  1  0  0  0  0
 42 43  2  0  0  0  0
 42 48  1  0  0  0  0
 43 44  1  0  0  0  0
 43 45  1  0  0  0  0
 45 46  2  0  0  0  0
 45 47  1  0  0  0  0
M  END
>  <MODEL>
       1

$$$$
