tmp_first_model_7_37.pdb
 OpenBabel08272520323D

 56 60  0  0  1  0  0  0  0  0999 V2000
  -14.4650   -1.5870  -23.6880 C   0  0  0  0  0  0  0  0  0  0  0  0
  -13.7590   -2.7430  -23.1980 N   0  0  0  0  0  0  0  0  0  0  0  0
  -13.3170   -2.7140  -21.9190 C   0  0  0  0  0  0  0  0  0  0  0  0
  -13.6190   -1.8070  -21.1610 O   0  0  0  0  0  0  0  0  0  0  0  0
  -12.4460   -3.9060  -21.5500 C   0  0  0  0  0  0  0  0  0  0  0  0
  -11.1160   -3.8570  -22.1500 N   0  0  0  0  0  0  0  0  0  0  0  0
   -9.9890   -3.3520  -21.3990 C   0  0  0  0  0  0  0  0  0  0  0  0
   -8.7960   -2.9400  -22.2720 C   0  0  2  0  0  0  0  0  0  0  0  0
   -7.5920   -2.7220  -21.3460 C   0  0  0  0  0  0  0  0  0  0  0  0
   -6.8980   -3.5650  -20.8190 O   0  0  0  0  0  0  0  0  0  0  0  0
   -7.3670   -1.3680  -21.2300 N   0  0  0  0  0  0  0  0  0  0  0  0
   -6.5680   -0.8540  -20.1830 C   0  0  0  0  0  0  0  0  0  0  0  0
   -6.8890   -1.0860  -18.8680 C   0  0  0  0  0  0  0  0  0  0  0  0
   -6.2080   -0.5590  -17.8190 N   0  0  0  0  0  0  0  0  0  0  0  0
   -5.1800    0.2070  -18.0850 C   0  0  0  0  0  0  0  0  0  0  0  0
   -4.7320    0.5090  -19.4020 C   0  0  0  0  0  0  0  0  0  0  0  0
   -3.6070    1.3370  -19.6400 C   0  0  0  0  0  0  0  0  0  0  0  0
   -3.2130    1.6180  -20.9190 C   0  0  0  0  0  0  0  0  0  0  0  0
   -3.9230    1.0840  -22.0190 C   0  0  0  0  0  0  0  0  0  0  0  0
   -5.0120    0.2700  -21.8160 C   0  0  0  0  0  0  0  0  0  0  0  0
   -5.4450   -0.0280  -20.4950 C   0  0  0  0  0  0  0  0  0  0  0  0
   -5.5490   -0.1530  -22.6600 H   0  0  0  0  0  0  0  0  0  0  0  0
   -3.6080    1.3260  -23.0310 H   0  0  0  0  0  0  0  0  0  0  0  0
   -2.3570    2.2620  -21.0990 H   0  0  0  0  0  0  0  0  0  0  0  0
   -3.0890    1.7580  -18.7840 H   0  0  0  0  0  0  0  0  0  0  0  0
   -4.6360    0.6320  -17.2390 H   0  0  0  0  0  0  0  0  0  0  0  0
   -7.7350   -1.7210  -18.6070 H   0  0  0  0  0  0  0  0  0  0  0  0
   -8.3660   -0.5600  -21.9070 C   0  0  0  0  0  0  0  0  0  0  0  0
   -9.0150   -1.5270  -22.9030 C   0  0  2  0  0  0  0  0  0  0  0  0
  -10.4650   -1.1770  -23.2270 C   0  0  0  0  0  0  0  0  0  0  0  0
  -10.9130   -1.9410  -23.8700 H   0  0  0  0  0  0  0  0  0  0  0  0
  -10.5360   -0.2120  -23.7330 H   0  0  0  0  0  0  0  0  0  0  0  0
  -11.0740   -1.1130  -22.3190 H   0  0  0  0  0  0  0  0  0  0  0  0
   -8.4350   -1.5090  -23.8350 H   0  0  0  0  0  0  0  0  0  0  0  0
   -9.1080   -0.1770  -21.1900 H   0  0  0  0  0  0  0  0  0  0  0  0
   -7.9080    0.2990  -22.4040 H   0  0  0  0  0  0  0  0  0  0  0  0
   -8.5160   -4.0100  -23.2980 C   0  0  0  0  0  0  0  0  0  0  0  0
   -7.2600   -4.1120  -23.9020 C   0  0  0  0  0  0  0  0  0  0  0  0
   -7.0270   -5.0200  -24.9220 C   0  0  0  0  0  0  0  0  0  0  0  0
   -8.0540   -5.8650  -25.3540 C   0  0  0  0  0  0  0  0  0  0  0  0
   -9.3060   -5.7740  -24.7700 C   0  0  0  0  0  0  0  0  0  0  0  0
   -9.5330   -4.8410  -23.7520 C   0  0  0  0  0  0  0  0  0  0  0  0
  -10.9070   -4.7130  -23.1930 C   0  0  0  0  0  0  0  0  0  0  0  0
  -11.8330   -5.3410  -23.6680 O   0  0  0  0  0  0  0  0  0  0  0  0
  -10.1270   -6.4090  -25.0910 H   0  0  0  0  0  0  0  0  0  0  0  0
   -7.8680   -6.5700  -26.1620 H   0  0  0  0  0  0  0  0  0  0  0  0
   -6.0490   -5.0610  -25.3970 H   0  0  0  0  0  0  0  0  0  0  0  0
   -6.4630   -3.4580  -23.5660 H   0  0  0  0  0  0  0  0  0  0  0  0
  -10.3070   -2.4900  -20.8150 H   0  0  0  0  0  0  0  0  0  0  0  0
   -9.6550   -4.1180  -20.7120 H   0  0  0  0  0  0  0  0  0  0  0  0
  -12.4340   -4.0440  -20.4650 H   0  0  0  0  0  0  0  0  0  0  0  0
  -12.9150   -4.7600  -22.0320 H   0  0  0  0  0  0  0  0  0  0  0  0
  -13.6120   -3.5730  -23.7520 H   0  0  0  0  0  0  0  0  0  0  0  0
  -13.8090   -0.7090  -23.6530 H   0  0  0  0  0  0  0  0  0  0  0  0
  -15.3090   -1.3800  -23.0300 H   0  0  0  0  0  0  0  0  0  0  0  0
  -14.8100   -1.7500  -24.7090 H   0  0  0  0  0  0  0  0  0  0  0  0
  1  2  1  0  0  0  0
  1 54  1  0  0  0  0
  1 55  1  0  0  0  0
  1 56  1  0  0  0  0
  2  3  1  0  0  0  0
  2 53  1  0  0  0  0
  3  4  2  0  0  0  0
  3  5  1  0  0  0  0
  5  6  1  0  0  0  0
  5 51  1  0  0  0  0
  5 52  1  0  0  0  0
  6  7  1  0  0  0  0
  6 43  1  0  0  0  0
  7  8  1  0  0  0  0
  7 49  1  0  0  0  0
  7 50  1  0  0  0  0
  8  9  1  1  0  0  0
  8 29  1  0  0  0  0
  8 37  1  0  0  0  0
  9 10  2  0  0  0  0
  9 11  1  0  0  0  0
 11 12  1  0  0  0  0
 11 28  1  0  0  0  0
 12 13  2  0  0  0  0
 12 21  1  0  0  0  0
 13 14  1  0  0  0  0
 13 27  1  0  0  0  0
 14 15  2  0  0  0  0
 15 16  1  0  0  0  0
 15 26  1  0  0  0  0
 16 17  2  0  0  0  0
 16 21  1  0  0  0  0
 17 18  1  0  0  0  0
 17 25  1  0  0  0  0
 18 19  2  0  0  0  0
 18 24  1  0  0  0  0
 19 20  1  0  0  0  0
 19 23  1  0  0  0  0
 20 21  2  0  0  0  0
 20 22  1  0  0  0  0
 28 29  1  0  0  0  0
 28 35  1  0  0  0  0
 28 36  1  0  0  0  0
 29 30  1  0  0  0  0
 29 34  1  6  0  0  0
 30 31  1  0  0  0  0
 30 32  1  0  0  0  0
 30 33  1  0  0  0  0
 37 38  2  0  0  0  0
 37 42  1  0  0  0  0
 38 39  1  0  0  0  0
 38 48  1  0  0  0  0
 39 40  2  0  0  0  0
 39 47  1  0  0  0  0
 40 41  1  0  0  0  0
 40 46  1  0  0  0  0
 41 42  2  0  0  0  0
 41 45  1  0  0  0  0
 42 43  1  0  0  0  0
 43 44  2  0  0  0  0
M  END
>  <MODEL>
       1

$$$$
