tmp_first_model_19_12.pdb
 OpenBabel08282503233D

 76 82  0  0  1  0  0  0  0  0999 V2000
  -11.3940    1.5090  -24.1160 O   0  0  0  0  0  0  0  0  0  0  0  0
  -10.7500    0.4940  -23.8900 C   0  0  0  0  0  0  0  0  0  0  0  0
  -11.3860   -0.7330  -23.2910 C   0  0  0  0  0  0  0  0  0  0  0  0
  -12.7780   -0.7570  -23.2260 C   0  0  0  0  0  0  0  0  0  0  0  0
  -13.4300   -1.8460  -22.6820 C   0  0  0  0  0  0  0  0  0  0  0  0
  -12.6700   -2.9070  -22.1920 C   0  0  0  0  0  0  0  0  0  0  0  0
  -13.4890   -4.2670  -21.4750 Cl  0  0  0  0  0  0  0  0  0  0  0  0
  -11.2860   -2.8980  -22.2420 C   0  0  0  0  0  0  0  0  0  0  0  0
  -10.6150   -1.8040  -22.8040 C   0  0  0  0  0  0  0  0  0  0  0  0
   -9.1020   -1.6860  -22.8230 C   0  0  1  0  0  0  0  0  0  0  0  0
   -8.7540   -0.9020  -24.1120 C   0  0  0  0  0  0  0  0  0  0  0  0
   -9.4190    0.3840  -24.1620 N   0  0  0  0  0  0  0  0  0  0  0  0
   -8.6600    1.5700  -24.5090 C   0  0  0  0  0  0  0  0  0  0  0  0
   -8.0770    2.2270  -23.2600 C   0  0  0  0  0  0  0  0  0  0  0  0
   -7.2560    3.4340  -23.5280 N   0  3  0  0  0  0  0  0  0  0  0  0
   -6.0600    3.1670  -24.4280 C   0  0  0  0  0  0  0  0  0  0  0  0
   -5.0230    4.2830  -24.2490 C   0  0  0  0  0  0  0  0  0  0  0  0
   -5.6670    5.4760  -23.8590 O   0  0  0  0  0  0  0  0  0  0  0  0
   -6.0950    5.4020  -22.5140 C   0  0  0  0  0  0  0  0  0  0  0  0
   -6.8440    4.0870  -22.2360 C   0  0  0  0  0  0  0  0  0  0  0  0
   -7.7410    4.2630  -21.6340 H   0  0  0  0  0  0  0  0  0  0  0  0
   -6.2100    3.3780  -21.6880 H   0  0  0  0  0  0  0  0  0  0  0  0
   -5.2360    5.4820  -21.8270 H   0  0  0  0  0  0  0  0  0  0  0  0
   -6.7290    6.2780  -22.3590 H   0  0  0  0  0  0  0  0  0  0  0  0
   -4.2630    3.9920  -23.5050 H   0  0  0  0  0  0  0  0  0  0  0  0
   -4.5080    4.4970  -25.1900 H   0  0  0  0  0  0  0  0  0  0  0  0
   -6.4130    3.1450  -25.4610 H   0  0  0  0  0  0  0  0  0  0  0  0
   -5.6390    2.1880  -24.1820 H   0  0  0  0  0  0  0  0  0  0  0  0
   -7.8500    4.1270  -24.0210 H   0  0  0  0  0  0  0  0  0  0  0  0
   -7.4540    1.4990  -22.7290 H   0  0  0  0  0  0  0  0  0  0  0  0
   -8.8890    2.4960  -22.5770 H   0  0  0  0  0  0  0  0  0  0  0  0
   -9.3370    2.2440  -25.0350 H   0  0  0  0  0  0  0  0  0  0  0  0
   -7.8600    1.2620  -25.1930 H   0  0  0  0  0  0  0  0  0  0  0  0
   -9.0750   -1.5130  -24.9630 H   0  0  0  0  0  0  0  0  0  0  0  0
   -7.6750   -0.7340  -24.1700 H   0  0  0  0  0  0  0  0  0  0  0  0
   -8.5980   -0.9090  -21.5830 C   0  0  0  0  0  0  0  0  0  0  0  0
   -9.1500    0.0280  -21.0280 O   0  0  0  0  0  0  0  0  0  0  0  0
   -7.3840   -1.4320  -21.2080 N   0  0  0  0  0  0  0  0  0  0  0  0
   -6.6000   -0.8320  -20.1880 C   0  0  0  0  0  0  0  0  0  0  0  0
   -6.9160   -1.0530  -18.8720 C   0  0  0  0  0  0  0  0  0  0  0  0
   -6.2160   -0.5590  -17.8220 N   0  0  0  0  0  0  0  0  0  0  0  0
   -5.1830    0.2040  -18.0900 C   0  0  0  0  0  0  0  0  0  0  0  0
   -4.7430    0.5180  -19.4070 C   0  0  0  0  0  0  0  0  0  0  0  0
   -3.6120    1.3460  -19.6410 C   0  0  0  0  0  0  0  0  0  0  0  0
   -3.2120    1.6350  -20.9160 C   0  0  0  0  0  0  0  0  0  0  0  0
   -3.9260    1.1140  -22.0170 C   0  0  0  0  0  0  0  0  0  0  0  0
   -5.0270    0.3100  -21.8190 C   0  0  0  0  0  0  0  0  0  0  0  0
   -5.4650   -0.0150  -20.5030 C   0  0  0  0  0  0  0  0  0  0  0  0
   -5.5690   -0.0780  -22.6760 H   0  0  0  0  0  0  0  0  0  0  0  0
   -3.6000    1.3480  -23.0280 H   0  0  0  0  0  0  0  0  0  0  0  0
   -2.3520    2.2780  -21.0850 H   0  0  0  0  0  0  0  0  0  0  0  0
   -3.0880    1.7530  -18.7810 H   0  0  0  0  0  0  0  0  0  0  0  0
   -4.6270    0.6110  -17.2430 H   0  0  0  0  0  0  0  0  0  0  0  0
   -7.7760   -1.6710  -18.6210 H   0  0  0  0  0  0  0  0  0  0  0  0
   -6.9790   -2.5920  -21.9830 C   0  0  0  0  0  0  0  0  0  0  0  0
   -8.2780   -2.9980  -22.6990 C   0  0  2  0  0  0  0  0  0  0  0  0
   -8.0900   -3.8870  -23.9390 C   0  0  0  0  0  0  0  0  0  0  0  0
   -7.1660   -3.3970  -24.9460 N   0  0  0  0  0  0  0  0  0  0  0  0
   -7.4370   -3.3670  -26.2810 C   0  0  0  0  0  0  0  0  0  0  0  0
   -6.3980   -3.0050  -27.0680 N   0  0  0  0  0  0  0  0  0  0  0  0
   -6.7100   -2.7430  -28.3290 C   0  0  0  0  0  0  0  0  0  0  0  0
   -8.0030   -2.8730  -28.8320 C   0  0  0  0  0  0  0  0  0  0  0  0
   -8.9350   -3.4480  -27.9850 C   0  0  0  0  0  0  0  0  0  0  0  0
   -8.6740   -3.6770  -26.6900 N   0  0  0  0  0  0  0  0  0  0  0  0
   -9.9360   -3.7130  -28.3410 H   0  0  0  0  0  0  0  0  0  0  0  0
   -8.2670   -2.5050  -29.8160 H   0  0  0  0  0  0  0  0  0  0  0  0
   -5.8800   -2.3880  -28.9470 H   0  0  0  0  0  0  0  0  0  0  0  0
   -6.1860   -3.2950  -24.7360 H   0  0  0  0  0  0  0  0  0  0  0  0
   -7.7620   -4.8810  -23.6120 H   0  0  0  0  0  0  0  0  0  0  0  0
   -9.0470   -4.0080  -24.4450 H   0  0  0  0  0  0  0  0  0  0  0  0
   -8.8290   -3.6130  -21.9830 H   0  0  0  0  0  0  0  0  0  0  0  0
   -6.1770   -2.3300  -22.6860 H   0  0  0  0  0  0  0  0  0  0  0  0
   -6.6040   -3.3840  -21.3250 H   0  0  0  0  0  0  0  0  0  0  0  0
  -10.7520   -3.7450  -21.8280 H   0  0  0  0  0  0  0  0  0  0  0  0
  -14.5110   -1.8820  -22.6200 H   0  0  0  0  0  0  0  0  0  0  0  0
  -13.3170    0.1040  -23.6080 H   0  0  0  0  0  0  0  0  0  0  0  0
  1  2  2  0  0  0  0
  2  3  1  0  0  0  0
  2 12  1  0  0  0  0
  3  4  2  0  0  0  0
  3  9  1  0  0  0  0
  4  5  1  0  0  0  0
  4 76  1  0  0  0  0
  5  6  2  0  0  0  0
  5 75  1  0  0  0  0
  6  7  1  0  0  0  0
  6  8  1  0  0  0  0
  8  9  2  0  0  0  0
  8 74  1  0  0  0  0
 10  9  1  1  0  0  0
 10 11  1  0  0  0  0
 10 36  1  0  0  0  0
 10 56  1  0  0  0  0
 11 12  1  0  0  0  0
 11 34  1  0  0  0  0
 11 35  1  0  0  0  0
 12 13  1  0  0  0  0
 13 14  1  0  0  0  0
 13 32  1  0  0  0  0
 13 33  1  0  0  0  0
 14 15  1  0  0  0  0
 14 30  1  0  0  0  0
 14 31  1  0  0  0  0
 15 16  1  0  0  0  0
 15 20  1  0  0  0  0
 15 29  1  0  0  0  0
 16 17  1  0  0  0  0
 16 27  1  0  0  0  0
 16 28  1  0  0  0  0
 17 18  1  0  0  0  0
 17 25  1  0  0  0  0
 17 26  1  0  0  0  0
 18 19  1  0  0  0  0
 19 20  1  0  0  0  0
 19 23  1  0  0  0  0
 19 24  1  0  0  0  0
 20 21  1  0  0  0  0
 20 22  1  0  0  0  0
 36 37  2  0  0  0  0
 36 38  1  0  0  0  0
 38 39  1  0  0  0  0
 38 55  1  0  0  0  0
 39 40  2  0  0  0  0
 39 48  1  0  0  0  0
 40 41  1  0  0  0  0
 40 54  1  0  0  0  0
 41 42  2  0  0  0  0
 42 43  1  0  0  0  0
 42 53  1  0  0  0  0
 43 44  2  0  0  0  0
 43 48  1  0  0  0  0
 44 45  1  0  0  0  0
 44 52  1  0  0  0  0
 45 46  2  0  0  0  0
 45 51  1  0  0  0  0
 46 47  1  0  0  0  0
 46 50  1  0  0  0  0
 47 48  2  0  0  0  0
 47 49  1  0  0  0  0
 55 56  1  0  0  0  0
 55 72  1  0  0  0  0
 55 73  1  0  0  0  0
 56 57  1  0  0  0  0
 56 71  1  1  0  0  0
 57 58  1  0  0  0  0
 57 69  1  0  0  0  0
 57 70  1  0  0  0  0
 58 59  1  0  0  0  0
 58 68  1  0  0  0  0
 59 60  2  0  0  0  0
 59 64  1  0  0  0  0
 60 61  1  0  0  0  0
 61 62  2  0  0  0  0
 61 67  1  0  0  0  0
 62 63  1  0  0  0  0
 62 66  1  0  0  0  0
 63 64  2  0  0  0  0
 63 65  1  0  0  0  0
M  CHG  1  15   1
M  END
>  <MODEL>
       1

$$$$
