tmp_first_model_3_52.pdb
 OpenBabel08272518143D

 57 60  0  0  0  0  0  0  0  0999 V2000
   -2.3330   -1.1830  -28.0580 C   0  0  0  0  0  0  0  0  0  0  0  0
   -3.4130   -0.1260  -27.8110 C   0  0  0  0  0  0  0  0  0  0  0  0
   -4.3380   -0.5210  -26.6600 C   0  0  0  0  0  0  0  0  0  0  0  0
   -4.0850   -0.2110  -25.5050 O   0  0  0  0  0  0  0  0  0  0  0  0
   -5.4460   -1.2820  -26.9800 N   0  0  0  0  0  0  0  0  0  0  0  0
   -6.4860   -1.6040  -26.0670 C   0  0  0  0  0  0  0  0  0  0  0  0
   -7.1300   -2.8450  -26.1530 C   0  0  0  0  0  0  0  0  0  0  0  0
   -8.1420   -3.1530  -25.2540 C   0  0  0  0  0  0  0  0  0  0  0  0
   -8.5440   -2.2510  -24.2750 C   0  0  0  0  0  0  0  0  0  0  0  0
   -7.9090   -1.0060  -24.2010 C   0  0  0  0  0  0  0  0  0  0  0  0
   -8.2910   -0.0490  -23.2060 N   0  0  0  0  0  0  0  0  0  0  0  0
   -8.9350    1.1930  -23.6530 C   0  0  0  0  0  0  0  0  0  0  0  0
  -10.3830    1.0200  -24.0510 C   0  0  0  0  0  0  0  0  0  0  0  0
  -10.6970    0.5280  -25.3130 C   0  0  0  0  0  0  0  0  0  0  0  0
  -12.0130    0.2700  -25.6620 C   0  0  0  0  0  0  0  0  0  0  0  0
  -13.0540    0.5510  -24.7790 C   0  0  0  0  0  0  0  0  0  0  0  0
  -12.7510    1.0620  -23.5200 C   0  0  0  0  0  0  0  0  0  0  0  0
  -11.4240    1.2920  -23.1640 C   0  0  0  0  0  0  0  0  0  0  0  0
  -11.1850    1.6630  -22.1740 H   0  0  0  0  0  0  0  0  0  0  0  0
  -13.5470    1.2670  -22.8070 H   0  0  0  0  0  0  0  0  0  0  0  0
  -14.0900    0.3630  -25.0530 H   0  0  0  0  0  0  0  0  0  0  0  0
  -12.1640   -0.2110  -26.6190 H   0  0  0  0  0  0  0  0  0  0  0  0
   -9.9140    0.2960  -26.0320 H   0  0  0  0  0  0  0  0  0  0  0  0
   -8.8550    1.9310  -22.8500 H   0  0  0  0  0  0  0  0  0  0  0  0
   -8.3650    1.5580  -24.5140 H   0  0  0  0  0  0  0  0  0  0  0  0
   -8.3790   -0.3510  -21.8500 C   0  0  0  0  0  0  0  0  0  0  0  0
   -9.1460    0.2430  -21.1170 O   0  0  0  0  0  0  0  0  0  0  0  0
   -7.4270   -1.4090  -21.2740 C   0  0  0  0  0  0  0  0  0  0  0  0
   -6.5680   -0.8260  -20.1730 C   0  0  0  0  0  0  0  0  0  0  0  0
   -6.8760   -1.0390  -18.8550 C   0  0  0  0  0  0  0  0  0  0  0  0
   -6.1950   -0.5310  -17.7920 N   0  0  0  0  0  0  0  0  0  0  0  0
   -5.1560    0.2230  -18.0650 C   0  0  0  0  0  0  0  0  0  0  0  0
   -4.7170    0.5330  -19.3780 C   0  0  0  0  0  0  0  0  0  0  0  0
   -3.5960    1.3640  -19.6230 C   0  0  0  0  0  0  0  0  0  0  0  0
   -3.2080    1.6550  -20.9030 C   0  0  0  0  0  0  0  0  0  0  0  0
   -3.9270    1.1230  -21.9980 C   0  0  0  0  0  0  0  0  0  0  0  0
   -5.0180    0.3120  -21.7920 C   0  0  0  0  0  0  0  0  0  0  0  0
   -5.4430   -0.0040  -20.4750 C   0  0  0  0  0  0  0  0  0  0  0  0
   -5.5610   -0.0800  -22.6530 H   0  0  0  0  0  0  0  0  0  0  0  0
   -3.6190    1.3530  -23.0140 H   0  0  0  0  0  0  0  0  0  0  0  0
   -2.3510    2.3020  -21.0840 H   0  0  0  0  0  0  0  0  0  0  0  0
   -3.0610    1.7780  -18.7690 H   0  0  0  0  0  0  0  0  0  0  0  0
   -4.6020    0.6290  -17.2150 H   0  0  0  0  0  0  0  0  0  0  0  0
   -7.7300   -1.6610  -18.5840 H   0  0  0  0  0  0  0  0  0  0  0  0
   -8.0540   -2.2040  -20.8460 H   0  0  0  0  0  0  0  0  0  0  0  0
   -6.8140   -1.8640  -22.0600 H   0  0  0  0  0  0  0  0  0  0  0  0
   -6.9080   -0.6770  -25.1130 C   0  0  0  0  0  0  0  0  0  0  0  0
   -6.4410    0.2990  -25.0710 H   0  0  0  0  0  0  0  0  0  0  0  0
   -9.3450   -2.5020  -23.5800 H   0  0  0  0  0  0  0  0  0  0  0  0
   -8.6280   -4.1200  -25.3080 H   0  0  0  0  0  0  0  0  0  0  0  0
   -6.8350   -3.5780  -26.9020 H   0  0  0  0  0  0  0  0  0  0  0  0
   -5.4830   -1.7230  -27.8890 H   0  0  0  0  0  0  0  0  0  0  0  0
   -2.9350    0.8090  -27.5060 H   0  0  0  0  0  0  0  0  0  0  0  0
   -3.9670    0.0800  -28.7390 H   0  0  0  0  0  0  0  0  0  0  0  0
   -2.7840   -2.1350  -28.3580 H   0  0  0  0  0  0  0  0  0  0  0  0
   -1.6410   -0.8710  -28.8520 H   0  0  0  0  0  0  0  0  0  0  0  0
   -1.7410   -1.3580  -27.1520 H   0  0  0  0  0  0  0  0  0  0  0  0
  1  2  1  0  0  0  0
  1 55  1  0  0  0  0
  1 56  1  0  0  0  0
  1 57  1  0  0  0  0
  2  3  1  0  0  0  0
  2 53  1  0  0  0  0
  2 54  1  0  0  0  0
  3  4  2  0  0  0  0
  3  5  1  0  0  0  0
  5  6  1  0  0  0  0
  5 52  1  0  0  0  0
  6  7  2  0  0  0  0
  6 47  1  0  0  0  0
  7  8  1  0  0  0  0
  7 51  1  0  0  0  0
  8  9  2  0  0  0  0
  8 50  1  0  0  0  0
  9 10  1  0  0  0  0
  9 49  1  0  0  0  0
 10 11  1  0  0  0  0
 10 47  2  0  0  0  0
 11 12  1  0  0  0  0
 11 26  1  0  0  0  0
 12 13  1  0  0  0  0
 12 24  1  0  0  0  0
 12 25  1  0  0  0  0
 13 14  2  0  0  0  0
 13 18  1  0  0  0  0
 14 15  1  0  0  0  0
 14 23  1  0  0  0  0
 15 16  2  0  0  0  0
 15 22  1  0  0  0  0
 16 17  1  0  0  0  0
 16 21  1  0  0  0  0
 17 18  2  0  0  0  0
 17 20  1  0  0  0  0
 18 19  1  0  0  0  0
 26 27  2  0  0  0  0
 26 28  1  0  0  0  0
 28 29  1  0  0  0  0
 28 45  1  0  0  0  0
 28 46  1  0  0  0  0
 29 30  2  0  0  0  0
 29 38  1  0  0  0  0
 30 31  1  0  0  0  0
 30 44  1  0  0  0  0
 31 32  2  0  0  0  0
 32 33  1  0  0  0  0
 32 43  1  0  0  0  0
 33 34  2  0  0  0  0
 33 38  1  0  0  0  0
 34 35  1  0  0  0  0
 34 42  1  0  0  0  0
 35 36  2  0  0  0  0
 35 41  1  0  0  0  0
 36 37  1  0  0  0  0
 36 40  1  0  0  0  0
 37 38  2  0  0  0  0
 37 39  1  0  0  0  0
 47 48  1  0  0  0  0
M  END
>  <MODEL>
       1

$$$$
