tmp_first_model_5_48.pdb
 OpenBabel08272519233D

 46 48  0  0  0  0  0  0  0  0999 V2000
   -3.4900   -7.1710  -22.9810 C   0  0  0  0  0  0  0  0  0  0  0  0
   -3.8630   -6.2880  -24.1750 C   0  0  0  0  0  0  0  0  0  0  0  0
   -2.5900   -5.8140  -24.8820 C   0  0  0  0  0  0  0  0  0  0  0  0
   -1.9960   -6.6720  -25.2170 H   0  0  0  0  0  0  0  0  0  0  0  0
   -1.9570   -5.2280  -24.2050 H   0  0  0  0  0  0  0  0  0  0  0  0
   -2.8100   -5.1940  -25.7600 H   0  0  0  0  0  0  0  0  0  0  0  0
   -4.7990   -5.1080  -23.8100 C   0  0  0  0  0  0  0  0  0  0  0  0
   -6.2120   -5.5860  -23.3960 C   0  0  0  0  0  0  0  0  0  0  0  0
   -6.5920   -5.1290  -21.9910 C   0  0  0  0  0  0  0  0  0  0  0  0
   -6.4610   -3.6810  -21.8660 N   0  0  0  0  0  0  0  0  0  0  0  0
   -7.5910   -2.9470  -21.6390 C   0  0  0  0  0  0  0  0  0  0  0  0
   -8.7020   -3.4590  -21.6560 O   0  0  0  0  0  0  0  0  0  0  0  0
   -7.4530   -1.4320  -21.4200 C   0  0  0  0  0  0  0  0  0  0  0  0
   -6.4940   -0.9880  -20.3260 C   0  0  0  0  0  0  0  0  0  0  0  0
   -6.7410   -1.2910  -19.0010 C   0  0  0  0  0  0  0  0  0  0  0  0
   -5.8800   -1.0940  -17.9750 N   0  0  0  0  0  0  0  0  0  0  0  0
   -4.7350   -0.5250  -18.2650 C   0  0  0  0  0  0  0  0  0  0  0  0
   -4.3880   -0.0460  -19.5600 C   0  0  0  0  0  0  0  0  0  0  0  0
   -3.2150    0.7240  -19.7780 C   0  0  0  0  0  0  0  0  0  0  0  0
   -3.0560    1.4460  -20.9310 C   0  0  0  0  0  0  0  0  0  0  0  0
   -3.9660    1.2630  -21.9990 C   0  0  0  0  0  0  0  0  0  0  0  0
   -5.0190    0.3850  -21.8680 C   0  0  0  0  0  0  0  0  0  0  0  0
   -5.3170   -0.2290  -20.6160 C   0  0  0  0  0  0  0  0  0  0  0  0
   -5.5880    0.1240  -22.7600 H   0  0  0  0  0  0  0  0  0  0  0  0
   -3.8140    1.8240  -22.9170 H   0  0  0  0  0  0  0  0  0  0  0  0
   -2.1670    2.0570  -21.0660 H   0  0  0  0  0  0  0  0  0  0  0  0
   -2.5080    0.8220  -18.9630 H   0  0  0  0  0  0  0  0  0  0  0  0
   -4.0260   -0.4090  -17.4470 H   0  0  0  0  0  0  0  0  0  0  0  0
   -7.6810   -1.7490  -18.7040 H   0  0  0  0  0  0  0  0  0  0  0  0
   -7.1780   -0.9680  -22.3760 H   0  0  0  0  0  0  0  0  0  0  0  0
   -8.4810   -1.1310  -21.2030 H   0  0  0  0  0  0  0  0  0  0  0  0
   -5.2040   -3.0870  -22.3210 C   0  0  0  0  0  0  0  0  0  0  0  0
   -4.2210   -4.1740  -22.7380 C   0  0  0  0  0  0  0  0  0  0  0  0
   -3.9590   -4.7530  -21.8470 H   0  0  0  0  0  0  0  0  0  0  0  0
   -3.3100   -3.7000  -23.1120 H   0  0  0  0  0  0  0  0  0  0  0  0
   -5.3810   -2.4190  -23.1740 H   0  0  0  0  0  0  0  0  0  0  0  0
   -4.7720   -2.4780  -21.5230 H   0  0  0  0  0  0  0  0  0  0  0  0
   -7.6260   -5.3850  -21.7650 H   0  0  0  0  0  0  0  0  0  0  0  0
   -5.9580   -5.6120  -21.2390 H   0  0  0  0  0  0  0  0  0  0  0  0
   -6.9510   -5.1730  -24.0920 H   0  0  0  0  0  0  0  0  0  0  0  0
   -6.2830   -6.6780  -23.4710 H   0  0  0  0  0  0  0  0  0  0  0  0
   -4.9130   -4.5160  -24.7310 H   0  0  0  0  0  0  0  0  0  0  0  0
   -4.4230   -6.9130  -24.8870 H   0  0  0  0  0  0  0  0  0  0  0  0
   -2.8300   -6.6300  -22.2930 H   0  0  0  0  0  0  0  0  0  0  0  0
   -2.9490   -8.0630  -23.3170 H   0  0  0  0  0  0  0  0  0  0  0  0
   -4.3660   -7.5100  -22.4160 H   0  0  0  0  0  0  0  0  0  0  0  0
  1  2  1  0  0  0  0
  1 44  1  0  0  0  0
  1 45  1  0  0  0  0
  1 46  1  0  0  0  0
  2  3  1  0  0  0  0
  2  7  1  0  0  0  0
  2 43  1  0  0  0  0
  3  4  1  0  0  0  0
  3  5  1  0  0  0  0
  3  6  1  0  0  0  0
  7  8  1  0  0  0  0
  7 33  1  0  0  0  0
  7 42  1  0  0  0  0
  8  9  1  0  0  0  0
  8 40  1  0  0  0  0
  8 41  1  0  0  0  0
  9 10  1  0  0  0  0
  9 38  1  0  0  0  0
  9 39  1  0  0  0  0
 10 11  1  0  0  0  0
 10 32  1  0  0  0  0
 11 12  2  0  0  0  0
 11 13  1  0  0  0  0
 13 14  1  0  0  0  0
 13 30  1  0  0  0  0
 13 31  1  0  0  0  0
 14 15  2  0  0  0  0
 14 23  1  0  0  0  0
 15 16  1  0  0  0  0
 15 29  1  0  0  0  0
 16 17  2  0  0  0  0
 17 18  1  0  0  0  0
 17 28  1  0  0  0  0
 18 19  2  0  0  0  0
 18 23  1  0  0  0  0
 19 20  1  0  0  0  0
 19 27  1  0  0  0  0
 20 21  2  0  0  0  0
 20 26  1  0  0  0  0
 21 22  1  0  0  0  0
 21 25  1  0  0  0  0
 22 23  2  0  0  0  0
 22 24  1  0  0  0  0
 32 33  1  0  0  0  0
 32 36  1  0  0  0  0
 32 37  1  0  0  0  0
 33 34  1  0  0  0  0
 33 35  1  0  0  0  0
M  END
>  <MODEL>
       1

$$$$
