tmp_first_model_6_12.pdb
 OpenBabel08272519583D

 76 82  0  0  1  0  0  0  0  0999 V2000
  -10.7350    2.0280  -24.5670 O   0  0  0  0  0  0  0  0  0  0  0  0
  -10.2250    0.9550  -24.2640 C   0  0  0  0  0  0  0  0  0  0  0  0
  -11.0480   -0.1830  -23.7470 C   0  0  0  0  0  0  0  0  0  0  0  0
  -12.4280   -0.0460  -23.8510 C   0  0  0  0  0  0  0  0  0  0  0  0
  -13.2610   -1.0320  -23.3700 C   0  0  0  0  0  0  0  0  0  0  0  0
  -12.6870   -2.1660  -22.7980 C   0  0  0  0  0  0  0  0  0  0  0  0
  -13.7490   -3.3980  -22.1790 Cl  0  0  0  0  0  0  0  0  0  0  0  0
  -11.3130   -2.3300  -22.7000 C   0  0  0  0  0  0  0  0  0  0  0  0
  -10.4620   -1.3160  -23.1620 C   0  0  0  0  0  0  0  0  0  0  0  0
   -8.9590   -1.3450  -22.9760 C   0  0  1  0  0  0  0  0  0  0  0  0
   -8.3380   -0.5990  -24.1900 C   0  0  0  0  0  0  0  0  0  0  0  0
   -8.8880    0.7250  -24.3520 N   0  0  0  0  0  0  0  0  0  0  0  0
   -8.0280    1.8760  -24.5150 C   0  0  0  0  0  0  0  0  0  0  0  0
   -7.8190    2.5860  -23.1800 C   0  0  0  0  0  0  0  0  0  0  0  0
   -6.8830    3.7440  -23.3500 N   0  3  0  0  0  0  0  0  0  0  0  0
   -7.5190    4.9760  -23.9680 C   0  0  0  0  0  0  0  0  0  0  0  0
   -8.3820    5.7220  -22.9600 C   0  0  0  0  0  0  0  0  0  0  0  0
   -7.6180    6.1150  -21.8380 O   0  0  0  0  0  0  0  0  0  0  0  0
   -7.0550    4.9960  -21.1800 C   0  0  0  0  0  0  0  0  0  0  0  0
   -6.1640    4.1670  -22.0980 C   0  0  0  0  0  0  0  0  0  0  0  0
   -5.8100    3.2720  -21.5790 H   0  0  0  0  0  0  0  0  0  0  0  0
   -5.3000    4.7550  -22.4110 H   0  0  0  0  0  0  0  0  0  0  0  0
   -6.4530    5.3940  -20.3610 H   0  0  0  0  0  0  0  0  0  0  0  0
   -7.8510    4.3620  -20.7600 H   0  0  0  0  0  0  0  0  0  0  0  0
   -9.2400    5.1060  -22.6460 H   0  0  0  0  0  0  0  0  0  0  0  0
   -8.7680    6.6380  -23.4120 H   0  0  0  0  0  0  0  0  0  0  0  0
   -6.7070    5.6310  -24.2880 H   0  0  0  0  0  0  0  0  0  0  0  0
   -8.1030    4.6880  -24.8450 H   0  0  0  0  0  0  0  0  0  0  0  0
   -6.1560    3.4090  -24.0050 H   0  0  0  0  0  0  0  0  0  0  0  0
   -8.7790    2.9220  -22.7830 H   0  0  0  0  0  0  0  0  0  0  0  0
   -7.3900    1.8910  -22.4530 H   0  0  0  0  0  0  0  0  0  0  0  0
   -8.5020    2.5400  -25.2410 H   0  0  0  0  0  0  0  0  0  0  0  0
   -7.0630    1.5550  -24.9250 H   0  0  0  0  0  0  0  0  0  0  0  0
   -7.2480   -0.5210  -24.0840 H   0  0  0  0  0  0  0  0  0  0  0  0
   -8.5540   -1.1890  -25.0920 H   0  0  0  0  0  0  0  0  0  0  0  0
   -8.5460   -0.6670  -21.6470 C   0  0  0  0  0  0  0  0  0  0  0  0
   -9.0760    0.2700  -21.0860 O   0  0  0  0  0  0  0  0  0  0  0  0
   -7.4280   -1.3210  -21.1770 N   0  0  0  0  0  0  0  0  0  0  0  0
   -6.6260   -0.7650  -20.1570 C   0  0  0  0  0  0  0  0  0  0  0  0
   -6.9270   -1.0350  -18.8490 C   0  0  0  0  0  0  0  0  0  0  0  0
   -6.2200   -0.5700  -17.7920 N   0  0  0  0  0  0  0  0  0  0  0  0
   -5.1890    0.1970  -18.0580 C   0  0  0  0  0  0  0  0  0  0  0  0
   -4.7670    0.5550  -19.3720 C   0  0  0  0  0  0  0  0  0  0  0  0
   -3.6410    1.3880  -19.6030 C   0  0  0  0  0  0  0  0  0  0  0  0
   -3.2650    1.7180  -20.8760 C   0  0  0  0  0  0  0  0  0  0  0  0
   -4.0040    1.2460  -21.9830 C   0  0  0  0  0  0  0  0  0  0  0  0
   -5.0940    0.4290  -21.7860 C   0  0  0  0  0  0  0  0  0  0  0  0
   -5.5050    0.0620  -20.4720 C   0  0  0  0  0  0  0  0  0  0  0  0
   -5.6280    0.0540  -22.6530 H   0  0  0  0  0  0  0  0  0  0  0  0
   -3.7030    1.5200  -22.9920 H   0  0  0  0  0  0  0  0  0  0  0  0
   -2.3970    2.3480  -21.0460 H   0  0  0  0  0  0  0  0  0  0  0  0
   -3.0920    1.7520  -18.7410 H   0  0  0  0  0  0  0  0  0  0  0  0
   -4.6230    0.5790  -17.2100 H   0  0  0  0  0  0  0  0  0  0  0  0
   -7.7850   -1.6650  -18.6270 H   0  0  0  0  0  0  0  0  0  0  0  0
   -7.0470   -2.4860  -21.9450 C   0  0  0  0  0  0  0  0  0  0  0  0
   -8.2950   -2.7290  -22.8050 C   0  0  2  0  0  0  0  0  0  0  0  0
   -7.9560   -3.4970  -24.0760 C   0  0  0  0  0  0  0  0  0  0  0  0
   -7.4870   -4.8230  -23.7300 N   0  0  0  0  0  0  0  0  0  0  0  0
   -8.3600   -5.8620  -23.6970 C   0  0  0  0  0  0  0  0  0  0  0  0
   -7.8320   -7.0840  -23.5040 N   0  0  0  0  0  0  0  0  0  0  0  0
   -8.6910   -8.0910  -23.5360 C   0  0  0  0  0  0  0  0  0  0  0  0
  -10.0490   -7.9250  -23.7530 C   0  0  0  0  0  0  0  0  0  0  0  0
  -10.4950   -6.6180  -23.8930 C   0  0  0  0  0  0  0  0  0  0  0  0
   -9.6690   -5.5720  -23.8410 N   0  0  0  0  0  0  0  0  0  0  0  0
  -11.5460   -6.3670  -24.0510 H   0  0  0  0  0  0  0  0  0  0  0  0
  -10.6960   -8.7890  -23.7440 H   0  0  0  0  0  0  0  0  0  0  0  0
   -8.2780   -9.0840  -23.3780 H   0  0  0  0  0  0  0  0  0  0  0  0
   -6.5040   -5.0590  -23.7650 H   0  0  0  0  0  0  0  0  0  0  0  0
   -7.1740   -2.9640  -24.6280 H   0  0  0  0  0  0  0  0  0  0  0  0
   -8.8460   -3.5820  -24.7110 H   0  0  0  0  0  0  0  0  0  0  0  0
   -8.9680   -3.3580  -22.2160 H   0  0  0  0  0  0  0  0  0  0  0  0
   -6.1400   -2.3030  -22.5450 H   0  0  0  0  0  0  0  0  0  0  0  0
   -6.8260   -3.3350  -21.2890 H   0  0  0  0  0  0  0  0  0  0  0  0
  -10.9260   -3.2540  -22.2790 H   0  0  0  0  0  0  0  0  0  0  0  0
  -14.3400   -0.9330  -23.4310 H   0  0  0  0  0  0  0  0  0  0  0  0
  -12.8120    0.8570  -24.3120 H   0  0  0  0  0  0  0  0  0  0  0  0
  1  2  2  0  0  0  0
  2  3  1  0  0  0  0
  2 12  1  0  0  0  0
  3  4  2  0  0  0  0
  3  9  1  0  0  0  0
  4  5  1  0  0  0  0
  4 76  1  0  0  0  0
  5  6  2  0  0  0  0
  5 75  1  0  0  0  0
  6  7  1  0  0  0  0
  6  8  1  0  0  0  0
  8  9  2  0  0  0  0
  8 74  1  0  0  0  0
 10  9  1  6  0  0  0
 10 11  1  0  0  0  0
 10 36  1  0  0  0  0
 10 56  1  0  0  0  0
 11 12  1  0  0  0  0
 11 34  1  0  0  0  0
 11 35  1  0  0  0  0
 12 13  1  0  0  0  0
 13 14  1  0  0  0  0
 13 32  1  0  0  0  0
 13 33  1  0  0  0  0
 14 15  1  0  0  0  0
 14 30  1  0  0  0  0
 14 31  1  0  0  0  0
 15 16  1  0  0  0  0
 15 20  1  0  0  0  0
 15 29  1  0  0  0  0
 16 17  1  0  0  0  0
 16 27  1  0  0  0  0
 16 28  1  0  0  0  0
 17 18  1  0  0  0  0
 17 25  1  0  0  0  0
 17 26  1  0  0  0  0
 18 19  1  0  0  0  0
 19 20  1  0  0  0  0
 19 23  1  0  0  0  0
 19 24  1  0  0  0  0
 20 21  1  0  0  0  0
 20 22  1  0  0  0  0
 36 37  2  0  0  0  0
 36 38  1  0  0  0  0
 38 39  1  0  0  0  0
 38 55  1  0  0  0  0
 39 40  2  0  0  0  0
 39 48  1  0  0  0  0
 40 41  1  0  0  0  0
 40 54  1  0  0  0  0
 41 42  2  0  0  0  0
 42 43  1  0  0  0  0
 42 53  1  0  0  0  0
 43 44  2  0  0  0  0
 43 48  1  0  0  0  0
 44 45  1  0  0  0  0
 44 52  1  0  0  0  0
 45 46  2  0  0  0  0
 45 51  1  0  0  0  0
 46 47  1  0  0  0  0
 46 50  1  0  0  0  0
 47 48  2  0  0  0  0
 47 49  1  0  0  0  0
 55 56  1  0  0  0  0
 55 72  1  0  0  0  0
 55 73  1  0  0  0  0
 56 57  1  0  0  0  0
 56 71  1  1  0  0  0
 57 58  1  0  0  0  0
 57 69  1  0  0  0  0
 57 70  1  0  0  0  0
 58 59  1  0  0  0  0
 58 68  1  0  0  0  0
 59 60  2  0  0  0  0
 59 64  1  0  0  0  0
 60 61  1  0  0  0  0
 61 62  2  0  0  0  0
 61 67  1  0  0  0  0
 62 63  1  0  0  0  0
 62 66  1  0  0  0  0
 63 64  2  0  0  0  0
 63 65  1  0  0  0  0
M  CHG  1  15   1
M  END
>  <MODEL>
       1

$$$$
