tmp_first_model_19_43.pdb
 OpenBabel08282503233D

 67 72  0  0  1  0  0  0  0  0999 V2000
   -7.5280    2.9170  -22.0030 C   0  0  0  0  0  0  0  0  0  0  0  0
   -8.5850    2.4530  -22.8840 N   0  0  0  0  0  0  0  0  0  0  0  0
   -8.2770    1.7590  -24.0150 C   0  0  0  0  0  0  0  0  0  0  0  0
   -7.1290    1.5590  -24.3900 O   0  0  0  0  0  0  0  0  0  0  0  0
   -9.5150    1.2200  -24.7490 C   0  0  0  0  0  0  0  0  0  0  0  0
   -9.9940    0.0190  -24.0840 N   0  0  0  0  0  0  0  0  0  0  0  0
   -9.0970   -1.1180  -24.0040 C   0  0  0  0  0  0  0  0  0  0  0  0
   -9.2370   -1.8780  -22.6540 C   0  0  2  0  0  0  0  0  0  0  0  0
   -8.6740   -0.9910  -21.5130 C   0  0  0  0  0  0  0  0  0  0  0  0
   -9.2220   -0.0460  -20.9810 O   0  0  0  0  0  0  0  0  0  0  0  0
   -7.4040   -1.4260  -21.2070 N   0  0  0  0  0  0  0  0  0  0  0  0
   -6.6300   -0.8260  -20.1850 C   0  0  0  0  0  0  0  0  0  0  0  0
   -6.9480   -1.0490  -18.8680 C   0  0  0  0  0  0  0  0  0  0  0  0
   -6.2340   -0.5700  -17.8240 N   0  0  0  0  0  0  0  0  0  0  0  0
   -5.1880    0.1740  -18.0910 C   0  0  0  0  0  0  0  0  0  0  0  0
   -4.7420    0.4820  -19.4080 C   0  0  0  0  0  0  0  0  0  0  0  0
   -3.6160    1.3140  -19.6510 C   0  0  0  0  0  0  0  0  0  0  0  0
   -3.2450    1.6280  -20.9300 C   0  0  0  0  0  0  0  0  0  0  0  0
   -3.9810    1.1260  -22.0260 C   0  0  0  0  0  0  0  0  0  0  0  0
   -5.0770    0.3170  -21.8170 C   0  0  0  0  0  0  0  0  0  0  0  0
   -5.4820   -0.0330  -20.4990 C   0  0  0  0  0  0  0  0  0  0  0  0
   -5.6770   -0.0030  -22.6640 H   0  0  0  0  0  0  0  0  0  0  0  0
   -3.6990    1.3990  -23.0380 H   0  0  0  0  0  0  0  0  0  0  0  0
   -2.4000    2.2890  -21.1070 H   0  0  0  0  0  0  0  0  0  0  0  0
   -3.0900    1.7250  -18.7930 H   0  0  0  0  0  0  0  0  0  0  0  0
   -4.6370    0.5790  -17.2410 H   0  0  0  0  0  0  0  0  0  0  0  0
   -7.8120   -1.6570  -18.6100 H   0  0  0  0  0  0  0  0  0  0  0  0
   -6.9590   -2.5610  -21.9880 C   0  0  0  0  0  0  0  0  0  0  0  0
   -8.2740   -3.0930  -22.5880 C   0  0  2  0  0  0  0  0  0  0  0  0
   -8.0990   -3.8390  -23.9070 C   0  0  0  0  0  0  0  0  0  0  0  0
   -7.4010   -5.0820  -23.7100 N   0  0  0  0  0  0  0  0  0  0  0  0
   -6.9030   -5.8020  -24.7620 C   0  0  0  0  0  0  0  0  0  0  0  0
   -7.3540   -5.4380  -26.4060 S   0  0  0  0  0  0  0  0  0  0  0  0
   -6.2240   -6.6510  -26.9190 C   0  0  0  0  0  0  0  0  0  0  0  0
   -5.5870   -7.2630  -25.9790 N   0  0  0  0  0  0  0  0  0  0  0  0
   -6.0080   -6.8350  -24.7330 C   0  0  0  0  0  0  0  0  0  0  0  0
   -5.4770   -7.5030  -23.4970 C   0  0  0  0  0  0  0  0  0  0  0  0
   -4.9370   -8.4100  -23.7820 H   0  0  0  0  0  0  0  0  0  0  0  0
   -6.2820   -7.7920  -22.8070 H   0  0  0  0  0  0  0  0  0  0  0  0
   -4.7830   -6.8480  -22.9540 H   0  0  0  0  0  0  0  0  0  0  0  0
   -6.0990   -6.8650  -27.9720 H   0  0  0  0  0  0  0  0  0  0  0  0
   -6.9920   -5.2630  -22.8070 H   0  0  0  0  0  0  0  0  0  0  0  0
   -7.5380   -3.2120  -24.6170 H   0  0  0  0  0  0  0  0  0  0  0  0
   -9.0810   -4.0270  -24.3580 H   0  0  0  0  0  0  0  0  0  0  0  0
   -8.6800   -3.7910  -21.8510 H   0  0  0  0  0  0  0  0  0  0  0  0
   -6.4490   -3.2920  -21.3500 H   0  0  0  0  0  0  0  0  0  0  0  0
   -6.2400   -2.2570  -22.7660 H   0  0  0  0  0  0  0  0  0  0  0  0
  -10.7140   -2.1900  -22.4570 C   0  0  0  0  0  0  0  0  0  0  0  0
  -11.1620   -3.2730  -21.6850 C   0  0  0  0  0  0  0  0  0  0  0  0
  -12.5120   -3.4270  -21.4140 C   0  0  0  0  0  0  0  0  0  0  0  0
  -13.0460   -4.6250  -20.2690 Cl  0  0  0  0  0  0  0  0  0  0  0  0
  -13.4700   -2.5870  -21.9730 C   0  0  0  0  0  0  0  0  0  0  0  0
  -13.0420   -1.5290  -22.7440 C   0  0  0  0  0  0  0  0  0  0  0  0
  -11.6840   -1.3110  -22.9670 C   0  0  0  0  0  0  0  0  0  0  0  0
  -11.3130   -0.0820  -23.7460 C   0  0  0  0  0  0  0  0  0  0  0  0
  -12.1380    0.7740  -24.0400 O   0  0  0  0  0  0  0  0  0  0  0  0
  -13.7490   -0.8360  -23.1810 H   0  0  0  0  0  0  0  0  0  0  0  0
  -14.5210   -2.7800  -21.7910 H   0  0  0  0  0  0  0  0  0  0  0  0
  -10.4710   -3.9780  -21.2350 H   0  0  0  0  0  0  0  0  0  0  0  0
   -8.0790   -0.7330  -24.1020 H   0  0  0  0  0  0  0  0  0  0  0  0
   -9.2950   -1.7990  -24.8450 H   0  0  0  0  0  0  0  0  0  0  0  0
  -10.3450    1.9340  -24.7340 H   0  0  0  0  0  0  0  0  0  0  0  0
   -9.2660    1.0280  -25.7980 H   0  0  0  0  0  0  0  0  0  0  0  0
   -9.4790    2.2540  -22.4550 H   0  0  0  0  0  0  0  0  0  0  0  0
   -7.9730    3.5320  -21.2190 H   0  0  0  0  0  0  0  0  0  0  0  0
   -6.8260    3.5260  -22.5790 H   0  0  0  0  0  0  0  0  0  0  0  0
   -6.9710    2.0830  -21.5520 H   0  0  0  0  0  0  0  0  0  0  0  0
  1  2  1  0  0  0  0
  1 65  1  0  0  0  0
  1 66  1  0  0  0  0
  1 67  1  0  0  0  0
  2  3  1  0  0  0  0
  2 64  1  0  0  0  0
  3  4  2  0  0  0  0
  3  5  1  0  0  0  0
  5  6  1  0  0  0  0
  5 62  1  0  0  0  0
  5 63  1  0  0  0  0
  6  7  1  0  0  0  0
  6 55  1  0  0  0  0
  7  8  1  0  0  0  0
  7 60  1  0  0  0  0
  7 61  1  0  0  0  0
  8  9  1  1  0  0  0
  8 29  1  0  0  0  0
  8 48  1  0  0  0  0
  9 10  2  0  0  0  0
  9 11  1  0  0  0  0
 11 12  1  0  0  0  0
 11 28  1  0  0  0  0
 12 13  2  0  0  0  0
 12 21  1  0  0  0  0
 13 14  1  0  0  0  0
 13 27  1  0  0  0  0
 14 15  2  0  0  0  0
 15 16  1  0  0  0  0
 15 26  1  0  0  0  0
 16 17  2  0  0  0  0
 16 21  1  0  0  0  0
 17 18  1  0  0  0  0
 17 25  1  0  0  0  0
 18 19  2  0  0  0  0
 18 24  1  0  0  0  0
 19 20  1  0  0  0  0
 19 23  1  0  0  0  0
 20 21  2  0  0  0  0
 20 22  1  0  0  0  0
 28 29  1  0  0  0  0
 28 46  1  0  0  0  0
 28 47  1  0  0  0  0
 29 30  1  0  0  0  0
 29 45  1  1  0  0  0
 30 31  1  0  0  0  0
 30 43  1  0  0  0  0
 30 44  1  0  0  0  0
 31 32  1  0  0  0  0
 31 42  1  0  0  0  0
 32 33  1  0  0  0  0
 32 36  2  0  0  0  0
 33 34  1  0  0  0  0
 34 35  2  0  0  0  0
 34 41  1  0  0  0  0
 35 36  1  0  0  0  0
 36 37  1  0  0  0  0
 37 38  1  0  0  0  0
 37 39  1  0  0  0  0
 37 40  1  0  0  0  0
 48 49  2  0  0  0  0
 48 54  1  0  0  0  0
 49 50  1  0  0  0  0
 49 59  1  0  0  0  0
 50 51  1  0  0  0  0
 50 52  2  0  0  0  0
 52 53  1  0  0  0  0
 52 58  1  0  0  0  0
 53 54  2  0  0  0  0
 53 57  1  0  0  0  0
 54 55  1  0  0  0  0
 55 56  2  0  0  0  0
M  END
>  <MODEL>
       1

$$$$
