tmp_first_model_20_24.pdb
 OpenBabel08282503553D

 65 70  0  0  1  0  0  0  0  0999 V2000
   -5.9690   -7.4040  -25.5310 O   0  0  0  0  0  0  0  0  0  0  0  0
   -5.8840   -7.1240  -24.3410 C   0  0  0  0  0  0  0  0  0  0  0  0
   -7.0500   -6.4700  -23.5780 C   0  0  0  0  0  0  0  0  0  0  0  0
   -7.0750   -5.0010  -23.7820 N   0  3  1  0  0  0  0  0  0  0  0  0
   -7.2470   -4.6970  -25.2570 C   0  0  0  0  0  0  0  0  0  0  0  0
   -7.2030   -3.2200  -25.5250 C   0  0  0  0  0  0  0  0  0  0  0  0
   -6.8420   -2.7310  -26.7800 C   0  0  0  0  0  0  0  0  0  0  0  0
   -6.7830   -1.3680  -27.0350 C   0  0  0  0  0  0  0  0  0  0  0  0
   -7.0920   -0.4850  -26.0060 C   0  0  0  0  0  0  0  0  0  0  0  0
   -6.9790    1.2310  -26.2930 Cl  0  0  0  0  0  0  0  0  0  0  0  0
   -7.4840   -0.9490  -24.7590 C   0  0  0  0  0  0  0  0  0  0  0  0
   -7.5790   -2.3280  -24.5220 C   0  0  0  0  0  0  0  0  0  0  0  0
   -8.0220   -2.8240  -23.1560 C   0  0  2  0  0  0  0  0  0  0  0  0
   -9.2190   -2.0570  -22.5750 C   0  0  0  0  0  0  0  0  0  0  0  0
   -8.6660   -1.1430  -21.4700 C   0  0  0  0  0  0  0  0  0  0  0  0
   -7.2860   -1.5610  -21.2900 N   0  0  0  0  0  0  0  0  0  0  0  0
   -6.5090   -0.9690  -20.2610 C   0  0  0  0  0  0  0  0  0  0  0  0
   -6.9110   -1.1050  -18.9530 C   0  0  0  0  0  0  0  0  0  0  0  0
   -6.2710   -0.5720  -17.8850 N   0  0  0  0  0  0  0  0  0  0  0  0
   -5.2130    0.1630  -18.1320 C   0  0  0  0  0  0  0  0  0  0  0  0
   -4.7310    0.4510  -19.4390 C   0  0  0  0  0  0  0  0  0  0  0  0
   -3.6190    1.3070  -19.6410 C   0  0  0  0  0  0  0  0  0  0  0  0
   -3.2300    1.6440  -20.9080 C   0  0  0  0  0  0  0  0  0  0  0  0
   -3.9320    1.1390  -22.0260 C   0  0  0  0  0  0  0  0  0  0  0  0
   -4.9940    0.2840  -21.8610 C   0  0  0  0  0  0  0  0  0  0  0  0
   -5.4090   -0.0980  -20.5520 C   0  0  0  0  0  0  0  0  0  0  0  0
   -5.5370   -0.0840  -22.7310 H   0  0  0  0  0  0  0  0  0  0  0  0
   -3.6320    1.4430  -23.0240 H   0  0  0  0  0  0  0  0  0  0  0  0
   -2.3940    2.3200  -21.0640 H   0  0  0  0  0  0  0  0  0  0  0  0
   -3.1050    1.7020  -18.7690 H   0  0  0  0  0  0  0  0  0  0  0  0
   -4.6910    0.5880  -17.2750 H   0  0  0  0  0  0  0  0  0  0  0  0
   -7.7990   -1.6910  -18.7180 H   0  0  0  0  0  0  0  0  0  0  0  0
   -6.8920   -2.5470  -22.1590 C   0  0  0  0  0  0  0  0  0  0  0  0
   -5.8430   -3.1710  -22.1780 O   0  0  0  0  0  0  0  0  0  0  0  0
   -9.2130   -1.2950  -20.5450 H   0  0  0  0  0  0  0  0  0  0  0  0
   -8.7240   -0.0730  -21.7170 H   0  0  0  0  0  0  0  0  0  0  0  0
   -9.9350   -2.7600  -22.1360 H   0  0  0  0  0  0  0  0  0  0  0  0
   -9.7660   -1.4870  -23.3310 H   0  0  0  0  0  0  0  0  0  0  0  0
   -8.2220   -4.3440  -23.0930 C   0  0  0  0  0  0  0  0  0  0  0  0
   -8.2550   -4.6510  -22.0450 H   0  0  0  0  0  0  0  0  0  0  0  0
   -9.1620   -4.6490  -23.5660 H   0  0  0  0  0  0  0  0  0  0  0  0
   -7.7090   -0.2220  -23.9810 H   0  0  0  0  0  0  0  0  0  0  0  0
   -6.4960   -0.9920  -28.0130 H   0  0  0  0  0  0  0  0  0  0  0  0
   -6.6100   -3.4270  -27.5830 H   0  0  0  0  0  0  0  0  0  0  0  0
   -6.4980   -5.2430  -25.8260 H   0  0  0  0  0  0  0  0  0  0  0  0
   -8.2280   -5.0990  -25.5540 H   0  0  0  0  0  0  0  0  0  0  0  0
   -6.2050   -4.5520  -23.4010 H   0  0  0  0  0  0  0  0  0  0  0  0
   -7.0130   -6.7030  -22.5090 H   0  0  0  0  0  0  0  0  0  0  0  0
   -7.9800   -6.9060  -23.9680 H   0  0  0  0  0  0  0  0  0  0  0  0
   -4.7500   -7.3460  -23.6270 N   0  0  0  0  0  0  0  0  0  0  0  0
   -3.6570   -8.1180  -24.2030 C   0  0  0  0  0  0  0  0  0  0  0  0
   -2.4100   -7.8850  -23.3740 C   0  0  1  0  0  0  0  0  0  0  0  0
   -1.0890   -8.2280  -24.0930 C   0  0  0  0  0  0  0  0  0  0  0  0
   -0.7150   -6.7400  -24.1160 C   0  0  1  0  0  0  0  0  0  0  0  0
   -0.6430   -6.2290  -25.4020 F   0  0  0  0  0  0  0  0  0  0  0  0
   -2.0250   -6.3880  -23.4060 C   0  0  0  0  0  0  0  0  0  0  0  0
   -1.9710   -5.8500  -22.4560 H   0  0  0  0  0  0  0  0  0  0  0  0
   -2.6680   -5.8240  -24.0910 H   0  0  0  0  0  0  0  0  0  0  0  0
    0.2090   -6.4540  -23.6120 H   0  0  0  0  0  0  0  0  0  0  0  0
   -1.2230   -8.6350  -25.0980 H   0  0  0  0  0  0  0  0  0  0  0  0
   -0.4120   -8.8760  -23.5420 H   0  0  0  0  0  0  0  0  0  0  0  0
   -2.5170   -8.3150  -22.3670 H   0  0  0  0  0  0  0  0  0  0  0  0
   -3.5090   -7.7350  -25.2220 H   0  0  0  0  0  0  0  0  0  0  0  0
   -3.9220   -9.1820  -24.2860 H   0  0  0  0  0  0  0  0  0  0  0  0
   -4.7370   -7.1960  -22.6260 H   0  0  0  0  0  0  0  0  0  0  0  0
  1  2  2  0  0  0  0
  2  3  1  0  0  0  0
  2 50  1  0  0  0  0
  3  4  1  0  0  0  0
  3 48  1  0  0  0  0
  3 49  1  0  0  0  0
  4  5  1  0  0  0  0
  4 39  1  0  0  0  0
  4 47  1  1  0  0  0
  5  6  1  0  0  0  0
  5 45  1  0  0  0  0
  5 46  1  0  0  0  0
  6  7  2  0  0  0  0
  6 12  1  0  0  0  0
  7  8  1  0  0  0  0
  7 44  1  0  0  0  0
  8  9  2  0  0  0  0
  8 43  1  0  0  0  0
  9 10  1  0  0  0  0
  9 11  1  0  0  0  0
 11 12  2  0  0  0  0
 11 42  1  0  0  0  0
 13 12  1  6  0  0  0
 13 14  1  0  0  0  0
 13 33  1  0  0  0  0
 13 39  1  0  0  0  0
 14 15  1  0  0  0  0
 14 37  1  0  0  0  0
 14 38  1  0  0  0  0
 15 16  1  0  0  0  0
 15 35  1  0  0  0  0
 15 36  1  0  0  0  0
 16 17  1  0  0  0  0
 16 33  1  0  0  0  0
 17 18  2  0  0  0  0
 17 26  1  0  0  0  0
 18 19  1  0  0  0  0
 18 32  1  0  0  0  0
 19 20  2  0  0  0  0
 20 21  1  0  0  0  0
 20 31  1  0  0  0  0
 21 22  2  0  0  0  0
 21 26  1  0  0  0  0
 22 23  1  0  0  0  0
 22 30  1  0  0  0  0
 23 24  2  0  0  0  0
 23 29  1  0  0  0  0
 24 25  1  0  0  0  0
 24 28  1  0  0  0  0
 25 26  2  0  0  0  0
 25 27  1  0  0  0  0
 33 34  2  0  0  0  0
 39 40  1  0  0  0  0
 39 41  1  0  0  0  0
 50 51  1  0  0  0  0
 50 65  1  0  0  0  0
 51 52  1  0  0  0  0
 51 63  1  0  0  0  0
 51 64  1  0  0  0  0
 52 53  1  0  0  0  0
 52 56  1  0  0  0  0
 52 62  1  1  0  0  0
 53 54  1  0  0  0  0
 53 60  1  0  0  0  0
 53 61  1  0  0  0  0
 54 55  1  0  0  0  0
 54 56  1  0  0  0  0
 54 59  1  1  0  0  0
 56 57  1  0  0  0  0
 56 58  1  0  0  0  0
M  CHG  1   4   1
M  END
>  <MODEL>
       1

$$$$
