tmp_first_model_20_86.pdb
 OpenBabel08282503553D

 43 45  0  0  1  0  0  0  0  0999 V2000
   -8.5430   -5.5600  -25.7860 C   0  0  0  0  0  0  0  0  0  0  0  0
   -9.0520   -5.4410  -24.3490 C   0  0  1  0  0  0  0  0  0  0  0  0
   -8.0070   -5.8670  -23.3200 C   0  0  0  0  0  0  0  0  0  0  0  0
   -6.9240   -4.8250  -23.1050 C   0  0  0  0  0  0  0  0  0  0  0  0
   -7.5120   -3.5420  -22.7130 N   0  0  0  0  0  0  0  0  0  0  0  0
   -6.7560   -2.7450  -21.8640 C   0  0  0  0  0  0  0  0  0  0  0  0
   -5.6180   -3.0530  -21.5560 O   0  0  0  0  0  0  0  0  0  0  0  0
   -7.4120   -1.4750  -21.2690 C   0  0  0  0  0  0  0  0  0  0  0  0
   -6.5780   -0.8320  -20.1830 C   0  0  0  0  0  0  0  0  0  0  0  0
   -6.8750   -1.0450  -18.8630 C   0  0  0  0  0  0  0  0  0  0  0  0
   -6.1940   -0.5390  -17.7990 N   0  0  0  0  0  0  0  0  0  0  0  0
   -5.1590    0.2190  -18.0670 C   0  0  0  0  0  0  0  0  0  0  0  0
   -4.7210    0.5280  -19.3810 C   0  0  0  0  0  0  0  0  0  0  0  0
   -3.5930    1.3550  -19.6220 C   0  0  0  0  0  0  0  0  0  0  0  0
   -3.1900    1.6310  -20.9000 C   0  0  0  0  0  0  0  0  0  0  0  0
   -3.9010    1.0870  -21.9930 C   0  0  0  0  0  0  0  0  0  0  0  0
   -4.9970    0.2860  -21.7860 C   0  0  0  0  0  0  0  0  0  0  0  0
   -5.4440   -0.0140  -20.4740 C   0  0  0  0  0  0  0  0  0  0  0  0
   -5.5300   -0.1260  -22.6360 H   0  0  0  0  0  0  0  0  0  0  0  0
   -3.5790    1.3150  -23.0050 H   0  0  0  0  0  0  0  0  0  0  0  0
   -2.3310    2.2720  -21.0870 H   0  0  0  0  0  0  0  0  0  0  0  0
   -3.0550    1.7690  -18.7720 H   0  0  0  0  0  0  0  0  0  0  0  0
   -4.6040    0.6250  -17.2170 H   0  0  0  0  0  0  0  0  0  0  0  0
   -7.7220   -1.6700  -18.5850 H   0  0  0  0  0  0  0  0  0  0  0  0
   -7.6210   -0.7470  -22.0670 H   0  0  0  0  0  0  0  0  0  0  0  0
   -8.3930   -1.7510  -20.8540 H   0  0  0  0  0  0  0  0  0  0  0  0
   -8.5390   -2.9960  -23.6120 C   0  0  1  0  0  0  0  0  0  0  0  0
   -7.9410   -2.2910  -24.8400 C   0  0  0  0  0  0  0  0  0  0  0  0
   -8.7280   -1.9760  -25.5350 H   0  0  0  0  0  0  0  0  0  0  0  0
   -7.2480   -2.9320  -25.3940 H   0  0  0  0  0  0  0  0  0  0  0  0
   -7.3900   -1.3880  -24.5500 H   0  0  0  0  0  0  0  0  0  0  0  0
   -9.5880   -4.0620  -23.9660 C   0  0  0  0  0  0  0  0  0  0  0  0
  -10.2090   -3.6820  -24.7830 H   0  0  0  0  0  0  0  0  0  0  0  0
  -10.2610   -4.1740  -23.1090 H   0  0  0  0  0  0  0  0  0  0  0  0
   -9.0800   -2.2350  -23.0430 H   0  0  0  0  0  0  0  0  0  0  0  0
   -6.2870   -4.7470  -23.9960 H   0  0  0  0  0  0  0  0  0  0  0  0
   -6.2720   -5.1440  -22.2930 H   0  0  0  0  0  0  0  0  0  0  0  0
   -7.5710   -6.8270  -23.6140 H   0  0  0  0  0  0  0  0  0  0  0  0
   -8.4560   -6.0090  -22.3380 H   0  0  0  0  0  0  0  0  0  0  0  0
   -9.9020   -6.1280  -24.2980 H   0  0  0  0  0  0  0  0  0  0  0  0
   -7.5960   -5.0380  -25.9440 H   0  0  0  0  0  0  0  0  0  0  0  0
   -8.3800   -6.6130  -26.0490 H   0  0  0  0  0  0  0  0  0  0  0  0
   -9.2680   -5.1510  -26.4980 H   0  0  0  0  0  0  0  0  0  0  0  0
  1  2  1  0  0  0  0
  1 41  1  0  0  0  0
  1 42  1  0  0  0  0
  1 43  1  0  0  0  0
  2  3  1  0  0  0  0
  2 32  1  0  0  0  0
  2 40  1  1  0  0  0
  3  4  1  0  0  0  0
  3 38  1  0  0  0  0
  3 39  1  0  0  0  0
  4  5  1  0  0  0  0
  4 36  1  0  0  0  0
  4 37  1  0  0  0  0
  5  6  1  0  0  0  0
  5 27  1  0  0  0  0
  6  7  2  0  0  0  0
  6  8  1  0  0  0  0
  8  9  1  0  0  0  0
  8 25  1  0  0  0  0
  8 26  1  0  0  0  0
  9 10  2  0  0  0  0
  9 18  1  0  0  0  0
 10 11  1  0  0  0  0
 10 24  1  0  0  0  0
 11 12  2  0  0  0  0
 12 13  1  0  0  0  0
 12 23  1  0  0  0  0
 13 14  2  0  0  0  0
 13 18  1  0  0  0  0
 14 15  1  0  0  0  0
 14 22  1  0  0  0  0
 15 16  2  0  0  0  0
 15 21  1  0  0  0  0
 16 17  1  0  0  0  0
 16 20  1  0  0  0  0
 17 18  2  0  0  0  0
 17 19  1  0  0  0  0
 27 28  1  0  0  0  0
 27 32  1  0  0  0  0
 27 35  1  1  0  0  0
 28 29  1  0  0  0  0
 28 30  1  0  0  0  0
 28 31  1  0  0  0  0
 32 33  1  0  0  0  0
 32 34  1  0  0  0  0
M  END
>  <MODEL>
       1

$$$$
