tmp_first_model_9_77.pdb
 OpenBabel08272521403D

 55 60  0  0  1  0  0  0  0  0999 V2000
  -10.4780   -1.2290  -23.2340 C   0  0  0  0  0  0  0  0  0  0  0  0
   -9.0230   -1.5540  -22.9160 C   0  0  1  0  0  0  0  0  0  0  0  0
   -8.3920   -0.5720  -21.9170 C   0  0  0  0  0  0  0  0  0  0  0  0
   -7.3920   -1.3630  -21.2270 N   0  0  0  0  0  0  0  0  0  0  0  0
   -6.5840   -0.8430  -20.1850 C   0  0  0  0  0  0  0  0  0  0  0  0
   -6.8930   -1.0790  -18.8680 C   0  0  0  0  0  0  0  0  0  0  0  0
   -6.2060   -0.5600  -17.8190 N   0  0  0  0  0  0  0  0  0  0  0  0
   -5.1830    0.2120  -18.0840 C   0  0  0  0  0  0  0  0  0  0  0  0
   -4.7410    0.5200  -19.4030 C   0  0  0  0  0  0  0  0  0  0  0  0
   -3.6140    1.3490  -19.6390 C   0  0  0  0  0  0  0  0  0  0  0  0
   -3.2130    1.6210  -20.9170 C   0  0  0  0  0  0  0  0  0  0  0  0
   -3.9160    1.0790  -22.0170 C   0  0  0  0  0  0  0  0  0  0  0  0
   -5.0110    0.2730  -21.8150 C   0  0  0  0  0  0  0  0  0  0  0  0
   -5.4570   -0.0170  -20.4970 C   0  0  0  0  0  0  0  0  0  0  0  0
   -5.5390   -0.1530  -22.6630 H   0  0  0  0  0  0  0  0  0  0  0  0
   -3.5880    1.2980  -23.0300 H   0  0  0  0  0  0  0  0  0  0  0  0
   -2.3510    2.2580  -21.0990 H   0  0  0  0  0  0  0  0  0  0  0  0
   -3.0950    1.7660  -18.7790 H   0  0  0  0  0  0  0  0  0  0  0  0
   -4.6370    0.6350  -17.2380 H   0  0  0  0  0  0  0  0  0  0  0  0
   -7.7350   -1.7210  -18.6110 H   0  0  0  0  0  0  0  0  0  0  0  0
   -7.5410   -2.7200  -21.4090 C   0  0  0  0  0  0  0  0  0  0  0  0
   -6.7660   -3.5430  -20.9590 O   0  0  0  0  0  0  0  0  0  0  0  0
   -8.7670   -2.9730  -22.3090 C   0  0  1  0  0  0  0  0  0  0  0  0
   -9.9380   -3.4620  -21.4420 C   0  0  0  0  0  0  0  0  0  0  0  0
  -11.0450   -4.0370  -22.1840 N   0  0  0  0  0  0  0  0  0  0  0  0
  -12.3990   -3.9540  -21.6590 C   0  0  0  0  0  0  0  0  0  0  0  0
  -13.2490   -2.8450  -22.2030 C   0  0  0  0  0  0  0  0  0  0  0  0
  -13.8800   -2.9250  -23.3960 C   0  0  0  0  0  0  0  0  0  0  0  0
  -14.6290   -1.7980  -23.5640 O   0  0  0  0  0  0  0  0  0  0  0  0
  -14.4060   -1.0940  -22.4360 C   0  0  0  0  0  0  0  0  0  0  0  0
  -13.6080   -1.6540  -21.5860 N   0  0  0  0  0  0  0  0  0  0  0  0
  -14.9460   -0.1610  -22.3500 H   0  0  0  0  0  0  0  0  0  0  0  0
  -13.8740   -3.7010  -24.1520 H   0  0  0  0  0  0  0  0  0  0  0  0
  -12.3890   -4.0000  -20.5680 H   0  0  0  0  0  0  0  0  0  0  0  0
  -12.8780   -4.8460  -22.0410 H   0  0  0  0  0  0  0  0  0  0  0  0
  -10.8930   -4.7120  -23.3630 C   0  0  0  0  0  0  0  0  0  0  0  0
  -11.8490   -5.1280  -24.0070 O   0  0  0  0  0  0  0  0  0  0  0  0
   -9.4910   -4.8680  -23.8350 C   0  0  0  0  0  0  0  0  0  0  0  0
   -9.2270   -5.8180  -24.8210 C   0  0  0  0  0  0  0  0  0  0  0  0
   -7.9620   -5.9020  -25.3790 C   0  0  0  0  0  0  0  0  0  0  0  0
   -6.9830   -5.0190  -24.9300 C   0  0  0  0  0  0  0  0  0  0  0  0
   -5.7710   -5.0520  -25.5090 F   0  0  0  0  0  0  0  0  0  0  0  0
   -7.2150   -4.1050  -23.9230 C   0  0  0  0  0  0  0  0  0  0  0  0
   -8.4820   -4.0310  -23.3470 C   0  0  0  0  0  0  0  0  0  0  0  0
   -6.4220   -3.4420  -23.5970 H   0  0  0  0  0  0  0  0  0  0  0  0
   -7.7310   -6.5850  -26.1880 H   0  0  0  0  0  0  0  0  0  0  0  0
  -10.0410   -6.4710  -25.1290 H   0  0  0  0  0  0  0  0  0  0  0  0
  -10.3130   -2.6240  -20.8570 H   0  0  0  0  0  0  0  0  0  0  0  0
   -9.5450   -4.1980  -20.7550 H   0  0  0  0  0  0  0  0  0  0  0  0
   -9.1360   -0.1820  -21.2100 H   0  0  0  0  0  0  0  0  0  0  0  0
   -7.9400    0.2910  -22.4150 H   0  0  0  0  0  0  0  0  0  0  0  0
   -8.4370   -1.5100  -23.8430 H   0  0  0  0  0  0  0  0  0  0  0  0
  -10.5530   -0.2680  -23.7450 H   0  0  0  0  0  0  0  0  0  0  0  0
  -10.9380   -1.9940  -23.8690 H   0  0  0  0  0  0  0  0  0  0  0  0
  -11.0850   -1.1560  -22.3260 H   0  0  0  0  0  0  0  0  0  0  0  0
  1  2  1  0  0  0  0
  1 53  1  0  0  0  0
  1 54  1  0  0  0  0
  1 55  1  0  0  0  0
  2  3  1  0  0  0  0
  2 23  1  0  0  0  0
  2 52  1  6  0  0  0
  3  4  1  0  0  0  0
  3 50  1  0  0  0  0
  3 51  1  0  0  0  0
  4  5  1  0  0  0  0
  4 21  1  0  0  0  0
  5  6  2  0  0  0  0
  5 14  1  0  0  0  0
  6  7  1  0  0  0  0
  6 20  1  0  0  0  0
  7  8  2  0  0  0  0
  8  9  1  0  0  0  0
  8 19  1  0  0  0  0
  9 10  2  0  0  0  0
  9 14  1  0  0  0  0
 10 11  1  0  0  0  0
 10 18  1  0  0  0  0
 11 12  2  0  0  0  0
 11 17  1  0  0  0  0
 12 13  1  0  0  0  0
 12 16  1  0  0  0  0
 13 14  2  0  0  0  0
 13 15  1  0  0  0  0
 21 22  2  0  0  0  0
 23 21  1  1  0  0  0
 23 24  1  0  0  0  0
 23 44  1  0  0  0  0
 24 25  1  0  0  0  0
 24 48  1  0  0  0  0
 24 49  1  0  0  0  0
 25 26  1  0  0  0  0
 25 36  1  0  0  0  0
 26 27  1  0  0  0  0
 26 34  1  0  0  0  0
 26 35  1  0  0  0  0
 27 28  2  0  0  0  0
 27 31  1  0  0  0  0
 28 29  1  0  0  0  0
 28 33  1  0  0  0  0
 29 30  1  0  0  0  0
 30 31  2  0  0  0  0
 30 32  1  0  0  0  0
 36 37  2  0  0  0  0
 36 38  1  0  0  0  0
 38 39  2  0  0  0  0
 38 44  1  0  0  0  0
 39 40  1  0  0  0  0
 39 47  1  0  0  0  0
 40 41  2  0  0  0  0
 40 46  1  0  0  0  0
 41 42  1  0  0  0  0
 41 43  1  0  0  0  0
 43 44  2  0  0  0  0
 43 45  1  0  0  0  0
M  END
>  <MODEL>
       1

$$$$
