tmp_first_model_1_92.pdb
 OpenBabel08272517043D

 60 65  0  0  1  0  0  0  0  0999 V2000
  -11.6650   -4.4010  -23.0270 C   0  0  0  0  0  0  0  0  0  0  0  0
  -10.9000   -3.2730  -23.3440 O   0  0  0  0  0  0  0  0  0  0  0  0
  -10.2430   -2.7540  -22.2140 C   0  0  0  0  0  0  0  0  0  0  0  0
   -9.0980   -1.8700  -22.6850 C   0  0  1  0  0  0  0  0  0  0  0  0
   -8.6460   -0.9450  -21.5460 C   0  0  0  0  0  0  0  0  0  0  0  0
   -7.3360   -1.4260  -21.1960 N   0  0  0  0  0  0  0  0  0  0  0  0
   -6.5610   -0.8400  -20.1800 C   0  0  0  0  0  0  0  0  0  0  0  0
   -6.9020   -1.0510  -18.8720 C   0  0  0  0  0  0  0  0  0  0  0  0
   -6.2190   -0.5540  -17.8170 N   0  0  0  0  0  0  0  0  0  0  0  0
   -5.1810    0.2020  -18.0870 C   0  0  0  0  0  0  0  0  0  0  0  0
   -4.7370    0.5140  -19.4050 C   0  0  0  0  0  0  0  0  0  0  0  0
   -3.6160    1.3520  -19.6300 C   0  0  0  0  0  0  0  0  0  0  0  0
   -3.2260    1.6550  -20.9040 C   0  0  0  0  0  0  0  0  0  0  0  0
   -3.9420    1.1470  -22.0120 C   0  0  0  0  0  0  0  0  0  0  0  0
   -5.0350    0.3370  -21.8290 C   0  0  0  0  0  0  0  0  0  0  0  0
   -5.4460   -0.0110  -20.5040 C   0  0  0  0  0  0  0  0  0  0  0  0
   -5.5860   -0.0310  -22.6970 H   0  0  0  0  0  0  0  0  0  0  0  0
   -3.6220    1.4110  -23.0150 H   0  0  0  0  0  0  0  0  0  0  0  0
   -2.3750    2.3070  -21.0740 H   0  0  0  0  0  0  0  0  0  0  0  0
   -3.0940    1.7530  -18.7670 H   0  0  0  0  0  0  0  0  0  0  0  0
   -4.6340    0.6130  -17.2400 H   0  0  0  0  0  0  0  0  0  0  0  0
   -7.7620   -1.6790  -18.6430 H   0  0  0  0  0  0  0  0  0  0  0  0
   -6.8210   -2.3990  -22.0140 C   0  0  0  0  0  0  0  0  0  0  0  0
   -5.7690   -2.9700  -21.8090 O   0  0  0  0  0  0  0  0  0  0  0  0
   -7.8130   -2.6180  -23.1750 C   0  0  1  0  0  0  0  0  0  0  0  0
   -7.9510   -4.1350  -23.3920 C   0  0  0  0  0  0  0  0  0  0  0  0
   -6.6990   -4.6650  -23.9080 N   0  0  0  0  0  0  0  0  0  0  0  0
   -6.2990   -5.9900  -23.4670 C   0  0  0  0  0  0  0  0  0  0  0  0
   -7.1880   -7.0550  -24.0580 C   0  0  0  0  0  0  0  0  0  0  0  0
   -8.4410   -7.5160  -23.5950 C   0  0  0  0  0  0  0  0  0  0  0  0
   -9.0640   -8.2870  -24.4790 N   0  0  0  0  0  0  0  0  0  0  0  0
   -8.2330   -8.2740  -25.5330 N   0  0  0  0  0  0  0  0  0  0  0  0
   -7.0860   -7.5880  -25.3190 C   0  0  0  0  0  0  0  0  0  0  0  0
   -6.2990   -7.5150  -26.0670 H   0  0  0  0  0  0  0  0  0  0  0  0
   -8.4610   -8.8090  -26.3630 H   0  0  0  0  0  0  0  0  0  0  0  0
   -8.9180   -7.2580  -22.6660 H   0  0  0  0  0  0  0  0  0  0  0  0
   -6.3380   -5.9870  -22.3710 H   0  0  0  0  0  0  0  0  0  0  0  0
   -5.2590   -6.1390  -23.7730 H   0  0  0  0  0  0  0  0  0  0  0  0
   -6.1860   -4.1920  -25.0820 C   0  0  0  0  0  0  0  0  0  0  0  0
   -5.4670   -4.8640  -25.8100 O   0  0  0  0  0  0  0  0  0  0  0  0
   -6.5390   -2.7710  -25.3800 C   0  0  0  0  0  0  0  0  0  0  0  0
   -6.0730   -2.2130  -26.5690 C   0  0  0  0  0  0  0  0  0  0  0  0
   -6.2810   -0.8800  -26.8550 C   0  0  0  0  0  0  0  0  0  0  0  0
   -6.9690   -0.1090  -25.9200 C   0  0  0  0  0  0  0  0  0  0  0  0
   -7.2340    1.5800  -26.2340 Cl  0  0  0  0  0  0  0  0  0  0  0  0
   -7.4620   -0.6540  -24.7480 C   0  0  0  0  0  0  0  0  0  0  0  0
   -7.2750   -2.0120  -24.4660 C   0  0  0  0  0  0  0  0  0  0  0  0
   -8.0050   -0.0060  -24.0670 H   0  0  0  0  0  0  0  0  0  0  0  0
   -5.9080   -0.4310  -27.7700 H   0  0  0  0  0  0  0  0  0  0  0  0
   -5.5300   -2.8560  -27.2490 H   0  0  0  0  0  0  0  0  0  0  0  0
   -8.7930   -4.3530  -24.0650 H   0  0  0  0  0  0  0  0  0  0  0  0
   -8.1530   -4.6310  -22.4440 H   0  0  0  0  0  0  0  0  0  0  0  0
   -8.6270    0.1190  -21.8260 H   0  0  0  0  0  0  0  0  0  0  0  0
   -9.3080   -1.0230  -20.6870 H   0  0  0  0  0  0  0  0  0  0  0  0
   -9.5150   -1.2970  -23.5150 H   0  0  0  0  0  0  0  0  0  0  0  0
  -10.9580   -2.1690  -21.6160 H   0  0  0  0  0  0  0  0  0  0  0  0
   -9.8640   -3.5580  -21.5610 H   0  0  0  0  0  0  0  0  0  0  0  0
  -11.0190   -5.2330  -22.6940 H   0  0  0  0  0  0  0  0  0  0  0  0
  -12.3980   -4.1770  -22.2340 H   0  0  0  0  0  0  0  0  0  0  0  0
  -12.2080   -4.7140  -23.9220 H   0  0  0  0  0  0  0  0  0  0  0  0
  1  2  1  0  0  0  0
  1 58  1  0  0  0  0
  1 59  1  0  0  0  0
  1 60  1  0  0  0  0
  2  3  1  0  0  0  0
  3  4  1  0  0  0  0
  3 56  1  0  0  0  0
  3 57  1  0  0  0  0
  4  5  1  0  0  0  0
  4 25  1  0  0  0  0
  4 55  1  6  0  0  0
  5  6  1  0  0  0  0
  5 53  1  0  0  0  0
  5 54  1  0  0  0  0
  6  7  1  0  0  0  0
  6 23  1  0  0  0  0
  7  8  2  0  0  0  0
  7 16  1  0  0  0  0
  8  9  1  0  0  0  0
  8 22  1  0  0  0  0
  9 10  2  0  0  0  0
 10 11  1  0  0  0  0
 10 21  1  0  0  0  0
 11 12  2  0  0  0  0
 11 16  1  0  0  0  0
 12 13  1  0  0  0  0
 12 20  1  0  0  0  0
 13 14  2  0  0  0  0
 13 19  1  0  0  0  0
 14 15  1  0  0  0  0
 14 18  1  0  0  0  0
 15 16  2  0  0  0  0
 15 17  1  0  0  0  0
 23 24  2  0  0  0  0
 25 23  1  1  0  0  0
 25 26  1  0  0  0  0
 25 47  1  0  0  0  0
 26 27  1  0  0  0  0
 26 51  1  0  0  0  0
 26 52  1  0  0  0  0
 27 28  1  0  0  0  0
 27 39  1  0  0  0  0
 28 29  1  0  0  0  0
 28 37  1  0  0  0  0
 28 38  1  0  0  0  0
 29 30  1  0  0  0  0
 29 33  2  0  0  0  0
 30 31  2  0  0  0  0
 30 36  1  0  0  0  0
 31 32  1  0  0  0  0
 32 33  1  0  0  0  0
 32 35  1  0  0  0  0
 33 34  1  0  0  0  0
 39 40  2  0  0  0  0
 39 41  1  0  0  0  0
 41 42  2  0  0  0  0
 41 47  1  0  0  0  0
 42 43  1  0  0  0  0
 42 50  1  0  0  0  0
 43 44  2  0  0  0  0
 43 49  1  0  0  0  0
 44 45  1  0  0  0  0
 44 46  1  0  0  0  0
 46 47  2  0  0  0  0
 46 48  1  0  0  0  0
M  END
>  <MODEL>
       1

$$$$
