tmp_first_model_14_8.pdb
 OpenBabel08282500413D

 60 64  0  0  1  0  0  0  0  0999 V2000
   -8.1410    0.0160  -29.7670 C   0  0  0  0  0  0  0  0  0  0  0  0
   -8.2000   -1.1080  -28.8570 N   0  0  0  0  0  0  0  0  0  0  0  0
   -7.3660   -1.1160  -27.7720 C   0  0  0  0  0  0  0  0  0  0  0  0
   -6.5050   -0.2790  -27.5630 O   0  0  0  0  0  0  0  0  0  0  0  0
   -7.5970   -2.2990  -26.8190 C   0  0  0  0  0  0  0  0  0  0  0  0
   -8.4740   -1.9290  -25.7180 N   0  0  0  0  0  0  0  0  0  0  0  0
   -7.9170   -1.2910  -24.5300 C   0  0  0  0  0  0  0  0  0  0  0  0
   -8.7630   -1.5470  -23.2520 C   0  0  2  0  0  0  0  0  0  0  0  0
   -8.2280   -0.5760  -22.1830 C   0  0  0  0  0  0  0  0  0  0  0  0
   -8.4350    0.6130  -22.0940 O   0  0  0  0  0  0  0  0  0  0  0  0
   -7.4160   -1.2900  -21.3200 N   0  0  0  0  0  0  0  0  0  0  0  0
   -6.6370   -0.7060  -20.2900 C   0  0  0  0  0  0  0  0  0  0  0  0
   -6.9540   -0.9720  -18.9820 C   0  0  0  0  0  0  0  0  0  0  0  0
   -6.2870   -0.4760  -17.9140 N   0  0  0  0  0  0  0  0  0  0  0  0
   -5.2350    0.2690  -18.1510 C   0  0  0  0  0  0  0  0  0  0  0  0
   -4.7560    0.5740  -19.4550 C   0  0  0  0  0  0  0  0  0  0  0  0
   -3.5950    1.3670  -19.6560 C   0  0  0  0  0  0  0  0  0  0  0  0
   -3.1480    1.6280  -20.9220 C   0  0  0  0  0  0  0  0  0  0  0  0
   -3.8260    1.0980  -22.0420 C   0  0  0  0  0  0  0  0  0  0  0  0
   -4.9520    0.3320  -21.8710 C   0  0  0  0  0  0  0  0  0  0  0  0
   -5.4610    0.0660  -20.5690 C   0  0  0  0  0  0  0  0  0  0  0  0
   -5.4590   -0.0800  -22.7370 H   0  0  0  0  0  0  0  0  0  0  0  0
   -3.4600    1.3110  -23.0420 H   0  0  0  0  0  0  0  0  0  0  0  0
   -2.2740    2.2520  -21.0740 H   0  0  0  0  0  0  0  0  0  0  0  0
   -3.0860    1.7680  -18.7840 H   0  0  0  0  0  0  0  0  0  0  0  0
   -4.7000    0.6600  -17.2850 H   0  0  0  0  0  0  0  0  0  0  0  0
   -7.8110   -1.6060  -18.7560 H   0  0  0  0  0  0  0  0  0  0  0  0
   -7.3300   -2.7070  -21.6090 C   0  0  0  0  0  0  0  0  0  0  0  0
   -8.5140   -2.9240  -22.5460 C   0  0  2  0  0  0  0  0  0  0  0  0
   -8.3980   -4.1400  -23.4440 C   0  0  0  0  0  0  0  0  0  0  0  0
   -7.1440   -4.1400  -24.0900 O   0  0  0  0  0  0  0  0  0  0  0  0
   -6.9710   -5.2500  -24.9290 C   0  0  0  0  0  0  0  0  0  0  0  0
   -7.0260   -6.1960  -24.3680 H   0  0  0  0  0  0  0  0  0  0  0  0
   -5.9810   -5.1720  -25.3840 H   0  0  0  0  0  0  0  0  0  0  0  0
   -7.7250   -5.2760  -25.7300 H   0  0  0  0  0  0  0  0  0  0  0  0
   -8.5060   -5.0590  -22.8460 H   0  0  0  0  0  0  0  0  0  0  0  0
   -9.2080   -4.1160  -24.1850 H   0  0  0  0  0  0  0  0  0  0  0  0
   -9.4060   -3.0780  -21.9190 H   0  0  0  0  0  0  0  0  0  0  0  0
   -7.4270   -3.2760  -20.6840 H   0  0  0  0  0  0  0  0  0  0  0  0
   -6.3650   -2.9710  -22.0660 H   0  0  0  0  0  0  0  0  0  0  0  0
  -10.2380   -1.3790  -23.5710 C   0  0  0  0  0  0  0  0  0  0  0  0
  -11.1910   -1.2700  -22.5440 C   0  0  0  0  0  0  0  0  0  0  0  0
  -12.5400   -1.2670  -22.8730 C   0  0  0  0  0  0  0  0  0  0  0  0
  -13.7610   -1.3390  -21.6510 Cl  0  0  0  0  0  0  0  0  0  0  0  0
  -12.9920   -1.3360  -24.1870 C   0  0  0  0  0  0  0  0  0  0  0  0
  -12.0500   -1.4590  -25.1870 C   0  0  0  0  0  0  0  0  0  0  0  0
  -10.6950   -1.4860  -24.8860 C   0  0  0  0  0  0  0  0  0  0  0  0
   -9.7910   -1.8040  -26.0250 C   0  0  0  0  0  0  0  0  0  0  0  0
  -10.2180   -2.0100  -27.1630 O   0  0  0  0  0  0  0  0  0  0  0  0
  -12.3090   -1.6000  -26.2250 H   0  0  0  0  0  0  0  0  0  0  0  0
  -14.0590   -1.3600  -24.3810 H   0  0  0  0  0  0  0  0  0  0  0  0
  -10.8720   -1.2350  -21.5060 H   0  0  0  0  0  0  0  0  0  0  0  0
   -6.9060   -1.6800  -24.3830 H   0  0  0  0  0  0  0  0  0  0  0  0
   -7.8430   -0.2030  -24.6750 H   0  0  0  0  0  0  0  0  0  0  0  0
   -6.6370   -2.6330  -26.4120 H   0  0  0  0  0  0  0  0  0  0  0  0
   -8.0780   -3.1200  -27.3630 H   0  0  0  0  0  0  0  0  0  0  0  0
   -9.1150   -1.5140  -28.6950 H   0  0  0  0  0  0  0  0  0  0  0  0
   -8.4230    0.9590  -29.2840 H   0  0  0  0  0  0  0  0  0  0  0  0
   -8.8070   -0.1770  -30.6110 H   0  0  0  0  0  0  0  0  0  0  0  0
   -7.1230    0.1240  -30.1420 H   0  0  0  0  0  0  0  0  0  0  0  0
  1  2  1  0  0  0  0
  1 58  1  0  0  0  0
  1 59  1  0  0  0  0
  1 60  1  0  0  0  0
  2  3  1  0  0  0  0
  2 57  1  0  0  0  0
  3  4  2  0  0  0  0
  3  5  1  0  0  0  0
  5  6  1  0  0  0  0
  5 55  1  0  0  0  0
  5 56  1  0  0  0  0
  6  7  1  0  0  0  0
  6 48  1  0  0  0  0
  7  8  1  0  0  0  0
  7 53  1  0  0  0  0
  7 54  1  0  0  0  0
  8  9  1  1  0  0  0
  8 29  1  0  0  0  0
  8 41  1  0  0  0  0
  9 10  2  0  0  0  0
  9 11  1  0  0  0  0
 11 12  1  0  0  0  0
 11 28  1  0  0  0  0
 12 13  2  0  0  0  0
 12 21  1  0  0  0  0
 13 14  1  0  0  0  0
 13 27  1  0  0  0  0
 14 15  2  0  0  0  0
 15 16  1  0  0  0  0
 15 26  1  0  0  0  0
 16 17  2  0  0  0  0
 16 21  1  0  0  0  0
 17 18  1  0  0  0  0
 17 25  1  0  0  0  0
 18 19  2  0  0  0  0
 18 24  1  0  0  0  0
 19 20  1  0  0  0  0
 19 23  1  0  0  0  0
 20 21  2  0  0  0  0
 20 22  1  0  0  0  0
 28 29  1  0  0  0  0
 28 39  1  0  0  0  0
 28 40  1  0  0  0  0
 29 30  1  0  0  0  0
 29 38  1  1  0  0  0
 30 31  1  0  0  0  0
 30 36  1  0  0  0  0
 30 37  1  0  0  0  0
 31 32  1  0  0  0  0
 32 33  1  0  0  0  0
 32 34  1  0  0  0  0
 32 35  1  0  0  0  0
 41 42  2  0  0  0  0
 41 47  1  0  0  0  0
 42 43  1  0  0  0  0
 42 52  1  0  0  0  0
 43 44  1  0  0  0  0
 43 45  2  0  0  0  0
 45 46  1  0  0  0  0
 45 51  1  0  0  0  0
 46 47  2  0  0  0  0
 46 50  1  0  0  0  0
 47 48  1  0  0  0  0
 48 49  2  0  0  0  0
M  END
>  <MODEL>
       1

$$$$
