tmp_first_model_7_15.pdb
 OpenBabel08272520323D

 63 68  0  0  1  0  0  0  0  0999 V2000
   -7.6100    3.2370  -21.8330 C   0  0  0  0  0  0  0  0  0  0  0  0
   -8.6970    2.7610  -22.6640 N   0  0  0  0  0  0  0  0  0  0  0  0
   -8.3290    1.9900  -23.7180 C   0  0  0  0  0  0  0  0  0  0  0  0
   -7.1520    1.7630  -23.9680 O   0  0  0  0  0  0  0  0  0  0  0  0
   -9.4290    1.3910  -24.5850 C   0  0  0  0  0  0  0  0  0  0  0  0
   -9.9200    0.1840  -23.9570 N   0  0  0  0  0  0  0  0  0  0  0  0
   -9.1050   -1.0230  -23.9630 C   0  0  0  0  0  0  0  0  0  0  0  0
   -9.2430   -1.7990  -22.6220 C   0  0  2  0  0  0  0  0  0  0  0  0
   -8.6520   -0.9290  -21.4860 C   0  0  0  0  0  0  0  0  0  0  0  0
   -9.1710    0.0350  -20.9620 O   0  0  0  0  0  0  0  0  0  0  0  0
   -7.3940   -1.4070  -21.1860 N   0  0  0  0  0  0  0  0  0  0  0  0
   -6.6040   -0.8190  -20.1720 C   0  0  0  0  0  0  0  0  0  0  0  0
   -6.9150   -1.0420  -18.8540 C   0  0  0  0  0  0  0  0  0  0  0  0
   -6.2070   -0.5520  -17.8110 N   0  0  0  0  0  0  0  0  0  0  0  0
   -5.1690    0.1990  -18.0840 C   0  0  0  0  0  0  0  0  0  0  0  0
   -4.7380    0.5160  -19.4020 C   0  0  0  0  0  0  0  0  0  0  0  0
   -3.6170    1.3510  -19.6450 C   0  0  0  0  0  0  0  0  0  0  0  0
   -3.2480    1.6610  -20.9240 C   0  0  0  0  0  0  0  0  0  0  0  0
   -3.9830    1.1590  -22.0180 C   0  0  0  0  0  0  0  0  0  0  0  0
   -5.0750    0.3470  -21.8130 C   0  0  0  0  0  0  0  0  0  0  0  0
   -5.4750   -0.0030  -20.4940 C   0  0  0  0  0  0  0  0  0  0  0  0
   -5.6530    0.0050  -22.6670 H   0  0  0  0  0  0  0  0  0  0  0  0
   -3.6850    1.4170  -23.0290 H   0  0  0  0  0  0  0  0  0  0  0  0
   -2.3940    2.3070  -21.1020 H   0  0  0  0  0  0  0  0  0  0  0  0
   -3.0810    1.7520  -18.7900 H   0  0  0  0  0  0  0  0  0  0  0  0
   -4.6060    0.6000  -17.2410 H   0  0  0  0  0  0  0  0  0  0  0  0
   -7.7770   -1.6580  -18.6070 H   0  0  0  0  0  0  0  0  0  0  0  0
   -6.9970   -2.5660  -21.9610 C   0  0  0  0  0  0  0  0  0  0  0  0
   -8.3290   -3.0510  -22.5600 C   0  0  2  0  0  0  0  0  0  0  0  0
   -8.1400   -3.8120  -23.8780 C   0  0  0  0  0  0  0  0  0  0  0  0
   -7.4100   -5.0500  -23.6830 N   0  0  0  0  0  0  0  0  0  0  0  0
   -6.0740   -5.2390  -23.7820 C   0  0  0  0  0  0  0  0  0  0  0  0
   -5.8290   -6.5500  -23.4420 C   0  0  0  0  0  0  0  0  0  0  0  0
   -7.1020   -7.0720  -23.1450 C   0  0  0  0  0  0  0  0  0  0  0  0
   -8.0530   -6.1540  -23.2790 N   0  0  0  0  0  0  0  0  0  0  0  0
   -7.3650   -8.0810  -22.8450 H   0  0  0  0  0  0  0  0  0  0  0  0
   -4.8780   -7.0600  -23.4190 H   0  0  0  0  0  0  0  0  0  0  0  0
   -5.4040   -4.4430  -24.0820 H   0  0  0  0  0  0  0  0  0  0  0  0
   -7.5850   -3.1970  -24.5950 H   0  0  0  0  0  0  0  0  0  0  0  0
   -9.1060   -4.0700  -24.3200 H   0  0  0  0  0  0  0  0  0  0  0  0
   -8.7590   -3.7530  -21.8400 H   0  0  0  0  0  0  0  0  0  0  0  0
   -6.5400   -3.3260  -21.3200 H   0  0  0  0  0  0  0  0  0  0  0  0
   -6.2660   -2.3070  -22.7470 H   0  0  0  0  0  0  0  0  0  0  0  0
  -10.7250   -2.0280  -22.3960 C   0  0  0  0  0  0  0  0  0  0  0  0
  -11.2200   -3.1050  -21.6570 C   0  0  0  0  0  0  0  0  0  0  0  0
  -12.5770   -3.1840  -21.3970 C   0  0  0  0  0  0  0  0  0  0  0  0
  -13.1610   -4.3230  -20.2350 Cl  0  0  0  0  0  0  0  0  0  0  0  0
  -13.5060   -2.3100  -21.9530 C   0  0  0  0  0  0  0  0  0  0  0  0
  -13.0200   -1.2430  -22.6740 C   0  0  0  0  0  0  0  0  0  0  0  0
  -11.6470   -1.0540  -22.8130 C   0  0  0  0  0  0  0  0  0  0  0  0
  -11.1510    0.2380  -23.3840 C   0  0  0  0  0  0  0  0  0  0  0  0
  -11.7890    1.2820  -23.3230 O   0  0  0  0  0  0  0  0  0  0  0  0
  -13.7050   -0.5310  -23.1150 H   0  0  0  0  0  0  0  0  0  0  0  0
  -14.5660   -2.4520  -21.7560 H   0  0  0  0  0  0  0  0  0  0  0  0
  -10.5780   -3.8590  -21.2120 H   0  0  0  0  0  0  0  0  0  0  0  0
   -8.0630   -0.7280  -24.1250 H   0  0  0  0  0  0  0  0  0  0  0  0
   -9.4200   -1.6660  -24.7950 H   0  0  0  0  0  0  0  0  0  0  0  0
  -10.2840    2.0610  -24.7190 H   0  0  0  0  0  0  0  0  0  0  0  0
   -9.0070    1.1460  -25.5650 H   0  0  0  0  0  0  0  0  0  0  0  0
   -9.6030    2.6760  -22.2150 H   0  0  0  0  0  0  0  0  0  0  0  0
   -7.9780    3.9460  -21.0890 H   0  0  0  0  0  0  0  0  0  0  0  0
   -6.9010    3.7800  -22.4550 H   0  0  0  0  0  0  0  0  0  0  0  0
   -7.0720    2.3900  -21.3790 H   0  0  0  0  0  0  0  0  0  0  0  0
  1  2  1  0  0  0  0
  1 61  1  0  0  0  0
  1 62  1  0  0  0  0
  1 63  1  0  0  0  0
  2  3  1  0  0  0  0
  2 60  1  0  0  0  0
  3  4  2  0  0  0  0
  3  5  1  0  0  0  0
  5  6  1  0  0  0  0
  5 58  1  0  0  0  0
  5 59  1  0  0  0  0
  6  7  1  0  0  0  0
  6 51  1  0  0  0  0
  7  8  1  0  0  0  0
  7 56  1  0  0  0  0
  7 57  1  0  0  0  0
  8  9  1  1  0  0  0
  8 29  1  0  0  0  0
  8 44  1  0  0  0  0
  9 10  2  0  0  0  0
  9 11  1  0  0  0  0
 11 12  1  0  0  0  0
 11 28  1  0  0  0  0
 12 13  2  0  0  0  0
 12 21  1  0  0  0  0
 13 14  1  0  0  0  0
 13 27  1  0  0  0  0
 14 15  2  0  0  0  0
 15 16  1  0  0  0  0
 15 26  1  0  0  0  0
 16 17  2  0  0  0  0
 16 21  1  0  0  0  0
 17 18  1  0  0  0  0
 17 25  1  0  0  0  0
 18 19  2  0  0  0  0
 18 24  1  0  0  0  0
 19 20  1  0  0  0  0
 19 23  1  0  0  0  0
 20 21  2  0  0  0  0
 20 22  1  0  0  0  0
 28 29  1  0  0  0  0
 28 42  1  0  0  0  0
 28 43  1  0  0  0  0
 29 30  1  0  0  0  0
 29 41  1  1  0  0  0
 30 31  1  0  0  0  0
 30 39  1  0  0  0  0
 30 40  1  0  0  0  0
 31 32  1  0  0  0  0
 31 35  1  0  0  0  0
 32 33  2  0  0  0  0
 32 38  1  0  0  0  0
 33 34  1  0  0  0  0
 33 37  1  0  0  0  0
 34 35  2  0  0  0  0
 34 36  1  0  0  0  0
 44 45  2  0  0  0  0
 44 50  1  0  0  0  0
 45 46  1  0  0  0  0
 45 55  1  0  0  0  0
 46 47  1  0  0  0  0
 46 48  2  0  0  0  0
 48 49  1  0  0  0  0
 48 54  1  0  0  0  0
 49 50  2  0  0  0  0
 49 53  1  0  0  0  0
 50 51  1  0  0  0  0
 51 52  2  0  0  0  0
M  END
>  <MODEL>
       1

$$$$
