tmp_first_model_9_8.pdb
 OpenBabel08272521403D

 60 64  0  0  1  0  0  0  0  0999 V2000
  -14.8900   -2.2040  -23.9400 C   0  0  0  0  0  0  0  0  0  0  0  0
  -13.9930   -3.1540  -23.3320 N   0  0  0  0  0  0  0  0  0  0  0  0
  -13.2260   -2.7830  -22.2700 C   0  0  0  0  0  0  0  0  0  0  0  0
  -13.2100   -1.6440  -21.8170 O   0  0  0  0  0  0  0  0  0  0  0  0
  -12.3970   -3.9270  -21.7110 C   0  0  0  0  0  0  0  0  0  0  0  0
  -11.0570   -3.9470  -22.2720 N   0  0  0  0  0  0  0  0  0  0  0  0
   -9.9390   -3.3790  -21.5280 C   0  0  0  0  0  0  0  0  0  0  0  0
   -8.7540   -2.9010  -22.4060 C   0  0  2  0  0  0  0  0  0  0  0  0
   -7.5470   -2.6810  -21.4750 C   0  0  0  0  0  0  0  0  0  0  0  0
   -6.8120   -3.5290  -21.0010 O   0  0  0  0  0  0  0  0  0  0  0  0
   -7.4010   -1.3300  -21.2450 N   0  0  0  0  0  0  0  0  0  0  0  0
   -6.5830   -0.8430  -20.2000 C   0  0  0  0  0  0  0  0  0  0  0  0
   -6.8880   -1.1170  -18.8900 C   0  0  0  0  0  0  0  0  0  0  0  0
   -6.2170   -0.5900  -17.8380 N   0  0  0  0  0  0  0  0  0  0  0  0
   -5.2090    0.2080  -18.0900 C   0  0  0  0  0  0  0  0  0  0  0  0
   -4.7620    0.5380  -19.4030 C   0  0  0  0  0  0  0  0  0  0  0  0
   -3.6380    1.3710  -19.6380 C   0  0  0  0  0  0  0  0  0  0  0  0
   -3.2340    1.6380  -20.9170 C   0  0  0  0  0  0  0  0  0  0  0  0
   -3.9310    1.0900  -22.0180 C   0  0  0  0  0  0  0  0  0  0  0  0
   -5.0240    0.2820  -21.8180 C   0  0  0  0  0  0  0  0  0  0  0  0
   -5.4650   -0.0060  -20.4990 C   0  0  0  0  0  0  0  0  0  0  0  0
   -5.5490   -0.1600  -22.6600 H   0  0  0  0  0  0  0  0  0  0  0  0
   -3.5940    1.2980  -23.0290 H   0  0  0  0  0  0  0  0  0  0  0  0
   -2.3690    2.2700  -21.0970 H   0  0  0  0  0  0  0  0  0  0  0  0
   -3.1160    1.7840  -18.7790 H   0  0  0  0  0  0  0  0  0  0  0  0
   -4.6800    0.6320  -17.2350 H   0  0  0  0  0  0  0  0  0  0  0  0
   -7.7160   -1.7780  -18.6400 H   0  0  0  0  0  0  0  0  0  0  0  0
   -8.4020   -0.5070  -21.8990 C   0  0  0  0  0  0  0  0  0  0  0  0
   -8.9750   -1.4530  -22.9650 C   0  0  2  0  0  0  0  0  0  0  0  0
  -10.4150   -1.1400  -23.3290 C   0  0  0  0  0  0  0  0  0  0  0  0
  -10.5240    0.1130  -23.9610 O   0  0  0  0  0  0  0  0  0  0  0  0
  -11.8850    0.3420  -24.2470 C   0  0  0  0  0  0  0  0  0  0  0  0
  -12.4920    0.3670  -23.3290 H   0  0  0  0  0  0  0  0  0  0  0  0
  -12.2760   -0.4660  -24.8860 H   0  0  0  0  0  0  0  0  0  0  0  0
  -11.9750    1.2890  -24.7820 H   0  0  0  0  0  0  0  0  0  0  0  0
  -10.7880   -1.9260  -24.0040 H   0  0  0  0  0  0  0  0  0  0  0  0
  -11.0540   -1.1370  -22.4310 H   0  0  0  0  0  0  0  0  0  0  0  0
   -8.3600   -1.3630  -23.8670 H   0  0  0  0  0  0  0  0  0  0  0  0
   -9.1650   -0.1690  -21.1810 H   0  0  0  0  0  0  0  0  0  0  0  0
   -7.9580    0.3970  -22.3270 H   0  0  0  0  0  0  0  0  0  0  0  0
   -8.4810   -3.9460  -23.4670 C   0  0  0  0  0  0  0  0  0  0  0  0
   -7.2080   -4.0940  -24.0340 C   0  0  0  0  0  0  0  0  0  0  0  0
   -6.9960   -5.0530  -25.0090 C   0  0  0  0  0  0  0  0  0  0  0  0
   -5.4130   -5.2260  -25.7100 Cl  0  0  0  0  0  0  0  0  0  0  0  0
   -8.0200   -5.9040  -25.4240 C   0  0  0  0  0  0  0  0  0  0  0  0
   -9.2870   -5.7390  -24.8970 C   0  0  0  0  0  0  0  0  0  0  0  0
   -9.5170   -4.7590  -23.9400 C   0  0  0  0  0  0  0  0  0  0  0  0
  -10.9160   -4.5870  -23.4630 C   0  0  0  0  0  0  0  0  0  0  0  0
  -11.8900   -5.0020  -24.0940 O   0  0  0  0  0  0  0  0  0  0  0  0
  -10.1260   -6.3590  -25.2020 H   0  0  0  0  0  0  0  0  0  0  0  0
   -7.8260   -6.6810  -26.1500 H   0  0  0  0  0  0  0  0  0  0  0  0
   -6.3740   -3.4960  -23.6830 H   0  0  0  0  0  0  0  0  0  0  0  0
   -9.5470   -4.1120  -20.8280 H   0  0  0  0  0  0  0  0  0  0  0  0
  -10.2800   -2.5230  -20.9360 H   0  0  0  0  0  0  0  0  0  0  0  0
  -12.9160   -4.8300  -22.0190 H   0  0  0  0  0  0  0  0  0  0  0  0
  -12.3580   -3.8810  -20.6240 H   0  0  0  0  0  0  0  0  0  0  0  0
  -13.6560   -3.9150  -23.9130 H   0  0  0  0  0  0  0  0  0  0  0  0
  -15.4370   -1.6810  -23.1540 H   0  0  0  0  0  0  0  0  0  0  0  0
  -15.5910   -2.7360  -24.5910 H   0  0  0  0  0  0  0  0  0  0  0  0
  -14.3620   -1.4370  -24.5220 H   0  0  0  0  0  0  0  0  0  0  0  0
  1  2  1  0  0  0  0
  1 58  1  0  0  0  0
  1 59  1  0  0  0  0
  1 60  1  0  0  0  0
  2  3  1  0  0  0  0
  2 57  1  0  0  0  0
  3  4  2  0  0  0  0
  3  5  1  0  0  0  0
  5  6  1  0  0  0  0
  5 55  1  0  0  0  0
  5 56  1  0  0  0  0
  6  7  1  0  0  0  0
  6 48  1  0  0  0  0
  7  8  1  0  0  0  0
  7 53  1  0  0  0  0
  7 54  1  0  0  0  0
  8  9  1  1  0  0  0
  8 29  1  0  0  0  0
  8 41  1  0  0  0  0
  9 10  2  0  0  0  0
  9 11  1  0  0  0  0
 11 12  1  0  0  0  0
 11 28  1  0  0  0  0
 12 13  2  0  0  0  0
 12 21  1  0  0  0  0
 13 14  1  0  0  0  0
 13 27  1  0  0  0  0
 14 15  2  0  0  0  0
 15 16  1  0  0  0  0
 15 26  1  0  0  0  0
 16 17  2  0  0  0  0
 16 21  1  0  0  0  0
 17 18  1  0  0  0  0
 17 25  1  0  0  0  0
 18 19  2  0  0  0  0
 18 24  1  0  0  0  0
 19 20  1  0  0  0  0
 19 23  1  0  0  0  0
 20 21  2  0  0  0  0
 20 22  1  0  0  0  0
 28 29  1  0  0  0  0
 28 39  1  0  0  0  0
 28 40  1  0  0  0  0
 29 30  1  0  0  0  0
 29 38  1  6  0  0  0
 30 31  1  0  0  0  0
 30 36  1  0  0  0  0
 30 37  1  0  0  0  0
 31 32  1  0  0  0  0
 32 33  1  0  0  0  0
 32 34  1  0  0  0  0
 32 35  1  0  0  0  0
 41 42  2  0  0  0  0
 41 47  1  0  0  0  0
 42 43  1  0  0  0  0
 42 52  1  0  0  0  0
 43 44  1  0  0  0  0
 43 45  2  0  0  0  0
 45 46  1  0  0  0  0
 45 51  1  0  0  0  0
 46 47  2  0  0  0  0
 46 50  1  0  0  0  0
 47 48  1  0  0  0  0
 48 49  2  0  0  0  0
M  END
>  <MODEL>
       1

$$$$
