tmp_first_model_18_50.pdb
 OpenBabel08282502533D

 66 70  0  0  1  0  0  0  0  0999 V2000
   -6.9470    3.4110  -23.1130 C   0  0  0  0  0  0  0  0  0  0  0  0
   -7.6820    2.6360  -24.0970 N   0  0  0  0  0  0  0  0  0  0  0  0
   -7.0490    1.6390  -24.7640 C   0  0  0  0  0  0  0  0  0  0  0  0
   -5.8480    1.4480  -24.6640 O   0  0  0  0  0  0  0  0  0  0  0  0
   -7.9320    0.7780  -25.6720 C   0  0  0  0  0  0  0  0  0  0  0  0
   -8.8450   -0.0630  -24.9250 N   0  0  0  0  0  0  0  0  0  0  0  0
   -8.3790   -1.3300  -24.3850 C   0  0  0  0  0  0  0  0  0  0  0  0
   -9.0280   -1.6340  -23.0050 C   0  0  2  0  0  0  0  0  0  0  0  0
   -8.4190   -0.6530  -21.9770 C   0  0  0  0  0  0  0  0  0  0  0  0
   -8.6720    0.5280  -21.8500 O   0  0  0  0  0  0  0  0  0  0  0  0
   -7.4920   -1.3440  -21.2230 N   0  0  0  0  0  0  0  0  0  0  0  0
   -6.6860   -0.7620  -20.2140 C   0  0  0  0  0  0  0  0  0  0  0  0
   -6.9580   -1.0470  -18.8990 C   0  0  0  0  0  0  0  0  0  0  0  0
   -6.2570   -0.5730  -17.8420 N   0  0  0  0  0  0  0  0  0  0  0  0
   -5.2290    0.1970  -18.1060 C   0  0  0  0  0  0  0  0  0  0  0  0
   -4.8000    0.5300  -19.4210 C   0  0  0  0  0  0  0  0  0  0  0  0
   -3.6530    1.3400  -19.6390 C   0  0  0  0  0  0  0  0  0  0  0  0
   -3.2280    1.6150  -20.9090 C   0  0  0  0  0  0  0  0  0  0  0  0
   -3.9300    1.0910  -22.0180 C   0  0  0  0  0  0  0  0  0  0  0  0
   -5.0480    0.3110  -21.8350 C   0  0  0  0  0  0  0  0  0  0  0  0
   -5.5290    0.0240  -20.5250 C   0  0  0  0  0  0  0  0  0  0  0  0
   -5.5590   -0.0820  -22.7070 H   0  0  0  0  0  0  0  0  0  0  0  0
   -3.6060    1.3220  -23.0280 H   0  0  0  0  0  0  0  0  0  0  0  0
   -2.3490    2.2350  -21.0700 H   0  0  0  0  0  0  0  0  0  0  0  0
   -3.1330    1.7300  -18.7680 H   0  0  0  0  0  0  0  0  0  0  0  0
   -4.6730    0.5930  -17.2560 H   0  0  0  0  0  0  0  0  0  0  0  0
   -7.7950   -1.7020  -18.6590 H   0  0  0  0  0  0  0  0  0  0  0  0
   -7.3250   -2.7320  -21.5960 C   0  0  0  0  0  0  0  0  0  0  0  0
   -8.5700   -3.0150  -22.4490 C   0  0  2  0  0  0  0  0  0  0  0  0
   -8.3580   -4.0730  -23.5210 C   0  0  0  0  0  0  0  0  0  0  0  0
   -8.1120   -5.3210  -22.9140 O   0  0  0  0  0  0  0  0  0  0  0  0
   -7.5930   -6.2860  -23.8180 C   0  0  0  0  0  0  0  0  0  0  0  0
   -8.1180   -7.6490  -23.4110 C   0  0  0  0  0  0  0  0  0  0  0  0
   -9.2010   -7.7270  -23.5010 H   0  0  0  0  0  0  0  0  0  0  0  0
   -7.8310   -7.8470  -22.3750 H   0  0  0  0  0  0  0  0  0  0  0  0
   -7.6660   -8.4100  -24.0510 H   0  0  0  0  0  0  0  0  0  0  0  0
   -6.0700   -6.3020  -23.7940 C   0  0  0  0  0  0  0  0  0  0  0  0
   -5.7030   -7.0730  -24.4790 H   0  0  0  0  0  0  0  0  0  0  0  0
   -5.7280   -6.5530  -22.7860 H   0  0  0  0  0  0  0  0  0  0  0  0
   -5.6320   -5.3430  -24.0860 H   0  0  0  0  0  0  0  0  0  0  0  0
   -7.9350   -6.0380  -24.8340 H   0  0  0  0  0  0  0  0  0  0  0  0
   -7.5010   -3.7850  -24.1530 H   0  0  0  0  0  0  0  0  0  0  0  0
   -9.2500   -4.1290  -24.1730 H   0  0  0  0  0  0  0  0  0  0  0  0
   -9.3350   -3.3970  -21.7700 H   0  0  0  0  0  0  0  0  0  0  0  0
   -6.3840   -2.8980  -22.1450 H   0  0  0  0  0  0  0  0  0  0  0  0
   -7.2820   -3.3530  -20.6990 H   0  0  0  0  0  0  0  0  0  0  0  0
  -10.5370   -1.4850  -23.1620 C   0  0  0  0  0  0  0  0  0  0  0  0
  -11.4430   -2.1880  -22.3490 C   0  0  0  0  0  0  0  0  0  0  0  0
  -12.8030   -2.0290  -22.5300 C   0  0  0  0  0  0  0  0  0  0  0  0
  -13.6490   -2.7210  -21.7450 F   0  0  0  0  0  0  0  0  0  0  0  0
  -13.3310   -1.2340  -23.5390 C   0  0  0  0  0  0  0  0  0  0  0  0
  -12.4490   -0.5620  -24.3620 C   0  0  0  0  0  0  0  0  0  0  0  0
  -11.0700   -0.6400  -24.1500 C   0  0  0  0  0  0  0  0  0  0  0  0
  -10.1800    0.2230  -24.9940 C   0  0  0  0  0  0  0  0  0  0  0  0
  -10.6210    1.1230  -25.6970 O   0  0  0  0  0  0  0  0  0  0  0  0
  -12.8150    0.0600  -25.1700 H   0  0  0  0  0  0  0  0  0  0  0  0
  -14.4030   -1.1750  -23.6690 H   0  0  0  0  0  0  0  0  0  0  0  0
  -11.1270   -2.8910  -21.5870 H   0  0  0  0  0  0  0  0  0  0  0  0
   -7.2910   -1.2700  -24.2720 H   0  0  0  0  0  0  0  0  0  0  0  0
   -8.6190   -2.1370  -25.0930 H   0  0  0  0  0  0  0  0  0  0  0  0
   -7.2850    0.1710  -26.3090 H   0  0  0  0  0  0  0  0  0  0  0  0
   -8.5610    1.4020  -26.3110 H   0  0  0  0  0  0  0  0  0  0  0  0
   -8.6850    2.5900  -24.0170 H   0  0  0  0  0  0  0  0  0  0  0  0
   -6.5070    2.7560  -22.3480 H   0  0  0  0  0  0  0  0  0  0  0  0
   -7.6290    4.1240  -22.6460 H   0  0  0  0  0  0  0  0  0  0  0  0
   -6.1340    3.9590  -23.6000 H   0  0  0  0  0  0  0  0  0  0  0  0
  1  2  1  0  0  0  0
  1 64  1  0  0  0  0
  1 65  1  0  0  0  0
  1 66  1  0  0  0  0
  2  3  1  0  0  0  0
  2 63  1  0  0  0  0
  3  4  2  0  0  0  0
  3  5  1  0  0  0  0
  5  6  1  0  0  0  0
  5 61  1  0  0  0  0
  5 62  1  0  0  0  0
  6  7  1  0  0  0  0
  6 54  1  0  0  0  0
  7  8  1  0  0  0  0
  7 59  1  0  0  0  0
  7 60  1  0  0  0  0
  8  9  1  1  0  0  0
  8 29  1  0  0  0  0
  8 47  1  0  0  0  0
  9 10  2  0  0  0  0
  9 11  1  0  0  0  0
 11 12  1  0  0  0  0
 11 28  1  0  0  0  0
 12 13  2  0  0  0  0
 12 21  1  0  0  0  0
 13 14  1  0  0  0  0
 13 27  1  0  0  0  0
 14 15  2  0  0  0  0
 15 16  1  0  0  0  0
 15 26  1  0  0  0  0
 16 17  2  0  0  0  0
 16 21  1  0  0  0  0
 17 18  1  0  0  0  0
 17 25  1  0  0  0  0
 18 19  2  0  0  0  0
 18 24  1  0  0  0  0
 19 20  1  0  0  0  0
 19 23  1  0  0  0  0
 20 21  2  0  0  0  0
 20 22  1  0  0  0  0
 28 29  1  0  0  0  0
 28 45  1  0  0  0  0
 28 46  1  0  0  0  0
 29 30  1  0  0  0  0
 29 44  1  1  0  0  0
 30 31  1  0  0  0  0
 30 42  1  0  0  0  0
 30 43  1  0  0  0  0
 31 32  1  0  0  0  0
 32 33  1  0  0  0  0
 32 37  1  0  0  0  0
 32 41  1  0  0  0  0
 33 34  1  0  0  0  0
 33 35  1  0  0  0  0
 33 36  1  0  0  0  0
 37 38  1  0  0  0  0
 37 39  1  0  0  0  0
 37 40  1  0  0  0  0
 47 48  2  0  0  0  0
 47 53  1  0  0  0  0
 48 49  1  0  0  0  0
 48 58  1  0  0  0  0
 49 50  1  0  0  0  0
 49 51  2  0  0  0  0
 51 52  1  0  0  0  0
 51 57  1  0  0  0  0
 52 53  2  0  0  0  0
 52 56  1  0  0  0  0
 53 54  1  0  0  0  0
 54 55  2  0  0  0  0
M  END
>  <MODEL>
       1

$$$$
