tmp_first_model_16_18.pdb
 OpenBabel08282501503D

 56 61  0  0  1  0  0  0  0  0999 V2000
  -10.4210   -0.9860  -23.4080 C   0  0  0  0  0  0  0  0  0  0  0  0
   -9.0060   -1.4020  -23.0200 C   0  0  1  0  0  0  0  0  0  0  0  0
   -8.3840   -0.5070  -21.9360 C   0  0  0  0  0  0  0  0  0  0  0  0
   -7.4090   -1.3850  -21.3000 N   0  0  0  0  0  0  0  0  0  0  0  0
   -6.5680   -0.9760  -20.2400 C   0  0  0  0  0  0  0  0  0  0  0  0
   -6.8530   -1.3310  -18.9470 C   0  0  0  0  0  0  0  0  0  0  0  0
   -6.1040   -0.9650  -17.8790 N   0  0  0  0  0  0  0  0  0  0  0  0
   -5.0600   -0.2040  -18.1010 C   0  0  0  0  0  0  0  0  0  0  0  0
   -4.6790    0.2740  -19.3880 C   0  0  0  0  0  0  0  0  0  0  0  0
   -3.5850    1.1600  -19.5800 C   0  0  0  0  0  0  0  0  0  0  0  0
   -3.2360    1.5610  -20.8400 C   0  0  0  0  0  0  0  0  0  0  0  0
   -3.9470    1.0840  -21.9660 C   0  0  0  0  0  0  0  0  0  0  0  0
   -5.0220    0.2460  -21.8030 C   0  0  0  0  0  0  0  0  0  0  0  0
   -5.4330   -0.1490  -20.5040 C   0  0  0  0  0  0  0  0  0  0  0  0
   -5.5680   -0.1300  -22.6630 H   0  0  0  0  0  0  0  0  0  0  0  0
   -3.6380    1.3850  -22.9620 H   0  0  0  0  0  0  0  0  0  0  0  0
   -2.4040    2.2440  -20.9890 H   0  0  0  0  0  0  0  0  0  0  0  0
   -3.0520    1.5190  -18.7020 H   0  0  0  0  0  0  0  0  0  0  0  0
   -4.4490    0.0580  -17.2370 H   0  0  0  0  0  0  0  0  0  0  0  0
   -7.7250   -1.9450  -18.7270 H   0  0  0  0  0  0  0  0  0  0  0  0
   -7.7020   -2.7210  -21.4710 C   0  0  0  0  0  0  0  0  0  0  0  0
   -7.1200   -3.6290  -20.9090 O   0  0  0  0  0  0  0  0  0  0  0  0
   -8.8590   -2.8610  -22.4610 C   0  0  1  0  0  0  0  0  0  0  0  0
  -10.0840   -3.3100  -21.6270 C   0  0  0  0  0  0  0  0  0  0  0  0
  -11.1830   -3.8030  -22.4390 N   0  0  0  0  0  0  0  0  0  0  0  0
  -12.5520   -3.7160  -21.9530 C   0  0  0  0  0  0  0  0  0  0  0  0
  -13.3640   -2.5830  -22.4930 C   0  0  0  0  0  0  0  0  0  0  0  0
  -13.9960   -2.4790  -23.7560 C   0  0  0  0  0  0  0  0  0  0  0  0
  -14.7110   -1.3100  -23.6780 C   0  0  0  0  0  0  0  0  0  0  0  0
  -14.4850   -0.8010  -22.4450 N   0  0  0  0  0  0  0  0  0  0  0  0
  -13.6610   -1.5560  -21.7090 N   0  0  0  0  0  0  0  0  0  0  0  0
  -14.8910    0.0010  -22.0000 H   0  0  0  0  0  0  0  0  0  0  0  0
  -15.3320   -0.8140  -24.4000 H   0  0  0  0  0  0  0  0  0  0  0  0
  -13.9640   -3.1810  -24.5800 H   0  0  0  0  0  0  0  0  0  0  0  0
  -13.0450   -4.6380  -22.2730 H   0  0  0  0  0  0  0  0  0  0  0  0
  -12.5350   -3.6310  -20.8630 H   0  0  0  0  0  0  0  0  0  0  0  0
  -10.9990   -4.4830  -23.6120 C   0  0  0  0  0  0  0  0  0  0  0  0
  -11.9480   -4.8550  -24.2940 O   0  0  0  0  0  0  0  0  0  0  0  0
   -9.5820   -4.7150  -24.0280 C   0  0  0  0  0  0  0  0  0  0  0  0
   -9.3000   -5.7330  -24.9420 C   0  0  0  0  0  0  0  0  0  0  0  0
   -8.0160   -5.9310  -25.4160 C   0  0  0  0  0  0  0  0  0  0  0  0
   -7.0180   -5.0780  -24.9550 C   0  0  0  0  0  0  0  0  0  0  0  0
   -5.7710   -5.2350  -25.4270 F   0  0  0  0  0  0  0  0  0  0  0  0
   -7.2570   -4.0990  -24.0090 C   0  0  0  0  0  0  0  0  0  0  0  0
   -8.5560   -3.9130  -23.5150 C   0  0  0  0  0  0  0  0  0  0  0  0
   -6.4190   -3.5320  -23.6170 H   0  0  0  0  0  0  0  0  0  0  0  0
   -7.7710   -6.7350  -26.1050 H   0  0  0  0  0  0  0  0  0  0  0  0
  -10.1110   -6.3790  -25.2680 H   0  0  0  0  0  0  0  0  0  0  0  0
   -9.7470   -4.0760  -20.9210 H   0  0  0  0  0  0  0  0  0  0  0  0
  -10.4580   -2.4650  -21.0370 H   0  0  0  0  0  0  0  0  0  0  0  0
   -9.1400   -0.1610  -21.2120 H   0  0  0  0  0  0  0  0  0  0  0  0
   -7.9040    0.3840  -22.3490 H   0  0  0  0  0  0  0  0  0  0  0  0
   -8.3570   -1.3630  -23.9040 H   0  0  0  0  0  0  0  0  0  0  0  0
  -10.8610   -1.7170  -24.0910 H   0  0  0  0  0  0  0  0  0  0  0  0
  -11.0700   -0.9240  -22.5290 H   0  0  0  0  0  0  0  0  0  0  0  0
  -10.4330   -0.0090  -23.8970 H   0  0  0  0  0  0  0  0  0  0  0  0
  1  2  1  0  0  0  0
  1 54  1  0  0  0  0
  1 55  1  0  0  0  0
  1 56  1  0  0  0  0
  2  3  1  0  0  0  0
  2 23  1  0  0  0  0
  2 53  1  6  0  0  0
  3  4  1  0  0  0  0
  3 51  1  0  0  0  0
  3 52  1  0  0  0  0
  4  5  1  0  0  0  0
  4 21  1  0  0  0  0
  5  6  2  0  0  0  0
  5 14  1  0  0  0  0
  6  7  1  0  0  0  0
  6 20  1  0  0  0  0
  7  8  2  0  0  0  0
  8  9  1  0  0  0  0
  8 19  1  0  0  0  0
  9 10  2  0  0  0  0
  9 14  1  0  0  0  0
 10 11  1  0  0  0  0
 10 18  1  0  0  0  0
 11 12  2  0  0  0  0
 11 17  1  0  0  0  0
 12 13  1  0  0  0  0
 12 16  1  0  0  0  0
 13 14  2  0  0  0  0
 13 15  1  0  0  0  0
 21 22  2  0  0  0  0
 23 21  1  1  0  0  0
 23 24  1  0  0  0  0
 23 45  1  0  0  0  0
 24 25  1  0  0  0  0
 24 49  1  0  0  0  0
 24 50  1  0  0  0  0
 25 26  1  0  0  0  0
 25 37  1  0  0  0  0
 26 27  1  0  0  0  0
 26 35  1  0  0  0  0
 26 36  1  0  0  0  0
 27 28  1  0  0  0  0
 27 31  2  0  0  0  0
 28 29  2  0  0  0  0
 28 34  1  0  0  0  0
 29 30  1  0  0  0  0
 29 33  1  0  0  0  0
 30 31  1  0  0  0  0
 30 32  1  0  0  0  0
 37 38  2  0  0  0  0
 37 39  1  0  0  0  0
 39 40  2  0  0  0  0
 39 45  1  0  0  0  0
 40 41  1  0  0  0  0
 40 48  1  0  0  0  0
 41 42  2  0  0  0  0
 41 47  1  0  0  0  0
 42 43  1  0  0  0  0
 42 44  1  0  0  0  0
 44 45  2  0  0  0  0
 44 46  1  0  0  0  0
M  END
>  <MODEL>
       1

$$$$
