tmp_first_model_2_43.pdb
 OpenBabel08272517383D

 67 72  0  0  1  0  0  0  0  0999 V2000
   -8.5410    0.5050  -29.6390 C   0  0  0  0  0  0  0  0  0  0  0  0
   -8.3430   -0.6070  -28.7320 N   0  0  0  0  0  0  0  0  0  0  0  0
   -7.6010   -0.4770  -27.6050 C   0  0  0  0  0  0  0  0  0  0  0  0
   -7.1350    0.5900  -27.2290 O   0  0  0  0  0  0  0  0  0  0  0  0
   -7.3360   -1.7960  -26.8510 C   0  0  0  0  0  0  0  0  0  0  0  0
   -8.1750   -1.9320  -25.6590 N   0  0  0  0  0  0  0  0  0  0  0  0
   -7.8190   -1.1980  -24.4520 C   0  0  0  0  0  0  0  0  0  0  0  0
   -8.6520   -1.6280  -23.2170 C   0  0  2  0  0  0  0  0  0  0  0  0
   -8.2290   -0.7030  -22.0570 C   0  0  0  0  0  0  0  0  0  0  0  0
   -8.5300    0.4570  -21.8780 O   0  0  0  0  0  0  0  0  0  0  0  0
   -7.3650   -1.4100  -21.2330 N   0  0  0  0  0  0  0  0  0  0  0  0
   -6.6110   -0.8040  -20.1930 C   0  0  0  0  0  0  0  0  0  0  0  0
   -6.9210   -1.0650  -18.8820 C   0  0  0  0  0  0  0  0  0  0  0  0
   -6.2580   -0.5550  -17.8140 N   0  0  0  0  0  0  0  0  0  0  0  0
   -5.2320    0.2240  -18.0600 C   0  0  0  0  0  0  0  0  0  0  0  0
   -4.7690    0.5430  -19.3690 C   0  0  0  0  0  0  0  0  0  0  0  0
   -3.6270    1.3630  -19.5830 C   0  0  0  0  0  0  0  0  0  0  0  0
   -3.1880    1.6210  -20.8530 C   0  0  0  0  0  0  0  0  0  0  0  0
   -3.8680    1.0780  -21.9660 C   0  0  0  0  0  0  0  0  0  0  0  0
   -4.9790    0.2940  -21.7840 C   0  0  0  0  0  0  0  0  0  0  0  0
   -5.4660    0.0130  -20.4760 C   0  0  0  0  0  0  0  0  0  0  0  0
   -5.4910   -0.1240  -22.6450 H   0  0  0  0  0  0  0  0  0  0  0  0
   -3.5150    1.2910  -22.9710 H   0  0  0  0  0  0  0  0  0  0  0  0
   -2.3200    2.2540  -21.0180 H   0  0  0  0  0  0  0  0  0  0  0  0
   -3.1210    1.7830  -18.7180 H   0  0  0  0  0  0  0  0  0  0  0  0
   -4.7050    0.6370  -17.1990 H   0  0  0  0  0  0  0  0  0  0  0  0
   -7.7590   -1.7210  -18.6500 H   0  0  0  0  0  0  0  0  0  0  0  0
   -7.1350   -2.7810  -21.6510 C   0  0  0  0  0  0  0  0  0  0  0  0
   -8.3290   -3.0170  -22.5770 C   0  0  2  0  0  0  0  0  0  0  0  0
   -8.2450   -4.2100  -23.5170 C   0  0  0  0  0  0  0  0  0  0  0  0
   -7.0030   -4.2920  -24.2350 N   0  0  0  0  0  0  0  0  0  0  0  0
   -5.9630   -5.0780  -23.8510 C   0  0  0  0  0  0  0  0  0  0  0  0
   -6.1370   -6.2340  -22.5480 S   0  0  0  0  0  0  0  0  0  0  0  0
   -4.5360   -6.7790  -22.8830 C   0  0  0  0  0  0  0  0  0  0  0  0
   -3.9230   -6.1540  -23.8330 N   0  0  0  0  0  0  0  0  0  0  0  0
   -4.7230   -5.1890  -24.4150 C   0  0  0  0  0  0  0  0  0  0  0  0
   -4.1700   -4.3820  -25.5580 C   0  0  0  0  0  0  0  0  0  0  0  0
   -4.2410   -3.2950  -25.3980 H   0  0  0  0  0  0  0  0  0  0  0  0
   -4.7010   -4.6010  -26.4950 H   0  0  0  0  0  0  0  0  0  0  0  0
   -3.1150   -4.6390  -25.6990 H   0  0  0  0  0  0  0  0  0  0  0  0
   -4.1290   -7.6050  -22.3170 H   0  0  0  0  0  0  0  0  0  0  0  0
   -6.8700   -3.6320  -24.9850 H   0  0  0  0  0  0  0  0  0  0  0  0
   -9.0690   -4.1730  -24.2360 H   0  0  0  0  0  0  0  0  0  0  0  0
   -8.3730   -5.1260  -22.9380 H   0  0  0  0  0  0  0  0  0  0  0  0
   -9.1930   -3.2030  -21.9230 H   0  0  0  0  0  0  0  0  0  0  0  0
   -7.1270   -3.4470  -20.7820 H   0  0  0  0  0  0  0  0  0  0  0  0
   -6.1720   -2.9000  -22.1750 H   0  0  0  0  0  0  0  0  0  0  0  0
  -10.1210   -1.5710  -23.6010 C   0  0  0  0  0  0  0  0  0  0  0  0
  -11.1130   -1.4290  -22.6220 C   0  0  0  0  0  0  0  0  0  0  0  0
  -12.4520   -1.5120  -22.9810 C   0  0  0  0  0  0  0  0  0  0  0  0
  -13.7190   -1.5030  -21.7880 Cl  0  0  0  0  0  0  0  0  0  0  0  0
  -12.8390   -1.6580  -24.3120 C   0  0  0  0  0  0  0  0  0  0  0  0
  -11.8650   -1.8390  -25.2720 C   0  0  0  0  0  0  0  0  0  0  0  0
  -10.5130   -1.8470  -24.9160 C   0  0  0  0  0  0  0  0  0  0  0  0
   -9.4870   -2.2390  -25.9360 C   0  0  0  0  0  0  0  0  0  0  0  0
   -9.7900   -2.7870  -26.9880 O   0  0  0  0  0  0  0  0  0  0  0  0
  -12.1600   -2.0080  -26.3000 H   0  0  0  0  0  0  0  0  0  0  0  0
  -13.8940   -1.7310  -24.5630 H   0  0  0  0  0  0  0  0  0  0  0  0
  -10.8210   -1.3060  -21.5860 H   0  0  0  0  0  0  0  0  0  0  0  0
   -6.7480   -1.3420  -24.2490 H   0  0  0  0  0  0  0  0  0  0  0  0
   -7.9890   -0.1210  -24.5980 H   0  0  0  0  0  0  0  0  0  0  0  0
   -7.5600   -2.6500  -27.5000 H   0  0  0  0  0  0  0  0  0  0  0  0
   -6.2760   -1.8010  -26.5700 H   0  0  0  0  0  0  0  0  0  0  0  0
   -8.9010   -1.4380  -28.8410 H   0  0  0  0  0  0  0  0  0  0  0  0
   -9.1130    0.1550  -30.5020 H   0  0  0  0  0  0  0  0  0  0  0  0
   -7.5760    0.8840  -29.9880 H   0  0  0  0  0  0  0  0  0  0  0  0
   -9.0710    1.3350  -29.1610 H   0  0  0  0  0  0  0  0  0  0  0  0
  1  2  1  0  0  0  0
  1 65  1  0  0  0  0
  1 66  1  0  0  0  0
  1 67  1  0  0  0  0
  2  3  1  0  0  0  0
  2 64  1  0  0  0  0
  3  4  2  0  0  0  0
  3  5  1  0  0  0  0
  5  6  1  0  0  0  0
  5 62  1  0  0  0  0
  5 63  1  0  0  0  0
  6  7  1  0  0  0  0
  6 55  1  0  0  0  0
  7  8  1  0  0  0  0
  7 60  1  0  0  0  0
  7 61  1  0  0  0  0
  8  9  1  1  0  0  0
  8 29  1  0  0  0  0
  8 48  1  0  0  0  0
  9 10  2  0  0  0  0
  9 11  1  0  0  0  0
 11 12  1  0  0  0  0
 11 28  1  0  0  0  0
 12 13  2  0  0  0  0
 12 21  1  0  0  0  0
 13 14  1  0  0  0  0
 13 27  1  0  0  0  0
 14 15  2  0  0  0  0
 15 16  1  0  0  0  0
 15 26  1  0  0  0  0
 16 17  2  0  0  0  0
 16 21  1  0  0  0  0
 17 18  1  0  0  0  0
 17 25  1  0  0  0  0
 18 19  2  0  0  0  0
 18 24  1  0  0  0  0
 19 20  1  0  0  0  0
 19 23  1  0  0  0  0
 20 21  2  0  0  0  0
 20 22  1  0  0  0  0
 28 29  1  0  0  0  0
 28 46  1  0  0  0  0
 28 47  1  0  0  0  0
 29 30  1  0  0  0  0
 29 45  1  1  0  0  0
 30 31  1  0  0  0  0
 30 43  1  0  0  0  0
 30 44  1  0  0  0  0
 31 32  1  0  0  0  0
 31 42  1  0  0  0  0
 32 33  1  0  0  0  0
 32 36  2  0  0  0  0
 33 34  1  0  0  0  0
 34 35  2  0  0  0  0
 34 41  1  0  0  0  0
 35 36  1  0  0  0  0
 36 37  1  0  0  0  0
 37 38  1  0  0  0  0
 37 39  1  0  0  0  0
 37 40  1  0  0  0  0
 48 49  2  0  0  0  0
 48 54  1  0  0  0  0
 49 50  1  0  0  0  0
 49 59  1  0  0  0  0
 50 51  1  0  0  0  0
 50 52  2  0  0  0  0
 52 53  1  0  0  0  0
 52 58  1  0  0  0  0
 53 54  2  0  0  0  0
 53 57  1  0  0  0  0
 54 55  1  0  0  0  0
 55 56  2  0  0  0  0
M  END
>  <MODEL>
       1

$$$$
