tmp_first_model_2_36.pdb
 OpenBabel08272517383D

 47 50  0  0  1  0  0  0  0  0999 V2000
   -8.6850    0.6160  -21.3600 O   0  0  0  0  0  0  0  0  0  0  0  0
   -8.3370   -0.3830  -21.9600 C   0  0  0  0  0  0  0  0  0  0  0  0
   -7.4340   -1.4320  -21.2720 C   0  0  0  0  0  0  0  0  0  0  0  0
   -6.5780   -0.8320  -20.1790 C   0  0  0  0  0  0  0  0  0  0  0  0
   -6.8790   -1.0390  -18.8590 C   0  0  0  0  0  0  0  0  0  0  0  0
   -6.1960   -0.5340  -17.7950 N   0  0  0  0  0  0  0  0  0  0  0  0
   -5.1590    0.2220  -18.0630 C   0  0  0  0  0  0  0  0  0  0  0  0
   -4.7240    0.5330  -19.3800 C   0  0  0  0  0  0  0  0  0  0  0  0
   -3.5990    1.3640  -19.6210 C   0  0  0  0  0  0  0  0  0  0  0  0
   -3.2080    1.6560  -20.9000 C   0  0  0  0  0  0  0  0  0  0  0  0
   -3.9300    1.1260  -21.9930 C   0  0  0  0  0  0  0  0  0  0  0  0
   -5.0230    0.3200  -21.7870 C   0  0  0  0  0  0  0  0  0  0  0  0
   -5.4530   -0.0020  -20.4720 C   0  0  0  0  0  0  0  0  0  0  0  0
   -5.5660   -0.0720  -22.6430 H   0  0  0  0  0  0  0  0  0  0  0  0
   -3.6180    1.3660  -23.0050 H   0  0  0  0  0  0  0  0  0  0  0  0
   -2.3500    2.2990  -21.0860 H   0  0  0  0  0  0  0  0  0  0  0  0
   -3.0610    1.7740  -18.7700 H   0  0  0  0  0  0  0  0  0  0  0  0
   -4.6030    0.6270  -17.2150 H   0  0  0  0  0  0  0  0  0  0  0  0
   -7.7300   -1.6590  -18.5840 H   0  0  0  0  0  0  0  0  0  0  0  0
   -8.0860   -2.1990  -20.8320 H   0  0  0  0  0  0  0  0  0  0  0  0
   -6.8080   -1.9520  -22.0110 H   0  0  0  0  0  0  0  0  0  0  0  0
   -8.6800   -0.6050  -23.2870 N   0  0  0  0  0  0  0  0  0  0  0  0
   -9.1590    0.5340  -24.0700 C   0  0  0  0  0  0  0  0  0  0  0  0
  -10.6770    0.5440  -24.2200 C   0  0  0  0  0  0  0  0  0  0  0  0
  -11.1730   -0.7910  -24.7680 C   0  0  0  0  0  0  0  0  0  0  0  0
  -10.6200   -1.9440  -23.9330 C   0  0  0  0  0  0  0  0  0  0  0  0
   -9.0820   -1.9140  -23.8220 C   0  0  1  0  0  0  0  0  0  0  0  0
   -8.3310   -2.2540  -25.1130 C   0  0  0  0  0  0  0  0  0  0  0  0
   -6.9740   -1.9280  -25.2100 C   0  0  0  0  0  0  0  0  0  0  0  0
   -6.2260   -2.2420  -26.3380 C   0  0  0  0  0  0  0  0  0  0  0  0
   -6.8150   -2.9050  -27.4070 C   0  0  0  0  0  0  0  0  0  0  0  0
   -8.1570   -3.2570  -27.3200 C   0  0  0  0  0  0  0  0  0  0  0  0
   -8.9050   -2.9410  -26.1870 C   0  0  0  0  0  0  0  0  0  0  0  0
   -9.9450   -3.2480  -26.1590 H   0  0  0  0  0  0  0  0  0  0  0  0
   -8.6290   -3.7900  -28.1400 H   0  0  0  0  0  0  0  0  0  0  0  0
   -6.2340   -3.1500  -28.2920 H   0  0  0  0  0  0  0  0  0  0  0  0
   -5.1770   -1.9650  -26.3810 H   0  0  0  0  0  0  0  0  0  0  0  0
   -6.4800   -1.4150  -24.3910 H   0  0  0  0  0  0  0  0  0  0  0  0
   -8.7910   -2.6570  -23.0730 H   0  0  0  0  0  0  0  0  0  0  0  0
  -10.9600   -2.9120  -24.3150 H   0  0  0  0  0  0  0  0  0  0  0  0
  -11.0260   -1.8740  -22.9180 H   0  0  0  0  0  0  0  0  0  0  0  0
  -10.8500   -0.9080  -25.8100 H   0  0  0  0  0  0  0  0  0  0  0  0
  -12.2680   -0.8150  -24.7750 H   0  0  0  0  0  0  0  0  0  0  0  0
  -10.9880    1.3660  -24.8770 H   0  0  0  0  0  0  0  0  0  0  0  0
  -11.1160    0.7400  -23.2370 H   0  0  0  0  0  0  0  0  0  0  0  0
   -8.8060    1.4510  -23.5990 H   0  0  0  0  0  0  0  0  0  0  0  0
   -8.7000    0.4720  -25.0630 H   0  0  0  0  0  0  0  0  0  0  0  0
  1  2  2  0  0  0  0
  2  3  1  0  0  0  0
  2 22  1  0  0  0  0
  3  4  1  0  0  0  0
  3 20  1  0  0  0  0
  3 21  1  0  0  0  0
  4  5  2  0  0  0  0
  4 13  1  0  0  0  0
  5  6  1  0  0  0  0
  5 19  1  0  0  0  0
  6  7  2  0  0  0  0
  7  8  1  0  0  0  0
  7 18  1  0  0  0  0
  8  9  2  0  0  0  0
  8 13  1  0  0  0  0
  9 10  1  0  0  0  0
  9 17  1  0  0  0  0
 10 11  2  0  0  0  0
 10 16  1  0  0  0  0
 11 12  1  0  0  0  0
 11 15  1  0  0  0  0
 12 13  2  0  0  0  0
 12 14  1  0  0  0  0
 22 23  1  0  0  0  0
 22 27  1  0  0  0  0
 23 24  1  0  0  0  0
 23 46  1  0  0  0  0
 23 47  1  0  0  0  0
 24 25  1  0  0  0  0
 24 44  1  0  0  0  0
 24 45  1  0  0  0  0
 25 26  1  0  0  0  0
 25 42  1  0  0  0  0
 25 43  1  0  0  0  0
 26 27  1  0  0  0  0
 26 40  1  0  0  0  0
 26 41  1  0  0  0  0
 27 28  1  0  0  0  0
 27 39  1  1  0  0  0
 28 29  2  0  0  0  0
 28 33  1  0  0  0  0
 29 30  1  0  0  0  0
 29 38  1  0  0  0  0
 30 31  2  0  0  0  0
 30 37  1  0  0  0  0
 31 32  1  0  0  0  0
 31 36  1  0  0  0  0
 32 33  2  0  0  0  0
 32 35  1  0  0  0  0
 33 34  1  0  0  0  0
M  END
>  <MODEL>
       1

$$$$
