tmp_first_model_13_46.pdb
 OpenBabel08282500103D

 50 54  0  0  1  0  0  0  0  0999 V2000
  -10.4360   -1.1220  -23.3000 C   0  0  0  0  0  0  0  0  0  0  0  0
   -8.9930   -1.4640  -22.9560 C   0  0  1  0  0  0  0  0  0  0  0  0
   -8.3900   -0.5130  -21.9090 C   0  0  0  0  0  0  0  0  0  0  0  0
   -7.3950   -1.3370  -21.2400 N   0  0  0  0  0  0  0  0  0  0  0  0
   -6.5780   -0.8440  -20.1960 C   0  0  0  0  0  0  0  0  0  0  0  0
   -6.8830   -1.0960  -18.8800 C   0  0  0  0  0  0  0  0  0  0  0  0
   -6.2080   -0.5660  -17.8320 N   0  0  0  0  0  0  0  0  0  0  0  0
   -5.1920    0.2150  -18.0950 C   0  0  0  0  0  0  0  0  0  0  0  0
   -4.7460    0.5260  -19.4120 C   0  0  0  0  0  0  0  0  0  0  0  0
   -3.6180    1.3520  -19.6460 C   0  0  0  0  0  0  0  0  0  0  0  0
   -3.2160    1.6160  -20.9260 C   0  0  0  0  0  0  0  0  0  0  0  0
   -3.9160    1.0680  -22.0240 C   0  0  0  0  0  0  0  0  0  0  0  0
   -5.0120    0.2650  -21.8220 C   0  0  0  0  0  0  0  0  0  0  0  0
   -5.4560   -0.0140  -20.5030 C   0  0  0  0  0  0  0  0  0  0  0  0
   -5.5330   -0.1710  -22.6680 H   0  0  0  0  0  0  0  0  0  0  0  0
   -3.5860    1.2810  -23.0350 H   0  0  0  0  0  0  0  0  0  0  0  0
   -2.3600    2.2580  -21.1070 H   0  0  0  0  0  0  0  0  0  0  0  0
   -3.0910    1.7640  -18.7900 H   0  0  0  0  0  0  0  0  0  0  0  0
   -4.6550    0.6340  -17.2460 H   0  0  0  0  0  0  0  0  0  0  0  0
   -7.7240   -1.7390  -18.6350 H   0  0  0  0  0  0  0  0  0  0  0  0
   -7.5540   -2.6890  -21.4640 C   0  0  0  0  0  0  0  0  0  0  0  0
   -6.8140   -3.5520  -21.0340 O   0  0  0  0  0  0  0  0  0  0  0  0
   -8.7840   -2.9000  -22.3560 C   0  0  1  0  0  0  0  0  0  0  0  0
   -9.9780   -3.3370  -21.4750 C   0  0  0  0  0  0  0  0  0  0  0  0
  -11.1200   -3.7380  -22.2890 N   0  0  0  0  0  0  0  0  0  0  0  0
  -12.4810   -3.5320  -21.8480 C   0  0  0  0  0  0  0  0  0  0  0  0
  -13.3160   -2.6970  -22.7270 C   0  0  0  0  0  0  0  0  0  0  0  0
  -14.0530   -2.0280  -23.3200 N   0  0  0  0  0  0  0  0  0  0  0  0
  -12.5010   -3.0660  -20.8650 H   0  0  0  0  0  0  0  0  0  0  0  0
  -12.9810   -4.4890  -21.7790 H   0  0  0  0  0  0  0  0  0  0  0  0
  -10.9720   -4.5610  -23.3780 C   0  0  0  0  0  0  0  0  0  0  0  0
  -11.9240   -5.0610  -23.9530 O   0  0  0  0  0  0  0  0  0  0  0  0
   -9.5740   -4.7850  -23.8430 C   0  0  0  0  0  0  0  0  0  0  0  0
   -9.3360   -5.7870  -24.7870 C   0  0  0  0  0  0  0  0  0  0  0  0
   -8.0790   -5.9430  -25.3460 C   0  0  0  0  0  0  0  0  0  0  0  0
   -7.0690   -5.0800  -24.9300 C   0  0  0  0  0  0  0  0  0  0  0  0
   -5.8530   -5.1930  -25.4900 F   0  0  0  0  0  0  0  0  0  0  0  0
   -7.2650   -4.1180  -23.9580 C   0  0  0  0  0  0  0  0  0  0  0  0
   -8.5350   -3.9700  -23.3900 C   0  0  0  0  0  0  0  0  0  0  0  0
   -6.4250   -3.5120  -23.6320 H   0  0  0  0  0  0  0  0  0  0  0  0
   -7.8680   -6.7020  -26.0970 H   0  0  0  0  0  0  0  0  0  0  0  0
  -10.1560   -6.4320  -25.0850 H   0  0  0  0  0  0  0  0  0  0  0  0
   -9.6710   -4.1670  -20.8250 H   0  0  0  0  0  0  0  0  0  0  0  0
  -10.2580   -2.4700  -20.8650 H   0  0  0  0  0  0  0  0  0  0  0  0
   -9.1610   -0.1590  -21.2010 H   0  0  0  0  0  0  0  0  0  0  0  0
   -7.9280    0.3690  -22.3670 H   0  0  0  0  0  0  0  0  0  0  0  0
   -8.3760   -1.4270  -23.8670 H   0  0  0  0  0  0  0  0  0  0  0  0
  -10.5210   -0.1450  -23.7820 H   0  0  0  0  0  0  0  0  0  0  0  0
  -11.0390   -1.1100  -22.3840 H   0  0  0  0  0  0  0  0  0  0  0  0
  -10.8550   -1.8860  -23.9600 H   0  0  0  0  0  0  0  0  0  0  0  0
  1  2  1  0  0  0  0
  1 48  1  0  0  0  0
  1 49  1  0  0  0  0
  1 50  1  0  0  0  0
  2  3  1  0  0  0  0
  2 23  1  0  0  0  0
  2 47  1  6  0  0  0
  3  4  1  0  0  0  0
  3 45  1  0  0  0  0
  3 46  1  0  0  0  0
  4  5  1  0  0  0  0
  4 21  1  0  0  0  0
  5  6  2  0  0  0  0
  5 14  1  0  0  0  0
  6  7  1  0  0  0  0
  6 20  1  0  0  0  0
  7  8  2  0  0  0  0
  8  9  1  0  0  0  0
  8 19  1  0  0  0  0
  9 10  2  0  0  0  0
  9 14  1  0  0  0  0
 10 11  1  0  0  0  0
 10 18  1  0  0  0  0
 11 12  2  0  0  0  0
 11 17  1  0  0  0  0
 12 13  1  0  0  0  0
 12 16  1  0  0  0  0
 13 14  2  0  0  0  0
 13 15  1  0  0  0  0
 21 22  2  0  0  0  0
 23 21  1  1  0  0  0
 23 24  1  0  0  0  0
 23 39  1  0  0  0  0
 24 25  1  0  0  0  0
 24 43  1  0  0  0  0
 24 44  1  0  0  0  0
 25 26  1  0  0  0  0
 25 31  1  0  0  0  0
 26 27  1  0  0  0  0
 26 29  1  0  0  0  0
 26 30  1  0  0  0  0
 27 28  3  0  0  0  0
 31 32  2  0  0  0  0
 31 33  1  0  0  0  0
 33 34  2  0  0  0  0
 33 39  1  0  0  0  0
 34 35  1  0  0  0  0
 34 42  1  0  0  0  0
 35 36  2  0  0  0  0
 35 41  1  0  0  0  0
 36 37  1  0  0  0  0
 36 38  1  0  0  0  0
 38 39  2  0  0  0  0
 38 40  1  0  0  0  0
M  END
>  <MODEL>
       1

$$$$
