tmp_first_model_10_8.pdb
 OpenBabel08272522163D

 60 64  0  0  1  0  0  0  0  0999 V2000
   -7.3950    3.4040  -21.8470 C   0  0  0  0  0  0  0  0  0  0  0  0
   -8.2790    2.9560  -22.9030 N   0  0  0  0  0  0  0  0  0  0  0  0
   -7.7240    2.2230  -23.9050 C   0  0  0  0  0  0  0  0  0  0  0  0
   -6.5160    2.0800  -24.0120 O   0  0  0  0  0  0  0  0  0  0  0  0
   -8.6830    1.6000  -24.9100 C   0  0  0  0  0  0  0  0  0  0  0  0
   -9.3870    0.4590  -24.3720 N   0  0  0  0  0  0  0  0  0  0  0  0
   -8.6620   -0.7880  -24.1970 C   0  0  0  0  0  0  0  0  0  0  0  0
   -9.0500   -1.5000  -22.8850 C   0  0  2  0  0  0  0  0  0  0  0  0
   -8.5090   -0.7250  -21.6640 C   0  0  0  0  0  0  0  0  0  0  0  0
   -8.9450    0.3000  -21.1810 O   0  0  0  0  0  0  0  0  0  0  0  0
   -7.4080   -1.3850  -21.1790 N   0  0  0  0  0  0  0  0  0  0  0  0
   -6.6230   -0.8000  -20.1550 C   0  0  0  0  0  0  0  0  0  0  0  0
   -6.9260   -1.0570  -18.8420 C   0  0  0  0  0  0  0  0  0  0  0  0
   -6.2150   -0.5840  -17.7890 N   0  0  0  0  0  0  0  0  0  0  0  0
   -5.2010    0.2060  -18.0560 C   0  0  0  0  0  0  0  0  0  0  0  0
   -4.7990    0.5800  -19.3740 C   0  0  0  0  0  0  0  0  0  0  0  0
   -3.6680    1.4050  -19.6230 C   0  0  0  0  0  0  0  0  0  0  0  0
   -3.3680    1.8190  -20.8950 C   0  0  0  0  0  0  0  0  0  0  0  0
   -4.1740    1.4050  -21.9830 C   0  0  0  0  0  0  0  0  0  0  0  0
   -5.1690    0.4760  -21.7870 C   0  0  0  0  0  0  0  0  0  0  0  0
   -5.5320    0.0660  -20.4700 C   0  0  0  0  0  0  0  0  0  0  0  0
   -5.7060    0.0720  -22.6410 H   0  0  0  0  0  0  0  0  0  0  0  0
   -3.9840    1.7860  -22.9860 H   0  0  0  0  0  0  0  0  0  0  0  0
   -2.5080    2.4630  -21.0720 H   0  0  0  0  0  0  0  0  0  0  0  0
   -3.0790    1.7290  -18.7700 H   0  0  0  0  0  0  0  0  0  0  0  0
   -4.6220    0.5800  -17.2090 H   0  0  0  0  0  0  0  0  0  0  0  0
   -7.7890   -1.6760  -18.6000 H   0  0  0  0  0  0  0  0  0  0  0  0
   -7.0690   -2.5890  -21.9060 C   0  0  0  0  0  0  0  0  0  0  0  0
   -8.3260   -2.8720  -22.7390 C   0  0  2  0  0  0  0  0  0  0  0  0
   -7.9640   -3.6360  -24.0050 C   0  0  0  0  0  0  0  0  0  0  0  0
   -9.1270   -3.9280  -24.7340 O   0  0  0  0  0  0  0  0  0  0  0  0
   -8.8360   -4.5640  -25.9550 C   0  0  0  0  0  0  0  0  0  0  0  0
   -8.2330   -3.9250  -26.6220 H   0  0  0  0  0  0  0  0  0  0  0  0
   -8.3010   -5.5170  -25.8090 H   0  0  0  0  0  0  0  0  0  0  0  0
   -9.7880   -4.7650  -26.4400 H   0  0  0  0  0  0  0  0  0  0  0  0
   -7.2630   -3.0400  -24.6160 H   0  0  0  0  0  0  0  0  0  0  0  0
   -7.4410   -4.5730  -23.7410 H   0  0  0  0  0  0  0  0  0  0  0  0
   -9.0010   -3.5100  -22.1720 H   0  0  0  0  0  0  0  0  0  0  0  0
   -6.2070   -2.4290  -22.5720 H   0  0  0  0  0  0  0  0  0  0  0  0
   -6.8210   -3.4080  -21.2230 H   0  0  0  0  0  0  0  0  0  0  0  0
  -10.5650   -1.5510  -22.8280 C   0  0  0  0  0  0  0  0  0  0  0  0
  -11.2060   -2.4450  -21.9660 C   0  0  0  0  0  0  0  0  0  0  0  0
  -12.5860   -2.4550  -21.8790 C   0  0  0  0  0  0  0  0  0  0  0  0
  -13.3470   -3.5670  -20.7750 Cl  0  0  0  0  0  0  0  0  0  0  0  0
  -13.3770   -1.5820  -22.6290 C   0  0  0  0  0  0  0  0  0  0  0  0
  -12.7520   -0.6600  -23.4450 C   0  0  0  0  0  0  0  0  0  0  0  0
  -11.3610   -0.6250  -23.5200 C   0  0  0  0  0  0  0  0  0  0  0  0
  -10.7520    0.4980  -24.2940 C   0  0  0  0  0  0  0  0  0  0  0  0
  -11.4250    1.3920  -24.7870 O   0  0  0  0  0  0  0  0  0  0  0  0
  -13.3090    0.0740  -24.0220 H   0  0  0  0  0  0  0  0  0  0  0  0
  -14.4570   -1.6230  -22.5350 H   0  0  0  0  0  0  0  0  0  0  0  0
  -10.6340   -3.1220  -21.3410 H   0  0  0  0  0  0  0  0  0  0  0  0
   -8.8900   -1.4670  -25.0260 H   0  0  0  0  0  0  0  0  0  0  0  0
   -7.5930   -0.5580  -24.2040 H   0  0  0  0  0  0  0  0  0  0  0  0
   -9.4580    2.3110  -25.2050 H   0  0  0  0  0  0  0  0  0  0  0  0
   -8.0710    1.3090  -25.7690 H   0  0  0  0  0  0  0  0  0  0  0  0
   -9.2390    2.7870  -22.6560 H   0  0  0  0  0  0  0  0  0  0  0  0
   -6.6840    4.1290  -22.2380 H   0  0  0  0  0  0  0  0  0  0  0  0
   -6.8200    2.5630  -21.4560 H   0  0  0  0  0  0  0  0  0  0  0  0
   -7.9630    3.8580  -21.0380 H   0  0  0  0  0  0  0  0  0  0  0  0
  1  2  1  0  0  0  0
  1 58  1  0  0  0  0
  1 59  1  0  0  0  0
  1 60  1  0  0  0  0
  2  3  1  0  0  0  0
  2 57  1  0  0  0  0
  3  4  2  0  0  0  0
  3  5  1  0  0  0  0
  5  6  1  0  0  0  0
  5 55  1  0  0  0  0
  5 56  1  0  0  0  0
  6  7  1  0  0  0  0
  6 48  1  0  0  0  0
  7  8  1  0  0  0  0
  7 53  1  0  0  0  0
  7 54  1  0  0  0  0
  8  9  1  1  0  0  0
  8 29  1  0  0  0  0
  8 41  1  0  0  0  0
  9 10  2  0  0  0  0
  9 11  1  0  0  0  0
 11 12  1  0  0  0  0
 11 28  1  0  0  0  0
 12 13  2  0  0  0  0
 12 21  1  0  0  0  0
 13 14  1  0  0  0  0
 13 27  1  0  0  0  0
 14 15  2  0  0  0  0
 15 16  1  0  0  0  0
 15 26  1  0  0  0  0
 16 17  2  0  0  0  0
 16 21  1  0  0  0  0
 17 18  1  0  0  0  0
 17 25  1  0  0  0  0
 18 19  2  0  0  0  0
 18 24  1  0  0  0  0
 19 20  1  0  0  0  0
 19 23  1  0  0  0  0
 20 21  2  0  0  0  0
 20 22  1  0  0  0  0
 28 29  1  0  0  0  0
 28 39  1  0  0  0  0
 28 40  1  0  0  0  0
 29 30  1  0  0  0  0
 29 38  1  1  0  0  0
 30 31  1  0  0  0  0
 30 36  1  0  0  0  0
 30 37  1  0  0  0  0
 31 32  1  0  0  0  0
 32 33  1  0  0  0  0
 32 34  1  0  0  0  0
 32 35  1  0  0  0  0
 41 42  2  0  0  0  0
 41 47  1  0  0  0  0
 42 43  1  0  0  0  0
 42 52  1  0  0  0  0
 43 44  1  0  0  0  0
 43 45  2  0  0  0  0
 45 46  1  0  0  0  0
 45 51  1  0  0  0  0
 46 47  2  0  0  0  0
 46 50  1  0  0  0  0
 47 48  1  0  0  0  0
 48 49  2  0  0  0  0
M  END
>  <MODEL>
       1

$$$$
