tmp_first_model_1_97.pdb
 OpenBabel08272517043D

 40 43  0  0  1  0  0  0  0  0999 V2000
   -9.8460   -5.2350  -23.3440 C   0  0  0  0  0  0  0  0  0  0  0  0
  -10.7110   -4.1090  -22.7840 C   0  0  2  0  0  0  0  0  0  0  0  0
  -11.3430   -3.3080  -23.9130 C   0  0  0  0  0  0  0  0  0  0  0  0
  -10.3780   -2.5450  -24.6050 O   0  0  0  0  0  0  0  0  0  0  0  0
   -9.7700   -1.5860  -23.7640 C   0  0  0  0  0  0  0  0  0  0  0  0
   -8.9920   -2.2370  -22.6140 C   0  0  1  0  0  0  0  0  0  0  0  0
   -9.9650   -3.1560  -21.8680 C   0  0  0  0  0  0  0  0  0  0  0  0
  -10.6850   -2.4970  -21.3650 H   0  0  0  0  0  0  0  0  0  0  0  0
   -9.4100   -3.6810  -21.0880 H   0  0  0  0  0  0  0  0  0  0  0  0
   -7.7260   -2.8690  -23.0100 N   0  0  0  0  0  0  0  0  0  0  0  0
   -6.7110   -2.5990  -22.1120 C   0  0  0  0  0  0  0  0  0  0  0  0
   -5.6340   -3.1360  -22.0070 O   0  0  0  0  0  0  0  0  0  0  0  0
   -7.1860   -1.5480  -21.3090 N   0  0  0  0  0  0  0  0  0  0  0  0
   -6.4810   -0.9300  -20.2460 C   0  0  0  0  0  0  0  0  0  0  0  0
   -6.9000   -1.1070  -18.9570 C   0  0  0  0  0  0  0  0  0  0  0  0
   -6.2630   -0.5870  -17.8800 N   0  0  0  0  0  0  0  0  0  0  0  0
   -5.2140    0.1720  -18.1000 C   0  0  0  0  0  0  0  0  0  0  0  0
   -4.7160    0.4810  -19.4010 C   0  0  0  0  0  0  0  0  0  0  0  0
   -3.6040    1.3400  -19.6140 C   0  0  0  0  0  0  0  0  0  0  0  0
   -3.2130    1.6540  -20.8880 C   0  0  0  0  0  0  0  0  0  0  0  0
   -3.9150    1.1440  -22.0070 C   0  0  0  0  0  0  0  0  0  0  0  0
   -4.9920    0.3120  -21.8290 C   0  0  0  0  0  0  0  0  0  0  0  0
   -5.3870   -0.0610  -20.5160 C   0  0  0  0  0  0  0  0  0  0  0  0
   -5.5720   -0.0470  -22.6770 H   0  0  0  0  0  0  0  0  0  0  0  0
   -3.6140    1.4250  -23.0120 H   0  0  0  0  0  0  0  0  0  0  0  0
   -2.3710    2.3190  -21.0570 H   0  0  0  0  0  0  0  0  0  0  0  0
   -3.1020    1.7620  -18.7480 H   0  0  0  0  0  0  0  0  0  0  0  0
   -4.7130    0.5980  -17.2300 H   0  0  0  0  0  0  0  0  0  0  0  0
   -7.7870   -1.7030  -18.7520 H   0  0  0  0  0  0  0  0  0  0  0  0
   -8.5010   -1.2270  -21.5990 C   0  0  0  0  0  0  0  0  0  0  0  0
   -9.1410   -0.3540  -21.0660 O   0  0  0  0  0  0  0  0  0  0  0  0
   -7.7510   -3.8140  -23.3680 H   0  0  0  0  0  0  0  0  0  0  0  0
   -9.1000   -0.9900  -24.3870 H   0  0  0  0  0  0  0  0  0  0  0  0
  -10.5330   -0.9280  -23.3160 H   0  0  0  0  0  0  0  0  0  0  0  0
  -12.1330   -2.6560  -23.5030 H   0  0  0  0  0  0  0  0  0  0  0  0
  -11.7830   -3.9890  -24.6460 H   0  0  0  0  0  0  0  0  0  0  0  0
  -11.5190   -4.5300  -22.1850 H   0  0  0  0  0  0  0  0  0  0  0  0
   -9.1810   -4.8900  -24.1390 H   0  0  0  0  0  0  0  0  0  0  0  0
  -10.4840   -6.0070  -23.7780 H   0  0  0  0  0  0  0  0  0  0  0  0
   -9.2370   -5.7020  -22.5660 H   0  0  0  0  0  0  0  0  0  0  0  0
  1  2  1  0  0  0  0
  1 38  1  0  0  0  0
  1 39  1  0  0  0  0
  1 40  1  0  0  0  0
  2  3  1  0  0  0  0
  2  7  1  0  0  0  0
  2 37  1  1  0  0  0
  3  4  1  0  0  0  0
  3 35  1  0  0  0  0
  3 36  1  0  0  0  0
  4  5  1  0  0  0  0
  5  6  1  0  0  0  0
  5 33  1  0  0  0  0
  5 34  1  0  0  0  0
  6  7  1  0  0  0  0
  6 10  1  0  0  0  0
  6 30  1  1  0  0  0
  7  8  1  0  0  0  0
  7  9  1  0  0  0  0
 10 11  1  0  0  0  0
 10 32  1  0  0  0  0
 11 12  2  0  0  0  0
 11 13  1  0  0  0  0
 13 14  1  0  0  0  0
 13 30  1  0  0  0  0
 14 15  2  0  0  0  0
 14 23  1  0  0  0  0
 15 16  1  0  0  0  0
 15 29  1  0  0  0  0
 16 17  2  0  0  0  0
 17 18  1  0  0  0  0
 17 28  1  0  0  0  0
 18 19  2  0  0  0  0
 18 23  1  0  0  0  0
 19 20  1  0  0  0  0
 19 27  1  0  0  0  0
 20 21  2  0  0  0  0
 20 26  1  0  0  0  0
 21 22  1  0  0  0  0
 21 25  1  0  0  0  0
 22 23  2  0  0  0  0
 22 24  1  0  0  0  0
 30 31  2  0  0  0  0
M  END
>  <MODEL>
       1

$$$$
