tmp_first_model_19_74.pdb
 OpenBabel08282503233D

 43 47  0  0  1  0  0  0  0  0999 V2000
   -9.3400   -0.3730  -20.9840 O   0  0  0  0  0  0  0  0  0  0  0  0
   -8.7080   -1.3190  -21.3930 C   0  0  0  0  0  0  0  0  0  0  0  0
   -9.1320   -2.4220  -22.0870 N   0  0  0  0  0  0  0  0  0  0  0  0
   -8.0440   -3.1410  -22.7190 C   0  0  1  0  0  0  0  0  0  0  0  0
   -8.1030   -4.6830  -22.6950 C   0  0  0  0  0  0  0  0  0  0  0  0
   -8.2210   -4.7120  -24.2490 C   0  0  2  0  0  0  0  0  0  0  0  0
   -7.1710   -5.4590  -25.0060 C   0  0  0  0  0  0  0  0  0  0  0  0
   -5.8200   -5.2490  -24.7130 C   0  0  0  0  0  0  0  0  0  0  0  0
   -4.8250   -5.9580  -25.3750 C   0  0  0  0  0  0  0  0  0  0  0  0
   -5.1620   -6.8210  -26.4140 C   0  0  0  0  0  0  0  0  0  0  0  0
   -6.4920   -6.9680  -26.7890 C   0  0  0  0  0  0  0  0  0  0  0  0
   -7.4810   -6.3560  -26.0270 C   0  0  0  0  0  0  0  0  0  0  0  0
   -9.1370   -6.8250  -26.3350 Cl  0  0  0  0  0  0  0  0  0  0  0  0
   -6.7790   -7.6300  -27.6030 H   0  0  0  0  0  0  0  0  0  0  0  0
   -4.3960   -7.4040  -26.9180 H   0  0  0  0  0  0  0  0  0  0  0  0
   -3.7900   -5.8490  -25.0660 H   0  0  0  0  0  0  0  0  0  0  0  0
   -5.5460   -4.5350  -23.9370 H   0  0  0  0  0  0  0  0  0  0  0  0
   -8.0400   -3.1690  -24.2640 C   0  0  0  0  0  0  0  0  0  0  0  0
   -8.8400   -2.5850  -24.7190 H   0  0  0  0  0  0  0  0  0  0  0  0
   -7.0940   -2.8540  -24.7070 H   0  0  0  0  0  0  0  0  0  0  0  0
   -9.2080   -5.0210  -24.5810 H   0  0  0  0  0  0  0  0  0  0  0  0
   -8.9480   -5.0630  -22.1200 H   0  0  0  0  0  0  0  0  0  0  0  0
   -7.1910   -5.1510  -22.3180 H   0  0  0  0  0  0  0  0  0  0  0  0
   -6.8390   -2.5080  -22.0560 C   0  0  0  0  0  0  0  0  0  0  0  0
   -5.6780   -2.8210  -22.1850 O   0  0  0  0  0  0  0  0  0  0  0  0
   -7.3230   -1.4820  -21.2460 N   0  0  0  0  0  0  0  0  0  0  0  0
   -6.5870   -0.8540  -20.2080 C   0  0  0  0  0  0  0  0  0  0  0  0
   -6.9250   -1.0650  -18.8910 C   0  0  0  0  0  0  0  0  0  0  0  0
   -6.2350   -0.5650  -17.8360 N   0  0  0  0  0  0  0  0  0  0  0  0
   -5.2000    0.1950  -18.1020 C   0  0  0  0  0  0  0  0  0  0  0  0
   -4.7580    0.5020  -19.4200 C   0  0  0  0  0  0  0  0  0  0  0  0
   -3.6300    1.3330  -19.6420 C   0  0  0  0  0  0  0  0  0  0  0  0
   -3.2420    1.6460  -20.9160 C   0  0  0  0  0  0  0  0  0  0  0  0
   -3.9580    1.1420  -22.0260 C   0  0  0  0  0  0  0  0  0  0  0  0
   -5.0490    0.3290  -21.8370 C   0  0  0  0  0  0  0  0  0  0  0  0
   -5.4690   -0.0210  -20.5190 C   0  0  0  0  0  0  0  0  0  0  0  0
   -5.5980   -0.0490  -22.6960 H   0  0  0  0  0  0  0  0  0  0  0  0
   -3.6450    1.4060  -23.0340 H   0  0  0  0  0  0  0  0  0  0  0  0
   -2.3820    2.2890  -21.0820 H   0  0  0  0  0  0  0  0  0  0  0  0
   -3.1080    1.7240  -18.7730 H   0  0  0  0  0  0  0  0  0  0  0  0
   -4.6380    0.6070  -17.2600 H   0  0  0  0  0  0  0  0  0  0  0  0
   -7.7790   -1.6880  -18.6310 H   0  0  0  0  0  0  0  0  0  0  0  0
  -10.0890   -2.4970  -22.3800 H   0  0  0  0  0  0  0  0  0  0  0  0
  1  2  2  0  0  0  0
  2  3  1  0  0  0  0
  2 26  1  0  0  0  0
  3  4  1  0  0  0  0
  3 43  1  0  0  0  0
  4  5  1  0  0  0  0
  4 18  1  0  0  0  0
  4 24  1  1  0  0  0
  5  6  1  0  0  0  0
  5 22  1  0  0  0  0
  5 23  1  0  0  0  0
  6  7  1  0  0  0  0
  6 18  1  0  0  0  0
  6 21  1  6  0  0  0
  7  8  2  0  0  0  0
  7 12  1  0  0  0  0
  8  9  1  0  0  0  0
  8 17  1  0  0  0  0
  9 10  2  0  0  0  0
  9 16  1  0  0  0  0
 10 11  1  0  0  0  0
 10 15  1  0  0  0  0
 11 12  2  0  0  0  0
 11 14  1  0  0  0  0
 12 13  1  0  0  0  0
 18 19  1  0  0  0  0
 18 20  1  0  0  0  0
 24 25  2  0  0  0  0
 24 26  1  0  0  0  0
 26 27  1  0  0  0  0
 27 28  2  0  0  0  0
 27 36  1  0  0  0  0
 28 29  1  0  0  0  0
 28 42  1  0  0  0  0
 29 30  2  0  0  0  0
 30 31  1  0  0  0  0
 30 41  1  0  0  0  0
 31 32  2  0  0  0  0
 31 36  1  0  0  0  0
 32 33  1  0  0  0  0
 32 40  1  0  0  0  0
 33 34  2  0  0  0  0
 33 39  1  0  0  0  0
 34 35  1  0  0  0  0
 34 38  1  0  0  0  0
 35 36  2  0  0  0  0
 35 37  1  0  0  0  0
M  END
>  <MODEL>
       1

$$$$
