tmp_first_model_3_47.pdb
 OpenBabel08272518143D

 58 63  0  0  1  0  0  0  0  0999 V2000
   -8.4970    0.7140  -21.4000 O   0  0  0  0  0  0  0  0  0  0  0  0
   -8.4520   -0.4160  -21.8520 C   0  0  0  0  0  0  0  0  0  0  0  0
   -7.4450   -1.4300  -21.2620 C   0  0  0  0  0  0  0  0  0  0  0  0
   -6.5770   -0.8320  -20.1790 C   0  0  0  0  0  0  0  0  0  0  0  0
   -6.8770   -1.0390  -18.8580 C   0  0  0  0  0  0  0  0  0  0  0  0
   -6.1940   -0.5350  -17.7930 N   0  0  0  0  0  0  0  0  0  0  0  0
   -5.1560    0.2220  -18.0630 C   0  0  0  0  0  0  0  0  0  0  0  0
   -4.7230    0.5350  -19.3800 C   0  0  0  0  0  0  0  0  0  0  0  0
   -3.5980    1.3680  -19.6220 C   0  0  0  0  0  0  0  0  0  0  0  0
   -3.2120    1.6630  -20.9010 C   0  0  0  0  0  0  0  0  0  0  0  0
   -3.9350    1.1350  -21.9940 C   0  0  0  0  0  0  0  0  0  0  0  0
   -5.0260    0.3260  -21.7860 C   0  0  0  0  0  0  0  0  0  0  0  0
   -5.4540    0.0010  -20.4710 C   0  0  0  0  0  0  0  0  0  0  0  0
   -5.5760   -0.0600  -22.6400 H   0  0  0  0  0  0  0  0  0  0  0  0
   -3.6240    1.3810  -23.0050 H   0  0  0  0  0  0  0  0  0  0  0  0
   -2.3570    2.3080  -21.0860 H   0  0  0  0  0  0  0  0  0  0  0  0
   -3.0570    1.7800  -18.7720 H   0  0  0  0  0  0  0  0  0  0  0  0
   -4.5980    0.6300  -17.2170 H   0  0  0  0  0  0  0  0  0  0  0  0
   -7.7310   -1.6600  -18.5880 H   0  0  0  0  0  0  0  0  0  0  0  0
   -6.8260   -1.8600  -22.0600 H   0  0  0  0  0  0  0  0  0  0  0  0
   -8.0180   -2.2630  -20.8330 H   0  0  0  0  0  0  0  0  0  0  0  0
   -9.3000   -0.8260  -22.8760 N   0  0  0  0  0  0  0  0  0  0  0  0
   -9.2720   -2.1310  -23.5290 C   0  0  0  0  0  0  0  0  0  0  0  0
   -8.5400   -2.1590  -24.8620 C   0  0  0  0  0  0  0  0  0  0  0  0
   -7.4390   -1.3420  -25.1010 C   0  0  0  0  0  0  0  0  0  0  0  0
   -6.7650   -1.4060  -26.3150 C   0  0  0  0  0  0  0  0  0  0  0  0
   -7.1720   -2.2820  -27.3140 C   0  0  0  0  0  0  0  0  0  0  0  0
   -8.2660   -3.1000  -27.0710 C   0  0  0  0  0  0  0  0  0  0  0  0
   -8.7920   -4.2110  -28.3080 Cl  0  0  0  0  0  0  0  0  0  0  0  0
   -8.9430   -3.0480  -25.8580 C   0  0  0  0  0  0  0  0  0  0  0  0
   -9.7800   -3.7100  -25.6860 H   0  0  0  0  0  0  0  0  0  0  0  0
   -6.6490   -2.3290  -28.2630 H   0  0  0  0  0  0  0  0  0  0  0  0
   -5.9100   -0.7610  -26.4850 H   0  0  0  0  0  0  0  0  0  0  0  0
   -7.0940   -0.6490  -24.3380 H   0  0  0  0  0  0  0  0  0  0  0  0
  -10.3050   -2.4560  -23.6840 H   0  0  0  0  0  0  0  0  0  0  0  0
   -8.8330   -2.8640  -22.8480 H   0  0  0  0  0  0  0  0  0  0  0  0
  -10.2380    0.1530  -23.4010 C   0  0  2  0  0  0  0  0  0  0  0  0
  -11.3920    0.6140  -22.4930 C   0  0  0  0  0  0  0  0  0  0  0  0
  -12.0770    1.5950  -23.4140 N   0  3  1  0  0  0  0  0  0  0  0  0
  -12.2520    2.9540  -22.8860 C   0  0  0  0  0  0  0  0  0  0  0  0
  -13.5220    3.2860  -22.1770 C   0  0  0  0  0  0  0  0  0  0  0  0
  -13.2590    3.8360  -23.5470 C   0  0  0  0  0  0  0  0  0  0  0  0
  -13.0450    4.8920  -23.6350 H   0  0  0  0  0  0  0  0  0  0  0  0
  -13.8120    3.3930  -24.3690 H   0  0  0  0  0  0  0  0  0  0  0  0
  -13.4730    3.9740  -21.3440 H   0  0  0  0  0  0  0  0  0  0  0  0
  -14.2380    2.4770  -22.0920 H   0  0  0  0  0  0  0  0  0  0  0  0
  -11.3470    3.4190  -22.5190 H   0  0  0  0  0  0  0  0  0  0  0  0
  -11.1690    1.4900  -24.6130 C   0  0  2  0  0  0  0  0  0  0  0  0
  -11.0200   -0.0300  -24.7280 C   0  0  0  0  0  0  0  0  0  0  0  0
  -10.4090   -0.3250  -25.5740 H   0  0  0  0  0  0  0  0  0  0  0  0
  -11.9500   -0.6120  -24.6710 H   0  0  0  0  0  0  0  0  0  0  0  0
   -9.7770    1.5190  -23.9720 C   0  0  0  0  0  0  0  0  0  0  0  0
   -8.9740    1.4220  -24.6960 H   0  0  0  0  0  0  0  0  0  0  0  0
   -9.5670    2.2920  -23.2270 H   0  0  0  0  0  0  0  0  0  0  0  0
  -11.4560    2.1230  -25.4480 H   0  0  0  0  0  0  0  0  0  0  0  0
  -13.0210    1.2460  -23.6630 H   0  0  0  0  0  0  0  0  0  0  0  0
  -11.0380    1.1590  -21.6250 H   0  0  0  0  0  0  0  0  0  0  0  0
  -12.0820   -0.1820  -22.2040 H   0  0  0  0  0  0  0  0  0  0  0  0
  1  2  2  0  0  0  0
  2  3  1  0  0  0  0
  2 22  1  0  0  0  0
  3  4  1  0  0  0  0
  3 20  1  0  0  0  0
  3 21  1  0  0  0  0
  4  5  2  0  0  0  0
  4 13  1  0  0  0  0
  5  6  1  0  0  0  0
  5 19  1  0  0  0  0
  6  7  2  0  0  0  0
  7  8  1  0  0  0  0
  7 18  1  0  0  0  0
  8  9  2  0  0  0  0
  8 13  1  0  0  0  0
  9 10  1  0  0  0  0
  9 17  1  0  0  0  0
 10 11  2  0  0  0  0
 10 16  1  0  0  0  0
 11 12  1  0  0  0  0
 11 15  1  0  0  0  0
 12 13  2  0  0  0  0
 12 14  1  0  0  0  0
 22 23  1  0  0  0  0
 23 24  1  0  0  0  0
 23 35  1  0  0  0  0
 23 36  1  0  0  0  0
 24 25  2  0  0  0  0
 24 30  1  0  0  0  0
 25 26  1  0  0  0  0
 25 34  1  0  0  0  0
 26 27  2  0  0  0  0
 26 33  1  0  0  0  0
 27 28  1  0  0  0  0
 27 32  1  0  0  0  0
 28 29  1  0  0  0  0
 28 30  2  0  0  0  0
 30 31  1  0  0  0  0
 37 22  1  1  0  0  0
 37 38  1  0  0  0  0
 37 49  1  0  0  0  0
 37 52  1  0  0  0  0
 38 39  1  0  0  0  0
 38 57  1  0  0  0  0
 38 58  1  0  0  0  0
 39 40  1  0  0  0  0
 39 48  1  0  0  0  0
 39 56  1  6  0  0  0
 40 41  1  0  0  0  0
 40 42  1  0  0  0  0
 40 47  1  0  0  0  0
 41 42  1  0  0  0  0
 41 45  1  0  0  0  0
 41 46  1  0  0  0  0
 42 43  1  0  0  0  0
 42 44  1  0  0  0  0
 48 49  1  0  0  0  0
 48 52  1  0  0  0  0
 48 55  1  6  0  0  0
 49 50  1  0  0  0  0
 49 51  1  0  0  0  0
 52 53  1  0  0  0  0
 52 54  1  0  0  0  0
M  CHG  1  39   1
M  END
>  <MODEL>
       1

$$$$
