tmp_first_model_5_35.pdb
 OpenBabel08272519233D

 40 42  0  0  0  0  0  0  0  0999 V2000
   -8.8020    0.3500  -20.9060 O   0  0  0  0  0  0  0  0  0  0  0  0
   -8.1720   -0.4030  -21.6180 C   0  0  0  0  0  0  0  0  0  0  0  0
   -7.4650   -1.6170  -21.0230 C   0  0  0  0  0  0  0  0  0  0  0  0
   -6.4420   -1.2100  -19.9950 C   0  0  0  0  0  0  0  0  0  0  0  0
   -6.5450   -1.6000  -18.6880 C   0  0  0  0  0  0  0  0  0  0  0  0
   -5.5700   -1.4480  -17.7540 N   0  0  0  0  0  0  0  0  0  0  0  0
   -4.4890   -0.8040  -18.1230 C   0  0  0  0  0  0  0  0  0  0  0  0
   -4.3130   -0.2110  -19.4030 C   0  0  0  0  0  0  0  0  0  0  0  0
   -3.2310    0.6640  -19.6970 C   0  0  0  0  0  0  0  0  0  0  0  0
   -3.2180    1.3800  -20.8630 C   0  0  0  0  0  0  0  0  0  0  0  0
   -4.1930    1.1420  -21.8550 C   0  0  0  0  0  0  0  0  0  0  0  0
   -5.2100    0.2480  -21.6130 C   0  0  0  0  0  0  0  0  0  0  0  0
   -5.3250   -0.4060  -20.3610 C   0  0  0  0  0  0  0  0  0  0  0  0
   -5.9170    0.0270  -22.3920 H   0  0  0  0  0  0  0  0  0  0  0  0
   -4.1250    1.6400  -22.8170 H   0  0  0  0  0  0  0  0  0  0  0  0
   -2.4270    2.0980  -21.0650 H   0  0  0  0  0  0  0  0  0  0  0  0
   -2.4950    0.8450  -18.9200 H   0  0  0  0  0  0  0  0  0  0  0  0
   -3.6860   -0.7070  -17.3900 H   0  0  0  0  0  0  0  0  0  0  0  0
   -7.4490   -2.1100  -18.3520 H   0  0  0  0  0  0  0  0  0  0  0  0
   -6.9760   -2.2060  -21.8000 H   0  0  0  0  0  0  0  0  0  0  0  0
   -8.2360   -2.2360  -20.5540 H   0  0  0  0  0  0  0  0  0  0  0  0
   -8.0490   -0.1850  -22.9790 N   0  0  0  0  0  0  0  0  0  0  0  0
   -7.5760   -1.1860  -23.9290 C   0  0  0  0  0  0  0  0  0  0  0  0
   -8.2890   -1.0460  -25.2640 C   0  0  0  0  0  0  0  0  0  0  0  0
   -8.2100    0.3910  -25.7870 C   0  0  0  0  0  0  0  0  0  0  0  0
   -9.1590    0.4980  -26.9600 C   0  0  0  0  0  0  0  0  0  0  0  0
   -9.1330    1.6910  -27.5810 F   0  0  0  0  0  0  0  0  0  0  0  0
  -10.4140    0.3140  -26.4950 F   0  0  0  0  0  0  0  0  0  0  0  0
   -8.9580   -0.4530  -27.8910 F   0  0  0  0  0  0  0  0  0  0  0  0
   -8.6120    1.4340  -24.7370 C   0  0  0  0  0  0  0  0  0  0  0  0
   -7.9270    1.2110  -23.4000 C   0  0  0  0  0  0  0  0  0  0  0  0
   -6.8680    1.5160  -23.4710 H   0  0  0  0  0  0  0  0  0  0  0  0
   -8.4000    1.8170  -22.6230 H   0  0  0  0  0  0  0  0  0  0  0  0
   -8.3760    2.4380  -25.1090 H   0  0  0  0  0  0  0  0  0  0  0  0
   -9.6920    1.3890  -24.5920 H   0  0  0  0  0  0  0  0  0  0  0  0
   -7.1910    0.5880  -26.1360 H   0  0  0  0  0  0  0  0  0  0  0  0
   -9.3360   -1.3460  -25.1590 H   0  0  0  0  0  0  0  0  0  0  0  0
   -7.8270   -1.7270  -25.9900 H   0  0  0  0  0  0  0  0  0  0  0  0
   -6.4900   -1.0920  -24.1000 H   0  0  0  0  0  0  0  0  0  0  0  0
   -7.7740   -2.1850  -23.5390 H   0  0  0  0  0  0  0  0  0  0  0  0
  1  2  2  0  0  0  0
  2  3  1  0  0  0  0
  2 22  1  0  0  0  0
  3  4  1  0  0  0  0
  3 20  1  0  0  0  0
  3 21  1  0  0  0  0
  4  5  2  0  0  0  0
  4 13  1  0  0  0  0
  5  6  1  0  0  0  0
  5 19  1  0  0  0  0
  6  7  2  0  0  0  0
  7  8  1  0  0  0  0
  7 18  1  0  0  0  0
  8  9  2  0  0  0  0
  8 13  1  0  0  0  0
  9 10  1  0  0  0  0
  9 17  1  0  0  0  0
 10 11  2  0  0  0  0
 10 16  1  0  0  0  0
 11 12  1  0  0  0  0
 11 15  1  0  0  0  0
 12 13  2  0  0  0  0
 12 14  1  0  0  0  0
 22 23  1  0  0  0  0
 22 31  1  0  0  0  0
 23 24  1  0  0  0  0
 23 39  1  0  0  0  0
 23 40  1  0  0  0  0
 24 25  1  0  0  0  0
 24 37  1  0  0  0  0
 24 38  1  0  0  0  0
 25 26  1  0  0  0  0
 25 30  1  0  0  0  0
 25 36  1  0  0  0  0
 26 27  1  0  0  0  0
 26 28  1  0  0  0  0
 26 29  1  0  0  0  0
 30 31  1  0  0  0  0
 30 34  1  0  0  0  0
 30 35  1  0  0  0  0
 31 32  1  0  0  0  0
 31 33  1  0  0  0  0
M  END
>  <MODEL>
       1

$$$$
