tmp_first_model_9_49.pdb
 OpenBabel08272521403D

 67 72  0  0  1  0  0  0  0  0999 V2000
   -7.4130    3.3660  -21.7680 C   0  0  0  0  0  0  0  0  0  0  0  0
   -8.2810    2.9030  -22.8390 N   0  0  0  0  0  0  0  0  0  0  0  0
   -7.6990    2.2300  -23.8630 C   0  0  0  0  0  0  0  0  0  0  0  0
   -6.4840    2.1440  -23.9760 O   0  0  0  0  0  0  0  0  0  0  0  0
   -8.6480    1.6040  -24.8940 C   0  0  0  0  0  0  0  0  0  0  0  0
   -9.3720    0.4440  -24.4030 N   0  0  0  0  0  0  0  0  0  0  0  0
   -8.6550   -0.8080  -24.2410 C   0  0  0  0  0  0  0  0  0  0  0  0
   -9.0460   -1.5290  -22.9240 C   0  0  2  0  0  0  0  0  0  0  0  0
   -8.5060   -0.7380  -21.7020 C   0  0  0  0  0  0  0  0  0  0  0  0
   -8.9560    0.2850  -21.2350 O   0  0  0  0  0  0  0  0  0  0  0  0
   -7.3940   -1.3910  -21.2100 N   0  0  0  0  0  0  0  0  0  0  0  0
   -6.6010   -0.8120  -20.1800 C   0  0  0  0  0  0  0  0  0  0  0  0
   -6.9050   -1.0430  -18.8620 C   0  0  0  0  0  0  0  0  0  0  0  0
   -6.1980   -0.5500  -17.8180 N   0  0  0  0  0  0  0  0  0  0  0  0
   -5.1640    0.2100  -18.0800 C   0  0  0  0  0  0  0  0  0  0  0  0
   -4.7270    0.5320  -19.3950 C   0  0  0  0  0  0  0  0  0  0  0  0
   -3.6010    1.3660  -19.6390 C   0  0  0  0  0  0  0  0  0  0  0  0
   -3.2150    1.6580  -20.9190 C   0  0  0  0  0  0  0  0  0  0  0  0
   -3.9400    1.1300  -22.0110 C   0  0  0  0  0  0  0  0  0  0  0  0
   -5.0330    0.3230  -21.7990 C   0  0  0  0  0  0  0  0  0  0  0  0
   -5.4620    0.0030  -20.4850 C   0  0  0  0  0  0  0  0  0  0  0  0
   -5.5870   -0.0640  -22.6490 H   0  0  0  0  0  0  0  0  0  0  0  0
   -3.6470    1.3660  -23.0280 H   0  0  0  0  0  0  0  0  0  0  0  0
   -2.3620    2.3060  -21.1010 H   0  0  0  0  0  0  0  0  0  0  0  0
   -3.0730    1.7780  -18.7830 H   0  0  0  0  0  0  0  0  0  0  0  0
   -4.6190    0.6150  -17.2270 H   0  0  0  0  0  0  0  0  0  0  0  0
   -7.7550   -1.6680  -18.6000 H   0  0  0  0  0  0  0  0  0  0  0  0
   -7.0420   -2.5960  -21.9310 C   0  0  0  0  0  0  0  0  0  0  0  0
   -8.3000   -2.8950  -22.7700 C   0  0  2  0  0  0  0  0  0  0  0  0
   -7.9610   -3.6780  -24.0580 C   0  0  0  0  0  0  0  0  0  0  0  0
   -7.4510   -5.0040  -23.7790 N   0  0  0  0  0  0  0  0  0  0  0  0
   -6.1210   -5.3120  -23.6640 C   0  0  0  0  0  0  0  0  0  0  0  0
   -5.0170   -4.5890  -24.0130 C   0  0  0  0  0  0  0  0  0  0  0  0
   -3.7970   -5.1940  -23.7900 N   0  0  0  0  0  0  0  0  0  0  0  0
   -3.9380   -6.3820  -23.2930 C   0  0  0  0  0  0  0  0  0  0  0  0
   -2.7940   -7.2980  -22.9860 C   0  0  0  0  0  0  0  0  0  0  0  0
   -3.0190   -7.9330  -22.1270 H   0  0  0  0  0  0  0  0  0  0  0  0
   -2.5830   -7.9510  -23.8420 H   0  0  0  0  0  0  0  0  0  0  0  0
   -1.8950   -6.7070  -22.7910 H   0  0  0  0  0  0  0  0  0  0  0  0
   -5.6000   -6.8620  -23.0350 S   0  0  0  0  0  0  0  0  0  0  0  0
   -5.0510   -3.6040  -24.4610 H   0  0  0  0  0  0  0  0  0  0  0  0
   -8.1100   -5.7230  -23.5130 H   0  0  0  0  0  0  0  0  0  0  0  0
   -8.8650   -3.7930  -24.6670 H   0  0  0  0  0  0  0  0  0  0  0  0
   -7.2140   -3.1310  -24.6550 H   0  0  0  0  0  0  0  0  0  0  0  0
   -8.9550   -3.5390  -22.1760 H   0  0  0  0  0  0  0  0  0  0  0  0
   -6.1540   -2.4480  -22.5700 H   0  0  0  0  0  0  0  0  0  0  0  0
   -6.7900   -3.4170  -21.2490 H   0  0  0  0  0  0  0  0  0  0  0  0
  -10.5640   -1.5790  -22.8510 C   0  0  0  0  0  0  0  0  0  0  0  0
  -11.2030   -2.4620  -21.9710 C   0  0  0  0  0  0  0  0  0  0  0  0
  -12.5830   -2.4860  -21.8890 C   0  0  0  0  0  0  0  0  0  0  0  0
  -13.3600   -3.5950  -20.7980 Cl  0  0  0  0  0  0  0  0  0  0  0  0
  -13.3730   -1.6260  -22.6500 C   0  0  0  0  0  0  0  0  0  0  0  0
  -12.7490   -0.7020  -23.4620 C   0  0  0  0  0  0  0  0  0  0  0  0
  -11.3570   -0.6520  -23.5430 C   0  0  0  0  0  0  0  0  0  0  0  0
  -10.7400    0.4790  -24.3140 C   0  0  0  0  0  0  0  0  0  0  0  0
  -11.4150    1.3810  -24.7970 O   0  0  0  0  0  0  0  0  0  0  0  0
  -13.3150    0.0210  -24.0350 H   0  0  0  0  0  0  0  0  0  0  0  0
  -14.4540   -1.6720  -22.5720 H   0  0  0  0  0  0  0  0  0  0  0  0
  -10.6360   -3.1160  -21.3180 H   0  0  0  0  0  0  0  0  0  0  0  0
   -7.5890   -0.5640  -24.2240 H   0  0  0  0  0  0  0  0  0  0  0  0
   -8.8530   -1.4750  -25.0970 H   0  0  0  0  0  0  0  0  0  0  0  0
   -9.4130    2.3100  -25.2340 H   0  0  0  0  0  0  0  0  0  0  0  0
   -8.0070    1.3370  -25.7410 H   0  0  0  0  0  0  0  0  0  0  0  0
   -9.2820    2.8290  -22.6970 H   0  0  0  0  0  0  0  0  0  0  0  0
   -6.8040    2.5250  -21.3960 H   0  0  0  0  0  0  0  0  0  0  0  0
   -6.7340    4.1500  -22.1270 H   0  0  0  0  0  0  0  0  0  0  0  0
   -8.0280    3.7910  -20.9760 H   0  0  0  0  0  0  0  0  0  0  0  0
  1  2  1  0  0  0  0
  1 65  1  0  0  0  0
  1 66  1  0  0  0  0
  1 67  1  0  0  0  0
  2  3  1  0  0  0  0
  2 64  1  0  0  0  0
  3  4  2  0  0  0  0
  3  5  1  0  0  0  0
  5  6  1  0  0  0  0
  5 62  1  0  0  0  0
  5 63  1  0  0  0  0
  6  7  1  0  0  0  0
  6 55  1  0  0  0  0
  7  8  1  0  0  0  0
  7 60  1  0  0  0  0
  7 61  1  0  0  0  0
  8  9  1  1  0  0  0
  8 29  1  0  0  0  0
  8 48  1  0  0  0  0
  9 10  2  0  0  0  0
  9 11  1  0  0  0  0
 11 12  1  0  0  0  0
 11 28  1  0  0  0  0
 12 13  2  0  0  0  0
 12 21  1  0  0  0  0
 13 14  1  0  0  0  0
 13 27  1  0  0  0  0
 14 15  2  0  0  0  0
 15 16  1  0  0  0  0
 15 26  1  0  0  0  0
 16 17  2  0  0  0  0
 16 21  1  0  0  0  0
 17 18  1  0  0  0  0
 17 25  1  0  0  0  0
 18 19  2  0  0  0  0
 18 24  1  0  0  0  0
 19 20  1  0  0  0  0
 19 23  1  0  0  0  0
 20 21  2  0  0  0  0
 20 22  1  0  0  0  0
 28 29  1  0  0  0  0
 28 46  1  0  0  0  0
 28 47  1  0  0  0  0
 29 30  1  0  0  0  0
 29 45  1  1  0  0  0
 30 31  1  0  0  0  0
 30 43  1  0  0  0  0
 30 44  1  0  0  0  0
 31 32  1  0  0  0  0
 31 42  1  0  0  0  0
 32 33  2  0  0  0  0
 32 40  1  0  0  0  0
 33 34  1  0  0  0  0
 33 41  1  0  0  0  0
 34 35  2  0  0  0  0
 35 36  1  0  0  0  0
 35 40  1  0  0  0  0
 36 37  1  0  0  0  0
 36 38  1  0  0  0  0
 36 39  1  0  0  0  0
 48 49  2  0  0  0  0
 48 54  1  0  0  0  0
 49 50  1  0  0  0  0
 49 59  1  0  0  0  0
 50 51  1  0  0  0  0
 50 52  2  0  0  0  0
 52 53  1  0  0  0  0
 52 58  1  0  0  0  0
 53 54  2  0  0  0  0
 53 57  1  0  0  0  0
 54 55  1  0  0  0  0
 55 56  2  0  0  0  0
M  END
>  <MODEL>
       1

$$$$
