tmp_first_model_20_74.pdb
 OpenBabel08282503553D

 43 47  0  0  1  0  0  0  0  0999 V2000
   -9.4280   -0.4570  -20.9850 O   0  0  0  0  0  0  0  0  0  0  0  0
   -8.7450   -1.3670  -21.3780 C   0  0  0  0  0  0  0  0  0  0  0  0
   -9.1360   -2.4530  -22.1140 N   0  0  0  0  0  0  0  0  0  0  0  0
   -8.0380   -3.1450  -22.7420 C   0  0  1  0  0  0  0  0  0  0  0  0
   -8.1020   -4.6870  -22.7170 C   0  0  0  0  0  0  0  0  0  0  0  0
   -8.2240   -4.7220  -24.2750 C   0  0  2  0  0  0  0  0  0  0  0  0
   -7.1770   -5.5230  -24.9860 C   0  0  0  0  0  0  0  0  0  0  0  0
   -5.8200   -5.2780  -24.7410 C   0  0  0  0  0  0  0  0  0  0  0  0
   -4.8310   -6.0110  -25.3850 C   0  0  0  0  0  0  0  0  0  0  0  0
   -5.1810   -7.0120  -26.2900 C   0  0  0  0  0  0  0  0  0  0  0  0
   -6.5200   -7.2770  -26.5440 C   0  0  0  0  0  0  0  0  0  0  0  0
   -7.4980   -6.5340  -25.8920 C   0  0  0  0  0  0  0  0  0  0  0  0
   -9.1680   -6.9180  -26.2440 Cl  0  0  0  0  0  0  0  0  0  0  0  0
   -6.8260   -8.0520  -27.2420 H   0  0  0  0  0  0  0  0  0  0  0  0
   -4.4110   -7.5870  -26.7970 H   0  0  0  0  0  0  0  0  0  0  0  0
   -3.7860   -5.7970  -25.1790 H   0  0  0  0  0  0  0  0  0  0  0  0
   -5.5490   -4.4980  -24.0270 H   0  0  0  0  0  0  0  0  0  0  0  0
   -8.0350   -3.1700  -24.2990 C   0  0  0  0  0  0  0  0  0  0  0  0
   -8.8580   -2.6040  -24.7520 H   0  0  0  0  0  0  0  0  0  0  0  0
   -7.0980   -2.8270  -24.7570 H   0  0  0  0  0  0  0  0  0  0  0  0
   -9.2250   -5.0180  -24.6000 H   0  0  0  0  0  0  0  0  0  0  0  0
   -8.9670   -5.0560  -22.1600 H   0  0  0  0  0  0  0  0  0  0  0  0
   -7.1920   -5.1490  -22.3150 H   0  0  0  0  0  0  0  0  0  0  0  0
   -6.8400   -2.5130  -22.0540 C   0  0  0  0  0  0  0  0  0  0  0  0
   -5.6770   -2.8000  -22.2310 O   0  0  0  0  0  0  0  0  0  0  0  0
   -7.3410   -1.5180  -21.2040 N   0  0  0  0  0  0  0  0  0  0  0  0
   -6.5850   -0.8590  -20.1860 C   0  0  0  0  0  0  0  0  0  0  0  0
   -6.9120   -1.0580  -18.8660 C   0  0  0  0  0  0  0  0  0  0  0  0
   -6.2190   -0.5400  -17.8220 N   0  0  0  0  0  0  0  0  0  0  0  0
   -5.1780    0.2050  -18.0960 C   0  0  0  0  0  0  0  0  0  0  0  0
   -4.7440    0.5210  -19.4100 C   0  0  0  0  0  0  0  0  0  0  0  0
   -3.6140    1.3530  -19.6370 C   0  0  0  0  0  0  0  0  0  0  0  0
   -3.2260    1.6570  -20.9110 C   0  0  0  0  0  0  0  0  0  0  0  0
   -3.9560    1.1430  -22.0070 C   0  0  0  0  0  0  0  0  0  0  0  0
   -5.0500    0.3360  -21.8130 C   0  0  0  0  0  0  0  0  0  0  0  0
   -5.4690   -0.0140  -20.4990 C   0  0  0  0  0  0  0  0  0  0  0  0
   -5.6020   -0.0450  -22.6650 H   0  0  0  0  0  0  0  0  0  0  0  0
   -3.6490    1.3990  -23.0150 H   0  0  0  0  0  0  0  0  0  0  0  0
   -2.3700    2.3050  -21.0920 H   0  0  0  0  0  0  0  0  0  0  0  0
   -3.0770    1.7480  -18.7800 H   0  0  0  0  0  0  0  0  0  0  0  0
   -4.6260    0.6060  -17.2470 H   0  0  0  0  0  0  0  0  0  0  0  0
   -7.7580   -1.6840  -18.5970 H   0  0  0  0  0  0  0  0  0  0  0  0
  -10.1000   -2.6040  -22.3660 H   0  0  0  0  0  0  0  0  0  0  0  0
  1  2  2  0  0  0  0
  2  3  1  0  0  0  0
  2 26  1  0  0  0  0
  3  4  1  0  0  0  0
  3 43  1  0  0  0  0
  4  5  1  0  0  0  0
  4 18  1  0  0  0  0
  4 24  1  1  0  0  0
  5  6  1  0  0  0  0
  5 22  1  0  0  0  0
  5 23  1  0  0  0  0
  6  7  1  0  0  0  0
  6 18  1  0  0  0  0
  6 21  1  6  0  0  0
  7  8  2  0  0  0  0
  7 12  1  0  0  0  0
  8  9  1  0  0  0  0
  8 17  1  0  0  0  0
  9 10  2  0  0  0  0
  9 16  1  0  0  0  0
 10 11  1  0  0  0  0
 10 15  1  0  0  0  0
 11 12  2  0  0  0  0
 11 14  1  0  0  0  0
 12 13  1  0  0  0  0
 18 19  1  0  0  0  0
 18 20  1  0  0  0  0
 24 25  2  0  0  0  0
 24 26  1  0  0  0  0
 26 27  1  0  0  0  0
 27 28  2  0  0  0  0
 27 36  1  0  0  0  0
 28 29  1  0  0  0  0
 28 42  1  0  0  0  0
 29 30  2  0  0  0  0
 30 31  1  0  0  0  0
 30 41  1  0  0  0  0
 31 32  2  0  0  0  0
 31 36  1  0  0  0  0
 32 33  1  0  0  0  0
 32 40  1  0  0  0  0
 33 34  2  0  0  0  0
 33 39  1  0  0  0  0
 34 35  1  0  0  0  0
 34 38  1  0  0  0  0
 35 36  2  0  0  0  0
 35 37  1  0  0  0  0
M  END
>  <MODEL>
       1

$$$$
