tmp_first_model_12_54.pdb
 OpenBabel08272523333D

 40 43  0  0  0  0  0  0  0  0999 V2000
   -7.9490   -3.5340  -24.0170 C   0  0  0  0  0  0  0  0  0  0  0  0
   -7.9890   -2.6580  -22.8690 N   0  0  0  0  0  0  0  0  0  0  0  0
   -9.0510   -2.0280  -22.2840 C   0  0  0  0  0  0  0  0  0  0  0  0
  -10.4190   -2.0460  -22.8770 C   0  0  0  0  0  0  0  0  0  0  0  0
  -10.4800   -1.1530  -24.1010 C   0  0  0  0  0  0  0  0  0  0  0  0
  -10.4940    0.2300  -23.9330 C   0  0  0  0  0  0  0  0  0  0  0  0
  -10.5330    1.0770  -25.0370 C   0  0  0  0  0  0  0  0  0  0  0  0
  -10.5080    0.5470  -26.3260 C   0  0  0  0  0  0  0  0  0  0  0  0
  -10.4820   -0.8360  -26.5020 C   0  0  0  0  0  0  0  0  0  0  0  0
  -10.4870   -1.6770  -25.3930 C   0  0  0  0  0  0  0  0  0  0  0  0
  -10.5320   -2.7570  -25.5360 H   0  0  0  0  0  0  0  0  0  0  0  0
  -10.4840   -1.2630  -27.5030 H   0  0  0  0  0  0  0  0  0  0  0  0
  -10.5690    1.2020  -27.1930 H   0  0  0  0  0  0  0  0  0  0  0  0
  -10.5950    2.1540  -24.8930 H   0  0  0  0  0  0  0  0  0  0  0  0
  -10.4930    0.6300  -22.9200 H   0  0  0  0  0  0  0  0  0  0  0  0
  -10.7100   -3.0680  -23.1430 H   0  0  0  0  0  0  0  0  0  0  0  0
  -11.1030   -1.7120  -22.0900 H   0  0  0  0  0  0  0  0  0  0  0  0
   -8.6930   -1.3290  -21.2520 N   0  0  0  0  0  0  0  0  0  0  0  0
   -7.3330   -1.4770  -21.1870 N   0  0  0  0  0  0  0  0  0  0  0  0
   -6.5830   -0.8250  -20.1830 C   0  0  0  0  0  0  0  0  0  0  0  0
   -6.9190   -1.0550  -18.8730 C   0  0  0  0  0  0  0  0  0  0  0  0
   -6.2270   -0.5650  -17.8220 N   0  0  0  0  0  0  0  0  0  0  0  0
   -5.1920    0.2000  -18.0880 C   0  0  0  0  0  0  0  0  0  0  0  0
   -4.7750    0.5650  -19.3970 C   0  0  0  0  0  0  0  0  0  0  0  0
   -3.6420    1.3950  -19.6110 C   0  0  0  0  0  0  0  0  0  0  0  0
   -3.2800    1.7520  -20.8830 C   0  0  0  0  0  0  0  0  0  0  0  0
   -4.0500    1.3220  -21.9870 C   0  0  0  0  0  0  0  0  0  0  0  0
   -5.1370    0.4990  -21.8080 C   0  0  0  0  0  0  0  0  0  0  0  0
   -5.5100    0.0750  -20.4970 C   0  0  0  0  0  0  0  0  0  0  0  0
   -5.6800    0.1190  -22.6690 H   0  0  0  0  0  0  0  0  0  0  0  0
   -3.7400    1.5950  -22.9940 H   0  0  0  0  0  0  0  0  0  0  0  0
   -2.3870    2.3480  -21.0560 H   0  0  0  0  0  0  0  0  0  0  0  0
   -3.0750    1.7180  -18.7410 H   0  0  0  0  0  0  0  0  0  0  0  0
   -4.6370    0.5830  -17.2360 H   0  0  0  0  0  0  0  0  0  0  0  0
   -7.7810   -1.6730  -18.6310 H   0  0  0  0  0  0  0  0  0  0  0  0
   -6.8510   -2.3690  -22.1310 C   0  0  0  0  0  0  0  0  0  0  0  0
   -5.7280   -2.7980  -22.2900 O   0  0  0  0  0  0  0  0  0  0  0  0
   -8.8190   -4.2000  -24.0120 H   0  0  0  0  0  0  0  0  0  0  0  0
   -7.0270   -4.1150  -23.9240 H   0  0  0  0  0  0  0  0  0  0  0  0
   -7.9300   -2.9520  -24.9470 H   0  0  0  0  0  0  0  0  0  0  0  0
  1  2  1  0  0  0  0
  1 38  1  0  0  0  0
  1 39  1  0  0  0  0
  1 40  1  0  0  0  0
  2  3  1  0  0  0  0
  2 36  1  0  0  0  0
  3  4  1  0  0  0  0
  3 18  2  0  0  0  0
  4  5  1  0  0  0  0
  4 16  1  0  0  0  0
  4 17  1  0  0  0  0
  5  6  2  0  0  0  0
  5 10  1  0  0  0  0
  6  7  1  0  0  0  0
  6 15  1  0  0  0  0
  7  8  2  0  0  0  0
  7 14  1  0  0  0  0
  8  9  1  0  0  0  0
  8 13  1  0  0  0  0
  9 10  2  0  0  0  0
  9 12  1  0  0  0  0
 10 11  1  0  0  0  0
 18 19  1  0  0  0  0
 19 20  1  0  0  0  0
 19 36  1  0  0  0  0
 20 21  2  0  0  0  0
 20 29  1  0  0  0  0
 21 22  1  0  0  0  0
 21 35  1  0  0  0  0
 22 23  2  0  0  0  0
 23 24  1  0  0  0  0
 23 34  1  0  0  0  0
 24 25  2  0  0  0  0
 24 29  1  0  0  0  0
 25 26  1  0  0  0  0
 25 33  1  0  0  0  0
 26 27  2  0  0  0  0
 26 32  1  0  0  0  0
 27 28  1  0  0  0  0
 27 31  1  0  0  0  0
 28 29  2  0  0  0  0
 28 30  1  0  0  0  0
 36 37  2  0  0  0  0
M  END
>  <MODEL>
       1

$$$$
