tmp_first_model_19_19.pdb
 OpenBabel08282503233D

 42 45  0  0  1  0  0  0  0  0999 V2000
   -5.6980   -2.9350  -21.6450 O   0  0  0  0  0  0  0  0  0  0  0  0
   -6.7850   -2.4920  -21.9570 C   0  0  0  0  0  0  0  0  0  0  0  0
   -7.5230   -2.9890  -23.2150 C   0  0  1  0  0  0  0  0  0  0  0  0
   -7.2820   -4.4720  -23.4530 C   0  0  0  0  0  0  0  0  0  0  0  0
   -7.5910   -5.4110  -22.4760 C   0  0  0  0  0  0  0  0  0  0  0  0
   -7.4120   -6.7680  -22.6880 C   0  0  0  0  0  0  0  0  0  0  0  0
   -6.9280   -7.2300  -23.9060 C   0  0  0  0  0  0  0  0  0  0  0  0
   -6.7080   -8.9330  -24.1190 Cl  0  0  0  0  0  0  0  0  0  0  0  0
   -6.6320   -6.3060  -24.9080 C   0  0  0  0  0  0  0  0  0  0  0  0
   -6.0260   -6.8130  -26.4480 Cl  0  0  0  0  0  0  0  0  0  0  0  0
   -6.8110   -4.9430  -24.6760 C   0  0  0  0  0  0  0  0  0  0  0  0
   -6.5780   -4.2620  -25.4880 H   0  0  0  0  0  0  0  0  0  0  0  0
   -7.6370   -7.4890  -21.9120 H   0  0  0  0  0  0  0  0  0  0  0  0
   -7.9660   -5.0670  -21.5240 H   0  0  0  0  0  0  0  0  0  0  0  0
   -9.0140   -2.6630  -23.2150 C   0  0  0  0  0  0  0  0  0  0  0  0
   -9.2930   -1.2520  -22.7410 C   0  0  2  0  0  0  0  0  0  0  0  0
   -8.6770   -0.3420  -23.6350 O   0  0  0  0  0  0  0  0  0  0  0  0
   -9.0330    0.5390  -23.4450 H   0  0  0  0  0  0  0  0  0  0  0  0
   -8.7640   -1.1000  -21.3230 C   0  0  0  0  0  0  0  0  0  0  0  0
   -7.3520   -1.4470  -21.2380 N   0  0  0  0  0  0  0  0  0  0  0  0
   -6.5690   -0.8590  -20.1960 C   0  0  0  0  0  0  0  0  0  0  0  0
   -6.8880   -1.0550  -18.8780 C   0  0  0  0  0  0  0  0  0  0  0  0
   -6.1990   -0.5480  -17.8230 N   0  0  0  0  0  0  0  0  0  0  0  0
   -5.1630    0.2170  -18.0770 C   0  0  0  0  0  0  0  0  0  0  0  0
   -4.7250    0.5280  -19.3940 C   0  0  0  0  0  0  0  0  0  0  0  0
   -3.5970    1.3590  -19.6340 C   0  0  0  0  0  0  0  0  0  0  0  0
   -3.2150    1.6570  -20.9140 C   0  0  0  0  0  0  0  0  0  0  0  0
   -3.9430    1.1380  -22.0080 C   0  0  0  0  0  0  0  0  0  0  0  0
   -5.0360    0.3340  -21.7990 C   0  0  0  0  0  0  0  0  0  0  0  0
   -5.4480   -0.0110  -20.4860 C   0  0  0  0  0  0  0  0  0  0  0  0
   -5.6050   -0.0540  -22.6350 H   0  0  0  0  0  0  0  0  0  0  0  0
   -3.6400    1.3810  -23.0210 H   0  0  0  0  0  0  0  0  0  0  0  0
   -2.3610    2.3030  -21.1010 H   0  0  0  0  0  0  0  0  0  0  0  0
   -3.0580    1.7730  -18.7840 H   0  0  0  0  0  0  0  0  0  0  0  0
   -4.6130    0.6220  -17.2230 H   0  0  0  0  0  0  0  0  0  0  0  0
   -7.7350   -1.6790  -18.6010 H   0  0  0  0  0  0  0  0  0  0  0  0
   -9.3710   -1.7250  -20.6540 H   0  0  0  0  0  0  0  0  0  0  0  0
   -8.8660   -0.0620  -21.0010 H   0  0  0  0  0  0  0  0  0  0  0  0
  -10.3830   -1.0930  -22.7290 H   0  0  0  0  0  0  0  0  0  0  0  0
   -9.5350   -3.3670  -22.5590 H   0  0  0  0  0  0  0  0  0  0  0  0
   -9.4240   -2.8070  -24.2180 H   0  0  0  0  0  0  0  0  0  0  0  0
   -7.0660   -2.4430  -24.0440 H   0  0  0  0  0  0  0  0  0  0  0  0
  1  2  2  0  0  0  0
  2  3  1  0  0  0  0
  2 20  1  0  0  0  0
  3  4  1  0  0  0  0
  3 15  1  0  0  0  0
  3 42  1  6  0  0  0
  4  5  2  0  0  0  0
  4 11  1  0  0  0  0
  5  6  1  0  0  0  0
  5 14  1  0  0  0  0
  6  7  2  0  0  0  0
  6 13  1  0  0  0  0
  7  8  1  0  0  0  0
  7  9  1  0  0  0  0
  9 10  1  0  0  0  0
  9 11  2  0  0  0  0
 11 12  1  0  0  0  0
 15 16  1  0  0  0  0
 15 40  1  0  0  0  0
 15 41  1  0  0  0  0
 16 17  1  0  0  0  0
 16 19  1  0  0  0  0
 16 39  1  6  0  0  0
 17 18  1  0  0  0  0
 19 20  1  0  0  0  0
 19 37  1  0  0  0  0
 19 38  1  0  0  0  0
 20 21  1  0  0  0  0
 21 22  2  0  0  0  0
 21 30  1  0  0  0  0
 22 23  1  0  0  0  0
 22 36  1  0  0  0  0
 23 24  2  0  0  0  0
 24 25  1  0  0  0  0
 24 35  1  0  0  0  0
 25 26  2  0  0  0  0
 25 30  1  0  0  0  0
 26 27  1  0  0  0  0
 26 34  1  0  0  0  0
 27 28  2  0  0  0  0
 27 33  1  0  0  0  0
 28 29  1  0  0  0  0
 28 32  1  0  0  0  0
 29 30  2  0  0  0  0
 29 31  1  0  0  0  0
M  END
>  <MODEL>
       1

$$$$
