tmp_first_model_19_54.pdb
 OpenBabel08282503233D

 40 43  0  0  0  0  0  0  0  0999 V2000
   -9.5740   -1.3390  -24.0580 C   0  0  0  0  0  0  0  0  0  0  0  0
   -8.7820   -1.6250  -22.8770 N   0  0  0  0  0  0  0  0  0  0  0  0
   -8.4640   -2.8430  -22.3330 C   0  0  0  0  0  0  0  0  0  0  0  0
   -8.9100   -4.1510  -22.9030 C   0  0  0  0  0  0  0  0  0  0  0  0
   -8.0830   -4.5390  -24.1090 C   0  0  0  0  0  0  0  0  0  0  0  0
   -8.5960   -4.4430  -25.4000 C   0  0  0  0  0  0  0  0  0  0  0  0
   -7.8120   -4.7740  -26.5010 C   0  0  0  0  0  0  0  0  0  0  0  0
   -6.5010   -5.2000  -26.3160 C   0  0  0  0  0  0  0  0  0  0  0  0
   -5.9780   -5.2880  -25.0290 C   0  0  0  0  0  0  0  0  0  0  0  0
   -6.7630   -4.9520  -23.9320 C   0  0  0  0  0  0  0  0  0  0  0  0
   -6.3520   -5.0120  -22.9270 H   0  0  0  0  0  0  0  0  0  0  0  0
   -4.9530   -5.6190  -24.8830 H   0  0  0  0  0  0  0  0  0  0  0  0
   -5.8890   -5.4610  -27.1740 H   0  0  0  0  0  0  0  0  0  0  0  0
   -8.2290   -4.7030  -27.5020 H   0  0  0  0  0  0  0  0  0  0  0  0
   -9.6190   -4.1030  -25.5480 H   0  0  0  0  0  0  0  0  0  0  0  0
   -9.9750   -4.1080  -23.1630 H   0  0  0  0  0  0  0  0  0  0  0  0
   -8.8070   -4.8940  -22.1070 H   0  0  0  0  0  0  0  0  0  0  0  0
   -7.6560   -2.7300  -21.3210 N   0  0  0  0  0  0  0  0  0  0  0  0
   -7.4050   -1.3860  -21.2130 N   0  0  0  0  0  0  0  0  0  0  0  0
   -6.5810   -0.8340  -20.1860 C   0  0  0  0  0  0  0  0  0  0  0  0
   -6.8880   -1.0590  -18.8660 C   0  0  0  0  0  0  0  0  0  0  0  0
   -6.1940   -0.5480  -17.8210 N   0  0  0  0  0  0  0  0  0  0  0  0
   -5.1630    0.2240  -18.0730 C   0  0  0  0  0  0  0  0  0  0  0  0
   -4.7230    0.5310  -19.3900 C   0  0  0  0  0  0  0  0  0  0  0  0
   -3.5850    1.3520  -19.6270 C   0  0  0  0  0  0  0  0  0  0  0  0
   -3.1780    1.6140  -20.9060 C   0  0  0  0  0  0  0  0  0  0  0  0
   -3.8780    1.0560  -22.0000 C   0  0  0  0  0  0  0  0  0  0  0  0
   -4.9730    0.2560  -21.7950 C   0  0  0  0  0  0  0  0  0  0  0  0
   -5.4400   -0.0130  -20.4800 C   0  0  0  0  0  0  0  0  0  0  0  0
   -5.4990   -0.1750  -22.6380 H   0  0  0  0  0  0  0  0  0  0  0  0
   -3.5460    1.2590  -23.0120 H   0  0  0  0  0  0  0  0  0  0  0  0
   -2.3160    2.2460  -21.0960 H   0  0  0  0  0  0  0  0  0  0  0  0
   -3.0520    1.7740  -18.7780 H   0  0  0  0  0  0  0  0  0  0  0  0
   -4.6070    0.6250  -17.2210 H   0  0  0  0  0  0  0  0  0  0  0  0
   -7.7390   -1.6780  -18.5940 H   0  0  0  0  0  0  0  0  0  0  0  0
   -8.1150   -0.6450  -22.1480 C   0  0  0  0  0  0  0  0  0  0  0  0
   -8.1380    0.5580  -22.3070 O   0  0  0  0  0  0  0  0  0  0  0  0
   -9.0060   -1.4820  -24.9820 H   0  0  0  0  0  0  0  0  0  0  0  0
   -9.8970   -0.3010  -24.0240 H   0  0  0  0  0  0  0  0  0  0  0  0
  -10.4720   -1.9610  -24.1010 H   0  0  0  0  0  0  0  0  0  0  0  0
  1  2  1  0  0  0  0
  1 38  1  0  0  0  0
  1 39  1  0  0  0  0
  1 40  1  0  0  0  0
  2  3  1  0  0  0  0
  2 36  1  0  0  0  0
  3  4  1  0  0  0  0
  3 18  2  0  0  0  0
  4  5  1  0  0  0  0
  4 16  1  0  0  0  0
  4 17  1  0  0  0  0
  5  6  2  0  0  0  0
  5 10  1  0  0  0  0
  6  7  1  0  0  0  0
  6 15  1  0  0  0  0
  7  8  2  0  0  0  0
  7 14  1  0  0  0  0
  8  9  1  0  0  0  0
  8 13  1  0  0  0  0
  9 10  2  0  0  0  0
  9 12  1  0  0  0  0
 10 11  1  0  0  0  0
 18 19  1  0  0  0  0
 19 20  1  0  0  0  0
 19 36  1  0  0  0  0
 20 21  2  0  0  0  0
 20 29  1  0  0  0  0
 21 22  1  0  0  0  0
 21 35  1  0  0  0  0
 22 23  2  0  0  0  0
 23 24  1  0  0  0  0
 23 34  1  0  0  0  0
 24 25  2  0  0  0  0
 24 29  1  0  0  0  0
 25 26  1  0  0  0  0
 25 33  1  0  0  0  0
 26 27  2  0  0  0  0
 26 32  1  0  0  0  0
 27 28  1  0  0  0  0
 27 31  1  0  0  0  0
 28 29  2  0  0  0  0
 28 30  1  0  0  0  0
 36 37  2  0  0  0  0
M  END
>  <MODEL>
       1

$$$$
