tmp_first_model_12_26.pdb
 OpenBabel08272523333D

 55 60  0  0  1  0  0  0  0  0999 V2000
   -7.8810   -3.6210  -24.0830 C   0  0  0  0  0  0  0  0  0  0  0  0
   -8.2910   -2.8500  -22.8180 C   0  0  1  0  0  0  0  0  0  0  0  0
   -7.0930   -2.6210  -21.8720 C   0  0  0  0  0  0  0  0  0  0  0  0
   -7.4040   -1.3760  -21.2000 N   0  0  0  0  0  0  0  0  0  0  0  0
   -6.6110   -0.7960  -20.1730 C   0  0  0  0  0  0  0  0  0  0  0  0
   -6.9070   -1.0480  -18.8580 C   0  0  0  0  0  0  0  0  0  0  0  0
   -6.1990   -0.5600  -17.8110 N   0  0  0  0  0  0  0  0  0  0  0  0
   -5.1690    0.2080  -18.0740 C   0  0  0  0  0  0  0  0  0  0  0  0
   -4.7470    0.5570  -19.3890 C   0  0  0  0  0  0  0  0  0  0  0  0
   -3.6180    1.3880  -19.6270 C   0  0  0  0  0  0  0  0  0  0  0  0
   -3.2490    1.7160  -20.9020 C   0  0  0  0  0  0  0  0  0  0  0  0
   -4.0050    1.2350  -21.9930 C   0  0  0  0  0  0  0  0  0  0  0  0
   -5.0940    0.4110  -21.7860 C   0  0  0  0  0  0  0  0  0  0  0  0
   -5.5010    0.0570  -20.4750 C   0  0  0  0  0  0  0  0  0  0  0  0
   -5.6050   -0.0200  -22.6420 H   0  0  0  0  0  0  0  0  0  0  0  0
   -3.6830    1.4460  -23.0070 H   0  0  0  0  0  0  0  0  0  0  0  0
   -2.3560    2.3050  -21.0880 H   0  0  0  0  0  0  0  0  0  0  0  0
   -3.0670    1.7610  -18.7670 H   0  0  0  0  0  0  0  0  0  0  0  0
   -4.6230    0.6110  -17.2210 H   0  0  0  0  0  0  0  0  0  0  0  0
   -7.7550   -1.6740  -18.5940 H   0  0  0  0  0  0  0  0  0  0  0  0
   -8.4090   -0.6440  -21.7910 C   0  0  0  0  0  0  0  0  0  0  0  0
   -8.7680    0.4390  -21.3800 O   0  0  0  0  0  0  0  0  0  0  0  0
   -8.9500   -1.4420  -23.0130 C   0  0  1  0  0  0  0  0  0  0  0  0
   -8.4850   -0.8020  -24.3430 C   0  0  0  0  0  0  0  0  0  0  0  0
   -9.1440    0.4530  -24.6180 N   0  0  0  0  0  0  0  0  0  0  0  0
   -8.3520    1.6270  -24.9470 C   0  0  0  0  0  0  0  0  0  0  0  0
   -8.0510    2.4940  -23.7540 C   0  0  0  0  0  0  0  0  0  0  0  0
   -8.8800    3.4280  -23.1160 C   0  0  0  0  0  0  0  0  0  0  0  0
   -8.2160    3.9650  -22.0970 N   0  0  0  0  0  0  0  0  0  0  0  0
   -7.0540    3.3570  -22.1340 N   0  0  0  0  0  0  0  0  0  0  0  0
   -6.8800    2.4730  -23.1040 N   0  0  0  0  0  0  0  0  0  0  0  0
   -6.3770    3.5260  -21.4010 H   0  0  0  0  0  0  0  0  0  0  0  0
   -9.9100    3.7040  -23.3190 H   0  0  0  0  0  0  0  0  0  0  0  0
   -7.4070    1.3010  -25.3940 H   0  0  0  0  0  0  0  0  0  0  0  0
   -8.9220    2.2010  -25.6830 H   0  0  0  0  0  0  0  0  0  0  0  0
  -10.5030    0.5840  -24.5320 C   0  0  0  0  0  0  0  0  0  0  0  0
  -11.0970    1.5300  -25.0380 O   0  0  0  0  0  0  0  0  0  0  0  0
  -11.1940   -0.4790  -23.7350 C   0  0  0  0  0  0  0  0  0  0  0  0
  -12.5880   -0.4530  -23.6810 C   0  0  0  0  0  0  0  0  0  0  0  0
  -13.2770   -1.3120  -22.8500 C   0  0  0  0  0  0  0  0  0  0  0  0
  -12.5400   -2.1830  -22.0600 C   0  0  0  0  0  0  0  0  0  0  0  0
  -13.1900   -2.9850  -21.2020 F   0  0  0  0  0  0  0  0  0  0  0  0
  -11.1650   -2.2430  -22.1020 C   0  0  0  0  0  0  0  0  0  0  0  0
  -10.4660   -1.4200  -22.9900 C   0  0  0  0  0  0  0  0  0  0  0  0
  -10.6710   -2.9110  -21.4040 H   0  0  0  0  0  0  0  0  0  0  0  0
  -14.3590   -1.3400  -22.7950 H   0  0  0  0  0  0  0  0  0  0  0  0
  -13.0970    0.2700  -24.3060 H   0  0  0  0  0  0  0  0  0  0  0  0
   -7.4150   -0.5860  -24.2660 H   0  0  0  0  0  0  0  0  0  0  0  0
   -8.6660   -1.5090  -25.1690 H   0  0  0  0  0  0  0  0  0  0  0  0
   -6.1480   -2.5540  -22.4350 H   0  0  0  0  0  0  0  0  0  0  0  0
   -6.9670   -3.4280  -21.1410 H   0  0  0  0  0  0  0  0  0  0  0  0
   -9.0330   -3.4500  -22.2860 H   0  0  0  0  0  0  0  0  0  0  0  0
   -7.4910   -4.6150  -23.8300 H   0  0  0  0  0  0  0  0  0  0  0  0
   -7.0890   -3.0970  -24.6330 H   0  0  0  0  0  0  0  0  0  0  0  0
   -8.7180   -3.7640  -24.7760 H   0  0  0  0  0  0  0  0  0  0  0  0
  1  2  1  0  0  0  0
  1 53  1  0  0  0  0
  1 54  1  0  0  0  0
  1 55  1  0  0  0  0
  2  3  1  0  0  0  0
  2 23  1  0  0  0  0
  2 52  1  1  0  0  0
  3  4  1  0  0  0  0
  3 50  1  0  0  0  0
  3 51  1  0  0  0  0
  4  5  1  0  0  0  0
  4 21  1  0  0  0  0
  5  6  2  0  0  0  0
  5 14  1  0  0  0  0
  6  7  1  0  0  0  0
  6 20  1  0  0  0  0
  7  8  2  0  0  0  0
  8  9  1  0  0  0  0
  8 19  1  0  0  0  0
  9 10  2  0  0  0  0
  9 14  1  0  0  0  0
 10 11  1  0  0  0  0
 10 18  1  0  0  0  0
 11 12  2  0  0  0  0
 11 17  1  0  0  0  0
 12 13  1  0  0  0  0
 12 16  1  0  0  0  0
 13 14  2  0  0  0  0
 13 15  1  0  0  0  0
 21 22  2  0  0  0  0
 23 21  1  1  0  0  0
 23 24  1  0  0  0  0
 23 44  1  0  0  0  0
 24 25  1  0  0  0  0
 24 48  1  0  0  0  0
 24 49  1  0  0  0  0
 25 26  1  0  0  0  0
 25 36  1  0  0  0  0
 26 27  1  0  0  0  0
 26 34  1  0  0  0  0
 26 35  1  0  0  0  0
 27 28  1  0  0  0  0
 27 31  2  0  0  0  0
 28 29  2  0  0  0  0
 28 33  1  0  0  0  0
 29 30  1  0  0  0  0
 30 31  1  0  0  0  0
 30 32  1  0  0  0  0
 36 37  2  0  0  0  0
 36 38  1  0  0  0  0
 38 39  2  0  0  0  0
 38 44  1  0  0  0  0
 39 40  1  0  0  0  0
 39 47  1  0  0  0  0
 40 41  2  0  0  0  0
 40 46  1  0  0  0  0
 41 42  1  0  0  0  0
 41 43  1  0  0  0  0
 43 44  2  0  0  0  0
 43 45  1  0  0  0  0
M  END
>  <MODEL>
       1

$$$$
