tmp_first_model_6_65.pdb
 OpenBabel08272519583D

 55 60  0  0  1  0  0  0  0  0999 V2000
   -7.8770   -3.5910  -24.1080 C   0  0  0  0  0  0  0  0  0  0  0  0
   -8.2840   -2.8470  -22.8280 C   0  0  1  0  0  0  0  0  0  0  0  0
   -7.0800   -2.6100  -21.8890 C   0  0  0  0  0  0  0  0  0  0  0  0
   -7.4070   -1.3790  -21.1980 N   0  0  0  0  0  0  0  0  0  0  0  0
   -6.6040   -0.8070  -20.1710 C   0  0  0  0  0  0  0  0  0  0  0  0
   -6.9050   -1.0480  -18.8580 C   0  0  0  0  0  0  0  0  0  0  0  0
   -6.1980   -0.5600  -17.8080 N   0  0  0  0  0  0  0  0  0  0  0  0
   -5.1690    0.2070  -18.0740 C   0  0  0  0  0  0  0  0  0  0  0  0
   -4.7390    0.5440  -19.3890 C   0  0  0  0  0  0  0  0  0  0  0  0
   -3.6110    1.3780  -19.6290 C   0  0  0  0  0  0  0  0  0  0  0  0
   -3.2260    1.6750  -20.9050 C   0  0  0  0  0  0  0  0  0  0  0  0
   -3.9540    1.1550  -21.9960 C   0  0  0  0  0  0  0  0  0  0  0  0
   -5.0380    0.3310  -21.7900 C   0  0  0  0  0  0  0  0  0  0  0  0
   -5.4730    0.0170  -20.4780 C   0  0  0  0  0  0  0  0  0  0  0  0
   -5.5660   -0.0760  -22.6480 H   0  0  0  0  0  0  0  0  0  0  0  0
   -3.6400    1.3720  -23.0110 H   0  0  0  0  0  0  0  0  0  0  0  0
   -2.3590    2.3040  -21.0930 H   0  0  0  0  0  0  0  0  0  0  0  0
   -3.0700    1.7710  -18.7720 H   0  0  0  0  0  0  0  0  0  0  0  0
   -4.6210    0.6120  -17.2220 H   0  0  0  0  0  0  0  0  0  0  0  0
   -7.7590   -1.6710  -18.6000 H   0  0  0  0  0  0  0  0  0  0  0  0
   -8.4310   -0.6590  -21.7700 C   0  0  0  0  0  0  0  0  0  0  0  0
   -8.8230    0.4050  -21.3420 O   0  0  0  0  0  0  0  0  0  0  0  0
   -8.9700   -1.4480  -22.9990 C   0  0  1  0  0  0  0  0  0  0  0  0
   -8.5220   -0.7740  -24.3240 C   0  0  0  0  0  0  0  0  0  0  0  0
   -9.2100    0.4750  -24.5800 N   0  0  0  0  0  0  0  0  0  0  0  0
   -8.4410    1.6660  -24.9110 C   0  0  0  0  0  0  0  0  0  0  0  0
   -8.1380    2.5220  -23.7150 C   0  0  0  0  0  0  0  0  0  0  0  0
   -8.9550    3.3790  -23.0690 C   0  0  0  0  0  0  0  0  0  0  0  0
   -8.2700    3.9270  -22.0340 O   0  0  0  0  0  0  0  0  0  0  0  0
   -7.0630    3.3400  -22.0780 C   0  0  0  0  0  0  0  0  0  0  0  0
   -6.9080    2.5150  -23.0630 N   0  0  0  0  0  0  0  0  0  0  0  0
   -6.3950    3.5860  -21.2610 H   0  0  0  0  0  0  0  0  0  0  0  0
   -9.9880    3.6680  -23.1770 H   0  0  0  0  0  0  0  0  0  0  0  0
   -9.0360    2.2270  -25.6380 H   0  0  0  0  0  0  0  0  0  0  0  0
   -7.4990    1.3590  -25.3750 H   0  0  0  0  0  0  0  0  0  0  0  0
  -10.5630    0.6020  -24.4350 C   0  0  0  0  0  0  0  0  0  0  0  0
  -11.1830    1.5790  -24.8420 O   0  0  0  0  0  0  0  0  0  0  0  0
  -11.2370   -0.5110  -23.6880 C   0  0  0  0  0  0  0  0  0  0  0  0
  -12.6320   -0.5100  -23.6360 C   0  0  0  0  0  0  0  0  0  0  0  0
  -13.3010   -1.4000  -22.8210 C   0  0  0  0  0  0  0  0  0  0  0  0
  -12.5490   -2.2630  -22.0330 C   0  0  0  0  0  0  0  0  0  0  0  0
  -13.1940   -3.0790  -21.1840 F   0  0  0  0  0  0  0  0  0  0  0  0
  -11.1720   -2.2970  -22.0790 C   0  0  0  0  0  0  0  0  0  0  0  0
  -10.4900   -1.4510  -22.9620 C   0  0  0  0  0  0  0  0  0  0  0  0
  -10.6570   -2.9610  -21.3940 H   0  0  0  0  0  0  0  0  0  0  0  0
  -14.3810   -1.4200  -22.7470 H   0  0  0  0  0  0  0  0  0  0  0  0
  -13.1570    0.2290  -24.2320 H   0  0  0  0  0  0  0  0  0  0  0  0
   -8.6990   -1.4720  -25.1570 H   0  0  0  0  0  0  0  0  0  0  0  0
   -7.4520   -0.5510  -24.2540 H   0  0  0  0  0  0  0  0  0  0  0  0
   -6.1430   -2.5110  -22.4590 H   0  0  0  0  0  0  0  0  0  0  0  0
   -6.9390   -3.4270  -21.1710 H   0  0  0  0  0  0  0  0  0  0  0  0
   -9.0050   -3.4700  -22.2950 H   0  0  0  0  0  0  0  0  0  0  0  0
   -8.7230   -3.7370  -24.7900 H   0  0  0  0  0  0  0  0  0  0  0  0
   -7.0990   -3.0460  -24.6560 H   0  0  0  0  0  0  0  0  0  0  0  0
   -7.4710   -4.5810  -23.8700 H   0  0  0  0  0  0  0  0  0  0  0  0
  1  2  1  0  0  0  0
  1 53  1  0  0  0  0
  1 54  1  0  0  0  0
  1 55  1  0  0  0  0
  2  3  1  0  0  0  0
  2 23  1  0  0  0  0
  2 52  1  1  0  0  0
  3  4  1  0  0  0  0
  3 50  1  0  0  0  0
  3 51  1  0  0  0  0
  4  5  1  0  0  0  0
  4 21  1  0  0  0  0
  5  6  2  0  0  0  0
  5 14  1  0  0  0  0
  6  7  1  0  0  0  0
  6 20  1  0  0  0  0
  7  8  2  0  0  0  0
  8  9  1  0  0  0  0
  8 19  1  0  0  0  0
  9 10  2  0  0  0  0
  9 14  1  0  0  0  0
 10 11  1  0  0  0  0
 10 18  1  0  0  0  0
 11 12  2  0  0  0  0
 11 17  1  0  0  0  0
 12 13  1  0  0  0  0
 12 16  1  0  0  0  0
 13 14  2  0  0  0  0
 13 15  1  0  0  0  0
 21 22  2  0  0  0  0
 23 21  1  1  0  0  0
 23 24  1  0  0  0  0
 23 44  1  0  0  0  0
 24 25  1  0  0  0  0
 24 48  1  0  0  0  0
 24 49  1  0  0  0  0
 25 26  1  0  0  0  0
 25 36  1  0  0  0  0
 26 27  1  0  0  0  0
 26 34  1  0  0  0  0
 26 35  1  0  0  0  0
 27 28  2  0  0  0  0
 27 31  1  0  0  0  0
 28 29  1  0  0  0  0
 28 33  1  0  0  0  0
 29 30  1  0  0  0  0
 30 31  2  0  0  0  0
 30 32  1  0  0  0  0
 36 37  2  0  0  0  0
 36 38  1  0  0  0  0
 38 39  2  0  0  0  0
 38 44  1  0  0  0  0
 39 40  1  0  0  0  0
 39 47  1  0  0  0  0
 40 41  2  0  0  0  0
 40 46  1  0  0  0  0
 41 42  1  0  0  0  0
 41 43  1  0  0  0  0
 43 44  2  0  0  0  0
 43 45  1  0  0  0  0
M  END
>  <MODEL>
       1

$$$$
