tmp_first_model_4_90.pdb
 OpenBabel08272518513D

 64 68  0  0  1  0  0  0  0  0999 V2000
   -7.3230    3.3680  -21.8970 C   0  0  0  0  0  0  0  0  0  0  0  0
   -8.2740    2.8690  -22.8770 N   0  0  0  0  0  0  0  0  0  0  0  0
   -7.7890    2.1660  -23.9370 C   0  0  0  0  0  0  0  0  0  0  0  0
   -6.5890    1.9860  -24.0970 O   0  0  0  0  0  0  0  0  0  0  0  0
   -8.8250    1.5840  -24.9050 C   0  0  0  0  0  0  0  0  0  0  0  0
   -9.4820    0.4390  -24.3010 N   0  0  0  0  0  0  0  0  0  0  0  0
   -8.7200   -0.7930  -24.1350 C   0  0  0  0  0  0  0  0  0  0  0  0
   -9.0930   -1.5410  -22.8260 C   0  0  2  0  0  0  0  0  0  0  0  0
   -8.5300   -0.7790  -21.5960 C   0  0  0  0  0  0  0  0  0  0  0  0
   -8.9830    0.2140  -21.0610 O   0  0  0  0  0  0  0  0  0  0  0  0
   -7.3830   -1.4240  -21.1980 N   0  0  0  0  0  0  0  0  0  0  0  0
   -6.5310   -0.9470  -20.1800 C   0  0  0  0  0  0  0  0  0  0  0  0
   -6.7460   -1.2950  -18.8720 C   0  0  0  0  0  0  0  0  0  0  0  0
   -5.8530   -1.0840  -17.8780 N   0  0  0  0  0  0  0  0  0  0  0  0
   -4.7240   -0.4960  -18.1940 C   0  0  0  0  0  0  0  0  0  0  0  0
   -4.4070   -0.0270  -19.5030 C   0  0  0  0  0  0  0  0  0  0  0  0
   -3.2170    0.7000  -19.7720 C   0  0  0  0  0  0  0  0  0  0  0  0
   -3.0010    1.2380  -21.0080 C   0  0  0  0  0  0  0  0  0  0  0  0
   -3.9430    1.0390  -22.0460 C   0  0  0  0  0  0  0  0  0  0  0  0
   -5.0600    0.2680  -21.8310 C   0  0  0  0  0  0  0  0  0  0  0  0
   -5.3470   -0.2330  -20.5310 C   0  0  0  0  0  0  0  0  0  0  0  0
   -5.7500    0.0580  -22.6450 H   0  0  0  0  0  0  0  0  0  0  0  0
   -3.7830    1.4770  -23.0260 H   0  0  0  0  0  0  0  0  0  0  0  0
   -2.1260    1.8550  -21.1900 H   0  0  0  0  0  0  0  0  0  0  0  0
   -2.5450    0.8880  -18.9390 H   0  0  0  0  0  0  0  0  0  0  0  0
   -3.9960   -0.3450  -17.3950 H   0  0  0  0  0  0  0  0  0  0  0  0
   -7.6720   -1.7940  -18.5960 H   0  0  0  0  0  0  0  0  0  0  0  0
   -7.0380   -2.6020  -21.9580 C   0  0  0  0  0  0  0  0  0  0  0  0
   -8.3390   -2.9060  -22.7130 C   0  0  2  0  0  0  0  0  0  0  0  0
   -8.1040   -3.6440  -24.0300 C   0  0  0  0  0  0  0  0  0  0  0  0
   -7.4460   -5.2880  -23.7380 S   0  0  0  0  0  0  0  0  0  0  0  0
   -8.4310   -6.0450  -22.9840 O   0  0  0  0  0  0  0  0  0  0  0  0
   -6.0740   -5.1440  -23.2650 O   0  0  0  0  0  0  0  0  0  0  0  0
   -7.3370   -5.9530  -25.2370 N   0  0  0  0  0  0  0  0  0  0  0  0
   -8.5100   -6.4390  -25.9390 C   0  0  0  0  0  0  0  0  0  0  0  0
   -9.0600   -7.1190  -25.2840 H   0  0  0  0  0  0  0  0  0  0  0  0
   -8.1730   -6.9970  -26.8150 H   0  0  0  0  0  0  0  0  0  0  0  0
   -9.1870   -5.6440  -26.2860 H   0  0  0  0  0  0  0  0  0  0  0  0
   -6.5380   -5.6420  -25.7700 H   0  0  0  0  0  0  0  0  0  0  0  0
   -7.3730   -3.1090  -24.6490 H   0  0  0  0  0  0  0  0  0  0  0  0
   -9.0430   -3.7480  -24.5820 H   0  0  0  0  0  0  0  0  0  0  0  0
   -8.9260   -3.5590  -22.0640 H   0  0  0  0  0  0  0  0  0  0  0  0
   -6.1980   -2.4140  -22.6410 H   0  0  0  0  0  0  0  0  0  0  0  0
   -6.7340   -3.4250  -21.3020 H   0  0  0  0  0  0  0  0  0  0  0  0
  -10.6080   -1.6330  -22.7570 C   0  0  0  0  0  0  0  0  0  0  0  0
  -11.2390   -2.5890  -21.9490 C   0  0  0  0  0  0  0  0  0  0  0  0
  -12.6160   -2.6110  -21.8500 C   0  0  0  0  0  0  0  0  0  0  0  0
  -13.1900   -3.5260  -21.0470 F   0  0  0  0  0  0  0  0  0  0  0  0
  -13.4270   -1.7150  -22.5380 C   0  0  0  0  0  0  0  0  0  0  0  0
  -12.8140   -0.7590  -23.3210 C   0  0  0  0  0  0  0  0  0  0  0  0
  -11.4220   -0.6970  -23.4140 C   0  0  0  0  0  0  0  0  0  0  0  0
  -10.8440    0.4460  -24.1890 C   0  0  0  0  0  0  0  0  0  0  0  0
  -11.5470    1.3290  -24.6620 O   0  0  0  0  0  0  0  0  0  0  0  0
  -13.3980   -0.0220  -23.8620 H   0  0  0  0  0  0  0  0  0  0  0  0
  -14.5040   -1.7700  -22.4270 H   0  0  0  0  0  0  0  0  0  0  0  0
  -10.6810   -3.3160  -21.3690 H   0  0  0  0  0  0  0  0  0  0  0  0
   -8.9130   -1.4470  -24.9960 H   0  0  0  0  0  0  0  0  0  0  0  0
   -7.6540   -0.5440  -24.1350 H   0  0  0  0  0  0  0  0  0  0  0  0
   -8.3090    1.3020  -25.8290 H   0  0  0  0  0  0  0  0  0  0  0  0
   -9.6070    2.3060  -25.1660 H   0  0  0  0  0  0  0  0  0  0  0  0
   -9.2160    2.6870  -22.5540 H   0  0  0  0  0  0  0  0  0  0  0  0
   -6.7220    2.5440  -21.4850 H   0  0  0  0  0  0  0  0  0  0  0  0
   -7.8590    3.8940  -21.1040 H   0  0  0  0  0  0  0  0  0  0  0  0
   -6.6440    4.0870  -22.3610 H   0  0  0  0  0  0  0  0  0  0  0  0
  1  2  1  0  0  0  0
  1 62  1  0  0  0  0
  1 63  1  0  0  0  0
  1 64  1  0  0  0  0
  2  3  1  0  0  0  0
  2 61  1  0  0  0  0
  3  4  2  0  0  0  0
  3  5  1  0  0  0  0
  5  6  1  0  0  0  0
  5 59  1  0  0  0  0
  5 60  1  0  0  0  0
  6  7  1  0  0  0  0
  6 52  1  0  0  0  0
  7  8  1  0  0  0  0
  7 57  1  0  0  0  0
  7 58  1  0  0  0  0
  8  9  1  1  0  0  0
  8 29  1  0  0  0  0
  8 45  1  0  0  0  0
  9 10  2  0  0  0  0
  9 11  1  0  0  0  0
 11 12  1  0  0  0  0
 11 28  1  0  0  0  0
 12 13  2  0  0  0  0
 12 21  1  0  0  0  0
 13 14  1  0  0  0  0
 13 27  1  0  0  0  0
 14 15  2  0  0  0  0
 15 16  1  0  0  0  0
 15 26  1  0  0  0  0
 16 17  2  0  0  0  0
 16 21  1  0  0  0  0
 17 18  1  0  0  0  0
 17 25  1  0  0  0  0
 18 19  2  0  0  0  0
 18 24  1  0  0  0  0
 19 20  1  0  0  0  0
 19 23  1  0  0  0  0
 20 21  2  0  0  0  0
 20 22  1  0  0  0  0
 28 29  1  0  0  0  0
 28 43  1  0  0  0  0
 28 44  1  0  0  0  0
 29 30  1  0  0  0  0
 29 42  1  1  0  0  0
 30 31  1  0  0  0  0
 30 40  1  0  0  0  0
 30 41  1  0  0  0  0
 31 32  2  0  0  0  0
 31 33  2  0  0  0  0
 31 34  1  0  0  0  0
 34 35  1  0  0  0  0
 34 39  1  0  0  0  0
 35 36  1  0  0  0  0
 35 37  1  0  0  0  0
 35 38  1  0  0  0  0
 45 46  2  0  0  0  0
 45 51  1  0  0  0  0
 46 47  1  0  0  0  0
 46 56  1  0  0  0  0
 47 48  1  0  0  0  0
 47 49  2  0  0  0  0
 49 50  1  0  0  0  0
 49 55  1  0  0  0  0
 50 51  2  0  0  0  0
 50 54  1  0  0  0  0
 51 52  1  0  0  0  0
 52 53  2  0  0  0  0
M  END
>  <MODEL>
       1

$$$$
