tmp_first_model_3_30.pdb
 OpenBabel08272518143D

 58 63  0  0  1  0  0  0  0  0999 V2000
   -8.3410   -4.2120  -23.6630 C   0  0  0  0  0  0  0  0  0  0  0  0
   -8.5440   -3.1970  -22.5540 C   0  0  1  0  0  0  0  0  0  0  0  0
   -7.2200   -2.5480  -22.1380 C   0  0  0  0  0  0  0  0  0  0  0  0
   -7.6660   -1.3990  -21.3840 N   0  0  0  0  0  0  0  0  0  0  0  0
   -6.9230   -0.8630  -20.3100 C   0  0  0  0  0  0  0  0  0  0  0  0
   -7.3130   -1.0650  -19.0060 C   0  0  0  0  0  0  0  0  0  0  0  0
   -6.6210   -0.6070  -17.9330 N   0  0  0  0  0  0  0  0  0  0  0  0
   -5.5290    0.0820  -18.1670 C   0  0  0  0  0  0  0  0  0  0  0  0
   -5.0180    0.3620  -19.4670 C   0  0  0  0  0  0  0  0  0  0  0  0
   -3.8590    1.1550  -19.6790 C   0  0  0  0  0  0  0  0  0  0  0  0
   -3.4280    1.4410  -20.9440 C   0  0  0  0  0  0  0  0  0  0  0  0
   -4.1140    0.9180  -22.0620 C   0  0  0  0  0  0  0  0  0  0  0  0
   -5.2070    0.1030  -21.8820 C   0  0  0  0  0  0  0  0  0  0  0  0
   -5.7130   -0.1560  -20.5800 C   0  0  0  0  0  0  0  0  0  0  0  0
   -5.7330   -0.2810  -22.7510 H   0  0  0  0  0  0  0  0  0  0  0  0
   -3.8300    1.2160  -23.0630 H   0  0  0  0  0  0  0  0  0  0  0  0
   -2.5580    2.0750  -21.0920 H   0  0  0  0  0  0  0  0  0  0  0  0
   -3.3480    1.5510  -18.8080 H   0  0  0  0  0  0  0  0  0  0  0  0
   -4.9710    0.4580  -17.3070 H   0  0  0  0  0  0  0  0  0  0  0  0
   -8.2140   -1.6360  -18.7840 H   0  0  0  0  0  0  0  0  0  0  0  0
   -8.9770   -1.0640  -21.6510 C   0  0  0  0  0  0  0  0  0  0  0  0
   -9.5940   -0.1910  -21.0780 O   0  0  0  0  0  0  0  0  0  0  0  0
   -9.5200   -2.0140  -22.7570 C   0  0  1  0  0  0  0  0  0  0  0  0
   -9.4090   -1.3710  -24.1620 C   0  0  0  0  0  0  0  0  0  0  0  0
  -10.3430   -0.2800  -24.3730 N   0  0  0  0  0  0  0  0  0  0  0  0
   -9.8880    0.8030  -25.2300 C   0  0  0  0  0  0  0  0  0  0  0  0
   -8.8540    1.6430  -24.4890 C   0  0  0  0  0  0  0  0  0  0  0  0
   -7.6760    2.0330  -25.0620 C   0  0  0  0  0  0  0  0  0  0  0  0
   -6.5570    2.4390  -24.2290 C   0  0  0  0  0  0  0  0  0  0  0  0
   -5.4230    2.6940  -24.5940 O   0  0  0  0  0  0  0  0  0  0  0  0
   -6.9120    2.4900  -22.8640 N   0  0  0  0  0  0  0  0  0  0  0  0
   -8.1670    2.2130  -22.4050 C   0  0  0  0  0  0  0  0  0  0  0  0
   -9.1500    1.8770  -23.1750 N   0  0  0  0  0  0  0  0  0  0  0  0
   -8.3090    2.2280  -21.3270 H   0  0  0  0  0  0  0  0  0  0  0  0
   -6.1480    2.6210  -22.2090 H   0  0  0  0  0  0  0  0  0  0  0  0
   -7.5300    1.9970  -26.1310 H   0  0  0  0  0  0  0  0  0  0  0  0
  -10.7670    1.3950  -25.4930 H   0  0  0  0  0  0  0  0  0  0  0  0
   -9.4450    0.3940  -26.1510 H   0  0  0  0  0  0  0  0  0  0  0  0
  -11.5240   -0.1300  -23.7040 C   0  0  0  0  0  0  0  0  0  0  0  0
  -12.2730    0.8200  -23.9080 O   0  0  0  0  0  0  0  0  0  0  0  0
  -11.8640   -1.2110  -22.7350 C   0  0  0  0  0  0  0  0  0  0  0  0
  -13.0990   -1.1320  -22.1020 C   0  0  0  0  0  0  0  0  0  0  0  0
  -13.4890   -2.1300  -21.2440 C   0  0  0  0  0  0  0  0  0  0  0  0
  -12.6780   -3.2520  -21.1200 C   0  0  0  0  0  0  0  0  0  0  0  0
  -13.1150   -4.2480  -20.3330 F   0  0  0  0  0  0  0  0  0  0  0  0
  -11.4410   -3.3510  -21.7230 C   0  0  0  0  0  0  0  0  0  0  0  0
  -10.9750   -2.2580  -22.4620 C   0  0  0  0  0  0  0  0  0  0  0  0
  -10.8470   -4.2410  -21.5560 H   0  0  0  0  0  0  0  0  0  0  0  0
  -14.4110   -2.0920  -20.6750 H   0  0  0  0  0  0  0  0  0  0  0  0
  -13.7210   -0.2630  -22.2850 H   0  0  0  0  0  0  0  0  0  0  0  0
   -9.5810   -2.1340  -24.9330 H   0  0  0  0  0  0  0  0  0  0  0  0
   -8.3980   -0.9710  -24.2970 H   0  0  0  0  0  0  0  0  0  0  0  0
   -6.5980   -3.2150  -21.5320 H   0  0  0  0  0  0  0  0  0  0  0  0
   -6.6280   -2.2590  -23.0210 H   0  0  0  0  0  0  0  0  0  0  0  0
   -8.9090   -3.7060  -21.6570 H   0  0  0  0  0  0  0  0  0  0  0  0
   -9.2660   -4.7430  -23.9110 H   0  0  0  0  0  0  0  0  0  0  0  0
   -7.9630   -3.7230  -24.5680 H   0  0  0  0  0  0  0  0  0  0  0  0
   -7.5860   -4.9450  -23.3500 H   0  0  0  0  0  0  0  0  0  0  0  0
  1  2  1  0  0  0  0
  1 56  1  0  0  0  0
  1 57  1  0  0  0  0
  1 58  1  0  0  0  0
  2  3  1  0  0  0  0
  2 23  1  0  0  0  0
  2 55  1  1  0  0  0
  3  4  1  0  0  0  0
  3 53  1  0  0  0  0
  3 54  1  0  0  0  0
  4  5  1  0  0  0  0
  4 21  1  0  0  0  0
  5  6  2  0  0  0  0
  5 14  1  0  0  0  0
  6  7  1  0  0  0  0
  6 20  1  0  0  0  0
  7  8  2  0  0  0  0
  8  9  1  0  0  0  0
  8 19  1  0  0  0  0
  9 10  2  0  0  0  0
  9 14  1  0  0  0  0
 10 11  1  0  0  0  0
 10 18  1  0  0  0  0
 11 12  2  0  0  0  0
 11 17  1  0  0  0  0
 12 13  1  0  0  0  0
 12 16  1  0  0  0  0
 13 14  2  0  0  0  0
 13 15  1  0  0  0  0
 21 22  2  0  0  0  0
 23 21  1  1  0  0  0
 23 24  1  0  0  0  0
 23 47  1  0  0  0  0
 24 25  1  0  0  0  0
 24 51  1  0  0  0  0
 24 52  1  0  0  0  0
 25 26  1  0  0  0  0
 25 39  1  0  0  0  0
 26 27  1  0  0  0  0
 26 37  1  0  0  0  0
 26 38  1  0  0  0  0
 27 28  2  0  0  0  0
 27 33  1  0  0  0  0
 28 29  1  0  0  0  0
 28 36  1  0  0  0  0
 29 30  2  0  0  0  0
 29 31  1  0  0  0  0
 31 32  1  0  0  0  0
 31 35  1  0  0  0  0
 32 33  2  0  0  0  0
 32 34  1  0  0  0  0
 39 40  2  0  0  0  0
 39 41  1  0  0  0  0
 41 42  2  0  0  0  0
 41 47  1  0  0  0  0
 42 43  1  0  0  0  0
 42 50  1  0  0  0  0
 43 44  2  0  0  0  0
 43 49  1  0  0  0  0
 44 45  1  0  0  0  0
 44 46  1  0  0  0  0
 46 47  2  0  0  0  0
 46 48  1  0  0  0  0
M  END
>  <MODEL>
       1

$$$$
