tmp_first_model_5_79.pdb
 OpenBabel08272519233D

 45 49  0  0  0  0  0  0  0  0999 V2000
  -10.1280   -0.7120  -23.5250 C   0  0  0  0  0  0  0  0  0  0  0  0
   -9.1320   -1.3210  -22.6570 N   0  0  0  0  0  0  0  0  0  0  0  0
   -8.4290   -0.5790  -21.7410 C   0  0  0  0  0  0  0  0  0  0  0  0
   -8.5590    0.6020  -21.5120 O   0  0  0  0  0  0  0  0  0  0  0  0
   -7.5290   -1.4590  -21.1130 N   0  0  0  0  0  0  0  0  0  0  0  0
   -6.5230   -1.0960  -20.1700 C   0  0  0  0  0  0  0  0  0  0  0  0
   -6.5820   -1.6240  -18.9040 C   0  0  0  0  0  0  0  0  0  0  0  0
   -5.6000   -1.5100  -17.9810 N   0  0  0  0  0  0  0  0  0  0  0  0
   -4.5310   -0.8380  -18.3320 C   0  0  0  0  0  0  0  0  0  0  0  0
   -4.3810   -0.1610  -19.5660 C   0  0  0  0  0  0  0  0  0  0  0  0
   -3.2550    0.6710  -19.8040 C   0  0  0  0  0  0  0  0  0  0  0  0
   -3.2080    1.4730  -20.9090 C   0  0  0  0  0  0  0  0  0  0  0  0
   -4.2330    1.3850  -21.8800 C   0  0  0  0  0  0  0  0  0  0  0  0
   -5.3190    0.5670  -21.6840 C   0  0  0  0  0  0  0  0  0  0  0  0
   -5.4360   -0.2180  -20.5020 C   0  0  0  0  0  0  0  0  0  0  0  0
   -6.1330    0.5450  -22.4010 H   0  0  0  0  0  0  0  0  0  0  0  0
   -4.1550    1.9610  -22.7980 H   0  0  0  0  0  0  0  0  0  0  0  0
   -2.3660    2.1400  -21.0810 H   0  0  0  0  0  0  0  0  0  0  0  0
   -2.4820    0.7110  -19.0470 H   0  0  0  0  0  0  0  0  0  0  0  0
   -3.7140   -0.7700  -17.6170 H   0  0  0  0  0  0  0  0  0  0  0  0
   -7.4600   -2.1690  -18.5620 H   0  0  0  0  0  0  0  0  0  0  0  0
   -7.7630   -2.7760  -21.4940 C   0  0  0  0  0  0  0  0  0  0  0  0
   -7.1350   -3.7370  -21.1210 O   0  0  0  0  0  0  0  0  0  0  0  0
   -8.9030   -2.7370  -22.4920 C   0  0  0  0  0  0  0  0  0  0  0  0
   -8.6660   -3.6220  -23.7260 C   0  0  0  0  0  0  0  0  0  0  0  0
   -9.8820   -4.4110  -23.4230 N   0  0  0  0  0  0  0  0  0  0  0  0
  -11.1220   -4.3160  -24.5690 S   0  0  0  0  0  0  0  0  0  0  0  0
  -12.2880   -4.9540  -23.9910 O   0  0  0  0  0  0  0  0  0  0  0  0
  -11.2210   -2.9460  -25.0470 O   0  0  0  0  0  0  0  0  0  0  0  0
  -10.4610   -5.3190  -25.8670 C   0  0  0  0  0  0  0  0  0  0  0  0
  -10.1540   -6.7460  -25.5280 C   0  0  0  0  0  0  0  0  0  0  0  0
  -11.2990   -6.4320  -26.4280 C   0  0  0  0  0  0  0  0  0  0  0  0
  -12.3150   -6.5570  -26.0700 H   0  0  0  0  0  0  0  0  0  0  0  0
  -11.1620   -6.6210  -27.4870 H   0  0  0  0  0  0  0  0  0  0  0  0
  -10.3400   -7.0300  -24.4960 H   0  0  0  0  0  0  0  0  0  0  0  0
   -9.2630   -7.1630  -25.9780 H   0  0  0  0  0  0  0  0  0  0  0  0
   -9.8170   -4.7650  -26.5450 H   0  0  0  0  0  0  0  0  0  0  0  0
  -10.1270   -3.6290  -22.1710 C   0  0  0  0  0  0  0  0  0  0  0  0
  -11.0790   -3.0930  -22.1440 H   0  0  0  0  0  0  0  0  0  0  0  0
  -10.0030   -4.2320  -21.2680 H   0  0  0  0  0  0  0  0  0  0  0  0
   -8.6660   -3.0990  -24.6810 H   0  0  0  0  0  0  0  0  0  0  0  0
   -7.7780   -4.2470  -23.6220 H   0  0  0  0  0  0  0  0  0  0  0  0
   -9.9750    0.3660  -23.4670 H   0  0  0  0  0  0  0  0  0  0  0  0
  -10.0130   -1.0520  -24.5570 H   0  0  0  0  0  0  0  0  0  0  0  0
  -11.1520   -0.9400  -23.2040 H   0  0  0  0  0  0  0  0  0  0  0  0
  1  2  1  0  0  0  0
  1 43  1  0  0  0  0
  1 44  1  0  0  0  0
  1 45  1  0  0  0  0
  2  3  1  0  0  0  0
  2 24  1  0  0  0  0
  3  4  2  0  0  0  0
  3  5  1  0  0  0  0
  5  6  1  0  0  0  0
  5 22  1  0  0  0  0
  6  7  2  0  0  0  0
  6 15  1  0  0  0  0
  7  8  1  0  0  0  0
  7 21  1  0  0  0  0
  8  9  2  0  0  0  0
  9 10  1  0  0  0  0
  9 20  1  0  0  0  0
 10 11  2  0  0  0  0
 10 15  1  0  0  0  0
 11 12  1  0  0  0  0
 11 19  1  0  0  0  0
 12 13  2  0  0  0  0
 12 18  1  0  0  0  0
 13 14  1  0  0  0  0
 13 17  1  0  0  0  0
 14 15  2  0  0  0  0
 14 16  1  0  0  0  0
 22 23  2  0  0  0  0
 22 24  1  0  0  0  0
 24 25  1  0  0  0  0
 24 38  1  0  0  0  0
 25 26  1  0  0  0  0
 25 41  1  0  0  0  0
 25 42  1  0  0  0  0
 26 27  1  0  0  0  0
 26 38  1  0  0  0  0
 27 28  2  0  0  0  0
 27 29  2  0  0  0  0
 27 30  1  0  0  0  0
 30 31  1  0  0  0  0
 30 32  1  0  0  0  0
 30 37  1  0  0  0  0
 31 32  1  0  0  0  0
 31 35  1  0  0  0  0
 31 36  1  0  0  0  0
 32 33  1  0  0  0  0
 32 34  1  0  0  0  0
 38 39  1  0  0  0  0
 38 40  1  0  0  0  0
M  END
>  <MODEL>
       1

$$$$
