tmp_first_model_19_85.pdb
 OpenBabel08282503233D

 57 62  0  0  1  0  0  0  0  0999 V2000
   -6.5770    3.4700  -23.0960 C   0  0  0  0  0  0  0  0  0  0  0  0
   -6.9530    2.4730  -24.0870 N   0  0  0  0  0  0  0  0  0  0  0  0
   -8.2270    2.5240  -24.5810 C   0  0  0  0  0  0  0  0  0  0  0  0
   -8.9570    3.4770  -24.3900 O   0  0  0  0  0  0  0  0  0  0  0  0
   -8.6450    1.3260  -25.4440 C   0  0  0  0  0  0  0  0  0  0  0  0
   -9.3400    0.2980  -24.7000 N   0  0  0  0  0  0  0  0  0  0  0  0
   -8.7470   -1.0050  -24.4610 C   0  0  0  0  0  0  0  0  0  0  0  0
   -8.9750   -1.4950  -23.0150 C   0  0  2  0  0  0  0  0  0  0  0  0
   -8.2240   -0.5820  -22.0270 C   0  0  0  0  0  0  0  0  0  0  0  0
   -8.3310    0.6240  -21.9260 O   0  0  0  0  0  0  0  0  0  0  0  0
   -7.3740   -1.3440  -21.2620 N   0  0  0  0  0  0  0  0  0  0  0  0
   -6.5930   -0.8010  -20.2170 C   0  0  0  0  0  0  0  0  0  0  0  0
   -6.8970   -1.0700  -18.9070 C   0  0  0  0  0  0  0  0  0  0  0  0
   -6.2110   -0.5790  -17.8470 N   0  0  0  0  0  0  0  0  0  0  0  0
   -5.1870    0.2020  -18.1000 C   0  0  0  0  0  0  0  0  0  0  0  0
   -4.7420    0.5270  -19.4130 C   0  0  0  0  0  0  0  0  0  0  0  0
   -3.6040    1.3450  -19.6430 C   0  0  0  0  0  0  0  0  0  0  0  0
   -3.1890    1.6170  -20.9180 C   0  0  0  0  0  0  0  0  0  0  0  0
   -3.8770    1.0750  -22.0250 C   0  0  0  0  0  0  0  0  0  0  0  0
   -4.9810    0.2820  -21.8320 C   0  0  0  0  0  0  0  0  0  0  0  0
   -5.4530    0.0060  -20.5150 C   0  0  0  0  0  0  0  0  0  0  0  0
   -5.4910   -0.1570  -22.6830 H   0  0  0  0  0  0  0  0  0  0  0  0
   -3.5360    1.3000  -23.0340 H   0  0  0  0  0  0  0  0  0  0  0  0
   -2.3240    2.2510  -21.0900 H   0  0  0  0  0  0  0  0  0  0  0  0
   -3.0810    1.7540  -18.7840 H   0  0  0  0  0  0  0  0  0  0  0  0
   -4.6400    0.6030  -17.2460 H   0  0  0  0  0  0  0  0  0  0  0  0
   -7.7550   -1.6970  -18.6620 H   0  0  0  0  0  0  0  0  0  0  0  0
   -7.4850   -2.7590  -21.4900 C   0  0  0  0  0  0  0  0  0  0  0  0
   -8.3490   -2.8690  -22.7360 C   0  0  0  0  0  0  0  0  0  0  0  0
   -7.9100   -3.8190  -23.8200 C   0  0  0  0  0  0  0  0  0  0  0  0
   -9.1130   -4.1370  -22.9810 C   0  0  0  0  0  0  0  0  0  0  0  0
  -10.0880   -4.0400  -23.4510 H   0  0  0  0  0  0  0  0  0  0  0  0
   -9.0440   -4.9310  -22.2370 H   0  0  0  0  0  0  0  0  0  0  0  0
   -8.0650   -3.5210  -24.8530 H   0  0  0  0  0  0  0  0  0  0  0  0
   -6.9980   -4.3910  -23.6590 H   0  0  0  0  0  0  0  0  0  0  0  0
   -6.4960   -3.2060  -21.6240 H   0  0  0  0  0  0  0  0  0  0  0  0
   -7.9640   -3.2420  -20.6390 H   0  0  0  0  0  0  0  0  0  0  0  0
  -10.4780   -1.4080  -22.7740 C   0  0  0  0  0  0  0  0  0  0  0  0
  -11.1320   -2.2480  -21.8680 C   0  0  0  0  0  0  0  0  0  0  0  0
  -12.5090   -2.1720  -21.7170 C   0  0  0  0  0  0  0  0  0  0  0  0
  -13.2940   -3.3740  -20.7330 Cl  0  0  0  0  0  0  0  0  0  0  0  0
  -13.2580   -1.1530  -22.3090 C   0  0  0  0  0  0  0  0  0  0  0  0
  -12.5980   -0.2640  -23.1380 C   0  0  0  0  0  0  0  0  0  0  0  0
  -11.2410   -0.4200  -23.4010 C   0  0  0  0  0  0  0  0  0  0  0  0
  -10.6340    0.5490  -24.3530 C   0  0  0  0  0  0  0  0  0  0  0  0
  -11.2540    1.5130  -24.7810 O   0  0  0  0  0  0  0  0  0  0  0  0
  -13.0970    0.5760  -23.6080 H   0  0  0  0  0  0  0  0  0  0  0  0
  -14.3220   -1.0690  -22.1200 H   0  0  0  0  0  0  0  0  0  0  0  0
  -10.5760   -2.9830  -21.2970 H   0  0  0  0  0  0  0  0  0  0  0  0
   -7.6780   -0.9730  -24.6680 H   0  0  0  0  0  0  0  0  0  0  0  0
   -9.1980   -1.7360  -25.1390 H   0  0  0  0  0  0  0  0  0  0  0  0
   -7.7760    0.8800  -25.9410 H   0  0  0  0  0  0  0  0  0  0  0  0
   -9.3420    1.7210  -26.1830 H   0  0  0  0  0  0  0  0  0  0  0  0
   -6.4530    1.5950  -24.0720 H   0  0  0  0  0  0  0  0  0  0  0  0
   -5.5650    3.2630  -22.7360 H   0  0  0  0  0  0  0  0  0  0  0  0
   -7.2740    3.4550  -22.2500 H   0  0  0  0  0  0  0  0  0  0  0  0
   -6.6100    4.4670  -23.5420 H   0  0  0  0  0  0  0  0  0  0  0  0
  1  2  1  0  0  0  0
  1 55  1  0  0  0  0
  1 56  1  0  0  0  0
  1 57  1  0  0  0  0
  2  3  1  0  0  0  0
  2 54  1  0  0  0  0
  3  4  2  0  0  0  0
  3  5  1  0  0  0  0
  5  6  1  0  0  0  0
  5 52  1  0  0  0  0
  5 53  1  0  0  0  0
  6  7  1  0  0  0  0
  6 45  1  0  0  0  0
  7  8  1  0  0  0  0
  7 50  1  0  0  0  0
  7 51  1  0  0  0  0
  8  9  1  1  0  0  0
  8 29  1  0  0  0  0
  8 38  1  0  0  0  0
  9 10  2  0  0  0  0
  9 11  1  0  0  0  0
 11 12  1  0  0  0  0
 11 28  1  0  0  0  0
 12 13  2  0  0  0  0
 12 21  1  0  0  0  0
 13 14  1  0  0  0  0
 13 27  1  0  0  0  0
 14 15  2  0  0  0  0
 15 16  1  0  0  0  0
 15 26  1  0  0  0  0
 16 17  2  0  0  0  0
 16 21  1  0  0  0  0
 17 18  1  0  0  0  0
 17 25  1  0  0  0  0
 18 19  2  0  0  0  0
 18 24  1  0  0  0  0
 19 20  1  0  0  0  0
 19 23  1  0  0  0  0
 20 21  2  0  0  0  0
 20 22  1  0  0  0  0
 28 29  1  0  0  0  0
 28 36  1  0  0  0  0
 28 37  1  0  0  0  0
 29 30  1  0  0  0  0
 29 31  1  0  0  0  0
 30 31  1  0  0  0  0
 30 34  1  0  0  0  0
 30 35  1  0  0  0  0
 31 32  1  0  0  0  0
 31 33  1  0  0  0  0
 38 39  2  0  0  0  0
 38 44  1  0  0  0  0
 39 40  1  0  0  0  0
 39 49  1  0  0  0  0
 40 41  1  0  0  0  0
 40 42  2  0  0  0  0
 42 43  1  0  0  0  0
 42 48  1  0  0  0  0
 43 44  2  0  0  0  0
 43 47  1  0  0  0  0
 44 45  1  0  0  0  0
 45 46  2  0  0  0  0
M  END
>  <MODEL>
       1

$$$$
