tmp_first_model_18_51.pdb
 OpenBabel08282502533D

 50 52  0  0  0  0  0  0  0  0999 V2000
   -9.8210   -3.7780  -25.4340 C   0  0  0  0  0  0  0  0  0  0  0  0
   -8.8030   -3.5050  -24.6220 C   0  0  0  0  0  0  0  0  0  0  0  0
   -8.6450   -2.1300  -24.0330 C   0  0  0  0  0  0  0  0  0  0  0  0
   -9.3240   -1.9860  -22.7450 N   0  0  0  0  0  0  0  0  0  0  0  0
   -8.6470   -1.3630  -21.6990 C   0  0  0  0  0  0  0  0  0  0  0  0
   -9.1180   -0.5130  -20.9750 O   0  0  0  0  0  0  0  0  0  0  0  0
   -7.3340   -1.7790  -21.5450 N   0  0  0  0  0  0  0  0  0  0  0  0
   -6.6280   -1.2340  -20.4450 C   0  0  0  0  0  0  0  0  0  0  0  0
   -7.0570   -1.4610  -19.1600 C   0  0  0  0  0  0  0  0  0  0  0  0
   -6.5000   -0.8990  -18.0610 N   0  0  0  0  0  0  0  0  0  0  0  0
   -5.4920   -0.0780  -18.2430 C   0  0  0  0  0  0  0  0  0  0  0  0
   -4.9480    0.2390  -19.5180 C   0  0  0  0  0  0  0  0  0  0  0  0
   -3.8720    1.1520  -19.6660 C   0  0  0  0  0  0  0  0  0  0  0  0
   -3.4080    1.4670  -20.9150 C   0  0  0  0  0  0  0  0  0  0  0  0
   -4.0080    0.9040  -22.0680 C   0  0  0  0  0  0  0  0  0  0  0  0
   -5.0530    0.0190  -21.9510 C   0  0  0  0  0  0  0  0  0  0  0  0
   -5.5340   -0.3440  -20.6640 C   0  0  0  0  0  0  0  0  0  0  0  0
   -5.5240   -0.4040  -22.8360 H   0  0  0  0  0  0  0  0  0  0  0  0
   -3.6510    1.1900  -23.0550 H   0  0  0  0  0  0  0  0  0  0  0  0
   -2.5960    2.1800  -21.0300 H   0  0  0  0  0  0  0  0  0  0  0  0
   -3.4500    1.5960  -18.7650 H   0  0  0  0  0  0  0  0  0  0  0  0
   -5.0590    0.4040  -17.3640 H   0  0  0  0  0  0  0  0  0  0  0  0
   -7.9260   -2.0920  -18.9720 H   0  0  0  0  0  0  0  0  0  0  0  0
   -7.0570   -2.6740  -21.9510 H   0  0  0  0  0  0  0  0  0  0  0  0
  -10.7490   -2.1190  -22.6630 C   0  0  0  0  0  0  0  0  0  0  0  0
  -11.6370   -1.4270  -23.4910 C   0  0  0  0  0  0  0  0  0  0  0  0
  -13.0100   -1.6320  -23.3590 C   0  0  0  0  0  0  0  0  0  0  0  0
  -13.5120   -2.5380  -22.4300 C   0  0  0  0  0  0  0  0  0  0  0  0
  -12.6190   -3.1890  -21.5840 C   0  0  0  0  0  0  0  0  0  0  0  0
  -13.2580   -4.2340  -20.3500 Cl  0  0  0  0  0  0  0  0  0  0  0  0
  -11.2490   -2.9970  -21.7060 C   0  0  0  0  0  0  0  0  0  0  0  0
  -10.5310   -3.5140  -21.0750 H   0  0  0  0  0  0  0  0  0  0  0  0
  -14.5800   -2.7270  -22.3620 H   0  0  0  0  0  0  0  0  0  0  0  0
  -13.6860   -1.0720  -24.0020 H   0  0  0  0  0  0  0  0  0  0  0  0
  -11.2430   -0.7290  -24.2260 H   0  0  0  0  0  0  0  0  0  0  0  0
   -7.5810   -1.9360  -23.8840 H   0  0  0  0  0  0  0  0  0  0  0  0
   -9.0290   -1.3800  -24.7390 H   0  0  0  0  0  0  0  0  0  0  0  0
   -7.7910   -4.5010  -24.1390 C   0  0  0  0  0  0  0  0  0  0  0  0
   -7.1260   -4.2980  -23.1230 O   0  0  0  0  0  0  0  0  0  0  0  0
   -7.6240   -5.6200  -24.8840 N   0  0  0  0  0  0  0  0  0  0  0  0
   -6.8970   -6.7480  -24.3340 C   0  0  0  0  0  0  0  0  0  0  0  0
   -7.7580   -7.6130  -23.4210 C   0  0  0  0  0  0  0  0  0  0  0  0
   -8.0580   -7.0410  -22.5380 H   0  0  0  0  0  0  0  0  0  0  0  0
   -7.1960   -8.4940  -23.0980 H   0  0  0  0  0  0  0  0  0  0  0  0
   -8.6620   -7.9500  -23.9410 H   0  0  0  0  0  0  0  0  0  0  0  0
   -6.0640   -6.3290  -23.7680 H   0  0  0  0  0  0  0  0  0  0  0  0
   -6.4820   -7.3320  -25.1600 H   0  0  0  0  0  0  0  0  0  0  0  0
   -8.2300   -5.7670  -25.6740 H   0  0  0  0  0  0  0  0  0  0  0  0
  -10.0470   -4.7650  -25.8300 H   0  0  0  0  0  0  0  0  0  0  0  0
  -10.5020   -2.9770  -25.7240 H   0  0  0  0  0  0  0  0  0  0  0  0
  1  2  2  0  0  0  0
  1 49  1  0  0  0  0
  1 50  1  0  0  0  0
  2  3  1  0  0  0  0
  2 38  1  0  0  0  0
  3  4  1  0  0  0  0
  3 36  1  0  0  0  0
  3 37  1  0  0  0  0
  4  5  1  0  0  0  0
  4 25  1  0  0  0  0
  5  6  2  0  0  0  0
  5  7  1  0  0  0  0
  7  8  1  0  0  0  0
  7 24  1  0  0  0  0
  8  9  2  0  0  0  0
  8 17  1  0  0  0  0
  9 10  1  0  0  0  0
  9 23  1  0  0  0  0
 10 11  2  0  0  0  0
 11 12  1  0  0  0  0
 11 22  1  0  0  0  0
 12 13  2  0  0  0  0
 12 17  1  0  0  0  0
 13 14  1  0  0  0  0
 13 21  1  0  0  0  0
 14 15  2  0  0  0  0
 14 20  1  0  0  0  0
 15 16  1  0  0  0  0
 15 19  1  0  0  0  0
 16 17  2  0  0  0  0
 16 18  1  0  0  0  0
 25 26  2  0  0  0  0
 25 31  1  0  0  0  0
 26 27  1  0  0  0  0
 26 35  1  0  0  0  0
 27 28  2  0  0  0  0
 27 34  1  0  0  0  0
 28 29  1  0  0  0  0
 28 33  1  0  0  0  0
 29 30  1  0  0  0  0
 29 31  2  0  0  0  0
 31 32  1  0  0  0  0
 38 39  2  0  0  0  0
 38 40  1  0  0  0  0
 40 41  1  0  0  0  0
 40 48  1  0  0  0  0
 41 42  1  0  0  0  0
 41 46  1  0  0  0  0
 41 47  1  0  0  0  0
 42 43  1  0  0  0  0
 42 44  1  0  0  0  0
 42 45  1  0  0  0  0
M  END
>  <MODEL>
       1

$$$$
