tmp_first_model_12_1.pdb
 OpenBabel08272523333D

 68 73  0  0  1  0  0  0  0  0999 V2000
   -7.3280    3.4980  -22.0050 C   0  0  0  0  0  0  0  0  0  0  0  0
   -8.3140    2.9360  -22.9140 N   0  0  0  0  0  0  0  0  0  0  0  0
   -7.8850    2.2320  -24.0000 C   0  0  0  0  0  0  0  0  0  0  0  0
   -6.7010    2.0800  -24.2640 O   0  0  0  0  0  0  0  0  0  0  0  0
   -8.9970    1.6500  -24.8860 C   0  0  0  0  0  0  0  0  0  0  0  0
   -9.6010    0.4830  -24.2590 N   0  0  0  0  0  0  0  0  0  0  0  0
   -8.7660   -0.6930  -24.0670 C   0  0  0  0  0  0  0  0  0  0  0  0
   -9.1130   -1.4760  -22.7640 C   0  0  2  0  0  0  0  0  0  0  0  0
   -8.6140   -0.6580  -21.5520 C   0  0  0  0  0  0  0  0  0  0  0  0
   -9.1160    0.3410  -21.0810 O   0  0  0  0  0  0  0  0  0  0  0  0
   -7.4500   -1.2230  -21.0900 N   0  0  0  0  0  0  0  0  0  0  0  0
   -6.6690   -0.6540  -20.0700 C   0  0  0  0  0  0  0  0  0  0  0  0
   -6.9270   -0.9730  -18.7660 C   0  0  0  0  0  0  0  0  0  0  0  0
   -6.1830   -0.5370  -17.7250 N   0  0  0  0  0  0  0  0  0  0  0  0
   -5.1510    0.2280  -17.9960 C   0  0  0  0  0  0  0  0  0  0  0  0
   -4.7620    0.6110  -19.3140 C   0  0  0  0  0  0  0  0  0  0  0  0
   -3.6340    1.4360  -19.5750 C   0  0  0  0  0  0  0  0  0  0  0  0
   -3.3450    1.8360  -20.8530 C   0  0  0  0  0  0  0  0  0  0  0  0
   -4.1710    1.4430  -21.9330 C   0  0  0  0  0  0  0  0  0  0  0  0
   -5.2560    0.6300  -21.7090 C   0  0  0  0  0  0  0  0  0  0  0  0
   -5.5620    0.1790  -20.3940 C   0  0  0  0  0  0  0  0  0  0  0  0
   -5.9210    0.3810  -22.5320 H   0  0  0  0  0  0  0  0  0  0  0  0
   -3.9670    1.8010  -22.9400 H   0  0  0  0  0  0  0  0  0  0  0  0
   -2.4890    2.4770  -21.0460 H   0  0  0  0  0  0  0  0  0  0  0  0
   -3.0380    1.7700  -18.7290 H   0  0  0  0  0  0  0  0  0  0  0  0
   -4.5670    0.5930  -17.1500 H   0  0  0  0  0  0  0  0  0  0  0  0
   -7.7620   -1.6310  -18.5300 H   0  0  0  0  0  0  0  0  0  0  0  0
   -6.9880   -2.3640  -21.8290 C   0  0  0  0  0  0  0  0  0  0  0  0
   -8.2420   -2.7680  -22.6110 C   0  0  2  0  0  0  0  0  0  0  0  0
   -7.8830   -3.4880  -23.8950 C   0  0  0  0  0  0  0  0  0  0  0  0
   -9.0770   -3.9830  -24.5300 N   0  0  0  0  0  0  0  0  0  0  0  0
   -8.9700   -4.4870  -25.8110 C   0  0  0  0  0  0  0  0  0  0  0  0
   -7.7770   -4.7760  -26.5220 C   0  0  0  0  0  0  0  0  0  0  0  0
   -8.0410   -5.3140  -27.7080 N   0  0  0  0  0  0  0  0  0  0  0  0
   -9.3680   -5.3890  -27.7570 N   0  0  0  0  0  0  0  0  0  0  0  0
  -10.0440   -5.9060  -28.9070 C   0  0  0  0  0  0  0  0  0  0  0  0
  -10.8060   -5.1810  -29.1980 H   0  0  0  0  0  0  0  0  0  0  0  0
  -10.5220   -6.8680  -28.6930 H   0  0  0  0  0  0  0  0  0  0  0  0
   -9.3030   -6.0220  -29.6950 H   0  0  0  0  0  0  0  0  0  0  0  0
   -9.9850   -4.9030  -26.6530 C   0  0  0  0  0  0  0  0  0  0  0  0
  -11.0680   -4.9160  -26.5760 H   0  0  0  0  0  0  0  0  0  0  0  0
   -6.7520   -4.6330  -26.1960 H   0  0  0  0  0  0  0  0  0  0  0  0
   -9.9580   -3.5270  -24.3150 H   0  0  0  0  0  0  0  0  0  0  0  0
   -7.3000   -2.8110  -24.5490 H   0  0  0  0  0  0  0  0  0  0  0  0
   -7.2150   -4.3390  -23.7010 H   0  0  0  0  0  0  0  0  0  0  0  0
   -8.8040   -3.4690  -21.9850 H   0  0  0  0  0  0  0  0  0  0  0  0
   -6.1370   -2.1120  -22.4870 H   0  0  0  0  0  0  0  0  0  0  0  0
   -6.6440   -3.1510  -21.1490 H   0  0  0  0  0  0  0  0  0  0  0  0
  -10.6240   -1.6670  -22.6970 C   0  0  0  0  0  0  0  0  0  0  0  0
  -11.2110   -2.6580  -21.8940 C   0  0  0  0  0  0  0  0  0  0  0  0
  -12.5870   -2.7030  -21.7320 C   0  0  0  0  0  0  0  0  0  0  0  0
  -13.2910   -3.8530  -20.6370 Cl  0  0  0  0  0  0  0  0  0  0  0  0
  -13.4290   -1.8060  -22.3820 C   0  0  0  0  0  0  0  0  0  0  0  0
  -12.8640   -0.8310  -23.1740 C   0  0  0  0  0  0  0  0  0  0  0  0
  -11.4810   -0.7400  -23.3190 C   0  0  0  0  0  0  0  0  0  0  0  0
  -10.9590    0.4240  -24.1140 C   0  0  0  0  0  0  0  0  0  0  0  0
  -11.7060    1.2820  -24.5680 O   0  0  0  0  0  0  0  0  0  0  0  0
  -13.4780   -0.1090  -23.6960 H   0  0  0  0  0  0  0  0  0  0  0  0
  -14.5040   -1.8730  -22.2580 H   0  0  0  0  0  0  0  0  0  0  0  0
  -10.6200   -3.3890  -21.3510 H   0  0  0  0  0  0  0  0  0  0  0  0
   -7.7290   -0.3520  -24.0110 H   0  0  0  0  0  0  0  0  0  0  0  0
   -8.8620   -1.3420  -24.9500 H   0  0  0  0  0  0  0  0  0  0  0  0
   -9.8100    2.3680  -25.0540 H   0  0  0  0  0  0  0  0  0  0  0  0
   -8.5470    1.4110  -25.8600 H   0  0  0  0  0  0  0  0  0  0  0  0
   -9.2520    2.8030  -22.5500 H   0  0  0  0  0  0  0  0  0  0  0  0
   -6.5360    3.9680  -22.5960 H   0  0  0  0  0  0  0  0  0  0  0  0
   -7.8150    4.2450  -21.3720 H   0  0  0  0  0  0  0  0  0  0  0  0
   -6.8560    2.7280  -21.3760 H   0  0  0  0  0  0  0  0  0  0  0  0
  1  2  1  0  0  0  0
  1 66  1  0  0  0  0
  1 67  1  0  0  0  0
  1 68  1  0  0  0  0
  2  3  1  0  0  0  0
  2 65  1  0  0  0  0
  3  4  2  0  0  0  0
  3  5  1  0  0  0  0
  5  6  1  0  0  0  0
  5 63  1  0  0  0  0
  5 64  1  0  0  0  0
  6  7  1  0  0  0  0
  6 56  1  0  0  0  0
  7  8  1  0  0  0  0
  7 61  1  0  0  0  0
  7 62  1  0  0  0  0
  8  9  1  1  0  0  0
  8 29  1  0  0  0  0
  8 49  1  0  0  0  0
  9 10  2  0  0  0  0
  9 11  1  0  0  0  0
 11 12  1  0  0  0  0
 11 28  1  0  0  0  0
 12 13  2  0  0  0  0
 12 21  1  0  0  0  0
 13 14  1  0  0  0  0
 13 27  1  0  0  0  0
 14 15  2  0  0  0  0
 15 16  1  0  0  0  0
 15 26  1  0  0  0  0
 16 17  2  0  0  0  0
 16 21  1  0  0  0  0
 17 18  1  0  0  0  0
 17 25  1  0  0  0  0
 18 19  2  0  0  0  0
 18 24  1  0  0  0  0
 19 20  1  0  0  0  0
 19 23  1  0  0  0  0
 20 21  2  0  0  0  0
 20 22  1  0  0  0  0
 28 29  1  0  0  0  0
 28 47  1  0  0  0  0
 28 48  1  0  0  0  0
 29 30  1  0  0  0  0
 29 46  1  1  0  0  0
 30 31  1  0  0  0  0
 30 44  1  0  0  0  0
 30 45  1  0  0  0  0
 31 32  1  0  0  0  0
 31 43  1  0  0  0  0
 32 33  1  0  0  0  0
 32 40  2  0  0  0  0
 33 34  2  0  0  0  0
 33 42  1  0  0  0  0
 34 35  1  0  0  0  0
 35 36  1  0  0  0  0
 35 40  1  0  0  0  0
 36 37  1  0  0  0  0
 36 38  1  0  0  0  0
 36 39  1  0  0  0  0
 40 41  1  0  0  0  0
 49 50  2  0  0  0  0
 49 55  1  0  0  0  0
 50 51  1  0  0  0  0
 50 60  1  0  0  0  0
 51 52  1  0  0  0  0
 51 53  2  0  0  0  0
 53 54  1  0  0  0  0
 53 59  1  0  0  0  0
 54 55  2  0  0  0  0
 54 58  1  0  0  0  0
 55 56  1  0  0  0  0
 56 57  2  0  0  0  0
M  END
>  <MODEL>
       1

$$$$
