tmp_first_model_7_92.pdb
 OpenBabel08272520323D

 60 65  0  0  1  0  0  0  0  0999 V2000
   -7.1890   -5.5760  -24.9520 C   0  0  0  0  0  0  0  0  0  0  0  0
   -7.4400   -4.9040  -23.7460 O   0  0  0  0  0  0  0  0  0  0  0  0
   -8.1700   -3.7220  -23.9380 C   0  0  0  0  0  0  0  0  0  0  0  0
   -8.3450   -3.0390  -22.5890 C   0  0  1  0  0  0  0  0  0  0  0  0
   -7.0130   -2.5500  -21.9750 C   0  0  0  0  0  0  0  0  0  0  0  0
   -7.4020   -1.3670  -21.2240 N   0  0  0  0  0  0  0  0  0  0  0  0
   -6.6120   -0.8110  -20.1860 C   0  0  0  0  0  0  0  0  0  0  0  0
   -6.9260   -1.0390  -18.8680 C   0  0  0  0  0  0  0  0  0  0  0  0
   -6.2130   -0.5550  -17.8240 N   0  0  0  0  0  0  0  0  0  0  0  0
   -5.1740    0.1970  -18.0930 C   0  0  0  0  0  0  0  0  0  0  0  0
   -4.7360    0.5120  -19.4080 C   0  0  0  0  0  0  0  0  0  0  0  0
   -3.6200    1.3570  -19.6510 C   0  0  0  0  0  0  0  0  0  0  0  0
   -3.2420    1.6510  -20.9320 C   0  0  0  0  0  0  0  0  0  0  0  0
   -3.9370    1.0900  -22.0240 C   0  0  0  0  0  0  0  0  0  0  0  0
   -4.9910    0.2310  -21.8100 C   0  0  0  0  0  0  0  0  0  0  0  0
   -5.4490   -0.0410  -20.4950 C   0  0  0  0  0  0  0  0  0  0  0  0
   -5.5180   -0.2030  -22.6530 H   0  0  0  0  0  0  0  0  0  0  0  0
   -3.6460    1.3680  -23.0340 H   0  0  0  0  0  0  0  0  0  0  0  0
   -2.4060    2.3210  -21.1130 H   0  0  0  0  0  0  0  0  0  0  0  0
   -3.0950    1.7740  -18.7980 H   0  0  0  0  0  0  0  0  0  0  0  0
   -4.6200    0.5990  -17.2450 H   0  0  0  0  0  0  0  0  0  0  0  0
   -7.7870   -1.6530  -18.6130 H   0  0  0  0  0  0  0  0  0  0  0  0
   -8.6960   -0.9460  -21.4620 C   0  0  0  0  0  0  0  0  0  0  0  0
   -9.2500   -0.0430  -20.8760 O   0  0  0  0  0  0  0  0  0  0  0  0
   -9.2860   -1.8100  -22.6040 C   0  0  1  0  0  0  0  0  0  0  0  0
   -9.1750   -1.0400  -23.9440 C   0  0  0  0  0  0  0  0  0  0  0  0
   -9.9930    0.1520  -23.9410 N   0  0  0  0  0  0  0  0  0  0  0  0
   -9.4500    1.3370  -24.5820 C   0  0  0  0  0  0  0  0  0  0  0  0
   -8.4820    2.0660  -23.6960 C   0  0  0  0  0  0  0  0  0  0  0  0
   -8.9190    2.9080  -22.6540 C   0  0  0  0  0  0  0  0  0  0  0  0
   -7.9160    3.3640  -21.9090 N   0  0  0  0  0  0  0  0  0  0  0  0
   -6.8320    2.8160  -22.4620 N   0  0  0  0  0  0  0  0  0  0  0  0
   -7.1090    2.0250  -23.5320 C   0  0  0  0  0  0  0  0  0  0  0  0
   -6.2920    1.5050  -24.0200 H   0  0  0  0  0  0  0  0  0  0  0  0
   -5.9260    2.9880  -22.0430 H   0  0  0  0  0  0  0  0  0  0  0  0
   -9.9360    3.1910  -22.4380 H   0  0  0  0  0  0  0  0  0  0  0  0
   -9.0010    1.0480  -25.5390 H   0  0  0  0  0  0  0  0  0  0  0  0
  -10.2970    1.9880  -24.7970 H   0  0  0  0  0  0  0  0  0  0  0  0
  -11.2400    0.1820  -23.3770 C   0  0  0  0  0  0  0  0  0  0  0  0
  -11.9370    1.1930  -23.3670 O   0  0  0  0  0  0  0  0  0  0  0  0
  -11.7010   -1.1090  -22.7660 C   0  0  0  0  0  0  0  0  0  0  0  0
  -13.0660   -1.2840  -22.5290 C   0  0  0  0  0  0  0  0  0  0  0  0
  -13.5140   -2.3610  -21.7950 C   0  0  0  0  0  0  0  0  0  0  0  0
  -12.5660   -3.2530  -21.3030 C   0  0  0  0  0  0  0  0  0  0  0  0
  -13.1150   -4.3840  -20.1150 Cl  0  0  0  0  0  0  0  0  0  0  0  0
  -11.2240   -3.1760  -21.6360 C   0  0  0  0  0  0  0  0  0  0  0  0
  -10.7630   -2.0780  -22.3740 C   0  0  0  0  0  0  0  0  0  0  0  0
  -10.5590   -3.9450  -21.2550 H   0  0  0  0  0  0  0  0  0  0  0  0
  -14.5630   -2.5040  -21.5490 H   0  0  0  0  0  0  0  0  0  0  0  0
  -13.7680   -0.5520  -22.9090 H   0  0  0  0  0  0  0  0  0  0  0  0
   -9.4860   -1.6970  -24.7680 H   0  0  0  0  0  0  0  0  0  0  0  0
   -8.1310   -0.7480  -24.1080 H   0  0  0  0  0  0  0  0  0  0  0  0
   -6.2660   -2.3070  -22.7450 H   0  0  0  0  0  0  0  0  0  0  0  0
   -6.5730   -3.3050  -21.3150 H   0  0  0  0  0  0  0  0  0  0  0  0
   -8.7470   -3.7890  -21.9040 H   0  0  0  0  0  0  0  0  0  0  0  0
   -9.1560   -3.9380  -24.3880 H   0  0  0  0  0  0  0  0  0  0  0  0
   -7.6390   -3.0530  -24.6400 H   0  0  0  0  0  0  0  0  0  0  0  0
   -6.5710   -4.9700  -25.6330 H   0  0  0  0  0  0  0  0  0  0  0  0
   -8.1240   -5.8310  -25.4740 H   0  0  0  0  0  0  0  0  0  0  0  0
   -6.6530   -6.4960  -24.7070 H   0  0  0  0  0  0  0  0  0  0  0  0
  1  2  1  0  0  0  0
  1 58  1  0  0  0  0
  1 59  1  0  0  0  0
  1 60  1  0  0  0  0
  2  3  1  0  0  0  0
  3  4  1  0  0  0  0
  3 56  1  0  0  0  0
  3 57  1  0  0  0  0
  4  5  1  0  0  0  0
  4 25  1  0  0  0  0
  4 55  1  1  0  0  0
  5  6  1  0  0  0  0
  5 53  1  0  0  0  0
  5 54  1  0  0  0  0
  6  7  1  0  0  0  0
  6 23  1  0  0  0  0
  7  8  2  0  0  0  0
  7 16  1  0  0  0  0
  8  9  1  0  0  0  0
  8 22  1  0  0  0  0
  9 10  2  0  0  0  0
 10 11  1  0  0  0  0
 10 21  1  0  0  0  0
 11 12  2  0  0  0  0
 11 16  1  0  0  0  0
 12 13  1  0  0  0  0
 12 20  1  0  0  0  0
 13 14  2  0  0  0  0
 13 19  1  0  0  0  0
 14 15  1  0  0  0  0
 14 18  1  0  0  0  0
 15 16  2  0  0  0  0
 15 17  1  0  0  0  0
 23 24  2  0  0  0  0
 25 23  1  1  0  0  0
 25 26  1  0  0  0  0
 25 47  1  0  0  0  0
 26 27  1  0  0  0  0
 26 51  1  0  0  0  0
 26 52  1  0  0  0  0
 27 28  1  0  0  0  0
 27 39  1  0  0  0  0
 28 29  1  0  0  0  0
 28 37  1  0  0  0  0
 28 38  1  0  0  0  0
 29 30  1  0  0  0  0
 29 33  2  0  0  0  0
 30 31  2  0  0  0  0
 30 36  1  0  0  0  0
 31 32  1  0  0  0  0
 32 33  1  0  0  0  0
 32 35  1  0  0  0  0
 33 34  1  0  0  0  0
 39 40  2  0  0  0  0
 39 41  1  0  0  0  0
 41 42  2  0  0  0  0
 41 47  1  0  0  0  0
 42 43  1  0  0  0  0
 42 50  1  0  0  0  0
 43 44  2  0  0  0  0
 43 49  1  0  0  0  0
 44 45  1  0  0  0  0
 44 46  1  0  0  0  0
 46 47  2  0  0  0  0
 46 48  1  0  0  0  0
M  END
>  <MODEL>
       1

$$$$
