tmp_first_model_10_77.pdb
 OpenBabel08272522163D

 55 60  0  0  1  0  0  0  0  0999 V2000
   -8.0370   -3.9990  -23.8290 C   0  0  0  0  0  0  0  0  0  0  0  0
   -8.3710   -3.1230  -22.6180 C   0  0  1  0  0  0  0  0  0  0  0  0
   -7.0980   -2.5300  -21.9920 C   0  0  0  0  0  0  0  0  0  0  0  0
   -7.5610   -1.3410  -21.3110 N   0  0  0  0  0  0  0  0  0  0  0  0
   -6.8210   -0.7420  -20.2510 C   0  0  0  0  0  0  0  0  0  0  0  0
   -7.0780   -1.0880  -18.9470 C   0  0  0  0  0  0  0  0  0  0  0  0
   -6.3360   -0.6850  -17.8820 N   0  0  0  0  0  0  0  0  0  0  0  0
   -5.3140    0.0980  -18.1230 C   0  0  0  0  0  0  0  0  0  0  0  0
   -4.9490    0.5670  -19.4170 C   0  0  0  0  0  0  0  0  0  0  0  0
   -3.8630    1.4580  -19.6150 C   0  0  0  0  0  0  0  0  0  0  0  0
   -3.5830    1.9420  -20.8630 C   0  0  0  0  0  0  0  0  0  0  0  0
   -4.3570    1.5350  -21.9710 C   0  0  0  0  0  0  0  0  0  0  0  0
   -5.4130    0.6710  -21.8040 C   0  0  0  0  0  0  0  0  0  0  0  0
   -5.7320    0.1550  -20.5200 C   0  0  0  0  0  0  0  0  0  0  0  0
   -6.0320    0.3890  -22.6500 H   0  0  0  0  0  0  0  0  0  0  0  0
   -4.1250    1.9230  -22.9590 H   0  0  0  0  0  0  0  0  0  0  0  0
   -2.7790    2.6580  -21.0040 H   0  0  0  0  0  0  0  0  0  0  0  0
   -3.2780    1.7550  -18.7500 H   0  0  0  0  0  0  0  0  0  0  0  0
   -4.7280    0.4210  -17.2630 H   0  0  0  0  0  0  0  0  0  0  0  0
   -7.9240   -1.7330  -18.7180 H   0  0  0  0  0  0  0  0  0  0  0  0
   -8.8330   -0.9490  -21.6780 C   0  0  0  0  0  0  0  0  0  0  0  0
   -9.4160   -0.0070  -21.1770 O   0  0  0  0  0  0  0  0  0  0  0  0
   -9.3200   -1.8850  -22.8240 C   0  0  1  0  0  0  0  0  0  0  0  0
   -9.0980   -1.1800  -24.1820 C   0  0  0  0  0  0  0  0  0  0  0  0
   -9.6020   -1.9870  -25.2960 N   0  0  0  0  0  0  0  0  0  0  0  0
   -9.1190   -1.6500  -26.6420 C   0  0  0  0  0  0  0  0  0  0  0  0
   -9.6540   -0.3380  -27.1300 C   0  0  0  0  0  0  0  0  0  0  0  0
  -10.8920   -0.0210  -27.5750 C   0  0  0  0  0  0  0  0  0  0  0  0
  -10.9630    1.3340  -27.6940 O   0  0  0  0  0  0  0  0  0  0  0  0
   -9.7420    1.7670  -27.3290 C   0  0  0  0  0  0  0  0  0  0  0  0
   -8.9180    0.8360  -26.9950 N   0  0  0  0  0  0  0  0  0  0  0  0
   -9.5950    2.8380  -27.2920 H   0  0  0  0  0  0  0  0  0  0  0  0
  -11.7620   -0.5970  -27.8430 H   0  0  0  0  0  0  0  0  0  0  0  0
   -8.0260   -1.6020  -26.6370 H   0  0  0  0  0  0  0  0  0  0  0  0
   -9.4400   -2.4640  -27.2960 H   0  0  0  0  0  0  0  0  0  0  0  0
  -10.9010   -2.4480  -25.2540 C   0  0  0  0  0  0  0  0  0  0  0  0
  -11.5190   -2.7400  -26.2660 O   0  0  0  0  0  0  0  0  0  0  0  0
  -11.5200   -2.5610  -23.9030 C   0  0  0  0  0  0  0  0  0  0  0  0
  -12.8490   -2.9880  -23.8220 C   0  0  0  0  0  0  0  0  0  0  0  0
  -13.4800   -3.0720  -22.5950 C   0  0  0  0  0  0  0  0  0  0  0  0
  -12.7590   -2.7460  -21.4590 C   0  0  0  0  0  0  0  0  0  0  0  0
  -13.3850   -2.8700  -20.2750 F   0  0  0  0  0  0  0  0  0  0  0  0
  -11.4580   -2.2890  -21.5280 C   0  0  0  0  0  0  0  0  0  0  0  0
  -10.7990   -2.2280  -22.7510 C   0  0  0  0  0  0  0  0  0  0  0  0
  -10.9380   -1.9150  -20.6580 H   0  0  0  0  0  0  0  0  0  0  0  0
  -14.5100   -3.3770  -22.4690 H   0  0  0  0  0  0  0  0  0  0  0  0
  -13.3570   -3.2410  -24.7440 H   0  0  0  0  0  0  0  0  0  0  0  0
   -8.0260   -1.0080  -24.3360 H   0  0  0  0  0  0  0  0  0  0  0  0
   -9.6260   -0.2160  -24.1490 H   0  0  0  0  0  0  0  0  0  0  0  0
   -6.6220   -3.2140  -21.2790 H   0  0  0  0  0  0  0  0  0  0  0  0
   -6.3660   -2.2750  -22.7790 H   0  0  0  0  0  0  0  0  0  0  0  0
   -8.8690   -3.7580  -21.8720 H   0  0  0  0  0  0  0  0  0  0  0  0
   -7.5220   -3.4230  -24.6060 H   0  0  0  0  0  0  0  0  0  0  0  0
   -8.9360   -4.4290  -24.2820 H   0  0  0  0  0  0  0  0  0  0  0  0
   -7.3660   -4.8140  -23.5330 H   0  0  0  0  0  0  0  0  0  0  0  0
  1  2  1  0  0  0  0
  1 53  1  0  0  0  0
  1 54  1  0  0  0  0
  1 55  1  0  0  0  0
  2  3  1  0  0  0  0
  2 23  1  0  0  0  0
  2 52  1  1  0  0  0
  3  4  1  0  0  0  0
  3 50  1  0  0  0  0
  3 51  1  0  0  0  0
  4  5  1  0  0  0  0
  4 21  1  0  0  0  0
  5  6  2  0  0  0  0
  5 14  1  0  0  0  0
  6  7  1  0  0  0  0
  6 20  1  0  0  0  0
  7  8  2  0  0  0  0
  8  9  1  0  0  0  0
  8 19  1  0  0  0  0
  9 10  2  0  0  0  0
  9 14  1  0  0  0  0
 10 11  1  0  0  0  0
 10 18  1  0  0  0  0
 11 12  2  0  0  0  0
 11 17  1  0  0  0  0
 12 13  1  0  0  0  0
 12 16  1  0  0  0  0
 13 14  2  0  0  0  0
 13 15  1  0  0  0  0
 21 22  2  0  0  0  0
 23 21  1  1  0  0  0
 23 24  1  0  0  0  0
 23 44  1  0  0  0  0
 24 25  1  0  0  0  0
 24 48  1  0  0  0  0
 24 49  1  0  0  0  0
 25 26  1  0  0  0  0
 25 36  1  0  0  0  0
 26 27  1  0  0  0  0
 26 34  1  0  0  0  0
 26 35  1  0  0  0  0
 27 28  2  0  0  0  0
 27 31  1  0  0  0  0
 28 29  1  0  0  0  0
 28 33  1  0  0  0  0
 29 30  1  0  0  0  0
 30 31  2  0  0  0  0
 30 32  1  0  0  0  0
 36 37  2  0  0  0  0
 36 38  1  0  0  0  0
 38 39  2  0  0  0  0
 38 44  1  0  0  0  0
 39 40  1  0  0  0  0
 39 47  1  0  0  0  0
 40 41  2  0  0  0  0
 40 46  1  0  0  0  0
 41 42  1  0  0  0  0
 41 43  1  0  0  0  0
 43 44  2  0  0  0  0
 43 45  1  0  0  0  0
M  END
>  <MODEL>
       1

$$$$
