tmp_first_model_4_29.pdb
 OpenBabel08272518513D

 55 60  0  0  1  0  0  0  0  0999 V2000
   -8.6500   -4.2170  -23.7320 C   0  0  0  0  0  0  0  0  0  0  0  0
   -8.6520   -3.3000  -22.5150 C   0  0  1  0  0  0  0  0  0  0  0  0
   -7.2600   -2.7980  -22.1230 C   0  0  0  0  0  0  0  0  0  0  0  0
   -7.5770   -1.7120  -21.2200 N   0  0  0  0  0  0  0  0  0  0  0  0
   -6.6780   -1.2870  -20.2070 C   0  0  0  0  0  0  0  0  0  0  0  0
   -6.8300   -1.6880  -18.9050 C   0  0  0  0  0  0  0  0  0  0  0  0
   -5.9150   -1.4760  -17.9270 N   0  0  0  0  0  0  0  0  0  0  0  0
   -4.8070   -0.8550  -18.2490 C   0  0  0  0  0  0  0  0  0  0  0  0
   -4.5090   -0.4000  -19.5640 C   0  0  0  0  0  0  0  0  0  0  0  0
   -3.2720    0.2150  -19.8960 C   0  0  0  0  0  0  0  0  0  0  0  0
   -3.0400    0.6710  -21.1680 C   0  0  0  0  0  0  0  0  0  0  0  0
   -4.0560    0.5830  -22.1480 C   0  0  0  0  0  0  0  0  0  0  0  0
   -5.2630    0.0050  -21.8420 C   0  0  0  0  0  0  0  0  0  0  0  0
   -5.4960   -0.5610  -20.5610 C   0  0  0  0  0  0  0  0  0  0  0  0
   -6.0820    0.0220  -22.5560 H   0  0  0  0  0  0  0  0  0  0  0  0
   -3.8840    0.9900  -23.1420 H   0  0  0  0  0  0  0  0  0  0  0  0
   -2.0890    1.1310  -21.4260 H   0  0  0  0  0  0  0  0  0  0  0  0
   -2.5170    0.3200  -19.1240 H   0  0  0  0  0  0  0  0  0  0  0  0
   -4.0770   -0.6900  -17.4560 H   0  0  0  0  0  0  0  0  0  0  0  0
   -7.7220   -2.2360  -18.6080 H   0  0  0  0  0  0  0  0  0  0  0  0
   -8.8320   -1.1710  -21.4360 C   0  0  0  0  0  0  0  0  0  0  0  0
   -9.2620   -0.1820  -20.8900 O   0  0  0  0  0  0  0  0  0  0  0  0
   -9.5400   -2.0230  -22.5430 C   0  0  1  0  0  0  0  0  0  0  0  0
   -9.4380   -1.2450  -23.8710 C   0  0  0  0  0  0  0  0  0  0  0  0
  -10.2420   -0.0370  -23.8100 N   0  0  0  0  0  0  0  0  0  0  0  0
   -9.8380    0.9950  -24.7360 C   0  0  0  0  0  0  0  0  0  0  0  0
  -10.0630    0.5680  -26.1570 C   0  0  0  0  0  0  0  0  0  0  0  0
  -11.1470   -0.1300  -26.7170 C   0  0  0  0  0  0  0  0  0  0  0  0
  -10.9350   -0.2790  -28.0210 N   0  0  0  0  0  0  0  0  0  0  0  0
   -9.7540    0.2850  -28.1890 N   0  0  0  0  0  0  0  0  0  0  0  0
   -9.1880    0.8150  -27.1190 N   0  0  0  0  0  0  0  0  0  0  0  0
   -9.3850    0.4600  -29.1130 H   0  0  0  0  0  0  0  0  0  0  0  0
  -12.0430   -0.4900  -26.2420 H   0  0  0  0  0  0  0  0  0  0  0  0
   -8.7710    1.1910  -24.5760 H   0  0  0  0  0  0  0  0  0  0  0  0
  -10.4170    1.8880  -24.4850 H   0  0  0  0  0  0  0  0  0  0  0  0
  -11.5730   -0.0980  -23.4830 C   0  0  0  0  0  0  0  0  0  0  0  0
  -12.3710    0.7740  -23.8040 O   0  0  0  0  0  0  0  0  0  0  0  0
  -11.9860   -1.3220  -22.7350 C   0  0  0  0  0  0  0  0  0  0  0  0
  -13.3520   -1.5210  -22.5180 C   0  0  0  0  0  0  0  0  0  0  0  0
  -13.7950   -2.5630  -21.7350 C   0  0  0  0  0  0  0  0  0  0  0  0
  -12.8340   -3.4000  -21.1910 C   0  0  0  0  0  0  0  0  0  0  0  0
  -13.2340   -4.3110  -20.2900 F   0  0  0  0  0  0  0  0  0  0  0  0
  -11.4950   -3.3170  -21.5220 C   0  0  0  0  0  0  0  0  0  0  0  0
  -11.0280   -2.2460  -22.2870 C   0  0  0  0  0  0  0  0  0  0  0  0
  -10.8210   -4.0480  -21.0950 H   0  0  0  0  0  0  0  0  0  0  0  0
  -14.8460   -2.7590  -21.5510 H   0  0  0  0  0  0  0  0  0  0  0  0
  -14.0510   -0.8230  -22.9670 H   0  0  0  0  0  0  0  0  0  0  0  0
   -8.4090   -0.9410  -24.0700 H   0  0  0  0  0  0  0  0  0  0  0  0
   -9.7430   -1.8820  -24.7150 H   0  0  0  0  0  0  0  0  0  0  0  0
   -6.6890   -2.4670  -23.0090 H   0  0  0  0  0  0  0  0  0  0  0  0
   -6.6620   -3.5580  -21.6120 H   0  0  0  0  0  0  0  0  0  0  0  0
   -8.9990   -3.8680  -21.6480 H   0  0  0  0  0  0  0  0  0  0  0  0
   -9.6340   -4.6720  -23.8820 H   0  0  0  0  0  0  0  0  0  0  0  0
   -7.9190   -5.0270  -23.6010 H   0  0  0  0  0  0  0  0  0  0  0  0
   -8.3770   -3.6720  -24.6430 H   0  0  0  0  0  0  0  0  0  0  0  0
  1  2  1  0  0  0  0
  1 53  1  0  0  0  0
  1 54  1  0  0  0  0
  1 55  1  0  0  0  0
  2  3  1  0  0  0  0
  2 23  1  0  0  0  0
  2 52  1  1  0  0  0
  3  4  1  0  0  0  0
  3 50  1  0  0  0  0
  3 51  1  0  0  0  0
  4  5  1  0  0  0  0
  4 21  1  0  0  0  0
  5  6  2  0  0  0  0
  5 14  1  0  0  0  0
  6  7  1  0  0  0  0
  6 20  1  0  0  0  0
  7  8  2  0  0  0  0
  8  9  1  0  0  0  0
  8 19  1  0  0  0  0
  9 10  2  0  0  0  0
  9 14  1  0  0  0  0
 10 11  1  0  0  0  0
 10 18  1  0  0  0  0
 11 12  2  0  0  0  0
 11 17  1  0  0  0  0
 12 13  1  0  0  0  0
 12 16  1  0  0  0  0
 13 14  2  0  0  0  0
 13 15  1  0  0  0  0
 21 22  2  0  0  0  0
 23 21  1  1  0  0  0
 23 24  1  0  0  0  0
 23 44  1  0  0  0  0
 24 25  1  0  0  0  0
 24 48  1  0  0  0  0
 24 49  1  0  0  0  0
 25 26  1  0  0  0  0
 25 36  1  0  0  0  0
 26 27  1  0  0  0  0
 26 34  1  0  0  0  0
 26 35  1  0  0  0  0
 27 28  1  0  0  0  0
 27 31  2  0  0  0  0
 28 29  2  0  0  0  0
 28 33  1  0  0  0  0
 29 30  1  0  0  0  0
 30 31  1  0  0  0  0
 30 32  1  0  0  0  0
 36 37  2  0  0  0  0
 36 38  1  0  0  0  0
 38 39  2  0  0  0  0
 38 44  1  0  0  0  0
 39 40  1  0  0  0  0
 39 47  1  0  0  0  0
 40 41  2  0  0  0  0
 40 46  1  0  0  0  0
 41 42  1  0  0  0  0
 41 43  1  0  0  0  0
 43 44  2  0  0  0  0
 43 45  1  0  0  0  0
M  END
>  <MODEL>
       1

$$$$
