tmp_first_model_12_63.pdb
 OpenBabel08272523333D

 57 61  0  0  1  0  0  0  0  0999 V2000
   -7.3520    3.4440  -21.8740 C   0  0  0  0  0  0  0  0  0  0  0  0
   -8.1790    2.9610  -22.9590 N   0  0  0  0  0  0  0  0  0  0  0  0
   -7.6130    2.2450  -23.9550 C   0  0  0  0  0  0  0  0  0  0  0  0
   -6.4000    2.1090  -24.0580 O   0  0  0  0  0  0  0  0  0  0  0  0
   -8.5630    1.6230  -24.9790 C   0  0  0  0  0  0  0  0  0  0  0  0
   -9.3030    0.4910  -24.4610 N   0  0  0  0  0  0  0  0  0  0  0  0
   -8.5970   -0.7630  -24.2750 C   0  0  0  0  0  0  0  0  0  0  0  0
   -9.0060   -1.4700  -22.9580 C   0  0  2  0  0  0  0  0  0  0  0  0
   -8.4560   -0.6860  -21.7400 C   0  0  0  0  0  0  0  0  0  0  0  0
   -8.8640    0.3650  -21.2980 O   0  0  0  0  0  0  0  0  0  0  0  0
   -7.3950   -1.3810  -21.2090 N   0  0  0  0  0  0  0  0  0  0  0  0
   -6.6100   -0.8000  -20.1750 C   0  0  0  0  0  0  0  0  0  0  0  0
   -6.9120   -1.0490  -18.8600 C   0  0  0  0  0  0  0  0  0  0  0  0
   -6.2100   -0.5600  -17.8090 N   0  0  0  0  0  0  0  0  0  0  0  0
   -5.1760    0.2050  -18.0720 C   0  0  0  0  0  0  0  0  0  0  0  0
   -4.7570    0.5590  -19.3870 C   0  0  0  0  0  0  0  0  0  0  0  0
   -3.6270    1.3900  -19.6230 C   0  0  0  0  0  0  0  0  0  0  0  0
   -3.2580    1.7170  -20.9010 C   0  0  0  0  0  0  0  0  0  0  0  0
   -4.0220    1.2570  -21.9960 C   0  0  0  0  0  0  0  0  0  0  0  0
   -5.1080    0.4330  -21.7910 C   0  0  0  0  0  0  0  0  0  0  0  0
   -5.5080    0.0630  -20.4780 C   0  0  0  0  0  0  0  0  0  0  0  0
   -5.6410    0.0220  -22.6460 H   0  0  0  0  0  0  0  0  0  0  0  0
   -3.7220    1.4980  -23.0120 H   0  0  0  0  0  0  0  0  0  0  0  0
   -2.3720    2.3180  -21.0830 H   0  0  0  0  0  0  0  0  0  0  0  0
   -3.0640    1.7480  -18.7650 H   0  0  0  0  0  0  0  0  0  0  0  0
   -4.6210    0.6020  -17.2220 H   0  0  0  0  0  0  0  0  0  0  0  0
   -7.7670   -1.6710  -18.6080 H   0  0  0  0  0  0  0  0  0  0  0  0
   -7.0740   -2.6140  -21.9030 C   0  0  0  0  0  0  0  0  0  0  0  0
   -8.3060   -2.8570  -22.8070 C   0  0  2  0  0  0  0  0  0  0  0  0
   -7.9400   -3.5780  -24.1050 C   0  0  0  0  0  0  0  0  0  0  0  0
   -7.4220   -4.8440  -23.7480 O   0  0  0  0  0  0  0  0  0  0  0  0
   -7.2130   -5.3270  -24.5560 H   0  0  0  0  0  0  0  0  0  0  0  0
   -7.1840   -2.9930  -24.6530 H   0  0  0  0  0  0  0  0  0  0  0  0
   -8.8270   -3.6840  -24.7520 H   0  0  0  0  0  0  0  0  0  0  0  0
   -8.9950   -3.5180  -22.2770 H   0  0  0  0  0  0  0  0  0  0  0  0
   -6.9070   -3.4280  -21.1910 H   0  0  0  0  0  0  0  0  0  0  0  0
   -6.1570   -2.4990  -22.4990 H   0  0  0  0  0  0  0  0  0  0  0  0
  -10.5260   -1.4830  -22.8900 C   0  0  0  0  0  0  0  0  0  0  0  0
  -11.1710   -2.3370  -21.9900 C   0  0  0  0  0  0  0  0  0  0  0  0
  -12.5500   -2.3340  -21.8960 C   0  0  0  0  0  0  0  0  0  0  0  0
  -13.3190   -3.3870  -20.7410 Cl  0  0  0  0  0  0  0  0  0  0  0  0
  -13.3290   -1.4740  -22.6730 C   0  0  0  0  0  0  0  0  0  0  0  0
  -12.6990   -0.5770  -23.5160 C   0  0  0  0  0  0  0  0  0  0  0  0
  -11.3060   -0.5590  -23.6000 C   0  0  0  0  0  0  0  0  0  0  0  0
  -10.6710    0.5410  -24.3980 C   0  0  0  0  0  0  0  0  0  0  0  0
  -11.3370    1.4300  -24.9130 O   0  0  0  0  0  0  0  0  0  0  0  0
  -13.2460    0.1470  -24.1150 H   0  0  0  0  0  0  0  0  0  0  0  0
  -14.4080   -1.5110  -22.5930 H   0  0  0  0  0  0  0  0  0  0  0  0
  -10.6090   -2.9880  -21.3290 H   0  0  0  0  0  0  0  0  0  0  0  0
   -7.5270   -0.5290  -24.2530 H   0  0  0  0  0  0  0  0  0  0  0  0
   -8.8070   -1.4390  -25.1200 H   0  0  0  0  0  0  0  0  0  0  0  0
   -7.9330    1.3270  -25.8270 H   0  0  0  0  0  0  0  0  0  0  0  0
   -9.3260    2.3330  -25.3010 H   0  0  0  0  0  0  0  0  0  0  0  0
   -9.1710    2.8760  -22.8060 H   0  0  0  0  0  0  0  0  0  0  0  0
   -6.6090    4.1570  -22.2410 H   0  0  0  0  0  0  0  0  0  0  0  0
   -7.9970    3.9410  -21.1500 H   0  0  0  0  0  0  0  0  0  0  0  0
   -6.8130    2.6110  -21.4040 H   0  0  0  0  0  0  0  0  0  0  0  0
  1  2  1  0  0  0  0
  1 55  1  0  0  0  0
  1 56  1  0  0  0  0
  1 57  1  0  0  0  0
  2  3  1  0  0  0  0
  2 54  1  0  0  0  0
  3  4  2  0  0  0  0
  3  5  1  0  0  0  0
  5  6  1  0  0  0  0
  5 52  1  0  0  0  0
  5 53  1  0  0  0  0
  6  7  1  0  0  0  0
  6 45  1  0  0  0  0
  7  8  1  0  0  0  0
  7 50  1  0  0  0  0
  7 51  1  0  0  0  0
  8  9  1  1  0  0  0
  8 29  1  0  0  0  0
  8 38  1  0  0  0  0
  9 10  2  0  0  0  0
  9 11  1  0  0  0  0
 11 12  1  0  0  0  0
 11 28  1  0  0  0  0
 12 13  2  0  0  0  0
 12 21  1  0  0  0  0
 13 14  1  0  0  0  0
 13 27  1  0  0  0  0
 14 15  2  0  0  0  0
 15 16  1  0  0  0  0
 15 26  1  0  0  0  0
 16 17  2  0  0  0  0
 16 21  1  0  0  0  0
 17 18  1  0  0  0  0
 17 25  1  0  0  0  0
 18 19  2  0  0  0  0
 18 24  1  0  0  0  0
 19 20  1  0  0  0  0
 19 23  1  0  0  0  0
 20 21  2  0  0  0  0
 20 22  1  0  0  0  0
 28 29  1  0  0  0  0
 28 36  1  0  0  0  0
 28 37  1  0  0  0  0
 29 30  1  0  0  0  0
 29 35  1  1  0  0  0
 30 31  1  0  0  0  0
 30 33  1  0  0  0  0
 30 34  1  0  0  0  0
 31 32  1  0  0  0  0
 38 39  2  0  0  0  0
 38 44  1  0  0  0  0
 39 40  1  0  0  0  0
 39 49  1  0  0  0  0
 40 41  1  0  0  0  0
 40 42  2  0  0  0  0
 42 43  1  0  0  0  0
 42 48  1  0  0  0  0
 43 44  2  0  0  0  0
 43 47  1  0  0  0  0
 44 45  1  0  0  0  0
 45 46  2  0  0  0  0
M  END
>  <MODEL>
       1

$$$$
