tmp_first_model_15_27.pdb
 OpenBabel08282501153D

 58 62  0  0  1  0  0  0  0  0999 V2000
   -7.0470    3.5740  -22.0990 C   0  0  0  0  0  0  0  0  0  0  0  0
   -7.2890    2.5320  -23.1020 N   0  3  0  0  0  0  0  0  0  0  0  0
   -8.4460    2.8270  -23.9970 C   0  0  0  0  0  0  0  0  0  0  0  0
   -8.7230    1.6670  -24.9540 C   0  0  0  0  0  0  0  0  0  0  0  0
   -9.3800    0.5280  -24.3190 N   0  0  0  0  0  0  0  0  0  0  0  0
   -8.6750   -0.7330  -24.1890 C   0  0  0  0  0  0  0  0  0  0  0  0
   -9.0690   -1.4880  -22.8960 C   0  0  2  0  0  0  0  0  0  0  0  0
   -8.5300   -0.7310  -21.6570 C   0  0  0  0  0  0  0  0  0  0  0  0
   -8.9640    0.2990  -21.1770 O   0  0  0  0  0  0  0  0  0  0  0  0
   -7.4150   -1.3870  -21.1890 N   0  0  0  0  0  0  0  0  0  0  0  0
   -6.6050   -0.8070  -20.1720 C   0  0  0  0  0  0  0  0  0  0  0  0
   -6.9120   -1.0410  -18.8570 C   0  0  0  0  0  0  0  0  0  0  0  0
   -6.2040   -0.5520  -17.8090 N   0  0  0  0  0  0  0  0  0  0  0  0
   -5.1710    0.2070  -18.0830 C   0  0  0  0  0  0  0  0  0  0  0  0
   -4.7400    0.5370  -19.3990 C   0  0  0  0  0  0  0  0  0  0  0  0
   -3.6140    1.3710  -19.6420 C   0  0  0  0  0  0  0  0  0  0  0  0
   -3.2280    1.6690  -20.9200 C   0  0  0  0  0  0  0  0  0  0  0  0
   -3.9470    1.1410  -22.0150 C   0  0  0  0  0  0  0  0  0  0  0  0
   -5.0390    0.3290  -21.8080 C   0  0  0  0  0  0  0  0  0  0  0  0
   -5.4750    0.0090  -20.4910 C   0  0  0  0  0  0  0  0  0  0  0  0
   -5.5670   -0.0820  -22.6640 H   0  0  0  0  0  0  0  0  0  0  0  0
   -3.6410    1.3840  -23.0300 H   0  0  0  0  0  0  0  0  0  0  0  0
   -2.3730    2.3170  -21.0980 H   0  0  0  0  0  0  0  0  0  0  0  0
   -3.0850    1.7770  -18.7830 H   0  0  0  0  0  0  0  0  0  0  0  0
   -4.6220    0.6120  -17.2320 H   0  0  0  0  0  0  0  0  0  0  0  0
   -7.7630   -1.6680  -18.6010 H   0  0  0  0  0  0  0  0  0  0  0  0
   -7.0550   -2.5680  -21.9500 C   0  0  0  0  0  0  0  0  0  0  0  0
   -8.3130   -2.8540  -22.8000 C   0  0  2  0  0  0  0  0  0  0  0  0
   -7.9710   -3.5630  -24.1200 C   0  0  0  0  0  0  0  0  0  0  0  0
   -7.5150   -4.5450  -23.9350 H   0  0  0  0  0  0  0  0  0  0  0  0
   -8.8580   -3.7220  -24.7470 H   0  0  0  0  0  0  0  0  0  0  0  0
   -7.2500   -2.9800  -24.7100 H   0  0  0  0  0  0  0  0  0  0  0  0
   -8.9590   -3.5130  -22.2150 H   0  0  0  0  0  0  0  0  0  0  0  0
   -6.8020   -3.3950  -21.2740 H   0  0  0  0  0  0  0  0  0  0  0  0
   -6.1730   -2.3870  -22.5860 H   0  0  0  0  0  0  0  0  0  0  0  0
  -10.5830   -1.5580  -22.8290 C   0  0  0  0  0  0  0  0  0  0  0  0
  -11.2270   -2.5120  -22.0320 C   0  0  0  0  0  0  0  0  0  0  0  0
  -12.6040   -2.5150  -21.9550 C   0  0  0  0  0  0  0  0  0  0  0  0
  -13.2090   -3.4410  -21.1920 F   0  0  0  0  0  0  0  0  0  0  0  0
  -13.3910   -1.5890  -22.6290 C   0  0  0  0  0  0  0  0  0  0  0  0
  -12.7600   -0.6090  -23.3650 C   0  0  0  0  0  0  0  0  0  0  0  0
  -11.3670   -0.5700  -23.4470 C   0  0  0  0  0  0  0  0  0  0  0  0
  -10.7340    0.5960  -24.1530 C   0  0  0  0  0  0  0  0  0  0  0  0
  -11.3890    1.5560  -24.5410 O   0  0  0  0  0  0  0  0  0  0  0  0
  -13.3160    0.1670  -23.8790 H   0  0  0  0  0  0  0  0  0  0  0  0
  -14.4680   -1.6460  -22.5370 H   0  0  0  0  0  0  0  0  0  0  0  0
  -10.6890   -3.2410  -21.4360 H   0  0  0  0  0  0  0  0  0  0  0  0
   -8.8790   -1.3860  -25.0530 H   0  0  0  0  0  0  0  0  0  0  0  0
   -7.6020   -0.5120  -24.1560 H   0  0  0  0  0  0  0  0  0  0  0  0
   -7.7790    1.3090  -25.3860 H   0  0  0  0  0  0  0  0  0  0  0  0
   -9.3750    2.0140  -25.7600 H   0  0  0  0  0  0  0  0  0  0  0  0
   -9.3310    3.0120  -23.3800 H   0  0  0  0  0  0  0  0  0  0  0  0
   -8.2390    3.7370  -24.5720 H   0  0  0  0  0  0  0  0  0  0  0  0
   -6.4230    2.4050  -23.6790 H   0  0  0  0  0  0  0  0  0  0  0  0
   -7.5010    1.6390  -22.6020 H   0  0  0  0  0  0  0  0  0  0  0  0
   -6.1780    3.3000  -21.4990 H   0  0  0  0  0  0  0  0  0  0  0  0
   -7.9250    3.6790  -21.4530 H   0  0  0  0  0  0  0  0  0  0  0  0
   -6.8740    4.5500  -22.5710 H   0  0  0  0  0  0  0  0  0  0  0  0
  1  2  1  0  0  0  0
  1 56  1  0  0  0  0
  1 57  1  0  0  0  0
  1 58  1  0  0  0  0
  2  3  1  0  0  0  0
  2 54  1  0  0  0  0
  2 55  1  0  0  0  0
  3  4  1  0  0  0  0
  3 52  1  0  0  0  0
  3 53  1  0  0  0  0
  4  5  1  0  0  0  0
  4 50  1  0  0  0  0
  4 51  1  0  0  0  0
  5  6  1  0  0  0  0
  5 43  1  0  0  0  0
  6  7  1  0  0  0  0
  6 48  1  0  0  0  0
  6 49  1  0  0  0  0
  7  8  1  1  0  0  0
  7 28  1  0  0  0  0
  7 36  1  0  0  0  0
  8  9  2  0  0  0  0
  8 10  1  0  0  0  0
 10 11  1  0  0  0  0
 10 27  1  0  0  0  0
 11 12  2  0  0  0  0
 11 20  1  0  0  0  0
 12 13  1  0  0  0  0
 12 26  1  0  0  0  0
 13 14  2  0  0  0  0
 14 15  1  0  0  0  0
 14 25  1  0  0  0  0
 15 16  2  0  0  0  0
 15 20  1  0  0  0  0
 16 17  1  0  0  0  0
 16 24  1  0  0  0  0
 17 18  2  0  0  0  0
 17 23  1  0  0  0  0
 18 19  1  0  0  0  0
 18 22  1  0  0  0  0
 19 20  2  0  0  0  0
 19 21  1  0  0  0  0
 27 28  1  0  0  0  0
 27 34  1  0  0  0  0
 27 35  1  0  0  0  0
 28 29  1  0  0  0  0
 28 33  1  1  0  0  0
 29 30  1  0  0  0  0
 29 31  1  0  0  0  0
 29 32  1  0  0  0  0
 36 37  2  0  0  0  0
 36 42  1  0  0  0  0
 37 38  1  0  0  0  0
 37 47  1  0  0  0  0
 38 39  1  0  0  0  0
 38 40  2  0  0  0  0
 40 41  1  0  0  0  0
 40 46  1  0  0  0  0
 41 42  2  0  0  0  0
 41 45  1  0  0  0  0
 42 43  1  0  0  0  0
 43 44  2  0  0  0  0
M  CHG  1   2   1
M  END
>  <MODEL>
       1

$$$$
