tmp_first_model_13_2.pdb
 OpenBabel08282500103D

 60 65  0  0  1  0  0  0  0  0999 V2000
   -9.4310    0.2180  -31.1550 C   0  0  0  0  0  0  0  0  0  0  0  0
   -9.2110    0.4370  -29.6920 C   0  0  0  0  0  0  0  0  0  0  0  0
   -9.9990    1.3440  -28.9760 C   0  0  0  0  0  0  0  0  0  0  0  0
   -9.8130    1.5570  -27.6820 N   0  0  0  0  0  0  0  0  0  0  0  0
   -8.8270    0.8790  -27.0840 C   0  0  0  0  0  0  0  0  0  0  0  0
   -8.6270    1.1510  -25.6150 C   0  0  0  0  0  0  0  0  0  0  0  0
   -9.3620    0.2250  -24.7790 N   0  0  0  0  0  0  0  0  0  0  0  0
   -8.7740   -1.0670  -24.4870 C   0  0  0  0  0  0  0  0  0  0  0  0
   -8.9770   -1.4730  -23.0080 C   0  0  2  0  0  0  0  0  0  0  0  0
   -8.1520   -0.5530  -22.0800 C   0  0  0  0  0  0  0  0  0  0  0  0
   -8.1490    0.6540  -22.0790 O   0  0  0  0  0  0  0  0  0  0  0  0
   -7.3810   -1.3380  -21.2450 N   0  0  0  0  0  0  0  0  0  0  0  0
   -6.5890   -0.8040  -20.2040 C   0  0  0  0  0  0  0  0  0  0  0  0
   -6.8870   -1.0670  -18.8890 C   0  0  0  0  0  0  0  0  0  0  0  0
   -6.2040   -0.5610  -17.8340 N   0  0  0  0  0  0  0  0  0  0  0  0
   -5.1760    0.2090  -18.0910 C   0  0  0  0  0  0  0  0  0  0  0  0
   -4.7320    0.5220  -19.4080 C   0  0  0  0  0  0  0  0  0  0  0  0
   -3.6020    1.3510  -19.6320 C   0  0  0  0  0  0  0  0  0  0  0  0
   -3.1810    1.6210  -20.9050 C   0  0  0  0  0  0  0  0  0  0  0  0
   -3.8620    1.0690  -22.0120 C   0  0  0  0  0  0  0  0  0  0  0  0
   -4.9570    0.2650  -21.8220 C   0  0  0  0  0  0  0  0  0  0  0  0
   -5.4380   -0.0080  -20.5080 C   0  0  0  0  0  0  0  0  0  0  0  0
   -5.4690   -0.1550  -22.6820 H   0  0  0  0  0  0  0  0  0  0  0  0
   -3.5200    1.2820  -23.0210 H   0  0  0  0  0  0  0  0  0  0  0  0
   -2.3240    2.2660  -21.0740 H   0  0  0  0  0  0  0  0  0  0  0  0
   -3.0880    1.7630  -18.7680 H   0  0  0  0  0  0  0  0  0  0  0  0
   -4.6250    0.6180  -17.2430 H   0  0  0  0  0  0  0  0  0  0  0  0
   -7.7480   -1.6880  -18.6420 H   0  0  0  0  0  0  0  0  0  0  0  0
   -7.6990   -2.7430  -21.3220 C   0  0  0  0  0  0  0  0  0  0  0  0
   -8.4300   -2.8980  -22.6710 C   0  0  2  0  0  0  0  0  0  0  0  0
   -7.5600   -3.5750  -23.7320 C   0  0  0  0  0  0  0  0  0  0  0  0
   -7.2610   -4.5730  -23.3900 H   0  0  0  0  0  0  0  0  0  0  0  0
   -6.6520   -3.0070  -23.9600 H   0  0  0  0  0  0  0  0  0  0  0  0
   -8.1230   -3.7180  -24.6590 H   0  0  0  0  0  0  0  0  0  0  0  0
   -9.2740   -3.5780  -22.5520 H   0  0  0  0  0  0  0  0  0  0  0  0
   -8.3510   -3.0330  -20.4910 H   0  0  0  0  0  0  0  0  0  0  0  0
   -6.7820   -3.3380  -21.2540 H   0  0  0  0  0  0  0  0  0  0  0  0
  -10.4700   -1.3300  -22.7340 C   0  0  0  0  0  0  0  0  0  0  0  0
  -11.1040   -2.1580  -21.8040 C   0  0  0  0  0  0  0  0  0  0  0  0
  -12.4680   -2.0390  -21.6270 C   0  0  0  0  0  0  0  0  0  0  0  0
  -13.0820   -2.9160  -20.8130 F   0  0  0  0  0  0  0  0  0  0  0  0
  -13.2260   -1.0310  -22.2130 C   0  0  0  0  0  0  0  0  0  0  0  0
  -12.5820   -0.1670  -23.0790 C   0  0  0  0  0  0  0  0  0  0  0  0
  -11.2390   -0.3600  -23.3910 C   0  0  0  0  0  0  0  0  0  0  0  0
  -10.6350    0.5510  -24.4070 C   0  0  0  0  0  0  0  0  0  0  0  0
  -11.2200    1.5370  -24.8390 O   0  0  0  0  0  0  0  0  0  0  0  0
  -13.0720    0.6800  -23.5430 H   0  0  0  0  0  0  0  0  0  0  0  0
  -14.2830   -0.9500  -21.9830 H   0  0  0  0  0  0  0  0  0  0  0  0
  -10.5620   -2.9060  -21.2310 H   0  0  0  0  0  0  0  0  0  0  0  0
   -9.2460   -1.8380  -25.1100 H   0  0  0  0  0  0  0  0  0  0  0  0
   -7.7110   -1.0330  -24.7450 H   0  0  0  0  0  0  0  0  0  0  0  0
   -9.0180    2.1480  -25.3960 H   0  0  0  0  0  0  0  0  0  0  0  0
   -7.5680    1.0910  -25.3210 H   0  0  0  0  0  0  0  0  0  0  0  0
   -8.0560   -0.0380  -27.7910 C   0  0  0  0  0  0  0  0  0  0  0  0
   -8.2400   -0.2560  -29.0950 N   0  0  0  0  0  0  0  0  0  0  0  0
   -7.2410   -0.5820  -27.3050 H   0  0  0  0  0  0  0  0  0  0  0  0
  -10.7890    1.9220  -29.4630 H   0  0  0  0  0  0  0  0  0  0  0  0
  -10.2540   -0.4820  -31.3330 H   0  0  0  0  0  0  0  0  0  0  0  0
   -9.6790    1.1590  -31.6510 H   0  0  0  0  0  0  0  0  0  0  0  0
   -8.5320   -0.2020  -31.6070 H   0  0  0  0  0  0  0  0  0  0  0  0
  1  2  1  0  0  0  0
  1 58  1  0  0  0  0
  1 59  1  0  0  0  0
  1 60  1  0  0  0  0
  2  3  2  0  0  0  0
  2 55  1  0  0  0  0
  3  4  1  0  0  0  0
  3 57  1  0  0  0  0
  4  5  2  0  0  0  0
  5  6  1  0  0  0  0
  5 54  1  0  0  0  0
  6  7  1  0  0  0  0
  6 52  1  0  0  0  0
  6 53  1  0  0  0  0
  7  8  1  0  0  0  0
  7 45  1  0  0  0  0
  8  9  1  0  0  0  0
  8 50  1  0  0  0  0
  8 51  1  0  0  0  0
  9 10  1  1  0  0  0
  9 30  1  0  0  0  0
  9 38  1  0  0  0  0
 10 11  2  0  0  0  0
 10 12  1  0  0  0  0
 12 13  1  0  0  0  0
 12 29  1  0  0  0  0
 13 14  2  0  0  0  0
 13 22  1  0  0  0  0
 14 15  1  0  0  0  0
 14 28  1  0  0  0  0
 15 16  2  0  0  0  0
 16 17  1  0  0  0  0
 16 27  1  0  0  0  0
 17 18  2  0  0  0  0
 17 22  1  0  0  0  0
 18 19  1  0  0  0  0
 18 26  1  0  0  0  0
 19 20  2  0  0  0  0
 19 25  1  0  0  0  0
 20 21  1  0  0  0  0
 20 24  1  0  0  0  0
 21 22  2  0  0  0  0
 21 23  1  0  0  0  0
 29 30  1  0  0  0  0
 29 36  1  0  0  0  0
 29 37  1  0  0  0  0
 30 31  1  0  0  0  0
 30 35  1  1  0  0  0
 31 32  1  0  0  0  0
 31 33  1  0  0  0  0
 31 34  1  0  0  0  0
 38 39  2  0  0  0  0
 38 44  1  0  0  0  0
 39 40  1  0  0  0  0
 39 49  1  0  0  0  0
 40 41  1  0  0  0  0
 40 42  2  0  0  0  0
 42 43  1  0  0  0  0
 42 48  1  0  0  0  0
 43 44  2  0  0  0  0
 43 47  1  0  0  0  0
 44 45  1  0  0  0  0
 45 46  2  0  0  0  0
 54 55  2  0  0  0  0
 54 56  1  0  0  0  0
M  END
>  <MODEL>
       1

$$$$
