tmp_first_model_8_40.pdb
 OpenBabel08272521063D

 40 42  0  0  0  0  0  0  0  0999 V2000
   -5.2030   -7.6090  -20.6570 C   0  0  0  0  0  0  0  0  0  0  0  0
   -4.9910   -6.1010  -20.7380 C   0  0  0  0  0  0  0  0  0  0  0  0
   -4.5900   -5.6070  -22.1370 C   0  0  0  0  0  0  0  0  0  0  0  0
   -4.5470   -4.0740  -22.2550 C   0  0  0  0  0  0  0  0  0  0  0  0
   -5.7230   -3.4340  -21.6660 N   0  0  0  0  0  0  0  0  0  0  0  0
   -6.3140   -2.3440  -22.2560 C   0  0  0  0  0  0  0  0  0  0  0  0
   -6.0900   -2.0400  -23.4210 O   0  0  0  0  0  0  0  0  0  0  0  0
   -7.2810   -1.5200  -21.3650 C   0  0  0  0  0  0  0  0  0  0  0  0
   -6.5770   -0.8500  -20.2030 C   0  0  0  0  0  0  0  0  0  0  0  0
   -6.9410   -1.0460  -18.8930 C   0  0  0  0  0  0  0  0  0  0  0  0
   -6.2790   -0.5530  -17.8170 N   0  0  0  0  0  0  0  0  0  0  0  0
   -5.2170    0.1850  -18.0520 C   0  0  0  0  0  0  0  0  0  0  0  0
   -4.7550    0.5180  -19.3540 C   0  0  0  0  0  0  0  0  0  0  0  0
   -3.6410    1.3680  -19.5790 C   0  0  0  0  0  0  0  0  0  0  0  0
   -3.2870    1.7240  -20.8540 C   0  0  0  0  0  0  0  0  0  0  0  0
   -4.0170    1.2330  -21.9580 C   0  0  0  0  0  0  0  0  0  0  0  0
   -5.0670    0.3750  -21.7730 C   0  0  0  0  0  0  0  0  0  0  0  0
   -5.4670    0.0040  -20.4590 C   0  0  0  0  0  0  0  0  0  0  0  0
   -5.5930   -0.0330  -22.6270 H   0  0  0  0  0  0  0  0  0  0  0  0
   -3.7270    1.5160  -22.9660 H   0  0  0  0  0  0  0  0  0  0  0  0
   -2.4550    2.3970  -21.0290 H   0  0  0  0  0  0  0  0  0  0  0  0
   -3.0940    1.7550  -18.7240 H   0  0  0  0  0  0  0  0  0  0  0  0
   -4.6870    0.5770  -17.1850 H   0  0  0  0  0  0  0  0  0  0  0  0
   -7.8100   -1.6590  -18.6460 H   0  0  0  0  0  0  0  0  0  0  0  0
   -7.7740   -0.7800  -22.0060 H   0  0  0  0  0  0  0  0  0  0  0  0
   -8.0860   -2.1730  -21.0050 H   0  0  0  0  0  0  0  0  0  0  0  0
   -5.9840   -3.8680  -20.3080 C   0  0  0  0  0  0  0  0  0  0  0  0
   -6.2240   -5.3640  -20.2720 C   0  0  0  0  0  0  0  0  0  0  0  0
   -7.0950   -5.6220  -20.8890 H   0  0  0  0  0  0  0  0  0  0  0  0
   -6.4090   -5.6550  -19.2360 H   0  0  0  0  0  0  0  0  0  0  0  0
   -5.1100   -3.6310  -19.6710 H   0  0  0  0  0  0  0  0  0  0  0  0
   -6.8450   -3.3440  -19.9140 H   0  0  0  0  0  0  0  0  0  0  0  0
   -3.6460   -3.6940  -21.7550 H   0  0  0  0  0  0  0  0  0  0  0  0
   -4.4920   -3.7640  -23.2980 H   0  0  0  0  0  0  0  0  0  0  0  0
   -3.6050   -6.0110  -22.4170 H   0  0  0  0  0  0  0  0  0  0  0  0
   -5.3170   -5.9920  -22.8670 H   0  0  0  0  0  0  0  0  0  0  0  0
   -4.2680   -5.8010  -19.9850 H   0  0  0  0  0  0  0  0  0  0  0  0
   -6.0470   -7.8920  -21.2900 H   0  0  0  0  0  0  0  0  0  0  0  0
   -5.4180   -7.9440  -19.6340 H   0  0  0  0  0  0  0  0  0  0  0  0
   -4.3460   -8.1850  -21.0120 H   0  0  0  0  0  0  0  0  0  0  0  0
  1  2  1  0  0  0  0
  1 38  1  0  0  0  0
  1 39  1  0  0  0  0
  1 40  1  0  0  0  0
  2  3  1  0  0  0  0
  2 28  1  0  0  0  0
  2 37  1  0  0  0  0
  3  4  1  0  0  0  0
  3 35  1  0  0  0  0
  3 36  1  0  0  0  0
  4  5  1  0  0  0  0
  4 33  1  0  0  0  0
  4 34  1  0  0  0  0
  5  6  1  0  0  0  0
  5 27  1  0  0  0  0
  6  7  2  0  0  0  0
  6  8  1  0  0  0  0
  8  9  1  0  0  0  0
  8 25  1  0  0  0  0
  8 26  1  0  0  0  0
  9 10  2  0  0  0  0
  9 18  1  0  0  0  0
 10 11  1  0  0  0  0
 10 24  1  0  0  0  0
 11 12  2  0  0  0  0
 12 13  1  0  0  0  0
 12 23  1  0  0  0  0
 13 14  2  0  0  0  0
 13 18  1  0  0  0  0
 14 15  1  0  0  0  0
 14 22  1  0  0  0  0
 15 16  2  0  0  0  0
 15 21  1  0  0  0  0
 16 17  1  0  0  0  0
 16 20  1  0  0  0  0
 17 18  2  0  0  0  0
 17 19  1  0  0  0  0
 27 28  1  0  0  0  0
 27 31  1  0  0  0  0
 27 32  1  0  0  0  0
 28 29  1  0  0  0  0
 28 30  1  0  0  0  0
M  END
>  <MODEL>
       1

$$$$
