tmp_first_model_16_83.pdb
 OpenBabel08282501503D

 46 50  0  0  1  0  0  0  0  0999 V2000
   -5.9940   -4.3480  -26.9470 N   0  0  0  0  0  0  0  0  0  0  0  0
   -5.7320   -2.7320  -26.7470 S   0  0  0  0  0  0  0  0  0  0  0  0
   -4.7690   -2.6250  -25.6630 O   0  0  0  0  0  0  0  0  0  0  0  0
   -5.4990   -2.2120  -28.0840 O   0  0  0  0  0  0  0  0  0  0  0  0
   -7.2610   -2.0370  -26.1760 C   0  0  0  0  0  0  0  0  0  0  0  0
   -8.1100   -1.3990  -27.0830 C   0  0  0  0  0  0  0  0  0  0  0  0
   -9.2570   -0.7880  -26.6110 C   0  0  0  0  0  0  0  0  0  0  0  0
   -9.6030   -0.8940  -25.2640 C   0  0  0  0  0  0  0  0  0  0  0  0
   -8.7660   -1.5540  -24.3610 C   0  0  0  0  0  0  0  0  0  0  0  0
   -7.5740   -2.1070  -24.8270 C   0  0  0  0  0  0  0  0  0  0  0  0
   -6.8890   -2.5890  -24.1350 H   0  0  0  0  0  0  0  0  0  0  0  0
   -9.0980   -1.5910  -22.8860 C   0  0  1  0  0  0  0  0  0  0  0  0
  -10.5840   -1.2820  -22.6700 C   0  0  0  0  0  0  0  0  0  0  0  0
  -11.0220   -0.1060  -23.5320 C   0  0  0  0  0  0  0  0  0  0  0  0
  -10.7970   -0.3470  -24.9190 O   0  0  0  0  0  0  0  0  0  0  0  0
  -12.1010    0.0490  -23.4570 H   0  0  0  0  0  0  0  0  0  0  0  0
  -10.4920    0.8050  -23.2290 H   0  0  0  0  0  0  0  0  0  0  0  0
  -10.7310   -1.0720  -21.6100 H   0  0  0  0  0  0  0  0  0  0  0  0
  -11.1650   -2.1740  -22.9310 H   0  0  0  0  0  0  0  0  0  0  0  0
   -8.7190   -2.8390  -22.2530 N   0  0  0  0  0  0  0  0  0  0  0  0
   -7.7310   -2.7290  -21.3300 C   0  0  0  0  0  0  0  0  0  0  0  0
   -7.1350   -3.6060  -20.7430 O   0  0  0  0  0  0  0  0  0  0  0  0
   -7.4620   -1.3530  -21.2110 N   0  0  0  0  0  0  0  0  0  0  0  0
   -6.6230   -0.8260  -20.1990 C   0  0  0  0  0  0  0  0  0  0  0  0
   -6.9270   -1.1010  -18.8880 C   0  0  0  0  0  0  0  0  0  0  0  0
   -6.1880   -0.6850  -17.8360 N   0  0  0  0  0  0  0  0  0  0  0  0
   -5.1250    0.0360  -18.1010 C   0  0  0  0  0  0  0  0  0  0  0  0
   -4.7210    0.4440  -19.4090 C   0  0  0  0  0  0  0  0  0  0  0  0
   -3.6080    1.3080  -19.6280 C   0  0  0  0  0  0  0  0  0  0  0  0
   -3.2040    1.6060  -20.9010 C   0  0  0  0  0  0  0  0  0  0  0  0
   -3.8930    1.0620  -22.0070 C   0  0  0  0  0  0  0  0  0  0  0  0
   -4.9920    0.2600  -21.8190 C   0  0  0  0  0  0  0  0  0  0  0  0
   -5.4610   -0.0400  -20.5070 C   0  0  0  0  0  0  0  0  0  0  0  0
   -5.5190   -0.1400  -22.6790 H   0  0  0  0  0  0  0  0  0  0  0  0
   -3.5500    1.2830  -23.0130 H   0  0  0  0  0  0  0  0  0  0  0  0
   -2.3420    2.2440  -21.0720 H   0  0  0  0  0  0  0  0  0  0  0  0
   -3.1030    1.7290  -18.7630 H   0  0  0  0  0  0  0  0  0  0  0  0
   -4.5200    0.3190  -17.2420 H   0  0  0  0  0  0  0  0  0  0  0  0
   -7.8030   -1.6990  -18.6440 H   0  0  0  0  0  0  0  0  0  0  0  0
   -8.2210   -0.6000  -22.1010 C   0  0  0  0  0  0  0  0  0  0  0  0
   -8.1850    0.6040  -22.2090 O   0  0  0  0  0  0  0  0  0  0  0  0
   -9.1060   -3.7290  -22.5010 H   0  0  0  0  0  0  0  0  0  0  0  0
   -9.8800   -0.1710  -27.2500 H   0  0  0  0  0  0  0  0  0  0  0  0
   -7.8610   -1.3950  -28.1410 H   0  0  0  0  0  0  0  0  0  0  0  0
   -6.1640   -4.8210  -26.0670 H   0  0  0  0  0  0  0  0  0  0  0  0
   -6.6450   -4.5420  -27.7000 H   0  0  0  0  0  0  0  0  0  0  0  0
  1  2  1  0  0  0  0
  1 45  1  0  0  0  0
  1 46  1  0  0  0  0
  2  3  2  0  0  0  0
  2  4  2  0  0  0  0
  2  5  1  0  0  0  0
  5  6  2  0  0  0  0
  5 10  1  0  0  0  0
  6  7  1  0  0  0  0
  6 44  1  0  0  0  0
  7  8  2  0  0  0  0
  7 43  1  0  0  0  0
  8  9  1  0  0  0  0
  8 15  1  0  0  0  0
  9 10  2  0  0  0  0
 10 11  1  0  0  0  0
 12  9  1  6  0  0  0
 12 13  1  0  0  0  0
 12 20  1  0  0  0  0
 12 40  1  0  0  0  0
 13 14  1  0  0  0  0
 13 18  1  0  0  0  0
 13 19  1  0  0  0  0
 14 15  1  0  0  0  0
 14 16  1  0  0  0  0
 14 17  1  0  0  0  0
 20 21  1  0  0  0  0
 20 42  1  0  0  0  0
 21 22  2  0  0  0  0
 21 23  1  0  0  0  0
 23 24  1  0  0  0  0
 23 40  1  0  0  0  0
 24 25  2  0  0  0  0
 24 33  1  0  0  0  0
 25 26  1  0  0  0  0
 25 39  1  0  0  0  0
 26 27  2  0  0  0  0
 27 28  1  0  0  0  0
 27 38  1  0  0  0  0
 28 29  2  0  0  0  0
 28 33  1  0  0  0  0
 29 30  1  0  0  0  0
 29 37  1  0  0  0  0
 30 31  2  0  0  0  0
 30 36  1  0  0  0  0
 31 32  1  0  0  0  0
 31 35  1  0  0  0  0
 32 33  2  0  0  0  0
 32 34  1  0  0  0  0
 40 41  2  0  0  0  0
M  END
>  <MODEL>
       1

$$$$
