tmp_first_model_14_70.pdb
 OpenBabel08282500413D

 52 54  0  0  0  0  0  0  0  0999 V2000
  -10.6410   -4.9590  -27.0060 C   0  0  0  0  0  0  0  0  0  0  0  0
  -10.0530   -6.2900  -26.5490 C   0  0  0  0  0  0  0  0  0  0  0  0
  -11.0950   -7.3690  -26.8240 C   0  0  0  0  0  0  0  0  0  0  0  0
  -11.9530   -7.1860  -26.1710 H   0  0  0  0  0  0  0  0  0  0  0  0
  -10.7230   -8.3840  -26.6460 H   0  0  0  0  0  0  0  0  0  0  0  0
  -11.4530   -7.3250  -27.8580 H   0  0  0  0  0  0  0  0  0  0  0  0
   -9.6690   -6.3100  -25.0640 C   0  0  0  0  0  0  0  0  0  0  0  0
   -8.5280   -5.3910  -24.5750 C   0  0  0  0  0  0  0  0  0  0  0  0
   -7.3750   -5.4620  -25.5960 C   0  0  0  0  0  0  0  0  0  0  0  0
   -7.0620   -6.5020  -25.7560 H   0  0  0  0  0  0  0  0  0  0  0  0
   -6.4860   -4.9050  -25.2900 H   0  0  0  0  0  0  0  0  0  0  0  0
   -7.6800   -5.0600  -26.5680 H   0  0  0  0  0  0  0  0  0  0  0  0
   -9.0200   -3.9280  -24.3640 C   0  0  0  0  0  0  0  0  0  0  0  0
   -8.8650   -3.4460  -22.9150 C   0  0  0  0  0  0  0  0  0  0  0  0
   -7.5190   -3.7080  -22.4100 N   0  0  0  0  0  0  0  0  0  0  0  0
   -6.7380   -2.8340  -21.7130 C   0  0  0  0  0  0  0  0  0  0  0  0
   -5.5830   -3.1000  -21.4200 O   0  0  0  0  0  0  0  0  0  0  0  0
   -7.3930   -1.5160  -21.2880 C   0  0  0  0  0  0  0  0  0  0  0  0
   -6.5960   -0.8260  -20.2320 C   0  0  0  0  0  0  0  0  0  0  0  0
   -6.9420   -1.0030  -18.9200 C   0  0  0  0  0  0  0  0  0  0  0  0
   -6.2840   -0.4690  -17.8630 N   0  0  0  0  0  0  0  0  0  0  0  0
   -5.2240    0.2510  -18.1280 C   0  0  0  0  0  0  0  0  0  0  0  0
   -4.7400    0.5070  -19.4370 C   0  0  0  0  0  0  0  0  0  0  0  0
   -3.6060    1.3250  -19.6680 C   0  0  0  0  0  0  0  0  0  0  0  0
   -3.2000    1.6010  -20.9440 C   0  0  0  0  0  0  0  0  0  0  0  0
   -3.8980    1.0500  -22.0450 C   0  0  0  0  0  0  0  0  0  0  0  0
   -4.9850    0.2300  -21.8480 C   0  0  0  0  0  0  0  0  0  0  0  0
   -5.4470   -0.0460  -20.5320 C   0  0  0  0  0  0  0  0  0  0  0  0
   -5.4930   -0.2090  -22.7010 H   0  0  0  0  0  0  0  0  0  0  0  0
   -3.5760    1.2920  -23.0530 H   0  0  0  0  0  0  0  0  0  0  0  0
   -2.3530    2.2580  -21.1200 H   0  0  0  0  0  0  0  0  0  0  0  0
   -3.0880    1.7470  -18.8100 H   0  0  0  0  0  0  0  0  0  0  0  0
   -4.7030    0.6810  -17.2720 H   0  0  0  0  0  0  0  0  0  0  0  0
   -7.8100   -1.6080  -18.6650 H   0  0  0  0  0  0  0  0  0  0  0  0
   -7.5300   -0.8750  -22.1670 H   0  0  0  0  0  0  0  0  0  0  0  0
   -8.3930   -1.7380  -20.8920 H   0  0  0  0  0  0  0  0  0  0  0  0
   -6.9770   -5.0520  -22.5880 C   0  0  0  0  0  0  0  0  0  0  0  0
   -8.0430   -5.9380  -23.2080 C   0  0  0  0  0  0  0  0  0  0  0  0
   -8.8860   -6.0120  -22.5060 H   0  0  0  0  0  0  0  0  0  0  0  0
   -7.6450   -6.9520  -23.3160 H   0  0  0  0  0  0  0  0  0  0  0  0
   -6.0690   -5.0160  -23.2100 H   0  0  0  0  0  0  0  0  0  0  0  0
   -6.6430   -5.4370  -21.6160 H   0  0  0  0  0  0  0  0  0  0  0  0
   -9.0630   -2.3720  -22.8750 H   0  0  0  0  0  0  0  0  0  0  0  0
   -9.6170   -3.9390  -22.2800 H   0  0  0  0  0  0  0  0  0  0  0  0
  -10.0830   -3.8380  -24.6160 H   0  0  0  0  0  0  0  0  0  0  0  0
   -8.4800   -3.2360  -25.0250 H   0  0  0  0  0  0  0  0  0  0  0  0
  -10.5680   -6.0740  -24.4770 H   0  0  0  0  0  0  0  0  0  0  0  0
   -9.4020   -7.3440  -24.8120 H   0  0  0  0  0  0  0  0  0  0  0  0
   -9.1600   -6.5240  -27.1420 H   0  0  0  0  0  0  0  0  0  0  0  0
   -9.9330   -4.1280  -26.9830 H   0  0  0  0  0  0  0  0  0  0  0  0
  -11.4990   -4.6740  -26.3850 H   0  0  0  0  0  0  0  0  0  0  0  0
  -11.0130   -5.0560  -28.0300 H   0  0  0  0  0  0  0  0  0  0  0  0
  1  2  1  0  0  0  0
  1 50  1  0  0  0  0
  1 51  1  0  0  0  0
  1 52  1  0  0  0  0
  2  3  1  0  0  0  0
  2  7  1  0  0  0  0
  2 49  1  0  0  0  0
  3  4  1  0  0  0  0
  3  5  1  0  0  0  0
  3  6  1  0  0  0  0
  7  8  1  0  0  0  0
  7 47  1  0  0  0  0
  7 48  1  0  0  0  0
  8  9  1  0  0  0  0
  8 13  1  0  0  0  0
  8 38  1  0  0  0  0
  9 10  1  0  0  0  0
  9 11  1  0  0  0  0
  9 12  1  0  0  0  0
 13 14  1  0  0  0  0
 13 45  1  0  0  0  0
 13 46  1  0  0  0  0
 14 15  1  0  0  0  0
 14 43  1  0  0  0  0
 14 44  1  0  0  0  0
 15 16  1  0  0  0  0
 15 37  1  0  0  0  0
 16 17  2  0  0  0  0
 16 18  1  0  0  0  0
 18 19  1  0  0  0  0
 18 35  1  0  0  0  0
 18 36  1  0  0  0  0
 19 20  2  0  0  0  0
 19 28  1  0  0  0  0
 20 21  1  0  0  0  0
 20 34  1  0  0  0  0
 21 22  2  0  0  0  0
 22 23  1  0  0  0  0
 22 33  1  0  0  0  0
 23 24  2  0  0  0  0
 23 28  1  0  0  0  0
 24 25  1  0  0  0  0
 24 32  1  0  0  0  0
 25 26  2  0  0  0  0
 25 31  1  0  0  0  0
 26 27  1  0  0  0  0
 26 30  1  0  0  0  0
 27 28  2  0  0  0  0
 27 29  1  0  0  0  0
 37 38  1  0  0  0  0
 37 41  1  0  0  0  0
 37 42  1  0  0  0  0
 38 39  1  0  0  0  0
 38 40  1  0  0  0  0
M  END
>  <MODEL>
       1

$$$$
