tmp_first_model_20_97.pdb
 OpenBabel08282503553D

 40 43  0  0  1  0  0  0  0  0999 V2000
   -7.2500   -3.9200  -26.5170 C   0  0  0  0  0  0  0  0  0  0  0  0
   -7.2740   -4.1190  -24.9990 C   0  0  2  0  0  0  0  0  0  0  0  0
   -7.9250   -5.4720  -24.6370 C   0  0  0  0  0  0  0  0  0  0  0  0
   -8.7170   -5.3980  -23.4700 O   0  0  0  0  0  0  0  0  0  0  0  0
   -8.0640   -4.6860  -22.4500 C   0  0  0  0  0  0  0  0  0  0  0  0
   -8.0310   -3.1740  -22.7540 C   0  0  1  0  0  0  0  0  0  0  0  0
   -8.0060   -2.9780  -24.2860 C   0  0  0  0  0  0  0  0  0  0  0  0
   -7.5290   -2.0160  -24.5110 H   0  0  0  0  0  0  0  0  0  0  0  0
   -9.0440   -2.9210  -24.6460 H   0  0  0  0  0  0  0  0  0  0  0  0
   -9.1290   -2.4450  -22.1460 N   0  0  0  0  0  0  0  0  0  0  0  0
   -8.7420   -1.3710  -21.3940 C   0  0  0  0  0  0  0  0  0  0  0  0
   -9.4220   -0.4650  -20.9910 O   0  0  0  0  0  0  0  0  0  0  0  0
   -7.3380   -1.5270  -21.2080 N   0  0  0  0  0  0  0  0  0  0  0  0
   -6.5840   -0.8640  -20.1890 C   0  0  0  0  0  0  0  0  0  0  0  0
   -6.9130   -1.0600  -18.8700 C   0  0  0  0  0  0  0  0  0  0  0  0
   -6.2220   -0.5400  -17.8260 N   0  0  0  0  0  0  0  0  0  0  0  0
   -5.1800    0.2040  -18.0980 C   0  0  0  0  0  0  0  0  0  0  0  0
   -4.7450    0.5200  -19.4120 C   0  0  0  0  0  0  0  0  0  0  0  0
   -3.6150    1.3530  -19.6380 C   0  0  0  0  0  0  0  0  0  0  0  0
   -3.2250    1.6580  -20.9120 C   0  0  0  0  0  0  0  0  0  0  0  0
   -3.9550    1.1440  -22.0070 C   0  0  0  0  0  0  0  0  0  0  0  0
   -5.0480    0.3360  -21.8140 C   0  0  0  0  0  0  0  0  0  0  0  0
   -5.4690   -0.0160  -20.5010 C   0  0  0  0  0  0  0  0  0  0  0  0
   -5.6000   -0.0450  -22.6670 H   0  0  0  0  0  0  0  0  0  0  0  0
   -3.6490    1.4000  -23.0160 H   0  0  0  0  0  0  0  0  0  0  0  0
   -2.3700    2.3050  -21.0920 H   0  0  0  0  0  0  0  0  0  0  0  0
   -3.0790    1.7470  -18.7800 H   0  0  0  0  0  0  0  0  0  0  0  0
   -4.6290    0.6040  -17.2490 H   0  0  0  0  0  0  0  0  0  0  0  0
   -7.7600   -1.6840  -18.5980 H   0  0  0  0  0  0  0  0  0  0  0  0
   -6.8350   -2.5220  -22.0470 C   0  0  0  0  0  0  0  0  0  0  0  0
   -5.6720   -2.8040  -22.2190 O   0  0  0  0  0  0  0  0  0  0  0  0
  -10.0960   -2.6220  -22.3690 H   0  0  0  0  0  0  0  0  0  0  0  0
   -7.0340   -5.0520  -22.3010 H   0  0  0  0  0  0  0  0  0  0  0  0
   -8.6530   -4.8230  -21.5430 H   0  0  0  0  0  0  0  0  0  0  0  0
   -8.6130   -5.8090  -25.4220 H   0  0  0  0  0  0  0  0  0  0  0  0
   -7.1340   -6.2330  -24.5090 H   0  0  0  0  0  0  0  0  0  0  0  0
   -6.2400   -4.1260  -24.6200 H   0  0  0  0  0  0  0  0  0  0  0  0
   -6.7270   -4.7440  -27.0200 H   0  0  0  0  0  0  0  0  0  0  0  0
   -8.2740   -3.8740  -26.9170 H   0  0  0  0  0  0  0  0  0  0  0  0
   -6.7470   -2.9820  -26.7840 H   0  0  0  0  0  0  0  0  0  0  0  0
  1  2  1  0  0  0  0
  1 38  1  0  0  0  0
  1 39  1  0  0  0  0
  1 40  1  0  0  0  0
  2  3  1  0  0  0  0
  2  7  1  0  0  0  0
  2 37  1  1  0  0  0
  3  4  1  0  0  0  0
  3 35  1  0  0  0  0
  3 36  1  0  0  0  0
  4  5  1  0  0  0  0
  5  6  1  0  0  0  0
  5 33  1  0  0  0  0
  5 34  1  0  0  0  0
  6  7  1  0  0  0  0
  6 10  1  0  0  0  0
  6 30  1  1  0  0  0
  7  8  1  0  0  0  0
  7  9  1  0  0  0  0
 10 11  1  0  0  0  0
 10 32  1  0  0  0  0
 11 12  2  0  0  0  0
 11 13  1  0  0  0  0
 13 14  1  0  0  0  0
 13 30  1  0  0  0  0
 14 15  2  0  0  0  0
 14 23  1  0  0  0  0
 15 16  1  0  0  0  0
 15 29  1  0  0  0  0
 16 17  2  0  0  0  0
 17 18  1  0  0  0  0
 17 28  1  0  0  0  0
 18 19  2  0  0  0  0
 18 23  1  0  0  0  0
 19 20  1  0  0  0  0
 19 27  1  0  0  0  0
 20 21  2  0  0  0  0
 20 26  1  0  0  0  0
 21 22  1  0  0  0  0
 21 25  1  0  0  0  0
 22 23  2  0  0  0  0
 22 24  1  0  0  0  0
 30 31  2  0  0  0  0
M  END
>  <MODEL>
       1

$$$$
