tmp_first_model_19_97.pdb
 OpenBabel08282503233D

 40 43  0  0  1  0  0  0  0  0999 V2000
  -12.5570   -1.4490  -23.7770 C   0  0  0  0  0  0  0  0  0  0  0  0
  -11.1650   -0.8780  -23.5450 C   0  0  2  0  0  0  0  0  0  0  0  0
  -10.7050   -0.0520  -24.7410 C   0  0  0  0  0  0  0  0  0  0  0  0
   -9.4100    0.4710  -24.5580 O   0  0  0  0  0  0  0  0  0  0  0  0
   -8.4560   -0.5560  -24.4620 C   0  0  0  0  0  0  0  0  0  0  0  0
   -8.7010   -1.4530  -23.2360 C   0  0  1  0  0  0  0  0  0  0  0  0
  -10.1450   -1.9770  -23.2680 C   0  0  0  0  0  0  0  0  0  0  0  0
  -10.3610   -2.4730  -22.3160 H   0  0  0  0  0  0  0  0  0  0  0  0
  -10.2160   -2.7530  -24.0450 H   0  0  0  0  0  0  0  0  0  0  0  0
   -7.7350   -2.5210  -23.1560 N   0  0  0  0  0  0  0  0  0  0  0  0
   -6.9430   -2.5240  -22.0380 C   0  0  0  0  0  0  0  0  0  0  0  0
   -6.0460   -3.2830  -21.7540 O   0  0  0  0  0  0  0  0  0  0  0  0
   -7.3760   -1.4190  -21.2650 N   0  0  0  0  0  0  0  0  0  0  0  0
   -6.5900   -0.8420  -20.2070 C   0  0  0  0  0  0  0  0  0  0  0  0
   -6.8940   -1.0550  -18.8850 C   0  0  0  0  0  0  0  0  0  0  0  0
   -6.1950   -0.5500  -17.8290 N   0  0  0  0  0  0  0  0  0  0  0  0
   -5.1600    0.2200  -18.0710 C   0  0  0  0  0  0  0  0  0  0  0  0
   -4.7240    0.5310  -19.3910 C   0  0  0  0  0  0  0  0  0  0  0  0
   -3.5930    1.3610  -19.6300 C   0  0  0  0  0  0  0  0  0  0  0  0
   -3.2090    1.6490  -20.9140 C   0  0  0  0  0  0  0  0  0  0  0  0
   -3.9290    1.1170  -22.0040 C   0  0  0  0  0  0  0  0  0  0  0  0
   -5.0210    0.3120  -21.7950 C   0  0  0  0  0  0  0  0  0  0  0  0
   -5.4520   -0.0060  -20.4800 C   0  0  0  0  0  0  0  0  0  0  0  0
   -5.5700   -0.0910  -22.6380 H   0  0  0  0  0  0  0  0  0  0  0  0
   -3.6210    1.3480  -23.0180 H   0  0  0  0  0  0  0  0  0  0  0  0
   -2.3530    2.2890  -21.1040 H   0  0  0  0  0  0  0  0  0  0  0  0
   -3.0510    1.7780  -18.7840 H   0  0  0  0  0  0  0  0  0  0  0  0
   -4.6030    0.6270  -17.2190 H   0  0  0  0  0  0  0  0  0  0  0  0
   -7.7410   -1.6760  -18.6100 H   0  0  0  0  0  0  0  0  0  0  0  0
   -8.3870   -0.7060  -21.9370 C   0  0  0  0  0  0  0  0  0  0  0  0
   -8.8820    0.3160  -21.5380 O   0  0  0  0  0  0  0  0  0  0  0  0
   -7.6170   -3.2120  -23.8770 H   0  0  0  0  0  0  0  0  0  0  0  0
   -7.4710   -0.0870  -24.3800 H   0  0  0  0  0  0  0  0  0  0  0  0
   -8.4650   -1.1640  -25.3830 H   0  0  0  0  0  0  0  0  0  0  0  0
  -10.7240   -0.6590  -25.6630 H   0  0  0  0  0  0  0  0  0  0  0  0
  -11.3680    0.8050  -24.8890 H   0  0  0  0  0  0  0  0  0  0  0  0
  -11.1940   -0.2080  -22.6800 H   0  0  0  0  0  0  0  0  0  0  0  0
  -12.8900   -2.0310  -22.9120 H   0  0  0  0  0  0  0  0  0  0  0  0
  -13.2890   -0.6520  -23.9470 H   0  0  0  0  0  0  0  0  0  0  0  0
  -12.5720   -2.1100  -24.6510 H   0  0  0  0  0  0  0  0  0  0  0  0
  1  2  1  0  0  0  0
  1 38  1  0  0  0  0
  1 39  1  0  0  0  0
  1 40  1  0  0  0  0
  2  3  1  0  0  0  0
  2  7  1  0  0  0  0
  2 37  1  1  0  0  0
  3  4  1  0  0  0  0
  3 35  1  0  0  0  0
  3 36  1  0  0  0  0
  4  5  1  0  0  0  0
  5  6  1  0  0  0  0
  5 33  1  0  0  0  0
  5 34  1  0  0  0  0
  6  7  1  0  0  0  0
  6 10  1  0  0  0  0
  6 30  1  1  0  0  0
  7  8  1  0  0  0  0
  7  9  1  0  0  0  0
 10 11  1  0  0  0  0
 10 32  1  0  0  0  0
 11 12  2  0  0  0  0
 11 13  1  0  0  0  0
 13 14  1  0  0  0  0
 13 30  1  0  0  0  0
 14 15  2  0  0  0  0
 14 23  1  0  0  0  0
 15 16  1  0  0  0  0
 15 29  1  0  0  0  0
 16 17  2  0  0  0  0
 17 18  1  0  0  0  0
 17 28  1  0  0  0  0
 18 19  2  0  0  0  0
 18 23  1  0  0  0  0
 19 20  1  0  0  0  0
 19 27  1  0  0  0  0
 20 21  2  0  0  0  0
 20 26  1  0  0  0  0
 21 22  1  0  0  0  0
 21 25  1  0  0  0  0
 22 23  2  0  0  0  0
 22 24  1  0  0  0  0
 30 31  2  0  0  0  0
M  END
>  <MODEL>
       1

$$$$
