tmp_first_model_10_27.pdb
 OpenBabel08272522163D

 58 62  0  0  1  0  0  0  0  0999 V2000
  -15.0130   -3.3060  -23.3210 C   0  0  0  0  0  0  0  0  0  0  0  0
  -13.7290   -2.6110  -23.1160 N   0  3  0  0  0  0  0  0  0  0  0  0
  -13.2240   -2.7310  -21.7190 C   0  0  0  0  0  0  0  0  0  0  0  0
  -12.3240   -3.9620  -21.6030 C   0  0  0  0  0  0  0  0  0  0  0  0
  -11.0310   -3.7670  -22.2690 N   0  0  0  0  0  0  0  0  0  0  0  0
   -9.9400   -3.1990  -21.4950 C   0  0  0  0  0  0  0  0  0  0  0  0
   -8.7380   -2.7030  -22.3360 C   0  0  2  0  0  0  0  0  0  0  0  0
   -7.6020   -2.5230  -21.3330 C   0  0  0  0  0  0  0  0  0  0  0  0
   -7.0020   -3.4090  -20.7490 O   0  0  0  0  0  0  0  0  0  0  0  0
   -7.3740   -1.1770  -21.1470 N   0  0  0  0  0  0  0  0  0  0  0  0
   -6.5630   -0.7220  -20.0920 C   0  0  0  0  0  0  0  0  0  0  0  0
   -6.7510   -1.1500  -18.8020 C   0  0  0  0  0  0  0  0  0  0  0  0
   -6.0500   -0.6830  -17.7400 N   0  0  0  0  0  0  0  0  0  0  0  0
   -5.1260    0.2180  -17.9740 C   0  0  0  0  0  0  0  0  0  0  0  0
   -4.8130    0.7260  -19.2700 C   0  0  0  0  0  0  0  0  0  0  0  0
   -3.7840    1.6800  -19.4970 C   0  0  0  0  0  0  0  0  0  0  0  0
   -3.5420    2.1510  -20.7580 C   0  0  0  0  0  0  0  0  0  0  0  0
   -4.2980    1.6860  -21.8600 C   0  0  0  0  0  0  0  0  0  0  0  0
   -5.2700    0.7370  -21.6700 C   0  0  0  0  0  0  0  0  0  0  0  0
   -5.5620    0.2550  -20.3660 C   0  0  0  0  0  0  0  0  0  0  0  0
   -5.8260    0.3490  -22.5170 H   0  0  0  0  0  0  0  0  0  0  0  0
   -4.1130    2.0790  -22.8580 H   0  0  0  0  0  0  0  0  0  0  0  0
   -2.7710    2.9000  -20.9260 H   0  0  0  0  0  0  0  0  0  0  0  0
   -3.2030    2.0320  -18.6450 H   0  0  0  0  0  0  0  0  0  0  0  0
   -4.5850    0.6010  -17.1080 H   0  0  0  0  0  0  0  0  0  0  0  0
   -7.5040   -1.9030  -18.5840 H   0  0  0  0  0  0  0  0  0  0  0  0
   -8.4060   -0.3520  -21.7600 C   0  0  0  0  0  0  0  0  0  0  0  0
   -8.9360   -1.2400  -22.8870 C   0  0  2  0  0  0  0  0  0  0  0  0
  -10.3170   -0.8000  -23.3650 C   0  0  0  0  0  0  0  0  0  0  0  0
  -11.0450   -0.8010  -22.5480 H   0  0  0  0  0  0  0  0  0  0  0  0
  -10.7070   -1.4410  -24.1630 H   0  0  0  0  0  0  0  0  0  0  0  0
  -10.2670    0.2280  -23.7430 H   0  0  0  0  0  0  0  0  0  0  0  0
   -8.2480   -1.1530  -23.7350 H   0  0  0  0  0  0  0  0  0  0  0  0
   -8.0040    0.6000  -22.1150 H   0  0  0  0  0  0  0  0  0  0  0  0
   -9.2020   -0.1160  -21.0370 H   0  0  0  0  0  0  0  0  0  0  0  0
   -8.4320   -3.7210  -23.4120 C   0  0  0  0  0  0  0  0  0  0  0  0
   -7.1390   -4.1160  -23.7850 C   0  0  0  0  0  0  0  0  0  0  0  0
   -6.9770   -4.8990  -24.9150 C   0  0  0  0  0  0  0  0  0  0  0  0
   -5.7370   -5.2760  -25.2660 F   0  0  0  0  0  0  0  0  0  0  0  0
   -8.0440   -5.3170  -25.6980 C   0  0  0  0  0  0  0  0  0  0  0  0
   -9.3210   -5.0450  -25.2380 C   0  0  0  0  0  0  0  0  0  0  0  0
   -9.5250   -4.2510  -24.1060 C   0  0  0  0  0  0  0  0  0  0  0  0
  -10.9170   -4.0420  -23.5880 C   0  0  0  0  0  0  0  0  0  0  0  0
  -11.9140   -4.1050  -24.3160 O   0  0  0  0  0  0  0  0  0  0  0  0
  -10.1550   -5.5110  -25.7220 H   0  0  0  0  0  0  0  0  0  0  0  0
   -7.8480   -5.8940  -26.5980 H   0  0  0  0  0  0  0  0  0  0  0  0
   -6.2810   -3.8800  -23.1650 H   0  0  0  0  0  0  0  0  0  0  0  0
  -10.3030   -2.3440  -20.9150 H   0  0  0  0  0  0  0  0  0  0  0  0
   -9.5630   -3.9370  -20.7800 H   0  0  0  0  0  0  0  0  0  0  0  0
  -12.8580   -4.7860  -22.0820 H   0  0  0  0  0  0  0  0  0  0  0  0
  -12.1520   -4.2680  -20.5690 H   0  0  0  0  0  0  0  0  0  0  0  0
  -12.6350   -1.8420  -21.4820 H   0  0  0  0  0  0  0  0  0  0  0  0
  -14.0720   -2.7820  -21.0220 H   0  0  0  0  0  0  0  0  0  0  0  0
  -13.8250   -1.6190  -23.3770 H   0  0  0  0  0  0  0  0  0  0  0  0
  -13.0410   -3.0630  -23.7630 H   0  0  0  0  0  0  0  0  0  0  0  0
  -15.4220   -3.0950  -24.3100 H   0  0  0  0  0  0  0  0  0  0  0  0
  -15.7350   -2.9980  -22.5660 H   0  0  0  0  0  0  0  0  0  0  0  0
  -14.8880   -4.3880  -23.2290 H   0  0  0  0  0  0  0  0  0  0  0  0
  1  2  1  0  0  0  0
  1 56  1  0  0  0  0
  1 57  1  0  0  0  0
  1 58  1  0  0  0  0
  2  3  1  0  0  0  0
  2 54  1  0  0  0  0
  2 55  1  0  0  0  0
  3  4  1  0  0  0  0
  3 52  1  0  0  0  0
  3 53  1  0  0  0  0
  4  5  1  0  0  0  0
  4 50  1  0  0  0  0
  4 51  1  0  0  0  0
  5  6  1  0  0  0  0
  5 43  1  0  0  0  0
  6  7  1  0  0  0  0
  6 48  1  0  0  0  0
  6 49  1  0  0  0  0
  7  8  1  1  0  0  0
  7 28  1  0  0  0  0
  7 36  1  0  0  0  0
  8  9  2  0  0  0  0
  8 10  1  0  0  0  0
 10 11  1  0  0  0  0
 10 27  1  0  0  0  0
 11 12  2  0  0  0  0
 11 20  1  0  0  0  0
 12 13  1  0  0  0  0
 12 26  1  0  0  0  0
 13 14  2  0  0  0  0
 14 15  1  0  0  0  0
 14 25  1  0  0  0  0
 15 16  2  0  0  0  0
 15 20  1  0  0  0  0
 16 17  1  0  0  0  0
 16 24  1  0  0  0  0
 17 18  2  0  0  0  0
 17 23  1  0  0  0  0
 18 19  1  0  0  0  0
 18 22  1  0  0  0  0
 19 20  2  0  0  0  0
 19 21  1  0  0  0  0
 27 28  1  0  0  0  0
 27 34  1  0  0  0  0
 27 35  1  0  0  0  0
 28 29  1  0  0  0  0
 28 33  1  6  0  0  0
 29 30  1  0  0  0  0
 29 31  1  0  0  0  0
 29 32  1  0  0  0  0
 36 37  2  0  0  0  0
 36 42  1  0  0  0  0
 37 38  1  0  0  0  0
 37 47  1  0  0  0  0
 38 39  1  0  0  0  0
 38 40  2  0  0  0  0
 40 41  1  0  0  0  0
 40 46  1  0  0  0  0
 41 42  2  0  0  0  0
 41 45  1  0  0  0  0
 42 43  1  0  0  0  0
 43 44  2  0  0  0  0
M  CHG  1   2   1
M  END
>  <MODEL>
       1

$$$$
