tmp_first_model_16_88.pdb
 OpenBabel08282501503D

 40 42  0  0  0  0  0  0  0  0999 V2000
   -8.4150    0.7650  -21.6030 O   0  0  0  0  0  0  0  0  0  0  0  0
   -8.5520   -0.4370  -21.7830 C   0  0  0  0  0  0  0  0  0  0  0  0
   -7.4920   -1.4250  -21.2970 C   0  0  0  0  0  0  0  0  0  0  0  0
   -6.6200   -0.8530  -20.2120 C   0  0  0  0  0  0  0  0  0  0  0  0
   -6.9150   -1.1140  -18.9030 C   0  0  0  0  0  0  0  0  0  0  0  0
   -6.1550   -0.7610  -17.8340 N   0  0  0  0  0  0  0  0  0  0  0  0
   -5.0880   -0.0380  -18.0880 C   0  0  0  0  0  0  0  0  0  0  0  0
   -4.7170    0.4090  -19.3850 C   0  0  0  0  0  0  0  0  0  0  0  0
   -3.6200    1.2820  -19.6040 C   0  0  0  0  0  0  0  0  0  0  0  0
   -3.2460    1.6250  -20.8740 C   0  0  0  0  0  0  0  0  0  0  0  0
   -3.9640    1.1240  -21.9840 C   0  0  0  0  0  0  0  0  0  0  0  0
   -5.0630    0.3240  -21.7970 C   0  0  0  0  0  0  0  0  0  0  0  0
   -5.4830   -0.0400  -20.4910 C   0  0  0  0  0  0  0  0  0  0  0  0
   -5.6240   -0.0300  -22.6570 H   0  0  0  0  0  0  0  0  0  0  0  0
   -3.6330    1.3770  -22.9880 H   0  0  0  0  0  0  0  0  0  0  0  0
   -2.3930    2.2760  -21.0430 H   0  0  0  0  0  0  0  0  0  0  0  0
   -3.0990    1.6920  -18.7390 H   0  0  0  0  0  0  0  0  0  0  0  0
   -4.4510    0.2380  -17.2440 H   0  0  0  0  0  0  0  0  0  0  0  0
   -7.8250   -1.6680  -18.6650 H   0  0  0  0  0  0  0  0  0  0  0  0
   -6.8950   -1.7700  -22.1520 H   0  0  0  0  0  0  0  0  0  0  0  0
   -8.0070   -2.3080  -20.8990 H   0  0  0  0  0  0  0  0  0  0  0  0
   -9.6630   -0.9560  -22.3900 N   0  0  0  0  0  0  0  0  0  0  0  0
  -10.7630   -0.0450  -22.6660 C   0  0  0  0  0  0  0  0  0  0  0  0
  -12.0860   -0.7830  -22.5790 C   0  0  0  0  0  0  0  0  0  0  0  0
  -12.1960   -1.8180  -23.7060 C   0  0  0  0  0  0  0  0  0  0  0  0
  -13.1830   -2.9080  -23.3420 C   0  0  0  0  0  0  0  0  0  0  0  0
  -12.7470   -3.5760  -22.2290 F   0  0  0  0  0  0  0  0  0  0  0  0
  -14.4070   -2.3870  -23.0420 F   0  0  0  0  0  0  0  0  0  0  0  0
  -13.3170   -3.6530  -24.1340 H   0  0  0  0  0  0  0  0  0  0  0  0
  -10.8080   -2.4210  -24.0030 C   0  0  0  0  0  0  0  0  0  0  0  0
   -9.8480   -2.3430  -22.8100 C   0  0  0  0  0  0  0  0  0  0  0  0
   -8.8810   -2.7570  -23.1070 H   0  0  0  0  0  0  0  0  0  0  0  0
  -10.2270   -2.9530  -21.9810 H   0  0  0  0  0  0  0  0  0  0  0  0
  -10.9020   -3.4650  -24.3270 H   0  0  0  0  0  0  0  0  0  0  0  0
  -10.3490   -1.8710  -24.8320 H   0  0  0  0  0  0  0  0  0  0  0  0
  -12.5930   -1.3460  -24.6130 H   0  0  0  0  0  0  0  0  0  0  0  0
  -12.0980   -1.3360  -21.6420 H   0  0  0  0  0  0  0  0  0  0  0  0
  -12.9300   -0.0830  -22.5670 H   0  0  0  0  0  0  0  0  0  0  0  0
  -10.6900    0.7710  -21.9510 H   0  0  0  0  0  0  0  0  0  0  0  0
  -10.6350    0.3900  -23.6640 H   0  0  0  0  0  0  0  0  0  0  0  0
  1  2  2  0  0  0  0
  2  3  1  0  0  0  0
  2 22  1  0  0  0  0
  3  4  1  0  0  0  0
  3 20  1  0  0  0  0
  3 21  1  0  0  0  0
  4  5  2  0  0  0  0
  4 13  1  0  0  0  0
  5  6  1  0  0  0  0
  5 19  1  0  0  0  0
  6  7  2  0  0  0  0
  7  8  1  0  0  0  0
  7 18  1  0  0  0  0
  8  9  2  0  0  0  0
  8 13  1  0  0  0  0
  9 10  1  0  0  0  0
  9 17  1  0  0  0  0
 10 11  2  0  0  0  0
 10 16  1  0  0  0  0
 11 12  1  0  0  0  0
 11 15  1  0  0  0  0
 12 13  2  0  0  0  0
 12 14  1  0  0  0  0
 22 23  1  0  0  0  0
 22 31  1  0  0  0  0
 23 24  1  0  0  0  0
 23 39  1  0  0  0  0
 23 40  1  0  0  0  0
 24 25  1  0  0  0  0
 24 37  1  0  0  0  0
 24 38  1  0  0  0  0
 25 26  1  0  0  0  0
 25 30  1  0  0  0  0
 25 36  1  0  0  0  0
 26 27  1  0  0  0  0
 26 28  1  0  0  0  0
 26 29  1  0  0  0  0
 30 31  1  0  0  0  0
 30 34  1  0  0  0  0
 30 35  1  0  0  0  0
 31 32  1  0  0  0  0
 31 33  1  0  0  0  0
M  END
>  <MODEL>
       1

$$$$
