tmp_first_model_17_76.pdb
 OpenBabel08282502223D

 66 71  0  0  1  0  0  0  0  0999 V2000
   -8.1900   -3.4740  -24.1050 C   0  0  0  0  0  0  0  0  0  0  0  0
   -8.4560   -2.7310  -22.7890 C   0  0  1  0  0  0  0  0  0  0  0  0
   -7.1790   -2.5250  -21.9480 C   0  0  0  0  0  0  0  0  0  0  0  0
   -7.4580   -1.3170  -21.1900 N   0  0  0  0  0  0  0  0  0  0  0  0
   -6.6160   -0.7940  -20.1650 C   0  0  0  0  0  0  0  0  0  0  0  0
   -6.9150   -1.0370  -18.8490 C   0  0  0  0  0  0  0  0  0  0  0  0
   -6.2030   -0.5530  -17.8030 N   0  0  0  0  0  0  0  0  0  0  0  0
   -5.1700    0.2060  -18.0760 C   0  0  0  0  0  0  0  0  0  0  0  0
   -4.7400    0.5380  -19.3920 C   0  0  0  0  0  0  0  0  0  0  0  0
   -3.6240    1.3840  -19.6390 C   0  0  0  0  0  0  0  0  0  0  0  0
   -3.2480    1.6860  -20.9200 C   0  0  0  0  0  0  0  0  0  0  0  0
   -3.9570    1.1450  -22.0130 C   0  0  0  0  0  0  0  0  0  0  0  0
   -5.0350    0.3150  -21.8010 C   0  0  0  0  0  0  0  0  0  0  0  0
   -5.4730    0.0070  -20.4820 C   0  0  0  0  0  0  0  0  0  0  0  0
   -5.5640   -0.1010  -22.6530 H   0  0  0  0  0  0  0  0  0  0  0  0
   -3.6430    1.3860  -23.0250 H   0  0  0  0  0  0  0  0  0  0  0  0
   -2.3970    2.3390  -21.1050 H   0  0  0  0  0  0  0  0  0  0  0  0
   -3.0860    1.7910  -18.7880 H   0  0  0  0  0  0  0  0  0  0  0  0
   -4.6170    0.6100  -17.2260 H   0  0  0  0  0  0  0  0  0  0  0  0
   -7.7690   -1.6610  -18.5930 H   0  0  0  0  0  0  0  0  0  0  0  0
   -8.5310   -0.5950  -21.6570 C   0  0  0  0  0  0  0  0  0  0  0  0
   -8.9150    0.4490  -21.1630 O   0  0  0  0  0  0  0  0  0  0  0  0
   -9.1190   -1.3220  -22.8890 C   0  0  1  0  0  0  0  0  0  0  0  0
   -8.7010   -0.5880  -24.1820 C   0  0  0  0  0  0  0  0  0  0  0  0
   -9.3100    0.7240  -24.2750 N   0  0  0  0  0  0  0  0  0  0  0  0
   -8.5080    1.7870  -24.8530 C   0  0  0  0  0  0  0  0  0  0  0  0
   -7.5610    2.4160  -23.8450 C   0  0  0  0  0  0  0  0  0  0  0  0
   -8.3060    3.2150  -22.8170 N   0  3  0  0  0  0  0  0  0  0  0  0
   -7.5100    3.3120  -21.5620 C   0  0  0  0  0  0  0  0  0  0  0  0
   -6.3710    4.2970  -21.6620 C   0  0  0  0  0  0  0  0  0  0  0  0
   -6.8240    5.5940  -21.9740 O   0  0  0  0  0  0  0  0  0  0  0  0
   -7.4550    5.5910  -23.2310 C   0  0  0  0  0  0  0  0  0  0  0  0
   -8.6580    4.6380  -23.2520 C   0  0  0  0  0  0  0  0  0  0  0  0
   -9.4080    5.0090  -22.5480 H   0  0  0  0  0  0  0  0  0  0  0  0
   -9.0810    4.6010  -24.2580 H   0  0  0  0  0  0  0  0  0  0  0  0
   -6.7250    5.3090  -24.0040 H   0  0  0  0  0  0  0  0  0  0  0  0
   -7.7790    6.6200  -23.4120 H   0  0  0  0  0  0  0  0  0  0  0  0
   -5.9610    4.3640  -20.6760 H   0  0  0  0  0  0  0  0  0  0  0  0
   -5.6060    3.9510  -22.3780 H   0  0  0  0  0  0  0  0  0  0  0  0
   -7.1430    2.3130  -21.3120 H   0  0  0  0  0  0  0  0  0  0  0  0
   -8.1620    3.6570  -20.7610 H   0  0  0  0  0  0  0  0  0  0  0  0
   -9.1680    2.6920  -22.5630 H   0  0  0  0  0  0  0  0  0  0  0  0
   -6.9900    1.6440  -23.3130 H   0  0  0  0  0  0  0  0  0  0  0  0
   -6.8430    3.0610  -24.3550 H   0  0  0  0  0  0  0  0  0  0  0  0
   -7.9220    1.3840  -25.6860 H   0  0  0  0  0  0  0  0  0  0  0  0
   -9.1990    2.5380  -25.2290 H   0  0  0  0  0  0  0  0  0  0  0  0
  -10.6540    0.8890  -24.0900 C   0  0  0  0  0  0  0  0  0  0  0  0
  -11.2350    1.9240  -24.3970 O   0  0  0  0  0  0  0  0  0  0  0  0
  -11.3590   -0.2600  -23.4170 C   0  0  0  0  0  0  0  0  0  0  0  0
  -12.7450   -0.2180  -23.2890 C   0  0  0  0  0  0  0  0  0  0  0  0
  -13.4180   -1.1510  -22.5210 C   0  0  0  0  0  0  0  0  0  0  0  0
  -12.6700   -2.1140  -21.8460 C   0  0  0  0  0  0  0  0  0  0  0  0
  -13.3290   -3.0320  -20.5180 Cl  0  0  0  0  0  0  0  0  0  0  0  0
  -11.3050   -2.2090  -22.0150 C   0  0  0  0  0  0  0  0  0  0  0  0
  -10.6300   -1.3040  -22.8280 C   0  0  0  0  0  0  0  0  0  0  0  0
  -10.7630   -2.9490  -21.4380 H   0  0  0  0  0  0  0  0  0  0  0  0
  -14.4950   -1.1200  -22.4020 H   0  0  0  0  0  0  0  0  0  0  0  0
  -13.2770    0.5950  -23.7660 H   0  0  0  0  0  0  0  0  0  0  0  0
   -7.6130   -0.4550  -24.2010 H   0  0  0  0  0  0  0  0  0  0  0  0
   -8.9960   -1.2070  -25.0470 H   0  0  0  0  0  0  0  0  0  0  0  0
   -6.9770   -3.3670  -21.2750 H   0  0  0  0  0  0  0  0  0  0  0  0
   -6.2960   -2.4090  -22.5960 H   0  0  0  0  0  0  0  0  0  0  0  0
   -9.1390   -3.3390  -22.1940 H   0  0  0  0  0  0  0  0  0  0  0  0
   -9.0980   -3.5770  -24.7110 H   0  0  0  0  0  0  0  0  0  0  0  0
   -7.4460   -2.9450  -24.7120 H   0  0  0  0  0  0  0  0  0  0  0  0
   -7.8010   -4.4830  -23.9180 H   0  0  0  0  0  0  0  0  0  0  0  0
  1  2  1  0  0  0  0
  1 64  1  0  0  0  0
  1 65  1  0  0  0  0
  1 66  1  0  0  0  0
  2  3  1  0  0  0  0
  2 23  1  0  0  0  0
  2 63  1  1  0  0  0
  3  4  1  0  0  0  0
  3 61  1  0  0  0  0
  3 62  1  0  0  0  0
  4  5  1  0  0  0  0
  4 21  1  0  0  0  0
  5  6  2  0  0  0  0
  5 14  1  0  0  0  0
  6  7  1  0  0  0  0
  6 20  1  0  0  0  0
  7  8  2  0  0  0  0
  8  9  1  0  0  0  0
  8 19  1  0  0  0  0
  9 10  2  0  0  0  0
  9 14  1  0  0  0  0
 10 11  1  0  0  0  0
 10 18  1  0  0  0  0
 11 12  2  0  0  0  0
 11 17  1  0  0  0  0
 12 13  1  0  0  0  0
 12 16  1  0  0  0  0
 13 14  2  0  0  0  0
 13 15  1  0  0  0  0
 21 22  2  0  0  0  0
 23 21  1  1  0  0  0
 23 24  1  0  0  0  0
 23 55  1  0  0  0  0
 24 25  1  0  0  0  0
 24 59  1  0  0  0  0
 24 60  1  0  0  0  0
 25 26  1  0  0  0  0
 25 47  1  0  0  0  0
 26 27  1  0  0  0  0
 26 45  1  0  0  0  0
 26 46  1  0  0  0  0
 27 28  1  0  0  0  0
 27 43  1  0  0  0  0
 27 44  1  0  0  0  0
 28 29  1  0  0  0  0
 28 33  1  0  0  0  0
 28 42  1  0  0  0  0
 29 30  1  0  0  0  0
 29 40  1  0  0  0  0
 29 41  1  0  0  0  0
 30 31  1  0  0  0  0
 30 38  1  0  0  0  0
 30 39  1  0  0  0  0
 31 32  1  0  0  0  0
 32 33  1  0  0  0  0
 32 36  1  0  0  0  0
 32 37  1  0  0  0  0
 33 34  1  0  0  0  0
 33 35  1  0  0  0  0
 47 48  2  0  0  0  0
 47 49  1  0  0  0  0
 49 50  2  0  0  0  0
 49 55  1  0  0  0  0
 50 51  1  0  0  0  0
 50 58  1  0  0  0  0
 51 52  2  0  0  0  0
 51 57  1  0  0  0  0
 52 53  1  0  0  0  0
 52 54  1  0  0  0  0
 54 55  2  0  0  0  0
 54 56  1  0  0  0  0
M  CHG  1  28   1
M  END
>  <MODEL>
       1

$$$$
