tmp_first_model_6_86.pdb
 OpenBabel08272519583D

 43 45  0  0  1  0  0  0  0  0999 V2000
  -10.5310   -6.0790  -24.0040 C   0  0  0  0  0  0  0  0  0  0  0  0
   -9.6030   -5.0780  -23.3220 C   0  0  1  0  0  0  0  0  0  0  0  0
   -8.3420   -5.7800  -22.7830 C   0  0  0  0  0  0  0  0  0  0  0  0
   -7.0940   -4.8960  -22.8900 C   0  0  0  0  0  0  0  0  0  0  0  0
   -7.4180   -3.4910  -22.6820 N   0  0  0  0  0  0  0  0  0  0  0  0
   -6.6930   -2.7780  -21.7690 C   0  0  0  0  0  0  0  0  0  0  0  0
   -5.6210   -3.1640  -21.3290 O   0  0  0  0  0  0  0  0  0  0  0  0
   -7.3590   -1.4950  -21.2670 C   0  0  0  0  0  0  0  0  0  0  0  0
   -6.5860   -0.8190  -20.1790 C   0  0  0  0  0  0  0  0  0  0  0  0
   -6.8860   -1.0650  -18.8680 C   0  0  0  0  0  0  0  0  0  0  0  0
   -6.2080   -0.5780  -17.7960 N   0  0  0  0  0  0  0  0  0  0  0  0
   -5.1830    0.2040  -18.0570 C   0  0  0  0  0  0  0  0  0  0  0  0
   -4.7550    0.5450  -19.3680 C   0  0  0  0  0  0  0  0  0  0  0  0
   -3.6250    1.3760  -19.5970 C   0  0  0  0  0  0  0  0  0  0  0  0
   -3.2410    1.6850  -20.8750 C   0  0  0  0  0  0  0  0  0  0  0  0
   -3.9730    1.1930  -21.9770 C   0  0  0  0  0  0  0  0  0  0  0  0
   -5.0530    0.3640  -21.7810 C   0  0  0  0  0  0  0  0  0  0  0  0
   -5.4730    0.0240  -20.4670 C   0  0  0  0  0  0  0  0  0  0  0  0
   -5.5710   -0.0580  -22.6370 H   0  0  0  0  0  0  0  0  0  0  0  0
   -3.6600    1.4390  -22.9910 H   0  0  0  0  0  0  0  0  0  0  0  0
   -2.3670    2.3080  -21.0520 H   0  0  0  0  0  0  0  0  0  0  0  0
   -3.0740    1.7430  -18.7350 H   0  0  0  0  0  0  0  0  0  0  0  0
   -4.6320    0.6080  -17.2070 H   0  0  0  0  0  0  0  0  0  0  0  0
   -7.7380   -1.7030  -18.6230 H   0  0  0  0  0  0  0  0  0  0  0  0
   -8.3440   -1.7910  -20.8810 H   0  0  0  0  0  0  0  0  0  0  0  0
   -7.5400   -0.8330  -22.1210 H   0  0  0  0  0  0  0  0  0  0  0  0
   -8.3690   -2.8780  -23.6080 C   0  0  1  0  0  0  0  0  0  0  0  0
   -7.7420   -2.0410  -24.7320 C   0  0  0  0  0  0  0  0  0  0  0  0
   -7.0770   -2.6490  -25.3570 H   0  0  0  0  0  0  0  0  0  0  0  0
   -8.5600   -1.6850  -25.3690 H   0  0  0  0  0  0  0  0  0  0  0  0
   -7.1690   -1.1690  -24.4090 H   0  0  0  0  0  0  0  0  0  0  0  0
   -9.1960   -3.9690  -24.2760 C   0  0  0  0  0  0  0  0  0  0  0  0
   -8.6300   -4.3940  -25.1120 H   0  0  0  0  0  0  0  0  0  0  0  0
  -10.0390   -3.4780  -24.7520 H   0  0  0  0  0  0  0  0  0  0  0  0
   -9.0520   -2.2420  -23.0260 H   0  0  0  0  0  0  0  0  0  0  0  0
   -6.3210   -5.1580  -22.1660 H   0  0  0  0  0  0  0  0  0  0  0  0
   -6.6610   -5.0030  -23.8900 H   0  0  0  0  0  0  0  0  0  0  0  0
   -8.1590   -6.7020  -23.3520 H   0  0  0  0  0  0  0  0  0  0  0  0
   -8.5260   -6.0920  -21.7510 H   0  0  0  0  0  0  0  0  0  0  0  0
  -10.1440   -4.6170  -22.4860 H   0  0  0  0  0  0  0  0  0  0  0  0
  -11.5240   -5.6530  -24.1730 H   0  0  0  0  0  0  0  0  0  0  0  0
  -10.1280   -6.3670  -24.9820 H   0  0  0  0  0  0  0  0  0  0  0  0
  -10.6500   -6.9930  -23.4160 H   0  0  0  0  0  0  0  0  0  0  0  0
  1  2  1  0  0  0  0
  1 41  1  0  0  0  0
  1 42  1  0  0  0  0
  1 43  1  0  0  0  0
  2  3  1  0  0  0  0
  2 32  1  0  0  0  0
  2 40  1  1  0  0  0
  3  4  1  0  0  0  0
  3 38  1  0  0  0  0
  3 39  1  0  0  0  0
  4  5  1  0  0  0  0
  4 36  1  0  0  0  0
  4 37  1  0  0  0  0
  5  6  1  0  0  0  0
  5 27  1  0  0  0  0
  6  7  2  0  0  0  0
  6  8  1  0  0  0  0
  8  9  1  0  0  0  0
  8 25  1  0  0  0  0
  8 26  1  0  0  0  0
  9 10  2  0  0  0  0
  9 18  1  0  0  0  0
 10 11  1  0  0  0  0
 10 24  1  0  0  0  0
 11 12  2  0  0  0  0
 12 13  1  0  0  0  0
 12 23  1  0  0  0  0
 13 14  2  0  0  0  0
 13 18  1  0  0  0  0
 14 15  1  0  0  0  0
 14 22  1  0  0  0  0
 15 16  2  0  0  0  0
 15 21  1  0  0  0  0
 16 17  1  0  0  0  0
 16 20  1  0  0  0  0
 17 18  2  0  0  0  0
 17 19  1  0  0  0  0
 27 28  1  0  0  0  0
 27 32  1  0  0  0  0
 27 35  1  1  0  0  0
 28 29  1  0  0  0  0
 28 30  1  0  0  0  0
 28 31  1  0  0  0  0
 32 33  1  0  0  0  0
 32 34  1  0  0  0  0
M  END
>  <MODEL>
       1

$$$$
