tmp_first_model_4_32.pdb
 OpenBabel08272518513D

 57 62  0  0  1  0  0  0  0  0999 V2000
   -8.2190   -4.1070  -23.8310 C   0  0  0  0  0  0  0  0  0  0  0  0
   -8.4250   -3.2540  -22.5790 C   0  0  1  0  0  0  0  0  0  0  0  0
   -7.1050   -2.5920  -22.1500 C   0  0  0  0  0  0  0  0  0  0  0  0
   -7.5130   -1.4860  -21.3170 N   0  0  0  0  0  0  0  0  0  0  0  0
   -6.6260   -1.0490  -20.2870 C   0  0  0  0  0  0  0  0  0  0  0  0
   -6.8070   -1.4730  -18.9920 C   0  0  0  0  0  0  0  0  0  0  0  0
   -5.8880   -1.3560  -18.0020 N   0  0  0  0  0  0  0  0  0  0  0  0
   -4.7560   -0.7610  -18.2830 C   0  0  0  0  0  0  0  0  0  0  0  0
   -4.4490   -0.2180  -19.5610 C   0  0  0  0  0  0  0  0  0  0  0  0
   -3.2240    0.4620  -19.8120 C   0  0  0  0  0  0  0  0  0  0  0  0
   -2.9350    0.9360  -21.0610 C   0  0  0  0  0  0  0  0  0  0  0  0
   -3.8720    0.7810  -22.1070 C   0  0  0  0  0  0  0  0  0  0  0  0
   -5.0810    0.1650  -21.8820 C   0  0  0  0  0  0  0  0  0  0  0  0
   -5.3980   -0.3700  -20.6030 C   0  0  0  0  0  0  0  0  0  0  0  0
   -5.8010    0.0990  -22.6930 H   0  0  0  0  0  0  0  0  0  0  0  0
   -3.6400    1.1740  -23.0930 H   0  0  0  0  0  0  0  0  0  0  0  0
   -1.9820    1.4180  -21.2650 H   0  0  0  0  0  0  0  0  0  0  0  0
   -2.5370    0.6240  -18.9870 H   0  0  0  0  0  0  0  0  0  0  0  0
   -4.0110   -0.6840  -17.4880 H   0  0  0  0  0  0  0  0  0  0  0  0
   -7.7290   -1.9750  -18.7130 H   0  0  0  0  0  0  0  0  0  0  0  0
   -8.8260   -1.1070  -21.5430 C   0  0  0  0  0  0  0  0  0  0  0  0
   -9.3970   -0.2010  -20.9810 O   0  0  0  0  0  0  0  0  0  0  0  0
   -9.4270   -2.0490  -22.6630 C   0  0  1  0  0  0  0  0  0  0  0  0
   -9.3020   -1.3990  -24.0670 C   0  0  0  0  0  0  0  0  0  0  0  0
  -10.3150   -0.4030  -24.3750 N   0  0  0  0  0  0  0  0  0  0  0  0
   -9.8710    0.7940  -25.0800 C   0  0  0  0  0  0  0  0  0  0  0  0
   -9.0680    1.6130  -24.1180 C   0  0  0  0  0  0  0  0  0  0  0  0
   -7.7580    1.6990  -24.0590 N   0  0  0  0  0  0  0  0  0  0  0  0
   -7.4820    2.3220  -22.8940 N   0  0  0  0  0  0  0  0  0  0  0  0
   -8.5620    2.6020  -22.2570 N   0  0  0  0  0  0  0  0  0  0  0  0
   -9.5810    2.1630  -23.0060 N   0  0  0  0  0  0  0  0  0  0  0  0
  -10.9430    2.3480  -22.5390 C   0  0  0  0  0  0  0  0  0  0  0  0
  -11.1460    1.6570  -21.7220 H   0  0  0  0  0  0  0  0  0  0  0  0
  -11.6430    2.1810  -23.3580 H   0  0  0  0  0  0  0  0  0  0  0  0
  -11.0500    3.3700  -22.1790 H   0  0  0  0  0  0  0  0  0  0  0  0
  -10.7550    1.3030  -25.4670 H   0  0  0  0  0  0  0  0  0  0  0  0
   -9.2430    0.5140  -25.9300 H   0  0  0  0  0  0  0  0  0  0  0  0
  -11.6320   -0.5510  -24.0540 C   0  0  0  0  0  0  0  0  0  0  0  0
  -12.5190    0.1330  -24.5490 O   0  0  0  0  0  0  0  0  0  0  0  0
  -11.9210   -1.5770  -23.0070 C   0  0  0  0  0  0  0  0  0  0  0  0
  -13.2540   -1.6950  -22.6050 C   0  0  0  0  0  0  0  0  0  0  0  0
  -13.6170   -2.6270  -21.6570 C   0  0  0  0  0  0  0  0  0  0  0  0
  -12.6230   -3.4500  -21.1560 C   0  0  0  0  0  0  0  0  0  0  0  0
  -12.9700   -4.3140  -20.1890 F   0  0  0  0  0  0  0  0  0  0  0  0
  -11.3000   -3.3690  -21.5500 C   0  0  0  0  0  0  0  0  0  0  0  0
  -10.9010   -2.3570  -22.4300 C   0  0  0  0  0  0  0  0  0  0  0  0
  -10.5850   -4.0200  -21.0590 H   0  0  0  0  0  0  0  0  0  0  0  0
  -14.6290   -2.7420  -21.2830 H   0  0  0  0  0  0  0  0  0  0  0  0
  -13.9820   -1.0300  -23.0530 H   0  0  0  0  0  0  0  0  0  0  0  0
   -8.3240   -0.9150  -24.1430 H   0  0  0  0  0  0  0  0  0  0  0  0
   -9.3590   -2.2000  -24.8110 H   0  0  0  0  0  0  0  0  0  0  0  0
   -6.5580   -2.2400  -23.0390 H   0  0  0  0  0  0  0  0  0  0  0  0
   -6.4360   -3.2540  -21.5930 H   0  0  0  0  0  0  0  0  0  0  0  0
   -8.7420   -3.9100  -21.7610 H   0  0  0  0  0  0  0  0  0  0  0  0
   -7.5360   -4.9400  -23.6290 H   0  0  0  0  0  0  0  0  0  0  0  0
   -9.1530   -4.5250  -24.2200 H   0  0  0  0  0  0  0  0  0  0  0  0
   -7.7610   -3.5110  -24.6290 H   0  0  0  0  0  0  0  0  0  0  0  0
  1  2  1  0  0  0  0
  1 55  1  0  0  0  0
  1 56  1  0  0  0  0
  1 57  1  0  0  0  0
  2  3  1  0  0  0  0
  2 23  1  0  0  0  0
  2 54  1  1  0  0  0
  3  4  1  0  0  0  0
  3 52  1  0  0  0  0
  3 53  1  0  0  0  0
  4  5  1  0  0  0  0
  4 21  1  0  0  0  0
  5  6  2  0  0  0  0
  5 14  1  0  0  0  0
  6  7  1  0  0  0  0
  6 20  1  0  0  0  0
  7  8  2  0  0  0  0
  8  9  1  0  0  0  0
  8 19  1  0  0  0  0
  9 10  2  0  0  0  0
  9 14  1  0  0  0  0
 10 11  1  0  0  0  0
 10 18  1  0  0  0  0
 11 12  2  0  0  0  0
 11 17  1  0  0  0  0
 12 13  1  0  0  0  0
 12 16  1  0  0  0  0
 13 14  2  0  0  0  0
 13 15  1  0  0  0  0
 21 22  2  0  0  0  0
 23 21  1  1  0  0  0
 23 24  1  0  0  0  0
 23 46  1  0  0  0  0
 24 25  1  0  0  0  0
 24 50  1  0  0  0  0
 24 51  1  0  0  0  0
 25 26  1  0  0  0  0
 25 38  1  0  0  0  0
 26 27  1  0  0  0  0
 26 36  1  0  0  0  0
 26 37  1  0  0  0  0
 27 28  2  0  0  0  0
 27 31  1  0  0  0  0
 28 29  1  0  0  0  0
 29 30  2  0  0  0  0
 30 31  1  0  0  0  0
 31 32  1  0  0  0  0
 32 33  1  0  0  0  0
 32 34  1  0  0  0  0
 32 35  1  0  0  0  0
 38 39  2  0  0  0  0
 38 40  1  0  0  0  0
 40 41  2  0  0  0  0
 40 46  1  0  0  0  0
 41 42  1  0  0  0  0
 41 49  1  0  0  0  0
 42 43  2  0  0  0  0
 42 48  1  0  0  0  0
 43 44  1  0  0  0  0
 43 45  1  0  0  0  0
 45 46  2  0  0  0  0
 45 47  1  0  0  0  0
M  END
>  <MODEL>
       1

$$$$
