tmp_first_model_13_92.pdb
 OpenBabel08282500103D

 60 65  0  0  1  0  0  0  0  0999 V2000
   -6.7860   -3.4330  -26.0930 C   0  0  0  0  0  0  0  0  0  0  0  0
   -7.0200   -2.8830  -24.8200 O   0  0  0  0  0  0  0  0  0  0  0  0
   -7.9970   -3.5880  -24.0840 C   0  0  0  0  0  0  0  0  0  0  0  0
   -8.3030   -2.8770  -22.7660 C   0  0  1  0  0  0  0  0  0  0  0  0
   -7.0310   -2.5420  -21.9740 C   0  0  0  0  0  0  0  0  0  0  0  0
   -7.3840   -1.3410  -21.2420 N   0  0  0  0  0  0  0  0  0  0  0  0
   -6.5960   -0.7990  -20.1980 C   0  0  0  0  0  0  0  0  0  0  0  0
   -6.9190   -1.0300  -18.8840 C   0  0  0  0  0  0  0  0  0  0  0  0
   -6.2150   -0.5430  -17.8350 N   0  0  0  0  0  0  0  0  0  0  0  0
   -5.1770    0.2110  -18.0940 C   0  0  0  0  0  0  0  0  0  0  0  0
   -4.7340    0.5350  -19.4100 C   0  0  0  0  0  0  0  0  0  0  0  0
   -3.6170    1.3770  -19.6470 C   0  0  0  0  0  0  0  0  0  0  0  0
   -3.2280    1.6630  -20.9260 C   0  0  0  0  0  0  0  0  0  0  0  0
   -3.9170    1.1080  -22.0250 C   0  0  0  0  0  0  0  0  0  0  0  0
   -4.9910    0.2720  -21.8170 C   0  0  0  0  0  0  0  0  0  0  0  0
   -5.4440   -0.0100  -20.5010 C   0  0  0  0  0  0  0  0  0  0  0  0
   -5.5020   -0.1710  -22.6670 H   0  0  0  0  0  0  0  0  0  0  0  0
   -3.5890    1.3420  -23.0330 H   0  0  0  0  0  0  0  0  0  0  0  0
   -2.3750    2.3090  -21.1050 H   0  0  0  0  0  0  0  0  0  0  0  0
   -3.0890    1.7830  -18.7900 H   0  0  0  0  0  0  0  0  0  0  0  0
   -4.6190    0.6070  -17.2450 H   0  0  0  0  0  0  0  0  0  0  0  0
   -7.7850   -1.6420  -18.6400 H   0  0  0  0  0  0  0  0  0  0  0  0
   -8.6070   -0.8030  -21.5750 C   0  0  0  0  0  0  0  0  0  0  0  0
   -9.1470    0.1050  -20.9780 O   0  0  0  0  0  0  0  0  0  0  0  0
   -9.1510   -1.5680  -22.8070 C   0  0  1  0  0  0  0  0  0  0  0  0
   -8.8990   -0.7890  -24.1210 C   0  0  0  0  0  0  0  0  0  0  0  0
   -9.7460    0.3830  -24.2380 N   0  0  0  0  0  0  0  0  0  0  0  0
   -9.1500    1.6120  -24.7450 C   0  0  0  0  0  0  0  0  0  0  0  0
   -8.3470    2.3760  -23.7150 C   0  0  0  0  0  0  0  0  0  0  0  0
   -8.8750    3.2900  -22.7680 C   0  0  0  0  0  0  0  0  0  0  0  0
   -7.9410    3.7690  -21.9470 N   0  0  0  0  0  0  0  0  0  0  0  0
   -6.8150    3.1880  -22.3670 N   0  0  0  0  0  0  0  0  0  0  0  0
   -6.9990    2.3520  -23.4160 C   0  0  0  0  0  0  0  0  0  0  0  0
   -6.1410    1.8130  -23.8000 H   0  0  0  0  0  0  0  0  0  0  0  0
   -5.9310    3.3630  -21.9120 H   0  0  0  0  0  0  0  0  0  0  0  0
   -9.9060    3.6190  -22.6560 H   0  0  0  0  0  0  0  0  0  0  0  0
   -8.5430    1.3500  -25.6180 H   0  0  0  0  0  0  0  0  0  0  0  0
   -9.9780    2.2290  -25.1060 H   0  0  0  0  0  0  0  0  0  0  0  0
  -11.0980    0.3120  -24.0450 C   0  0  0  0  0  0  0  0  0  0  0  0
  -11.8710    1.1610  -24.4720 O   0  0  0  0  0  0  0  0  0  0  0  0
  -11.5640   -0.8590  -23.2390 C   0  0  0  0  0  0  0  0  0  0  0  0
  -12.9360   -0.9920  -23.0310 C   0  0  0  0  0  0  0  0  0  0  0  0
  -13.4280   -1.9750  -22.2000 C   0  0  0  0  0  0  0  0  0  0  0  0
  -12.5160   -2.8150  -21.5700 C   0  0  0  0  0  0  0  0  0  0  0  0
  -13.1220   -3.9980  -20.4590 Cl  0  0  0  0  0  0  0  0  0  0  0  0
  -11.1560   -2.7140  -21.7810 C   0  0  0  0  0  0  0  0  0  0  0  0
  -10.6500   -1.7450  -22.6520 C   0  0  0  0  0  0  0  0  0  0  0  0
  -10.4960   -3.3780  -21.2360 H   0  0  0  0  0  0  0  0  0  0  0  0
  -14.4890   -2.0850  -22.0060 H   0  0  0  0  0  0  0  0  0  0  0  0
  -13.5950   -0.2860  -23.5210 H   0  0  0  0  0  0  0  0  0  0  0  0
   -9.0780   -1.4780  -24.9560 H   0  0  0  0  0  0  0  0  0  0  0  0
   -7.8570   -0.4680  -24.1810 H   0  0  0  0  0  0  0  0  0  0  0  0
   -6.1790   -2.3740  -22.6430 H   0  0  0  0  0  0  0  0  0  0  0  0
   -6.7690   -3.3480  -21.2810 H   0  0  0  0  0  0  0  0  0  0  0  0
   -8.8800   -3.5980  -22.1830 H   0  0  0  0  0  0  0  0  0  0  0  0
   -7.6310   -4.6020  -23.8630 H   0  0  0  0  0  0  0  0  0  0  0  0
   -8.9210   -3.6950  -24.6760 H   0  0  0  0  0  0  0  0  0  0  0  0
   -6.0230   -2.8240  -26.5820 H   0  0  0  0  0  0  0  0  0  0  0  0
   -6.4190   -4.4680  -26.0270 H   0  0  0  0  0  0  0  0  0  0  0  0
   -7.6960   -3.4200  -26.7130 H   0  0  0  0  0  0  0  0  0  0  0  0
  1  2  1  0  0  0  0
  1 58  1  0  0  0  0
  1 59  1  0  0  0  0
  1 60  1  0  0  0  0
  2  3  1  0  0  0  0
  3  4  1  0  0  0  0
  3 56  1  0  0  0  0
  3 57  1  0  0  0  0
  4  5  1  0  0  0  0
  4 25  1  0  0  0  0
  4 55  1  1  0  0  0
  5  6  1  0  0  0  0
  5 53  1  0  0  0  0
  5 54  1  0  0  0  0
  6  7  1  0  0  0  0
  6 23  1  0  0  0  0
  7  8  2  0  0  0  0
  7 16  1  0  0  0  0
  8  9  1  0  0  0  0
  8 22  1  0  0  0  0
  9 10  2  0  0  0  0
 10 11  1  0  0  0  0
 10 21  1  0  0  0  0
 11 12  2  0  0  0  0
 11 16  1  0  0  0  0
 12 13  1  0  0  0  0
 12 20  1  0  0  0  0
 13 14  2  0  0  0  0
 13 19  1  0  0  0  0
 14 15  1  0  0  0  0
 14 18  1  0  0  0  0
 15 16  2  0  0  0  0
 15 17  1  0  0  0  0
 23 24  2  0  0  0  0
 25 23  1  1  0  0  0
 25 26  1  0  0  0  0
 25 47  1  0  0  0  0
 26 27  1  0  0  0  0
 26 51  1  0  0  0  0
 26 52  1  0  0  0  0
 27 28  1  0  0  0  0
 27 39  1  0  0  0  0
 28 29  1  0  0  0  0
 28 37  1  0  0  0  0
 28 38  1  0  0  0  0
 29 30  1  0  0  0  0
 29 33  2  0  0  0  0
 30 31  2  0  0  0  0
 30 36  1  0  0  0  0
 31 32  1  0  0  0  0
 32 33  1  0  0  0  0
 32 35  1  0  0  0  0
 33 34  1  0  0  0  0
 39 40  2  0  0  0  0
 39 41  1  0  0  0  0
 41 42  2  0  0  0  0
 41 47  1  0  0  0  0
 42 43  1  0  0  0  0
 42 50  1  0  0  0  0
 43 44  2  0  0  0  0
 43 49  1  0  0  0  0
 44 45  1  0  0  0  0
 44 46  1  0  0  0  0
 46 47  2  0  0  0  0
 46 48  1  0  0  0  0
M  END
>  <MODEL>
       1

$$$$
