tmp_first_model_2_37.pdb
 OpenBabel08272517383D

 56 60  0  0  1  0  0  0  0  0999 V2000
  -14.4980   -1.5580  -23.7160 C   0  0  0  0  0  0  0  0  0  0  0  0
  -13.7900   -2.7210  -23.2360 N   0  0  0  0  0  0  0  0  0  0  0  0
  -13.3930   -2.7550  -21.9440 C   0  0  0  0  0  0  0  0  0  0  0  0
  -13.7410   -1.9310  -21.1170 O   0  0  0  0  0  0  0  0  0  0  0  0
  -12.4860   -3.9260  -21.6100 C   0  0  0  0  0  0  0  0  0  0  0  0
  -11.1690   -3.8360  -22.2210 N   0  0  0  0  0  0  0  0  0  0  0  0
  -10.0420   -3.3460  -21.4440 C   0  0  0  0  0  0  0  0  0  0  0  0
   -8.8350   -2.9120  -22.3060 C   0  0  2  0  0  0  0  0  0  0  0  0
   -7.6360   -2.7250  -21.3650 C   0  0  0  0  0  0  0  0  0  0  0  0
   -7.0040   -3.6000  -20.8130 O   0  0  0  0  0  0  0  0  0  0  0  0
   -7.3780   -1.3740  -21.2380 N   0  0  0  0  0  0  0  0  0  0  0  0
   -6.5750   -0.8740  -20.1850 C   0  0  0  0  0  0  0  0  0  0  0  0
   -6.8970   -1.1110  -18.8710 C   0  0  0  0  0  0  0  0  0  0  0  0
   -6.2370   -0.5710  -17.8150 N   0  0  0  0  0  0  0  0  0  0  0  0
   -5.2130    0.2060  -18.0820 C   0  0  0  0  0  0  0  0  0  0  0  0
   -4.7580    0.5080  -19.3970 C   0  0  0  0  0  0  0  0  0  0  0  0
   -3.6340    1.3390  -19.6300 C   0  0  0  0  0  0  0  0  0  0  0  0
   -3.2280    1.6050  -20.9110 C   0  0  0  0  0  0  0  0  0  0  0  0
   -3.9260    1.0610  -22.0100 C   0  0  0  0  0  0  0  0  0  0  0  0
   -5.0200    0.2540  -21.8120 C   0  0  0  0  0  0  0  0  0  0  0  0
   -5.4590   -0.0370  -20.4910 C   0  0  0  0  0  0  0  0  0  0  0  0
   -5.5490   -0.1700  -22.6580 H   0  0  0  0  0  0  0  0  0  0  0  0
   -3.5970    1.2890  -23.0210 H   0  0  0  0  0  0  0  0  0  0  0  0
   -2.3700    2.2460  -21.0880 H   0  0  0  0  0  0  0  0  0  0  0  0
   -3.1170    1.7600  -18.7730 H   0  0  0  0  0  0  0  0  0  0  0  0
   -4.6810    0.6370  -17.2340 H   0  0  0  0  0  0  0  0  0  0  0  0
   -7.7390   -1.7560  -18.6230 H   0  0  0  0  0  0  0  0  0  0  0  0
   -8.3700   -0.5350  -21.8970 C   0  0  0  0  0  0  0  0  0  0  0  0
   -9.0130   -1.4800  -22.9210 C   0  0  2  0  0  0  0  0  0  0  0  0
  -10.4530   -1.1230  -23.2660 C   0  0  0  0  0  0  0  0  0  0  0  0
  -10.8760   -1.8900  -23.9220 H   0  0  0  0  0  0  0  0  0  0  0  0
  -10.5280   -0.1560  -23.7680 H   0  0  0  0  0  0  0  0  0  0  0  0
  -11.0670   -1.0920  -22.3590 H   0  0  0  0  0  0  0  0  0  0  0  0
   -8.4040   -1.4630  -23.8380 H   0  0  0  0  0  0  0  0  0  0  0  0
   -9.1140   -0.1630  -21.1730 H   0  0  0  0  0  0  0  0  0  0  0  0
   -7.8940    0.3350  -22.3640 H   0  0  0  0  0  0  0  0  0  0  0  0
   -8.5770   -3.9570  -23.3590 C   0  0  0  0  0  0  0  0  0  0  0  0
   -7.3030   -4.1050  -23.9150 C   0  0  0  0  0  0  0  0  0  0  0  0
   -7.0770   -5.0360  -24.9150 C   0  0  0  0  0  0  0  0  0  0  0  0
   -8.1080   -5.8700  -25.3510 C   0  0  0  0  0  0  0  0  0  0  0  0
   -9.3800   -5.7150  -24.8240 C   0  0  0  0  0  0  0  0  0  0  0  0
   -9.6250   -4.7240  -23.8720 C   0  0  0  0  0  0  0  0  0  0  0  0
  -11.0200   -4.4820  -23.4040 C   0  0  0  0  0  0  0  0  0  0  0  0
  -12.0090   -4.8110  -24.0590 O   0  0  0  0  0  0  0  0  0  0  0  0
  -10.1960   -6.3610  -25.1310 H   0  0  0  0  0  0  0  0  0  0  0  0
   -7.9160   -6.6360  -26.1000 H   0  0  0  0  0  0  0  0  0  0  0  0
   -6.0890   -5.1290  -25.3540 H   0  0  0  0  0  0  0  0  0  0  0  0
   -6.4800   -3.5020  -23.5400 H   0  0  0  0  0  0  0  0  0  0  0  0
  -10.3610   -2.4670  -20.8730 H   0  0  0  0  0  0  0  0  0  0  0  0
   -9.7330   -4.1380  -20.7580 H   0  0  0  0  0  0  0  0  0  0  0  0
  -12.4230   -4.0640  -20.5310 H   0  0  0  0  0  0  0  0  0  0  0  0
  -12.9800   -4.7830  -22.0640 H   0  0  0  0  0  0  0  0  0  0  0  0
  -13.4350   -3.4340  -23.8630 H   0  0  0  0  0  0  0  0  0  0  0  0
  -13.8540   -0.6720  -23.7170 H   0  0  0  0  0  0  0  0  0  0  0  0
  -15.3500   -1.3540  -23.0650 H   0  0  0  0  0  0  0  0  0  0  0  0
  -14.8520   -1.7400  -24.7300 H   0  0  0  0  0  0  0  0  0  0  0  0
  1  2  1  0  0  0  0
  1 54  1  0  0  0  0
  1 55  1  0  0  0  0
  1 56  1  0  0  0  0
  2  3  1  0  0  0  0
  2 53  1  0  0  0  0
  3  4  2  0  0  0  0
  3  5  1  0  0  0  0
  5  6  1  0  0  0  0
  5 51  1  0  0  0  0
  5 52  1  0  0  0  0
  6  7  1  0  0  0  0
  6 43  1  0  0  0  0
  7  8  1  0  0  0  0
  7 49  1  0  0  0  0
  7 50  1  0  0  0  0
  8  9  1  1  0  0  0
  8 29  1  0  0  0  0
  8 37  1  0  0  0  0
  9 10  2  0  0  0  0
  9 11  1  0  0  0  0
 11 12  1  0  0  0  0
 11 28  1  0  0  0  0
 12 13  2  0  0  0  0
 12 21  1  0  0  0  0
 13 14  1  0  0  0  0
 13 27  1  0  0  0  0
 14 15  2  0  0  0  0
 15 16  1  0  0  0  0
 15 26  1  0  0  0  0
 16 17  2  0  0  0  0
 16 21  1  0  0  0  0
 17 18  1  0  0  0  0
 17 25  1  0  0  0  0
 18 19  2  0  0  0  0
 18 24  1  0  0  0  0
 19 20  1  0  0  0  0
 19 23  1  0  0  0  0
 20 21  2  0  0  0  0
 20 22  1  0  0  0  0
 28 29  1  0  0  0  0
 28 35  1  0  0  0  0
 28 36  1  0  0  0  0
 29 30  1  0  0  0  0
 29 34  1  6  0  0  0
 30 31  1  0  0  0  0
 30 32  1  0  0  0  0
 30 33  1  0  0  0  0
 37 38  2  0  0  0  0
 37 42  1  0  0  0  0
 38 39  1  0  0  0  0
 38 48  1  0  0  0  0
 39 40  2  0  0  0  0
 39 47  1  0  0  0  0
 40 41  1  0  0  0  0
 40 46  1  0  0  0  0
 41 42  2  0  0  0  0
 41 45  1  0  0  0  0
 42 43  1  0  0  0  0
 43 44  2  0  0  0  0
M  END
>  <MODEL>
       1

$$$$
