tmp_first_model_11_75.pdb
 OpenBabel08272522543D

 66 71  0  0  1  0  0  0  0  0999 V2000
   -7.4230    3.3120  -21.9290 C   0  0  0  0  0  0  0  0  0  0  0  0
   -8.5080    2.8190  -22.7660 N   0  0  0  0  0  0  0  0  0  0  0  0
   -8.1760    2.0460  -23.8390 C   0  0  0  0  0  0  0  0  0  0  0  0
   -7.0120    1.7650  -24.0930 O   0  0  0  0  0  0  0  0  0  0  0  0
   -9.3320    1.5350  -24.7060 C   0  0  0  0  0  0  0  0  0  0  0  0
   -9.8770    0.3140  -24.1450 N   0  0  0  0  0  0  0  0  0  0  0  0
   -9.0370   -0.8750  -24.0680 C   0  0  0  0  0  0  0  0  0  0  0  0
   -9.2780   -1.6640  -22.7480 C   0  0  2  0  0  0  0  0  0  0  0  0
   -8.6830   -0.8480  -21.5670 C   0  0  0  0  0  0  0  0  0  0  0  0
   -9.1650    0.1360  -21.0460 O   0  0  0  0  0  0  0  0  0  0  0  0
   -7.4670   -1.3980  -21.2130 N   0  0  0  0  0  0  0  0  0  0  0  0
   -6.6610   -0.8190  -20.1960 C   0  0  0  0  0  0  0  0  0  0  0  0
   -6.9700   -1.0450  -18.8770 C   0  0  0  0  0  0  0  0  0  0  0  0
   -6.2600   -0.5670  -17.8260 N   0  0  0  0  0  0  0  0  0  0  0  0
   -5.2110    0.1710  -18.0970 C   0  0  0  0  0  0  0  0  0  0  0  0
   -4.7720    0.4870  -19.4130 C   0  0  0  0  0  0  0  0  0  0  0  0
   -3.6450    1.3200  -19.6440 C   0  0  0  0  0  0  0  0  0  0  0  0
   -3.2570    1.6290  -20.9180 C   0  0  0  0  0  0  0  0  0  0  0  0
   -3.9870    1.1270  -22.0180 C   0  0  0  0  0  0  0  0  0  0  0  0
   -5.0950    0.3330  -21.8230 C   0  0  0  0  0  0  0  0  0  0  0  0
   -5.5140   -0.0190  -20.5100 C   0  0  0  0  0  0  0  0  0  0  0  0
   -5.6800    0.0130  -22.6810 H   0  0  0  0  0  0  0  0  0  0  0  0
   -3.6820    1.3890  -23.0270 H   0  0  0  0  0  0  0  0  0  0  0  0
   -2.4010    2.2760  -21.0890 H   0  0  0  0  0  0  0  0  0  0  0  0
   -3.1210    1.7230  -18.7810 H   0  0  0  0  0  0  0  0  0  0  0  0
   -4.6490    0.5680  -17.2500 H   0  0  0  0  0  0  0  0  0  0  0  0
   -7.8370   -1.6530  -18.6290 H   0  0  0  0  0  0  0  0  0  0  0  0
   -7.0930   -2.5540  -22.0060 C   0  0  0  0  0  0  0  0  0  0  0  0
   -8.4220   -2.9560  -22.6560 C   0  0  2  0  0  0  0  0  0  0  0  0
   -8.2030   -3.7290  -23.9430 C   0  0  0  0  0  0  0  0  0  0  0  0
   -9.4510   -4.1450  -24.5290 N   0  0  0  0  0  0  0  0  0  0  0  0
   -9.4810   -4.9380  -25.6420 C   0  0  0  0  0  0  0  0  0  0  0  0
   -8.3300   -5.0910  -26.4580 C   0  0  0  0  0  0  0  0  0  0  0  0
   -8.3800   -5.7490  -27.6020 N   0  0  0  0  0  0  0  0  0  0  0  0
   -9.5490   -6.3120  -27.9330 C   0  0  0  0  0  0  0  0  0  0  0  0
  -10.6500   -6.2290  -27.0960 C   0  0  0  0  0  0  0  0  0  0  0  0
  -10.6360   -5.5300  -25.9580 N   0  0  0  0  0  0  0  0  0  0  0  0
  -11.5800   -6.7240  -27.3850 H   0  0  0  0  0  0  0  0  0  0  0  0
   -9.6170   -6.8090  -28.8980 H   0  0  0  0  0  0  0  0  0  0  0  0
   -7.3670   -4.6530  -26.1750 H   0  0  0  0  0  0  0  0  0  0  0  0
  -10.3060   -4.1320  -23.9900 H   0  0  0  0  0  0  0  0  0  0  0  0
   -7.5560   -4.6010  -23.7630 H   0  0  0  0  0  0  0  0  0  0  0  0
   -7.6690   -3.0870  -24.6580 H   0  0  0  0  0  0  0  0  0  0  0  0
   -8.9310   -3.6120  -21.9480 H   0  0  0  0  0  0  0  0  0  0  0  0
   -6.3320   -2.2960  -22.7590 H   0  0  0  0  0  0  0  0  0  0  0  0
   -6.6770   -3.3570  -21.3840 H   0  0  0  0  0  0  0  0  0  0  0  0
  -10.7800   -1.8780  -22.6000 C   0  0  0  0  0  0  0  0  0  0  0  0
  -11.3340   -2.8730  -21.7750 C   0  0  0  0  0  0  0  0  0  0  0  0
  -12.6980   -2.8790  -21.5130 C   0  0  0  0  0  0  0  0  0  0  0  0
  -13.3600   -3.8840  -20.2690 Cl  0  0  0  0  0  0  0  0  0  0  0  0
  -13.5800   -2.0200  -22.1640 C   0  0  0  0  0  0  0  0  0  0  0  0
  -13.0510   -1.0890  -23.0240 C   0  0  0  0  0  0  0  0  0  0  0  0
  -11.6750   -0.9700  -23.1830 C   0  0  0  0  0  0  0  0  0  0  0  0
  -11.2170    0.2480  -23.9100 C   0  0  0  0  0  0  0  0  0  0  0  0
  -12.0050    1.1260  -24.2430 O   0  0  0  0  0  0  0  0  0  0  0  0
  -13.6790   -0.3770  -23.5460 H   0  0  0  0  0  0  0  0  0  0  0  0
  -14.6430   -2.0630  -21.9540 H   0  0  0  0  0  0  0  0  0  0  0  0
  -10.7220   -3.6200  -21.2790 H   0  0  0  0  0  0  0  0  0  0  0  0
   -7.9910   -0.5600  -24.1270 H   0  0  0  0  0  0  0  0  0  0  0  0
   -9.2530   -1.5270  -24.9270 H   0  0  0  0  0  0  0  0  0  0  0  0
  -10.1570    2.2530  -24.7860 H   0  0  0  0  0  0  0  0  0  0  0  0
   -8.9510    1.3610  -25.7200 H   0  0  0  0  0  0  0  0  0  0  0  0
   -9.4190    2.7100  -22.3440 H   0  0  0  0  0  0  0  0  0  0  0  0
   -7.8310    3.9410  -21.1340 H   0  0  0  0  0  0  0  0  0  0  0  0
   -6.8420    2.4800  -21.5070 H   0  0  0  0  0  0  0  0  0  0  0  0
   -6.7430    3.9230  -22.5280 H   0  0  0  0  0  0  0  0  0  0  0  0
  1  2  1  0  0  0  0
  1 64  1  0  0  0  0
  1 65  1  0  0  0  0
  1 66  1  0  0  0  0
  2  3  1  0  0  0  0
  2 63  1  0  0  0  0
  3  4  2  0  0  0  0
  3  5  1  0  0  0  0
  5  6  1  0  0  0  0
  5 61  1  0  0  0  0
  5 62  1  0  0  0  0
  6  7  1  0  0  0  0
  6 54  1  0  0  0  0
  7  8  1  0  0  0  0
  7 59  1  0  0  0  0
  7 60  1  0  0  0  0
  8  9  1  1  0  0  0
  8 29  1  0  0  0  0
  8 47  1  0  0  0  0
  9 10  2  0  0  0  0
  9 11  1  0  0  0  0
 11 12  1  0  0  0  0
 11 28  1  0  0  0  0
 12 13  2  0  0  0  0
 12 21  1  0  0  0  0
 13 14  1  0  0  0  0
 13 27  1  0  0  0  0
 14 15  2  0  0  0  0
 15 16  1  0  0  0  0
 15 26  1  0  0  0  0
 16 17  2  0  0  0  0
 16 21  1  0  0  0  0
 17 18  1  0  0  0  0
 17 25  1  0  0  0  0
 18 19  2  0  0  0  0
 18 24  1  0  0  0  0
 19 20  1  0  0  0  0
 19 23  1  0  0  0  0
 20 21  2  0  0  0  0
 20 22  1  0  0  0  0
 28 29  1  0  0  0  0
 28 45  1  0  0  0  0
 28 46  1  0  0  0  0
 29 30  1  0  0  0  0
 29 44  1  1  0  0  0
 30 31  1  0  0  0  0
 30 42  1  0  0  0  0
 30 43  1  0  0  0  0
 31 32  1  0  0  0  0
 31 41  1  0  0  0  0
 32 33  2  0  0  0  0
 32 37  1  0  0  0  0
 33 34  1  0  0  0  0
 33 40  1  0  0  0  0
 34 35  2  0  0  0  0
 35 36  1  0  0  0  0
 35 39  1  0  0  0  0
 36 37  2  0  0  0  0
 36 38  1  0  0  0  0
 47 48  2  0  0  0  0
 47 53  1  0  0  0  0
 48 49  1  0  0  0  0
 48 58  1  0  0  0  0
 49 50  1  0  0  0  0
 49 51  2  0  0  0  0
 51 52  1  0  0  0  0
 51 57  1  0  0  0  0
 52 53  2  0  0  0  0
 52 56  1  0  0  0  0
 53 54  1  0  0  0  0
 54 55  2  0  0  0  0
M  END
>  <MODEL>
       1

$$$$
