tmp_first_model_17_82.pdb
 OpenBabel08282502223D

 54 57  0  0  1  0  0  0  0  0999 V2000
  -10.7330    0.3840  -25.3970 C   0  0  0  0  0  0  0  0  0  0  0  0
   -9.8360   -0.6010  -24.9280 O   0  0  0  0  0  0  0  0  0  0  0  0
   -8.5010   -0.5200  -25.2210 C   0  0  0  0  0  0  0  0  0  0  0  0
   -7.9450    0.5090  -25.9870 C   0  0  0  0  0  0  0  0  0  0  0  0
   -6.5730    0.5270  -26.2380 C   0  0  0  0  0  0  0  0  0  0  0  0
   -5.7490   -0.4650  -25.7280 C   0  0  0  0  0  0  0  0  0  0  0  0
   -6.3160   -1.4730  -24.9550 C   0  0  0  0  0  0  0  0  0  0  0  0
   -7.6790   -1.5420  -24.6900 C   0  0  0  0  0  0  0  0  0  0  0  0
   -8.2980   -2.6710  -23.8510 C   0  0  1  0  0  0  0  0  0  0  0  0
   -9.1400   -3.6540  -24.6920 C   0  0  0  0  0  0  0  0  0  0  0  0
   -8.4100   -4.8640  -25.2730 C   0  0  1  0  0  0  0  0  0  0  0  0
   -7.5080   -4.5370  -26.4630 C   0  0  0  0  0  0  0  0  0  0  0  0
   -6.6820   -3.8740  -26.1900 H   0  0  0  0  0  0  0  0  0  0  0  0
   -7.0750   -5.4500  -26.8900 H   0  0  0  0  0  0  0  0  0  0  0  0
   -8.0710   -4.0320  -27.2550 H   0  0  0  0  0  0  0  0  0  0  0  0
   -7.6720   -5.5500  -24.1300 C   0  0  0  0  0  0  0  0  0  0  0  0
   -6.7090   -4.6180  -23.4100 C   0  0  0  0  0  0  0  0  0  0  0  0
   -7.3470   -3.3680  -22.9710 N   0  0  0  0  0  0  0  0  0  0  0  0
   -6.7450   -2.7420  -21.8860 C   0  0  0  0  0  0  0  0  0  0  0  0
   -5.7260   -3.1930  -21.3920 O   0  0  0  0  0  0  0  0  0  0  0  0
   -7.4030   -1.4750  -21.2810 C   0  0  0  0  0  0  0  0  0  0  0  0
   -6.5760   -0.8360  -20.1840 C   0  0  0  0  0  0  0  0  0  0  0  0
   -6.8730   -1.0480  -18.8630 C   0  0  0  0  0  0  0  0  0  0  0  0
   -6.1930   -0.5390  -17.7980 N   0  0  0  0  0  0  0  0  0  0  0  0
   -5.1590    0.2210  -18.0650 C   0  0  0  0  0  0  0  0  0  0  0  0
   -4.7220    0.5290  -19.3800 C   0  0  0  0  0  0  0  0  0  0  0  0
   -3.5970    1.3580  -19.6220 C   0  0  0  0  0  0  0  0  0  0  0  0
   -3.2030    1.6410  -20.8990 C   0  0  0  0  0  0  0  0  0  0  0  0
   -3.9170    1.0990  -21.9920 C   0  0  0  0  0  0  0  0  0  0  0  0
   -5.0070    0.2890  -21.7900 C   0  0  0  0  0  0  0  0  0  0  0  0
   -5.4460   -0.0150  -20.4760 C   0  0  0  0  0  0  0  0  0  0  0  0
   -5.5410   -0.1220  -22.6450 H   0  0  0  0  0  0  0  0  0  0  0  0
   -3.5840    1.3190  -23.0020 H   0  0  0  0  0  0  0  0  0  0  0  0
   -2.3340    2.2690  -21.0880 H   0  0  0  0  0  0  0  0  0  0  0  0
   -3.0550    1.7700  -18.7720 H   0  0  0  0  0  0  0  0  0  0  0  0
   -4.6040    0.6270  -17.2150 H   0  0  0  0  0  0  0  0  0  0  0  0
   -7.7210   -1.6720  -18.5850 H   0  0  0  0  0  0  0  0  0  0  0  0
   -7.6270   -0.7400  -22.0670 H   0  0  0  0  0  0  0  0  0  0  0  0
   -8.3730   -1.7760  -20.8620 H   0  0  0  0  0  0  0  0  0  0  0  0
   -6.3150   -5.1110  -22.5200 H   0  0  0  0  0  0  0  0  0  0  0  0
   -5.8300   -4.4360  -24.0460 H   0  0  0  0  0  0  0  0  0  0  0  0
   -8.4010   -5.9320  -23.4090 H   0  0  0  0  0  0  0  0  0  0  0  0
   -7.1260   -6.4210  -24.5080 H   0  0  0  0  0  0  0  0  0  0  0  0
   -9.1800   -5.5580  -25.6450 H   0  0  0  0  0  0  0  0  0  0  0  0
   -9.6130   -3.0900  -25.4960 H   0  0  0  0  0  0  0  0  0  0  0  0
   -9.9590   -4.0200  -24.0610 H   0  0  0  0  0  0  0  0  0  0  0  0
   -9.0170   -2.1800  -23.1890 H   0  0  0  0  0  0  0  0  0  0  0  0
   -5.6680   -2.2500  -24.5670 H   0  0  0  0  0  0  0  0  0  0  0  0
   -4.6760   -0.4610  -25.9160 H   0  0  0  0  0  0  0  0  0  0  0  0
   -6.1410    1.3280  -26.8290 H   0  0  0  0  0  0  0  0  0  0  0  0
   -8.5710    1.3010  -26.3900 H   0  0  0  0  0  0  0  0  0  0  0  0
  -11.7130    0.0930  -25.0250 H   0  0  0  0  0  0  0  0  0  0  0  0
  -10.7940    0.4360  -26.4910 H   0  0  0  0  0  0  0  0  0  0  0  0
  -10.5200    1.3870  -25.0090 H   0  0  0  0  0  0  0  0  0  0  0  0
  1  2  1  0  0  0  0
  1 52  1  0  0  0  0
  1 53  1  0  0  0  0
  1 54  1  0  0  0  0
  2  3  1  0  0  0  0
  3  4  2  0  0  0  0
  3  8  1  0  0  0  0
  4  5  1  0  0  0  0
  4 51  1  0  0  0  0
  5  6  2  0  0  0  0
  5 50  1  0  0  0  0
  6  7  1  0  0  0  0
  6 49  1  0  0  0  0
  7  8  2  0  0  0  0
  7 48  1  0  0  0  0
  8  9  1  0  0  0  0
  9 10  1  0  0  0  0
  9 18  1  0  0  0  0
  9 47  1  1  0  0  0
 10 11  1  0  0  0  0
 10 45  1  0  0  0  0
 10 46  1  0  0  0  0
 11 12  1  0  0  0  0
 11 16  1  0  0  0  0
 11 44  1  6  0  0  0
 12 13  1  0  0  0  0
 12 14  1  0  0  0  0
 12 15  1  0  0  0  0
 16 17  1  0  0  0  0
 16 42  1  0  0  0  0
 16 43  1  0  0  0  0
 17 18  1  0  0  0  0
 17 40  1  0  0  0  0
 17 41  1  0  0  0  0
 18 19  1  0  0  0  0
 19 20  2  0  0  0  0
 19 21  1  0  0  0  0
 21 22  1  0  0  0  0
 21 38  1  0  0  0  0
 21 39  1  0  0  0  0
 22 23  2  0  0  0  0
 22 31  1  0  0  0  0
 23 24  1  0  0  0  0
 23 37  1  0  0  0  0
 24 25  2  0  0  0  0
 25 26  1  0  0  0  0
 25 36  1  0  0  0  0
 26 27  2  0  0  0  0
 26 31  1  0  0  0  0
 27 28  1  0  0  0  0
 27 35  1  0  0  0  0
 28 29  2  0  0  0  0
 28 34  1  0  0  0  0
 29 30  1  0  0  0  0
 29 33  1  0  0  0  0
 30 31  2  0  0  0  0
 30 32  1  0  0  0  0
M  END
>  <MODEL>
       1

$$$$
