tmp_first_model_7_78.pdb
 OpenBabel08272520323D

 56 60  0  0  1  0  0  0  0  0999 V2000
  -14.4760   -0.4460  -22.7020 C   0  0  0  0  0  0  0  0  0  0  0  0
  -13.5440   -1.3750  -22.0760 N   0  0  0  0  0  0  0  0  0  0  0  0
  -13.4470   -2.6460  -22.5800 C   0  0  0  0  0  0  0  0  0  0  0  0
  -14.1250   -2.9860  -23.5360 O   0  0  0  0  0  0  0  0  0  0  0  0
  -12.4940   -3.6070  -21.8340 C   0  0  0  0  0  0  0  0  0  0  0  0
  -11.1140   -3.6320  -22.3360 N   0  0  0  0  0  0  0  0  0  0  0  0
  -10.0120   -3.0740  -21.5640 C   0  0  0  0  0  0  0  0  0  0  0  0
   -8.7670   -2.6950  -22.4190 C   0  0  2  0  0  0  0  0  0  0  0  0
   -7.6040   -2.5560  -21.4210 C   0  0  0  0  0  0  0  0  0  0  0  0
   -7.0060   -3.4550  -20.8580 O   0  0  0  0  0  0  0  0  0  0  0  0
   -7.3410   -1.2200  -21.2240 N   0  0  0  0  0  0  0  0  0  0  0  0
   -6.5180   -0.7870  -20.1640 C   0  0  0  0  0  0  0  0  0  0  0  0
   -6.7940   -1.1130  -18.8620 C   0  0  0  0  0  0  0  0  0  0  0  0
   -6.1190   -0.5980  -17.8050 N   0  0  0  0  0  0  0  0  0  0  0  0
   -5.1280    0.2230  -18.0510 C   0  0  0  0  0  0  0  0  0  0  0  0
   -4.6890    0.5760  -19.3610 C   0  0  0  0  0  0  0  0  0  0  0  0
   -3.5710    1.4160  -19.6110 C   0  0  0  0  0  0  0  0  0  0  0  0
   -3.1990    1.7120  -20.8930 C   0  0  0  0  0  0  0  0  0  0  0  0
   -3.9080    1.1790  -21.9900 C   0  0  0  0  0  0  0  0  0  0  0  0
   -4.9860    0.3560  -21.7780 C   0  0  0  0  0  0  0  0  0  0  0  0
   -5.4050    0.0550  -20.4570 C   0  0  0  0  0  0  0  0  0  0  0  0
   -5.5170   -0.0880  -22.6130 H   0  0  0  0  0  0  0  0  0  0  0  0
   -3.6070    1.4230  -23.0030 H   0  0  0  0  0  0  0  0  0  0  0  0
   -2.3540    2.3700  -21.0800 H   0  0  0  0  0  0  0  0  0  0  0  0
   -3.0270    1.8280  -18.7670 H   0  0  0  0  0  0  0  0  0  0  0  0
   -4.6110    0.6390  -17.1850 H   0  0  0  0  0  0  0  0  0  0  0  0
   -7.5970   -1.8080  -18.6230 H   0  0  0  0  0  0  0  0  0  0  0  0
   -8.3230   -0.3560  -21.8590 C   0  0  0  0  0  0  0  0  0  0  0  0
   -8.8620   -1.2380  -22.9980 C   0  0  2  0  0  0  0  0  0  0  0  0
  -10.2270   -0.8010  -23.5150 C   0  0  0  0  0  0  0  0  0  0  0  0
  -10.1630    0.1850  -23.9900 H   0  0  0  0  0  0  0  0  0  0  0  0
  -10.6070   -1.5180  -24.2470 H   0  0  0  0  0  0  0  0  0  0  0  0
  -10.9740   -0.7410  -22.7180 H   0  0  0  0  0  0  0  0  0  0  0  0
   -8.1450   -1.1890  -23.8330 H   0  0  0  0  0  0  0  0  0  0  0  0
   -9.1210   -0.0700  -21.1470 H   0  0  0  0  0  0  0  0  0  0  0  0
   -7.8520    0.5650  -22.2110 H   0  0  0  0  0  0  0  0  0  0  0  0
   -8.4770   -3.7770  -23.4440 C   0  0  0  0  0  0  0  0  0  0  0  0
   -7.1950   -3.9630  -23.9940 C   0  0  0  0  0  0  0  0  0  0  0  0
   -6.9720   -4.9580  -24.9360 C   0  0  0  0  0  0  0  0  0  0  0  0
   -5.3820   -5.1900  -25.6110 Cl  0  0  0  0  0  0  0  0  0  0  0  0
   -7.9910   -5.8070  -25.3680 C   0  0  0  0  0  0  0  0  0  0  0  0
   -9.2490   -5.6310  -24.8290 C   0  0  0  0  0  0  0  0  0  0  0  0
   -9.4840   -4.6400  -23.8710 C   0  0  0  0  0  0  0  0  0  0  0  0
  -10.8530   -4.5720  -23.2950 C   0  0  0  0  0  0  0  0  0  0  0  0
  -11.7130   -5.3420  -23.6730 O   0  0  0  0  0  0  0  0  0  0  0  0
  -10.0780   -6.2680  -25.1230 H   0  0  0  0  0  0  0  0  0  0  0  0
   -7.7820   -6.5840  -26.1000 H   0  0  0  0  0  0  0  0  0  0  0  0
   -6.3500   -3.3660  -23.6650 H   0  0  0  0  0  0  0  0  0  0  0  0
   -9.6490   -3.7860  -20.8090 H   0  0  0  0  0  0  0  0  0  0  0  0
  -10.3900   -2.1750  -21.0670 H   0  0  0  0  0  0  0  0  0  0  0  0
  -12.5050   -3.3910  -20.7590 H   0  0  0  0  0  0  0  0  0  0  0  0
  -12.9220   -4.6000  -22.0010 H   0  0  0  0  0  0  0  0  0  0  0  0
  -13.2960   -1.2040  -21.1130 H   0  0  0  0  0  0  0  0  0  0  0  0
  -15.5210   -0.7730  -22.6270 H   0  0  0  0  0  0  0  0  0  0  0  0
  -14.3710    0.5310  -22.2290 H   0  0  0  0  0  0  0  0  0  0  0  0
  -14.2400   -0.3270  -23.7640 H   0  0  0  0  0  0  0  0  0  0  0  0
  1  2  1  0  0  0  0
  1 54  1  0  0  0  0
  1 55  1  0  0  0  0
  1 56  1  0  0  0  0
  2  3  1  0  0  0  0
  2 53  1  0  0  0  0
  3  4  2  0  0  0  0
  3  5  1  0  0  0  0
  5  6  1  0  0  0  0
  5 51  1  0  0  0  0
  5 52  1  0  0  0  0
  6  7  1  0  0  0  0
  6 44  1  0  0  0  0
  7  8  1  0  0  0  0
  7 49  1  0  0  0  0
  7 50  1  0  0  0  0
  8  9  1  1  0  0  0
  8 29  1  0  0  0  0
  8 37  1  0  0  0  0
  9 10  2  0  0  0  0
  9 11  1  0  0  0  0
 11 12  1  0  0  0  0
 11 28  1  0  0  0  0
 12 13  2  0  0  0  0
 12 21  1  0  0  0  0
 13 14  1  0  0  0  0
 13 27  1  0  0  0  0
 14 15  2  0  0  0  0
 15 16  1  0  0  0  0
 15 26  1  0  0  0  0
 16 17  2  0  0  0  0
 16 21  1  0  0  0  0
 17 18  1  0  0  0  0
 17 25  1  0  0  0  0
 18 19  2  0  0  0  0
 18 24  1  0  0  0  0
 19 20  1  0  0  0  0
 19 23  1  0  0  0  0
 20 21  2  0  0  0  0
 20 22  1  0  0  0  0
 28 29  1  0  0  0  0
 28 35  1  0  0  0  0
 28 36  1  0  0  0  0
 29 30  1  0  0  0  0
 29 34  1  6  0  0  0
 30 31  1  0  0  0  0
 30 32  1  0  0  0  0
 30 33  1  0  0  0  0
 37 38  2  0  0  0  0
 37 43  1  0  0  0  0
 38 39  1  0  0  0  0
 38 48  1  0  0  0  0
 39 40  1  0  0  0  0
 39 41  2  0  0  0  0
 41 42  1  0  0  0  0
 41 47  1  0  0  0  0
 42 43  2  0  0  0  0
 42 46  1  0  0  0  0
 43 44  1  0  0  0  0
 44 45  2  0  0  0  0
M  END
>  <MODEL>
       1

$$$$
