tmp_first_model_11_54.pdb
 OpenBabel08272522543D

 40 43  0  0  0  0  0  0  0  0999 V2000
  -10.2840   -2.6050  -22.7800 C   0  0  0  0  0  0  0  0  0  0  0  0
   -8.9420   -2.1800  -22.4520 N   0  0  0  0  0  0  0  0  0  0  0  0
   -7.7490   -2.7020  -22.8670 C   0  0  0  0  0  0  0  0  0  0  0  0
   -7.6130   -3.5840  -24.0530 C   0  0  0  0  0  0  0  0  0  0  0  0
   -7.7600   -5.0450  -23.6740 C   0  0  0  0  0  0  0  0  0  0  0  0
   -8.8210   -5.8210  -24.1400 C   0  0  0  0  0  0  0  0  0  0  0  0
   -8.8530   -7.1890  -23.8780 C   0  0  0  0  0  0  0  0  0  0  0  0
   -7.8340   -7.7730  -23.1280 C   0  0  0  0  0  0  0  0  0  0  0  0
   -6.8370   -6.9860  -22.5580 C   0  0  0  0  0  0  0  0  0  0  0  0
   -6.8010   -5.6200  -22.8400 C   0  0  0  0  0  0  0  0  0  0  0  0
   -6.0140   -4.9880  -22.4380 H   0  0  0  0  0  0  0  0  0  0  0  0
   -6.0960   -7.4280  -21.8940 H   0  0  0  0  0  0  0  0  0  0  0  0
   -7.8130   -8.8470  -22.9710 H   0  0  0  0  0  0  0  0  0  0  0  0
   -9.6660   -7.7920  -24.2900 H   0  0  0  0  0  0  0  0  0  0  0  0
   -9.6400   -5.3470  -24.6860 H   0  0  0  0  0  0  0  0  0  0  0  0
   -8.3500   -3.3020  -24.8160 H   0  0  0  0  0  0  0  0  0  0  0  0
   -6.6250   -3.3740  -24.4860 H   0  0  0  0  0  0  0  0  0  0  0  0
   -6.7580   -2.3000  -22.1300 N   0  0  0  0  0  0  0  0  0  0  0  0
   -7.3150   -1.3970  -21.2720 N   0  0  0  0  0  0  0  0  0  0  0  0
   -6.5850   -0.8240  -20.2180 C   0  0  0  0  0  0  0  0  0  0  0  0
   -6.9380   -1.0560  -18.9100 C   0  0  0  0  0  0  0  0  0  0  0  0
   -6.2540   -0.5640  -17.8520 N   0  0  0  0  0  0  0  0  0  0  0  0
   -5.2060    0.1800  -18.1110 C   0  0  0  0  0  0  0  0  0  0  0  0
   -4.7550    0.4990  -19.4200 C   0  0  0  0  0  0  0  0  0  0  0  0
   -3.6290    1.3280  -19.6370 C   0  0  0  0  0  0  0  0  0  0  0  0
   -3.2410    1.6430  -20.9080 C   0  0  0  0  0  0  0  0  0  0  0  0
   -3.9520    1.1430  -22.0220 C   0  0  0  0  0  0  0  0  0  0  0  0
   -5.0390    0.3290  -21.8430 C   0  0  0  0  0  0  0  0  0  0  0  0
   -5.4620   -0.0150  -20.5270 C   0  0  0  0  0  0  0  0  0  0  0  0
   -5.5770   -0.0700  -22.6970 H   0  0  0  0  0  0  0  0  0  0  0  0
   -3.6470    1.4220  -23.0260 H   0  0  0  0  0  0  0  0  0  0  0  0
   -2.3960    2.3030  -21.0720 H   0  0  0  0  0  0  0  0  0  0  0  0
   -3.1130    1.7250  -18.7690 H   0  0  0  0  0  0  0  0  0  0  0  0
   -4.6570    0.5860  -17.2610 H   0  0  0  0  0  0  0  0  0  0  0  0
   -7.7980   -1.6760  -18.6700 H   0  0  0  0  0  0  0  0  0  0  0  0
   -8.6610   -1.2090  -21.5010 C   0  0  0  0  0  0  0  0  0  0  0  0
   -9.3940   -0.3780  -21.0170 O   0  0  0  0  0  0  0  0  0  0  0  0
  -10.5010   -3.5960  -22.3680 H   0  0  0  0  0  0  0  0  0  0  0  0
  -10.9760   -1.8830  -22.3470 H   0  0  0  0  0  0  0  0  0  0  0  0
  -10.4090   -2.6190  -23.8640 H   0  0  0  0  0  0  0  0  0  0  0  0
  1  2  1  0  0  0  0
  1 38  1  0  0  0  0
  1 39  1  0  0  0  0
  1 40  1  0  0  0  0
  2  3  1  0  0  0  0
  2 36  1  0  0  0  0
  3  4  1  0  0  0  0
  3 18  2  0  0  0  0
  4  5  1  0  0  0  0
  4 16  1  0  0  0  0
  4 17  1  0  0  0  0
  5  6  2  0  0  0  0
  5 10  1  0  0  0  0
  6  7  1  0  0  0  0
  6 15  1  0  0  0  0
  7  8  2  0  0  0  0
  7 14  1  0  0  0  0
  8  9  1  0  0  0  0
  8 13  1  0  0  0  0
  9 10  2  0  0  0  0
  9 12  1  0  0  0  0
 10 11  1  0  0  0  0
 18 19  1  0  0  0  0
 19 20  1  0  0  0  0
 19 36  1  0  0  0  0
 20 21  2  0  0  0  0
 20 29  1  0  0  0  0
 21 22  1  0  0  0  0
 21 35  1  0  0  0  0
 22 23  2  0  0  0  0
 23 24  1  0  0  0  0
 23 34  1  0  0  0  0
 24 25  2  0  0  0  0
 24 29  1  0  0  0  0
 25 26  1  0  0  0  0
 25 33  1  0  0  0  0
 26 27  2  0  0  0  0
 26 32  1  0  0  0  0
 27 28  1  0  0  0  0
 27 31  1  0  0  0  0
 28 29  2  0  0  0  0
 28 30  1  0  0  0  0
 36 37  2  0  0  0  0
M  END
>  <MODEL>
       1

$$$$
