tmp_first_model_8_69.pdb
 OpenBabel08272521063D

 63 67  0  0  0  0  0  0  0  0999 V2000
  -12.1350    6.5520  -23.7470 C   0  0  0  0  0  0  0  0  0  0  0  0
  -11.3890    5.4500  -23.7600 C   0  0  0  0  0  0  0  0  0  0  0  0
  -10.6240    5.0430  -24.9750 C   0  0  0  0  0  0  0  0  0  0  0  0
  -10.5710    5.7390  -25.9730 O   0  0  0  0  0  0  0  0  0  0  0  0
   -9.8900    3.8550  -24.8950 N   0  0  0  0  0  0  0  0  0  0  0  0
   -8.5580    3.8810  -25.4950 C   0  0  0  0  0  0  0  0  0  0  0  0
   -7.6040    3.1890  -24.5380 C   0  0  0  0  0  0  0  0  0  0  0  0
   -8.0390    1.7390  -24.3660 C   0  0  0  0  0  0  0  0  0  0  0  0
   -9.5220    1.6000  -24.0630 C   0  0  0  0  0  0  0  0  0  0  0  0
  -10.4080    2.6390  -24.4020 C   0  0  0  0  0  0  0  0  0  0  0  0
  -11.7960    2.4490  -24.2880 C   0  0  0  0  0  0  0  0  0  0  0  0
  -12.2990    1.2680  -23.7730 C   0  0  0  0  0  0  0  0  0  0  0  0
  -11.4270    0.2640  -23.3580 C   0  0  0  0  0  0  0  0  0  0  0  0
  -10.0570    0.4450  -23.4920 C   0  0  0  0  0  0  0  0  0  0  0  0
   -9.1540   -0.6820  -23.0190 N   0  3  0  0  0  0  0  0  0  0  0  0
   -8.3740   -1.3540  -24.2210 C   0  0  0  0  0  0  0  0  0  0  0  0
   -8.4320   -2.8600  -24.1960 C   0  0  0  0  0  0  0  0  0  0  0  0
   -7.2650   -3.6240  -24.1150 C   0  0  0  0  0  0  0  0  0  0  0  0
   -7.3100   -5.0160  -24.1380 C   0  0  0  0  0  0  0  0  0  0  0  0
   -8.5290   -5.6790  -24.2740 C   0  0  0  0  0  0  0  0  0  0  0  0
   -9.6820   -4.9100  -24.3950 C   0  0  0  0  0  0  0  0  0  0  0  0
  -11.2260   -5.6540  -24.7140 Cl  0  0  0  0  0  0  0  0  0  0  0  0
   -9.6480   -3.5260  -24.3330 C   0  0  0  0  0  0  0  0  0  0  0  0
  -10.5820   -2.9830  -24.4400 H   0  0  0  0  0  0  0  0  0  0  0  0
   -8.5850   -6.7640  -24.3110 H   0  0  0  0  0  0  0  0  0  0  0  0
   -6.3830   -5.5860  -24.0660 H   0  0  0  0  0  0  0  0  0  0  0  0
   -6.3100   -3.1110  -24.0240 H   0  0  0  0  0  0  0  0  0  0  0  0
   -7.3320   -1.0280  -24.2050 H   0  0  0  0  0  0  0  0  0  0  0  0
   -8.8590   -0.9670  -25.1210 H   0  0  0  0  0  0  0  0  0  0  0  0
   -8.3650   -0.3230  -21.7740 C   0  0  0  0  0  0  0  0  0  0  0  0
   -8.5070    0.7430  -21.2370 O   0  0  0  0  0  0  0  0  0  0  0  0
   -7.4330   -1.4140  -21.2420 C   0  0  0  0  0  0  0  0  0  0  0  0
   -6.5500   -0.8610  -20.1600 C   0  0  0  0  0  0  0  0  0  0  0  0
   -6.8670   -1.0530  -18.8420 C   0  0  0  0  0  0  0  0  0  0  0  0
   -6.1890   -0.5380  -17.7840 N   0  0  0  0  0  0  0  0  0  0  0  0
   -5.1560    0.2220  -18.0610 C   0  0  0  0  0  0  0  0  0  0  0  0
   -4.7270    0.5370  -19.3790 C   0  0  0  0  0  0  0  0  0  0  0  0
   -3.6100    1.3760  -19.6200 C   0  0  0  0  0  0  0  0  0  0  0  0
   -3.2330    1.6790  -20.9000 C   0  0  0  0  0  0  0  0  0  0  0  0
   -3.9680    1.1640  -21.9910 C   0  0  0  0  0  0  0  0  0  0  0  0
   -5.0420    0.3320  -21.7850 C   0  0  0  0  0  0  0  0  0  0  0  0
   -5.4500   -0.0080  -20.4660 C   0  0  0  0  0  0  0  0  0  0  0  0
   -5.5740   -0.0800  -22.6400 H   0  0  0  0  0  0  0  0  0  0  0  0
   -3.6400    1.3880  -23.0020 H   0  0  0  0  0  0  0  0  0  0  0  0
   -2.3690    2.3080  -21.0860 H   0  0  0  0  0  0  0  0  0  0  0  0
   -3.0730    1.7750  -18.7650 H   0  0  0  0  0  0  0  0  0  0  0  0
   -4.6040    0.6290  -17.2150 H   0  0  0  0  0  0  0  0  0  0  0  0
   -7.7320   -1.6600  -18.5760 H   0  0  0  0  0  0  0  0  0  0  0  0
   -8.0470   -2.2300  -20.8440 H   0  0  0  0  0  0  0  0  0  0  0  0
   -6.8510   -1.8510  -22.0560 H   0  0  0  0  0  0  0  0  0  0  0  0
   -9.8160   -1.4500  -22.7590 H   0  0  0  0  0  0  0  0  0  0  0  0
  -11.8060   -0.6530  -22.9210 H   0  0  0  0  0  0  0  0  0  0  0  0
  -13.3730    1.1430  -23.6710 H   0  0  0  0  0  0  0  0  0  0  0  0
  -12.4810    3.2300  -24.6050 H   0  0  0  0  0  0  0  0  0  0  0  0
   -7.8060    1.1910  -25.2920 H   0  0  0  0  0  0  0  0  0  0  0  0
   -7.4430    1.2680  -23.5810 H   0  0  0  0  0  0  0  0  0  0  0  0
   -6.5760    3.2360  -24.9150 H   0  0  0  0  0  0  0  0  0  0  0  0
   -7.6240    3.7120  -23.5730 H   0  0  0  0  0  0  0  0  0  0  0  0
   -8.5530    3.3970  -26.4840 H   0  0  0  0  0  0  0  0  0  0  0  0
   -8.2940    4.9300  -25.6500 H   0  0  0  0  0  0  0  0  0  0  0  0
  -11.2600    4.8310  -22.8720 H   0  0  0  0  0  0  0  0  0  0  0  0
  -12.2390    7.1950  -24.6180 H   0  0  0  0  0  0  0  0  0  0  0  0
  -12.6730    6.8530  -22.8550 H   0  0  0  0  0  0  0  0  0  0  0  0
  1  2  2  0  0  0  0
  1 62  1  0  0  0  0
  1 63  1  0  0  0  0
  2  3  1  0  0  0  0
  2 61  1  0  0  0  0
  3  4  2  0  0  0  0
  3  5  1  0  0  0  0
  5  6  1  0  0  0  0
  5 10  1  0  0  0  0
  6  7  1  0  0  0  0
  6 59  1  0  0  0  0
  6 60  1  0  0  0  0
  7  8  1  0  0  0  0
  7 57  1  0  0  0  0
  7 58  1  0  0  0  0
  8  9  1  0  0  0  0
  8 55  1  0  0  0  0
  8 56  1  0  0  0  0
  9 10  2  0  0  0  0
  9 14  1  0  0  0  0
 10 11  1  0  0  0  0
 11 12  2  0  0  0  0
 11 54  1  0  0  0  0
 12 13  1  0  0  0  0
 12 53  1  0  0  0  0
 13 14  2  0  0  0  0
 13 52  1  0  0  0  0
 14 15  1  0  0  0  0
 15 16  1  0  0  0  0
 15 30  1  0  0  0  0
 15 51  1  0  0  0  0
 16 17  1  0  0  0  0
 16 28  1  0  0  0  0
 16 29  1  0  0  0  0
 17 18  2  0  0  0  0
 17 23  1  0  0  0  0
 18 19  1  0  0  0  0
 18 27  1  0  0  0  0
 19 20  2  0  0  0  0
 19 26  1  0  0  0  0
 20 21  1  0  0  0  0
 20 25  1  0  0  0  0
 21 22  1  0  0  0  0
 21 23  2  0  0  0  0
 23 24  1  0  0  0  0
 30 31  2  0  0  0  0
 30 32  1  0  0  0  0
 32 33  1  0  0  0  0
 32 49  1  0  0  0  0
 32 50  1  0  0  0  0
 33 34  2  0  0  0  0
 33 42  1  0  0  0  0
 34 35  1  0  0  0  0
 34 48  1  0  0  0  0
 35 36  2  0  0  0  0
 36 37  1  0  0  0  0
 36 47  1  0  0  0  0
 37 38  2  0  0  0  0
 37 42  1  0  0  0  0
 38 39  1  0  0  0  0
 38 46  1  0  0  0  0
 39 40  2  0  0  0  0
 39 45  1  0  0  0  0
 40 41  1  0  0  0  0
 40 44  1  0  0  0  0
 41 42  2  0  0  0  0
 41 43  1  0  0  0  0
M  CHG  1  15   1
M  END
>  <MODEL>
       1

$$$$
