tmp_first_model_19_73.pdb
 OpenBabel08282503233D

 50 53  0  0  1  0  0  0  0  0999 V2000
   -8.7480    0.5470  -21.3580 O   0  0  0  0  0  0  0  0  0  0  0  0
   -8.3210   -0.4070  -21.9810 C   0  0  0  0  0  0  0  0  0  0  0  0
   -7.4120   -1.4440  -21.2860 C   0  0  0  0  0  0  0  0  0  0  0  0
   -6.5740   -0.8330  -20.1840 C   0  0  0  0  0  0  0  0  0  0  0  0
   -6.8790   -1.0410  -18.8650 C   0  0  0  0  0  0  0  0  0  0  0  0
   -6.1910   -0.5410  -17.8020 N   0  0  0  0  0  0  0  0  0  0  0  0
   -5.1570    0.2220  -18.0670 C   0  0  0  0  0  0  0  0  0  0  0  0
   -4.7210    0.5320  -19.3830 C   0  0  0  0  0  0  0  0  0  0  0  0
   -3.5910    1.3550  -19.6260 C   0  0  0  0  0  0  0  0  0  0  0  0
   -3.2020    1.6470  -20.9040 C   0  0  0  0  0  0  0  0  0  0  0  0
   -3.9310    1.1180  -21.9930 C   0  0  0  0  0  0  0  0  0  0  0  0
   -5.0280    0.3180  -21.7920 C   0  0  0  0  0  0  0  0  0  0  0  0
   -5.4510   -0.0010  -20.4750 C   0  0  0  0  0  0  0  0  0  0  0  0
   -5.5770   -0.0700  -22.6450 H   0  0  0  0  0  0  0  0  0  0  0  0
   -3.6180    1.3650  -23.0030 H   0  0  0  0  0  0  0  0  0  0  0  0
   -2.3450    2.2900  -21.0890 H   0  0  0  0  0  0  0  0  0  0  0  0
   -3.0540    1.7690  -18.7750 H   0  0  0  0  0  0  0  0  0  0  0  0
   -4.6040    0.6270  -17.2160 H   0  0  0  0  0  0  0  0  0  0  0  0
   -7.7300   -1.6610  -18.5880 H   0  0  0  0  0  0  0  0  0  0  0  0
   -8.0680   -2.2060  -20.8420 H   0  0  0  0  0  0  0  0  0  0  0  0
   -6.7750   -1.9590  -22.0160 H   0  0  0  0  0  0  0  0  0  0  0  0
   -8.5870   -0.5840  -23.3330 N   0  0  0  0  0  0  0  0  0  0  0  0
   -9.0840    0.5720  -24.0780 C   0  0  0  0  0  0  0  0  0  0  0  0
  -10.5890    0.5070  -24.3000 C   0  0  0  0  0  0  0  0  0  0  0  0
  -10.9760   -0.8070  -24.9730 C   0  0  0  0  0  0  0  0  0  0  0  0
  -10.4090   -1.9990  -24.2000 C   0  0  0  0  0  0  0  0  0  0  0  0
   -8.8930   -1.8830  -23.9400 C   0  0  1  0  0  0  0  0  0  0  0  0
   -8.0690   -2.1560  -25.2110 C   0  0  0  0  0  0  0  0  0  0  0  0
   -6.5800   -2.1030  -24.9800 C   0  0  0  0  0  0  0  0  0  0  0  0
   -5.8350   -0.9860  -25.3560 C   0  0  0  0  0  0  0  0  0  0  0  0
   -4.4700   -0.9250  -25.1110 C   0  0  0  0  0  0  0  0  0  0  0  0
   -3.8280   -1.9810  -24.4720 C   0  0  0  0  0  0  0  0  0  0  0  0
   -4.5610   -3.0950  -24.0740 C   0  0  0  0  0  0  0  0  0  0  0  0
   -5.9270   -3.1540  -24.3320 C   0  0  0  0  0  0  0  0  0  0  0  0
   -6.4980   -4.0250  -24.0170 H   0  0  0  0  0  0  0  0  0  0  0  0
   -4.0690   -3.9250  -23.5760 H   0  0  0  0  0  0  0  0  0  0  0  0
   -2.7590   -1.9310  -24.3100 H   0  0  0  0  0  0  0  0  0  0  0  0
   -3.9000   -0.0530  -25.4240 H   0  0  0  0  0  0  0  0  0  0  0  0
   -6.3300   -0.1530  -25.8480 H   0  0  0  0  0  0  0  0  0  0  0  0
   -8.3390   -3.1530  -25.5820 H   0  0  0  0  0  0  0  0  0  0  0  0
   -8.3540   -1.4520  -25.9970 H   0  0  0  0  0  0  0  0  0  0  0  0
   -8.6200   -2.6460  -23.2090 H   0  0  0  0  0  0  0  0  0  0  0  0
  -10.9200   -2.0820  -23.2350 H   0  0  0  0  0  0  0  0  0  0  0  0
  -10.6160   -2.9330  -24.7360 H   0  0  0  0  0  0  0  0  0  0  0  0
  -10.6030   -0.8230  -26.0060 H   0  0  0  0  0  0  0  0  0  0  0  0
  -12.0660   -0.8920  -25.0420 H   0  0  0  0  0  0  0  0  0  0  0  0
  -10.9220    1.3600  -24.9050 H   0  0  0  0  0  0  0  0  0  0  0  0
  -11.0810    0.5980  -23.3270 H   0  0  0  0  0  0  0  0  0  0  0  0
   -8.8050    1.4720  -23.5320 H   0  0  0  0  0  0  0  0  0  0  0  0
   -8.5770    0.6170  -25.0500 H   0  0  0  0  0  0  0  0  0  0  0  0
  1  2  2  0  0  0  0
  2  3  1  0  0  0  0
  2 22  1  0  0  0  0
  3  4  1  0  0  0  0
  3 20  1  0  0  0  0
  3 21  1  0  0  0  0
  4  5  2  0  0  0  0
  4 13  1  0  0  0  0
  5  6  1  0  0  0  0
  5 19  1  0  0  0  0
  6  7  2  0  0  0  0
  7  8  1  0  0  0  0
  7 18  1  0  0  0  0
  8  9  2  0  0  0  0
  8 13  1  0  0  0  0
  9 10  1  0  0  0  0
  9 17  1  0  0  0  0
 10 11  2  0  0  0  0
 10 16  1  0  0  0  0
 11 12  1  0  0  0  0
 11 15  1  0  0  0  0
 12 13  2  0  0  0  0
 12 14  1  0  0  0  0
 22 23  1  0  0  0  0
 22 27  1  0  0  0  0
 23 24  1  0  0  0  0
 23 49  1  0  0  0  0
 23 50  1  0  0  0  0
 24 25  1  0  0  0  0
 24 47  1  0  0  0  0
 24 48  1  0  0  0  0
 25 26  1  0  0  0  0
 25 45  1  0  0  0  0
 25 46  1  0  0  0  0
 26 27  1  0  0  0  0
 26 43  1  0  0  0  0
 26 44  1  0  0  0  0
 27 28  1  0  0  0  0
 27 42  1  1  0  0  0
 28 29  1  0  0  0  0
 28 40  1  0  0  0  0
 28 41  1  0  0  0  0
 29 30  2  0  0  0  0
 29 34  1  0  0  0  0
 30 31  1  0  0  0  0
 30 39  1  0  0  0  0
 31 32  2  0  0  0  0
 31 38  1  0  0  0  0
 32 33  1  0  0  0  0
 32 37  1  0  0  0  0
 33 34  2  0  0  0  0
 33 36  1  0  0  0  0
 34 35  1  0  0  0  0
M  END
>  <MODEL>
       1

$$$$
