tmp_first_model_11_69.pdb
 OpenBabel08272522543D

 63 67  0  0  0  0  0  0  0  0999 V2000
  -15.4910   -5.1860  -24.7800 C   0  0  0  0  0  0  0  0  0  0  0  0
  -14.5530   -4.5760  -24.0610 C   0  0  0  0  0  0  0  0  0  0  0  0
  -13.5440   -3.6610  -24.6810 C   0  0  0  0  0  0  0  0  0  0  0  0
  -13.5640   -3.3710  -25.8620 O   0  0  0  0  0  0  0  0  0  0  0  0
  -12.5780   -3.1700  -23.7980 N   0  0  0  0  0  0  0  0  0  0  0  0
  -12.9950   -2.8040  -22.4510 C   0  0  0  0  0  0  0  0  0  0  0  0
  -12.8340   -1.3130  -22.3190 C   0  0  0  0  0  0  0  0  0  0  0  0
  -11.3530   -1.0200  -22.3650 C   0  0  0  0  0  0  0  0  0  0  0  0
  -10.6660   -1.6630  -23.5490 C   0  0  0  0  0  0  0  0  0  0  0  0
  -11.3230   -2.6900  -24.2580 C   0  0  0  0  0  0  0  0  0  0  0  0
  -10.7160   -3.2600  -25.3860 C   0  0  0  0  0  0  0  0  0  0  0  0
   -9.4620   -2.8360  -25.7890 C   0  0  0  0  0  0  0  0  0  0  0  0
   -8.7860   -1.8380  -25.0880 C   0  0  0  0  0  0  0  0  0  0  0  0
   -9.3850   -1.2870  -23.9610 C   0  0  0  0  0  0  0  0  0  0  0  0
   -8.5860   -0.1850  -23.2170 N   0  3  0  0  0  0  0  0  0  0  0  0
   -8.9550    1.2850  -23.6110 C   0  0  0  0  0  0  0  0  0  0  0  0
   -7.8050    2.2210  -23.2950 C   0  0  0  0  0  0  0  0  0  0  0  0
   -7.7860    2.8790  -22.0650 C   0  0  0  0  0  0  0  0  0  0  0  0
   -6.8570    3.8720  -21.8090 C   0  0  0  0  0  0  0  0  0  0  0  0
   -5.8530    4.1460  -22.7310 C   0  0  0  0  0  0  0  0  0  0  0  0
   -5.7920    3.3940  -23.8970 C   0  0  0  0  0  0  0  0  0  0  0  0
   -4.4290    3.6020  -24.9700 Cl  0  0  0  0  0  0  0  0  0  0  0  0
   -6.7720    2.4580  -24.2040 C   0  0  0  0  0  0  0  0  0  0  0  0
   -6.7400    1.9300  -25.1500 H   0  0  0  0  0  0  0  0  0  0  0  0
   -5.1380    4.9400  -22.5580 H   0  0  0  0  0  0  0  0  0  0  0  0
   -6.9250    4.4410  -20.8860 H   0  0  0  0  0  0  0  0  0  0  0  0
   -8.4920    2.5620  -21.3070 H   0  0  0  0  0  0  0  0  0  0  0  0
   -9.2420    1.2830  -24.6650 H   0  0  0  0  0  0  0  0  0  0  0  0
   -9.8280    1.5500  -23.0100 H   0  0  0  0  0  0  0  0  0  0  0  0
   -8.4690   -0.3130  -21.7400 C   0  0  0  0  0  0  0  0  0  0  0  0
   -9.1590    0.3420  -21.0000 O   0  0  0  0  0  0  0  0  0  0  0  0
   -7.4840   -1.3690  -21.2490 C   0  0  0  0  0  0  0  0  0  0  0  0
   -6.5940   -0.8160  -20.1630 C   0  0  0  0  0  0  0  0  0  0  0  0
   -6.8750   -1.0500  -18.8440 C   0  0  0  0  0  0  0  0  0  0  0  0
   -6.1810   -0.5470  -17.7880 N   0  0  0  0  0  0  0  0  0  0  0  0
   -5.1620    0.2280  -18.0690 C   0  0  0  0  0  0  0  0  0  0  0  0
   -4.7400    0.5480  -19.3880 C   0  0  0  0  0  0  0  0  0  0  0  0
   -3.6170    1.3800  -19.6350 C   0  0  0  0  0  0  0  0  0  0  0  0
   -3.2320    1.6670  -20.9140 C   0  0  0  0  0  0  0  0  0  0  0  0
   -3.9510    1.1310  -22.0070 C   0  0  0  0  0  0  0  0  0  0  0  0
   -5.0520    0.3360  -21.7950 C   0  0  0  0  0  0  0  0  0  0  0  0
   -5.4790    0.0200  -20.4760 C   0  0  0  0  0  0  0  0  0  0  0  0
   -5.5890   -0.0580  -22.6520 H   0  0  0  0  0  0  0  0  0  0  0  0
   -3.6190    1.3510  -23.0210 H   0  0  0  0  0  0  0  0  0  0  0  0
   -2.3750    2.3110  -21.0970 H   0  0  0  0  0  0  0  0  0  0  0  0
   -3.0830    1.7960  -18.7840 H   0  0  0  0  0  0  0  0  0  0  0  0
   -4.5980    0.6390  -17.2290 H   0  0  0  0  0  0  0  0  0  0  0  0
   -7.7130   -1.6940  -18.5710 H   0  0  0  0  0  0  0  0  0  0  0  0
   -6.9040   -1.7720  -22.0840 H   0  0  0  0  0  0  0  0  0  0  0  0
   -8.0950   -2.1950  -20.8610 H   0  0  0  0  0  0  0  0  0  0  0  0
   -7.6260   -0.3270  -23.5890 H   0  0  0  0  0  0  0  0  0  0  0  0
   -7.8100   -1.5030  -25.4330 H   0  0  0  0  0  0  0  0  0  0  0  0
   -8.9970   -3.2840  -26.6640 H   0  0  0  0  0  0  0  0  0  0  0  0
  -11.2250   -4.0370  -25.9460 H   0  0  0  0  0  0  0  0  0  0  0  0
  -11.1850    0.0570  -22.3450 H   0  0  0  0  0  0  0  0  0  0  0  0
  -10.9000   -1.4160  -21.4470 H   0  0  0  0  0  0  0  0  0  0  0  0
  -13.3470   -0.8140  -23.1490 H   0  0  0  0  0  0  0  0  0  0  0  0
  -13.2790   -0.9710  -21.3810 H   0  0  0  0  0  0  0  0  0  0  0  0
  -12.3930   -3.3320  -21.6990 H   0  0  0  0  0  0  0  0  0  0  0  0
  -14.0380   -3.0750  -22.3090 H   0  0  0  0  0  0  0  0  0  0  0  0
  -14.4560   -4.7870  -23.0050 H   0  0  0  0  0  0  0  0  0  0  0  0
  -16.2320   -5.8470  -24.3420 H   0  0  0  0  0  0  0  0  0  0  0  0
  -15.5360   -5.0040  -25.8420 H   0  0  0  0  0  0  0  0  0  0  0  0
  1  2  2  0  0  0  0
  1 62  1  0  0  0  0
  1 63  1  0  0  0  0
  2  3  1  0  0  0  0
  2 61  1  0  0  0  0
  3  4  2  0  0  0  0
  3  5  1  0  0  0  0
  5  6  1  0  0  0  0
  5 10  1  0  0  0  0
  6  7  1  0  0  0  0
  6 59  1  0  0  0  0
  6 60  1  0  0  0  0
  7  8  1  0  0  0  0
  7 57  1  0  0  0  0
  7 58  1  0  0  0  0
  8  9  1  0  0  0  0
  8 55  1  0  0  0  0
  8 56  1  0  0  0  0
  9 10  2  0  0  0  0
  9 14  1  0  0  0  0
 10 11  1  0  0  0  0
 11 12  2  0  0  0  0
 11 54  1  0  0  0  0
 12 13  1  0  0  0  0
 12 53  1  0  0  0  0
 13 14  2  0  0  0  0
 13 52  1  0  0  0  0
 14 15  1  0  0  0  0
 15 16  1  0  0  0  0
 15 30  1  0  0  0  0
 15 51  1  0  0  0  0
 16 17  1  0  0  0  0
 16 28  1  0  0  0  0
 16 29  1  0  0  0  0
 17 18  2  0  0  0  0
 17 23  1  0  0  0  0
 18 19  1  0  0  0  0
 18 27  1  0  0  0  0
 19 20  2  0  0  0  0
 19 26  1  0  0  0  0
 20 21  1  0  0  0  0
 20 25  1  0  0  0  0
 21 22  1  0  0  0  0
 21 23  2  0  0  0  0
 23 24  1  0  0  0  0
 30 31  2  0  0  0  0
 30 32  1  0  0  0  0
 32 33  1  0  0  0  0
 32 49  1  0  0  0  0
 32 50  1  0  0  0  0
 33 34  2  0  0  0  0
 33 42  1  0  0  0  0
 34 35  1  0  0  0  0
 34 48  1  0  0  0  0
 35 36  2  0  0  0  0
 36 37  1  0  0  0  0
 36 47  1  0  0  0  0
 37 38  2  0  0  0  0
 37 42  1  0  0  0  0
 38 39  1  0  0  0  0
 38 46  1  0  0  0  0
 39 40  2  0  0  0  0
 39 45  1  0  0  0  0
 40 41  1  0  0  0  0
 40 44  1  0  0  0  0
 41 42  2  0  0  0  0
 41 43  1  0  0  0  0
M  CHG  1  15   1
M  END
>  <MODEL>
       1

$$$$
