tmp_first_model_19_87.pdb
 OpenBabel08282503233D

 59 64  0  0  1  0  0  0  0  0999 V2000
   -7.8700   -3.6830  -24.0570 C   0  0  0  0  0  0  0  0  0  0  0  0
   -8.2730   -2.8870  -22.8070 C   0  0  1  0  0  0  0  0  0  0  0  0
   -7.0710   -2.6400  -21.8670 C   0  0  0  0  0  0  0  0  0  0  0  0
   -7.4010   -1.3970  -21.2030 N   0  0  0  0  0  0  0  0  0  0  0  0
   -6.6030   -0.8140  -20.1780 C   0  0  0  0  0  0  0  0  0  0  0  0
   -6.9040   -1.0480  -18.8650 C   0  0  0  0  0  0  0  0  0  0  0  0
   -6.1950   -0.5590  -17.8160 N   0  0  0  0  0  0  0  0  0  0  0  0
   -5.1660    0.2040  -18.0830 C   0  0  0  0  0  0  0  0  0  0  0  0
   -4.7300    0.5260  -19.4000 C   0  0  0  0  0  0  0  0  0  0  0  0
   -3.6000    1.3530  -19.6430 C   0  0  0  0  0  0  0  0  0  0  0  0
   -3.2090    1.6410  -20.9190 C   0  0  0  0  0  0  0  0  0  0  0  0
   -3.9250    1.1070  -22.0150 C   0  0  0  0  0  0  0  0  0  0  0  0
   -5.0210    0.3050  -21.8070 C   0  0  0  0  0  0  0  0  0  0  0  0
   -5.4640   -0.0030  -20.4900 C   0  0  0  0  0  0  0  0  0  0  0  0
   -5.5680   -0.0880  -22.6590 H   0  0  0  0  0  0  0  0  0  0  0  0
   -3.6140    1.3440  -23.0270 H   0  0  0  0  0  0  0  0  0  0  0  0
   -2.3580    2.2930  -21.1000 H   0  0  0  0  0  0  0  0  0  0  0  0
   -3.0740    1.7670  -18.7850 H   0  0  0  0  0  0  0  0  0  0  0  0
   -4.6230    0.6150  -17.2300 H   0  0  0  0  0  0  0  0  0  0  0  0
   -7.7560   -1.6710  -18.6030 H   0  0  0  0  0  0  0  0  0  0  0  0
   -8.4270   -0.6910  -21.7910 C   0  0  0  0  0  0  0  0  0  0  0  0
   -8.8510    0.3590  -21.3690 O   0  0  0  0  0  0  0  0  0  0  0  0
   -8.9260   -1.4810  -23.0340 C   0  0  1  0  0  0  0  0  0  0  0  0
   -8.4080   -0.8390  -24.3470 C   0  0  0  0  0  0  0  0  0  0  0  0
   -9.0460    0.4310  -24.6360 N   0  0  0  0  0  0  0  0  0  0  0  0
   -8.2920    1.5160  -25.2430 C   0  0  0  0  0  0  0  0  0  0  0  0
   -8.1790    2.7180  -24.3480 C   0  0  0  0  0  0  0  0  0  0  0  0
   -7.5780    2.8210  -23.1120 C   0  0  0  0  0  0  0  0  0  0  0  0
   -7.7720    4.1590  -22.7220 C   0  0  0  0  0  0  0  0  0  0  0  0
   -8.4160    4.8420  -23.6630 N   0  0  0  0  0  0  0  0  0  0  0  0
   -8.6470    3.9570  -24.6420 N   0  0  0  0  0  0  0  0  0  0  0  0
   -9.2920    4.3950  -25.8680 C   0  0  0  0  0  0  0  0  0  0  0  0
  -10.1870    3.7910  -26.0380 H   0  0  0  0  0  0  0  0  0  0  0  0
   -8.6040    4.2970  -26.7180 H   0  0  0  0  0  0  0  0  0  0  0  0
   -9.5430    5.4490  -25.7230 H   0  0  0  0  0  0  0  0  0  0  0  0
   -7.4850    4.6580  -21.8000 H   0  0  0  0  0  0  0  0  0  0  0  0
   -7.1000    2.0120  -22.5770 H   0  0  0  0  0  0  0  0  0  0  0  0
   -8.7370    1.7740  -26.2100 H   0  0  0  0  0  0  0  0  0  0  0  0
   -7.2880    1.1260  -25.4250 H   0  0  0  0  0  0  0  0  0  0  0  0
  -10.3980    0.5780  -24.5750 C   0  0  0  0  0  0  0  0  0  0  0  0
  -10.9530    1.5420  -25.0910 O   0  0  0  0  0  0  0  0  0  0  0  0
  -11.1370   -0.4870  -23.8100 C   0  0  0  0  0  0  0  0  0  0  0  0
  -12.5330   -0.4560  -23.8050 C   0  0  0  0  0  0  0  0  0  0  0  0
  -13.2540   -1.3220  -23.0060 C   0  0  0  0  0  0  0  0  0  0  0  0
  -12.5550   -2.2000  -22.1870 C   0  0  0  0  0  0  0  0  0  0  0  0
  -13.2490   -3.0030  -21.3640 F   0  0  0  0  0  0  0  0  0  0  0  0
  -11.1780   -2.2660  -22.1820 C   0  0  0  0  0  0  0  0  0  0  0  0
  -10.4450   -1.4450  -23.0500 C   0  0  0  0  0  0  0  0  0  0  0  0
  -10.7090   -2.9400  -21.4730 H   0  0  0  0  0  0  0  0  0  0  0  0
  -14.3360   -1.3200  -22.9750 H   0  0  0  0  0  0  0  0  0  0  0  0
  -13.0270    0.2810  -24.4280 H   0  0  0  0  0  0  0  0  0  0  0  0
   -8.5780   -1.5480  -25.1740 H   0  0  0  0  0  0  0  0  0  0  0  0
   -7.3310   -0.6660  -24.2420 H   0  0  0  0  0  0  0  0  0  0  0  0
   -6.1300   -2.5570  -22.4350 H   0  0  0  0  0  0  0  0  0  0  0  0
   -6.9360   -3.4430  -21.1310 H   0  0  0  0  0  0  0  0  0  0  0  0
   -9.0090   -3.4760  -22.2540 H   0  0  0  0  0  0  0  0  0  0  0  0
   -8.7120   -3.8230  -24.7460 H   0  0  0  0  0  0  0  0  0  0  0  0
   -7.0680   -3.1760  -24.6110 H   0  0  0  0  0  0  0  0  0  0  0  0
   -7.4940   -4.6770  -23.7830 H   0  0  0  0  0  0  0  0  0  0  0  0
  1  2  1  0  0  0  0
  1 57  1  0  0  0  0
  1 58  1  0  0  0  0
  1 59  1  0  0  0  0
  2  3  1  0  0  0  0
  2 23  1  0  0  0  0
  2 56  1  1  0  0  0
  3  4  1  0  0  0  0
  3 54  1  0  0  0  0
  3 55  1  0  0  0  0
  4  5  1  0  0  0  0
  4 21  1  0  0  0  0
  5  6  2  0  0  0  0
  5 14  1  0  0  0  0
  6  7  1  0  0  0  0
  6 20  1  0  0  0  0
  7  8  2  0  0  0  0
  8  9  1  0  0  0  0
  8 19  1  0  0  0  0
  9 10  2  0  0  0  0
  9 14  1  0  0  0  0
 10 11  1  0  0  0  0
 10 18  1  0  0  0  0
 11 12  2  0  0  0  0
 11 17  1  0  0  0  0
 12 13  1  0  0  0  0
 12 16  1  0  0  0  0
 13 14  2  0  0  0  0
 13 15  1  0  0  0  0
 21 22  2  0  0  0  0
 23 21  1  1  0  0  0
 23 24  1  0  0  0  0
 23 48  1  0  0  0  0
 24 25  1  0  0  0  0
 24 52  1  0  0  0  0
 24 53  1  0  0  0  0
 25 26  1  0  0  0  0
 25 40  1  0  0  0  0
 26 27  1  0  0  0  0
 26 38  1  0  0  0  0
 26 39  1  0  0  0  0
 27 28  2  0  0  0  0
 27 31  1  0  0  0  0
 28 29  1  0  0  0  0
 28 37  1  0  0  0  0
 29 30  2  0  0  0  0
 29 36  1  0  0  0  0
 30 31  1  0  0  0  0
 31 32  1  0  0  0  0
 32 33  1  0  0  0  0
 32 34  1  0  0  0  0
 32 35  1  0  0  0  0
 40 41  2  0  0  0  0
 40 42  1  0  0  0  0
 42 43  2  0  0  0  0
 42 48  1  0  0  0  0
 43 44  1  0  0  0  0
 43 51  1  0  0  0  0
 44 45  2  0  0  0  0
 44 50  1  0  0  0  0
 45 46  1  0  0  0  0
 45 47  1  0  0  0  0
 47 48  2  0  0  0  0
 47 49  1  0  0  0  0
M  END
>  <MODEL>
       1

$$$$
