tmp_first_model_9_37.pdb
 OpenBabel08272521403D

 56 60  0  0  1  0  0  0  0  0999 V2000
  -14.4780   -1.5870  -23.7400 C   0  0  0  0  0  0  0  0  0  0  0  0
  -13.7410   -2.7440  -23.2820 N   0  0  0  0  0  0  0  0  0  0  0  0
  -13.3530   -2.7970  -21.9820 C   0  0  0  0  0  0  0  0  0  0  0  0
  -13.7090   -1.9710  -21.1590 O   0  0  0  0  0  0  0  0  0  0  0  0
  -12.4520   -3.9710  -21.6350 C   0  0  0  0  0  0  0  0  0  0  0  0
  -11.1300   -3.8950  -22.2340 N   0  0  0  0  0  0  0  0  0  0  0  0
  -10.0060   -3.3750  -21.4590 C   0  0  0  0  0  0  0  0  0  0  0  0
   -8.8110   -2.9180  -22.3380 C   0  0  2  0  0  0  0  0  0  0  0  0
   -7.5750   -2.7020  -21.4460 C   0  0  0  0  0  0  0  0  0  0  0  0
   -6.8360   -3.5630  -21.0120 O   0  0  0  0  0  0  0  0  0  0  0  0
   -7.4060   -1.3490  -21.2350 N   0  0  0  0  0  0  0  0  0  0  0  0
   -6.5850   -0.8500  -20.1940 C   0  0  0  0  0  0  0  0  0  0  0  0
   -6.8890   -1.1000  -18.8790 C   0  0  0  0  0  0  0  0  0  0  0  0
   -6.2140   -0.5730  -17.8280 N   0  0  0  0  0  0  0  0  0  0  0  0
   -5.1980    0.2100  -18.0920 C   0  0  0  0  0  0  0  0  0  0  0  0
   -4.7540    0.5210  -19.4080 C   0  0  0  0  0  0  0  0  0  0  0  0
   -3.6280    1.3510  -19.6400 C   0  0  0  0  0  0  0  0  0  0  0  0
   -3.2230    1.6190  -20.9180 C   0  0  0  0  0  0  0  0  0  0  0  0
   -3.9260    1.0790  -22.0170 C   0  0  0  0  0  0  0  0  0  0  0  0
   -5.0190    0.2730  -21.8190 C   0  0  0  0  0  0  0  0  0  0  0  0
   -5.4650   -0.0180  -20.5020 C   0  0  0  0  0  0  0  0  0  0  0  0
   -5.5390   -0.1570  -22.6690 H   0  0  0  0  0  0  0  0  0  0  0  0
   -3.5920    1.2980  -23.0270 H   0  0  0  0  0  0  0  0  0  0  0  0
   -2.3640    2.2580  -21.0960 H   0  0  0  0  0  0  0  0  0  0  0  0
   -3.1090    1.7670  -18.7810 H   0  0  0  0  0  0  0  0  0  0  0  0
   -4.6580    0.6330  -17.2430 H   0  0  0  0  0  0  0  0  0  0  0  0
   -7.7310   -1.7430  -18.6310 H   0  0  0  0  0  0  0  0  0  0  0  0
   -8.3970   -0.5250  -21.9070 C   0  0  0  0  0  0  0  0  0  0  0  0
   -9.0220   -1.4800  -22.9370 C   0  0  2  0  0  0  0  0  0  0  0  0
  -10.4650   -1.1340  -23.2710 C   0  0  0  0  0  0  0  0  0  0  0  0
  -10.8880   -1.8970  -23.9300 H   0  0  0  0  0  0  0  0  0  0  0  0
  -10.5420   -0.1640  -23.7650 H   0  0  0  0  0  0  0  0  0  0  0  0
  -11.0720   -1.1050  -22.3590 H   0  0  0  0  0  0  0  0  0  0  0  0
   -8.4130   -1.4440  -23.8530 H   0  0  0  0  0  0  0  0  0  0  0  0
   -9.1500   -0.1550  -21.1920 H   0  0  0  0  0  0  0  0  0  0  0  0
   -7.9270    0.3460  -22.3790 H   0  0  0  0  0  0  0  0  0  0  0  0
   -8.5410   -3.9760  -23.3810 C   0  0  0  0  0  0  0  0  0  0  0  0
   -7.2700   -4.1140  -23.9480 C   0  0  0  0  0  0  0  0  0  0  0  0
   -7.0380   -5.0480  -24.9430 C   0  0  0  0  0  0  0  0  0  0  0  0
   -8.0590   -5.8930  -25.3770 C   0  0  0  0  0  0  0  0  0  0  0  0
   -9.3220   -5.7660  -24.8270 C   0  0  0  0  0  0  0  0  0  0  0  0
   -9.5700   -4.7860  -23.8670 C   0  0  0  0  0  0  0  0  0  0  0  0
  -10.9680   -4.5760  -23.4040 C   0  0  0  0  0  0  0  0  0  0  0  0
  -11.9380   -4.9720  -24.0590 O   0  0  0  0  0  0  0  0  0  0  0  0
  -10.1370   -6.4150  -25.1280 H   0  0  0  0  0  0  0  0  0  0  0  0
   -7.8710   -6.6300  -26.1550 H   0  0  0  0  0  0  0  0  0  0  0  0
   -6.0580   -5.1080  -25.4030 H   0  0  0  0  0  0  0  0  0  0  0  0
   -6.4530   -3.4900  -23.5990 H   0  0  0  0  0  0  0  0  0  0  0  0
  -10.3460   -2.5050  -20.8830 H   0  0  0  0  0  0  0  0  0  0  0  0
   -9.6770   -4.1570  -20.7690 H   0  0  0  0  0  0  0  0  0  0  0  0
  -12.4060   -4.0990  -20.5520 H   0  0  0  0  0  0  0  0  0  0  0  0
  -12.9340   -4.8340  -22.0860 H   0  0  0  0  0  0  0  0  0  0  0  0
  -13.4660   -3.4920  -23.9070 H   0  0  0  0  0  0  0  0  0  0  0  0
  -13.8540   -0.6850  -23.7320 H   0  0  0  0  0  0  0  0  0  0  0  0
  -15.3260   -1.4040  -23.0770 H   0  0  0  0  0  0  0  0  0  0  0  0
  -14.8430   -1.7450  -24.7550 H   0  0  0  0  0  0  0  0  0  0  0  0
  1  2  1  0  0  0  0
  1 54  1  0  0  0  0
  1 55  1  0  0  0  0
  1 56  1  0  0  0  0
  2  3  1  0  0  0  0
  2 53  1  0  0  0  0
  3  4  2  0  0  0  0
  3  5  1  0  0  0  0
  5  6  1  0  0  0  0
  5 51  1  0  0  0  0
  5 52  1  0  0  0  0
  6  7  1  0  0  0  0
  6 43  1  0  0  0  0
  7  8  1  0  0  0  0
  7 49  1  0  0  0  0
  7 50  1  0  0  0  0
  8  9  1  1  0  0  0
  8 29  1  0  0  0  0
  8 37  1  0  0  0  0
  9 10  2  0  0  0  0
  9 11  1  0  0  0  0
 11 12  1  0  0  0  0
 11 28  1  0  0  0  0
 12 13  2  0  0  0  0
 12 21  1  0  0  0  0
 13 14  1  0  0  0  0
 13 27  1  0  0  0  0
 14 15  2  0  0  0  0
 15 16  1  0  0  0  0
 15 26  1  0  0  0  0
 16 17  2  0  0  0  0
 16 21  1  0  0  0  0
 17 18  1  0  0  0  0
 17 25  1  0  0  0  0
 18 19  2  0  0  0  0
 18 24  1  0  0  0  0
 19 20  1  0  0  0  0
 19 23  1  0  0  0  0
 20 21  2  0  0  0  0
 20 22  1  0  0  0  0
 28 29  1  0  0  0  0
 28 35  1  0  0  0  0
 28 36  1  0  0  0  0
 29 30  1  0  0  0  0
 29 34  1  6  0  0  0
 30 31  1  0  0  0  0
 30 32  1  0  0  0  0
 30 33  1  0  0  0  0
 37 38  2  0  0  0  0
 37 42  1  0  0  0  0
 38 39  1  0  0  0  0
 38 48  1  0  0  0  0
 39 40  2  0  0  0  0
 39 47  1  0  0  0  0
 40 41  1  0  0  0  0
 40 46  1  0  0  0  0
 41 42  2  0  0  0  0
 41 45  1  0  0  0  0
 42 43  1  0  0  0  0
 43 44  2  0  0  0  0
M  END
>  <MODEL>
       1

$$$$
