tmp_first_model_14_93.pdb
 OpenBabel08282500413D

 62 67  0  0  1  0  0  0  0  0999 V2000
  -11.1510    3.0550  -22.6770 C   0  0  0  0  0  0  0  0  0  0  0  0
  -10.3750    1.8570  -22.1430 C   0  0  0  0  0  0  0  0  0  0  0  0
   -8.9930    1.8460  -22.6090 N   0  0  0  0  0  0  0  0  0  0  0  0
   -8.0900    2.5760  -21.9430 N   0  0  0  0  0  0  0  0  0  0  0  0
   -6.9560    2.4380  -22.6250 C   0  0  0  0  0  0  0  0  0  0  0  0
   -7.1370    1.6310  -23.7730 C   0  0  0  0  0  0  0  0  0  0  0  0
   -8.4690    1.2800  -23.7290 C   0  0  0  0  0  0  0  0  0  0  0  0
   -9.3900    0.6540  -24.7220 C   0  0  0  0  0  0  0  0  0  0  0  0
  -10.0220   -0.5870  -24.3020 N   0  0  0  0  0  0  0  0  0  0  0  0
   -9.2020   -1.7680  -24.1440 C   0  0  0  0  0  0  0  0  0  0  0  0
   -9.3960   -2.3830  -22.7350 C   0  0  2  0  0  0  0  0  0  0  0  0
   -8.8620   -1.4070  -21.6530 C   0  0  0  0  0  0  0  0  0  0  0  0
   -9.4860   -0.5370  -21.0880 O   0  0  0  0  0  0  0  0  0  0  0  0
   -7.5350   -1.6960  -21.3980 N   0  0  0  0  0  0  0  0  0  0  0  0
   -6.8400   -1.0300  -20.3600 C   0  0  0  0  0  0  0  0  0  0  0  0
   -7.3700   -0.9520  -19.0940 C   0  0  0  0  0  0  0  0  0  0  0  0
   -6.7970   -0.2860  -18.0630 N   0  0  0  0  0  0  0  0  0  0  0  0
   -5.6810    0.3610  -18.3040 C   0  0  0  0  0  0  0  0  0  0  0  0
   -5.0290    0.3800  -19.5700 C   0  0  0  0  0  0  0  0  0  0  0  0
   -3.8590    1.1490  -19.8160 C   0  0  0  0  0  0  0  0  0  0  0  0
   -3.2670    1.1280  -21.0490 C   0  0  0  0  0  0  0  0  0  0  0  0
   -3.7970    0.3340  -22.0900 C   0  0  0  0  0  0  0  0  0  0  0  0
   -4.9370   -0.4060  -21.8810 C   0  0  0  0  0  0  0  0  0  0  0  0
   -5.5930   -0.3800  -20.6220 C   0  0  0  0  0  0  0  0  0  0  0  0
   -5.3660   -0.9770  -22.6970 H   0  0  0  0  0  0  0  0  0  0  0  0
   -3.3240    0.3280  -23.0690 H   0  0  0  0  0  0  0  0  0  0  0  0
   -2.3910    1.7400  -21.2430 H   0  0  0  0  0  0  0  0  0  0  0  0
   -3.4740    1.7860  -19.0220 H   0  0  0  0  0  0  0  0  0  0  0  0
   -5.2380    0.9130  -17.4730 H   0  0  0  0  0  0  0  0  0  0  0  0
   -8.3110   -1.4450  -18.8680 H   0  0  0  0  0  0  0  0  0  0  0  0
   -7.1060   -2.9120  -22.0780 C   0  0  0  0  0  0  0  0  0  0  0  0
   -8.4380   -3.5750  -22.4760 C   0  0  2  0  0  0  0  0  0  0  0  0
   -8.2910   -4.6220  -23.5730 C   0  0  0  0  0  0  0  0  0  0  0  0
   -9.2520   -5.0830  -23.8240 H   0  0  0  0  0  0  0  0  0  0  0  0
   -7.6060   -5.4190  -23.2590 H   0  0  0  0  0  0  0  0  0  0  0  0
   -7.8830   -4.1880  -24.4950 H   0  0  0  0  0  0  0  0  0  0  0  0
   -8.7880   -4.0540  -21.5550 H   0  0  0  0  0  0  0  0  0  0  0  0
   -6.5070   -2.6910  -22.9730 H   0  0  0  0  0  0  0  0  0  0  0  0
   -6.5070   -3.5380  -21.4110 H   0  0  0  0  0  0  0  0  0  0  0  0
  -10.8830   -2.6250  -22.5430 C   0  0  0  0  0  0  0  0  0  0  0  0
  -11.3790   -3.5940  -21.6610 C   0  0  0  0  0  0  0  0  0  0  0  0
  -12.7170   -3.5810  -21.3180 C   0  0  0  0  0  0  0  0  0  0  0  0
  -13.1490   -4.3590  -20.3100 F   0  0  0  0  0  0  0  0  0  0  0  0
  -13.6450   -2.7570  -21.9380 C   0  0  0  0  0  0  0  0  0  0  0  0
  -13.1850   -1.8610  -22.8810 C   0  0  0  0  0  0  0  0  0  0  0  0
  -11.8140   -1.7700  -23.1490 C   0  0  0  0  0  0  0  0  0  0  0  0
  -11.3650   -0.6560  -24.0430 C   0  0  0  0  0  0  0  0  0  0  0  0
  -12.1870    0.1710  -24.4020 O   0  0  0  0  0  0  0  0  0  0  0  0
  -13.8630   -1.1950  -23.4070 H   0  0  0  0  0  0  0  0  0  0  0  0
  -14.6850   -2.8190  -21.6400 H   0  0  0  0  0  0  0  0  0  0  0  0
  -10.7510   -4.3260  -21.1720 H   0  0  0  0  0  0  0  0  0  0  0  0
   -9.4840   -2.5110  -24.9060 H   0  0  0  0  0  0  0  0  0  0  0  0
   -8.1590   -1.4840  -24.3050 H   0  0  0  0  0  0  0  0  0  0  0  0
   -8.8940    0.5390  -25.6910 H   0  0  0  0  0  0  0  0  0  0  0  0
  -10.1780    1.3750  -24.8340 H   0  0  0  0  0  0  0  0  0  0  0  0
   -6.4260    1.3290  -24.5370 H   0  0  0  0  0  0  0  0  0  0  0  0
   -6.0640    2.9460  -22.2830 H   0  0  0  0  0  0  0  0  0  0  0  0
  -10.8540    0.9190  -22.4080 H   0  0  0  0  0  0  0  0  0  0  0  0
  -10.3210    1.8580  -21.0580 H   0  0  0  0  0  0  0  0  0  0  0  0
  -11.4810    2.8900  -23.7060 H   0  0  0  0  0  0  0  0  0  0  0  0
  -10.5100    3.9400  -22.6600 H   0  0  0  0  0  0  0  0  0  0  0  0
  -12.0360    3.2700  -22.0710 H   0  0  0  0  0  0  0  0  0  0  0  0
  1  2  1  0  0  0  0
  1 60  1  0  0  0  0
  1 61  1  0  0  0  0
  1 62  1  0  0  0  0
  2  3  1  0  0  0  0
  2 58  1  0  0  0  0
  2 59  1  0  0  0  0
  3  4  1  0  0  0  0
  3  7  1  0  0  0  0
  4  5  2  0  0  0  0
  5  6  1  0  0  0  0
  5 57  1  0  0  0  0
  6  7  2  0  0  0  0
  6 56  1  0  0  0  0
  7  8  1  0  0  0  0
  8  9  1  0  0  0  0
  8 54  1  0  0  0  0
  8 55  1  0  0  0  0
  9 10  1  0  0  0  0
  9 47  1  0  0  0  0
 10 11  1  0  0  0  0
 10 52  1  0  0  0  0
 10 53  1  0  0  0  0
 11 12  1  1  0  0  0
 11 32  1  0  0  0  0
 11 40  1  0  0  0  0
 12 13  2  0  0  0  0
 12 14  1  0  0  0  0
 14 15  1  0  0  0  0
 14 31  1  0  0  0  0
 15 16  2  0  0  0  0
 15 24  1  0  0  0  0
 16 17  1  0  0  0  0
 16 30  1  0  0  0  0
 17 18  2  0  0  0  0
 18 19  1  0  0  0  0
 18 29  1  0  0  0  0
 19 20  2  0  0  0  0
 19 24  1  0  0  0  0
 20 21  1  0  0  0  0
 20 28  1  0  0  0  0
 21 22  2  0  0  0  0
 21 27  1  0  0  0  0
 22 23  1  0  0  0  0
 22 26  1  0  0  0  0
 23 24  2  0  0  0  0
 23 25  1  0  0  0  0
 31 32  1  0  0  0  0
 31 38  1  0  0  0  0
 31 39  1  0  0  0  0
 32 33  1  0  0  0  0
 32 37  1  1  0  0  0
 33 34  1  0  0  0  0
 33 35  1  0  0  0  0
 33 36  1  0  0  0  0
 40 41  2  0  0  0  0
 40 46  1  0  0  0  0
 41 42  1  0  0  0  0
 41 51  1  0  0  0  0
 42 43  1  0  0  0  0
 42 44  2  0  0  0  0
 44 45  1  0  0  0  0
 44 50  1  0  0  0  0
 45 46  2  0  0  0  0
 45 49  1  0  0  0  0
 46 47  1  0  0  0  0
 47 48  2  0  0  0  0
M  END
>  <MODEL>
       1

$$$$
