tmp_first_model_4_65.pdb
 OpenBabel08272518513D

 55 60  0  0  1  0  0  0  0  0999 V2000
   -7.9090   -3.5840  -24.0920 C   0  0  0  0  0  0  0  0  0  0  0  0
   -8.2930   -2.8430  -22.8180 C   0  0  1  0  0  0  0  0  0  0  0  0
   -7.0690   -2.6130  -21.9220 C   0  0  0  0  0  0  0  0  0  0  0  0
   -7.3950   -1.4130  -21.1980 N   0  0  0  0  0  0  0  0  0  0  0  0
   -6.5160   -0.9470  -20.1920 C   0  0  0  0  0  0  0  0  0  0  0  0
   -6.7660   -1.2510  -18.8830 C   0  0  0  0  0  0  0  0  0  0  0  0
   -5.9030   -0.9970  -17.8670 N   0  0  0  0  0  0  0  0  0  0  0  0
   -4.7790   -0.3940  -18.1590 C   0  0  0  0  0  0  0  0  0  0  0  0
   -4.4260    0.0240  -19.4720 C   0  0  0  0  0  0  0  0  0  0  0  0
   -3.2630    0.7880  -19.7280 C   0  0  0  0  0  0  0  0  0  0  0  0
   -3.0330    1.3010  -20.9760 C   0  0  0  0  0  0  0  0  0  0  0  0
   -3.9010    0.9830  -22.0480 C   0  0  0  0  0  0  0  0  0  0  0  0
   -4.9980    0.1850  -21.8370 C   0  0  0  0  0  0  0  0  0  0  0  0
   -5.3120   -0.2650  -20.5300 C   0  0  0  0  0  0  0  0  0  0  0  0
   -5.6450   -0.0700  -22.6710 H   0  0  0  0  0  0  0  0  0  0  0  0
   -3.7190    1.4050  -23.0310 H   0  0  0  0  0  0  0  0  0  0  0  0
   -2.1880    1.9600  -21.1470 H   0  0  0  0  0  0  0  0  0  0  0  0
   -2.6210    1.0200  -18.8810 H   0  0  0  0  0  0  0  0  0  0  0  0
   -4.0750   -0.1960  -17.3470 H   0  0  0  0  0  0  0  0  0  0  0  0
   -7.6980   -1.7550  -18.6360 H   0  0  0  0  0  0  0  0  0  0  0  0
   -8.4330   -0.6770  -21.7240 C   0  0  0  0  0  0  0  0  0  0  0  0
   -8.8330    0.3700  -21.2690 O   0  0  0  0  0  0  0  0  0  0  0  0
   -8.9680   -1.4410  -22.9730 C   0  0  1  0  0  0  0  0  0  0  0  0
   -8.5000   -0.7640  -24.2900 C   0  0  0  0  0  0  0  0  0  0  0  0
   -9.2000    0.4730  -24.5730 N   0  0  0  0  0  0  0  0  0  0  0  0
   -8.4630    1.6740  -24.9360 C   0  0  0  0  0  0  0  0  0  0  0  0
   -8.1660    2.5270  -23.7400 C   0  0  0  0  0  0  0  0  0  0  0  0
   -8.9390    3.4200  -23.0870 C   0  0  0  0  0  0  0  0  0  0  0  0
   -8.2110    3.9440  -22.0620 O   0  0  0  0  0  0  0  0  0  0  0  0
   -7.0310    3.3000  -22.1280 C   0  0  0  0  0  0  0  0  0  0  0  0
   -6.9360    2.4530  -23.0950 N   0  0  0  0  0  0  0  0  0  0  0  0
   -6.2820    3.5600  -21.3870 H   0  0  0  0  0  0  0  0  0  0  0  0
   -9.9630    3.7530  -23.1820 H   0  0  0  0  0  0  0  0  0  0  0  0
   -9.0550    2.2190  -25.6790 H   0  0  0  0  0  0  0  0  0  0  0  0
   -7.5190    1.3770  -25.3990 H   0  0  0  0  0  0  0  0  0  0  0  0
  -10.5570    0.5880  -24.4440 C   0  0  0  0  0  0  0  0  0  0  0  0
  -11.1760    1.5400  -24.8970 O   0  0  0  0  0  0  0  0  0  0  0  0
  -11.2320   -0.5050  -23.6770 C   0  0  0  0  0  0  0  0  0  0  0  0
  -12.6270   -0.5020  -23.6310 C   0  0  0  0  0  0  0  0  0  0  0  0
  -13.3110   -1.3920  -22.8310 C   0  0  0  0  0  0  0  0  0  0  0  0
  -12.5560   -2.2680  -22.0590 C   0  0  0  0  0  0  0  0  0  0  0  0
  -13.2010   -3.1090  -21.2380 F   0  0  0  0  0  0  0  0  0  0  0  0
  -11.1780   -2.3030  -22.0950 C   0  0  0  0  0  0  0  0  0  0  0  0
  -10.4860   -1.4430  -22.9520 C   0  0  0  0  0  0  0  0  0  0  0  0
  -10.6610   -2.9880  -21.4330 H   0  0  0  0  0  0  0  0  0  0  0  0
  -14.3940   -1.3990  -22.7660 H   0  0  0  0  0  0  0  0  0  0  0  0
  -13.1540    0.2360  -24.2230 H   0  0  0  0  0  0  0  0  0  0  0  0
   -8.6690   -1.4690  -25.1140 H   0  0  0  0  0  0  0  0  0  0  0  0
   -7.4230   -0.5590  -24.2370 H   0  0  0  0  0  0  0  0  0  0  0  0
   -6.1430   -2.5040  -22.5120 H   0  0  0  0  0  0  0  0  0  0  0  0
   -6.9130   -3.4350  -21.2160 H   0  0  0  0  0  0  0  0  0  0  0  0
   -8.9890   -3.4760  -22.2640 H   0  0  0  0  0  0  0  0  0  0  0  0
   -8.7650   -3.7320  -24.7590 H   0  0  0  0  0  0  0  0  0  0  0  0
   -7.1340   -3.0360  -24.6400 H   0  0  0  0  0  0  0  0  0  0  0  0
   -7.4990   -4.5640  -23.8320 H   0  0  0  0  0  0  0  0  0  0  0  0
  1  2  1  0  0  0  0
  1 53  1  0  0  0  0
  1 54  1  0  0  0  0
  1 55  1  0  0  0  0
  2  3  1  0  0  0  0
  2 23  1  0  0  0  0
  2 52  1  1  0  0  0
  3  4  1  0  0  0  0
  3 50  1  0  0  0  0
  3 51  1  0  0  0  0
  4  5  1  0  0  0  0
  4 21  1  0  0  0  0
  5  6  2  0  0  0  0
  5 14  1  0  0  0  0
  6  7  1  0  0  0  0
  6 20  1  0  0  0  0
  7  8  2  0  0  0  0
  8  9  1  0  0  0  0
  8 19  1  0  0  0  0
  9 10  2  0  0  0  0
  9 14  1  0  0  0  0
 10 11  1  0  0  0  0
 10 18  1  0  0  0  0
 11 12  2  0  0  0  0
 11 17  1  0  0  0  0
 12 13  1  0  0  0  0
 12 16  1  0  0  0  0
 13 14  2  0  0  0  0
 13 15  1  0  0  0  0
 21 22  2  0  0  0  0
 23 21  1  1  0  0  0
 23 24  1  0  0  0  0
 23 44  1  0  0  0  0
 24 25  1  0  0  0  0
 24 48  1  0  0  0  0
 24 49  1  0  0  0  0
 25 26  1  0  0  0  0
 25 36  1  0  0  0  0
 26 27  1  0  0  0  0
 26 34  1  0  0  0  0
 26 35  1  0  0  0  0
 27 28  2  0  0  0  0
 27 31  1  0  0  0  0
 28 29  1  0  0  0  0
 28 33  1  0  0  0  0
 29 30  1  0  0  0  0
 30 31  2  0  0  0  0
 30 32  1  0  0  0  0
 36 37  2  0  0  0  0
 36 38  1  0  0  0  0
 38 39  2  0  0  0  0
 38 44  1  0  0  0  0
 39 40  1  0  0  0  0
 39 47  1  0  0  0  0
 40 41  2  0  0  0  0
 40 46  1  0  0  0  0
 41 42  1  0  0  0  0
 41 43  1  0  0  0  0
 43 44  2  0  0  0  0
 43 45  1  0  0  0  0
M  END
>  <MODEL>
       1

$$$$
