tmp_first_model_6_17.pdb
 OpenBabel08272519583D

 38 41  0  0  1  0  0  0  0  0999 V2000
  -10.0940   -5.0130  -24.3150 C   0  0  0  0  0  0  0  0  0  0  0  0
   -9.8090   -3.7200  -23.5580 C   0  0  2  0  0  0  0  0  0  0  0  0
   -9.5580   -2.4920  -24.4310 C   0  0  0  0  0  0  0  0  0  0  0  0
   -9.5910   -1.2400  -23.5500 C   0  0  0  0  0  0  0  0  0  0  0  0
   -8.6690   -1.4490  -22.4390 C   0  0  0  0  0  0  0  0  0  0  0  0
   -8.1790   -0.5390  -21.4500 C   0  0  0  0  0  0  0  0  0  0  0  0
   -8.5780    0.5350  -21.0640 O   0  5  0  0  0  0  0  0  0  0  0  0
   -7.0530   -1.2210  -20.9240 N   0  0  0  0  0  0  0  0  0  0  0  0
   -6.2560   -0.7110  -19.8910 C   0  0  0  0  0  0  0  0  0  0  0  0
   -6.5420   -1.0290  -18.5930 C   0  0  0  0  0  0  0  0  0  0  0  0
   -5.8920   -0.5070  -17.5300 N   0  0  0  0  0  0  0  0  0  0  0  0
   -4.9210    0.3420  -17.7770 C   0  0  0  0  0  0  0  0  0  0  0  0
   -4.5040    0.7300  -19.0900 C   0  0  0  0  0  0  0  0  0  0  0  0
   -3.4280    1.6310  -19.3290 C   0  0  0  0  0  0  0  0  0  0  0  0
   -3.1150    1.9940  -20.6120 C   0  0  0  0  0  0  0  0  0  0  0  0
   -3.8410    1.4850  -21.7130 C   0  0  0  0  0  0  0  0  0  0  0  0
   -4.8690    0.5970  -21.5140 C   0  0  0  0  0  0  0  0  0  0  0  0
   -5.2040    0.1970  -20.1910 C   0  0  0  0  0  0  0  0  0  0  0  0
   -5.4170    0.1920  -22.3590 H   0  0  0  0  0  0  0  0  0  0  0  0
   -3.5910    1.8080  -22.7190 H   0  0  0  0  0  0  0  0  0  0  0  0
   -2.3110    2.7020  -20.7940 H   0  0  0  0  0  0  0  0  0  0  0  0
   -2.8740    2.0330  -18.4840 H   0  0  0  0  0  0  0  0  0  0  0  0
   -4.4340    0.7820  -16.9080 H   0  0  0  0  0  0  0  0  0  0  0  0
   -7.3570   -1.7140  -18.3780 H   0  0  0  0  0  0  0  0  0  0  0  0
   -7.0320   -2.5540  -21.3290 C   0  0  0  0  0  0  0  0  0  0  0  0
   -6.3050   -3.4390  -20.9530 O   0  0  0  0  0  0  0  0  0  0  0  0
   -8.0650   -2.6430  -22.2340 N   0  0  0  0  0  0  0  0  0  0  0  0
   -8.5680   -3.9250  -22.6910 C   0  0  0  0  0  0  0  0  0  0  0  0
   -8.7980   -4.5470  -21.8250 H   0  0  0  0  0  0  0  0  0  0  0  0
   -7.7940   -4.4330  -23.2750 H   0  0  0  0  0  0  0  0  0  0  0  0
   -9.3430   -0.3360  -24.1160 H   0  0  0  0  0  0  0  0  0  0  0  0
  -10.5960   -1.0560  -23.1510 H   0  0  0  0  0  0  0  0  0  0  0  0
   -8.5760   -2.5960  -24.9120 H   0  0  0  0  0  0  0  0  0  0  0  0
  -10.2740   -2.3750  -25.2360 H   0  0  0  0  0  0  0  0  0  0  0  0
  -10.6780   -3.5120  -22.9240 H   0  0  0  0  0  0  0  0  0  0  0  0
  -11.1140   -5.1060  -24.6920 H   0  0  0  0  0  0  0  0  0  0  0  0
   -9.9560   -5.8710  -23.6550 H   0  0  0  0  0  0  0  0  0  0  0  0
   -9.4030   -5.1170  -25.1560 H   0  0  0  0  0  0  0  0  0  0  0  0
  1  2  1  0  0  0  0
  1 36  1  0  0  0  0
  1 37  1  0  0  0  0
  1 38  1  0  0  0  0
  2  3  1  0  0  0  0
  2 28  1  0  0  0  0
  2 35  1  1  0  0  0
  3  4  1  0  0  0  0
  3 33  1  0  0  0  0
  3 34  1  0  0  0  0
  4  5  1  0  0  0  0
  4 31  1  0  0  0  0
  4 32  1  0  0  0  0
  5  6  2  0  0  0  0
  5 27  1  0  0  0  0
  6  7  1  0  0  0  0
  6  8  1  0  0  0  0
  8  9  1  0  0  0  0
  8 25  1  0  0  0  0
  9 10  2  0  0  0  0
  9 18  1  0  0  0  0
 10 11  1  0  0  0  0
 10 24  1  0  0  0  0
 11 12  2  0  0  0  0
 12 13  1  0  0  0  0
 12 23  1  0  0  0  0
 13 14  2  0  0  0  0
 13 18  1  0  0  0  0
 14 15  1  0  0  0  0
 14 22  1  0  0  0  0
 15 16  2  0  0  0  0
 15 21  1  0  0  0  0
 16 17  1  0  0  0  0
 16 20  1  0  0  0  0
 17 18  2  0  0  0  0
 17 19  1  0  0  0  0
 25 26  2  0  0  0  0
 25 27  1  0  0  0  0
 27 28  1  0  0  0  0
 28 29  1  0  0  0  0
 28 30  1  0  0  0  0
M  CHG  1   7  -1
M  END
>  <MODEL>
       1

$$$$
