tmp_first_model_15_24.pdb
 OpenBabel08282501153D

 65 70  0  0  1  0  0  0  0  0999 V2000
   -6.0090   -7.5430  -25.4960 O   0  0  0  0  0  0  0  0  0  0  0  0
   -5.9660   -7.1810  -24.3290 C   0  0  0  0  0  0  0  0  0  0  0  0
   -7.1560   -6.5590  -23.6120 C   0  0  0  0  0  0  0  0  0  0  0  0
   -7.1020   -5.0720  -23.7800 N   0  3  1  0  0  0  0  0  0  0  0  0
   -7.2790   -4.7400  -25.2770 C   0  0  0  0  0  0  0  0  0  0  0  0
   -7.2150   -3.2610  -25.5160 C   0  0  0  0  0  0  0  0  0  0  0  0
   -6.8470   -2.7830  -26.7710 C   0  0  0  0  0  0  0  0  0  0  0  0
   -6.7780   -1.4230  -27.0340 C   0  0  0  0  0  0  0  0  0  0  0  0
   -7.0850   -0.5290  -26.0140 C   0  0  0  0  0  0  0  0  0  0  0  0
   -6.9900    1.1860  -26.3150 Cl  0  0  0  0  0  0  0  0  0  0  0  0
   -7.4670   -0.9830  -24.7630 C   0  0  0  0  0  0  0  0  0  0  0  0
   -7.5450   -2.3570  -24.5050 C   0  0  0  0  0  0  0  0  0  0  0  0
   -7.9480   -2.8100  -23.1140 C   0  0  2  0  0  0  0  0  0  0  0  0
   -9.1880   -2.0900  -22.5700 C   0  0  0  0  0  0  0  0  0  0  0  0
   -8.7190   -1.1440  -21.4590 C   0  0  0  0  0  0  0  0  0  0  0  0
   -7.3180   -1.4900  -21.2430 N   0  0  0  0  0  0  0  0  0  0  0  0
   -6.5520   -0.8910  -20.2040 C   0  0  0  0  0  0  0  0  0  0  0  0
   -6.8990   -1.0660  -18.8830 C   0  0  0  0  0  0  0  0  0  0  0  0
   -6.2240   -0.5420  -17.8290 N   0  0  0  0  0  0  0  0  0  0  0  0
   -5.1820    0.2090  -18.0920 C   0  0  0  0  0  0  0  0  0  0  0  0
   -4.7360    0.5140  -19.4090 C   0  0  0  0  0  0  0  0  0  0  0  0
   -3.6170    1.3590  -19.6350 C   0  0  0  0  0  0  0  0  0  0  0  0
   -3.2270    1.6670  -20.9080 C   0  0  0  0  0  0  0  0  0  0  0  0
   -3.9490    1.1540  -22.0120 C   0  0  0  0  0  0  0  0  0  0  0  0
   -5.0320    0.3320  -21.8220 C   0  0  0  0  0  0  0  0  0  0  0  0
   -5.4440   -0.0300  -20.5070 C   0  0  0  0  0  0  0  0  0  0  0  0
   -5.5800   -0.0420  -22.6840 H   0  0  0  0  0  0  0  0  0  0  0  0
   -3.6400    1.4120  -23.0200 H   0  0  0  0  0  0  0  0  0  0  0  0
   -2.3730    2.3150  -21.0820 H   0  0  0  0  0  0  0  0  0  0  0  0
   -3.0920    1.7620  -18.7710 H   0  0  0  0  0  0  0  0  0  0  0  0
   -4.6330    0.6150  -17.2410 H   0  0  0  0  0  0  0  0  0  0  0  0
   -7.7560   -1.6810  -18.6100 H   0  0  0  0  0  0  0  0  0  0  0  0
   -6.8400   -2.4410  -22.1210 C   0  0  0  0  0  0  0  0  0  0  0  0
   -5.7460   -2.9740  -22.1330 O   0  0  0  0  0  0  0  0  0  0  0  0
   -9.2950   -1.3420  -20.5620 H   0  0  0  0  0  0  0  0  0  0  0  0
   -8.8430   -0.0800  -21.7110 H   0  0  0  0  0  0  0  0  0  0  0  0
   -9.8580   -2.8390  -22.1370 H   0  0  0  0  0  0  0  0  0  0  0  0
   -9.7500   -1.5820  -23.3580 H   0  0  0  0  0  0  0  0  0  0  0  0
   -8.1650   -4.3270  -23.0140 C   0  0  0  0  0  0  0  0  0  0  0  0
   -8.1470   -4.6030  -21.9550 H   0  0  0  0  0  0  0  0  0  0  0  0
   -9.1450   -4.5840  -23.4310 H   0  0  0  0  0  0  0  0  0  0  0  0
   -7.7020   -0.2550  -23.9890 H   0  0  0  0  0  0  0  0  0  0  0  0
   -6.4850   -1.0520  -28.0100 H   0  0  0  0  0  0  0  0  0  0  0  0
   -6.6010   -3.4930  -27.5570 H   0  0  0  0  0  0  0  0  0  0  0  0
   -6.5160   -5.2680  -25.8440 H   0  0  0  0  0  0  0  0  0  0  0  0
   -8.2440   -5.1590  -25.5960 H   0  0  0  0  0  0  0  0  0  0  0  0
   -6.1830   -4.6890  -23.4420 H   0  0  0  0  0  0  0  0  0  0  0  0
   -7.1740   -6.8230  -22.5560 H   0  0  0  0  0  0  0  0  0  0  0  0
   -8.0700   -6.9660  -24.0530 H   0  0  0  0  0  0  0  0  0  0  0  0
   -4.8260   -7.2340  -23.6030 N   0  0  0  0  0  0  0  0  0  0  0  0
   -3.6660   -7.8660  -24.1980 C   0  0  0  0  0  0  0  0  0  0  0  0
   -2.4040   -7.5590  -23.4110 C   0  0  1  0  0  0  0  0  0  0  0  0
   -1.0890   -8.0320  -24.0930 C   0  0  0  0  0  0  0  0  0  0  0  0
   -0.6140   -6.5670  -24.2060 C   0  0  1  0  0  0  0  0  0  0  0  0
   -0.4990   -6.1260  -25.5180 F   0  0  0  0  0  0  0  0  0  0  0  0
   -1.9040   -6.0840  -23.5080 C   0  0  0  0  0  0  0  0  0  0  0  0
   -1.7680   -5.5670  -22.5500 H   0  0  0  0  0  0  0  0  0  0  0  0
   -2.5100   -5.4310  -24.1500 H   0  0  0  0  0  0  0  0  0  0  0  0
    0.3360   -6.3180  -23.7170 H   0  0  0  0  0  0  0  0  0  0  0  0
   -1.2250   -8.5190  -25.0670 H   0  0  0  0  0  0  0  0  0  0  0  0
   -0.4560   -8.6910  -23.4900 H   0  0  0  0  0  0  0  0  0  0  0  0
   -2.5370   -7.9290  -22.3810 H   0  0  0  0  0  0  0  0  0  0  0  0
   -3.5970   -7.4970  -25.2300 H   0  0  0  0  0  0  0  0  0  0  0  0
   -3.8440   -8.9500  -24.2650 H   0  0  0  0  0  0  0  0  0  0  0  0
   -4.7900   -6.7680  -22.7110 H   0  0  0  0  0  0  0  0  0  0  0  0
  1  2  2  0  0  0  0
  2  3  1  0  0  0  0
  2 50  1  0  0  0  0
  3  4  1  0  0  0  0
  3 48  1  0  0  0  0
  3 49  1  0  0  0  0
  4  5  1  0  0  0  0
  4 39  1  0  0  0  0
  4 47  1  1  0  0  0
  5  6  1  0  0  0  0
  5 45  1  0  0  0  0
  5 46  1  0  0  0  0
  6  7  2  0  0  0  0
  6 12  1  0  0  0  0
  7  8  1  0  0  0  0
  7 44  1  0  0  0  0
  8  9  2  0  0  0  0
  8 43  1  0  0  0  0
  9 10  1  0  0  0  0
  9 11  1  0  0  0  0
 11 12  2  0  0  0  0
 11 42  1  0  0  0  0
 13 12  1  6  0  0  0
 13 14  1  0  0  0  0
 13 33  1  0  0  0  0
 13 39  1  0  0  0  0
 14 15  1  0  0  0  0
 14 37  1  0  0  0  0
 14 38  1  0  0  0  0
 15 16  1  0  0  0  0
 15 35  1  0  0  0  0
 15 36  1  0  0  0  0
 16 17  1  0  0  0  0
 16 33  1  0  0  0  0
 17 18  2  0  0  0  0
 17 26  1  0  0  0  0
 18 19  1  0  0  0  0
 18 32  1  0  0  0  0
 19 20  2  0  0  0  0
 20 21  1  0  0  0  0
 20 31  1  0  0  0  0
 21 22  2  0  0  0  0
 21 26  1  0  0  0  0
 22 23  1  0  0  0  0
 22 30  1  0  0  0  0
 23 24  2  0  0  0  0
 23 29  1  0  0  0  0
 24 25  1  0  0  0  0
 24 28  1  0  0  0  0
 25 26  2  0  0  0  0
 25 27  1  0  0  0  0
 33 34  2  0  0  0  0
 39 40  1  0  0  0  0
 39 41  1  0  0  0  0
 50 51  1  0  0  0  0
 50 65  1  0  0  0  0
 51 52  1  0  0  0  0
 51 63  1  0  0  0  0
 51 64  1  0  0  0  0
 52 53  1  0  0  0  0
 52 56  1  0  0  0  0
 52 62  1  1  0  0  0
 53 54  1  0  0  0  0
 53 60  1  0  0  0  0
 53 61  1  0  0  0  0
 54 55  1  0  0  0  0
 54 56  1  0  0  0  0
 54 59  1  1  0  0  0
 56 57  1  0  0  0  0
 56 58  1  0  0  0  0
M  CHG  1   4   1
M  END
>  <MODEL>
       1

$$$$
