tmp_first_model_9_21.pdb
 OpenBabel08272521403D

 63 68  0  0  1  0  0  0  0  0999 V2000
  -10.2940   -2.7350  -22.1840 C   0  0  0  0  0  0  0  0  0  0  0  0
   -9.0980   -1.9330  -22.7040 C   0  0  1  0  0  0  0  0  0  0  0  0
   -8.6100   -0.9290  -21.6430 C   0  0  0  0  0  0  0  0  0  0  0  0
   -7.3570   -1.4770  -21.1820 N   0  0  0  0  0  0  0  0  0  0  0  0
   -6.5740   -0.8580  -20.1820 C   0  0  0  0  0  0  0  0  0  0  0  0
   -6.9100   -1.0520  -18.8700 C   0  0  0  0  0  0  0  0  0  0  0  0
   -6.2280   -0.5370  -17.8230 N   0  0  0  0  0  0  0  0  0  0  0  0
   -5.1920    0.2140  -18.1030 C   0  0  0  0  0  0  0  0  0  0  0  0
   -4.7500    0.5090  -19.4240 C   0  0  0  0  0  0  0  0  0  0  0  0
   -3.6340    1.3520  -19.6490 C   0  0  0  0  0  0  0  0  0  0  0  0
   -3.2430    1.6550  -20.9200 C   0  0  0  0  0  0  0  0  0  0  0  0
   -3.9510    1.1320  -22.0260 C   0  0  0  0  0  0  0  0  0  0  0  0
   -5.0310    0.3030  -21.8430 C   0  0  0  0  0  0  0  0  0  0  0  0
   -5.4580   -0.0310  -20.5200 C   0  0  0  0  0  0  0  0  0  0  0  0
   -5.5590   -0.0860  -22.7160 H   0  0  0  0  0  0  0  0  0  0  0  0
   -3.6290    1.3950  -23.0290 H   0  0  0  0  0  0  0  0  0  0  0  0
   -2.3980    2.3150  -21.0870 H   0  0  0  0  0  0  0  0  0  0  0  0
   -3.1230    1.7610  -18.7810 H   0  0  0  0  0  0  0  0  0  0  0  0
   -4.6380    0.6380  -17.2640 H   0  0  0  0  0  0  0  0  0  0  0  0
   -7.7680   -1.6790  -18.6370 H   0  0  0  0  0  0  0  0  0  0  0  0
   -6.8590   -2.5200  -21.9240 C   0  0  0  0  0  0  0  0  0  0  0  0
   -5.8260   -3.1040  -21.6750 O   0  0  0  0  0  0  0  0  0  0  0  0
   -7.8330   -2.7760  -23.0910 C   0  0  1  0  0  0  0  0  0  0  0  0
   -8.1460   -4.2810  -23.2140 C   0  0  0  0  0  0  0  0  0  0  0  0
   -7.0110   -5.0270  -23.7330 N   0  0  0  0  0  0  0  0  0  0  0  0
   -6.7060   -6.3240  -23.1640 C   0  0  0  0  0  0  0  0  0  0  0  0
   -7.7950   -7.3340  -23.5080 C   0  0  0  0  0  0  0  0  0  0  0  0
   -8.4940   -7.8650  -22.6600 O   0  0  0  0  0  0  0  0  0  0  0  0
   -7.9530   -7.5580  -24.8430 N   0  0  0  0  0  0  0  0  0  0  0  0
   -9.2590   -8.0040  -25.3130 C   0  0  0  0  0  0  0  0  0  0  0  0
  -10.2400   -6.8630  -25.4710 C   0  0  0  0  0  0  0  0  0  0  0  0
  -10.0040   -5.8700  -26.5730 C   0  0  0  0  0  0  0  0  0  0  0  0
  -11.1570   -6.8230  -26.6510 C   0  0  0  0  0  0  0  0  0  0  0  0
  -12.1480   -6.4280  -26.4800 H   0  0  0  0  0  0  0  0  0  0  0  0
  -11.0920   -7.6260  -27.3760 H   0  0  0  0  0  0  0  0  0  0  0  0
  -10.2110   -4.8270  -26.3590 H   0  0  0  0  0  0  0  0  0  0  0  0
   -9.1690   -6.0640  -27.2430 H   0  0  0  0  0  0  0  0  0  0  0  0
  -10.6670   -6.4710  -24.5450 H   0  0  0  0  0  0  0  0  0  0  0  0
   -9.1220   -8.5290  -26.2660 H   0  0  0  0  0  0  0  0  0  0  0  0
   -9.6400   -8.7190  -24.5780 H   0  0  0  0  0  0  0  0  0  0  0  0
   -7.3170   -7.1070  -25.4960 H   0  0  0  0  0  0  0  0  0  0  0  0
   -6.6140   -6.2170  -22.0820 H   0  0  0  0  0  0  0  0  0  0  0  0
   -5.7590   -6.6590  -23.5930 H   0  0  0  0  0  0  0  0  0  0  0  0
   -6.3840   -4.6510  -24.8790 C   0  0  0  0  0  0  0  0  0  0  0  0
   -5.7260   -5.4460  -25.5530 O   0  0  0  0  0  0  0  0  0  0  0  0
   -6.5260   -3.2120  -25.2470 C   0  0  0  0  0  0  0  0  0  0  0  0
   -5.9500   -2.7950  -26.4440 C   0  0  0  0  0  0  0  0  0  0  0  0
   -6.0120   -1.4750  -26.8330 C   0  0  0  0  0  0  0  0  0  0  0  0
   -6.6570   -0.5860  -25.9830 C   0  0  0  0  0  0  0  0  0  0  0  0
   -6.7300    0.7030  -26.3560 F   0  0  0  0  0  0  0  0  0  0  0  0
   -7.2350   -0.9710  -24.7870 C   0  0  0  0  0  0  0  0  0  0  0  0
   -7.1980   -2.3170  -24.4040 C   0  0  0  0  0  0  0  0  0  0  0  0
   -7.7330   -0.2180  -24.1860 H   0  0  0  0  0  0  0  0  0  0  0  0
   -5.5730   -1.1280  -27.7610 H   0  0  0  0  0  0  0  0  0  0  0  0
   -5.4510   -3.5460  -27.0450 H   0  0  0  0  0  0  0  0  0  0  0  0
   -9.0240   -4.3830  -23.8680 H   0  0  0  0  0  0  0  0  0  0  0  0
   -8.4100   -4.6970  -22.2420 H   0  0  0  0  0  0  0  0  0  0  0  0
   -9.3100   -0.8370  -20.8100 H   0  0  0  0  0  0  0  0  0  0  0  0
   -8.4730    0.0830  -22.0520 H   0  0  0  0  0  0  0  0  0  0  0  0
   -9.4430   -1.4080  -23.6010 H   0  0  0  0  0  0  0  0  0  0  0  0
  -10.0310   -3.3270  -21.3030 H   0  0  0  0  0  0  0  0  0  0  0  0
  -11.1000   -2.0520  -21.9070 H   0  0  0  0  0  0  0  0  0  0  0  0
  -10.6850   -3.4060  -22.9510 H   0  0  0  0  0  0  0  0  0  0  0  0
  1  2  1  0  0  0  0
  1 61  1  0  0  0  0
  1 62  1  0  0  0  0
  1 63  1  0  0  0  0
  2  3  1  0  0  0  0
  2 23  1  0  0  0  0
  2 60  1  6  0  0  0
  3  4  1  0  0  0  0
  3 58  1  0  0  0  0
  3 59  1  0  0  0  0
  4  5  1  0  0  0  0
  4 21  1  0  0  0  0
  5  6  2  0  0  0  0
  5 14  1  0  0  0  0
  6  7  1  0  0  0  0
  6 20  1  0  0  0  0
  7  8  2  0  0  0  0
  8  9  1  0  0  0  0
  8 19  1  0  0  0  0
  9 10  2  0  0  0  0
  9 14  1  0  0  0  0
 10 11  1  0  0  0  0
 10 18  1  0  0  0  0
 11 12  2  0  0  0  0
 11 17  1  0  0  0  0
 12 13  1  0  0  0  0
 12 16  1  0  0  0  0
 13 14  2  0  0  0  0
 13 15  1  0  0  0  0
 21 22  2  0  0  0  0
 23 21  1  1  0  0  0
 23 24  1  0  0  0  0
 23 52  1  0  0  0  0
 24 25  1  0  0  0  0
 24 56  1  0  0  0  0
 24 57  1  0  0  0  0
 25 26  1  0  0  0  0
 25 44  1  0  0  0  0
 26 27  1  0  0  0  0
 26 42  1  0  0  0  0
 26 43  1  0  0  0  0
 27 28  2  0  0  0  0
 27 29  1  0  0  0  0
 29 30  1  0  0  0  0
 29 41  1  0  0  0  0
 30 31  1  0  0  0  0
 30 39  1  0  0  0  0
 30 40  1  0  0  0  0
 31 32  1  0  0  0  0
 31 33  1  0  0  0  0
 31 38  1  0  0  0  0
 32 33  1  0  0  0  0
 32 36  1  0  0  0  0
 32 37  1  0  0  0  0
 33 34  1  0  0  0  0
 33 35  1  0  0  0  0
 44 45  2  0  0  0  0
 44 46  1  0  0  0  0
 46 47  2  0  0  0  0
 46 52  1  0  0  0  0
 47 48  1  0  0  0  0
 47 55  1  0  0  0  0
 48 49  2  0  0  0  0
 48 54  1  0  0  0  0
 49 50  1  0  0  0  0
 49 51  1  0  0  0  0
 51 52  2  0  0  0  0
 51 53  1  0  0  0  0
M  END
>  <MODEL>
       1

$$$$
