tmp_first_model_1_49.pdb
 OpenBabel08272517043D

 67 72  0  0  1  0  0  0  0  0999 V2000
   -5.7580   -0.0570  -29.4090 C   0  0  0  0  0  0  0  0  0  0  0  0
   -5.7230    0.2240  -27.9940 N   0  0  0  0  0  0  0  0  0  0  0  0
   -5.1000   -0.6260  -27.1370 C   0  0  0  0  0  0  0  0  0  0  0  0
   -4.4040   -1.5630  -27.4970 O   0  0  0  0  0  0  0  0  0  0  0  0
   -5.3150   -0.2760  -25.6520 C   0  0  0  0  0  0  0  0  0  0  0  0
   -6.5390   -0.8140  -25.0710 N   0  0  0  0  0  0  0  0  0  0  0  0
   -6.5020   -2.0300  -24.2560 C   0  0  0  0  0  0  0  0  0  0  0  0
   -7.6040   -2.0530  -23.1420 C   0  0  2  0  0  0  0  0  0  0  0  0
   -7.2090   -1.0670  -22.0190 C   0  0  0  0  0  0  0  0  0  0  0  0
   -7.5100    0.1010  -21.9240 O   0  0  0  0  0  0  0  0  0  0  0  0
   -6.4400   -1.7600  -21.1030 N   0  0  0  0  0  0  0  0  0  0  0  0
   -5.8750   -1.0790  -20.0000 C   0  0  0  0  0  0  0  0  0  0  0  0
   -6.3100   -1.3390  -18.7230 C   0  0  0  0  0  0  0  0  0  0  0  0
   -5.8720   -0.7050  -17.6100 N   0  0  0  0  0  0  0  0  0  0  0  0
   -4.9640    0.2290  -17.7700 C   0  0  0  0  0  0  0  0  0  0  0  0
   -4.3940    0.5740  -19.0270 C   0  0  0  0  0  0  0  0  0  0  0  0
   -3.3840    1.5690  -19.1310 C   0  0  0  0  0  0  0  0  0  0  0  0
   -2.8560    1.9060  -20.3470 C   0  0  0  0  0  0  0  0  0  0  0  0
   -3.3210    1.2630  -21.5180 C   0  0  0  0  0  0  0  0  0  0  0  0
   -4.2890    0.2930  -21.4380 C   0  0  0  0  0  0  0  0  0  0  0  0
   -4.8640   -0.0760  -20.1850 C   0  0  0  0  0  0  0  0  0  0  0  0
   -4.6460   -0.1800  -22.3470 H   0  0  0  0  0  0  0  0  0  0  0  0
   -2.9090    1.5470  -22.4830 H   0  0  0  0  0  0  0  0  0  0  0  0
   -2.0940    2.6780  -20.4240 H   0  0  0  0  0  0  0  0  0  0  0  0
   -3.0530    2.0520  -18.2160 H   0  0  0  0  0  0  0  0  0  0  0  0
   -4.6180    0.7550  -16.8810 H   0  0  0  0  0  0  0  0  0  0  0  0
   -7.0840   -2.0880  -18.5650 H   0  0  0  0  0  0  0  0  0  0  0  0
   -6.4170   -3.1990  -21.3620 C   0  0  0  0  0  0  0  0  0  0  0  0
   -7.6110   -3.3590  -22.3080 C   0  0  2  0  0  0  0  0  0  0  0  0
   -7.8390   -4.6810  -23.0540 C   0  0  0  0  0  0  0  0  0  0  0  0
   -6.7610   -5.1690  -23.8910 N   0  0  0  0  0  0  0  0  0  0  0  0
   -5.6770   -5.8300  -23.3720 C   0  0  0  0  0  0  0  0  0  0  0  0
   -5.4600   -6.2460  -22.0950 C   0  0  0  0  0  0  0  0  0  0  0  0
   -4.2490   -6.8380  -21.8540 N   0  0  0  0  0  0  0  0  0  0  0  0
   -3.5290   -6.8920  -22.9300 C   0  0  0  0  0  0  0  0  0  0  0  0
   -2.1230   -7.3840  -22.9910 C   0  0  0  0  0  0  0  0  0  0  0  0
   -1.9800   -8.1000  -23.8070 H   0  0  0  0  0  0  0  0  0  0  0  0
   -1.4460   -6.5430  -23.1760 H   0  0  0  0  0  0  0  0  0  0  0  0
   -1.8660   -7.8460  -22.0350 H   0  0  0  0  0  0  0  0  0  0  0  0
   -4.2960   -6.2390  -24.3550 S   0  0  0  0  0  0  0  0  0  0  0  0
   -6.1630   -6.1140  -21.2800 H   0  0  0  0  0  0  0  0  0  0  0  0
   -7.0020   -5.4100  -24.8420 H   0  0  0  0  0  0  0  0  0  0  0  0
   -8.1380   -5.4590  -22.3320 H   0  0  0  0  0  0  0  0  0  0  0  0
   -8.6990   -4.5270  -23.7170 H   0  0  0  0  0  0  0  0  0  0  0  0
   -8.4780   -3.2700  -21.6490 H   0  0  0  0  0  0  0  0  0  0  0  0
   -6.5080   -3.7560  -20.4260 H   0  0  0  0  0  0  0  0  0  0  0  0
   -5.4820   -3.4950  -21.8510 H   0  0  0  0  0  0  0  0  0  0  0  0
   -8.9320   -1.6980  -23.7560 C   0  0  0  0  0  0  0  0  0  0  0  0
  -10.1610   -2.0910  -23.2010 C   0  0  0  0  0  0  0  0  0  0  0  0
  -11.3460   -1.6070  -23.7280 C   0  0  0  0  0  0  0  0  0  0  0  0
  -12.8410   -2.0320  -22.9270 Cl  0  0  0  0  0  0  0  0  0  0  0  0
  -11.3480   -0.7910  -24.8630 C   0  0  0  0  0  0  0  0  0  0  0  0
  -10.1440   -0.4580  -25.4370 C   0  0  0  0  0  0  0  0  0  0  0  0
   -8.9470   -0.8620  -24.8740 C   0  0  0  0  0  0  0  0  0  0  0  0
   -7.7110   -0.2530  -25.4370 C   0  0  0  0  0  0  0  0  0  0  0  0
   -7.7690    0.7120  -26.2130 O   0  0  0  0  0  0  0  0  0  0  0  0
  -10.0760    0.1160  -26.3460 H   0  0  0  0  0  0  0  0  0  0  0  0
  -12.2540   -0.3780  -25.2820 H   0  0  0  0  0  0  0  0  0  0  0  0
  -10.2170   -2.7290  -22.3240 H   0  0  0  0  0  0  0  0  0  0  0  0
   -5.5050   -2.0840  -23.8010 H   0  0  0  0  0  0  0  0  0  0  0  0
   -6.6350   -2.8950  -24.9120 H   0  0  0  0  0  0  0  0  0  0  0  0
   -4.4700   -0.6810  -25.0990 H   0  0  0  0  0  0  0  0  0  0  0  0
   -5.3310    0.8140  -25.5350 H   0  0  0  0  0  0  0  0  0  0  0  0
   -6.4960    0.7520  -27.6030 H   0  0  0  0  0  0  0  0  0  0  0  0
   -6.1680    0.8140  -29.9260 H   0  0  0  0  0  0  0  0  0  0  0  0
   -6.3690   -0.9380  -29.6400 H   0  0  0  0  0  0  0  0  0  0  0  0
   -4.7480   -0.2300  -29.7850 H   0  0  0  0  0  0  0  0  0  0  0  0
  1  2  1  0  0  0  0
  1 65  1  0  0  0  0
  1 66  1  0  0  0  0
  1 67  1  0  0  0  0
  2  3  1  0  0  0  0
  2 64  1  0  0  0  0
  3  4  2  0  0  0  0
  3  5  1  0  0  0  0
  5  6  1  0  0  0  0
  5 62  1  0  0  0  0
  5 63  1  0  0  0  0
  6  7  1  0  0  0  0
  6 55  1  0  0  0  0
  7  8  1  0  0  0  0
  7 60  1  0  0  0  0
  7 61  1  0  0  0  0
  8  9  1  1  0  0  0
  8 29  1  0  0  0  0
  8 48  1  0  0  0  0
  9 10  2  0  0  0  0
  9 11  1  0  0  0  0
 11 12  1  0  0  0  0
 11 28  1  0  0  0  0
 12 13  2  0  0  0  0
 12 21  1  0  0  0  0
 13 14  1  0  0  0  0
 13 27  1  0  0  0  0
 14 15  2  0  0  0  0
 15 16  1  0  0  0  0
 15 26  1  0  0  0  0
 16 17  2  0  0  0  0
 16 21  1  0  0  0  0
 17 18  1  0  0  0  0
 17 25  1  0  0  0  0
 18 19  2  0  0  0  0
 18 24  1  0  0  0  0
 19 20  1  0  0  0  0
 19 23  1  0  0  0  0
 20 21  2  0  0  0  0
 20 22  1  0  0  0  0
 28 29  1  0  0  0  0
 28 46  1  0  0  0  0
 28 47  1  0  0  0  0
 29 30  1  0  0  0  0
 29 45  1  1  0  0  0
 30 31  1  0  0  0  0
 30 43  1  0  0  0  0
 30 44  1  0  0  0  0
 31 32  1  0  0  0  0
 31 42  1  0  0  0  0
 32 33  2  0  0  0  0
 32 40  1  0  0  0  0
 33 34  1  0  0  0  0
 33 41  1  0  0  0  0
 34 35  2  0  0  0  0
 35 36  1  0  0  0  0
 35 40  1  0  0  0  0
 36 37  1  0  0  0  0
 36 38  1  0  0  0  0
 36 39  1  0  0  0  0
 48 49  2  0  0  0  0
 48 54  1  0  0  0  0
 49 50  1  0  0  0  0
 49 59  1  0  0  0  0
 50 51  1  0  0  0  0
 50 52  2  0  0  0  0
 52 53  1  0  0  0  0
 52 58  1  0  0  0  0
 53 54  2  0  0  0  0
 53 57  1  0  0  0  0
 54 55  1  0  0  0  0
 55 56  2  0  0  0  0
M  END
>  <MODEL>
       1

$$$$
