tmp_first_model_12_7.pdb
 OpenBabel08272523333D

 44 47  0  0  0  0  0  0  0  0999 V2000
   -8.3270   -7.7600  -23.6050 C   0  0  0  0  0  0  0  0  0  0  0  0
   -8.5560   -7.2760  -25.0330 C   0  0  0  0  0  0  0  0  0  0  0  0
   -9.1890   -5.6030  -25.0220 S   0  0  0  0  0  0  0  0  0  0  0  0
  -10.4410   -5.6320  -24.2760 O   0  0  0  0  0  0  0  0  0  0  0  0
   -9.1270   -5.0860  -26.3760 O   0  0  0  0  0  0  0  0  0  0  0  0
   -8.0080   -4.7780  -24.1480 N   0  0  0  0  0  0  0  0  0  0  0  0
   -8.1050   -4.7090  -22.6770 C   0  0  0  0  0  0  0  0  0  0  0  0
   -8.0560   -3.1590  -22.7330 C   0  0  0  0  0  0  0  0  0  0  0  0
   -7.9670   -3.3020  -24.2810 C   0  0  0  0  0  0  0  0  0  0  0  0
   -8.8140   -2.8830  -24.8280 H   0  0  0  0  0  0  0  0  0  0  0  0
   -7.0280   -2.9590  -24.7180 H   0  0  0  0  0  0  0  0  0  0  0  0
   -6.8520   -2.5370  -22.0530 C   0  0  0  0  0  0  0  0  0  0  0  0
   -5.7020   -2.8750  -22.1740 O   0  0  0  0  0  0  0  0  0  0  0  0
   -7.3360   -1.5010  -21.2490 N   0  0  0  0  0  0  0  0  0  0  0  0
   -6.6140   -0.8460  -20.2110 C   0  0  0  0  0  0  0  0  0  0  0  0
   -6.9440   -1.0740  -18.8940 C   0  0  0  0  0  0  0  0  0  0  0  0
   -6.2530   -0.5770  -17.8360 N   0  0  0  0  0  0  0  0  0  0  0  0
   -5.2270    0.1940  -18.1020 C   0  0  0  0  0  0  0  0  0  0  0  0
   -4.8120    0.5430  -19.4170 C   0  0  0  0  0  0  0  0  0  0  0  0
   -3.6800    1.3700  -19.6250 C   0  0  0  0  0  0  0  0  0  0  0  0
   -3.3080    1.7220  -20.8920 C   0  0  0  0  0  0  0  0  0  0  0  0
   -4.0690    1.2930  -22.0030 C   0  0  0  0  0  0  0  0  0  0  0  0
   -5.1510    0.4570  -21.8310 C   0  0  0  0  0  0  0  0  0  0  0  0
   -5.5310    0.0380  -20.5210 C   0  0  0  0  0  0  0  0  0  0  0  0
   -5.7010    0.1000  -22.6990 H   0  0  0  0  0  0  0  0  0  0  0  0
   -3.7650    1.5930  -23.0040 H   0  0  0  0  0  0  0  0  0  0  0  0
   -2.4240    2.3340  -21.0550 H   0  0  0  0  0  0  0  0  0  0  0  0
   -3.1200    1.6930  -18.7510 H   0  0  0  0  0  0  0  0  0  0  0  0
   -4.6490    0.5890  -17.2650 H   0  0  0  0  0  0  0  0  0  0  0  0
   -7.7910   -1.7090  -18.6390 H   0  0  0  0  0  0  0  0  0  0  0  0
   -8.7130   -1.3070  -21.4470 C   0  0  0  0  0  0  0  0  0  0  0  0
   -9.3500   -0.3590  -21.0550 O   0  0  0  0  0  0  0  0  0  0  0  0
   -9.1390   -2.3830  -22.1820 N   0  0  0  0  0  0  0  0  0  0  0  0
  -10.5280   -2.6040  -22.5060 C   0  0  0  0  0  0  0  0  0  0  0  0
  -11.0660   -3.0180  -21.6500 H   0  0  0  0  0  0  0  0  0  0  0  0
  -10.6020   -3.3120  -23.3330 H   0  0  0  0  0  0  0  0  0  0  0  0
  -10.9810   -1.6550  -22.7960 H   0  0  0  0  0  0  0  0  0  0  0  0
   -7.2130   -5.1510  -22.2250 H   0  0  0  0  0  0  0  0  0  0  0  0
   -9.0150   -5.1580  -22.2730 H   0  0  0  0  0  0  0  0  0  0  0  0
   -9.3420   -7.8520  -25.5380 H   0  0  0  0  0  0  0  0  0  0  0  0
   -7.6490   -7.2840  -25.6550 H   0  0  0  0  0  0  0  0  0  0  0  0
   -7.5420   -7.1740  -23.1230 H   0  0  0  0  0  0  0  0  0  0  0  0
   -8.0210   -8.8010  -23.5550 H   0  0  0  0  0  0  0  0  0  0  0  0
   -9.2310   -7.6440  -23.0080 H   0  0  0  0  0  0  0  0  0  0  0  0
  1  2  1  0  0  0  0
  1 42  1  0  0  0  0
  1 43  1  0  0  0  0
  1 44  1  0  0  0  0
  2  3  1  0  0  0  0
  2 40  1  0  0  0  0
  2 41  1  0  0  0  0
  3  4  2  0  0  0  0
  3  5  2  0  0  0  0
  3  6  1  0  0  0  0
  6  7  1  0  0  0  0
  6  9  1  0  0  0  0
  7  8  1  0  0  0  0
  7 38  1  0  0  0  0
  7 39  1  0  0  0  0
  8  9  1  0  0  0  0
  8 12  1  0  0  0  0
  8 33  1  0  0  0  0
  9 10  1  0  0  0  0
  9 11  1  0  0  0  0
 12 13  2  0  0  0  0
 12 14  1  0  0  0  0
 14 15  1  0  0  0  0
 14 31  1  0  0  0  0
 15 16  2  0  0  0  0
 15 24  1  0  0  0  0
 16 17  1  0  0  0  0
 16 30  1  0  0  0  0
 17 18  2  0  0  0  0
 18 19  1  0  0  0  0
 18 29  1  0  0  0  0
 19 20  2  0  0  0  0
 19 24  1  0  0  0  0
 20 21  1  0  0  0  0
 20 28  1  0  0  0  0
 21 22  2  0  0  0  0
 21 27  1  0  0  0  0
 22 23  1  0  0  0  0
 22 26  1  0  0  0  0
 23 24  2  0  0  0  0
 23 25  1  0  0  0  0
 31 32  2  0  0  0  0
 31 33  1  0  0  0  0
 33 34  1  0  0  0  0
 34 35  1  0  0  0  0
 34 36  1  0  0  0  0
 34 37  1  0  0  0  0
M  END
>  <MODEL>
       1

$$$$
