tmp_first_model_2_40.pdb
 OpenBabel08272517383D

 40 42  0  0  0  0  0  0  0  0999 V2000
   -6.4970    1.4270  -26.8580 C   0  0  0  0  0  0  0  0  0  0  0  0
   -7.5010    1.0190  -25.7820 C   0  0  0  0  0  0  0  0  0  0  0  0
   -7.3100   -0.4350  -25.3650 C   0  0  0  0  0  0  0  0  0  0  0  0
   -8.2780   -0.8310  -24.2610 C   0  0  0  0  0  0  0  0  0  0  0  0
   -8.1750    0.0870  -23.1320 N   0  0  0  0  0  0  0  0  0  0  0  0
   -8.3760   -0.3120  -21.8070 C   0  0  0  0  0  0  0  0  0  0  0  0
   -9.1750    0.2290  -21.0750 O   0  0  0  0  0  0  0  0  0  0  0  0
   -7.4430   -1.4120  -21.2710 C   0  0  0  0  0  0  0  0  0  0  0  0
   -6.5700   -0.8350  -20.1740 C   0  0  0  0  0  0  0  0  0  0  0  0
   -6.8770   -1.0410  -18.8540 C   0  0  0  0  0  0  0  0  0  0  0  0
   -6.1930   -0.5340  -17.7930 N   0  0  0  0  0  0  0  0  0  0  0  0
   -5.1570    0.2230  -18.0640 C   0  0  0  0  0  0  0  0  0  0  0  0
   -4.7230    0.5350  -19.3800 C   0  0  0  0  0  0  0  0  0  0  0  0
   -3.6020    1.3690  -19.6220 C   0  0  0  0  0  0  0  0  0  0  0  0
   -3.2120    1.6630  -20.9010 C   0  0  0  0  0  0  0  0  0  0  0  0
   -3.9320    1.1290  -21.9940 C   0  0  0  0  0  0  0  0  0  0  0  0
   -5.0190    0.3160  -21.7850 C   0  0  0  0  0  0  0  0  0  0  0  0
   -5.4490   -0.0030  -20.4710 C   0  0  0  0  0  0  0  0  0  0  0  0
   -5.5530   -0.0870  -22.6390 H   0  0  0  0  0  0  0  0  0  0  0  0
   -3.6160    1.3670  -23.0060 H   0  0  0  0  0  0  0  0  0  0  0  0
   -2.3580    2.3100  -21.0850 H   0  0  0  0  0  0  0  0  0  0  0  0
   -3.0660    1.7810  -18.7710 H   0  0  0  0  0  0  0  0  0  0  0  0
   -4.6030    0.6280  -17.2150 H   0  0  0  0  0  0  0  0  0  0  0  0
   -7.7290   -1.6610  -18.5810 H   0  0  0  0  0  0  0  0  0  0  0  0
   -8.0700   -2.2030  -20.8440 H   0  0  0  0  0  0  0  0  0  0  0  0
   -6.8340   -1.8480  -22.0730 H   0  0  0  0  0  0  0  0  0  0  0  0
   -8.3910    1.4910  -23.4640 C   0  0  0  0  0  0  0  0  0  0  0  0
   -7.4150    1.9210  -24.5560 C   0  0  0  0  0  0  0  0  0  0  0  0
   -7.6020    2.9620  -24.8410 H   0  0  0  0  0  0  0  0  0  0  0  0
   -6.3940    1.8970  -24.1550 H   0  0  0  0  0  0  0  0  0  0  0  0
   -9.4240    1.6920  -23.7870 H   0  0  0  0  0  0  0  0  0  0  0  0
   -8.2320    2.0720  -22.5560 H   0  0  0  0  0  0  0  0  0  0  0  0
   -8.0800   -1.8420  -23.9070 H   0  0  0  0  0  0  0  0  0  0  0  0
   -9.3010   -0.8430  -24.6780 H   0  0  0  0  0  0  0  0  0  0  0  0
   -7.4340   -1.0950  -26.2310 H   0  0  0  0  0  0  0  0  0  0  0  0
   -6.2850   -0.5780  -25.0070 H   0  0  0  0  0  0  0  0  0  0  0  0
   -8.5120    1.1210  -26.2010 H   0  0  0  0  0  0  0  0  0  0  0  0
   -5.4700    1.3390  -26.4820 H   0  0  0  0  0  0  0  0  0  0  0  0
   -6.5760    0.7870  -27.7450 H   0  0  0  0  0  0  0  0  0  0  0  0
   -6.6430    2.4660  -27.1750 H   0  0  0  0  0  0  0  0  0  0  0  0
  1  2  1  0  0  0  0
  1 38  1  0  0  0  0
  1 39  1  0  0  0  0
  1 40  1  0  0  0  0
  2  3  1  0  0  0  0
  2 28  1  0  0  0  0
  2 37  1  0  0  0  0
  3  4  1  0  0  0  0
  3 35  1  0  0  0  0
  3 36  1  0  0  0  0
  4  5  1  0  0  0  0
  4 33  1  0  0  0  0
  4 34  1  0  0  0  0
  5  6  1  0  0  0  0
  5 27  1  0  0  0  0
  6  7  2  0  0  0  0
  6  8  1  0  0  0  0
  8  9  1  0  0  0  0
  8 25  1  0  0  0  0
  8 26  1  0  0  0  0
  9 10  2  0  0  0  0
  9 18  1  0  0  0  0
 10 11  1  0  0  0  0
 10 24  1  0  0  0  0
 11 12  2  0  0  0  0
 12 13  1  0  0  0  0
 12 23  1  0  0  0  0
 13 14  2  0  0  0  0
 13 18  1  0  0  0  0
 14 15  1  0  0  0  0
 14 22  1  0  0  0  0
 15 16  2  0  0  0  0
 15 21  1  0  0  0  0
 16 17  1  0  0  0  0
 16 20  1  0  0  0  0
 17 18  2  0  0  0  0
 17 19  1  0  0  0  0
 27 28  1  0  0  0  0
 27 31  1  0  0  0  0
 27 32  1  0  0  0  0
 28 29  1  0  0  0  0
 28 30  1  0  0  0  0
M  END
>  <MODEL>
       1

$$$$
