tmp_first_model_14_27.pdb
 OpenBabel08282500413D

 58 62  0  0  1  0  0  0  0  0999 V2000
   -8.4930   -0.9530  -29.4120 C   0  0  0  0  0  0  0  0  0  0  0  0
   -7.9650   -0.4450  -28.1240 N   0  3  0  0  0  0  0  0  0  0  0  0
   -6.9410   -1.3390  -27.5080 C   0  0  0  0  0  0  0  0  0  0  0  0
   -7.6270   -2.4420  -26.6940 C   0  0  0  0  0  0  0  0  0  0  0  0
   -8.4960   -1.8680  -25.6740 N   0  0  0  0  0  0  0  0  0  0  0  0
   -7.9140   -1.2640  -24.4910 C   0  0  0  0  0  0  0  0  0  0  0  0
   -8.7470   -1.5480  -23.2220 C   0  0  2  0  0  0  0  0  0  0  0  0
   -8.2130   -0.5810  -22.1570 C   0  0  0  0  0  0  0  0  0  0  0  0
   -8.3990    0.6120  -22.0810 O   0  0  0  0  0  0  0  0  0  0  0  0
   -7.3880   -1.2910  -21.3130 N   0  0  0  0  0  0  0  0  0  0  0  0
   -6.6220   -0.7020  -20.2860 C   0  0  0  0  0  0  0  0  0  0  0  0
   -6.9510   -0.9610  -18.9820 C   0  0  0  0  0  0  0  0  0  0  0  0
   -6.2870   -0.4620  -17.9140 N   0  0  0  0  0  0  0  0  0  0  0  0
   -5.2350    0.2820  -18.1520 C   0  0  0  0  0  0  0  0  0  0  0  0
   -4.7510    0.5840  -19.4560 C   0  0  0  0  0  0  0  0  0  0  0  0
   -3.5930    1.3800  -19.6590 C   0  0  0  0  0  0  0  0  0  0  0  0
   -3.1440    1.6380  -20.9240 C   0  0  0  0  0  0  0  0  0  0  0  0
   -3.8210    1.1030  -22.0460 C   0  0  0  0  0  0  0  0  0  0  0  0
   -4.9470    0.3360  -21.8770 C   0  0  0  0  0  0  0  0  0  0  0  0
   -5.4540    0.0750  -20.5710 C   0  0  0  0  0  0  0  0  0  0  0  0
   -5.4570   -0.0770  -22.7440 H   0  0  0  0  0  0  0  0  0  0  0  0
   -3.4490    1.3160  -23.0450 H   0  0  0  0  0  0  0  0  0  0  0  0
   -2.2660    2.2610  -21.0740 H   0  0  0  0  0  0  0  0  0  0  0  0
   -3.0880    1.7780  -18.7820 H   0  0  0  0  0  0  0  0  0  0  0  0
   -4.7030    0.6830  -17.2890 H   0  0  0  0  0  0  0  0  0  0  0  0
   -7.8100   -1.5940  -18.7560 H   0  0  0  0  0  0  0  0  0  0  0  0
   -7.3100   -2.7030  -21.5900 C   0  0  0  0  0  0  0  0  0  0  0  0
   -8.4830   -2.9300  -22.5400 C   0  0  2  0  0  0  0  0  0  0  0  0
   -8.2990   -4.1350  -23.4480 C   0  0  0  0  0  0  0  0  0  0  0  0
   -7.3800   -4.0540  -24.0410 H   0  0  0  0  0  0  0  0  0  0  0  0
   -8.2270   -5.0520  -22.8530 H   0  0  0  0  0  0  0  0  0  0  0  0
   -9.1440   -4.2370  -24.1340 H   0  0  0  0  0  0  0  0  0  0  0  0
   -9.3690   -3.0960  -21.9090 H   0  0  0  0  0  0  0  0  0  0  0  0
   -7.4130   -3.2660  -20.6630 H   0  0  0  0  0  0  0  0  0  0  0  0
   -6.3390   -2.9870  -22.0260 H   0  0  0  0  0  0  0  0  0  0  0  0
  -10.2190   -1.3660  -23.5230 C   0  0  0  0  0  0  0  0  0  0  0  0
  -11.1390   -1.1480  -22.4890 C   0  0  0  0  0  0  0  0  0  0  0  0
  -12.4910   -1.1030  -22.7790 C   0  0  0  0  0  0  0  0  0  0  0  0
  -13.3590   -0.9040  -21.7770 F   0  0  0  0  0  0  0  0  0  0  0  0
  -13.0120   -1.2930  -24.0550 C   0  0  0  0  0  0  0  0  0  0  0  0
  -12.0970   -1.4890  -25.0700 C   0  0  0  0  0  0  0  0  0  0  0  0
  -10.7250   -1.5010  -24.8190 C   0  0  0  0  0  0  0  0  0  0  0  0
   -9.8140   -1.7130  -25.9680 C   0  0  0  0  0  0  0  0  0  0  0  0
  -10.2330   -1.7650  -27.1240 O   0  0  0  0  0  0  0  0  0  0  0  0
  -12.4200   -1.6720  -26.0860 H   0  0  0  0  0  0  0  0  0  0  0  0
  -14.0890   -1.3230  -24.2100 H   0  0  0  0  0  0  0  0  0  0  0  0
  -10.8250   -1.0450  -21.4530 H   0  0  0  0  0  0  0  0  0  0  0  0
   -6.8890   -1.6300  -24.3600 H   0  0  0  0  0  0  0  0  0  0  0  0
   -7.8370   -0.1720  -24.5910 H   0  0  0  0  0  0  0  0  0  0  0  0
   -8.2720   -3.0430  -27.3430 H   0  0  0  0  0  0  0  0  0  0  0  0
   -6.8950   -3.1170  -26.2270 H   0  0  0  0  0  0  0  0  0  0  0  0
   -6.3050   -0.7410  -26.8530 H   0  0  0  0  0  0  0  0  0  0  0  0
   -6.3090   -1.7610  -28.2960 H   0  0  0  0  0  0  0  0  0  0  0  0
   -8.7680   -0.3680  -27.4780 H   0  0  0  0  0  0  0  0  0  0  0  0
   -7.5840    0.5110  -28.2530 H   0  0  0  0  0  0  0  0  0  0  0  0
   -8.9660   -0.1430  -29.9630 H   0  0  0  0  0  0  0  0  0  0  0  0
   -9.2320   -1.7270  -29.2300 H   0  0  0  0  0  0  0  0  0  0  0  0
   -7.6840   -1.3670  -30.0130 H   0  0  0  0  0  0  0  0  0  0  0  0
  1  2  1  0  0  0  0
  1 56  1  0  0  0  0
  1 57  1  0  0  0  0
  1 58  1  0  0  0  0
  2  3  1  0  0  0  0
  2 54  1  0  0  0  0
  2 55  1  0  0  0  0
  3  4  1  0  0  0  0
  3 52  1  0  0  0  0
  3 53  1  0  0  0  0
  4  5  1  0  0  0  0
  4 50  1  0  0  0  0
  4 51  1  0  0  0  0
  5  6  1  0  0  0  0
  5 43  1  0  0  0  0
  6  7  1  0  0  0  0
  6 48  1  0  0  0  0
  6 49  1  0  0  0  0
  7  8  1  1  0  0  0
  7 28  1  0  0  0  0
  7 36  1  0  0  0  0
  8  9  2  0  0  0  0
  8 10  1  0  0  0  0
 10 11  1  0  0  0  0
 10 27  1  0  0  0  0
 11 12  2  0  0  0  0
 11 20  1  0  0  0  0
 12 13  1  0  0  0  0
 12 26  1  0  0  0  0
 13 14  2  0  0  0  0
 14 15  1  0  0  0  0
 14 25  1  0  0  0  0
 15 16  2  0  0  0  0
 15 20  1  0  0  0  0
 16 17  1  0  0  0  0
 16 24  1  0  0  0  0
 17 18  2  0  0  0  0
 17 23  1  0  0  0  0
 18 19  1  0  0  0  0
 18 22  1  0  0  0  0
 19 20  2  0  0  0  0
 19 21  1  0  0  0  0
 27 28  1  0  0  0  0
 27 34  1  0  0  0  0
 27 35  1  0  0  0  0
 28 29  1  0  0  0  0
 28 33  1  1  0  0  0
 29 30  1  0  0  0  0
 29 31  1  0  0  0  0
 29 32  1  0  0  0  0
 36 37  2  0  0  0  0
 36 42  1  0  0  0  0
 37 38  1  0  0  0  0
 37 47  1  0  0  0  0
 38 39  1  0  0  0  0
 38 40  2  0  0  0  0
 40 41  1  0  0  0  0
 40 46  1  0  0  0  0
 41 42  2  0  0  0  0
 41 45  1  0  0  0  0
 42 43  1  0  0  0  0
 43 44  2  0  0  0  0
M  CHG  1   2   1
M  END
>  <MODEL>
       1

$$$$
