tmp_first_model_11_76.pdb
 OpenBabel08272522543D

 66 71  0  0  1  0  0  0  0  0999 V2000
   -8.1930   -3.4720  -24.1010 C   0  0  0  0  0  0  0  0  0  0  0  0
   -8.4580   -2.7340  -22.7810 C   0  0  1  0  0  0  0  0  0  0  0  0
   -7.1770   -2.5240  -21.9450 C   0  0  0  0  0  0  0  0  0  0  0  0
   -7.4530   -1.3170  -21.1860 N   0  0  0  0  0  0  0  0  0  0  0  0
   -6.6170   -0.7930  -20.1650 C   0  0  0  0  0  0  0  0  0  0  0  0
   -6.9180   -1.0360  -18.8490 C   0  0  0  0  0  0  0  0  0  0  0  0
   -6.2050   -0.5540  -17.8030 N   0  0  0  0  0  0  0  0  0  0  0  0
   -5.1710    0.2050  -18.0790 C   0  0  0  0  0  0  0  0  0  0  0  0
   -4.7400    0.5340  -19.3980 C   0  0  0  0  0  0  0  0  0  0  0  0
   -3.6190    1.3750  -19.6440 C   0  0  0  0  0  0  0  0  0  0  0  0
   -3.2370    1.6740  -20.9240 C   0  0  0  0  0  0  0  0  0  0  0  0
   -3.9470    1.1350  -22.0180 C   0  0  0  0  0  0  0  0  0  0  0  0
   -5.0320    0.3130  -21.8060 C   0  0  0  0  0  0  0  0  0  0  0  0
   -5.4740    0.0070  -20.4860 C   0  0  0  0  0  0  0  0  0  0  0  0
   -5.5640   -0.0970  -22.6590 H   0  0  0  0  0  0  0  0  0  0  0  0
   -3.6450    1.3870  -23.0300 H   0  0  0  0  0  0  0  0  0  0  0  0
   -2.3980    2.3420  -21.1010 H   0  0  0  0  0  0  0  0  0  0  0  0
   -3.0950    1.7920  -18.7900 H   0  0  0  0  0  0  0  0  0  0  0  0
   -4.6210    0.6090  -17.2300 H   0  0  0  0  0  0  0  0  0  0  0  0
   -7.7720   -1.6590  -18.5950 H   0  0  0  0  0  0  0  0  0  0  0  0
   -8.5280   -0.5940  -21.6430 C   0  0  0  0  0  0  0  0  0  0  0  0
   -8.9150    0.4510  -21.1530 O   0  0  0  0  0  0  0  0  0  0  0  0
   -9.1190   -1.3250  -22.8740 C   0  0  1  0  0  0  0  0  0  0  0  0
   -8.7030   -0.5880  -24.1680 C   0  0  0  0  0  0  0  0  0  0  0  0
   -9.3070    0.7240  -24.2590 N   0  0  0  0  0  0  0  0  0  0  0  0
   -8.5160    1.7840  -24.8560 C   0  0  0  0  0  0  0  0  0  0  0  0
   -7.5560    2.4180  -23.8600 C   0  0  0  0  0  0  0  0  0  0  0  0
   -8.2850    3.2240  -22.8250 N   0  3  0  0  0  0  0  0  0  0  0  0
   -7.4840    3.3260  -21.5700 C   0  0  0  0  0  0  0  0  0  0  0  0
   -6.3280    4.2990  -21.6620 C   0  0  0  0  0  0  0  0  0  0  0  0
   -6.8000    5.5940  -21.9620 O   0  0  0  0  0  0  0  0  0  0  0  0
   -7.4430    5.5950  -23.2170 C   0  0  0  0  0  0  0  0  0  0  0  0
   -8.6480    4.6470  -23.2510 C   0  0  0  0  0  0  0  0  0  0  0  0
   -9.4030    5.0050  -22.5470 H   0  0  0  0  0  0  0  0  0  0  0  0
   -9.0700    4.6150  -24.2570 H   0  0  0  0  0  0  0  0  0  0  0  0
   -6.7190    5.3080  -23.9940 H   0  0  0  0  0  0  0  0  0  0  0  0
   -7.7650    6.6240  -23.3940 H   0  0  0  0  0  0  0  0  0  0  0  0
   -5.8430    4.3610  -20.6940 H   0  0  0  0  0  0  0  0  0  0  0  0
   -5.5860    3.9620  -22.4050 H   0  0  0  0  0  0  0  0  0  0  0  0
   -7.1380    2.3180  -21.3250 H   0  0  0  0  0  0  0  0  0  0  0  0
   -8.1600    3.6830  -20.7910 H   0  0  0  0  0  0  0  0  0  0  0  0
   -9.1460    2.6980  -22.5670 H   0  0  0  0  0  0  0  0  0  0  0  0
   -6.9900    1.6470  -23.3220 H   0  0  0  0  0  0  0  0  0  0  0  0
   -6.8370    3.0580  -24.3760 H   0  0  0  0  0  0  0  0  0  0  0  0
   -7.9350    1.3780  -25.6920 H   0  0  0  0  0  0  0  0  0  0  0  0
   -9.2170    2.5270  -25.2290 H   0  0  0  0  0  0  0  0  0  0  0  0
  -10.6570    0.8580  -24.1220 C   0  0  0  0  0  0  0  0  0  0  0  0
  -11.2670    1.8680  -24.4540 O   0  0  0  0  0  0  0  0  0  0  0  0
  -11.3470   -0.3060  -23.4700 C   0  0  0  0  0  0  0  0  0  0  0  0
  -12.7330   -0.2950  -23.4320 C   0  0  0  0  0  0  0  0  0  0  0  0
  -13.4200   -1.2350  -22.6820 C   0  0  0  0  0  0  0  0  0  0  0  0
  -12.7020   -2.1760  -21.9500 C   0  0  0  0  0  0  0  0  0  0  0  0
  -13.5630   -3.2370  -20.8770 Cl  0  0  0  0  0  0  0  0  0  0  0  0
  -11.3220   -2.2220  -22.0010 C   0  0  0  0  0  0  0  0  0  0  0  0
  -10.6290   -1.3140  -22.8110 C   0  0  0  0  0  0  0  0  0  0  0  0
  -10.8080   -2.9540  -21.3870 H   0  0  0  0  0  0  0  0  0  0  0  0
  -14.4930   -1.1560  -22.5510 H   0  0  0  0  0  0  0  0  0  0  0  0
  -13.2310    0.5360  -23.9230 H   0  0  0  0  0  0  0  0  0  0  0  0
   -7.6170   -0.4530  -24.1830 H   0  0  0  0  0  0  0  0  0  0  0  0
   -9.0040   -1.2090  -25.0290 H   0  0  0  0  0  0  0  0  0  0  0  0
   -6.9680   -3.3650  -21.2730 H   0  0  0  0  0  0  0  0  0  0  0  0
   -6.2980   -2.4010  -22.5980 H   0  0  0  0  0  0  0  0  0  0  0  0
   -9.1440   -3.3400  -22.1850 H   0  0  0  0  0  0  0  0  0  0  0  0
   -9.1000   -3.5770  -24.7090 H   0  0  0  0  0  0  0  0  0  0  0  0
   -7.4480   -2.9410  -24.7070 H   0  0  0  0  0  0  0  0  0  0  0  0
   -7.8010   -4.4790  -23.9170 H   0  0  0  0  0  0  0  0  0  0  0  0
  1  2  1  0  0  0  0
  1 64  1  0  0  0  0
  1 65  1  0  0  0  0
  1 66  1  0  0  0  0
  2  3  1  0  0  0  0
  2 23  1  0  0  0  0
  2 63  1  1  0  0  0
  3  4  1  0  0  0  0
  3 61  1  0  0  0  0
  3 62  1  0  0  0  0
  4  5  1  0  0  0  0
  4 21  1  0  0  0  0
  5  6  2  0  0  0  0
  5 14  1  0  0  0  0
  6  7  1  0  0  0  0
  6 20  1  0  0  0  0
  7  8  2  0  0  0  0
  8  9  1  0  0  0  0
  8 19  1  0  0  0  0
  9 10  2  0  0  0  0
  9 14  1  0  0  0  0
 10 11  1  0  0  0  0
 10 18  1  0  0  0  0
 11 12  2  0  0  0  0
 11 17  1  0  0  0  0
 12 13  1  0  0  0  0
 12 16  1  0  0  0  0
 13 14  2  0  0  0  0
 13 15  1  0  0  0  0
 21 22  2  0  0  0  0
 23 21  1  1  0  0  0
 23 24  1  0  0  0  0
 23 55  1  0  0  0  0
 24 25  1  0  0  0  0
 24 59  1  0  0  0  0
 24 60  1  0  0  0  0
 25 26  1  0  0  0  0
 25 47  1  0  0  0  0
 26 27  1  0  0  0  0
 26 45  1  0  0  0  0
 26 46  1  0  0  0  0
 27 28  1  0  0  0  0
 27 43  1  0  0  0  0
 27 44  1  0  0  0  0
 28 29  1  0  0  0  0
 28 33  1  0  0  0  0
 28 42  1  0  0  0  0
 29 30  1  0  0  0  0
 29 40  1  0  0  0  0
 29 41  1  0  0  0  0
 30 31  1  0  0  0  0
 30 38  1  0  0  0  0
 30 39  1  0  0  0  0
 31 32  1  0  0  0  0
 32 33  1  0  0  0  0
 32 36  1  0  0  0  0
 32 37  1  0  0  0  0
 33 34  1  0  0  0  0
 33 35  1  0  0  0  0
 47 48  2  0  0  0  0
 47 49  1  0  0  0  0
 49 50  2  0  0  0  0
 49 55  1  0  0  0  0
 50 51  1  0  0  0  0
 50 58  1  0  0  0  0
 51 52  2  0  0  0  0
 51 57  1  0  0  0  0
 52 53  1  0  0  0  0
 52 54  1  0  0  0  0
 54 55  2  0  0  0  0
 54 56  1  0  0  0  0
M  CHG  1  28   1
M  END
>  <MODEL>
       1

$$$$
