tmp_first_model_11_52.pdb
 OpenBabel08272522543D

 57 60  0  0  0  0  0  0  0  0999 V2000
   -5.5870    3.2680  -28.0820 C   0  0  0  0  0  0  0  0  0  0  0  0
   -4.9130    1.9130  -27.8190 C   0  0  0  0  0  0  0  0  0  0  0  0
   -5.5660    1.1560  -26.6580 C   0  0  0  0  0  0  0  0  0  0  0  0
   -5.1780    1.2970  -25.5140 O   0  0  0  0  0  0  0  0  0  0  0  0
   -6.6260    0.3370  -26.9890 N   0  0  0  0  0  0  0  0  0  0  0  0
   -7.2580   -0.5440  -26.0740 C   0  0  0  0  0  0  0  0  0  0  0  0
   -8.6340   -0.7780  -26.1650 C   0  0  0  0  0  0  0  0  0  0  0  0
   -9.2420   -1.6410  -25.2630 C   0  0  0  0  0  0  0  0  0  0  0  0
   -8.5100   -2.2870  -24.2760 C   0  0  0  0  0  0  0  0  0  0  0  0
   -7.1350   -2.0620  -24.1960 C   0  0  0  0  0  0  0  0  0  0  0  0
   -6.3500   -2.7120  -23.1970 N   0  0  0  0  0  0  0  0  0  0  0  0
   -5.3670   -3.7080  -23.6330 C   0  0  0  0  0  0  0  0  0  0  0  0
   -5.9790   -5.0370  -24.0340 C   0  0  0  0  0  0  0  0  0  0  0  0
   -6.5180   -5.1890  -25.3110 C   0  0  0  0  0  0  0  0  0  0  0  0
   -7.1570   -6.3690  -25.6630 C   0  0  0  0  0  0  0  0  0  0  0  0
   -7.2700   -7.4010  -24.7420 C   0  0  0  0  0  0  0  0  0  0  0  0
   -6.6710   -7.2930  -23.4880 C   0  0  0  0  0  0  0  0  0  0  0  0
   -6.0310   -6.1070  -23.1360 C   0  0  0  0  0  0  0  0  0  0  0  0
   -5.6040   -5.9870  -22.1400 H   0  0  0  0  0  0  0  0  0  0  0  0
   -6.7120   -8.1180  -22.7760 H   0  0  0  0  0  0  0  0  0  0  0  0
   -7.8680   -8.2580  -25.0370 H   0  0  0  0  0  0  0  0  0  0  0  0
   -7.6000   -6.5000  -26.6470 H   0  0  0  0  0  0  0  0  0  0  0  0
   -6.4810   -4.3640  -26.0220 H   0  0  0  0  0  0  0  0  0  0  0  0
   -4.8340   -3.2800  -24.4890 H   0  0  0  0  0  0  0  0  0  0  0  0
   -4.6690   -3.8500  -22.8060 H   0  0  0  0  0  0  0  0  0  0  0  0
   -6.6570   -2.6920  -21.8470 C   0  0  0  0  0  0  0  0  0  0  0  0
   -6.3210   -3.6090  -21.1160 O   0  0  0  0  0  0  0  0  0  0  0  0
   -7.3820   -1.4660  -21.2740 C   0  0  0  0  0  0  0  0  0  0  0  0
   -6.5730   -0.8210  -20.1740 C   0  0  0  0  0  0  0  0  0  0  0  0
   -6.8730   -1.0440  -18.8570 C   0  0  0  0  0  0  0  0  0  0  0  0
   -6.1910   -0.5370  -17.7960 N   0  0  0  0  0  0  0  0  0  0  0  0
   -5.1570    0.2220  -18.0650 C   0  0  0  0  0  0  0  0  0  0  0  0
   -4.7200    0.5340  -19.3820 C   0  0  0  0  0  0  0  0  0  0  0  0
   -3.5890    1.3540  -19.6250 C   0  0  0  0  0  0  0  0  0  0  0  0
   -3.1930    1.6310  -20.9030 C   0  0  0  0  0  0  0  0  0  0  0  0
   -3.9100    1.0970  -22.0010 C   0  0  0  0  0  0  0  0  0  0  0  0
   -5.0080    0.3000  -21.7950 C   0  0  0  0  0  0  0  0  0  0  0  0
   -5.4440   -0.0010  -20.4740 C   0  0  0  0  0  0  0  0  0  0  0  0
   -5.5450   -0.1030  -22.6550 H   0  0  0  0  0  0  0  0  0  0  0  0
   -3.6050    1.3270  -23.0170 H   0  0  0  0  0  0  0  0  0  0  0  0
   -2.3350    2.2740  -21.0820 H   0  0  0  0  0  0  0  0  0  0  0  0
   -3.0610    1.7710  -18.7700 H   0  0  0  0  0  0  0  0  0  0  0  0
   -4.6060    0.6290  -17.2150 H   0  0  0  0  0  0  0  0  0  0  0  0
   -7.7230   -1.6710  -18.5840 H   0  0  0  0  0  0  0  0  0  0  0  0
   -8.3290   -1.8240  -20.8500 H   0  0  0  0  0  0  0  0  0  0  0  0
   -7.6220   -0.7540  -22.0700 H   0  0  0  0  0  0  0  0  0  0  0  0
   -6.5080   -1.2150  -25.1070 C   0  0  0  0  0  0  0  0  0  0  0  0
   -5.4340   -1.0670  -25.0590 H   0  0  0  0  0  0  0  0  0  0  0  0
   -8.9940   -2.9700  -23.5800 H   0  0  0  0  0  0  0  0  0  0  0  0
  -10.3110   -1.8070  -25.3240 H   0  0  0  0  0  0  0  0  0  0  0  0
   -9.2290   -0.2740  -26.9230 H   0  0  0  0  0  0  0  0  0  0  0  0
   -7.0530    0.4370  -27.9000 H   0  0  0  0  0  0  0  0  0  0  0  0
   -3.8760    2.0760  -27.5090 H   0  0  0  0  0  0  0  0  0  0  0  0
   -4.8870    1.3130  -28.7400 H   0  0  0  0  0  0  0  0  0  0  0  0
   -6.6320    3.1350  -28.3880 H   0  0  0  0  0  0  0  0  0  0  0  0
   -5.0690    3.8230  -28.8770 H   0  0  0  0  0  0  0  0  0  0  0  0
   -5.5700    3.8890  -27.1790 H   0  0  0  0  0  0  0  0  0  0  0  0
  1  2  1  0  0  0  0
  1 55  1  0  0  0  0
  1 56  1  0  0  0  0
  1 57  1  0  0  0  0
  2  3  1  0  0  0  0
  2 53  1  0  0  0  0
  2 54  1  0  0  0  0
  3  4  2  0  0  0  0
  3  5  1  0  0  0  0
  5  6  1  0  0  0  0
  5 52  1  0  0  0  0
  6  7  2  0  0  0  0
  6 47  1  0  0  0  0
  7  8  1  0  0  0  0
  7 51  1  0  0  0  0
  8  9  2  0  0  0  0
  8 50  1  0  0  0  0
  9 10  1  0  0  0  0
  9 49  1  0  0  0  0
 10 11  1  0  0  0  0
 10 47  2  0  0  0  0
 11 12  1  0  0  0  0
 11 26  1  0  0  0  0
 12 13  1  0  0  0  0
 12 24  1  0  0  0  0
 12 25  1  0  0  0  0
 13 14  2  0  0  0  0
 13 18  1  0  0  0  0
 14 15  1  0  0  0  0
 14 23  1  0  0  0  0
 15 16  2  0  0  0  0
 15 22  1  0  0  0  0
 16 17  1  0  0  0  0
 16 21  1  0  0  0  0
 17 18  2  0  0  0  0
 17 20  1  0  0  0  0
 18 19  1  0  0  0  0
 26 27  2  0  0  0  0
 26 28  1  0  0  0  0
 28 29  1  0  0  0  0
 28 45  1  0  0  0  0
 28 46  1  0  0  0  0
 29 30  2  0  0  0  0
 29 38  1  0  0  0  0
 30 31  1  0  0  0  0
 30 44  1  0  0  0  0
 31 32  2  0  0  0  0
 32 33  1  0  0  0  0
 32 43  1  0  0  0  0
 33 34  2  0  0  0  0
 33 38  1  0  0  0  0
 34 35  1  0  0  0  0
 34 42  1  0  0  0  0
 35 36  2  0  0  0  0
 35 41  1  0  0  0  0
 36 37  1  0  0  0  0
 36 40  1  0  0  0  0
 37 38  2  0  0  0  0
 37 39  1  0  0  0  0
 47 48  1  0  0  0  0
M  END
>  <MODEL>
       1

$$$$
