tmp_first_model_6_23.pdb
 OpenBabel08272519583D

 68 73  0  0  1  0  0  0  0  0999 V2000
   -7.2960    3.4590  -21.9650 C   0  0  0  0  0  0  0  0  0  0  0  0
   -8.2540    2.9610  -22.9390 N   0  0  0  0  0  0  0  0  0  0  0  0
   -7.7720    2.2340  -23.9900 C   0  0  0  0  0  0  0  0  0  0  0  0
   -6.5790    2.0340  -24.1550 O   0  0  0  0  0  0  0  0  0  0  0  0
   -8.8220    1.6690  -24.9500 C   0  0  0  0  0  0  0  0  0  0  0  0
   -9.4860    0.5280  -24.3450 N   0  0  0  0  0  0  0  0  0  0  0  0
   -8.7230   -0.7020  -24.1680 C   0  0  0  0  0  0  0  0  0  0  0  0
   -9.1340   -1.4830  -22.8900 C   0  0  2  0  0  0  0  0  0  0  0  0
   -8.6030   -0.7190  -21.6450 C   0  0  0  0  0  0  0  0  0  0  0  0
   -9.0780    0.2780  -21.1410 O   0  0  0  0  0  0  0  0  0  0  0  0
   -7.4720   -1.3490  -21.1860 N   0  0  0  0  0  0  0  0  0  0  0  0
   -6.6700   -0.7760  -20.1680 C   0  0  0  0  0  0  0  0  0  0  0  0
   -6.9660   -1.0460  -18.8590 C   0  0  0  0  0  0  0  0  0  0  0  0
   -6.2510   -0.5910  -17.8030 N   0  0  0  0  0  0  0  0  0  0  0  0
   -5.2140    0.1700  -18.0600 C   0  0  0  0  0  0  0  0  0  0  0  0
   -4.7980    0.5360  -19.3720 C   0  0  0  0  0  0  0  0  0  0  0  0
   -3.6700    1.3700  -19.5980 C   0  0  0  0  0  0  0  0  0  0  0  0
   -3.3160    1.7320  -20.8700 C   0  0  0  0  0  0  0  0  0  0  0  0
   -4.0800    1.2870  -21.9730 C   0  0  0  0  0  0  0  0  0  0  0  0
   -5.1660    0.4640  -21.7830 C   0  0  0  0  0  0  0  0  0  0  0  0
   -5.5510    0.0610  -20.4730 C   0  0  0  0  0  0  0  0  0  0  0  0
   -5.7520    0.1480  -22.6410 H   0  0  0  0  0  0  0  0  0  0  0  0
   -3.8150    1.5990  -22.9800 H   0  0  0  0  0  0  0  0  0  0  0  0
   -2.4510    2.3670  -21.0390 H   0  0  0  0  0  0  0  0  0  0  0  0
   -3.1110    1.7210  -18.7350 H   0  0  0  0  0  0  0  0  0  0  0  0
   -4.6400    0.5410  -17.2100 H   0  0  0  0  0  0  0  0  0  0  0  0
   -7.8260   -1.6700  -18.6240 H   0  0  0  0  0  0  0  0  0  0  0  0
   -7.0980   -2.5200  -21.9430 C   0  0  0  0  0  0  0  0  0  0  0  0
   -8.3620   -2.8430  -22.7550 C   0  0  2  0  0  0  0  0  0  0  0  0
   -7.9610   -3.6200  -24.0120 C   0  0  0  0  0  0  0  0  0  0  0  0
   -9.0900   -4.2650  -24.6310 N   0  0  0  0  0  0  0  0  0  0  0  0
   -8.9930   -4.8850  -25.8740 C   0  0  0  0  0  0  0  0  0  0  0  0
  -10.1350   -5.5260  -26.3810 C   0  0  0  0  0  0  0  0  0  0  0  0
  -10.1330   -6.0770  -27.6550 C   0  0  0  0  0  0  0  0  0  0  0  0
   -9.0010   -5.9860  -28.4650 C   0  0  0  0  0  0  0  0  0  0  0  0
   -7.8360   -5.4470  -27.9300 C   0  0  0  0  0  0  0  0  0  0  0  0
   -7.8100   -4.9270  -26.6370 C   0  0  0  0  0  0  0  0  0  0  0  0
   -6.8710   -4.5780  -26.2200 H   0  0  0  0  0  0  0  0  0  0  0  0
   -6.9290   -5.4430  -28.5330 H   0  0  0  0  0  0  0  0  0  0  0  0
   -9.0250   -6.3760  -29.4790 H   0  0  0  0  0  0  0  0  0  0  0  0
  -11.0380   -6.5690  -28.0180 H   0  0  0  0  0  0  0  0  0  0  0  0
  -11.0400   -5.5960  -25.7710 H   0  0  0  0  0  0  0  0  0  0  0  0
   -9.9980   -3.8600  -24.4330 H   0  0  0  0  0  0  0  0  0  0  0  0
   -7.2270   -4.3860  -23.7270 H   0  0  0  0  0  0  0  0  0  0  0  0
   -7.4120   -2.9550  -24.7010 H   0  0  0  0  0  0  0  0  0  0  0  0
   -8.9840   -3.5100  -22.1520 H   0  0  0  0  0  0  0  0  0  0  0  0
   -6.8080   -3.3450  -21.2800 H   0  0  0  0  0  0  0  0  0  0  0  0
   -6.2440   -2.3120  -22.6100 H   0  0  0  0  0  0  0  0  0  0  0  0
  -10.6550   -1.5400  -22.8170 C   0  0  0  0  0  0  0  0  0  0  0  0
  -11.3010   -2.4040  -21.9220 C   0  0  0  0  0  0  0  0  0  0  0  0
  -12.6730   -2.3160  -21.7390 C   0  0  0  0  0  0  0  0  0  0  0  0
  -13.4390   -3.2180  -20.4670 Cl  0  0  0  0  0  0  0  0  0  0  0  0
  -13.4620   -1.4330  -22.4750 C   0  0  0  0  0  0  0  0  0  0  0  0
  -12.8360   -0.5750  -23.3510 C   0  0  0  0  0  0  0  0  0  0  0  0
  -11.4470   -0.5840  -23.4740 C   0  0  0  0  0  0  0  0  0  0  0  0
  -10.8450    0.5560  -24.2320 C   0  0  0  0  0  0  0  0  0  0  0  0
  -11.5340    1.4670  -24.6740 O   0  0  0  0  0  0  0  0  0  0  0  0
  -13.3920    0.1560  -23.9260 H   0  0  0  0  0  0  0  0  0  0  0  0
  -14.5330   -1.3850  -22.3100 H   0  0  0  0  0  0  0  0  0  0  0  0
  -10.7420   -3.1090  -21.3170 H   0  0  0  0  0  0  0  0  0  0  0  0
   -7.6630   -0.4350  -24.1060 H   0  0  0  0  0  0  0  0  0  0  0  0
   -8.8620   -1.3400  -25.0510 H   0  0  0  0  0  0  0  0  0  0  0  0
   -8.3300    1.3880  -25.8890 H   0  0  0  0  0  0  0  0  0  0  0  0
   -9.6030    2.4010  -25.1780 H   0  0  0  0  0  0  0  0  0  0  0  0
   -9.1810    2.7430  -22.5940 H   0  0  0  0  0  0  0  0  0  0  0  0
   -6.7420    2.6320  -21.5010 H   0  0  0  0  0  0  0  0  0  0  0  0
   -7.8140    4.0330  -21.1940 H   0  0  0  0  0  0  0  0  0  0  0  0
   -6.5760    4.1120  -22.4640 H   0  0  0  0  0  0  0  0  0  0  0  0
  1  2  1  0  0  0  0
  1 66  1  0  0  0  0
  1 67  1  0  0  0  0
  1 68  1  0  0  0  0
  2  3  1  0  0  0  0
  2 65  1  0  0  0  0
  3  4  2  0  0  0  0
  3  5  1  0  0  0  0
  5  6  1  0  0  0  0
  5 63  1  0  0  0  0
  5 64  1  0  0  0  0
  6  7  1  0  0  0  0
  6 56  1  0  0  0  0
  7  8  1  0  0  0  0
  7 61  1  0  0  0  0
  7 62  1  0  0  0  0
  8  9  1  1  0  0  0
  8 29  1  0  0  0  0
  8 49  1  0  0  0  0
  9 10  2  0  0  0  0
  9 11  1  0  0  0  0
 11 12  1  0  0  0  0
 11 28  1  0  0  0  0
 12 13  2  0  0  0  0
 12 21  1  0  0  0  0
 13 14  1  0  0  0  0
 13 27  1  0  0  0  0
 14 15  2  0  0  0  0
 15 16  1  0  0  0  0
 15 26  1  0  0  0  0
 16 17  2  0  0  0  0
 16 21  1  0  0  0  0
 17 18  1  0  0  0  0
 17 25  1  0  0  0  0
 18 19  2  0  0  0  0
 18 24  1  0  0  0  0
 19 20  1  0  0  0  0
 19 23  1  0  0  0  0
 20 21  2  0  0  0  0
 20 22  1  0  0  0  0
 28 29  1  0  0  0  0
 28 47  1  0  0  0  0
 28 48  1  0  0  0  0
 29 30  1  0  0  0  0
 29 46  1  1  0  0  0
 30 31  1  0  0  0  0
 30 44  1  0  0  0  0
 30 45  1  0  0  0  0
 31 32  1  0  0  0  0
 31 43  1  0  0  0  0
 32 33  2  0  0  0  0
 32 37  1  0  0  0  0
 33 34  1  0  0  0  0
 33 42  1  0  0  0  0
 34 35  2  0  0  0  0
 34 41  1  0  0  0  0
 35 36  1  0  0  0  0
 35 40  1  0  0  0  0
 36 37  2  0  0  0  0
 36 39  1  0  0  0  0
 37 38  1  0  0  0  0
 49 50  2  0  0  0  0
 49 55  1  0  0  0  0
 50 51  1  0  0  0  0
 50 60  1  0  0  0  0
 51 52  1  0  0  0  0
 51 53  2  0  0  0  0
 53 54  1  0  0  0  0
 53 59  1  0  0  0  0
 54 55  2  0  0  0  0
 54 58  1  0  0  0  0
 55 56  1  0  0  0  0
 56 57  2  0  0  0  0
M  END
>  <MODEL>
       1

$$$$
