tmp_first_model_15_85.pdb
 OpenBabel08282501153D

 57 62  0  0  1  0  0  0  0  0999 V2000
   -9.2820    1.0470  -29.3040 C   0  0  0  0  0  0  0  0  0  0  0  0
   -9.1720    1.3780  -27.8980 N   0  0  0  0  0  0  0  0  0  0  0  0
   -8.2850    0.6930  -27.1290 C   0  0  0  0  0  0  0  0  0  0  0  0
   -7.5330   -0.1610  -27.5640 O   0  0  0  0  0  0  0  0  0  0  0  0
   -8.3100    1.0820  -25.6500 C   0  0  0  0  0  0  0  0  0  0  0  0
   -9.1550    0.2050  -24.8730 N   0  0  0  0  0  0  0  0  0  0  0  0
   -8.6620   -1.1120  -24.5170 C   0  0  0  0  0  0  0  0  0  0  0  0
   -8.9650   -1.4700  -23.0440 C   0  0  2  0  0  0  0  0  0  0  0  0
   -8.1530   -0.5630  -22.0930 C   0  0  0  0  0  0  0  0  0  0  0  0
   -8.1570    0.6490  -22.0680 O   0  0  0  0  0  0  0  0  0  0  0  0
   -7.3860   -1.3460  -21.2530 N   0  0  0  0  0  0  0  0  0  0  0  0
   -6.5960   -0.8100  -20.2080 C   0  0  0  0  0  0  0  0  0  0  0  0
   -6.9040   -1.0670  -18.8950 C   0  0  0  0  0  0  0  0  0  0  0  0
   -6.2260   -0.5660  -17.8320 N   0  0  0  0  0  0  0  0  0  0  0  0
   -5.1940    0.2020  -18.0880 C   0  0  0  0  0  0  0  0  0  0  0  0
   -4.7400    0.5170  -19.4000 C   0  0  0  0  0  0  0  0  0  0  0  0
   -3.6100    1.3470  -19.6230 C   0  0  0  0  0  0  0  0  0  0  0  0
   -3.1850    1.6170  -20.8930 C   0  0  0  0  0  0  0  0  0  0  0  0
   -3.8640    1.0660  -22.0040 C   0  0  0  0  0  0  0  0  0  0  0  0
   -4.9580    0.2620  -21.8150 C   0  0  0  0  0  0  0  0  0  0  0  0
   -5.4430   -0.0140  -20.5050 C   0  0  0  0  0  0  0  0  0  0  0  0
   -5.4740   -0.1580  -22.6730 H   0  0  0  0  0  0  0  0  0  0  0  0
   -3.5210    1.2880  -23.0110 H   0  0  0  0  0  0  0  0  0  0  0  0
   -2.3260    2.2620  -21.0620 H   0  0  0  0  0  0  0  0  0  0  0  0
   -3.1020    1.7680  -18.7580 H   0  0  0  0  0  0  0  0  0  0  0  0
   -4.6470    0.6090  -17.2350 H   0  0  0  0  0  0  0  0  0  0  0  0
   -7.7660   -1.6860  -18.6450 H   0  0  0  0  0  0  0  0  0  0  0  0
   -7.6370   -2.7570  -21.3840 C   0  0  0  0  0  0  0  0  0  0  0  0
   -8.4760   -2.8770  -22.6470 C   0  0  0  0  0  0  0  0  0  0  0  0
   -9.3420   -4.0890  -22.8210 C   0  0  0  0  0  0  0  0  0  0  0  0
   -8.0950   -3.9420  -23.6440 C   0  0  0  0  0  0  0  0  0  0  0  0
   -7.2390   -4.5750  -23.4130 H   0  0  0  0  0  0  0  0  0  0  0  0
   -8.1930   -3.7110  -24.7020 H   0  0  0  0  0  0  0  0  0  0  0  0
   -9.3700   -4.8230  -22.0170 H   0  0  0  0  0  0  0  0  0  0  0  0
  -10.2990   -3.9480  -23.3160 H   0  0  0  0  0  0  0  0  0  0  0  0
   -6.6930   -3.3090  -21.4480 H   0  0  0  0  0  0  0  0  0  0  0  0
   -8.1950   -3.1230  -20.5190 H   0  0  0  0  0  0  0  0  0  0  0  0
  -10.4600   -1.2210  -22.8630 C   0  0  0  0  0  0  0  0  0  0  0  0
  -11.1840   -1.9580  -21.9250 C   0  0  0  0  0  0  0  0  0  0  0  0
  -12.5530   -1.7880  -21.8390 C   0  0  0  0  0  0  0  0  0  0  0  0
  -13.4610   -2.9260  -20.8870 Cl  0  0  0  0  0  0  0  0  0  0  0  0
  -13.2070   -0.7380  -22.4750 C   0  0  0  0  0  0  0  0  0  0  0  0
  -12.4780    0.0490  -23.3450 C   0  0  0  0  0  0  0  0  0  0  0  0
  -11.1430   -0.2430  -23.6010 C   0  0  0  0  0  0  0  0  0  0  0  0
  -10.4480    0.5710  -24.6440 C   0  0  0  0  0  0  0  0  0  0  0  0
  -10.9720    1.5160  -25.2280 O   0  0  0  0  0  0  0  0  0  0  0  0
  -12.9080    0.8930  -23.8700 H   0  0  0  0  0  0  0  0  0  0  0  0
  -14.2540   -0.5510  -22.2680 H   0  0  0  0  0  0  0  0  0  0  0  0
  -10.6890   -2.6850  -21.2890 H   0  0  0  0  0  0  0  0  0  0  0  0
   -7.5890   -1.1340  -24.7140 H   0  0  0  0  0  0  0  0  0  0  0  0
   -9.1460   -1.8640  -25.1530 H   0  0  0  0  0  0  0  0  0  0  0  0
   -8.6910    2.0970  -25.5180 H   0  0  0  0  0  0  0  0  0  0  0  0
   -7.2880    1.0000  -25.2600 H   0  0  0  0  0  0  0  0  0  0  0  0
   -9.9080    1.8970  -27.4420 H   0  0  0  0  0  0  0  0  0  0  0  0
   -9.5300   -0.0100  -29.4380 H   0  0  0  0  0  0  0  0  0  0  0  0
  -10.0540    1.6650  -29.7670 H   0  0  0  0  0  0  0  0  0  0  0  0
   -8.3300    1.2300  -29.8090 H   0  0  0  0  0  0  0  0  0  0  0  0
  1  2  1  0  0  0  0
  1 55  1  0  0  0  0
  1 56  1  0  0  0  0
  1 57  1  0  0  0  0
  2  3  1  0  0  0  0
  2 54  1  0  0  0  0
  3  4  2  0  0  0  0
  3  5  1  0  0  0  0
  5  6  1  0  0  0  0
  5 52  1  0  0  0  0
  5 53  1  0  0  0  0
  6  7  1  0  0  0  0
  6 45  1  0  0  0  0
  7  8  1  0  0  0  0
  7 50  1  0  0  0  0
  7 51  1  0  0  0  0
  8  9  1  1  0  0  0
  8 29  1  0  0  0  0
  8 38  1  0  0  0  0
  9 10  2  0  0  0  0
  9 11  1  0  0  0  0
 11 12  1  0  0  0  0
 11 28  1  0  0  0  0
 12 13  2  0  0  0  0
 12 21  1  0  0  0  0
 13 14  1  0  0  0  0
 13 27  1  0  0  0  0
 14 15  2  0  0  0  0
 15 16  1  0  0  0  0
 15 26  1  0  0  0  0
 16 17  2  0  0  0  0
 16 21  1  0  0  0  0
 17 18  1  0  0  0  0
 17 25  1  0  0  0  0
 18 19  2  0  0  0  0
 18 24  1  0  0  0  0
 19 20  1  0  0  0  0
 19 23  1  0  0  0  0
 20 21  2  0  0  0  0
 20 22  1  0  0  0  0
 28 29  1  0  0  0  0
 28 36  1  0  0  0  0
 28 37  1  0  0  0  0
 29 30  1  0  0  0  0
 29 31  1  0  0  0  0
 30 31  1  0  0  0  0
 30 34  1  0  0  0  0
 30 35  1  0  0  0  0
 31 32  1  0  0  0  0
 31 33  1  0  0  0  0
 38 39  2  0  0  0  0
 38 44  1  0  0  0  0
 39 40  1  0  0  0  0
 39 49  1  0  0  0  0
 40 41  1  0  0  0  0
 40 42  2  0  0  0  0
 42 43  1  0  0  0  0
 42 48  1  0  0  0  0
 43 44  2  0  0  0  0
 43 47  1  0  0  0  0
 44 45  1  0  0  0  0
 45 46  2  0  0  0  0
M  END
>  <MODEL>
       1

$$$$
