tmp_first_model_14_37.pdb
 OpenBabel08282500413D

 56 60  0  0  1  0  0  0  0  0999 V2000
  -14.4920   -1.5580  -23.7450 C   0  0  0  0  0  0  0  0  0  0  0  0
  -13.7560   -2.7120  -23.2760 N   0  0  0  0  0  0  0  0  0  0  0  0
  -13.3560   -2.7280  -21.9810 C   0  0  0  0  0  0  0  0  0  0  0  0
  -13.7160   -1.8930  -21.1670 O   0  0  0  0  0  0  0  0  0  0  0  0
  -12.4580   -3.9070  -21.6570 C   0  0  0  0  0  0  0  0  0  0  0  0
  -11.1350   -3.8500  -22.2540 N   0  0  0  0  0  0  0  0  0  0  0  0
  -10.0050   -3.3710  -21.4670 C   0  0  0  0  0  0  0  0  0  0  0  0
   -8.8110   -2.9160  -22.3410 C   0  0  2  0  0  0  0  0  0  0  0  0
   -7.5540   -2.6750  -21.4820 C   0  0  0  0  0  0  0  0  0  0  0  0
   -6.7420   -3.5040  -21.1300 O   0  0  0  0  0  0  0  0  0  0  0  0
   -7.4360   -1.3260  -21.2320 N   0  0  0  0  0  0  0  0  0  0  0  0
   -6.6000   -0.8200  -20.2090 C   0  0  0  0  0  0  0  0  0  0  0  0
   -6.9120   -1.0480  -18.8940 C   0  0  0  0  0  0  0  0  0  0  0  0
   -6.2460   -0.4990  -17.8490 N   0  0  0  0  0  0  0  0  0  0  0  0
   -5.2050    0.2490  -18.1090 C   0  0  0  0  0  0  0  0  0  0  0  0
   -4.7500    0.5360  -19.4260 C   0  0  0  0  0  0  0  0  0  0  0  0
   -3.6110    1.3470  -19.6590 C   0  0  0  0  0  0  0  0  0  0  0  0
   -3.2040    1.6130  -20.9360 C   0  0  0  0  0  0  0  0  0  0  0  0
   -3.9100    1.0750  -22.0340 C   0  0  0  0  0  0  0  0  0  0  0  0
   -5.0140    0.2820  -21.8360 C   0  0  0  0  0  0  0  0  0  0  0  0
   -5.4670   -0.0020  -20.5190 C   0  0  0  0  0  0  0  0  0  0  0  0
   -5.5400   -0.1420  -22.6860 H   0  0  0  0  0  0  0  0  0  0  0  0
   -3.5770    1.2990  -23.0430 H   0  0  0  0  0  0  0  0  0  0  0  0
   -2.3460    2.2540  -21.1130 H   0  0  0  0  0  0  0  0  0  0  0  0
   -3.0870    1.7560  -18.8010 H   0  0  0  0  0  0  0  0  0  0  0  0
   -4.6530    0.6600  -17.2600 H   0  0  0  0  0  0  0  0  0  0  0  0
   -7.7540   -1.6840  -18.6360 H   0  0  0  0  0  0  0  0  0  0  0  0
   -8.4260   -0.5160  -21.9120 C   0  0  0  0  0  0  0  0  0  0  0  0
   -9.0420   -1.4840  -22.9340 C   0  0  2  0  0  0  0  0  0  0  0  0
  -10.4880   -1.1460  -23.2710 C   0  0  0  0  0  0  0  0  0  0  0  0
  -10.9110   -1.9150  -23.9230 H   0  0  0  0  0  0  0  0  0  0  0  0
  -10.5590   -0.1760  -23.7690 H   0  0  0  0  0  0  0  0  0  0  0  0
  -11.0950   -1.1110  -22.3580 H   0  0  0  0  0  0  0  0  0  0  0  0
   -8.4320   -1.4480  -23.8480 H   0  0  0  0  0  0  0  0  0  0  0  0
   -9.1840   -0.1420  -21.2050 H   0  0  0  0  0  0  0  0  0  0  0  0
   -7.9620    0.3460  -22.4050 H   0  0  0  0  0  0  0  0  0  0  0  0
   -8.5490   -3.9690  -23.3870 C   0  0  0  0  0  0  0  0  0  0  0  0
   -7.2780   -4.1110  -23.9470 C   0  0  0  0  0  0  0  0  0  0  0  0
   -7.0450   -5.0490  -24.9360 C   0  0  0  0  0  0  0  0  0  0  0  0
   -8.0680   -5.8870  -25.3720 C   0  0  0  0  0  0  0  0  0  0  0  0
   -9.3330   -5.7480  -24.8320 C   0  0  0  0  0  0  0  0  0  0  0  0
   -9.5850   -4.7660  -23.8770 C   0  0  0  0  0  0  0  0  0  0  0  0
  -10.9820   -4.5390  -23.4170 C   0  0  0  0  0  0  0  0  0  0  0  0
  -11.9590   -4.9260  -24.0680 O   0  0  0  0  0  0  0  0  0  0  0  0
  -10.1470   -6.3910  -25.1400 H   0  0  0  0  0  0  0  0  0  0  0  0
   -7.8730   -6.6290  -26.1410 H   0  0  0  0  0  0  0  0  0  0  0  0
   -6.0640   -5.1040  -25.3910 H   0  0  0  0  0  0  0  0  0  0  0  0
   -6.4630   -3.4880  -23.5950 H   0  0  0  0  0  0  0  0  0  0  0  0
  -10.3430   -2.5120  -20.8780 H   0  0  0  0  0  0  0  0  0  0  0  0
   -9.6950   -4.1780  -20.7990 H   0  0  0  0  0  0  0  0  0  0  0  0
  -12.4230   -4.0530  -20.5790 H   0  0  0  0  0  0  0  0  0  0  0  0
  -12.9480   -4.7460  -22.1480 H   0  0  0  0  0  0  0  0  0  0  0  0
  -13.4770   -3.4710  -23.8930 H   0  0  0  0  0  0  0  0  0  0  0  0
  -13.8700   -0.6520  -23.7390 H   0  0  0  0  0  0  0  0  0  0  0  0
  -15.3440   -1.3710  -23.0850 H   0  0  0  0  0  0  0  0  0  0  0  0
  -14.8520   -1.7230  -24.7620 H   0  0  0  0  0  0  0  0  0  0  0  0
  1  2  1  0  0  0  0
  1 54  1  0  0  0  0
  1 55  1  0  0  0  0
  1 56  1  0  0  0  0
  2  3  1  0  0  0  0
  2 53  1  0  0  0  0
  3  4  2  0  0  0  0
  3  5  1  0  0  0  0
  5  6  1  0  0  0  0
  5 51  1  0  0  0  0
  5 52  1  0  0  0  0
  6  7  1  0  0  0  0
  6 43  1  0  0  0  0
  7  8  1  0  0  0  0
  7 49  1  0  0  0  0
  7 50  1  0  0  0  0
  8  9  1  1  0  0  0
  8 29  1  0  0  0  0
  8 37  1  0  0  0  0
  9 10  2  0  0  0  0
  9 11  1  0  0  0  0
 11 12  1  0  0  0  0
 11 28  1  0  0  0  0
 12 13  2  0  0  0  0
 12 21  1  0  0  0  0
 13 14  1  0  0  0  0
 13 27  1  0  0  0  0
 14 15  2  0  0  0  0
 15 16  1  0  0  0  0
 15 26  1  0  0  0  0
 16 17  2  0  0  0  0
 16 21  1  0  0  0  0
 17 18  1  0  0  0  0
 17 25  1  0  0  0  0
 18 19  2  0  0  0  0
 18 24  1  0  0  0  0
 19 20  1  0  0  0  0
 19 23  1  0  0  0  0
 20 21  2  0  0  0  0
 20 22  1  0  0  0  0
 28 29  1  0  0  0  0
 28 35  1  0  0  0  0
 28 36  1  0  0  0  0
 29 30  1  0  0  0  0
 29 34  1  6  0  0  0
 30 31  1  0  0  0  0
 30 32  1  0  0  0  0
 30 33  1  0  0  0  0
 37 38  2  0  0  0  0
 37 42  1  0  0  0  0
 38 39  1  0  0  0  0
 38 48  1  0  0  0  0
 39 40  2  0  0  0  0
 39 47  1  0  0  0  0
 40 41  1  0  0  0  0
 40 46  1  0  0  0  0
 41 42  2  0  0  0  0
 41 45  1  0  0  0  0
 42 43  1  0  0  0  0
 43 44  2  0  0  0  0
M  END
>  <MODEL>
       1

$$$$
