tmp_first_model_4_49.pdb
 OpenBabel08272518513D

 67 72  0  0  1  0  0  0  0  0999 V2000
   -7.3380    3.3640  -21.8680 C   0  0  0  0  0  0  0  0  0  0  0  0
   -8.2510    2.9160  -22.9100 N   0  0  0  0  0  0  0  0  0  0  0  0
   -7.7020    2.2030  -23.9380 C   0  0  0  0  0  0  0  0  0  0  0  0
   -6.4950    2.0420  -24.0560 O   0  0  0  0  0  0  0  0  0  0  0  0
   -8.6800    1.6030  -24.9470 C   0  0  0  0  0  0  0  0  0  0  0  0
   -9.3680    0.4620  -24.3710 N   0  0  0  0  0  0  0  0  0  0  0  0
   -8.6340   -0.7840  -24.2040 C   0  0  0  0  0  0  0  0  0  0  0  0
   -9.0390   -1.5180  -22.9010 C   0  0  2  0  0  0  0  0  0  0  0  0
   -8.4940   -0.7580  -21.6620 C   0  0  0  0  0  0  0  0  0  0  0  0
   -8.9380    0.2530  -21.1580 O   0  0  0  0  0  0  0  0  0  0  0  0
   -7.3790   -1.4270  -21.2190 N   0  0  0  0  0  0  0  0  0  0  0  0
   -6.5140   -0.9570  -20.2090 C   0  0  0  0  0  0  0  0  0  0  0  0
   -6.7690   -1.2590  -18.9010 C   0  0  0  0  0  0  0  0  0  0  0  0
   -5.9130   -1.0060  -17.8810 N   0  0  0  0  0  0  0  0  0  0  0  0
   -4.7830   -0.4100  -18.1730 C   0  0  0  0  0  0  0  0  0  0  0  0
   -4.4330    0.0240  -19.4840 C   0  0  0  0  0  0  0  0  0  0  0  0
   -3.2670    0.7860  -19.7420 C   0  0  0  0  0  0  0  0  0  0  0  0
   -3.0510    1.3190  -20.9850 C   0  0  0  0  0  0  0  0  0  0  0  0
   -3.9340    1.0300  -22.0510 C   0  0  0  0  0  0  0  0  0  0  0  0
   -5.0400    0.2470  -21.8400 C   0  0  0  0  0  0  0  0  0  0  0  0
   -5.3190   -0.2600  -20.5450 C   0  0  0  0  0  0  0  0  0  0  0  0
   -5.7130    0.0260  -22.6640 H   0  0  0  0  0  0  0  0  0  0  0  0
   -3.7740    1.4740  -23.0280 H   0  0  0  0  0  0  0  0  0  0  0  0
   -2.2050    1.9770  -21.1530 H   0  0  0  0  0  0  0  0  0  0  0  0
   -2.6060    0.9840  -18.9040 H   0  0  0  0  0  0  0  0  0  0  0  0
   -4.0810   -0.2140  -17.3610 H   0  0  0  0  0  0  0  0  0  0  0  0
   -7.7070   -1.7540  -18.6550 H   0  0  0  0  0  0  0  0  0  0  0  0
   -7.0370   -2.6070  -21.9640 C   0  0  0  0  0  0  0  0  0  0  0  0
   -8.3110   -2.8920  -22.7630 C   0  0  2  0  0  0  0  0  0  0  0  0
   -7.9840   -3.6740  -24.0390 C   0  0  0  0  0  0  0  0  0  0  0  0
   -7.4690   -4.9880  -23.7310 N   0  0  0  0  0  0  0  0  0  0  0  0
   -6.1390   -5.2940  -23.6350 C   0  0  0  0  0  0  0  0  0  0  0  0
   -5.0350   -4.5680  -23.9850 C   0  0  0  0  0  0  0  0  0  0  0  0
   -3.8140   -5.1710  -23.7780 N   0  0  0  0  0  0  0  0  0  0  0  0
   -3.9550   -6.3630  -23.2930 C   0  0  0  0  0  0  0  0  0  0  0  0
   -2.8180   -7.2810  -22.9850 C   0  0  0  0  0  0  0  0  0  0  0  0
   -3.0290   -7.9100  -22.1200 H   0  0  0  0  0  0  0  0  0  0  0  0
   -2.6220   -7.9460  -23.8320 H   0  0  0  0  0  0  0  0  0  0  0  0
   -1.9220   -6.6880  -22.8010 H   0  0  0  0  0  0  0  0  0  0  0  0
   -5.6140   -6.8540  -23.0340 S   0  0  0  0  0  0  0  0  0  0  0  0
   -5.0520   -3.5750  -24.4200 H   0  0  0  0  0  0  0  0  0  0  0  0
   -8.1260   -5.7200  -23.5130 H   0  0  0  0  0  0  0  0  0  0  0  0
   -8.8750   -3.7760  -24.6690 H   0  0  0  0  0  0  0  0  0  0  0  0
   -7.2240   -3.1330  -24.6150 H   0  0  0  0  0  0  0  0  0  0  0  0
   -8.9470   -3.5330  -22.1460 H   0  0  0  0  0  0  0  0  0  0  0  0
   -6.1590   -2.4570  -22.6190 H   0  0  0  0  0  0  0  0  0  0  0  0
   -6.7880   -3.4210  -21.2780 H   0  0  0  0  0  0  0  0  0  0  0  0
  -10.5530   -1.5700  -22.8450 C   0  0  0  0  0  0  0  0  0  0  0  0
  -11.1980   -2.4730  -21.9960 C   0  0  0  0  0  0  0  0  0  0  0  0
  -12.5770   -2.4890  -21.9170 C   0  0  0  0  0  0  0  0  0  0  0  0
  -13.3370   -3.6080  -20.8300 Cl  0  0  0  0  0  0  0  0  0  0  0  0
  -13.3720   -1.6200  -22.6640 C   0  0  0  0  0  0  0  0  0  0  0  0
  -12.7380   -0.6950  -23.4650 C   0  0  0  0  0  0  0  0  0  0  0  0
  -11.3470   -0.6450  -23.5330 C   0  0  0  0  0  0  0  0  0  0  0  0
  -10.7330    0.4810  -24.3020 C   0  0  0  0  0  0  0  0  0  0  0  0
  -11.4090    1.3740  -24.8030 O   0  0  0  0  0  0  0  0  0  0  0  0
  -13.2960    0.0340  -24.0380 H   0  0  0  0  0  0  0  0  0  0  0  0
  -14.4530   -1.6570  -22.5860 H   0  0  0  0  0  0  0  0  0  0  0  0
  -10.6390   -3.1560  -21.3670 H   0  0  0  0  0  0  0  0  0  0  0  0
   -7.5600   -0.5650  -24.2040 H   0  0  0  0  0  0  0  0  0  0  0  0
   -8.8410   -1.4460  -25.0550 H   0  0  0  0  0  0  0  0  0  0  0  0
   -9.4440    2.3250  -25.2560 H   0  0  0  0  0  0  0  0  0  0  0  0
   -8.1050    1.2960  -25.8270 H   0  0  0  0  0  0  0  0  0  0  0  0
   -9.2100    2.7340  -22.6330 H   0  0  0  0  0  0  0  0  0  0  0  0
   -6.7410    2.5160  -21.4960 H   0  0  0  0  0  0  0  0  0  0  0  0
   -6.6570    4.1220  -22.2680 H   0  0  0  0  0  0  0  0  0  0  0  0
   -7.9060    3.8230  -21.0560 H   0  0  0  0  0  0  0  0  0  0  0  0
  1  2  1  0  0  0  0
  1 65  1  0  0  0  0
  1 66  1  0  0  0  0
  1 67  1  0  0  0  0
  2  3  1  0  0  0  0
  2 64  1  0  0  0  0
  3  4  2  0  0  0  0
  3  5  1  0  0  0  0
  5  6  1  0  0  0  0
  5 62  1  0  0  0  0
  5 63  1  0  0  0  0
  6  7  1  0  0  0  0
  6 55  1  0  0  0  0
  7  8  1  0  0  0  0
  7 60  1  0  0  0  0
  7 61  1  0  0  0  0
  8  9  1  1  0  0  0
  8 29  1  0  0  0  0
  8 48  1  0  0  0  0
  9 10  2  0  0  0  0
  9 11  1  0  0  0  0
 11 12  1  0  0  0  0
 11 28  1  0  0  0  0
 12 13  2  0  0  0  0
 12 21  1  0  0  0  0
 13 14  1  0  0  0  0
 13 27  1  0  0  0  0
 14 15  2  0  0  0  0
 15 16  1  0  0  0  0
 15 26  1  0  0  0  0
 16 17  2  0  0  0  0
 16 21  1  0  0  0  0
 17 18  1  0  0  0  0
 17 25  1  0  0  0  0
 18 19  2  0  0  0  0
 18 24  1  0  0  0  0
 19 20  1  0  0  0  0
 19 23  1  0  0  0  0
 20 21  2  0  0  0  0
 20 22  1  0  0  0  0
 28 29  1  0  0  0  0
 28 46  1  0  0  0  0
 28 47  1  0  0  0  0
 29 30  1  0  0  0  0
 29 45  1  1  0  0  0
 30 31  1  0  0  0  0
 30 43  1  0  0  0  0
 30 44  1  0  0  0  0
 31 32  1  0  0  0  0
 31 42  1  0  0  0  0
 32 33  2  0  0  0  0
 32 40  1  0  0  0  0
 33 34  1  0  0  0  0
 33 41  1  0  0  0  0
 34 35  2  0  0  0  0
 35 36  1  0  0  0  0
 35 40  1  0  0  0  0
 36 37  1  0  0  0  0
 36 38  1  0  0  0  0
 36 39  1  0  0  0  0
 48 49  2  0  0  0  0
 48 54  1  0  0  0  0
 49 50  1  0  0  0  0
 49 59  1  0  0  0  0
 50 51  1  0  0  0  0
 50 52  2  0  0  0  0
 52 53  1  0  0  0  0
 52 58  1  0  0  0  0
 53 54  2  0  0  0  0
 53 57  1  0  0  0  0
 54 55  1  0  0  0  0
 55 56  2  0  0  0  0
M  END
>  <MODEL>
       1

$$$$
