tmp_first_model_17_86.pdb
 OpenBabel08282502223D

 43 45  0  0  1  0  0  0  0  0999 V2000
   -8.5480   -5.5630  -25.7840 C   0  0  0  0  0  0  0  0  0  0  0  0
   -9.0630   -5.4490  -24.3470 C   0  0  1  0  0  0  0  0  0  0  0  0
   -8.0230   -5.8730  -23.3130 C   0  0  0  0  0  0  0  0  0  0  0  0
   -6.9340   -4.8300  -23.0980 C   0  0  0  0  0  0  0  0  0  0  0  0
   -7.5120   -3.5400  -22.7150 N   0  0  0  0  0  0  0  0  0  0  0  0
   -6.7560   -2.7460  -21.8640 C   0  0  0  0  0  0  0  0  0  0  0  0
   -5.6190   -3.0570  -21.5540 O   0  0  0  0  0  0  0  0  0  0  0  0
   -7.4130   -1.4750  -21.2690 C   0  0  0  0  0  0  0  0  0  0  0  0
   -6.5790   -0.8320  -20.1820 C   0  0  0  0  0  0  0  0  0  0  0  0
   -6.8740   -1.0460  -18.8620 C   0  0  0  0  0  0  0  0  0  0  0  0
   -6.1920   -0.5400  -17.7980 N   0  0  0  0  0  0  0  0  0  0  0  0
   -5.1580    0.2200  -18.0660 C   0  0  0  0  0  0  0  0  0  0  0  0
   -4.7220    0.5300  -19.3810 C   0  0  0  0  0  0  0  0  0  0  0  0
   -3.5960    1.3590  -19.6210 C   0  0  0  0  0  0  0  0  0  0  0  0
   -3.1990    1.6410  -20.8990 C   0  0  0  0  0  0  0  0  0  0  0  0
   -3.9110    1.0980  -21.9920 C   0  0  0  0  0  0  0  0  0  0  0  0
   -5.0020    0.2890  -21.7860 C   0  0  0  0  0  0  0  0  0  0  0  0
   -5.4460   -0.0140  -20.4730 C   0  0  0  0  0  0  0  0  0  0  0  0
   -5.5280   -0.1310  -22.6360 H   0  0  0  0  0  0  0  0  0  0  0  0
   -3.5760    1.3130  -23.0010 H   0  0  0  0  0  0  0  0  0  0  0  0
   -2.3310    2.2680  -21.0870 H   0  0  0  0  0  0  0  0  0  0  0  0
   -3.0560    1.7710  -18.7710 H   0  0  0  0  0  0  0  0  0  0  0  0
   -4.6040    0.6270  -17.2170 H   0  0  0  0  0  0  0  0  0  0  0  0
   -7.7210   -1.6710  -18.5850 H   0  0  0  0  0  0  0  0  0  0  0  0
   -7.6220   -0.7480  -22.0670 H   0  0  0  0  0  0  0  0  0  0  0  0
   -8.3930   -1.7510  -20.8540 H   0  0  0  0  0  0  0  0  0  0  0  0
   -8.5400   -2.9960  -23.6140 C   0  0  1  0  0  0  0  0  0  0  0  0
   -7.9420   -2.2900  -24.8410 C   0  0  0  0  0  0  0  0  0  0  0  0
   -8.7290   -1.9760  -25.5360 H   0  0  0  0  0  0  0  0  0  0  0  0
   -7.2490   -2.9310  -25.3940 H   0  0  0  0  0  0  0  0  0  0  0  0
   -7.3910   -1.3890  -24.5500 H   0  0  0  0  0  0  0  0  0  0  0  0
   -9.5910   -4.0640  -23.9670 C   0  0  0  0  0  0  0  0  0  0  0  0
  -10.2130   -3.6820  -24.7840 H   0  0  0  0  0  0  0  0  0  0  0  0
  -10.2620   -4.1720  -23.1080 H   0  0  0  0  0  0  0  0  0  0  0  0
   -9.0800   -2.2370  -23.0430 H   0  0  0  0  0  0  0  0  0  0  0  0
   -6.2970   -4.7540  -23.9900 H   0  0  0  0  0  0  0  0  0  0  0  0
   -6.2740   -5.1450  -22.2910 H   0  0  0  0  0  0  0  0  0  0  0  0
   -7.5750   -6.8270  -23.6110 H   0  0  0  0  0  0  0  0  0  0  0  0
   -8.5080   -6.0390  -22.3500 H   0  0  0  0  0  0  0  0  0  0  0  0
   -9.9150   -6.1400  -24.2750 H   0  0  0  0  0  0  0  0  0  0  0  0
   -7.6010   -5.0390  -25.9390 H   0  0  0  0  0  0  0  0  0  0  0  0
   -8.3800   -6.6140  -26.0500 H   0  0  0  0  0  0  0  0  0  0  0  0
   -9.2690   -5.1510  -26.4970 H   0  0  0  0  0  0  0  0  0  0  0  0
  1  2  1  0  0  0  0
  1 41  1  0  0  0  0
  1 42  1  0  0  0  0
  1 43  1  0  0  0  0
  2  3  1  0  0  0  0
  2 32  1  0  0  0  0
  2 40  1  1  0  0  0
  3  4  1  0  0  0  0
  3 38  1  0  0  0  0
  3 39  1  0  0  0  0
  4  5  1  0  0  0  0
  4 36  1  0  0  0  0
  4 37  1  0  0  0  0
  5  6  1  0  0  0  0
  5 27  1  0  0  0  0
  6  7  2  0  0  0  0
  6  8  1  0  0  0  0
  8  9  1  0  0  0  0
  8 25  1  0  0  0  0
  8 26  1  0  0  0  0
  9 10  2  0  0  0  0
  9 18  1  0  0  0  0
 10 11  1  0  0  0  0
 10 24  1  0  0  0  0
 11 12  2  0  0  0  0
 12 13  1  0  0  0  0
 12 23  1  0  0  0  0
 13 14  2  0  0  0  0
 13 18  1  0  0  0  0
 14 15  1  0  0  0  0
 14 22  1  0  0  0  0
 15 16  2  0  0  0  0
 15 21  1  0  0  0  0
 16 17  1  0  0  0  0
 16 20  1  0  0  0  0
 17 18  2  0  0  0  0
 17 19  1  0  0  0  0
 27 28  1  0  0  0  0
 27 32  1  0  0  0  0
 27 35  1  1  0  0  0
 28 29  1  0  0  0  0
 28 30  1  0  0  0  0
 28 31  1  0  0  0  0
 32 33  1  0  0  0  0
 32 34  1  0  0  0  0
M  END
>  <MODEL>
       1

$$$$
