tmp_first_model_15_79.pdb
 OpenBabel08282501153D

 45 49  0  0  0  0  0  0  0  0999 V2000
  -10.5760   -2.6910  -22.4840 C   0  0  0  0  0  0  0  0  0  0  0  0
   -9.1800   -2.4380  -22.1680 N   0  0  0  0  0  0  0  0  0  0  0  0
   -8.7670   -1.3780  -21.3980 C   0  0  0  0  0  0  0  0  0  0  0  0
   -9.4400   -0.4600  -20.9950 O   0  0  0  0  0  0  0  0  0  0  0  0
   -7.3700   -1.5370  -21.2120 N   0  0  0  0  0  0  0  0  0  0  0  0
   -6.6000   -0.8670  -20.2000 C   0  0  0  0  0  0  0  0  0  0  0  0
   -6.9120   -1.0620  -18.8770 C   0  0  0  0  0  0  0  0  0  0  0  0
   -6.2170   -0.5470  -17.8300 N   0  0  0  0  0  0  0  0  0  0  0  0
   -5.1800    0.2070  -18.0960 C   0  0  0  0  0  0  0  0  0  0  0  0
   -4.7490    0.5220  -19.4130 C   0  0  0  0  0  0  0  0  0  0  0  0
   -3.6170    1.3570  -19.6370 C   0  0  0  0  0  0  0  0  0  0  0  0
   -3.2260    1.6610  -20.9100 C   0  0  0  0  0  0  0  0  0  0  0  0
   -3.9560    1.1470  -22.0060 C   0  0  0  0  0  0  0  0  0  0  0  0
   -5.0500    0.3400  -21.8120 C   0  0  0  0  0  0  0  0  0  0  0  0
   -5.4780   -0.0150  -20.5030 C   0  0  0  0  0  0  0  0  0  0  0  0
   -5.5960   -0.0450  -22.6660 H   0  0  0  0  0  0  0  0  0  0  0  0
   -3.6470    1.3970  -23.0150 H   0  0  0  0  0  0  0  0  0  0  0  0
   -2.3680    2.3060  -21.0890 H   0  0  0  0  0  0  0  0  0  0  0  0
   -3.0850    1.7580  -18.7770 H   0  0  0  0  0  0  0  0  0  0  0  0
   -4.6280    0.6100  -17.2450 H   0  0  0  0  0  0  0  0  0  0  0  0
   -7.7580   -1.6840  -18.6000 H   0  0  0  0  0  0  0  0  0  0  0  0
   -6.8750   -2.5230  -22.0640 C   0  0  0  0  0  0  0  0  0  0  0  0
   -5.7140   -2.8130  -22.2260 O   0  0  0  0  0  0  0  0  0  0  0  0
   -8.0770   -3.1410  -22.7660 C   0  0  0  0  0  0  0  0  0  0  0  0
   -8.0050   -3.2030  -24.3150 C   0  0  0  0  0  0  0  0  0  0  0  0
   -7.9750   -4.6870  -24.2760 N   0  0  0  0  0  0  0  0  0  0  0  0
   -9.2470   -5.4950  -25.0490 S   0  0  0  0  0  0  0  0  0  0  0  0
   -9.0400   -6.9050  -24.8080 O   0  0  0  0  0  0  0  0  0  0  0  0
  -10.4950   -4.8440  -24.6600 O   0  0  0  0  0  0  0  0  0  0  0  0
   -9.0200   -5.2300  -26.7870 C   0  0  0  0  0  0  0  0  0  0  0  0
   -8.0940   -6.1550  -27.5250 C   0  0  0  0  0  0  0  0  0  0  0  0
   -9.5760   -6.3010  -27.6990 C   0  0  0  0  0  0  0  0  0  0  0  0
  -10.0330   -5.9750  -28.6320 H   0  0  0  0  0  0  0  0  0  0  0  0
  -10.0720   -7.1470  -27.2230 H   0  0  0  0  0  0  0  0  0  0  0  0
   -7.5730   -6.9040  -26.9290 H   0  0  0  0  0  0  0  0  0  0  0  0
   -7.5140   -5.7260  -28.3400 H   0  0  0  0  0  0  0  0  0  0  0  0
   -9.1110   -4.1830  -27.0660 H   0  0  0  0  0  0  0  0  0  0  0  0
   -8.0850   -4.6830  -22.7750 C   0  0  0  0  0  0  0  0  0  0  0  0
   -7.2030   -5.1220  -22.3110 H   0  0  0  0  0  0  0  0  0  0  0  0
   -8.9950   -5.1350  -22.3690 H   0  0  0  0  0  0  0  0  0  0  0  0
   -7.0760   -2.8180  -24.7330 H   0  0  0  0  0  0  0  0  0  0  0  0
   -8.8650   -2.7690  -24.8370 H   0  0  0  0  0  0  0  0  0  0  0  0
  -10.7790   -2.5100  -23.5460 H   0  0  0  0  0  0  0  0  0  0  0  0
  -10.8540   -3.7270  -22.2470 H   0  0  0  0  0  0  0  0  0  0  0  0
  -11.1600   -2.0020  -21.8750 H   0  0  0  0  0  0  0  0  0  0  0  0
  1  2  1  0  0  0  0
  1 43  1  0  0  0  0
  1 44  1  0  0  0  0
  1 45  1  0  0  0  0
  2  3  1  0  0  0  0
  2 24  1  0  0  0  0
  3  4  2  0  0  0  0
  3  5  1  0  0  0  0
  5  6  1  0  0  0  0
  5 22  1  0  0  0  0
  6  7  2  0  0  0  0
  6 15  1  0  0  0  0
  7  8  1  0  0  0  0
  7 21  1  0  0  0  0
  8  9  2  0  0  0  0
  9 10  1  0  0  0  0
  9 20  1  0  0  0  0
 10 11  2  0  0  0  0
 10 15  1  0  0  0  0
 11 12  1  0  0  0  0
 11 19  1  0  0  0  0
 12 13  2  0  0  0  0
 12 18  1  0  0  0  0
 13 14  1  0  0  0  0
 13 17  1  0  0  0  0
 14 15  2  0  0  0  0
 14 16  1  0  0  0  0
 22 23  2  0  0  0  0
 22 24  1  0  0  0  0
 24 25  1  0  0  0  0
 24 38  1  0  0  0  0
 25 26  1  0  0  0  0
 25 41  1  0  0  0  0
 25 42  1  0  0  0  0
 26 27  1  0  0  0  0
 26 38  1  0  0  0  0
 27 28  2  0  0  0  0
 27 29  2  0  0  0  0
 27 30  1  0  0  0  0
 30 31  1  0  0  0  0
 30 32  1  0  0  0  0
 30 37  1  0  0  0  0
 31 32  1  0  0  0  0
 31 35  1  0  0  0  0
 31 36  1  0  0  0  0
 32 33  1  0  0  0  0
 32 34  1  0  0  0  0
 38 39  1  0  0  0  0
 38 40  1  0  0  0  0
M  END
>  <MODEL>
       1

$$$$
