tmp_first_model_7_55.pdb
 OpenBabel08272520323D

 61 66  0  0  1  0  0  0  0  0999 V2000
  -12.3780   -2.1120  -22.6070 C   0  0  0  0  0  0  0  0  0  0  0  0
  -11.3540   -2.2470  -21.6540 O   0  0  0  0  0  0  0  0  0  0  0  0
  -10.2100   -2.9490  -22.0960 C   0  0  0  0  0  0  0  0  0  0  0  0
   -9.1440   -1.9780  -22.6550 C   0  0  1  0  0  0  0  0  0  0  0  0
   -8.7110   -0.9890  -21.5520 C   0  0  0  0  0  0  0  0  0  0  0  0
   -7.3800   -1.4190  -21.1880 N   0  0  0  0  0  0  0  0  0  0  0  0
   -6.5940   -0.8210  -20.1820 C   0  0  0  0  0  0  0  0  0  0  0  0
   -6.9130   -1.0360  -18.8690 C   0  0  0  0  0  0  0  0  0  0  0  0
   -6.2180   -0.5370  -17.8230 N   0  0  0  0  0  0  0  0  0  0  0  0
   -5.1760    0.2060  -18.1020 C   0  0  0  0  0  0  0  0  0  0  0  0
   -4.7390    0.5080  -19.4220 C   0  0  0  0  0  0  0  0  0  0  0  0
   -3.6120    1.3370  -19.6470 C   0  0  0  0  0  0  0  0  0  0  0  0
   -3.2310    1.6570  -20.9180 C   0  0  0  0  0  0  0  0  0  0  0  0
   -3.9610    1.1610  -22.0230 C   0  0  0  0  0  0  0  0  0  0  0  0
   -5.0480    0.3430  -21.8390 C   0  0  0  0  0  0  0  0  0  0  0  0
   -5.4640   -0.0100  -20.5170 C   0  0  0  0  0  0  0  0  0  0  0  0
   -5.5910   -0.0280  -22.7110 H   0  0  0  0  0  0  0  0  0  0  0  0
   -3.6560    1.4460  -23.0240 H   0  0  0  0  0  0  0  0  0  0  0  0
   -2.3870    2.3200  -21.0830 H   0  0  0  0  0  0  0  0  0  0  0  0
   -3.0900    1.7350  -18.7820 H   0  0  0  0  0  0  0  0  0  0  0  0
   -4.6210    0.6190  -17.2600 H   0  0  0  0  0  0  0  0  0  0  0  0
   -7.7690   -1.6660  -18.6320 H   0  0  0  0  0  0  0  0  0  0  0  0
   -6.8410   -2.3930  -21.9900 C   0  0  0  0  0  0  0  0  0  0  0  0
   -5.7800   -2.9400  -21.7720 O   0  0  0  0  0  0  0  0  0  0  0  0
   -7.8210   -2.6360  -23.1550 C   0  0  1  0  0  0  0  0  0  0  0  0
   -7.9260   -4.1460  -23.3680 C   0  0  0  0  0  0  0  0  0  0  0  0
   -6.6620   -4.6590  -23.8670 N   0  0  0  0  0  0  0  0  0  0  0  0
   -6.2430   -5.9840  -23.4230 C   0  0  0  0  0  0  0  0  0  0  0  0
   -7.0820   -7.0460  -24.0850 C   0  0  0  0  0  0  0  0  0  0  0  0
   -6.9640   -7.5430  -25.3370 C   0  0  0  0  0  0  0  0  0  0  0  0
   -8.1570   -8.1630  -25.6460 N   0  3  0  0  0  0  0  0  0  0  0  0
   -8.9730   -8.0740  -24.5910 C   0  0  0  0  0  0  0  0  0  0  0  0
   -8.3410   -7.4090  -23.6130 N   0  0  0  0  0  0  0  0  0  0  0  0
   -8.7250   -7.1480  -22.7090 H   0  0  0  0  0  0  0  0  0  0  0  0
   -9.9930   -8.4040  -24.5830 H   0  0  0  0  0  0  0  0  0  0  0  0
   -8.3230   -8.6720  -26.5070 H   0  0  0  0  0  0  0  0  0  0  0  0
   -6.1510   -7.4590  -26.0490 H   0  0  0  0  0  0  0  0  0  0  0  0
   -6.3220   -6.0040  -22.3240 H   0  0  0  0  0  0  0  0  0  0  0  0
   -5.1900   -6.0950  -23.6980 H   0  0  0  0  0  0  0  0  0  0  0  0
   -6.1620   -4.1830  -25.0500 C   0  0  0  0  0  0  0  0  0  0  0  0
   -5.4360   -4.8450  -25.7820 O   0  0  0  0  0  0  0  0  0  0  0  0
   -6.5460   -2.7720  -25.3570 C   0  0  0  0  0  0  0  0  0  0  0  0
   -6.0970   -2.2200  -26.5550 C   0  0  0  0  0  0  0  0  0  0  0  0
   -6.3130   -0.8910  -26.8510 C   0  0  0  0  0  0  0  0  0  0  0  0
   -6.9990   -0.1200  -25.9160 C   0  0  0  0  0  0  0  0  0  0  0  0
   -7.2420    1.5720  -26.2340 Cl  0  0  0  0  0  0  0  0  0  0  0  0
   -7.4890   -0.6620  -24.7380 C   0  0  0  0  0  0  0  0  0  0  0  0
   -7.2900   -2.0150  -24.4460 C   0  0  0  0  0  0  0  0  0  0  0  0
   -8.0300   -0.0110  -24.0590 H   0  0  0  0  0  0  0  0  0  0  0  0
   -5.9460   -0.4540  -27.7740 H   0  0  0  0  0  0  0  0  0  0  0  0
   -5.5630   -2.8680  -27.2360 H   0  0  0  0  0  0  0  0  0  0  0  0
   -8.1440   -4.6290  -22.4170 H   0  0  0  0  0  0  0  0  0  0  0  0
   -8.7460   -4.3570  -24.0720 H   0  0  0  0  0  0  0  0  0  0  0  0
   -9.3760   -1.0520  -20.6970 H   0  0  0  0  0  0  0  0  0  0  0  0
   -8.7240    0.0610  -21.8780 H   0  0  0  0  0  0  0  0  0  0  0  0
   -9.6290   -1.4500  -23.4830 H   0  0  0  0  0  0  0  0  0  0  0  0
   -9.8110   -3.4700  -21.2150 H   0  0  0  0  0  0  0  0  0  0  0  0
  -10.4860   -3.7160  -22.8390 H   0  0  0  0  0  0  0  0  0  0  0  0
  -12.8350   -3.0830  -22.8550 H   0  0  0  0  0  0  0  0  0  0  0  0
  -13.1440   -1.4670  -22.1660 H   0  0  0  0  0  0  0  0  0  0  0  0
  -12.0320   -1.6440  -23.5420 H   0  0  0  0  0  0  0  0  0  0  0  0
  1  2  1  0  0  0  0
  1 59  1  0  0  0  0
  1 60  1  0  0  0  0
  1 61  1  0  0  0  0
  2  3  1  0  0  0  0
  3  4  1  0  0  0  0
  3 57  1  0  0  0  0
  3 58  1  0  0  0  0
  4  5  1  0  0  0  0
  4 25  1  0  0  0  0
  4 56  1  6  0  0  0
  5  6  1  0  0  0  0
  5 54  1  0  0  0  0
  5 55  1  0  0  0  0
  6  7  1  0  0  0  0
  6 23  1  0  0  0  0
  7  8  2  0  0  0  0
  7 16  1  0  0  0  0
  8  9  1  0  0  0  0
  8 22  1  0  0  0  0
  9 10  2  0  0  0  0
 10 11  1  0  0  0  0
 10 21  1  0  0  0  0
 11 12  2  0  0  0  0
 11 16  1  0  0  0  0
 12 13  1  0  0  0  0
 12 20  1  0  0  0  0
 13 14  2  0  0  0  0
 13 19  1  0  0  0  0
 14 15  1  0  0  0  0
 14 18  1  0  0  0  0
 15 16  2  0  0  0  0
 15 17  1  0  0  0  0
 23 24  2  0  0  0  0
 25 23  1  1  0  0  0
 25 26  1  0  0  0  0
 25 48  1  0  0  0  0
 26 27  1  0  0  0  0
 26 52  1  0  0  0  0
 26 53  1  0  0  0  0
 27 28  1  0  0  0  0
 27 40  1  0  0  0  0
 28 29  1  0  0  0  0
 28 38  1  0  0  0  0
 28 39  1  0  0  0  0
 29 30  2  0  0  0  0
 29 33  1  0  0  0  0
 30 31  1  0  0  0  0
 30 37  1  0  0  0  0
 31 32  2  0  0  0  0
 31 36  1  0  0  0  0
 32 33  1  0  0  0  0
 32 35  1  0  0  0  0
 33 34  1  0  0  0  0
 40 41  2  0  0  0  0
 40 42  1  0  0  0  0
 42 43  2  0  0  0  0
 42 48  1  0  0  0  0
 43 44  1  0  0  0  0
 43 51  1  0  0  0  0
 44 45  2  0  0  0  0
 44 50  1  0  0  0  0
 45 46  1  0  0  0  0
 45 47  1  0  0  0  0
 47 48  2  0  0  0  0
 47 49  1  0  0  0  0
M  CHG  1  31   1
M  END
>  <MODEL>
       1

$$$$
