tmp_first_model_3_71.pdb
 OpenBabel08272518143D

 50 54  0  0  1  0  0  0  0  0999 V2000
   -9.7710   -0.7390  -23.6120 C   0  0  0  0  0  0  0  0  0  0  0  0
   -8.4760   -1.1540  -22.9150 C   0  0  1  0  0  0  0  0  0  0  0  0
   -8.0490   -0.2420  -21.7540 C   0  0  0  0  0  0  0  0  0  0  0  0
   -7.1280   -1.0850  -20.9940 N   0  0  0  0  0  0  0  0  0  0  0  0
   -6.3070   -0.6100  -19.9450 C   0  0  0  0  0  0  0  0  0  0  0  0
   -6.5850   -0.8680  -18.6240 C   0  0  0  0  0  0  0  0  0  0  0  0
   -5.9270   -0.2960  -17.5820 N   0  0  0  0  0  0  0  0  0  0  0  0
   -4.9380    0.5210  -17.8580 C   0  0  0  0  0  0  0  0  0  0  0  0
   -4.4930    0.8080  -19.1800 C   0  0  0  0  0  0  0  0  0  0  0  0
   -3.3710    1.6400  -19.4350 C   0  0  0  0  0  0  0  0  0  0  0  0
   -2.9590    1.8690  -20.7210 C   0  0  0  0  0  0  0  0  0  0  0  0
   -3.6530    1.2850  -21.8060 C   0  0  0  0  0  0  0  0  0  0  0  0
   -4.7490    0.4920  -21.5810 C   0  0  0  0  0  0  0  0  0  0  0  0
   -5.1960    0.2330  -20.2590 C   0  0  0  0  0  0  0  0  0  0  0  0
   -5.2800    0.0410  -22.4110 H   0  0  0  0  0  0  0  0  0  0  0  0
   -3.3200    1.4750  -22.8240 H   0  0  0  0  0  0  0  0  0  0  0  0
   -2.0990    2.5040  -20.9160 H   0  0  0  0  0  0  0  0  0  0  0  0
   -2.8620    2.0990  -18.5900 H   0  0  0  0  0  0  0  0  0  0  0  0
   -4.4200    0.9820  -17.0140 H   0  0  0  0  0  0  0  0  0  0  0  0
   -7.3880   -1.5490  -18.3520 H   0  0  0  0  0  0  0  0  0  0  0  0
   -7.2820   -2.4270  -21.2580 C   0  0  0  0  0  0  0  0  0  0  0  0
   -6.6310   -3.3220  -20.7490 O   0  0  0  0  0  0  0  0  0  0  0  0
   -8.4280   -2.5860  -22.2680 C   0  0  1  0  0  0  0  0  0  0  0  0
   -9.6680   -2.9400  -21.4090 C   0  0  0  0  0  0  0  0  0  0  0  0
  -10.7630   -3.4280  -22.2250 N   0  0  0  0  0  0  0  0  0  0  0  0
  -12.1560   -3.1990  -21.8840 C   0  0  0  0  0  0  0  0  0  0  0  0
  -12.8500   -2.4360  -22.9410 C   0  0  0  0  0  0  0  0  0  0  0  0
  -13.3690   -1.8480  -23.7900 N   0  0  0  0  0  0  0  0  0  0  0  0
  -12.2360   -2.6620  -20.9400 H   0  0  0  0  0  0  0  0  0  0  0  0
  -12.6550   -4.1680  -21.8090 H   0  0  0  0  0  0  0  0  0  0  0  0
  -10.5540   -4.4490  -23.1080 C   0  0  0  0  0  0  0  0  0  0  0  0
  -11.4580   -5.1860  -23.4520 O   0  0  0  0  0  0  0  0  0  0  0  0
   -9.1850   -4.5770  -23.6530 C   0  0  0  0  0  0  0  0  0  0  0  0
   -8.9690   -5.5930  -24.5770 C   0  0  0  0  0  0  0  0  0  0  0  0
   -7.7260   -5.7550  -25.1450 C   0  0  0  0  0  0  0  0  0  0  0  0
   -6.7160   -4.8860  -24.7490 C   0  0  0  0  0  0  0  0  0  0  0  0
   -5.4990   -5.0420  -25.2900 F   0  0  0  0  0  0  0  0  0  0  0  0
   -6.9050   -3.8900  -23.8120 C   0  0  0  0  0  0  0  0  0  0  0  0
   -8.1740   -3.7010  -23.2570 C   0  0  0  0  0  0  0  0  0  0  0  0
   -6.0610   -3.3010  -23.4760 H   0  0  0  0  0  0  0  0  0  0  0  0
   -7.5300   -6.5370  -25.8650 H   0  0  0  0  0  0  0  0  0  0  0  0
   -9.8090   -6.2350  -24.8180 H   0  0  0  0  0  0  0  0  0  0  0  0
   -9.3590   -3.6930  -20.6640 H   0  0  0  0  0  0  0  0  0  0  0  0
   -9.9990   -2.0520  -20.8610 H   0  0  0  0  0  0  0  0  0  0  0  0
   -8.9220    0.0500  -21.1470 H   0  0  0  0  0  0  0  0  0  0  0  0
   -7.5610    0.6830  -22.0720 H   0  0  0  0  0  0  0  0  0  0  0  0
   -7.6730   -1.1550  -23.6690 H   0  0  0  0  0  0  0  0  0  0  0  0
   -9.6550    0.2270  -24.1150 H   0  0  0  0  0  0  0  0  0  0  0  0
  -10.6060   -0.6530  -22.9070 H   0  0  0  0  0  0  0  0  0  0  0  0
  -10.0420   -1.4710  -24.3800 H   0  0  0  0  0  0  0  0  0  0  0  0
  1  2  1  0  0  0  0
  1 48  1  0  0  0  0
  1 49  1  0  0  0  0
  1 50  1  0  0  0  0
  2  3  1  0  0  0  0
  2 23  1  0  0  0  0
  2 47  1  6  0  0  0
  3  4  1  0  0  0  0
  3 45  1  0  0  0  0
  3 46  1  0  0  0  0
  4  5  1  0  0  0  0
  4 21  1  0  0  0  0
  5  6  2  0  0  0  0
  5 14  1  0  0  0  0
  6  7  1  0  0  0  0
  6 20  1  0  0  0  0
  7  8  2  0  0  0  0
  8  9  1  0  0  0  0
  8 19  1  0  0  0  0
  9 10  2  0  0  0  0
  9 14  1  0  0  0  0
 10 11  1  0  0  0  0
 10 18  1  0  0  0  0
 11 12  2  0  0  0  0
 11 17  1  0  0  0  0
 12 13  1  0  0  0  0
 12 16  1  0  0  0  0
 13 14  2  0  0  0  0
 13 15  1  0  0  0  0
 21 22  2  0  0  0  0
 23 21  1  1  0  0  0
 23 24  1  0  0  0  0
 23 39  1  0  0  0  0
 24 25  1  0  0  0  0
 24 43  1  0  0  0  0
 24 44  1  0  0  0  0
 25 26  1  0  0  0  0
 25 31  1  0  0  0  0
 26 27  1  0  0  0  0
 26 29  1  0  0  0  0
 26 30  1  0  0  0  0
 27 28  3  0  0  0  0
 31 32  2  0  0  0  0
 31 33  1  0  0  0  0
 33 34  2  0  0  0  0
 33 39  1  0  0  0  0
 34 35  1  0  0  0  0
 34 42  1  0  0  0  0
 35 36  2  0  0  0  0
 35 41  1  0  0  0  0
 36 37  1  0  0  0  0
 36 38  1  0  0  0  0
 38 39  2  0  0  0  0
 38 40  1  0  0  0  0
M  END
>  <MODEL>
       1

$$$$
