tmp_first_model_15_18.pdb
 OpenBabel08282501153D

 56 61  0  0  1  0  0  0  0  0999 V2000
  -10.3960   -0.9330  -23.4330 C   0  0  0  0  0  0  0  0  0  0  0  0
   -8.9740   -1.3320  -23.0300 C   0  0  1  0  0  0  0  0  0  0  0  0
   -8.4070   -0.4450  -21.9000 C   0  0  0  0  0  0  0  0  0  0  0  0
   -7.4110   -1.2920  -21.2730 N   0  0  0  0  0  0  0  0  0  0  0  0
   -6.6050   -0.8390  -20.1990 C   0  0  0  0  0  0  0  0  0  0  0  0
   -6.9140   -1.1320  -18.8960 C   0  0  0  0  0  0  0  0  0  0  0  0
   -6.2590   -0.6090  -17.8280 N   0  0  0  0  0  0  0  0  0  0  0  0
   -5.2520    0.1990  -18.0660 C   0  0  0  0  0  0  0  0  0  0  0  0
   -4.7890    0.5330  -19.3720 C   0  0  0  0  0  0  0  0  0  0  0  0
   -3.6640    1.3660  -19.6030 C   0  0  0  0  0  0  0  0  0  0  0  0
   -3.2450    1.6280  -20.8790 C   0  0  0  0  0  0  0  0  0  0  0  0
   -3.9260    1.0770  -21.9860 C   0  0  0  0  0  0  0  0  0  0  0  0
   -5.0250    0.2780  -21.7920 C   0  0  0  0  0  0  0  0  0  0  0  0
   -5.4800   -0.0050  -20.4770 C   0  0  0  0  0  0  0  0  0  0  0  0
   -5.5470   -0.1610  -22.6360 H   0  0  0  0  0  0  0  0  0  0  0  0
   -3.5820    1.2890  -22.9940 H   0  0  0  0  0  0  0  0  0  0  0  0
   -2.3810    2.2630  -21.0540 H   0  0  0  0  0  0  0  0  0  0  0  0
   -3.1490    1.7930  -18.7490 H   0  0  0  0  0  0  0  0  0  0  0  0
   -4.7370    0.6180  -17.2010 H   0  0  0  0  0  0  0  0  0  0  0  0
   -7.7340   -1.8090  -18.6610 H   0  0  0  0  0  0  0  0  0  0  0  0
   -7.6050   -2.6300  -21.5230 C   0  0  0  0  0  0  0  0  0  0  0  0
   -6.9330   -3.5130  -21.0240 O   0  0  0  0  0  0  0  0  0  0  0  0
   -8.7860   -2.8040  -22.4990 C   0  0  1  0  0  0  0  0  0  0  0  0
   -9.9960   -3.2990  -21.6610 C   0  0  0  0  0  0  0  0  0  0  0  0
  -11.1090   -3.7840  -22.4690 N   0  0  0  0  0  0  0  0  0  0  0  0
  -12.4730   -3.7500  -21.9640 C   0  0  0  0  0  0  0  0  0  0  0  0
  -13.3250   -2.6270  -22.4770 C   0  0  0  0  0  0  0  0  0  0  0  0
  -14.0600   -1.6910  -21.7180 C   0  0  0  0  0  0  0  0  0  0  0  0
  -14.8220   -1.0130  -22.6410 C   0  0  0  0  0  0  0  0  0  0  0  0
  -14.5050   -1.5350  -23.8500 N   0  0  0  0  0  0  0  0  0  0  0  0
  -13.5920   -2.5150  -23.7730 N   0  0  0  0  0  0  0  0  0  0  0  0
  -14.9530   -1.3700  -24.7380 H   0  0  0  0  0  0  0  0  0  0  0  0
  -15.5590   -0.2320  -22.5230 H   0  0  0  0  0  0  0  0  0  0  0  0
  -14.0370   -1.5700  -20.6440 H   0  0  0  0  0  0  0  0  0  0  0  0
  -12.9450   -4.6810  -22.2850 H   0  0  0  0  0  0  0  0  0  0  0  0
  -12.4760   -3.7250  -20.8740 H   0  0  0  0  0  0  0  0  0  0  0  0
  -10.9170   -4.5000  -23.6190 C   0  0  0  0  0  0  0  0  0  0  0  0
  -11.8470   -5.0120  -24.2290 O   0  0  0  0  0  0  0  0  0  0  0  0
   -9.5090   -4.6410  -24.0830 C   0  0  0  0  0  0  0  0  0  0  0  0
   -9.2590   -5.6130  -25.0520 C   0  0  0  0  0  0  0  0  0  0  0  0
   -7.9750   -5.8510  -25.4990 C   0  0  0  0  0  0  0  0  0  0  0  0
   -6.9550   -5.0690  -24.9690 C   0  0  0  0  0  0  0  0  0  0  0  0
   -5.6980   -5.2880  -25.3900 F   0  0  0  0  0  0  0  0  0  0  0  0
   -7.1820   -4.0780  -24.0320 C   0  0  0  0  0  0  0  0  0  0  0  0
   -8.4810   -3.8520  -23.5550 C   0  0  0  0  0  0  0  0  0  0  0  0
   -6.3420   -3.5010  -23.6630 H   0  0  0  0  0  0  0  0  0  0  0  0
   -7.7470   -6.6090  -26.2430 H   0  0  0  0  0  0  0  0  0  0  0  0
  -10.0960   -6.1880  -25.4360 H   0  0  0  0  0  0  0  0  0  0  0  0
  -10.3480   -2.4610  -21.0520 H   0  0  0  0  0  0  0  0  0  0  0  0
   -9.6050   -4.0740  -20.9880 H   0  0  0  0  0  0  0  0  0  0  0  0
   -9.1960   -0.1660  -21.1780 H   0  0  0  0  0  0  0  0  0  0  0  0
   -7.9460    0.4790  -22.2690 H   0  0  0  0  0  0  0  0  0  0  0  0
   -8.3200   -1.2300  -23.9120 H   0  0  0  0  0  0  0  0  0  0  0  0
  -11.0760   -0.9430  -22.5720 H   0  0  0  0  0  0  0  0  0  0  0  0
  -10.4080    0.0750  -23.8630 H   0  0  0  0  0  0  0  0  0  0  0  0
  -10.8080   -1.6280  -24.1710 H   0  0  0  0  0  0  0  0  0  0  0  0
  1  2  1  0  0  0  0
  1 54  1  0  0  0  0
  1 55  1  0  0  0  0
  1 56  1  0  0  0  0
  2  3  1  0  0  0  0
  2 23  1  0  0  0  0
  2 53  1  6  0  0  0
  3  4  1  0  0  0  0
  3 51  1  0  0  0  0
  3 52  1  0  0  0  0
  4  5  1  0  0  0  0
  4 21  1  0  0  0  0
  5  6  2  0  0  0  0
  5 14  1  0  0  0  0
  6  7  1  0  0  0  0
  6 20  1  0  0  0  0
  7  8  2  0  0  0  0
  8  9  1  0  0  0  0
  8 19  1  0  0  0  0
  9 10  2  0  0  0  0
  9 14  1  0  0  0  0
 10 11  1  0  0  0  0
 10 18  1  0  0  0  0
 11 12  2  0  0  0  0
 11 17  1  0  0  0  0
 12 13  1  0  0  0  0
 12 16  1  0  0  0  0
 13 14  2  0  0  0  0
 13 15  1  0  0  0  0
 21 22  2  0  0  0  0
 23 21  1  1  0  0  0
 23 24  1  0  0  0  0
 23 45  1  0  0  0  0
 24 25  1  0  0  0  0
 24 49  1  0  0  0  0
 24 50  1  0  0  0  0
 25 26  1  0  0  0  0
 25 37  1  0  0  0  0
 26 27  1  0  0  0  0
 26 35  1  0  0  0  0
 26 36  1  0  0  0  0
 27 28  1  0  0  0  0
 27 31  2  0  0  0  0
 28 29  2  0  0  0  0
 28 34  1  0  0  0  0
 29 30  1  0  0  0  0
 29 33  1  0  0  0  0
 30 31  1  0  0  0  0
 30 32  1  0  0  0  0
 37 38  2  0  0  0  0
 37 39  1  0  0  0  0
 39 40  2  0  0  0  0
 39 45  1  0  0  0  0
 40 41  1  0  0  0  0
 40 48  1  0  0  0  0
 41 42  2  0  0  0  0
 41 47  1  0  0  0  0
 42 43  1  0  0  0  0
 42 44  1  0  0  0  0
 44 45  2  0  0  0  0
 44 46  1  0  0  0  0
M  END
>  <MODEL>
       1

$$$$
