tmp_first_model_12_35.pdb
 OpenBabel08272523333D

 40 42  0  0  0  0  0  0  0  0999 V2000
   -9.0220   -1.7860  -22.6850 O   0  0  0  0  0  0  0  0  0  0  0  0
   -8.1910   -0.9150  -22.4620 C   0  0  0  0  0  0  0  0  0  0  0  0
   -6.7520   -1.2530  -22.0970 C   0  0  0  0  0  0  0  0  0  0  0  0
   -6.3160   -0.6090  -20.7870 C   0  0  0  0  0  0  0  0  0  0  0  0
   -6.9600   -0.9500  -19.6210 C   0  0  0  0  0  0  0  0  0  0  0  0
   -6.6420   -0.4950  -18.3820 N   0  0  0  0  0  0  0  0  0  0  0  0
   -5.6280    0.3320  -18.2930 C   0  0  0  0  0  0  0  0  0  0  0  0
   -4.8640    0.7750  -19.4080 C   0  0  0  0  0  0  0  0  0  0  0  0
   -3.7520    1.6430  -19.2650 C   0  0  0  0  0  0  0  0  0  0  0  0
   -3.0990    2.1320  -20.3620 C   0  0  0  0  0  0  0  0  0  0  0  0
   -3.5250    1.7680  -21.6540 C   0  0  0  0  0  0  0  0  0  0  0  0
   -4.5820    0.9040  -21.8130 C   0  0  0  0  0  0  0  0  0  0  0  0
   -5.2510    0.3410  -20.6980 C   0  0  0  0  0  0  0  0  0  0  0  0
   -4.8690    0.6220  -22.8210 H   0  0  0  0  0  0  0  0  0  0  0  0
   -3.0160    2.1730  -22.5230 H   0  0  0  0  0  0  0  0  0  0  0  0
   -2.2560    2.8040  -20.2460 H   0  0  0  0  0  0  0  0  0  0  0  0
   -3.4250    1.9040  -18.2620 H   0  0  0  0  0  0  0  0  0  0  0  0
   -5.3790    0.7130  -17.3010 H   0  0  0  0  0  0  0  0  0  0  0  0
   -7.7880   -1.6590  -19.6490 H   0  0  0  0  0  0  0  0  0  0  0  0
   -6.0700   -0.9880  -22.9110 H   0  0  0  0  0  0  0  0  0  0  0  0
   -6.7380   -2.3430  -22.0150 H   0  0  0  0  0  0  0  0  0  0  0  0
   -8.4320    0.4270  -22.4520 N   0  0  0  0  0  0  0  0  0  0  0  0
   -9.6900    0.9250  -21.8470 C   0  0  0  0  0  0  0  0  0  0  0  0
   -9.6790    1.0910  -22.0170 C   0  0  0  0  0  0  0  0  0  0  0  0
   -9.4130    2.9260  -23.6840 C   0  0  0  0  0  0  0  0  0  0  0  0
   -8.6450    5.5740  -23.0860 C   0  0  0  0  0  0  0  0  0  0  0  0
   -8.0950    5.3870  -21.9060 F   0  0  0  0  0  0  0  0  0  0  0  0
   -7.7380    5.9350  -23.9730 F   0  0  0  0  0  0  0  0  0  0  0  0
   -9.6170    6.4570  -23.0150 F   0  0  0  0  0  0  0  0  0  0  0  0
   -8.1300    2.5870  -23.7220 C   0  0  0  0  0  0  0  0  0  0  0  0
   -7.4980    1.3760  -23.1200 C   0  0  0  0  0  0  0  0  0  0  0  0
   -6.9580    0.8420  -23.9010 H   0  0  0  0  0  0  0  0  0  0  0  0
   -6.7650    1.7260  -22.3830 H   0  0  0  0  0  0  0  0  0  0  0  0
   -7.4070    3.2520  -24.1830 H   0  0  0  0  0  0  0  0  0  0  0  0
  -10.1860    2.1910  -23.6150 H   0  0  0  0  0  0  0  0  0  0  0  0
   -9.6550    3.9770  -23.7630 H   0  0  0  0  0  0  0  0  0  0  0  0
   -9.0490    1.9570  -21.4210 H   0  0  0  0  0  0  0  0  0  0  0  0
  -10.6650    1.7630  -21.7570 H   0  0  0  0  0  0  0  0  0  0  0  0
  -10.3750    0.5670  -22.8670 H   0  0  0  0  0  0  0  0  0  0  0  0
   -9.9920   -0.0560  -20.6600 H   0  0  0  0  0  0  0  0  0  0  0  0
  1  2  2  0  0  0  0
  2  3  1  0  0  0  0
  2 22  1  0  0  0  0
  3  4  1  0  0  0  0
  3 20  1  0  0  0  0
  3 21  1  0  0  0  0
  4  5  2  0  0  0  0
  4 13  1  0  0  0  0
  5  6  1  0  0  0  0
  5 19  1  0  0  0  0
  6  7  2  0  0  0  0
  7  8  1  0  0  0  0
  7 18  1  0  0  0  0
  8  9  2  0  0  0  0
  8 13  1  0  0  0  0
  9 10  1  0  0  0  0
  9 17  1  0  0  0  0
 10 11  2  0  0  0  0
 10 16  1  0  0  0  0
 11 12  1  0  0  0  0
 11 15  1  0  0  0  0
 12 13  2  0  0  0  0
 12 14  1  0  0  0  0
 22 23  1  0  0  0  0
 22 31  1  0  0  0  0
 23 24  1  0  0  0  0
 23 39  1  0  0  0  0
 23 40  1  0  0  0  0
 24 25  1  0  0  0  0
 24 37  1  0  0  0  0
 24 38  1  0  0  0  0
 25 26  1  0  0  0  0
 25 30  1  0  0  0  0
 25 36  1  0  0  0  0
 26 27  1  0  0  0  0
 26 28  1  0  0  0  0
 26 29  1  0  0  0  0
 30 31  1  0  0  0  0
 30 34  1  0  0  0  0
 30 35  1  0  0  0  0
 31 32  1  0  0  0  0
 31 33  1  0  0  0  0
M  END
>  <MODEL>
       1

$$$$
