tmp_first_model_11_41.pdb
 OpenBabel08272522543D

 67 71  0  0  1  0  0  0  0  0999 V2000
   -7.4710    3.2870  -21.8870 C   0  0  0  0  0  0  0  0  0  0  0  0
   -8.5390    2.7820  -22.7420 N   0  0  0  0  0  0  0  0  0  0  0  0
   -8.1630    2.0410  -23.8230 C   0  0  0  0  0  0  0  0  0  0  0  0
   -6.9870    1.8310  -24.0800 O   0  0  0  0  0  0  0  0  0  0  0  0
   -9.2520    1.4470  -24.7090 C   0  0  0  0  0  0  0  0  0  0  0  0
   -9.8010    0.2610  -24.0880 N   0  0  0  0  0  0  0  0  0  0  0  0
   -8.9800   -0.9420  -24.0190 C   0  0  0  0  0  0  0  0  0  0  0  0
   -9.2080   -1.7150  -22.6950 C   0  0  2  0  0  0  0  0  0  0  0  0
   -8.6330   -0.8960  -21.5150 C   0  0  0  0  0  0  0  0  0  0  0  0
   -9.1390    0.0680  -20.9720 O   0  0  0  0  0  0  0  0  0  0  0  0
   -7.4060   -1.4230  -21.1830 N   0  0  0  0  0  0  0  0  0  0  0  0
   -6.6120   -0.8350  -20.1690 C   0  0  0  0  0  0  0  0  0  0  0  0
   -6.9380   -1.0410  -18.8510 C   0  0  0  0  0  0  0  0  0  0  0  0
   -6.2380   -0.5490  -17.8020 N   0  0  0  0  0  0  0  0  0  0  0  0
   -5.1900    0.1910  -18.0800 C   0  0  0  0  0  0  0  0  0  0  0  0
   -4.7540    0.5030  -19.3990 C   0  0  0  0  0  0  0  0  0  0  0  0
   -3.6300    1.3390  -19.6340 C   0  0  0  0  0  0  0  0  0  0  0  0
   -3.2470    1.6410  -20.9130 C   0  0  0  0  0  0  0  0  0  0  0  0
   -3.9710    1.1310  -22.0110 C   0  0  0  0  0  0  0  0  0  0  0  0
   -5.0710    0.3270  -21.8110 C   0  0  0  0  0  0  0  0  0  0  0  0
   -5.4830   -0.0180  -20.4920 C   0  0  0  0  0  0  0  0  0  0  0  0
   -5.6470   -0.0040  -22.6700 H   0  0  0  0  0  0  0  0  0  0  0  0
   -3.6590    1.3820  -23.0200 H   0  0  0  0  0  0  0  0  0  0  0  0
   -2.3920    2.2890  -21.0860 H   0  0  0  0  0  0  0  0  0  0  0  0
   -3.1040    1.7440  -18.7750 H   0  0  0  0  0  0  0  0  0  0  0  0
   -4.6290    0.5950  -17.2370 H   0  0  0  0  0  0  0  0  0  0  0  0
   -7.8050   -1.6510  -18.6080 H   0  0  0  0  0  0  0  0  0  0  0  0
   -7.0120   -2.5620  -21.9900 C   0  0  0  0  0  0  0  0  0  0  0  0
   -8.3430   -3.0130  -22.6230 C   0  0  2  0  0  0  0  0  0  0  0  0
   -8.1230   -3.8050  -23.9230 C   0  0  0  0  0  0  0  0  0  0  0  0
   -9.6590   -4.5480  -24.5100 S   0  0  0  0  0  0  0  0  0  0  0  0
  -10.1720   -5.3040  -23.3820 O   0  0  0  0  0  0  0  0  0  0  0  0
  -10.5090   -3.5410  -25.1340 O   0  0  0  0  0  0  0  0  0  0  0  0
   -9.1740   -5.6580  -25.7020 N   0  0  0  0  0  0  0  0  0  0  0  0
   -8.6230   -5.0260  -26.9030 C   0  0  0  0  0  0  0  0  0  0  0  0
   -7.6560   -4.5640  -26.6800 H   0  0  0  0  0  0  0  0  0  0  0  0
   -8.4350   -5.8210  -27.6310 H   0  0  0  0  0  0  0  0  0  0  0  0
   -9.3090   -4.2890  -27.3460 H   0  0  0  0  0  0  0  0  0  0  0  0
  -10.2850   -6.5720  -26.0370 C   0  0  0  0  0  0  0  0  0  0  0  0
   -9.9160   -7.2890  -26.7770 H   0  0  0  0  0  0  0  0  0  0  0  0
  -10.5890   -7.1210  -25.1420 H   0  0  0  0  0  0  0  0  0  0  0  0
  -11.1500   -6.0390  -26.4620 H   0  0  0  0  0  0  0  0  0  0  0  0
   -7.4310   -4.6350  -23.7520 H   0  0  0  0  0  0  0  0  0  0  0  0
   -7.7120   -3.1640  -24.7080 H   0  0  0  0  0  0  0  0  0  0  0  0
   -8.8220   -3.6870  -21.9100 H   0  0  0  0  0  0  0  0  0  0  0  0
   -6.2730   -2.2830  -22.7590 H   0  0  0  0  0  0  0  0  0  0  0  0
   -6.5720   -3.3440  -21.3630 H   0  0  0  0  0  0  0  0  0  0  0  0
  -10.7070   -1.8990  -22.5470 C   0  0  0  0  0  0  0  0  0  0  0  0
  -11.2360   -2.9010  -21.7310 C   0  0  0  0  0  0  0  0  0  0  0  0
  -12.5960   -2.9410  -21.4950 C   0  0  0  0  0  0  0  0  0  0  0  0
  -13.0730   -3.8160  -20.5990 F   0  0  0  0  0  0  0  0  0  0  0  0
  -13.5030   -2.1100  -22.1380 C   0  0  0  0  0  0  0  0  0  0  0  0
  -12.9910   -1.1560  -22.9870 C   0  0  0  0  0  0  0  0  0  0  0  0
  -11.6160   -1.0080  -23.1370 C   0  0  0  0  0  0  0  0  0  0  0  0
  -11.1480    0.2020  -23.8790 C   0  0  0  0  0  0  0  0  0  0  0  0
  -11.9240    1.0730  -24.2480 O   0  0  0  0  0  0  0  0  0  0  0  0
  -13.6250   -0.4620  -23.5260 H   0  0  0  0  0  0  0  0  0  0  0  0
  -14.5630   -2.2000  -21.9390 H   0  0  0  0  0  0  0  0  0  0  0  0
  -10.6220   -3.6700  -21.2800 H   0  0  0  0  0  0  0  0  0  0  0  0
   -7.9290   -0.6510  -24.1150 H   0  0  0  0  0  0  0  0  0  0  0  0
   -9.2500   -1.6070  -24.8490 H   0  0  0  0  0  0  0  0  0  0  0  0
  -10.0910    2.1190  -24.8930 H   0  0  0  0  0  0  0  0  0  0  0  0
   -8.8020    1.1830  -25.6720 H   0  0  0  0  0  0  0  0  0  0  0  0
   -9.4420    2.6190  -22.3100 H   0  0  0  0  0  0  0  0  0  0  0  0
   -6.8000    3.9150  -22.4840 H   0  0  0  0  0  0  0  0  0  0  0  0
   -6.8920    2.4410  -21.4800 H   0  0  0  0  0  0  0  0  0  0  0  0
   -7.8870    3.9200  -21.0950 H   0  0  0  0  0  0  0  0  0  0  0  0
  1  2  1  0  0  0  0
  1 65  1  0  0  0  0
  1 66  1  0  0  0  0
  1 67  1  0  0  0  0
  2  3  1  0  0  0  0
  2 64  1  0  0  0  0
  3  4  2  0  0  0  0
  3  5  1  0  0  0  0
  5  6  1  0  0  0  0
  5 62  1  0  0  0  0
  5 63  1  0  0  0  0
  6  7  1  0  0  0  0
  6 55  1  0  0  0  0
  7  8  1  0  0  0  0
  7 60  1  0  0  0  0
  7 61  1  0  0  0  0
  8  9  1  1  0  0  0
  8 29  1  0  0  0  0
  8 48  1  0  0  0  0
  9 10  2  0  0  0  0
  9 11  1  0  0  0  0
 11 12  1  0  0  0  0
 11 28  1  0  0  0  0
 12 13  2  0  0  0  0
 12 21  1  0  0  0  0
 13 14  1  0  0  0  0
 13 27  1  0  0  0  0
 14 15  2  0  0  0  0
 15 16  1  0  0  0  0
 15 26  1  0  0  0  0
 16 17  2  0  0  0  0
 16 21  1  0  0  0  0
 17 18  1  0  0  0  0
 17 25  1  0  0  0  0
 18 19  2  0  0  0  0
 18 24  1  0  0  0  0
 19 20  1  0  0  0  0
 19 23  1  0  0  0  0
 20 21  2  0  0  0  0
 20 22  1  0  0  0  0
 28 29  1  0  0  0  0
 28 46  1  0  0  0  0
 28 47  1  0  0  0  0
 29 30  1  0  0  0  0
 29 45  1  1  0  0  0
 30 31  1  0  0  0  0
 30 43  1  0  0  0  0
 30 44  1  0  0  0  0
 31 32  2  0  0  0  0
 31 33  2  0  0  0  0
 31 34  1  0  0  0  0
 34 35  1  0  0  0  0
 34 39  1  0  0  0  0
 35 36  1  0  0  0  0
 35 37  1  0  0  0  0
 35 38  1  0  0  0  0
 39 40  1  0  0  0  0
 39 41  1  0  0  0  0
 39 42  1  0  0  0  0
 48 49  2  0  0  0  0
 48 54  1  0  0  0  0
 49 50  1  0  0  0  0
 49 59  1  0  0  0  0
 50 51  1  0  0  0  0
 50 52  2  0  0  0  0
 52 53  1  0  0  0  0
 52 58  1  0  0  0  0
 53 54  2  0  0  0  0
 53 57  1  0  0  0  0
 54 55  1  0  0  0  0
 55 56  2  0  0  0  0
M  END
>  <MODEL>
       1

$$$$
