tmp_first_model_19_5.pdb
 OpenBabel08282503233D

 58 61  0  0  1  0  0  0  0  0999 V2000
   -5.1620   -3.2530  -22.2450 C   0  0  0  0  0  0  0  0  0  0  0  0
   -6.4740   -3.3480  -22.4400 C   0  0  0  0  0  0  0  0  0  0  0  0
   -7.4710   -2.8440  -21.4280 C   0  0  0  0  0  0  0  0  0  0  0  0
   -7.4210   -1.3970  -21.2360 N   0  0  0  0  0  0  0  0  0  0  0  0
   -8.2290   -0.5020  -21.9280 C   0  0  0  0  0  0  0  0  0  0  0  0
   -8.4250    0.6200  -21.4950 O   0  0  0  0  0  0  0  0  0  0  0  0
   -8.8260   -0.9790  -23.2440 C   0  0  2  0  0  0  0  0  0  0  0  0
   -8.4210    0.0110  -24.3470 C   0  0  0  0  0  0  0  0  0  0  0  0
   -9.0350   -0.3640  -25.6060 N   0  0  0  0  0  0  0  0  0  0  0  0
   -8.2430   -0.4040  -26.8260 C   0  0  0  0  0  0  0  0  0  0  0  0
   -7.5870   -1.7770  -26.9440 C   0  0  0  0  0  0  0  0  0  0  0  0
   -6.4460   -1.9670  -26.5580 O   0  0  0  0  0  0  0  0  0  0  0  0
   -8.3760   -2.7660  -27.4400 N   0  0  0  0  0  0  0  0  0  0  0  0
   -7.9310   -4.1360  -27.2440 C   0  0  0  0  0  0  0  0  0  0  0  0
   -8.7140   -4.8170  -27.5810 H   0  0  0  0  0  0  0  0  0  0  0  0
   -7.6900   -4.3260  -26.1800 H   0  0  0  0  0  0  0  0  0  0  0  0
   -7.0220   -4.3160  -27.8270 H   0  0  0  0  0  0  0  0  0  0  0  0
   -9.3600   -2.5630  -27.5850 H   0  0  0  0  0  0  0  0  0  0  0  0
   -7.4660    0.3630  -26.7910 H   0  0  0  0  0  0  0  0  0  0  0  0
   -8.9080   -0.2090  -27.6690 H   0  0  0  0  0  0  0  0  0  0  0  0
  -10.2960   -0.8660  -25.6750 C   0  0  0  0  0  0  0  0  0  0  0  0
  -10.7780   -1.2370  -26.7450 O   0  0  0  0  0  0  0  0  0  0  0  0
  -11.0320   -0.9980  -24.3940 C   0  0  0  0  0  0  0  0  0  0  0  0
  -12.4170   -1.0930  -24.4390 C   0  0  0  0  0  0  0  0  0  0  0  0
  -13.1170   -1.5240  -23.3320 C   0  0  0  0  0  0  0  0  0  0  0  0
  -12.3920   -1.8870  -22.1930 C   0  0  0  0  0  0  0  0  0  0  0  0
  -13.2580   -2.7310  -20.9320 Cl  0  0  0  0  0  0  0  0  0  0  0  0
  -11.0250   -1.6320  -22.0790 C   0  0  0  0  0  0  0  0  0  0  0  0
  -10.3330   -1.1690  -23.2020 C   0  0  0  0  0  0  0  0  0  0  0  0
  -10.5130   -1.7670  -21.1310 H   0  0  0  0  0  0  0  0  0  0  0  0
  -14.1950   -1.6330  -23.3630 H   0  0  0  0  0  0  0  0  0  0  0  0
  -12.9260   -0.8780  -25.3690 H   0  0  0  0  0  0  0  0  0  0  0  0
   -7.3310   -0.0250  -24.4850 H   0  0  0  0  0  0  0  0  0  0  0  0
   -8.7230    1.0220  -24.0470 H   0  0  0  0  0  0  0  0  0  0  0  0
   -8.4070   -1.9500  -23.5240 H   0  0  0  0  0  0  0  0  0  0  0  0
   -6.6180   -0.8540  -20.2000 C   0  0  0  0  0  0  0  0  0  0  0  0
   -6.9450   -1.0760  -18.8870 C   0  0  0  0  0  0  0  0  0  0  0  0
   -6.2570   -0.5800  -17.8350 N   0  0  0  0  0  0  0  0  0  0  0  0
   -5.2150    0.1720  -18.0990 C   0  0  0  0  0  0  0  0  0  0  0  0
   -4.7660    0.4830  -19.4140 C   0  0  0  0  0  0  0  0  0  0  0  0
   -3.6320    1.3060  -19.6470 C   0  0  0  0  0  0  0  0  0  0  0  0
   -3.2210    1.5810  -20.9220 C   0  0  0  0  0  0  0  0  0  0  0  0
   -3.9170    1.0360  -22.0250 C   0  0  0  0  0  0  0  0  0  0  0  0
   -5.0140    0.2310  -21.8250 C   0  0  0  0  0  0  0  0  0  0  0  0
   -5.4810   -0.0470  -20.5100 C   0  0  0  0  0  0  0  0  0  0  0  0
   -5.5370   -0.1950  -22.6770 H   0  0  0  0  0  0  0  0  0  0  0  0
   -3.5840    1.2650  -23.0320 H   0  0  0  0  0  0  0  0  0  0  0  0
   -2.3630    2.2270  -21.0920 H   0  0  0  0  0  0  0  0  0  0  0  0
   -3.1120    1.7200  -18.7870 H   0  0  0  0  0  0  0  0  0  0  0  0
   -4.6690    0.5780  -17.2470 H   0  0  0  0  0  0  0  0  0  0  0  0
   -7.8230   -1.6740  -18.6460 H   0  0  0  0  0  0  0  0  0  0  0  0
   -8.4730   -3.1320  -21.7540 H   0  0  0  0  0  0  0  0  0  0  0  0
   -7.2520   -3.2790  -20.4480 H   0  0  0  0  0  0  0  0  0  0  0  0
   -7.0490   -3.9630  -23.7310 C   0  0  0  0  0  0  0  0  0  0  0  0
   -6.2310   -4.4220  -24.5520 O   0  0  0  0  0  0  0  0  0  0  0  0
   -8.2930   -3.9300  -23.8380 O   0  5  0  0  0  0  0  0  0  0  0  0
   -4.4360   -3.6650  -22.9400 H   0  0  0  0  0  0  0  0  0  0  0  0
   -4.7870   -2.7290  -21.3630 H   0  0  0  0  0  0  0  0  0  0  0  0
  1  2  2  0  0  0  0
  1 57  1  0  0  0  0
  1 58  1  0  0  0  0
  2  3  1  0  0  0  0
  2 54  1  0  0  0  0
  3  4  1  0  0  0  0
  3 52  1  0  0  0  0
  3 53  1  0  0  0  0
  4  5  1  0  0  0  0
  4 36  1  0  0  0  0
  5  6  2  0  0  0  0
  5  7  1  0  0  0  0
  7  8  1  0  0  0  0
  7 29  1  0  0  0  0
  7 35  1  6  0  0  0
  8  9  1  0  0  0  0
  8 33  1  0  0  0  0
  8 34  1  0  0  0  0
  9 10  1  0  0  0  0
  9 21  1  0  0  0  0
 10 11  1  0  0  0  0
 10 19  1  0  0  0  0
 10 20  1  0  0  0  0
 11 12  2  0  0  0  0
 11 13  1  0  0  0  0
 13 14  1  0  0  0  0
 13 18  1  0  0  0  0
 14 15  1  0  0  0  0
 14 16  1  0  0  0  0
 14 17  1  0  0  0  0
 21 22  2  0  0  0  0
 21 23  1  0  0  0  0
 23 24  2  0  0  0  0
 23 29  1  0  0  0  0
 24 25  1  0  0  0  0
 24 32  1  0  0  0  0
 25 26  2  0  0  0  0
 25 31  1  0  0  0  0
 26 27  1  0  0  0  0
 26 28  1  0  0  0  0
 28 29  2  0  0  0  0
 28 30  1  0  0  0  0
 36 37  2  0  0  0  0
 36 45  1  0  0  0  0
 37 38  1  0  0  0  0
 37 51  1  0  0  0  0
 38 39  2  0  0  0  0
 39 40  1  0  0  0  0
 39 50  1  0  0  0  0
 40 41  2  0  0  0  0
 40 45  1  0  0  0  0
 41 42  1  0  0  0  0
 41 49  1  0  0  0  0
 42 43  2  0  0  0  0
 42 48  1  0  0  0  0
 43 44  1  0  0  0  0
 43 47  1  0  0  0  0
 44 45  2  0  0  0  0
 44 46  1  0  0  0  0
 54 55  2  0  0  0  0
 54 56  1  0  0  0  0
M  CHG  1  56  -1
M  END
>  <MODEL>
       1

$$$$
