tmp_first_model_2_24.pdb
 OpenBabel08272517383D

 65 70  0  0  1  0  0  0  0  0999 V2000
   -4.9630   -7.3260  -23.7360 O   0  0  0  0  0  0  0  0  0  0  0  0
   -6.0410   -7.2720  -24.3070 C   0  0  0  0  0  0  0  0  0  0  0  0
   -7.2430   -6.6060  -23.6550 C   0  0  0  0  0  0  0  0  0  0  0  0
   -7.1210   -5.1190  -23.8190 N   0  3  1  0  0  0  0  0  0  0  0  0
   -7.2980   -4.7310  -25.3120 C   0  0  0  0  0  0  0  0  0  0  0  0
   -7.2350   -3.2480  -25.5230 C   0  0  0  0  0  0  0  0  0  0  0  0
   -6.8740   -2.7580  -26.7760 C   0  0  0  0  0  0  0  0  0  0  0  0
   -6.8110   -1.3980  -27.0370 C   0  0  0  0  0  0  0  0  0  0  0  0
   -7.1160   -0.5130  -26.0100 C   0  0  0  0  0  0  0  0  0  0  0  0
   -7.0280    1.2030  -26.3040 Cl  0  0  0  0  0  0  0  0  0  0  0  0
   -7.4880   -0.9740  -24.7560 C   0  0  0  0  0  0  0  0  0  0  0  0
   -7.5580   -2.3510  -24.5060 C   0  0  0  0  0  0  0  0  0  0  0  0
   -7.9420   -2.8210  -23.1150 C   0  0  2  0  0  0  0  0  0  0  0  0
   -9.1880   -2.1110  -22.5600 C   0  0  0  0  0  0  0  0  0  0  0  0
   -8.7240   -1.1580  -21.4510 C   0  0  0  0  0  0  0  0  0  0  0  0
   -7.3200   -1.4890  -21.2420 N   0  0  0  0  0  0  0  0  0  0  0  0
   -6.5530   -0.8890  -20.2000 C   0  0  0  0  0  0  0  0  0  0  0  0
   -6.8960   -1.0640  -18.8790 C   0  0  0  0  0  0  0  0  0  0  0  0
   -6.2200   -0.5370  -17.8260 N   0  0  0  0  0  0  0  0  0  0  0  0
   -5.1780    0.2120  -18.0900 C   0  0  0  0  0  0  0  0  0  0  0  0
   -4.7340    0.5190  -19.4050 C   0  0  0  0  0  0  0  0  0  0  0  0
   -3.6130    1.3610  -19.6350 C   0  0  0  0  0  0  0  0  0  0  0  0
   -3.2260    1.6670  -20.9090 C   0  0  0  0  0  0  0  0  0  0  0  0
   -3.9500    1.1540  -22.0100 C   0  0  0  0  0  0  0  0  0  0  0  0
   -5.0340    0.3360  -21.8170 C   0  0  0  0  0  0  0  0  0  0  0  0
   -5.4460   -0.0260  -20.5030 C   0  0  0  0  0  0  0  0  0  0  0  0
   -5.5850   -0.0410  -22.6780 H   0  0  0  0  0  0  0  0  0  0  0  0
   -3.6410    1.4090  -23.0180 H   0  0  0  0  0  0  0  0  0  0  0  0
   -2.3700    2.3130  -21.0850 H   0  0  0  0  0  0  0  0  0  0  0  0
   -3.0850    1.7620  -18.7720 H   0  0  0  0  0  0  0  0  0  0  0  0
   -4.6290    0.6160  -17.2370 H   0  0  0  0  0  0  0  0  0  0  0  0
   -7.7510   -1.6800  -18.6010 H   0  0  0  0  0  0  0  0  0  0  0  0
   -6.8350   -2.4400  -22.1200 C   0  0  0  0  0  0  0  0  0  0  0  0
   -5.7320   -2.9540  -22.1290 O   0  0  0  0  0  0  0  0  0  0  0  0
   -8.8650   -0.0940  -21.6980 H   0  0  0  0  0  0  0  0  0  0  0  0
   -9.2910   -1.3670  -20.5500 H   0  0  0  0  0  0  0  0  0  0  0  0
   -9.7600   -1.6020  -23.3410 H   0  0  0  0  0  0  0  0  0  0  0  0
   -9.8550   -2.8600  -22.1240 H   0  0  0  0  0  0  0  0  0  0  0  0
   -8.1480   -4.3450  -23.0300 C   0  0  0  0  0  0  0  0  0  0  0  0
   -9.1400   -4.5920  -23.4220 H   0  0  0  0  0  0  0  0  0  0  0  0
   -8.1070   -4.6350  -21.9790 H   0  0  0  0  0  0  0  0  0  0  0  0
   -7.7190   -0.2480  -23.9770 H   0  0  0  0  0  0  0  0  0  0  0  0
   -6.5240   -1.0170  -28.0130 H   0  0  0  0  0  0  0  0  0  0  0  0
   -6.6290   -3.4600  -27.5690 H   0  0  0  0  0  0  0  0  0  0  0  0
   -8.2590   -5.1390  -25.6430 H   0  0  0  0  0  0  0  0  0  0  0  0
   -6.5240   -5.2150  -25.9000 H   0  0  0  0  0  0  0  0  0  0  0  0
   -6.1720   -4.8070  -23.4970 H   0  0  0  0  0  0  0  0  0  0  0  0
   -7.2350   -6.8700  -22.5980 H   0  0  0  0  0  0  0  0  0  0  0  0
   -8.1910   -6.9500  -24.0930 H   0  0  0  0  0  0  0  0  0  0  0  0
   -6.2350   -7.7390  -25.5730 N   0  0  0  0  0  0  0  0  0  0  0  0
   -5.1430   -8.4090  -26.2580 C   0  0  0  0  0  0  0  0  0  0  0  0
   -4.1770   -7.3740  -26.8070 C   0  0  1  0  0  0  0  0  0  0  0  0
   -3.0930   -7.9010  -27.7850 C   0  0  0  0  0  0  0  0  0  0  0  0
   -3.7160   -7.0550  -28.9200 C   0  0  1  0  0  0  0  0  0  0  0  0
   -4.2380   -7.8180  -29.9550 F   0  0  0  0  0  0  0  0  0  0  0  0
   -4.7870   -6.5150  -27.9520 C   0  0  0  0  0  0  0  0  0  0  0  0
   -5.8040   -6.8100  -28.2460 H   0  0  0  0  0  0  0  0  0  0  0  0
   -4.8070   -5.4320  -27.7750 H   0  0  0  0  0  0  0  0  0  0  0  0
   -3.0670   -6.3060  -29.3840 H   0  0  0  0  0  0  0  0  0  0  0  0
   -2.0660   -7.6420  -27.5040 H   0  0  0  0  0  0  0  0  0  0  0  0
   -3.1150   -8.9820  -27.9780 H   0  0  0  0  0  0  0  0  0  0  0  0
   -3.7900   -6.8060  -25.9500 H   0  0  0  0  0  0  0  0  0  0  0  0
   -5.5640   -8.9970  -27.0830 H   0  0  0  0  0  0  0  0  0  0  0  0
   -4.6190   -9.0740  -25.5560 H   0  0  0  0  0  0  0  0  0  0  0  0
   -7.1830   -7.9020  -25.8830 H   0  0  0  0  0  0  0  0  0  0  0  0
  1  2  2  0  0  0  0
  2  3  1  0  0  0  0
  2 50  1  0  0  0  0
  3  4  1  0  0  0  0
  3 48  1  0  0  0  0
  3 49  1  0  0  0  0
  4  5  1  0  0  0  0
  4 39  1  0  0  0  0
  4 47  1  1  0  0  0
  5  6  1  0  0  0  0
  5 45  1  0  0  0  0
  5 46  1  0  0  0  0
  6  7  2  0  0  0  0
  6 12  1  0  0  0  0
  7  8  1  0  0  0  0
  7 44  1  0  0  0  0
  8  9  2  0  0  0  0
  8 43  1  0  0  0  0
  9 10  1  0  0  0  0
  9 11  1  0  0  0  0
 11 12  2  0  0  0  0
 11 42  1  0  0  0  0
 13 12  1  6  0  0  0
 13 14  1  0  0  0  0
 13 33  1  0  0  0  0
 13 39  1  0  0  0  0
 14 15  1  0  0  0  0
 14 37  1  0  0  0  0
 14 38  1  0  0  0  0
 15 16  1  0  0  0  0
 15 35  1  0  0  0  0
 15 36  1  0  0  0  0
 16 17  1  0  0  0  0
 16 33  1  0  0  0  0
 17 18  2  0  0  0  0
 17 26  1  0  0  0  0
 18 19  1  0  0  0  0
 18 32  1  0  0  0  0
 19 20  2  0  0  0  0
 20 21  1  0  0  0  0
 20 31  1  0  0  0  0
 21 22  2  0  0  0  0
 21 26  1  0  0  0  0
 22 23  1  0  0  0  0
 22 30  1  0  0  0  0
 23 24  2  0  0  0  0
 23 29  1  0  0  0  0
 24 25  1  0  0  0  0
 24 28  1  0  0  0  0
 25 26  2  0  0  0  0
 25 27  1  0  0  0  0
 33 34  2  0  0  0  0
 39 40  1  0  0  0  0
 39 41  1  0  0  0  0
 50 51  1  0  0  0  0
 50 65  1  0  0  0  0
 51 52  1  0  0  0  0
 51 63  1  0  0  0  0
 51 64  1  0  0  0  0
 52 53  1  0  0  0  0
 52 56  1  0  0  0  0
 52 62  1  1  0  0  0
 53 54  1  0  0  0  0
 53 60  1  0  0  0  0
 53 61  1  0  0  0  0
 54 55  1  0  0  0  0
 54 56  1  0  0  0  0
 54 59  1  6  0  0  0
 56 57  1  0  0  0  0
 56 58  1  0  0  0  0
M  CHG  1   4   1
M  END
>  <MODEL>
       1

$$$$
