tmp_first_model_5_62.pdb
 OpenBabel08272519233D

 44 47  0  0  0  0  0  0  0  0999 V2000
   -5.5640   -3.1350  -21.6020 O   0  0  0  0  0  0  0  0  0  0  0  0
   -6.7500   -2.8970  -21.7670 C   0  0  0  0  0  0  0  0  0  0  0  0
   -7.3780   -1.5820  -21.2940 C   0  0  0  0  0  0  0  0  0  0  0  0
   -6.5400   -0.9700  -20.2200 C   0  0  0  0  0  0  0  0  0  0  0  0
   -6.8250   -1.1580  -18.8940 C   0  0  0  0  0  0  0  0  0  0  0  0
   -5.9880   -0.8650  -17.8680 N   0  0  0  0  0  0  0  0  0  0  0  0
   -4.8200   -0.3530  -18.1900 C   0  0  0  0  0  0  0  0  0  0  0  0
   -4.4340   -0.0240  -19.5160 C   0  0  0  0  0  0  0  0  0  0  0  0
   -3.2610    0.7160  -19.7950 C   0  0  0  0  0  0  0  0  0  0  0  0
   -3.1480    1.3940  -20.9750 C   0  0  0  0  0  0  0  0  0  0  0  0
   -4.0630    1.1460  -22.0350 C   0  0  0  0  0  0  0  0  0  0  0  0
   -5.0850    0.2530  -21.8480 C   0  0  0  0  0  0  0  0  0  0  0  0
   -5.3560   -0.2640  -20.5500 C   0  0  0  0  0  0  0  0  0  0  0  0
   -5.6550   -0.1060  -22.6950 H   0  0  0  0  0  0  0  0  0  0  0  0
   -3.9060    1.6060  -23.0090 H   0  0  0  0  0  0  0  0  0  0  0  0
   -2.2830    2.0190  -21.1670 H   0  0  0  0  0  0  0  0  0  0  0  0
   -2.5450    0.8340  -18.9850 H   0  0  0  0  0  0  0  0  0  0  0  0
   -4.1390   -0.1140  -17.3730 H   0  0  0  0  0  0  0  0  0  0  0  0
   -7.7910   -1.5800  -18.6090 H   0  0  0  0  0  0  0  0  0  0  0  0
   -8.3780   -1.7920  -20.9040 H   0  0  0  0  0  0  0  0  0  0  0  0
   -7.4860   -0.9080  -22.1510 H   0  0  0  0  0  0  0  0  0  0  0  0
   -7.5940   -3.8090  -22.3430 N   0  0  0  0  0  0  0  0  0  0  0  0
   -7.2210   -5.2090  -22.1830 C   0  0  0  0  0  0  0  0  0  0  0  0
   -7.4950   -5.9830  -23.4520 C   0  0  0  0  0  0  0  0  0  0  0  0
   -8.9490   -5.8070  -23.8850 C   0  0  0  0  0  0  0  0  0  0  0  0
   -9.2300   -6.6630  -25.1100 C   0  0  0  0  0  0  0  0  0  0  0  0
  -10.6340   -6.8980  -25.5830 C   0  0  0  0  0  0  0  0  0  0  0  0
   -9.6960   -6.0830  -26.4200 C   0  0  0  0  0  0  0  0  0  0  0  0
   -9.8570   -5.0090  -26.4870 H   0  0  0  0  0  0  0  0  0  0  0  0
   -9.3060   -6.5410  -27.3230 H   0  0  0  0  0  0  0  0  0  0  0  0
  -10.8540   -7.8860  -25.9600 H   0  0  0  0  0  0  0  0  0  0  0  0
  -11.4560   -6.4090  -25.0670 H   0  0  0  0  0  0  0  0  0  0  0  0
   -8.5680   -7.5290  -25.1900 H   0  0  0  0  0  0  0  0  0  0  0  0
   -9.2570   -4.3130  -24.0660 C   0  0  0  0  0  0  0  0  0  0  0  0
   -8.9640   -3.5400  -22.7810 C   0  0  0  0  0  0  0  0  0  0  0  0
   -9.6880   -3.8330  -21.9980 H   0  0  0  0  0  0  0  0  0  0  0  0
   -9.0970   -2.4660  -22.9630 H   0  0  0  0  0  0  0  0  0  0  0  0
   -8.6430   -3.8990  -24.8800 H   0  0  0  0  0  0  0  0  0  0  0  0
  -10.3060   -4.1610  -24.3520 H   0  0  0  0  0  0  0  0  0  0  0  0
   -9.5770   -6.1650  -23.0510 H   0  0  0  0  0  0  0  0  0  0  0  0
   -7.2780   -7.0460  -23.2820 H   0  0  0  0  0  0  0  0  0  0  0  0
   -6.8260   -5.6370  -24.2510 H   0  0  0  0  0  0  0  0  0  0  0  0
   -6.1600   -5.2300  -21.9300 H   0  0  0  0  0  0  0  0  0  0  0  0
   -7.7800   -5.6460  -21.3380 H   0  0  0  0  0  0  0  0  0  0  0  0
  1  2  2  0  0  0  0
  2  3  1  0  0  0  0
  2 22  1  0  0  0  0
  3  4  1  0  0  0  0
  3 20  1  0  0  0  0
  3 21  1  0  0  0  0
  4  5  2  0  0  0  0
  4 13  1  0  0  0  0
  5  6  1  0  0  0  0
  5 19  1  0  0  0  0
  6  7  2  0  0  0  0
  7  8  1  0  0  0  0
  7 18  1  0  0  0  0
  8  9  2  0  0  0  0
  8 13  1  0  0  0  0
  9 10  1  0  0  0  0
  9 17  1  0  0  0  0
 10 11  2  0  0  0  0
 10 16  1  0  0  0  0
 11 12  1  0  0  0  0
 11 15  1  0  0  0  0
 12 13  2  0  0  0  0
 12 14  1  0  0  0  0
 22 23  1  0  0  0  0
 22 35  1  0  0  0  0
 23 24  1  0  0  0  0
 23 43  1  0  0  0  0
 23 44  1  0  0  0  0
 24 25  1  0  0  0  0
 24 41  1  0  0  0  0
 24 42  1  0  0  0  0
 25 26  1  0  0  0  0
 25 34  1  0  0  0  0
 25 40  1  0  0  0  0
 26 27  1  0  0  0  0
 26 28  1  0  0  0  0
 26 33  1  0  0  0  0
 27 28  1  0  0  0  0
 27 31  1  0  0  0  0
 27 32  1  0  0  0  0
 28 29  1  0  0  0  0
 28 30  1  0  0  0  0
 34 35  1  0  0  0  0
 34 38  1  0  0  0  0
 34 39  1  0  0  0  0
 35 36  1  0  0  0  0
 35 37  1  0  0  0  0
M  END
>  <MODEL>
       1

$$$$
