tmp_first_model_12_47.pdb
 OpenBabel08272523333D

 58 63  0  0  1  0  0  0  0  0999 V2000
   -8.6710    0.6960  -21.1500 O   0  0  0  0  0  0  0  0  0  0  0  0
   -8.3900   -0.2870  -21.8080 C   0  0  0  0  0  0  0  0  0  0  0  0
   -7.4770   -1.3750  -21.2290 C   0  0  0  0  0  0  0  0  0  0  0  0
   -6.6300   -0.7930  -20.1400 C   0  0  0  0  0  0  0  0  0  0  0  0
   -6.9120   -1.0620  -18.8290 C   0  0  0  0  0  0  0  0  0  0  0  0
   -6.2320   -0.5680  -17.7630 N   0  0  0  0  0  0  0  0  0  0  0  0
   -5.2070    0.2050  -18.0310 C   0  0  0  0  0  0  0  0  0  0  0  0
   -4.8010    0.5680  -19.3420 C   0  0  0  0  0  0  0  0  0  0  0  0
   -3.6690    1.3920  -19.5580 C   0  0  0  0  0  0  0  0  0  0  0  0
   -3.3340    1.7920  -20.8190 C   0  0  0  0  0  0  0  0  0  0  0  0
   -4.1450    1.4160  -21.9130 C   0  0  0  0  0  0  0  0  0  0  0  0
   -5.2500    0.6170  -21.7340 C   0  0  0  0  0  0  0  0  0  0  0  0
   -5.5790    0.1250  -20.4370 C   0  0  0  0  0  0  0  0  0  0  0  0
   -5.8530    0.3700  -22.6050 H   0  0  0  0  0  0  0  0  0  0  0  0
   -3.8830    1.7520  -22.9110 H   0  0  0  0  0  0  0  0  0  0  0  0
   -2.4560    2.4080  -20.9860 H   0  0  0  0  0  0  0  0  0  0  0  0
   -3.0930    1.7170  -18.6950 H   0  0  0  0  0  0  0  0  0  0  0  0
   -4.6490    0.6000  -17.1820 H   0  0  0  0  0  0  0  0  0  0  0  0
   -7.7400   -1.7240  -18.5720 H   0  0  0  0  0  0  0  0  0  0  0  0
   -6.8470   -1.8090  -22.0090 H   0  0  0  0  0  0  0  0  0  0  0  0
   -8.1090   -2.1730  -20.8170 H   0  0  0  0  0  0  0  0  0  0  0  0
   -8.8230   -0.4150  -23.1120 N   0  0  0  0  0  0  0  0  0  0  0  0
   -9.1450    0.8500  -23.7850 C   0  0  0  0  0  0  0  0  0  0  0  0
   -7.8740    1.6320  -24.0570 C   0  0  0  0  0  0  0  0  0  0  0  0
   -7.5460    2.7310  -23.2640 C   0  0  0  0  0  0  0  0  0  0  0  0
   -6.3840    3.4510  -23.5070 C   0  0  0  0  0  0  0  0  0  0  0  0
   -5.5020    3.0580  -24.5100 C   0  0  0  0  0  0  0  0  0  0  0  0
   -5.7910    1.9040  -25.2310 C   0  0  0  0  0  0  0  0  0  0  0  0
   -4.6190    1.3150  -26.3800 Cl  0  0  0  0  0  0  0  0  0  0  0  0
   -6.9690    1.1960  -25.0270 C   0  0  0  0  0  0  0  0  0  0  0  0
   -7.1500    0.3040  -25.6230 H   0  0  0  0  0  0  0  0  0  0  0  0
   -4.5870    3.6120  -24.6970 H   0  0  0  0  0  0  0  0  0  0  0  0
   -6.1510    4.3150  -22.8920 H   0  0  0  0  0  0  0  0  0  0  0  0
   -8.1980    3.0130  -22.4410 H   0  0  0  0  0  0  0  0  0  0  0  0
   -9.8050    1.4250  -23.1280 H   0  0  0  0  0  0  0  0  0  0  0  0
   -9.6750    0.6310  -24.7150 H   0  0  0  0  0  0  0  0  0  0  0  0
   -9.0780   -1.6800  -23.7360 C   0  0  2  0  0  0  0  0  0  0  0  0
  -10.1940   -2.5450  -23.1170 C   0  0  0  0  0  0  0  0  0  0  0  0
  -10.1550   -3.7190  -24.0880 N   0  3  1  0  0  0  0  0  0  0  0  0
  -11.4250   -4.1030  -24.7080 C   0  0  0  0  0  0  0  0  0  0  0  0
  -11.6920   -5.5680  -24.8340 C   0  0  0  0  0  0  0  0  0  0  0  0
  -12.4370   -4.7440  -23.8130 C   0  0  0  0  0  0  0  0  0  0  0  0
  -12.1460   -4.8230  -22.7710 H   0  0  0  0  0  0  0  0  0  0  0  0
  -13.4930   -4.5600  -23.9580 H   0  0  0  0  0  0  0  0  0  0  0  0
  -10.8990   -6.2250  -24.4970 H   0  0  0  0  0  0  0  0  0  0  0  0
  -12.2290   -5.9270  -25.7020 H   0  0  0  0  0  0  0  0  0  0  0  0
  -11.7570   -3.4570  -25.5120 H   0  0  0  0  0  0  0  0  0  0  0  0
   -9.1070   -3.2250  -25.0420 C   0  0  2  0  0  0  0  0  0  0  0  0
   -8.0230   -2.7710  -24.0650 C   0  0  0  0  0  0  0  0  0  0  0  0
   -7.8120   -3.4960  -23.2690 H   0  0  0  0  0  0  0  0  0  0  0  0
   -7.1140   -2.4090  -24.5440 H   0  0  0  0  0  0  0  0  0  0  0  0
   -9.4740   -1.7540  -25.2240 C   0  0  0  0  0  0  0  0  0  0  0  0
  -10.5210   -1.5200  -25.4430 H   0  0  0  0  0  0  0  0  0  0  0  0
   -8.7910   -1.2430  -25.8990 H   0  0  0  0  0  0  0  0  0  0  0  0
   -8.9190   -3.8920  -25.8760 H   0  0  0  0  0  0  0  0  0  0  0  0
   -9.7830   -4.5530  -23.5900 H   0  0  0  0  0  0  0  0  0  0  0  0
  -11.1780   -2.0810  -23.1600 H   0  0  0  0  0  0  0  0  0  0  0  0
   -9.9900   -2.8810  -22.0980 H   0  0  0  0  0  0  0  0  0  0  0  0
  1  2  2  0  0  0  0
  2  3  1  0  0  0  0
  2 22  1  0  0  0  0
  3  4  1  0  0  0  0
  3 20  1  0  0  0  0
  3 21  1  0  0  0  0
  4  5  2  0  0  0  0
  4 13  1  0  0  0  0
  5  6  1  0  0  0  0
  5 19  1  0  0  0  0
  6  7  2  0  0  0  0
  7  8  1  0  0  0  0
  7 18  1  0  0  0  0
  8  9  2  0  0  0  0
  8 13  1  0  0  0  0
  9 10  1  0  0  0  0
  9 17  1  0  0  0  0
 10 11  2  0  0  0  0
 10 16  1  0  0  0  0
 11 12  1  0  0  0  0
 11 15  1  0  0  0  0
 12 13  2  0  0  0  0
 12 14  1  0  0  0  0
 22 23  1  0  0  0  0
 23 24  1  0  0  0  0
 23 35  1  0  0  0  0
 23 36  1  0  0  0  0
 24 25  2  0  0  0  0
 24 30  1  0  0  0  0
 25 26  1  0  0  0  0
 25 34  1  0  0  0  0
 26 27  2  0  0  0  0
 26 33  1  0  0  0  0
 27 28  1  0  0  0  0
 27 32  1  0  0  0  0
 28 29  1  0  0  0  0
 28 30  2  0  0  0  0
 30 31  1  0  0  0  0
 37 22  1  1  0  0  0
 37 38  1  0  0  0  0
 37 49  1  0  0  0  0
 37 52  1  0  0  0  0
 38 39  1  0  0  0  0
 38 57  1  0  0  0  0
 38 58  1  0  0  0  0
 39 40  1  0  0  0  0
 39 48  1  0  0  0  0
 39 56  1  1  0  0  0
 40 41  1  0  0  0  0
 40 42  1  0  0  0  0
 40 47  1  0  0  0  0
 41 42  1  0  0  0  0
 41 45  1  0  0  0  0
 41 46  1  0  0  0  0
 42 43  1  0  0  0  0
 42 44  1  0  0  0  0
 48 49  1  0  0  0  0
 48 52  1  0  0  0  0
 48 55  1  6  0  0  0
 49 50  1  0  0  0  0
 49 51  1  0  0  0  0
 52 53  1  0  0  0  0
 52 54  1  0  0  0  0
M  CHG  1  39   1
M  END
>  <MODEL>
       1

$$$$
