tmp_first_model_16_85.pdb
 OpenBabel08282501503D

 57 62  0  0  1  0  0  0  0  0999 V2000
   -9.2760    1.0470  -29.3080 C   0  0  0  0  0  0  0  0  0  0  0  0
   -9.1690    1.3710  -27.9020 N   0  0  0  0  0  0  0  0  0  0  0  0
   -8.2860    0.6890  -27.1280 C   0  0  0  0  0  0  0  0  0  0  0  0
   -7.5390   -0.1770  -27.5580 O   0  0  0  0  0  0  0  0  0  0  0  0
   -8.3060    1.0820  -25.6510 C   0  0  0  0  0  0  0  0  0  0  0  0
   -9.1520    0.2020  -24.8730 N   0  0  0  0  0  0  0  0  0  0  0  0
   -8.6620   -1.1200  -24.5230 C   0  0  0  0  0  0  0  0  0  0  0  0
   -8.9780   -1.4870  -23.0530 C   0  0  2  0  0  0  0  0  0  0  0  0
   -8.1730   -0.5770  -22.1010 C   0  0  0  0  0  0  0  0  0  0  0  0
   -8.1780    0.6340  -22.0800 O   0  0  0  0  0  0  0  0  0  0  0  0
   -7.4160   -1.3590  -21.2550 N   0  0  0  0  0  0  0  0  0  0  0  0
   -6.6070   -0.8420  -20.2230 C   0  0  0  0  0  0  0  0  0  0  0  0
   -6.9070   -1.1380  -18.9190 C   0  0  0  0  0  0  0  0  0  0  0  0
   -6.1560   -0.7730  -17.8550 N   0  0  0  0  0  0  0  0  0  0  0  0
   -5.0960   -0.0390  -18.0990 C   0  0  0  0  0  0  0  0  0  0  0  0
   -4.7110    0.4000  -19.3990 C   0  0  0  0  0  0  0  0  0  0  0  0
   -3.6090    1.2740  -19.6030 C   0  0  0  0  0  0  0  0  0  0  0  0
   -3.2080    1.5950  -20.8700 C   0  0  0  0  0  0  0  0  0  0  0  0
   -3.8840    1.0640  -21.9900 C   0  0  0  0  0  0  0  0  0  0  0  0
   -4.9760    0.2540  -21.8190 C   0  0  0  0  0  0  0  0  0  0  0  0
   -5.4450   -0.0600  -20.5110 C   0  0  0  0  0  0  0  0  0  0  0  0
   -5.4940   -0.1470  -22.6830 H   0  0  0  0  0  0  0  0  0  0  0  0
   -3.5330    1.2990  -22.9900 H   0  0  0  0  0  0  0  0  0  0  0  0
   -2.3560    2.2500  -21.0290 H   0  0  0  0  0  0  0  0  0  0  0  0
   -3.1070    1.6900  -18.7340 H   0  0  0  0  0  0  0  0  0  0  0  0
   -4.4760    0.2440  -17.2480 H   0  0  0  0  0  0  0  0  0  0  0  0
   -7.8260   -1.6790  -18.6970 H   0  0  0  0  0  0  0  0  0  0  0  0
   -7.6400   -2.7730  -21.3950 C   0  0  0  0  0  0  0  0  0  0  0  0
   -8.4870   -2.8920  -22.6520 C   0  0  0  0  0  0  0  0  0  0  0  0
   -9.3490   -4.1050  -22.8260 C   0  0  0  0  0  0  0  0  0  0  0  0
   -8.1020   -3.9540  -23.6480 C   0  0  0  0  0  0  0  0  0  0  0  0
   -7.2440   -4.5810  -23.4090 H   0  0  0  0  0  0  0  0  0  0  0  0
   -8.1990   -3.7190  -24.7040 H   0  0  0  0  0  0  0  0  0  0  0  0
   -9.3720   -4.8470  -22.0290 H   0  0  0  0  0  0  0  0  0  0  0  0
  -10.3020   -3.9620  -23.3250 H   0  0  0  0  0  0  0  0  0  0  0  0
   -6.6850   -3.3030  -21.4770 H   0  0  0  0  0  0  0  0  0  0  0  0
   -8.1660   -3.1710  -20.5230 H   0  0  0  0  0  0  0  0  0  0  0  0
  -10.4730   -1.2390  -22.8760 C   0  0  0  0  0  0  0  0  0  0  0  0
  -11.2040   -1.9720  -21.9420 C   0  0  0  0  0  0  0  0  0  0  0  0
  -12.5770   -1.8150  -21.8780 C   0  0  0  0  0  0  0  0  0  0  0  0
  -13.4850   -2.9600  -20.9360 Cl  0  0  0  0  0  0  0  0  0  0  0  0
  -13.2270   -0.7580  -22.5140 C   0  0  0  0  0  0  0  0  0  0  0  0
  -12.4850    0.0370  -23.3660 C   0  0  0  0  0  0  0  0  0  0  0  0
  -11.1480   -0.2520  -23.6120 C   0  0  0  0  0  0  0  0  0  0  0  0
  -10.4450    0.5660  -24.6440 C   0  0  0  0  0  0  0  0  0  0  0  0
  -10.9690    1.5130  -25.2250 O   0  0  0  0  0  0  0  0  0  0  0  0
  -12.9120    0.8900  -23.8790 H   0  0  0  0  0  0  0  0  0  0  0  0
  -14.2850   -0.5930  -22.3420 H   0  0  0  0  0  0  0  0  0  0  0  0
  -10.7140   -2.7050  -21.3080 H   0  0  0  0  0  0  0  0  0  0  0  0
   -7.5850   -1.1440  -24.7080 H   0  0  0  0  0  0  0  0  0  0  0  0
   -9.1390   -1.8670  -25.1700 H   0  0  0  0  0  0  0  0  0  0  0  0
   -8.6860    2.0990  -25.5220 H   0  0  0  0  0  0  0  0  0  0  0  0
   -7.2840    1.0080  -25.2600 H   0  0  0  0  0  0  0  0  0  0  0  0
   -9.9100    1.8950  -27.4550 H   0  0  0  0  0  0  0  0  0  0  0  0
   -9.5290   -0.0090  -29.4500 H   0  0  0  0  0  0  0  0  0  0  0  0
  -10.0440    1.6680  -29.7740 H   0  0  0  0  0  0  0  0  0  0  0  0
   -8.3240    1.2310  -29.8120 H   0  0  0  0  0  0  0  0  0  0  0  0
  1  2  1  0  0  0  0
  1 55  1  0  0  0  0
  1 56  1  0  0  0  0
  1 57  1  0  0  0  0
  2  3  1  0  0  0  0
  2 54  1  0  0  0  0
  3  4  2  0  0  0  0
  3  5  1  0  0  0  0
  5  6  1  0  0  0  0
  5 52  1  0  0  0  0
  5 53  1  0  0  0  0
  6  7  1  0  0  0  0
  6 45  1  0  0  0  0
  7  8  1  0  0  0  0
  7 50  1  0  0  0  0
  7 51  1  0  0  0  0
  8  9  1  1  0  0  0
  8 29  1  0  0  0  0
  8 38  1  0  0  0  0
  9 10  2  0  0  0  0
  9 11  1  0  0  0  0
 11 12  1  0  0  0  0
 11 28  1  0  0  0  0
 12 13  2  0  0  0  0
 12 21  1  0  0  0  0
 13 14  1  0  0  0  0
 13 27  1  0  0  0  0
 14 15  2  0  0  0  0
 15 16  1  0  0  0  0
 15 26  1  0  0  0  0
 16 17  2  0  0  0  0
 16 21  1  0  0  0  0
 17 18  1  0  0  0  0
 17 25  1  0  0  0  0
 18 19  2  0  0  0  0
 18 24  1  0  0  0  0
 19 20  1  0  0  0  0
 19 23  1  0  0  0  0
 20 21  2  0  0  0  0
 20 22  1  0  0  0  0
 28 29  1  0  0  0  0
 28 36  1  0  0  0  0
 28 37  1  0  0  0  0
 29 30  1  0  0  0  0
 29 31  1  0  0  0  0
 30 31  1  0  0  0  0
 30 34  1  0  0  0  0
 30 35  1  0  0  0  0
 31 32  1  0  0  0  0
 31 33  1  0  0  0  0
 38 39  2  0  0  0  0
 38 44  1  0  0  0  0
 39 40  1  0  0  0  0
 39 49  1  0  0  0  0
 40 41  1  0  0  0  0
 40 42  2  0  0  0  0
 42 43  1  0  0  0  0
 42 48  1  0  0  0  0
 43 44  2  0  0  0  0
 43 47  1  0  0  0  0
 44 45  1  0  0  0  0
 45 46  2  0  0  0  0
M  END
>  <MODEL>
       1

$$$$
