tmp_first_model_9_97.pdb
 OpenBabel08272521403D

 40 43  0  0  1  0  0  0  0  0999 V2000
  -12.6020   -3.8020  -21.2130 C   0  0  0  0  0  0  0  0  0  0  0  0
  -11.5370   -2.8290  -21.7430 C   0  0  2  0  0  0  0  0  0  0  0  0
  -11.9920   -2.3060  -23.0990 C   0  0  0  0  0  0  0  0  0  0  0  0
  -11.1070   -1.3610  -23.6510 O   0  0  0  0  0  0  0  0  0  0  0  0
   -9.8150   -1.8740  -23.8450 C   0  0  0  0  0  0  0  0  0  0  0  0
   -9.1580   -2.3600  -22.5480 C   0  0  1  0  0  0  0  0  0  0  0  0
  -10.1100   -3.3660  -21.8510 C   0  0  0  0  0  0  0  0  0  0  0  0
  -10.1010   -4.2880  -22.4490 H   0  0  0  0  0  0  0  0  0  0  0  0
   -9.6950   -3.5940  -20.8610 H   0  0  0  0  0  0  0  0  0  0  0  0
   -7.8760   -2.9620  -22.8690 N   0  0  0  0  0  0  0  0  0  0  0  0
   -6.8640   -2.5920  -22.0200 C   0  0  0  0  0  0  0  0  0  0  0  0
   -5.7550   -3.0600  -21.9280 O   0  0  0  0  0  0  0  0  0  0  0  0
   -7.3730   -1.5210  -21.2670 N   0  0  0  0  0  0  0  0  0  0  0  0
   -6.6240   -0.8860  -20.2360 C   0  0  0  0  0  0  0  0  0  0  0  0
   -6.9620   -1.0800  -18.9190 C   0  0  0  0  0  0  0  0  0  0  0  0
   -6.2810   -0.5660  -17.8660 N   0  0  0  0  0  0  0  0  0  0  0  0
   -5.2410    0.1780  -18.1350 C   0  0  0  0  0  0  0  0  0  0  0  0
   -4.7870    0.4710  -19.4480 C   0  0  0  0  0  0  0  0  0  0  0  0
   -3.6640    1.3150  -19.6500 C   0  0  0  0  0  0  0  0  0  0  0  0
   -3.2660    1.6290  -20.9180 C   0  0  0  0  0  0  0  0  0  0  0  0
   -3.9770    1.1160  -22.0290 C   0  0  0  0  0  0  0  0  0  0  0  0
   -5.0640    0.2920  -21.8580 C   0  0  0  0  0  0  0  0  0  0  0  0
   -5.4960   -0.0620  -20.5470 C   0  0  0  0  0  0  0  0  0  0  0  0
   -5.6020   -0.0800  -22.7260 H   0  0  0  0  0  0  0  0  0  0  0  0
   -3.6600    1.3860  -23.0320 H   0  0  0  0  0  0  0  0  0  0  0  0
   -2.4190    2.2910  -21.0770 H   0  0  0  0  0  0  0  0  0  0  0  0
   -3.1670    1.7190  -18.7700 H   0  0  0  0  0  0  0  0  0  0  0  0
   -4.6960    0.5980  -17.2910 H   0  0  0  0  0  0  0  0  0  0  0  0
   -7.8210   -1.6930  -18.6700 H   0  0  0  0  0  0  0  0  0  0  0  0
   -8.7030   -1.2430  -21.5900 C   0  0  0  0  0  0  0  0  0  0  0  0
   -9.3360   -0.3090  -21.1600 O   0  0  0  0  0  0  0  0  0  0  0  0
   -7.8450   -3.8830  -23.2780 H   0  0  0  0  0  0  0  0  0  0  0  0
   -9.2260   -1.0760  -24.3040 H   0  0  0  0  0  0  0  0  0  0  0  0
   -9.8380   -2.7410  -24.5290 H   0  0  0  0  0  0  0  0  0  0  0  0
  -12.9590   -1.8010  -22.9900 H   0  0  0  0  0  0  0  0  0  0  0  0
  -12.1230   -3.1770  -23.7730 H   0  0  0  0  0  0  0  0  0  0  0  0
  -11.4720   -1.9850  -21.0670 H   0  0  0  0  0  0  0  0  0  0  0  0
  -12.2550   -4.4120  -20.3710 H   0  0  0  0  0  0  0  0  0  0  0  0
  -12.9610   -4.4690  -22.0080 H   0  0  0  0  0  0  0  0  0  0  0  0
  -13.4610   -3.2240  -20.8550 H   0  0  0  0  0  0  0  0  0  0  0  0
  1  2  1  0  0  0  0
  1 38  1  0  0  0  0
  1 39  1  0  0  0  0
  1 40  1  0  0  0  0
  2  3  1  0  0  0  0
  2  7  1  0  0  0  0
  2 37  1  1  0  0  0
  3  4  1  0  0  0  0
  3 35  1  0  0  0  0
  3 36  1  0  0  0  0
  4  5  1  0  0  0  0
  5  6  1  0  0  0  0
  5 33  1  0  0  0  0
  5 34  1  0  0  0  0
  6  7  1  0  0  0  0
  6 10  1  0  0  0  0
  6 30  1  1  0  0  0
  7  8  1  0  0  0  0
  7  9  1  0  0  0  0
 10 11  1  0  0  0  0
 10 32  1  0  0  0  0
 11 12  2  0  0  0  0
 11 13  1  0  0  0  0
 13 14  1  0  0  0  0
 13 30  1  0  0  0  0
 14 15  2  0  0  0  0
 14 23  1  0  0  0  0
 15 16  1  0  0  0  0
 15 29  1  0  0  0  0
 16 17  2  0  0  0  0
 17 18  1  0  0  0  0
 17 28  1  0  0  0  0
 18 19  2  0  0  0  0
 18 23  1  0  0  0  0
 19 20  1  0  0  0  0
 19 27  1  0  0  0  0
 20 21  2  0  0  0  0
 20 26  1  0  0  0  0
 21 22  1  0  0  0  0
 21 25  1  0  0  0  0
 22 23  2  0  0  0  0
 22 24  1  0  0  0  0
 30 31  2  0  0  0  0
M  END
>  <MODEL>
       1

$$$$
