tmp_first_model_12_59.pdb
 OpenBabel08272523333D

 60 65  0  0  1  0  0  0  0  0999 V2000
  -10.3190    1.2950  -28.3800 C   0  0  0  0  0  0  0  0  0  0  0  0
  -10.3240    1.2530  -26.9390 N   0  0  0  0  0  0  0  0  0  0  0  0
   -9.1770    1.2270  -26.2190 C   0  0  0  0  0  0  0  0  0  0  0  0
   -8.0570    1.1440  -26.6920 O   0  0  0  0  0  0  0  0  0  0  0  0
   -9.4490    1.3080  -24.7120 C   0  0  0  0  0  0  0  0  0  0  0  0
  -10.0190    0.0700  -24.2060 N   0  0  0  0  0  0  0  0  0  0  0  0
   -9.1550   -1.0840  -24.0270 C   0  0  0  0  0  0  0  0  0  0  0  0
   -9.4270   -1.8400  -22.6980 C   0  0  2  0  0  0  0  0  0  0  0  0
   -8.8960   -0.9720  -21.5220 C   0  0  0  0  0  0  0  0  0  0  0  0
   -9.4770   -0.0790  -20.9470 O   0  0  0  0  0  0  0  0  0  0  0  0
   -7.5970   -1.3580  -21.2700 N   0  0  0  0  0  0  0  0  0  0  0  0
   -6.8480   -0.7700  -20.2260 C   0  0  0  0  0  0  0  0  0  0  0  0
   -7.1170   -1.1250  -18.9280 C   0  0  0  0  0  0  0  0  0  0  0  0
   -6.3760   -0.7280  -17.8670 N   0  0  0  0  0  0  0  0  0  0  0  0
   -5.3460    0.0450  -18.0990 C   0  0  0  0  0  0  0  0  0  0  0  0
   -4.9840    0.5250  -19.3880 C   0  0  0  0  0  0  0  0  0  0  0  0
   -3.8740    1.3870  -19.5800 C   0  0  0  0  0  0  0  0  0  0  0  0
   -3.5980    1.8900  -20.8180 C   0  0  0  0  0  0  0  0  0  0  0  0
   -4.4150    1.5590  -21.9200 C   0  0  0  0  0  0  0  0  0  0  0  0
   -5.4750    0.6950  -21.7660 C   0  0  0  0  0  0  0  0  0  0  0  0
   -5.7780    0.1460  -20.4920 C   0  0  0  0  0  0  0  0  0  0  0  0
   -6.0980    0.4350  -22.6160 H   0  0  0  0  0  0  0  0  0  0  0  0
   -4.1990    1.9830  -22.8940 H   0  0  0  0  0  0  0  0  0  0  0  0
   -2.7510    2.5550  -20.9620 H   0  0  0  0  0  0  0  0  0  0  0  0
   -3.2660    1.6390  -18.7160 H   0  0  0  0  0  0  0  0  0  0  0  0
   -4.7440    0.3420  -17.2400 H   0  0  0  0  0  0  0  0  0  0  0  0
   -7.9620   -1.7720  -18.7010 H   0  0  0  0  0  0  0  0  0  0  0  0
   -7.1790   -2.5140  -22.0350 C   0  0  0  0  0  0  0  0  0  0  0  0
   -8.5050   -3.0870  -22.5560 C   0  0  2  0  0  0  0  0  0  0  0  0
   -8.2540   -3.9940  -23.7770 C   0  0  0  0  0  0  0  0  0  0  0  0
   -7.2730   -5.0750  -23.4300 C   0  0  0  0  0  0  0  0  0  0  0  0
   -5.9700   -4.9820  -23.6760 N   0  0  0  0  0  0  0  0  0  0  0  0
   -5.4420   -6.0830  -23.1500 N   0  0  0  0  0  0  0  0  0  0  0  0
   -6.3910   -6.8040  -22.6150 N   0  5  0  0  0  0  0  0  0  0  0  0
   -7.5620   -6.1910  -22.7770 N   0  0  0  0  0  0  0  0  0  0  0  0
   -7.7940   -3.4270  -24.5920 H   0  0  0  0  0  0  0  0  0  0  0  0
   -9.1800   -4.4520  -24.1340 H   0  0  0  0  0  0  0  0  0  0  0  0
   -8.9380   -3.7040  -21.7590 H   0  0  0  0  0  0  0  0  0  0  0  0
   -6.6370   -3.2490  -21.4300 H   0  0  0  0  0  0  0  0  0  0  0  0
   -6.5280   -2.2340  -22.8820 H   0  0  0  0  0  0  0  0  0  0  0  0
  -10.9250   -2.0440  -22.5650 C   0  0  0  0  0  0  0  0  0  0  0  0
  -11.4900   -3.0470  -21.7610 C   0  0  0  0  0  0  0  0  0  0  0  0
  -12.8270   -2.9700  -21.3960 C   0  0  0  0  0  0  0  0  0  0  0  0
  -13.5290   -4.1420  -20.3250 Cl  0  0  0  0  0  0  0  0  0  0  0  0
  -13.6490   -1.9220  -21.8040 C   0  0  0  0  0  0  0  0  0  0  0  0
  -13.1310   -0.9970  -22.6790 C   0  0  0  0  0  0  0  0  0  0  0  0
  -11.8050   -1.0810  -23.0920 C   0  0  0  0  0  0  0  0  0  0  0  0
  -11.3620   -0.0520  -24.0790 C   0  0  0  0  0  0  0  0  0  0  0  0
  -12.1470    0.6680  -24.7010 O   0  0  0  0  0  0  0  0  0  0  0  0
  -13.7170   -0.1620  -23.0360 H   0  0  0  0  0  0  0  0  0  0  0  0
  -14.6670   -1.8450  -21.4330 H   0  0  0  0  0  0  0  0  0  0  0  0
  -10.9090   -3.8850  -21.3890 H   0  0  0  0  0  0  0  0  0  0  0  0
   -8.1320   -0.7090  -24.0560 H   0  0  0  0  0  0  0  0  0  0  0  0
   -9.2720   -1.7830  -24.8630 H   0  0  0  0  0  0  0  0  0  0  0  0
   -8.5020    1.4810  -24.1950 H   0  0  0  0  0  0  0  0  0  0  0  0
  -10.1530    2.1240  -24.4840 H   0  0  0  0  0  0  0  0  0  0  0  0
  -11.1980    1.2490  -26.4260 H   0  0  0  0  0  0  0  0  0  0  0  0
  -10.3950    0.3010  -28.8300 H   0  0  0  0  0  0  0  0  0  0  0  0
   -9.3880    1.7410  -28.7280 H   0  0  0  0  0  0  0  0  0  0  0  0
  -11.1530    1.9070  -28.7220 H   0  0  0  0  0  0  0  0  0  0  0  0
  1  2  1  0  0  0  0
  1 58  1  0  0  0  0
  1 59  1  0  0  0  0
  1 60  1  0  0  0  0
  2  3  1  0  0  0  0
  2 57  1  0  0  0  0
  3  4  2  0  0  0  0
  3  5  1  0  0  0  0
  5  6  1  0  0  0  0
  5 55  1  0  0  0  0
  5 56  1  0  0  0  0
  6  7  1  0  0  0  0
  6 48  1  0  0  0  0
  7  8  1  0  0  0  0
  7 53  1  0  0  0  0
  7 54  1  0  0  0  0
  8  9  1  1  0  0  0
  8 29  1  0  0  0  0
  8 41  1  0  0  0  0
  9 10  2  0  0  0  0
  9 11  1  0  0  0  0
 11 12  1  0  0  0  0
 11 28  1  0  0  0  0
 12 13  2  0  0  0  0
 12 21  1  0  0  0  0
 13 14  1  0  0  0  0
 13 27  1  0  0  0  0
 14 15  2  0  0  0  0
 15 16  1  0  0  0  0
 15 26  1  0  0  0  0
 16 17  2  0  0  0  0
 16 21  1  0  0  0  0
 17 18  1  0  0  0  0
 17 25  1  0  0  0  0
 18 19  2  0  0  0  0
 18 24  1  0  0  0  0
 19 20  1  0  0  0  0
 19 23  1  0  0  0  0
 20 21  2  0  0  0  0
 20 22  1  0  0  0  0
 28 29  1  0  0  0  0
 28 39  1  0  0  0  0
 28 40  1  0  0  0  0
 29 30  1  0  0  0  0
 29 38  1  1  0  0  0
 30 31  1  0  0  0  0
 30 36  1  0  0  0  0
 30 37  1  0  0  0  0
 31 32  1  0  0  0  0
 31 35  2  0  0  0  0
 32 33  2  0  0  0  0
 33 34  1  0  0  0  0
 34 35  1  0  0  0  0
 41 42  2  0  0  0  0
 41 47  1  0  0  0  0
 42 43  1  0  0  0  0
 42 52  1  0  0  0  0
 43 44  1  0  0  0  0
 43 45  2  0  0  0  0
 45 46  1  0  0  0  0
 45 51  1  0  0  0  0
 46 47  2  0  0  0  0
 46 50  1  0  0  0  0
 47 48  1  0  0  0  0
 48 49  2  0  0  0  0
M  CHG  1  34  -1
M  END
>  <MODEL>
       1

$$$$
