tmp_first_model_4_83.pdb
 OpenBabel08272518513D

 46 50  0  0  1  0  0  0  0  0999 V2000
   -9.8720    0.2530  -27.9900 N   0  0  0  0  0  0  0  0  0  0  0  0
   -9.0400    0.5490  -26.5720 S   0  0  0  0  0  0  0  0  0  0  0  0
   -9.1680    1.9660  -26.2890 O   0  0  0  0  0  0  0  0  0  0  0  0
   -7.7200   -0.0680  -26.6190 O   0  0  0  0  0  0  0  0  0  0  0  0
  -10.0150   -0.4090  -25.4600 C   0  0  0  0  0  0  0  0  0  0  0  0
  -11.4020   -0.5010  -25.5570 C   0  0  0  0  0  0  0  0  0  0  0  0
  -12.0790   -1.3060  -24.6560 C   0  0  0  0  0  0  0  0  0  0  0  0
  -11.3660   -2.0330  -23.6990 C   0  0  0  0  0  0  0  0  0  0  0  0
   -9.9810   -1.8690  -23.5630 C   0  0  0  0  0  0  0  0  0  0  0  0
   -9.3150   -1.0620  -24.4660 C   0  0  0  0  0  0  0  0  0  0  0  0
   -8.2390   -0.9600  -24.4260 H   0  0  0  0  0  0  0  0  0  0  0  0
   -9.1800   -2.4700  -22.4360 C   0  0  1  0  0  0  0  0  0  0  0  0
  -10.0410   -3.5320  -21.7360 C   0  0  0  0  0  0  0  0  0  0  0  0
  -11.4830   -3.0610  -21.6330 C   0  0  0  0  0  0  0  0  0  0  0  0
  -12.0650   -2.8980  -22.9180 O   0  0  0  0  0  0  0  0  0  0  0  0
  -11.5230   -2.0940  -21.1250 H   0  0  0  0  0  0  0  0  0  0  0  0
  -12.1070   -3.7830  -21.1050 H   0  0  0  0  0  0  0  0  0  0  0  0
   -9.6200   -3.7570  -20.7570 H   0  0  0  0  0  0  0  0  0  0  0  0
   -9.9960   -4.4400  -22.3470 H   0  0  0  0  0  0  0  0  0  0  0  0
   -7.9000   -3.0060  -22.8800 N   0  0  0  0  0  0  0  0  0  0  0  0
   -6.8410   -2.6130  -22.1070 C   0  0  0  0  0  0  0  0  0  0  0  0
   -5.7010   -3.0250  -22.1130 O   0  0  0  0  0  0  0  0  0  0  0  0
   -7.3220   -1.5940  -21.2670 N   0  0  0  0  0  0  0  0  0  0  0  0
   -6.5130   -1.0390  -20.2370 C   0  0  0  0  0  0  0  0  0  0  0  0
   -6.7810   -1.2990  -18.9160 C   0  0  0  0  0  0  0  0  0  0  0  0
   -5.9210   -1.0330  -17.9060 N   0  0  0  0  0  0  0  0  0  0  0  0
   -4.7970   -0.4360  -18.2100 C   0  0  0  0  0  0  0  0  0  0  0  0
   -4.4480   -0.0170  -19.5190 C   0  0  0  0  0  0  0  0  0  0  0  0
   -3.2640    0.7250  -19.7550 C   0  0  0  0  0  0  0  0  0  0  0  0
   -3.0400    1.2760  -20.9850 C   0  0  0  0  0  0  0  0  0  0  0  0
   -3.9410    1.0340  -22.0470 C   0  0  0  0  0  0  0  0  0  0  0  0
   -5.0480    0.2430  -21.8570 C   0  0  0  0  0  0  0  0  0  0  0  0
   -5.3480   -0.2820  -20.5690 C   0  0  0  0  0  0  0  0  0  0  0  0
   -5.7050    0.0180  -22.6890 H   0  0  0  0  0  0  0  0  0  0  0  0
   -3.7570    1.4790  -23.0200 H   0  0  0  0  0  0  0  0  0  0  0  0
   -2.1810    1.9200  -21.1440 H   0  0  0  0  0  0  0  0  0  0  0  0
   -2.6310    0.9390  -18.8960 H   0  0  0  0  0  0  0  0  0  0  0  0
   -4.0990   -0.2380  -17.3990 H   0  0  0  0  0  0  0  0  0  0  0  0
   -7.7010   -1.8070  -18.6450 H   0  0  0  0  0  0  0  0  0  0  0  0
   -8.6860   -1.3850  -21.4580 C   0  0  0  0  0  0  0  0  0  0  0  0
   -9.3310   -0.4850  -20.9830 O   0  0  0  0  0  0  0  0  0  0  0  0
   -7.8430   -3.8750  -23.3870 H   0  0  0  0  0  0  0  0  0  0  0  0
  -13.1610   -1.3680  -24.6670 H   0  0  0  0  0  0  0  0  0  0  0  0
  -11.9240    0.0290  -26.3500 H   0  0  0  0  0  0  0  0  0  0  0  0
   -9.8500    1.0680  -28.6020 H   0  0  0  0  0  0  0  0  0  0  0  0
   -9.5380   -0.5980  -28.4330 H   0  0  0  0  0  0  0  0  0  0  0  0
  1  2  1  0  0  0  0
  1 45  1  0  0  0  0
  1 46  1  0  0  0  0
  2  3  2  0  0  0  0
  2  4  2  0  0  0  0
  2  5  1  0  0  0  0
  5  6  2  0  0  0  0
  5 10  1  0  0  0  0
  6  7  1  0  0  0  0
  6 44  1  0  0  0  0
  7  8  2  0  0  0  0
  7 43  1  0  0  0  0
  8  9  1  0  0  0  0
  8 15  1  0  0  0  0
  9 10  2  0  0  0  0
 10 11  1  0  0  0  0
 12  9  1  6  0  0  0
 12 13  1  0  0  0  0
 12 20  1  0  0  0  0
 12 40  1  0  0  0  0
 13 14  1  0  0  0  0
 13 18  1  0  0  0  0
 13 19  1  0  0  0  0
 14 15  1  0  0  0  0
 14 16  1  0  0  0  0
 14 17  1  0  0  0  0
 20 21  1  0  0  0  0
 20 42  1  0  0  0  0
 21 22  2  0  0  0  0
 21 23  1  0  0  0  0
 23 24  1  0  0  0  0
 23 40  1  0  0  0  0
 24 25  2  0  0  0  0
 24 33  1  0  0  0  0
 25 26  1  0  0  0  0
 25 39  1  0  0  0  0
 26 27  2  0  0  0  0
 27 28  1  0  0  0  0
 27 38  1  0  0  0  0
 28 29  2  0  0  0  0
 28 33  1  0  0  0  0
 29 30  1  0  0  0  0
 29 37  1  0  0  0  0
 30 31  2  0  0  0  0
 30 36  1  0  0  0  0
 31 32  1  0  0  0  0
 31 35  1  0  0  0  0
 32 33  2  0  0  0  0
 32 34  1  0  0  0  0
 40 41  2  0  0  0  0
M  END
>  <MODEL>
       1

$$$$
