tmp_first_model_2_91.pdb
 OpenBabel08272517383D

 66 71  0  0  1  0  0  0  0  0999 V2000
   -7.5160    3.3110  -21.8940 C   0  0  0  0  0  0  0  0  0  0  0  0
   -8.6320    2.8150  -22.6860 N   0  0  0  0  0  0  0  0  0  0  0  0
   -8.3130    2.0180  -23.7440 C   0  0  0  0  0  0  0  0  0  0  0  0
   -7.1540    1.7370  -24.0000 O   0  0  0  0  0  0  0  0  0  0  0  0
   -9.4400    1.4530  -24.6010 C   0  0  0  0  0  0  0  0  0  0  0  0
   -9.9460    0.2390  -24.0040 N   0  0  0  0  0  0  0  0  0  0  0  0
   -9.1080   -0.9520  -23.9830 C   0  0  0  0  0  0  0  0  0  0  0  0
   -9.2760   -1.7390  -22.6540 C   0  0  2  0  0  0  0  0  0  0  0  0
   -8.6720   -0.9000  -21.5000 C   0  0  0  0  0  0  0  0  0  0  0  0
   -9.1710    0.0730  -20.9680 O   0  0  0  0  0  0  0  0  0  0  0  0
   -7.4280   -1.4100  -21.1890 N   0  0  0  0  0  0  0  0  0  0  0  0
   -6.6300   -0.8260  -20.1740 C   0  0  0  0  0  0  0  0  0  0  0  0
   -6.9450   -1.0440  -18.8530 C   0  0  0  0  0  0  0  0  0  0  0  0
   -6.2390   -0.5540  -17.8060 N   0  0  0  0  0  0  0  0  0  0  0  0
   -5.1980    0.1930  -18.0820 C   0  0  0  0  0  0  0  0  0  0  0  0
   -4.7680    0.5120  -19.4000 C   0  0  0  0  0  0  0  0  0  0  0  0
   -3.6440    1.3490  -19.6360 C   0  0  0  0  0  0  0  0  0  0  0  0
   -3.2600    1.6500  -20.9130 C   0  0  0  0  0  0  0  0  0  0  0  0
   -3.9870    1.1410  -22.0110 C   0  0  0  0  0  0  0  0  0  0  0  0
   -5.0880    0.3390  -21.8120 C   0  0  0  0  0  0  0  0  0  0  0  0
   -5.5010   -0.0070  -20.4940 C   0  0  0  0  0  0  0  0  0  0  0  0
   -5.6620    0.0080  -22.6720 H   0  0  0  0  0  0  0  0  0  0  0  0
   -3.6750    1.3880  -23.0220 H   0  0  0  0  0  0  0  0  0  0  0  0
   -2.3990    2.2910  -21.0880 H   0  0  0  0  0  0  0  0  0  0  0  0
   -3.1130    1.7460  -18.7750 H   0  0  0  0  0  0  0  0  0  0  0  0
   -4.6330    0.5930  -17.2400 H   0  0  0  0  0  0  0  0  0  0  0  0
   -7.8060   -1.6600  -18.6040 H   0  0  0  0  0  0  0  0  0  0  0  0
   -7.0450   -2.5610  -21.9860 C   0  0  0  0  0  0  0  0  0  0  0  0
   -8.3820   -3.0150  -22.6010 C   0  0  2  0  0  0  0  0  0  0  0  0
   -8.2390   -3.7510  -23.9330 C   0  0  0  0  0  0  0  0  0  0  0  0
   -7.5660   -5.0160  -23.7800 N   0  0  0  0  0  0  0  0  0  0  0  0
   -7.1740   -5.7670  -24.8530 C   0  0  0  0  0  0  0  0  0  0  0  0
   -7.6700   -5.5510  -26.1600 C   0  0  0  0  0  0  0  0  0  0  0  0
   -7.3750   -6.3630  -27.1610 N   0  0  0  0  0  0  0  0  0  0  0  0
   -6.5610   -7.3900  -26.8950 C   0  0  0  0  0  0  0  0  0  0  0  0
   -6.0190   -7.5560  -25.6280 C   0  0  0  0  0  0  0  0  0  0  0  0
   -6.3150   -6.7600  -24.6020 N   0  0  0  0  0  0  0  0  0  0  0  0
   -5.3330   -8.3770  -25.4170 H   0  0  0  0  0  0  0  0  0  0  0  0
   -6.3440   -8.0780  -27.7100 H   0  0  0  0  0  0  0  0  0  0  0  0
   -8.3190   -4.7090  -26.3930 H   0  0  0  0  0  0  0  0  0  0  0  0
   -7.1720   -5.3120  -22.9010 H   0  0  0  0  0  0  0  0  0  0  0  0
   -9.2400   -3.9140  -24.3650 H   0  0  0  0  0  0  0  0  0  0  0  0
   -7.6760   -3.1230  -24.6470 H   0  0  0  0  0  0  0  0  0  0  0  0
   -8.8300   -3.7100  -21.8830 H   0  0  0  0  0  0  0  0  0  0  0  0
   -6.3120   -2.2880  -22.7630 H   0  0  0  0  0  0  0  0  0  0  0  0
   -6.5890   -3.3310  -21.3530 H   0  0  0  0  0  0  0  0  0  0  0  0
  -10.7730   -1.9600  -22.4710 C   0  0  0  0  0  0  0  0  0  0  0  0
  -11.2800   -3.0210  -21.7130 C   0  0  0  0  0  0  0  0  0  0  0  0
  -12.6280   -3.0600  -21.4010 C   0  0  0  0  0  0  0  0  0  0  0  0
  -13.2110   -4.2060  -20.2470 Cl  0  0  0  0  0  0  0  0  0  0  0  0
  -13.5430   -2.1410  -21.9030 C   0  0  0  0  0  0  0  0  0  0  0  0
  -13.0630   -1.1200  -22.6880 C   0  0  0  0  0  0  0  0  0  0  0  0
  -11.7010   -1.0200  -22.9470 C   0  0  0  0  0  0  0  0  0  0  0  0
  -11.2710    0.1890  -23.6980 C   0  0  0  0  0  0  0  0  0  0  0  0
  -12.0640    1.0760  -24.0030 O   0  0  0  0  0  0  0  0  0  0  0  0
  -13.7070   -0.3470  -23.0930 H   0  0  0  0  0  0  0  0  0  0  0  0
  -14.5900   -2.2140  -21.6370 H   0  0  0  0  0  0  0  0  0  0  0  0
  -10.6420   -3.8010  -21.3160 H   0  0  0  0  0  0  0  0  0  0  0  0
   -9.3800   -1.6090  -24.8220 H   0  0  0  0  0  0  0  0  0  0  0  0
   -8.0710   -0.6280  -24.1120 H   0  0  0  0  0  0  0  0  0  0  0  0
   -9.0460    1.2380  -25.6020 H   0  0  0  0  0  0  0  0  0  0  0  0
  -10.2900    2.1280  -24.7040 H   0  0  0  0  0  0  0  0  0  0  0  0
   -9.5240    2.6970  -22.2270 H   0  0  0  0  0  0  0  0  0  0  0  0
   -7.8670    3.9790  -21.1050 H   0  0  0  0  0  0  0  0  0  0  0  0
   -6.8490    3.8870  -22.5380 H   0  0  0  0  0  0  0  0  0  0  0  0
   -6.9490    2.4640  -21.4870 H   0  0  0  0  0  0  0  0  0  0  0  0
  1  2  1  0  0  0  0
  1 64  1  0  0  0  0
  1 65  1  0  0  0  0
  1 66  1  0  0  0  0
  2  3  1  0  0  0  0
  2 63  1  0  0  0  0
  3  4  2  0  0  0  0
  3  5  1  0  0  0  0
  5  6  1  0  0  0  0
  5 61  1  0  0  0  0
  5 62  1  0  0  0  0
  6  7  1  0  0  0  0
  6 54  1  0  0  0  0
  7  8  1  0  0  0  0
  7 59  1  0  0  0  0
  7 60  1  0  0  0  0
  8  9  1  1  0  0  0
  8 29  1  0  0  0  0
  8 47  1  0  0  0  0
  9 10  2  0  0  0  0
  9 11  1  0  0  0  0
 11 12  1  0  0  0  0
 11 28  1  0  0  0  0
 12 13  2  0  0  0  0
 12 21  1  0  0  0  0
 13 14  1  0  0  0  0
 13 27  1  0  0  0  0
 14 15  2  0  0  0  0
 15 16  1  0  0  0  0
 15 26  1  0  0  0  0
 16 17  2  0  0  0  0
 16 21  1  0  0  0  0
 17 18  1  0  0  0  0
 17 25  1  0  0  0  0
 18 19  2  0  0  0  0
 18 24  1  0  0  0  0
 19 20  1  0  0  0  0
 19 23  1  0  0  0  0
 20 21  2  0  0  0  0
 20 22  1  0  0  0  0
 28 29  1  0  0  0  0
 28 45  1  0  0  0  0
 28 46  1  0  0  0  0
 29 30  1  0  0  0  0
 29 44  1  1  0  0  0
 30 31  1  0  0  0  0
 30 42  1  0  0  0  0
 30 43  1  0  0  0  0
 31 32  1  0  0  0  0
 31 41  1  0  0  0  0
 32 33  2  0  0  0  0
 32 37  1  0  0  0  0
 33 34  1  0  0  0  0
 33 40  1  0  0  0  0
 34 35  2  0  0  0  0
 35 36  1  0  0  0  0
 35 39  1  0  0  0  0
 36 37  2  0  0  0  0
 36 38  1  0  0  0  0
 47 48  2  0  0  0  0
 47 53  1  0  0  0  0
 48 49  1  0  0  0  0
 48 58  1  0  0  0  0
 49 50  1  0  0  0  0
 49 51  2  0  0  0  0
 51 52  1  0  0  0  0
 51 57  1  0  0  0  0
 52 53  2  0  0  0  0
 52 56  1  0  0  0  0
 53 54  1  0  0  0  0
 54 55  2  0  0  0  0
M  END
>  <MODEL>
       1

$$$$
