tmp_first_model_6_53.pdb
 OpenBabel08272519583D

 59 63  0  0  1  0  0  0  0  0999 V2000
   -7.7150    4.3940  -22.3620 C   0  0  0  0  0  0  0  0  0  0  0  0
   -6.7950    3.4670  -23.1290 C   0  0  0  0  0  0  0  0  0  0  0  0
   -7.5710    2.7150  -24.0930 N   0  0  0  0  0  0  0  0  0  0  0  0
   -6.9920    1.7050  -24.7710 C   0  0  0  0  0  0  0  0  0  0  0  0
   -5.7950    1.4560  -24.6920 O   0  0  0  0  0  0  0  0  0  0  0  0
   -7.9480    0.8940  -25.6510 C   0  0  0  0  0  0  0  0  0  0  0  0
   -8.8980    0.1510  -24.8370 N   0  0  0  0  0  0  0  0  0  0  0  0
   -8.5340   -1.1770  -24.3610 C   0  0  0  0  0  0  0  0  0  0  0  0
   -9.0670   -1.4490  -22.9270 C   0  0  2  0  0  0  0  0  0  0  0  0
   -8.3280   -0.5230  -21.9290 C   0  0  0  0  0  0  0  0  0  0  0  0
   -8.4760    0.6750  -21.7760 O   0  0  0  0  0  0  0  0  0  0  0  0
   -7.4580   -1.2870  -21.1980 N   0  0  0  0  0  0  0  0  0  0  0  0
   -6.6440   -0.7480  -20.1790 C   0  0  0  0  0  0  0  0  0  0  0  0
   -6.9120   -1.0660  -18.8730 C   0  0  0  0  0  0  0  0  0  0  0  0
   -6.2160   -0.5980  -17.8130 N   0  0  0  0  0  0  0  0  0  0  0  0
   -5.2000    0.1920  -18.0680 C   0  0  0  0  0  0  0  0  0  0  0  0
   -4.7850    0.5610  -19.3780 C   0  0  0  0  0  0  0  0  0  0  0  0
   -3.6490    1.3860  -19.5940 C   0  0  0  0  0  0  0  0  0  0  0  0
   -3.2660    1.7240  -20.8620 C   0  0  0  0  0  0  0  0  0  0  0  0
   -4.0050    1.2590  -21.9720 C   0  0  0  0  0  0  0  0  0  0  0  0
   -5.0960    0.4430  -21.7920 C   0  0  0  0  0  0  0  0  0  0  0  0
   -5.5250    0.0840  -20.4830 C   0  0  0  0  0  0  0  0  0  0  0  0
   -5.6270    0.0830  -22.6680 H   0  0  0  0  0  0  0  0  0  0  0  0
   -3.7190    1.5410  -22.9820 H   0  0  0  0  0  0  0  0  0  0  0  0
   -2.3930    2.3490  -21.0250 H   0  0  0  0  0  0  0  0  0  0  0  0
   -3.1000    1.7390  -18.7260 H   0  0  0  0  0  0  0  0  0  0  0  0
   -4.6410    0.5740  -17.2150 H   0  0  0  0  0  0  0  0  0  0  0  0
   -7.7480   -1.7260  -18.6440 H   0  0  0  0  0  0  0  0  0  0  0  0
   -7.4200   -2.6800  -21.5640 C   0  0  0  0  0  0  0  0  0  0  0  0
   -8.6740   -2.8720  -22.4310 C   0  0  2  0  0  0  0  0  0  0  0  0
   -8.4610   -3.9410  -23.5010 C   0  0  0  0  0  0  0  0  0  0  0  0
   -8.2590   -4.9130  -23.0370 H   0  0  0  0  0  0  0  0  0  0  0  0
   -7.5970   -3.6950  -24.1310 H   0  0  0  0  0  0  0  0  0  0  0  0
   -9.3350   -4.0470  -24.1530 H   0  0  0  0  0  0  0  0  0  0  0  0
   -9.4640   -3.2260  -21.7670 H   0  0  0  0  0  0  0  0  0  0  0  0
   -6.5000   -2.9310  -22.1130 H   0  0  0  0  0  0  0  0  0  0  0  0
   -7.4320   -3.2990  -20.6680 H   0  0  0  0  0  0  0  0  0  0  0  0
  -10.5510   -1.1330  -22.9170 C   0  0  0  0  0  0  0  0  0  0  0  0
  -11.4610   -1.8050  -22.0980 C   0  0  0  0  0  0  0  0  0  0  0  0
  -12.8080   -1.5120  -22.1900 C   0  0  0  0  0  0  0  0  0  0  0  0
  -13.9210   -2.4120  -21.2030 Cl  0  0  0  0  0  0  0  0  0  0  0  0
  -13.2940   -0.5120  -23.0310 C   0  0  0  0  0  0  0  0  0  0  0  0
  -12.3880    0.2230  -23.7720 C   0  0  0  0  0  0  0  0  0  0  0  0
  -11.0250   -0.0680  -23.6950 C   0  0  0  0  0  0  0  0  0  0  0  0
  -10.0580    0.7640  -24.4720 C   0  0  0  0  0  0  0  0  0  0  0  0
  -10.3130    1.9350  -24.7670 O   0  0  0  0  0  0  0  0  0  0  0  0
  -12.7370    1.0050  -24.4380 H   0  0  0  0  0  0  0  0  0  0  0  0
  -14.3630   -0.3420  -23.0980 H   0  0  0  0  0  0  0  0  0  0  0  0
  -11.1390   -2.5530  -21.3820 H   0  0  0  0  0  0  0  0  0  0  0  0
   -7.4420   -1.2580  -24.3540 H   0  0  0  0  0  0  0  0  0  0  0  0
   -8.9380   -1.9260  -25.0540 H   0  0  0  0  0  0  0  0  0  0  0  0
   -7.3610    0.2220  -26.2810 H   0  0  0  0  0  0  0  0  0  0  0  0
   -8.5090    1.5600  -26.3140 H   0  0  0  0  0  0  0  0  0  0  0  0
   -8.5820    2.7810  -24.0710 H   0  0  0  0  0  0  0  0  0  0  0  0
   -6.2910    2.7640  -22.4520 H   0  0  0  0  0  0  0  0  0  0  0  0
   -6.0100    4.0090  -23.6650 H   0  0  0  0  0  0  0  0  0  0  0  0
   -8.4790    3.7890  -21.8690 H   0  0  0  0  0  0  0  0  0  0  0  0
   -8.2090    5.1070  -23.0330 H   0  0  0  0  0  0  0  0  0  0  0  0
   -7.1750    4.9570  -21.5960 H   0  0  0  0  0  0  0  0  0  0  0  0
  1  2  1  0  0  0  0
  1 57  1  0  0  0  0
  1 58  1  0  0  0  0
  1 59  1  0  0  0  0
  2  3  1  0  0  0  0
  2 55  1  0  0  0  0
  2 56  1  0  0  0  0
  3  4  1  0  0  0  0
  3 54  1  0  0  0  0
  4  5  2  0  0  0  0
  4  6  1  0  0  0  0
  6  7  1  0  0  0  0
  6 52  1  0  0  0  0
  6 53  1  0  0  0  0
  7  8  1  0  0  0  0
  7 45  1  0  0  0  0
  8  9  1  0  0  0  0
  8 50  1  0  0  0  0
  8 51  1  0  0  0  0
  9 10  1  1  0  0  0
  9 30  1  0  0  0  0
  9 38  1  0  0  0  0
 10 11  2  0  0  0  0
 10 12  1  0  0  0  0
 12 13  1  0  0  0  0
 12 29  1  0  0  0  0
 13 14  2  0  0  0  0
 13 22  1  0  0  0  0
 14 15  1  0  0  0  0
 14 28  1  0  0  0  0
 15 16  2  0  0  0  0
 16 17  1  0  0  0  0
 16 27  1  0  0  0  0
 17 18  2  0  0  0  0
 17 22  1  0  0  0  0
 18 19  1  0  0  0  0
 18 26  1  0  0  0  0
 19 20  2  0  0  0  0
 19 25  1  0  0  0  0
 20 21  1  0  0  0  0
 20 24  1  0  0  0  0
 21 22  2  0  0  0  0
 21 23  1  0  0  0  0
 29 30  1  0  0  0  0
 29 36  1  0  0  0  0
 29 37  1  0  0  0  0
 30 31  1  0  0  0  0
 30 35  1  1  0  0  0
 31 32  1  0  0  0  0
 31 33  1  0  0  0  0
 31 34  1  0  0  0  0
 38 39  2  0  0  0  0
 38 44  1  0  0  0  0
 39 40  1  0  0  0  0
 39 49  1  0  0  0  0
 40 41  1  0  0  0  0
 40 42  2  0  0  0  0
 42 43  1  0  0  0  0
 42 48  1  0  0  0  0
 43 44  2  0  0  0  0
 43 47  1  0  0  0  0
 44 45  1  0  0  0  0
 45 46  2  0  0  0  0
M  END
>  <MODEL>
       1

$$$$
