tmp_first_model_12_5.pdb
 OpenBabel08272523333D

 58 61  0  0  1  0  0  0  0  0999 V2000
   -5.0830   -3.0550  -22.4180 C   0  0  0  0  0  0  0  0  0  0  0  0
   -6.4030   -3.2200  -22.4030 C   0  0  0  0  0  0  0  0  0  0  0  0
   -7.3860   -2.7680  -21.3600 C   0  0  0  0  0  0  0  0  0  0  0  0
   -7.4260   -1.3220  -21.2000 N   0  0  0  0  0  0  0  0  0  0  0  0
   -8.2550   -0.4540  -21.9010 C   0  0  0  0  0  0  0  0  0  0  0  0
   -8.3910    0.6920  -21.5120 O   0  0  0  0  0  0  0  0  0  0  0  0
   -8.9650   -0.9540  -23.1780 C   0  0  2  0  0  0  0  0  0  0  0  0
   -8.4910   -0.1250  -24.3980 C   0  0  0  0  0  0  0  0  0  0  0  0
   -9.0130    1.2410  -24.3890 N   0  0  0  0  0  0  0  0  0  0  0  0
   -8.1800    2.3160  -24.8920 C   0  0  0  0  0  0  0  0  0  0  0  0
   -7.1610    2.7720  -23.8470 C   0  0  0  0  0  0  0  0  0  0  0  0
   -5.9780    2.4940  -23.9530 O   0  0  0  0  0  0  0  0  0  0  0  0
   -7.6480    3.5080  -22.8140 N   0  0  0  0  0  0  0  0  0  0  0  0
   -6.7410    3.8680  -21.7370 C   0  0  0  0  0  0  0  0  0  0  0  0
   -7.2680    4.5100  -21.0300 H   0  0  0  0  0  0  0  0  0  0  0  0
   -5.8890    4.4230  -22.1380 H   0  0  0  0  0  0  0  0  0  0  0  0
   -6.3570    2.9650  -21.2390 H   0  0  0  0  0  0  0  0  0  0  0  0
   -8.6310    3.4430  -22.6030 H   0  0  0  0  0  0  0  0  0  0  0  0
   -8.8390    3.1420  -25.1710 H   0  0  0  0  0  0  0  0  0  0  0  0
   -7.6420    1.9810  -25.7820 H   0  0  0  0  0  0  0  0  0  0  0  0
  -10.2660    1.5650  -23.9500 C   0  0  0  0  0  0  0  0  0  0  0  0
  -10.7050    2.7090  -24.0150 O   0  0  0  0  0  0  0  0  0  0  0  0
  -11.0680    0.4450  -23.3670 C   0  0  0  0  0  0  0  0  0  0  0  0
  -12.4300    0.6530  -23.1430 C   0  0  0  0  0  0  0  0  0  0  0  0
  -13.1930   -0.3250  -22.5370 C   0  0  0  0  0  0  0  0  0  0  0  0
  -12.5750   -1.5070  -22.1350 C   0  0  0  0  0  0  0  0  0  0  0  0
  -13.4760   -2.6620  -21.1930 Cl  0  0  0  0  0  0  0  0  0  0  0  0
  -11.2290   -1.7360  -22.3800 C   0  0  0  0  0  0  0  0  0  0  0  0
  -10.4620   -0.7570  -23.0100 C   0  0  0  0  0  0  0  0  0  0  0  0
  -10.7890   -2.6810  -22.0750 H   0  0  0  0  0  0  0  0  0  0  0  0
  -14.2520   -0.1750  -22.3550 H   0  0  0  0  0  0  0  0  0  0  0  0
  -12.8670    1.5990  -23.4430 H   0  0  0  0  0  0  0  0  0  0  0  0
   -7.3960   -0.0710  -24.4010 H   0  0  0  0  0  0  0  0  0  0  0  0
   -8.8160   -0.6350  -25.3160 H   0  0  0  0  0  0  0  0  0  0  0  0
   -8.7360   -2.0150  -23.3700 H   0  0  0  0  0  0  0  0  0  0  0  0
   -6.6430   -0.7540  -20.1660 C   0  0  0  0  0  0  0  0  0  0  0  0
   -6.9400   -1.0410  -18.8570 C   0  0  0  0  0  0  0  0  0  0  0  0
   -6.2580   -0.5560  -17.8000 N   0  0  0  0  0  0  0  0  0  0  0  0
   -5.2150    0.2020  -18.0550 C   0  0  0  0  0  0  0  0  0  0  0  0
   -4.7970    0.5700  -19.3640 C   0  0  0  0  0  0  0  0  0  0  0  0
   -3.6600    1.3900  -19.5910 C   0  0  0  0  0  0  0  0  0  0  0  0
   -3.3140    1.7650  -20.8600 C   0  0  0  0  0  0  0  0  0  0  0  0
   -4.0980    1.3600  -21.9610 C   0  0  0  0  0  0  0  0  0  0  0  0
   -5.1730    0.5230  -21.7690 C   0  0  0  0  0  0  0  0  0  0  0  0
   -5.5590    0.1190  -20.4630 C   0  0  0  0  0  0  0  0  0  0  0  0
   -5.7320    0.1600  -22.6270 H   0  0  0  0  0  0  0  0  0  0  0  0
   -3.8530    1.7060  -22.9610 H   0  0  0  0  0  0  0  0  0  0  0  0
   -2.4310    2.3810  -21.0280 H   0  0  0  0  0  0  0  0  0  0  0  0
   -3.0840    1.7200  -18.7320 H   0  0  0  0  0  0  0  0  0  0  0  0
   -4.6550    0.5800  -17.2000 H   0  0  0  0  0  0  0  0  0  0  0  0
   -7.7910   -1.6840  -18.6350 H   0  0  0  0  0  0  0  0  0  0  0  0
   -8.3440   -3.1620  -21.7090 H   0  0  0  0  0  0  0  0  0  0  0  0
   -7.1120   -3.1820  -20.3890 H   0  0  0  0  0  0  0  0  0  0  0  0
   -7.1480   -3.8670  -23.5560 C   0  0  0  0  0  0  0  0  0  0  0  0
   -8.3890   -3.8680  -23.4500 O   0  0  0  0  0  0  0  0  0  0  0  0
   -6.4510   -4.3010  -24.4910 O   0  5  0  0  0  0  0  0  0  0  0  0
   -4.4600   -3.4340  -23.2250 H   0  0  0  0  0  0  0  0  0  0  0  0
   -4.6060   -2.4920  -21.6140 H   0  0  0  0  0  0  0  0  0  0  0  0
  1  2  2  0  0  0  0
  1 57  1  0  0  0  0
  1 58  1  0  0  0  0
  2  3  1  0  0  0  0
  2 54  1  0  0  0  0
  3  4  1  0  0  0  0
  3 52  1  0  0  0  0
  3 53  1  0  0  0  0
  4  5  1  0  0  0  0
  4 36  1  0  0  0  0
  5  6  2  0  0  0  0
  5  7  1  0  0  0  0
  7  8  1  0  0  0  0
  7 29  1  0  0  0  0
  7 35  1  6  0  0  0
  8  9  1  0  0  0  0
  8 33  1  0  0  0  0
  8 34  1  0  0  0  0
  9 10  1  0  0  0  0
  9 21  1  0  0  0  0
 10 11  1  0  0  0  0
 10 19  1  0  0  0  0
 10 20  1  0  0  0  0
 11 12  2  0  0  0  0
 11 13  1  0  0  0  0
 13 14  1  0  0  0  0
 13 18  1  0  0  0  0
 14 15  1  0  0  0  0
 14 16  1  0  0  0  0
 14 17  1  0  0  0  0
 21 22  2  0  0  0  0
 21 23  1  0  0  0  0
 23 24  2  0  0  0  0
 23 29  1  0  0  0  0
 24 25  1  0  0  0  0
 24 32  1  0  0  0  0
 25 26  2  0  0  0  0
 25 31  1  0  0  0  0
 26 27  1  0  0  0  0
 26 28  1  0  0  0  0
 28 29  2  0  0  0  0
 28 30  1  0  0  0  0
 36 37  2  0  0  0  0
 36 45  1  0  0  0  0
 37 38  1  0  0  0  0
 37 51  1  0  0  0  0
 38 39  2  0  0  0  0
 39 40  1  0  0  0  0
 39 50  1  0  0  0  0
 40 41  2  0  0  0  0
 40 45  1  0  0  0  0
 41 42  1  0  0  0  0
 41 49  1  0  0  0  0
 42 43  2  0  0  0  0
 42 48  1  0  0  0  0
 43 44  1  0  0  0  0
 43 47  1  0  0  0  0
 44 45  2  0  0  0  0
 44 46  1  0  0  0  0
 54 55  2  0  0  0  0
 54 56  1  0  0  0  0
M  CHG  1  56  -1
M  END
>  <MODEL>
       1

$$$$
