tmp_first_model_17_72.pdb
 OpenBabel08282502223D

 41 44  0  0  0  0  0  0  0  0999 V2000
   -5.5870   -2.9770  -21.6850 O   0  0  0  0  0  0  0  0  0  0  0  0
   -6.7870   -2.7860  -21.7960 C   0  0  0  0  0  0  0  0  0  0  0  0
   -7.4220   -1.4820  -21.2550 C   0  0  0  0  0  0  0  0  0  0  0  0
   -6.5820   -0.8280  -20.1790 C   0  0  0  0  0  0  0  0  0  0  0  0
   -6.8740   -1.0420  -18.8560 C   0  0  0  0  0  0  0  0  0  0  0  0
   -6.1900   -0.5390  -17.7940 N   0  0  0  0  0  0  0  0  0  0  0  0
   -5.1560    0.2230  -18.0630 C   0  0  0  0  0  0  0  0  0  0  0  0
   -4.7210    0.5320  -19.3810 C   0  0  0  0  0  0  0  0  0  0  0  0
   -3.5930    1.3620  -19.6190 C   0  0  0  0  0  0  0  0  0  0  0  0
   -3.1960    1.6410  -20.8980 C   0  0  0  0  0  0  0  0  0  0  0  0
   -3.9070    1.0970  -21.9910 C   0  0  0  0  0  0  0  0  0  0  0  0
   -5.0000    0.2910  -21.7860 C   0  0  0  0  0  0  0  0  0  0  0  0
   -5.4450   -0.0100  -20.4710 C   0  0  0  0  0  0  0  0  0  0  0  0
   -5.5190   -0.1360  -22.6360 H   0  0  0  0  0  0  0  0  0  0  0  0
   -3.5710    1.3110  -23.0000 H   0  0  0  0  0  0  0  0  0  0  0  0
   -2.3280    2.2680  -21.0860 H   0  0  0  0  0  0  0  0  0  0  0  0
   -3.0510    1.7740  -18.7710 H   0  0  0  0  0  0  0  0  0  0  0  0
   -4.6000    0.6280  -17.2170 H   0  0  0  0  0  0  0  0  0  0  0  0
   -7.7200   -1.6700  -18.5840 H   0  0  0  0  0  0  0  0  0  0  0  0
   -8.4190   -1.6970  -20.8450 H   0  0  0  0  0  0  0  0  0  0  0  0
   -7.5740   -0.7810  -22.0870 H   0  0  0  0  0  0  0  0  0  0  0  0
   -7.6060   -3.7350  -22.3640 N   0  0  0  0  0  0  0  0  0  0  0  0
   -7.0700   -5.0870  -22.5440 C   0  0  0  0  0  0  0  0  0  0  0  0
   -6.3240   -5.2880  -23.8690 C   0  0  0  0  0  0  0  0  0  0  0  0
   -6.9780   -4.5530  -25.0500 C   0  0  0  0  0  0  0  0  0  0  0  0
   -8.4760   -4.7030  -25.0720 C   0  0  0  0  0  0  0  0  0  0  0  0
   -9.3210   -5.5490  -26.3290 S   0  0  0  0  0  0  0  0  0  0  0  0
  -10.8350   -5.2860  -25.5570 C   0  0  0  0  0  0  0  0  0  0  0  0
  -10.7010   -4.5770  -24.4010 C   0  0  0  0  0  0  0  0  0  0  0  0
   -9.3390   -4.2560  -24.1060 C   0  0  0  0  0  0  0  0  0  0  0  0
   -8.9380   -3.4520  -22.8830 C   0  0  0  0  0  0  0  0  0  0  0  0
   -9.0140   -2.3890  -23.1410 H   0  0  0  0  0  0  0  0  0  0  0  0
   -9.6970   -3.6180  -22.1070 H   0  0  0  0  0  0  0  0  0  0  0  0
  -11.5450   -4.2810  -23.7810 H   0  0  0  0  0  0  0  0  0  0  0  0
  -11.7500   -5.6400  -26.0130 H   0  0  0  0  0  0  0  0  0  0  0  0
   -6.7430   -3.4850  -24.9670 H   0  0  0  0  0  0  0  0  0  0  0  0
   -6.5430   -4.8920  -25.9920 H   0  0  0  0  0  0  0  0  0  0  0  0
   -5.2930   -4.9450  -23.7510 H   0  0  0  0  0  0  0  0  0  0  0  0
   -6.2780   -6.3630  -24.0920 H   0  0  0  0  0  0  0  0  0  0  0  0
   -6.4190   -5.3250  -21.7020 H   0  0  0  0  0  0  0  0  0  0  0  0
   -7.9160   -5.7800  -22.4960 H   0  0  0  0  0  0  0  0  0  0  0  0
  1  2  2  0  0  0  0
  2  3  1  0  0  0  0
  2 22  1  0  0  0  0
  3  4  1  0  0  0  0
  3 20  1  0  0  0  0
  3 21  1  0  0  0  0
  4  5  2  0  0  0  0
  4 13  1  0  0  0  0
  5  6  1  0  0  0  0
  5 19  1  0  0  0  0
  6  7  2  0  0  0  0
  7  8  1  0  0  0  0
  7 18  1  0  0  0  0
  8  9  2  0  0  0  0
  8 13  1  0  0  0  0
  9 10  1  0  0  0  0
  9 17  1  0  0  0  0
 10 11  2  0  0  0  0
 10 16  1  0  0  0  0
 11 12  1  0  0  0  0
 11 15  1  0  0  0  0
 12 13  2  0  0  0  0
 12 14  1  0  0  0  0
 22 23  1  0  0  0  0
 22 31  1  0  0  0  0
 23 24  1  0  0  0  0
 23 40  1  0  0  0  0
 23 41  1  0  0  0  0
 24 25  1  0  0  0  0
 24 38  1  0  0  0  0
 24 39  1  0  0  0  0
 25 26  1  0  0  0  0
 25 36  1  0  0  0  0
 25 37  1  0  0  0  0
 26 27  1  0  0  0  0
 26 30  2  0  0  0  0
 27 28  1  0  0  0  0
 28 29  2  0  0  0  0
 28 35  1  0  0  0  0
 29 30  1  0  0  0  0
 29 34  1  0  0  0  0
 30 31  1  0  0  0  0
 31 32  1  0  0  0  0
 31 33  1  0  0  0  0
M  END
>  <MODEL>
       1

$$$$
