tmp_first_model_5_51.pdb
 OpenBabel08272519233D

 50 52  0  0  0  0  0  0  0  0999 V2000
   -9.8970   -3.9200  -25.5640 C   0  0  0  0  0  0  0  0  0  0  0  0
   -8.9240   -3.5630  -24.7280 C   0  0  0  0  0  0  0  0  0  0  0  0
   -8.8000   -2.1370  -24.2290 C   0  0  0  0  0  0  0  0  0  0  0  0
   -9.4430   -1.8960  -22.9380 N   0  0  0  0  0  0  0  0  0  0  0  0
   -8.7590   -1.3680  -21.8350 C   0  0  0  0  0  0  0  0  0  0  0  0
   -9.2650   -0.6030  -21.0380 O   0  0  0  0  0  0  0  0  0  0  0  0
   -7.4460   -1.7770  -21.7320 N   0  0  0  0  0  0  0  0  0  0  0  0
   -6.6700   -1.4550  -20.5970 C   0  0  0  0  0  0  0  0  0  0  0  0
   -6.8160   -2.1050  -19.3980 C   0  0  0  0  0  0  0  0  0  0  0  0
   -5.9700   -1.9480  -18.3470 N   0  0  0  0  0  0  0  0  0  0  0  0
   -4.9220   -1.1720  -18.5020 C   0  0  0  0  0  0  0  0  0  0  0  0
   -4.6750   -0.4160  -19.6860 C   0  0  0  0  0  0  0  0  0  0  0  0
   -3.5530    0.4400  -19.8500 C   0  0  0  0  0  0  0  0  0  0  0  0
   -3.5010    1.2960  -20.9200 C   0  0  0  0  0  0  0  0  0  0  0  0
   -4.5090    1.2910  -21.9150 C   0  0  0  0  0  0  0  0  0  0  0  0
   -5.5440    0.3960  -21.8360 C   0  0  0  0  0  0  0  0  0  0  0  0
   -5.6370   -0.4830  -20.7220 C   0  0  0  0  0  0  0  0  0  0  0  0
   -6.3070    0.3580  -22.6100 H   0  0  0  0  0  0  0  0  0  0  0  0
   -4.4590    1.9910  -22.7490 H   0  0  0  0  0  0  0  0  0  0  0  0
   -2.6710    1.9900  -21.0270 H   0  0  0  0  0  0  0  0  0  0  0  0
   -2.7930    0.4930  -19.0720 H   0  0  0  0  0  0  0  0  0  0  0  0
   -4.2310   -1.1060  -17.6570 H   0  0  0  0  0  0  0  0  0  0  0  0
   -7.6600   -2.7720  -19.2320 H   0  0  0  0  0  0  0  0  0  0  0  0
   -7.1800   -2.6300  -22.2280 H   0  0  0  0  0  0  0  0  0  0  0  0
  -10.8410   -2.1380  -22.8010 C   0  0  0  0  0  0  0  0  0  0  0  0
  -11.7800   -1.5490  -23.6540 C   0  0  0  0  0  0  0  0  0  0  0  0
  -13.1420   -1.7560  -23.4380 C   0  0  0  0  0  0  0  0  0  0  0  0
  -13.5830   -2.5630  -22.3920 C   0  0  0  0  0  0  0  0  0  0  0  0
  -12.6340   -3.1890  -21.6000 C   0  0  0  0  0  0  0  0  0  0  0  0
  -13.1960   -4.1120  -20.2440 Cl  0  0  0  0  0  0  0  0  0  0  0  0
  -11.2710   -3.0270  -21.8110 C   0  0  0  0  0  0  0  0  0  0  0  0
  -10.5580   -3.6020  -21.2170 H   0  0  0  0  0  0  0  0  0  0  0  0
  -14.6390   -2.6750  -22.1510 H   0  0  0  0  0  0  0  0  0  0  0  0
  -13.8790   -1.2670  -24.0700 H   0  0  0  0  0  0  0  0  0  0  0  0
  -11.4580   -0.9250  -24.4880 H   0  0  0  0  0  0  0  0  0  0  0  0
   -7.7450   -1.8890  -24.1060 H   0  0  0  0  0  0  0  0  0  0  0  0
   -9.2190   -1.4530  -24.9830 H   0  0  0  0  0  0  0  0  0  0  0  0
   -7.8650   -4.5120  -24.2300 C   0  0  0  0  0  0  0  0  0  0  0  0
   -7.1670   -4.2310  -23.2580 O   0  0  0  0  0  0  0  0  0  0  0  0
   -7.6910   -5.6770  -24.9030 N   0  0  0  0  0  0  0  0  0  0  0  0
   -6.9310   -6.7790  -24.3350 C   0  0  0  0  0  0  0  0  0  0  0  0
   -7.7880   -7.6380  -23.4020 C   0  0  0  0  0  0  0  0  0  0  0  0
   -8.1530   -7.0190  -22.5750 H   0  0  0  0  0  0  0  0  0  0  0  0
   -7.2170   -8.4770  -22.9860 H   0  0  0  0  0  0  0  0  0  0  0  0
   -8.6570   -8.0440  -23.9360 H   0  0  0  0  0  0  0  0  0  0  0  0
   -6.0850   -6.3450  -23.7970 H   0  0  0  0  0  0  0  0  0  0  0  0
   -6.5240   -7.3700  -25.1630 H   0  0  0  0  0  0  0  0  0  0  0  0
   -8.2460   -5.8610  -25.7210 H   0  0  0  0  0  0  0  0  0  0  0  0
  -10.0090   -4.9280  -25.9540 H   0  0  0  0  0  0  0  0  0  0  0  0
  -10.6230   -3.1860  -25.9150 H   0  0  0  0  0  0  0  0  0  0  0  0
  1  2  2  0  0  0  0
  1 49  1  0  0  0  0
  1 50  1  0  0  0  0
  2  3  1  0  0  0  0
  2 38  1  0  0  0  0
  3  4  1  0  0  0  0
  3 36  1  0  0  0  0
  3 37  1  0  0  0  0
  4  5  1  0  0  0  0
  4 25  1  0  0  0  0
  5  6  2  0  0  0  0
  5  7  1  0  0  0  0
  7  8  1  0  0  0  0
  7 24  1  0  0  0  0
  8  9  2  0  0  0  0
  8 17  1  0  0  0  0
  9 10  1  0  0  0  0
  9 23  1  0  0  0  0
 10 11  2  0  0  0  0
 11 12  1  0  0  0  0
 11 22  1  0  0  0  0
 12 13  2  0  0  0  0
 12 17  1  0  0  0  0
 13 14  1  0  0  0  0
 13 21  1  0  0  0  0
 14 15  2  0  0  0  0
 14 20  1  0  0  0  0
 15 16  1  0  0  0  0
 15 19  1  0  0  0  0
 16 17  2  0  0  0  0
 16 18  1  0  0  0  0
 25 26  2  0  0  0  0
 25 31  1  0  0  0  0
 26 27  1  0  0  0  0
 26 35  1  0  0  0  0
 27 28  2  0  0  0  0
 27 34  1  0  0  0  0
 28 29  1  0  0  0  0
 28 33  1  0  0  0  0
 29 30  1  0  0  0  0
 29 31  2  0  0  0  0
 31 32  1  0  0  0  0
 38 39  2  0  0  0  0
 38 40  1  0  0  0  0
 40 41  1  0  0  0  0
 40 48  1  0  0  0  0
 41 42  1  0  0  0  0
 41 46  1  0  0  0  0
 41 47  1  0  0  0  0
 42 43  1  0  0  0  0
 42 44  1  0  0  0  0
 42 45  1  0  0  0  0
M  END
>  <MODEL>
       1

$$$$
