tmp_first_model_15_67.pdb
 OpenBabel08282501153D

 58 63  0  0  1  0  0  0  0  0999 V2000
  -11.1930    0.9160  -29.3690 C   0  0  0  0  0  0  0  0  0  0  0  0
  -10.5760    0.9530  -28.0040 C   0  0  0  0  0  0  0  0  0  0  0  0
  -11.0730    1.3820  -26.7310 C   0  0  0  0  0  0  0  0  0  0  0  0
  -10.0760    1.0630  -25.8730 C   0  0  0  0  0  0  0  0  0  0  0  0
   -9.9900    1.0600  -24.3770 C   0  0  0  0  0  0  0  0  0  0  0  0
  -10.3070   -0.2320  -23.7970 N   0  0  0  0  0  0  0  0  0  0  0  0
   -9.3360   -1.3100  -23.8530 C   0  0  0  0  0  0  0  0  0  0  0  0
   -9.3090   -2.0870  -22.5120 C   0  0  2  0  0  0  0  0  0  0  0  0
   -8.7440   -1.1150  -21.4240 C   0  0  0  0  0  0  0  0  0  0  0  0
   -9.3070   -0.1690  -20.9210 O   0  0  0  0  0  0  0  0  0  0  0  0
   -7.4190   -1.4420  -21.1910 N   0  0  0  0  0  0  0  0  0  0  0  0
   -6.6480   -0.8190  -20.1750 C   0  0  0  0  0  0  0  0  0  0  0  0
   -6.9510   -1.0420  -18.8540 C   0  0  0  0  0  0  0  0  0  0  0  0
   -6.2410   -0.5540  -17.8060 N   0  0  0  0  0  0  0  0  0  0  0  0
   -5.1990    0.1910  -18.0810 C   0  0  0  0  0  0  0  0  0  0  0  0
   -4.7670    0.5050  -19.4000 C   0  0  0  0  0  0  0  0  0  0  0  0
   -3.6390    1.3350  -19.6320 C   0  0  0  0  0  0  0  0  0  0  0  0
   -3.2490    1.6310  -20.9080 C   0  0  0  0  0  0  0  0  0  0  0  0
   -3.9700    1.1120  -22.0070 C   0  0  0  0  0  0  0  0  0  0  0  0
   -5.0680    0.3080  -21.8070 C   0  0  0  0  0  0  0  0  0  0  0  0
   -5.4990   -0.0180  -20.4930 C   0  0  0  0  0  0  0  0  0  0  0  0
   -5.6230   -0.0640  -22.6630 H   0  0  0  0  0  0  0  0  0  0  0  0
   -3.6560    1.3610  -23.0160 H   0  0  0  0  0  0  0  0  0  0  0  0
   -2.3910    2.2760  -21.0840 H   0  0  0  0  0  0  0  0  0  0  0  0
   -3.1110    1.7390  -18.7700 H   0  0  0  0  0  0  0  0  0  0  0  0
   -4.6340    0.5930  -17.2390 H   0  0  0  0  0  0  0  0  0  0  0  0
   -7.8050   -1.6620  -18.5950 H   0  0  0  0  0  0  0  0  0  0  0  0
   -6.9450   -2.5780  -21.9580 C   0  0  0  0  0  0  0  0  0  0  0  0
   -8.2400   -3.2120  -22.5020 C   0  0  2  0  0  0  0  0  0  0  0  0
   -8.0440   -3.9380  -23.8280 C   0  0  0  0  0  0  0  0  0  0  0  0
   -7.6450   -3.2540  -24.5880 H   0  0  0  0  0  0  0  0  0  0  0  0
   -8.9950   -4.3310  -24.2050 H   0  0  0  0  0  0  0  0  0  0  0  0
   -7.3440   -4.7730  -23.7210 H   0  0  0  0  0  0  0  0  0  0  0  0
   -8.5580   -3.9300  -21.7430 H   0  0  0  0  0  0  0  0  0  0  0  0
   -6.2660   -2.2740  -22.7680 H   0  0  0  0  0  0  0  0  0  0  0  0
   -6.3880   -3.2720  -21.3170 H   0  0  0  0  0  0  0  0  0  0  0  0
  -10.7490   -2.5500  -22.2700 C   0  0  0  0  0  0  0  0  0  0  0  0
  -11.0810   -3.7040  -21.5380 C   0  0  0  0  0  0  0  0  0  0  0  0
  -12.3780   -3.8560  -21.0750 C   0  0  0  0  0  0  0  0  0  0  0  0
  -12.6430   -4.7140  -20.0740 F   0  0  0  0  0  0  0  0  0  0  0  0
  -13.4360   -3.0700  -21.4970 C   0  0  0  0  0  0  0  0  0  0  0  0
  -13.1400   -2.0020  -22.3130 C   0  0  0  0  0  0  0  0  0  0  0  0
  -11.8190   -1.7270  -22.6670 C   0  0  0  0  0  0  0  0  0  0  0  0
  -11.6100   -0.4960  -23.4890 C   0  0  0  0  0  0  0  0  0  0  0  0
  -12.5320    0.2300  -23.8340 O   0  0  0  0  0  0  0  0  0  0  0  0
  -13.9060   -1.3250  -22.6740 H   0  0  0  0  0  0  0  0  0  0  0  0
  -14.4440   -3.3000  -21.1590 H   0  0  0  0  0  0  0  0  0  0  0  0
  -10.3520   -4.4360  -21.2240 H   0  0  0  0  0  0  0  0  0  0  0  0
   -9.5790   -2.0080  -24.6690 H   0  0  0  0  0  0  0  0  0  0  0  0
   -8.3620   -0.8660  -24.0740 H   0  0  0  0  0  0  0  0  0  0  0  0
  -10.7200    1.7760  -23.9980 H   0  0  0  0  0  0  0  0  0  0  0  0
   -8.9950    1.3590  -24.0320 H   0  0  0  0  0  0  0  0  0  0  0  0
   -9.0430    0.5470  -26.5480 O   0  0  0  0  0  0  0  0  0  0  0  0
   -9.3620    0.4770  -27.8870 N   0  0  0  0  0  0  0  0  0  0  0  0
  -12.0140    1.8380  -26.4540 H   0  0  0  0  0  0  0  0  0  0  0  0
  -12.1630    0.4090  -29.3630 H   0  0  0  0  0  0  0  0  0  0  0  0
  -10.5230    0.3410  -30.0090 H   0  0  0  0  0  0  0  0  0  0  0  0
  -11.3000    1.9170  -29.8040 H   0  0  0  0  0  0  0  0  0  0  0  0
  1  2  1  0  0  0  0
  1 56  1  0  0  0  0
  1 57  1  0  0  0  0
  1 58  1  0  0  0  0
  2  3  1  0  0  0  0
  2 54  2  0  0  0  0
  3  4  2  0  0  0  0
  3 55  1  0  0  0  0
  4  5  1  0  0  0  0
  4 53  1  0  0  0  0
  5  6  1  0  0  0  0
  5 51  1  0  0  0  0
  5 52  1  0  0  0  0
  6  7  1  0  0  0  0
  6 44  1  0  0  0  0
  7  8  1  0  0  0  0
  7 49  1  0  0  0  0
  7 50  1  0  0  0  0
  8  9  1  1  0  0  0
  8 29  1  0  0  0  0
  8 37  1  0  0  0  0
  9 10  2  0  0  0  0
  9 11  1  0  0  0  0
 11 12  1  0  0  0  0
 11 28  1  0  0  0  0
 12 13  2  0  0  0  0
 12 21  1  0  0  0  0
 13 14  1  0  0  0  0
 13 27  1  0  0  0  0
 14 15  2  0  0  0  0
 15 16  1  0  0  0  0
 15 26  1  0  0  0  0
 16 17  2  0  0  0  0
 16 21  1  0  0  0  0
 17 18  1  0  0  0  0
 17 25  1  0  0  0  0
 18 19  2  0  0  0  0
 18 24  1  0  0  0  0
 19 20  1  0  0  0  0
 19 23  1  0  0  0  0
 20 21  2  0  0  0  0
 20 22  1  0  0  0  0
 28 29  1  0  0  0  0
 28 35  1  0  0  0  0
 28 36  1  0  0  0  0
 29 30  1  0  0  0  0
 29 34  1  1  0  0  0
 30 31  1  0  0  0  0
 30 32  1  0  0  0  0
 30 33  1  0  0  0  0
 37 38  2  0  0  0  0
 37 43  1  0  0  0  0
 38 39  1  0  0  0  0
 38 48  1  0  0  0  0
 39 40  1  0  0  0  0
 39 41  2  0  0  0  0
 41 42  1  0  0  0  0
 41 47  1  0  0  0  0
 42 43  2  0  0  0  0
 42 46  1  0  0  0  0
 43 44  1  0  0  0  0
 44 45  2  0  0  0  0
 53 54  1  0  0  0  0
M  END
>  <MODEL>
       1

$$$$
