tmp_first_model_7_89.pdb
 OpenBabel08272520323D

 43 45  0  0  0  0  0  0  0  0999 V2000
   -6.2430    1.4930  -26.6550 C   0  0  0  0  0  0  0  0  0  0  0  0
   -7.4240    1.1170  -25.7540 C   0  0  0  0  0  0  0  0  0  0  0  0
   -8.7220    1.3570  -26.5380 C   0  0  0  0  0  0  0  0  0  0  0  0
   -9.6210    1.1180  -25.9640 H   0  0  0  0  0  0  0  0  0  0  0  0
   -8.7450    0.7470  -27.4470 H   0  0  0  0  0  0  0  0  0  0  0  0
   -8.8020    2.4060  -26.8450 H   0  0  0  0  0  0  0  0  0  0  0  0
   -7.2940   -0.3580  -25.3510 C   0  0  0  0  0  0  0  0  0  0  0  0
   -8.2750   -0.7740  -24.2610 C   0  0  0  0  0  0  0  0  0  0  0  0
   -8.1730    0.1180  -23.1110 N   0  0  0  0  0  0  0  0  0  0  0  0
   -8.3860   -0.3130  -21.7970 C   0  0  0  0  0  0  0  0  0  0  0  0
   -9.1980    0.2060  -21.0630 O   0  0  0  0  0  0  0  0  0  0  0  0
   -7.4460   -1.4120  -21.2710 C   0  0  0  0  0  0  0  0  0  0  0  0
   -6.5720   -0.8340  -20.1770 C   0  0  0  0  0  0  0  0  0  0  0  0
   -6.8760   -1.0400  -18.8560 C   0  0  0  0  0  0  0  0  0  0  0  0
   -6.1850   -0.5360  -17.8010 N   0  0  0  0  0  0  0  0  0  0  0  0
   -5.1520    0.2230  -18.0680 C   0  0  0  0  0  0  0  0  0  0  0  0
   -4.7200    0.5340  -19.3840 C   0  0  0  0  0  0  0  0  0  0  0  0
   -3.5970    1.3640  -19.6250 C   0  0  0  0  0  0  0  0  0  0  0  0
   -3.2090    1.6620  -20.9030 C   0  0  0  0  0  0  0  0  0  0  0  0
   -3.9330    1.1320  -21.9950 C   0  0  0  0  0  0  0  0  0  0  0  0
   -5.0190    0.3170  -21.7860 C   0  0  0  0  0  0  0  0  0  0  0  0
   -5.4490   -0.0020  -20.4730 C   0  0  0  0  0  0  0  0  0  0  0  0
   -5.5530   -0.0870  -22.6380 H   0  0  0  0  0  0  0  0  0  0  0  0
   -3.6190    1.3730  -23.0050 H   0  0  0  0  0  0  0  0  0  0  0  0
   -2.3600    2.3140  -21.0840 H   0  0  0  0  0  0  0  0  0  0  0  0
   -3.0650    1.7820  -18.7740 H   0  0  0  0  0  0  0  0  0  0  0  0
   -4.6020    0.6280  -17.2170 H   0  0  0  0  0  0  0  0  0  0  0  0
   -7.7280   -1.6590  -18.5800 H   0  0  0  0  0  0  0  0  0  0  0  0
   -8.0660   -2.2080  -20.8440 H   0  0  0  0  0  0  0  0  0  0  0  0
   -6.8370   -1.8400  -22.0770 H   0  0  0  0  0  0  0  0  0  0  0  0
   -8.3840    1.5280  -23.4120 C   0  0  0  0  0  0  0  0  0  0  0  0
   -7.3930    1.9820  -24.4850 C   0  0  0  0  0  0  0  0  0  0  0  0
   -7.5790    3.0270  -24.7520 H   0  0  0  0  0  0  0  0  0  0  0  0
   -6.3830    1.9550  -24.0540 H   0  0  0  0  0  0  0  0  0  0  0  0
   -9.4180    1.7500  -23.7180 H   0  0  0  0  0  0  0  0  0  0  0  0
   -8.2170    2.0840  -22.4900 H   0  0  0  0  0  0  0  0  0  0  0  0
   -9.2990   -0.7960  -24.6740 H   0  0  0  0  0  0  0  0  0  0  0  0
   -8.0680   -1.7880  -23.9240 H   0  0  0  0  0  0  0  0  0  0  0  0
   -6.2790   -0.5400  -24.9810 H   0  0  0  0  0  0  0  0  0  0  0  0
   -7.4240   -0.9920  -26.2350 H   0  0  0  0  0  0  0  0  0  0  0  0
   -5.2860    1.3410  -26.1450 H   0  0  0  0  0  0  0  0  0  0  0  0
   -6.2930    2.5450  -26.9590 H   0  0  0  0  0  0  0  0  0  0  0  0
   -6.2310    0.8850  -27.5670 H   0  0  0  0  0  0  0  0  0  0  0  0
  1  2  1  0  0  0  0
  1 41  1  0  0  0  0
  1 42  1  0  0  0  0
  1 43  1  0  0  0  0
  2  3  1  0  0  0  0
  2  7  1  0  0  0  0
  2 32  1  0  0  0  0
  3  4  1  0  0  0  0
  3  5  1  0  0  0  0
  3  6  1  0  0  0  0
  7  8  1  0  0  0  0
  7 39  1  0  0  0  0
  7 40  1  0  0  0  0
  8  9  1  0  0  0  0
  8 37  1  0  0  0  0
  8 38  1  0  0  0  0
  9 10  1  0  0  0  0
  9 31  1  0  0  0  0
 10 11  2  0  0  0  0
 10 12  1  0  0  0  0
 12 13  1  0  0  0  0
 12 29  1  0  0  0  0
 12 30  1  0  0  0  0
 13 14  2  0  0  0  0
 13 22  1  0  0  0  0
 14 15  1  0  0  0  0
 14 28  1  0  0  0  0
 15 16  2  0  0  0  0
 16 17  1  0  0  0  0
 16 27  1  0  0  0  0
 17 18  2  0  0  0  0
 17 22  1  0  0  0  0
 18 19  1  0  0  0  0
 18 26  1  0  0  0  0
 19 20  2  0  0  0  0
 19 25  1  0  0  0  0
 20 21  1  0  0  0  0
 20 24  1  0  0  0  0
 21 22  2  0  0  0  0
 21 23  1  0  0  0  0
 31 32  1  0  0  0  0
 31 35  1  0  0  0  0
 31 36  1  0  0  0  0
 32 33  1  0  0  0  0
 32 34  1  0  0  0  0
M  END
>  <MODEL>
       1

$$$$
