tmp_first_model_1_18.pdb
 OpenBabel08272517043D

 56 61  0  0  1  0  0  0  0  0999 V2000
  -10.2420   -2.9010  -22.0960 C   0  0  0  0  0  0  0  0  0  0  0  0
   -9.1470   -1.9770  -22.6470 C   0  0  1  0  0  0  0  0  0  0  0  0
   -8.6820   -0.9730  -21.5730 C   0  0  0  0  0  0  0  0  0  0  0  0
   -7.3700   -1.4350  -21.1910 N   0  0  0  0  0  0  0  0  0  0  0  0
   -6.5900   -0.8350  -20.1840 C   0  0  0  0  0  0  0  0  0  0  0  0
   -6.9200   -1.0520  -18.8750 C   0  0  0  0  0  0  0  0  0  0  0  0
   -6.2330   -0.5580  -17.8200 N   0  0  0  0  0  0  0  0  0  0  0  0
   -5.1940    0.1960  -18.0920 C   0  0  0  0  0  0  0  0  0  0  0  0
   -4.7520    0.5060  -19.4110 C   0  0  0  0  0  0  0  0  0  0  0  0
   -3.6270    1.3400  -19.6330 C   0  0  0  0  0  0  0  0  0  0  0  0
   -3.2320    1.6440  -20.9050 C   0  0  0  0  0  0  0  0  0  0  0  0
   -3.9440    1.1320  -22.0140 C   0  0  0  0  0  0  0  0  0  0  0  0
   -5.0370    0.3220  -21.8330 C   0  0  0  0  0  0  0  0  0  0  0  0
   -5.4640   -0.0190  -20.5110 C   0  0  0  0  0  0  0  0  0  0  0  0
   -5.5750   -0.0550  -22.7050 H   0  0  0  0  0  0  0  0  0  0  0  0
   -3.6200    1.3970  -23.0180 H   0  0  0  0  0  0  0  0  0  0  0  0
   -2.3800    2.2960  -21.0720 H   0  0  0  0  0  0  0  0  0  0  0  0
   -3.1070    1.7410  -18.7680 H   0  0  0  0  0  0  0  0  0  0  0  0
   -4.6420    0.6090  -17.2480 H   0  0  0  0  0  0  0  0  0  0  0  0
   -7.7780   -1.6830  -18.6480 H   0  0  0  0  0  0  0  0  0  0  0  0
   -6.8480   -2.4320  -21.9770 C   0  0  0  0  0  0  0  0  0  0  0  0
   -5.7880   -2.9850  -21.7640 O   0  0  0  0  0  0  0  0  0  0  0  0
   -7.8410   -2.6900  -23.1270 C   0  0  1  0  0  0  0  0  0  0  0  0
   -7.9910   -4.2050  -23.2980 C   0  0  0  0  0  0  0  0  0  0  0  0
   -6.7440   -4.7700  -23.7970 N   0  0  0  0  0  0  0  0  0  0  0  0
   -6.3860   -6.1100  -23.3420 C   0  0  0  0  0  0  0  0  0  0  0  0
   -7.3350   -7.1220  -23.9210 C   0  0  0  0  0  0  0  0  0  0  0  0
   -7.4750   -7.5100  -25.2720 C   0  0  0  0  0  0  0  0  0  0  0  0
   -8.6500   -8.2020  -25.3160 C   0  0  0  0  0  0  0  0  0  0  0  0
   -9.1430   -8.2190  -24.0550 N   0  0  0  0  0  0  0  0  0  0  0  0
   -8.3510   -7.5600  -23.1920 N   0  0  0  0  0  0  0  0  0  0  0  0
   -9.9990   -8.6330  -23.7190 H   0  0  0  0  0  0  0  0  0  0  0  0
   -9.1150   -8.6870  -26.1580 H   0  0  0  0  0  0  0  0  0  0  0  0
   -6.8110   -7.3030  -26.0940 H   0  0  0  0  0  0  0  0  0  0  0  0
   -5.3530   -6.2900  -23.6510 H   0  0  0  0  0  0  0  0  0  0  0  0
   -6.4530   -6.1310  -22.2450 H   0  0  0  0  0  0  0  0  0  0  0  0
   -6.2310   -4.3310  -24.9920 C   0  0  0  0  0  0  0  0  0  0  0  0
   -5.5180   -5.0240  -25.7100 O   0  0  0  0  0  0  0  0  0  0  0  0
   -6.5730   -2.9170  -25.3300 C   0  0  0  0  0  0  0  0  0  0  0  0
   -6.1090   -2.4130  -26.5440 C   0  0  0  0  0  0  0  0  0  0  0  0
   -6.2990   -1.0890  -26.8750 C   0  0  0  0  0  0  0  0  0  0  0  0
   -6.9670   -0.2860  -25.9580 C   0  0  0  0  0  0  0  0  0  0  0  0
   -7.1430    1.0110  -26.2650 F   0  0  0  0  0  0  0  0  0  0  0  0
   -7.4620   -0.7680  -24.7600 C   0  0  0  0  0  0  0  0  0  0  0  0
   -7.2940   -2.1190  -24.4340 C   0  0  0  0  0  0  0  0  0  0  0  0
   -7.9930   -0.0810  -24.1090 H   0  0  0  0  0  0  0  0  0  0  0  0
   -5.9280   -0.6750  -27.8040 H   0  0  0  0  0  0  0  0  0  0  0  0
   -5.5910   -3.0970  -27.2050 H   0  0  0  0  0  0  0  0  0  0  0  0
   -8.2130   -4.6680  -22.3360 H   0  0  0  0  0  0  0  0  0  0  0  0
   -8.8300   -4.4160  -23.9810 H   0  0  0  0  0  0  0  0  0  0  0  0
   -8.6500    0.0600  -21.9480 H   0  0  0  0  0  0  0  0  0  0  0  0
   -9.3470   -0.9700  -20.7120 H   0  0  0  0  0  0  0  0  0  0  0  0
   -9.5950   -1.4470  -23.4940 H   0  0  0  0  0  0  0  0  0  0  0  0
   -9.8850   -3.4960  -21.2480 H   0  0  0  0  0  0  0  0  0  0  0  0
  -10.6090   -3.5820  -22.8700 H   0  0  0  0  0  0  0  0  0  0  0  0
  -11.0940   -2.3040  -21.7540 H   0  0  0  0  0  0  0  0  0  0  0  0
  1  2  1  0  0  0  0
  1 54  1  0  0  0  0
  1 55  1  0  0  0  0
  1 56  1  0  0  0  0
  2  3  1  0  0  0  0
  2 23  1  0  0  0  0
  2 53  1  6  0  0  0
  3  4  1  0  0  0  0
  3 51  1  0  0  0  0
  3 52  1  0  0  0  0
  4  5  1  0  0  0  0
  4 21  1  0  0  0  0
  5  6  2  0  0  0  0
  5 14  1  0  0  0  0
  6  7  1  0  0  0  0
  6 20  1  0  0  0  0
  7  8  2  0  0  0  0
  8  9  1  0  0  0  0
  8 19  1  0  0  0  0
  9 10  2  0  0  0  0
  9 14  1  0  0  0  0
 10 11  1  0  0  0  0
 10 18  1  0  0  0  0
 11 12  2  0  0  0  0
 11 17  1  0  0  0  0
 12 13  1  0  0  0  0
 12 16  1  0  0  0  0
 13 14  2  0  0  0  0
 13 15  1  0  0  0  0
 21 22  2  0  0  0  0
 23 21  1  1  0  0  0
 23 24  1  0  0  0  0
 23 45  1  0  0  0  0
 24 25  1  0  0  0  0
 24 49  1  0  0  0  0
 24 50  1  0  0  0  0
 25 26  1  0  0  0  0
 25 37  1  0  0  0  0
 26 27  1  0  0  0  0
 26 35  1  0  0  0  0
 26 36  1  0  0  0  0
 27 28  1  0  0  0  0
 27 31  2  0  0  0  0
 28 29  2  0  0  0  0
 28 34  1  0  0  0  0
 29 30  1  0  0  0  0
 29 33  1  0  0  0  0
 30 31  1  0  0  0  0
 30 32  1  0  0  0  0
 37 38  2  0  0  0  0
 37 39  1  0  0  0  0
 39 40  2  0  0  0  0
 39 45  1  0  0  0  0
 40 41  1  0  0  0  0
 40 48  1  0  0  0  0
 41 42  2  0  0  0  0
 41 47  1  0  0  0  0
 42 43  1  0  0  0  0
 42 44  1  0  0  0  0
 44 45  2  0  0  0  0
 44 46  1  0  0  0  0
M  END
>  <MODEL>
       1

$$$$
