tmp_first_model_19_16.pdb
 OpenBabel08282503233D

 61 66  0  0  1  0  0  0  0  0999 V2000
   -7.3960    3.4080  -21.8110 C   0  0  0  0  0  0  0  0  0  0  0  0
   -8.2220    2.9170  -22.8950 N   0  0  0  0  0  0  0  0  0  0  0  0
   -7.6430    2.2350  -23.9080 C   0  0  0  0  0  0  0  0  0  0  0  0
   -6.4290    2.1310  -24.0210 O   0  0  0  0  0  0  0  0  0  0  0  0
   -8.6020    1.6170  -24.9350 C   0  0  0  0  0  0  0  0  0  0  0  0
   -9.3340    0.4650  -24.4390 N   0  0  0  0  0  0  0  0  0  0  0  0
   -8.6300   -0.7930  -24.2640 C   0  0  0  0  0  0  0  0  0  0  0  0
   -9.0340   -1.4980  -22.9410 C   0  0  2  0  0  0  0  0  0  0  0  0
   -8.4860   -0.7040  -21.7250 C   0  0  0  0  0  0  0  0  0  0  0  0
   -8.9090    0.3380  -21.2750 O   0  0  0  0  0  0  0  0  0  0  0  0
   -7.4020   -1.3810  -21.2090 N   0  0  0  0  0  0  0  0  0  0  0  0
   -6.6060   -0.8080  -20.1810 C   0  0  0  0  0  0  0  0  0  0  0  0
   -6.9080   -1.0440  -18.8660 C   0  0  0  0  0  0  0  0  0  0  0  0
   -6.2000   -0.5590  -17.8170 N   0  0  0  0  0  0  0  0  0  0  0  0
   -5.1670    0.2050  -18.0800 C   0  0  0  0  0  0  0  0  0  0  0  0
   -4.7280    0.5270  -19.3950 C   0  0  0  0  0  0  0  0  0  0  0  0
   -3.5990    1.3570  -19.6420 C   0  0  0  0  0  0  0  0  0  0  0  0
   -3.2130    1.6490  -20.9210 C   0  0  0  0  0  0  0  0  0  0  0  0
   -3.9360    1.1220  -22.0150 C   0  0  0  0  0  0  0  0  0  0  0  0
   -5.0300    0.3180  -21.8020 C   0  0  0  0  0  0  0  0  0  0  0  0
   -5.4650    0.0030  -20.4870 C   0  0  0  0  0  0  0  0  0  0  0  0
   -5.5890   -0.0710  -22.6490 H   0  0  0  0  0  0  0  0  0  0  0  0
   -3.6450    1.3670  -23.0300 H   0  0  0  0  0  0  0  0  0  0  0  0
   -2.3620    2.3010  -21.1000 H   0  0  0  0  0  0  0  0  0  0  0  0
   -3.0710    1.7700  -18.7860 H   0  0  0  0  0  0  0  0  0  0  0  0
   -4.6240    0.6120  -17.2270 H   0  0  0  0  0  0  0  0  0  0  0  0
   -7.7600   -1.6680  -18.6070 H   0  0  0  0  0  0  0  0  0  0  0  0
   -7.0710   -2.6050  -21.9090 C   0  0  0  0  0  0  0  0  0  0  0  0
   -8.3150   -2.8730  -22.7770 C   0  0  2  0  0  0  0  0  0  0  0  0
   -7.9530   -3.6340  -24.0710 C   0  0  0  0  0  0  0  0  0  0  0  0
   -7.4240   -4.9590  -23.7800 N   0  0  0  0  0  0  0  0  0  0  0  0
   -6.1340   -5.2370  -23.6780 N   0  0  0  0  0  0  0  0  0  0  0  0
   -6.1680   -6.5190  -23.3490 C   0  0  0  0  0  0  0  0  0  0  0  0
   -7.4280   -6.9930  -23.2570 N   0  0  0  0  0  0  0  0  0  0  0  0
   -8.2100   -5.9880  -23.5380 N   0  0  0  0  0  0  0  0  0  0  0  0
   -5.2850   -7.1170  -23.1700 H   0  0  0  0  0  0  0  0  0  0  0  0
   -7.1680   -3.1240  -24.6370 H   0  0  0  0  0  0  0  0  0  0  0  0
   -8.8310   -3.7880  -24.7060 H   0  0  0  0  0  0  0  0  0  0  0  0
   -8.9910   -3.5250  -22.2180 H   0  0  0  0  0  0  0  0  0  0  0  0
   -6.1660   -2.4840  -22.5260 H   0  0  0  0  0  0  0  0  0  0  0  0
   -6.8720   -3.4210  -21.2060 H   0  0  0  0  0  0  0  0  0  0  0  0
  -10.5510   -1.5270  -22.8700 C   0  0  0  0  0  0  0  0  0  0  0  0
  -11.1950   -2.3880  -21.9730 C   0  0  0  0  0  0  0  0  0  0  0  0
  -12.5740   -2.3970  -21.8880 C   0  0  0  0  0  0  0  0  0  0  0  0
  -13.3620   -3.4740  -20.7720 Cl  0  0  0  0  0  0  0  0  0  0  0  0
  -13.3560   -1.5410  -22.6630 C   0  0  0  0  0  0  0  0  0  0  0  0
  -12.7240   -0.6350  -23.4890 C   0  0  0  0  0  0  0  0  0  0  0  0
  -11.3320   -0.5960  -23.5690 C   0  0  0  0  0  0  0  0  0  0  0  0
  -10.6960    0.5370  -24.3240 C   0  0  0  0  0  0  0  0  0  0  0  0
  -11.3400    1.4780  -24.7600 O   0  0  0  0  0  0  0  0  0  0  0  0
  -13.2850    0.0870  -24.0710 H   0  0  0  0  0  0  0  0  0  0  0  0
  -14.4360   -1.5760  -22.5820 H   0  0  0  0  0  0  0  0  0  0  0  0
  -10.6310   -3.0320  -21.3070 H   0  0  0  0  0  0  0  0  0  0  0  0
   -8.8300   -1.4690  -25.1120 H   0  0  0  0  0  0  0  0  0  0  0  0
   -7.5620   -0.5540  -24.2410 H   0  0  0  0  0  0  0  0  0  0  0  0
   -7.9680    1.3450  -25.7860 H   0  0  0  0  0  0  0  0  0  0  0  0
   -9.3680    2.3260  -25.2650 H   0  0  0  0  0  0  0  0  0  0  0  0
   -9.2240    2.8640  -22.7590 H   0  0  0  0  0  0  0  0  0  0  0  0
   -6.6600    4.1380  -22.1720 H   0  0  0  0  0  0  0  0  0  0  0  0
   -6.8540    2.5820  -21.3130 H   0  0  0  0  0  0  0  0  0  0  0  0
   -8.0650    3.9160  -21.1180 H   0  0  0  0  0  0  0  0  0  0  0  0
  1  2  1  0  0  0  0
  1 59  1  0  0  0  0
  1 60  1  0  0  0  0
  1 61  1  0  0  0  0
  2  3  1  0  0  0  0
  2 58  1  0  0  0  0
  3  4  2  0  0  0  0
  3  5  1  0  0  0  0
  5  6  1  0  0  0  0
  5 56  1  0  0  0  0
  5 57  1  0  0  0  0
  6  7  1  0  0  0  0
  6 49  1  0  0  0  0
  7  8  1  0  0  0  0
  7 54  1  0  0  0  0
  7 55  1  0  0  0  0
  8  9  1  1  0  0  0
  8 29  1  0  0  0  0
  8 42  1  0  0  0  0
  9 10  2  0  0  0  0
  9 11  1  0  0  0  0
 11 12  1  0  0  0  0
 11 28  1  0  0  0  0
 12 13  2  0  0  0  0
 12 21  1  0  0  0  0
 13 14  1  0  0  0  0
 13 27  1  0  0  0  0
 14 15  2  0  0  0  0
 15 16  1  0  0  0  0
 15 26  1  0  0  0  0
 16 17  2  0  0  0  0
 16 21  1  0  0  0  0
 17 18  1  0  0  0  0
 17 25  1  0  0  0  0
 18 19  2  0  0  0  0
 18 24  1  0  0  0  0
 19 20  1  0  0  0  0
 19 23  1  0  0  0  0
 20 21  2  0  0  0  0
 20 22  1  0  0  0  0
 28 29  1  0  0  0  0
 28 40  1  0  0  0  0
 28 41  1  0  0  0  0
 29 30  1  0  0  0  0
 29 39  1  1  0  0  0
 30 31  1  0  0  0  0
 30 37  1  0  0  0  0
 30 38  1  0  0  0  0
 31 32  1  0  0  0  0
 31 35  1  0  0  0  0
 32 33  2  0  0  0  0
 33 34  1  0  0  0  0
 33 36  1  0  0  0  0
 34 35  2  0  0  0  0
 42 43  2  0  0  0  0
 42 48  1  0  0  0  0
 43 44  1  0  0  0  0
 43 53  1  0  0  0  0
 44 45  1  0  0  0  0
 44 46  2  0  0  0  0
 46 47  1  0  0  0  0
 46 52  1  0  0  0  0
 47 48  2  0  0  0  0
 47 51  1  0  0  0  0
 48 49  1  0  0  0  0
 49 50  2  0  0  0  0
M  END
>  <MODEL>
       1

$$$$
