tmp_first_model_11_45.pdb
 OpenBabel08272522543D

 66 71  0  0  1  0  0  0  0  0999 V2000
   -7.4330    3.3520  -21.7630 C   0  0  0  0  0  0  0  0  0  0  0  0
   -8.3220    2.9030  -22.8180 N   0  0  0  0  0  0  0  0  0  0  0  0
   -7.7510    2.2210  -23.8370 C   0  0  0  0  0  0  0  0  0  0  0  0
   -6.5370    2.1230  -23.9540 O   0  0  0  0  0  0  0  0  0  0  0  0
   -8.7040    1.5950  -24.8620 C   0  0  0  0  0  0  0  0  0  0  0  0
   -9.4210    0.4340  -24.3680 N   0  0  0  0  0  0  0  0  0  0  0  0
   -8.6960   -0.8120  -24.2100 C   0  0  0  0  0  0  0  0  0  0  0  0
   -9.0740   -1.5330  -22.8900 C   0  0  2  0  0  0  0  0  0  0  0  0
   -8.5270   -0.7410  -21.6700 C   0  0  0  0  0  0  0  0  0  0  0  0
   -8.9830    0.2720  -21.1890 O   0  0  0  0  0  0  0  0  0  0  0  0
   -7.4020   -1.3840  -21.2020 N   0  0  0  0  0  0  0  0  0  0  0  0
   -6.6060   -0.8100  -20.1750 C   0  0  0  0  0  0  0  0  0  0  0  0
   -6.9110   -1.0410  -18.8580 C   0  0  0  0  0  0  0  0  0  0  0  0
   -6.2070   -0.5470  -17.8090 N   0  0  0  0  0  0  0  0  0  0  0  0
   -5.1690    0.2070  -18.0780 C   0  0  0  0  0  0  0  0  0  0  0  0
   -4.7290    0.5260  -19.3940 C   0  0  0  0  0  0  0  0  0  0  0  0
   -3.6020    1.3600  -19.6410 C   0  0  0  0  0  0  0  0  0  0  0  0
   -3.2170    1.6540  -20.9200 C   0  0  0  0  0  0  0  0  0  0  0  0
   -3.9410    1.1260  -22.0140 C   0  0  0  0  0  0  0  0  0  0  0  0
   -5.0340    0.3190  -21.8000 C   0  0  0  0  0  0  0  0  0  0  0  0
   -5.4640   -0.0000  -20.4840 C   0  0  0  0  0  0  0  0  0  0  0  0
   -5.5950   -0.0630  -22.6480 H   0  0  0  0  0  0  0  0  0  0  0  0
   -3.6520    1.3750  -23.0290 H   0  0  0  0  0  0  0  0  0  0  0  0
   -2.3680    2.3070  -21.0980 H   0  0  0  0  0  0  0  0  0  0  0  0
   -3.0750    1.7760  -18.7860 H   0  0  0  0  0  0  0  0  0  0  0  0
   -4.6210    0.6120  -17.2270 H   0  0  0  0  0  0  0  0  0  0  0  0
   -7.7600   -1.6680  -18.5990 H   0  0  0  0  0  0  0  0  0  0  0  0
   -7.0550   -2.5880  -21.9320 C   0  0  0  0  0  0  0  0  0  0  0  0
   -8.3250   -2.8960  -22.7530 C   0  0  2  0  0  0  0  0  0  0  0  0
   -8.0150   -3.6750  -24.0500 C   0  0  0  0  0  0  0  0  0  0  0  0
   -7.4720   -5.0630  -23.7800 C   0  0  0  0  0  0  0  0  0  0  0  0
   -8.3450   -6.1220  -23.5140 C   0  0  0  0  0  0  0  0  0  0  0  0
   -7.8610   -7.3990  -23.2370 C   0  0  0  0  0  0  0  0  0  0  0  0
   -6.4910   -7.6360  -23.1990 C   0  0  0  0  0  0  0  0  0  0  0  0
   -5.6080   -6.5930  -23.4680 C   0  0  0  0  0  0  0  0  0  0  0  0
   -6.0970   -5.3200  -23.7570 C   0  0  0  0  0  0  0  0  0  0  0  0
   -5.3980   -4.5100  -23.9640 H   0  0  0  0  0  0  0  0  0  0  0  0
   -4.5350   -6.7730  -23.4560 H   0  0  0  0  0  0  0  0  0  0  0  0
   -6.1160   -8.6300  -22.9670 H   0  0  0  0  0  0  0  0  0  0  0  0
   -8.5530   -8.2190  -23.0550 H   0  0  0  0  0  0  0  0  0  0  0  0
   -9.4180   -5.9320  -23.5270 H   0  0  0  0  0  0  0  0  0  0  0  0
   -8.9320   -3.7530  -24.6510 H   0  0  0  0  0  0  0  0  0  0  0  0
   -7.2880   -3.1140  -24.6530 H   0  0  0  0  0  0  0  0  0  0  0  0
   -8.9700   -3.5380  -22.1470 H   0  0  0  0  0  0  0  0  0  0  0  0
   -6.7930   -3.4030  -21.2460 H   0  0  0  0  0  0  0  0  0  0  0  0
   -6.1760   -2.4300  -22.5810 H   0  0  0  0  0  0  0  0  0  0  0  0
  -10.5890   -1.5950  -22.8140 C   0  0  0  0  0  0  0  0  0  0  0  0
  -11.2170   -2.4890  -21.9370 C   0  0  0  0  0  0  0  0  0  0  0  0
  -12.5960   -2.5100  -21.8440 C   0  0  0  0  0  0  0  0  0  0  0  0
  -13.3780   -3.5960  -20.7370 Cl  0  0  0  0  0  0  0  0  0  0  0  0
  -13.3940   -1.6580  -22.6060 C   0  0  0  0  0  0  0  0  0  0  0  0
  -12.7790   -0.7340  -23.4250 C   0  0  0  0  0  0  0  0  0  0  0  0
  -11.3890   -0.6720  -23.5030 C   0  0  0  0  0  0  0  0  0  0  0  0
  -10.7840    0.4690  -24.2650 C   0  0  0  0  0  0  0  0  0  0  0  0
  -11.4650    1.3750  -24.7240 O   0  0  0  0  0  0  0  0  0  0  0  0
  -13.3470   -0.0040  -23.9890 H   0  0  0  0  0  0  0  0  0  0  0  0
  -14.4720   -1.7070  -22.5110 H   0  0  0  0  0  0  0  0  0  0  0  0
  -10.6410   -3.1520  -21.3020 H   0  0  0  0  0  0  0  0  0  0  0  0
   -8.8990   -1.4860  -25.0590 H   0  0  0  0  0  0  0  0  0  0  0  0
   -7.6320   -0.5600  -24.2010 H   0  0  0  0  0  0  0  0  0  0  0  0
   -9.4780    2.2970  -25.1880 H   0  0  0  0  0  0  0  0  0  0  0  0
   -8.0650    1.3320  -25.7130 H   0  0  0  0  0  0  0  0  0  0  0  0
   -9.3180    2.8110  -22.6540 H   0  0  0  0  0  0  0  0  0  0  0  0
   -6.7570    4.1360  -22.1280 H   0  0  0  0  0  0  0  0  0  0  0  0
   -8.0300    3.7720  -20.9550 H   0  0  0  0  0  0  0  0  0  0  0  0
   -6.8200    2.5020  -21.4160 H   0  0  0  0  0  0  0  0  0  0  0  0
  1  2  1  0  0  0  0
  1 64  1  0  0  0  0
  1 65  1  0  0  0  0
  1 66  1  0  0  0  0
  2  3  1  0  0  0  0
  2 63  1  0  0  0  0
  3  4  2  0  0  0  0
  3  5  1  0  0  0  0
  5  6  1  0  0  0  0
  5 61  1  0  0  0  0
  5 62  1  0  0  0  0
  6  7  1  0  0  0  0
  6 54  1  0  0  0  0
  7  8  1  0  0  0  0
  7 59  1  0  0  0  0
  7 60  1  0  0  0  0
  8  9  1  1  0  0  0
  8 29  1  0  0  0  0
  8 47  1  0  0  0  0
  9 10  2  0  0  0  0
  9 11  1  0  0  0  0
 11 12  1  0  0  0  0
 11 28  1  0  0  0  0
 12 13  2  0  0  0  0
 12 21  1  0  0  0  0
 13 14  1  0  0  0  0
 13 27  1  0  0  0  0
 14 15  2  0  0  0  0
 15 16  1  0  0  0  0
 15 26  1  0  0  0  0
 16 17  2  0  0  0  0
 16 21  1  0  0  0  0
 17 18  1  0  0  0  0
 17 25  1  0  0  0  0
 18 19  2  0  0  0  0
 18 24  1  0  0  0  0
 19 20  1  0  0  0  0
 19 23  1  0  0  0  0
 20 21  2  0  0  0  0
 20 22  1  0  0  0  0
 28 29  1  0  0  0  0
 28 45  1  0  0  0  0
 28 46  1  0  0  0  0
 29 30  1  0  0  0  0
 29 44  1  1  0  0  0
 30 31  1  0  0  0  0
 30 42  1  0  0  0  0
 30 43  1  0  0  0  0
 31 32  2  0  0  0  0
 31 36  1  0  0  0  0
 32 33  1  0  0  0  0
 32 41  1  0  0  0  0
 33 34  2  0  0  0  0
 33 40  1  0  0  0  0
 34 35  1  0  0  0  0
 34 39  1  0  0  0  0
 35 36  2  0  0  0  0
 35 38  1  0  0  0  0
 36 37  1  0  0  0  0
 47 48  2  0  0  0  0
 47 53  1  0  0  0  0
 48 49  1  0  0  0  0
 48 58  1  0  0  0  0
 49 50  1  0  0  0  0
 49 51  2  0  0  0  0
 51 52  1  0  0  0  0
 51 57  1  0  0  0  0
 52 53  2  0  0  0  0
 52 56  1  0  0  0  0
 53 54  1  0  0  0  0
 54 55  2  0  0  0  0
M  END
>  <MODEL>
       1

$$$$
