tmp_first_model_19_51.pdb
 OpenBabel08282503233D

 50 52  0  0  0  0  0  0  0  0999 V2000
  -11.3000   -0.5040  -25.1100 C   0  0  0  0  0  0  0  0  0  0  0  0
  -10.7280   -0.0960  -23.9770 C   0  0  0  0  0  0  0  0  0  0  0  0
  -10.7090   -0.9690  -22.7390 C   0  0  0  0  0  0  0  0  0  0  0  0
   -9.3600   -1.4850  -22.4870 N   0  0  0  0  0  0  0  0  0  0  0  0
   -8.6490   -0.8840  -21.4700 C   0  0  0  0  0  0  0  0  0  0  0  0
   -9.1390   -0.0040  -20.7620 O   0  0  0  0  0  0  0  0  0  0  0  0
   -7.3750   -1.3330  -21.2700 N   0  0  0  0  0  0  0  0  0  0  0  0
   -6.5920   -0.8180  -20.2130 C   0  0  0  0  0  0  0  0  0  0  0  0
   -6.9310   -1.0530  -18.9060 C   0  0  0  0  0  0  0  0  0  0  0  0
   -6.2350   -0.5790  -17.8490 N   0  0  0  0  0  0  0  0  0  0  0  0
   -5.1970    0.1860  -18.1020 C   0  0  0  0  0  0  0  0  0  0  0  0
   -4.7490    0.5170  -19.4120 C   0  0  0  0  0  0  0  0  0  0  0  0
   -3.6270    1.3490  -19.6540 C   0  0  0  0  0  0  0  0  0  0  0  0
   -3.2510    1.6550  -20.9330 C   0  0  0  0  0  0  0  0  0  0  0  0
   -3.9710    1.1490  -22.0350 C   0  0  0  0  0  0  0  0  0  0  0  0
   -5.0670    0.3430  -21.8320 C   0  0  0  0  0  0  0  0  0  0  0  0
   -5.4660   -0.0010  -20.5130 C   0  0  0  0  0  0  0  0  0  0  0  0
   -5.6330   -0.0290  -22.6840 H   0  0  0  0  0  0  0  0  0  0  0  0
   -3.6600    1.4010  -23.0440 H   0  0  0  0  0  0  0  0  0  0  0  0
   -2.3960    2.3010  -21.1070 H   0  0  0  0  0  0  0  0  0  0  0  0
   -3.0950    1.7490  -18.7970 H   0  0  0  0  0  0  0  0  0  0  0  0
   -4.6500    0.5840  -17.2470 H   0  0  0  0  0  0  0  0  0  0  0  0
   -7.8020   -1.6660  -18.6760 H   0  0  0  0  0  0  0  0  0  0  0  0
   -6.9550   -1.9490  -21.9520 H   0  0  0  0  0  0  0  0  0  0  0  0
   -8.7450   -2.2100  -23.5610 C   0  0  0  0  0  0  0  0  0  0  0  0
   -9.1950   -3.4960  -23.8490 C   0  0  0  0  0  0  0  0  0  0  0  0
   -8.6030   -4.2310  -24.8710 C   0  0  0  0  0  0  0  0  0  0  0  0
   -7.6020   -3.6750  -25.6580 C   0  0  0  0  0  0  0  0  0  0  0  0
   -7.2220   -2.3600  -25.4210 C   0  0  0  0  0  0  0  0  0  0  0  0
   -5.9780   -1.6480  -26.4190 Cl  0  0  0  0  0  0  0  0  0  0  0  0
   -7.7910   -1.6130  -24.3930 C   0  0  0  0  0  0  0  0  0  0  0  0
   -7.5020   -0.5710  -24.2640 H   0  0  0  0  0  0  0  0  0  0  0  0
   -7.1350   -4.2480  -26.4550 H   0  0  0  0  0  0  0  0  0  0  0  0
   -8.9280   -5.2530  -25.0520 H   0  0  0  0  0  0  0  0  0  0  0  0
   -9.9990   -3.9220  -23.2540 H   0  0  0  0  0  0  0  0  0  0  0  0
  -11.3870   -1.8190  -22.8660 H   0  0  0  0  0  0  0  0  0  0  0  0
  -11.0180   -0.4480  -21.8370 H   0  0  0  0  0  0  0  0  0  0  0  0
   -9.8470    1.1340  -24.0760 C   0  0  0  0  0  0  0  0  0  0  0  0
   -9.5250    1.5680  -25.1760 O   0  0  0  0  0  0  0  0  0  0  0  0
   -9.3790    1.7250  -22.9440 N   0  0  0  0  0  0  0  0  0  0  0  0
   -8.1350    2.4800  -23.0720 C   0  0  0  0  0  0  0  0  0  0  0  0
   -7.5440    2.8370  -21.7160 C   0  0  0  0  0  0  0  0  0  0  0  0
   -7.5760    1.9780  -21.0280 H   0  0  0  0  0  0  0  0  0  0  0  0
   -6.4950    3.1330  -21.8360 H   0  0  0  0  0  0  0  0  0  0  0  0
   -8.0720    3.6900  -21.2760 H   0  0  0  0  0  0  0  0  0  0  0  0
   -7.4090    1.8660  -23.6320 H   0  0  0  0  0  0  0  0  0  0  0  0
   -8.3230    3.3820  -23.6740 H   0  0  0  0  0  0  0  0  0  0  0  0
   -9.5780    1.3330  -22.0270 H   0  0  0  0  0  0  0  0  0  0  0  0
  -11.0700    0.0200  -26.0290 H   0  0  0  0  0  0  0  0  0  0  0  0
  -12.0000   -1.3400  -25.1140 H   0  0  0  0  0  0  0  0  0  0  0  0
  1  2  2  0  0  0  0
  1 49  1  0  0  0  0
  1 50  1  0  0  0  0
  2  3  1  0  0  0  0
  2 38  1  0  0  0  0
  3  4  1  0  0  0  0
  3 36  1  0  0  0  0
  3 37  1  0  0  0  0
  4  5  1  0  0  0  0
  4 25  1  0  0  0  0
  5  6  2  0  0  0  0
  5  7  1  0  0  0  0
  7  8  1  0  0  0  0
  7 24  1  0  0  0  0
  8  9  2  0  0  0  0
  8 17  1  0  0  0  0
  9 10  1  0  0  0  0
  9 23  1  0  0  0  0
 10 11  2  0  0  0  0
 11 12  1  0  0  0  0
 11 22  1  0  0  0  0
 12 13  2  0  0  0  0
 12 17  1  0  0  0  0
 13 14  1  0  0  0  0
 13 21  1  0  0  0  0
 14 15  2  0  0  0  0
 14 20  1  0  0  0  0
 15 16  1  0  0  0  0
 15 19  1  0  0  0  0
 16 17  2  0  0  0  0
 16 18  1  0  0  0  0
 25 26  2  0  0  0  0
 25 31  1  0  0  0  0
 26 27  1  0  0  0  0
 26 35  1  0  0  0  0
 27 28  2  0  0  0  0
 27 34  1  0  0  0  0
 28 29  1  0  0  0  0
 28 33  1  0  0  0  0
 29 30  1  0  0  0  0
 29 31  2  0  0  0  0
 31 32  1  0  0  0  0
 38 39  2  0  0  0  0
 38 40  1  0  0  0  0
 40 41  1  0  0  0  0
 40 48  1  0  0  0  0
 41 42  1  0  0  0  0
 41 46  1  0  0  0  0
 41 47  1  0  0  0  0
 42 43  1  0  0  0  0
 42 44  1  0  0  0  0
 42 45  1  0  0  0  0
M  END
>  <MODEL>
       1

$$$$
