tmp_first_model_18_93.pdb
 OpenBabel08282502533D

 62 67  0  0  1  0  0  0  0  0999 V2000
   -4.6100    1.6800  -27.3610 C   0  0  0  0  0  0  0  0  0  0  0  0
   -4.6450    1.2670  -25.8920 C   0  0  0  0  0  0  0  0  0  0  0  0
   -5.6980    1.9160  -25.1300 N   0  0  0  0  0  0  0  0  0  0  0  0
   -5.3860    3.0020  -24.4040 N   0  0  0  0  0  0  0  0  0  0  0  0
   -6.5380    3.4080  -23.8840 C   0  0  0  0  0  0  0  0  0  0  0  0
   -7.6080    2.5780  -24.2820 C   0  0  0  0  0  0  0  0  0  0  0  0
   -7.0240    1.6230  -25.0890 C   0  0  0  0  0  0  0  0  0  0  0  0
   -7.6280    0.4620  -25.8290 C   0  0  0  0  0  0  0  0  0  0  0  0
   -8.6290   -0.2290  -25.0360 N   0  0  0  0  0  0  0  0  0  0  0  0
   -8.2890   -1.4630  -24.3590 C   0  0  0  0  0  0  0  0  0  0  0  0
   -9.0250   -1.6170  -23.0050 C   0  0  2  0  0  0  0  0  0  0  0  0
   -8.4290   -0.6280  -21.9650 C   0  0  0  0  0  0  0  0  0  0  0  0
   -8.6970    0.5410  -21.7810 O   0  0  0  0  0  0  0  0  0  0  0  0
   -7.4600   -1.3150  -21.2670 N   0  0  0  0  0  0  0  0  0  0  0  0
   -6.6880   -0.7370  -20.2360 C   0  0  0  0  0  0  0  0  0  0  0  0
   -6.9980   -1.0150  -18.9270 C   0  0  0  0  0  0  0  0  0  0  0  0
   -6.3140   -0.5470  -17.8570 N   0  0  0  0  0  0  0  0  0  0  0  0
   -5.2700    0.2080  -18.1090 C   0  0  0  0  0  0  0  0  0  0  0  0
   -4.8180    0.5440  -19.4160 C   0  0  0  0  0  0  0  0  0  0  0  0
   -3.6570    1.3350  -19.6180 C   0  0  0  0  0  0  0  0  0  0  0  0
   -3.1980    1.5850  -20.8810 C   0  0  0  0  0  0  0  0  0  0  0  0
   -3.8780    1.0570  -22.0030 C   0  0  0  0  0  0  0  0  0  0  0  0
   -5.0180    0.3090  -21.8350 C   0  0  0  0  0  0  0  0  0  0  0  0
   -5.5250    0.0420  -20.5310 C   0  0  0  0  0  0  0  0  0  0  0  0
   -5.5190   -0.1120  -22.7010 H   0  0  0  0  0  0  0  0  0  0  0  0
   -3.4950    1.2420  -23.0040 H   0  0  0  0  0  0  0  0  0  0  0  0
   -2.3060    2.1880  -21.0280 H   0  0  0  0  0  0  0  0  0  0  0  0
   -3.1460    1.7180  -18.7400 H   0  0  0  0  0  0  0  0  0  0  0  0
   -4.7080    0.5750  -17.2520 H   0  0  0  0  0  0  0  0  0  0  0  0
   -7.8560   -1.6500  -18.7070 H   0  0  0  0  0  0  0  0  0  0  0  0
   -7.3680   -2.7240  -21.5820 C   0  0  0  0  0  0  0  0  0  0  0  0
   -8.6700   -2.9870  -22.3530 C   0  0  2  0  0  0  0  0  0  0  0  0
   -8.6240   -4.2080  -23.2740 C   0  0  0  0  0  0  0  0  0  0  0  0
   -7.7680   -4.1770  -23.9600 H   0  0  0  0  0  0  0  0  0  0  0  0
   -8.5420   -5.1340  -22.6910 H   0  0  0  0  0  0  0  0  0  0  0  0
   -9.5330   -4.2820  -23.8840 H   0  0  0  0  0  0  0  0  0  0  0  0
   -9.4340   -3.1730  -21.5930 H   0  0  0  0  0  0  0  0  0  0  0  0
   -6.4660   -2.9400  -22.1790 H   0  0  0  0  0  0  0  0  0  0  0  0
   -7.2890   -3.3000  -20.6540 H   0  0  0  0  0  0  0  0  0  0  0  0
  -10.5050   -1.4140  -23.2680 C   0  0  0  0  0  0  0  0  0  0  0  0
  -11.5000   -2.0030  -22.4690 C   0  0  0  0  0  0  0  0  0  0  0  0
  -12.8280   -1.7140  -22.7060 C   0  0  0  0  0  0  0  0  0  0  0  0
  -13.7610   -2.1940  -21.8650 F   0  0  0  0  0  0  0  0  0  0  0  0
  -13.2450   -0.9410  -23.7820 C   0  0  0  0  0  0  0  0  0  0  0  0
  -12.2770   -0.3590  -24.5720 C   0  0  0  0  0  0  0  0  0  0  0  0
  -10.9240   -0.5750  -24.3100 C   0  0  0  0  0  0  0  0  0  0  0  0
   -9.9340    0.1510  -25.1730 C   0  0  0  0  0  0  0  0  0  0  0  0
  -10.2660    1.0390  -25.9430 O   0  0  0  0  0  0  0  0  0  0  0  0
  -12.5310    0.2870  -25.4060 H   0  0  0  0  0  0  0  0  0  0  0  0
  -14.3040   -0.7920  -23.9390 H   0  0  0  0  0  0  0  0  0  0  0  0
  -11.2940   -2.7170  -21.6820 H   0  0  0  0  0  0  0  0  0  0  0  0
   -8.5860   -2.3100  -24.9920 H   0  0  0  0  0  0  0  0  0  0  0  0
   -7.2060   -1.5070  -24.2020 H   0  0  0  0  0  0  0  0  0  0  0  0
   -6.8490   -0.2440  -26.1530 H   0  0  0  0  0  0  0  0  0  0  0  0
   -8.1270    0.8240  -26.7340 H   0  0  0  0  0  0  0  0  0  0  0  0
   -8.6530    2.6660  -24.0060 H   0  0  0  0  0  0  0  0  0  0  0  0
   -6.5510    4.2890  -23.2550 H   0  0  0  0  0  0  0  0  0  0  0  0
   -4.7340    0.1780  -25.7880 H   0  0  0  0  0  0  0  0  0  0  0  0
   -3.7230    1.5710  -25.3910 H   0  0  0  0  0  0  0  0  0  0  0  0
   -4.4970    2.7640  -27.4480 H   0  0  0  0  0  0  0  0  0  0  0  0
   -3.7570    1.2020  -27.8520 H   0  0  0  0  0  0  0  0  0  0  0  0
   -5.5220    1.3850  -27.8940 H   0  0  0  0  0  0  0  0  0  0  0  0
  1  2  1  0  0  0  0
  1 60  1  0  0  0  0
  1 61  1  0  0  0  0
  1 62  1  0  0  0  0
  2  3  1  0  0  0  0
  2 58  1  0  0  0  0
  2 59  1  0  0  0  0
  3  4  1  0  0  0  0
  3  7  1  0  0  0  0
  4  5  2  0  0  0  0
  5  6  1  0  0  0  0
  5 57  1  0  0  0  0
  6  7  2  0  0  0  0
  6 56  1  0  0  0  0
  7  8  1  0  0  0  0
  8  9  1  0  0  0  0
  8 54  1  0  0  0  0
  8 55  1  0  0  0  0
  9 10  1  0  0  0  0
  9 47  1  0  0  0  0
 10 11  1  0  0  0  0
 10 52  1  0  0  0  0
 10 53  1  0  0  0  0
 11 12  1  1  0  0  0
 11 32  1  0  0  0  0
 11 40  1  0  0  0  0
 12 13  2  0  0  0  0
 12 14  1  0  0  0  0
 14 15  1  0  0  0  0
 14 31  1  0  0  0  0
 15 16  2  0  0  0  0
 15 24  1  0  0  0  0
 16 17  1  0  0  0  0
 16 30  1  0  0  0  0
 17 18  2  0  0  0  0
 18 19  1  0  0  0  0
 18 29  1  0  0  0  0
 19 20  2  0  0  0  0
 19 24  1  0  0  0  0
 20 21  1  0  0  0  0
 20 28  1  0  0  0  0
 21 22  2  0  0  0  0
 21 27  1  0  0  0  0
 22 23  1  0  0  0  0
 22 26  1  0  0  0  0
 23 24  2  0  0  0  0
 23 25  1  0  0  0  0
 31 32  1  0  0  0  0
 31 38  1  0  0  0  0
 31 39  1  0  0  0  0
 32 33  1  0  0  0  0
 32 37  1  1  0  0  0
 33 34  1  0  0  0  0
 33 35  1  0  0  0  0
 33 36  1  0  0  0  0
 40 41  2  0  0  0  0
 40 46  1  0  0  0  0
 41 42  1  0  0  0  0
 41 51  1  0  0  0  0
 42 43  1  0  0  0  0
 42 44  2  0  0  0  0
 44 45  1  0  0  0  0
 44 50  1  0  0  0  0
 45 46  2  0  0  0  0
 45 49  1  0  0  0  0
 46 47  1  0  0  0  0
 47 48  2  0  0  0  0
M  END
>  <MODEL>
       1

$$$$
