tmp_first_model_6_93.pdb
 OpenBabel08272519583D

 62 67  0  0  1  0  0  0  0  0999 V2000
  -11.6840    3.3090  -22.6200 C   0  0  0  0  0  0  0  0  0  0  0  0
  -10.8520    2.0660  -22.2890 C   0  0  0  0  0  0  0  0  0  0  0  0
   -9.4770    2.1180  -22.7720 N   0  0  0  0  0  0  0  0  0  0  0  0
   -8.5710    2.7420  -22.0060 N   0  0  0  0  0  0  0  0  0  0  0  0
   -7.4550    2.7760  -22.7060 C   0  0  0  0  0  0  0  0  0  0  0  0
   -7.6140    2.1220  -23.9400 C   0  0  0  0  0  0  0  0  0  0  0  0
   -8.9310    1.7080  -23.9470 C   0  0  0  0  0  0  0  0  0  0  0  0
   -9.7090    0.9740  -24.9880 C   0  0  0  0  0  0  0  0  0  0  0  0
  -10.2360   -0.3070  -24.5400 N   0  0  0  0  0  0  0  0  0  0  0  0
   -9.3100   -1.3830  -24.2340 C   0  0  0  0  0  0  0  0  0  0  0  0
   -9.5160   -1.9930  -22.8220 C   0  0  2  0  0  0  0  0  0  0  0  0
   -8.9630   -1.0630  -21.7060 C   0  0  0  0  0  0  0  0  0  0  0  0
   -9.5840   -0.2390  -21.0680 O   0  0  0  0  0  0  0  0  0  0  0  0
   -7.6260   -1.3380  -21.5140 N   0  0  0  0  0  0  0  0  0  0  0  0
   -6.9310   -0.8390  -20.3910 C   0  0  0  0  0  0  0  0  0  0  0  0
   -7.3530   -1.1280  -19.1160 C   0  0  0  0  0  0  0  0  0  0  0  0
   -6.6970   -0.7320  -18.0000 N   0  0  0  0  0  0  0  0  0  0  0  0
   -5.6260    0.0080  -18.1520 C   0  0  0  0  0  0  0  0  0  0  0  0
   -5.1070    0.4110  -19.4150 C   0  0  0  0  0  0  0  0  0  0  0  0
   -4.0000    1.2910  -19.5420 C   0  0  0  0  0  0  0  0  0  0  0  0
   -3.5320    1.6390  -20.7780 C   0  0  0  0  0  0  0  0  0  0  0  0
   -4.1300    1.1120  -21.9430 C   0  0  0  0  0  0  0  0  0  0  0  0
   -5.1930    0.2440  -21.8450 C   0  0  0  0  0  0  0  0  0  0  0  0
   -5.7400   -0.0750  -20.5770 C   0  0  0  0  0  0  0  0  0  0  0  0
   -5.5990   -0.2240  -22.7360 H   0  0  0  0  0  0  0  0  0  0  0  0
   -3.7350    1.3700  -22.9200 H   0  0  0  0  0  0  0  0  0  0  0  0
   -2.6860    2.3150  -20.8740 H   0  0  0  0  0  0  0  0  0  0  0  0
   -3.5560    1.6920  -18.6370 H   0  0  0  0  0  0  0  0  0  0  0  0
   -5.1090    0.3260  -17.2470 H   0  0  0  0  0  0  0  0  0  0  0  0
   -8.2590   -1.7100  -18.9540 H   0  0  0  0  0  0  0  0  0  0  0  0
   -7.2040   -2.5510  -22.1920 C   0  0  0  0  0  0  0  0  0  0  0  0
   -8.5460   -3.1960  -22.6020 C   0  0  2  0  0  0  0  0  0  0  0  0
   -8.3840   -4.1740  -23.7530 C   0  0  0  0  0  0  0  0  0  0  0  0
   -9.3490   -4.5600  -24.0950 H   0  0  0  0  0  0  0  0  0  0  0  0
   -7.7470   -5.0190  -23.4670 H   0  0  0  0  0  0  0  0  0  0  0  0
   -7.8950   -3.6790  -24.6000 H   0  0  0  0  0  0  0  0  0  0  0  0
   -8.9090   -3.7150  -21.7090 H   0  0  0  0  0  0  0  0  0  0  0  0
   -6.5750   -2.3270  -23.0710 H   0  0  0  0  0  0  0  0  0  0  0  0
   -6.6190   -3.1890  -21.5170 H   0  0  0  0  0  0  0  0  0  0  0  0
  -11.0050   -2.2040  -22.6050 C   0  0  0  0  0  0  0  0  0  0  0  0
  -11.4670   -3.0370  -21.5830 C   0  0  0  0  0  0  0  0  0  0  0  0
  -12.7790   -2.9230  -21.1570 C   0  0  0  0  0  0  0  0  0  0  0  0
  -13.1640   -3.6230  -20.0830 F   0  0  0  0  0  0  0  0  0  0  0  0
  -13.7230   -2.0980  -21.7560 C   0  0  0  0  0  0  0  0  0  0  0  0
  -13.2950   -1.3440  -22.8300 C   0  0  0  0  0  0  0  0  0  0  0  0
  -11.9590   -1.3860  -23.2350 C   0  0  0  0  0  0  0  0  0  0  0  0
  -11.5680   -0.3840  -24.2710 C   0  0  0  0  0  0  0  0  0  0  0  0
  -12.3940    0.3920  -24.7430 O   0  0  0  0  0  0  0  0  0  0  0  0
  -13.9660   -0.6870  -23.3750 H   0  0  0  0  0  0  0  0  0  0  0  0
  -14.7270   -2.0260  -21.3450 H   0  0  0  0  0  0  0  0  0  0  0  0
  -10.7990   -3.7360  -21.0900 H   0  0  0  0  0  0  0  0  0  0  0  0
   -9.4230   -2.1830  -24.9790 H   0  0  0  0  0  0  0  0  0  0  0  0
   -8.3000   -0.9720  -24.3250 H   0  0  0  0  0  0  0  0  0  0  0  0
   -9.0650    0.8160  -25.8590 H   0  0  0  0  0  0  0  0  0  0  0  0
  -10.5810    1.5660  -25.2820 H   0  0  0  0  0  0  0  0  0  0  0  0
   -6.8750    1.9680  -24.7150 H   0  0  0  0  0  0  0  0  0  0  0  0
   -6.6050    3.2940  -22.2830 H   0  0  0  0  0  0  0  0  0  0  0  0
  -11.3490    1.1710  -22.6640 H   0  0  0  0  0  0  0  0  0  0  0  0
  -10.7320    1.9210  -21.2150 H   0  0  0  0  0  0  0  0  0  0  0  0
  -11.9860    3.3300  -23.6760 H   0  0  0  0  0  0  0  0  0  0  0  0
  -11.1230    4.2240  -22.3990 H   0  0  0  0  0  0  0  0  0  0  0  0
  -12.6000    3.3150  -22.0150 H   0  0  0  0  0  0  0  0  0  0  0  0
  1  2  1  0  0  0  0
  1 60  1  0  0  0  0
  1 61  1  0  0  0  0
  1 62  1  0  0  0  0
  2  3  1  0  0  0  0
  2 58  1  0  0  0  0
  2 59  1  0  0  0  0
  3  4  1  0  0  0  0
  3  7  1  0  0  0  0
  4  5  2  0  0  0  0
  5  6  1  0  0  0  0
  5 57  1  0  0  0  0
  6  7  2  0  0  0  0
  6 56  1  0  0  0  0
  7  8  1  0  0  0  0
  8  9  1  0  0  0  0
  8 54  1  0  0  0  0
  8 55  1  0  0  0  0
  9 10  1  0  0  0  0
  9 47  1  0  0  0  0
 10 11  1  0  0  0  0
 10 52  1  0  0  0  0
 10 53  1  0  0  0  0
 11 12  1  1  0  0  0
 11 32  1  0  0  0  0
 11 40  1  0  0  0  0
 12 13  2  0  0  0  0
 12 14  1  0  0  0  0
 14 15  1  0  0  0  0
 14 31  1  0  0  0  0
 15 16  2  0  0  0  0
 15 24  1  0  0  0  0
 16 17  1  0  0  0  0
 16 30  1  0  0  0  0
 17 18  2  0  0  0  0
 18 19  1  0  0  0  0
 18 29  1  0  0  0  0
 19 20  2  0  0  0  0
 19 24  1  0  0  0  0
 20 21  1  0  0  0  0
 20 28  1  0  0  0  0
 21 22  2  0  0  0  0
 21 27  1  0  0  0  0
 22 23  1  0  0  0  0
 22 26  1  0  0  0  0
 23 24  2  0  0  0  0
 23 25  1  0  0  0  0
 31 32  1  0  0  0  0
 31 38  1  0  0  0  0
 31 39  1  0  0  0  0
 32 33  1  0  0  0  0
 32 37  1  1  0  0  0
 33 34  1  0  0  0  0
 33 35  1  0  0  0  0
 33 36  1  0  0  0  0
 40 41  2  0  0  0  0
 40 46  1  0  0  0  0
 41 42  1  0  0  0  0
 41 51  1  0  0  0  0
 42 43  1  0  0  0  0
 42 44  2  0  0  0  0
 44 45  1  0  0  0  0
 44 50  1  0  0  0  0
 45 46  2  0  0  0  0
 45 49  1  0  0  0  0
 46 47  1  0  0  0  0
 47 48  2  0  0  0  0
M  END
>  <MODEL>
       1

$$$$
