tmp_first_model_15_81.pdb
 OpenBabel08282501153D

 36 38  0  0  0  0  0  0  0  0999 V2000
   -8.5030    0.7110  -21.4640 O   0  0  0  0  0  0  0  0  0  0  0  0
   -8.3860   -0.4020  -21.9330 C   0  0  0  0  0  0  0  0  0  0  0  0
   -7.4390   -1.4330  -21.2750 C   0  0  0  0  0  0  0  0  0  0  0  0
   -6.5820   -0.8280  -20.1840 C   0  0  0  0  0  0  0  0  0  0  0  0
   -6.8800   -1.0390  -18.8630 C   0  0  0  0  0  0  0  0  0  0  0  0
   -6.1950   -0.5370  -17.7990 N   0  0  0  0  0  0  0  0  0  0  0  0
   -5.1580    0.2210  -18.0640 C   0  0  0  0  0  0  0  0  0  0  0  0
   -4.7250    0.5340  -19.3810 C   0  0  0  0  0  0  0  0  0  0  0  0
   -3.5990    1.3650  -19.6210 C   0  0  0  0  0  0  0  0  0  0  0  0
   -3.2100    1.6580  -20.9010 C   0  0  0  0  0  0  0  0  0  0  0  0
   -3.9340    1.1300  -21.9940 C   0  0  0  0  0  0  0  0  0  0  0  0
   -5.0270    0.3230  -21.7870 C   0  0  0  0  0  0  0  0  0  0  0  0
   -5.4550    0.0010  -20.4730 C   0  0  0  0  0  0  0  0  0  0  0  0
   -5.5770   -0.0670  -22.6370 H   0  0  0  0  0  0  0  0  0  0  0  0
   -3.6220    1.3710  -23.0050 H   0  0  0  0  0  0  0  0  0  0  0  0
   -2.3530    2.3020  -21.0870 H   0  0  0  0  0  0  0  0  0  0  0  0
   -3.0600    1.7760  -18.7710 H   0  0  0  0  0  0  0  0  0  0  0  0
   -4.6030    0.6270  -17.2160 H   0  0  0  0  0  0  0  0  0  0  0  0
   -7.7290   -1.6600  -18.5860 H   0  0  0  0  0  0  0  0  0  0  0  0
   -6.8030   -1.8990  -22.0400 H   0  0  0  0  0  0  0  0  0  0  0  0
   -8.0410   -2.2450  -20.8440 H   0  0  0  0  0  0  0  0  0  0  0  0
   -9.0620   -0.7710  -23.0890 N   0  0  0  0  0  0  0  0  0  0  0  0
  -10.0070    0.1960  -23.6420 C   0  0  0  0  0  0  0  0  0  0  0  0
  -11.3810    0.2150  -23.0210 C   0  0  0  0  0  0  0  0  0  0  0  0
  -12.0220   -0.7930  -22.4190 C   0  0  0  0  0  0  0  0  0  0  0  0
  -11.5700   -2.1750  -22.1560 C   0  0  0  0  0  0  0  0  0  0  0  0
  -10.4470   -2.7810  -22.5510 C   0  0  0  0  0  0  0  0  0  0  0  0
   -9.3680   -2.1600  -23.4040 C   0  0  0  0  0  0  0  0  0  0  0  0
   -8.4500   -2.7530  -23.3600 H   0  0  0  0  0  0  0  0  0  0  0  0
   -9.6850   -2.1760  -24.4540 H   0  0  0  0  0  0  0  0  0  0  0  0
  -10.2830   -3.8150  -22.2470 H   0  0  0  0  0  0  0  0  0  0  0  0
  -12.2760   -2.7640  -21.5730 H   0  0  0  0  0  0  0  0  0  0  0  0
  -13.0200   -0.5800  -22.0390 H   0  0  0  0  0  0  0  0  0  0  0  0
  -11.8930    1.1790  -23.0810 H   0  0  0  0  0  0  0  0  0  0  0  0
  -10.1140   -0.0410  -24.7080 H   0  0  0  0  0  0  0  0  0  0  0  0
   -9.5590    1.1910  -23.5950 H   0  0  0  0  0  0  0  0  0  0  0  0
  1  2  2  0  0  0  0
  2  3  1  0  0  0  0
  2 22  1  0  0  0  0
  3  4  1  0  0  0  0
  3 20  1  0  0  0  0
  3 21  1  0  0  0  0
  4  5  2  0  0  0  0
  4 13  1  0  0  0  0
  5  6  1  0  0  0  0
  5 19  1  0  0  0  0
  6  7  2  0  0  0  0
  7  8  1  0  0  0  0
  7 18  1  0  0  0  0
  8  9  2  0  0  0  0
  8 13  1  0  0  0  0
  9 10  1  0  0  0  0
  9 17  1  0  0  0  0
 10 11  2  0  0  0  0
 10 16  1  0  0  0  0
 11 12  1  0  0  0  0
 11 15  1  0  0  0  0
 12 13  2  0  0  0  0
 12 14  1  0  0  0  0
 22 23  1  0  0  0  0
 22 28  1  0  0  0  0
 23 24  1  0  0  0  0
 23 35  1  0  0  0  0
 23 36  1  0  0  0  0
 24 25  2  0  0  0  0
 24 34  1  0  0  0  0
 25 26  1  0  0  0  0
 25 33  1  0  0  0  0
 26 27  2  0  0  0  0
 26 32  1  0  0  0  0
 27 28  1  0  0  0  0
 27 31  1  0  0  0  0
 28 29  1  0  0  0  0
 28 30  1  0  0  0  0
M  END
>  <MODEL>
       1

$$$$
