tmp_first_model_6_50.pdb
 OpenBabel08272519583D

 66 70  0  0  1  0  0  0  0  0999 V2000
   -7.3900    3.3930  -21.8180 C   0  0  0  0  0  0  0  0  0  0  0  0
   -8.2430    2.9220  -22.8910 N   0  0  0  0  0  0  0  0  0  0  0  0
   -7.6640    2.2310  -23.9000 C   0  0  0  0  0  0  0  0  0  0  0  0
   -6.4480    2.1350  -24.0080 O   0  0  0  0  0  0  0  0  0  0  0  0
   -8.6140    1.6000  -24.9250 C   0  0  0  0  0  0  0  0  0  0  0  0
   -9.3600    0.4620  -24.4200 N   0  0  0  0  0  0  0  0  0  0  0  0
   -8.6610   -0.7960  -24.2410 C   0  0  0  0  0  0  0  0  0  0  0  0
   -9.0590   -1.4950  -22.9170 C   0  0  2  0  0  0  0  0  0  0  0  0
   -8.5010   -0.7010  -21.7010 C   0  0  0  0  0  0  0  0  0  0  0  0
   -8.9270    0.3340  -21.2390 O   0  0  0  0  0  0  0  0  0  0  0  0
   -7.4080   -1.3760  -21.2020 N   0  0  0  0  0  0  0  0  0  0  0  0
   -6.6090   -0.8040  -20.1740 C   0  0  0  0  0  0  0  0  0  0  0  0
   -6.9090   -1.0450  -18.8590 C   0  0  0  0  0  0  0  0  0  0  0  0
   -6.2010   -0.5580  -17.8090 N   0  0  0  0  0  0  0  0  0  0  0  0
   -5.1680    0.2040  -18.0740 C   0  0  0  0  0  0  0  0  0  0  0  0
   -4.7350    0.5380  -19.3880 C   0  0  0  0  0  0  0  0  0  0  0  0
   -3.6080    1.3730  -19.6320 C   0  0  0  0  0  0  0  0  0  0  0  0
   -3.2330    1.6830  -20.9100 C   0  0  0  0  0  0  0  0  0  0  0  0
   -3.9750    1.1810  -22.0020 C   0  0  0  0  0  0  0  0  0  0  0  0
   -5.0620    0.3650  -21.7920 C   0  0  0  0  0  0  0  0  0  0  0  0
   -5.4800    0.0230  -20.4790 C   0  0  0  0  0  0  0  0  0  0  0  0
   -5.5910   -0.0540  -22.6440 H   0  0  0  0  0  0  0  0  0  0  0  0
   -3.6690    1.3960  -23.0190 H   0  0  0  0  0  0  0  0  0  0  0  0
   -2.3630    2.3070  -21.0940 H   0  0  0  0  0  0  0  0  0  0  0  0
   -3.0670    1.7680  -18.7750 H   0  0  0  0  0  0  0  0  0  0  0  0
   -4.6220    0.6100  -17.2220 H   0  0  0  0  0  0  0  0  0  0  0  0
   -7.7610   -1.6690  -18.6010 H   0  0  0  0  0  0  0  0  0  0  0  0
   -7.0810   -2.5980  -21.9110 C   0  0  0  0  0  0  0  0  0  0  0  0
   -8.3420   -2.8700  -22.7580 C   0  0  2  0  0  0  0  0  0  0  0  0
   -8.0170   -3.6520  -24.0380 C   0  0  0  0  0  0  0  0  0  0  0  0
   -7.4910   -4.9270  -23.7260 O   0  0  0  0  0  0  0  0  0  0  0  0
   -8.4670   -5.9660  -23.6400 C   0  0  0  0  0  0  0  0  0  0  0  0
   -8.5690   -6.6990  -24.9770 C   0  0  0  0  0  0  0  0  0  0  0  0
   -8.8680   -6.0170  -25.7820 H   0  0  0  0  0  0  0  0  0  0  0  0
   -7.5960   -7.1310  -25.2350 H   0  0  0  0  0  0  0  0  0  0  0  0
   -9.3100   -7.5060  -24.9190 H   0  0  0  0  0  0  0  0  0  0  0  0
   -8.0520   -6.9020  -22.5140 C   0  0  0  0  0  0  0  0  0  0  0  0
   -7.0790   -7.3520  -22.7320 H   0  0  0  0  0  0  0  0  0  0  0  0
   -8.7930   -7.7000  -22.3960 H   0  0  0  0  0  0  0  0  0  0  0  0
   -7.9730   -6.3530  -21.5710 H   0  0  0  0  0  0  0  0  0  0  0  0
   -9.4490   -5.5190  -23.4020 H   0  0  0  0  0  0  0  0  0  0  0  0
   -8.9110   -3.7380  -24.6800 H   0  0  0  0  0  0  0  0  0  0  0  0
   -7.2390   -3.1330  -24.6130 H   0  0  0  0  0  0  0  0  0  0  0  0
   -9.0090   -3.5050  -22.1680 H   0  0  0  0  0  0  0  0  0  0  0  0
   -6.8600   -3.4120  -21.2100 H   0  0  0  0  0  0  0  0  0  0  0  0
   -6.1880   -2.4700  -22.5440 H   0  0  0  0  0  0  0  0  0  0  0  0
  -10.5760   -1.5250  -22.8480 C   0  0  0  0  0  0  0  0  0  0  0  0
  -11.2290   -2.3910  -21.9630 C   0  0  0  0  0  0  0  0  0  0  0  0
  -12.6050   -2.3680  -21.8810 C   0  0  0  0  0  0  0  0  0  0  0  0
  -13.2200   -3.1800  -21.0090 F   0  0  0  0  0  0  0  0  0  0  0  0
  -13.3890   -1.5130  -22.6450 C   0  0  0  0  0  0  0  0  0  0  0  0
  -12.7490   -0.6110  -23.4690 C   0  0  0  0  0  0  0  0  0  0  0  0
  -11.3560   -0.5900  -23.5480 C   0  0  0  0  0  0  0  0  0  0  0  0
  -10.7230    0.5320  -24.3160 C   0  0  0  0  0  0  0  0  0  0  0  0
  -11.3880    1.4520  -24.7710 O   0  0  0  0  0  0  0  0  0  0  0  0
  -13.2960    0.1270  -24.0460 H   0  0  0  0  0  0  0  0  0  0  0  0
  -14.4670   -1.5500  -22.5450 H   0  0  0  0  0  0  0  0  0  0  0  0
  -10.6890   -3.0600  -21.3030 H   0  0  0  0  0  0  0  0  0  0  0  0
   -8.8680   -1.4760  -25.0840 H   0  0  0  0  0  0  0  0  0  0  0  0
   -7.5920   -0.5650  -24.2250 H   0  0  0  0  0  0  0  0  0  0  0  0
   -9.3710    2.3070  -25.2790 H   0  0  0  0  0  0  0  0  0  0  0  0
   -7.9720    1.3060  -25.7620 H   0  0  0  0  0  0  0  0  0  0  0  0
   -9.2420    2.8440  -22.7490 H   0  0  0  0  0  0  0  0  0  0  0  0
   -6.6910    4.1580  -22.1780 H   0  0  0  0  0  0  0  0  0  0  0  0
   -6.7990    2.5550  -21.4110 H   0  0  0  0  0  0  0  0  0  0  0  0
   -8.0230    3.8430  -21.0540 H   0  0  0  0  0  0  0  0  0  0  0  0
  1  2  1  0  0  0  0
  1 64  1  0  0  0  0
  1 65  1  0  0  0  0
  1 66  1  0  0  0  0
  2  3  1  0  0  0  0
  2 63  1  0  0  0  0
  3  4  2  0  0  0  0
  3  5  1  0  0  0  0
  5  6  1  0  0  0  0
  5 61  1  0  0  0  0
  5 62  1  0  0  0  0
  6  7  1  0  0  0  0
  6 54  1  0  0  0  0
  7  8  1  0  0  0  0
  7 59  1  0  0  0  0
  7 60  1  0  0  0  0
  8  9  1  1  0  0  0
  8 29  1  0  0  0  0
  8 47  1  0  0  0  0
  9 10  2  0  0  0  0
  9 11  1  0  0  0  0
 11 12  1  0  0  0  0
 11 28  1  0  0  0  0
 12 13  2  0  0  0  0
 12 21  1  0  0  0  0
 13 14  1  0  0  0  0
 13 27  1  0  0  0  0
 14 15  2  0  0  0  0
 15 16  1  0  0  0  0
 15 26  1  0  0  0  0
 16 17  2  0  0  0  0
 16 21  1  0  0  0  0
 17 18  1  0  0  0  0
 17 25  1  0  0  0  0
 18 19  2  0  0  0  0
 18 24  1  0  0  0  0
 19 20  1  0  0  0  0
 19 23  1  0  0  0  0
 20 21  2  0  0  0  0
 20 22  1  0  0  0  0
 28 29  1  0  0  0  0
 28 45  1  0  0  0  0
 28 46  1  0  0  0  0
 29 30  1  0  0  0  0
 29 44  1  1  0  0  0
 30 31  1  0  0  0  0
 30 42  1  0  0  0  0
 30 43  1  0  0  0  0
 31 32  1  0  0  0  0
 32 33  1  0  0  0  0
 32 37  1  0  0  0  0
 32 41  1  0  0  0  0
 33 34  1  0  0  0  0
 33 35  1  0  0  0  0
 33 36  1  0  0  0  0
 37 38  1  0  0  0  0
 37 39  1  0  0  0  0
 37 40  1  0  0  0  0
 47 48  2  0  0  0  0
 47 53  1  0  0  0  0
 48 49  1  0  0  0  0
 48 58  1  0  0  0  0
 49 50  1  0  0  0  0
 49 51  2  0  0  0  0
 51 52  1  0  0  0  0
 51 57  1  0  0  0  0
 52 53  2  0  0  0  0
 52 56  1  0  0  0  0
 53 54  1  0  0  0  0
 54 55  2  0  0  0  0
M  END
>  <MODEL>
       1

$$$$
