tmp_first_model_9_64.pdb
 OpenBabel08272521403D

 55 60  0  0  1  0  0  0  0  0999 V2000
  -10.4740   -1.1680  -23.2370 C   0  0  0  0  0  0  0  0  0  0  0  0
   -9.0230   -1.5120  -22.9220 C   0  0  1  0  0  0  0  0  0  0  0  0
   -8.3900   -0.5400  -21.9140 C   0  0  0  0  0  0  0  0  0  0  0  0
   -7.4020   -1.3470  -21.2270 N   0  0  0  0  0  0  0  0  0  0  0  0
   -6.5870   -0.8380  -20.1870 C   0  0  0  0  0  0  0  0  0  0  0  0
   -6.8940   -1.0850  -18.8720 C   0  0  0  0  0  0  0  0  0  0  0  0
   -6.2090   -0.5650  -17.8210 N   0  0  0  0  0  0  0  0  0  0  0  0
   -5.1880    0.2090  -18.0860 C   0  0  0  0  0  0  0  0  0  0  0  0
   -4.7460    0.5210  -19.4030 C   0  0  0  0  0  0  0  0  0  0  0  0
   -3.6200    1.3470  -19.6400 C   0  0  0  0  0  0  0  0  0  0  0  0
   -3.2170    1.6190  -20.9170 C   0  0  0  0  0  0  0  0  0  0  0  0
   -3.9190    1.0780  -22.0190 C   0  0  0  0  0  0  0  0  0  0  0  0
   -5.0140    0.2720  -21.8180 C   0  0  0  0  0  0  0  0  0  0  0  0
   -5.4600   -0.0160  -20.4990 C   0  0  0  0  0  0  0  0  0  0  0  0
   -5.5380   -0.1540  -22.6700 H   0  0  0  0  0  0  0  0  0  0  0  0
   -3.5890    1.2990  -23.0300 H   0  0  0  0  0  0  0  0  0  0  0  0
   -2.3570    2.2570  -21.0980 H   0  0  0  0  0  0  0  0  0  0  0  0
   -3.1030    1.7640  -18.7800 H   0  0  0  0  0  0  0  0  0  0  0  0
   -4.6430    0.6370  -17.2400 H   0  0  0  0  0  0  0  0  0  0  0  0
   -7.7340   -1.7310  -18.6210 H   0  0  0  0  0  0  0  0  0  0  0  0
   -7.5580   -2.7000  -21.4260 C   0  0  0  0  0  0  0  0  0  0  0  0
   -6.7860   -3.5400  -21.0080 O   0  0  0  0  0  0  0  0  0  0  0  0
   -8.7940   -2.9350  -22.3140 C   0  0  1  0  0  0  0  0  0  0  0  0
   -9.9760   -3.4010  -21.4420 C   0  0  0  0  0  0  0  0  0  0  0  0
  -11.0930   -3.9400  -22.2030 N   0  0  0  0  0  0  0  0  0  0  0  0
  -12.4480   -3.8010  -21.7000 C   0  0  0  0  0  0  0  0  0  0  0  0
  -13.2860   -2.7670  -22.4040 C   0  0  0  0  0  0  0  0  0  0  0  0
  -13.7190   -1.5950  -21.8600 N   0  0  0  0  0  0  0  0  0  0  0  0
  -14.5250   -1.1160  -22.7910 C   0  0  0  0  0  0  0  0  0  0  0  0
  -14.5760   -1.9660  -23.8290 N   0  0  0  0  0  0  0  0  0  0  0  0
  -13.7950   -3.0360  -23.5950 N   0  0  0  0  0  0  0  0  0  0  0  0
  -15.1040   -1.9220  -24.6860 H   0  0  0  0  0  0  0  0  0  0  0  0
  -15.1070   -0.2070  -22.7400 H   0  0  0  0  0  0  0  0  0  0  0  0
  -12.9330   -4.7450  -21.9240 H   0  0  0  0  0  0  0  0  0  0  0  0
  -12.4460   -3.6520  -20.6200 H   0  0  0  0  0  0  0  0  0  0  0  0
  -10.9340   -4.6940  -23.3310 C   0  0  0  0  0  0  0  0  0  0  0  0
  -11.8800   -5.1830  -23.9310 O   0  0  0  0  0  0  0  0  0  0  0  0
   -9.5370   -4.8420  -23.8060 C   0  0  0  0  0  0  0  0  0  0  0  0
   -9.2980   -5.8040  -24.7820 C   0  0  0  0  0  0  0  0  0  0  0  0
   -8.0470   -5.9210  -25.3530 C   0  0  0  0  0  0  0  0  0  0  0  0
   -7.0540   -5.0500  -24.9170 C   0  0  0  0  0  0  0  0  0  0  0  0
   -5.8500   -5.1070  -25.5060 F   0  0  0  0  0  0  0  0  0  0  0  0
   -7.2580   -4.1130  -23.9240 C   0  0  0  0  0  0  0  0  0  0  0  0
   -8.5220   -4.0000  -23.3470 C   0  0  0  0  0  0  0  0  0  0  0  0
   -6.4480   -3.4660  -23.6070 H   0  0  0  0  0  0  0  0  0  0  0  0
   -7.8340   -6.6240  -26.1500 H   0  0  0  0  0  0  0  0  0  0  0  0
  -10.1250   -6.4480  -25.0650 H   0  0  0  0  0  0  0  0  0  0  0  0
  -10.3480   -2.5550  -20.8620 H   0  0  0  0  0  0  0  0  0  0  0  0
   -9.6080   -4.1470  -20.7450 H   0  0  0  0  0  0  0  0  0  0  0  0
   -9.1360   -0.1540  -21.2060 H   0  0  0  0  0  0  0  0  0  0  0  0
   -7.9300    0.3260  -22.4020 H   0  0  0  0  0  0  0  0  0  0  0  0
   -8.4320   -1.4690  -23.8460 H   0  0  0  0  0  0  0  0  0  0  0  0
  -10.5470   -0.2040  -23.7450 H   0  0  0  0  0  0  0  0  0  0  0  0
  -11.0610   -1.0980  -22.3160 H   0  0  0  0  0  0  0  0  0  0  0  0
  -10.9380   -1.9340  -23.8680 H   0  0  0  0  0  0  0  0  0  0  0  0
  1  2  1  0  0  0  0
  1 53  1  0  0  0  0
  1 54  1  0  0  0  0
  1 55  1  0  0  0  0
  2  3  1  0  0  0  0
  2 23  1  0  0  0  0
  2 52  1  6  0  0  0
  3  4  1  0  0  0  0
  3 50  1  0  0  0  0
  3 51  1  0  0  0  0
  4  5  1  0  0  0  0
  4 21  1  0  0  0  0
  5  6  2  0  0  0  0
  5 14  1  0  0  0  0
  6  7  1  0  0  0  0
  6 20  1  0  0  0  0
  7  8  2  0  0  0  0
  8  9  1  0  0  0  0
  8 19  1  0  0  0  0
  9 10  2  0  0  0  0
  9 14  1  0  0  0  0
 10 11  1  0  0  0  0
 10 18  1  0  0  0  0
 11 12  2  0  0  0  0
 11 17  1  0  0  0  0
 12 13  1  0  0  0  0
 12 16  1  0  0  0  0
 13 14  2  0  0  0  0
 13 15  1  0  0  0  0
 21 22  2  0  0  0  0
 23 21  1  1  0  0  0
 23 24  1  0  0  0  0
 23 44  1  0  0  0  0
 24 25  1  0  0  0  0
 24 48  1  0  0  0  0
 24 49  1  0  0  0  0
 25 26  1  0  0  0  0
 25 36  1  0  0  0  0
 26 27  1  0  0  0  0
 26 34  1  0  0  0  0
 26 35  1  0  0  0  0
 27 28  1  0  0  0  0
 27 31  2  0  0  0  0
 28 29  2  0  0  0  0
 29 30  1  0  0  0  0
 29 33  1  0  0  0  0
 30 31  1  0  0  0  0
 30 32  1  0  0  0  0
 36 37  2  0  0  0  0
 36 38  1  0  0  0  0
 38 39  2  0  0  0  0
 38 44  1  0  0  0  0
 39 40  1  0  0  0  0
 39 47  1  0  0  0  0
 40 41  2  0  0  0  0
 40 46  1  0  0  0  0
 41 42  1  0  0  0  0
 41 43  1  0  0  0  0
 43 44  2  0  0  0  0
 43 45  1  0  0  0  0
M  END
>  <MODEL>
       1

$$$$
