tmp_first_model_12_17.pdb
 OpenBabel08272523333D

 38 41  0  0  1  0  0  0  0  0999 V2000
   -9.3420   -4.9490  -25.6930 C   0  0  0  0  0  0  0  0  0  0  0  0
   -9.3440   -4.2060  -24.3530 C   0  0  2  0  0  0  0  0  0  0  0  0
  -10.3430   -3.0400  -24.3810 C   0  0  0  0  0  0  0  0  0  0  0  0
  -10.4290   -2.3510  -23.0090 C   0  0  0  0  0  0  0  0  0  0  0  0
   -9.0880   -2.0840  -22.4740 C   0  0  0  0  0  0  0  0  0  0  0  0
   -8.6920   -1.1420  -21.4680 C   0  0  0  0  0  0  0  0  0  0  0  0
   -9.3090   -0.2260  -20.9680 O   0  5  0  0  0  0  0  0  0  0  0  0
   -7.3360   -1.4650  -21.2010 N   0  0  0  0  0  0  0  0  0  0  0  0
   -6.5680   -0.8450  -20.1820 C   0  0  0  0  0  0  0  0  0  0  0  0
   -6.8930   -1.0640  -18.8690 C   0  0  0  0  0  0  0  0  0  0  0  0
   -6.2040   -0.5570  -17.8180 N   0  0  0  0  0  0  0  0  0  0  0  0
   -5.1680    0.2020  -18.0820 C   0  0  0  0  0  0  0  0  0  0  0  0
   -4.7460    0.5470  -19.3950 C   0  0  0  0  0  0  0  0  0  0  0  0
   -3.6190    1.3830  -19.6190 C   0  0  0  0  0  0  0  0  0  0  0  0
   -3.2640    1.7310  -20.8960 C   0  0  0  0  0  0  0  0  0  0  0  0
   -4.0350    1.2810  -21.9890 C   0  0  0  0  0  0  0  0  0  0  0  0
   -5.1220    0.4610  -21.7980 C   0  0  0  0  0  0  0  0  0  0  0  0
   -5.4900    0.0500  -20.4860 C   0  0  0  0  0  0  0  0  0  0  0  0
   -5.6520    0.0490  -22.6500 H   0  0  0  0  0  0  0  0  0  0  0  0
   -3.7090    1.5140  -23.0000 H   0  0  0  0  0  0  0  0  0  0  0  0
   -2.3730    2.3240  -21.0760 H   0  0  0  0  0  0  0  0  0  0  0  0
   -3.0650    1.7390  -18.7570 H   0  0  0  0  0  0  0  0  0  0  0  0
   -4.6230    0.6040  -17.2280 H   0  0  0  0  0  0  0  0  0  0  0  0
   -7.7530   -1.6780  -18.6090 H   0  0  0  0  0  0  0  0  0  0  0  0
   -6.8740   -2.4330  -22.1050 C   0  0  0  0  0  0  0  0  0  0  0  0
   -5.7390   -2.8410  -22.2340 O   0  0  0  0  0  0  0  0  0  0  0  0
   -7.9920   -2.7920  -22.8490 N   0  0  0  0  0  0  0  0  0  0  0  0
   -7.9360   -3.6870  -24.0050 C   0  0  0  0  0  0  0  0  0  0  0  0
   -7.2560   -4.5030  -23.7360 H   0  0  0  0  0  0  0  0  0  0  0  0
   -7.5130   -3.1520  -24.8740 H   0  0  0  0  0  0  0  0  0  0  0  0
  -10.9650   -1.4010  -23.0670 H   0  0  0  0  0  0  0  0  0  0  0  0
  -11.0060   -2.9790  -22.3100 H   0  0  0  0  0  0  0  0  0  0  0  0
  -10.0170   -2.3170  -25.1450 H   0  0  0  0  0  0  0  0  0  0  0  0
  -11.3310   -3.4120  -24.6910 H   0  0  0  0  0  0  0  0  0  0  0  0
   -9.6530   -4.9010  -23.5540 H   0  0  0  0  0  0  0  0  0  0  0  0
  -10.3400   -5.3440  -25.9160 H   0  0  0  0  0  0  0  0  0  0  0  0
   -8.6380   -5.7900  -25.6890 H   0  0  0  0  0  0  0  0  0  0  0  0
   -9.0630   -4.2730  -26.5150 H   0  0  0  0  0  0  0  0  0  0  0  0
  1  2  1  0  0  0  0
  1 36  1  0  0  0  0
  1 37  1  0  0  0  0
  1 38  1  0  0  0  0
  2  3  1  0  0  0  0
  2 28  1  0  0  0  0
  2 35  1  1  0  0  0
  3  4  1  0  0  0  0
  3 33  1  0  0  0  0
  3 34  1  0  0  0  0
  4  5  1  0  0  0  0
  4 31  1  0  0  0  0
  4 32  1  0  0  0  0
  5  6  2  0  0  0  0
  5 27  1  0  0  0  0
  6  7  1  0  0  0  0
  6  8  1  0  0  0  0
  8  9  1  0  0  0  0
  8 25  1  0  0  0  0
  9 10  2  0  0  0  0
  9 18  1  0  0  0  0
 10 11  1  0  0  0  0
 10 24  1  0  0  0  0
 11 12  2  0  0  0  0
 12 13  1  0  0  0  0
 12 23  1  0  0  0  0
 13 14  2  0  0  0  0
 13 18  1  0  0  0  0
 14 15  1  0  0  0  0
 14 22  1  0  0  0  0
 15 16  2  0  0  0  0
 15 21  1  0  0  0  0
 16 17  1  0  0  0  0
 16 20  1  0  0  0  0
 17 18  2  0  0  0  0
 17 19  1  0  0  0  0
 25 26  2  0  0  0  0
 25 27  1  0  0  0  0
 27 28  1  0  0  0  0
 28 29  1  0  0  0  0
 28 30  1  0  0  0  0
M  CHG  1   7  -1
M  END
>  <MODEL>
       1

$$$$
