tmp_first_model_12_49.pdb
 OpenBabel08272523333D

 67 72  0  0  1  0  0  0  0  0999 V2000
   -7.3780    3.4200  -21.9140 C   0  0  0  0  0  0  0  0  0  0  0  0
   -8.2690    2.9310  -22.9550 N   0  0  0  0  0  0  0  0  0  0  0  0
   -7.7050    2.2030  -23.9640 C   0  0  0  0  0  0  0  0  0  0  0  0
   -6.4970    2.0370  -24.0680 O   0  0  0  0  0  0  0  0  0  0  0  0
   -8.6810    1.5900  -24.9660 C   0  0  0  0  0  0  0  0  0  0  0  0
   -9.3620    0.4580  -24.3680 N   0  0  0  0  0  0  0  0  0  0  0  0
   -8.6260   -0.7880  -24.1990 C   0  0  0  0  0  0  0  0  0  0  0  0
   -9.0260   -1.5120  -22.8910 C   0  0  2  0  0  0  0  0  0  0  0  0
   -8.4950   -0.7370  -21.6640 C   0  0  0  0  0  0  0  0  0  0  0  0
   -8.9500    0.2760  -21.1700 O   0  0  0  0  0  0  0  0  0  0  0  0
   -7.3730   -1.3830  -21.2010 N   0  0  0  0  0  0  0  0  0  0  0  0
   -6.6000   -0.7990  -20.1730 C   0  0  0  0  0  0  0  0  0  0  0  0
   -6.9210   -1.0490  -18.8640 C   0  0  0  0  0  0  0  0  0  0  0  0
   -6.2330   -0.5640  -17.8040 N   0  0  0  0  0  0  0  0  0  0  0  0
   -5.2020    0.2060  -18.0600 C   0  0  0  0  0  0  0  0  0  0  0  0
   -4.7820    0.5720  -19.3720 C   0  0  0  0  0  0  0  0  0  0  0  0
   -3.6500    1.3940  -19.6060 C   0  0  0  0  0  0  0  0  0  0  0  0
   -3.3090    1.7640  -20.8780 C   0  0  0  0  0  0  0  0  0  0  0  0
   -4.0930    1.3530  -21.9780 C   0  0  0  0  0  0  0  0  0  0  0  0
   -5.1750    0.5250  -21.7830 C   0  0  0  0  0  0  0  0  0  0  0  0
   -5.5270    0.0910  -20.4740 C   0  0  0  0  0  0  0  0  0  0  0  0
   -5.7700    0.2190  -22.6400 H   0  0  0  0  0  0  0  0  0  0  0  0
   -3.8460    1.6900  -22.9800 H   0  0  0  0  0  0  0  0  0  0  0  0
   -2.4290    2.3770  -21.0470 H   0  0  0  0  0  0  0  0  0  0  0  0
   -3.0770    1.7290  -18.7460 H   0  0  0  0  0  0  0  0  0  0  0  0
   -4.6320    0.5750  -17.2070 H   0  0  0  0  0  0  0  0  0  0  0  0
   -7.7810   -1.6760  -18.6420 H   0  0  0  0  0  0  0  0  0  0  0  0
   -7.0230   -2.5820  -21.9300 C   0  0  0  0  0  0  0  0  0  0  0  0
   -8.2930   -2.8790  -22.7380 C   0  0  2  0  0  0  0  0  0  0  0  0
   -7.9760   -3.6680  -24.0150 C   0  0  0  0  0  0  0  0  0  0  0  0
   -7.4700   -4.9840  -23.7070 N   0  0  0  0  0  0  0  0  0  0  0  0
   -6.1390   -5.2880  -23.6210 C   0  0  0  0  0  0  0  0  0  0  0  0
   -5.0360   -4.5600  -23.9730 C   0  0  0  0  0  0  0  0  0  0  0  0
   -3.8140   -5.1660  -23.7690 N   0  0  0  0  0  0  0  0  0  0  0  0
   -3.9560   -6.3590  -23.2890 C   0  0  0  0  0  0  0  0  0  0  0  0
   -2.8180   -7.2790  -22.9850 C   0  0  0  0  0  0  0  0  0  0  0  0
   -3.0340   -7.9050  -22.1180 H   0  0  0  0  0  0  0  0  0  0  0  0
   -2.6290   -7.9450  -23.8340 H   0  0  0  0  0  0  0  0  0  0  0  0
   -1.9220   -6.6840  -22.8050 H   0  0  0  0  0  0  0  0  0  0  0  0
   -5.6170   -6.8520  -23.0290 S   0  0  0  0  0  0  0  0  0  0  0  0
   -5.0560   -3.5690  -24.4130 H   0  0  0  0  0  0  0  0  0  0  0  0
   -8.1270   -5.7280  -23.5230 H   0  0  0  0  0  0  0  0  0  0  0  0
   -8.8760   -3.7730  -24.6310 H   0  0  0  0  0  0  0  0  0  0  0  0
   -7.2220   -3.1340  -24.6090 H   0  0  0  0  0  0  0  0  0  0  0  0
   -8.9300   -3.5200  -22.1200 H   0  0  0  0  0  0  0  0  0  0  0  0
   -6.1530   -2.4280  -22.5900 H   0  0  0  0  0  0  0  0  0  0  0  0
   -6.7680   -3.4080  -21.2600 H   0  0  0  0  0  0  0  0  0  0  0  0
  -10.5380   -1.5670  -22.8320 C   0  0  0  0  0  0  0  0  0  0  0  0
  -11.1720   -2.4730  -21.9800 C   0  0  0  0  0  0  0  0  0  0  0  0
  -12.5480   -2.4810  -21.8740 C   0  0  0  0  0  0  0  0  0  0  0  0
  -13.2820   -3.5750  -20.7450 Cl  0  0  0  0  0  0  0  0  0  0  0  0
  -13.3500   -1.6130  -22.6120 C   0  0  0  0  0  0  0  0  0  0  0  0
  -12.7270   -0.6860  -23.4220 C   0  0  0  0  0  0  0  0  0  0  0  0
  -11.3380   -0.6390  -23.5100 C   0  0  0  0  0  0  0  0  0  0  0  0
  -10.7280    0.4780  -24.2960 C   0  0  0  0  0  0  0  0  0  0  0  0
  -11.4040    1.3620  -24.8020 O   0  0  0  0  0  0  0  0  0  0  0  0
  -13.2910    0.0350  -23.9990 H   0  0  0  0  0  0  0  0  0  0  0  0
  -14.4300   -1.6660  -22.5390 H   0  0  0  0  0  0  0  0  0  0  0  0
  -10.6100   -3.1750  -21.3770 H   0  0  0  0  0  0  0  0  0  0  0  0
   -7.5520   -0.5670  -24.2050 H   0  0  0  0  0  0  0  0  0  0  0  0
   -8.8380   -1.4570  -25.0440 H   0  0  0  0  0  0  0  0  0  0  0  0
   -9.4470    2.3090  -25.2720 H   0  0  0  0  0  0  0  0  0  0  0  0
   -8.1240    1.2700  -25.8550 H   0  0  0  0  0  0  0  0  0  0  0  0
   -9.2160    2.6930  -22.6780 H   0  0  0  0  0  0  0  0  0  0  0  0
   -6.8760    2.5780  -21.4100 H   0  0  0  0  0  0  0  0  0  0  0  0
   -6.6190    4.0650  -22.3670 H   0  0  0  0  0  0  0  0  0  0  0  0
   -7.9400    4.0220  -21.1950 H   0  0  0  0  0  0  0  0  0  0  0  0
  1  2  1  0  0  0  0
  1 65  1  0  0  0  0
  1 66  1  0  0  0  0
  1 67  1  0  0  0  0
  2  3  1  0  0  0  0
  2 64  1  0  0  0  0
  3  4  2  0  0  0  0
  3  5  1  0  0  0  0
  5  6  1  0  0  0  0
  5 62  1  0  0  0  0
  5 63  1  0  0  0  0
  6  7  1  0  0  0  0
  6 55  1  0  0  0  0
  7  8  1  0  0  0  0
  7 60  1  0  0  0  0
  7 61  1  0  0  0  0
  8  9  1  1  0  0  0
  8 29  1  0  0  0  0
  8 48  1  0  0  0  0
  9 10  2  0  0  0  0
  9 11  1  0  0  0  0
 11 12  1  0  0  0  0
 11 28  1  0  0  0  0
 12 13  2  0  0  0  0
 12 21  1  0  0  0  0
 13 14  1  0  0  0  0
 13 27  1  0  0  0  0
 14 15  2  0  0  0  0
 15 16  1  0  0  0  0
 15 26  1  0  0  0  0
 16 17  2  0  0  0  0
 16 21  1  0  0  0  0
 17 18  1  0  0  0  0
 17 25  1  0  0  0  0
 18 19  2  0  0  0  0
 18 24  1  0  0  0  0
 19 20  1  0  0  0  0
 19 23  1  0  0  0  0
 20 21  2  0  0  0  0
 20 22  1  0  0  0  0
 28 29  1  0  0  0  0
 28 46  1  0  0  0  0
 28 47  1  0  0  0  0
 29 30  1  0  0  0  0
 29 45  1  1  0  0  0
 30 31  1  0  0  0  0
 30 43  1  0  0  0  0
 30 44  1  0  0  0  0
 31 32  1  0  0  0  0
 31 42  1  0  0  0  0
 32 33  2  0  0  0  0
 32 40  1  0  0  0  0
 33 34  1  0  0  0  0
 33 41  1  0  0  0  0
 34 35  2  0  0  0  0
 35 36  1  0  0  0  0
 35 40  1  0  0  0  0
 36 37  1  0  0  0  0
 36 38  1  0  0  0  0
 36 39  1  0  0  0  0
 48 49  2  0  0  0  0
 48 54  1  0  0  0  0
 49 50  1  0  0  0  0
 49 59  1  0  0  0  0
 50 51  1  0  0  0  0
 50 52  2  0  0  0  0
 52 53  1  0  0  0  0
 52 58  1  0  0  0  0
 53 54  2  0  0  0  0
 53 57  1  0  0  0  0
 54 55  1  0  0  0  0
 55 56  2  0  0  0  0
M  END
>  <MODEL>
       1

$$$$
