tmp_first_model_3_85.pdb
 OpenBabel08272518143D

 57 62  0  0  1  0  0  0  0  0999 V2000
   -9.2820    1.0440  -29.3100 C   0  0  0  0  0  0  0  0  0  0  0  0
   -9.1700    1.3770  -27.9040 N   0  0  0  0  0  0  0  0  0  0  0  0
   -8.2840    0.6980  -27.1310 C   0  0  0  0  0  0  0  0  0  0  0  0
   -7.5260   -0.1540  -27.5690 O   0  0  0  0  0  0  0  0  0  0  0  0
   -8.3040    1.0830  -25.6490 C   0  0  0  0  0  0  0  0  0  0  0  0
   -9.1440    0.2040  -24.8630 N   0  0  0  0  0  0  0  0  0  0  0  0
   -8.6530   -1.1190  -24.5140 C   0  0  0  0  0  0  0  0  0  0  0  0
   -8.9550   -1.4860  -23.0440 C   0  0  2  0  0  0  0  0  0  0  0  0
   -8.1550   -0.5850  -22.0800 C   0  0  0  0  0  0  0  0  0  0  0  0
   -8.1450    0.6260  -22.0640 O   0  0  0  0  0  0  0  0  0  0  0  0
   -7.4160   -1.3700  -21.2150 N   0  0  0  0  0  0  0  0  0  0  0  0
   -6.6010   -0.8220  -20.1930 C   0  0  0  0  0  0  0  0  0  0  0  0
   -6.9010   -1.0650  -18.8750 C   0  0  0  0  0  0  0  0  0  0  0  0
   -6.2200   -0.5560  -17.8190 N   0  0  0  0  0  0  0  0  0  0  0  0
   -5.1870    0.2080  -18.0850 C   0  0  0  0  0  0  0  0  0  0  0  0
   -4.7390    0.5120  -19.4020 C   0  0  0  0  0  0  0  0  0  0  0  0
   -3.6080    1.3410  -19.6270 C   0  0  0  0  0  0  0  0  0  0  0  0
   -3.1870    1.6130  -20.8990 C   0  0  0  0  0  0  0  0  0  0  0  0
   -3.8710    1.0610  -22.0040 C   0  0  0  0  0  0  0  0  0  0  0  0
   -4.9660    0.2550  -21.8120 C   0  0  0  0  0  0  0  0  0  0  0  0
   -5.4480   -0.0240  -20.5000 C   0  0  0  0  0  0  0  0  0  0  0  0
   -5.4850   -0.1600  -22.6690 H   0  0  0  0  0  0  0  0  0  0  0  0
   -3.5340    1.2870  -23.0120 H   0  0  0  0  0  0  0  0  0  0  0  0
   -2.3300    2.2590  -21.0690 H   0  0  0  0  0  0  0  0  0  0  0  0
   -3.0980    1.7640  -18.7650 H   0  0  0  0  0  0  0  0  0  0  0  0
   -4.6370    0.6190  -17.2370 H   0  0  0  0  0  0  0  0  0  0  0  0
   -7.7630   -1.6810  -18.6230 H   0  0  0  0  0  0  0  0  0  0  0  0
   -7.6350   -2.7880  -21.3730 C   0  0  0  0  0  0  0  0  0  0  0  0
   -8.4790   -2.8970  -22.6390 C   0  0  0  0  0  0  0  0  0  0  0  0
   -9.3490   -4.1060  -22.8230 C   0  0  0  0  0  0  0  0  0  0  0  0
   -8.0990   -3.9560  -23.6400 C   0  0  0  0  0  0  0  0  0  0  0  0
   -7.2460   -4.5920  -23.4070 H   0  0  0  0  0  0  0  0  0  0  0  0
   -8.1950   -3.7220  -24.6970 H   0  0  0  0  0  0  0  0  0  0  0  0
   -9.3830   -4.8550  -22.0310 H   0  0  0  0  0  0  0  0  0  0  0  0
  -10.3000   -3.9620  -23.3260 H   0  0  0  0  0  0  0  0  0  0  0  0
   -6.6780   -3.3110  -21.4700 H   0  0  0  0  0  0  0  0  0  0  0  0
   -8.1570   -3.2150  -20.5070 H   0  0  0  0  0  0  0  0  0  0  0  0
  -10.4470   -1.2300  -22.8800 C   0  0  0  0  0  0  0  0  0  0  0  0
  -11.1580   -1.9440  -21.9270 C   0  0  0  0  0  0  0  0  0  0  0  0
  -12.5210   -1.7730  -21.8060 C   0  0  0  0  0  0  0  0  0  0  0  0
  -13.2610   -2.7810  -20.5890 Cl  0  0  0  0  0  0  0  0  0  0  0  0
  -13.2060   -0.7550  -22.4680 C   0  0  0  0  0  0  0  0  0  0  0  0
  -12.4820    0.0220  -23.3580 C   0  0  0  0  0  0  0  0  0  0  0  0
  -11.1410   -0.2510  -23.6090 C   0  0  0  0  0  0  0  0  0  0  0  0
  -10.4400    0.5650  -24.6430 C   0  0  0  0  0  0  0  0  0  0  0  0
  -10.9620    1.5050  -25.2370 O   0  0  0  0  0  0  0  0  0  0  0  0
  -12.9250    0.8660  -23.8750 H   0  0  0  0  0  0  0  0  0  0  0  0
  -14.2580   -0.5750  -22.2710 H   0  0  0  0  0  0  0  0  0  0  0  0
  -10.6740   -2.6700  -21.2810 H   0  0  0  0  0  0  0  0  0  0  0  0
   -7.5800   -1.1470  -24.7090 H   0  0  0  0  0  0  0  0  0  0  0  0
   -9.1380   -1.8660  -25.1550 H   0  0  0  0  0  0  0  0  0  0  0  0
   -8.6770    2.1020  -25.5120 H   0  0  0  0  0  0  0  0  0  0  0  0
   -7.2800    1.0050  -25.2660 H   0  0  0  0  0  0  0  0  0  0  0  0
   -9.8980    1.9150  -27.4520 H   0  0  0  0  0  0  0  0  0  0  0  0
   -9.5320   -0.0140  -29.4450 H   0  0  0  0  0  0  0  0  0  0  0  0
  -10.0550    1.6600  -29.7730 H   0  0  0  0  0  0  0  0  0  0  0  0
   -8.3320    1.2270  -29.8200 H   0  0  0  0  0  0  0  0  0  0  0  0
  1  2  1  0  0  0  0
  1 55  1  0  0  0  0
  1 56  1  0  0  0  0
  1 57  1  0  0  0  0
  2  3  1  0  0  0  0
  2 54  1  0  0  0  0
  3  4  2  0  0  0  0
  3  5  1  0  0  0  0
  5  6  1  0  0  0  0
  5 52  1  0  0  0  0
  5 53  1  0  0  0  0
  6  7  1  0  0  0  0
  6 45  1  0  0  0  0
  7  8  1  0  0  0  0
  7 50  1  0  0  0  0
  7 51  1  0  0  0  0
  8  9  1  1  0  0  0
  8 29  1  0  0  0  0
  8 38  1  0  0  0  0
  9 10  2  0  0  0  0
  9 11  1  0  0  0  0
 11 12  1  0  0  0  0
 11 28  1  0  0  0  0
 12 13  2  0  0  0  0
 12 21  1  0  0  0  0
 13 14  1  0  0  0  0
 13 27  1  0  0  0  0
 14 15  2  0  0  0  0
 15 16  1  0  0  0  0
 15 26  1  0  0  0  0
 16 17  2  0  0  0  0
 16 21  1  0  0  0  0
 17 18  1  0  0  0  0
 17 25  1  0  0  0  0
 18 19  2  0  0  0  0
 18 24  1  0  0  0  0
 19 20  1  0  0  0  0
 19 23  1  0  0  0  0
 20 21  2  0  0  0  0
 20 22  1  0  0  0  0
 28 29  1  0  0  0  0
 28 36  1  0  0  0  0
 28 37  1  0  0  0  0
 29 30  1  0  0  0  0
 29 31  1  0  0  0  0
 30 31  1  0  0  0  0
 30 34  1  0  0  0  0
 30 35  1  0  0  0  0
 31 32  1  0  0  0  0
 31 33  1  0  0  0  0
 38 39  2  0  0  0  0
 38 44  1  0  0  0  0
 39 40  1  0  0  0  0
 39 49  1  0  0  0  0
 40 41  1  0  0  0  0
 40 42  2  0  0  0  0
 42 43  1  0  0  0  0
 42 48  1  0  0  0  0
 43 44  2  0  0  0  0
 43 47  1  0  0  0  0
 44 45  1  0  0  0  0
 45 46  2  0  0  0  0
M  END
>  <MODEL>
       1

$$$$
