tmp_first_model_6_52.pdb
 OpenBabel08272519583D

 57 60  0  0  0  0  0  0  0  0999 V2000
  -15.1370    3.5650  -21.1230 C   0  0  0  0  0  0  0  0  0  0  0  0
  -15.1300    3.1410  -22.5900 C   0  0  0  0  0  0  0  0  0  0  0  0
  -13.7080    3.1610  -23.0800 C   0  0  0  0  0  0  0  0  0  0  0  0
  -13.1810    4.2110  -23.3970 O   0  0  0  0  0  0  0  0  0  0  0  0
  -13.0490    1.9570  -23.0660 N   0  0  0  0  0  0  0  0  0  0  0  0
  -11.7520    1.7610  -23.5860 C   0  0  0  0  0  0  0  0  0  0  0  0
  -11.2530    2.6320  -24.5530 C   0  0  0  0  0  0  0  0  0  0  0  0
   -9.9910    2.4260  -25.0780 C   0  0  0  0  0  0  0  0  0  0  0  0
   -9.2060    1.3740  -24.6400 C   0  0  0  0  0  0  0  0  0  0  0  0
   -9.6840    0.5470  -23.6300 C   0  0  0  0  0  0  0  0  0  0  0  0
   -8.8180   -0.4620  -23.1210 N   0  0  0  0  0  0  0  0  0  0  0  0
   -8.4220   -1.5510  -24.0030 C   0  0  0  0  0  0  0  0  0  0  0  0
   -9.0190   -2.8700  -23.5620 C   0  0  0  0  0  0  0  0  0  0  0  0
  -10.4070   -2.9430  -23.4320 C   0  0  0  0  0  0  0  0  0  0  0  0
  -11.0210   -4.1430  -23.0930 C   0  0  0  0  0  0  0  0  0  0  0  0
  -10.2450   -5.2730  -22.8530 C   0  0  0  0  0  0  0  0  0  0  0  0
   -8.8580   -5.1880  -22.9020 C   0  0  0  0  0  0  0  0  0  0  0  0
   -8.2460   -3.9920  -23.2670 C   0  0  0  0  0  0  0  0  0  0  0  0
   -7.1570   -3.9470  -23.3260 H   0  0  0  0  0  0  0  0  0  0  0  0
   -8.2510   -6.0530  -22.6450 H   0  0  0  0  0  0  0  0  0  0  0  0
  -10.7140   -6.2270  -22.6510 H   0  0  0  0  0  0  0  0  0  0  0  0
  -12.1040   -4.2000  -23.0270 H   0  0  0  0  0  0  0  0  0  0  0  0
  -11.0120   -2.0550  -23.6250 H   0  0  0  0  0  0  0  0  0  0  0  0
   -8.8190   -1.2960  -24.9900 H   0  0  0  0  0  0  0  0  0  0  0  0
   -7.3270   -1.5990  -24.0970 H   0  0  0  0  0  0  0  0  0  0  0  0
   -8.4600   -0.3530  -21.7950 C   0  0  0  0  0  0  0  0  0  0  0  0
   -8.9210    0.5120  -21.0700 O   0  0  0  0  0  0  0  0  0  0  0  0
   -7.4450   -1.3640  -21.2760 C   0  0  0  0  0  0  0  0  0  0  0  0
   -6.5980   -0.8020  -20.1870 C   0  0  0  0  0  0  0  0  0  0  0  0
   -6.9100   -1.0590  -18.8820 C   0  0  0  0  0  0  0  0  0  0  0  0
   -6.2360   -0.5800  -17.8080 N   0  0  0  0  0  0  0  0  0  0  0  0
   -5.2070    0.1930  -18.0570 C   0  0  0  0  0  0  0  0  0  0  0  0
   -4.7730    0.5550  -19.3620 C   0  0  0  0  0  0  0  0  0  0  0  0
   -3.6450    1.3880  -19.5760 C   0  0  0  0  0  0  0  0  0  0  0  0
   -3.2690    1.7370  -20.8430 C   0  0  0  0  0  0  0  0  0  0  0  0
   -4.0120    1.2790  -21.9540 C   0  0  0  0  0  0  0  0  0  0  0  0
   -5.0980    0.4590  -21.7750 C   0  0  0  0  0  0  0  0  0  0  0  0
   -5.5020    0.0630  -20.4700 C   0  0  0  0  0  0  0  0  0  0  0  0
   -5.6350    0.0990  -22.6480 H   0  0  0  0  0  0  0  0  0  0  0  0
   -3.7010    1.5570  -22.9580 H   0  0  0  0  0  0  0  0  0  0  0  0
   -2.4010    2.3700  -21.0070 H   0  0  0  0  0  0  0  0  0  0  0  0
   -3.0920    1.7450  -18.7110 H   0  0  0  0  0  0  0  0  0  0  0  0
   -4.6620    0.5800  -17.1960 H   0  0  0  0  0  0  0  0  0  0  0  0
   -7.7640   -1.6990  -18.6530 H   0  0  0  0  0  0  0  0  0  0  0  0
   -8.0310   -2.2090  -20.8990 H   0  0  0  0  0  0  0  0  0  0  0  0
   -6.8310   -1.7360  -22.0990 H   0  0  0  0  0  0  0  0  0  0  0  0
  -10.9690    0.7010  -23.1220 C   0  0  0  0  0  0  0  0  0  0  0  0
  -11.3200    0.0400  -22.3300 H   0  0  0  0  0  0  0  0  0  0  0  0
   -8.2100    1.2090  -25.0390 H   0  0  0  0  0  0  0  0  0  0  0  0
   -9.6300    3.0950  -25.8510 H   0  0  0  0  0  0  0  0  0  0  0  0
  -11.8340    3.4960  -24.8380 H   0  0  0  0  0  0  0  0  0  0  0  0
  -13.5220    1.1560  -22.6780 H   0  0  0  0  0  0  0  0  0  0  0  0
  -15.6740    3.8720  -23.1960 H   0  0  0  0  0  0  0  0  0  0  0  0
  -15.5810    2.1580  -22.7460 H   0  0  0  0  0  0  0  0  0  0  0  0
  -14.4600    2.9490  -20.5210 H   0  0  0  0  0  0  0  0  0  0  0  0
  -14.7950    4.5990  -21.0480 H   0  0  0  0  0  0  0  0  0  0  0  0
  -16.1420    3.4940  -20.7090 H   0  0  0  0  0  0  0  0  0  0  0  0
  1  2  1  0  0  0  0
  1 55  1  0  0  0  0
  1 56  1  0  0  0  0
  1 57  1  0  0  0  0
  2  3  1  0  0  0  0
  2 53  1  0  0  0  0
  2 54  1  0  0  0  0
  3  4  2  0  0  0  0
  3  5  1  0  0  0  0
  5  6  1  0  0  0  0
  5 52  1  0  0  0  0
  6  7  2  0  0  0  0
  6 47  1  0  0  0  0
  7  8  1  0  0  0  0
  7 51  1  0  0  0  0
  8  9  2  0  0  0  0
  8 50  1  0  0  0  0
  9 10  1  0  0  0  0
  9 49  1  0  0  0  0
 10 11  1  0  0  0  0
 10 47  2  0  0  0  0
 11 12  1  0  0  0  0
 11 26  1  0  0  0  0
 12 13  1  0  0  0  0
 12 24  1  0  0  0  0
 12 25  1  0  0  0  0
 13 14  2  0  0  0  0
 13 18  1  0  0  0  0
 14 15  1  0  0  0  0
 14 23  1  0  0  0  0
 15 16  2  0  0  0  0
 15 22  1  0  0  0  0
 16 17  1  0  0  0  0
 16 21  1  0  0  0  0
 17 18  2  0  0  0  0
 17 20  1  0  0  0  0
 18 19  1  0  0  0  0
 26 27  2  0  0  0  0
 26 28  1  0  0  0  0
 28 29  1  0  0  0  0
 28 45  1  0  0  0  0
 28 46  1  0  0  0  0
 29 30  2  0  0  0  0
 29 38  1  0  0  0  0
 30 31  1  0  0  0  0
 30 44  1  0  0  0  0
 31 32  2  0  0  0  0
 32 33  1  0  0  0  0
 32 43  1  0  0  0  0
 33 34  2  0  0  0  0
 33 38  1  0  0  0  0
 34 35  1  0  0  0  0
 34 42  1  0  0  0  0
 35 36  2  0  0  0  0
 35 41  1  0  0  0  0
 36 37  1  0  0  0  0
 36 40  1  0  0  0  0
 37 38  2  0  0  0  0
 37 39  1  0  0  0  0
 47 48  1  0  0  0  0
M  END
>  <MODEL>
       1

$$$$
