tmp_first_model_15_0.pdb
 OpenBabel08282501153D

 66 71  0  0  1  0  0  0  0  0999 V2000
   -7.4240    3.3810  -21.8610 C   0  0  0  0  0  0  0  0  0  0  0  0
   -8.3480    2.9100  -22.8810 N   0  0  0  0  0  0  0  0  0  0  0  0
   -7.8030    2.1770  -23.8980 C   0  0  0  0  0  0  0  0  0  0  0  0
   -6.5980    2.0210  -24.0270 O   0  0  0  0  0  0  0  0  0  0  0  0
   -8.7890    1.5590  -24.8880 C   0  0  0  0  0  0  0  0  0  0  0  0
   -9.4530    0.4070  -24.3140 N   0  0  0  0  0  0  0  0  0  0  0  0
   -8.7010   -0.8280  -24.1620 C   0  0  0  0  0  0  0  0  0  0  0  0
   -9.0750   -1.5650  -22.8530 C   0  0  2  0  0  0  0  0  0  0  0  0
   -8.5510   -0.7710  -21.6330 C   0  0  0  0  0  0  0  0  0  0  0  0
   -9.0400    0.2190  -21.1310 O   0  0  0  0  0  0  0  0  0  0  0  0
   -7.4000   -1.3790  -21.1930 N   0  0  0  0  0  0  0  0  0  0  0  0
   -6.6080   -0.8080  -20.1720 C   0  0  0  0  0  0  0  0  0  0  0  0
   -6.9270   -1.0400  -18.8600 C   0  0  0  0  0  0  0  0  0  0  0  0
   -6.2310   -0.5510  -17.8060 N   0  0  0  0  0  0  0  0  0  0  0  0
   -5.1900    0.2020  -18.0720 C   0  0  0  0  0  0  0  0  0  0  0  0
   -4.7490    0.5250  -19.3890 C   0  0  0  0  0  0  0  0  0  0  0  0
   -3.6230    1.3560  -19.6310 C   0  0  0  0  0  0  0  0  0  0  0  0
   -3.2380    1.6530  -20.9090 C   0  0  0  0  0  0  0  0  0  0  0  0
   -3.9610    1.1430  -22.0110 C   0  0  0  0  0  0  0  0  0  0  0  0
   -5.0570    0.3400  -21.8060 C   0  0  0  0  0  0  0  0  0  0  0  0
   -5.4760    0.0040  -20.4880 C   0  0  0  0  0  0  0  0  0  0  0  0
   -5.6200   -0.0190  -22.6640 H   0  0  0  0  0  0  0  0  0  0  0  0
   -3.6590    1.3930  -23.0240 H   0  0  0  0  0  0  0  0  0  0  0  0
   -2.3780    2.2910  -21.0850 H   0  0  0  0  0  0  0  0  0  0  0  0
   -3.0910    1.7600  -18.7740 H   0  0  0  0  0  0  0  0  0  0  0  0
   -4.6270    0.5990  -17.2260 H   0  0  0  0  0  0  0  0  0  0  0  0
   -7.7920   -1.6560  -18.6270 H   0  0  0  0  0  0  0  0  0  0  0  0
   -7.0240   -2.5630  -21.9270 C   0  0  0  0  0  0  0  0  0  0  0  0
   -8.3070   -2.9150  -22.7020 C   0  0  2  0  0  0  0  0  0  0  0  0
   -8.0210   -3.7200  -23.9860 C   0  0  0  0  0  0  0  0  0  0  0  0
   -7.4960   -5.0480  -23.7510 N   0  0  0  0  0  0  0  0  0  0  0  0
   -6.1970   -5.3660  -23.5200 C   0  0  0  0  0  0  0  0  0  0  0  0
   -5.0990   -4.5920  -23.9350 C   0  0  0  0  0  0  0  0  0  0  0  0
   -3.8490   -5.0600  -23.5830 C   0  0  0  0  0  0  0  0  0  0  0  0
   -3.6410   -6.1780  -22.8770 N   0  0  0  0  0  0  0  0  0  0  0  0
   -4.7490   -6.8470  -22.5760 C   0  0  0  0  0  0  0  0  0  0  0  0
   -6.0000   -6.5270  -22.8700 N   0  0  0  0  0  0  0  0  0  0  0  0
   -4.6290   -7.7740  -22.0090 H   0  0  0  0  0  0  0  0  0  0  0  0
   -2.9500   -4.5120  -23.8670 H   0  0  0  0  0  0  0  0  0  0  0  0
   -5.2180   -3.6790  -24.5080 H   0  0  0  0  0  0  0  0  0  0  0  0
   -8.1270   -5.7730  -23.4470 H   0  0  0  0  0  0  0  0  0  0  0  0
   -7.3020   -3.1770  -24.6050 H   0  0  0  0  0  0  0  0  0  0  0  0
   -8.9320   -3.8260  -24.5870 H   0  0  0  0  0  0  0  0  0  0  0  0
   -8.9120   -3.5530  -22.0530 H   0  0  0  0  0  0  0  0  0  0  0  0
   -6.1780   -2.3630  -22.6050 H   0  0  0  0  0  0  0  0  0  0  0  0
   -6.7150   -3.3520  -21.2350 H   0  0  0  0  0  0  0  0  0  0  0  0
  -10.5860   -1.6470  -22.7840 C   0  0  0  0  0  0  0  0  0  0  0  0
  -11.2070   -2.5740  -21.9450 C   0  0  0  0  0  0  0  0  0  0  0  0
  -12.5850   -2.6050  -21.8470 C   0  0  0  0  0  0  0  0  0  0  0  0
  -13.3150   -3.7650  -20.7790 Cl  0  0  0  0  0  0  0  0  0  0  0  0
  -13.3990   -1.7270  -22.5630 C   0  0  0  0  0  0  0  0  0  0  0  0
  -12.7900   -0.7770  -23.3550 C   0  0  0  0  0  0  0  0  0  0  0  0
  -11.4020   -0.7160  -23.4410 C   0  0  0  0  0  0  0  0  0  0  0  0
  -10.8140    0.4250  -24.2030 C   0  0  0  0  0  0  0  0  0  0  0  0
  -11.5040    1.3260  -24.6640 O   0  0  0  0  0  0  0  0  0  0  0  0
  -13.3620   -0.0440  -23.9120 H   0  0  0  0  0  0  0  0  0  0  0  0
  -14.4780   -1.7810  -22.4680 H   0  0  0  0  0  0  0  0  0  0  0  0
  -10.6310   -3.2700  -21.3460 H   0  0  0  0  0  0  0  0  0  0  0  0
   -7.6310   -0.5880  -24.1850 H   0  0  0  0  0  0  0  0  0  0  0  0
   -8.9200   -1.4940  -25.0070 H   0  0  0  0  0  0  0  0  0  0  0  0
   -9.5740    2.2710  -25.1690 H   0  0  0  0  0  0  0  0  0  0  0  0
   -8.2170    1.2690  -25.7760 H   0  0  0  0  0  0  0  0  0  0  0  0
   -9.2980    2.7030  -22.5810 H   0  0  0  0  0  0  0  0  0  0  0  0
   -6.8800    2.5330  -21.4100 H   0  0  0  0  0  0  0  0  0  0  0  0
   -7.9580    3.9480  -21.0930 H   0  0  0  0  0  0  0  0  0  0  0  0
   -6.6900    4.0450  -22.3260 H   0  0  0  0  0  0  0  0  0  0  0  0
  1  2  1  0  0  0  0
  1 64  1  0  0  0  0
  1 65  1  0  0  0  0
  1 66  1  0  0  0  0
  2  3  1  0  0  0  0
  2 63  1  0  0  0  0
  3  4  2  0  0  0  0
  3  5  1  0  0  0  0
  5  6  1  0  0  0  0
  5 61  1  0  0  0  0
  5 62  1  0  0  0  0
  6  7  1  0  0  0  0
  6 54  1  0  0  0  0
  7  8  1  0  0  0  0
  7 59  1  0  0  0  0
  7 60  1  0  0  0  0
  8  9  1  1  0  0  0
  8 29  1  0  0  0  0
  8 47  1  0  0  0  0
  9 10  2  0  0  0  0
  9 11  1  0  0  0  0
 11 12  1  0  0  0  0
 11 28  1  0  0  0  0
 12 13  2  0  0  0  0
 12 21  1  0  0  0  0
 13 14  1  0  0  0  0
 13 27  1  0  0  0  0
 14 15  2  0  0  0  0
 15 16  1  0  0  0  0
 15 26  1  0  0  0  0
 16 17  2  0  0  0  0
 16 21  1  0  0  0  0
 17 18  1  0  0  0  0
 17 25  1  0  0  0  0
 18 19  2  0  0  0  0
 18 24  1  0  0  0  0
 19 20  1  0  0  0  0
 19 23  1  0  0  0  0
 20 21  2  0  0  0  0
 20 22  1  0  0  0  0
 28 29  1  0  0  0  0
 28 45  1  0  0  0  0
 28 46  1  0  0  0  0
 29 30  1  0  0  0  0
 29 44  1  1  0  0  0
 30 31  1  0  0  0  0
 30 42  1  0  0  0  0
 30 43  1  0  0  0  0
 31 32  1  0  0  0  0
 31 41  1  0  0  0  0
 32 33  2  0  0  0  0
 32 37  1  0  0  0  0
 33 34  1  0  0  0  0
 33 40  1  0  0  0  0
 34 35  2  0  0  0  0
 34 39  1  0  0  0  0
 35 36  1  0  0  0  0
 36 37  2  0  0  0  0
 36 38  1  0  0  0  0
 47 48  2  0  0  0  0
 47 53  1  0  0  0  0
 48 49  1  0  0  0  0
 48 58  1  0  0  0  0
 49 50  1  0  0  0  0
 49 51  2  0  0  0  0
 51 52  1  0  0  0  0
 51 57  1  0  0  0  0
 52 53  2  0  0  0  0
 52 56  1  0  0  0  0
 53 54  1  0  0  0  0
 54 55  2  0  0  0  0
M  END
>  <MODEL>
       1

$$$$
