tmp_first_model_7_67.pdb
 OpenBabel08272520323D

 58 63  0  0  1  0  0  0  0  0999 V2000
  -15.0590    0.1690  -22.9470 C   0  0  0  0  0  0  0  0  0  0  0  0
  -14.4530   -1.1570  -22.7850 C   0  0  0  0  0  0  0  0  0  0  0  0
  -13.7160   -1.6330  -21.6940 C   0  0  0  0  0  0  0  0  0  0  0  0
  -13.3050   -2.8550  -22.1180 C   0  0  0  0  0  0  0  0  0  0  0  0
  -12.3940   -3.8960  -21.5950 C   0  0  0  0  0  0  0  0  0  0  0  0
  -11.0560   -3.8770  -22.1660 N   0  0  0  0  0  0  0  0  0  0  0  0
   -9.9390   -3.3610  -21.4150 C   0  0  0  0  0  0  0  0  0  0  0  0
   -8.7540   -2.9300  -22.2950 C   0  0  2  0  0  0  0  0  0  0  0  0
   -7.5530   -2.7080  -21.3710 C   0  0  0  0  0  0  0  0  0  0  0  0
   -6.8650   -3.5550  -20.8350 O   0  0  0  0  0  0  0  0  0  0  0  0
   -7.3540   -1.3560  -21.2310 N   0  0  0  0  0  0  0  0  0  0  0  0
   -6.5610   -0.8500  -20.1810 C   0  0  0  0  0  0  0  0  0  0  0  0
   -6.8840   -1.0910  -18.8690 C   0  0  0  0  0  0  0  0  0  0  0  0
   -6.2080   -0.5640  -17.8200 N   0  0  0  0  0  0  0  0  0  0  0  0
   -5.1820    0.2050  -18.0850 C   0  0  0  0  0  0  0  0  0  0  0  0
   -4.7310    0.5080  -19.4010 C   0  0  0  0  0  0  0  0  0  0  0  0
   -3.6080    1.3360  -19.6410 C   0  0  0  0  0  0  0  0  0  0  0  0
   -3.2160    1.6180  -20.9200 C   0  0  0  0  0  0  0  0  0  0  0  0
   -3.9270    1.0880  -22.0210 C   0  0  0  0  0  0  0  0  0  0  0  0
   -5.0130    0.2730  -21.8170 C   0  0  0  0  0  0  0  0  0  0  0  0
   -5.4410   -0.0260  -20.4950 C   0  0  0  0  0  0  0  0  0  0  0  0
   -5.5500   -0.1490  -22.6620 H   0  0  0  0  0  0  0  0  0  0  0  0
   -3.6150    1.3350  -23.0320 H   0  0  0  0  0  0  0  0  0  0  0  0
   -2.3620    2.2640  -21.0980 H   0  0  0  0  0  0  0  0  0  0  0  0
   -3.0910    1.7550  -18.7830 H   0  0  0  0  0  0  0  0  0  0  0  0
   -4.6430    0.6360  -17.2390 H   0  0  0  0  0  0  0  0  0  0  0  0
   -7.7270   -1.7320  -18.6150 H   0  0  0  0  0  0  0  0  0  0  0  0
   -8.3550   -0.5480  -21.9030 C   0  0  0  0  0  0  0  0  0  0  0  0
   -8.9840   -1.5130  -22.9180 C   0  0  2  0  0  0  0  0  0  0  0  0
  -10.4370   -1.1790  -23.2380 C   0  0  0  0  0  0  0  0  0  0  0  0
  -10.5270   -0.2090  -23.7320 H   0  0  0  0  0  0  0  0  0  0  0  0
  -11.0310   -1.1370  -22.3200 H   0  0  0  0  0  0  0  0  0  0  0  0
  -10.8810   -1.9480  -23.8770 H   0  0  0  0  0  0  0  0  0  0  0  0
   -8.3960   -1.4810  -23.8450 H   0  0  0  0  0  0  0  0  0  0  0  0
   -7.9010    0.3250  -22.3810 H   0  0  0  0  0  0  0  0  0  0  0  0
   -9.1060   -0.1860  -21.1850 H   0  0  0  0  0  0  0  0  0  0  0  0
   -8.4700   -3.9900  -23.3230 C   0  0  0  0  0  0  0  0  0  0  0  0
   -7.2100   -4.0870  -23.9170 C   0  0  0  0  0  0  0  0  0  0  0  0
   -7.0120   -5.0150  -24.9170 C   0  0  0  0  0  0  0  0  0  0  0  0
   -5.8130   -5.0760  -25.5140 F   0  0  0  0  0  0  0  0  0  0  0  0
   -8.0080   -5.8800  -25.3540 C   0  0  0  0  0  0  0  0  0  0  0  0
   -9.2520   -5.7790  -24.7650 C   0  0  0  0  0  0  0  0  0  0  0  0
   -9.4800   -4.8380  -23.7630 C   0  0  0  0  0  0  0  0  0  0  0  0
  -10.8510   -4.7280  -23.2100 C   0  0  0  0  0  0  0  0  0  0  0  0
  -11.7730   -5.3650  -23.6830 O   0  0  0  0  0  0  0  0  0  0  0  0
  -10.0750   -6.4190  -25.0590 H   0  0  0  0  0  0  0  0  0  0  0  0
   -7.7900   -6.5870  -26.1460 H   0  0  0  0  0  0  0  0  0  0  0  0
   -6.3970   -3.4430  -23.6030 H   0  0  0  0  0  0  0  0  0  0  0  0
   -9.5920   -4.1200  -20.7260 H   0  0  0  0  0  0  0  0  0  0  0  0
  -10.2650   -2.5000  -20.8320 H   0  0  0  0  0  0  0  0  0  0  0  0
  -12.8290   -4.8100  -21.9670 H   0  0  0  0  0  0  0  0  0  0  0  0
  -12.3800   -3.8750  -20.5090 H   0  0  0  0  0  0  0  0  0  0  0  0
  -13.8950   -3.1490  -23.2860 O   0  0  0  0  0  0  0  0  0  0  0  0
  -14.6100   -2.0600  -23.7230 N   0  0  0  0  0  0  0  0  0  0  0  0
  -13.6970   -1.1210  -20.7570 H   0  0  0  0  0  0  0  0  0  0  0  0
  -15.6980   -0.0910  -23.7590 H   0  0  0  0  0  0  0  0  0  0  0  0
  -14.3240    0.9310  -23.2310 H   0  0  0  0  0  0  0  0  0  0  0  0
  -15.6350    0.4920  -22.0780 H   0  0  0  0  0  0  0  0  0  0  0  0
  1  2  1  0  0  0  0
  1 56  1  0  0  0  0
  1 57  1  0  0  0  0
  1 58  1  0  0  0  0
  2  3  1  0  0  0  0
  2 54  2  0  0  0  0
  3  4  2  0  0  0  0
  3 55  1  0  0  0  0
  4  5  1  0  0  0  0
  4 53  1  0  0  0  0
  5  6  1  0  0  0  0
  5 51  1  0  0  0  0
  5 52  1  0  0  0  0
  6  7  1  0  0  0  0
  6 44  1  0  0  0  0
  7  8  1  0  0  0  0
  7 49  1  0  0  0  0
  7 50  1  0  0  0  0
  8  9  1  1  0  0  0
  8 29  1  0  0  0  0
  8 37  1  0  0  0  0
  9 10  2  0  0  0  0
  9 11  1  0  0  0  0
 11 12  1  0  0  0  0
 11 28  1  0  0  0  0
 12 13  2  0  0  0  0
 12 21  1  0  0  0  0
 13 14  1  0  0  0  0
 13 27  1  0  0  0  0
 14 15  2  0  0  0  0
 15 16  1  0  0  0  0
 15 26  1  0  0  0  0
 16 17  2  0  0  0  0
 16 21  1  0  0  0  0
 17 18  1  0  0  0  0
 17 25  1  0  0  0  0
 18 19  2  0  0  0  0
 18 24  1  0  0  0  0
 19 20  1  0  0  0  0
 19 23  1  0  0  0  0
 20 21  2  0  0  0  0
 20 22  1  0  0  0  0
 28 29  1  0  0  0  0
 28 35  1  0  0  0  0
 28 36  1  0  0  0  0
 29 30  1  0  0  0  0
 29 34  1  6  0  0  0
 30 31  1  0  0  0  0
 30 32  1  0  0  0  0
 30 33  1  0  0  0  0
 37 38  2  0  0  0  0
 37 43  1  0  0  0  0
 38 39  1  0  0  0  0
 38 48  1  0  0  0  0
 39 40  1  0  0  0  0
 39 41  2  0  0  0  0
 41 42  1  0  0  0  0
 41 47  1  0  0  0  0
 42 43  2  0  0  0  0
 42 46  1  0  0  0  0
 43 44  1  0  0  0  0
 44 45  2  0  0  0  0
 53 54  1  0  0  0  0
M  END
>  <MODEL>
       1

$$$$
