tmp_first_model_9_7.pdb
 OpenBabel08272521403D

 44 47  0  0  0  0  0  0  0  0999 V2000
   -9.5410   -6.2970  -25.7900 C   0  0  0  0  0  0  0  0  0  0  0  0
  -10.9150   -6.1550  -25.1620 C   0  0  0  0  0  0  0  0  0  0  0  0
  -11.1550   -4.6150  -24.2610 S   0  0  0  0  0  0  0  0  0  0  0  0
  -12.4120   -4.6830  -23.5300 O   0  0  0  0  0  0  0  0  0  0  0  0
  -10.9290   -3.5310  -25.2080 O   0  0  0  0  0  0  0  0  0  0  0  0
   -9.8830   -4.5860  -23.1340 N   0  0  0  0  0  0  0  0  0  0  0  0
  -10.0240   -3.7100  -21.9190 C   0  0  0  0  0  0  0  0  0  0  0  0
   -8.8420   -2.8260  -22.4050 C   0  0  0  0  0  0  0  0  0  0  0  0
   -8.6640   -3.8440  -23.5490 C   0  0  0  0  0  0  0  0  0  0  0  0
   -8.6700   -3.4360  -24.5600 H   0  0  0  0  0  0  0  0  0  0  0  0
   -7.7870   -4.4640  -23.3610 H   0  0  0  0  0  0  0  0  0  0  0  0
   -7.6260   -2.7110  -21.4900 C   0  0  0  0  0  0  0  0  0  0  0  0
   -6.9020   -3.5920  -21.0940 O   0  0  0  0  0  0  0  0  0  0  0  0
   -7.4390   -1.3490  -21.2660 N   0  0  0  0  0  0  0  0  0  0  0  0
   -6.6290   -0.8090  -20.2340 C   0  0  0  0  0  0  0  0  0  0  0  0
   -6.9550   -1.0650  -18.9310 C   0  0  0  0  0  0  0  0  0  0  0  0
   -6.2690   -0.5700  -17.8760 N   0  0  0  0  0  0  0  0  0  0  0  0
   -5.2390    0.2020  -18.1210 C   0  0  0  0  0  0  0  0  0  0  0  0
   -4.7840    0.5260  -19.4310 C   0  0  0  0  0  0  0  0  0  0  0  0
   -3.6520    1.3550  -19.6490 C   0  0  0  0  0  0  0  0  0  0  0  0
   -3.2240    1.6170  -20.9220 C   0  0  0  0  0  0  0  0  0  0  0  0
   -3.9240    1.0850  -22.0300 C   0  0  0  0  0  0  0  0  0  0  0  0
   -5.0360    0.3010  -21.8470 C   0  0  0  0  0  0  0  0  0  0  0  0
   -5.4960    0.0060  -20.5340 C   0  0  0  0  0  0  0  0  0  0  0  0
   -5.5710   -0.1000  -22.7030 H   0  0  0  0  0  0  0  0  0  0  0  0
   -3.5700    1.2900  -23.0380 H   0  0  0  0  0  0  0  0  0  0  0  0
   -2.3440    2.2350  -21.0900 H   0  0  0  0  0  0  0  0  0  0  0  0
   -3.1470    1.7690  -18.7790 H   0  0  0  0  0  0  0  0  0  0  0  0
   -4.6960    0.6060  -17.2620 H   0  0  0  0  0  0  0  0  0  0  0  0
   -7.8120   -1.6940  -18.6930 H   0  0  0  0  0  0  0  0  0  0  0  0
   -8.3850   -0.5750  -21.9530 C   0  0  0  0  0  0  0  0  0  0  0  0
   -8.5050    0.6280  -21.8920 O   0  0  0  0  0  0  0  0  0  0  0  0
   -9.1370   -1.4400  -22.6980 N   0  0  0  0  0  0  0  0  0  0  0  0
  -10.1730   -0.9540  -23.6030 C   0  0  0  0  0  0  0  0  0  0  0  0
  -10.7290   -0.1480  -23.1150 H   0  0  0  0  0  0  0  0  0  0  0  0
   -9.7280   -0.5560  -24.5240 H   0  0  0  0  0  0  0  0  0  0  0  0
  -10.8580   -1.7630  -23.8670 H   0  0  0  0  0  0  0  0  0  0  0  0
  -10.9900   -3.2090  -21.8260 H   0  0  0  0  0  0  0  0  0  0  0  0
   -9.7970   -4.2750  -21.0150 H   0  0  0  0  0  0  0  0  0  0  0  0
  -11.6920   -6.1370  -25.9300 H   0  0  0  0  0  0  0  0  0  0  0  0
  -11.1550   -6.9700  -24.4770 H   0  0  0  0  0  0  0  0  0  0  0  0
   -8.7450   -6.2870  -25.0390 H   0  0  0  0  0  0  0  0  0  0  0  0
   -9.3600   -5.5010  -26.5170 H   0  0  0  0  0  0  0  0  0  0  0  0
   -9.5140   -7.2510  -26.3220 H   0  0  0  0  0  0  0  0  0  0  0  0
  1  2  1  0  0  0  0
  1 42  1  0  0  0  0
  1 43  1  0  0  0  0
  1 44  1  0  0  0  0
  2  3  1  0  0  0  0
  2 40  1  0  0  0  0
  2 41  1  0  0  0  0
  3  4  2  0  0  0  0
  3  5  2  0  0  0  0
  3  6  1  0  0  0  0
  6  7  1  0  0  0  0
  6  9  1  0  0  0  0
  7  8  1  0  0  0  0
  7 38  1  0  0  0  0
  7 39  1  0  0  0  0
  8  9  1  0  0  0  0
  8 12  1  0  0  0  0
  8 33  1  0  0  0  0
  9 10  1  0  0  0  0
  9 11  1  0  0  0  0
 12 13  2  0  0  0  0
 12 14  1  0  0  0  0
 14 15  1  0  0  0  0
 14 31  1  0  0  0  0
 15 16  2  0  0  0  0
 15 24  1  0  0  0  0
 16 17  1  0  0  0  0
 16 30  1  0  0  0  0
 17 18  2  0  0  0  0
 18 19  1  0  0  0  0
 18 29  1  0  0  0  0
 19 20  2  0  0  0  0
 19 24  1  0  0  0  0
 20 21  1  0  0  0  0
 20 28  1  0  0  0  0
 21 22  2  0  0  0  0
 21 27  1  0  0  0  0
 22 23  1  0  0  0  0
 22 26  1  0  0  0  0
 23 24  2  0  0  0  0
 23 25  1  0  0  0  0
 31 32  2  0  0  0  0
 31 33  1  0  0  0  0
 33 34  1  0  0  0  0
 34 35  1  0  0  0  0
 34 36  1  0  0  0  0
 34 37  1  0  0  0  0
M  END
>  <MODEL>
       1

$$$$
