tmp_first_model_12_39.pdb
 OpenBabel08272523333D

 40 44  0  0  1  0  0  0  0  0999 V2000
   -7.2380    0.9070  -25.5940 C   0  0  0  0  0  0  0  0  0  0  0  0
   -6.5080   -0.3980  -25.3920 C   0  0  0  0  0  0  0  0  0  0  0  0
   -5.2910   -0.4840  -25.4500 O   0  0  0  0  0  0  0  0  0  0  0  0
   -7.2840   -1.4920  -25.1490 N   0  0  0  0  0  0  0  0  0  0  0  0
   -6.6430   -2.7680  -24.7690 C   0  0  0  0  0  0  0  0  0  0  0  0
   -7.8050   -3.4820  -24.0380 C   0  0  2  0  0  0  0  0  0  0  0  0
   -9.0140   -2.9650  -24.8410 C   0  0  0  0  0  0  0  0  0  0  0  0
   -8.6560   -1.4880  -24.5710 C   0  0  1  0  0  0  0  0  0  0  0  0
   -8.5330   -1.5110  -23.1020 C   0  0  0  0  0  0  0  0  0  0  0  0
   -8.1980   -0.5740  -22.0610 C   0  0  0  0  0  0  0  0  0  0  0  0
   -8.4480    0.5990  -21.8740 O   0  5  0  0  0  0  0  0  0  0  0  0
   -7.4010   -1.3610  -21.1820 N   0  0  0  0  0  0  0  0  0  0  0  0
   -6.6090   -0.7810  -20.1630 C   0  0  0  0  0  0  0  0  0  0  0  0
   -6.8930   -1.0670  -18.8520 C   0  0  0  0  0  0  0  0  0  0  0  0
   -6.1970   -0.5780  -17.7940 N   0  0  0  0  0  0  0  0  0  0  0  0
   -5.1930    0.2210  -18.0600 C   0  0  0  0  0  0  0  0  0  0  0  0
   -4.7920    0.5950  -19.3770 C   0  0  0  0  0  0  0  0  0  0  0  0
   -3.6460    1.4070  -19.5960 C   0  0  0  0  0  0  0  0  0  0  0  0
   -3.2630    1.7400  -20.8650 C   0  0  0  0  0  0  0  0  0  0  0  0
   -4.0270    1.3090  -21.9750 C   0  0  0  0  0  0  0  0  0  0  0  0
   -5.1050    0.4750  -21.7940 C   0  0  0  0  0  0  0  0  0  0  0  0
   -5.5160    0.0920  -20.4800 C   0  0  0  0  0  0  0  0  0  0  0  0
   -5.6140    0.0850  -22.6760 H   0  0  0  0  0  0  0  0  0  0  0  0
   -3.7270    1.5920  -22.9830 H   0  0  0  0  0  0  0  0  0  0  0  0
   -2.3750    2.3450  -21.0340 H   0  0  0  0  0  0  0  0  0  0  0  0
   -3.0680    1.7190  -18.7290 H   0  0  0  0  0  0  0  0  0  0  0  0
   -4.6210    0.6040  -17.2150 H   0  0  0  0  0  0  0  0  0  0  0  0
   -7.7350   -1.7140  -18.6200 H   0  0  0  0  0  0  0  0  0  0  0  0
   -7.1860   -2.6680  -21.6680 C   0  0  0  0  0  0  0  0  0  0  0  0
   -6.4120   -3.4880  -21.2440 O   0  0  0  0  0  0  0  0  0  0  0  0
   -8.0310   -2.7500  -22.7680 N   0  0  0  0  0  0  0  0  0  0  0  0
   -9.2800   -0.6960  -24.9830 H   0  0  0  0  0  0  0  0  0  0  0  0
   -9.9770   -3.2690  -24.4330 H   0  0  0  0  0  0  0  0  0  0  0  0
   -8.9580   -3.1830  -25.9090 H   0  0  0  0  0  0  0  0  0  0  0  0
   -7.6870   -4.5510  -23.8860 H   0  0  0  0  0  0  0  0  0  0  0  0
   -5.8150   -2.5660  -24.0860 H   0  0  0  0  0  0  0  0  0  0  0  0
   -6.2650   -3.2890  -25.6550 H   0  0  0  0  0  0  0  0  0  0  0  0
   -6.5000    1.6490  -25.8940 H   0  0  0  0  0  0  0  0  0  0  0  0
   -7.7110    1.2110  -24.6580 H   0  0  0  0  0  0  0  0  0  0  0  0
   -8.0200    0.8110  -26.3540 H   0  0  0  0  0  0  0  0  0  0  0  0
  1  2  1  0  0  0  0
  1 38  1  0  0  0  0
  1 39  1  0  0  0  0
  1 40  1  0  0  0  0
  2  3  2  0  0  0  0
  2  4  1  0  0  0  0
  4  5  1  0  0  0  0
  4  8  1  0  0  0  0
  5  6  1  0  0  0  0
  5 36  1  0  0  0  0
  5 37  1  0  0  0  0
  6  7  1  0  0  0  0
  6 31  1  0  0  0  0
  6 35  1  1  0  0  0
  7  8  1  0  0  0  0
  7 33  1  0  0  0  0
  7 34  1  0  0  0  0
  8  9  1  0  0  0  0
  8 32  1  6  0  0  0
  9 10  2  0  0  0  0
  9 31  1  0  0  0  0
 10 11  1  0  0  0  0
 10 12  1  0  0  0  0
 12 13  1  0  0  0  0
 12 29  1  0  0  0  0
 13 14  2  0  0  0  0
 13 22  1  0  0  0  0
 14 15  1  0  0  0  0
 14 28  1  0  0  0  0
 15 16  2  0  0  0  0
 16 17  1  0  0  0  0
 16 27  1  0  0  0  0
 17 18  2  0  0  0  0
 17 22  1  0  0  0  0
 18 19  1  0  0  0  0
 18 26  1  0  0  0  0
 19 20  2  0  0  0  0
 19 25  1  0  0  0  0
 20 21  1  0  0  0  0
 20 24  1  0  0  0  0
 21 22  2  0  0  0  0
 21 23  1  0  0  0  0
 29 30  2  0  0  0  0
 29 31  1  0  0  0  0
M  CHG  1  11  -1
M  END
>  <MODEL>
       1

$$$$
