tmp_first_model_1_59.pdb
 OpenBabel08272517043D

 60 65  0  0  1  0  0  0  0  0999 V2000
   -6.7830    2.2380  -22.0150 C   0  0  0  0  0  0  0  0  0  0  0  0
   -7.2690    1.3230  -23.0330 N   0  0  0  0  0  0  0  0  0  0  0  0
   -6.5740    1.0880  -24.1690 C   0  0  0  0  0  0  0  0  0  0  0  0
   -5.5140    1.6420  -24.4520 O   0  0  0  0  0  0  0  0  0  0  0  0
   -7.1910    0.0780  -25.1520 C   0  0  0  0  0  0  0  0  0  0  0  0
   -8.0030   -0.9420  -24.5080 N   0  0  0  0  0  0  0  0  0  0  0  0
   -7.3810   -2.0600  -23.8160 C   0  0  0  0  0  0  0  0  0  0  0  0
   -8.1210   -2.4870  -22.5140 C   0  0  2  0  0  0  0  0  0  0  0  0
   -7.6410   -1.5530  -21.3670 C   0  0  0  0  0  0  0  0  0  0  0  0
   -8.0910   -0.4650  -21.0510 O   0  0  0  0  0  0  0  0  0  0  0  0
   -6.5430   -2.1220  -20.7780 N   0  0  0  0  0  0  0  0  0  0  0  0
   -5.8370   -1.4870  -19.7250 C   0  0  0  0  0  0  0  0  0  0  0  0
   -6.0710   -1.8340  -18.4220 C   0  0  0  0  0  0  0  0  0  0  0  0
   -5.5420   -1.1880  -17.3580 N   0  0  0  0  0  0  0  0  0  0  0  0
   -4.7290   -0.1840  -17.5960 C   0  0  0  0  0  0  0  0  0  0  0  0
   -4.3530    0.2410  -18.9010 C   0  0  0  0  0  0  0  0  0  0  0  0
   -3.4660    1.3300  -19.1280 C   0  0  0  0  0  0  0  0  0  0  0  0
   -3.1610    1.7210  -20.4030 C   0  0  0  0  0  0  0  0  0  0  0  0
   -3.6960    1.0300  -21.5130 C   0  0  0  0  0  0  0  0  0  0  0  0
   -4.5300   -0.0450  -21.3160 C   0  0  0  0  0  0  0  0  0  0  0  0
   -4.9030   -0.4460  -20.0060 C   0  0  0  0  0  0  0  0  0  0  0  0
   -4.9320   -0.5900  -22.1630 H   0  0  0  0  0  0  0  0  0  0  0  0
   -3.4980    1.3690  -22.5240 H   0  0  0  0  0  0  0  0  0  0  0  0
   -2.5020    2.5690  -20.5710 H   0  0  0  0  0  0  0  0  0  0  0  0
   -3.0570    1.8530  -18.2680 H   0  0  0  0  0  0  0  0  0  0  0  0
   -4.3280    0.3540  -16.7380 H   0  0  0  0  0  0  0  0  0  0  0  0
   -6.7590   -2.6500  -18.1910 H   0  0  0  0  0  0  0  0  0  0  0  0
   -6.2890   -3.4740  -21.2000 C   0  0  0  0  0  0  0  0  0  0  0  0
   -7.5670   -3.8470  -21.9770 C   0  0  2  0  0  0  0  0  0  0  0  0
   -7.3460   -5.0340  -22.9370 C   0  0  0  0  0  0  0  0  0  0  0  0
   -6.4550   -6.0410  -22.2500 C   0  0  0  0  0  0  0  0  0  0  0  0
   -6.8350   -6.8150  -21.2410 N   0  0  0  0  0  0  0  0  0  0  0  0
   -5.7140   -7.4050  -20.8210 N   0  0  0  0  0  0  0  0  0  0  0  0
   -4.7120   -7.0040  -21.5540 N   0  5  0  0  0  0  0  0  0  0  0  0
   -5.1510   -6.1430  -22.4740 N   0  0  0  0  0  0  0  0  0  0  0  0
   -6.8450   -4.7350  -23.8590 H   0  0  0  0  0  0  0  0  0  0  0  0
   -8.2970   -5.5040  -23.2060 H   0  0  0  0  0  0  0  0  0  0  0  0
   -8.2880   -4.2090  -21.2490 H   0  0  0  0  0  0  0  0  0  0  0  0
   -5.4090   -3.5440  -21.8570 H   0  0  0  0  0  0  0  0  0  0  0  0
   -6.1010   -4.1070  -20.3250 H   0  0  0  0  0  0  0  0  0  0  0  0
   -9.6200   -2.4130  -22.7110 C   0  0  0  0  0  0  0  0  0  0  0  0
  -10.5080   -2.9630  -21.7720 C   0  0  0  0  0  0  0  0  0  0  0  0
  -11.8750   -2.7610  -21.8970 C   0  0  0  0  0  0  0  0  0  0  0  0
  -13.0200   -3.2720  -20.6860 Cl  0  0  0  0  0  0  0  0  0  0  0  0
  -12.4060   -2.0660  -22.9750 C   0  0  0  0  0  0  0  0  0  0  0  0
  -11.5420   -1.5190  -23.8920 C   0  0  0  0  0  0  0  0  0  0  0  0
  -10.1730   -1.6650  -23.7540 C   0  0  0  0  0  0  0  0  0  0  0  0
   -9.3490   -0.9240  -24.7490 C   0  0  0  0  0  0  0  0  0  0  0  0
   -9.8510   -0.2830  -25.6600 O   0  0  0  0  0  0  0  0  0  0  0  0
  -11.8630   -0.8950  -24.7180 H   0  0  0  0  0  0  0  0  0  0  0  0
  -13.4760   -1.9150  -23.0420 H   0  0  0  0  0  0  0  0  0  0  0  0
  -10.1330   -3.5360  -20.9360 H   0  0  0  0  0  0  0  0  0  0  0  0
   -7.3120   -2.9160  -24.4980 H   0  0  0  0  0  0  0  0  0  0  0  0
   -6.3640   -1.7630  -23.5490 H   0  0  0  0  0  0  0  0  0  0  0  0
   -6.3820   -0.3420  -25.7630 H   0  0  0  0  0  0  0  0  0  0  0  0
   -7.8720    0.6030  -25.8360 H   0  0  0  0  0  0  0  0  0  0  0  0
   -7.9620    0.6540  -22.7150 H   0  0  0  0  0  0  0  0  0  0  0  0
   -7.4750    3.0740  -21.8560 H   0  0  0  0  0  0  0  0  0  0  0  0
   -5.8150    2.6320  -22.3410 H   0  0  0  0  0  0  0  0  0  0  0  0
   -6.6490    1.7020  -21.0660 H   0  0  0  0  0  0  0  0  0  0  0  0
  1  2  1  0  0  0  0
  1 58  1  0  0  0  0
  1 59  1  0  0  0  0
  1 60  1  0  0  0  0
  2  3  1  0  0  0  0
  2 57  1  0  0  0  0
  3  4  2  0  0  0  0
  3  5  1  0  0  0  0
  5  6  1  0  0  0  0
  5 55  1  0  0  0  0
  5 56  1  0  0  0  0
  6  7  1  0  0  0  0
  6 48  1  0  0  0  0
  7  8  1  0  0  0  0
  7 53  1  0  0  0  0
  7 54  1  0  0  0  0
  8  9  1  1  0  0  0
  8 29  1  0  0  0  0
  8 41  1  0  0  0  0
  9 10  2  0  0  0  0
  9 11  1  0  0  0  0
 11 12  1  0  0  0  0
 11 28  1  0  0  0  0
 12 13  2  0  0  0  0
 12 21  1  0  0  0  0
 13 14  1  0  0  0  0
 13 27  1  0  0  0  0
 14 15  2  0  0  0  0
 15 16  1  0  0  0  0
 15 26  1  0  0  0  0
 16 17  2  0  0  0  0
 16 21  1  0  0  0  0
 17 18  1  0  0  0  0
 17 25  1  0  0  0  0
 18 19  2  0  0  0  0
 18 24  1  0  0  0  0
 19 20  1  0  0  0  0
 19 23  1  0  0  0  0
 20 21  2  0  0  0  0
 20 22  1  0  0  0  0
 28 29  1  0  0  0  0
 28 39  1  0  0  0  0
 28 40  1  0  0  0  0
 29 30  1  0  0  0  0
 29 38  1  1  0  0  0
 30 31  1  0  0  0  0
 30 36  1  0  0  0  0
 30 37  1  0  0  0  0
 31 32  1  0  0  0  0
 31 35  2  0  0  0  0
 32 33  2  0  0  0  0
 33 34  1  0  0  0  0
 34 35  1  0  0  0  0
 41 42  2  0  0  0  0
 41 47  1  0  0  0  0
 42 43  1  0  0  0  0
 42 52  1  0  0  0  0
 43 44  1  0  0  0  0
 43 45  2  0  0  0  0
 45 46  1  0  0  0  0
 45 51  1  0  0  0  0
 46 47  2  0  0  0  0
 46 50  1  0  0  0  0
 47 48  1  0  0  0  0
 48 49  2  0  0  0  0
M  CHG  1  34  -1
M  END
>  <MODEL>
       1

$$$$
