tmp_first_model_10_38.pdb
 OpenBabel08272522163D

 46 48  0  0  1  0  0  0  0  0999 V2000
   -8.1360   -4.6670  -26.5130 C   0  0  0  0  0  0  0  0  0  0  0  0
   -8.6360   -4.9380  -25.0910 C   0  0  1  0  0  0  0  0  0  0  0  0
   -7.5620   -5.5030  -24.1560 C   0  0  0  0  0  0  0  0  0  0  0  0
   -6.5930   -4.4900  -23.5440 C   0  0  1  0  0  0  0  0  0  0  0  0
   -5.4160   -4.1160  -24.4450 C   0  0  0  0  0  0  0  0  0  0  0  0
   -4.6200   -3.6670  -23.8470 H   0  0  0  0  0  0  0  0  0  0  0  0
   -5.6870   -3.3990  -25.2230 H   0  0  0  0  0  0  0  0  0  0  0  0
   -5.0320   -5.0260  -24.9200 H   0  0  0  0  0  0  0  0  0  0  0  0
   -7.2990   -3.3200  -22.9990 N   0  0  0  0  0  0  0  0  0  0  0  0
   -6.6890   -2.7190  -21.9150 C   0  0  0  0  0  0  0  0  0  0  0  0
   -5.6510   -3.1480  -21.4380 O   0  0  0  0  0  0  0  0  0  0  0  0
   -7.3930   -1.5080  -21.2820 C   0  0  0  0  0  0  0  0  0  0  0  0
   -6.6070   -0.8450  -20.1870 C   0  0  0  0  0  0  0  0  0  0  0  0
   -6.8950   -1.0970  -18.8700 C   0  0  0  0  0  0  0  0  0  0  0  0
   -6.2100   -0.6110  -17.8000 N   0  0  0  0  0  0  0  0  0  0  0  0
   -5.2060    0.1930  -18.0580 C   0  0  0  0  0  0  0  0  0  0  0  0
   -4.7980    0.5590  -19.3730 C   0  0  0  0  0  0  0  0  0  0  0  0
   -3.6810    1.4040  -19.6080 C   0  0  0  0  0  0  0  0  0  0  0  0
   -3.3950    1.8490  -20.8700 C   0  0  0  0  0  0  0  0  0  0  0  0
   -4.1880    1.4210  -21.9620 C   0  0  0  0  0  0  0  0  0  0  0  0
   -5.1820    0.4880  -21.7770 C   0  0  0  0  0  0  0  0  0  0  0  0
   -5.5310    0.0490  -20.4710 C   0  0  0  0  0  0  0  0  0  0  0  0
   -5.7110    0.0830  -22.6360 H   0  0  0  0  0  0  0  0  0  0  0  0
   -4.0220    1.8570  -22.9470 H   0  0  0  0  0  0  0  0  0  0  0  0
   -2.5600    2.5250  -21.0470 H   0  0  0  0  0  0  0  0  0  0  0  0
   -3.0810    1.7150  -18.7540 H   0  0  0  0  0  0  0  0  0  0  0  0
   -4.6450    0.5820  -17.2050 H   0  0  0  0  0  0  0  0  0  0  0  0
   -7.7430   -1.7330  -18.6180 H   0  0  0  0  0  0  0  0  0  0  0  0
   -7.6270   -0.7900  -22.0740 H   0  0  0  0  0  0  0  0  0  0  0  0
   -8.3530   -1.8660  -20.8820 H   0  0  0  0  0  0  0  0  0  0  0  0
   -8.3980   -2.7010  -23.7640 C   0  0  1  0  0  0  0  0  0  0  0  0
   -7.9320   -1.6660  -24.7920 C   0  0  0  0  0  0  0  0  0  0  0  0
   -7.4470   -2.1290  -25.6530 H   0  0  0  0  0  0  0  0  0  0  0  0
   -8.8030   -1.1130  -25.1650 H   0  0  0  0  0  0  0  0  0  0  0  0
   -7.2240   -0.9510  -24.3620 H   0  0  0  0  0  0  0  0  0  0  0  0
   -9.3240   -3.7570  -24.3930 C   0  0  0  0  0  0  0  0  0  0  0  0
   -9.9600   -4.1580  -23.5970 H   0  0  0  0  0  0  0  0  0  0  0  0
  -10.0060   -3.2480  -25.0910 H   0  0  0  0  0  0  0  0  0  0  0  0
   -9.0180   -2.1680  -23.0340 H   0  0  0  0  0  0  0  0  0  0  0  0
   -6.1580   -4.9800  -22.6700 H   0  0  0  0  0  0  0  0  0  0  0  0
   -8.0440   -6.0130  -23.3170 H   0  0  0  0  0  0  0  0  0  0  0  0
   -6.9690   -6.2700  -24.6740 H   0  0  0  0  0  0  0  0  0  0  0  0
   -9.4050   -5.7150  -25.2010 H   0  0  0  0  0  0  0  0  0  0  0  0
   -7.8970   -5.6120  -27.0150 H   0  0  0  0  0  0  0  0  0  0  0  0
   -8.9070   -4.1680  -27.1110 H   0  0  0  0  0  0  0  0  0  0  0  0
   -7.2320   -4.0550  -26.5530 H   0  0  0  0  0  0  0  0  0  0  0  0
  1  2  1  0  0  0  0
  1 44  1  0  0  0  0
  1 45  1  0  0  0  0
  1 46  1  0  0  0  0
  2  3  1  0  0  0  0
  2 36  1  0  0  0  0
  2 43  1  6  0  0  0
  3  4  1  0  0  0  0
  3 41  1  0  0  0  0
  3 42  1  0  0  0  0
  4  5  1  0  0  0  0
  4  9  1  0  0  0  0
  4 40  1  1  0  0  0
  5  6  1  0  0  0  0
  5  7  1  0  0  0  0
  5  8  1  0  0  0  0
  9 10  1  0  0  0  0
  9 31  1  0  0  0  0
 10 11  2  0  0  0  0
 10 12  1  0  0  0  0
 12 13  1  0  0  0  0
 12 29  1  0  0  0  0
 12 30  1  0  0  0  0
 13 14  2  0  0  0  0
 13 22  1  0  0  0  0
 14 15  1  0  0  0  0
 14 28  1  0  0  0  0
 15 16  2  0  0  0  0
 16 17  1  0  0  0  0
 16 27  1  0  0  0  0
 17 18  2  0  0  0  0
 17 22  1  0  0  0  0
 18 19  1  0  0  0  0
 18 26  1  0  0  0  0
 19 20  2  0  0  0  0
 19 25  1  0  0  0  0
 20 21  1  0  0  0  0
 20 24  1  0  0  0  0
 21 22  2  0  0  0  0
 21 23  1  0  0  0  0
 31 32  1  0  0  0  0
 31 36  1  0  0  0  0
 31 39  1  1  0  0  0
 32 33  1  0  0  0  0
 32 34  1  0  0  0  0
 32 35  1  0  0  0  0
 36 37  1  0  0  0  0
 36 38  1  0  0  0  0
M  END
>  <MODEL>
       1

$$$$
