tmp_first_model_12_52.pdb
 OpenBabel08272523333D

 57 60  0  0  0  0  0  0  0  0999 V2000
   -2.7950   -4.2780  -29.8020 C   0  0  0  0  0  0  0  0  0  0  0  0
   -2.7750   -3.3250  -28.6050 C   0  0  0  0  0  0  0  0  0  0  0  0
   -3.9060   -3.5630  -27.6320 C   0  0  0  0  0  0  0  0  0  0  0  0
   -4.9680   -2.9740  -27.7260 O   0  0  0  0  0  0  0  0  0  0  0  0
   -3.6500   -4.4770  -26.6430 N   0  0  0  0  0  0  0  0  0  0  0  0
   -4.5120   -4.7320  -25.5550 C   0  0  0  0  0  0  0  0  0  0  0  0
   -4.5960   -6.0300  -25.0500 C   0  0  0  0  0  0  0  0  0  0  0  0
   -5.4490   -6.3010  -23.9890 C   0  0  0  0  0  0  0  0  0  0  0  0
   -6.1820   -5.2790  -23.3950 C   0  0  0  0  0  0  0  0  0  0  0  0
   -6.0620   -3.9770  -23.8800 C   0  0  0  0  0  0  0  0  0  0  0  0
   -6.8100   -2.9100  -23.2800 N   0  0  0  0  0  0  0  0  0  0  0  0
   -7.8090   -2.2370  -24.1140 C   0  0  0  0  0  0  0  0  0  0  0  0
   -9.2520   -2.4980  -23.7090 C   0  0  0  0  0  0  0  0  0  0  0  0
  -10.1260   -1.4560  -23.3830 C   0  0  0  0  0  0  0  0  0  0  0  0
  -11.4370   -1.7150  -22.9850 C   0  0  0  0  0  0  0  0  0  0  0  0
  -11.8970   -3.0270  -22.9210 C   0  0  0  0  0  0  0  0  0  0  0  0
  -11.0390   -4.0700  -23.2600 C   0  0  0  0  0  0  0  0  0  0  0  0
   -9.7270   -3.8080  -23.6470 C   0  0  0  0  0  0  0  0  0  0  0  0
   -9.0620   -4.6280  -23.9170 H   0  0  0  0  0  0  0  0  0  0  0  0
  -11.4020   -5.0940  -23.2270 H   0  0  0  0  0  0  0  0  0  0  0  0
  -12.9190   -3.2370  -22.6100 H   0  0  0  0  0  0  0  0  0  0  0  0
  -12.0970   -0.8900  -22.7230 H   0  0  0  0  0  0  0  0  0  0  0  0
   -9.7900   -0.4210  -23.4500 H   0  0  0  0  0  0  0  0  0  0  0  0
   -7.6250   -1.1540  -24.1470 H   0  0  0  0  0  0  0  0  0  0  0  0
   -7.6270   -2.6210  -25.1240 H   0  0  0  0  0  0  0  0  0  0  0  0
   -6.6060   -2.6650  -21.9300 C   0  0  0  0  0  0  0  0  0  0  0  0
   -5.8550   -3.3480  -21.2570 O   0  0  0  0  0  0  0  0  0  0  0  0
   -7.3510   -1.4830  -21.3030 C   0  0  0  0  0  0  0  0  0  0  0  0
   -6.5890   -0.8040  -20.1950 C   0  0  0  0  0  0  0  0  0  0  0  0
   -6.8790   -1.0630  -18.8820 C   0  0  0  0  0  0  0  0  0  0  0  0
   -6.1990   -0.5740  -17.8090 N   0  0  0  0  0  0  0  0  0  0  0  0
   -5.1830    0.2140  -18.0630 C   0  0  0  0  0  0  0  0  0  0  0  0
   -4.7660    0.5790  -19.3700 C   0  0  0  0  0  0  0  0  0  0  0  0
   -3.6330    1.4010  -19.5920 C   0  0  0  0  0  0  0  0  0  0  0  0
   -3.2610    1.7330  -20.8680 C   0  0  0  0  0  0  0  0  0  0  0  0
   -4.0280    1.2890  -21.9700 C   0  0  0  0  0  0  0  0  0  0  0  0
   -5.1070    0.4610  -21.7790 C   0  0  0  0  0  0  0  0  0  0  0  0
   -5.5000    0.0750  -20.4720 C   0  0  0  0  0  0  0  0  0  0  0  0
   -5.6410    0.0600  -22.6350 H   0  0  0  0  0  0  0  0  0  0  0  0
   -3.7270    1.5590  -22.9810 H   0  0  0  0  0  0  0  0  0  0  0  0
   -2.3670    2.3260  -21.0470 H   0  0  0  0  0  0  0  0  0  0  0  0
   -3.0570    1.7290  -18.7260 H   0  0  0  0  0  0  0  0  0  0  0  0
   -4.6310    0.6060  -17.2070 H   0  0  0  0  0  0  0  0  0  0  0  0
   -7.7240   -1.7040  -18.6270 H   0  0  0  0  0  0  0  0  0  0  0  0
   -7.6350   -0.7640  -22.0740 H   0  0  0  0  0  0  0  0  0  0  0  0
   -8.2860   -1.8970  -20.9090 H   0  0  0  0  0  0  0  0  0  0  0  0
   -5.2680   -3.7060  -24.9930 C   0  0  0  0  0  0  0  0  0  0  0  0
   -5.2190   -2.7050  -25.4100 H   0  0  0  0  0  0  0  0  0  0  0  0
   -6.8330   -5.4840  -22.5500 H   0  0  0  0  0  0  0  0  0  0  0  0
   -5.5310   -7.3160  -23.6100 H   0  0  0  0  0  0  0  0  0  0  0  0
   -4.0100   -6.8260  -25.5020 H   0  0  0  0  0  0  0  0  0  0  0  0
   -2.8280   -5.0540  -26.7330 H   0  0  0  0  0  0  0  0  0  0  0  0
   -1.8210   -3.3860  -28.0740 H   0  0  0  0  0  0  0  0  0  0  0  0
   -2.9200   -2.2920  -28.9280 H   0  0  0  0  0  0  0  0  0  0  0  0
   -2.6370   -5.3260  -29.5230 H   0  0  0  0  0  0  0  0  0  0  0  0
   -2.0040   -4.0100  -30.5070 H   0  0  0  0  0  0  0  0  0  0  0  0
   -3.7500   -4.2080  -30.3300 H   0  0  0  0  0  0  0  0  0  0  0  0
  1  2  1  0  0  0  0
  1 55  1  0  0  0  0
  1 56  1  0  0  0  0
  1 57  1  0  0  0  0
  2  3  1  0  0  0  0
  2 53  1  0  0  0  0
  2 54  1  0  0  0  0
  3  4  2  0  0  0  0
  3  5  1  0  0  0  0
  5  6  1  0  0  0  0
  5 52  1  0  0  0  0
  6  7  2  0  0  0  0
  6 47  1  0  0  0  0
  7  8  1  0  0  0  0
  7 51  1  0  0  0  0
  8  9  2  0  0  0  0
  8 50  1  0  0  0  0
  9 10  1  0  0  0  0
  9 49  1  0  0  0  0
 10 11  1  0  0  0  0
 10 47  2  0  0  0  0
 11 12  1  0  0  0  0
 11 26  1  0  0  0  0
 12 13  1  0  0  0  0
 12 24  1  0  0  0  0
 12 25  1  0  0  0  0
 13 14  2  0  0  0  0
 13 18  1  0  0  0  0
 14 15  1  0  0  0  0
 14 23  1  0  0  0  0
 15 16  2  0  0  0  0
 15 22  1  0  0  0  0
 16 17  1  0  0  0  0
 16 21  1  0  0  0  0
 17 18  2  0  0  0  0
 17 20  1  0  0  0  0
 18 19  1  0  0  0  0
 26 27  2  0  0  0  0
 26 28  1  0  0  0  0
 28 29  1  0  0  0  0
 28 45  1  0  0  0  0
 28 46  1  0  0  0  0
 29 30  2  0  0  0  0
 29 38  1  0  0  0  0
 30 31  1  0  0  0  0
 30 44  1  0  0  0  0
 31 32  2  0  0  0  0
 32 33  1  0  0  0  0
 32 43  1  0  0  0  0
 33 34  2  0  0  0  0
 33 38  1  0  0  0  0
 34 35  1  0  0  0  0
 34 42  1  0  0  0  0
 35 36  2  0  0  0  0
 35 41  1  0  0  0  0
 36 37  1  0  0  0  0
 36 40  1  0  0  0  0
 37 38  2  0  0  0  0
 37 39  1  0  0  0  0
 47 48  1  0  0  0  0
M  END
>  <MODEL>
       1

$$$$
