tmp_first_model_3_39.pdb
 OpenBabel08272518143D

 40 44  0  0  1  0  0  0  0  0999 V2000
   -7.2370    0.9290  -25.5980 C   0  0  0  0  0  0  0  0  0  0  0  0
   -6.5090   -0.3940  -25.4030 C   0  0  0  0  0  0  0  0  0  0  0  0
   -5.2960   -0.5080  -25.5270 O   0  0  0  0  0  0  0  0  0  0  0  0
   -7.2720   -1.4760  -25.0840 N   0  0  0  0  0  0  0  0  0  0  0  0
   -6.6400   -2.7680  -24.7370 C   0  0  0  0  0  0  0  0  0  0  0  0
   -7.8120   -3.4870  -24.0460 C   0  0  2  0  0  0  0  0  0  0  0  0
   -9.0040   -2.9610  -24.8630 C   0  0  0  0  0  0  0  0  0  0  0  0
   -8.6610   -1.4880  -24.5570 C   0  0  1  0  0  0  0  0  0  0  0  0
   -8.5620   -1.5550  -23.0880 C   0  0  0  0  0  0  0  0  0  0  0  0
   -8.1610   -0.6120  -22.0870 C   0  0  0  0  0  0  0  0  0  0  0  0
   -8.3360    0.5810  -21.9960 O   0  5  0  0  0  0  0  0  0  0  0  0
   -7.4000   -1.3900  -21.1810 N   0  0  0  0  0  0  0  0  0  0  0  0
   -6.5820   -0.8250  -20.1700 C   0  0  0  0  0  0  0  0  0  0  0  0
   -6.8940   -1.0560  -18.8570 C   0  0  0  0  0  0  0  0  0  0  0  0
   -6.2040   -0.5410  -17.8090 N   0  0  0  0  0  0  0  0  0  0  0  0
   -5.1710    0.2160  -18.0810 C   0  0  0  0  0  0  0  0  0  0  0  0
   -4.7270    0.5260  -19.3980 C   0  0  0  0  0  0  0  0  0  0  0  0
   -3.5930    1.3490  -19.6340 C   0  0  0  0  0  0  0  0  0  0  0  0
   -3.1820    1.6210  -20.9090 C   0  0  0  0  0  0  0  0  0  0  0  0
   -3.8830    1.0690  -22.0080 C   0  0  0  0  0  0  0  0  0  0  0  0
   -4.9780    0.2670  -21.8070 C   0  0  0  0  0  0  0  0  0  0  0  0
   -5.4460   -0.0120  -20.4900 C   0  0  0  0  0  0  0  0  0  0  0  0
   -5.4930   -0.1520  -22.6690 H   0  0  0  0  0  0  0  0  0  0  0  0
   -3.5620    1.2930  -23.0220 H   0  0  0  0  0  0  0  0  0  0  0  0
   -2.3260    2.2670  -21.0870 H   0  0  0  0  0  0  0  0  0  0  0  0
   -3.0770    1.7680  -18.7740 H   0  0  0  0  0  0  0  0  0  0  0  0
   -4.6260    0.6210  -17.2280 H   0  0  0  0  0  0  0  0  0  0  0  0
   -7.7430   -1.6830  -18.6010 H   0  0  0  0  0  0  0  0  0  0  0  0
   -7.2540   -2.7100  -21.6300 C   0  0  0  0  0  0  0  0  0  0  0  0
   -6.5340   -3.5550  -21.1570 O   0  0  0  0  0  0  0  0  0  0  0  0
   -8.0620   -2.7880  -22.7620 N   0  0  0  0  0  0  0  0  0  0  0  0
   -9.2830   -0.6940  -24.9790 H   0  0  0  0  0  0  0  0  0  0  0  0
   -9.9660   -3.2770  -24.4620 H   0  0  0  0  0  0  0  0  0  0  0  0
   -8.9260   -3.1980  -25.9280 H   0  0  0  0  0  0  0  0  0  0  0  0
   -7.7030   -4.5540  -23.9040 H   0  0  0  0  0  0  0  0  0  0  0  0
   -5.7900   -2.6320  -24.0590 H   0  0  0  0  0  0  0  0  0  0  0  0
   -6.2970   -3.2700  -25.6440 H   0  0  0  0  0  0  0  0  0  0  0  0
   -6.4870    1.6600  -25.9040 H   0  0  0  0  0  0  0  0  0  0  0  0
   -7.7240    1.2560  -24.6710 H   0  0  0  0  0  0  0  0  0  0  0  0
   -8.0170    0.8640  -26.3670 H   0  0  0  0  0  0  0  0  0  0  0  0
  1  2  1  0  0  0  0
  1 38  1  0  0  0  0
  1 39  1  0  0  0  0
  1 40  1  0  0  0  0
  2  3  2  0  0  0  0
  2  4  1  0  0  0  0
  4  5  1  0  0  0  0
  4  8  1  0  0  0  0
  5  6  1  0  0  0  0
  5 36  1  0  0  0  0
  5 37  1  0  0  0  0
  6  7  1  0  0  0  0
  6 31  1  0  0  0  0
  6 35  1  1  0  0  0
  7  8  1  0  0  0  0
  7 33  1  0  0  0  0
  7 34  1  0  0  0  0
  8  9  1  0  0  0  0
  8 32  1  6  0  0  0
  9 10  2  0  0  0  0
  9 31  1  0  0  0  0
 10 11  1  0  0  0  0
 10 12  1  0  0  0  0
 12 13  1  0  0  0  0
 12 29  1  0  0  0  0
 13 14  2  0  0  0  0
 13 22  1  0  0  0  0
 14 15  1  0  0  0  0
 14 28  1  0  0  0  0
 15 16  2  0  0  0  0
 16 17  1  0  0  0  0
 16 27  1  0  0  0  0
 17 18  2  0  0  0  0
 17 22  1  0  0  0  0
 18 19  1  0  0  0  0
 18 26  1  0  0  0  0
 19 20  2  0  0  0  0
 19 25  1  0  0  0  0
 20 21  1  0  0  0  0
 20 24  1  0  0  0  0
 21 22  2  0  0  0  0
 21 23  1  0  0  0  0
 29 30  2  0  0  0  0
 29 31  1  0  0  0  0
M  CHG  1  11  -1
M  END
>  <MODEL>
       1

$$$$
