tmp_first_model_12_40.pdb
 OpenBabel08272523333D

 40 42  0  0  0  0  0  0  0  0999 V2000
   -6.3330   -4.2860  -27.2850 C   0  0  0  0  0  0  0  0  0  0  0  0
   -6.1970   -3.3800  -26.0600 C   0  0  0  0  0  0  0  0  0  0  0  0
   -7.5510   -3.0560  -25.4270 C   0  0  0  0  0  0  0  0  0  0  0  0
   -7.4100   -2.1620  -24.1930 C   0  0  0  0  0  0  0  0  0  0  0  0
   -6.4820   -2.7560  -23.2370 N   0  0  0  0  0  0  0  0  0  0  0  0
   -6.5210   -2.6300  -21.8650 C   0  0  0  0  0  0  0  0  0  0  0  0
   -5.8640   -3.3610  -21.1440 O   0  0  0  0  0  0  0  0  0  0  0  0
   -7.3680   -1.4980  -21.2750 C   0  0  0  0  0  0  0  0  0  0  0  0
   -6.6230   -0.7770  -20.1780 C   0  0  0  0  0  0  0  0  0  0  0  0
   -6.8940   -1.0500  -18.8660 C   0  0  0  0  0  0  0  0  0  0  0  0
   -6.2050   -0.5760  -17.7930 N   0  0  0  0  0  0  0  0  0  0  0  0
   -5.2010    0.2280  -18.0510 C   0  0  0  0  0  0  0  0  0  0  0  0
   -4.8030    0.6090  -19.3620 C   0  0  0  0  0  0  0  0  0  0  0  0
   -3.6540    1.4110  -19.5820 C   0  0  0  0  0  0  0  0  0  0  0  0
   -3.2840    1.7620  -20.8550 C   0  0  0  0  0  0  0  0  0  0  0  0
   -4.0730    1.3500  -21.9590 C   0  0  0  0  0  0  0  0  0  0  0  0
   -5.1580    0.5280  -21.7710 C   0  0  0  0  0  0  0  0  0  0  0  0
   -5.5400    0.1110  -20.4650 C   0  0  0  0  0  0  0  0  0  0  0  0
   -5.7260    0.1930  -22.6390 H   0  0  0  0  0  0  0  0  0  0  0  0
   -3.8000    1.6730  -22.9590 H   0  0  0  0  0  0  0  0  0  0  0  0
   -2.3980    2.3660  -21.0270 H   0  0  0  0  0  0  0  0  0  0  0  0
   -3.0650    1.7150  -18.7200 H   0  0  0  0  0  0  0  0  0  0  0  0
   -4.6260    0.5990  -17.2000 H   0  0  0  0  0  0  0  0  0  0  0  0
   -7.7250   -1.7130  -18.6220 H   0  0  0  0  0  0  0  0  0  0  0  0
   -7.6530   -0.8130  -22.0780 H   0  0  0  0  0  0  0  0  0  0  0  0
   -8.2830   -1.9530  -20.8700 H   0  0  0  0  0  0  0  0  0  0  0  0
   -5.1850   -3.1470  -23.7680 C   0  0  0  0  0  0  0  0  0  0  0  0
   -5.3100   -4.0230  -24.9950 C   0  0  0  0  0  0  0  0  0  0  0  0
   -4.3090   -4.2410  -25.3870 H   0  0  0  0  0  0  0  0  0  0  0  0
   -5.7510   -4.9850  -24.7140 H   0  0  0  0  0  0  0  0  0  0  0  0
   -4.5970   -2.2460  -24.0090 H   0  0  0  0  0  0  0  0  0  0  0  0
   -4.6860   -3.6530  -22.9440 H   0  0  0  0  0  0  0  0  0  0  0  0
   -8.3810   -2.0220  -23.7140 H   0  0  0  0  0  0  0  0  0  0  0  0
   -7.0640   -1.1680  -24.5190 H   0  0  0  0  0  0  0  0  0  0  0  0
   -8.0200   -3.9970  -25.1290 H   0  0  0  0  0  0  0  0  0  0  0  0
   -8.2250   -2.5880  -26.1550 H   0  0  0  0  0  0  0  0  0  0  0  0
   -5.7270   -2.4400  -26.3770 H   0  0  0  0  0  0  0  0  0  0  0  0
   -5.3610   -4.5070  -27.7400 H   0  0  0  0  0  0  0  0  0  0  0  0
   -6.7810   -5.2430  -27.0010 H   0  0  0  0  0  0  0  0  0  0  0  0
   -6.9670   -3.8450  -28.0610 H   0  0  0  0  0  0  0  0  0  0  0  0
  1  2  1  0  0  0  0
  1 38  1  0  0  0  0
  1 39  1  0  0  0  0
  1 40  1  0  0  0  0
  2  3  1  0  0  0  0
  2 28  1  0  0  0  0
  2 37  1  0  0  0  0
  3  4  1  0  0  0  0
  3 35  1  0  0  0  0
  3 36  1  0  0  0  0
  4  5  1  0  0  0  0
  4 33  1  0  0  0  0
  4 34  1  0  0  0  0
  5  6  1  0  0  0  0
  5 27  1  0  0  0  0
  6  7  2  0  0  0  0
  6  8  1  0  0  0  0
  8  9  1  0  0  0  0
  8 25  1  0  0  0  0
  8 26  1  0  0  0  0
  9 10  2  0  0  0  0
  9 18  1  0  0  0  0
 10 11  1  0  0  0  0
 10 24  1  0  0  0  0
 11 12  2  0  0  0  0
 12 13  1  0  0  0  0
 12 23  1  0  0  0  0
 13 14  2  0  0  0  0
 13 18  1  0  0  0  0
 14 15  1  0  0  0  0
 14 22  1  0  0  0  0
 15 16  2  0  0  0  0
 15 21  1  0  0  0  0
 16 17  1  0  0  0  0
 16 20  1  0  0  0  0
 17 18  2  0  0  0  0
 17 19  1  0  0  0  0
 27 28  1  0  0  0  0
 27 31  1  0  0  0  0
 27 32  1  0  0  0  0
 28 29  1  0  0  0  0
 28 30  1  0  0  0  0
M  END
>  <MODEL>
       1

$$$$
