tmp_first_model_5_20.pdb
 OpenBabel08272519223D

 66 71  0  0  1  0  0  0  0  0999 V2000
   -8.5880    4.4890  -23.2630 C   0  0  0  0  0  0  0  0  0  0  0  0
   -8.5980    3.4380  -24.2550 N   0  0  0  0  0  0  0  0  0  0  0  0
   -7.5720    2.5530  -24.3190 C   0  0  0  0  0  0  0  0  0  0  0  0
   -6.5260    2.6890  -23.7030 O   0  0  0  0  0  0  0  0  0  0  0  0
   -7.8430    1.3600  -25.2490 C   0  0  0  0  0  0  0  0  0  0  0  0
   -8.6970    0.3620  -24.6160 N   0  0  0  0  0  0  0  0  0  0  0  0
   -8.1150   -0.9160  -24.2290 C   0  0  0  0  0  0  0  0  0  0  0  0
   -8.8310   -1.5690  -23.0110 C   0  0  2  0  0  0  0  0  0  0  0  0
   -8.4300   -0.8410  -21.6920 C   0  0  0  0  0  0  0  0  0  0  0  0
   -8.9050    0.1700  -21.2280 O   0  0  0  0  0  0  0  0  0  0  0  0
   -7.4060   -1.5660  -21.1140 N   0  0  0  0  0  0  0  0  0  0  0  0
   -6.5180   -1.0620  -20.1220 C   0  0  0  0  0  0  0  0  0  0  0  0
   -6.6810   -1.4120  -18.8110 C   0  0  0  0  0  0  0  0  0  0  0  0
   -5.7130   -1.3300  -17.8670 N   0  0  0  0  0  0  0  0  0  0  0  0
   -4.5730   -0.7790  -18.2220 C   0  0  0  0  0  0  0  0  0  0  0  0
   -4.3490   -0.1760  -19.4900 C   0  0  0  0  0  0  0  0  0  0  0  0
   -3.2190    0.6500  -19.7540 C   0  0  0  0  0  0  0  0  0  0  0  0
   -3.1580    1.4060  -20.8930 C   0  0  0  0  0  0  0  0  0  0  0  0
   -4.1710    1.2910  -21.8770 C   0  0  0  0  0  0  0  0  0  0  0  0
   -5.2620    0.4870  -21.6540 C   0  0  0  0  0  0  0  0  0  0  0  0
   -5.3750   -0.2670  -20.4570 C   0  0  0  0  0  0  0  0  0  0  0  0
   -6.0520    0.4600  -22.4000 H   0  0  0  0  0  0  0  0  0  0  0  0
   -4.1000    1.8410  -22.8070 H   0  0  0  0  0  0  0  0  0  0  0  0
   -2.3140    2.0650  -21.0850 H   0  0  0  0  0  0  0  0  0  0  0  0
   -2.4700    0.7680  -18.9810 H   0  0  0  0  0  0  0  0  0  0  0  0
   -3.7760   -0.7580  -17.4800 H   0  0  0  0  0  0  0  0  0  0  0  0
   -7.6360   -1.8230  -18.4950 H   0  0  0  0  0  0  0  0  0  0  0  0
   -7.0260   -2.7370  -21.8820 C   0  0  0  0  0  0  0  0  0  0  0  0
   -8.2560   -2.9900  -22.7520 C   0  0  2  0  0  0  0  0  0  0  0  0
   -8.0300   -3.9130  -23.9630 C   0  0  0  0  0  0  0  0  0  0  0  0
   -7.6860   -5.3350  -23.5740 C   0  0  0  0  0  0  0  0  0  0  0  0
   -8.6580   -6.3360  -23.5050 C   0  0  0  0  0  0  0  0  0  0  0  0
   -8.3230   -7.6350  -23.1300 C   0  0  0  0  0  0  0  0  0  0  0  0
   -7.0030   -7.9620  -22.8380 C   0  0  0  0  0  0  0  0  0  0  0  0
   -6.0250   -6.9740  -22.8920 C   0  0  0  0  0  0  0  0  0  0  0  0
   -6.3700   -5.6730  -23.2430 C   0  0  0  0  0  0  0  0  0  0  0  0
   -5.6050   -4.9000  -23.2460 H   0  0  0  0  0  0  0  0  0  0  0  0
   -4.9890   -7.2220  -22.6760 H   0  0  0  0  0  0  0  0  0  0  0  0
   -6.7340   -8.9810  -22.5690 H   0  0  0  0  0  0  0  0  0  0  0  0
   -9.1030   -8.3910  -23.0690 H   0  0  0  0  0  0  0  0  0  0  0  0
   -9.6930   -6.1150  -23.7580 H   0  0  0  0  0  0  0  0  0  0  0  0
   -8.9360   -3.9080  -24.5790 H   0  0  0  0  0  0  0  0  0  0  0  0
   -7.2290   -3.5180  -24.6010 H   0  0  0  0  0  0  0  0  0  0  0  0
   -8.9790   -3.5010  -22.1170 H   0  0  0  0  0  0  0  0  0  0  0  0
   -6.7860   -3.5840  -21.2280 H   0  0  0  0  0  0  0  0  0  0  0  0
   -6.1360   -2.5080  -22.4850 H   0  0  0  0  0  0  0  0  0  0  0  0
  -10.3260   -1.5140  -23.2410 C   0  0  0  0  0  0  0  0  0  0  0  0
  -11.2050   -2.4000  -22.6060 C   0  0  0  0  0  0  0  0  0  0  0  0
  -12.5580   -2.3560  -22.8930 C   0  0  0  0  0  0  0  0  0  0  0  0
  -13.6150   -3.5550  -22.2050 Cl  0  0  0  0  0  0  0  0  0  0  0  0
  -13.1020   -1.3650  -23.7090 C   0  0  0  0  0  0  0  0  0  0  0  0
  -12.2560   -0.4100  -24.2240 C   0  0  0  0  0  0  0  0  0  0  0  0
  -10.8810   -0.5030  -24.0320 C   0  0  0  0  0  0  0  0  0  0  0  0
  -10.0400    0.5580  -24.6520 C   0  0  0  0  0  0  0  0  0  0  0  0
  -10.5460    1.5640  -25.1630 O   0  0  0  0  0  0  0  0  0  0  0  0
  -12.6130    0.4470  -24.7810 H   0  0  0  0  0  0  0  0  0  0  0  0
  -14.1700   -1.3380  -23.8970 H   0  0  0  0  0  0  0  0  0  0  0  0
  -10.8520   -3.1210  -21.8770 H   0  0  0  0  0  0  0  0  0  0  0  0
   -7.0540   -0.7480  -24.0050 H   0  0  0  0  0  0  0  0  0  0  0  0
   -8.1620   -1.6070  -25.0800 H   0  0  0  0  0  0  0  0  0  0  0  0
   -8.3410    1.7060  -26.1630 H   0  0  0  0  0  0  0  0  0  0  0  0
   -6.8880    0.9010  -25.5110 H   0  0  0  0  0  0  0  0  0  0  0  0
   -9.4780    3.1700  -24.6830 H   0  0  0  0  0  0  0  0  0  0  0  0
   -7.6340    5.0160  -23.2990 H   0  0  0  0  0  0  0  0  0  0  0  0
   -8.7080    4.1010  -22.2460 H   0  0  0  0  0  0  0  0  0  0  0  0
   -9.3990    5.1890  -23.4750 H   0  0  0  0  0  0  0  0  0  0  0  0
  1  2  1  0  0  0  0
  1 64  1  0  0  0  0
  1 65  1  0  0  0  0
  1 66  1  0  0  0  0
  2  3  1  0  0  0  0
  2 63  1  0  0  0  0
  3  4  2  0  0  0  0
  3  5  1  0  0  0  0
  5  6  1  0  0  0  0
  5 61  1  0  0  0  0
  5 62  1  0  0  0  0
  6  7  1  0  0  0  0
  6 54  1  0  0  0  0
  7  8  1  0  0  0  0
  7 59  1  0  0  0  0
  7 60  1  0  0  0  0
  8  9  1  1  0  0  0
  8 29  1  0  0  0  0
  8 47  1  0  0  0  0
  9 10  2  0  0  0  0
  9 11  1  0  0  0  0
 11 12  1  0  0  0  0
 11 28  1  0  0  0  0
 12 13  2  0  0  0  0
 12 21  1  0  0  0  0
 13 14  1  0  0  0  0
 13 27  1  0  0  0  0
 14 15  2  0  0  0  0
 15 16  1  0  0  0  0
 15 26  1  0  0  0  0
 16 17  2  0  0  0  0
 16 21  1  0  0  0  0
 17 18  1  0  0  0  0
 17 25  1  0  0  0  0
 18 19  2  0  0  0  0
 18 24  1  0  0  0  0
 19 20  1  0  0  0  0
 19 23  1  0  0  0  0
 20 21  2  0  0  0  0
 20 22  1  0  0  0  0
 28 29  1  0  0  0  0
 28 45  1  0  0  0  0
 28 46  1  0  0  0  0
 29 30  1  0  0  0  0
 29 44  1  1  0  0  0
 30 31  1  0  0  0  0
 30 42  1  0  0  0  0
 30 43  1  0  0  0  0
 31 32  2  0  0  0  0
 31 36  1  0  0  0  0
 32 33  1  0  0  0  0
 32 41  1  0  0  0  0
 33 34  2  0  0  0  0
 33 40  1  0  0  0  0
 34 35  1  0  0  0  0
 34 39  1  0  0  0  0
 35 36  2  0  0  0  0
 35 38  1  0  0  0  0
 36 37  1  0  0  0  0
 47 48  2  0  0  0  0
 47 53  1  0  0  0  0
 48 49  1  0  0  0  0
 48 58  1  0  0  0  0
 49 50  1  0  0  0  0
 49 51  2  0  0  0  0
 51 52  1  0  0  0  0
 51 57  1  0  0  0  0
 52 53  2  0  0  0  0
 52 56  1  0  0  0  0
 53 54  1  0  0  0  0
 54 55  2  0  0  0  0
M  END
>  <MODEL>
       1

$$$$
