tmp_first_model_2_77.pdb
 OpenBabel08272517383D

 55 60  0  0  1  0  0  0  0  0999 V2000
  -10.4570   -1.1670  -23.2640 C   0  0  0  0  0  0  0  0  0  0  0  0
   -9.0070   -1.5000  -22.9260 C   0  0  1  0  0  0  0  0  0  0  0  0
   -8.3760   -0.5440  -21.9010 C   0  0  0  0  0  0  0  0  0  0  0  0
   -7.3730   -1.3670  -21.2380 N   0  0  0  0  0  0  0  0  0  0  0  0
   -6.5750   -0.8650  -20.1840 C   0  0  0  0  0  0  0  0  0  0  0  0
   -6.8970   -1.1070  -18.8720 C   0  0  0  0  0  0  0  0  0  0  0  0
   -6.2350   -0.5700  -17.8160 N   0  0  0  0  0  0  0  0  0  0  0  0
   -5.2120    0.2070  -18.0790 C   0  0  0  0  0  0  0  0  0  0  0  0
   -4.7570    0.5120  -19.3940 C   0  0  0  0  0  0  0  0  0  0  0  0
   -3.6310    1.3400  -19.6300 C   0  0  0  0  0  0  0  0  0  0  0  0
   -3.2270    1.6050  -20.9090 C   0  0  0  0  0  0  0  0  0  0  0  0
   -3.9240    1.0620  -22.0100 C   0  0  0  0  0  0  0  0  0  0  0  0
   -5.0200    0.2580  -21.8100 C   0  0  0  0  0  0  0  0  0  0  0  0
   -5.4590   -0.0310  -20.4900 C   0  0  0  0  0  0  0  0  0  0  0  0
   -5.5480   -0.1670  -22.6570 H   0  0  0  0  0  0  0  0  0  0  0  0
   -3.5970    1.2910  -23.0190 H   0  0  0  0  0  0  0  0  0  0  0  0
   -2.3690    2.2470  -21.0870 H   0  0  0  0  0  0  0  0  0  0  0  0
   -3.1140    1.7610  -18.7730 H   0  0  0  0  0  0  0  0  0  0  0  0
   -4.6800    0.6410  -17.2310 H   0  0  0  0  0  0  0  0  0  0  0  0
   -7.7350   -1.7550  -18.6260 H   0  0  0  0  0  0  0  0  0  0  0  0
   -7.6000   -2.7200  -21.3750 C   0  0  0  0  0  0  0  0  0  0  0  0
   -6.9620   -3.5890  -20.8170 O   0  0  0  0  0  0  0  0  0  0  0  0
   -8.7910   -2.9270  -22.3140 C   0  0  1  0  0  0  0  0  0  0  0  0
   -9.9820   -3.3880  -21.4460 C   0  0  0  0  0  0  0  0  0  0  0  0
  -11.0980   -3.8850  -22.2250 N   0  0  0  0  0  0  0  0  0  0  0  0
  -12.4640   -3.8480  -21.7230 C   0  0  0  0  0  0  0  0  0  0  0  0
  -13.3100   -2.7500  -22.2820 C   0  0  0  0  0  0  0  0  0  0  0  0
  -13.9790   -2.8180  -23.4590 C   0  0  0  0  0  0  0  0  0  0  0  0
  -14.7190   -1.6860  -23.6050 O   0  0  0  0  0  0  0  0  0  0  0  0
  -14.4690   -0.9870  -22.4840 C   0  0  0  0  0  0  0  0  0  0  0  0
  -13.6420   -1.5510  -21.6670 N   0  0  0  0  0  0  0  0  0  0  0  0
  -15.0000   -0.0530  -22.3480 H   0  0  0  0  0  0  0  0  0  0  0  0
  -14.0070   -3.5390  -24.2530 H   0  0  0  0  0  0  0  0  0  0  0  0
  -12.4630   -3.8600  -20.6310 H   0  0  0  0  0  0  0  0  0  0  0  0
  -12.9440   -4.7540  -22.1030 H   0  0  0  0  0  0  0  0  0  0  0  0
  -10.9420   -4.5510  -23.4020 C   0  0  0  0  0  0  0  0  0  0  0  0
  -11.9220   -4.9290  -24.0280 O   0  0  0  0  0  0  0  0  0  0  0  0
   -9.5410   -4.7640  -23.8630 C   0  0  0  0  0  0  0  0  0  0  0  0
   -9.2830   -5.7410  -24.8230 C   0  0  0  0  0  0  0  0  0  0  0  0
   -8.0230   -5.8820  -25.3730 C   0  0  0  0  0  0  0  0  0  0  0  0
   -7.0280   -5.0230  -24.9190 C   0  0  0  0  0  0  0  0  0  0  0  0
   -5.8050   -5.1240  -25.4600 F   0  0  0  0  0  0  0  0  0  0  0  0
   -7.2340   -4.0870  -23.9230 C   0  0  0  0  0  0  0  0  0  0  0  0
   -8.5080   -3.9690  -23.3630 C   0  0  0  0  0  0  0  0  0  0  0  0
   -6.4090   -3.4790  -23.5610 H   0  0  0  0  0  0  0  0  0  0  0  0
   -7.7920   -6.6400  -26.1180 H   0  0  0  0  0  0  0  0  0  0  0  0
  -10.0980   -6.3810  -25.1370 H   0  0  0  0  0  0  0  0  0  0  0  0
  -10.3260   -2.5230  -20.8740 H   0  0  0  0  0  0  0  0  0  0  0  0
   -9.6440   -4.1640  -20.7600 H   0  0  0  0  0  0  0  0  0  0  0  0
   -9.1250   -0.1780  -21.1790 H   0  0  0  0  0  0  0  0  0  0  0  0
   -7.9110    0.3300  -22.3700 H   0  0  0  0  0  0  0  0  0  0  0  0
   -8.4060   -1.4670  -23.8470 H   0  0  0  0  0  0  0  0  0  0  0  0
  -10.5410   -0.2100  -23.7840 H   0  0  0  0  0  0  0  0  0  0  0  0
  -10.8890   -1.9500  -23.8960 H   0  0  0  0  0  0  0  0  0  0  0  0
  -11.0630   -1.1210  -22.3530 H   0  0  0  0  0  0  0  0  0  0  0  0
  1  2  1  0  0  0  0
  1 53  1  0  0  0  0
  1 54  1  0  0  0  0
  1 55  1  0  0  0  0
  2  3  1  0  0  0  0
  2 23  1  0  0  0  0
  2 52  1  6  0  0  0
  3  4  1  0  0  0  0
  3 50  1  0  0  0  0
  3 51  1  0  0  0  0
  4  5  1  0  0  0  0
  4 21  1  0  0  0  0
  5  6  2  0  0  0  0
  5 14  1  0  0  0  0
  6  7  1  0  0  0  0
  6 20  1  0  0  0  0
  7  8  2  0  0  0  0
  8  9  1  0  0  0  0
  8 19  1  0  0  0  0
  9 10  2  0  0  0  0
  9 14  1  0  0  0  0
 10 11  1  0  0  0  0
 10 18  1  0  0  0  0
 11 12  2  0  0  0  0
 11 17  1  0  0  0  0
 12 13  1  0  0  0  0
 12 16  1  0  0  0  0
 13 14  2  0  0  0  0
 13 15  1  0  0  0  0
 21 22  2  0  0  0  0
 23 21  1  1  0  0  0
 23 24  1  0  0  0  0
 23 44  1  0  0  0  0
 24 25  1  0  0  0  0
 24 48  1  0  0  0  0
 24 49  1  0  0  0  0
 25 26  1  0  0  0  0
 25 36  1  0  0  0  0
 26 27  1  0  0  0  0
 26 34  1  0  0  0  0
 26 35  1  0  0  0  0
 27 28  2  0  0  0  0
 27 31  1  0  0  0  0
 28 29  1  0  0  0  0
 28 33  1  0  0  0  0
 29 30  1  0  0  0  0
 30 31  2  0  0  0  0
 30 32  1  0  0  0  0
 36 37  2  0  0  0  0
 36 38  1  0  0  0  0
 38 39  2  0  0  0  0
 38 44  1  0  0  0  0
 39 40  1  0  0  0  0
 39 47  1  0  0  0  0
 40 41  2  0  0  0  0
 40 46  1  0  0  0  0
 41 42  1  0  0  0  0
 41 43  1  0  0  0  0
 43 44  2  0  0  0  0
 43 45  1  0  0  0  0
M  END
>  <MODEL>
       1

$$$$
