tmp_first_model_8_19.pdb
 OpenBabel08272521063D

 42 45  0  0  1  0  0  0  0  0999 V2000
   -9.1440   -0.0640  -20.7230 O   0  0  0  0  0  0  0  0  0  0  0  0
   -8.6540   -0.9070  -21.4500 C   0  0  0  0  0  0  0  0  0  0  0  0
   -9.3660   -1.5020  -22.6770 C   0  0  1  0  0  0  0  0  0  0  0  0
  -10.4380   -0.5570  -23.1870 C   0  0  0  0  0  0  0  0  0  0  0  0
  -10.1000    0.7540  -23.5100 C   0  0  0  0  0  0  0  0  0  0  0  0
  -11.0730    1.6310  -23.9550 C   0  0  0  0  0  0  0  0  0  0  0  0
  -12.4030    1.2480  -24.0550 C   0  0  0  0  0  0  0  0  0  0  0  0
  -13.5520    2.5080  -24.3600 Cl  0  0  0  0  0  0  0  0  0  0  0  0
  -12.7300   -0.0930  -23.8430 C   0  0  0  0  0  0  0  0  0  0  0  0
  -14.3290   -0.6890  -24.1090 Cl  0  0  0  0  0  0  0  0  0  0  0  0
  -11.7480   -0.9840  -23.4000 C   0  0  0  0  0  0  0  0  0  0  0  0
  -12.0440   -2.0130  -23.1900 H   0  0  0  0  0  0  0  0  0  0  0  0
  -10.8320    2.6530  -24.2060 H   0  0  0  0  0  0  0  0  0  0  0  0
   -9.0860    1.1190  -23.3420 H   0  0  0  0  0  0  0  0  0  0  0  0
   -8.3340   -1.7870  -23.7760 C   0  0  0  0  0  0  0  0  0  0  0  0
   -7.2410   -2.7560  -23.3380 C   0  0  2  0  0  0  0  0  0  0  0  0
   -7.5370   -4.1080  -23.6570 O   0  0  0  0  0  0  0  0  0  0  0  0
   -8.3960   -4.3200  -23.2690 H   0  0  0  0  0  0  0  0  0  0  0  0
   -6.9350   -2.6360  -21.8350 C   0  0  0  0  0  0  0  0  0  0  0  0
   -7.3750   -1.3770  -21.2550 N   0  0  0  0  0  0  0  0  0  0  0  0
   -6.6090   -0.8090  -20.1930 C   0  0  0  0  0  0  0  0  0  0  0  0
   -6.9090   -1.0550  -18.8790 C   0  0  0  0  0  0  0  0  0  0  0  0
   -6.1990   -0.5690  -17.8290 N   0  0  0  0  0  0  0  0  0  0  0  0
   -5.1680    0.2000  -18.0820 C   0  0  0  0  0  0  0  0  0  0  0  0
   -4.7300    0.5270  -19.3950 C   0  0  0  0  0  0  0  0  0  0  0  0
   -3.6040    1.3610  -19.6330 C   0  0  0  0  0  0  0  0  0  0  0  0
   -3.2310    1.6600  -20.9140 C   0  0  0  0  0  0  0  0  0  0  0  0
   -3.9680    1.1440  -22.0040 C   0  0  0  0  0  0  0  0  0  0  0  0
   -5.0420    0.3190  -21.7970 C   0  0  0  0  0  0  0  0  0  0  0  0
   -5.4610   -0.0000  -20.4830 C   0  0  0  0  0  0  0  0  0  0  0  0
   -5.5900   -0.0940  -22.6360 H   0  0  0  0  0  0  0  0  0  0  0  0
   -3.6470    1.3680  -23.0160 H   0  0  0  0  0  0  0  0  0  0  0  0
   -2.3650    2.2870  -21.1070 H   0  0  0  0  0  0  0  0  0  0  0  0
   -3.0650    1.7680  -18.7820 H   0  0  0  0  0  0  0  0  0  0  0  0
   -4.6240    0.6100  -17.2270 H   0  0  0  0  0  0  0  0  0  0  0  0
   -7.7590   -1.6720  -18.5980 H   0  0  0  0  0  0  0  0  0  0  0  0
   -7.3930   -3.5100  -21.3370 H   0  0  0  0  0  0  0  0  0  0  0  0
   -5.8600   -2.6940  -21.6660 H   0  0  0  0  0  0  0  0  0  0  0  0
   -6.3410   -2.5460  -23.9200 H   0  0  0  0  0  0  0  0  0  0  0  0
   -7.8960   -0.8290  -24.0860 H   0  0  0  0  0  0  0  0  0  0  0  0
   -8.8250   -2.2060  -24.6600 H   0  0  0  0  0  0  0  0  0  0  0  0
   -9.8470   -2.4440  -22.3760 H   0  0  0  0  0  0  0  0  0  0  0  0
  1  2  2  0  0  0  0
  2  3  1  0  0  0  0
  2 20  1  0  0  0  0
  3  4  1  0  0  0  0
  3 15  1  0  0  0  0
  3 42  1  1  0  0  0
  4  5  2  0  0  0  0
  4 11  1  0  0  0  0
  5  6  1  0  0  0  0
  5 14  1  0  0  0  0
  6  7  2  0  0  0  0
  6 13  1  0  0  0  0
  7  8  1  0  0  0  0
  7  9  1  0  0  0  0
  9 10  1  0  0  0  0
  9 11  2  0  0  0  0
 11 12  1  0  0  0  0
 15 16  1  0  0  0  0
 15 40  1  0  0  0  0
 15 41  1  0  0  0  0
 16 17  1  0  0  0  0
 16 19  1  0  0  0  0
 16 39  1  6  0  0  0
 17 18  1  0  0  0  0
 19 20  1  0  0  0  0
 19 37  1  0  0  0  0
 19 38  1  0  0  0  0
 20 21  1  0  0  0  0
 21 22  2  0  0  0  0
 21 30  1  0  0  0  0
 22 23  1  0  0  0  0
 22 36  1  0  0  0  0
 23 24  2  0  0  0  0
 24 25  1  0  0  0  0
 24 35  1  0  0  0  0
 25 26  2  0  0  0  0
 25 30  1  0  0  0  0
 26 27  1  0  0  0  0
 26 34  1  0  0  0  0
 27 28  2  0  0  0  0
 27 33  1  0  0  0  0
 28 29  1  0  0  0  0
 28 32  1  0  0  0  0
 29 30  2  0  0  0  0
 29 31  1  0  0  0  0
M  END
>  <MODEL>
       1

$$$$
