tmp_first_model_6_60.pdb
 OpenBabel08272519583D

 62 67  0  0  1  0  0  0  0  0999 V2000
  -11.6850    3.3090  -22.6200 C   0  0  0  0  0  0  0  0  0  0  0  0
  -10.8540    2.0650  -22.2890 C   0  0  0  0  0  0  0  0  0  0  0  0
   -9.4790    2.1100  -22.7730 N   0  0  0  0  0  0  0  0  0  0  0  0
   -8.5740    2.7290  -22.0030 N   0  0  0  0  0  0  0  0  0  0  0  0
   -7.4550    2.7690  -22.7040 C   0  0  0  0  0  0  0  0  0  0  0  0
   -7.6170    2.1210  -23.9440 C   0  0  0  0  0  0  0  0  0  0  0  0
   -8.9330    1.7050  -23.9500 C   0  0  0  0  0  0  0  0  0  0  0  0
   -9.7110    0.9690  -24.9900 C   0  0  0  0  0  0  0  0  0  0  0  0
  -10.2390   -0.3090  -24.5420 N   0  0  0  0  0  0  0  0  0  0  0  0
   -9.3120   -1.3830  -24.2340 C   0  0  0  0  0  0  0  0  0  0  0  0
   -9.5170   -1.9900  -22.8220 C   0  0  2  0  0  0  0  0  0  0  0  0
   -8.9630   -1.0630  -21.7060 C   0  0  0  0  0  0  0  0  0  0  0  0
   -9.5860   -0.2380  -21.0660 O   0  0  0  0  0  0  0  0  0  0  0  0
   -7.6270   -1.3380  -21.5130 N   0  0  0  0  0  0  0  0  0  0  0  0
   -6.9310   -0.8390  -20.3910 C   0  0  0  0  0  0  0  0  0  0  0  0
   -7.3520   -1.1290  -19.1150 C   0  0  0  0  0  0  0  0  0  0  0  0
   -6.6950   -0.7330  -18.0000 N   0  0  0  0  0  0  0  0  0  0  0  0
   -5.6240    0.0070  -18.1540 C   0  0  0  0  0  0  0  0  0  0  0  0
   -5.1070    0.4110  -19.4160 C   0  0  0  0  0  0  0  0  0  0  0  0
   -4.0000    1.2910  -19.5440 C   0  0  0  0  0  0  0  0  0  0  0  0
   -3.5310    1.6390  -20.7790 C   0  0  0  0  0  0  0  0  0  0  0  0
   -4.1300    1.1130  -21.9440 C   0  0  0  0  0  0  0  0  0  0  0  0
   -5.1920    0.2430  -21.8460 C   0  0  0  0  0  0  0  0  0  0  0  0
   -5.7410   -0.0750  -20.5790 C   0  0  0  0  0  0  0  0  0  0  0  0
   -5.5960   -0.2260  -22.7370 H   0  0  0  0  0  0  0  0  0  0  0  0
   -3.7350    1.3700  -22.9230 H   0  0  0  0  0  0  0  0  0  0  0  0
   -2.6860    2.3160  -20.8760 H   0  0  0  0  0  0  0  0  0  0  0  0
   -3.5550    1.6900  -18.6370 H   0  0  0  0  0  0  0  0  0  0  0  0
   -5.1050    0.3230  -17.2490 H   0  0  0  0  0  0  0  0  0  0  0  0
   -8.2580   -1.7120  -18.9520 H   0  0  0  0  0  0  0  0  0  0  0  0
   -7.2060   -2.5500  -22.1920 C   0  0  0  0  0  0  0  0  0  0  0  0
   -8.5470   -3.1940  -22.6010 C   0  0  2  0  0  0  0  0  0  0  0  0
   -8.3790   -4.1710  -23.7530 C   0  0  0  0  0  0  0  0  0  0  0  0
   -9.3430   -4.5600  -24.0960 H   0  0  0  0  0  0  0  0  0  0  0  0
   -7.7400   -5.0130  -23.4650 H   0  0  0  0  0  0  0  0  0  0  0  0
   -7.8900   -3.6740  -24.5990 H   0  0  0  0  0  0  0  0  0  0  0  0
   -8.9100   -3.7150  -21.7100 H   0  0  0  0  0  0  0  0  0  0  0  0
   -6.5760   -2.3250  -23.0700 H   0  0  0  0  0  0  0  0  0  0  0  0
   -6.6190   -3.1890  -21.5190 H   0  0  0  0  0  0  0  0  0  0  0  0
  -11.0050   -2.2020  -22.6070 C   0  0  0  0  0  0  0  0  0  0  0  0
  -11.4670   -3.0310  -21.5840 C   0  0  0  0  0  0  0  0  0  0  0  0
  -12.7770   -2.9210  -21.1570 C   0  0  0  0  0  0  0  0  0  0  0  0
  -13.1640   -3.6210  -20.0820 F   0  0  0  0  0  0  0  0  0  0  0  0
  -13.7210   -2.0930  -21.7540 C   0  0  0  0  0  0  0  0  0  0  0  0
  -13.2950   -1.3400  -22.8290 C   0  0  0  0  0  0  0  0  0  0  0  0
  -11.9610   -1.3860  -23.2390 C   0  0  0  0  0  0  0  0  0  0  0  0
  -11.5710   -0.3870  -24.2760 C   0  0  0  0  0  0  0  0  0  0  0  0
  -12.4000    0.3830  -24.7530 O   0  0  0  0  0  0  0  0  0  0  0  0
  -13.9650   -0.6810  -23.3700 H   0  0  0  0  0  0  0  0  0  0  0  0
  -14.7240   -2.0200  -21.3420 H   0  0  0  0  0  0  0  0  0  0  0  0
  -10.7940   -3.7260  -21.0900 H   0  0  0  0  0  0  0  0  0  0  0  0
   -9.4190   -2.1850  -24.9770 H   0  0  0  0  0  0  0  0  0  0  0  0
   -8.3050   -0.9650  -24.3210 H   0  0  0  0  0  0  0  0  0  0  0  0
   -9.0620    0.8020  -25.8580 H   0  0  0  0  0  0  0  0  0  0  0  0
  -10.5800    1.5590  -25.2880 H   0  0  0  0  0  0  0  0  0  0  0  0
   -6.8800    1.9660  -24.7200 H   0  0  0  0  0  0  0  0  0  0  0  0
   -6.6020    3.2750  -22.2760 H   0  0  0  0  0  0  0  0  0  0  0  0
  -11.3560    1.1710  -22.6620 H   0  0  0  0  0  0  0  0  0  0  0  0
  -10.7340    1.9230  -21.2150 H   0  0  0  0  0  0  0  0  0  0  0  0
  -11.9900    3.3270  -23.6750 H   0  0  0  0  0  0  0  0  0  0  0  0
  -11.1270    4.2260  -22.4020 H   0  0  0  0  0  0  0  0  0  0  0  0
  -12.5990    3.3130  -22.0120 H   0  0  0  0  0  0  0  0  0  0  0  0
  1  2  1  0  0  0  0
  1 60  1  0  0  0  0
  1 61  1  0  0  0  0
  1 62  1  0  0  0  0
  2  3  1  0  0  0  0
  2 58  1  0  0  0  0
  2 59  1  0  0  0  0
  3  4  1  0  0  0  0
  3  7  1  0  0  0  0
  4  5  2  0  0  0  0
  5  6  1  0  0  0  0
  5 57  1  0  0  0  0
  6  7  2  0  0  0  0
  6 56  1  0  0  0  0
  7  8  1  0  0  0  0
  8  9  1  0  0  0  0
  8 54  1  0  0  0  0
  8 55  1  0  0  0  0
  9 10  1  0  0  0  0
  9 47  1  0  0  0  0
 10 11  1  0  0  0  0
 10 52  1  0  0  0  0
 10 53  1  0  0  0  0
 11 12  1  1  0  0  0
 11 32  1  0  0  0  0
 11 40  1  0  0  0  0
 12 13  2  0  0  0  0
 12 14  1  0  0  0  0
 14 15  1  0  0  0  0
 14 31  1  0  0  0  0
 15 16  2  0  0  0  0
 15 24  1  0  0  0  0
 16 17  1  0  0  0  0
 16 30  1  0  0  0  0
 17 18  2  0  0  0  0
 18 19  1  0  0  0  0
 18 29  1  0  0  0  0
 19 20  2  0  0  0  0
 19 24  1  0  0  0  0
 20 21  1  0  0  0  0
 20 28  1  0  0  0  0
 21 22  2  0  0  0  0
 21 27  1  0  0  0  0
 22 23  1  0  0  0  0
 22 26  1  0  0  0  0
 23 24  2  0  0  0  0
 23 25  1  0  0  0  0
 31 32  1  0  0  0  0
 31 38  1  0  0  0  0
 31 39  1  0  0  0  0
 32 33  1  0  0  0  0
 32 37  1  1  0  0  0
 33 34  1  0  0  0  0
 33 35  1  0  0  0  0
 33 36  1  0  0  0  0
 40 41  2  0  0  0  0
 40 46  1  0  0  0  0
 41 42  1  0  0  0  0
 41 51  1  0  0  0  0
 42 43  1  0  0  0  0
 42 44  2  0  0  0  0
 44 45  1  0  0  0  0
 44 50  1  0  0  0  0
 45 46  2  0  0  0  0
 45 49  1  0  0  0  0
 46 47  1  0  0  0  0
 47 48  2  0  0  0  0
M  END
>  <MODEL>
       1

$$$$
