tmp_first_model_2_26.pdb
 OpenBabel08272517383D

 55 60  0  0  1  0  0  0  0  0999 V2000
  -10.4400   -1.0810  -23.2880 C   0  0  0  0  0  0  0  0  0  0  0  0
   -8.9990   -1.4380  -22.9380 C   0  0  1  0  0  0  0  0  0  0  0  0
   -8.3670   -0.5040  -21.8930 C   0  0  0  0  0  0  0  0  0  0  0  0
   -7.3750   -1.3540  -21.2490 N   0  0  0  0  0  0  0  0  0  0  0  0
   -6.5740   -0.8710  -20.1890 C   0  0  0  0  0  0  0  0  0  0  0  0
   -6.8960   -1.1270  -18.8820 C   0  0  0  0  0  0  0  0  0  0  0  0
   -6.2450   -0.5850  -17.8220 N   0  0  0  0  0  0  0  0  0  0  0  0
   -5.2300    0.2060  -18.0780 C   0  0  0  0  0  0  0  0  0  0  0  0
   -4.7670    0.5160  -19.3890 C   0  0  0  0  0  0  0  0  0  0  0  0
   -3.6400    1.3450  -19.6230 C   0  0  0  0  0  0  0  0  0  0  0  0
   -3.2330    1.6090  -20.9020 C   0  0  0  0  0  0  0  0  0  0  0  0
   -3.9280    1.0620  -22.0060 C   0  0  0  0  0  0  0  0  0  0  0  0
   -5.0210    0.2560  -21.8060 C   0  0  0  0  0  0  0  0  0  0  0  0
   -5.4610   -0.0310  -20.4870 C   0  0  0  0  0  0  0  0  0  0  0  0
   -5.5500   -0.1810  -22.6480 H   0  0  0  0  0  0  0  0  0  0  0  0
   -3.5990    1.2860  -23.0170 H   0  0  0  0  0  0  0  0  0  0  0  0
   -2.3740    2.2480  -21.0820 H   0  0  0  0  0  0  0  0  0  0  0  0
   -3.1210    1.7660  -18.7660 H   0  0  0  0  0  0  0  0  0  0  0  0
   -4.7100    0.6400  -17.2230 H   0  0  0  0  0  0  0  0  0  0  0  0
   -7.7300   -1.7840  -18.6410 H   0  0  0  0  0  0  0  0  0  0  0  0
   -7.6330   -2.7020  -21.3930 C   0  0  0  0  0  0  0  0  0  0  0  0
   -6.9980   -3.5850  -20.8500 O   0  0  0  0  0  0  0  0  0  0  0  0
   -8.8210   -2.8810  -22.3410 C   0  0  1  0  0  0  0  0  0  0  0  0
  -10.0340   -3.3070  -21.4760 C   0  0  0  0  0  0  0  0  0  0  0  0
  -11.1540   -3.7980  -22.2550 N   0  0  0  0  0  0  0  0  0  0  0  0
  -12.5230   -3.7860  -21.7550 C   0  0  0  0  0  0  0  0  0  0  0  0
  -13.3810   -2.6960  -22.3230 C   0  0  0  0  0  0  0  0  0  0  0  0
  -14.0670   -2.6620  -23.5490 C   0  0  0  0  0  0  0  0  0  0  0  0
  -14.7730   -1.5400  -23.6220 N   0  0  0  0  0  0  0  0  0  0  0  0
  -14.4960   -0.9520  -22.4800 N   0  0  0  0  0  0  0  0  0  0  0  0
  -13.6740   -1.5840  -21.6620 N   0  0  0  0  0  0  0  0  0  0  0  0
  -14.9520   -0.0930  -22.2010 H   0  0  0  0  0  0  0  0  0  0  0  0
  -14.0800   -3.4020  -24.3330 H   0  0  0  0  0  0  0  0  0  0  0  0
  -12.5280   -3.7800  -20.6640 H   0  0  0  0  0  0  0  0  0  0  0  0
  -12.9710   -4.7130  -22.1120 H   0  0  0  0  0  0  0  0  0  0  0  0
  -10.9930   -4.4770  -23.4240 C   0  0  0  0  0  0  0  0  0  0  0  0
  -11.9770   -4.8520  -24.0520 O   0  0  0  0  0  0  0  0  0  0  0  0
   -9.5950   -4.7230  -23.8740 C   0  0  0  0  0  0  0  0  0  0  0  0
   -9.3610   -5.7040  -24.8360 C   0  0  0  0  0  0  0  0  0  0  0  0
   -8.0950   -5.8880  -25.3610 C   0  0  0  0  0  0  0  0  0  0  0  0
   -7.0740   -5.0470  -24.9280 C   0  0  0  0  0  0  0  0  0  0  0  0
   -5.8440   -5.2020  -25.4450 F   0  0  0  0  0  0  0  0  0  0  0  0
   -7.2740   -4.0930  -23.9470 C   0  0  0  0  0  0  0  0  0  0  0  0
   -8.5490   -3.9340  -23.3900 C   0  0  0  0  0  0  0  0  0  0  0  0
   -6.4290   -3.5210  -23.5810 H   0  0  0  0  0  0  0  0  0  0  0  0
   -7.8900   -6.6700  -26.0850 H   0  0  0  0  0  0  0  0  0  0  0  0
  -10.1980   -6.3220  -25.1480 H   0  0  0  0  0  0  0  0  0  0  0  0
  -10.3420   -2.4230  -20.9070 H   0  0  0  0  0  0  0  0  0  0  0  0
   -9.7150   -4.0780  -20.7730 H   0  0  0  0  0  0  0  0  0  0  0  0
   -9.1150   -0.1380  -21.1700 H   0  0  0  0  0  0  0  0  0  0  0  0
   -7.9040    0.3840  -22.3350 H   0  0  0  0  0  0  0  0  0  0  0  0
   -8.3820   -1.4030  -23.8480 H   0  0  0  0  0  0  0  0  0  0  0  0
  -10.5210   -0.1240  -23.8110 H   0  0  0  0  0  0  0  0  0  0  0  0
  -10.8770   -1.8620  -23.9180 H   0  0  0  0  0  0  0  0  0  0  0  0
  -11.0480   -1.0200  -22.3800 H   0  0  0  0  0  0  0  0  0  0  0  0
  1  2  1  0  0  0  0
  1 53  1  0  0  0  0
  1 54  1  0  0  0  0
  1 55  1  0  0  0  0
  2  3  1  0  0  0  0
  2 23  1  0  0  0  0
  2 52  1  6  0  0  0
  3  4  1  0  0  0  0
  3 50  1  0  0  0  0
  3 51  1  0  0  0  0
  4  5  1  0  0  0  0
  4 21  1  0  0  0  0
  5  6  2  0  0  0  0
  5 14  1  0  0  0  0
  6  7  1  0  0  0  0
  6 20  1  0  0  0  0
  7  8  2  0  0  0  0
  8  9  1  0  0  0  0
  8 19  1  0  0  0  0
  9 10  2  0  0  0  0
  9 14  1  0  0  0  0
 10 11  1  0  0  0  0
 10 18  1  0  0  0  0
 11 12  2  0  0  0  0
 11 17  1  0  0  0  0
 12 13  1  0  0  0  0
 12 16  1  0  0  0  0
 13 14  2  0  0  0  0
 13 15  1  0  0  0  0
 21 22  2  0  0  0  0
 23 21  1  1  0  0  0
 23 24  1  0  0  0  0
 23 44  1  0  0  0  0
 24 25  1  0  0  0  0
 24 48  1  0  0  0  0
 24 49  1  0  0  0  0
 25 26  1  0  0  0  0
 25 36  1  0  0  0  0
 26 27  1  0  0  0  0
 26 34  1  0  0  0  0
 26 35  1  0  0  0  0
 27 28  1  0  0  0  0
 27 31  2  0  0  0  0
 28 29  2  0  0  0  0
 28 33  1  0  0  0  0
 29 30  1  0  0  0  0
 30 31  1  0  0  0  0
 30 32  1  0  0  0  0
 36 37  2  0  0  0  0
 36 38  1  0  0  0  0
 38 39  2  0  0  0  0
 38 44  1  0  0  0  0
 39 40  1  0  0  0  0
 39 47  1  0  0  0  0
 40 41  2  0  0  0  0
 40 46  1  0  0  0  0
 41 42  1  0  0  0  0
 41 43  1  0  0  0  0
 43 44  2  0  0  0  0
 43 45  1  0  0  0  0
M  END
>  <MODEL>
       1

$$$$
