tmp_first_model_8_7.pdb
 OpenBabel08272521063D

 44 47  0  0  0  0  0  0  0  0999 V2000
  -10.0790   -5.9960  -27.5750 C   0  0  0  0  0  0  0  0  0  0  0  0
   -8.9630   -5.2960  -26.7990 C   0  0  0  0  0  0  0  0  0  0  0  0
   -9.2310   -5.5180  -25.0450 S   0  0  0  0  0  0  0  0  0  0  0  0
   -9.0470   -6.9210  -24.7250 O   0  0  0  0  0  0  0  0  0  0  0  0
  -10.4760   -4.8260  -24.7230 O   0  0  0  0  0  0  0  0  0  0  0  0
   -7.9600   -4.6960  -24.2740 N   0  0  0  0  0  0  0  0  0  0  0  0
   -7.9940   -3.2120  -24.3160 C   0  0  0  0  0  0  0  0  0  0  0  0
   -8.0670   -3.1500  -22.7690 C   0  0  0  0  0  0  0  0  0  0  0  0
   -8.0700   -4.6900  -22.7740 C   0  0  0  0  0  0  0  0  0  0  0  0
   -7.1860   -5.1300  -22.3110 H   0  0  0  0  0  0  0  0  0  0  0  0
   -8.9760   -5.1470  -22.3650 H   0  0  0  0  0  0  0  0  0  0  0  0
   -6.8680   -2.5290  -22.0670 C   0  0  0  0  0  0  0  0  0  0  0  0
   -5.7090   -2.8210  -22.2240 O   0  0  0  0  0  0  0  0  0  0  0  0
   -7.3660   -1.5390  -21.2160 N   0  0  0  0  0  0  0  0  0  0  0  0
   -6.6000   -0.8710  -20.2020 C   0  0  0  0  0  0  0  0  0  0  0  0
   -6.9140   -1.0680  -18.8790 C   0  0  0  0  0  0  0  0  0  0  0  0
   -6.2170   -0.5560  -17.8320 N   0  0  0  0  0  0  0  0  0  0  0  0
   -5.1830    0.2010  -18.1000 C   0  0  0  0  0  0  0  0  0  0  0  0
   -4.7550    0.5210  -19.4150 C   0  0  0  0  0  0  0  0  0  0  0  0
   -3.6260    1.3600  -19.6350 C   0  0  0  0  0  0  0  0  0  0  0  0
   -3.2430    1.6770  -20.9080 C   0  0  0  0  0  0  0  0  0  0  0  0
   -3.9840    1.1780  -22.0010 C   0  0  0  0  0  0  0  0  0  0  0  0
   -5.0660    0.3540  -21.8140 C   0  0  0  0  0  0  0  0  0  0  0  0
   -5.4850   -0.0130  -20.5060 C   0  0  0  0  0  0  0  0  0  0  0  0
   -5.5990   -0.0420  -22.6720 H   0  0  0  0  0  0  0  0  0  0  0  0
   -3.6620    1.4160  -23.0090 H   0  0  0  0  0  0  0  0  0  0  0  0
   -2.3740    2.3060  -21.0890 H   0  0  0  0  0  0  0  0  0  0  0  0
   -3.0870    1.7500  -18.7740 H   0  0  0  0  0  0  0  0  0  0  0  0
   -4.6310    0.6050  -17.2500 H   0  0  0  0  0  0  0  0  0  0  0  0
   -7.7630   -1.6870  -18.6030 H   0  0  0  0  0  0  0  0  0  0  0  0
   -8.7580   -1.3820  -21.4090 C   0  0  0  0  0  0  0  0  0  0  0  0
   -9.4350   -0.4590  -21.0140 O   0  0  0  0  0  0  0  0  0  0  0  0
   -9.1710   -2.4480  -22.1720 N   0  0  0  0  0  0  0  0  0  0  0  0
  -10.5610   -2.6980  -22.4960 C   0  0  0  0  0  0  0  0  0  0  0  0
  -10.7600   -2.4910  -23.5540 H   0  0  0  0  0  0  0  0  0  0  0  0
  -10.8320   -3.7410  -22.2840 H   0  0  0  0  0  0  0  0  0  0  0  0
  -11.1450   -2.0240  -21.8690 H   0  0  0  0  0  0  0  0  0  0  0  0
   -7.0660   -2.8250  -24.7350 H   0  0  0  0  0  0  0  0  0  0  0  0
   -8.8530   -2.7790  -24.8410 H   0  0  0  0  0  0  0  0  0  0  0  0
   -8.9670   -4.2130  -26.9680 H   0  0  0  0  0  0  0  0  0  0  0  0
   -7.9700   -5.7010  -27.0140 H   0  0  0  0  0  0  0  0  0  0  0  0
  -11.0430   -5.5810  -27.2820 H   0  0  0  0  0  0  0  0  0  0  0  0
   -9.9470   -5.8520  -28.6520 H   0  0  0  0  0  0  0  0  0  0  0  0
  -10.0950   -7.0700  -27.3630 H   0  0  0  0  0  0  0  0  0  0  0  0
  1  2  1  0  0  0  0
  1 42  1  0  0  0  0
  1 43  1  0  0  0  0
  1 44  1  0  0  0  0
  2  3  1  0  0  0  0
  2 40  1  0  0  0  0
  2 41  1  0  0  0  0
  3  4  2  0  0  0  0
  3  5  2  0  0  0  0
  3  6  1  0  0  0  0
  6  7  1  0  0  0  0
  6  9  1  0  0  0  0
  7  8  1  0  0  0  0
  7 38  1  0  0  0  0
  7 39  1  0  0  0  0
  8  9  1  0  0  0  0
  8 12  1  0  0  0  0
  8 33  1  0  0  0  0
  9 10  1  0  0  0  0
  9 11  1  0  0  0  0
 12 13  2  0  0  0  0
 12 14  1  0  0  0  0
 14 15  1  0  0  0  0
 14 31  1  0  0  0  0
 15 16  2  0  0  0  0
 15 24  1  0  0  0  0
 16 17  1  0  0  0  0
 16 30  1  0  0  0  0
 17 18  2  0  0  0  0
 18 19  1  0  0  0  0
 18 29  1  0  0  0  0
 19 20  2  0  0  0  0
 19 24  1  0  0  0  0
 20 21  1  0  0  0  0
 20 28  1  0  0  0  0
 21 22  2  0  0  0  0
 21 27  1  0  0  0  0
 22 23  1  0  0  0  0
 22 26  1  0  0  0  0
 23 24  2  0  0  0  0
 23 25  1  0  0  0  0
 31 32  2  0  0  0  0
 31 33  1  0  0  0  0
 33 34  1  0  0  0  0
 34 35  1  0  0  0  0
 34 36  1  0  0  0  0
 34 37  1  0  0  0  0
M  END
>  <MODEL>
       1

$$$$
