tmp_first_model_3_53.pdb
 OpenBabel08272518143D

 59 63  0  0  1  0  0  0  0  0999 V2000
  -13.5410   -0.5010  -25.0100 C   0  0  0  0  0  0  0  0  0  0  0  0
  -14.2650   -1.7320  -24.4630 C   0  0  0  0  0  0  0  0  0  0  0  0
  -13.3130   -2.6640  -23.8650 N   0  0  0  0  0  0  0  0  0  0  0  0
  -12.8250   -2.4070  -22.6250 C   0  0  0  0  0  0  0  0  0  0  0  0
  -12.9780   -1.3220  -22.0820 O   0  0  0  0  0  0  0  0  0  0  0  0
  -12.0740   -3.5350  -21.9170 C   0  0  0  0  0  0  0  0  0  0  0  0
  -10.6700   -3.6550  -22.2990 N   0  0  0  0  0  0  0  0  0  0  0  0
   -9.6240   -3.0420  -21.4950 C   0  0  0  0  0  0  0  0  0  0  0  0
   -8.3490   -2.6650  -22.3170 C   0  0  2  0  0  0  0  0  0  0  0  0
   -7.2150   -2.4770  -21.2980 C   0  0  0  0  0  0  0  0  0  0  0  0
   -6.5240   -3.3420  -20.7990 O   0  0  0  0  0  0  0  0  0  0  0  0
   -7.1100   -1.1300  -21.0270 N   0  0  0  0  0  0  0  0  0  0  0  0
   -6.3170   -0.6350  -19.9670 C   0  0  0  0  0  0  0  0  0  0  0  0
   -6.6120   -0.9110  -18.6590 C   0  0  0  0  0  0  0  0  0  0  0  0
   -5.9740   -0.3380  -17.6060 N   0  0  0  0  0  0  0  0  0  0  0  0
   -4.9840    0.4870  -17.8630 C   0  0  0  0  0  0  0  0  0  0  0  0
   -4.5220    0.7990  -19.1780 C   0  0  0  0  0  0  0  0  0  0  0  0
   -3.3940    1.6250  -19.4450 C   0  0  0  0  0  0  0  0  0  0  0  0
   -2.9910    1.8480  -20.7350 C   0  0  0  0  0  0  0  0  0  0  0  0
   -3.6860    1.2660  -21.8210 C   0  0  0  0  0  0  0  0  0  0  0  0
   -4.7770    0.4720  -21.5890 C   0  0  0  0  0  0  0  0  0  0  0  0
   -5.2170    0.2230  -20.2630 C   0  0  0  0  0  0  0  0  0  0  0  0
   -5.3050   -0.0000  -22.4100 H   0  0  0  0  0  0  0  0  0  0  0  0
   -3.3580    1.4430  -22.8410 H   0  0  0  0  0  0  0  0  0  0  0  0
   -2.1310    2.4800  -20.9400 H   0  0  0  0  0  0  0  0  0  0  0  0
   -2.8610    2.0800  -18.6130 H   0  0  0  0  0  0  0  0  0  0  0  0
   -4.4840    0.9310  -17.0000 H   0  0  0  0  0  0  0  0  0  0  0  0
   -7.4110   -1.6060  -18.4080 H   0  0  0  0  0  0  0  0  0  0  0  0
   -8.0380   -0.3070  -21.7920 C   0  0  0  0  0  0  0  0  0  0  0  0
   -8.4380   -1.2300  -22.9530 C   0  0  2  0  0  0  0  0  0  0  0  0
   -9.7480   -0.8480  -23.6390 C   0  0  0  0  0  0  0  0  0  0  0  0
   -9.6280    0.0620  -24.2400 H   0  0  0  0  0  0  0  0  0  0  0  0
  -10.5510   -0.6680  -22.9130 H   0  0  0  0  0  0  0  0  0  0  0  0
  -10.0780   -1.6390  -24.3220 H   0  0  0  0  0  0  0  0  0  0  0  0
   -7.6350   -1.2000  -23.7030 H   0  0  0  0  0  0  0  0  0  0  0  0
   -7.5740    0.6320  -22.1110 H   0  0  0  0  0  0  0  0  0  0  0  0
   -8.9150   -0.0340  -21.1830 H   0  0  0  0  0  0  0  0  0  0  0  0
   -7.9970   -3.7550  -23.3030 C   0  0  0  0  0  0  0  0  0  0  0  0
   -6.7080   -3.8610  -23.8520 C   0  0  0  0  0  0  0  0  0  0  0  0
   -6.4460   -4.8020  -24.8340 C   0  0  0  0  0  0  0  0  0  0  0  0
   -4.8660   -4.8690  -25.5580 Cl  0  0  0  0  0  0  0  0  0  0  0  0
   -7.4250   -5.6900  -25.2780 C   0  0  0  0  0  0  0  0  0  0  0  0
   -8.6750   -5.6230  -24.7000 C   0  0  0  0  0  0  0  0  0  0  0  0
   -8.9610   -4.6620  -23.7310 C   0  0  0  0  0  0  0  0  0  0  0  0
  -10.3680   -4.5780  -23.2540 C   0  0  0  0  0  0  0  0  0  0  0  0
  -11.2160   -5.3130  -23.7370 O   0  0  0  0  0  0  0  0  0  0  0  0
   -9.4660   -6.3030  -24.9970 H   0  0  0  0  0  0  0  0  0  0  0  0
   -7.2040   -6.4140  -26.0570 H   0  0  0  0  0  0  0  0  0  0  0  0
   -5.8930   -3.2430  -23.4890 H   0  0  0  0  0  0  0  0  0  0  0  0
   -9.3240   -3.7140  -20.6780 H   0  0  0  0  0  0  0  0  0  0  0  0
  -10.0590   -2.1500  -21.0310 H   0  0  0  0  0  0  0  0  0  0  0  0
  -12.5610   -4.4900  -22.1260 H   0  0  0  0  0  0  0  0  0  0  0  0
  -12.1760   -3.3030  -20.8590 H   0  0  0  0  0  0  0  0  0  0  0  0
  -13.2370   -3.6070  -24.2130 H   0  0  0  0  0  0  0  0  0  0  0  0
  -14.9800   -1.4300  -23.6860 H   0  0  0  0  0  0  0  0  0  0  0  0
  -14.8210   -2.2750  -25.2380 H   0  0  0  0  0  0  0  0  0  0  0  0
  -14.2380    0.3220  -25.1810 H   0  0  0  0  0  0  0  0  0  0  0  0
  -13.0200   -0.7350  -25.9450 H   0  0  0  0  0  0  0  0  0  0  0  0
  -12.8130   -0.1550  -24.2660 H   0  0  0  0  0  0  0  0  0  0  0  0
  1  2  1  0  0  0  0
  1 57  1  0  0  0  0
  1 58  1  0  0  0  0
  1 59  1  0  0  0  0
  2  3  1  0  0  0  0
  2 55  1  0  0  0  0
  2 56  1  0  0  0  0
  3  4  1  0  0  0  0
  3 54  1  0  0  0  0
  4  5  2  0  0  0  0
  4  6  1  0  0  0  0
  6  7  1  0  0  0  0
  6 52  1  0  0  0  0
  6 53  1  0  0  0  0
  7  8  1  0  0  0  0
  7 45  1  0  0  0  0
  8  9  1  0  0  0  0
  8 50  1  0  0  0  0
  8 51  1  0  0  0  0
  9 10  1  1  0  0  0
  9 30  1  0  0  0  0
  9 38  1  0  0  0  0
 10 11  2  0  0  0  0
 10 12  1  0  0  0  0
 12 13  1  0  0  0  0
 12 29  1  0  0  0  0
 13 14  2  0  0  0  0
 13 22  1  0  0  0  0
 14 15  1  0  0  0  0
 14 28  1  0  0  0  0
 15 16  2  0  0  0  0
 16 17  1  0  0  0  0
 16 27  1  0  0  0  0
 17 18  2  0  0  0  0
 17 22  1  0  0  0  0
 18 19  1  0  0  0  0
 18 26  1  0  0  0  0
 19 20  2  0  0  0  0
 19 25  1  0  0  0  0
 20 21  1  0  0  0  0
 20 24  1  0  0  0  0
 21 22  2  0  0  0  0
 21 23  1  0  0  0  0
 29 30  1  0  0  0  0
 29 36  1  0  0  0  0
 29 37  1  0  0  0  0
 30 31  1  0  0  0  0
 30 35  1  6  0  0  0
 31 32  1  0  0  0  0
 31 33  1  0  0  0  0
 31 34  1  0  0  0  0
 38 39  2  0  0  0  0
 38 44  1  0  0  0  0
 39 40  1  0  0  0  0
 39 49  1  0  0  0  0
 40 41  1  0  0  0  0
 40 42  2  0  0  0  0
 42 43  1  0  0  0  0
 42 48  1  0  0  0  0
 43 44  2  0  0  0  0
 43 47  1  0  0  0  0
 44 45  1  0  0  0  0
 45 46  2  0  0  0  0
M  END
>  <MODEL>
       1

$$$$
