tmp_first_model_10_51.pdb
 OpenBabel08272522163D

 50 52  0  0  0  0  0  0  0  0999 V2000
  -11.5810   -0.2650  -25.0490 C   0  0  0  0  0  0  0  0  0  0  0  0
  -10.7910   -0.0100  -24.0110 C   0  0  0  0  0  0  0  0  0  0  0  0
  -10.6820   -0.9500  -22.8230 C   0  0  0  0  0  0  0  0  0  0  0  0
   -9.3320   -1.4390  -22.5670 N   0  0  0  0  0  0  0  0  0  0  0  0
   -8.6440   -0.8370  -21.5280 C   0  0  0  0  0  0  0  0  0  0  0  0
   -9.1420    0.0460  -20.8300 O   0  0  0  0  0  0  0  0  0  0  0  0
   -7.4040   -1.3390  -21.2520 N   0  0  0  0  0  0  0  0  0  0  0  0
   -6.6320   -0.7970  -20.1940 C   0  0  0  0  0  0  0  0  0  0  0  0
   -6.9440   -1.0620  -18.8810 C   0  0  0  0  0  0  0  0  0  0  0  0
   -6.2340   -0.6000  -17.8260 N   0  0  0  0  0  0  0  0  0  0  0  0
   -5.2160    0.1900  -18.0840 C   0  0  0  0  0  0  0  0  0  0  0  0
   -4.8040    0.5650  -19.3970 C   0  0  0  0  0  0  0  0  0  0  0  0
   -3.6830    1.4070  -19.6350 C   0  0  0  0  0  0  0  0  0  0  0  0
   -3.3770    1.8120  -20.9080 C   0  0  0  0  0  0  0  0  0  0  0  0
   -4.1660    1.3890  -22.0010 C   0  0  0  0  0  0  0  0  0  0  0  0
   -5.1710    0.4660  -21.8090 C   0  0  0  0  0  0  0  0  0  0  0  0
   -5.5300    0.0540  -20.4950 C   0  0  0  0  0  0  0  0  0  0  0  0
   -5.7050    0.0700  -22.6680 H   0  0  0  0  0  0  0  0  0  0  0  0
   -3.9310    1.7350  -23.0070 H   0  0  0  0  0  0  0  0  0  0  0  0
   -2.5160    2.4500  -21.0880 H   0  0  0  0  0  0  0  0  0  0  0  0
   -3.0990    1.7320  -18.7800 H   0  0  0  0  0  0  0  0  0  0  0  0
   -4.6510    0.5730  -17.2340 H   0  0  0  0  0  0  0  0  0  0  0  0
   -7.8040   -1.6860  -18.6470 H   0  0  0  0  0  0  0  0  0  0  0  0
   -6.9680   -1.9340  -21.9430 H   0  0  0  0  0  0  0  0  0  0  0  0
   -8.7350   -2.2220  -23.6070 C   0  0  0  0  0  0  0  0  0  0  0  0
   -9.1750   -3.5220  -23.8630 C   0  0  0  0  0  0  0  0  0  0  0  0
   -8.5800   -4.2550  -24.8860 C   0  0  0  0  0  0  0  0  0  0  0  0
   -7.5860   -3.6980  -25.6820 C   0  0  0  0  0  0  0  0  0  0  0  0
   -7.2010   -2.3880  -25.4440 C   0  0  0  0  0  0  0  0  0  0  0  0
   -5.9710   -1.6630  -26.4350 Cl  0  0  0  0  0  0  0  0  0  0  0  0
   -7.7660   -1.6410  -24.4220 C   0  0  0  0  0  0  0  0  0  0  0  0
   -7.4820   -0.6010  -24.2730 H   0  0  0  0  0  0  0  0  0  0  0  0
   -7.1090   -4.2650  -26.4750 H   0  0  0  0  0  0  0  0  0  0  0  0
   -8.9060   -5.2730  -25.0750 H   0  0  0  0  0  0  0  0  0  0  0  0
   -9.9820   -3.9490  -23.2680 H   0  0  0  0  0  0  0  0  0  0  0  0
  -11.3260   -1.8120  -23.0150 H   0  0  0  0  0  0  0  0  0  0  0  0
  -11.0060   -0.4810  -21.8950 H   0  0  0  0  0  0  0  0  0  0  0  0
   -9.9010    1.1970  -24.1440 C   0  0  0  0  0  0  0  0  0  0  0  0
   -9.6280    1.6640  -25.2450 O   0  0  0  0  0  0  0  0  0  0  0  0
   -9.3890    1.7390  -23.0160 N   0  0  0  0  0  0  0  0  0  0  0  0
   -8.1610    2.4960  -23.1450 C   0  0  0  0  0  0  0  0  0  0  0  0
   -7.5470    2.7970  -21.7950 C   0  0  0  0  0  0  0  0  0  0  0  0
   -7.5740    1.9060  -21.1610 H   0  0  0  0  0  0  0  0  0  0  0  0
   -6.4970    3.0920  -21.8940 H   0  0  0  0  0  0  0  0  0  0  0  0
   -8.0620    3.5960  -21.2680 H   0  0  0  0  0  0  0  0  0  0  0  0
   -7.4340    1.9080  -23.7190 H   0  0  0  0  0  0  0  0  0  0  0  0
   -8.3710    3.3940  -23.7350 H   0  0  0  0  0  0  0  0  0  0  0  0
   -9.5950    1.3470  -22.1000 H   0  0  0  0  0  0  0  0  0  0  0  0
  -11.5880    0.3940  -25.9130 H   0  0  0  0  0  0  0  0  0  0  0  0
  -12.2460   -1.1230  -25.0510 H   0  0  0  0  0  0  0  0  0  0  0  0
  1  2  2  0  0  0  0
  1 49  1  0  0  0  0
  1 50  1  0  0  0  0
  2  3  1  0  0  0  0
  2 38  1  0  0  0  0
  3  4  1  0  0  0  0
  3 36  1  0  0  0  0
  3 37  1  0  0  0  0
  4  5  1  0  0  0  0
  4 25  1  0  0  0  0
  5  6  2  0  0  0  0
  5  7  1  0  0  0  0
  7  8  1  0  0  0  0
  7 24  1  0  0  0  0
  8  9  2  0  0  0  0
  8 17  1  0  0  0  0
  9 10  1  0  0  0  0
  9 23  1  0  0  0  0
 10 11  2  0  0  0  0
 11 12  1  0  0  0  0
 11 22  1  0  0  0  0
 12 13  2  0  0  0  0
 12 17  1  0  0  0  0
 13 14  1  0  0  0  0
 13 21  1  0  0  0  0
 14 15  2  0  0  0  0
 14 20  1  0  0  0  0
 15 16  1  0  0  0  0
 15 19  1  0  0  0  0
 16 17  2  0  0  0  0
 16 18  1  0  0  0  0
 25 26  2  0  0  0  0
 25 31  1  0  0  0  0
 26 27  1  0  0  0  0
 26 35  1  0  0  0  0
 27 28  2  0  0  0  0
 27 34  1  0  0  0  0
 28 29  1  0  0  0  0
 28 33  1  0  0  0  0
 29 30  1  0  0  0  0
 29 31  2  0  0  0  0
 31 32  1  0  0  0  0
 38 39  2  0  0  0  0
 38 40  1  0  0  0  0
 40 41  1  0  0  0  0
 40 48  1  0  0  0  0
 41 42  1  0  0  0  0
 41 46  1  0  0  0  0
 41 47  1  0  0  0  0
 42 43  1  0  0  0  0
 42 44  1  0  0  0  0
 42 45  1  0  0  0  0
M  END
>  <MODEL>
       1

$$$$
