tmp_first_model_2_35.pdb
 OpenBabel08272517383D

 40 42  0  0  0  0  0  0  0  0999 V2000
   -9.0940   -1.8490  -22.7610 O   0  0  0  0  0  0  0  0  0  0  0  0
   -8.1990   -1.0820  -22.4200 C   0  0  0  0  0  0  0  0  0  0  0  0
   -6.8410   -1.5940  -21.9570 C   0  0  0  0  0  0  0  0  0  0  0  0
   -6.3140   -0.8950  -20.7130 C   0  0  0  0  0  0  0  0  0  0  0  0
   -7.0080   -0.9970  -19.5320 C   0  0  0  0  0  0  0  0  0  0  0  0
   -6.6390   -0.4310  -18.3530 N   0  0  0  0  0  0  0  0  0  0  0  0
   -5.5480    0.2980  -18.3510 C   0  0  0  0  0  0  0  0  0  0  0  0
   -4.7340    0.5200  -19.4980 C   0  0  0  0  0  0  0  0  0  0  0  0
   -3.6060    1.3860  -19.4740 C   0  0  0  0  0  0  0  0  0  0  0  0
   -2.8800    1.6220  -20.6100 C   0  0  0  0  0  0  0  0  0  0  0  0
   -3.2500    1.0060  -21.8240 C   0  0  0  0  0  0  0  0  0  0  0  0
   -4.3370    0.1630  -21.8720 C   0  0  0  0  0  0  0  0  0  0  0  0
   -5.1150   -0.1060  -20.7140 C   0  0  0  0  0  0  0  0  0  0  0  0
   -4.6400   -0.2390  -22.8370 H   0  0  0  0  0  0  0  0  0  0  0  0
   -2.6950    1.2240  -22.7330 H   0  0  0  0  0  0  0  0  0  0  0  0
   -2.0320    2.3000  -20.5940 H   0  0  0  0  0  0  0  0  0  0  0  0
   -3.3590    1.8850  -18.5390 H   0  0  0  0  0  0  0  0  0  0  0  0
   -5.2680    0.7630  -17.4040 H   0  0  0  0  0  0  0  0  0  0  0  0
   -7.9220   -1.5930  -19.4860 H   0  0  0  0  0  0  0  0  0  0  0  0
   -6.1210   -1.5190  -22.7770 H   0  0  0  0  0  0  0  0  0  0  0  0
   -7.0060   -2.6590  -21.7690 H   0  0  0  0  0  0  0  0  0  0  0  0
   -8.2770    0.2790  -22.3940 N   0  0  0  0  0  0  0  0  0  0  0  0
   -9.4820    1.0510  -22.0110 C   0  0  0  0  0  0  0  0  0  0  0  0
   -9.5110    0.8910  -21.8400 C   0  0  0  0  0  0  0  0  0  0  0  0
   -9.0930    2.8740  -23.6830 C   0  0  0  0  0  0  0  0  0  0  0  0
   -8.5340    5.5430  -22.9890 C   0  0  0  0  0  0  0  0  0  0  0  0
   -8.1040    5.1230  -21.8180 F   0  0  0  0  0  0  0  0  0  0  0  0
   -7.5730    6.1660  -23.6370 F   0  0  0  0  0  0  0  0  0  0  0  0
   -9.6040    6.3010  -22.8530 F   0  0  0  0  0  0  0  0  0  0  0  0
   -7.8500    2.4140  -23.6620 C   0  0  0  0  0  0  0  0  0  0  0  0
   -7.3020    1.1140  -23.1440 C   0  0  0  0  0  0  0  0  0  0  0  0
   -6.9060    0.5460  -23.9910 H   0  0  0  0  0  0  0  0  0  0  0  0
   -6.4540    1.3340  -22.4890 H   0  0  0  0  0  0  0  0  0  0  0  0
   -7.0710    3.0680  -24.0490 H   0  0  0  0  0  0  0  0  0  0  0  0
   -9.9450    2.2440  -23.5400 H   0  0  0  0  0  0  0  0  0  0  0  0
   -9.2250    3.9410  -23.8870 H   0  0  0  0  0  0  0  0  0  0  0  0
   -8.8150    1.8910  -21.4100 H   0  0  0  0  0  0  0  0  0  0  0  0
  -10.4220    1.7920  -21.7960 H   0  0  0  0  0  0  0  0  0  0  0  0
  -10.1840    0.5720  -22.8860 H   0  0  0  0  0  0  0  0  0  0  0  0
   -9.9510    0.0050  -20.6320 H   0  0  0  0  0  0  0  0  0  0  0  0
  1  2  2  0  0  0  0
  2  3  1  0  0  0  0
  2 22  1  0  0  0  0
  3  4  1  0  0  0  0
  3 20  1  0  0  0  0
  3 21  1  0  0  0  0
  4  5  2  0  0  0  0
  4 13  1  0  0  0  0
  5  6  1  0  0  0  0
  5 19  1  0  0  0  0
  6  7  2  0  0  0  0
  7  8  1  0  0  0  0
  7 18  1  0  0  0  0
  8  9  2  0  0  0  0
  8 13  1  0  0  0  0
  9 10  1  0  0  0  0
  9 17  1  0  0  0  0
 10 11  2  0  0  0  0
 10 16  1  0  0  0  0
 11 12  1  0  0  0  0
 11 15  1  0  0  0  0
 12 13  2  0  0  0  0
 12 14  1  0  0  0  0
 22 23  1  0  0  0  0
 22 31  1  0  0  0  0
 23 24  1  0  0  0  0
 23 39  1  0  0  0  0
 23 40  1  0  0  0  0
 24 25  1  0  0  0  0
 24 37  1  0  0  0  0
 24 38  1  0  0  0  0
 25 26  1  0  0  0  0
 25 30  1  0  0  0  0
 25 36  1  0  0  0  0
 26 27  1  0  0  0  0
 26 28  1  0  0  0  0
 26 29  1  0  0  0  0
 30 31  1  0  0  0  0
 30 34  1  0  0  0  0
 30 35  1  0  0  0  0
 31 32  1  0  0  0  0
 31 33  1  0  0  0  0
M  END
>  <MODEL>
       1

$$$$
