tmp_first_model_16_28.pdb
 OpenBabel08282501503D

 64 68  0  0  1  0  0  0  0  0999 V2000
   -7.5470    2.4470  -22.0210 C   0  0  0  0  0  0  0  0  0  0  0  0
   -8.4870    2.2020  -23.0980 N   0  0  0  0  0  0  0  0  0  0  0  0
   -8.0710    1.7160  -24.2990 C   0  0  0  0  0  0  0  0  0  0  0  0
   -6.8980    1.5830  -24.6170 O   0  0  0  0  0  0  0  0  0  0  0  0
   -9.2430    1.2520  -25.1800 C   0  0  0  0  0  0  0  0  0  0  0  0
   -9.8700    0.1250  -24.5030 N   0  0  0  0  0  0  0  0  0  0  0  0
   -9.0870   -1.0730  -24.2620 C   0  0  0  0  0  0  0  0  0  0  0  0
   -9.3360   -1.7150  -22.8670 C   0  0  2  0  0  0  0  0  0  0  0  0
   -8.7480   -0.8620  -21.7080 C   0  0  0  0  0  0  0  0  0  0  0  0
   -9.3230    0.0240  -21.1040 O   0  0  0  0  0  0  0  0  0  0  0  0
   -7.4700   -1.3000  -21.4440 N   0  0  0  0  0  0  0  0  0  0  0  0
   -6.6900   -0.8830  -20.3320 C   0  0  0  0  0  0  0  0  0  0  0  0
   -7.0200   -1.2490  -19.0490 C   0  0  0  0  0  0  0  0  0  0  0  0
   -6.2730   -0.9310  -17.9640 N   0  0  0  0  0  0  0  0  0  0  0  0
   -5.1870   -0.2190  -18.1420 C   0  0  0  0  0  0  0  0  0  0  0  0
   -4.7180    0.1990  -19.4200 C   0  0  0  0  0  0  0  0  0  0  0  0
   -3.5300    0.9600  -19.5830 C   0  0  0  0  0  0  0  0  0  0  0  0
   -3.1190    1.3500  -20.8290 C   0  0  0  0  0  0  0  0  0  0  0  0
   -3.8600    0.9740  -21.9710 C   0  0  0  0  0  0  0  0  0  0  0  0
   -4.9970    0.2110  -21.8390 C   0  0  0  0  0  0  0  0  0  0  0  0
   -5.4710   -0.1710  -20.5550 C   0  0  0  0  0  0  0  0  0  0  0  0
   -5.5670   -0.0870  -22.7160 H   0  0  0  0  0  0  0  0  0  0  0  0
   -3.5450    1.3030  -22.9560 H   0  0  0  0  0  0  0  0  0  0  0  0
   -2.2130    1.9390  -20.9520 H   0  0  0  0  0  0  0  0  0  0  0  0
   -2.9730    1.2230  -18.6880 H   0  0  0  0  0  0  0  0  0  0  0  0
   -4.6100    0.0620  -17.2560 H   0  0  0  0  0  0  0  0  0  0  0  0
   -7.9120   -1.8400  -18.8400 H   0  0  0  0  0  0  0  0  0  0  0  0
   -7.0990   -2.4630  -22.2150 C   0  0  0  0  0  0  0  0  0  0  0  0
   -8.4590   -3.0010  -22.6990 C   0  0  2  0  0  0  0  0  0  0  0  0
   -8.3190   -3.8970  -23.9240 C   0  0  0  0  0  0  0  0  0  0  0  0
   -7.3190   -5.3340  -23.5970 S   0  0  0  0  0  0  0  0  0  0  0  0
   -7.9810   -6.1520  -22.5840 O   0  0  0  0  0  0  0  0  0  0  0  0
   -5.9290   -4.9370  -23.4290 O   0  0  0  0  0  0  0  0  0  0  0  0
   -7.4020   -6.0710  -25.0910 N   0  0  0  0  0  0  0  0  0  0  0  0
   -8.5860   -6.8800  -25.3730 C   0  0  0  0  0  0  0  0  0  0  0  0
   -8.9050   -7.4520  -24.4970 H   0  0  0  0  0  0  0  0  0  0  0  0
   -8.3230   -7.5620  -26.1830 H   0  0  0  0  0  0  0  0  0  0  0  0
   -9.4180   -6.2490  -25.7040 H   0  0  0  0  0  0  0  0  0  0  0  0
   -6.5250   -6.5560  -25.2380 H   0  0  0  0  0  0  0  0  0  0  0  0
   -9.2940   -4.2690  -24.2540 H   0  0  0  0  0  0  0  0  0  0  0  0
   -7.8130   -3.3910  -24.7560 H   0  0  0  0  0  0  0  0  0  0  0  0
   -8.8790   -3.6000  -21.8840 H   0  0  0  0  0  0  0  0  0  0  0  0
   -6.4530   -2.2040  -23.0690 H   0  0  0  0  0  0  0  0  0  0  0  0
   -6.5550   -3.1770  -21.5980 H   0  0  0  0  0  0  0  0  0  0  0  0
  -10.8420   -1.8230  -22.6930 C   0  0  0  0  0  0  0  0  0  0  0  0
  -11.4140   -2.7430  -21.8070 C   0  0  0  0  0  0  0  0  0  0  0  0
  -12.7780   -2.6990  -21.5530 C   0  0  0  0  0  0  0  0  0  0  0  0
  -13.5110   -3.7780  -20.4140 Cl  0  0  0  0  0  0  0  0  0  0  0  0
  -13.6180   -1.7690  -22.1550 C   0  0  0  0  0  0  0  0  0  0  0  0
  -13.0690   -0.8670  -23.0350 C   0  0  0  0  0  0  0  0  0  0  0  0
  -11.7010   -0.8830  -23.2960 C   0  0  0  0  0  0  0  0  0  0  0  0
  -11.2000    0.1850  -24.2160 C   0  0  0  0  0  0  0  0  0  0  0  0
  -11.9280    1.0620  -24.6610 O   0  0  0  0  0  0  0  0  0  0  0  0
  -13.6790   -0.1170  -23.5260 H   0  0  0  0  0  0  0  0  0  0  0  0
  -14.6780   -1.7770  -21.9250 H   0  0  0  0  0  0  0  0  0  0  0  0
  -10.7980   -3.4900  -21.3190 H   0  0  0  0  0  0  0  0  0  0  0  0
   -8.0310   -0.8160  -24.3750 H   0  0  0  0  0  0  0  0  0  0  0  0
   -9.3450   -1.8100  -25.0330 H   0  0  0  0  0  0  0  0  0  0  0  0
  -10.0290    2.0080  -25.2770 H   0  0  0  0  0  0  0  0  0  0  0  0
   -8.9010    0.9810  -26.1850 H   0  0  0  0  0  0  0  0  0  0  0  0
   -9.4450    2.0130  -22.8310 H   0  0  0  0  0  0  0  0  0  0  0  0
   -6.5560    2.3980  -22.4620 H   0  0  0  0  0  0  0  0  0  0  0  0
   -7.6350    1.6710  -21.2590 H   0  0  0  0  0  0  0  0  0  0  0  0
   -7.6940    3.4230  -21.5560 H   0  0  0  0  0  0  0  0  0  0  0  0
  1  2  1  0  0  0  0
  1 62  1  0  0  0  0
  1 63  1  0  0  0  0
  1 64  1  0  0  0  0
  2  3  1  0  0  0  0
  2 61  1  0  0  0  0
  3  4  2  0  0  0  0
  3  5  1  0  0  0  0
  5  6  1  0  0  0  0
  5 59  1  0  0  0  0
  5 60  1  0  0  0  0
  6  7  1  0  0  0  0
  6 52  1  0  0  0  0
  7  8  1  0  0  0  0
  7 57  1  0  0  0  0
  7 58  1  0  0  0  0
  8  9  1  1  0  0  0
  8 29  1  0  0  0  0
  8 45  1  0  0  0  0
  9 10  2  0  0  0  0
  9 11  1  0  0  0  0
 11 12  1  0  0  0  0
 11 28  1  0  0  0  0
 12 13  2  0  0  0  0
 12 21  1  0  0  0  0
 13 14  1  0  0  0  0
 13 27  1  0  0  0  0
 14 15  2  0  0  0  0
 15 16  1  0  0  0  0
 15 26  1  0  0  0  0
 16 17  2  0  0  0  0
 16 21  1  0  0  0  0
 17 18  1  0  0  0  0
 17 25  1  0  0  0  0
 18 19  2  0  0  0  0
 18 24  1  0  0  0  0
 19 20  1  0  0  0  0
 19 23  1  0  0  0  0
 20 21  2  0  0  0  0
 20 22  1  0  0  0  0
 28 29  1  0  0  0  0
 28 43  1  0  0  0  0
 28 44  1  0  0  0  0
 29 30  1  0  0  0  0
 29 42  1  1  0  0  0
 30 31  1  0  0  0  0
 30 40  1  0  0  0  0
 30 41  1  0  0  0  0
 31 32  2  0  0  0  0
 31 33  2  0  0  0  0
 31 34  1  0  0  0  0
 34 35  1  0  0  0  0
 34 39  1  0  0  0  0
 35 36  1  0  0  0  0
 35 37  1  0  0  0  0
 35 38  1  0  0  0  0
 45 46  2  0  0  0  0
 45 51  1  0  0  0  0
 46 47  1  0  0  0  0
 46 56  1  0  0  0  0
 47 48  1  0  0  0  0
 47 49  2  0  0  0  0
 49 50  1  0  0  0  0
 49 55  1  0  0  0  0
 50 51  2  0  0  0  0
 50 54  1  0  0  0  0
 51 52  1  0  0  0  0
 52 53  2  0  0  0  0
M  END
>  <MODEL>
       1

$$$$
