tmp_first_model_4_68.pdb
 OpenBabel08272518513D

 65 70  0  0  1  0  0  0  0  0999 V2000
   -9.0680    0.1900  -20.8170 O   0  0  0  0  0  0  0  0  0  0  0  0
   -8.2780   -0.1590  -21.6710 C   0  0  0  0  0  0  0  0  0  0  0  0
   -7.4550   -1.4190  -21.4010 C   0  0  0  0  0  0  0  0  0  0  0  0
   -6.4480   -1.1180  -20.3180 C   0  0  0  0  0  0  0  0  0  0  0  0
   -6.6470   -1.5170  -19.0220 C   0  0  0  0  0  0  0  0  0  0  0  0
   -5.7520   -1.3610  -18.0150 N   0  0  0  0  0  0  0  0  0  0  0  0
   -4.6440   -0.7250  -18.2970 C   0  0  0  0  0  0  0  0  0  0  0  0
   -4.3460   -0.1760  -19.5770 C   0  0  0  0  0  0  0  0  0  0  0  0
   -3.1610    0.5580  -19.8160 C   0  0  0  0  0  0  0  0  0  0  0  0
   -2.9040    1.0980  -21.0450 C   0  0  0  0  0  0  0  0  0  0  0  0
   -3.8440    0.9520  -22.0830 C   0  0  0  0  0  0  0  0  0  0  0  0
   -4.9880    0.2160  -21.8870 C   0  0  0  0  0  0  0  0  0  0  0  0
   -5.2790   -0.3590  -20.6200 C   0  0  0  0  0  0  0  0  0  0  0  0
   -5.6920    0.1190  -22.7040 H   0  0  0  0  0  0  0  0  0  0  0  0
   -3.6650    1.4260  -23.0430 H   0  0  0  0  0  0  0  0  0  0  0  0
   -1.9810    1.6360  -21.2270 H   0  0  0  0  0  0  0  0  0  0  0  0
   -2.4660    0.6920  -18.9950 H   0  0  0  0  0  0  0  0  0  0  0  0
   -3.9100   -0.6290  -17.4980 H   0  0  0  0  0  0  0  0  0  0  0  0
   -7.5820   -1.9990  -18.7300 H   0  0  0  0  0  0  0  0  0  0  0  0
   -6.9580   -1.8020  -22.2950 H   0  0  0  0  0  0  0  0  0  0  0  0
   -8.1570   -2.1800  -21.0400 H   0  0  0  0  0  0  0  0  0  0  0  0
   -8.0710    0.5660  -22.8490 N   0  0  0  0  0  0  0  0  0  0  0  0
   -8.0170   -0.0810  -24.1600 C   0  0  0  0  0  0  0  0  0  0  0  0
   -9.3870   -0.3020  -24.7790 C   0  0  0  0  0  0  0  0  0  0  0  0
   -9.6970    0.1460  -26.0600 C   0  0  0  0  0  0  0  0  0  0  0  0
  -10.9880    0.0110  -26.5670 C   0  0  0  0  0  0  0  0  0  0  0  0
  -11.9750   -0.6250  -25.8200 C   0  0  0  0  0  0  0  0  0  0  0  0
  -11.6490   -1.1030  -24.5580 C   0  0  0  0  0  0  0  0  0  0  0  0
  -12.8620   -1.8920  -23.5870 Cl  0  0  0  0  0  0  0  0  0  0  0  0
  -10.3760   -0.9420  -24.0300 C   0  0  0  0  0  0  0  0  0  0  0  0
  -10.1780   -1.2780  -23.0170 H   0  0  0  0  0  0  0  0  0  0  0  0
  -12.9870   -0.7530  -26.1910 H   0  0  0  0  0  0  0  0  0  0  0  0
  -11.2090    0.4230  -27.5490 H   0  0  0  0  0  0  0  0  0  0  0  0
   -8.9320    0.6120  -26.6800 H   0  0  0  0  0  0  0  0  0  0  0  0
   -7.3920    0.5200  -24.8270 H   0  0  0  0  0  0  0  0  0  0  0  0
   -7.5120   -1.0430  -24.0480 H   0  0  0  0  0  0  0  0  0  0  0  0
   -8.4180    1.9910  -22.8030 C   0  0  2  0  0  0  0  0  0  0  0  0
   -9.9200    2.3440  -22.7650 C   0  0  0  0  0  0  0  0  0  0  0  0
   -9.9280    3.8610  -23.1000 C   0  0  0  0  0  0  0  0  0  0  0  0
   -8.4440    4.1880  -23.2880 C   0  0  2  0  0  0  0  0  0  0  0  0
   -7.9240    2.9000  -23.9360 C   0  0  0  0  0  0  0  0  0  0  0  0
   -8.4540    2.6860  -24.8680 H   0  0  0  0  0  0  0  0  0  0  0  0
   -6.8360    2.8700  -24.0840 H   0  0  0  0  0  0  0  0  0  0  0  0
   -7.8160    4.1660  -21.8820 N   0  3  2  0  0  0  0  0  0  0  0  0
   -6.4940    4.8840  -21.7510 C   0  0  0  0  0  0  0  0  0  0  0  0
   -5.8600    4.9230  -20.3640 C   0  0  0  0  0  0  0  0  0  0  0  0
   -4.3890    5.3760  -20.2700 C   0  0  0  0  0  0  0  0  0  0  0  0
   -4.6930    6.3440  -19.2480 O   0  0  0  0  0  0  0  0  0  0  0  0
   -6.1030    6.0810  -19.3750 C   0  0  0  0  0  0  0  0  0  0  0  0
   -6.6420    6.9490  -19.7800 H   0  0  0  0  0  0  0  0  0  0  0  0
   -6.5490    5.7900  -18.4170 H   0  0  0  0  0  0  0  0  0  0  0  0
   -3.6930    4.6040  -19.9140 H   0  0  0  0  0  0  0  0  0  0  0  0
   -3.9670    5.8530  -21.1700 H   0  0  0  0  0  0  0  0  0  0  0  0
   -5.9740    3.9420  -19.9040 H   0  0  0  0  0  0  0  0  0  0  0  0
   -5.7710    4.3920  -22.4150 H   0  0  0  0  0  0  0  0  0  0  0  0
   -6.6140    5.9060  -22.1280 H   0  0  0  0  0  0  0  0  0  0  0  0
   -7.7760    2.6680  -21.5930 C   0  0  0  0  0  0  0  0  0  0  0  0
   -6.7350    2.3710  -21.4520 H   0  0  0  0  0  0  0  0  0  0  0  0
   -8.3550    2.4510  -20.6960 H   0  0  0  0  0  0  0  0  0  0  0  0
   -8.4940    4.5870  -21.2170 H   0  0  0  0  0  0  0  0  0  0  0  0
   -8.2250    5.1340  -23.7810 H   0  0  0  0  0  0  0  0  0  0  0  0
  -10.4840    4.0480  -24.0210 H   0  0  0  0  0  0  0  0  0  0  0  0
  -10.3730    4.4870  -22.3190 H   0  0  0  0  0  0  0  0  0  0  0  0
  -10.4360    1.7730  -23.5390 H   0  0  0  0  0  0  0  0  0  0  0  0
  -10.3570    2.0880  -21.7980 H   0  0  0  0  0  0  0  0  0  0  0  0
  1  2  2  0  0  0  0
  2  3  1  0  0  0  0
  2 22  1  0  0  0  0
  3  4  1  0  0  0  0
  3 20  1  0  0  0  0
  3 21  1  0  0  0  0
  4  5  2  0  0  0  0
  4 13  1  0  0  0  0
  5  6  1  0  0  0  0
  5 19  1  0  0  0  0
  6  7  2  0  0  0  0
  7  8  1  0  0  0  0
  7 18  1  0  0  0  0
  8  9  2  0  0  0  0
  8 13  1  0  0  0  0
  9 10  1  0  0  0  0
  9 17  1  0  0  0  0
 10 11  2  0  0  0  0
 10 16  1  0  0  0  0
 11 12  1  0  0  0  0
 11 15  1  0  0  0  0
 12 13  2  0  0  0  0
 12 14  1  0  0  0  0
 22 23  1  0  0  0  0
 23 24  1  0  0  0  0
 23 35  1  0  0  0  0
 23 36  1  0  0  0  0
 24 25  2  0  0  0  0
 24 30  1  0  0  0  0
 25 26  1  0  0  0  0
 25 34  1  0  0  0  0
 26 27  2  0  0  0  0
 26 33  1  0  0  0  0
 27 28  1  0  0  0  0
 27 32  1  0  0  0  0
 28 29  1  0  0  0  0
 28 30  2  0  0  0  0
 30 31  1  0  0  0  0
 37 22  1  6  0  0  0
 37 38  1  0  0  0  0
 37 41  1  0  0  0  0
 37 57  1  0  0  0  0
 38 39  1  0  0  0  0
 38 64  1  0  0  0  0
 38 65  1  0  0  0  0
 39 40  1  0  0  0  0
 39 62  1  0  0  0  0
 39 63  1  0  0  0  0
 40 41  1  0  0  0  0
 40 44  1  0  0  0  0
 40 61  1  6  0  0  0
 41 42  1  0  0  0  0
 41 43  1  0  0  0  0
 44 45  1  0  0  0  0
 44 57  1  0  0  0  0
 44 60  1  1  0  0  0
 45 46  1  0  0  0  0
 45 55  1  0  0  0  0
 45 56  1  0  0  0  0
 46 47  1  0  0  0  0
 46 49  1  0  0  0  0
 46 54  1  0  0  0  0
 47 48  1  0  0  0  0
 47 52  1  0  0  0  0
 47 53  1  0  0  0  0
 48 49  1  0  0  0  0
 49 50  1  0  0  0  0
 49 51  1  0  0  0  0
 57 58  1  0  0  0  0
 57 59  1  0  0  0  0
M  CHG  1  44   1
M  END
>  <MODEL>
       1

$$$$
