tmp_first_model_14_7.pdb
 OpenBabel08282500413D

 44 47  0  0  0  0  0  0  0  0999 V2000
  -10.1060   -5.9910  -27.5700 C   0  0  0  0  0  0  0  0  0  0  0  0
   -8.9830   -5.2960  -26.7950 C   0  0  0  0  0  0  0  0  0  0  0  0
   -9.2390   -5.5190  -25.0390 S   0  0  0  0  0  0  0  0  0  0  0  0
   -9.0650   -6.9240  -24.7220 O   0  0  0  0  0  0  0  0  0  0  0  0
  -10.4840   -4.8310  -24.7140 O   0  0  0  0  0  0  0  0  0  0  0  0
   -7.9650   -4.7000  -24.2720 N   0  0  0  0  0  0  0  0  0  0  0  0
   -8.0710   -4.6910  -22.7710 C   0  0  0  0  0  0  0  0  0  0  0  0
   -8.0690   -3.1510  -22.7670 C   0  0  0  0  0  0  0  0  0  0  0  0
   -7.9970   -3.2150  -24.3140 C   0  0  0  0  0  0  0  0  0  0  0  0
   -7.0680   -2.8280  -24.7330 H   0  0  0  0  0  0  0  0  0  0  0  0
   -8.8560   -2.7810  -24.8380 H   0  0  0  0  0  0  0  0  0  0  0  0
   -6.8690   -2.5290  -22.0680 C   0  0  0  0  0  0  0  0  0  0  0  0
   -5.7100   -2.8180  -22.2250 O   0  0  0  0  0  0  0  0  0  0  0  0
   -7.3660   -1.5350  -21.2190 N   0  0  0  0  0  0  0  0  0  0  0  0
   -6.5980   -0.8650  -20.2090 C   0  0  0  0  0  0  0  0  0  0  0  0
   -6.9190   -1.0500  -18.8860 C   0  0  0  0  0  0  0  0  0  0  0  0
   -6.2330   -0.5150  -17.8470 N   0  0  0  0  0  0  0  0  0  0  0  0
   -5.1850    0.2190  -18.1110 C   0  0  0  0  0  0  0  0  0  0  0  0
   -4.7460    0.5210  -19.4250 C   0  0  0  0  0  0  0  0  0  0  0  0
   -3.6140    1.3530  -19.6450 C   0  0  0  0  0  0  0  0  0  0  0  0
   -3.2220    1.6610  -20.9180 C   0  0  0  0  0  0  0  0  0  0  0  0
   -3.9540    1.1480  -22.0120 C   0  0  0  0  0  0  0  0  0  0  0  0
   -5.0480    0.3390  -21.8220 C   0  0  0  0  0  0  0  0  0  0  0  0
   -5.4750   -0.0170  -20.5140 C   0  0  0  0  0  0  0  0  0  0  0  0
   -5.5960   -0.0440  -22.6770 H   0  0  0  0  0  0  0  0  0  0  0  0
   -3.6460    1.4010  -23.0210 H   0  0  0  0  0  0  0  0  0  0  0  0
   -2.3670    2.3100  -21.0930 H   0  0  0  0  0  0  0  0  0  0  0  0
   -3.0840    1.7520  -18.7830 H   0  0  0  0  0  0  0  0  0  0  0  0
   -4.6290    0.6130  -17.2590 H   0  0  0  0  0  0  0  0  0  0  0  0
   -7.7590   -1.6780  -18.6040 H   0  0  0  0  0  0  0  0  0  0  0  0
   -8.7590   -1.3800  -21.4090 C   0  0  0  0  0  0  0  0  0  0  0  0
   -9.4350   -0.4570  -21.0140 O   0  0  0  0  0  0  0  0  0  0  0  0
   -9.1730   -2.4480  -22.1700 N   0  0  0  0  0  0  0  0  0  0  0  0
  -10.5630   -2.6990  -22.4930 C   0  0  0  0  0  0  0  0  0  0  0  0
  -10.8350   -3.7410  -22.2790 H   0  0  0  0  0  0  0  0  0  0  0  0
  -10.7640   -2.4930  -23.5510 H   0  0  0  0  0  0  0  0  0  0  0  0
  -11.1480   -2.0240  -21.8670 H   0  0  0  0  0  0  0  0  0  0  0  0
   -7.1860   -5.1300  -22.3080 H   0  0  0  0  0  0  0  0  0  0  0  0
   -8.9770   -5.1490  -22.3610 H   0  0  0  0  0  0  0  0  0  0  0  0
   -8.9750   -4.2130  -26.9650 H   0  0  0  0  0  0  0  0  0  0  0  0
   -7.9950   -5.7090  -27.0170 H   0  0  0  0  0  0  0  0  0  0  0  0
   -9.9600   -5.8560  -28.6450 H   0  0  0  0  0  0  0  0  0  0  0  0
  -11.0840   -5.5780  -27.2980 H   0  0  0  0  0  0  0  0  0  0  0  0
  -10.1170   -7.0650  -27.3530 H   0  0  0  0  0  0  0  0  0  0  0  0
  1  2  1  0  0  0  0
  1 42  1  0  0  0  0
  1 43  1  0  0  0  0
  1 44  1  0  0  0  0
  2  3  1  0  0  0  0
  2 40  1  0  0  0  0
  2 41  1  0  0  0  0
  3  4  2  0  0  0  0
  3  5  2  0  0  0  0
  3  6  1  0  0  0  0
  6  7  1  0  0  0  0
  6  9  1  0  0  0  0
  7  8  1  0  0  0  0
  7 38  1  0  0  0  0
  7 39  1  0  0  0  0
  8  9  1  0  0  0  0
  8 12  1  0  0  0  0
  8 33  1  0  0  0  0
  9 10  1  0  0  0  0
  9 11  1  0  0  0  0
 12 13  2  0  0  0  0
 12 14  1  0  0  0  0
 14 15  1  0  0  0  0
 14 31  1  0  0  0  0
 15 16  2  0  0  0  0
 15 24  1  0  0  0  0
 16 17  1  0  0  0  0
 16 30  1  0  0  0  0
 17 18  2  0  0  0  0
 18 19  1  0  0  0  0
 18 29  1  0  0  0  0
 19 20  2  0  0  0  0
 19 24  1  0  0  0  0
 20 21  1  0  0  0  0
 20 28  1  0  0  0  0
 21 22  2  0  0  0  0
 21 27  1  0  0  0  0
 22 23  1  0  0  0  0
 22 26  1  0  0  0  0
 23 24  2  0  0  0  0
 23 25  1  0  0  0  0
 31 32  2  0  0  0  0
 31 33  1  0  0  0  0
 33 34  1  0  0  0  0
 34 35  1  0  0  0  0
 34 36  1  0  0  0  0
 34 37  1  0  0  0  0
M  END
>  <MODEL>
       1

$$$$
