tmp_first_model_9_82.pdb
 OpenBabel08272521403D

 54 57  0  0  1  0  0  0  0  0999 V2000
  -10.7230    0.3900  -25.3860 C   0  0  0  0  0  0  0  0  0  0  0  0
   -9.8310   -0.6010  -24.9250 O   0  0  0  0  0  0  0  0  0  0  0  0
   -8.4990   -0.5210  -25.2210 C   0  0  0  0  0  0  0  0  0  0  0  0
   -7.9440    0.5080  -25.9870 C   0  0  0  0  0  0  0  0  0  0  0  0
   -6.5730    0.5270  -26.2380 C   0  0  0  0  0  0  0  0  0  0  0  0
   -5.7490   -0.4650  -25.7280 C   0  0  0  0  0  0  0  0  0  0  0  0
   -6.3150   -1.4740  -24.9550 C   0  0  0  0  0  0  0  0  0  0  0  0
   -7.6780   -1.5430  -24.6900 C   0  0  0  0  0  0  0  0  0  0  0  0
   -8.2980   -2.6710  -23.8510 C   0  0  1  0  0  0  0  0  0  0  0  0
   -9.1410   -3.6540  -24.6930 C   0  0  0  0  0  0  0  0  0  0  0  0
   -8.4100   -4.8650  -25.2730 C   0  0  1  0  0  0  0  0  0  0  0  0
   -7.5080   -4.5370  -26.4630 C   0  0  0  0  0  0  0  0  0  0  0  0
   -6.6820   -3.8740  -26.1900 H   0  0  0  0  0  0  0  0  0  0  0  0
   -7.0750   -5.4490  -26.8900 H   0  0  0  0  0  0  0  0  0  0  0  0
   -8.0720   -4.0330  -27.2550 H   0  0  0  0  0  0  0  0  0  0  0  0
   -7.6720   -5.5500  -24.1300 C   0  0  0  0  0  0  0  0  0  0  0  0
   -6.7090   -4.6180  -23.4100 C   0  0  0  0  0  0  0  0  0  0  0  0
   -7.3480   -3.3690  -22.9700 N   0  0  0  0  0  0  0  0  0  0  0  0
   -6.7440   -2.7420  -21.8860 C   0  0  0  0  0  0  0  0  0  0  0  0
   -5.7290   -3.1950  -21.3870 O   0  0  0  0  0  0  0  0  0  0  0  0
   -7.4020   -1.4740  -21.2830 C   0  0  0  0  0  0  0  0  0  0  0  0
   -6.5760   -0.8350  -20.1870 C   0  0  0  0  0  0  0  0  0  0  0  0
   -6.8710   -1.0490  -18.8660 C   0  0  0  0  0  0  0  0  0  0  0  0
   -6.1840   -0.5420  -17.8060 N   0  0  0  0  0  0  0  0  0  0  0  0
   -5.1570    0.2240  -18.0690 C   0  0  0  0  0  0  0  0  0  0  0  0
   -4.7190    0.5310  -19.3840 C   0  0  0  0  0  0  0  0  0  0  0  0
   -3.5920    1.3560  -19.6240 C   0  0  0  0  0  0  0  0  0  0  0  0
   -3.1930    1.6350  -20.9010 C   0  0  0  0  0  0  0  0  0  0  0  0
   -3.9100    1.0950  -21.9920 C   0  0  0  0  0  0  0  0  0  0  0  0
   -5.0050    0.2890  -21.7900 C   0  0  0  0  0  0  0  0  0  0  0  0
   -5.4450   -0.0140  -20.4770 C   0  0  0  0  0  0  0  0  0  0  0  0
   -5.5370   -0.1210  -22.6460 H   0  0  0  0  0  0  0  0  0  0  0  0
   -3.5860    1.3150  -23.0050 H   0  0  0  0  0  0  0  0  0  0  0  0
   -2.3320    2.2740  -21.0880 H   0  0  0  0  0  0  0  0  0  0  0  0
   -3.0600    1.7730  -18.7710 H   0  0  0  0  0  0  0  0  0  0  0  0
   -4.6040    0.6290  -17.2160 H   0  0  0  0  0  0  0  0  0  0  0  0
   -7.7190   -1.6710  -18.5840 H   0  0  0  0  0  0  0  0  0  0  0  0
   -7.6270   -0.7390  -22.0680 H   0  0  0  0  0  0  0  0  0  0  0  0
   -8.3720   -1.7760  -20.8620 H   0  0  0  0  0  0  0  0  0  0  0  0
   -6.3150   -5.1130  -22.5200 H   0  0  0  0  0  0  0  0  0  0  0  0
   -5.8290   -4.4360  -24.0470 H   0  0  0  0  0  0  0  0  0  0  0  0
   -8.4010   -5.9330  -23.4100 H   0  0  0  0  0  0  0  0  0  0  0  0
   -7.1270   -6.4210  -24.5080 H   0  0  0  0  0  0  0  0  0  0  0  0
   -9.1800   -5.5590  -25.6450 H   0  0  0  0  0  0  0  0  0  0  0  0
   -9.6150   -3.0920  -25.4980 H   0  0  0  0  0  0  0  0  0  0  0  0
   -9.9590   -4.0210  -24.0620 H   0  0  0  0  0  0  0  0  0  0  0  0
   -9.0160   -2.1790  -23.1900 H   0  0  0  0  0  0  0  0  0  0  0  0
   -5.6640   -2.2490  -24.5670 H   0  0  0  0  0  0  0  0  0  0  0  0
   -4.6760   -0.4610  -25.9140 H   0  0  0  0  0  0  0  0  0  0  0  0
   -6.1410    1.3280  -26.8290 H   0  0  0  0  0  0  0  0  0  0  0  0
   -8.5700    1.3010  -26.3910 H   0  0  0  0  0  0  0  0  0  0  0  0
  -11.6940    0.0970  -24.9960 H   0  0  0  0  0  0  0  0  0  0  0  0
  -10.7810    0.4490  -26.4800 H   0  0  0  0  0  0  0  0  0  0  0  0
  -10.5130    1.3990  -25.0100 H   0  0  0  0  0  0  0  0  0  0  0  0
  1  2  1  0  0  0  0
  1 52  1  0  0  0  0
  1 53  1  0  0  0  0
  1 54  1  0  0  0  0
  2  3  1  0  0  0  0
  3  4  2  0  0  0  0
  3  8  1  0  0  0  0
  4  5  1  0  0  0  0
  4 51  1  0  0  0  0
  5  6  2  0  0  0  0
  5 50  1  0  0  0  0
  6  7  1  0  0  0  0
  6 49  1  0  0  0  0
  7  8  2  0  0  0  0
  7 48  1  0  0  0  0
  8  9  1  0  0  0  0
  9 10  1  0  0  0  0
  9 18  1  0  0  0  0
  9 47  1  1  0  0  0
 10 11  1  0  0  0  0
 10 45  1  0  0  0  0
 10 46  1  0  0  0  0
 11 12  1  0  0  0  0
 11 16  1  0  0  0  0
 11 44  1  6  0  0  0
 12 13  1  0  0  0  0
 12 14  1  0  0  0  0
 12 15  1  0  0  0  0
 16 17  1  0  0  0  0
 16 42  1  0  0  0  0
 16 43  1  0  0  0  0
 17 18  1  0  0  0  0
 17 40  1  0  0  0  0
 17 41  1  0  0  0  0
 18 19  1  0  0  0  0
 19 20  2  0  0  0  0
 19 21  1  0  0  0  0
 21 22  1  0  0  0  0
 21 38  1  0  0  0  0
 21 39  1  0  0  0  0
 22 23  2  0  0  0  0
 22 31  1  0  0  0  0
 23 24  1  0  0  0  0
 23 37  1  0  0  0  0
 24 25  2  0  0  0  0
 25 26  1  0  0  0  0
 25 36  1  0  0  0  0
 26 27  2  0  0  0  0
 26 31  1  0  0  0  0
 27 28  1  0  0  0  0
 27 35  1  0  0  0  0
 28 29  2  0  0  0  0
 28 34  1  0  0  0  0
 29 30  1  0  0  0  0
 29 33  1  0  0  0  0
 30 31  2  0  0  0  0
 30 32  1  0  0  0  0
M  END
>  <MODEL>
       1

$$$$
