tmp_first_model_20_79.pdb
 OpenBabel08282503553D

 45 49  0  0  0  0  0  0  0  0999 V2000
  -10.5680   -2.7150  -22.4870 C   0  0  0  0  0  0  0  0  0  0  0  0
   -9.1730   -2.4530  -22.1700 N   0  0  0  0  0  0  0  0  0  0  0  0
   -8.7650   -1.3930  -21.3980 C   0  0  0  0  0  0  0  0  0  0  0  0
   -9.4440   -0.4790  -20.9940 O   0  0  0  0  0  0  0  0  0  0  0  0
   -7.3680   -1.5410  -21.2120 N   0  0  0  0  0  0  0  0  0  0  0  0
   -6.5990   -0.8680  -20.1990 C   0  0  0  0  0  0  0  0  0  0  0  0
   -6.9130   -1.0600  -18.8750 C   0  0  0  0  0  0  0  0  0  0  0  0
   -6.2190   -0.5410  -17.8280 N   0  0  0  0  0  0  0  0  0  0  0  0
   -5.1790    0.2050  -18.0950 C   0  0  0  0  0  0  0  0  0  0  0  0
   -4.7460    0.5200  -19.4120 C   0  0  0  0  0  0  0  0  0  0  0  0
   -3.6140    1.3540  -19.6370 C   0  0  0  0  0  0  0  0  0  0  0  0
   -3.2240    1.6590  -20.9110 C   0  0  0  0  0  0  0  0  0  0  0  0
   -3.9550    1.1450  -22.0050 C   0  0  0  0  0  0  0  0  0  0  0  0
   -5.0490    0.3380  -21.8110 C   0  0  0  0  0  0  0  0  0  0  0  0
   -5.4760   -0.0170  -20.5010 C   0  0  0  0  0  0  0  0  0  0  0  0
   -5.6000   -0.0410  -22.6650 H   0  0  0  0  0  0  0  0  0  0  0  0
   -3.6490    1.3990  -23.0150 H   0  0  0  0  0  0  0  0  0  0  0  0
   -2.3690    2.3060  -21.0930 H   0  0  0  0  0  0  0  0  0  0  0  0
   -3.0750    1.7500  -18.7800 H   0  0  0  0  0  0  0  0  0  0  0  0
   -4.6250    0.6060  -17.2450 H   0  0  0  0  0  0  0  0  0  0  0  0
   -7.7580   -1.6830  -18.5980 H   0  0  0  0  0  0  0  0  0  0  0  0
   -6.8680   -2.5240  -22.0650 C   0  0  0  0  0  0  0  0  0  0  0  0
   -5.7040   -2.8070  -22.2260 O   0  0  0  0  0  0  0  0  0  0  0  0
   -8.0670   -3.1530  -22.7640 C   0  0  0  0  0  0  0  0  0  0  0  0
   -7.9930   -3.2310  -24.3120 C   0  0  0  0  0  0  0  0  0  0  0  0
   -7.9500   -4.7160  -24.2590 N   0  0  0  0  0  0  0  0  0  0  0  0
   -9.2120   -5.5450  -25.0260 S   0  0  0  0  0  0  0  0  0  0  0  0
  -10.4620   -4.8800  -24.6690 O   0  0  0  0  0  0  0  0  0  0  0  0
   -9.0100   -6.9460  -24.7280 O   0  0  0  0  0  0  0  0  0  0  0  0
   -9.0120   -5.2800  -26.7720 C   0  0  0  0  0  0  0  0  0  0  0  0
   -9.7680   -4.1430  -27.4110 C   0  0  0  0  0  0  0  0  0  0  0  0
  -10.2440   -5.5500  -27.6080 C   0  0  0  0  0  0  0  0  0  0  0  0
  -10.0960   -6.0220  -28.5780 H   0  0  0  0  0  0  0  0  0  0  0  0
  -11.1440   -5.8750  -27.0850 H   0  0  0  0  0  0  0  0  0  0  0  0
   -9.2880   -3.6440  -28.2490 H   0  0  0  0  0  0  0  0  0  0  0  0
  -10.3440   -3.4930  -26.7520 H   0  0  0  0  0  0  0  0  0  0  0  0
   -8.0300   -5.5690  -27.1380 H   0  0  0  0  0  0  0  0  0  0  0  0
   -8.0650   -4.6940  -22.7580 C   0  0  0  0  0  0  0  0  0  0  0  0
   -7.1850   -5.1260  -22.2850 H   0  0  0  0  0  0  0  0  0  0  0  0
   -8.9770   -5.1380  -22.3530 H   0  0  0  0  0  0  0  0  0  0  0  0
   -8.8520   -2.8120  -24.8470 H   0  0  0  0  0  0  0  0  0  0  0  0
   -7.0680   -2.8410  -24.7310 H   0  0  0  0  0  0  0  0  0  0  0  0
  -10.7680   -2.5480  -23.5530 H   0  0  0  0  0  0  0  0  0  0  0  0
  -11.1580   -2.0210  -21.8870 H   0  0  0  0  0  0  0  0  0  0  0  0
  -10.8460   -3.7480  -22.2390 H   0  0  0  0  0  0  0  0  0  0  0  0
  1  2  1  0  0  0  0
  1 43  1  0  0  0  0
  1 44  1  0  0  0  0
  1 45  1  0  0  0  0
  2  3  1  0  0  0  0
  2 24  1  0  0  0  0
  3  4  2  0  0  0  0
  3  5  1  0  0  0  0
  5  6  1  0  0  0  0
  5 22  1  0  0  0  0
  6  7  2  0  0  0  0
  6 15  1  0  0  0  0
  7  8  1  0  0  0  0
  7 21  1  0  0  0  0
  8  9  2  0  0  0  0
  9 10  1  0  0  0  0
  9 20  1  0  0  0  0
 10 11  2  0  0  0  0
 10 15  1  0  0  0  0
 11 12  1  0  0  0  0
 11 19  1  0  0  0  0
 12 13  2  0  0  0  0
 12 18  1  0  0  0  0
 13 14  1  0  0  0  0
 13 17  1  0  0  0  0
 14 15  2  0  0  0  0
 14 16  1  0  0  0  0
 22 23  2  0  0  0  0
 22 24  1  0  0  0  0
 24 25  1  0  0  0  0
 24 38  1  0  0  0  0
 25 26  1  0  0  0  0
 25 41  1  0  0  0  0
 25 42  1  0  0  0  0
 26 27  1  0  0  0  0
 26 38  1  0  0  0  0
 27 28  2  0  0  0  0
 27 29  2  0  0  0  0
 27 30  1  0  0  0  0
 30 31  1  0  0  0  0
 30 32  1  0  0  0  0
 30 37  1  0  0  0  0
 31 32  1  0  0  0  0
 31 35  1  0  0  0  0
 31 36  1  0  0  0  0
 32 33  1  0  0  0  0
 32 34  1  0  0  0  0
 38 39  1  0  0  0  0
 38 40  1  0  0  0  0
M  END
>  <MODEL>
       1

$$$$
