tmp_first_model_6_51.pdb
 OpenBabel08272519583D

 50 52  0  0  0  0  0  0  0  0999 V2000
  -11.5640   -1.0090  -24.4980 C   0  0  0  0  0  0  0  0  0  0  0  0
  -10.8510   -0.0490  -23.9150 C   0  0  0  0  0  0  0  0  0  0  0  0
   -9.3430   -0.0590  -24.0870 C   0  0  0  0  0  0  0  0  0  0  0  0
   -8.6370   -0.9710  -23.1650 N   0  0  0  0  0  0  0  0  0  0  0  0
   -7.9530   -0.3640  -22.1230 C   0  0  0  0  0  0  0  0  0  0  0  0
   -7.7660    0.8370  -22.0630 O   0  0  0  0  0  0  0  0  0  0  0  0
   -7.4160   -1.2390  -21.2050 N   0  0  0  0  0  0  0  0  0  0  0  0
   -6.6030   -0.7730  -20.1540 C   0  0  0  0  0  0  0  0  0  0  0  0
   -6.8850   -1.1030  -18.8510 C   0  0  0  0  0  0  0  0  0  0  0  0
   -6.2040   -0.6260  -17.7790 N   0  0  0  0  0  0  0  0  0  0  0  0
   -5.1980    0.1840  -18.0150 C   0  0  0  0  0  0  0  0  0  0  0  0
   -4.7640    0.5600  -19.3140 C   0  0  0  0  0  0  0  0  0  0  0  0
   -3.6530    1.4190  -19.5250 C   0  0  0  0  0  0  0  0  0  0  0  0
   -3.2730    1.7680  -20.7930 C   0  0  0  0  0  0  0  0  0  0  0  0
   -3.9770    1.2590  -21.9050 C   0  0  0  0  0  0  0  0  0  0  0  0
   -5.0300    0.3990  -21.7300 C   0  0  0  0  0  0  0  0  0  0  0  0
   -5.4740    0.0600  -20.4240 C   0  0  0  0  0  0  0  0  0  0  0  0
   -5.5200   -0.0270  -22.5950 H   0  0  0  0  0  0  0  0  0  0  0  0
   -3.6800    1.5320  -22.9120 H   0  0  0  0  0  0  0  0  0  0  0  0
   -2.4270    2.4270  -20.9580 H   0  0  0  0  0  0  0  0  0  0  0  0
   -3.1210    1.7950  -18.6570 H   0  0  0  0  0  0  0  0  0  0  0  0
   -4.6680    0.5780  -17.1510 H   0  0  0  0  0  0  0  0  0  0  0  0
   -7.7240   -1.7600  -18.6190 H   0  0  0  0  0  0  0  0  0  0  0  0
   -7.8090   -2.1680  -21.1260 H   0  0  0  0  0  0  0  0  0  0  0  0
   -9.1990   -2.2730  -22.9590 C   0  0  0  0  0  0  0  0  0  0  0  0
   -8.9090   -3.3560  -23.7860 C   0  0  0  0  0  0  0  0  0  0  0  0
   -9.7050   -4.4980  -23.7010 C   0  0  0  0  0  0  0  0  0  0  0  0
  -10.8170   -4.5350  -22.8640 C   0  0  0  0  0  0  0  0  0  0  0  0
  -11.0770   -3.4390  -22.0470 C   0  0  0  0  0  0  0  0  0  0  0  0
  -12.5850   -3.2850  -21.1850 Cl  0  0  0  0  0  0  0  0  0  0  0  0
  -10.1930   -2.3750  -21.9870 C   0  0  0  0  0  0  0  0  0  0  0  0
  -10.3740   -1.5520  -21.2990 H   0  0  0  0  0  0  0  0  0  0  0  0
  -11.4840   -5.3880  -22.8890 H   0  0  0  0  0  0  0  0  0  0  0  0
   -9.4830   -5.3630  -24.3240 H   0  0  0  0  0  0  0  0  0  0  0  0
   -8.0920   -3.2980  -24.5020 H   0  0  0  0  0  0  0  0  0  0  0  0
   -8.9210    0.9340  -23.9160 H   0  0  0  0  0  0  0  0  0  0  0  0
   -9.1270   -0.3660  -25.1260 H   0  0  0  0  0  0  0  0  0  0  0  0
  -11.5420    0.9660  -23.0420 C   0  0  0  0  0  0  0  0  0  0  0  0
  -10.9800    1.5180  -22.0950 O   0  0  0  0  0  0  0  0  0  0  0  0
  -12.7860    1.1900  -23.4010 N   0  0  0  0  0  0  0  0  0  0  0  0
  -13.8050    1.7460  -22.5330 C   0  0  0  0  0  0  0  0  0  0  0  0
  -13.6160    1.9990  -22.5470 C   0  0  0  0  0  0  0  0  0  0  0  0
  -14.5470    2.4950  -21.8310 H   0  0  0  0  0  0  0  0  0  0  0  0
  -13.1890    1.5640  -21.5070 H   0  0  0  0  0  0  0  0  0  0  0  0
  -14.8250    0.5500  -22.3630 H   0  0  0  0  0  0  0  0  0  0  0  0
  -14.3730    2.3110  -23.4420 H   0  0  0  0  0  0  0  0  0  0  0  0
  -12.8820    3.3800  -22.4360 H   0  0  0  0  0  0  0  0  0  0  0  0
  -13.1020    0.6920  -24.2100 H   0  0  0  0  0  0  0  0  0  0  0  0
  -12.6460   -1.1150  -24.4160 H   0  0  0  0  0  0  0  0  0  0  0  0
  -11.0270   -1.7910  -25.0340 H   0  0  0  0  0  0  0  0  0  0  0  0
  1  2  2  0  0  0  0
  1 49  1  0  0  0  0
  1 50  1  0  0  0  0
  2  3  1  0  0  0  0
  2 38  1  0  0  0  0
  3  4  1  0  0  0  0
  3 36  1  0  0  0  0
  3 37  1  0  0  0  0
  4  5  1  0  0  0  0
  4 25  1  0  0  0  0
  5  6  2  0  0  0  0
  5  7  1  0  0  0  0
  7  8  1  0  0  0  0
  7 24  1  0  0  0  0
  8  9  2  0  0  0  0
  8 17  1  0  0  0  0
  9 10  1  0  0  0  0
  9 23  1  0  0  0  0
 10 11  2  0  0  0  0
 11 12  1  0  0  0  0
 11 22  1  0  0  0  0
 12 13  2  0  0  0  0
 12 17  1  0  0  0  0
 13 14  1  0  0  0  0
 13 21  1  0  0  0  0
 14 15  2  0  0  0  0
 14 20  1  0  0  0  0
 15 16  1  0  0  0  0
 15 19  1  0  0  0  0
 16 17  2  0  0  0  0
 16 18  1  0  0  0  0
 25 26  2  0  0  0  0
 25 31  1  0  0  0  0
 26 27  1  0  0  0  0
 26 35  1  0  0  0  0
 27 28  2  0  0  0  0
 27 34  1  0  0  0  0
 28 29  1  0  0  0  0
 28 33  1  0  0  0  0
 29 30  1  0  0  0  0
 29 31  2  0  0  0  0
 31 32  1  0  0  0  0
 38 39  2  0  0  0  0
 38 40  1  0  0  0  0
 40 41  1  0  0  0  0
 40 48  1  0  0  0  0
 41 42  1  0  0  0  0
 41 46  1  0  0  0  0
 41 47  1  0  0  0  0
 42 43  1  0  0  0  0
 42 44  1  0  0  0  0
 42 45  1  0  0  0  0
M  END
>  <MODEL>
       1

$$$$
