tmp_first_model_15_68.pdb
 OpenBabel08282501153D

 65 70  0  0  1  0  0  0  0  0999 V2000
   -8.6720    0.6040  -21.3300 O   0  0  0  0  0  0  0  0  0  0  0  0
   -8.3430   -0.3870  -21.9590 C   0  0  0  0  0  0  0  0  0  0  0  0
   -7.4260   -1.4310  -21.2750 C   0  0  0  0  0  0  0  0  0  0  0  0
   -6.5770   -0.8310  -20.1780 C   0  0  0  0  0  0  0  0  0  0  0  0
   -6.8780   -1.0390  -18.8560 C   0  0  0  0  0  0  0  0  0  0  0  0
   -6.1930   -0.5370  -17.7920 N   0  0  0  0  0  0  0  0  0  0  0  0
   -5.1570    0.2230  -18.0610 C   0  0  0  0  0  0  0  0  0  0  0  0
   -4.7240    0.5350  -19.3800 C   0  0  0  0  0  0  0  0  0  0  0  0
   -3.5980    1.3660  -19.6230 C   0  0  0  0  0  0  0  0  0  0  0  0
   -3.2070    1.6570  -20.9030 C   0  0  0  0  0  0  0  0  0  0  0  0
   -3.9290    1.1250  -21.9980 C   0  0  0  0  0  0  0  0  0  0  0  0
   -5.0200    0.3170  -21.7860 C   0  0  0  0  0  0  0  0  0  0  0  0
   -5.4530   -0.0000  -20.4710 C   0  0  0  0  0  0  0  0  0  0  0  0
   -5.5610   -0.0810  -22.6420 H   0  0  0  0  0  0  0  0  0  0  0  0
   -3.6180    1.3600  -23.0100 H   0  0  0  0  0  0  0  0  0  0  0  0
   -2.3500    2.2990  -21.0880 H   0  0  0  0  0  0  0  0  0  0  0  0
   -3.0570    1.7780  -18.7730 H   0  0  0  0  0  0  0  0  0  0  0  0
   -4.6000    0.6290  -17.2160 H   0  0  0  0  0  0  0  0  0  0  0  0
   -7.7300   -1.6610  -18.5850 H   0  0  0  0  0  0  0  0  0  0  0  0
   -6.7920   -1.9530  -22.0010 H   0  0  0  0  0  0  0  0  0  0  0  0
   -8.0830   -2.1910  -20.8370 H   0  0  0  0  0  0  0  0  0  0  0  0
   -8.7500   -0.6060  -23.2730 N   0  0  0  0  0  0  0  0  0  0  0  0
   -8.9700   -1.9490  -23.7840 C   0  0  0  0  0  0  0  0  0  0  0  0
   -7.7460   -2.6430  -24.3410 C   0  0  0  0  0  0  0  0  0  0  0  0
   -7.7500   -4.0320  -24.4640 C   0  0  0  0  0  0  0  0  0  0  0  0
   -6.6370   -4.6980  -24.9610 C   0  0  0  0  0  0  0  0  0  0  0  0
   -5.4990   -3.9990  -25.3430 C   0  0  0  0  0  0  0  0  0  0  0  0
   -5.5060   -2.6170  -25.2200 C   0  0  0  0  0  0  0  0  0  0  0  0
   -4.0900   -1.7130  -25.6800 Cl  0  0  0  0  0  0  0  0  0  0  0  0
   -6.6120   -1.9340  -24.7330 C   0  0  0  0  0  0  0  0  0  0  0  0
   -6.5730   -0.8530  -24.6530 H   0  0  0  0  0  0  0  0  0  0  0  0
   -4.6260   -4.5130  -25.7280 H   0  0  0  0  0  0  0  0  0  0  0  0
   -6.6540   -5.7790  -25.0540 H   0  0  0  0  0  0  0  0  0  0  0  0
   -8.6320   -4.5970  -24.1740 H   0  0  0  0  0  0  0  0  0  0  0  0
   -9.7480   -1.9050  -24.5520 H   0  0  0  0  0  0  0  0  0  0  0  0
   -9.3980   -2.5550  -22.9780 H   0  0  0  0  0  0  0  0  0  0  0  0
   -9.1490    0.5520  -24.0940 C   0  0  2  0  0  0  0  0  0  0  0  0
   -9.2270    0.3450  -25.6350 C   0  0  0  0  0  0  0  0  0  0  0  0
   -9.2010    1.7870  -26.2100 C   0  0  0  0  0  0  0  0  0  0  0  0
   -9.1120    2.6420  -24.9500 C   0  0  2  0  0  0  0  0  0  0  0  0
   -8.2400    1.7930  -24.0350 C   0  0  0  0  0  0  0  0  0  0  0  0
   -8.1390    2.2050  -23.0310 H   0  0  0  0  0  0  0  0  0  0  0  0
   -7.2520    1.6080  -24.4660 H   0  0  0  0  0  0  0  0  0  0  0  0
  -10.4720    2.5930  -24.2520 N   0  3  2  0  0  0  0  0  0  0  0  0
  -10.6130    3.6510  -23.1880 C   0  0  0  0  0  0  0  0  0  0  0  0
  -12.0430    4.1330  -22.9230 C   0  0  0  0  0  0  0  0  0  0  0  0
  -12.7450    4.8130  -24.0990 C   0  0  0  0  0  0  0  0  0  0  0  0
  -13.7800    3.8220  -24.1330 O   0  0  0  0  0  0  0  0  0  0  0  0
  -13.2160    3.1450  -22.9990 C   0  0  0  0  0  0  0  0  0  0  0  0
  -12.9500    2.1090  -23.2380 H   0  0  0  0  0  0  0  0  0  0  0  0
  -13.8870    3.1550  -22.1310 H   0  0  0  0  0  0  0  0  0  0  0  0
  -13.1300    5.8200  -23.8980 H   0  0  0  0  0  0  0  0  0  0  0  0
  -12.1630    4.8220  -25.0280 H   0  0  0  0  0  0  0  0  0  0  0  0
  -12.0420    4.7360  -22.0100 H   0  0  0  0  0  0  0  0  0  0  0  0
  -10.1610    3.2590  -22.2700 H   0  0  0  0  0  0  0  0  0  0  0  0
  -10.0120    4.5210  -23.4880 H   0  0  0  0  0  0  0  0  0  0  0  0
  -10.5200    1.1550  -23.7040 C   0  0  0  0  0  0  0  0  0  0  0  0
  -10.6390    1.1960  -22.6230 H   0  0  0  0  0  0  0  0  0  0  0  0
  -11.3700    0.6270  -24.1490 H   0  0  0  0  0  0  0  0  0  0  0  0
  -11.2270    2.7340  -24.9360 H   0  0  0  0  0  0  0  0  0  0  0  0
   -8.8060    3.6800  -25.1040 H   0  0  0  0  0  0  0  0  0  0  0  0
   -8.3130    1.9600  -26.8270 H   0  0  0  0  0  0  0  0  0  0  0  0
  -10.0790    2.0410  -26.8160 H   0  0  0  0  0  0  0  0  0  0  0  0
  -10.1260   -0.1860  -25.9540 H   0  0  0  0  0  0  0  0  0  0  0  0
   -8.3680   -0.2180  -26.0020 H   0  0  0  0  0  0  0  0  0  0  0  0
  1  2  2  0  0  0  0
  2  3  1  0  0  0  0
  2 22  1  0  0  0  0
  3  4  1  0  0  0  0
  3 20  1  0  0  0  0
  3 21  1  0  0  0  0
  4  5  2  0  0  0  0
  4 13  1  0  0  0  0
  5  6  1  0  0  0  0
  5 19  1  0  0  0  0
  6  7  2  0  0  0  0
  7  8  1  0  0  0  0
  7 18  1  0  0  0  0
  8  9  2  0  0  0  0
  8 13  1  0  0  0  0
  9 10  1  0  0  0  0
  9 17  1  0  0  0  0
 10 11  2  0  0  0  0
 10 16  1  0  0  0  0
 11 12  1  0  0  0  0
 11 15  1  0  0  0  0
 12 13  2  0  0  0  0
 12 14  1  0  0  0  0
 22 23  1  0  0  0  0
 23 24  1  0  0  0  0
 23 35  1  0  0  0  0
 23 36  1  0  0  0  0
 24 25  2  0  0  0  0
 24 30  1  0  0  0  0
 25 26  1  0  0  0  0
 25 34  1  0  0  0  0
 26 27  2  0  0  0  0
 26 33  1  0  0  0  0
 27 28  1  0  0  0  0
 27 32  1  0  0  0  0
 28 29  1  0  0  0  0
 28 30  2  0  0  0  0
 30 31  1  0  0  0  0
 37 22  1  1  0  0  0
 37 38  1  0  0  0  0
 37 41  1  0  0  0  0
 37 57  1  0  0  0  0
 38 39  1  0  0  0  0
 38 64  1  0  0  0  0
 38 65  1  0  0  0  0
 39 40  1  0  0  0  0
 39 62  1  0  0  0  0
 39 63  1  0  0  0  0
 40 41  1  0  0  0  0
 40 44  1  0  0  0  0
 40 61  1  6  0  0  0
 41 42  1  0  0  0  0
 41 43  1  0  0  0  0
 44 45  1  0  0  0  0
 44 57  1  0  0  0  0
 44 60  1  6  0  0  0
 45 46  1  0  0  0  0
 45 55  1  0  0  0  0
 45 56  1  0  0  0  0
 46 47  1  0  0  0  0
 46 49  1  0  0  0  0
 46 54  1  0  0  0  0
 47 48  1  0  0  0  0
 47 52  1  0  0  0  0
 47 53  1  0  0  0  0
 48 49  1  0  0  0  0
 49 50  1  0  0  0  0
 49 51  1  0  0  0  0
 57 58  1  0  0  0  0
 57 59  1  0  0  0  0
M  CHG  1  44   1
M  END
>  <MODEL>
       1

$$$$
