tmp_first_model_12_38.pdb
 OpenBabel08272523333D

 46 48  0  0  1  0  0  0  0  0999 V2000
   -8.1590   -4.6960  -26.5420 C   0  0  0  0  0  0  0  0  0  0  0  0
   -8.6540   -4.9600  -25.1200 C   0  0  1  0  0  0  0  0  0  0  0  0
   -7.5900   -5.5240  -24.1830 C   0  0  0  0  0  0  0  0  0  0  0  0
   -6.6140   -4.5190  -23.5550 C   0  0  1  0  0  0  0  0  0  0  0  0
   -5.4110   -4.1610  -24.4400 C   0  0  0  0  0  0  0  0  0  0  0  0
   -4.6070   -3.7390  -23.8300 H   0  0  0  0  0  0  0  0  0  0  0  0
   -5.6620   -3.4340  -25.2130 H   0  0  0  0  0  0  0  0  0  0  0  0
   -5.0140   -5.0540  -24.9390 H   0  0  0  0  0  0  0  0  0  0  0  0
   -7.3230   -3.3370  -23.0110 N   0  0  0  0  0  0  0  0  0  0  0  0
   -6.7240   -2.7030  -21.9380 C   0  0  0  0  0  0  0  0  0  0  0  0
   -5.6730   -3.1080  -21.4650 O   0  0  0  0  0  0  0  0  0  0  0  0
   -7.4080   -1.4710  -21.2800 C   0  0  0  0  0  0  0  0  0  0  0  0
   -6.5790   -0.8360  -20.1850 C   0  0  0  0  0  0  0  0  0  0  0  0
   -6.8720   -1.0490  -18.8610 C   0  0  0  0  0  0  0  0  0  0  0  0
   -6.1900   -0.5430  -17.7980 N   0  0  0  0  0  0  0  0  0  0  0  0
   -5.1580    0.2220  -18.0610 C   0  0  0  0  0  0  0  0  0  0  0  0
   -4.7220    0.5320  -19.3790 C   0  0  0  0  0  0  0  0  0  0  0  0
   -3.5930    1.3590  -19.6160 C   0  0  0  0  0  0  0  0  0  0  0  0
   -3.2110    1.6710  -20.8940 C   0  0  0  0  0  0  0  0  0  0  0  0
   -3.9840    1.2120  -21.9830 C   0  0  0  0  0  0  0  0  0  0  0  0
   -5.0660    0.3820  -21.7770 C   0  0  0  0  0  0  0  0  0  0  0  0
   -5.4590    0.0070  -20.4680 C   0  0  0  0  0  0  0  0  0  0  0  0
   -5.5420   -0.1020  -22.6260 H   0  0  0  0  0  0  0  0  0  0  0  0
   -3.5990    1.3520  -22.9890 H   0  0  0  0  0  0  0  0  0  0  0  0
   -2.3240    2.2730  -21.0840 H   0  0  0  0  0  0  0  0  0  0  0  0
   -3.0530    1.7690  -18.7650 H   0  0  0  0  0  0  0  0  0  0  0  0
   -4.6020    0.6290  -17.2140 H   0  0  0  0  0  0  0  0  0  0  0  0
   -7.7200   -1.6720  -18.5860 H   0  0  0  0  0  0  0  0  0  0  0  0
   -7.6730   -0.7120  -22.0290 H   0  0  0  0  0  0  0  0  0  0  0  0
   -8.3600   -1.8070  -20.8470 H   0  0  0  0  0  0  0  0  0  0  0  0
   -8.4090   -2.7210  -23.7950 C   0  0  1  0  0  0  0  0  0  0  0  0
   -7.9400   -1.6590  -24.8000 C   0  0  0  0  0  0  0  0  0  0  0  0
   -7.4440   -2.0870  -25.6750 H   0  0  0  0  0  0  0  0  0  0  0  0
   -8.7980   -1.0830  -25.1710 H   0  0  0  0  0  0  0  0  0  0  0  0
   -7.2450   -0.9500  -24.3420 H   0  0  0  0  0  0  0  0  0  0  0  0
   -9.3270   -3.7780  -24.4260 C   0  0  0  0  0  0  0  0  0  0  0  0
   -9.9800   -4.1690  -23.6380 H   0  0  0  0  0  0  0  0  0  0  0  0
   -9.9960   -3.2810  -25.1350 H   0  0  0  0  0  0  0  0  0  0  0  0
   -9.0340   -2.1960  -23.0650 H   0  0  0  0  0  0  0  0  0  0  0  0
   -6.1940   -5.0210  -22.6810 H   0  0  0  0  0  0  0  0  0  0  0  0
   -8.0910   -6.0570  -23.3680 H   0  0  0  0  0  0  0  0  0  0  0  0
   -7.0140   -6.2890  -24.7140 H   0  0  0  0  0  0  0  0  0  0  0  0
   -9.4280   -5.7360  -25.2250 H   0  0  0  0  0  0  0  0  0  0  0  0
   -7.9250   -5.6400  -27.0470 H   0  0  0  0  0  0  0  0  0  0  0  0
   -8.9300   -4.1950  -27.1370 H   0  0  0  0  0  0  0  0  0  0  0  0
   -7.2570   -4.0820  -26.5820 H   0  0  0  0  0  0  0  0  0  0  0  0
  1  2  1  0  0  0  0
  1 44  1  0  0  0  0
  1 45  1  0  0  0  0
  1 46  1  0  0  0  0
  2  3  1  0  0  0  0
  2 36  1  0  0  0  0
  2 43  1  6  0  0  0
  3  4  1  0  0  0  0
  3 41  1  0  0  0  0
  3 42  1  0  0  0  0
  4  5  1  0  0  0  0
  4  9  1  0  0  0  0
  4 40  1  1  0  0  0
  5  6  1  0  0  0  0
  5  7  1  0  0  0  0
  5  8  1  0  0  0  0
  9 10  1  0  0  0  0
  9 31  1  0  0  0  0
 10 11  2  0  0  0  0
 10 12  1  0  0  0  0
 12 13  1  0  0  0  0
 12 29  1  0  0  0  0
 12 30  1  0  0  0  0
 13 14  2  0  0  0  0
 13 22  1  0  0  0  0
 14 15  1  0  0  0  0
 14 28  1  0  0  0  0
 15 16  2  0  0  0  0
 16 17  1  0  0  0  0
 16 27  1  0  0  0  0
 17 18  2  0  0  0  0
 17 22  1  0  0  0  0
 18 19  1  0  0  0  0
 18 26  1  0  0  0  0
 19 20  2  0  0  0  0
 19 25  1  0  0  0  0
 20 21  1  0  0  0  0
 20 24  1  0  0  0  0
 21 22  2  0  0  0  0
 21 23  1  0  0  0  0
 31 32  1  0  0  0  0
 31 36  1  0  0  0  0
 31 39  1  1  0  0  0
 32 33  1  0  0  0  0
 32 34  1  0  0  0  0
 32 35  1  0  0  0  0
 36 37  1  0  0  0  0
 36 38  1  0  0  0  0
M  END
>  <MODEL>
       1

$$$$
