tmp_first_model_19_63.pdb
 OpenBabel08282503233D

 57 61  0  0  1  0  0  0  0  0999 V2000
   -7.3550    3.4350  -21.8520 C   0  0  0  0  0  0  0  0  0  0  0  0
   -8.1750    2.9450  -22.9430 N   0  0  0  0  0  0  0  0  0  0  0  0
   -7.5990    2.2450  -23.9470 C   0  0  0  0  0  0  0  0  0  0  0  0
   -6.3850    2.1240  -24.0550 O   0  0  0  0  0  0  0  0  0  0  0  0
   -8.5510    1.6250  -24.9760 C   0  0  0  0  0  0  0  0  0  0  0  0
   -9.2920    0.4850  -24.4700 N   0  0  0  0  0  0  0  0  0  0  0  0
   -8.5960   -0.7730  -24.2860 C   0  0  0  0  0  0  0  0  0  0  0  0
   -9.0110   -1.4780  -22.9650 C   0  0  2  0  0  0  0  0  0  0  0  0
   -8.4600   -0.6900  -21.7500 C   0  0  0  0  0  0  0  0  0  0  0  0
   -8.8680    0.3690  -21.3160 O   0  0  0  0  0  0  0  0  0  0  0  0
   -7.4030   -1.3850  -21.2110 N   0  0  0  0  0  0  0  0  0  0  0  0
   -6.6050   -0.8110  -20.1810 C   0  0  0  0  0  0  0  0  0  0  0  0
   -6.9090   -1.0460  -18.8670 C   0  0  0  0  0  0  0  0  0  0  0  0
   -6.2030   -0.5600  -17.8180 N   0  0  0  0  0  0  0  0  0  0  0  0
   -5.1700    0.2040  -18.0820 C   0  0  0  0  0  0  0  0  0  0  0  0
   -4.7310    0.5270  -19.3970 C   0  0  0  0  0  0  0  0  0  0  0  0
   -3.6000    1.3550  -19.6430 C   0  0  0  0  0  0  0  0  0  0  0  0
   -3.2120    1.6460  -20.9220 C   0  0  0  0  0  0  0  0  0  0  0  0
   -3.9350    1.1190  -22.0160 C   0  0  0  0  0  0  0  0  0  0  0  0
   -5.0310    0.3160  -21.8040 C   0  0  0  0  0  0  0  0  0  0  0  0
   -5.4680    0.0030  -20.4890 C   0  0  0  0  0  0  0  0  0  0  0  0
   -5.5850   -0.0740  -22.6530 H   0  0  0  0  0  0  0  0  0  0  0  0
   -3.6420    1.3640  -23.0310 H   0  0  0  0  0  0  0  0  0  0  0  0
   -2.3600    2.2970  -21.0990 H   0  0  0  0  0  0  0  0  0  0  0  0
   -3.0720    1.7680  -18.7860 H   0  0  0  0  0  0  0  0  0  0  0  0
   -4.6240    0.6110  -17.2290 H   0  0  0  0  0  0  0  0  0  0  0  0
   -7.7630   -1.6680  -18.6080 H   0  0  0  0  0  0  0  0  0  0  0  0
   -7.0770   -2.6170  -21.9020 C   0  0  0  0  0  0  0  0  0  0  0  0
   -8.3080   -2.8640  -22.8080 C   0  0  2  0  0  0  0  0  0  0  0  0
   -7.9400   -3.5870  -24.1060 C   0  0  0  0  0  0  0  0  0  0  0  0
   -7.4320   -4.8610  -23.7580 O   0  0  0  0  0  0  0  0  0  0  0  0
   -7.2020   -5.3250  -24.5730 H   0  0  0  0  0  0  0  0  0  0  0  0
   -7.1790   -3.0050  -24.6520 H   0  0  0  0  0  0  0  0  0  0  0  0
   -8.8240   -3.6820  -24.7560 H   0  0  0  0  0  0  0  0  0  0  0  0
   -8.9960   -3.5260  -22.2780 H   0  0  0  0  0  0  0  0  0  0  0  0
   -6.9110   -3.4290  -21.1850 H   0  0  0  0  0  0  0  0  0  0  0  0
   -6.1520   -2.5050  -22.4900 H   0  0  0  0  0  0  0  0  0  0  0  0
  -10.5300   -1.4900  -22.8950 C   0  0  0  0  0  0  0  0  0  0  0  0
  -11.1800   -2.3360  -21.9880 C   0  0  0  0  0  0  0  0  0  0  0  0
  -12.5600   -2.3330  -21.9030 C   0  0  0  0  0  0  0  0  0  0  0  0
  -13.3570   -3.3880  -20.7740 Cl  0  0  0  0  0  0  0  0  0  0  0  0
  -13.3320   -1.4770  -22.6900 C   0  0  0  0  0  0  0  0  0  0  0  0
  -12.6950   -0.5830  -23.5270 C   0  0  0  0  0  0  0  0  0  0  0  0
  -11.3020   -0.5570  -23.6040 C   0  0  0  0  0  0  0  0  0  0  0  0
  -10.6540    0.5650  -24.3600 C   0  0  0  0  0  0  0  0  0  0  0  0
  -11.2940    1.5090  -24.8040 O   0  0  0  0  0  0  0  0  0  0  0  0
  -13.2480    0.1400  -24.1180 H   0  0  0  0  0  0  0  0  0  0  0  0
  -14.4120   -1.4990  -22.6060 H   0  0  0  0  0  0  0  0  0  0  0  0
  -10.6200   -2.9750  -21.3130 H   0  0  0  0  0  0  0  0  0  0  0  0
   -7.5260   -0.5420  -24.2580 H   0  0  0  0  0  0  0  0  0  0  0  0
   -8.8000   -1.4490  -25.1330 H   0  0  0  0  0  0  0  0  0  0  0  0
   -7.9190    1.3390  -25.8240 H   0  0  0  0  0  0  0  0  0  0  0  0
   -9.3160    2.3320  -25.3060 H   0  0  0  0  0  0  0  0  0  0  0  0
   -9.1750    2.8920  -22.8130 H   0  0  0  0  0  0  0  0  0  0  0  0
   -6.6130    4.1550  -22.2160 H   0  0  0  0  0  0  0  0  0  0  0  0
   -8.0230    3.9410  -21.1570 H   0  0  0  0  0  0  0  0  0  0  0  0
   -6.8190    2.6080  -21.3570 H   0  0  0  0  0  0  0  0  0  0  0  0
  1  2  1  0  0  0  0
  1 55  1  0  0  0  0
  1 56  1  0  0  0  0
  1 57  1  0  0  0  0
  2  3  1  0  0  0  0
  2 54  1  0  0  0  0
  3  4  2  0  0  0  0
  3  5  1  0  0  0  0
  5  6  1  0  0  0  0
  5 52  1  0  0  0  0
  5 53  1  0  0  0  0
  6  7  1  0  0  0  0
  6 45  1  0  0  0  0
  7  8  1  0  0  0  0
  7 50  1  0  0  0  0
  7 51  1  0  0  0  0
  8  9  1  1  0  0  0
  8 29  1  0  0  0  0
  8 38  1  0  0  0  0
  9 10  2  0  0  0  0
  9 11  1  0  0  0  0
 11 12  1  0  0  0  0
 11 28  1  0  0  0  0
 12 13  2  0  0  0  0
 12 21  1  0  0  0  0
 13 14  1  0  0  0  0
 13 27  1  0  0  0  0
 14 15  2  0  0  0  0
 15 16  1  0  0  0  0
 15 26  1  0  0  0  0
 16 17  2  0  0  0  0
 16 21  1  0  0  0  0
 17 18  1  0  0  0  0
 17 25  1  0  0  0  0
 18 19  2  0  0  0  0
 18 24  1  0  0  0  0
 19 20  1  0  0  0  0
 19 23  1  0  0  0  0
 20 21  2  0  0  0  0
 20 22  1  0  0  0  0
 28 29  1  0  0  0  0
 28 36  1  0  0  0  0
 28 37  1  0  0  0  0
 29 30  1  0  0  0  0
 29 35  1  1  0  0  0
 30 31  1  0  0  0  0
 30 33  1  0  0  0  0
 30 34  1  0  0  0  0
 31 32  1  0  0  0  0
 38 39  2  0  0  0  0
 38 44  1  0  0  0  0
 39 40  1  0  0  0  0
 39 49  1  0  0  0  0
 40 41  1  0  0  0  0
 40 42  2  0  0  0  0
 42 43  1  0  0  0  0
 42 48  1  0  0  0  0
 43 44  2  0  0  0  0
 43 47  1  0  0  0  0
 44 45  1  0  0  0  0
 45 46  2  0  0  0  0
M  END
>  <MODEL>
       1

$$$$
