tmp_first_model_10_21.pdb
 OpenBabel08272522163D

 63 68  0  0  1  0  0  0  0  0999 V2000
   -8.3380   -4.1720  -23.4560 C   0  0  0  0  0  0  0  0  0  0  0  0
   -8.5460   -2.9970  -22.5190 C   0  0  1  0  0  0  0  0  0  0  0  0
   -7.4070   -2.7980  -21.5110 C   0  0  0  0  0  0  0  0  0  0  0  0
   -7.4600   -1.3740  -21.2230 N   0  0  0  0  0  0  0  0  0  0  0  0
   -6.6780   -0.7800  -20.2030 C   0  0  0  0  0  0  0  0  0  0  0  0
   -6.9300   -1.1000  -18.8910 C   0  0  0  0  0  0  0  0  0  0  0  0
   -6.2360   -0.6250  -17.8300 N   0  0  0  0  0  0  0  0  0  0  0  0
   -5.2210    0.1650  -18.0830 C   0  0  0  0  0  0  0  0  0  0  0  0
   -4.8320    0.5620  -19.3910 C   0  0  0  0  0  0  0  0  0  0  0  0
   -3.7470    1.4570  -19.5910 C   0  0  0  0  0  0  0  0  0  0  0  0
   -3.4890    1.9550  -20.8370 C   0  0  0  0  0  0  0  0  0  0  0  0
   -4.2610    1.5350  -21.9430 C   0  0  0  0  0  0  0  0  0  0  0  0
   -5.2740    0.6250  -21.7840 C   0  0  0  0  0  0  0  0  0  0  0  0
   -5.6010    0.1220  -20.4920 C   0  0  0  0  0  0  0  0  0  0  0  0
   -5.8280    0.2860  -22.6530 H   0  0  0  0  0  0  0  0  0  0  0  0
   -4.0440    1.9280  -22.9320 H   0  0  0  0  0  0  0  0  0  0  0  0
   -2.6810    2.6650  -20.9880 H   0  0  0  0  0  0  0  0  0  0  0  0
   -3.1540    1.7550  -18.7290 H   0  0  0  0  0  0  0  0  0  0  0  0
   -4.6610    0.5480  -17.2300 H   0  0  0  0  0  0  0  0  0  0  0  0
   -7.7450   -1.7800  -18.6500 H   0  0  0  0  0  0  0  0  0  0  0  0
   -8.1960   -0.6510  -22.1400 C   0  0  0  0  0  0  0  0  0  0  0  0
   -8.3260    0.5580  -22.1220 O   0  0  0  0  0  0  0  0  0  0  0  0
   -8.7650   -1.6020  -23.2060 C   0  0  1  0  0  0  0  0  0  0  0  0
   -7.9480   -1.3320  -24.5020 C   0  0  0  0  0  0  0  0  0  0  0  0
   -8.5750   -1.8470  -25.7170 N   0  0  0  0  0  0  0  0  0  0  0  0
   -7.7550   -2.1990  -26.8690 C   0  0  0  0  0  0  0  0  0  0  0  0
   -7.7060   -3.7220  -27.0070 C   0  0  0  0  0  0  0  0  0  0  0  0
   -6.8810   -4.4060  -26.4200 O   0  0  0  0  0  0  0  0  0  0  0  0
   -8.6670   -4.2480  -27.8160 N   0  0  0  0  0  0  0  0  0  0  0  0
   -8.7660   -5.6900  -27.9080 C   0  0  0  0  0  0  0  0  0  0  0  0
   -9.1310   -6.3420  -26.5900 C   0  0  0  0  0  0  0  0  0  0  0  0
   -9.3950   -7.8150  -26.5930 C   0  0  0  0  0  0  0  0  0  0  0  0
   -8.2130   -7.2730  -25.8500 C   0  0  0  0  0  0  0  0  0  0  0  0
   -8.2410   -7.2320  -24.7640 H   0  0  0  0  0  0  0  0  0  0  0  0
   -7.2350   -7.4760  -26.2730 H   0  0  0  0  0  0  0  0  0  0  0  0
   -9.1990   -8.3590  -27.5130 H   0  0  0  0  0  0  0  0  0  0  0  0
  -10.2460   -8.1920  -26.0430 H   0  0  0  0  0  0  0  0  0  0  0  0
   -9.7840   -5.7420  -25.9500 H   0  0  0  0  0  0  0  0  0  0  0  0
   -9.5320   -5.9100  -28.6640 H   0  0  0  0  0  0  0  0  0  0  0  0
   -7.8130   -6.0990  -28.2730 H   0  0  0  0  0  0  0  0  0  0  0  0
   -9.5120   -3.6960  -27.9320 H   0  0  0  0  0  0  0  0  0  0  0  0
   -6.7470   -1.8080  -26.7270 H   0  0  0  0  0  0  0  0  0  0  0  0
   -8.1810   -1.7490  -27.7740 H   0  0  0  0  0  0  0  0  0  0  0  0
   -9.9160   -1.7980  -25.9360 C   0  0  0  0  0  0  0  0  0  0  0  0
  -10.4000   -2.0600  -27.0410 O   0  0  0  0  0  0  0  0  0  0  0  0
  -10.7670   -1.4380  -24.7730 C   0  0  0  0  0  0  0  0  0  0  0  0
  -12.1300   -1.2490  -25.0000 C   0  0  0  0  0  0  0  0  0  0  0  0
  -12.9850   -0.9510  -23.9620 C   0  0  0  0  0  0  0  0  0  0  0  0
  -12.4510   -0.8690  -22.6850 C   0  0  0  0  0  0  0  0  0  0  0  0
  -13.2980   -0.6230  -21.6780 F   0  0  0  0  0  0  0  0  0  0  0  0
  -11.1040   -1.0470  -22.4300 C   0  0  0  0  0  0  0  0  0  0  0  0
  -10.2300   -1.3300  -23.4870 C   0  0  0  0  0  0  0  0  0  0  0  0
  -10.7330   -0.9590  -21.4170 H   0  0  0  0  0  0  0  0  0  0  0  0
  -14.0470   -0.7930  -24.1160 H   0  0  0  0  0  0  0  0  0  0  0  0
  -12.5100   -1.3500  -26.0080 H   0  0  0  0  0  0  0  0  0  0  0  0
   -7.8300   -0.2420  -24.5900 H   0  0  0  0  0  0  0  0  0  0  0  0
   -6.9460   -1.7710  -24.4080 H   0  0  0  0  0  0  0  0  0  0  0  0
   -7.5560   -3.3860  -20.5980 H   0  0  0  0  0  0  0  0  0  0  0  0
   -6.4280   -3.0880  -21.9230 H   0  0  0  0  0  0  0  0  0  0  0  0
   -9.4560   -3.1730  -21.9270 H   0  0  0  0  0  0  0  0  0  0  0  0
   -9.1750   -4.2470  -24.1570 H   0  0  0  0  0  0  0  0  0  0  0  0
   -8.2730   -5.1210  -22.9090 H   0  0  0  0  0  0  0  0  0  0  0  0
   -7.4250   -4.0530  -24.0480 H   0  0  0  0  0  0  0  0  0  0  0  0
  1  2  1  0  0  0  0
  1 61  1  0  0  0  0
  1 62  1  0  0  0  0
  1 63  1  0  0  0  0
  2  3  1  0  0  0  0
  2 23  1  0  0  0  0
  2 60  1  1  0  0  0
  3  4  1  0  0  0  0
  3 58  1  0  0  0  0
  3 59  1  0  0  0  0
  4  5  1  0  0  0  0
  4 21  1  0  0  0  0
  5  6  2  0  0  0  0
  5 14  1  0  0  0  0
  6  7  1  0  0  0  0
  6 20  1  0  0  0  0
  7  8  2  0  0  0  0
  8  9  1  0  0  0  0
  8 19  1  0  0  0  0
  9 10  2  0  0  0  0
  9 14  1  0  0  0  0
 10 11  1  0  0  0  0
 10 18  1  0  0  0  0
 11 12  2  0  0  0  0
 11 17  1  0  0  0  0
 12 13  1  0  0  0  0
 12 16  1  0  0  0  0
 13 14  2  0  0  0  0
 13 15  1  0  0  0  0
 21 22  2  0  0  0  0
 23 21  1  1  0  0  0
 23 24  1  0  0  0  0
 23 52  1  0  0  0  0
 24 25  1  0  0  0  0
 24 56  1  0  0  0  0
 24 57  1  0  0  0  0
 25 26  1  0  0  0  0
 25 44  1  0  0  0  0
 26 27  1  0  0  0  0
 26 42  1  0  0  0  0
 26 43  1  0  0  0  0
 27 28  2  0  0  0  0
 27 29  1  0  0  0  0
 29 30  1  0  0  0  0
 29 41  1  0  0  0  0
 30 31  1  0  0  0  0
 30 39  1  0  0  0  0
 30 40  1  0  0  0  0
 31 32  1  0  0  0  0
 31 33  1  0  0  0  0
 31 38  1  0  0  0  0
 32 33  1  0  0  0  0
 32 36  1  0  0  0  0
 32 37  1  0  0  0  0
 33 34  1  0  0  0  0
 33 35  1  0  0  0  0
 44 45  2  0  0  0  0
 44 46  1  0  0  0  0
 46 47  2  0  0  0  0
 46 52  1  0  0  0  0
 47 48  1  0  0  0  0
 47 55  1  0  0  0  0
 48 49  2  0  0  0  0
 48 54  1  0  0  0  0
 49 50  1  0  0  0  0
 49 51  1  0  0  0  0
 51 52  2  0  0  0  0
 51 53  1  0  0  0  0
M  END
>  <MODEL>
       1

$$$$
