tmp_first_model_5_15.pdb
 OpenBabel08272519223D

 63 68  0  0  1  0  0  0  0  0999 V2000
   -7.3390    3.2450  -21.7040 C   0  0  0  0  0  0  0  0  0  0  0  0
   -8.3180    2.8190  -22.6900 N   0  0  0  0  0  0  0  0  0  0  0  0
   -7.8590    2.1690  -23.7920 C   0  0  0  0  0  0  0  0  0  0  0  0
   -6.6640    2.0260  -24.0010 O   0  0  0  0  0  0  0  0  0  0  0  0
   -8.8960    1.6090  -24.7690 C   0  0  0  0  0  0  0  0  0  0  0  0
   -9.5120    0.4030  -24.2500 N   0  0  0  0  0  0  0  0  0  0  0  0
   -8.7080   -0.8080  -24.1440 C   0  0  0  0  0  0  0  0  0  0  0  0
   -9.0570   -1.6020  -22.8560 C   0  0  2  0  0  0  0  0  0  0  0  0
   -8.5230   -0.8500  -21.6170 C   0  0  0  0  0  0  0  0  0  0  0  0
   -8.9830    0.1400  -21.0820 O   0  0  0  0  0  0  0  0  0  0  0  0
   -7.3770   -1.4830  -21.1990 N   0  0  0  0  0  0  0  0  0  0  0  0
   -6.5460   -0.9440  -20.1960 C   0  0  0  0  0  0  0  0  0  0  0  0
   -6.8300   -1.1480  -18.8720 C   0  0  0  0  0  0  0  0  0  0  0  0
   -5.9670   -0.8630  -17.8620 N   0  0  0  0  0  0  0  0  0  0  0  0
   -4.7950   -0.3720  -18.2020 C   0  0  0  0  0  0  0  0  0  0  0  0
   -4.4260   -0.0270  -19.5390 C   0  0  0  0  0  0  0  0  0  0  0  0
   -3.2530    0.7240  -19.8310 C   0  0  0  0  0  0  0  0  0  0  0  0
   -3.1470    1.4090  -21.0090 C   0  0  0  0  0  0  0  0  0  0  0  0
   -4.0850    1.1880  -22.0470 C   0  0  0  0  0  0  0  0  0  0  0  0
   -5.1130    0.2970  -21.8600 C   0  0  0  0  0  0  0  0  0  0  0  0
   -5.3650   -0.2360  -20.5670 C   0  0  0  0  0  0  0  0  0  0  0  0
   -5.7770    0.0340  -22.6780 H   0  0  0  0  0  0  0  0  0  0  0  0
   -3.9720    1.6680  -23.0100 H   0  0  0  0  0  0  0  0  0  0  0  0
   -2.2820    2.0340  -21.2040 H   0  0  0  0  0  0  0  0  0  0  0  0
   -2.5190    0.8460  -19.0430 H   0  0  0  0  0  0  0  0  0  0  0  0
   -4.0920   -0.1530  -17.3960 H   0  0  0  0  0  0  0  0  0  0  0  0
   -7.8070   -1.5340  -18.5810 H   0  0  0  0  0  0  0  0  0  0  0  0
   -6.9830   -2.6310  -21.9840 C   0  0  0  0  0  0  0  0  0  0  0  0
   -8.2700   -2.9440  -22.7530 C   0  0  2  0  0  0  0  0  0  0  0  0
   -8.0080   -3.6810  -24.0670 C   0  0  0  0  0  0  0  0  0  0  0  0
   -7.4380   -4.9960  -23.8340 N   0  0  0  0  0  0  0  0  0  0  0  0
   -8.0990   -6.1380  -23.5330 C   0  0  0  0  0  0  0  0  0  0  0  0
   -7.1420   -7.0990  -23.2890 C   0  0  0  0  0  0  0  0  0  0  0  0
   -5.9190   -6.4200  -23.4600 C   0  0  0  0  0  0  0  0  0  0  0  0
   -6.1070   -5.1430  -23.7740 N   0  0  0  0  0  0  0  0  0  0  0  0
   -4.9100   -6.8080  -23.3840 H   0  0  0  0  0  0  0  0  0  0  0  0
   -7.3000   -8.1420  -23.0490 H   0  0  0  0  0  0  0  0  0  0  0  0
   -9.1820   -6.1890  -23.5140 H   0  0  0  0  0  0  0  0  0  0  0  0
   -7.2870   -3.1270  -24.6760 H   0  0  0  0  0  0  0  0  0  0  0  0
   -8.9400   -3.7920  -24.6320 H   0  0  0  0  0  0  0  0  0  0  0  0
   -8.8560   -3.6080  -22.1120 H   0  0  0  0  0  0  0  0  0  0  0  0
   -6.1350   -2.4170  -22.6570 H   0  0  0  0  0  0  0  0  0  0  0  0
   -6.6730   -3.4630  -21.3420 H   0  0  0  0  0  0  0  0  0  0  0  0
  -10.5630   -1.7500  -22.7970 C   0  0  0  0  0  0  0  0  0  0  0  0
  -11.1580   -2.7070  -21.9670 C   0  0  0  0  0  0  0  0  0  0  0  0
  -12.5200   -2.9210  -22.0290 C   0  0  0  0  0  0  0  0  0  0  0  0
  -13.2510   -4.0270  -20.9080 Cl  0  0  0  0  0  0  0  0  0  0  0  0
  -13.3240   -2.2580  -22.9560 C   0  0  0  0  0  0  0  0  0  0  0  0
  -12.7580   -1.2300  -23.6910 C   0  0  0  0  0  0  0  0  0  0  0  0
  -11.4060   -0.9260  -23.5550 C   0  0  0  0  0  0  0  0  0  0  0  0
  -10.8780    0.3290  -24.1850 C   0  0  0  0  0  0  0  0  0  0  0  0
  -11.6140    1.2120  -24.6030 O   0  0  0  0  0  0  0  0  0  0  0  0
  -13.3640   -0.6220  -24.3520 H   0  0  0  0  0  0  0  0  0  0  0  0
  -14.3760   -2.5040  -23.0390 H   0  0  0  0  0  0  0  0  0  0  0  0
  -10.5720   -3.3020  -21.2740 H   0  0  0  0  0  0  0  0  0  0  0  0
   -8.8830   -1.4430  -25.0250 H   0  0  0  0  0  0  0  0  0  0  0  0
   -7.6510   -0.5270  -24.1400 H   0  0  0  0  0  0  0  0  0  0  0  0
   -9.7050    2.3150  -24.9760 H   0  0  0  0  0  0  0  0  0  0  0  0
   -8.3790    1.4020  -25.7130 H   0  0  0  0  0  0  0  0  0  0  0  0
   -9.2660    2.6700  -22.3750 H   0  0  0  0  0  0  0  0  0  0  0  0
   -6.7310    2.3920  -21.3700 H   0  0  0  0  0  0  0  0  0  0  0  0
   -7.8540    3.6870  -20.8530 H   0  0  0  0  0  0  0  0  0  0  0  0
   -6.6770    3.9990  -22.1380 H   0  0  0  0  0  0  0  0  0  0  0  0
  1  2  1  0  0  0  0
  1 61  1  0  0  0  0
  1 62  1  0  0  0  0
  1 63  1  0  0  0  0
  2  3  1  0  0  0  0
  2 60  1  0  0  0  0
  3  4  2  0  0  0  0
  3  5  1  0  0  0  0
  5  6  1  0  0  0  0
  5 58  1  0  0  0  0
  5 59  1  0  0  0  0
  6  7  1  0  0  0  0
  6 51  1  0  0  0  0
  7  8  1  0  0  0  0
  7 56  1  0  0  0  0
  7 57  1  0  0  0  0
  8  9  1  1  0  0  0
  8 29  1  0  0  0  0
  8 44  1  0  0  0  0
  9 10  2  0  0  0  0
  9 11  1  0  0  0  0
 11 12  1  0  0  0  0
 11 28  1  0  0  0  0
 12 13  2  0  0  0  0
 12 21  1  0  0  0  0
 13 14  1  0  0  0  0
 13 27  1  0  0  0  0
 14 15  2  0  0  0  0
 15 16  1  0  0  0  0
 15 26  1  0  0  0  0
 16 17  2  0  0  0  0
 16 21  1  0  0  0  0
 17 18  1  0  0  0  0
 17 25  1  0  0  0  0
 18 19  2  0  0  0  0
 18 24  1  0  0  0  0
 19 20  1  0  0  0  0
 19 23  1  0  0  0  0
 20 21  2  0  0  0  0
 20 22  1  0  0  0  0
 28 29  1  0  0  0  0
 28 42  1  0  0  0  0
 28 43  1  0  0  0  0
 29 30  1  0  0  0  0
 29 41  1  1  0  0  0
 30 31  1  0  0  0  0
 30 39  1  0  0  0  0
 30 40  1  0  0  0  0
 31 32  1  0  0  0  0
 31 35  1  0  0  0  0
 32 33  2  0  0  0  0
 32 38  1  0  0  0  0
 33 34  1  0  0  0  0
 33 37  1  0  0  0  0
 34 35  2  0  0  0  0
 34 36  1  0  0  0  0
 44 45  2  0  0  0  0
 44 50  1  0  0  0  0
 45 46  1  0  0  0  0
 45 55  1  0  0  0  0
 46 47  1  0  0  0  0
 46 48  2  0  0  0  0
 48 49  1  0  0  0  0
 48 54  1  0  0  0  0
 49 50  2  0  0  0  0
 49 53  1  0  0  0  0
 50 51  1  0  0  0  0
 51 52  2  0  0  0  0
M  END
>  <MODEL>
       1

$$$$
