tmp_first_model_10_14.pdb
 OpenBabel08272522163D

 73 78  0  0  1  0  0  0  0  0999 V2000
   -7.9760   -3.7340  -23.9760 C   0  0  0  0  0  0  0  0  0  0  0  0
   -8.3040   -2.8580  -22.7690 C   0  0  1  0  0  0  0  0  0  0  0  0
   -7.0940   -2.6510  -21.8440 C   0  0  0  0  0  0  0  0  0  0  0  0
   -7.4030   -1.4050  -21.1730 N   0  0  0  0  0  0  0  0  0  0  0  0
   -6.6170   -0.8110  -20.1580 C   0  0  0  0  0  0  0  0  0  0  0  0
   -6.9160   -1.0700  -18.8470 C   0  0  0  0  0  0  0  0  0  0  0  0
   -6.2160   -0.5810  -17.7950 N   0  0  0  0  0  0  0  0  0  0  0  0
   -5.2050    0.2100  -18.0650 C   0  0  0  0  0  0  0  0  0  0  0  0
   -4.8070    0.5820  -19.3830 C   0  0  0  0  0  0  0  0  0  0  0  0
   -3.6950    1.4320  -19.6190 C   0  0  0  0  0  0  0  0  0  0  0  0
   -3.3910    1.8550  -20.8840 C   0  0  0  0  0  0  0  0  0  0  0  0
   -4.1760    1.4260  -21.9780 C   0  0  0  0  0  0  0  0  0  0  0  0
   -5.1920    0.5190  -21.7890 C   0  0  0  0  0  0  0  0  0  0  0  0
   -5.5540    0.0880  -20.4760 C   0  0  0  0  0  0  0  0  0  0  0  0
   -5.7140    0.1170  -22.6520 H   0  0  0  0  0  0  0  0  0  0  0  0
   -4.0130    1.8700  -22.9600 H   0  0  0  0  0  0  0  0  0  0  0  0
   -2.5460    2.5160  -21.0510 H   0  0  0  0  0  0  0  0  0  0  0  0
   -3.1060    1.7490  -18.7650 H   0  0  0  0  0  0  0  0  0  0  0  0
   -4.6250    0.5810  -17.2190 H   0  0  0  0  0  0  0  0  0  0  0  0
   -7.7700   -1.7020  -18.6130 H   0  0  0  0  0  0  0  0  0  0  0  0
   -8.3900   -0.6690  -21.7850 C   0  0  0  0  0  0  0  0  0  0  0  0
   -8.7970    0.3970  -21.3620 O   0  0  0  0  0  0  0  0  0  0  0  0
   -8.8300   -1.4200  -23.0620 C   0  0  1  0  0  0  0  0  0  0  0  0
   -8.1330   -0.8280  -24.3150 C   0  0  0  0  0  0  0  0  0  0  0  0
   -8.5940    0.5080  -24.6170 N   0  0  0  0  0  0  0  0  0  0  0  0
   -7.6620    1.5810  -24.8910 C   0  0  0  0  0  0  0  0  0  0  0  0
   -7.5480    2.5130  -23.6860 C   0  0  0  0  0  0  0  0  0  0  0  0
   -6.4600    3.5340  -23.8460 N   0  3  0  0  0  0  0  0  0  0  0  0
   -6.7780    4.6470  -24.8280 C   0  0  0  0  0  0  0  0  0  0  0  0
   -7.7570    5.6730  -24.2470 C   0  0  0  0  0  0  0  0  0  0  0  0
   -7.3250    6.1770  -22.9450 N   0  0  0  0  0  0  0  0  0  0  0  0
   -6.5580    7.6500  -22.8410 S   0  0  0  0  0  0  0  0  0  0  0  0
   -6.0800    7.8140  -21.4800 O   0  0  0  0  0  0  0  0  0  0  0  0
   -7.4300    8.6390  -23.4420 O   0  0  0  0  0  0  0  0  0  0  0  0
   -5.1300    7.5270  -23.9140 C   0  0  0  0  0  0  0  0  0  0  0  0
   -5.4630    7.4770  -24.9520 H   0  0  0  0  0  0  0  0  0  0  0  0
   -4.5070    6.6650  -23.6730 H   0  0  0  0  0  0  0  0  0  0  0  0
   -4.5550    8.4450  -23.7690 H   0  0  0  0  0  0  0  0  0  0  0  0
   -7.0390    5.1210  -21.9790 C   0  0  0  0  0  0  0  0  0  0  0  0
   -6.0200    4.1310  -22.5290 C   0  0  0  0  0  0  0  0  0  0  0  0
   -5.0610    4.6250  -22.6960 H   0  0  0  0  0  0  0  0  0  0  0  0
   -5.8560    3.3290  -21.8100 H   0  0  0  0  0  0  0  0  0  0  0  0
   -7.9870    4.6070  -21.7800 H   0  0  0  0  0  0  0  0  0  0  0  0
   -6.6950    5.5720  -21.0480 H   0  0  0  0  0  0  0  0  0  0  0  0
   -8.7320    5.2000  -24.0940 H   0  0  0  0  0  0  0  0  0  0  0  0
   -7.9120    6.5090  -24.9310 H   0  0  0  0  0  0  0  0  0  0  0  0
   -7.1750    4.2200  -25.7490 H   0  0  0  0  0  0  0  0  0  0  0  0
   -5.8320    5.1230  -25.0860 H   0  0  0  0  0  0  0  0  0  0  0  0
   -5.6380    3.0250  -24.2210 H   0  0  0  0  0  0  0  0  0  0  0  0
   -7.3430    1.9370  -22.7800 H   0  0  0  0  0  0  0  0  0  0  0  0
   -8.5080    3.0070  -23.5310 H   0  0  0  0  0  0  0  0  0  0  0  0
   -6.6880    1.1370  -25.1210 H   0  0  0  0  0  0  0  0  0  0  0  0
   -8.0100    2.1210  -25.7770 H   0  0  0  0  0  0  0  0  0  0  0  0
   -9.9270    0.7900  -24.6740 C   0  0  0  0  0  0  0  0  0  0  0  0
  -10.3630    1.8140  -25.1880 O   0  0  0  0  0  0  0  0  0  0  0  0
  -10.8300   -0.2210  -24.0390 C   0  0  0  0  0  0  0  0  0  0  0  0
  -12.2000   -0.0430  -24.2010 C   0  0  0  0  0  0  0  0  0  0  0  0
  -13.0940   -0.8870  -23.5780 C   0  0  0  0  0  0  0  0  0  0  0  0
  -12.5870   -1.9070  -22.7760 C   0  0  0  0  0  0  0  0  0  0  0  0
  -13.6890   -2.9510  -21.9350 Cl  0  0  0  0  0  0  0  0  0  0  0  0
  -11.2300   -2.1090  -22.6140 C   0  0  0  0  0  0  0  0  0  0  0  0
  -10.3210   -1.2760  -23.2690 C   0  0  0  0  0  0  0  0  0  0  0  0
  -10.8990   -2.9090  -21.9610 H   0  0  0  0  0  0  0  0  0  0  0  0
  -14.1640   -0.7510  -23.6820 H   0  0  0  0  0  0  0  0  0  0  0  0
  -12.5280    0.7860  -24.8170 H   0  0  0  0  0  0  0  0  0  0  0  0
   -8.3530   -1.4910  -25.1620 H   0  0  0  0  0  0  0  0  0  0  0  0
   -7.0450   -0.8100  -24.1810 H   0  0  0  0  0  0  0  0  0  0  0  0
   -6.1620   -2.5870  -22.4300 H   0  0  0  0  0  0  0  0  0  0  0  0
   -6.9770   -3.4640  -21.1200 H   0  0  0  0  0  0  0  0  0  0  0  0
   -9.0720   -3.3620  -22.1760 H   0  0  0  0  0  0  0  0  0  0  0  0
   -7.1330   -3.3170  -24.5410 H   0  0  0  0  0  0  0  0  0  0  0  0
   -7.6870   -4.7400  -23.6540 H   0  0  0  0  0  0  0  0  0  0  0  0
   -8.8260   -3.8290  -24.6600 H   0  0  0  0  0  0  0  0  0  0  0  0
  1  2  1  0  0  0  0
  1 71  1  0  0  0  0
  1 72  1  0  0  0  0
  1 73  1  0  0  0  0
  2  3  1  0  0  0  0
  2 23  1  0  0  0  0
  2 70  1  1  0  0  0
  3  4  1  0  0  0  0
  3 68  1  0  0  0  0
  3 69  1  0  0  0  0
  4  5  1  0  0  0  0
  4 21  1  0  0  0  0
  5  6  2  0  0  0  0
  5 14  1  0  0  0  0
  6  7  1  0  0  0  0
  6 20  1  0  0  0  0
  7  8  2  0  0  0  0
  8  9  1  0  0  0  0
  8 19  1  0  0  0  0
  9 10  2  0  0  0  0
  9 14  1  0  0  0  0
 10 11  1  0  0  0  0
 10 18  1  0  0  0  0
 11 12  2  0  0  0  0
 11 17  1  0  0  0  0
 12 13  1  0  0  0  0
 12 16  1  0  0  0  0
 13 14  2  0  0  0  0
 13 15  1  0  0  0  0
 21 22  2  0  0  0  0
 23 21  1  1  0  0  0
 23 24  1  0  0  0  0
 23 62  1  0  0  0  0
 24 25  1  0  0  0  0
 24 66  1  0  0  0  0
 24 67  1  0  0  0  0
 25 26  1  0  0  0  0
 25 54  1  0  0  0  0
 26 27  1  0  0  0  0
 26 52  1  0  0  0  0
 26 53  1  0  0  0  0
 27 28  1  0  0  0  0
 27 50  1  0  0  0  0
 27 51  1  0  0  0  0
 28 29  1  0  0  0  0
 28 40  1  0  0  0  0
 28 49  1  0  0  0  0
 29 30  1  0  0  0  0
 29 47  1  0  0  0  0
 29 48  1  0  0  0  0
 30 31  1  0  0  0  0
 30 45  1  0  0  0  0
 30 46  1  0  0  0  0
 31 32  1  0  0  0  0
 31 39  1  0  0  0  0
 32 33  2  0  0  0  0
 32 34  2  0  0  0  0
 32 35  1  0  0  0  0
 35 36  1  0  0  0  0
 35 37  1  0  0  0  0
 35 38  1  0  0  0  0
 39 40  1  0  0  0  0
 39 43  1  0  0  0  0
 39 44  1  0  0  0  0
 40 41  1  0  0  0  0
 40 42  1  0  0  0  0
 54 55  2  0  0  0  0
 54 56  1  0  0  0  0
 56 57  2  0  0  0  0
 56 62  1  0  0  0  0
 57 58  1  0  0  0  0
 57 65  1  0  0  0  0
 58 59  2  0  0  0  0
 58 64  1  0  0  0  0
 59 60  1  0  0  0  0
 59 61  1  0  0  0  0
 61 62  2  0  0  0  0
 61 63  1  0  0  0  0
M  CHG  1  28   1
M  END
>  <MODEL>
       1

$$$$
