tmp_first_model_13_24.pdb
 OpenBabel08282500103D

 65 70  0  0  1  0  0  0  0  0999 V2000
   -9.2400    2.2470  -26.2370 O   0  0  0  0  0  0  0  0  0  0  0  0
   -9.2850    1.2120  -26.8860 C   0  0  0  0  0  0  0  0  0  0  0  0
   -8.5880   -0.0400  -26.3780 C   0  0  0  0  0  0  0  0  0  0  0  0
   -9.1840   -0.4500  -25.0950 N   0  3  1  0  0  0  0  0  0  0  0  0
  -10.6360   -0.7810  -25.2870 C   0  0  0  0  0  0  0  0  0  0  0  0
  -11.2700   -1.2980  -24.0230 C   0  0  0  0  0  0  0  0  0  0  0  0
  -12.6590   -1.3300  -23.9150 C   0  0  0  0  0  0  0  0  0  0  0  0
  -13.2780   -1.9800  -22.8610 C   0  0  0  0  0  0  0  0  0  0  0  0
  -12.4880   -2.5480  -21.8720 C   0  0  0  0  0  0  0  0  0  0  0  0
  -13.2640   -3.4450  -20.6040 Cl  0  0  0  0  0  0  0  0  0  0  0  0
  -11.1060   -2.4580  -21.9180 C   0  0  0  0  0  0  0  0  0  0  0  0
  -10.4790   -1.8660  -23.0160 C   0  0  0  0  0  0  0  0  0  0  0  0
   -8.9600   -1.8860  -23.1210 C   0  0  2  0  0  0  0  0  0  0  0  0
   -8.2690   -3.1440  -22.5710 C   0  0  0  0  0  0  0  0  0  0  0  0
   -7.4700   -2.7150  -21.3400 C   0  0  0  0  0  0  0  0  0  0  0  0
   -7.4870   -1.2620  -21.3630 N   0  0  0  0  0  0  0  0  0  0  0  0
   -6.7100   -0.6340  -20.3510 C   0  0  0  0  0  0  0  0  0  0  0  0
   -6.9830   -0.9610  -19.0420 C   0  0  0  0  0  0  0  0  0  0  0  0
   -6.3010   -0.5170  -17.9650 N   0  0  0  0  0  0  0  0  0  0  0  0
   -5.2570    0.2400  -18.1820 C   0  0  0  0  0  0  0  0  0  0  0  0
   -4.7900    0.5860  -19.4800 C   0  0  0  0  0  0  0  0  0  0  0  0
   -3.6140    1.3630  -19.6620 C   0  0  0  0  0  0  0  0  0  0  0  0
   -3.1470    1.6250  -20.9200 C   0  0  0  0  0  0  0  0  0  0  0  0
   -3.8180    1.1060  -22.0480 C   0  0  0  0  0  0  0  0  0  0  0  0
   -4.9650    0.3610  -21.8980 C   0  0  0  0  0  0  0  0  0  0  0  0
   -5.5070    0.1110  -20.6090 C   0  0  0  0  0  0  0  0  0  0  0  0
   -5.4550   -0.0530  -22.7720 H   0  0  0  0  0  0  0  0  0  0  0  0
   -3.4270    1.2990  -23.0430 H   0  0  0  0  0  0  0  0  0  0  0  0
   -2.2570    2.2340  -21.0560 H   0  0  0  0  0  0  0  0  0  0  0  0
   -3.1000    1.7320  -18.7770 H   0  0  0  0  0  0  0  0  0  0  0  0
   -4.7130    0.5950  -17.3060 H   0  0  0  0  0  0  0  0  0  0  0  0
   -7.8110   -1.6310  -18.8180 H   0  0  0  0  0  0  0  0  0  0  0  0
   -8.3020   -0.7350  -22.3370 C   0  0  0  0  0  0  0  0  0  0  0  0
   -8.4220    0.4380  -22.6670 O   0  0  0  0  0  0  0  0  0  0  0  0
   -7.9060   -3.0740  -20.4070 H   0  0  0  0  0  0  0  0  0  0  0  0
   -6.4280   -3.0520  -21.3700 H   0  0  0  0  0  0  0  0  0  0  0  0
   -7.5760   -3.5320  -23.3240 H   0  0  0  0  0  0  0  0  0  0  0  0
   -8.9720   -3.9490  -22.3500 H   0  0  0  0  0  0  0  0  0  0  0  0
   -8.5120   -1.6640  -24.5720 C   0  0  0  0  0  0  0  0  0  0  0  0
   -8.7560   -2.5370  -25.1980 H   0  0  0  0  0  0  0  0  0  0  0  0
   -7.4260   -1.5190  -24.5890 H   0  0  0  0  0  0  0  0  0  0  0  0
  -10.4990   -2.8710  -21.1210 H   0  0  0  0  0  0  0  0  0  0  0  0
  -14.3550   -2.0840  -22.8050 H   0  0  0  0  0  0  0  0  0  0  0  0
  -13.2850   -0.8880  -24.6830 H   0  0  0  0  0  0  0  0  0  0  0  0
  -10.6920   -1.5610  -26.0640 H   0  0  0  0  0  0  0  0  0  0  0  0
  -11.1630    0.0960  -25.6680 H   0  0  0  0  0  0  0  0  0  0  0  0
   -9.0620    0.3090  -24.3770 H   0  0  0  0  0  0  0  0  0  0  0  0
   -7.5250    0.1680  -26.2390 H   0  0  0  0  0  0  0  0  0  0  0  0
   -8.6770   -0.8740  -27.0830 H   0  0  0  0  0  0  0  0  0  0  0  0
   -9.9840    1.0600  -28.0460 N   0  0  0  0  0  0  0  0  0  0  0  0
  -10.7630    2.1300  -28.6370 C   0  0  0  0  0  0  0  0  0  0  0  0
  -10.0530    2.7700  -29.8220 C   0  0  1  0  0  0  0  0  0  0  0  0
   -9.9290    1.8740  -31.0870 C   0  0  0  0  0  0  0  0  0  0  0  0
  -10.6980    2.9330  -31.9000 C   0  0  1  0  0  0  0  0  0  0  0  0
  -11.8840    2.4440  -32.4310 F   0  0  0  0  0  0  0  0  0  0  0  0
  -10.9000    3.7880  -30.6310 C   0  0  0  0  0  0  0  0  0  0  0  0
  -10.5100    4.8120  -30.6720 H   0  0  0  0  0  0  0  0  0  0  0  0
  -11.9520    3.8390  -30.3240 H   0  0  0  0  0  0  0  0  0  0  0  0
  -10.1580    3.4180  -32.7230 H   0  0  0  0  0  0  0  0  0  0  0  0
  -10.5040    0.9410  -31.0320 H   0  0  0  0  0  0  0  0  0  0  0  0
   -8.9110    1.6330  -31.4190 H   0  0  0  0  0  0  0  0  0  0  0  0
   -9.0920    3.1790  -29.4920 H   0  0  0  0  0  0  0  0  0  0  0  0
  -10.9680    2.8790  -27.8630 H   0  0  0  0  0  0  0  0  0  0  0  0
  -11.7170    1.7330  -29.0020 H   0  0  0  0  0  0  0  0  0  0  0  0
  -10.0590    0.1370  -28.4510 H   0  0  0  0  0  0  0  0  0  0  0  0
  1  2  2  0  0  0  0
  2  3  1  0  0  0  0
  2 50  1  0  0  0  0
  3  4  1  0  0  0  0
  3 48  1  0  0  0  0
  3 49  1  0  0  0  0
  4  5  1  0  0  0  0
  4 39  1  0  0  0  0
  4 47  1  1  0  0  0
  5  6  1  0  0  0  0
  5 45  1  0  0  0  0
  5 46  1  0  0  0  0
  6  7  2  0  0  0  0
  6 12  1  0  0  0  0
  7  8  1  0  0  0  0
  7 44  1  0  0  0  0
  8  9  2  0  0  0  0
  8 43  1  0  0  0  0
  9 10  1  0  0  0  0
  9 11  1  0  0  0  0
 11 12  2  0  0  0  0
 11 42  1  0  0  0  0
 13 12  1  1  0  0  0
 13 14  1  0  0  0  0
 13 33  1  0  0  0  0
 13 39  1  0  0  0  0
 14 15  1  0  0  0  0
 14 37  1  0  0  0  0
 14 38  1  0  0  0  0
 15 16  1  0  0  0  0
 15 35  1  0  0  0  0
 15 36  1  0  0  0  0
 16 17  1  0  0  0  0
 16 33  1  0  0  0  0
 17 18  2  0  0  0  0
 17 26  1  0  0  0  0
 18 19  1  0  0  0  0
 18 32  1  0  0  0  0
 19 20  2  0  0  0  0
 20 21  1  0  0  0  0
 20 31  1  0  0  0  0
 21 22  2  0  0  0  0
 21 26  1  0  0  0  0
 22 23  1  0  0  0  0
 22 30  1  0  0  0  0
 23 24  2  0  0  0  0
 23 29  1  0  0  0  0
 24 25  1  0  0  0  0
 24 28  1  0  0  0  0
 25 26  2  0  0  0  0
 25 27  1  0  0  0  0
 33 34  2  0  0  0  0
 39 40  1  0  0  0  0
 39 41  1  0  0  0  0
 50 51  1  0  0  0  0
 50 65  1  0  0  0  0
 51 52  1  0  0  0  0
 51 63  1  0  0  0  0
 51 64  1  0  0  0  0
 52 53  1  0  0  0  0
 52 56  1  0  0  0  0
 52 62  1  1  0  0  0
 53 54  1  0  0  0  0
 53 60  1  0  0  0  0
 53 61  1  0  0  0  0
 54 55  1  0  0  0  0
 54 56  1  0  0  0  0
 54 59  1  6  0  0  0
 56 57  1  0  0  0  0
 56 58  1  0  0  0  0
M  CHG  1   4   1
M  END
>  <MODEL>
       1

$$$$
