tmp_first_model_6_29.pdb
 OpenBabel08272519583D

 55 60  0  0  1  0  0  0  0  0999 V2000
   -7.8790   -3.6220  -24.0840 C   0  0  0  0  0  0  0  0  0  0  0  0
   -8.2900   -2.8530  -22.8200 C   0  0  1  0  0  0  0  0  0  0  0  0
   -7.0930   -2.6220  -21.8710 C   0  0  0  0  0  0  0  0  0  0  0  0
   -7.4090   -1.3790  -21.1980 N   0  0  0  0  0  0  0  0  0  0  0  0
   -6.6090   -0.8020  -20.1740 C   0  0  0  0  0  0  0  0  0  0  0  0
   -6.9060   -1.0490  -18.8600 C   0  0  0  0  0  0  0  0  0  0  0  0
   -6.1960   -0.5630  -17.8120 N   0  0  0  0  0  0  0  0  0  0  0  0
   -5.1690    0.2080  -18.0760 C   0  0  0  0  0  0  0  0  0  0  0  0
   -4.7410    0.5460  -19.3920 C   0  0  0  0  0  0  0  0  0  0  0  0
   -3.6120    1.3790  -19.6320 C   0  0  0  0  0  0  0  0  0  0  0  0
   -3.2260    1.6790  -20.9090 C   0  0  0  0  0  0  0  0  0  0  0  0
   -3.9580    1.1610  -21.9990 C   0  0  0  0  0  0  0  0  0  0  0  0
   -5.0440    0.3380  -21.7910 C   0  0  0  0  0  0  0  0  0  0  0  0
   -5.4780    0.0220  -20.4790 C   0  0  0  0  0  0  0  0  0  0  0  0
   -5.5640   -0.0770  -22.6490 H   0  0  0  0  0  0  0  0  0  0  0  0
   -3.6460    1.3710  -23.0150 H   0  0  0  0  0  0  0  0  0  0  0  0
   -2.3540    2.3000  -21.0950 H   0  0  0  0  0  0  0  0  0  0  0  0
   -3.0710    1.7710  -18.7750 H   0  0  0  0  0  0  0  0  0  0  0  0
   -4.6240    0.6120  -17.2230 H   0  0  0  0  0  0  0  0  0  0  0  0
   -7.7550   -1.6730  -18.5960 H   0  0  0  0  0  0  0  0  0  0  0  0
   -8.4110   -0.6460  -21.7940 C   0  0  0  0  0  0  0  0  0  0  0  0
   -8.7790    0.4350  -21.3870 O   0  0  0  0  0  0  0  0  0  0  0  0
   -8.9500   -1.4460  -23.0160 C   0  0  1  0  0  0  0  0  0  0  0  0
   -8.4860   -0.7990  -24.3460 C   0  0  0  0  0  0  0  0  0  0  0  0
   -9.1480    0.4560  -24.6220 N   0  0  0  0  0  0  0  0  0  0  0  0
   -8.3530    1.6320  -24.9500 C   0  0  0  0  0  0  0  0  0  0  0  0
   -8.0480    2.4970  -23.7540 C   0  0  0  0  0  0  0  0  0  0  0  0
   -8.8780    3.4280  -23.1130 C   0  0  0  0  0  0  0  0  0  0  0  0
   -8.2160    3.9620  -22.0920 N   0  0  0  0  0  0  0  0  0  0  0  0
   -7.0540    3.3530  -22.1330 N   0  0  0  0  0  0  0  0  0  0  0  0
   -6.8790    2.4730  -23.1060 N   0  0  0  0  0  0  0  0  0  0  0  0
   -6.3710    3.5130  -21.4030 H   0  0  0  0  0  0  0  0  0  0  0  0
   -9.9070    3.6960  -23.3240 H   0  0  0  0  0  0  0  0  0  0  0  0
   -7.4080    1.3060  -25.3970 H   0  0  0  0  0  0  0  0  0  0  0  0
   -8.9190    2.2070  -25.6870 H   0  0  0  0  0  0  0  0  0  0  0  0
  -10.5020    0.6050  -24.4880 C   0  0  0  0  0  0  0  0  0  0  0  0
  -11.1020    1.5890  -24.9080 O   0  0  0  0  0  0  0  0  0  0  0  0
  -11.1940   -0.4890  -23.7380 C   0  0  0  0  0  0  0  0  0  0  0  0
  -12.5880   -0.4670  -23.6980 C   0  0  0  0  0  0  0  0  0  0  0  0
  -13.2820   -1.3290  -22.8740 C   0  0  0  0  0  0  0  0  0  0  0  0
  -12.5470   -2.1890  -22.0680 C   0  0  0  0  0  0  0  0  0  0  0  0
  -13.2090   -2.9860  -21.2160 F   0  0  0  0  0  0  0  0  0  0  0  0
  -11.1700   -2.2460  -22.0990 C   0  0  0  0  0  0  0  0  0  0  0  0
  -10.4670   -1.4290  -22.9920 C   0  0  0  0  0  0  0  0  0  0  0  0
  -10.6720   -2.9040  -21.3960 H   0  0  0  0  0  0  0  0  0  0  0  0
  -14.3630   -1.3330  -22.8060 H   0  0  0  0  0  0  0  0  0  0  0  0
  -13.0970    0.2690  -24.3070 H   0  0  0  0  0  0  0  0  0  0  0  0
   -7.4150   -0.5860  -24.2690 H   0  0  0  0  0  0  0  0  0  0  0  0
   -8.6640   -1.5030  -25.1730 H   0  0  0  0  0  0  0  0  0  0  0  0
   -6.1460   -2.5510  -22.4300 H   0  0  0  0  0  0  0  0  0  0  0  0
   -6.9690   -3.4300  -21.1410 H   0  0  0  0  0  0  0  0  0  0  0  0
   -9.0300   -3.4540  -22.2870 H   0  0  0  0  0  0  0  0  0  0  0  0
   -7.4910   -4.6150  -23.8300 H   0  0  0  0  0  0  0  0  0  0  0  0
   -7.0870   -3.0970  -24.6330 H   0  0  0  0  0  0  0  0  0  0  0  0
   -8.7170   -3.7640  -24.7760 H   0  0  0  0  0  0  0  0  0  0  0  0
  1  2  1  0  0  0  0
  1 53  1  0  0  0  0
  1 54  1  0  0  0  0
  1 55  1  0  0  0  0
  2  3  1  0  0  0  0
  2 23  1  0  0  0  0
  2 52  1  1  0  0  0
  3  4  1  0  0  0  0
  3 50  1  0  0  0  0
  3 51  1  0  0  0  0
  4  5  1  0  0  0  0
  4 21  1  0  0  0  0
  5  6  2  0  0  0  0
  5 14  1  0  0  0  0
  6  7  1  0  0  0  0
  6 20  1  0  0  0  0
  7  8  2  0  0  0  0
  8  9  1  0  0  0  0
  8 19  1  0  0  0  0
  9 10  2  0  0  0  0
  9 14  1  0  0  0  0
 10 11  1  0  0  0  0
 10 18  1  0  0  0  0
 11 12  2  0  0  0  0
 11 17  1  0  0  0  0
 12 13  1  0  0  0  0
 12 16  1  0  0  0  0
 13 14  2  0  0  0  0
 13 15  1  0  0  0  0
 21 22  2  0  0  0  0
 23 21  1  1  0  0  0
 23 24  1  0  0  0  0
 23 44  1  0  0  0  0
 24 25  1  0  0  0  0
 24 48  1  0  0  0  0
 24 49  1  0  0  0  0
 25 26  1  0  0  0  0
 25 36  1  0  0  0  0
 26 27  1  0  0  0  0
 26 34  1  0  0  0  0
 26 35  1  0  0  0  0
 27 28  1  0  0  0  0
 27 31  2  0  0  0  0
 28 29  2  0  0  0  0
 28 33  1  0  0  0  0
 29 30  1  0  0  0  0
 30 31  1  0  0  0  0
 30 32  1  0  0  0  0
 36 37  2  0  0  0  0
 36 38  1  0  0  0  0
 38 39  2  0  0  0  0
 38 44  1  0  0  0  0
 39 40  1  0  0  0  0
 39 47  1  0  0  0  0
 40 41  2  0  0  0  0
 40 46  1  0  0  0  0
 41 42  1  0  0  0  0
 41 43  1  0  0  0  0
 43 44  2  0  0  0  0
 43 45  1  0  0  0  0
M  END
>  <MODEL>
       1

$$$$
