tmp_first_model_16_35.pdb
 OpenBabel08282501503D

 40 42  0  0  0  0  0  0  0  0999 V2000
   -9.1850   -1.8940  -22.8180 O   0  0  0  0  0  0  0  0  0  0  0  0
   -8.2910   -1.1200  -22.4980 C   0  0  0  0  0  0  0  0  0  0  0  0
   -6.9400   -1.6760  -22.0300 C   0  0  0  0  0  0  0  0  0  0  0  0
   -6.3700   -1.0310  -20.7790 C   0  0  0  0  0  0  0  0  0  0  0  0
   -6.9800   -1.2490  -19.5660 C   0  0  0  0  0  0  0  0  0  0  0  0
   -6.4950   -0.8600  -18.3600 N   0  0  0  0  0  0  0  0  0  0  0  0
   -5.3790   -0.1720  -18.3650 C   0  0  0  0  0  0  0  0  0  0  0  0
   -4.6940    0.2220  -19.5450 C   0  0  0  0  0  0  0  0  0  0  0  0
   -3.5760    1.0900  -19.5040 C   0  0  0  0  0  0  0  0  0  0  0  0
   -3.0010    1.5350  -20.6600 C   0  0  0  0  0  0  0  0  0  0  0  0
   -3.4800    1.0840  -21.9100 C   0  0  0  0  0  0  0  0  0  0  0  0
   -4.5130    0.1790  -21.9750 C   0  0  0  0  0  0  0  0  0  0  0  0
   -5.1850   -0.2350  -20.7920 C   0  0  0  0  0  0  0  0  0  0  0  0
   -4.8230   -0.1960  -22.9500 H   0  0  0  0  0  0  0  0  0  0  0  0
   -3.0000    1.4350  -22.8200 H   0  0  0  0  0  0  0  0  0  0  0  0
   -2.1650    2.2260  -20.6310 H   0  0  0  0  0  0  0  0  0  0  0  0
   -3.2230    1.4200  -18.5320 H   0  0  0  0  0  0  0  0  0  0  0  0
   -4.9670    0.1200  -17.3990 H   0  0  0  0  0  0  0  0  0  0  0  0
   -7.9210   -1.8000  -19.5260 H   0  0  0  0  0  0  0  0  0  0  0  0
   -7.1160   -2.7400  -21.8280 H   0  0  0  0  0  0  0  0  0  0  0  0
   -6.2070   -1.6460  -22.8450 H   0  0  0  0  0  0  0  0  0  0  0  0
   -8.3700    0.2620  -22.5140 N   0  0  0  0  0  0  0  0  0  0  0  0
   -7.3940    1.1420  -23.2440 C   0  0  0  0  0  0  0  0  0  0  0  0
   -7.9400    2.4450  -23.7680 C   0  0  0  0  0  0  0  0  0  0  0  0
   -9.2030    2.8590  -23.7370 C   0  0  0  0  0  0  0  0  0  0  0  0
   -8.5100    5.5150  -23.0990 C   0  0  0  0  0  0  0  0  0  0  0  0
   -7.7660    5.1720  -22.0690 F   0  0  0  0  0  0  0  0  0  0  0  0
   -9.3370    6.4810  -22.7710 F   0  0  0  0  0  0  0  0  0  0  0  0
   -7.7590    5.8720  -24.1220 F   0  0  0  0  0  0  0  0  0  0  0  0
   -9.5380    1.0550  -22.0560 C   0  0  0  0  0  0  0  0  0  0  0  0
   -9.5580    0.8960  -21.8760 C   0  0  0  0  0  0  0  0  0  0  0  0
  -10.3150    0.5700  -22.8560 H   0  0  0  0  0  0  0  0  0  0  0  0
   -9.8700    0.0230  -20.6010 H   0  0  0  0  0  0  0  0  0  0  0  0
  -10.4300    1.8320  -21.7810 H   0  0  0  0  0  0  0  0  0  0  0  0
   -8.8010    1.8710  -21.5250 H   0  0  0  0  0  0  0  0  0  0  0  0
   -9.4180    3.9280  -23.7710 H   0  0  0  0  0  0  0  0  0  0  0  0
   -7.1500    3.0630  -24.1950 H   0  0  0  0  0  0  0  0  0  0  0  0
  -10.0040    2.1440  -23.7150 H   0  0  0  0  0  0  0  0  0  0  0  0
   -6.9880    0.5710  -24.0800 H   0  0  0  0  0  0  0  0  0  0  0  0
   -6.5780    1.3770  -22.5490 H   0  0  0  0  0  0  0  0  0  0  0  0
  1  2  2  0  0  0  0
  2  3  1  0  0  0  0
  2 22  1  0  0  0  0
  3  4  1  0  0  0  0
  3 20  1  0  0  0  0
  3 21  1  0  0  0  0
  4  5  2  0  0  0  0
  4 13  1  0  0  0  0
  5  6  1  0  0  0  0
  5 19  1  0  0  0  0
  6  7  2  0  0  0  0
  7  8  1  0  0  0  0
  7 18  1  0  0  0  0
  8  9  2  0  0  0  0
  8 13  1  0  0  0  0
  9 10  1  0  0  0  0
  9 17  1  0  0  0  0
 10 11  2  0  0  0  0
 10 16  1  0  0  0  0
 11 12  1  0  0  0  0
 11 15  1  0  0  0  0
 12 13  2  0  0  0  0
 12 14  1  0  0  0  0
 22 23  1  0  0  0  0
 22 31  1  0  0  0  0
 23 24  1  0  0  0  0
 23 39  1  0  0  0  0
 23 40  1  0  0  0  0
 24 25  1  0  0  0  0
 24 37  1  0  0  0  0
 24 38  1  0  0  0  0
 25 26  1  0  0  0  0
 25 30  1  0  0  0  0
 25 36  1  0  0  0  0
 26 27  1  0  0  0  0
 26 28  1  0  0  0  0
 26 29  1  0  0  0  0
 30 31  1  0  0  0  0
 30 34  1  0  0  0  0
 30 35  1  0  0  0  0
 31 32  1  0  0  0  0
 31 33  1  0  0  0  0
M  END
>  <MODEL>
       1

$$$$
