tmp_first_model_5_64.pdb
 OpenBabel08272519233D

 55 60  0  0  1  0  0  0  0  0999 V2000
   -7.9210   -3.6550  -24.0660 C   0  0  0  0  0  0  0  0  0  0  0  0
   -8.2900   -2.8600  -22.8230 C   0  0  1  0  0  0  0  0  0  0  0  0
   -7.0870   -2.6740  -21.8950 C   0  0  0  0  0  0  0  0  0  0  0  0
   -7.4070   -1.4620  -21.1890 N   0  0  0  0  0  0  0  0  0  0  0  0
   -6.5340   -0.9650  -20.2000 C   0  0  0  0  0  0  0  0  0  0  0  0
   -6.8360   -1.1210  -18.8790 C   0  0  0  0  0  0  0  0  0  0  0  0
   -5.9940   -0.8260  -17.8600 N   0  0  0  0  0  0  0  0  0  0  0  0
   -4.8270   -0.3190  -18.1850 C   0  0  0  0  0  0  0  0  0  0  0  0
   -4.4290   -0.0280  -19.5220 C   0  0  0  0  0  0  0  0  0  0  0  0
   -3.2610    0.7350  -19.8000 C   0  0  0  0  0  0  0  0  0  0  0  0
   -3.1480    1.4040  -20.9810 C   0  0  0  0  0  0  0  0  0  0  0  0
   -4.0460    1.1130  -22.0450 C   0  0  0  0  0  0  0  0  0  0  0  0
   -5.0660    0.2150  -21.8590 C   0  0  0  0  0  0  0  0  0  0  0  0
   -5.3370   -0.2930  -20.5610 C   0  0  0  0  0  0  0  0  0  0  0  0
   -5.6740   -0.0950  -22.7030 H   0  0  0  0  0  0  0  0  0  0  0  0
   -3.9010    1.5740  -23.0150 H   0  0  0  0  0  0  0  0  0  0  0  0
   -2.2950    2.0550  -21.1570 H   0  0  0  0  0  0  0  0  0  0  0  0
   -2.5480    0.8660  -18.9910 H   0  0  0  0  0  0  0  0  0  0  0  0
   -4.1640   -0.0100  -17.3760 H   0  0  0  0  0  0  0  0  0  0  0  0
   -7.8120   -1.5180  -18.6250 H   0  0  0  0  0  0  0  0  0  0  0  0
   -8.3750   -0.6800  -21.7820 C   0  0  0  0  0  0  0  0  0  0  0  0
   -8.7160    0.4050  -21.3710 O   0  0  0  0  0  0  0  0  0  0  0  0
   -8.8990   -1.4360  -23.0290 C   0  0  1  0  0  0  0  0  0  0  0  0
   -8.3720   -0.7870  -24.3400 C   0  0  0  0  0  0  0  0  0  0  0  0
   -9.0210    0.4760  -24.6400 N   0  0  0  0  0  0  0  0  0  0  0  0
   -8.2500    1.6530  -25.0070 C   0  0  0  0  0  0  0  0  0  0  0  0
   -8.0030    2.5400  -23.8210 C   0  0  0  0  0  0  0  0  0  0  0  0
   -6.8250    2.5420  -23.1360 N   0  0  0  0  0  0  0  0  0  0  0  0
   -7.0510    3.4050  -22.1660 C   0  0  0  0  0  0  0  0  0  0  0  0
   -8.2880    3.9160  -22.2870 N   0  0  0  0  0  0  0  0  0  0  0  0
   -8.9190    3.3560  -23.3420 N   0  0  0  0  0  0  0  0  0  0  0  0
   -8.8070    4.4770  -21.6280 H   0  0  0  0  0  0  0  0  0  0  0  0
   -6.3560    3.7060  -21.3960 H   0  0  0  0  0  0  0  0  0  0  0  0
   -8.8160    2.2010  -25.7650 H   0  0  0  0  0  0  0  0  0  0  0  0
   -7.2960    1.3370  -25.4390 H   0  0  0  0  0  0  0  0  0  0  0  0
  -10.3830    0.6090  -24.5820 C   0  0  0  0  0  0  0  0  0  0  0  0
  -10.9670    1.5850  -25.0300 O   0  0  0  0  0  0  0  0  0  0  0  0
  -11.1030   -0.5130  -23.9120 C   0  0  0  0  0  0  0  0  0  0  0  0
  -12.4810   -0.6150  -24.1030 C   0  0  0  0  0  0  0  0  0  0  0  0
  -13.2060   -1.5900  -23.4490 C   0  0  0  0  0  0  0  0  0  0  0  0
  -12.5380   -2.3440  -22.4850 C   0  0  0  0  0  0  0  0  0  0  0  0
  -13.2480   -3.2120  -21.7440 F   0  0  0  0  0  0  0  0  0  0  0  0
  -11.1790   -2.2460  -22.2650 C   0  0  0  0  0  0  0  0  0  0  0  0
  -10.4160   -1.4040  -23.0800 C   0  0  0  0  0  0  0  0  0  0  0  0
  -10.7290   -2.8330  -21.4720 H   0  0  0  0  0  0  0  0  0  0  0  0
  -14.2740   -1.7220  -23.5940 H   0  0  0  0  0  0  0  0  0  0  0  0
  -12.9690    0.1040  -24.7510 H   0  0  0  0  0  0  0  0  0  0  0  0
   -7.2890   -0.6240  -24.2780 H   0  0  0  0  0  0  0  0  0  0  0  0
   -8.5550   -1.4850  -25.1680 H   0  0  0  0  0  0  0  0  0  0  0  0
   -6.1390   -2.5960  -22.4530 H   0  0  0  0  0  0  0  0  0  0  0  0
   -6.9800   -3.4960  -21.1800 H   0  0  0  0  0  0  0  0  0  0  0  0
   -9.0270   -3.4380  -22.2620 H   0  0  0  0  0  0  0  0  0  0  0  0
   -7.1140   -3.1580  -24.6180 H   0  0  0  0  0  0  0  0  0  0  0  0
   -8.7750   -3.7860  -24.7390 H   0  0  0  0  0  0  0  0  0  0  0  0
   -7.5550   -4.6450  -23.7730 H   0  0  0  0  0  0  0  0  0  0  0  0
  1  2  1  0  0  0  0
  1 53  1  0  0  0  0
  1 54  1  0  0  0  0
  1 55  1  0  0  0  0
  2  3  1  0  0  0  0
  2 23  1  0  0  0  0
  2 52  1  1  0  0  0
  3  4  1  0  0  0  0
  3 50  1  0  0  0  0
  3 51  1  0  0  0  0
  4  5  1  0  0  0  0
  4 21  1  0  0  0  0
  5  6  2  0  0  0  0
  5 14  1  0  0  0  0
  6  7  1  0  0  0  0
  6 20  1  0  0  0  0
  7  8  2  0  0  0  0
  8  9  1  0  0  0  0
  8 19  1  0  0  0  0
  9 10  2  0  0  0  0
  9 14  1  0  0  0  0
 10 11  1  0  0  0  0
 10 18  1  0  0  0  0
 11 12  2  0  0  0  0
 11 17  1  0  0  0  0
 12 13  1  0  0  0  0
 12 16  1  0  0  0  0
 13 14  2  0  0  0  0
 13 15  1  0  0  0  0
 21 22  2  0  0  0  0
 23 21  1  1  0  0  0
 23 24  1  0  0  0  0
 23 44  1  0  0  0  0
 24 25  1  0  0  0  0
 24 48  1  0  0  0  0
 24 49  1  0  0  0  0
 25 26  1  0  0  0  0
 25 36  1  0  0  0  0
 26 27  1  0  0  0  0
 26 34  1  0  0  0  0
 26 35  1  0  0  0  0
 27 28  1  0  0  0  0
 27 31  2  0  0  0  0
 28 29  2  0  0  0  0
 29 30  1  0  0  0  0
 29 33  1  0  0  0  0
 30 31  1  0  0  0  0
 30 32  1  0  0  0  0
 36 37  2  0  0  0  0
 36 38  1  0  0  0  0
 38 39  2  0  0  0  0
 38 44  1  0  0  0  0
 39 40  1  0  0  0  0
 39 47  1  0  0  0  0
 40 41  2  0  0  0  0
 40 46  1  0  0  0  0
 41 42  1  0  0  0  0
 41 43  1  0  0  0  0
 43 44  2  0  0  0  0
 43 45  1  0  0  0  0
M  END
>  <MODEL>
       1

$$$$
