tmp_first_model_11_2.pdb
 OpenBabel08272522543D

 60 65  0  0  1  0  0  0  0  0999 V2000
   -9.3260    0.2140  -31.1120 C   0  0  0  0  0  0  0  0  0  0  0  0
   -8.9080    0.5940  -29.7140 C   0  0  0  0  0  0  0  0  0  0  0  0
   -9.3540    1.7690  -29.0940 C   0  0  0  0  0  0  0  0  0  0  0  0
   -9.2290    1.9620  -27.7850 N   0  0  0  0  0  0  0  0  0  0  0  0
   -8.6000    1.0170  -27.0740 C   0  0  0  0  0  0  0  0  0  0  0  0
   -8.5600    1.1800  -25.5710 C   0  0  0  0  0  0  0  0  0  0  0  0
   -9.3140    0.1700  -24.8350 N   0  0  0  0  0  0  0  0  0  0  0  0
   -8.7030   -1.1120  -24.5150 C   0  0  0  0  0  0  0  0  0  0  0  0
   -8.9020   -1.5190  -23.0260 C   0  0  2  0  0  0  0  0  0  0  0  0
   -8.1100   -0.6010  -22.0840 C   0  0  0  0  0  0  0  0  0  0  0  0
   -8.1140    0.6130  -22.0980 O   0  0  0  0  0  0  0  0  0  0  0  0
   -7.3820   -1.3750  -21.2070 N   0  0  0  0  0  0  0  0  0  0  0  0
   -6.5860   -0.8230  -20.1820 C   0  0  0  0  0  0  0  0  0  0  0  0
   -6.8880   -1.0690  -18.8660 C   0  0  0  0  0  0  0  0  0  0  0  0
   -6.2110   -0.5580  -17.8080 N   0  0  0  0  0  0  0  0  0  0  0  0
   -5.1800    0.2080  -18.0760 C   0  0  0  0  0  0  0  0  0  0  0  0
   -4.7350    0.5110  -19.3940 C   0  0  0  0  0  0  0  0  0  0  0  0
   -3.6060    1.3400  -19.6210 C   0  0  0  0  0  0  0  0  0  0  0  0
   -3.1880    1.6120  -20.8930 C   0  0  0  0  0  0  0  0  0  0  0  0
   -3.8690    1.0600  -21.9990 C   0  0  0  0  0  0  0  0  0  0  0  0
   -4.9630    0.2540  -21.8080 C   0  0  0  0  0  0  0  0  0  0  0  0
   -5.4400   -0.0230  -20.4930 C   0  0  0  0  0  0  0  0  0  0  0  0
   -5.4780   -0.1570  -22.6690 H   0  0  0  0  0  0  0  0  0  0  0  0
   -3.5270    1.2840  -23.0060 H   0  0  0  0  0  0  0  0  0  0  0  0
   -2.3290    2.2550  -21.0620 H   0  0  0  0  0  0  0  0  0  0  0  0
   -3.0970    1.7640  -18.7600 H   0  0  0  0  0  0  0  0  0  0  0  0
   -4.6290    0.6260  -17.2320 H   0  0  0  0  0  0  0  0  0  0  0  0
   -7.7510   -1.6880  -18.6210 H   0  0  0  0  0  0  0  0  0  0  0  0
   -7.6400   -2.7930  -21.3150 C   0  0  0  0  0  0  0  0  0  0  0  0
   -8.3580   -2.9460  -22.6750 C   0  0  2  0  0  0  0  0  0  0  0  0
   -7.4950   -3.6130  -23.7430 C   0  0  0  0  0  0  0  0  0  0  0  0
   -7.1980   -4.6140  -23.4110 H   0  0  0  0  0  0  0  0  0  0  0  0
   -6.5910   -3.0410  -23.9770 H   0  0  0  0  0  0  0  0  0  0  0  0
   -8.0770   -3.7410  -24.6600 H   0  0  0  0  0  0  0  0  0  0  0  0
   -9.2040   -3.6260  -22.5520 H   0  0  0  0  0  0  0  0  0  0  0  0
   -8.2760   -3.1450  -20.4890 H   0  0  0  0  0  0  0  0  0  0  0  0
   -6.6960   -3.3470  -21.2540 H   0  0  0  0  0  0  0  0  0  0  0  0
  -10.3920   -1.3980  -22.7380 C   0  0  0  0  0  0  0  0  0  0  0  0
  -10.9910   -2.1970  -21.7610 C   0  0  0  0  0  0  0  0  0  0  0  0
  -12.3680   -2.2460  -21.6590 C   0  0  0  0  0  0  0  0  0  0  0  0
  -12.9180   -3.1440  -20.8260 F   0  0  0  0  0  0  0  0  0  0  0  0
  -13.1900   -1.4280  -22.4190 C   0  0  0  0  0  0  0  0  0  0  0  0
  -12.5850   -0.5530  -23.3060 C   0  0  0  0  0  0  0  0  0  0  0  0
  -11.2000   -0.5310  -23.4760 C   0  0  0  0  0  0  0  0  0  0  0  0
  -10.5950    0.4500  -24.4390 C   0  0  0  0  0  0  0  0  0  0  0  0
  -11.2140    1.4310  -24.8290 O   0  0  0  0  0  0  0  0  0  0  0  0
  -13.1780    0.1590  -23.8650 H   0  0  0  0  0  0  0  0  0  0  0  0
  -14.2700   -1.4590  -22.2950 H   0  0  0  0  0  0  0  0  0  0  0  0
  -10.3990   -2.8180  -21.1020 H   0  0  0  0  0  0  0  0  0  0  0  0
   -9.1530   -1.9020  -25.1310 H   0  0  0  0  0  0  0  0  0  0  0  0
   -7.6440   -1.0650  -24.7750 H   0  0  0  0  0  0  0  0  0  0  0  0
   -8.9810    2.1560  -25.3230 H   0  0  0  0  0  0  0  0  0  0  0  0
   -7.5270    1.1600  -25.1940 H   0  0  0  0  0  0  0  0  0  0  0  0
   -7.9840   -0.0450  -27.7360 C   0  0  0  0  0  0  0  0  0  0  0  0
   -8.1490   -0.2750  -29.0370 N   0  0  0  0  0  0  0  0  0  0  0  0
   -7.3440   -0.7550  -27.2150 H   0  0  0  0  0  0  0  0  0  0  0  0
   -9.8630    2.5490  -29.6720 H   0  0  0  0  0  0  0  0  0  0  0  0
  -10.2900   -0.3140  -31.0690 H   0  0  0  0  0  0  0  0  0  0  0  0
   -9.4580    1.0780  -31.7770 H   0  0  0  0  0  0  0  0  0  0  0  0
   -8.6000   -0.4830  -31.5340 H   0  0  0  0  0  0  0  0  0  0  0  0
  1  2  1  0  0  0  0
  1 58  1  0  0  0  0
  1 59  1  0  0  0  0
  1 60  1  0  0  0  0
  2  3  2  0  0  0  0
  2 55  1  0  0  0  0
  3  4  1  0  0  0  0
  3 57  1  0  0  0  0
  4  5  2  0  0  0  0
  5  6  1  0  0  0  0
  5 54  1  0  0  0  0
  6  7  1  0  0  0  0
  6 52  1  0  0  0  0
  6 53  1  0  0  0  0
  7  8  1  0  0  0  0
  7 45  1  0  0  0  0
  8  9  1  0  0  0  0
  8 50  1  0  0  0  0
  8 51  1  0  0  0  0
  9 10  1  1  0  0  0
  9 30  1  0  0  0  0
  9 38  1  0  0  0  0
 10 11  2  0  0  0  0
 10 12  1  0  0  0  0
 12 13  1  0  0  0  0
 12 29  1  0  0  0  0
 13 14  2  0  0  0  0
 13 22  1  0  0  0  0
 14 15  1  0  0  0  0
 14 28  1  0  0  0  0
 15 16  2  0  0  0  0
 16 17  1  0  0  0  0
 16 27  1  0  0  0  0
 17 18  2  0  0  0  0
 17 22  1  0  0  0  0
 18 19  1  0  0  0  0
 18 26  1  0  0  0  0
 19 20  2  0  0  0  0
 19 25  1  0  0  0  0
 20 21  1  0  0  0  0
 20 24  1  0  0  0  0
 21 22  2  0  0  0  0
 21 23  1  0  0  0  0
 29 30  1  0  0  0  0
 29 36  1  0  0  0  0
 29 37  1  0  0  0  0
 30 31  1  0  0  0  0
 30 35  1  1  0  0  0
 31 32  1  0  0  0  0
 31 33  1  0  0  0  0
 31 34  1  0  0  0  0
 38 39  2  0  0  0  0
 38 44  1  0  0  0  0
 39 40  1  0  0  0  0
 39 49  1  0  0  0  0
 40 41  1  0  0  0  0
 40 42  2  0  0  0  0
 42 43  1  0  0  0  0
 42 48  1  0  0  0  0
 43 44  2  0  0  0  0
 43 47  1  0  0  0  0
 44 45  1  0  0  0  0
 45 46  2  0  0  0  0
 54 55  2  0  0  0  0
 54 56  1  0  0  0  0
M  END
>  <MODEL>
       1

$$$$
