tmp_first_model_8_10.pdb
 OpenBabel08272521063D

 57 62  0  0  1  0  0  0  0  0999 V2000
  -10.3780   -0.9880  -23.4260 C   0  0  0  0  0  0  0  0  0  0  0  0
   -8.9730   -1.3890  -22.9830 C   0  0  1  0  0  0  0  0  0  0  0  0
   -8.3880   -0.4850  -21.8900 C   0  0  0  0  0  0  0  0  0  0  0  0
   -7.4040   -1.3340  -21.2410 N   0  0  0  0  0  0  0  0  0  0  0  0
   -6.5940   -0.8690  -20.1800 C   0  0  0  0  0  0  0  0  0  0  0  0
   -6.8840   -1.1750  -18.8760 C   0  0  0  0  0  0  0  0  0  0  0  0
   -6.2180   -0.6550  -17.8130 N   0  0  0  0  0  0  0  0  0  0  0  0
   -5.2270    0.1700  -18.0550 C   0  0  0  0  0  0  0  0  0  0  0  0
   -4.7960    0.5380  -19.3640 C   0  0  0  0  0  0  0  0  0  0  0  0
   -3.6980    1.4100  -19.5960 C   0  0  0  0  0  0  0  0  0  0  0  0
   -3.3390    1.7450  -20.8740 C   0  0  0  0  0  0  0  0  0  0  0  0
   -4.0520    1.2260  -21.9780 C   0  0  0  0  0  0  0  0  0  0  0  0
   -5.1040    0.3660  -21.7790 C   0  0  0  0  0  0  0  0  0  0  0  0
   -5.5040    0.0100  -20.4640 C   0  0  0  0  0  0  0  0  0  0  0  0
   -5.6400   -0.0540  -22.6220 H   0  0  0  0  0  0  0  0  0  0  0  0
   -3.7490    1.4860  -22.9890 H   0  0  0  0  0  0  0  0  0  0  0  0
   -2.4940    2.4040  -21.0550 H   0  0  0  0  0  0  0  0  0  0  0  0
   -3.1500    1.7990  -18.7400 H   0  0  0  0  0  0  0  0  0  0  0  0
   -4.7080    0.5920  -17.1920 H   0  0  0  0  0  0  0  0  0  0  0  0
   -7.6960   -1.8620  -18.6390 H   0  0  0  0  0  0  0  0  0  0  0  0
   -7.6390   -2.6760  -21.4290 C   0  0  0  0  0  0  0  0  0  0  0  0
   -7.0020   -3.5590  -20.8900 O   0  0  0  0  0  0  0  0  0  0  0  0
   -8.8110   -2.8390  -22.4100 C   0  0  1  0  0  0  0  0  0  0  0  0
  -10.0240   -3.2800  -21.5600 C   0  0  0  0  0  0  0  0  0  0  0  0
  -11.1610   -3.7530  -22.3450 N   0  0  0  0  0  0  0  0  0  0  0  0
  -12.5260   -3.7070  -21.8060 C   0  0  0  0  0  0  0  0  0  0  0  0
  -13.3730   -2.5750  -22.2970 C   0  0  0  0  0  0  0  0  0  0  0  0
  -14.0130   -1.5910  -21.6330 C   0  0  0  0  0  0  0  0  0  0  0  0
  -14.7610   -0.8960  -22.5570 N   0  3  0  0  0  0  0  0  0  0  0  0
  -14.5710   -1.4410  -23.7660 C   0  0  0  0  0  0  0  0  0  0  0  0
  -13.7200   -2.4720  -23.6320 N   0  0  0  0  0  0  0  0  0  0  0  0
  -13.3880   -3.1260  -24.3380 H   0  0  0  0  0  0  0  0  0  0  0  0
  -15.0140   -1.1030  -24.6820 H   0  0  0  0  0  0  0  0  0  0  0  0
  -15.3720   -0.1270  -22.3130 H   0  0  0  0  0  0  0  0  0  0  0  0
  -13.9810   -1.3050  -20.5880 H   0  0  0  0  0  0  0  0  0  0  0  0
  -13.0260   -4.6170  -22.1510 H   0  0  0  0  0  0  0  0  0  0  0  0
  -12.5010   -3.7200  -20.7110 H   0  0  0  0  0  0  0  0  0  0  0  0
  -10.9740   -4.5220  -23.4600 C   0  0  0  0  0  0  0  0  0  0  0  0
  -11.9210   -5.0230  -24.0560 O   0  0  0  0  0  0  0  0  0  0  0  0
   -9.5720   -4.6850  -23.9460 C   0  0  0  0  0  0  0  0  0  0  0  0
   -9.3330   -5.6580  -24.9130 C   0  0  0  0  0  0  0  0  0  0  0  0
   -8.0550   -5.8740  -25.3900 C   0  0  0  0  0  0  0  0  0  0  0  0
   -7.0300   -5.0670  -24.9150 C   0  0  0  0  0  0  0  0  0  0  0  0
   -5.7910   -5.2430  -25.4050 F   0  0  0  0  0  0  0  0  0  0  0  0
   -7.2440   -4.0850  -23.9710 C   0  0  0  0  0  0  0  0  0  0  0  0
   -8.5310   -3.8930  -23.4550 C   0  0  0  0  0  0  0  0  0  0  0  0
   -6.3990   -3.5000  -23.6300 H   0  0  0  0  0  0  0  0  0  0  0  0
   -7.8350   -6.6500  -26.1120 H   0  0  0  0  0  0  0  0  0  0  0  0
  -10.1790   -6.2370  -25.2670 H   0  0  0  0  0  0  0  0  0  0  0  0
   -9.6760   -4.0670  -20.8840 H   0  0  0  0  0  0  0  0  0  0  0  0
  -10.3340   -2.4220  -20.9550 H   0  0  0  0  0  0  0  0  0  0  0  0
   -7.9150    0.4160  -22.2880 H   0  0  0  0  0  0  0  0  0  0  0  0
   -9.1520   -0.1660  -21.1650 H   0  0  0  0  0  0  0  0  0  0  0  0
   -8.3000   -1.3430  -23.8490 H   0  0  0  0  0  0  0  0  0  0  0  0
  -11.0880   -1.0010  -22.5920 H   0  0  0  0  0  0  0  0  0  0  0  0
  -10.7460   -1.6800  -24.1910 H   0  0  0  0  0  0  0  0  0  0  0  0
  -10.3900    0.0230  -23.8420 H   0  0  0  0  0  0  0  0  0  0  0  0
  1  2  1  0  0  0  0
  1 55  1  0  0  0  0
  1 56  1  0  0  0  0
  1 57  1  0  0  0  0
  2  3  1  0  0  0  0
  2 23  1  0  0  0  0
  2 54  1  6  0  0  0
  3  4  1  0  0  0  0
  3 52  1  0  0  0  0
  3 53  1  0  0  0  0
  4  5  1  0  0  0  0
  4 21  1  0  0  0  0
  5  6  2  0  0  0  0
  5 14  1  0  0  0  0
  6  7  1  0  0  0  0
  6 20  1  0  0  0  0
  7  8  2  0  0  0  0
  8  9  1  0  0  0  0
  8 19  1  0  0  0  0
  9 10  2  0  0  0  0
  9 14  1  0  0  0  0
 10 11  1  0  0  0  0
 10 18  1  0  0  0  0
 11 12  2  0  0  0  0
 11 17  1  0  0  0  0
 12 13  1  0  0  0  0
 12 16  1  0  0  0  0
 13 14  2  0  0  0  0
 13 15  1  0  0  0  0
 21 22  2  0  0  0  0
 23 21  1  1  0  0  0
 23 24  1  0  0  0  0
 23 46  1  0  0  0  0
 24 25  1  0  0  0  0
 24 50  1  0  0  0  0
 24 51  1  0  0  0  0
 25 26  1  0  0  0  0
 25 38  1  0  0  0  0
 26 27  1  0  0  0  0
 26 36  1  0  0  0  0
 26 37  1  0  0  0  0
 27 28  2  0  0  0  0
 27 31  1  0  0  0  0
 28 29  1  0  0  0  0
 28 35  1  0  0  0  0
 29 30  2  0  0  0  0
 29 34  1  0  0  0  0
 30 31  1  0  0  0  0
 30 33  1  0  0  0  0
 31 32  1  0  0  0  0
 38 39  2  0  0  0  0
 38 40  1  0  0  0  0
 40 41  2  0  0  0  0
 40 46  1  0  0  0  0
 41 42  1  0  0  0  0
 41 49  1  0  0  0  0
 42 43  2  0  0  0  0
 42 48  1  0  0  0  0
 43 44  1  0  0  0  0
 43 45  1  0  0  0  0
 45 46  2  0  0  0  0
 45 47  1  0  0  0  0
M  CHG  1  29   1
M  END
>  <MODEL>
       1

$$$$
