tmp_first_model_20_40.pdb
 OpenBabel08282503553D

 40 42  0  0  0  0  0  0  0  0999 V2000
  -10.3270   -4.9810  -24.8890 C   0  0  0  0  0  0  0  0  0  0  0  0
   -8.8220   -4.7800  -25.0670 C   0  0  0  0  0  0  0  0  0  0  0  0
   -8.4510   -3.3010  -25.2210 C   0  0  0  0  0  0  0  0  0  0  0  0
   -8.2380   -2.5720  -23.8960 C   0  0  0  0  0  0  0  0  0  0  0  0
   -7.2660   -3.2590  -23.0480 N   0  0  0  0  0  0  0  0  0  0  0  0
   -6.7090   -2.7020  -21.9170 C   0  0  0  0  0  0  0  0  0  0  0  0
   -5.7140   -3.1790  -21.3990 O   0  0  0  0  0  0  0  0  0  0  0  0
   -7.4010   -1.4670  -21.2820 C   0  0  0  0  0  0  0  0  0  0  0  0
   -6.5760   -0.8320  -20.1840 C   0  0  0  0  0  0  0  0  0  0  0  0
   -6.8740   -1.0470  -18.8640 C   0  0  0  0  0  0  0  0  0  0  0  0
   -6.1940   -0.5380  -17.7980 N   0  0  0  0  0  0  0  0  0  0  0  0
   -5.1590    0.2190  -18.0650 C   0  0  0  0  0  0  0  0  0  0  0  0
   -4.7210    0.5290  -19.3800 C   0  0  0  0  0  0  0  0  0  0  0  0
   -3.5930    1.3570  -19.6220 C   0  0  0  0  0  0  0  0  0  0  0  0
   -3.1930    1.6340  -20.9010 C   0  0  0  0  0  0  0  0  0  0  0  0
   -3.9040    1.0910  -21.9930 C   0  0  0  0  0  0  0  0  0  0  0  0
   -4.9990    0.2900  -21.7860 C   0  0  0  0  0  0  0  0  0  0  0  0
   -5.4440   -0.0120  -20.4730 C   0  0  0  0  0  0  0  0  0  0  0  0
   -5.5360   -0.1160  -22.6360 H   0  0  0  0  0  0  0  0  0  0  0  0
   -3.5850    1.3210  -23.0060 H   0  0  0  0  0  0  0  0  0  0  0  0
   -2.3330    2.2740  -21.0890 H   0  0  0  0  0  0  0  0  0  0  0  0
   -3.0530    1.7690  -18.7730 H   0  0  0  0  0  0  0  0  0  0  0  0
   -4.6030    0.6260  -17.2170 H   0  0  0  0  0  0  0  0  0  0  0  0
   -7.7220   -1.6720  -18.5870 H   0  0  0  0  0  0  0  0  0  0  0  0
   -7.6640   -0.7130  -22.0370 H   0  0  0  0  0  0  0  0  0  0  0  0
   -8.3570   -1.8010  -20.8490 H   0  0  0  0  0  0  0  0  0  0  0  0
   -6.8380   -4.5960  -23.4650 C   0  0  0  0  0  0  0  0  0  0  0  0
   -8.0370   -5.4250  -23.9120 C   0  0  0  0  0  0  0  0  0  0  0  0
   -8.6910   -5.5660  -23.0470 H   0  0  0  0  0  0  0  0  0  0  0  0
   -7.7110   -6.4280  -24.2040 H   0  0  0  0  0  0  0  0  0  0  0  0
   -6.3370   -5.0690  -22.6220 H   0  0  0  0  0  0  0  0  0  0  0  0
   -6.0980   -4.5340  -24.2740 H   0  0  0  0  0  0  0  0  0  0  0  0
   -9.1950   -2.4560  -23.3720 H   0  0  0  0  0  0  0  0  0  0  0  0
   -7.8830   -1.5620  -24.1240 H   0  0  0  0  0  0  0  0  0  0  0  0
   -9.2400   -2.7880  -25.7790 H   0  0  0  0  0  0  0  0  0  0  0  0
   -7.5540   -3.2010  -25.8420 H   0  0  0  0  0  0  0  0  0  0  0  0
   -8.5440   -5.2800  -26.0020 H   0  0  0  0  0  0  0  0  0  0  0  0
  -10.8760   -4.6130  -25.7590 H   0  0  0  0  0  0  0  0  0  0  0  0
  -10.5760   -6.0400  -24.7920 H   0  0  0  0  0  0  0  0  0  0  0  0
  -10.7010   -4.4610  -23.9970 H   0  0  0  0  0  0  0  0  0  0  0  0
  1  2  1  0  0  0  0
  1 38  1  0  0  0  0
  1 39  1  0  0  0  0
  1 40  1  0  0  0  0
  2  3  1  0  0  0  0
  2 28  1  0  0  0  0
  2 37  1  0  0  0  0
  3  4  1  0  0  0  0
  3 35  1  0  0  0  0
  3 36  1  0  0  0  0
  4  5  1  0  0  0  0
  4 33  1  0  0  0  0
  4 34  1  0  0  0  0
  5  6  1  0  0  0  0
  5 27  1  0  0  0  0
  6  7  2  0  0  0  0
  6  8  1  0  0  0  0
  8  9  1  0  0  0  0
  8 25  1  0  0  0  0
  8 26  1  0  0  0  0
  9 10  2  0  0  0  0
  9 18  1  0  0  0  0
 10 11  1  0  0  0  0
 10 24  1  0  0  0  0
 11 12  2  0  0  0  0
 12 13  1  0  0  0  0
 12 23  1  0  0  0  0
 13 14  2  0  0  0  0
 13 18  1  0  0  0  0
 14 15  1  0  0  0  0
 14 22  1  0  0  0  0
 15 16  2  0  0  0  0
 15 21  1  0  0  0  0
 16 17  1  0  0  0  0
 16 20  1  0  0  0  0
 17 18  2  0  0  0  0
 17 19  1  0  0  0  0
 27 28  1  0  0  0  0
 27 31  1  0  0  0  0
 27 32  1  0  0  0  0
 28 29  1  0  0  0  0
 28 30  1  0  0  0  0
M  END
>  <MODEL>
       1

$$$$
