tmp_first_model_6_64.pdb
 OpenBabel08272519583D

 55 60  0  0  1  0  0  0  0  0999 V2000
  -10.1920   -2.9680  -22.0490 C   0  0  0  0  0  0  0  0  0  0  0  0
   -9.1370   -2.0220  -22.6380 C   0  0  1  0  0  0  0  0  0  0  0  0
   -8.6820   -0.9800  -21.5890 C   0  0  0  0  0  0  0  0  0  0  0  0
   -7.3740   -1.4270  -21.1850 N   0  0  0  0  0  0  0  0  0  0  0  0
   -6.6040   -0.8190  -20.1660 C   0  0  0  0  0  0  0  0  0  0  0  0
   -6.9250   -1.0520  -18.8560 C   0  0  0  0  0  0  0  0  0  0  0  0
   -6.2380   -0.5580  -17.7980 N   0  0  0  0  0  0  0  0  0  0  0  0
   -5.2040    0.2060  -18.0600 C   0  0  0  0  0  0  0  0  0  0  0  0
   -4.7750    0.5450  -19.3760 C   0  0  0  0  0  0  0  0  0  0  0  0
   -3.6510    1.3830  -19.6000 C   0  0  0  0  0  0  0  0  0  0  0  0
   -3.2900    1.7320  -20.8710 C   0  0  0  0  0  0  0  0  0  0  0  0
   -4.0350    1.2610  -21.9770 C   0  0  0  0  0  0  0  0  0  0  0  0
   -5.1090    0.4250  -21.7940 C   0  0  0  0  0  0  0  0  0  0  0  0
   -5.4980    0.0350  -20.4770 C   0  0  0  0  0  0  0  0  0  0  0  0
   -5.6540    0.0470  -22.6600 H   0  0  0  0  0  0  0  0  0  0  0  0
   -3.7390    1.5470  -22.9820 H   0  0  0  0  0  0  0  0  0  0  0  0
   -2.4330    2.3770  -21.0430 H   0  0  0  0  0  0  0  0  0  0  0  0
   -3.0980    1.7450  -18.7370 H   0  0  0  0  0  0  0  0  0  0  0  0
   -4.6490    0.6060  -17.2110 H   0  0  0  0  0  0  0  0  0  0  0  0
   -7.7740   -1.6940  -18.6210 H   0  0  0  0  0  0  0  0  0  0  0  0
   -6.8460   -2.4160  -21.9720 C   0  0  0  0  0  0  0  0  0  0  0  0
   -5.7760   -2.9460  -21.7630 O   0  0  0  0  0  0  0  0  0  0  0  0
   -7.8250   -2.7150  -23.1250 C   0  0  1  0  0  0  0  0  0  0  0  0
   -7.9500   -4.2470  -23.3050 C   0  0  0  0  0  0  0  0  0  0  0  0
   -6.7360   -4.8290  -23.8440 N   0  0  0  0  0  0  0  0  0  0  0  0
   -6.2530   -6.1040  -23.3280 C   0  0  0  0  0  0  0  0  0  0  0  0
   -5.0690   -6.0230  -22.4040 C   0  0  0  0  0  0  0  0  0  0  0  0
   -5.1470   -6.0870  -20.8180 N   0  0  0  0  0  0  0  0  0  0  0  0
   -5.1470   -6.0870  -20.8180 C   0  0  0  0  0  0  0  0  0  0  0  0
   -2.9080   -5.7290  -22.5330 N   0  0  0  0  0  0  0  0  0  0  0  0
   -4.0140   -5.8130  -23.1770 N   0  0  0  0  0  0  0  0  0  0  0  0
   -2.1990   -5.4870  -23.2330 H   0  0  0  0  0  0  0  0  0  0  0  0
   -6.3050   -6.2300  -20.8540 H   0  0  0  0  0  0  0  0  0  0  0  0
   -5.8740   -6.6320  -24.2210 H   0  0  0  0  0  0  0  0  0  0  0  0
   -7.1200   -6.6530  -22.9280 H   0  0  0  0  0  0  0  0  0  0  0  0
   -6.1980   -4.3270  -25.0030 C   0  0  0  0  0  0  0  0  0  0  0  0
   -5.4470   -4.9740  -25.7210 O   0  0  0  0  0  0  0  0  0  0  0  0
   -6.5420   -2.8990  -25.3130 C   0  0  0  0  0  0  0  0  0  0  0  0
   -6.0640   -2.3680  -26.5140 C   0  0  0  0  0  0  0  0  0  0  0  0
   -6.2920   -1.0450  -26.8400 C   0  0  0  0  0  0  0  0  0  0  0  0
   -7.0030   -0.2680  -25.9340 C   0  0  0  0  0  0  0  0  0  0  0  0
   -7.2220    1.0260  -26.2320 F   0  0  0  0  0  0  0  0  0  0  0  0
   -7.4990   -0.7690  -24.7450 C   0  0  0  0  0  0  0  0  0  0  0  0
   -7.2940   -2.1200  -24.4280 C   0  0  0  0  0  0  0  0  0  0  0  0
   -8.0560   -0.0960  -24.1010 H   0  0  0  0  0  0  0  0  0  0  0  0
   -5.9290   -0.5970  -27.7580 H   0  0  0  0  0  0  0  0  0  0  0  0
   -5.5020   -3.0190  -27.1750 H   0  0  0  0  0  0  0  0  0  0  0  0
   -8.1660   -4.7060  -22.3410 H   0  0  0  0  0  0  0  0  0  0  0  0
   -8.8020   -4.4420  -23.9780 H   0  0  0  0  0  0  0  0  0  0  0  0
   -9.3490   -0.9520  -20.7310 H   0  0  0  0  0  0  0  0  0  0  0  0
   -8.6400    0.0380  -21.9960 H   0  0  0  0  0  0  0  0  0  0  0  0
   -9.6110   -1.5200  -23.4860 H   0  0  0  0  0  0  0  0  0  0  0  0
   -9.7970   -3.5370  -21.2000 H   0  0  0  0  0  0  0  0  0  0  0  0
  -11.0610   -2.4000  -21.6970 H   0  0  0  0  0  0  0  0  0  0  0  0
  -10.5510   -3.6760  -22.8020 H   0  0  0  0  0  0  0  0  0  0  0  0
  1  2  1  0  0  0  0
  1 53  1  0  0  0  0
  1 54  1  0  0  0  0
  1 55  1  0  0  0  0
  2  3  1  0  0  0  0
  2 23  1  0  0  0  0
  2 52  1  6  0  0  0
  3  4  1  0  0  0  0
  3 50  1  0  0  0  0
  3 51  1  0  0  0  0
  4  5  1  0  0  0  0
  4 21  1  0  0  0  0
  5  6  2  0  0  0  0
  5 14  1  0  0  0  0
  6  7  1  0  0  0  0
  6 20  1  0  0  0  0
  7  8  2  0  0  0  0
  8  9  1  0  0  0  0
  8 19  1  0  0  0  0
  9 10  2  0  0  0  0
  9 14  1  0  0  0  0
 10 11  1  0  0  0  0
 10 18  1  0  0  0  0
 11 12  2  0  0  0  0
 11 17  1  0  0  0  0
 12 13  1  0  0  0  0
 12 16  1  0  0  0  0
 13 14  2  0  0  0  0
 13 15  1  0  0  0  0
 21 22  2  0  0  0  0
 23 21  1  1  0  0  0
 23 24  1  0  0  0  0
 23 44  1  0  0  0  0
 24 25  1  0  0  0  0
 24 48  1  0  0  0  0
 24 49  1  0  0  0  0
 25 26  1  0  0  0  0
 25 36  1  0  0  0  0
 26 27  1  0  0  0  0
 26 34  1  0  0  0  0
 26 35  1  0  0  0  0
 27 28  1  0  0  0  0
 27 31  2  0  0  0  0
 28 29  2  0  0  0  0
 29 30  1  0  0  0  0
 29 33  1  0  0  0  0
 30 31  1  0  0  0  0
 30 32  1  0  0  0  0
 36 37  2  0  0  0  0
 36 38  1  0  0  0  0
 38 39  2  0  0  0  0
 38 44  1  0  0  0  0
 39 40  1  0  0  0  0
 39 47  1  0  0  0  0
 40 41  2  0  0  0  0
 40 46  1  0  0  0  0
 41 42  1  0  0  0  0
 41 43  1  0  0  0  0
 43 44  2  0  0  0  0
 43 45  1  0  0  0  0
M  END
>  <MODEL>
       1

$$$$
