tmp_first_model_9_68.pdb
 OpenBabel08272521403D

 65 70  0  0  1  0  0  0  0  0999 V2000
   -9.2350    0.0760  -20.8360 O   0  0  0  0  0  0  0  0  0  0  0  0
   -8.4720   -0.3530  -21.6880 C   0  0  0  0  0  0  0  0  0  0  0  0
   -7.4460   -1.4140  -21.2770 C   0  0  0  0  0  0  0  0  0  0  0  0
   -6.5630   -0.8490  -20.1840 C   0  0  0  0  0  0  0  0  0  0  0  0
   -6.8820   -1.0450  -18.8650 C   0  0  0  0  0  0  0  0  0  0  0  0
   -6.1980   -0.5360  -17.8090 N   0  0  0  0  0  0  0  0  0  0  0  0
   -5.1650    0.2200  -18.0760 C   0  0  0  0  0  0  0  0  0  0  0  0
   -4.7200    0.5260  -19.3910 C   0  0  0  0  0  0  0  0  0  0  0  0
   -3.5980    1.3620  -19.6270 C   0  0  0  0  0  0  0  0  0  0  0  0
   -3.1990    1.6450  -20.9020 C   0  0  0  0  0  0  0  0  0  0  0  0
   -3.9100    1.1110  -21.9980 C   0  0  0  0  0  0  0  0  0  0  0  0
   -5.0040    0.3000  -21.7950 C   0  0  0  0  0  0  0  0  0  0  0  0
   -5.4420   -0.0190  -20.4820 C   0  0  0  0  0  0  0  0  0  0  0  0
   -5.5440   -0.0700  -22.6610 H   0  0  0  0  0  0  0  0  0  0  0  0
   -3.5880    1.3360  -23.0100 H   0  0  0  0  0  0  0  0  0  0  0  0
   -2.3410    2.2870  -21.0820 H   0  0  0  0  0  0  0  0  0  0  0  0
   -3.0770    1.7770  -18.7680 H   0  0  0  0  0  0  0  0  0  0  0  0
   -4.6160    0.6340  -17.2270 H   0  0  0  0  0  0  0  0  0  0  0  0
   -7.7510   -1.6490  -18.6060 H   0  0  0  0  0  0  0  0  0  0  0  0
   -6.8470   -1.7580  -22.1220 H   0  0  0  0  0  0  0  0  0  0  0  0
   -8.0130   -2.2650  -20.8780 H   0  0  0  0  0  0  0  0  0  0  0  0
   -8.4450    0.1520  -22.9810 N   0  0  0  0  0  0  0  0  0  0  0  0
   -8.2400   -0.7010  -24.1540 C   0  0  0  0  0  0  0  0  0  0  0  0
   -9.3620   -1.7090  -24.3360 C   0  0  0  0  0  0  0  0  0  0  0  0
   -9.2150   -3.0110  -23.8590 C   0  0  0  0  0  0  0  0  0  0  0  0
  -10.2640   -3.9210  -23.9410 C   0  0  0  0  0  0  0  0  0  0  0  0
  -11.4860   -3.5370  -24.4750 C   0  0  0  0  0  0  0  0  0  0  0  0
  -11.6350   -2.2370  -24.9410 C   0  0  0  0  0  0  0  0  0  0  0  0
  -13.2000   -1.7500  -25.5310 Cl  0  0  0  0  0  0  0  0  0  0  0  0
  -10.5810   -1.3290  -24.9080 C   0  0  0  0  0  0  0  0  0  0  0  0
  -10.7350   -0.3390  -25.3350 H   0  0  0  0  0  0  0  0  0  0  0  0
  -12.3170   -4.2330  -24.5330 H   0  0  0  0  0  0  0  0  0  0  0  0
  -10.1370   -4.9380  -23.5790 H   0  0  0  0  0  0  0  0  0  0  0  0
   -8.2710   -3.3270  -23.4200 H   0  0  0  0  0  0  0  0  0  0  0  0
   -8.1720   -0.0580  -25.0340 H   0  0  0  0  0  0  0  0  0  0  0  0
   -7.2800   -1.2250  -24.0660 H   0  0  0  0  0  0  0  0  0  0  0  0
   -8.8300    1.5540  -23.1140 C   0  0  2  0  0  0  0  0  0  0  0  0
  -10.3040    1.9160  -22.8100 C   0  0  0  0  0  0  0  0  0  0  0  0
  -10.4510    3.3210  -23.4430 C   0  0  0  0  0  0  0  0  0  0  0  0
   -9.0670    3.5900  -24.0230 C   0  0  2  0  0  0  0  0  0  0  0  0
   -8.6200    2.2100  -24.4890 C   0  0  0  0  0  0  0  0  0  0  0  0
   -7.5710    2.1690  -24.8110 H   0  0  0  0  0  0  0  0  0  0  0  0
   -9.2760    1.8090  -25.2700 H   0  0  0  0  0  0  0  0  0  0  0  0
   -8.1040    3.8430  -22.8370 N   0  3  2  0  0  0  0  0  0  0  0  0
   -6.8260    4.4530  -23.3150 C   0  0  0  0  0  0  0  0  0  0  0  0
   -6.9500    5.9530  -23.2350 C   0  0  0  0  0  0  0  0  0  0  0  0
   -5.7700    6.8720  -23.5260 C   0  0  0  0  0  0  0  0  0  0  0  0
   -6.0000    7.6000  -22.3030 O   0  0  0  0  0  0  0  0  0  0  0  0
   -6.8160    6.5180  -21.8230 C   0  0  0  0  0  0  0  0  0  0  0  0
   -6.2330    5.8470  -21.1740 H   0  0  0  0  0  0  0  0  0  0  0  0
   -7.7420    6.8100  -21.3150 H   0  0  0  0  0  0  0  0  0  0  0  0
   -5.8380    7.5310  -24.3970 H   0  0  0  0  0  0  0  0  0  0  0  0
   -4.8090    6.3310  -23.5060 H   0  0  0  0  0  0  0  0  0  0  0  0
   -7.8750    6.3060  -23.6910 H   0  0  0  0  0  0  0  0  0  0  0  0
   -6.6040    4.0920  -24.3200 H   0  0  0  0  0  0  0  0  0  0  0  0
   -5.9910    4.1370  -22.6860 H   0  0  0  0  0  0  0  0  0  0  0  0
   -7.9680    2.4760  -22.2120 C   0  0  0  0  0  0  0  0  0  0  0  0
   -8.3410    2.5090  -21.1870 H   0  0  0  0  0  0  0  0  0  0  0  0
   -6.9200    2.1710  -22.1940 H   0  0  0  0  0  0  0  0  0  0  0  0
   -8.5040    4.5000  -22.1490 H   0  0  0  0  0  0  0  0  0  0  0  0
   -9.0120    4.4060  -24.7390 H   0  0  0  0  0  0  0  0  0  0  0  0
  -10.7390    4.0940  -22.7230 H   0  0  0  0  0  0  0  0  0  0  0  0
  -11.1920    3.3160  -24.2470 H   0  0  0  0  0  0  0  0  0  0  0  0
  -10.5050    1.9090  -21.7400 H   0  0  0  0  0  0  0  0  0  0  0  0
  -10.9600    1.1830  -23.2910 H   0  0  0  0  0  0  0  0  0  0  0  0
  1  2  2  0  0  0  0
  2  3  1  0  0  0  0
  2 22  1  0  0  0  0
  3  4  1  0  0  0  0
  3 20  1  0  0  0  0
  3 21  1  0  0  0  0
  4  5  2  0  0  0  0
  4 13  1  0  0  0  0
  5  6  1  0  0  0  0
  5 19  1  0  0  0  0
  6  7  2  0  0  0  0
  7  8  1  0  0  0  0
  7 18  1  0  0  0  0
  8  9  2  0  0  0  0
  8 13  1  0  0  0  0
  9 10  1  0  0  0  0
  9 17  1  0  0  0  0
 10 11  2  0  0  0  0
 10 16  1  0  0  0  0
 11 12  1  0  0  0  0
 11 15  1  0  0  0  0
 12 13  2  0  0  0  0
 12 14  1  0  0  0  0
 22 23  1  0  0  0  0
 23 24  1  0  0  0  0
 23 35  1  0  0  0  0
 23 36  1  0  0  0  0
 24 25  2  0  0  0  0
 24 30  1  0  0  0  0
 25 26  1  0  0  0  0
 25 34  1  0  0  0  0
 26 27  2  0  0  0  0
 26 33  1  0  0  0  0
 27 28  1  0  0  0  0
 27 32  1  0  0  0  0
 28 29  1  0  0  0  0
 28 30  2  0  0  0  0
 30 31  1  0  0  0  0
 37 22  1  1  0  0  0
 37 38  1  0  0  0  0
 37 41  1  0  0  0  0
 37 57  1  0  0  0  0
 38 39  1  0  0  0  0
 38 64  1  0  0  0  0
 38 65  1  0  0  0  0
 39 40  1  0  0  0  0
 39 62  1  0  0  0  0
 39 63  1  0  0  0  0
 40 41  1  0  0  0  0
 40 44  1  0  0  0  0
 40 61  1  6  0  0  0
 41 42  1  0  0  0  0
 41 43  1  0  0  0  0
 44 45  1  0  0  0  0
 44 57  1  0  0  0  0
 44 60  1  1  0  0  0
 45 46  1  0  0  0  0
 45 55  1  0  0  0  0
 45 56  1  0  0  0  0
 46 47  1  0  0  0  0
 46 49  1  0  0  0  0
 46 54  1  0  0  0  0
 47 48  1  0  0  0  0
 47 52  1  0  0  0  0
 47 53  1  0  0  0  0
 48 49  1  0  0  0  0
 49 50  1  0  0  0  0
 49 51  1  0  0  0  0
 57 58  1  0  0  0  0
 57 59  1  0  0  0  0
M  CHG  1  44   1
M  END
>  <MODEL>
       1

$$$$
