tmp_first_model_5_7.pdb
 OpenBabel08272519223D

 44 47  0  0  0  0  0  0  0  0999 V2000
   -9.5680   -6.2730  -25.8430 C   0  0  0  0  0  0  0  0  0  0  0  0
  -10.9770   -6.1350  -25.2770 C   0  0  0  0  0  0  0  0  0  0  0  0
  -11.2680   -4.5950  -24.4140 S   0  0  0  0  0  0  0  0  0  0  0  0
  -12.4810   -4.6950  -23.6290 O   0  0  0  0  0  0  0  0  0  0  0  0
  -11.1130   -3.5150  -25.3860 O   0  0  0  0  0  0  0  0  0  0  0  0
   -9.9890   -4.5960  -23.3100 N   0  0  0  0  0  0  0  0  0  0  0  0
  -10.1360   -3.8100  -22.0520 C   0  0  0  0  0  0  0  0  0  0  0  0
   -8.9280   -2.9150  -22.4690 C   0  0  0  0  0  0  0  0  0  0  0  0
   -8.7510   -3.8770  -23.6720 C   0  0  0  0  0  0  0  0  0  0  0  0
   -8.7650   -3.4340  -24.6700 H   0  0  0  0  0  0  0  0  0  0  0  0
   -7.8930   -4.5400  -23.5350 H   0  0  0  0  0  0  0  0  0  0  0  0
   -7.7560   -2.8530  -21.5080 C   0  0  0  0  0  0  0  0  0  0  0  0
   -7.1080   -3.7790  -21.0860 O   0  0  0  0  0  0  0  0  0  0  0  0
   -7.5340   -1.5010  -21.2320 N   0  0  0  0  0  0  0  0  0  0  0  0
   -6.5910   -1.0420  -20.2690 C   0  0  0  0  0  0  0  0  0  0  0  0
   -6.7940   -1.3750  -18.9540 C   0  0  0  0  0  0  0  0  0  0  0  0
   -5.8740   -1.2280  -17.9710 N   0  0  0  0  0  0  0  0  0  0  0  0
   -4.7170   -0.6990  -18.3070 C   0  0  0  0  0  0  0  0  0  0  0  0
   -4.4510   -0.1340  -19.5930 C   0  0  0  0  0  0  0  0  0  0  0  0
   -3.2940    0.6660  -19.8300 C   0  0  0  0  0  0  0  0  0  0  0  0
   -3.1900    1.3900  -20.9890 C   0  0  0  0  0  0  0  0  0  0  0  0
   -4.1510    1.2400  -22.0120 C   0  0  0  0  0  0  0  0  0  0  0  0
   -5.2260    0.4060  -21.8480 C   0  0  0  0  0  0  0  0  0  0  0  0
   -5.4300   -0.2710  -20.6090 C   0  0  0  0  0  0  0  0  0  0  0  0
   -5.9550    0.3060  -22.6440 H   0  0  0  0  0  0  0  0  0  0  0  0
   -4.0130    1.7580  -22.9560 H   0  0  0  0  0  0  0  0  0  0  0  0
   -2.3280    2.0250  -21.1660 H   0  0  0  0  0  0  0  0  0  0  0  0
   -2.5520    0.7850  -19.0470 H   0  0  0  0  0  0  0  0  0  0  0  0
   -3.9510   -0.6530  -17.5260 H   0  0  0  0  0  0  0  0  0  0  0  0
   -7.7580   -1.7820  -18.6500 H   0  0  0  0  0  0  0  0  0  0  0  0
   -8.4440   -0.6830  -21.9150 C   0  0  0  0  0  0  0  0  0  0  0  0
   -8.5680    0.5160  -21.8090 O   0  0  0  0  0  0  0  0  0  0  0  0
   -9.1820   -1.5160  -22.7100 N   0  0  0  0  0  0  0  0  0  0  0  0
  -10.1490   -0.9710  -23.6370 C   0  0  0  0  0  0  0  0  0  0  0  0
  -10.6510   -0.1320  -23.1530 H   0  0  0  0  0  0  0  0  0  0  0  0
   -9.6630   -0.6020  -24.5490 H   0  0  0  0  0  0  0  0  0  0  0  0
  -10.8750   -1.7410  -23.9010 H   0  0  0  0  0  0  0  0  0  0  0  0
  -11.1040   -3.3170  -21.9320 H   0  0  0  0  0  0  0  0  0  0  0  0
   -9.9180   -4.4430  -21.1910 H   0  0  0  0  0  0  0  0  0  0  0  0
  -11.7420   -6.1600  -26.0590 H   0  0  0  0  0  0  0  0  0  0  0  0
  -11.1970   -6.9210  -24.5530 H   0  0  0  0  0  0  0  0  0  0  0  0
   -8.8180   -6.2820  -25.0430 H   0  0  0  0  0  0  0  0  0  0  0  0
   -9.3280   -5.4720  -26.5480 H   0  0  0  0  0  0  0  0  0  0  0  0
   -9.4980   -7.2300  -26.3660 H   0  0  0  0  0  0  0  0  0  0  0  0
  1  2  1  0  0  0  0
  1 42  1  0  0  0  0
  1 43  1  0  0  0  0
  1 44  1  0  0  0  0
  2  3  1  0  0  0  0
  2 40  1  0  0  0  0
  2 41  1  0  0  0  0
  3  4  2  0  0  0  0
  3  5  2  0  0  0  0
  3  6  1  0  0  0  0
  6  7  1  0  0  0  0
  6  9  1  0  0  0  0
  7  8  1  0  0  0  0
  7 38  1  0  0  0  0
  7 39  1  0  0  0  0
  8  9  1  0  0  0  0
  8 12  1  0  0  0  0
  8 33  1  0  0  0  0
  9 10  1  0  0  0  0
  9 11  1  0  0  0  0
 12 13  2  0  0  0  0
 12 14  1  0  0  0  0
 14 15  1  0  0  0  0
 14 31  1  0  0  0  0
 15 16  2  0  0  0  0
 15 24  1  0  0  0  0
 16 17  1  0  0  0  0
 16 30  1  0  0  0  0
 17 18  2  0  0  0  0
 18 19  1  0  0  0  0
 18 29  1  0  0  0  0
 19 20  2  0  0  0  0
 19 24  1  0  0  0  0
 20 21  1  0  0  0  0
 20 28  1  0  0  0  0
 21 22  2  0  0  0  0
 21 27  1  0  0  0  0
 22 23  1  0  0  0  0
 22 26  1  0  0  0  0
 23 24  2  0  0  0  0
 23 25  1  0  0  0  0
 31 32  2  0  0  0  0
 31 33  1  0  0  0  0
 33 34  1  0  0  0  0
 34 35  1  0  0  0  0
 34 36  1  0  0  0  0
 34 37  1  0  0  0  0
M  END
>  <MODEL>
       1

$$$$
