tmp_first_model_7_4.pdb
 OpenBabel08272520323D

 59 64  0  0  1  0  0  0  0  0999 V2000
  -10.3660   -2.4700  -22.2800 C   0  0  0  0  0  0  0  0  0  0  0  0
   -9.0960   -1.7700  -22.7950 C   0  0  1  0  0  0  0  0  0  0  0  0
   -8.5590   -0.7880  -21.7240 C   0  0  0  0  0  0  0  0  0  0  0  0
   -7.3760   -1.4360  -21.2000 N   0  0  0  0  0  0  0  0  0  0  0  0
   -6.5700   -0.8550  -20.1810 C   0  0  0  0  0  0  0  0  0  0  0  0
   -6.8930   -1.0540  -18.8640 C   0  0  0  0  0  0  0  0  0  0  0  0
   -6.2050   -0.5350  -17.8200 N   0  0  0  0  0  0  0  0  0  0  0  0
   -5.1660    0.2160  -18.0860 C   0  0  0  0  0  0  0  0  0  0  0  0
   -4.7220    0.5160  -19.4050 C   0  0  0  0  0  0  0  0  0  0  0  0
   -3.5940    1.3470  -19.6400 C   0  0  0  0  0  0  0  0  0  0  0  0
   -3.2060    1.6360  -20.9190 C   0  0  0  0  0  0  0  0  0  0  0  0
   -3.9310    1.1130  -22.0150 C   0  0  0  0  0  0  0  0  0  0  0  0
   -5.0210    0.3000  -21.8170 C   0  0  0  0  0  0  0  0  0  0  0  0
   -5.4430   -0.0250  -20.4930 C   0  0  0  0  0  0  0  0  0  0  0  0
   -5.5720   -0.1000  -22.6680 H   0  0  0  0  0  0  0  0  0  0  0  0
   -3.6170    1.3600  -23.0240 H   0  0  0  0  0  0  0  0  0  0  0  0
   -2.3500    2.2820  -21.0980 H   0  0  0  0  0  0  0  0  0  0  0  0
   -3.0680    1.7620  -18.7850 H   0  0  0  0  0  0  0  0  0  0  0  0
   -4.6190    0.6200  -17.2330 H   0  0  0  0  0  0  0  0  0  0  0  0
   -7.7450   -1.6760  -18.5970 H   0  0  0  0  0  0  0  0  0  0  0  0
   -6.9180   -2.4890  -21.9570 C   0  0  0  0  0  0  0  0  0  0  0  0
   -5.9050   -3.1110  -21.7230 O   0  0  0  0  0  0  0  0  0  0  0  0
   -7.8850   -2.7050  -23.1450 C   0  0  1  0  0  0  0  0  0  0  0  0
   -8.2740   -4.2020  -23.2580 C   0  0  0  0  0  0  0  0  0  0  0  0
   -7.1660   -5.0480  -23.6710 N   0  0  0  0  0  0  0  0  0  0  0  0
   -6.8720   -6.2550  -22.9090 C   0  0  0  0  0  0  0  0  0  0  0  0
   -7.9330   -7.3090  -22.8940 C   0  0  0  0  0  0  0  0  0  0  0  0
   -8.5370   -7.7510  -21.8110 N   0  0  0  0  0  0  0  0  0  0  0  0
   -9.5180   -8.5910  -22.2780 C   0  0  0  0  0  0  0  0  0  0  0  0
   -9.4600   -8.6950  -23.6340 C   0  0  0  0  0  0  0  0  0  0  0  0
   -8.4310   -7.8830  -24.0230 N   0  0  0  0  0  0  0  0  0  0  0  0
   -7.9940   -7.7390  -25.3910 C   0  0  0  0  0  0  0  0  0  0  0  0
   -8.4740   -8.5350  -25.9640 H   0  0  0  0  0  0  0  0  0  0  0  0
   -8.2890   -6.7760  -25.8120 H   0  0  0  0  0  0  0  0  0  0  0  0
   -6.9110   -7.8480  -25.4430 H   0  0  0  0  0  0  0  0  0  0  0  0
  -10.1590   -9.0730  -24.3680 H   0  0  0  0  0  0  0  0  0  0  0  0
  -10.2760   -8.9990  -21.6130 H   0  0  0  0  0  0  0  0  0  0  0  0
   -5.9630   -6.6720  -23.3470 H   0  0  0  0  0  0  0  0  0  0  0  0
   -6.6990   -5.9930  -21.8610 H   0  0  0  0  0  0  0  0  0  0  0  0
   -6.3610   -4.7000  -24.7160 C   0  0  0  0  0  0  0  0  0  0  0  0
   -5.5920   -5.4940  -25.2530 O   0  0  0  0  0  0  0  0  0  0  0  0
   -6.4550   -3.2740  -25.1730 C   0  0  0  0  0  0  0  0  0  0  0  0
   -5.7530   -2.9170  -26.3260 C   0  0  0  0  0  0  0  0  0  0  0  0
   -5.7210   -1.6050  -26.7540 C   0  0  0  0  0  0  0  0  0  0  0  0
   -6.3930   -0.6570  -25.9940 C   0  0  0  0  0  0  0  0  0  0  0  0
   -6.3450    0.6270  -26.3900 F   0  0  0  0  0  0  0  0  0  0  0  0
   -7.1010   -0.9790  -24.8510 C   0  0  0  0  0  0  0  0  0  0  0  0
   -7.1670   -2.3160  -24.4360 C   0  0  0  0  0  0  0  0  0  0  0  0
   -7.5820   -0.1700  -24.3090 H   0  0  0  0  0  0  0  0  0  0  0  0
   -5.1810   -1.2920  -27.6410 H   0  0  0  0  0  0  0  0  0  0  0  0
   -5.2190   -3.6990  -26.8550 H   0  0  0  0  0  0  0  0  0  0  0  0
   -8.6050   -4.5680  -22.2890 H   0  0  0  0  0  0  0  0  0  0  0  0
   -9.0950   -4.3000  -23.9820 H   0  0  0  0  0  0  0  0  0  0  0  0
   -9.2820   -0.6180  -20.9210 H   0  0  0  0  0  0  0  0  0  0  0  0
   -8.3250    0.2000  -22.1490 H   0  0  0  0  0  0  0  0  0  0  0  0
   -9.3920   -1.2270  -23.7010 H   0  0  0  0  0  0  0  0  0  0  0  0
  -11.1370   -1.7270  -22.0480 H   0  0  0  0  0  0  0  0  0  0  0  0
  -10.1720   -3.0420  -21.3650 H   0  0  0  0  0  0  0  0  0  0  0  0
  -10.7880   -3.1510  -23.0250 H   0  0  0  0  0  0  0  0  0  0  0  0
  1  2  1  0  0  0  0
  1 57  1  0  0  0  0
  1 58  1  0  0  0  0
  1 59  1  0  0  0  0
  2  3  1  0  0  0  0
  2 23  1  0  0  0  0
  2 56  1  6  0  0  0
  3  4  1  0  0  0  0
  3 54  1  0  0  0  0
  3 55  1  0  0  0  0
  4  5  1  0  0  0  0
  4 21  1  0  0  0  0
  5  6  2  0  0  0  0
  5 14  1  0  0  0  0
  6  7  1  0  0  0  0
  6 20  1  0  0  0  0
  7  8  2  0  0  0  0
  8  9  1  0  0  0  0
  8 19  1  0  0  0  0
  9 10  2  0  0  0  0
  9 14  1  0  0  0  0
 10 11  1  0  0  0  0
 10 18  1  0  0  0  0
 11 12  2  0  0  0  0
 11 17  1  0  0  0  0
 12 13  1  0  0  0  0
 12 16  1  0  0  0  0
 13 14  2  0  0  0  0
 13 15  1  0  0  0  0
 21 22  2  0  0  0  0
 23 21  1  1  0  0  0
 23 24  1  0  0  0  0
 23 48  1  0  0  0  0
 24 25  1  0  0  0  0
 24 52  1  0  0  0  0
 24 53  1  0  0  0  0
 25 26  1  0  0  0  0
 25 40  1  0  0  0  0
 26 27  1  0  0  0  0
 26 38  1  0  0  0  0
 26 39  1  0  0  0  0
 27 28  2  0  0  0  0
 27 31  1  0  0  0  0
 28 29  1  0  0  0  0
 29 30  2  0  0  0  0
 29 37  1  0  0  0  0
 30 31  1  0  0  0  0
 30 36  1  0  0  0  0
 31 32  1  0  0  0  0
 32 33  1  0  0  0  0
 32 34  1  0  0  0  0
 32 35  1  0  0  0  0
 40 41  2  0  0  0  0
 40 42  1  0  0  0  0
 42 43  2  0  0  0  0
 42 48  1  0  0  0  0
 43 44  1  0  0  0  0
 43 51  1  0  0  0  0
 44 45  2  0  0  0  0
 44 50  1  0  0  0  0
 45 46  1  0  0  0  0
 45 47  1  0  0  0  0
 47 48  2  0  0  0  0
 47 49  1  0  0  0  0
M  END
>  <MODEL>
       1

$$$$
