tmp_first_model_20_43.pdb
 OpenBabel08282503553D

 67 72  0  0  1  0  0  0  0  0999 V2000
   -7.7570    3.2590  -22.4830 C   0  0  0  0  0  0  0  0  0  0  0  0
   -8.5750    2.7410  -23.5580 N   0  0  0  0  0  0  0  0  0  0  0  0
   -7.9570    2.0500  -24.5490 C   0  0  0  0  0  0  0  0  0  0  0  0
   -6.7420    2.0050  -24.6670 O   0  0  0  0  0  0  0  0  0  0  0  0
   -8.8950    1.2830  -25.4690 C   0  0  0  0  0  0  0  0  0  0  0  0
   -9.5470    0.2170  -24.7240 N   0  0  0  0  0  0  0  0  0  0  0  0
   -8.6980   -0.8900  -24.3220 C   0  0  0  0  0  0  0  0  0  0  0  0
   -9.1030   -1.5670  -22.9740 C   0  0  2  0  0  0  0  0  0  0  0  0
   -8.5710   -0.7210  -21.7850 C   0  0  0  0  0  0  0  0  0  0  0  0
   -9.0430    0.3180  -21.3740 O   0  0  0  0  0  0  0  0  0  0  0  0
   -7.4530   -1.3370  -21.2650 N   0  0  0  0  0  0  0  0  0  0  0  0
   -6.6820   -0.7610  -20.2170 C   0  0  0  0  0  0  0  0  0  0  0  0
   -7.0030   -1.0050  -18.9060 C   0  0  0  0  0  0  0  0  0  0  0  0
   -6.2950   -0.5480  -17.8400 N   0  0  0  0  0  0  0  0  0  0  0  0
   -5.2260    0.1690  -18.0850 C   0  0  0  0  0  0  0  0  0  0  0  0
   -4.7750    0.5040  -19.3940 C   0  0  0  0  0  0  0  0  0  0  0  0
   -3.6150    1.2950  -19.6210 C   0  0  0  0  0  0  0  0  0  0  0  0
   -3.2310    1.6140  -20.8930 C   0  0  0  0  0  0  0  0  0  0  0  0
   -3.9890    1.1720  -22.0010 C   0  0  0  0  0  0  0  0  0  0  0  0
   -5.1200    0.4150  -21.8090 C   0  0  0  0  0  0  0  0  0  0  0  0
   -5.5310    0.0420  -20.4980 C   0  0  0  0  0  0  0  0  0  0  0  0
   -5.7270    0.1270  -22.6630 H   0  0  0  0  0  0  0  0  0  0  0  0
   -3.6820    1.4380  -23.0080 H   0  0  0  0  0  0  0  0  0  0  0  0
   -2.3540    2.2310  -21.0660 H   0  0  0  0  0  0  0  0  0  0  0  0
   -3.0500    1.6500  -18.7620 H   0  0  0  0  0  0  0  0  0  0  0  0
   -4.6580    0.5320  -17.2250 H   0  0  0  0  0  0  0  0  0  0  0  0
   -7.8770   -1.6070  -18.6680 H   0  0  0  0  0  0  0  0  0  0  0  0
   -7.0500   -2.5310  -21.9810 C   0  0  0  0  0  0  0  0  0  0  0  0
   -8.3230   -2.8990  -22.7680 C   0  0  2  0  0  0  0  0  0  0  0  0
   -8.0230   -3.7140  -24.0340 C   0  0  0  0  0  0  0  0  0  0  0  0
   -7.5400   -5.0310  -23.7140 N   0  0  0  0  0  0  0  0  0  0  0  0
   -6.2470   -5.4550  -23.8690 C   0  0  0  0  0  0  0  0  0  0  0  0
   -5.0260   -4.5070  -24.6810 S   0  0  0  0  0  0  0  0  0  0  0  0
   -3.8830   -5.7700  -24.3300 C   0  0  0  0  0  0  0  0  0  0  0  0
   -4.3590   -6.7800  -23.6800 N   0  0  0  0  0  0  0  0  0  0  0  0
   -5.7050   -6.6220  -23.4140 C   0  0  0  0  0  0  0  0  0  0  0  0
   -6.4630   -7.6620  -22.6450 C   0  0  0  0  0  0  0  0  0  0  0  0
   -7.2460   -8.1410  -23.2470 H   0  0  0  0  0  0  0  0  0  0  0  0
   -6.9550   -7.2210  -21.7680 H   0  0  0  0  0  0  0  0  0  0  0  0
   -5.7740   -8.4370  -22.3010 H   0  0  0  0  0  0  0  0  0  0  0  0
   -2.8560   -5.6840  -24.6640 H   0  0  0  0  0  0  0  0  0  0  0  0
   -8.2180   -5.7070  -23.3990 H   0  0  0  0  0  0  0  0  0  0  0  0
   -8.9290   -3.7970  -24.6490 H   0  0  0  0  0  0  0  0  0  0  0  0
   -7.2570   -3.2120  -24.6340 H   0  0  0  0  0  0  0  0  0  0  0  0
   -8.9360   -3.5260  -22.1140 H   0  0  0  0  0  0  0  0  0  0  0  0
   -6.1810   -2.3410  -22.6350 H   0  0  0  0  0  0  0  0  0  0  0  0
   -6.7500   -3.3130  -21.2770 H   0  0  0  0  0  0  0  0  0  0  0  0
  -10.6190   -1.6620  -22.8800 C   0  0  0  0  0  0  0  0  0  0  0  0
  -11.2480   -2.5640  -22.0110 C   0  0  0  0  0  0  0  0  0  0  0  0
  -12.6270   -2.5780  -21.8940 C   0  0  0  0  0  0  0  0  0  0  0  0
  -13.3830   -3.7230  -20.8250 Cl  0  0  0  0  0  0  0  0  0  0  0  0
  -13.4390   -1.6850  -22.5930 C   0  0  0  0  0  0  0  0  0  0  0  0
  -12.8240   -0.7500  -23.3960 C   0  0  0  0  0  0  0  0  0  0  0  0
  -11.4370   -0.7300  -23.5350 C   0  0  0  0  0  0  0  0  0  0  0  0
  -10.8460    0.3760  -24.3520 C   0  0  0  0  0  0  0  0  0  0  0  0
  -11.4940    1.3740  -24.6470 O   0  0  0  0  0  0  0  0  0  0  0  0
  -13.3980    0.0020  -23.9260 H   0  0  0  0  0  0  0  0  0  0  0  0
  -14.5180   -1.7150  -22.4770 H   0  0  0  0  0  0  0  0  0  0  0  0
  -10.6820   -3.2480  -21.3880 H   0  0  0  0  0  0  0  0  0  0  0  0
   -7.6880   -0.4800  -24.2200 H   0  0  0  0  0  0  0  0  0  0  0  0
   -8.6680   -1.6220  -25.1380 H   0  0  0  0  0  0  0  0  0  0  0  0
   -8.2910    0.8850  -26.2880 H   0  0  0  0  0  0  0  0  0  0  0  0
   -9.6930    1.9180  -25.8580 H   0  0  0  0  0  0  0  0  0  0  0  0
   -9.5200    2.4920  -23.3160 H   0  0  0  0  0  0  0  0  0  0  0  0
   -7.4220    2.4360  -21.8330 H   0  0  0  0  0  0  0  0  0  0  0  0
   -6.8750    3.7240  -22.9300 H   0  0  0  0  0  0  0  0  0  0  0  0
   -8.3280    3.9970  -21.9110 H   0  0  0  0  0  0  0  0  0  0  0  0
  1  2  1  0  0  0  0
  1 65  1  0  0  0  0
  1 66  1  0  0  0  0
  1 67  1  0  0  0  0
  2  3  1  0  0  0  0
  2 64  1  0  0  0  0
  3  4  2  0  0  0  0
  3  5  1  0  0  0  0
  5  6  1  0  0  0  0
  5 62  1  0  0  0  0
  5 63  1  0  0  0  0
  6  7  1  0  0  0  0
  6 55  1  0  0  0  0
  7  8  1  0  0  0  0
  7 60  1  0  0  0  0
  7 61  1  0  0  0  0
  8  9  1  1  0  0  0
  8 29  1  0  0  0  0
  8 48  1  0  0  0  0
  9 10  2  0  0  0  0
  9 11  1  0  0  0  0
 11 12  1  0  0  0  0
 11 28  1  0  0  0  0
 12 13  2  0  0  0  0
 12 21  1  0  0  0  0
 13 14  1  0  0  0  0
 13 27  1  0  0  0  0
 14 15  2  0  0  0  0
 15 16  1  0  0  0  0
 15 26  1  0  0  0  0
 16 17  2  0  0  0  0
 16 21  1  0  0  0  0
 17 18  1  0  0  0  0
 17 25  1  0  0  0  0
 18 19  2  0  0  0  0
 18 24  1  0  0  0  0
 19 20  1  0  0  0  0
 19 23  1  0  0  0  0
 20 21  2  0  0  0  0
 20 22  1  0  0  0  0
 28 29  1  0  0  0  0
 28 46  1  0  0  0  0
 28 47  1  0  0  0  0
 29 30  1  0  0  0  0
 29 45  1  1  0  0  0
 30 31  1  0  0  0  0
 30 43  1  0  0  0  0
 30 44  1  0  0  0  0
 31 32  1  0  0  0  0
 31 42  1  0  0  0  0
 32 33  1  0  0  0  0
 32 36  2  0  0  0  0
 33 34  1  0  0  0  0
 34 35  2  0  0  0  0
 34 41  1  0  0  0  0
 35 36  1  0  0  0  0
 36 37  1  0  0  0  0
 37 38  1  0  0  0  0
 37 39  1  0  0  0  0
 37 40  1  0  0  0  0
 48 49  2  0  0  0  0
 48 54  1  0  0  0  0
 49 50  1  0  0  0  0
 49 59  1  0  0  0  0
 50 51  1  0  0  0  0
 50 52  2  0  0  0  0
 52 53  1  0  0  0  0
 52 58  1  0  0  0  0
 53 54  2  0  0  0  0
 53 57  1  0  0  0  0
 54 55  1  0  0  0  0
 55 56  2  0  0  0  0
M  END
>  <MODEL>
       1

$$$$
