tmp_first_model_15_77.pdb
 OpenBabel08282501153D

 55 60  0  0  1  0  0  0  0  0999 V2000
  -10.4220   -1.0030  -23.4380 C   0  0  0  0  0  0  0  0  0  0  0  0
   -8.9790   -1.3120  -23.0320 C   0  0  1  0  0  0  0  0  0  0  0  0
   -8.4410   -0.4220  -21.8910 C   0  0  0  0  0  0  0  0  0  0  0  0
   -7.4200   -1.2540  -21.2750 N   0  0  0  0  0  0  0  0  0  0  0  0
   -6.6150   -0.8120  -20.2010 C   0  0  0  0  0  0  0  0  0  0  0  0
   -6.9150   -1.1330  -18.9030 C   0  0  0  0  0  0  0  0  0  0  0  0
   -6.2640   -0.6140  -17.8310 N   0  0  0  0  0  0  0  0  0  0  0  0
   -5.2610    0.2010  -18.0640 C   0  0  0  0  0  0  0  0  0  0  0  0
   -4.7930    0.5420  -19.3680 C   0  0  0  0  0  0  0  0  0  0  0  0
   -3.6680    1.3750  -19.6010 C   0  0  0  0  0  0  0  0  0  0  0  0
   -3.2460    1.6310  -20.8780 C   0  0  0  0  0  0  0  0  0  0  0  0
   -3.9260    1.0810  -21.9870 C   0  0  0  0  0  0  0  0  0  0  0  0
   -5.0260    0.2870  -21.7900 C   0  0  0  0  0  0  0  0  0  0  0  0
   -5.4850    0.0110  -20.4760 C   0  0  0  0  0  0  0  0  0  0  0  0
   -5.5490   -0.1580  -22.6310 H   0  0  0  0  0  0  0  0  0  0  0  0
   -3.5780    1.2890  -22.9950 H   0  0  0  0  0  0  0  0  0  0  0  0
   -2.3790    2.2620  -21.0520 H   0  0  0  0  0  0  0  0  0  0  0  0
   -3.1470    1.7960  -18.7450 H   0  0  0  0  0  0  0  0  0  0  0  0
   -4.7530    0.6220  -17.1950 H   0  0  0  0  0  0  0  0  0  0  0  0
   -7.7280   -1.8230  -18.6810 H   0  0  0  0  0  0  0  0  0  0  0  0
   -7.5430   -2.5910  -21.5600 C   0  0  0  0  0  0  0  0  0  0  0  0
   -6.8400   -3.4580  -21.0760 O   0  0  0  0  0  0  0  0  0  0  0  0
   -8.7270   -2.7820  -22.5170 C   0  0  1  0  0  0  0  0  0  0  0  0
   -9.8960   -3.2810  -21.6190 C   0  0  0  0  0  0  0  0  0  0  0  0
  -11.0140   -3.8580  -22.3550 N   0  0  0  0  0  0  0  0  0  0  0  0
  -12.3640   -3.8660  -21.7900 C   0  0  0  0  0  0  0  0  0  0  0  0
  -13.1930   -2.7100  -22.2560 C   0  0  0  0  0  0  0  0  0  0  0  0
  -13.5050   -2.4130  -23.5380 C   0  0  0  0  0  0  0  0  0  0  0  0
  -14.3250   -1.3230  -23.5420 O   0  0  0  0  0  0  0  0  0  0  0  0
  -14.4490   -1.0120  -22.2400 C   0  0  0  0  0  0  0  0  0  0  0  0
  -13.8120   -1.7900  -21.4300 N   0  0  0  0  0  0  0  0  0  0  0  0
  -15.0580   -0.1510  -22.0080 H   0  0  0  0  0  0  0  0  0  0  0  0
  -13.2740   -2.8770  -24.4790 H   0  0  0  0  0  0  0  0  0  0  0  0
  -12.3600   -3.9030  -20.6990 H   0  0  0  0  0  0  0  0  0  0  0  0
  -12.8400   -4.7850  -22.1470 H   0  0  0  0  0  0  0  0  0  0  0  0
  -10.8690   -4.4930  -23.5600 C   0  0  0  0  0  0  0  0  0  0  0  0
  -11.8290   -4.9640  -24.1630 O   0  0  0  0  0  0  0  0  0  0  0  0
   -9.4790   -4.6170  -24.0830 C   0  0  0  0  0  0  0  0  0  0  0  0
   -9.2530   -5.5770  -25.0700 C   0  0  0  0  0  0  0  0  0  0  0  0
   -7.9800   -5.8590  -25.5150 C   0  0  0  0  0  0  0  0  0  0  0  0
   -6.9490   -5.0930  -24.9880 C   0  0  0  0  0  0  0  0  0  0  0  0
   -5.7040   -5.3610  -25.4110 F   0  0  0  0  0  0  0  0  0  0  0  0
   -7.1410   -4.0990  -24.0440 C   0  0  0  0  0  0  0  0  0  0  0  0
   -8.4360   -3.8380  -23.5670 C   0  0  0  0  0  0  0  0  0  0  0  0
   -6.2720   -3.5510  -23.6930 H   0  0  0  0  0  0  0  0  0  0  0  0
   -7.7820   -6.6320  -26.2560 H   0  0  0  0  0  0  0  0  0  0  0  0
  -10.1090   -6.1180  -25.4550 H   0  0  0  0  0  0  0  0  0  0  0  0
  -10.2520   -2.4370  -21.0160 H   0  0  0  0  0  0  0  0  0  0  0  0
   -9.4770   -4.0170  -20.9270 H   0  0  0  0  0  0  0  0  0  0  0  0
   -9.2260   -0.1730  -21.1570 H   0  0  0  0  0  0  0  0  0  0  0  0
   -8.0000    0.5190  -22.2420 H   0  0  0  0  0  0  0  0  0  0  0  0
   -8.3280   -1.1640  -23.9060 H   0  0  0  0  0  0  0  0  0  0  0  0
  -10.5090   -0.0020  -23.8720 H   0  0  0  0  0  0  0  0  0  0  0  0
  -10.7650   -1.7310  -24.1830 H   0  0  0  0  0  0  0  0  0  0  0  0
  -11.1090   -1.0620  -22.5840 H   0  0  0  0  0  0  0  0  0  0  0  0
  1  2  1  0  0  0  0
  1 53  1  0  0  0  0
  1 54  1  0  0  0  0
  1 55  1  0  0  0  0
  2  3  1  0  0  0  0
  2 23  1  0  0  0  0
  2 52  1  6  0  0  0
  3  4  1  0  0  0  0
  3 50  1  0  0  0  0
  3 51  1  0  0  0  0
  4  5  1  0  0  0  0
  4 21  1  0  0  0  0
  5  6  2  0  0  0  0
  5 14  1  0  0  0  0
  6  7  1  0  0  0  0
  6 20  1  0  0  0  0
  7  8  2  0  0  0  0
  8  9  1  0  0  0  0
  8 19  1  0  0  0  0
  9 10  2  0  0  0  0
  9 14  1  0  0  0  0
 10 11  1  0  0  0  0
 10 18  1  0  0  0  0
 11 12  2  0  0  0  0
 11 17  1  0  0  0  0
 12 13  1  0  0  0  0
 12 16  1  0  0  0  0
 13 14  2  0  0  0  0
 13 15  1  0  0  0  0
 21 22  2  0  0  0  0
 23 21  1  1  0  0  0
 23 24  1  0  0  0  0
 23 44  1  0  0  0  0
 24 25  1  0  0  0  0
 24 48  1  0  0  0  0
 24 49  1  0  0  0  0
 25 26  1  0  0  0  0
 25 36  1  0  0  0  0
 26 27  1  0  0  0  0
 26 34  1  0  0  0  0
 26 35  1  0  0  0  0
 27 28  2  0  0  0  0
 27 31  1  0  0  0  0
 28 29  1  0  0  0  0
 28 33  1  0  0  0  0
 29 30  1  0  0  0  0
 30 31  2  0  0  0  0
 30 32  1  0  0  0  0
 36 37  2  0  0  0  0
 36 38  1  0  0  0  0
 38 39  2  0  0  0  0
 38 44  1  0  0  0  0
 39 40  1  0  0  0  0
 39 47  1  0  0  0  0
 40 41  2  0  0  0  0
 40 46  1  0  0  0  0
 41 42  1  0  0  0  0
 41 43  1  0  0  0  0
 43 44  2  0  0  0  0
 43 45  1  0  0  0  0
M  END
>  <MODEL>
       1

$$$$
