tmp_first_model_5_70.pdb
 OpenBabel08272519233D

 52 54  0  0  0  0  0  0  0  0999 V2000
   -2.6900   -3.3280  -25.4590 C   0  0  0  0  0  0  0  0  0  0  0  0
   -3.9570   -2.7950  -24.7690 C   0  0  0  0  0  0  0  0  0  0  0  0
   -4.5240   -1.6040  -25.5570 C   0  0  0  0  0  0  0  0  0  0  0  0
   -4.8430   -1.9000  -26.5620 H   0  0  0  0  0  0  0  0  0  0  0  0
   -3.7690   -0.8170  -25.6740 H   0  0  0  0  0  0  0  0  0  0  0  0
   -5.3880   -1.1530  -25.0510 H   0  0  0  0  0  0  0  0  0  0  0  0
   -5.0290   -3.8640  -24.5430 C   0  0  0  0  0  0  0  0  0  0  0  0
   -4.7720   -4.9670  -23.4860 C   0  0  0  0  0  0  0  0  0  0  0  0
   -3.7530   -5.9870  -24.0000 C   0  0  0  0  0  0  0  0  0  0  0  0
   -4.0510   -6.3810  -24.9780 H   0  0  0  0  0  0  0  0  0  0  0  0
   -3.6660   -6.8280  -23.3040 H   0  0  0  0  0  0  0  0  0  0  0  0
   -2.7510   -5.5620  -24.0960 H   0  0  0  0  0  0  0  0  0  0  0  0
   -4.2730   -4.4180  -22.1470 C   0  0  0  0  0  0  0  0  0  0  0  0
   -5.1860   -3.3480  -21.5620 C   0  0  0  0  0  0  0  0  0  0  0  0
   -6.5720   -3.7980  -21.6300 N   0  0  0  0  0  0  0  0  0  0  0  0
   -7.6590   -2.9760  -21.5340 C   0  0  0  0  0  0  0  0  0  0  0  0
   -8.7980   -3.3960  -21.6830 O   0  0  0  0  0  0  0  0  0  0  0  0
   -7.4430   -1.4630  -21.3570 C   0  0  0  0  0  0  0  0  0  0  0  0
   -6.4970   -0.9970  -20.2710 C   0  0  0  0  0  0  0  0  0  0  0  0
   -6.7420   -1.2800  -18.9470 C   0  0  0  0  0  0  0  0  0  0  0  0
   -5.8850   -1.0570  -17.9200 N   0  0  0  0  0  0  0  0  0  0  0  0
   -4.7280   -0.5090  -18.2240 C   0  0  0  0  0  0  0  0  0  0  0  0
   -4.3840   -0.0510  -19.5270 C   0  0  0  0  0  0  0  0  0  0  0  0
   -3.2100    0.7170  -19.7760 C   0  0  0  0  0  0  0  0  0  0  0  0
   -3.0650    1.4300  -20.9390 C   0  0  0  0  0  0  0  0  0  0  0  0
   -3.9920    1.2480  -21.9850 C   0  0  0  0  0  0  0  0  0  0  0  0
   -5.0410    0.3670  -21.8350 C   0  0  0  0  0  0  0  0  0  0  0  0
   -5.3190   -0.2370  -20.5750 C   0  0  0  0  0  0  0  0  0  0  0  0
   -5.6400    0.1090  -22.7040 H   0  0  0  0  0  0  0  0  0  0  0  0
   -3.8550    1.7810  -22.9210 H   0  0  0  0  0  0  0  0  0  0  0  0
   -2.1780    2.0410  -21.0970 H   0  0  0  0  0  0  0  0  0  0  0  0
   -2.4790    0.8210  -18.9840 H   0  0  0  0  0  0  0  0  0  0  0  0
   -4.0220   -0.3580  -17.4020 H   0  0  0  0  0  0  0  0  0  0  0  0
   -7.6790   -1.7430  -18.6440 H   0  0  0  0  0  0  0  0  0  0  0  0
   -8.4630   -1.0990  -21.1950 H   0  0  0  0  0  0  0  0  0  0  0  0
   -7.1120   -1.0710  -22.3280 H   0  0  0  0  0  0  0  0  0  0  0  0
   -6.7710   -5.2260  -21.8700 C   0  0  0  0  0  0  0  0  0  0  0  0
   -6.1180   -5.6880  -23.1850 C   0  0  0  0  0  0  0  0  0  0  0  0
   -6.8050   -5.5300  -24.0250 H   0  0  0  0  0  0  0  0  0  0  0  0
   -5.9500   -6.7710  -23.1230 H   0  0  0  0  0  0  0  0  0  0  0  0
   -6.3400   -5.7830  -21.0260 H   0  0  0  0  0  0  0  0  0  0  0  0
   -7.8440   -5.4090  -21.8790 H   0  0  0  0  0  0  0  0  0  0  0  0
   -4.9080   -3.1050  -20.5310 H   0  0  0  0  0  0  0  0  0  0  0  0
   -5.0600   -2.4290  -22.1360 H   0  0  0  0  0  0  0  0  0  0  0  0
   -4.2320   -5.2770  -21.4710 H   0  0  0  0  0  0  0  0  0  0  0  0
   -3.2590   -4.0230  -22.2430 H   0  0  0  0  0  0  0  0  0  0  0  0
   -5.9530   -3.3460  -24.2620 H   0  0  0  0  0  0  0  0  0  0  0  0
   -5.2430   -4.3650  -25.4990 H   0  0  0  0  0  0  0  0  0  0  0  0
   -3.7030   -2.4170  -23.7750 H   0  0  0  0  0  0  0  0  0  0  0  0
   -2.1520   -2.5240  -25.9720 H   0  0  0  0  0  0  0  0  0  0  0  0
   -1.9890   -3.7880  -24.7560 H   0  0  0  0  0  0  0  0  0  0  0  0
   -2.9410   -4.0770  -26.2180 H   0  0  0  0  0  0  0  0  0  0  0  0
  1  2  1  0  0  0  0
  1 50  1  0  0  0  0
  1 51  1  0  0  0  0
  1 52  1  0  0  0  0
  2  3  1  0  0  0  0
  2  7  1  0  0  0  0
  2 49  1  0  0  0  0
  3  4  1  0  0  0  0
  3  5  1  0  0  0  0
  3  6  1  0  0  0  0
  7  8  1  0  0  0  0
  7 47  1  0  0  0  0
  7 48  1  0  0  0  0
  8  9  1  0  0  0  0
  8 13  1  0  0  0  0
  8 38  1  0  0  0  0
  9 10  1  0  0  0  0
  9 11  1  0  0  0  0
  9 12  1  0  0  0  0
 13 14  1  0  0  0  0
 13 45  1  0  0  0  0
 13 46  1  0  0  0  0
 14 15  1  0  0  0  0
 14 43  1  0  0  0  0
 14 44  1  0  0  0  0
 15 16  1  0  0  0  0
 15 37  1  0  0  0  0
 16 17  2  0  0  0  0
 16 18  1  0  0  0  0
 18 19  1  0  0  0  0
 18 35  1  0  0  0  0
 18 36  1  0  0  0  0
 19 20  2  0  0  0  0
 19 28  1  0  0  0  0
 20 21  1  0  0  0  0
 20 34  1  0  0  0  0
 21 22  2  0  0  0  0
 22 23  1  0  0  0  0
 22 33  1  0  0  0  0
 23 24  2  0  0  0  0
 23 28  1  0  0  0  0
 24 25  1  0  0  0  0
 24 32  1  0  0  0  0
 25 26  2  0  0  0  0
 25 31  1  0  0  0  0
 26 27  1  0  0  0  0
 26 30  1  0  0  0  0
 27 28  2  0  0  0  0
 27 29  1  0  0  0  0
 37 38  1  0  0  0  0
 37 41  1  0  0  0  0
 37 42  1  0  0  0  0
 38 39  1  0  0  0  0
 38 40  1  0  0  0  0
M  END
>  <MODEL>
       1

$$$$
