tmp_first_model_10_39.pdb
 OpenBabel08272522163D

 40 44  0  0  1  0  0  0  0  0999 V2000
  -10.6070   -0.6390  -25.9960 C   0  0  0  0  0  0  0  0  0  0  0  0
  -10.5940   -2.1010  -25.6090 C   0  0  0  0  0  0  0  0  0  0  0  0
  -10.5960   -3.0080  -26.4250 O   0  0  0  0  0  0  0  0  0  0  0  0
  -10.5700   -2.3650  -24.2760 N   0  0  0  0  0  0  0  0  0  0  0  0
  -10.3460   -3.7370  -23.7860 C   0  0  0  0  0  0  0  0  0  0  0  0
  -10.0190   -3.4650  -22.3080 C   0  0  2  0  0  0  0  0  0  0  0  0
  -11.0090   -2.3170  -22.0080 C   0  0  0  0  0  0  0  0  0  0  0  0
  -10.4270   -1.4370  -23.1480 C   0  0  1  0  0  0  0  0  0  0  0  0
   -9.0210   -1.4350  -22.7170 C   0  0  0  0  0  0  0  0  0  0  0  0
   -8.1740   -0.5160  -22.0340 C   0  0  0  0  0  0  0  0  0  0  0  0
   -8.0950    0.6930  -22.0490 O   0  5  0  0  0  0  0  0  0  0  0  0
   -7.3780   -1.3600  -21.1920 N   0  0  0  0  0  0  0  0  0  0  0  0
   -6.5860   -0.8320  -20.1510 C   0  0  0  0  0  0  0  0  0  0  0  0
   -6.8880   -1.0950  -18.8340 C   0  0  0  0  0  0  0  0  0  0  0  0
   -6.1990   -0.5900  -17.7810 N   0  0  0  0  0  0  0  0  0  0  0  0
   -5.1900    0.2050  -18.0520 C   0  0  0  0  0  0  0  0  0  0  0  0
   -4.7860    0.5670  -19.3720 C   0  0  0  0  0  0  0  0  0  0  0  0
   -3.6630    1.4050  -19.6090 C   0  0  0  0  0  0  0  0  0  0  0  0
   -3.3730    1.8400  -20.8740 C   0  0  0  0  0  0  0  0  0  0  0  0
   -4.1760    1.4290  -21.9680 C   0  0  0  0  0  0  0  0  0  0  0  0
   -5.1430    0.4660  -21.7800 C   0  0  0  0  0  0  0  0  0  0  0  0
   -5.5080    0.0520  -20.4650 C   0  0  0  0  0  0  0  0  0  0  0  0
   -5.6310    0.0240  -22.6420 H   0  0  0  0  0  0  0  0  0  0  0  0
   -3.9860    1.8230  -22.9610 H   0  0  0  0  0  0  0  0  0  0  0  0
   -2.5100    2.4780  -21.0570 H   0  0  0  0  0  0  0  0  0  0  0  0
   -3.0670    1.7070  -18.7540 H   0  0  0  0  0  0  0  0  0  0  0  0
   -4.6300    0.6010  -17.2030 H   0  0  0  0  0  0  0  0  0  0  0  0
   -7.7410   -1.7230  -18.5800 H   0  0  0  0  0  0  0  0  0  0  0  0
   -7.8040   -2.7010  -21.2480 C   0  0  0  0  0  0  0  0  0  0  0  0
   -7.4300   -3.6160  -20.5510 O   0  0  0  0  0  0  0  0  0  0  0  0
   -8.7370   -2.7180  -22.2750 N   0  0  0  0  0  0  0  0  0  0  0  0
  -10.8580   -0.4560  -23.3440 H   0  0  0  0  0  0  0  0  0  0  0  0
  -10.8120   -1.8860  -21.0280 H   0  0  0  0  0  0  0  0  0  0  0  0
  -12.0640   -2.5670  -22.1380 H   0  0  0  0  0  0  0  0  0  0  0  0
   -9.9710   -4.3030  -21.6280 H   0  0  0  0  0  0  0  0  0  0  0  0
   -9.5380   -4.2030  -24.3520 H   0  0  0  0  0  0  0  0  0  0  0  0
  -11.2520   -4.3400  -23.9170 H   0  0  0  0  0  0  0  0  0  0  0  0
  -11.4890   -0.1270  -25.6020 H   0  0  0  0  0  0  0  0  0  0  0  0
   -9.7300   -0.1280  -25.5910 H   0  0  0  0  0  0  0  0  0  0  0  0
  -10.5940   -0.5880  -27.0820 H   0  0  0  0  0  0  0  0  0  0  0  0
  1  2  1  0  0  0  0
  1 38  1  0  0  0  0
  1 39  1  0  0  0  0
  1 40  1  0  0  0  0
  2  3  2  0  0  0  0
  2  4  1  0  0  0  0
  4  5  1  0  0  0  0
  4  8  1  0  0  0  0
  5  6  1  0  0  0  0
  5 36  1  0  0  0  0
  5 37  1  0  0  0  0
  6  7  1  0  0  0  0
  6 31  1  0  0  0  0
  6 35  1  1  0  0  0
  7  8  1  0  0  0  0
  7 33  1  0  0  0  0
  7 34  1  0  0  0  0
  8  9  1  0  0  0  0
  8 32  1  6  0  0  0
  9 10  2  0  0  0  0
  9 31  1  0  0  0  0
 10 11  1  0  0  0  0
 10 12  1  0  0  0  0
 12 13  1  0  0  0  0
 12 29  1  0  0  0  0
 13 14  2  0  0  0  0
 13 22  1  0  0  0  0
 14 15  1  0  0  0  0
 14 28  1  0  0  0  0
 15 16  2  0  0  0  0
 16 17  1  0  0  0  0
 16 27  1  0  0  0  0
 17 18  2  0  0  0  0
 17 22  1  0  0  0  0
 18 19  1  0  0  0  0
 18 26  1  0  0  0  0
 19 20  2  0  0  0  0
 19 25  1  0  0  0  0
 20 21  1  0  0  0  0
 20 24  1  0  0  0  0
 21 22  2  0  0  0  0
 21 23  1  0  0  0  0
 29 30  2  0  0  0  0
 29 31  1  0  0  0  0
M  CHG  1  11  -1
M  END
>  <MODEL>
       1

$$$$
