tmp_first_model_12_64.pdb
 OpenBabel08272523333D

 55 60  0  0  1  0  0  0  0  0999 V2000
   -7.9000   -3.6530  -24.0560 C   0  0  0  0  0  0  0  0  0  0  0  0
   -8.3030   -2.8540  -22.8070 C   0  0  1  0  0  0  0  0  0  0  0  0
   -7.1110   -2.6360  -21.8500 C   0  0  0  0  0  0  0  0  0  0  0  0
   -7.4040   -1.3760  -21.1960 N   0  0  0  0  0  0  0  0  0  0  0  0
   -6.6090   -0.7980  -20.1680 C   0  0  0  0  0  0  0  0  0  0  0  0
   -6.9040   -1.0510  -18.8560 C   0  0  0  0  0  0  0  0  0  0  0  0
   -6.1980   -0.5600  -17.8050 N   0  0  0  0  0  0  0  0  0  0  0  0
   -5.1690    0.2060  -18.0700 C   0  0  0  0  0  0  0  0  0  0  0  0
   -4.7480    0.5560  -19.3830 C   0  0  0  0  0  0  0  0  0  0  0  0
   -3.6170    1.3870  -19.6210 C   0  0  0  0  0  0  0  0  0  0  0  0
   -3.2440    1.7070  -20.8950 C   0  0  0  0  0  0  0  0  0  0  0  0
   -3.9950    1.2260  -21.9880 C   0  0  0  0  0  0  0  0  0  0  0  0
   -5.0840    0.4030  -21.7830 C   0  0  0  0  0  0  0  0  0  0  0  0
   -5.4990    0.0570  -20.4720 C   0  0  0  0  0  0  0  0  0  0  0  0
   -5.6050   -0.0170  -22.6410 H   0  0  0  0  0  0  0  0  0  0  0  0
   -3.6780    1.4490  -23.0030 H   0  0  0  0  0  0  0  0  0  0  0  0
   -2.3560    2.3060  -21.0830 H   0  0  0  0  0  0  0  0  0  0  0  0
   -3.0640    1.7580  -18.7620 H   0  0  0  0  0  0  0  0  0  0  0  0
   -4.6200    0.6090  -17.2180 H   0  0  0  0  0  0  0  0  0  0  0  0
   -7.7540   -1.6770  -18.5940 H   0  0  0  0  0  0  0  0  0  0  0  0
   -8.3770   -0.6270  -21.8200 C   0  0  0  0  0  0  0  0  0  0  0  0
   -8.7110    0.4760  -21.4460 O   0  0  0  0  0  0  0  0  0  0  0  0
   -8.9270   -1.4340  -23.0310 C   0  0  1  0  0  0  0  0  0  0  0  0
   -8.4350   -0.8110  -24.3600 C   0  0  0  0  0  0  0  0  0  0  0  0
   -9.0660    0.4640  -24.6380 N   0  0  0  0  0  0  0  0  0  0  0  0
   -8.2640    1.6270  -24.9830 C   0  0  0  0  0  0  0  0  0  0  0  0
   -8.0030    2.5350  -23.8120 C   0  0  0  0  0  0  0  0  0  0  0  0
   -6.8080    2.5730  -23.1520 N   0  0  0  0  0  0  0  0  0  0  0  0
   -7.0400    3.4370  -22.1830 C   0  0  0  0  0  0  0  0  0  0  0  0
   -8.2850    3.9300  -22.2920 N   0  0  0  0  0  0  0  0  0  0  0  0
   -8.9160    3.3510  -23.3350 N   0  0  0  0  0  0  0  0  0  0  0  0
   -8.8090    4.4950  -21.6410 H   0  0  0  0  0  0  0  0  0  0  0  0
   -6.3630    3.7140  -21.3920 H   0  0  0  0  0  0  0  0  0  0  0  0
   -8.8140    2.1710  -25.7590 H   0  0  0  0  0  0  0  0  0  0  0  0
   -7.2960    1.2840  -25.3580 H   0  0  0  0  0  0  0  0  0  0  0  0
  -10.4270    0.6070  -24.5940 C   0  0  0  0  0  0  0  0  0  0  0  0
  -11.0050    1.5440  -25.1340 O   0  0  0  0  0  0  0  0  0  0  0  0
  -11.1480   -0.4320  -23.7930 C   0  0  0  0  0  0  0  0  0  0  0  0
  -12.5400   -0.3700  -23.7590 C   0  0  0  0  0  0  0  0  0  0  0  0
  -13.2550   -1.2030  -22.9230 C   0  0  0  0  0  0  0  0  0  0  0  0
  -12.5500   -2.0830  -22.1120 C   0  0  0  0  0  0  0  0  0  0  0  0
  -13.2310   -2.8590  -21.2530 F   0  0  0  0  0  0  0  0  0  0  0  0
  -11.1760   -2.1740  -22.1360 C   0  0  0  0  0  0  0  0  0  0  0  0
  -10.4470   -1.3760  -23.0250 C   0  0  0  0  0  0  0  0  0  0  0  0
  -10.7050   -2.8470  -21.4280 H   0  0  0  0  0  0  0  0  0  0  0  0
  -14.3360   -1.1980  -22.8810 H   0  0  0  0  0  0  0  0  0  0  0  0
  -13.0210    0.3630  -24.3990 H   0  0  0  0  0  0  0  0  0  0  0  0
   -7.3560   -0.6350  -24.2850 H   0  0  0  0  0  0  0  0  0  0  0  0
   -8.6370   -1.5200  -25.1790 H   0  0  0  0  0  0  0  0  0  0  0  0
   -6.1630   -2.5880  -22.4100 H   0  0  0  0  0  0  0  0  0  0  0  0
   -7.0100   -3.4360  -21.1090 H   0  0  0  0  0  0  0  0  0  0  0  0
   -9.0630   -3.4270  -22.2720 H   0  0  0  0  0  0  0  0  0  0  0  0
   -7.0910   -3.1540  -24.6020 H   0  0  0  0  0  0  0  0  0  0  0  0
   -8.7360   -3.7890  -24.7520 H   0  0  0  0  0  0  0  0  0  0  0  0
   -7.5360   -4.6480  -23.7790 H   0  0  0  0  0  0  0  0  0  0  0  0
  1  2  1  0  0  0  0
  1 53  1  0  0  0  0
  1 54  1  0  0  0  0
  1 55  1  0  0  0  0
  2  3  1  0  0  0  0
  2 23  1  0  0  0  0
  2 52  1  1  0  0  0
  3  4  1  0  0  0  0
  3 50  1  0  0  0  0
  3 51  1  0  0  0  0
  4  5  1  0  0  0  0
  4 21  1  0  0  0  0
  5  6  2  0  0  0  0
  5 14  1  0  0  0  0
  6  7  1  0  0  0  0
  6 20  1  0  0  0  0
  7  8  2  0  0  0  0
  8  9  1  0  0  0  0
  8 19  1  0  0  0  0
  9 10  2  0  0  0  0
  9 14  1  0  0  0  0
 10 11  1  0  0  0  0
 10 18  1  0  0  0  0
 11 12  2  0  0  0  0
 11 17  1  0  0  0  0
 12 13  1  0  0  0  0
 12 16  1  0  0  0  0
 13 14  2  0  0  0  0
 13 15  1  0  0  0  0
 21 22  2  0  0  0  0
 23 21  1  1  0  0  0
 23 24  1  0  0  0  0
 23 44  1  0  0  0  0
 24 25  1  0  0  0  0
 24 48  1  0  0  0  0
 24 49  1  0  0  0  0
 25 26  1  0  0  0  0
 25 36  1  0  0  0  0
 26 27  1  0  0  0  0
 26 34  1  0  0  0  0
 26 35  1  0  0  0  0
 27 28  1  0  0  0  0
 27 31  2  0  0  0  0
 28 29  2  0  0  0  0
 29 30  1  0  0  0  0
 29 33  1  0  0  0  0
 30 31  1  0  0  0  0
 30 32  1  0  0  0  0
 36 37  2  0  0  0  0
 36 38  1  0  0  0  0
 38 39  2  0  0  0  0
 38 44  1  0  0  0  0
 39 40  1  0  0  0  0
 39 47  1  0  0  0  0
 40 41  2  0  0  0  0
 40 46  1  0  0  0  0
 41 42  1  0  0  0  0
 41 43  1  0  0  0  0
 43 44  2  0  0  0  0
 43 45  1  0  0  0  0
M  END
>  <MODEL>
       1

$$$$
