tmp_first_model_17_79.pdb
 OpenBabel08282502223D

 45 49  0  0  0  0  0  0  0  0999 V2000
  -10.5620   -2.6410  -22.3030 C   0  0  0  0  0  0  0  0  0  0  0  0
   -9.1600   -2.3940  -22.0280 N   0  0  0  0  0  0  0  0  0  0  0  0
   -8.7250   -1.2870  -21.3560 C   0  0  0  0  0  0  0  0  0  0  0  0
   -9.3800   -0.3450  -20.9630 O   0  0  0  0  0  0  0  0  0  0  0  0
   -7.3310   -1.4320  -21.2150 N   0  0  0  0  0  0  0  0  0  0  0  0
   -6.5940   -0.7960  -20.1790 C   0  0  0  0  0  0  0  0  0  0  0  0
   -6.9380   -1.0110  -18.8680 C   0  0  0  0  0  0  0  0  0  0  0  0
   -6.2550   -0.5160  -17.8070 N   0  0  0  0  0  0  0  0  0  0  0  0
   -5.2060    0.2280  -18.0650 C   0  0  0  0  0  0  0  0  0  0  0  0
   -4.7590    0.5520  -19.3770 C   0  0  0  0  0  0  0  0  0  0  0  0
   -3.6250    1.3780  -19.6020 C   0  0  0  0  0  0  0  0  0  0  0  0
   -3.2410    1.6860  -20.8780 C   0  0  0  0  0  0  0  0  0  0  0  0
   -3.9630    1.1870  -21.9850 C   0  0  0  0  0  0  0  0  0  0  0  0
   -5.0560    0.3800  -21.7950 C   0  0  0  0  0  0  0  0  0  0  0  0
   -5.4750    0.0370  -20.4790 C   0  0  0  0  0  0  0  0  0  0  0  0
   -5.6090   -0.0040  -22.6470 H   0  0  0  0  0  0  0  0  0  0  0  0
   -3.6410    1.4400  -22.9910 H   0  0  0  0  0  0  0  0  0  0  0  0
   -2.3740    2.3170  -21.0540 H   0  0  0  0  0  0  0  0  0  0  0  0
   -3.0800    1.7600  -18.7440 H   0  0  0  0  0  0  0  0  0  0  0  0
   -4.6520    0.6160  -17.2090 H   0  0  0  0  0  0  0  0  0  0  0  0
   -7.8000   -1.6320  -18.6310 H   0  0  0  0  0  0  0  0  0  0  0  0
   -6.8580   -2.5230  -21.9450 C   0  0  0  0  0  0  0  0  0  0  0  0
   -5.7090   -2.8860  -22.0320 O   0  0  0  0  0  0  0  0  0  0  0  0
   -8.0700   -3.1470  -22.5980 C   0  0  0  0  0  0  0  0  0  0  0  0
   -8.1040   -4.6880  -22.5570 C   0  0  0  0  0  0  0  0  0  0  0  0
   -8.1090   -4.7140  -24.0510 N   0  0  0  0  0  0  0  0  0  0  0  0
   -9.2030   -5.5830  -24.9380 S   0  0  0  0  0  0  0  0  0  0  0  0
   -8.9520   -7.0110  -24.9100 O   0  0  0  0  0  0  0  0  0  0  0  0
  -10.5100   -4.9600  -25.1180 O   0  0  0  0  0  0  0  0  0  0  0  0
   -8.6330   -5.3940  -27.6160 C   0  0  0  0  0  0  0  0  0  0  0  0
   -9.6040   -6.0510  -28.1740 C   0  0  0  0  0  0  0  0  0  0  0  0
   -8.4270   -5.3110  -27.7720 C   0  0  0  0  0  0  0  0  0  0  0  0
   -8.6960   -4.3600  -27.0110 H   0  0  0  0  0  0  0  0  0  0  0  0
   -7.4340   -4.4940  -28.7380 H   0  0  0  0  0  0  0  0  0  0  0  0
   -9.8230   -6.6600  -29.0800 H   0  0  0  0  0  0  0  0  0  0  0  0
  -10.0810   -5.9300  -27.3050 H   0  0  0  0  0  0  0  0  0  0  0  0
   -7.6590   -5.7980  -26.9210 H   0  0  0  0  0  0  0  0  0  0  0  0
   -8.0310   -3.2400  -24.1360 C   0  0  0  0  0  0  0  0  0  0  0  0
   -7.0810   -2.9080  -24.5650 H   0  0  0  0  0  0  0  0  0  0  0  0
   -8.8760   -2.7410  -24.6230 H   0  0  0  0  0  0  0  0  0  0  0  0
   -7.1760   -5.1180  -22.1710 H   0  0  0  0  0  0  0  0  0  0  0  0
   -8.9740   -5.1360  -22.0710 H   0  0  0  0  0  0  0  0  0  0  0  0
  -11.0130   -1.7780  -22.8020 H   0  0  0  0  0  0  0  0  0  0  0  0
  -11.1070   -2.8230  -21.3740 H   0  0  0  0  0  0  0  0  0  0  0  0
  -10.6600   -3.5190  -22.9480 H   0  0  0  0  0  0  0  0  0  0  0  0
  1  2  1  0  0  0  0
  1 43  1  0  0  0  0
  1 44  1  0  0  0  0
  1 45  1  0  0  0  0
  2  3  1  0  0  0  0
  2 24  1  0  0  0  0
  3  4  2  0  0  0  0
  3  5  1  0  0  0  0
  5  6  1  0  0  0  0
  5 22  1  0  0  0  0
  6  7  2  0  0  0  0
  6 15  1  0  0  0  0
  7  8  1  0  0  0  0
  7 21  1  0  0  0  0
  8  9  2  0  0  0  0
  9 10  1  0  0  0  0
  9 20  1  0  0  0  0
 10 11  2  0  0  0  0
 10 15  1  0  0  0  0
 11 12  1  0  0  0  0
 11 19  1  0  0  0  0
 12 13  2  0  0  0  0
 12 18  1  0  0  0  0
 13 14  1  0  0  0  0
 13 17  1  0  0  0  0
 14 15  2  0  0  0  0
 14 16  1  0  0  0  0
 22 23  2  0  0  0  0
 22 24  1  0  0  0  0
 24 25  1  0  0  0  0
 24 38  1  0  0  0  0
 25 26  1  0  0  0  0
 25 41  1  0  0  0  0
 25 42  1  0  0  0  0
 26 27  1  0  0  0  0
 26 38  1  0  0  0  0
 27 28  2  0  0  0  0
 27 29  2  0  0  0  0
 27 30  1  0  0  0  0
 30 31  1  0  0  0  0
 30 32  1  0  0  0  0
 30 37  1  0  0  0  0
 31 32  1  0  0  0  0
 31 35  1  0  0  0  0
 31 36  1  0  0  0  0
 32 33  1  0  0  0  0
 32 34  1  0  0  0  0
 38 39  1  0  0  0  0
 38 40  1  0  0  0  0
M  END
>  <MODEL>
       1

$$$$
