tmp_first_model_10_55.pdb
 OpenBabel08272522163D

 61 66  0  0  1  0  0  0  0  0999 V2000
   -7.0130   -5.4640  -25.0480 C   0  0  0  0  0  0  0  0  0  0  0  0
   -7.3600   -4.8120  -23.8510 O   0  0  0  0  0  0  0  0  0  0  0  0
   -7.9940   -3.5780  -24.0820 C   0  0  0  0  0  0  0  0  0  0  0  0
   -8.2910   -2.9180  -22.7370 C   0  0  1  0  0  0  0  0  0  0  0  0
   -7.0110   -2.5560  -21.9580 C   0  0  0  0  0  0  0  0  0  0  0  0
   -7.3990   -1.3840  -21.1930 N   0  0  0  0  0  0  0  0  0  0  0  0
   -6.6200   -0.8020  -20.1620 C   0  0  0  0  0  0  0  0  0  0  0  0
   -6.9220   -1.0580  -18.8490 C   0  0  0  0  0  0  0  0  0  0  0  0
   -6.2160   -0.5770  -17.7960 N   0  0  0  0  0  0  0  0  0  0  0  0
   -5.2000    0.2110  -18.0600 C   0  0  0  0  0  0  0  0  0  0  0  0
   -4.7930    0.5770  -19.3750 C   0  0  0  0  0  0  0  0  0  0  0  0
   -3.6790    1.4260  -19.6170 C   0  0  0  0  0  0  0  0  0  0  0  0
   -3.3820    1.8370  -20.8860 C   0  0  0  0  0  0  0  0  0  0  0  0
   -4.1570    1.3870  -21.9750 C   0  0  0  0  0  0  0  0  0  0  0  0
   -5.1420    0.4470  -21.7830 C   0  0  0  0  0  0  0  0  0  0  0  0
   -5.5220    0.0580  -20.4690 C   0  0  0  0  0  0  0  0  0  0  0  0
   -5.6830    0.0480  -22.6370 H   0  0  0  0  0  0  0  0  0  0  0  0
   -3.9600    1.7910  -22.9690 H   0  0  0  0  0  0  0  0  0  0  0  0
   -2.5380    2.5010  -21.0640 H   0  0  0  0  0  0  0  0  0  0  0  0
   -3.0920    1.7580  -18.7660 H   0  0  0  0  0  0  0  0  0  0  0  0
   -4.6240    0.5870  -17.2120 H   0  0  0  0  0  0  0  0  0  0  0  0
   -7.7760   -1.6860  -18.6060 H   0  0  0  0  0  0  0  0  0  0  0  0
   -8.5930   -0.8180  -21.5750 C   0  0  0  0  0  0  0  0  0  0  0  0
   -9.0950    0.1520  -21.0470 O   0  0  0  0  0  0  0  0  0  0  0  0
   -9.1360   -1.6120  -22.7850 C   0  0  1  0  0  0  0  0  0  0  0  0
   -8.8660   -0.8300  -24.0910 C   0  0  0  0  0  0  0  0  0  0  0  0
   -9.6870    0.3590  -24.1930 N   0  0  0  0  0  0  0  0  0  0  0  0
   -9.0610    1.5860  -24.6540 C   0  0  0  0  0  0  0  0  0  0  0  0
   -8.2630    2.2810  -23.5930 C   0  0  0  0  0  0  0  0  0  0  0  0
   -6.9240    2.4020  -23.4290 C   0  0  0  0  0  0  0  0  0  0  0  0
   -6.7130    3.1650  -22.3000 N   0  3  0  0  0  0  0  0  0  0  0  0
   -7.8890    3.5200  -21.7830 C   0  0  0  0  0  0  0  0  0  0  0  0
   -8.8510    2.9870  -22.5550 N   0  0  0  0  0  0  0  0  0  0  0  0
   -9.8230    2.9210  -22.2700 H   0  0  0  0  0  0  0  0  0  0  0  0
   -8.0160    4.1790  -20.9350 H   0  0  0  0  0  0  0  0  0  0  0  0
   -5.8200    3.2320  -21.8360 H   0  0  0  0  0  0  0  0  0  0  0  0
   -6.0820    2.0010  -23.9770 H   0  0  0  0  0  0  0  0  0  0  0  0
   -9.8660    2.2270  -25.0310 H   0  0  0  0  0  0  0  0  0  0  0  0
   -8.4130    1.3420  -25.5020 H   0  0  0  0  0  0  0  0  0  0  0  0
  -11.0380    0.3100  -24.0030 C   0  0  0  0  0  0  0  0  0  0  0  0
  -11.7940    1.1860  -24.4000 O   0  0  0  0  0  0  0  0  0  0  0  0
  -11.5290   -0.8880  -23.2470 C   0  0  0  0  0  0  0  0  0  0  0  0
  -12.9070   -1.0370  -23.0970 C   0  0  0  0  0  0  0  0  0  0  0  0
  -13.4210   -2.0410  -22.3030 C   0  0  0  0  0  0  0  0  0  0  0  0
  -12.5270   -2.8920  -21.6550 C   0  0  0  0  0  0  0  0  0  0  0  0
  -13.1440   -4.1210  -20.5910 Cl  0  0  0  0  0  0  0  0  0  0  0  0
  -11.1600   -2.7780  -21.8200 C   0  0  0  0  0  0  0  0  0  0  0  0
  -10.6340   -1.7890  -22.6540 C   0  0  0  0  0  0  0  0  0  0  0  0
  -10.5140   -3.4530  -21.2720 H   0  0  0  0  0  0  0  0  0  0  0  0
  -14.4880   -2.1590  -22.1530 H   0  0  0  0  0  0  0  0  0  0  0  0
  -13.5530   -0.3290  -23.6010 H   0  0  0  0  0  0  0  0  0  0  0  0
   -9.0740   -1.4910  -24.9420 H   0  0  0  0  0  0  0  0  0  0  0  0
   -7.8150   -0.5290  -24.1420 H   0  0  0  0  0  0  0  0  0  0  0  0
   -6.1760   -2.3400  -22.6390 H   0  0  0  0  0  0  0  0  0  0  0  0
   -6.6950   -3.3650  -21.2940 H   0  0  0  0  0  0  0  0  0  0  0  0
   -8.8380   -3.6570  -22.1530 H   0  0  0  0  0  0  0  0  0  0  0  0
   -8.9280   -3.7320  -24.6510 H   0  0  0  0  0  0  0  0  0  0  0  0
   -7.3440   -2.9240  -24.6900 H   0  0  0  0  0  0  0  0  0  0  0  0
   -6.5440   -6.4150  -24.7830 H   0  0  0  0  0  0  0  0  0  0  0  0
   -7.8950   -5.6730  -25.6750 H   0  0  0  0  0  0  0  0  0  0  0  0
   -6.2980   -4.8760  -25.6460 H   0  0  0  0  0  0  0  0  0  0  0  0
  1  2  1  0  0  0  0
  1 59  1  0  0  0  0
  1 60  1  0  0  0  0
  1 61  1  0  0  0  0
  2  3  1  0  0  0  0
  3  4  1  0  0  0  0
  3 57  1  0  0  0  0
  3 58  1  0  0  0  0
  4  5  1  0  0  0  0
  4 25  1  0  0  0  0
  4 56  1  1  0  0  0
  5  6  1  0  0  0  0
  5 54  1  0  0  0  0
  5 55  1  0  0  0  0
  6  7  1  0  0  0  0
  6 23  1  0  0  0  0
  7  8  2  0  0  0  0
  7 16  1  0  0  0  0
  8  9  1  0  0  0  0
  8 22  1  0  0  0  0
  9 10  2  0  0  0  0
 10 11  1  0  0  0  0
 10 21  1  0  0  0  0
 11 12  2  0  0  0  0
 11 16  1  0  0  0  0
 12 13  1  0  0  0  0
 12 20  1  0  0  0  0
 13 14  2  0  0  0  0
 13 19  1  0  0  0  0
 14 15  1  0  0  0  0
 14 18  1  0  0  0  0
 15 16  2  0  0  0  0
 15 17  1  0  0  0  0
 23 24  2  0  0  0  0
 25 23  1  1  0  0  0
 25 26  1  0  0  0  0
 25 48  1  0  0  0  0
 26 27  1  0  0  0  0
 26 52  1  0  0  0  0
 26 53  1  0  0  0  0
 27 28  1  0  0  0  0
 27 40  1  0  0  0  0
 28 29  1  0  0  0  0
 28 38  1  0  0  0  0
 28 39  1  0  0  0  0
 29 30  2  0  0  0  0
 29 33  1  0  0  0  0
 30 31  1  0  0  0  0
 30 37  1  0  0  0  0
 31 32  2  0  0  0  0
 31 36  1  0  0  0  0
 32 33  1  0  0  0  0
 32 35  1  0  0  0  0
 33 34  1  0  0  0  0
 40 41  2  0  0  0  0
 40 42  1  0  0  0  0
 42 43  2  0  0  0  0
 42 48  1  0  0  0  0
 43 44  1  0  0  0  0
 43 51  1  0  0  0  0
 44 45  2  0  0  0  0
 44 50  1  0  0  0  0
 45 46  1  0  0  0  0
 45 47  1  0  0  0  0
 47 48  2  0  0  0  0
 47 49  1  0  0  0  0
M  CHG  1  31   1
M  END
>  <MODEL>
       1

$$$$
