tmp_first_model_4_16.pdb
 OpenBabel08272518513D

 61 66  0  0  1  0  0  0  0  0999 V2000
   -7.3170    3.3840  -21.8810 C   0  0  0  0  0  0  0  0  0  0  0  0
   -8.2110    2.9380  -22.9400 N   0  0  0  0  0  0  0  0  0  0  0  0
   -7.6580    2.2180  -23.9590 C   0  0  0  0  0  0  0  0  0  0  0  0
   -6.4530    2.0480  -24.0650 O   0  0  0  0  0  0  0  0  0  0  0  0
   -8.6330    1.6220  -24.9760 C   0  0  0  0  0  0  0  0  0  0  0  0
   -9.3350    0.4840  -24.4120 N   0  0  0  0  0  0  0  0  0  0  0  0
   -8.6130   -0.7660  -24.2240 C   0  0  0  0  0  0  0  0  0  0  0  0
   -9.0320   -1.4800  -22.9140 C   0  0  2  0  0  0  0  0  0  0  0  0
   -8.4850   -0.7140  -21.6830 C   0  0  0  0  0  0  0  0  0  0  0  0
   -8.9070    0.3210  -21.2060 O   0  0  0  0  0  0  0  0  0  0  0  0
   -7.3990   -1.4080  -21.2060 N   0  0  0  0  0  0  0  0  0  0  0  0
   -6.5260   -0.9420  -20.1990 C   0  0  0  0  0  0  0  0  0  0  0  0
   -6.7730   -1.2510  -18.8920 C   0  0  0  0  0  0  0  0  0  0  0  0
   -5.9130   -0.9990  -17.8740 N   0  0  0  0  0  0  0  0  0  0  0  0
   -4.7870   -0.3980  -18.1690 C   0  0  0  0  0  0  0  0  0  0  0  0
   -4.4370    0.0320  -19.4810 C   0  0  0  0  0  0  0  0  0  0  0  0
   -3.2710    0.7920  -19.7400 C   0  0  0  0  0  0  0  0  0  0  0  0
   -3.0540    1.3210  -20.9840 C   0  0  0  0  0  0  0  0  0  0  0  0
   -3.9360    1.0280  -22.0510 C   0  0  0  0  0  0  0  0  0  0  0  0
   -5.0410    0.2430  -21.8380 C   0  0  0  0  0  0  0  0  0  0  0  0
   -5.3280   -0.2500  -20.5390 C   0  0  0  0  0  0  0  0  0  0  0  0
   -5.7040    0.0070  -22.6660 H   0  0  0  0  0  0  0  0  0  0  0  0
   -3.7710    1.4660  -23.0310 H   0  0  0  0  0  0  0  0  0  0  0  0
   -2.2070    1.9770  -21.1550 H   0  0  0  0  0  0  0  0  0  0  0  0
   -2.6160    1.0030  -18.9010 H   0  0  0  0  0  0  0  0  0  0  0  0
   -4.0850   -0.1980  -17.3580 H   0  0  0  0  0  0  0  0  0  0  0  0
   -7.7050   -1.7560  -18.6450 H   0  0  0  0  0  0  0  0  0  0  0  0
   -7.0670   -2.6020  -21.9360 C   0  0  0  0  0  0  0  0  0  0  0  0
   -8.3250   -2.8620  -22.7670 C   0  0  2  0  0  0  0  0  0  0  0  0
   -7.9800   -3.6230  -24.0520 C   0  0  0  0  0  0  0  0  0  0  0  0
   -7.4460   -4.9460  -23.7480 N   0  0  0  0  0  0  0  0  0  0  0  0
   -6.1550   -5.2170  -23.6470 N   0  0  0  0  0  0  0  0  0  0  0  0
   -6.1800   -6.5050  -23.3410 C   0  0  0  0  0  0  0  0  0  0  0  0
   -7.4360   -6.9890  -23.2510 N   0  0  0  0  0  0  0  0  0  0  0  0
   -8.2230   -5.9810  -23.5110 N   0  0  0  0  0  0  0  0  0  0  0  0
   -5.2910   -7.1060  -23.1960 H   0  0  0  0  0  0  0  0  0  0  0  0
   -7.2080   -3.0930  -24.6120 H   0  0  0  0  0  0  0  0  0  0  0  0
   -8.8540   -3.7500  -24.6950 H   0  0  0  0  0  0  0  0  0  0  0  0
   -8.9830   -3.5150  -22.1920 H   0  0  0  0  0  0  0  0  0  0  0  0
   -6.1710   -2.4760  -22.5700 H   0  0  0  0  0  0  0  0  0  0  0  0
   -6.8660   -3.4180  -21.2370 H   0  0  0  0  0  0  0  0  0  0  0  0
  -10.5450   -1.5170  -22.8590 C   0  0  0  0  0  0  0  0  0  0  0  0
  -11.1970   -2.3970  -21.9920 C   0  0  0  0  0  0  0  0  0  0  0  0
  -12.5760   -2.4030  -21.9120 C   0  0  0  0  0  0  0  0  0  0  0  0
  -13.3440   -3.5030  -20.8110 Cl  0  0  0  0  0  0  0  0  0  0  0  0
  -13.3630   -1.5380  -22.6710 C   0  0  0  0  0  0  0  0  0  0  0  0
  -12.7220   -0.6300  -23.4880 C   0  0  0  0  0  0  0  0  0  0  0  0
  -11.3300   -0.5930  -23.5610 C   0  0  0  0  0  0  0  0  0  0  0  0
  -10.7020    0.5180  -24.3470 C   0  0  0  0  0  0  0  0  0  0  0  0
  -11.3670    1.4070  -24.8590 O   0  0  0  0  0  0  0  0  0  0  0  0
  -13.2770    0.0940  -24.0690 H   0  0  0  0  0  0  0  0  0  0  0  0
  -14.4450   -1.5620  -22.5900 H   0  0  0  0  0  0  0  0  0  0  0  0
  -10.6420   -3.0690  -21.3480 H   0  0  0  0  0  0  0  0  0  0  0  0
   -8.8160   -1.4400  -25.0680 H   0  0  0  0  0  0  0  0  0  0  0  0
   -7.5370   -0.5580  -24.2160 H   0  0  0  0  0  0  0  0  0  0  0  0
   -8.0570    1.3150  -25.8570 H   0  0  0  0  0  0  0  0  0  0  0  0
   -9.3870    2.3510  -25.2900 H   0  0  0  0  0  0  0  0  0  0  0  0
   -9.1790    2.7740  -22.6860 H   0  0  0  0  0  0  0  0  0  0  0  0
   -6.6260    4.1390  -22.2680 H   0  0  0  0  0  0  0  0  0  0  0  0
   -6.7310    2.5370  -21.4920 H   0  0  0  0  0  0  0  0  0  0  0  0
   -7.8990    3.8450  -21.0800 H   0  0  0  0  0  0  0  0  0  0  0  0
  1  2  1  0  0  0  0
  1 59  1  0  0  0  0
  1 60  1  0  0  0  0
  1 61  1  0  0  0  0
  2  3  1  0  0  0  0
  2 58  1  0  0  0  0
  3  4  2  0  0  0  0
  3  5  1  0  0  0  0
  5  6  1  0  0  0  0
  5 56  1  0  0  0  0
  5 57  1  0  0  0  0
  6  7  1  0  0  0  0
  6 49  1  0  0  0  0
  7  8  1  0  0  0  0
  7 54  1  0  0  0  0
  7 55  1  0  0  0  0
  8  9  1  1  0  0  0
  8 29  1  0  0  0  0
  8 42  1  0  0  0  0
  9 10  2  0  0  0  0
  9 11  1  0  0  0  0
 11 12  1  0  0  0  0
 11 28  1  0  0  0  0
 12 13  2  0  0  0  0
 12 21  1  0  0  0  0
 13 14  1  0  0  0  0
 13 27  1  0  0  0  0
 14 15  2  0  0  0  0
 15 16  1  0  0  0  0
 15 26  1  0  0  0  0
 16 17  2  0  0  0  0
 16 21  1  0  0  0  0
 17 18  1  0  0  0  0
 17 25  1  0  0  0  0
 18 19  2  0  0  0  0
 18 24  1  0  0  0  0
 19 20  1  0  0  0  0
 19 23  1  0  0  0  0
 20 21  2  0  0  0  0
 20 22  1  0  0  0  0
 28 29  1  0  0  0  0
 28 40  1  0  0  0  0
 28 41  1  0  0  0  0
 29 30  1  0  0  0  0
 29 39  1  1  0  0  0
 30 31  1  0  0  0  0
 30 37  1  0  0  0  0
 30 38  1  0  0  0  0
 31 32  1  0  0  0  0
 31 35  1  0  0  0  0
 32 33  2  0  0  0  0
 33 34  1  0  0  0  0
 33 36  1  0  0  0  0
 34 35  2  0  0  0  0
 42 43  2  0  0  0  0
 42 48  1  0  0  0  0
 43 44  1  0  0  0  0
 43 53  1  0  0  0  0
 44 45  1  0  0  0  0
 44 46  2  0  0  0  0
 46 47  1  0  0  0  0
 46 52  1  0  0  0  0
 47 48  2  0  0  0  0
 47 51  1  0  0  0  0
 48 49  1  0  0  0  0
 49 50  2  0  0  0  0
M  END
>  <MODEL>
       1

$$$$
