tmp_first_model_20_26.pdb
 OpenBabel08282503553D

 55 60  0  0  1  0  0  0  0  0999 V2000
  -10.4480   -1.0270  -23.3500 C   0  0  0  0  0  0  0  0  0  0  0  0
   -9.0160   -1.3860  -22.9650 C   0  0  1  0  0  0  0  0  0  0  0  0
   -8.4120   -0.4640  -21.8920 C   0  0  0  0  0  0  0  0  0  0  0  0
   -7.4320   -1.3080  -21.2370 N   0  0  0  0  0  0  0  0  0  0  0  0
   -6.6050   -0.8430  -20.1890 C   0  0  0  0  0  0  0  0  0  0  0  0
   -6.9190   -1.1050  -18.8790 C   0  0  0  0  0  0  0  0  0  0  0  0
   -6.2470   -0.5860  -17.8200 N   0  0  0  0  0  0  0  0  0  0  0  0
   -5.2180    0.1860  -18.0770 C   0  0  0  0  0  0  0  0  0  0  0  0
   -4.7630    0.5050  -19.3910 C   0  0  0  0  0  0  0  0  0  0  0  0
   -3.6250    1.3250  -19.6240 C   0  0  0  0  0  0  0  0  0  0  0  0
   -3.2280    1.6020  -20.9050 C   0  0  0  0  0  0  0  0  0  0  0  0
   -3.9340    1.0710  -22.0080 C   0  0  0  0  0  0  0  0  0  0  0  0
   -5.0350    0.2710  -21.8080 C   0  0  0  0  0  0  0  0  0  0  0  0
   -5.4750   -0.0210  -20.4880 C   0  0  0  0  0  0  0  0  0  0  0  0
   -5.5770   -0.1480  -22.6500 H   0  0  0  0  0  0  0  0  0  0  0  0
   -3.6110    1.3010  -23.0200 H   0  0  0  0  0  0  0  0  0  0  0  0
   -2.3610    2.2340  -21.0870 H   0  0  0  0  0  0  0  0  0  0  0  0
   -3.0840    1.7190  -18.7700 H   0  0  0  0  0  0  0  0  0  0  0  0
   -4.6850    0.6070  -17.2240 H   0  0  0  0  0  0  0  0  0  0  0  0
   -7.7580   -1.7550  -18.6350 H   0  0  0  0  0  0  0  0  0  0  0  0
   -7.6260   -2.6510  -21.4590 C   0  0  0  0  0  0  0  0  0  0  0  0
   -6.9110   -3.5210  -21.0040 O   0  0  0  0  0  0  0  0  0  0  0  0
   -8.8390   -2.8300  -22.3820 C   0  0  1  0  0  0  0  0  0  0  0  0
  -10.0490   -3.2510  -21.5210 C   0  0  0  0  0  0  0  0  0  0  0  0
  -11.1970   -3.6810  -22.3180 N   0  0  0  0  0  0  0  0  0  0  0  0
  -12.5560   -3.6250  -21.7780 C   0  0  0  0  0  0  0  0  0  0  0  0
  -13.4630   -2.5310  -22.2890 C   0  0  0  0  0  0  0  0  0  0  0  0
  -13.9250   -1.2880  -21.8180 C   0  0  0  0  0  0  0  0  0  0  0  0
  -14.8850   -0.8320  -22.6200 N   0  0  0  0  0  0  0  0  0  0  0  0
  -14.9610   -1.7710  -23.5390 N   0  0  0  0  0  0  0  0  0  0  0  0
  -14.1780   -2.8110  -23.3740 N   0  0  0  0  0  0  0  0  0  0  0  0
  -15.6800   -1.7580  -24.2460 H   0  0  0  0  0  0  0  0  0  0  0  0
  -13.6340   -0.7140  -20.9600 H   0  0  0  0  0  0  0  0  0  0  0  0
  -12.5280   -3.6550  -20.6870 H   0  0  0  0  0  0  0  0  0  0  0  0
  -13.0370   -4.5370  -22.1370 H   0  0  0  0  0  0  0  0  0  0  0  0
  -11.0230   -4.4980  -23.4090 C   0  0  0  0  0  0  0  0  0  0  0  0
  -11.9550   -5.0490  -23.9770 O   0  0  0  0  0  0  0  0  0  0  0  0
   -9.6270   -4.6850  -23.8940 C   0  0  0  0  0  0  0  0  0  0  0  0
   -9.4020   -5.6640  -24.8620 C   0  0  0  0  0  0  0  0  0  0  0  0
   -8.1280   -5.8610  -25.3650 C   0  0  0  0  0  0  0  0  0  0  0  0
   -7.0940   -5.0510  -24.9060 C   0  0  0  0  0  0  0  0  0  0  0  0
   -5.8550   -5.2130  -25.4030 F   0  0  0  0  0  0  0  0  0  0  0  0
   -7.2990   -4.0720  -23.9570 C   0  0  0  0  0  0  0  0  0  0  0  0
   -8.5800   -3.8930  -23.4210 C   0  0  0  0  0  0  0  0  0  0  0  0
   -6.4550   -3.4920  -23.6010 H   0  0  0  0  0  0  0  0  0  0  0  0
   -7.9090   -6.6350  -26.0890 H   0  0  0  0  0  0  0  0  0  0  0  0
  -10.2470   -6.2500  -25.2160 H   0  0  0  0  0  0  0  0  0  0  0  0
   -9.7210   -4.0580  -20.8610 H   0  0  0  0  0  0  0  0  0  0  0  0
  -10.3250   -2.4010  -20.8870 H   0  0  0  0  0  0  0  0  0  0  0  0
   -7.9450    0.4330  -22.3100 H   0  0  0  0  0  0  0  0  0  0  0  0
   -9.1740   -0.1190  -21.1770 H   0  0  0  0  0  0  0  0  0  0  0  0
   -8.3730   -1.3400  -23.8550 H   0  0  0  0  0  0  0  0  0  0  0  0
  -10.5250   -0.0470  -23.8250 H   0  0  0  0  0  0  0  0  0  0  0  0
  -10.8550   -1.7770  -24.0330 H   0  0  0  0  0  0  0  0  0  0  0  0
  -11.0880   -1.0030  -22.4620 H   0  0  0  0  0  0  0  0  0  0  0  0
  1  2  1  0  0  0  0
  1 53  1  0  0  0  0
  1 54  1  0  0  0  0
  1 55  1  0  0  0  0
  2  3  1  0  0  0  0
  2 23  1  0  0  0  0
  2 52  1  6  0  0  0
  3  4  1  0  0  0  0
  3 50  1  0  0  0  0
  3 51  1  0  0  0  0
  4  5  1  0  0  0  0
  4 21  1  0  0  0  0
  5  6  2  0  0  0  0
  5 14  1  0  0  0  0
  6  7  1  0  0  0  0
  6 20  1  0  0  0  0
  7  8  2  0  0  0  0
  8  9  1  0  0  0  0
  8 19  1  0  0  0  0
  9 10  2  0  0  0  0
  9 14  1  0  0  0  0
 10 11  1  0  0  0  0
 10 18  1  0  0  0  0
 11 12  2  0  0  0  0
 11 17  1  0  0  0  0
 12 13  1  0  0  0  0
 12 16  1  0  0  0  0
 13 14  2  0  0  0  0
 13 15  1  0  0  0  0
 21 22  2  0  0  0  0
 23 21  1  1  0  0  0
 23 24  1  0  0  0  0
 23 44  1  0  0  0  0
 24 25  1  0  0  0  0
 24 48  1  0  0  0  0
 24 49  1  0  0  0  0
 25 26  1  0  0  0  0
 25 36  1  0  0  0  0
 26 27  1  0  0  0  0
 26 34  1  0  0  0  0
 26 35  1  0  0  0  0
 27 28  1  0  0  0  0
 27 31  2  0  0  0  0
 28 29  2  0  0  0  0
 28 33  1  0  0  0  0
 29 30  1  0  0  0  0
 30 31  1  0  0  0  0
 30 32  1  0  0  0  0
 36 37  2  0  0  0  0
 36 38  1  0  0  0  0
 38 39  2  0  0  0  0
 38 44  1  0  0  0  0
 39 40  1  0  0  0  0
 39 47  1  0  0  0  0
 40 41  2  0  0  0  0
 40 46  1  0  0  0  0
 41 42  1  0  0  0  0
 41 43  1  0  0  0  0
 43 44  2  0  0  0  0
 43 45  1  0  0  0  0
M  END
>  <MODEL>
       1

$$$$
