tmp_first_model_13_49.pdb
 OpenBabel08282500103D

 67 72  0  0  1  0  0  0  0  0999 V2000
   -7.4220    3.3450  -21.7560 C   0  0  0  0  0  0  0  0  0  0  0  0
   -8.2680    2.8790  -22.8380 N   0  0  0  0  0  0  0  0  0  0  0  0
   -7.6940    2.2210  -23.8670 C   0  0  0  0  0  0  0  0  0  0  0  0
   -6.4790    2.1350  -23.9920 O   0  0  0  0  0  0  0  0  0  0  0  0
   -8.6470    1.6000  -24.8980 C   0  0  0  0  0  0  0  0  0  0  0  0
   -9.3730    0.4450  -24.4010 N   0  0  0  0  0  0  0  0  0  0  0  0
   -8.6540   -0.8070  -24.2390 C   0  0  0  0  0  0  0  0  0  0  0  0
   -9.0440   -1.5280  -22.9230 C   0  0  2  0  0  0  0  0  0  0  0  0
   -8.5030   -0.7380  -21.7000 C   0  0  0  0  0  0  0  0  0  0  0  0
   -8.9550    0.2840  -21.2280 O   0  0  0  0  0  0  0  0  0  0  0  0
   -7.3920   -1.3900  -21.2110 N   0  0  0  0  0  0  0  0  0  0  0  0
   -6.5990   -0.8130  -20.1800 C   0  0  0  0  0  0  0  0  0  0  0  0
   -6.9060   -1.0430  -18.8630 C   0  0  0  0  0  0  0  0  0  0  0  0
   -6.2000   -0.5460  -17.8190 N   0  0  0  0  0  0  0  0  0  0  0  0
   -5.1650    0.2100  -18.0820 C   0  0  0  0  0  0  0  0  0  0  0  0
   -4.7270    0.5320  -19.3970 C   0  0  0  0  0  0  0  0  0  0  0  0
   -3.6000    1.3650  -19.6410 C   0  0  0  0  0  0  0  0  0  0  0  0
   -3.2140    1.6570  -20.9210 C   0  0  0  0  0  0  0  0  0  0  0  0
   -3.9380    1.1270  -22.0130 C   0  0  0  0  0  0  0  0  0  0  0  0
   -5.0310    0.3210  -21.8020 C   0  0  0  0  0  0  0  0  0  0  0  0
   -5.4620    0.0030  -20.4860 C   0  0  0  0  0  0  0  0  0  0  0  0
   -5.5880   -0.0640  -22.6510 H   0  0  0  0  0  0  0  0  0  0  0  0
   -3.6490    1.3660  -23.0310 H   0  0  0  0  0  0  0  0  0  0  0  0
   -2.3620    2.3080  -21.1010 H   0  0  0  0  0  0  0  0  0  0  0  0
   -3.0700    1.7730  -18.7840 H   0  0  0  0  0  0  0  0  0  0  0  0
   -4.6180    0.6120  -17.2290 H   0  0  0  0  0  0  0  0  0  0  0  0
   -7.7570   -1.6670  -18.6010 H   0  0  0  0  0  0  0  0  0  0  0  0
   -7.0410   -2.5970  -21.9310 C   0  0  0  0  0  0  0  0  0  0  0  0
   -8.2990   -2.8950  -22.7690 C   0  0  2  0  0  0  0  0  0  0  0  0
   -7.9620   -3.6780  -24.0570 C   0  0  0  0  0  0  0  0  0  0  0  0
   -7.4520   -5.0030  -23.7770 N   0  0  0  0  0  0  0  0  0  0  0  0
   -6.1220   -5.3090  -23.6630 C   0  0  0  0  0  0  0  0  0  0  0  0
   -5.0170   -4.5880  -24.0110 C   0  0  0  0  0  0  0  0  0  0  0  0
   -3.7950   -5.1930  -23.7900 N   0  0  0  0  0  0  0  0  0  0  0  0
   -3.9360   -6.3780  -23.2940 C   0  0  0  0  0  0  0  0  0  0  0  0
   -2.7950   -7.3000  -22.9850 C   0  0  0  0  0  0  0  0  0  0  0  0
   -3.0210   -7.9330  -22.1250 H   0  0  0  0  0  0  0  0  0  0  0  0
   -2.5860   -7.9510  -23.8440 H   0  0  0  0  0  0  0  0  0  0  0  0
   -1.9000   -6.7040  -22.7920 H   0  0  0  0  0  0  0  0  0  0  0  0
   -5.6040   -6.8630  -23.0340 S   0  0  0  0  0  0  0  0  0  0  0  0
   -5.0500   -3.6010  -24.4590 H   0  0  0  0  0  0  0  0  0  0  0  0
   -8.1090   -5.7210  -23.5120 H   0  0  0  0  0  0  0  0  0  0  0  0
   -8.8650   -3.7900  -24.6680 H   0  0  0  0  0  0  0  0  0  0  0  0
   -7.2160   -3.1300  -24.6510 H   0  0  0  0  0  0  0  0  0  0  0  0
   -8.9560   -3.5350  -22.1740 H   0  0  0  0  0  0  0  0  0  0  0  0
   -6.1560   -2.4460  -22.5710 H   0  0  0  0  0  0  0  0  0  0  0  0
   -6.7900   -3.4170  -21.2490 H   0  0  0  0  0  0  0  0  0  0  0  0
  -10.5630   -1.5770  -22.8500 C   0  0  0  0  0  0  0  0  0  0  0  0
  -11.2010   -2.4610  -21.9700 C   0  0  0  0  0  0  0  0  0  0  0  0
  -12.5810   -2.4830  -21.8870 C   0  0  0  0  0  0  0  0  0  0  0  0
  -13.3570   -3.5920  -20.7950 Cl  0  0  0  0  0  0  0  0  0  0  0  0
  -13.3710   -1.6230  -22.6490 C   0  0  0  0  0  0  0  0  0  0  0  0
  -12.7480   -0.7000  -23.4640 C   0  0  0  0  0  0  0  0  0  0  0  0
  -11.3560   -0.6510  -23.5440 C   0  0  0  0  0  0  0  0  0  0  0  0
  -10.7390    0.4810  -24.3150 C   0  0  0  0  0  0  0  0  0  0  0  0
  -11.4140    1.3830  -24.7910 O   0  0  0  0  0  0  0  0  0  0  0  0
  -13.3120    0.0250  -24.0400 H   0  0  0  0  0  0  0  0  0  0  0  0
  -14.4510   -1.6710  -22.5720 H   0  0  0  0  0  0  0  0  0  0  0  0
  -10.6340   -3.1180  -21.3220 H   0  0  0  0  0  0  0  0  0  0  0  0
   -7.5880   -0.5630  -24.2230 H   0  0  0  0  0  0  0  0  0  0  0  0
   -8.8580   -1.4750  -25.0920 H   0  0  0  0  0  0  0  0  0  0  0  0
   -9.4150    2.3070  -25.2270 H   0  0  0  0  0  0  0  0  0  0  0  0
   -8.0100    1.3300  -25.7470 H   0  0  0  0  0  0  0  0  0  0  0  0
   -9.2670    2.8150  -22.6960 H   0  0  0  0  0  0  0  0  0  0  0  0
   -6.8230    2.5180  -21.3440 H   0  0  0  0  0  0  0  0  0  0  0  0
   -6.7390    4.1290  -22.1020 H   0  0  0  0  0  0  0  0  0  0  0  0
   -8.0710    3.7590  -20.9950 H   0  0  0  0  0  0  0  0  0  0  0  0
  1  2  1  0  0  0  0
  1 65  1  0  0  0  0
  1 66  1  0  0  0  0
  1 67  1  0  0  0  0
  2  3  1  0  0  0  0
  2 64  1  0  0  0  0
  3  4  2  0  0  0  0
  3  5  1  0  0  0  0
  5  6  1  0  0  0  0
  5 62  1  0  0  0  0
  5 63  1  0  0  0  0
  6  7  1  0  0  0  0
  6 55  1  0  0  0  0
  7  8  1  0  0  0  0
  7 60  1  0  0  0  0
  7 61  1  0  0  0  0
  8  9  1  1  0  0  0
  8 29  1  0  0  0  0
  8 48  1  0  0  0  0
  9 10  2  0  0  0  0
  9 11  1  0  0  0  0
 11 12  1  0  0  0  0
 11 28  1  0  0  0  0
 12 13  2  0  0  0  0
 12 21  1  0  0  0  0
 13 14  1  0  0  0  0
 13 27  1  0  0  0  0
 14 15  2  0  0  0  0
 15 16  1  0  0  0  0
 15 26  1  0  0  0  0
 16 17  2  0  0  0  0
 16 21  1  0  0  0  0
 17 18  1  0  0  0  0
 17 25  1  0  0  0  0
 18 19  2  0  0  0  0
 18 24  1  0  0  0  0
 19 20  1  0  0  0  0
 19 23  1  0  0  0  0
 20 21  2  0  0  0  0
 20 22  1  0  0  0  0
 28 29  1  0  0  0  0
 28 46  1  0  0  0  0
 28 47  1  0  0  0  0
 29 30  1  0  0  0  0
 29 45  1  1  0  0  0
 30 31  1  0  0  0  0
 30 43  1  0  0  0  0
 30 44  1  0  0  0  0
 31 32  1  0  0  0  0
 31 42  1  0  0  0  0
 32 33  2  0  0  0  0
 32 40  1  0  0  0  0
 33 34  1  0  0  0  0
 33 41  1  0  0  0  0
 34 35  2  0  0  0  0
 35 36  1  0  0  0  0
 35 40  1  0  0  0  0
 36 37  1  0  0  0  0
 36 38  1  0  0  0  0
 36 39  1  0  0  0  0
 48 49  2  0  0  0  0
 48 54  1  0  0  0  0
 49 50  1  0  0  0  0
 49 59  1  0  0  0  0
 50 51  1  0  0  0  0
 50 52  2  0  0  0  0
 52 53  1  0  0  0  0
 52 58  1  0  0  0  0
 53 54  2  0  0  0  0
 53 57  1  0  0  0  0
 54 55  1  0  0  0  0
 55 56  2  0  0  0  0
M  END
>  <MODEL>
       1

$$$$
