tmp_first_model_2_83.pdb
 OpenBabel08272517383D

 46 50  0  0  1  0  0  0  0  0999 V2000
   -7.8410    1.1630  -27.0160 N   0  0  0  0  0  0  0  0  0  0  0  0
   -8.3970    1.6250  -25.5110 S   0  0  0  0  0  0  0  0  0  0  0  0
   -7.2010    1.8370  -24.7090 O   0  0  0  0  0  0  0  0  0  0  0  0
   -9.4070    2.6620  -25.6800 O   0  0  0  0  0  0  0  0  0  0  0  0
   -9.1960    0.1540  -24.9560 C   0  0  0  0  0  0  0  0  0  0  0  0
  -10.3070   -0.3100  -25.6510 C   0  0  0  0  0  0  0  0  0  0  0  0
  -10.8870   -1.5160  -25.2910 C   0  0  0  0  0  0  0  0  0  0  0  0
  -10.4000   -2.2170  -24.1830 C   0  0  0  0  0  0  0  0  0  0  0  0
   -9.3160   -1.7190  -23.4470 C   0  0  0  0  0  0  0  0  0  0  0  0
   -8.6980   -0.5510  -23.8770 C   0  0  0  0  0  0  0  0  0  0  0  0
   -7.8320   -0.1810  -23.3460 H   0  0  0  0  0  0  0  0  0  0  0  0
   -8.8600   -2.4230  -22.1780 C   0  0  1  0  0  0  0  0  0  0  0  0
  -10.0560   -3.2280  -21.6490 C   0  0  0  0  0  0  0  0  0  0  0  0
  -10.6280   -4.1140  -22.7420 C   0  0  0  0  0  0  0  0  0  0  0  0
  -11.0500   -3.3690  -23.8770 O   0  0  0  0  0  0  0  0  0  0  0  0
  -11.5320   -4.6210  -22.3970 H   0  0  0  0  0  0  0  0  0  0  0  0
   -9.9050   -4.8790  -23.0600 H   0  0  0  0  0  0  0  0  0  0  0  0
   -9.7460   -3.8340  -20.8010 H   0  0  0  0  0  0  0  0  0  0  0  0
  -10.8310   -2.5250  -21.3310 H   0  0  0  0  0  0  0  0  0  0  0  0
   -7.6800   -3.2610  -22.3560 N   0  0  0  0  0  0  0  0  0  0  0  0
   -6.5840   -2.8700  -21.6210 C   0  0  0  0  0  0  0  0  0  0  0  0
   -5.4830   -3.3650  -21.6040 O   0  0  0  0  0  0  0  0  0  0  0  0
   -7.0250   -1.7630  -20.8550 N   0  0  0  0  0  0  0  0  0  0  0  0
   -6.2910   -1.0040  -19.8970 C   0  0  0  0  0  0  0  0  0  0  0  0
   -6.7170   -1.0160  -18.5930 C   0  0  0  0  0  0  0  0  0  0  0  0
   -6.1040   -0.3640  -17.5790 N   0  0  0  0  0  0  0  0  0  0  0  0
   -5.0660    0.3720  -17.8860 C   0  0  0  0  0  0  0  0  0  0  0  0
   -4.5770    0.5590  -19.2040 C   0  0  0  0  0  0  0  0  0  0  0  0
   -3.5000    1.4460  -19.4660 C   0  0  0  0  0  0  0  0  0  0  0  0
   -3.1430    1.7220  -20.7550 C   0  0  0  0  0  0  0  0  0  0  0  0
   -3.8370    1.1200  -21.8310 C   0  0  0  0  0  0  0  0  0  0  0  0
   -4.8500    0.2190  -21.5950 C   0  0  0  0  0  0  0  0  0  0  0  0
   -5.2330   -0.1060  -20.2640 C   0  0  0  0  0  0  0  0  0  0  0  0
   -5.3760   -0.2320  -22.4340 H   0  0  0  0  0  0  0  0  0  0  0  0
   -3.5700    1.3830  -22.8520 H   0  0  0  0  0  0  0  0  0  0  0  0
   -2.3410    2.4270  -20.9570 H   0  0  0  0  0  0  0  0  0  0  0  0
   -3.0070    1.9140  -18.6160 H   0  0  0  0  0  0  0  0  0  0  0  0
   -4.5820    0.8930  -17.0640 H   0  0  0  0  0  0  0  0  0  0  0  0
   -7.6130   -1.5690  -18.3220 H   0  0  0  0  0  0  0  0  0  0  0  0
   -8.3380   -1.4170  -21.1520 C   0  0  0  0  0  0  0  0  0  0  0  0
   -8.8870   -0.4250  -20.7310 O   0  0  0  0  0  0  0  0  0  0  0  0
   -7.5670   -3.8480  -23.1690 H   0  0  0  0  0  0  0  0  0  0  0  0
  -11.7340   -1.9410  -25.8250 H   0  0  0  0  0  0  0  0  0  0  0  0
  -10.6990    0.3050  -26.4510 H   0  0  0  0  0  0  0  0  0  0  0  0
   -6.8990    1.5250  -27.1380 H   0  0  0  0  0  0  0  0  0  0  0  0
   -8.4760    1.4460  -27.7620 H   0  0  0  0  0  0  0  0  0  0  0  0
  1  2  1  0  0  0  0
  1 45  1  0  0  0  0
  1 46  1  0  0  0  0
  2  3  2  0  0  0  0
  2  4  2  0  0  0  0
  2  5  1  0  0  0  0
  5  6  2  0  0  0  0
  5 10  1  0  0  0  0
  6  7  1  0  0  0  0
  6 44  1  0  0  0  0
  7  8  2  0  0  0  0
  7 43  1  0  0  0  0
  8  9  1  0  0  0  0
  8 15  1  0  0  0  0
  9 10  2  0  0  0  0
 10 11  1  0  0  0  0
 12  9  1  6  0  0  0
 12 13  1  0  0  0  0
 12 20  1  0  0  0  0
 12 40  1  0  0  0  0
 13 14  1  0  0  0  0
 13 18  1  0  0  0  0
 13 19  1  0  0  0  0
 14 15  1  0  0  0  0
 14 16  1  0  0  0  0
 14 17  1  0  0  0  0
 20 21  1  0  0  0  0
 20 42  1  0  0  0  0
 21 22  2  0  0  0  0
 21 23  1  0  0  0  0
 23 24  1  0  0  0  0
 23 40  1  0  0  0  0
 24 25  2  0  0  0  0
 24 33  1  0  0  0  0
 25 26  1  0  0  0  0
 25 39  1  0  0  0  0
 26 27  2  0  0  0  0
 27 28  1  0  0  0  0
 27 38  1  0  0  0  0
 28 29  2  0  0  0  0
 28 33  1  0  0  0  0
 29 30  1  0  0  0  0
 29 37  1  0  0  0  0
 30 31  2  0  0  0  0
 30 36  1  0  0  0  0
 31 32  1  0  0  0  0
 31 35  1  0  0  0  0
 32 33  2  0  0  0  0
 32 34  1  0  0  0  0
 40 41  2  0  0  0  0
M  END
>  <MODEL>
       1

$$$$
