tmp_first_model_20_88.pdb
 OpenBabel08282503553D

 40 42  0  0  0  0  0  0  0  0999 V2000
   -9.1790    0.2230  -21.0720 O   0  0  0  0  0  0  0  0  0  0  0  0
   -8.3760   -0.3100  -21.8050 C   0  0  0  0  0  0  0  0  0  0  0  0
   -7.4430   -1.4100  -21.2730 C   0  0  0  0  0  0  0  0  0  0  0  0
   -6.5700   -0.8350  -20.1740 C   0  0  0  0  0  0  0  0  0  0  0  0
   -6.8780   -1.0390  -18.8550 C   0  0  0  0  0  0  0  0  0  0  0  0
   -6.1960   -0.5310  -17.7930 N   0  0  0  0  0  0  0  0  0  0  0  0
   -5.1560    0.2190  -18.0650 C   0  0  0  0  0  0  0  0  0  0  0  0
   -4.7220    0.5330  -19.3810 C   0  0  0  0  0  0  0  0  0  0  0  0
   -3.6010    1.3670  -19.6240 C   0  0  0  0  0  0  0  0  0  0  0  0
   -3.2120    1.6610  -20.9020 C   0  0  0  0  0  0  0  0  0  0  0  0
   -3.9300    1.1270  -21.9950 C   0  0  0  0  0  0  0  0  0  0  0  0
   -5.0180    0.3150  -21.7860 C   0  0  0  0  0  0  0  0  0  0  0  0
   -5.4490   -0.0030  -20.4720 C   0  0  0  0  0  0  0  0  0  0  0  0
   -5.5560   -0.0830  -22.6400 H   0  0  0  0  0  0  0  0  0  0  0  0
   -3.6180    1.3700  -23.0080 H   0  0  0  0  0  0  0  0  0  0  0  0
   -2.3600    2.3110  -21.0860 H   0  0  0  0  0  0  0  0  0  0  0  0
   -3.0610    1.7760  -18.7730 H   0  0  0  0  0  0  0  0  0  0  0  0
   -4.6030    0.6250  -17.2160 H   0  0  0  0  0  0  0  0  0  0  0  0
   -7.7290   -1.6600  -18.5810 H   0  0  0  0  0  0  0  0  0  0  0  0
   -6.8360   -1.8450  -22.0750 H   0  0  0  0  0  0  0  0  0  0  0  0
   -8.0690   -2.2020  -20.8450 H   0  0  0  0  0  0  0  0  0  0  0  0
   -8.1740    0.0970  -23.1290 N   0  0  0  0  0  0  0  0  0  0  0  0
   -8.2700   -0.8160  -24.2630 C   0  0  0  0  0  0  0  0  0  0  0  0
   -7.2920   -0.4220  -25.3620 C   0  0  0  0  0  0  0  0  0  0  0  0
   -7.4920    1.0400  -25.7570 C   0  0  0  0  0  0  0  0  0  0  0  0
   -6.5120    1.4800  -26.8290 C   0  0  0  0  0  0  0  0  0  0  0  0
   -6.6480    0.7110  -27.9500 F   0  0  0  0  0  0  0  0  0  0  0  0
   -5.2270    1.3150  -26.3880 F   0  0  0  0  0  0  0  0  0  0  0  0
   -6.6290    2.5320  -27.1290 H   0  0  0  0  0  0  0  0  0  0  0  0
   -7.4040    1.9420  -24.5290 C   0  0  0  0  0  0  0  0  0  0  0  0
   -8.3890    1.5020  -23.4510 C   0  0  0  0  0  0  0  0  0  0  0  0
   -9.4200    1.7040  -23.7800 H   0  0  0  0  0  0  0  0  0  0  0  0
   -8.2380    2.0760  -22.5380 H   0  0  0  0  0  0  0  0  0  0  0  0
   -7.5940    2.9810  -24.8120 H   0  0  0  0  0  0  0  0  0  0  0  0
   -6.3850    1.9160  -24.1260 H   0  0  0  0  0  0  0  0  0  0  0  0
   -8.4830    1.1500  -26.2150 H   0  0  0  0  0  0  0  0  0  0  0  0
   -6.2700   -0.5630  -24.9980 H   0  0  0  0  0  0  0  0  0  0  0  0
   -7.4160   -1.0720  -26.2340 H   0  0  0  0  0  0  0  0  0  0  0  0
   -9.2900   -0.8240  -24.6860 H   0  0  0  0  0  0  0  0  0  0  0  0
   -8.0780   -1.8270  -23.9100 H   0  0  0  0  0  0  0  0  0  0  0  0
  1  2  2  0  0  0  0
  2  3  1  0  0  0  0
  2 22  1  0  0  0  0
  3  4  1  0  0  0  0
  3 20  1  0  0  0  0
  3 21  1  0  0  0  0
  4  5  2  0  0  0  0
  4 13  1  0  0  0  0
  5  6  1  0  0  0  0
  5 19  1  0  0  0  0
  6  7  2  0  0  0  0
  7  8  1  0  0  0  0
  7 18  1  0  0  0  0
  8  9  2  0  0  0  0
  8 13  1  0  0  0  0
  9 10  1  0  0  0  0
  9 17  1  0  0  0  0
 10 11  2  0  0  0  0
 10 16  1  0  0  0  0
 11 12  1  0  0  0  0
 11 15  1  0  0  0  0
 12 13  2  0  0  0  0
 12 14  1  0  0  0  0
 22 23  1  0  0  0  0
 22 31  1  0  0  0  0
 23 24  1  0  0  0  0
 23 39  1  0  0  0  0
 23 40  1  0  0  0  0
 24 25  1  0  0  0  0
 24 37  1  0  0  0  0
 24 38  1  0  0  0  0
 25 26  1  0  0  0  0
 25 30  1  0  0  0  0
 25 36  1  0  0  0  0
 26 27  1  0  0  0  0
 26 28  1  0  0  0  0
 26 29  1  0  0  0  0
 30 31  1  0  0  0  0
 30 34  1  0  0  0  0
 30 35  1  0  0  0  0
 31 32  1  0  0  0  0
 31 33  1  0  0  0  0
M  END
>  <MODEL>
       1

$$$$
