tmp_first_model_7_64.pdb
 OpenBabel08272520323D

 55 60  0  0  1  0  0  0  0  0999 V2000
  -10.3620   -0.9820  -23.3770 C   0  0  0  0  0  0  0  0  0  0  0  0
   -8.9420   -1.3510  -22.9600 C   0  0  1  0  0  0  0  0  0  0  0  0
   -8.3510   -0.4220  -21.8880 C   0  0  0  0  0  0  0  0  0  0  0  0
   -7.3540   -1.2620  -21.2440 N   0  0  0  0  0  0  0  0  0  0  0  0
   -6.5430   -0.8040  -20.1860 C   0  0  0  0  0  0  0  0  0  0  0  0
   -6.8440   -1.1060  -18.8830 C   0  0  0  0  0  0  0  0  0  0  0  0
   -6.1720   -0.5910  -17.8250 N   0  0  0  0  0  0  0  0  0  0  0  0
   -5.1650    0.2110  -18.0670 C   0  0  0  0  0  0  0  0  0  0  0  0
   -4.7130    0.5570  -19.3770 C   0  0  0  0  0  0  0  0  0  0  0  0
   -3.5850    1.3860  -19.6280 C   0  0  0  0  0  0  0  0  0  0  0  0
   -3.2100    1.6710  -20.9130 C   0  0  0  0  0  0  0  0  0  0  0  0
   -3.9220    1.1400  -22.0120 C   0  0  0  0  0  0  0  0  0  0  0  0
   -5.0030    0.3200  -21.7950 C   0  0  0  0  0  0  0  0  0  0  0  0
   -5.4240    0.0310  -20.4730 C   0  0  0  0  0  0  0  0  0  0  0  0
   -5.5440   -0.1320  -22.6200 H   0  0  0  0  0  0  0  0  0  0  0  0
   -3.6160    1.3730  -23.0280 H   0  0  0  0  0  0  0  0  0  0  0  0
   -2.3540    2.3150  -21.1020 H   0  0  0  0  0  0  0  0  0  0  0  0
   -3.0350    1.7870  -18.7800 H   0  0  0  0  0  0  0  0  0  0  0  0
   -4.6470    0.6240  -17.2000 H   0  0  0  0  0  0  0  0  0  0  0  0
   -7.6660   -1.7820  -18.6510 H   0  0  0  0  0  0  0  0  0  0  0  0
   -7.5820   -2.6060  -21.4140 C   0  0  0  0  0  0  0  0  0  0  0  0
   -6.9280   -3.4790  -20.8730 O   0  0  0  0  0  0  0  0  0  0  0  0
   -8.7730   -2.7870  -22.3570 C   0  0  1  0  0  0  0  0  0  0  0  0
   -9.9890   -3.1610  -21.4680 C   0  0  0  0  0  0  0  0  0  0  0  0
  -11.1190   -3.6990  -22.2160 N   0  0  0  0  0  0  0  0  0  0  0  0
  -12.4980   -3.6200  -21.7270 C   0  0  0  0  0  0  0  0  0  0  0  0
  -13.3380   -2.5530  -22.3690 C   0  0  0  0  0  0  0  0  0  0  0  0
  -13.9240   -2.6930  -23.5950 N   0  0  0  0  0  0  0  0  0  0  0  0
  -14.6470   -1.6000  -23.6930 C   0  0  0  0  0  0  0  0  0  0  0  0
  -14.4970   -0.8340  -22.6010 N   0  0  0  0  0  0  0  0  0  0  0  0
  -13.6590   -1.4430  -21.7350 N   0  0  0  0  0  0  0  0  0  0  0  0
  -14.9570    0.0260  -22.3200 H   0  0  0  0  0  0  0  0  0  0  0  0
  -15.2770   -1.3280  -24.5240 H   0  0  0  0  0  0  0  0  0  0  0  0
  -12.5430   -3.4520  -20.6500 H   0  0  0  0  0  0  0  0  0  0  0  0
  -12.9800   -4.5740  -21.9630 H   0  0  0  0  0  0  0  0  0  0  0  0
  -10.9090   -4.6100  -23.2130 C   0  0  0  0  0  0  0  0  0  0  0  0
  -11.8190   -5.3000  -23.6300 O   0  0  0  0  0  0  0  0  0  0  0  0
   -9.5310   -4.7140  -23.7760 C   0  0  0  0  0  0  0  0  0  0  0  0
   -9.3230   -5.6890  -24.7450 C   0  0  0  0  0  0  0  0  0  0  0  0
   -8.0880   -5.8650  -25.3300 C   0  0  0  0  0  0  0  0  0  0  0  0
   -7.0510   -5.0370  -24.9160 C   0  0  0  0  0  0  0  0  0  0  0  0
   -5.8440   -5.1990  -25.4850 F   0  0  0  0  0  0  0  0  0  0  0  0
   -7.2240   -4.0590  -23.9530 C   0  0  0  0  0  0  0  0  0  0  0  0
   -8.4950   -3.8740  -23.3740 C   0  0  0  0  0  0  0  0  0  0  0  0
   -6.3540   -3.4840  -23.6490 H   0  0  0  0  0  0  0  0  0  0  0  0
   -7.9220   -6.6280  -26.0810 H   0  0  0  0  0  0  0  0  0  0  0  0
  -10.1680   -6.3090  -25.0120 H   0  0  0  0  0  0  0  0  0  0  0  0
   -9.6430   -3.8910  -20.7370 H   0  0  0  0  0  0  0  0  0  0  0  0
  -10.3010   -2.2770  -20.8980 H   0  0  0  0  0  0  0  0  0  0  0  0
   -7.9000    0.4880  -22.2970 H   0  0  0  0  0  0  0  0  0  0  0  0
   -9.1130   -0.1040  -21.1610 H   0  0  0  0  0  0  0  0  0  0  0  0
   -8.2800   -1.3180  -23.8340 H   0  0  0  0  0  0  0  0  0  0  0  0
  -11.0350   -0.9280  -22.5130 H   0  0  0  0  0  0  0  0  0  0  0  0
  -10.3910   -0.0070  -23.8700 H   0  0  0  0  0  0  0  0  0  0  0  0
  -10.7660   -1.7380  -24.0590 H   0  0  0  0  0  0  0  0  0  0  0  0
  1  2  1  0  0  0  0
  1 53  1  0  0  0  0
  1 54  1  0  0  0  0
  1 55  1  0  0  0  0
  2  3  1  0  0  0  0
  2 23  1  0  0  0  0
  2 52  1  6  0  0  0
  3  4  1  0  0  0  0
  3 50  1  0  0  0  0
  3 51  1  0  0  0  0
  4  5  1  0  0  0  0
  4 21  1  0  0  0  0
  5  6  2  0  0  0  0
  5 14  1  0  0  0  0
  6  7  1  0  0  0  0
  6 20  1  0  0  0  0
  7  8  2  0  0  0  0
  8  9  1  0  0  0  0
  8 19  1  0  0  0  0
  9 10  2  0  0  0  0
  9 14  1  0  0  0  0
 10 11  1  0  0  0  0
 10 18  1  0  0  0  0
 11 12  2  0  0  0  0
 11 17  1  0  0  0  0
 12 13  1  0  0  0  0
 12 16  1  0  0  0  0
 13 14  2  0  0  0  0
 13 15  1  0  0  0  0
 21 22  2  0  0  0  0
 23 21  1  1  0  0  0
 23 24  1  0  0  0  0
 23 44  1  0  0  0  0
 24 25  1  0  0  0  0
 24 48  1  0  0  0  0
 24 49  1  0  0  0  0
 25 26  1  0  0  0  0
 25 36  1  0  0  0  0
 26 27  1  0  0  0  0
 26 34  1  0  0  0  0
 26 35  1  0  0  0  0
 27 28  1  0  0  0  0
 27 31  2  0  0  0  0
 28 29  2  0  0  0  0
 29 30  1  0  0  0  0
 29 33  1  0  0  0  0
 30 31  1  0  0  0  0
 30 32  1  0  0  0  0
 36 37  2  0  0  0  0
 36 38  1  0  0  0  0
 38 39  2  0  0  0  0
 38 44  1  0  0  0  0
 39 40  1  0  0  0  0
 39 47  1  0  0  0  0
 40 41  2  0  0  0  0
 40 46  1  0  0  0  0
 41 42  1  0  0  0  0
 41 43  1  0  0  0  0
 43 44  2  0  0  0  0
 43 45  1  0  0  0  0
M  END
>  <MODEL>
       1

$$$$
