tmp_first_model_16_64.pdb
 OpenBabel08282501503D

 55 60  0  0  1  0  0  0  0  0999 V2000
  -10.4410   -1.0370  -23.3700 C   0  0  0  0  0  0  0  0  0  0  0  0
   -9.0120   -1.4340  -23.0020 C   0  0  1  0  0  0  0  0  0  0  0  0
   -8.3890   -0.5160  -21.9360 C   0  0  0  0  0  0  0  0  0  0  0  0
   -7.4080   -1.3760  -21.2890 N   0  0  0  0  0  0  0  0  0  0  0  0
   -6.5740   -0.9460  -20.2350 C   0  0  0  0  0  0  0  0  0  0  0  0
   -6.8670   -1.2810  -18.9380 C   0  0  0  0  0  0  0  0  0  0  0  0
   -6.1220   -0.9040  -17.8740 N   0  0  0  0  0  0  0  0  0  0  0  0
   -5.0740   -0.1490  -18.1000 C   0  0  0  0  0  0  0  0  0  0  0  0
   -4.6890    0.3110  -19.3910 C   0  0  0  0  0  0  0  0  0  0  0  0
   -3.5940    1.1920  -19.5900 C   0  0  0  0  0  0  0  0  0  0  0  0
   -3.2360    1.5700  -20.8540 C   0  0  0  0  0  0  0  0  0  0  0  0
   -3.9430    1.0800  -21.9770 C   0  0  0  0  0  0  0  0  0  0  0  0
   -5.0240    0.2500  -21.8090 C   0  0  0  0  0  0  0  0  0  0  0  0
   -5.4370   -0.1260  -20.5040 C   0  0  0  0  0  0  0  0  0  0  0  0
   -5.5740   -0.1330  -22.6630 H   0  0  0  0  0  0  0  0  0  0  0  0
   -3.6280    1.3630  -22.9770 H   0  0  0  0  0  0  0  0  0  0  0  0
   -2.3990    2.2460  -21.0080 H   0  0  0  0  0  0  0  0  0  0  0  0
   -3.0680    1.5620  -18.7130 H   0  0  0  0  0  0  0  0  0  0  0  0
   -4.4650    0.1280  -17.2370 H   0  0  0  0  0  0  0  0  0  0  0  0
   -7.7460   -1.8800  -18.7050 H   0  0  0  0  0  0  0  0  0  0  0  0
   -7.6870   -2.7180  -21.4460 C   0  0  0  0  0  0  0  0  0  0  0  0
   -7.0940   -3.6130  -20.8710 O   0  0  0  0  0  0  0  0  0  0  0  0
   -8.8470   -2.8880  -22.4300 C   0  0  1  0  0  0  0  0  0  0  0  0
  -10.0740   -3.3360  -21.6030 C   0  0  0  0  0  0  0  0  0  0  0  0
  -11.1720   -3.7970  -22.4350 N   0  0  0  0  0  0  0  0  0  0  0  0
  -12.5440   -3.6670  -21.9820 C   0  0  0  0  0  0  0  0  0  0  0  0
  -13.3470   -2.5590  -22.5980 C   0  0  0  0  0  0  0  0  0  0  0  0
  -13.8580   -2.6570  -23.8590 N   0  0  0  0  0  0  0  0  0  0  0  0
  -14.6220   -1.5880  -23.9440 C   0  0  0  0  0  0  0  0  0  0  0  0
  -14.5580   -0.8760  -22.8090 N   0  0  0  0  0  0  0  0  0  0  0  0
  -13.7470   -1.5030  -21.9200 N   0  0  0  0  0  0  0  0  0  0  0  0
  -15.1150   -0.0810  -22.5270 H   0  0  0  0  0  0  0  0  0  0  0  0
  -15.2430   -1.3270  -24.7900 H   0  0  0  0  0  0  0  0  0  0  0  0
  -12.5770   -3.5600  -20.8960 H   0  0  0  0  0  0  0  0  0  0  0  0
  -13.0400   -4.5850  -22.3020 H   0  0  0  0  0  0  0  0  0  0  0  0
  -10.9670   -4.6000  -23.5260 C   0  0  0  0  0  0  0  0  0  0  0  0
  -11.8900   -5.1290  -24.1230 O   0  0  0  0  0  0  0  0  0  0  0  0
   -9.5480   -4.7830  -23.9550 C   0  0  0  0  0  0  0  0  0  0  0  0
   -9.2620   -5.7760  -24.8920 C   0  0  0  0  0  0  0  0  0  0  0  0
   -7.9870   -5.9270  -25.4050 C   0  0  0  0  0  0  0  0  0  0  0  0
   -7.0000   -5.0540  -24.9580 C   0  0  0  0  0  0  0  0  0  0  0  0
   -5.7580   -5.1840  -25.4540 F   0  0  0  0  0  0  0  0  0  0  0  0
   -7.2420   -4.0940  -23.9930 C   0  0  0  0  0  0  0  0  0  0  0  0
   -8.5380   -3.9470  -23.4730 C   0  0  0  0  0  0  0  0  0  0  0  0
   -6.4080   -3.5140  -23.6080 H   0  0  0  0  0  0  0  0  0  0  0  0
   -7.7460   -6.7100  -26.1200 H   0  0  0  0  0  0  0  0  0  0  0  0
  -10.0670   -6.4320  -25.2050 H   0  0  0  0  0  0  0  0  0  0  0  0
   -9.7530   -4.1210  -20.9130 H   0  0  0  0  0  0  0  0  0  0  0  0
  -10.4260   -2.4980  -20.9930 H   0  0  0  0  0  0  0  0  0  0  0  0
   -7.9250    0.3780  -22.3620 H   0  0  0  0  0  0  0  0  0  0  0  0
   -9.1470   -0.1620  -21.2180 H   0  0  0  0  0  0  0  0  0  0  0  0
   -8.3760   -1.3930  -23.8960 H   0  0  0  0  0  0  0  0  0  0  0  0
  -11.0650   -0.9800  -22.4710 H   0  0  0  0  0  0  0  0  0  0  0  0
  -10.4820   -0.0600  -23.8620 H   0  0  0  0  0  0  0  0  0  0  0  0
  -10.8860   -1.7830  -24.0370 H   0  0  0  0  0  0  0  0  0  0  0  0
  1  2  1  0  0  0  0
  1 53  1  0  0  0  0
  1 54  1  0  0  0  0
  1 55  1  0  0  0  0
  2  3  1  0  0  0  0
  2 23  1  0  0  0  0
  2 52  1  6  0  0  0
  3  4  1  0  0  0  0
  3 50  1  0  0  0  0
  3 51  1  0  0  0  0
  4  5  1  0  0  0  0
  4 21  1  0  0  0  0
  5  6  2  0  0  0  0
  5 14  1  0  0  0  0
  6  7  1  0  0  0  0
  6 20  1  0  0  0  0
  7  8  2  0  0  0  0
  8  9  1  0  0  0  0
  8 19  1  0  0  0  0
  9 10  2  0  0  0  0
  9 14  1  0  0  0  0
 10 11  1  0  0  0  0
 10 18  1  0  0  0  0
 11 12  2  0  0  0  0
 11 17  1  0  0  0  0
 12 13  1  0  0  0  0
 12 16  1  0  0  0  0
 13 14  2  0  0  0  0
 13 15  1  0  0  0  0
 21 22  2  0  0  0  0
 23 21  1  1  0  0  0
 23 24  1  0  0  0  0
 23 44  1  0  0  0  0
 24 25  1  0  0  0  0
 24 48  1  0  0  0  0
 24 49  1  0  0  0  0
 25 26  1  0  0  0  0
 25 36  1  0  0  0  0
 26 27  1  0  0  0  0
 26 34  1  0  0  0  0
 26 35  1  0  0  0  0
 27 28  1  0  0  0  0
 27 31  2  0  0  0  0
 28 29  2  0  0  0  0
 29 30  1  0  0  0  0
 29 33  1  0  0  0  0
 30 31  1  0  0  0  0
 30 32  1  0  0  0  0
 36 37  2  0  0  0  0
 36 38  1  0  0  0  0
 38 39  2  0  0  0  0
 38 44  1  0  0  0  0
 39 40  1  0  0  0  0
 39 47  1  0  0  0  0
 40 41  2  0  0  0  0
 40 46  1  0  0  0  0
 41 42  1  0  0  0  0
 41 43  1  0  0  0  0
 43 44  2  0  0  0  0
 43 45  1  0  0  0  0
M  END
>  <MODEL>
       1

$$$$
