tmp_first_model_16_52.pdb
 OpenBabel08282501503D

 57 60  0  0  0  0  0  0  0  0999 V2000
   -2.4100   -6.6170  -28.2910 C   0  0  0  0  0  0  0  0  0  0  0  0
   -3.6430   -5.6940  -28.3050 C   0  0  0  0  0  0  0  0  0  0  0  0
   -4.1310   -5.3460  -26.8980 C   0  0  0  0  0  0  0  0  0  0  0  0
   -3.7310   -4.3530  -26.3140 O   0  0  0  0  0  0  0  0  0  0  0  0
   -5.0180   -6.2330  -26.3330 N   0  0  0  0  0  0  0  0  0  0  0  0
   -5.6620   -6.0210  -25.0880 C   0  0  0  0  0  0  0  0  0  0  0  0
   -5.9060   -7.1050  -24.2420 C   0  0  0  0  0  0  0  0  0  0  0  0
   -6.5570   -6.8970  -23.0340 C   0  0  0  0  0  0  0  0  0  0  0  0
   -6.9630   -5.6270  -22.6430 C   0  0  0  0  0  0  0  0  0  0  0  0
   -6.7300   -4.5420  -23.4890 C   0  0  0  0  0  0  0  0  0  0  0  0
   -7.1610   -3.2260  -23.1100 N   0  0  0  0  0  0  0  0  0  0  0  0
   -8.1520   -2.5640  -23.9480 C   0  0  0  0  0  0  0  0  0  0  0  0
   -9.5700   -2.6670  -23.4200 C   0  0  0  0  0  0  0  0  0  0  0  0
  -10.1620   -3.9200  -23.2930 C   0  0  0  0  0  0  0  0  0  0  0  0
  -11.4580   -4.0350  -22.8100 C   0  0  0  0  0  0  0  0  0  0  0  0
  -12.1820   -2.9150  -22.4160 C   0  0  0  0  0  0  0  0  0  0  0  0
  -11.6070   -1.6560  -22.5550 C   0  0  0  0  0  0  0  0  0  0  0  0
  -10.3150   -1.5400  -23.0660 C   0  0  0  0  0  0  0  0  0  0  0  0
   -9.8730   -0.5510  -23.1740 H   0  0  0  0  0  0  0  0  0  0  0  0
  -12.1640   -0.7650  -22.2690 H   0  0  0  0  0  0  0  0  0  0  0  0
  -13.1890   -3.0280  -22.0200 H   0  0  0  0  0  0  0  0  0  0  0  0
  -11.9060   -5.0150  -22.7780 H   0  0  0  0  0  0  0  0  0  0  0  0
   -9.6030   -4.8120  -23.5790 H   0  0  0  0  0  0  0  0  0  0  0  0
   -8.0780   -3.0590  -24.9230 H   0  0  0  0  0  0  0  0  0  0  0  0
   -7.8900   -1.5100  -24.0850 H   0  0  0  0  0  0  0  0  0  0  0  0
   -6.7040   -2.7260  -21.9010 C   0  0  0  0  0  0  0  0  0  0  0  0
   -5.7990   -3.2830  -21.3040 O   0  0  0  0  0  0  0  0  0  0  0  0
   -7.3960   -1.4750  -21.3080 C   0  0  0  0  0  0  0  0  0  0  0  0
   -6.5920   -0.8370  -20.2100 C   0  0  0  0  0  0  0  0  0  0  0  0
   -6.9060   -1.0750  -18.8990 C   0  0  0  0  0  0  0  0  0  0  0  0
   -6.1810   -0.6560  -17.8310 N   0  0  0  0  0  0  0  0  0  0  0  0
   -5.1100    0.0560  -18.0740 C   0  0  0  0  0  0  0  0  0  0  0  0
   -4.7070    0.4690  -19.3790 C   0  0  0  0  0  0  0  0  0  0  0  0
   -3.5990    1.3300  -19.6150 C   0  0  0  0  0  0  0  0  0  0  0  0
   -3.2050    1.6280  -20.8900 C   0  0  0  0  0  0  0  0  0  0  0  0
   -3.9070    1.0900  -21.9930 C   0  0  0  0  0  0  0  0  0  0  0  0
   -5.0020    0.2900  -21.7920 C   0  0  0  0  0  0  0  0  0  0  0  0
   -5.4490   -0.0240  -20.4810 C   0  0  0  0  0  0  0  0  0  0  0  0
   -5.5320   -0.1260  -22.6440 H   0  0  0  0  0  0  0  0  0  0  0  0
   -3.5750    1.3130  -23.0030 H   0  0  0  0  0  0  0  0  0  0  0  0
   -2.3390    2.2610  -21.0740 H   0  0  0  0  0  0  0  0  0  0  0  0
   -3.0780    1.7500  -18.7580 H   0  0  0  0  0  0  0  0  0  0  0  0
   -4.5020    0.3240  -17.2030 H   0  0  0  0  0  0  0  0  0  0  0  0
   -7.7720   -1.6800  -18.6220 H   0  0  0  0  0  0  0  0  0  0  0  0
   -7.6430   -0.7410  -22.0830 H   0  0  0  0  0  0  0  0  0  0  0  0
   -8.3560   -1.7990  -20.8810 H   0  0  0  0  0  0  0  0  0  0  0  0
   -6.0950   -4.7450  -24.7160 C   0  0  0  0  0  0  0  0  0  0  0  0
   -5.9280   -3.9090  -25.3890 H   0  0  0  0  0  0  0  0  0  0  0  0
   -7.4520   -5.4810  -21.6850 H   0  0  0  0  0  0  0  0  0  0  0  0
   -6.7260   -7.7470  -22.3800 H   0  0  0  0  0  0  0  0  0  0  0  0
   -5.5540   -8.0990  -24.5050 H   0  0  0  0  0  0  0  0  0  0  0  0
   -5.1380   -7.1360  -26.7720 H   0  0  0  0  0  0  0  0  0  0  0  0
   -4.4400   -6.1320  -28.9240 H   0  0  0  0  0  0  0  0  0  0  0  0
   -3.3780   -4.7320  -28.7510 H   0  0  0  0  0  0  0  0  0  0  0  0
   -2.0360   -6.8000  -29.3080 H   0  0  0  0  0  0  0  0  0  0  0  0
   -1.5960   -6.1590  -27.7180 H   0  0  0  0  0  0  0  0  0  0  0  0
   -2.6440   -7.5890  -27.8390 H   0  0  0  0  0  0  0  0  0  0  0  0
  1  2  1  0  0  0  0
  1 55  1  0  0  0  0
  1 56  1  0  0  0  0
  1 57  1  0  0  0  0
  2  3  1  0  0  0  0
  2 53  1  0  0  0  0
  2 54  1  0  0  0  0
  3  4  2  0  0  0  0
  3  5  1  0  0  0  0
  5  6  1  0  0  0  0
  5 52  1  0  0  0  0
  6  7  2  0  0  0  0
  6 47  1  0  0  0  0
  7  8  1  0  0  0  0
  7 51  1  0  0  0  0
  8  9  2  0  0  0  0
  8 50  1  0  0  0  0
  9 10  1  0  0  0  0
  9 49  1  0  0  0  0
 10 11  1  0  0  0  0
 10 47  2  0  0  0  0
 11 12  1  0  0  0  0
 11 26  1  0  0  0  0
 12 13  1  0  0  0  0
 12 24  1  0  0  0  0
 12 25  1  0  0  0  0
 13 14  2  0  0  0  0
 13 18  1  0  0  0  0
 14 15  1  0  0  0  0
 14 23  1  0  0  0  0
 15 16  2  0  0  0  0
 15 22  1  0  0  0  0
 16 17  1  0  0  0  0
 16 21  1  0  0  0  0
 17 18  2  0  0  0  0
 17 20  1  0  0  0  0
 18 19  1  0  0  0  0
 26 27  2  0  0  0  0
 26 28  1  0  0  0  0
 28 29  1  0  0  0  0
 28 45  1  0  0  0  0
 28 46  1  0  0  0  0
 29 30  2  0  0  0  0
 29 38  1  0  0  0  0
 30 31  1  0  0  0  0
 30 44  1  0  0  0  0
 31 32  2  0  0  0  0
 32 33  1  0  0  0  0
 32 43  1  0  0  0  0
 33 34  2  0  0  0  0
 33 38  1  0  0  0  0
 34 35  1  0  0  0  0
 34 42  1  0  0  0  0
 35 36  2  0  0  0  0
 35 41  1  0  0  0  0
 36 37  1  0  0  0  0
 36 40  1  0  0  0  0
 37 38  2  0  0  0  0
 37 39  1  0  0  0  0
 47 48  1  0  0  0  0
M  END
>  <MODEL>
       1

$$$$
