tmp_first_model_7_66.pdb
 OpenBabel08272520323D

 44 47  0  0  1  0  0  0  0  0999 V2000
   -6.4170   -0.9300  -25.8390 C   0  0  0  0  0  0  0  0  0  0  0  0
   -7.5940   -0.9850  -24.8800 C   0  0  0  0  0  0  0  0  0  0  0  0
   -7.7860   -2.3410  -24.1740 C   0  0  1  0  0  0  0  0  0  0  0  0
   -8.1560   -3.4340  -25.1570 C   0  0  0  0  0  0  0  0  0  0  0  0
   -9.3200   -3.4170  -25.9960 C   0  0  0  0  0  0  0  0  0  0  0  0
   -9.4350   -4.5440  -26.7540 C   0  0  0  0  0  0  0  0  0  0  0  0
   -8.1390   -5.6470  -26.4690 S   0  0  0  0  0  0  0  0  0  0  0  0
   -7.4410   -4.5850  -25.2930 C   0  0  0  0  0  0  0  0  0  0  0  0
   -6.2280   -4.9030  -24.4750 C   0  0  0  0  0  0  0  0  0  0  0  0
   -5.6310   -3.6040  -23.9420 C   0  0  0  0  0  0  0  0  0  0  0  0
   -6.6510   -2.7440  -23.3290 N   0  0  0  0  0  0  0  0  0  0  0  0
   -6.6580   -2.6420  -21.9470 C   0  0  0  0  0  0  0  0  0  0  0  0
   -6.0550   -3.4320  -21.2440 O   0  0  0  0  0  0  0  0  0  0  0  0
   -7.4000   -1.4590  -21.2830 C   0  0  0  0  0  0  0  0  0  0  0  0
   -6.5810   -0.8250  -20.1780 C   0  0  0  0  0  0  0  0  0  0  0  0
   -6.8720   -1.0450  -18.8550 C   0  0  0  0  0  0  0  0  0  0  0  0
   -6.1820   -0.5410  -17.7980 N   0  0  0  0  0  0  0  0  0  0  0  0
   -5.1550    0.2250  -18.0650 C   0  0  0  0  0  0  0  0  0  0  0  0
   -4.7190    0.5330  -19.3830 C   0  0  0  0  0  0  0  0  0  0  0  0
   -3.5880    1.3560  -19.6230 C   0  0  0  0  0  0  0  0  0  0  0  0
   -3.1910    1.6380  -20.9020 C   0  0  0  0  0  0  0  0  0  0  0  0
   -3.9100    1.1020  -21.9930 C   0  0  0  0  0  0  0  0  0  0  0  0
   -5.0050    0.2980  -21.7850 C   0  0  0  0  0  0  0  0  0  0  0  0
   -5.4470   -0.0050  -20.4700 C   0  0  0  0  0  0  0  0  0  0  0  0
   -5.5340   -0.1130  -22.6390 H   0  0  0  0  0  0  0  0  0  0  0  0
   -3.5900    1.3300  -23.0040 H   0  0  0  0  0  0  0  0  0  0  0  0
   -2.3340    2.2780  -21.0870 H   0  0  0  0  0  0  0  0  0  0  0  0
   -3.0540    1.7750  -18.7740 H   0  0  0  0  0  0  0  0  0  0  0  0
   -4.6000    0.6290  -17.2160 H   0  0  0  0  0  0  0  0  0  0  0  0
   -7.7210   -1.6700  -18.5830 H   0  0  0  0  0  0  0  0  0  0  0  0
   -7.7060   -0.6960  -22.0080 H   0  0  0  0  0  0  0  0  0  0  0  0
   -8.3160   -1.8670  -20.8400 H   0  0  0  0  0  0  0  0  0  0  0  0
   -5.1540   -3.0730  -24.7740 H   0  0  0  0  0  0  0  0  0  0  0  0
   -4.8620   -3.8120  -23.1980 H   0  0  0  0  0  0  0  0  0  0  0  0
   -5.4880   -5.4690  -25.0530 H   0  0  0  0  0  0  0  0  0  0  0  0
   -6.5100   -5.5390  -23.6280 H   0  0  0  0  0  0  0  0  0  0  0  0
  -10.2130   -4.7950  -27.4630 H   0  0  0  0  0  0  0  0  0  0  0  0
  -10.0450   -2.6060  -26.0110 H   0  0  0  0  0  0  0  0  0  0  0  0
   -8.6510   -2.2310  -23.5040 H   0  0  0  0  0  0  0  0  0  0  0  0
   -7.4890   -0.1980  -24.1270 H   0  0  0  0  0  0  0  0  0  0  0  0
   -8.5170   -0.7640  -25.4240 H   0  0  0  0  0  0  0  0  0  0  0  0
   -5.4670   -0.9270  -25.3000 H   0  0  0  0  0  0  0  0  0  0  0  0
   -6.4070   -1.7860  -26.5200 H   0  0  0  0  0  0  0  0  0  0  0  0
   -6.4530   -0.0210  -26.4430 H   0  0  0  0  0  0  0  0  0  0  0  0
  1  2  1  0  0  0  0
  1 42  1  0  0  0  0
  1 43  1  0  0  0  0
  1 44  1  0  0  0  0
  2  3  1  0  0  0  0
  2 40  1  0  0  0  0
  2 41  1  0  0  0  0
  3  4  1  0  0  0  0
  3 11  1  0  0  0  0
  3 39  1  1  0  0  0
  4  5  1  0  0  0  0
  4  8  2  0  0  0  0
  5  6  2  0  0  0  0
  5 38  1  0  0  0  0
  6  7  1  0  0  0  0
  6 37  1  0  0  0  0
  7  8  1  0  0  0  0
  8  9  1  0  0  0  0
  9 10  1  0  0  0  0
  9 35  1  0  0  0  0
  9 36  1  0  0  0  0
 10 11  1  0  0  0  0
 10 33  1  0  0  0  0
 10 34  1  0  0  0  0
 11 12  1  0  0  0  0
 12 13  2  0  0  0  0
 12 14  1  0  0  0  0
 14 15  1  0  0  0  0
 14 31  1  0  0  0  0
 14 32  1  0  0  0  0
 15 16  2  0  0  0  0
 15 24  1  0  0  0  0
 16 17  1  0  0  0  0
 16 30  1  0  0  0  0
 17 18  2  0  0  0  0
 18 19  1  0  0  0  0
 18 29  1  0  0  0  0
 19 20  2  0  0  0  0
 19 24  1  0  0  0  0
 20 21  1  0  0  0  0
 20 28  1  0  0  0  0
 21 22  2  0  0  0  0
 21 27  1  0  0  0  0
 22 23  1  0  0  0  0
 22 26  1  0  0  0  0
 23 24  2  0  0  0  0
 23 25  1  0  0  0  0
M  END
>  <MODEL>
       1

$$$$
