tmp_first_model_1_61.pdb
 OpenBabel08272517043D

 44 47  0  0  0  0  0  0  0  0999 V2000
   -5.8680   -3.3090  -21.2780 O   0  0  0  0  0  0  0  0  0  0  0  0
   -6.6930   -2.6840  -21.9250 C   0  0  0  0  0  0  0  0  0  0  0  0
   -7.3960   -1.4610  -21.2860 C   0  0  0  0  0  0  0  0  0  0  0  0
   -6.5780   -0.8280  -20.1840 C   0  0  0  0  0  0  0  0  0  0  0  0
   -6.8720   -1.0470  -18.8610 C   0  0  0  0  0  0  0  0  0  0  0  0
   -6.1850   -0.5490  -17.7980 N   0  0  0  0  0  0  0  0  0  0  0  0
   -5.1580    0.2230  -18.0620 C   0  0  0  0  0  0  0  0  0  0  0  0
   -4.7210    0.5340  -19.3810 C   0  0  0  0  0  0  0  0  0  0  0  0
   -3.5920    1.3610  -19.6200 C   0  0  0  0  0  0  0  0  0  0  0  0
   -3.1930    1.6380  -20.9020 C   0  0  0  0  0  0  0  0  0  0  0  0
   -3.9070    1.0970  -21.9930 C   0  0  0  0  0  0  0  0  0  0  0  0
   -5.0040    0.2960  -21.7860 C   0  0  0  0  0  0  0  0  0  0  0  0
   -5.4450   -0.0070  -20.4700 C   0  0  0  0  0  0  0  0  0  0  0  0
   -5.5360   -0.1090  -22.6400 H   0  0  0  0  0  0  0  0  0  0  0  0
   -3.5840    1.3200  -23.0050 H   0  0  0  0  0  0  0  0  0  0  0  0
   -2.3330    2.2740  -21.0900 H   0  0  0  0  0  0  0  0  0  0  0  0
   -3.0530    1.7750  -18.7720 H   0  0  0  0  0  0  0  0  0  0  0  0
   -4.6020    0.6290  -17.2150 H   0  0  0  0  0  0  0  0  0  0  0  0
   -7.7210   -1.6710  -18.5890 H   0  0  0  0  0  0  0  0  0  0  0  0
   -7.6870   -0.7000  -22.0210 H   0  0  0  0  0  0  0  0  0  0  0  0
   -8.3350   -1.8260  -20.8460 H   0  0  0  0  0  0  0  0  0  0  0  0
   -7.0440   -3.0680  -23.1940 N   0  0  0  0  0  0  0  0  0  0  0  0
   -7.7400   -2.2000  -24.1410 C   0  0  0  0  0  0  0  0  0  0  0  0
   -7.7260   -2.7790  -25.5530 C   0  0  0  0  0  0  0  0  0  0  0  0
   -8.2700   -4.2060  -25.6410 C   0  0  0  0  0  0  0  0  0  0  0  0
   -8.0280   -4.8600  -27.0290 C   0  0  0  0  0  0  0  0  0  0  0  0
   -9.5410   -4.9310  -27.2910 C   0  0  0  0  0  0  0  0  0  0  0  0
   -9.7980   -4.2900  -25.9170 C   0  0  0  0  0  0  0  0  0  0  0  0
  -10.3400   -4.9290  -25.2180 H   0  0  0  0  0  0  0  0  0  0  0  0
  -10.3020   -3.3230  -25.9490 H   0  0  0  0  0  0  0  0  0  0  0  0
   -9.8800   -4.3370  -28.1400 H   0  0  0  0  0  0  0  0  0  0  0  0
   -9.9310   -5.9440  -27.3930 H   0  0  0  0  0  0  0  0  0  0  0  0
   -7.5230   -5.8260  -26.9870 H   0  0  0  0  0  0  0  0  0  0  0  0
   -7.4790   -4.2260  -27.7270 H   0  0  0  0  0  0  0  0  0  0  0  0
   -7.8170   -5.0390  -24.4320 C   0  0  0  0  0  0  0  0  0  0  0  0
   -6.6660   -4.4040  -23.6620 C   0  0  0  0  0  0  0  0  0  0  0  0
   -5.7690   -4.3640  -24.2920 H   0  0  0  0  0  0  0  0  0  0  0  0
   -6.4070   -5.0140  -22.7980 H   0  0  0  0  0  0  0  0  0  0  0  0
   -8.6530   -5.1740  -23.7370 H   0  0  0  0  0  0  0  0  0  0  0  0
   -7.5440   -6.0500  -24.7500 H   0  0  0  0  0  0  0  0  0  0  0  0
   -8.3030   -2.1290  -26.2180 H   0  0  0  0  0  0  0  0  0  0  0  0
   -6.7080   -2.7400  -25.9610 H   0  0  0  0  0  0  0  0  0  0  0  0
   -8.7750   -2.0310  -23.8230 H   0  0  0  0  0  0  0  0  0  0  0  0
   -7.2620   -1.2140  -24.1740 H   0  0  0  0  0  0  0  0  0  0  0  0
  1  2  2  0  0  0  0
  2  3  1  0  0  0  0
  2 22  1  0  0  0  0
  3  4  1  0  0  0  0
  3 20  1  0  0  0  0
  3 21  1  0  0  0  0
  4  5  2  0  0  0  0
  4 13  1  0  0  0  0
  5  6  1  0  0  0  0
  5 19  1  0  0  0  0
  6  7  2  0  0  0  0
  7  8  1  0  0  0  0
  7 18  1  0  0  0  0
  8  9  2  0  0  0  0
  8 13  1  0  0  0  0
  9 10  1  0  0  0  0
  9 17  1  0  0  0  0
 10 11  2  0  0  0  0
 10 16  1  0  0  0  0
 11 12  1  0  0  0  0
 11 15  1  0  0  0  0
 12 13  2  0  0  0  0
 12 14  1  0  0  0  0
 22 23  1  0  0  0  0
 22 36  1  0  0  0  0
 23 24  1  0  0  0  0
 23 43  1  0  0  0  0
 23 44  1  0  0  0  0
 24 25  1  0  0  0  0
 24 41  1  0  0  0  0
 24 42  1  0  0  0  0
 25 26  1  0  0  0  0
 25 28  1  0  0  0  0
 25 35  1  0  0  0  0
 26 27  1  0  0  0  0
 26 33  1  0  0  0  0
 26 34  1  0  0  0  0
 27 28  1  0  0  0  0
 27 31  1  0  0  0  0
 27 32  1  0  0  0  0
 28 29  1  0  0  0  0
 28 30  1  0  0  0  0
 35 36  1  0  0  0  0
 35 39  1  0  0  0  0
 35 40  1  0  0  0  0
 36 37  1  0  0  0  0
 36 38  1  0  0  0  0
M  END
>  <MODEL>
       1

$$$$
