tmp_first_model_14_39.pdb
 OpenBabel08282500413D

 40 44  0  0  1  0  0  0  0  0999 V2000
   -7.2410    0.9280  -25.5990 C   0  0  0  0  0  0  0  0  0  0  0  0
   -6.5120   -0.3940  -25.4060 C   0  0  0  0  0  0  0  0  0  0  0  0
   -5.3000   -0.5080  -25.5320 O   0  0  0  0  0  0  0  0  0  0  0  0
   -7.2740   -1.4760  -25.0830 N   0  0  0  0  0  0  0  0  0  0  0  0
   -6.6400   -2.7670  -24.7370 C   0  0  0  0  0  0  0  0  0  0  0  0
   -7.8130   -3.4850  -24.0480 C   0  0  2  0  0  0  0  0  0  0  0  0
   -9.0050   -2.9600  -24.8650 C   0  0  0  0  0  0  0  0  0  0  0  0
   -8.6640   -1.4860  -24.5590 C   0  0  1  0  0  0  0  0  0  0  0  0
   -8.5700   -1.5540  -23.0900 C   0  0  0  0  0  0  0  0  0  0  0  0
   -8.1690   -0.6100  -22.0870 C   0  0  0  0  0  0  0  0  0  0  0  0
   -8.3490    0.5800  -21.9910 O   0  5  0  0  0  0  0  0  0  0  0  0
   -7.4020   -1.3880  -21.1870 N   0  0  0  0  0  0  0  0  0  0  0  0
   -6.5790   -0.8210  -20.1810 C   0  0  0  0  0  0  0  0  0  0  0  0
   -6.8970   -1.0390  -18.8680 C   0  0  0  0  0  0  0  0  0  0  0  0
   -6.2160   -0.5050  -17.8290 N   0  0  0  0  0  0  0  0  0  0  0  0
   -5.1720    0.2350  -18.0960 C   0  0  0  0  0  0  0  0  0  0  0  0
   -4.7210    0.5300  -19.4100 C   0  0  0  0  0  0  0  0  0  0  0  0
   -3.5850    1.3510  -19.6400 C   0  0  0  0  0  0  0  0  0  0  0  0
   -3.1760    1.6240  -20.9160 C   0  0  0  0  0  0  0  0  0  0  0  0
   -3.8790    1.0720  -22.0120 C   0  0  0  0  0  0  0  0  0  0  0  0
   -4.9740    0.2690  -21.8150 C   0  0  0  0  0  0  0  0  0  0  0  0
   -5.4410   -0.0100  -20.4990 C   0  0  0  0  0  0  0  0  0  0  0  0
   -5.4880   -0.1520  -22.6770 H   0  0  0  0  0  0  0  0  0  0  0  0
   -3.5600    1.2940  -23.0260 H   0  0  0  0  0  0  0  0  0  0  0  0
   -2.3210    2.2730  -21.0930 H   0  0  0  0  0  0  0  0  0  0  0  0
   -3.0710    1.7670  -18.7780 H   0  0  0  0  0  0  0  0  0  0  0  0
   -4.6250    0.6280  -17.2390 H   0  0  0  0  0  0  0  0  0  0  0  0
   -7.7370   -1.6750  -18.6040 H   0  0  0  0  0  0  0  0  0  0  0  0
   -7.2390   -2.6980  -21.6500 C   0  0  0  0  0  0  0  0  0  0  0  0
   -6.4850   -3.5300  -21.2060 O   0  0  0  0  0  0  0  0  0  0  0  0
   -8.0680   -2.7870  -22.7640 N   0  0  0  0  0  0  0  0  0  0  0  0
   -9.2820   -0.6910  -24.9850 H   0  0  0  0  0  0  0  0  0  0  0  0
   -9.9670   -3.2770  -24.4630 H   0  0  0  0  0  0  0  0  0  0  0  0
   -8.9260   -3.1970  -25.9300 H   0  0  0  0  0  0  0  0  0  0  0  0
   -7.7010   -4.5530  -23.9050 H   0  0  0  0  0  0  0  0  0  0  0  0
   -5.7910   -2.6270  -24.0590 H   0  0  0  0  0  0  0  0  0  0  0  0
   -6.2960   -3.2670  -25.6440 H   0  0  0  0  0  0  0  0  0  0  0  0
   -6.4890    1.6570  -25.9040 H   0  0  0  0  0  0  0  0  0  0  0  0
   -7.7260    1.2540  -24.6710 H   0  0  0  0  0  0  0  0  0  0  0  0
   -8.0220    0.8630  -26.3670 H   0  0  0  0  0  0  0  0  0  0  0  0
  1  2  1  0  0  0  0
  1 38  1  0  0  0  0
  1 39  1  0  0  0  0
  1 40  1  0  0  0  0
  2  3  2  0  0  0  0
  2  4  1  0  0  0  0
  4  5  1  0  0  0  0
  4  8  1  0  0  0  0
  5  6  1  0  0  0  0
  5 36  1  0  0  0  0
  5 37  1  0  0  0  0
  6  7  1  0  0  0  0
  6 31  1  0  0  0  0
  6 35  1  1  0  0  0
  7  8  1  0  0  0  0
  7 33  1  0  0  0  0
  7 34  1  0  0  0  0
  8  9  1  0  0  0  0
  8 32  1  6  0  0  0
  9 10  2  0  0  0  0
  9 31  1  0  0  0  0
 10 11  1  0  0  0  0
 10 12  1  0  0  0  0
 12 13  1  0  0  0  0
 12 29  1  0  0  0  0
 13 14  2  0  0  0  0
 13 22  1  0  0  0  0
 14 15  1  0  0  0  0
 14 28  1  0  0  0  0
 15 16  2  0  0  0  0
 16 17  1  0  0  0  0
 16 27  1  0  0  0  0
 17 18  2  0  0  0  0
 17 22  1  0  0  0  0
 18 19  1  0  0  0  0
 18 26  1  0  0  0  0
 19 20  2  0  0  0  0
 19 25  1  0  0  0  0
 20 21  1  0  0  0  0
 20 24  1  0  0  0  0
 21 22  2  0  0  0  0
 21 23  1  0  0  0  0
 29 30  2  0  0  0  0
 29 31  1  0  0  0  0
M  CHG  1  11  -1
M  END
>  <MODEL>
       1

$$$$
