tmp_first_model_19_59.pdb
 OpenBabel08282503233D

 60 65  0  0  1  0  0  0  0  0999 V2000
   -7.4220    3.4010  -21.7900 C   0  0  0  0  0  0  0  0  0  0  0  0
   -8.2590    2.9070  -22.8690 N   0  0  0  0  0  0  0  0  0  0  0  0
   -7.6840    2.2260  -23.8830 C   0  0  0  0  0  0  0  0  0  0  0  0
   -6.4720    2.1170  -24.0080 O   0  0  0  0  0  0  0  0  0  0  0  0
   -8.6450    1.6100  -24.9080 C   0  0  0  0  0  0  0  0  0  0  0  0
   -9.3700    0.4610  -24.4050 N   0  0  0  0  0  0  0  0  0  0  0  0
   -8.6550   -0.7890  -24.2340 C   0  0  0  0  0  0  0  0  0  0  0  0
   -9.0500   -1.5010  -22.9160 C   0  0  2  0  0  0  0  0  0  0  0  0
   -8.4980   -0.7210  -21.6970 C   0  0  0  0  0  0  0  0  0  0  0  0
   -8.9350    0.3100  -21.2220 O   0  0  0  0  0  0  0  0  0  0  0  0
   -7.3960   -1.3860  -21.2100 N   0  0  0  0  0  0  0  0  0  0  0  0
   -6.6010   -0.8150  -20.1810 C   0  0  0  0  0  0  0  0  0  0  0  0
   -6.9110   -1.0460  -18.8660 C   0  0  0  0  0  0  0  0  0  0  0  0
   -6.2050   -0.5600  -17.8170 N   0  0  0  0  0  0  0  0  0  0  0  0
   -5.1700    0.2010  -18.0820 C   0  0  0  0  0  0  0  0  0  0  0  0
   -4.7300    0.5250  -19.3970 C   0  0  0  0  0  0  0  0  0  0  0  0
   -3.6010    1.3540  -19.6430 C   0  0  0  0  0  0  0  0  0  0  0  0
   -3.2160    1.6470  -20.9220 C   0  0  0  0  0  0  0  0  0  0  0  0
   -3.9400    1.1250  -22.0160 C   0  0  0  0  0  0  0  0  0  0  0  0
   -5.0360    0.3220  -21.8050 C   0  0  0  0  0  0  0  0  0  0  0  0
   -5.4660    0.0020  -20.4890 C   0  0  0  0  0  0  0  0  0  0  0  0
   -5.5960   -0.0640  -22.6530 H   0  0  0  0  0  0  0  0  0  0  0  0
   -3.6490    1.3730  -23.0320 H   0  0  0  0  0  0  0  0  0  0  0  0
   -2.3630    2.3010  -21.0980 H   0  0  0  0  0  0  0  0  0  0  0  0
   -3.0720    1.7640  -18.7860 H   0  0  0  0  0  0  0  0  0  0  0  0
   -4.6260    0.6070  -17.2290 H   0  0  0  0  0  0  0  0  0  0  0  0
   -7.7670   -1.6680  -18.6120 H   0  0  0  0  0  0  0  0  0  0  0  0
   -7.0710   -2.6080  -21.9200 C   0  0  0  0  0  0  0  0  0  0  0  0
   -8.3240   -2.8750  -22.7780 C   0  0  2  0  0  0  0  0  0  0  0  0
   -7.9860   -3.6280  -24.0840 C   0  0  0  0  0  0  0  0  0  0  0  0
   -7.4490   -4.9910  -23.7920 C   0  0  0  0  0  0  0  0  0  0  0  0
   -6.1580   -5.2830  -23.7110 N   0  0  0  0  0  0  0  0  0  0  0  0
   -6.1200   -6.5730  -23.3890 N   0  0  0  0  0  0  0  0  0  0  0  0
   -7.3420   -7.0290  -23.2870 N   0  5  0  0  0  0  0  0  0  0  0  0
   -8.2040   -6.0490  -23.5360 N   0  0  0  0  0  0  0  0  0  0  0  0
   -7.2180   -3.0990  -24.6580 H   0  0  0  0  0  0  0  0  0  0  0  0
   -8.8800   -3.7580  -24.7000 H   0  0  0  0  0  0  0  0  0  0  0  0
   -8.9910   -3.5290  -22.2110 H   0  0  0  0  0  0  0  0  0  0  0  0
   -6.8570   -3.4320  -21.2280 H   0  0  0  0  0  0  0  0  0  0  0  0
   -6.1770   -2.4820  -22.5520 H   0  0  0  0  0  0  0  0  0  0  0  0
  -10.5660   -1.5430  -22.8420 C   0  0  0  0  0  0  0  0  0  0  0  0
  -11.2000   -2.4240  -21.9570 C   0  0  0  0  0  0  0  0  0  0  0  0
  -12.5790   -2.4410  -21.8670 C   0  0  0  0  0  0  0  0  0  0  0  0
  -13.3560   -3.5330  -20.7560 Cl  0  0  0  0  0  0  0  0  0  0  0  0
  -13.3670   -1.5820  -22.6340 C   0  0  0  0  0  0  0  0  0  0  0  0
  -12.7480   -0.6610  -23.4550 C   0  0  0  0  0  0  0  0  0  0  0  0
  -11.3570   -0.6130  -23.5330 C   0  0  0  0  0  0  0  0  0  0  0  0
  -10.7300    0.5260  -24.2790 C   0  0  0  0  0  0  0  0  0  0  0  0
  -11.3880    1.4690  -24.7020 O   0  0  0  0  0  0  0  0  0  0  0  0
  -13.3090    0.0650  -24.0350 H   0  0  0  0  0  0  0  0  0  0  0  0
  -14.4450   -1.6240  -22.5510 H   0  0  0  0  0  0  0  0  0  0  0  0
  -10.6250   -3.0750  -21.3090 H   0  0  0  0  0  0  0  0  0  0  0  0
   -7.5890   -0.5450  -24.2180 H   0  0  0  0  0  0  0  0  0  0  0  0
   -8.8620   -1.4710  -25.0770 H   0  0  0  0  0  0  0  0  0  0  0  0
   -8.0180    1.3400  -25.7650 H   0  0  0  0  0  0  0  0  0  0  0  0
   -9.4230    2.3150  -25.2120 H   0  0  0  0  0  0  0  0  0  0  0  0
   -9.2520    2.8270  -22.7140 H   0  0  0  0  0  0  0  0  0  0  0  0
   -6.8920    2.5690  -21.2970 H   0  0  0  0  0  0  0  0  0  0  0  0
   -6.6770    4.1110  -22.1680 H   0  0  0  0  0  0  0  0  0  0  0  0
   -8.0750    3.9220  -21.0930 H   0  0  0  0  0  0  0  0  0  0  0  0
  1  2  1  0  0  0  0
  1 58  1  0  0  0  0
  1 59  1  0  0  0  0
  1 60  1  0  0  0  0
  2  3  1  0  0  0  0
  2 57  1  0  0  0  0
  3  4  2  0  0  0  0
  3  5  1  0  0  0  0
  5  6  1  0  0  0  0
  5 55  1  0  0  0  0
  5 56  1  0  0  0  0
  6  7  1  0  0  0  0
  6 48  1  0  0  0  0
  7  8  1  0  0  0  0
  7 53  1  0  0  0  0
  7 54  1  0  0  0  0
  8  9  1  1  0  0  0
  8 29  1  0  0  0  0
  8 41  1  0  0  0  0
  9 10  2  0  0  0  0
  9 11  1  0  0  0  0
 11 12  1  0  0  0  0
 11 28  1  0  0  0  0
 12 13  2  0  0  0  0
 12 21  1  0  0  0  0
 13 14  1  0  0  0  0
 13 27  1  0  0  0  0
 14 15  2  0  0  0  0
 15 16  1  0  0  0  0
 15 26  1  0  0  0  0
 16 17  2  0  0  0  0
 16 21  1  0  0  0  0
 17 18  1  0  0  0  0
 17 25  1  0  0  0  0
 18 19  2  0  0  0  0
 18 24  1  0  0  0  0
 19 20  1  0  0  0  0
 19 23  1  0  0  0  0
 20 21  2  0  0  0  0
 20 22  1  0  0  0  0
 28 29  1  0  0  0  0
 28 39  1  0  0  0  0
 28 40  1  0  0  0  0
 29 30  1  0  0  0  0
 29 38  1  1  0  0  0
 30 31  1  0  0  0  0
 30 36  1  0  0  0  0
 30 37  1  0  0  0  0
 31 32  1  0  0  0  0
 31 35  2  0  0  0  0
 32 33  2  0  0  0  0
 33 34  1  0  0  0  0
 34 35  1  0  0  0  0
 41 42  2  0  0  0  0
 41 47  1  0  0  0  0
 42 43  1  0  0  0  0
 42 52  1  0  0  0  0
 43 44  1  0  0  0  0
 43 45  2  0  0  0  0
 45 46  1  0  0  0  0
 45 51  1  0  0  0  0
 46 47  2  0  0  0  0
 46 50  1  0  0  0  0
 47 48  1  0  0  0  0
 48 49  2  0  0  0  0
M  CHG  1  34  -1
M  END
>  <MODEL>
       1

$$$$
