tmp_first_model_3_56.pdb
 OpenBabel08272518143D

 57 62  0  0  1  0  0  0  0  0999 V2000
   -9.8370   -0.7590  -23.5780 C   0  0  0  0  0  0  0  0  0  0  0  0
   -8.5050   -1.1800  -22.9560 C   0  0  1  0  0  0  0  0  0  0  0  0
   -8.0710   -0.2670  -21.7960 C   0  0  0  0  0  0  0  0  0  0  0  0
   -7.1520   -1.1020  -21.0360 N   0  0  0  0  0  0  0  0  0  0  0  0
   -6.3420   -0.6210  -19.9790 C   0  0  0  0  0  0  0  0  0  0  0  0
   -6.6270   -0.8950  -18.6660 C   0  0  0  0  0  0  0  0  0  0  0  0
   -5.9740   -0.3320  -17.6150 N   0  0  0  0  0  0  0  0  0  0  0  0
   -4.9810    0.4860  -17.8790 C   0  0  0  0  0  0  0  0  0  0  0  0
   -4.5280    0.7870  -19.1950 C   0  0  0  0  0  0  0  0  0  0  0  0
   -3.4030    1.6160  -19.4480 C   0  0  0  0  0  0  0  0  0  0  0  0
   -2.9890    1.8470  -20.7310 C   0  0  0  0  0  0  0  0  0  0  0  0
   -3.6790    1.2700  -21.8200 C   0  0  0  0  0  0  0  0  0  0  0  0
   -4.7770    0.4780  -21.6010 C   0  0  0  0  0  0  0  0  0  0  0  0
   -5.2260    0.2200  -20.2810 C   0  0  0  0  0  0  0  0  0  0  0  0
   -5.3060    0.0280  -22.4330 H   0  0  0  0  0  0  0  0  0  0  0  0
   -3.3440    1.4580  -22.8350 H   0  0  0  0  0  0  0  0  0  0  0  0
   -2.1270    2.4800  -20.9230 H   0  0  0  0  0  0  0  0  0  0  0  0
   -2.8900    2.0650  -18.6020 H   0  0  0  0  0  0  0  0  0  0  0  0
   -4.4670    0.9370  -17.0280 H   0  0  0  0  0  0  0  0  0  0  0  0
   -7.4300   -1.5810  -18.4040 H   0  0  0  0  0  0  0  0  0  0  0  0
   -7.2900   -2.4460  -21.3020 C   0  0  0  0  0  0  0  0  0  0  0  0
   -6.6470   -3.3290  -20.7660 O   0  0  0  0  0  0  0  0  0  0  0  0
   -8.4050   -2.6270  -22.3490 C   0  0  1  0  0  0  0  0  0  0  0  0
   -9.6650   -3.0600  -21.5540 C   0  0  0  0  0  0  0  0  0  0  0  0
  -10.6830   -3.6930  -22.3780 N   0  0  0  0  0  0  0  0  0  0  0  0
  -12.0710   -3.6220  -21.9340 C   0  0  0  0  0  0  0  0  0  0  0  0
  -12.8500   -2.5910  -22.6940 C   0  0  0  0  0  0  0  0  0  0  0  0
  -13.2700   -2.9320  -23.9120 N   0  0  0  0  0  0  0  0  0  0  0  0
  -13.9140   -1.9960  -24.5990 C   0  0  0  0  0  0  0  0  0  0  0  0
  -14.0860   -0.7110  -24.1080 C   0  0  0  0  0  0  0  0  0  0  0  0
  -13.6550   -0.4900  -22.8110 C   0  0  0  0  0  0  0  0  0  0  0  0
  -12.9940   -1.4050  -22.1010 N   0  0  0  0  0  0  0  0  0  0  0  0
  -13.8260    0.4660  -22.3200 H   0  0  0  0  0  0  0  0  0  0  0  0
  -14.5160    0.0700  -24.7180 H   0  0  0  0  0  0  0  0  0  0  0  0
  -14.2770   -2.2960  -25.5770 H   0  0  0  0  0  0  0  0  0  0  0  0
  -12.5290   -4.5970  -22.0900 H   0  0  0  0  0  0  0  0  0  0  0  0
  -12.0910   -3.3520  -20.8810 H   0  0  0  0  0  0  0  0  0  0  0  0
  -10.3650   -4.6160  -23.3370 C   0  0  0  0  0  0  0  0  0  0  0  0
  -11.1690   -5.3860  -23.8200 O   0  0  0  0  0  0  0  0  0  0  0  0
   -8.9620   -4.6250  -23.8100 C   0  0  0  0  0  0  0  0  0  0  0  0
   -8.6380   -5.5970  -24.7540 C   0  0  0  0  0  0  0  0  0  0  0  0
   -7.3690   -5.6690  -25.2790 C   0  0  0  0  0  0  0  0  0  0  0  0
   -6.4310   -4.7600  -24.8050 C   0  0  0  0  0  0  0  0  0  0  0  0
   -5.1860   -4.8190  -25.3040 F   0  0  0  0  0  0  0  0  0  0  0  0
   -6.7240   -3.8040  -23.8500 C   0  0  0  0  0  0  0  0  0  0  0  0
   -8.0290   -3.7000  -23.3500 C   0  0  0  0  0  0  0  0  0  0  0  0
   -5.9220   -3.1770  -23.4750 H   0  0  0  0  0  0  0  0  0  0  0  0
   -7.1010   -6.4110  -26.0220 H   0  0  0  0  0  0  0  0  0  0  0  0
   -9.4190   -6.2890  -25.0450 H   0  0  0  0  0  0  0  0  0  0  0  0
   -9.3500   -3.7380  -20.7470 H   0  0  0  0  0  0  0  0  0  0  0  0
  -10.1200   -2.1840  -21.0750 H   0  0  0  0  0  0  0  0  0  0  0  0
   -7.5840    0.6540  -22.1300 H   0  0  0  0  0  0  0  0  0  0  0  0
   -8.9390    0.0280  -21.1800 H   0  0  0  0  0  0  0  0  0  0  0  0
   -7.7260   -1.1530  -23.7350 H   0  0  0  0  0  0  0  0  0  0  0  0
   -9.6970    0.1340  -24.1990 H   0  0  0  0  0  0  0  0  0  0  0  0
  -10.5820   -0.5220  -22.8070 H   0  0  0  0  0  0  0  0  0  0  0  0
  -10.2470   -1.5510  -24.2140 H   0  0  0  0  0  0  0  0  0  0  0  0
  1  2  1  0  0  0  0
  1 55  1  0  0  0  0
  1 56  1  0  0  0  0
  1 57  1  0  0  0  0
  2  3  1  0  0  0  0
  2 23  1  0  0  0  0
  2 54  1  6  0  0  0
  3  4  1  0  0  0  0
  3 52  1  0  0  0  0
  3 53  1  0  0  0  0
  4  5  1  0  0  0  0
  4 21  1  0  0  0  0
  5  6  2  0  0  0  0
  5 14  1  0  0  0  0
  6  7  1  0  0  0  0
  6 20  1  0  0  0  0
  7  8  2  0  0  0  0
  8  9  1  0  0  0  0
  8 19  1  0  0  0  0
  9 10  2  0  0  0  0
  9 14  1  0  0  0  0
 10 11  1  0  0  0  0
 10 18  1  0  0  0  0
 11 12  2  0  0  0  0
 11 17  1  0  0  0  0
 12 13  1  0  0  0  0
 12 16  1  0  0  0  0
 13 14  2  0  0  0  0
 13 15  1  0  0  0  0
 21 22  2  0  0  0  0
 23 21  1  1  0  0  0
 23 24  1  0  0  0  0
 23 46  1  0  0  0  0
 24 25  1  0  0  0  0
 24 50  1  0  0  0  0
 24 51  1  0  0  0  0
 25 26  1  0  0  0  0
 25 38  1  0  0  0  0
 26 27  1  0  0  0  0
 26 36  1  0  0  0  0
 26 37  1  0  0  0  0
 27 28  2  0  0  0  0
 27 32  1  0  0  0  0
 28 29  1  0  0  0  0
 29 30  2  0  0  0  0
 29 35  1  0  0  0  0
 30 31  1  0  0  0  0
 30 34  1  0  0  0  0
 31 32  2  0  0  0  0
 31 33  1  0  0  0  0
 38 39  2  0  0  0  0
 38 40  1  0  0  0  0
 40 41  2  0  0  0  0
 40 46  1  0  0  0  0
 41 42  1  0  0  0  0
 41 49  1  0  0  0  0
 42 43  2  0  0  0  0
 42 48  1  0  0  0  0
 43 44  1  0  0  0  0
 43 45  1  0  0  0  0
 45 46  2  0  0  0  0
 45 47  1  0  0  0  0
M  END
>  <MODEL>
       1

$$$$
