tmp_first_model_8_15.pdb
 OpenBabel08272521063D

 63 68  0  0  1  0  0  0  0  0999 V2000
   -7.3120    3.3030  -22.0610 C   0  0  0  0  0  0  0  0  0  0  0  0
   -8.3960    2.7240  -22.8400 N   0  0  0  0  0  0  0  0  0  0  0  0
   -8.1150    1.9560  -23.9270 C   0  0  0  0  0  0  0  0  0  0  0  0
   -6.9730    1.6940  -24.2800 O   0  0  0  0  0  0  0  0  0  0  0  0
   -9.3360    1.4480  -24.7080 C   0  0  0  0  0  0  0  0  0  0  0  0
   -9.8840    0.2240  -24.1450 N   0  0  0  0  0  0  0  0  0  0  0  0
   -9.0560   -0.9640  -24.0330 C   0  0  0  0  0  0  0  0  0  0  0  0
   -9.2830   -1.7240  -22.6900 C   0  0  2  0  0  0  0  0  0  0  0  0
   -8.7020   -0.8570  -21.5340 C   0  0  0  0  0  0  0  0  0  0  0  0
   -9.2070    0.1250  -21.0330 O   0  0  0  0  0  0  0  0  0  0  0  0
   -7.4640   -1.3600  -21.1880 N   0  0  0  0  0  0  0  0  0  0  0  0
   -6.6760   -0.7840  -20.1610 C   0  0  0  0  0  0  0  0  0  0  0  0
   -6.9710   -1.0480  -18.8460 C   0  0  0  0  0  0  0  0  0  0  0  0
   -6.2440   -0.5910  -17.7990 N   0  0  0  0  0  0  0  0  0  0  0  0
   -5.2050    0.1640  -18.0600 C   0  0  0  0  0  0  0  0  0  0  0  0
   -4.7850    0.5200  -19.3730 C   0  0  0  0  0  0  0  0  0  0  0  0
   -3.6640    1.3610  -19.6100 C   0  0  0  0  0  0  0  0  0  0  0  0
   -3.3150    1.7070  -20.8860 C   0  0  0  0  0  0  0  0  0  0  0  0
   -4.0700    1.2360  -21.9820 C   0  0  0  0  0  0  0  0  0  0  0  0
   -5.1600    0.4200  -21.7790 C   0  0  0  0  0  0  0  0  0  0  0  0
   -5.5440    0.0360  -20.4660 C   0  0  0  0  0  0  0  0  0  0  0  0
   -5.7670    0.1220  -22.6270 H   0  0  0  0  0  0  0  0  0  0  0  0
   -3.7920    1.5200  -22.9930 H   0  0  0  0  0  0  0  0  0  0  0  0
   -2.4660    2.3600  -21.0690 H   0  0  0  0  0  0  0  0  0  0  0  0
   -3.1180    1.7460  -18.7530 H   0  0  0  0  0  0  0  0  0  0  0  0
   -4.6370    0.5400  -17.2090 H   0  0  0  0  0  0  0  0  0  0  0  0
   -7.8250   -1.6740  -18.5930 H   0  0  0  0  0  0  0  0  0  0  0  0
   -7.0440   -2.4970  -21.9770 C   0  0  0  0  0  0  0  0  0  0  0  0
   -8.3750   -2.9860  -22.5740 C   0  0  2  0  0  0  0  0  0  0  0  0
   -8.1720   -3.7850  -23.8640 C   0  0  0  0  0  0  0  0  0  0  0  0
   -7.4180   -5.0070  -23.6590 N   0  0  0  0  0  0  0  0  0  0  0  0
   -6.0790   -5.1810  -23.7650 C   0  0  0  0  0  0  0  0  0  0  0  0
   -5.8180   -6.4960  -23.4430 C   0  0  0  0  0  0  0  0  0  0  0  0
   -7.0900   -7.0300  -23.1430 C   0  0  0  0  0  0  0  0  0  0  0  0
   -8.0440   -6.1190  -23.2680 N   0  0  0  0  0  0  0  0  0  0  0  0
   -7.3730   -8.0330  -22.8410 H   0  0  0  0  0  0  0  0  0  0  0  0
   -4.8670   -7.0110  -23.4480 H   0  0  0  0  0  0  0  0  0  0  0  0
   -5.4350   -4.3570  -24.0480 H   0  0  0  0  0  0  0  0  0  0  0  0
   -7.6230   -3.1840  -24.5950 H   0  0  0  0  0  0  0  0  0  0  0  0
   -9.1400   -4.0620  -24.2870 H   0  0  0  0  0  0  0  0  0  0  0  0
   -8.8340   -3.6460  -21.8340 H   0  0  0  0  0  0  0  0  0  0  0  0
   -6.5580   -3.2570  -21.3560 H   0  0  0  0  0  0  0  0  0  0  0  0
   -6.3200   -2.2050  -22.7600 H   0  0  0  0  0  0  0  0  0  0  0  0
  -10.7880   -1.9400  -22.5380 C   0  0  0  0  0  0  0  0  0  0  0  0
  -11.3430   -2.9470  -21.7330 C   0  0  0  0  0  0  0  0  0  0  0  0
  -12.7050   -2.9360  -21.4700 C   0  0  0  0  0  0  0  0  0  0  0  0
  -13.4180   -3.9730  -20.2880 Cl  0  0  0  0  0  0  0  0  0  0  0  0
  -13.5810   -2.0410  -22.0730 C   0  0  0  0  0  0  0  0  0  0  0  0
  -13.0560   -1.0910  -22.9090 C   0  0  0  0  0  0  0  0  0  0  0  0
  -11.6810   -1.0110  -23.1000 C   0  0  0  0  0  0  0  0  0  0  0  0
  -11.2140    0.1830  -23.8690 C   0  0  0  0  0  0  0  0  0  0  0  0
  -11.9870    1.0760  -24.1960 O   0  0  0  0  0  0  0  0  0  0  0  0
  -13.6790   -0.3490  -23.3910 H   0  0  0  0  0  0  0  0  0  0  0  0
  -14.6410   -2.0940  -21.8570 H   0  0  0  0  0  0  0  0  0  0  0  0
  -10.7290   -3.7290  -21.2960 H   0  0  0  0  0  0  0  0  0  0  0  0
   -8.0200   -0.6280  -24.1040 H   0  0  0  0  0  0  0  0  0  0  0  0
   -9.2670   -1.6330  -24.8780 H   0  0  0  0  0  0  0  0  0  0  0  0
  -10.1590    2.1710  -24.6930 H   0  0  0  0  0  0  0  0  0  0  0  0
   -9.0280    1.3010  -25.7500 H   0  0  0  0  0  0  0  0  0  0  0  0
   -9.2920    2.5990  -22.3800 H   0  0  0  0  0  0  0  0  0  0  0  0
   -7.7120    4.0570  -21.3720 H   0  0  0  0  0  0  0  0  0  0  0  0
   -6.6070    3.7750  -22.7520 H   0  0  0  0  0  0  0  0  0  0  0  0
   -6.7520    2.5360  -21.5080 H   0  0  0  0  0  0  0  0  0  0  0  0
  1  2  1  0  0  0  0
  1 61  1  0  0  0  0
  1 62  1  0  0  0  0
  1 63  1  0  0  0  0
  2  3  1  0  0  0  0
  2 60  1  0  0  0  0
  3  4  2  0  0  0  0
  3  5  1  0  0  0  0
  5  6  1  0  0  0  0
  5 58  1  0  0  0  0
  5 59  1  0  0  0  0
  6  7  1  0  0  0  0
  6 51  1  0  0  0  0
  7  8  1  0  0  0  0
  7 56  1  0  0  0  0
  7 57  1  0  0  0  0
  8  9  1  1  0  0  0
  8 29  1  0  0  0  0
  8 44  1  0  0  0  0
  9 10  2  0  0  0  0
  9 11  1  0  0  0  0
 11 12  1  0  0  0  0
 11 28  1  0  0  0  0
 12 13  2  0  0  0  0
 12 21  1  0  0  0  0
 13 14  1  0  0  0  0
 13 27  1  0  0  0  0
 14 15  2  0  0  0  0
 15 16  1  0  0  0  0
 15 26  1  0  0  0  0
 16 17  2  0  0  0  0
 16 21  1  0  0  0  0
 17 18  1  0  0  0  0
 17 25  1  0  0  0  0
 18 19  2  0  0  0  0
 18 24  1  0  0  0  0
 19 20  1  0  0  0  0
 19 23  1  0  0  0  0
 20 21  2  0  0  0  0
 20 22  1  0  0  0  0
 28 29  1  0  0  0  0
 28 42  1  0  0  0  0
 28 43  1  0  0  0  0
 29 30  1  0  0  0  0
 29 41  1  1  0  0  0
 30 31  1  0  0  0  0
 30 39  1  0  0  0  0
 30 40  1  0  0  0  0
 31 32  1  0  0  0  0
 31 35  1  0  0  0  0
 32 33  2  0  0  0  0
 32 38  1  0  0  0  0
 33 34  1  0  0  0  0
 33 37  1  0  0  0  0
 34 35  2  0  0  0  0
 34 36  1  0  0  0  0
 44 45  2  0  0  0  0
 44 50  1  0  0  0  0
 45 46  1  0  0  0  0
 45 55  1  0  0  0  0
 46 47  1  0  0  0  0
 46 48  2  0  0  0  0
 48 49  1  0  0  0  0
 48 54  1  0  0  0  0
 49 50  2  0  0  0  0
 49 53  1  0  0  0  0
 50 51  1  0  0  0  0
 51 52  2  0  0  0  0
M  END
>  <MODEL>
       1

$$$$
