tmp_first_model_12_32.pdb
 OpenBabel08272523333D

 57 62  0  0  1  0  0  0  0  0999 V2000
   -8.1210   -4.0480  -23.7130 C   0  0  0  0  0  0  0  0  0  0  0  0
   -8.3890   -3.1530  -22.4990 C   0  0  1  0  0  0  0  0  0  0  0  0
   -7.1080   -2.4160  -22.0510 C   0  0  0  0  0  0  0  0  0  0  0  0
   -7.5970   -1.2720  -21.3070 N   0  0  0  0  0  0  0  0  0  0  0  0
   -6.8530   -0.7060  -20.2300 C   0  0  0  0  0  0  0  0  0  0  0  0
   -7.1310   -1.0490  -18.9280 C   0  0  0  0  0  0  0  0  0  0  0  0
   -6.3910   -0.6650  -17.8550 N   0  0  0  0  0  0  0  0  0  0  0  0
   -5.3360    0.0830  -18.0700 C   0  0  0  0  0  0  0  0  0  0  0  0
   -4.9310    0.5230  -19.3620 C   0  0  0  0  0  0  0  0  0  0  0  0
   -3.7920    1.3510  -19.5530 C   0  0  0  0  0  0  0  0  0  0  0  0
   -3.4560    1.7860  -20.8040 C   0  0  0  0  0  0  0  0  0  0  0  0
   -4.2340    1.4050  -21.9200 C   0  0  0  0  0  0  0  0  0  0  0  0
   -5.3330    0.5920  -21.7610 C   0  0  0  0  0  0  0  0  0  0  0  0
   -5.7100    0.1260  -20.4780 C   0  0  0  0  0  0  0  0  0  0  0  0
   -5.9640    0.3720  -22.6200 H   0  0  0  0  0  0  0  0  0  0  0  0
   -3.9790    1.7740  -22.9090 H   0  0  0  0  0  0  0  0  0  0  0  0
   -2.6070    2.4490  -20.9480 H   0  0  0  0  0  0  0  0  0  0  0  0
   -3.2040    1.6380  -18.6830 H   0  0  0  0  0  0  0  0  0  0  0  0
   -4.7370    0.3800  -17.2040 H   0  0  0  0  0  0  0  0  0  0  0  0
   -7.9940   -1.6740  -18.7050 H   0  0  0  0  0  0  0  0  0  0  0  0
   -8.9210   -0.9890  -21.5850 C   0  0  0  0  0  0  0  0  0  0  0  0
   -9.5570   -0.1000  -21.0570 O   0  0  0  0  0  0  0  0  0  0  0  0
   -9.4380   -1.9990  -22.6740 C   0  0  1  0  0  0  0  0  0  0  0  0
   -9.3010   -1.4100  -24.1030 C   0  0  0  0  0  0  0  0  0  0  0  0
  -10.3290   -0.4490  -24.4720 N   0  0  0  0  0  0  0  0  0  0  0  0
   -9.8890    0.7400  -25.1920 C   0  0  0  0  0  0  0  0  0  0  0  0
   -9.1100    1.5940  -24.2370 C   0  0  0  0  0  0  0  0  0  0  0  0
   -7.8070    1.7680  -24.2240 N   0  0  0  0  0  0  0  0  0  0  0  0
   -7.5440    2.4390  -23.0820 N   0  0  0  0  0  0  0  0  0  0  0  0
   -8.6210    2.6550  -22.4100 N   0  0  0  0  0  0  0  0  0  0  0  0
   -9.6270    2.1340  -23.1210 N   0  0  0  0  0  0  0  0  0  0  0  0
  -10.9950    2.2650  -22.6340 C   0  0  0  0  0  0  0  0  0  0  0  0
  -11.1960    1.4530  -21.9250 H   0  0  0  0  0  0  0  0  0  0  0  0
  -11.6780    2.2450  -23.4910 H   0  0  0  0  0  0  0  0  0  0  0  0
  -11.0700    3.2330  -22.1310 H   0  0  0  0  0  0  0  0  0  0  0  0
  -10.7760    1.2300  -25.6050 H   0  0  0  0  0  0  0  0  0  0  0  0
   -9.2330    0.4520  -26.0170 H   0  0  0  0  0  0  0  0  0  0  0  0
  -11.6370   -0.5460  -24.0890 C   0  0  0  0  0  0  0  0  0  0  0  0
  -12.5320    0.1150  -24.6070 O   0  0  0  0  0  0  0  0  0  0  0  0
  -11.9090   -1.4580  -22.9430 C   0  0  0  0  0  0  0  0  0  0  0  0
  -13.1800   -1.4070  -22.3690 C   0  0  0  0  0  0  0  0  0  0  0  0
  -13.5360   -2.3470  -21.4300 C   0  0  0  0  0  0  0  0  0  0  0  0
  -12.6240   -3.3460  -21.1260 C   0  0  0  0  0  0  0  0  0  0  0  0
  -13.0070   -4.2630  -20.2240 F   0  0  0  0  0  0  0  0  0  0  0  0
  -11.3370   -3.3690  -21.6290 C   0  0  0  0  0  0  0  0  0  0  0  0
  -10.9120   -2.3230  -22.4550 C   0  0  0  0  0  0  0  0  0  0  0  0
  -10.6680   -4.1530  -21.2960 H   0  0  0  0  0  0  0  0  0  0  0  0
  -14.4970   -2.3610  -20.9320 H   0  0  0  0  0  0  0  0  0  0  0  0
  -13.8660   -0.6170  -22.6660 H   0  0  0  0  0  0  0  0  0  0  0  0
   -8.3240   -0.9200  -24.1850 H   0  0  0  0  0  0  0  0  0  0  0  0
   -9.3370   -2.2440  -24.8110 H   0  0  0  0  0  0  0  0  0  0  0  0
   -6.5380   -2.0980  -22.9390 H   0  0  0  0  0  0  0  0  0  0  0  0
   -6.4420   -3.0200  -21.4280 H   0  0  0  0  0  0  0  0  0  0  0  0
   -8.7090   -3.7820  -21.6610 H   0  0  0  0  0  0  0  0  0  0  0  0
   -7.4370   -4.8670  -23.4640 H   0  0  0  0  0  0  0  0  0  0  0  0
   -9.0350   -4.4920  -24.1250 H   0  0  0  0  0  0  0  0  0  0  0  0
   -7.6480   -3.4750  -24.5190 H   0  0  0  0  0  0  0  0  0  0  0  0
  1  2  1  0  0  0  0
  1 55  1  0  0  0  0
  1 56  1  0  0  0  0
  1 57  1  0  0  0  0
  2  3  1  0  0  0  0
  2 23  1  0  0  0  0
  2 54  1  1  0  0  0
  3  4  1  0  0  0  0
  3 52  1  0  0  0  0
  3 53  1  0  0  0  0
  4  5  1  0  0  0  0
  4 21  1  0  0  0  0
  5  6  2  0  0  0  0
  5 14  1  0  0  0  0
  6  7  1  0  0  0  0
  6 20  1  0  0  0  0
  7  8  2  0  0  0  0
  8  9  1  0  0  0  0
  8 19  1  0  0  0  0
  9 10  2  0  0  0  0
  9 14  1  0  0  0  0
 10 11  1  0  0  0  0
 10 18  1  0  0  0  0
 11 12  2  0  0  0  0
 11 17  1  0  0  0  0
 12 13  1  0  0  0  0
 12 16  1  0  0  0  0
 13 14  2  0  0  0  0
 13 15  1  0  0  0  0
 21 22  2  0  0  0  0
 23 21  1  1  0  0  0
 23 24  1  0  0  0  0
 23 46  1  0  0  0  0
 24 25  1  0  0  0  0
 24 50  1  0  0  0  0
 24 51  1  0  0  0  0
 25 26  1  0  0  0  0
 25 38  1  0  0  0  0
 26 27  1  0  0  0  0
 26 36  1  0  0  0  0
 26 37  1  0  0  0  0
 27 28  2  0  0  0  0
 27 31  1  0  0  0  0
 28 29  1  0  0  0  0
 29 30  2  0  0  0  0
 30 31  1  0  0  0  0
 31 32  1  0  0  0  0
 32 33  1  0  0  0  0
 32 34  1  0  0  0  0
 32 35  1  0  0  0  0
 38 39  2  0  0  0  0
 38 40  1  0  0  0  0
 40 41  2  0  0  0  0
 40 46  1  0  0  0  0
 41 42  1  0  0  0  0
 41 49  1  0  0  0  0
 42 43  2  0  0  0  0
 42 48  1  0  0  0  0
 43 44  1  0  0  0  0
 43 45  1  0  0  0  0
 45 46  2  0  0  0  0
 45 47  1  0  0  0  0
M  END
>  <MODEL>
       1

$$$$
