tmp_first_model_12_72.pdb
 OpenBabel08272523333D

 41 44  0  0  0  0  0  0  0  0999 V2000
   -5.5030   -2.9700  -21.4790 O   0  0  0  0  0  0  0  0  0  0  0  0
   -6.5730   -2.5830  -21.9150 C   0  0  0  0  0  0  0  0  0  0  0  0
   -7.3650   -1.4540  -21.2600 C   0  0  0  0  0  0  0  0  0  0  0  0
   -6.6130   -0.7840  -20.1640 C   0  0  0  0  0  0  0  0  0  0  0  0
   -6.8930   -1.0690  -18.8560 C   0  0  0  0  0  0  0  0  0  0  0  0
   -6.2170   -0.5830  -17.7840 N   0  0  0  0  0  0  0  0  0  0  0  0
   -5.2030    0.2100  -18.0410 C   0  0  0  0  0  0  0  0  0  0  0  0
   -4.7950    0.5830  -19.3520 C   0  0  0  0  0  0  0  0  0  0  0  0
   -3.6550    1.3920  -19.5810 C   0  0  0  0  0  0  0  0  0  0  0  0
   -3.3180    1.7770  -20.8500 C   0  0  0  0  0  0  0  0  0  0  0  0
   -4.1130    1.3830  -21.9450 C   0  0  0  0  0  0  0  0  0  0  0  0
   -5.2010    0.5580  -21.7570 C   0  0  0  0  0  0  0  0  0  0  0  0
   -5.5460    0.1150  -20.4500 C   0  0  0  0  0  0  0  0  0  0  0  0
   -5.7710    0.2150  -22.6160 H   0  0  0  0  0  0  0  0  0  0  0  0
   -3.8540    1.7190  -22.9450 H   0  0  0  0  0  0  0  0  0  0  0  0
   -2.4390    2.3940  -21.0200 H   0  0  0  0  0  0  0  0  0  0  0  0
   -3.0810    1.7190  -18.7220 H   0  0  0  0  0  0  0  0  0  0  0  0
   -4.6400    0.5890  -17.1870 H   0  0  0  0  0  0  0  0  0  0  0  0
   -7.7220   -1.7350  -18.6160 H   0  0  0  0  0  0  0  0  0  0  0  0
   -7.6200   -0.7350  -22.0460 H   0  0  0  0  0  0  0  0  0  0  0  0
   -8.3000   -1.8920  -20.8760 H   0  0  0  0  0  0  0  0  0  0  0  0
   -7.1570   -3.1150  -23.0380 N   0  0  0  0  0  0  0  0  0  0  0  0
   -8.5620   -2.9220  -23.3850 C   0  0  0  0  0  0  0  0  0  0  0  0
   -9.4820   -3.9870  -22.7870 C   0  0  0  0  0  0  0  0  0  0  0  0
   -9.1780   -5.3860  -23.3570 C   0  0  0  0  0  0  0  0  0  0  0  0
   -7.9540   -6.0420  -22.7640 C   0  0  0  0  0  0  0  0  0  0  0  0
   -7.9450   -7.5540  -21.9200 S   0  0  0  0  0  0  0  0  0  0  0  0
   -6.2240   -7.5340  -21.7960 C   0  0  0  0  0  0  0  0  0  0  0  0
   -5.6860   -6.4300  -22.3770 C   0  0  0  0  0  0  0  0  0  0  0  0
   -6.6880   -5.5610  -22.9170 C   0  0  0  0  0  0  0  0  0  0  0  0
   -6.4750   -4.2530  -23.6460 C   0  0  0  0  0  0  0  0  0  0  0  0
   -5.4170   -3.9990  -23.7230 H   0  0  0  0  0  0  0  0  0  0  0  0
   -6.8650   -4.3260  -24.6650 H   0  0  0  0  0  0  0  0  0  0  0  0
   -4.6170   -6.2360  -22.4300 H   0  0  0  0  0  0  0  0  0  0  0  0
   -5.6690   -8.3450  -21.3390 H   0  0  0  0  0  0  0  0  0  0  0  0
   -8.9800   -5.2640  -24.4340 H   0  0  0  0  0  0  0  0  0  0  0  0
  -10.0430   -6.0350  -23.3070 H   0  0  0  0  0  0  0  0  0  0  0  0
  -10.5210   -3.7260  -23.0140 H   0  0  0  0  0  0  0  0  0  0  0  0
   -9.4030   -3.9880  -21.6950 H   0  0  0  0  0  0  0  0  0  0  0  0
   -8.6350   -2.9740  -24.4790 H   0  0  0  0  0  0  0  0  0  0  0  0
   -8.8870   -1.9130  -23.0980 H   0  0  0  0  0  0  0  0  0  0  0  0
  1  2  2  0  0  0  0
  2  3  1  0  0  0  0
  2 22  1  0  0  0  0
  3  4  1  0  0  0  0
  3 20  1  0  0  0  0
  3 21  1  0  0  0  0
  4  5  2  0  0  0  0
  4 13  1  0  0  0  0
  5  6  1  0  0  0  0
  5 19  1  0  0  0  0
  6  7  2  0  0  0  0
  7  8  1  0  0  0  0
  7 18  1  0  0  0  0
  8  9  2  0  0  0  0
  8 13  1  0  0  0  0
  9 10  1  0  0  0  0
  9 17  1  0  0  0  0
 10 11  2  0  0  0  0
 10 16  1  0  0  0  0
 11 12  1  0  0  0  0
 11 15  1  0  0  0  0
 12 13  2  0  0  0  0
 12 14  1  0  0  0  0
 22 23  1  0  0  0  0
 22 31  1  0  0  0  0
 23 24  1  0  0  0  0
 23 40  1  0  0  0  0
 23 41  1  0  0  0  0
 24 25  1  0  0  0  0
 24 38  1  0  0  0  0
 24 39  1  0  0  0  0
 25 26  1  0  0  0  0
 25 36  1  0  0  0  0
 25 37  1  0  0  0  0
 26 27  1  0  0  0  0
 26 30  2  0  0  0  0
 27 28  1  0  0  0  0
 28 29  2  0  0  0  0
 28 35  1  0  0  0  0
 29 30  1  0  0  0  0
 29 34  1  0  0  0  0
 30 31  1  0  0  0  0
 31 32  1  0  0  0  0
 31 33  1  0  0  0  0
M  END
>  <MODEL>
       1

$$$$
