tmp_first_model_14_49.pdb
 OpenBabel08282500413D

 67 72  0  0  1  0  0  0  0  0999 V2000
   -7.7620   -6.0350  -26.7660 C   0  0  0  0  0  0  0  0  0  0  0  0
   -8.0710   -4.6340  -26.9890 N   0  0  0  0  0  0  0  0  0  0  0  0
   -7.1290   -3.7000  -26.7220 C   0  0  0  0  0  0  0  0  0  0  0  0
   -6.0040   -4.0030  -26.3480 O   0  0  0  0  0  0  0  0  0  0  0  0
   -7.5840   -2.2400  -26.8570 C   0  0  0  0  0  0  0  0  0  0  0  0
   -8.4410   -1.8450  -25.7450 N   0  0  0  0  0  0  0  0  0  0  0  0
   -7.8710   -1.2800  -24.5200 C   0  0  0  0  0  0  0  0  0  0  0  0
   -8.7290   -1.5330  -23.2360 C   0  0  2  0  0  0  0  0  0  0  0  0
   -8.1820   -0.5810  -22.1590 C   0  0  0  0  0  0  0  0  0  0  0  0
   -8.3280    0.6190  -22.0830 O   0  0  0  0  0  0  0  0  0  0  0  0
   -7.3820   -1.3170  -21.3060 N   0  0  0  0  0  0  0  0  0  0  0  0
   -6.6120   -0.7460  -20.2680 C   0  0  0  0  0  0  0  0  0  0  0  0
   -6.9320   -1.0030  -18.9600 C   0  0  0  0  0  0  0  0  0  0  0  0
   -6.2680   -0.4980  -17.8940 N   0  0  0  0  0  0  0  0  0  0  0  0
   -5.2190    0.2480  -18.1380 C   0  0  0  0  0  0  0  0  0  0  0  0
   -4.7460    0.5510  -19.4450 C   0  0  0  0  0  0  0  0  0  0  0  0
   -3.5970    1.3580  -19.6530 C   0  0  0  0  0  0  0  0  0  0  0  0
   -3.1600    1.6250  -20.9200 C   0  0  0  0  0  0  0  0  0  0  0  0
   -3.8420    1.0890  -22.0370 C   0  0  0  0  0  0  0  0  0  0  0  0
   -4.9540    0.3050  -21.8630 C   0  0  0  0  0  0  0  0  0  0  0  0
   -5.4490    0.0350  -20.5550 C   0  0  0  0  0  0  0  0  0  0  0  0
   -5.4710   -0.1080  -22.7260 H   0  0  0  0  0  0  0  0  0  0  0  0
   -3.4860    1.3070  -23.0390 H   0  0  0  0  0  0  0  0  0  0  0  0
   -2.2910    2.2570  -21.0780 H   0  0  0  0  0  0  0  0  0  0  0  0
   -3.0850    1.7590  -18.7820 H   0  0  0  0  0  0  0  0  0  0  0  0
   -4.6860    0.6490  -17.2760 H   0  0  0  0  0  0  0  0  0  0  0  0
   -7.7870   -1.6390  -18.7300 H   0  0  0  0  0  0  0  0  0  0  0  0
   -7.3400   -2.7340  -21.5810 C   0  0  0  0  0  0  0  0  0  0  0  0
   -8.5010   -2.9190  -22.5520 C   0  0  2  0  0  0  0  0  0  0  0  0
   -8.3280   -4.0900  -23.5100 C   0  0  0  0  0  0  0  0  0  0  0  0
   -8.2840   -5.3490  -22.8190 N   0  0  0  0  0  0  0  0  0  0  0  0
   -7.1450   -6.0480  -22.5380 C   0  0  0  0  0  0  0  0  0  0  0  0
   -6.9580   -7.0840  -21.6700 C   0  0  0  0  0  0  0  0  0  0  0  0
   -5.7000   -7.6380  -21.6330 N   0  0  0  0  0  0  0  0  0  0  0  0
   -4.9080   -7.0370  -22.4610 C   0  0  0  0  0  0  0  0  0  0  0  0
   -3.4710   -7.3730  -22.6780 C   0  0  0  0  0  0  0  0  0  0  0  0
   -3.2660   -7.6340  -23.7220 H   0  0  0  0  0  0  0  0  0  0  0  0
   -3.2120   -8.2240  -22.0500 H   0  0  0  0  0  0  0  0  0  0  0  0
   -2.8390   -6.5270  -22.3980 H   0  0  0  0  0  0  0  0  0  0  0  0
   -5.6450   -5.7170  -23.3510 S   0  0  0  0  0  0  0  0  0  0  0  0
   -7.7210   -7.4660  -21.0120 H   0  0  0  0  0  0  0  0  0  0  0  0
   -9.1560   -5.7130  -22.4770 H   0  0  0  0  0  0  0  0  0  0  0  0
   -7.4050   -3.9590  -24.0820 H   0  0  0  0  0  0  0  0  0  0  0  0
   -9.1850   -4.0950  -24.1900 H   0  0  0  0  0  0  0  0  0  0  0  0
   -9.3960   -3.1050  -21.9410 H   0  0  0  0  0  0  0  0  0  0  0  0
   -6.3790   -3.0560  -22.0080 H   0  0  0  0  0  0  0  0  0  0  0  0
   -7.4730   -3.2830  -20.6510 H   0  0  0  0  0  0  0  0  0  0  0  0
  -10.1990   -1.3450  -23.5470 C   0  0  0  0  0  0  0  0  0  0  0  0
  -11.1560   -1.2020  -22.5250 C   0  0  0  0  0  0  0  0  0  0  0  0
  -12.5090   -1.2200  -22.8340 C   0  0  0  0  0  0  0  0  0  0  0  0
  -13.7070   -1.3420  -21.5800 Cl  0  0  0  0  0  0  0  0  0  0  0  0
  -12.9550   -1.2490  -24.1540 C   0  0  0  0  0  0  0  0  0  0  0  0
  -12.0200   -1.4180  -25.1540 C   0  0  0  0  0  0  0  0  0  0  0  0
  -10.6670   -1.5160  -24.8520 C   0  0  0  0  0  0  0  0  0  0  0  0
   -9.7800   -1.9330  -25.9680 C   0  0  0  0  0  0  0  0  0  0  0  0
  -10.2400   -2.3790  -27.0200 O   0  0  0  0  0  0  0  0  0  0  0  0
  -12.2910   -1.5340  -26.1980 H   0  0  0  0  0  0  0  0  0  0  0  0
  -14.0170   -1.1850  -24.3670 H   0  0  0  0  0  0  0  0  0  0  0  0
  -10.8780   -1.0780  -21.4840 H   0  0  0  0  0  0  0  0  0  0  0  0
   -7.7440   -0.1950  -24.6330 H   0  0  0  0  0  0  0  0  0  0  0  0
   -6.8670   -1.7050  -24.3780 H   0  0  0  0  0  0  0  0  0  0  0  0
   -6.7030   -1.6000  -26.9030 H   0  0  0  0  0  0  0  0  0  0  0  0
   -8.1730   -2.1180  -27.7730 H   0  0  0  0  0  0  0  0  0  0  0  0
   -9.0070   -4.3360  -27.2260 H   0  0  0  0  0  0  0  0  0  0  0  0
   -6.9350   -6.3470  -27.4130 H   0  0  0  0  0  0  0  0  0  0  0  0
   -7.4580   -6.2030  -25.7230 H   0  0  0  0  0  0  0  0  0  0  0  0
   -8.6440   -6.6370  -26.9970 H   0  0  0  0  0  0  0  0  0  0  0  0
  1  2  1  0  0  0  0
  1 65  1  0  0  0  0
  1 66  1  0  0  0  0
  1 67  1  0  0  0  0
  2  3  1  0  0  0  0
  2 64  1  0  0  0  0
  3  4  2  0  0  0  0
  3  5  1  0  0  0  0
  5  6  1  0  0  0  0
  5 62  1  0  0  0  0
  5 63  1  0  0  0  0
  6  7  1  0  0  0  0
  6 55  1  0  0  0  0
  7  8  1  0  0  0  0
  7 60  1  0  0  0  0
  7 61  1  0  0  0  0
  8  9  1  1  0  0  0
  8 29  1  0  0  0  0
  8 48  1  0  0  0  0
  9 10  2  0  0  0  0
  9 11  1  0  0  0  0
 11 12  1  0  0  0  0
 11 28  1  0  0  0  0
 12 13  2  0  0  0  0
 12 21  1  0  0  0  0
 13 14  1  0  0  0  0
 13 27  1  0  0  0  0
 14 15  2  0  0  0  0
 15 16  1  0  0  0  0
 15 26  1  0  0  0  0
 16 17  2  0  0  0  0
 16 21  1  0  0  0  0
 17 18  1  0  0  0  0
 17 25  1  0  0  0  0
 18 19  2  0  0  0  0
 18 24  1  0  0  0  0
 19 20  1  0  0  0  0
 19 23  1  0  0  0  0
 20 21  2  0  0  0  0
 20 22  1  0  0  0  0
 28 29  1  0  0  0  0
 28 46  1  0  0  0  0
 28 47  1  0  0  0  0
 29 30  1  0  0  0  0
 29 45  1  1  0  0  0
 30 31  1  0  0  0  0
 30 43  1  0  0  0  0
 30 44  1  0  0  0  0
 31 32  1  0  0  0  0
 31 42  1  0  0  0  0
 32 33  2  0  0  0  0
 32 40  1  0  0  0  0
 33 34  1  0  0  0  0
 33 41  1  0  0  0  0
 34 35  2  0  0  0  0
 35 36  1  0  0  0  0
 35 40  1  0  0  0  0
 36 37  1  0  0  0  0
 36 38  1  0  0  0  0
 36 39  1  0  0  0  0
 48 49  2  0  0  0  0
 48 54  1  0  0  0  0
 49 50  1  0  0  0  0
 49 59  1  0  0  0  0
 50 51  1  0  0  0  0
 50 52  2  0  0  0  0
 52 53  1  0  0  0  0
 52 58  1  0  0  0  0
 53 54  2  0  0  0  0
 53 57  1  0  0  0  0
 54 55  1  0  0  0  0
 55 56  2  0  0  0  0
M  END
>  <MODEL>
       1

$$$$
