tmp_first_model_6_7.pdb
 OpenBabel08272519583D

 44 47  0  0  0  0  0  0  0  0999 V2000
   -8.8900   -7.8950  -23.5680 C   0  0  0  0  0  0  0  0  0  0  0  0
   -8.9380   -7.3030  -24.9690 C   0  0  0  0  0  0  0  0  0  0  0  0
   -9.2830   -5.5480  -24.9840 S   0  0  0  0  0  0  0  0  0  0  0  0
  -10.5030   -5.3530  -24.2060 O   0  0  0  0  0  0  0  0  0  0  0  0
   -9.2030   -5.0900  -26.3560 O   0  0  0  0  0  0  0  0  0  0  0  0
   -7.9900   -4.8040  -24.1700 N   0  0  0  0  0  0  0  0  0  0  0  0
   -7.9860   -3.3010  -24.2800 C   0  0  0  0  0  0  0  0  0  0  0  0
   -8.0700   -3.1830  -22.7350 C   0  0  0  0  0  0  0  0  0  0  0  0
   -8.0860   -4.7230  -22.6890 C   0  0  0  0  0  0  0  0  0  0  0  0
   -7.1840   -5.1290  -22.2340 H   0  0  0  0  0  0  0  0  0  0  0  0
   -8.9860   -5.1660  -22.2540 H   0  0  0  0  0  0  0  0  0  0  0  0
   -6.8690   -2.5430  -22.0510 C   0  0  0  0  0  0  0  0  0  0  0  0
   -5.7090   -2.8310  -22.2130 O   0  0  0  0  0  0  0  0  0  0  0  0
   -7.3660   -1.5390  -21.2170 N   0  0  0  0  0  0  0  0  0  0  0  0
   -6.6010   -0.8670  -20.2020 C   0  0  0  0  0  0  0  0  0  0  0  0
   -6.9120   -1.0680  -18.8790 C   0  0  0  0  0  0  0  0  0  0  0  0
   -6.2160   -0.5560  -17.8320 N   0  0  0  0  0  0  0  0  0  0  0  0
   -5.1820    0.2030  -18.0970 C   0  0  0  0  0  0  0  0  0  0  0  0
   -4.7550    0.5270  -19.4120 C   0  0  0  0  0  0  0  0  0  0  0  0
   -3.6230    1.3640  -19.6330 C   0  0  0  0  0  0  0  0  0  0  0  0
   -3.2410    1.6850  -20.9050 C   0  0  0  0  0  0  0  0  0  0  0  0
   -3.9880    1.1950  -21.9970 C   0  0  0  0  0  0  0  0  0  0  0  0
   -5.0760    0.3750  -21.8090 C   0  0  0  0  0  0  0  0  0  0  0  0
   -5.4890   -0.0010  -20.5020 C   0  0  0  0  0  0  0  0  0  0  0  0
   -5.5970   -0.0350  -22.6660 H   0  0  0  0  0  0  0  0  0  0  0  0
   -3.6640    1.4180  -23.0080 H   0  0  0  0  0  0  0  0  0  0  0  0
   -2.3680    2.3080  -21.0850 H   0  0  0  0  0  0  0  0  0  0  0  0
   -3.0810    1.7470  -18.7710 H   0  0  0  0  0  0  0  0  0  0  0  0
   -4.6310    0.6060  -17.2450 H   0  0  0  0  0  0  0  0  0  0  0  0
   -7.7600   -1.6880  -18.6020 H   0  0  0  0  0  0  0  0  0  0  0  0
   -8.7590   -1.3850  -21.4090 C   0  0  0  0  0  0  0  0  0  0  0  0
   -9.4390   -0.4610  -21.0170 O   0  0  0  0  0  0  0  0  0  0  0  0
   -9.1700   -2.4510  -22.1700 N   0  0  0  0  0  0  0  0  0  0  0  0
  -10.5640   -2.7690  -22.4130 C   0  0  0  0  0  0  0  0  0  0  0  0
  -11.1430   -1.9720  -21.9460 H   0  0  0  0  0  0  0  0  0  0  0  0
  -10.8390   -3.7360  -21.9680 H   0  0  0  0  0  0  0  0  0  0  0  0
  -10.7740   -2.8030  -23.4870 H   0  0  0  0  0  0  0  0  0  0  0  0
   -8.8370   -2.8810  -24.8290 H   0  0  0  0  0  0  0  0  0  0  0  0
   -7.0570   -2.9340  -24.7160 H   0  0  0  0  0  0  0  0  0  0  0  0
   -9.7670   -7.7220  -25.5560 H   0  0  0  0  0  0  0  0  0  0  0  0
   -8.0140   -7.4390  -25.5370 H   0  0  0  0  0  0  0  0  0  0  0  0
   -8.7950   -8.9800  -23.6420 H   0  0  0  0  0  0  0  0  0  0  0  0
   -9.8060   -7.6630  -23.0200 H   0  0  0  0  0  0  0  0  0  0  0  0
   -8.0320   -7.5170  -23.0020 H   0  0  0  0  0  0  0  0  0  0  0  0
  1  2  1  0  0  0  0
  1 42  1  0  0  0  0
  1 43  1  0  0  0  0
  1 44  1  0  0  0  0
  2  3  1  0  0  0  0
  2 40  1  0  0  0  0
  2 41  1  0  0  0  0
  3  4  2  0  0  0  0
  3  5  2  0  0  0  0
  3  6  1  0  0  0  0
  6  7  1  0  0  0  0
  6  9  1  0  0  0  0
  7  8  1  0  0  0  0
  7 38  1  0  0  0  0
  7 39  1  0  0  0  0
  8  9  1  0  0  0  0
  8 12  1  0  0  0  0
  8 33  1  0  0  0  0
  9 10  1  0  0  0  0
  9 11  1  0  0  0  0
 12 13  2  0  0  0  0
 12 14  1  0  0  0  0
 14 15  1  0  0  0  0
 14 31  1  0  0  0  0
 15 16  2  0  0  0  0
 15 24  1  0  0  0  0
 16 17  1  0  0  0  0
 16 30  1  0  0  0  0
 17 18  2  0  0  0  0
 18 19  1  0  0  0  0
 18 29  1  0  0  0  0
 19 20  2  0  0  0  0
 19 24  1  0  0  0  0
 20 21  1  0  0  0  0
 20 28  1  0  0  0  0
 21 22  2  0  0  0  0
 21 27  1  0  0  0  0
 22 23  1  0  0  0  0
 22 26  1  0  0  0  0
 23 24  2  0  0  0  0
 23 25  1  0  0  0  0
 31 32  2  0  0  0  0
 31 33  1  0  0  0  0
 33 34  1  0  0  0  0
 34 35  1  0  0  0  0
 34 36  1  0  0  0  0
 34 37  1  0  0  0  0
M  END
>  <MODEL>
       1

$$$$
