tmp_first_model_15_32.pdb
 OpenBabel08282501153D

 57 62  0  0  1  0  0  0  0  0999 V2000
   -8.1030   -4.0800  -23.7650 C   0  0  0  0  0  0  0  0  0  0  0  0
   -8.3370   -3.2120  -22.5260 C   0  0  1  0  0  0  0  0  0  0  0  0
   -7.0560   -2.4760  -22.0910 C   0  0  0  0  0  0  0  0  0  0  0  0
   -7.5330   -1.3280  -21.3410 N   0  0  0  0  0  0  0  0  0  0  0  0
   -6.7890   -0.7720  -20.2630 C   0  0  0  0  0  0  0  0  0  0  0  0
   -7.1440   -1.0120  -18.9540 C   0  0  0  0  0  0  0  0  0  0  0  0
   -6.4330   -0.5850  -17.8780 N   0  0  0  0  0  0  0  0  0  0  0  0
   -5.3490    0.1230  -18.0940 C   0  0  0  0  0  0  0  0  0  0  0  0
   -4.8690    0.4570  -19.3940 C   0  0  0  0  0  0  0  0  0  0  0  0
   -3.7190    1.2690  -19.5990 C   0  0  0  0  0  0  0  0  0  0  0  0
   -3.2690    1.5290  -20.8650 C   0  0  0  0  0  0  0  0  0  0  0  0
   -3.9250    0.9670  -21.9830 C   0  0  0  0  0  0  0  0  0  0  0  0
   -5.0450    0.1910  -21.8100 C   0  0  0  0  0  0  0  0  0  0  0  0
   -5.5750   -0.0460  -20.5130 C   0  0  0  0  0  0  0  0  0  0  0  0
   -5.5380   -0.2470  -22.6740 H   0  0  0  0  0  0  0  0  0  0  0  0
   -3.5450    1.1470  -22.9840 H   0  0  0  0  0  0  0  0  0  0  0  0
   -2.4050    2.1700  -21.0240 H   0  0  0  0  0  0  0  0  0  0  0  0
   -3.2090    1.6830  -18.7320 H   0  0  0  0  0  0  0  0  0  0  0  0
   -4.7780    0.4540  -17.2220 H   0  0  0  0  0  0  0  0  0  0  0  0
   -8.0310   -1.5980  -18.7170 H   0  0  0  0  0  0  0  0  0  0  0  0
   -8.8700   -1.0670  -21.5770 C   0  0  0  0  0  0  0  0  0  0  0  0
   -9.5030   -0.1980  -21.0160 O   0  0  0  0  0  0  0  0  0  0  0  0
   -9.3940   -2.0680  -22.6650 C   0  0  1  0  0  0  0  0  0  0  0  0
   -9.2930   -1.4350  -24.0770 C   0  0  0  0  0  0  0  0  0  0  0  0
  -10.3390   -0.4680  -24.3800 N   0  0  0  0  0  0  0  0  0  0  0  0
   -9.9250    0.7330  -25.0930 C   0  0  0  0  0  0  0  0  0  0  0  0
   -9.1280    1.5790  -24.1510 C   0  0  0  0  0  0  0  0  0  0  0  0
   -7.8170    1.7050  -24.1370 N   0  0  0  0  0  0  0  0  0  0  0  0
   -7.5210    2.3660  -23.0000 N   0  0  0  0  0  0  0  0  0  0  0  0
   -8.5910    2.6310  -22.3360 N   0  0  0  0  0  0  0  0  0  0  0  0
   -9.6250    2.1510  -23.0440 N   0  0  0  0  0  0  0  0  0  0  0  0
  -10.9750    2.3470  -22.5260 C   0  0  0  0  0  0  0  0  0  0  0  0
  -11.1140    1.7000  -21.6560 H   0  0  0  0  0  0  0  0  0  0  0  0
  -11.7050    2.1000  -23.3040 H   0  0  0  0  0  0  0  0  0  0  0  0
  -11.0690    3.3960  -22.2260 H   0  0  0  0  0  0  0  0  0  0  0  0
  -10.8270    1.2180  -25.4800 H   0  0  0  0  0  0  0  0  0  0  0  0
   -9.2800    0.4670  -25.9330 H   0  0  0  0  0  0  0  0  0  0  0  0
  -11.6350   -0.5920  -23.9780 C   0  0  0  0  0  0  0  0  0  0  0  0
  -12.5380    0.1210  -24.4090 O   0  0  0  0  0  0  0  0  0  0  0  0
  -11.8890   -1.6480  -22.9530 C   0  0  0  0  0  0  0  0  0  0  0  0
  -13.2090   -1.7980  -22.5260 C   0  0  0  0  0  0  0  0  0  0  0  0
  -13.5370   -2.7740  -21.6110 C   0  0  0  0  0  0  0  0  0  0  0  0
  -12.5320   -3.6300  -21.1970 C   0  0  0  0  0  0  0  0  0  0  0  0
  -12.8370   -4.5540  -20.2710 F   0  0  0  0  0  0  0  0  0  0  0  0
  -11.2170   -3.5070  -21.6010 C   0  0  0  0  0  0  0  0  0  0  0  0
  -10.8480   -2.4450  -22.4360 C   0  0  0  0  0  0  0  0  0  0  0  0
  -10.5000   -4.1860  -21.1600 H   0  0  0  0  0  0  0  0  0  0  0  0
  -14.5350   -2.9220  -21.2150 H   0  0  0  0  0  0  0  0  0  0  0  0
  -13.9590   -1.1110  -22.9040 H   0  0  0  0  0  0  0  0  0  0  0  0
   -8.3260   -0.9230  -24.1620 H   0  0  0  0  0  0  0  0  0  0  0  0
   -9.3470   -2.2390  -24.8190 H   0  0  0  0  0  0  0  0  0  0  0  0
   -6.5010   -2.1720  -22.9890 H   0  0  0  0  0  0  0  0  0  0  0  0
   -6.3800   -3.0690  -21.4710 H   0  0  0  0  0  0  0  0  0  0  0  0
   -8.6430   -3.8510  -21.6930 H   0  0  0  0  0  0  0  0  0  0  0  0
   -7.4170   -4.9070  -23.5610 H   0  0  0  0  0  0  0  0  0  0  0  0
   -9.0290   -4.5070  -24.1650 H   0  0  0  0  0  0  0  0  0  0  0  0
   -7.6510   -3.4860  -24.5670 H   0  0  0  0  0  0  0  0  0  0  0  0
  1  2  1  0  0  0  0
  1 55  1  0  0  0  0
  1 56  1  0  0  0  0
  1 57  1  0  0  0  0
  2  3  1  0  0  0  0
  2 23  1  0  0  0  0
  2 54  1  1  0  0  0
  3  4  1  0  0  0  0
  3 52  1  0  0  0  0
  3 53  1  0  0  0  0
  4  5  1  0  0  0  0
  4 21  1  0  0  0  0
  5  6  2  0  0  0  0
  5 14  1  0  0  0  0
  6  7  1  0  0  0  0
  6 20  1  0  0  0  0
  7  8  2  0  0  0  0
  8  9  1  0  0  0  0
  8 19  1  0  0  0  0
  9 10  2  0  0  0  0
  9 14  1  0  0  0  0
 10 11  1  0  0  0  0
 10 18  1  0  0  0  0
 11 12  2  0  0  0  0
 11 17  1  0  0  0  0
 12 13  1  0  0  0  0
 12 16  1  0  0  0  0
 13 14  2  0  0  0  0
 13 15  1  0  0  0  0
 21 22  2  0  0  0  0
 23 21  1  1  0  0  0
 23 24  1  0  0  0  0
 23 46  1  0  0  0  0
 24 25  1  0  0  0  0
 24 50  1  0  0  0  0
 24 51  1  0  0  0  0
 25 26  1  0  0  0  0
 25 38  1  0  0  0  0
 26 27  1  0  0  0  0
 26 36  1  0  0  0  0
 26 37  1  0  0  0  0
 27 28  2  0  0  0  0
 27 31  1  0  0  0  0
 28 29  1  0  0  0  0
 29 30  2  0  0  0  0
 30 31  1  0  0  0  0
 31 32  1  0  0  0  0
 32 33  1  0  0  0  0
 32 34  1  0  0  0  0
 32 35  1  0  0  0  0
 38 39  2  0  0  0  0
 38 40  1  0  0  0  0
 40 41  2  0  0  0  0
 40 46  1  0  0  0  0
 41 42  1  0  0  0  0
 41 49  1  0  0  0  0
 42 43  2  0  0  0  0
 42 48  1  0  0  0  0
 43 44  1  0  0  0  0
 43 45  1  0  0  0  0
 45 46  2  0  0  0  0
 45 47  1  0  0  0  0
M  END
>  <MODEL>
       1

$$$$
