tmp_first_model_3_65.pdb
 OpenBabel08272518143D

 55 60  0  0  1  0  0  0  0  0999 V2000
   -9.9850   -0.9090  -23.5280 C   0  0  0  0  0  0  0  0  0  0  0  0
   -8.6110   -1.2370  -22.9480 C   0  0  1  0  0  0  0  0  0  0  0  0
   -8.1770   -0.3110  -21.7960 C   0  0  0  0  0  0  0  0  0  0  0  0
   -7.2240   -1.1230  -21.0500 N   0  0  0  0  0  0  0  0  0  0  0  0
   -6.4010   -0.6260  -20.0040 C   0  0  0  0  0  0  0  0  0  0  0  0
   -6.6740   -0.9050  -18.6890 C   0  0  0  0  0  0  0  0  0  0  0  0
   -6.0120   -0.3510  -17.6370 N   0  0  0  0  0  0  0  0  0  0  0  0
   -5.0170    0.4620  -17.9000 C   0  0  0  0  0  0  0  0  0  0  0  0
   -4.5690    0.7700  -19.2170 C   0  0  0  0  0  0  0  0  0  0  0  0
   -3.4370    1.5890  -19.4690 C   0  0  0  0  0  0  0  0  0  0  0  0
   -3.0220    1.8180  -20.7510 C   0  0  0  0  0  0  0  0  0  0  0  0
   -3.7200    1.2530  -21.8420 C   0  0  0  0  0  0  0  0  0  0  0  0
   -4.8270    0.4730  -21.6260 C   0  0  0  0  0  0  0  0  0  0  0  0
   -5.2790    0.2130  -20.3070 C   0  0  0  0  0  0  0  0  0  0  0  0
   -5.3610    0.0300  -22.4610 H   0  0  0  0  0  0  0  0  0  0  0  0
   -3.3830    1.4380  -22.8570 H   0  0  0  0  0  0  0  0  0  0  0  0
   -2.1550    2.4430  -20.9450 H   0  0  0  0  0  0  0  0  0  0  0  0
   -2.9140    2.0300  -18.6240 H   0  0  0  0  0  0  0  0  0  0  0  0
   -4.4930    0.9070  -17.0500 H   0  0  0  0  0  0  0  0  0  0  0  0
   -7.4750   -1.5930  -18.4260 H   0  0  0  0  0  0  0  0  0  0  0  0
   -7.3390   -2.4740  -21.3130 C   0  0  0  0  0  0  0  0  0  0  0  0
   -6.6800   -3.3390  -20.7800 O   0  0  0  0  0  0  0  0  0  0  0  0
   -8.4490   -2.6810  -22.3550 C   0  0  1  0  0  0  0  0  0  0  0  0
   -9.7060   -3.1740  -21.5930 C   0  0  0  0  0  0  0  0  0  0  0  0
  -10.7490   -3.6660  -22.4880 N   0  0  0  0  0  0  0  0  0  0  0  0
  -12.1560   -3.5140  -22.0920 C   0  0  0  0  0  0  0  0  0  0  0  0
  -12.9220   -2.4050  -22.7570 C   0  0  0  0  0  0  0  0  0  0  0  0
  -13.5110   -2.3060  -23.9720 C   0  0  0  0  0  0  0  0  0  0  0  0
  -14.1700   -1.1110  -24.0370 O   0  0  0  0  0  0  0  0  0  0  0  0
  -13.9560   -0.5510  -22.8340 C   0  0  0  0  0  0  0  0  0  0  0  0
  -13.2260   -1.2520  -22.0370 N   0  0  0  0  0  0  0  0  0  0  0  0
  -14.4520    0.3880  -22.6260 H   0  0  0  0  0  0  0  0  0  0  0  0
  -13.6270   -2.9340  -24.8390 H   0  0  0  0  0  0  0  0  0  0  0  0
  -12.1740   -3.2660  -21.0280 H   0  0  0  0  0  0  0  0  0  0  0  0
  -12.6450   -4.4830  -22.2460 H   0  0  0  0  0  0  0  0  0  0  0  0
  -10.3980   -4.6270  -23.4070 C   0  0  0  0  0  0  0  0  0  0  0  0
  -11.1700   -5.4350  -23.8810 O   0  0  0  0  0  0  0  0  0  0  0  0
   -8.9760   -4.6570  -23.8470 C   0  0  0  0  0  0  0  0  0  0  0  0
   -8.6310   -5.6290  -24.7890 C   0  0  0  0  0  0  0  0  0  0  0  0
   -7.3520   -5.6930  -25.3000 C   0  0  0  0  0  0  0  0  0  0  0  0
   -6.4240   -4.7800  -24.8080 C   0  0  0  0  0  0  0  0  0  0  0  0
   -5.1720   -4.8310  -25.2940 F   0  0  0  0  0  0  0  0  0  0  0  0
   -6.7330   -3.8390  -23.8410 C   0  0  0  0  0  0  0  0  0  0  0  0
   -8.0480   -3.7390  -23.3640 C   0  0  0  0  0  0  0  0  0  0  0  0
   -5.9310   -3.2310  -23.4360 H   0  0  0  0  0  0  0  0  0  0  0  0
   -7.0700   -6.4320  -26.0450 H   0  0  0  0  0  0  0  0  0  0  0  0
   -9.3980   -6.3300  -25.1000 H   0  0  0  0  0  0  0  0  0  0  0  0
  -10.1360   -2.3700  -20.9940 H   0  0  0  0  0  0  0  0  0  0  0  0
   -9.3920   -3.9550  -20.8850 H   0  0  0  0  0  0  0  0  0  0  0  0
   -9.0400   -0.0380  -21.1670 H   0  0  0  0  0  0  0  0  0  0  0  0
   -7.7270    0.6260  -22.1410 H   0  0  0  0  0  0  0  0  0  0  0  0
   -7.8640   -1.1600  -23.7530 H   0  0  0  0  0  0  0  0  0  0  0  0
   -9.9670    0.0430  -24.0700 H   0  0  0  0  0  0  0  0  0  0  0  0
  -10.2900   -1.6920  -24.2310 H   0  0  0  0  0  0  0  0  0  0  0  0
  -10.7530   -0.8360  -22.7490 H   0  0  0  0  0  0  0  0  0  0  0  0
  1  2  1  0  0  0  0
  1 53  1  0  0  0  0
  1 54  1  0  0  0  0
  1 55  1  0  0  0  0
  2  3  1  0  0  0  0
  2 23  1  0  0  0  0
  2 52  1  6  0  0  0
  3  4  1  0  0  0  0
  3 50  1  0  0  0  0
  3 51  1  0  0  0  0
  4  5  1  0  0  0  0
  4 21  1  0  0  0  0
  5  6  2  0  0  0  0
  5 14  1  0  0  0  0
  6  7  1  0  0  0  0
  6 20  1  0  0  0  0
  7  8  2  0  0  0  0
  8  9  1  0  0  0  0
  8 19  1  0  0  0  0
  9 10  2  0  0  0  0
  9 14  1  0  0  0  0
 10 11  1  0  0  0  0
 10 18  1  0  0  0  0
 11 12  2  0  0  0  0
 11 17  1  0  0  0  0
 12 13  1  0  0  0  0
 12 16  1  0  0  0  0
 13 14  2  0  0  0  0
 13 15  1  0  0  0  0
 21 22  2  0  0  0  0
 23 21  1  1  0  0  0
 23 24  1  0  0  0  0
 23 44  1  0  0  0  0
 24 25  1  0  0  0  0
 24 48  1  0  0  0  0
 24 49  1  0  0  0  0
 25 26  1  0  0  0  0
 25 36  1  0  0  0  0
 26 27  1  0  0  0  0
 26 34  1  0  0  0  0
 26 35  1  0  0  0  0
 27 28  2  0  0  0  0
 27 31  1  0  0  0  0
 28 29  1  0  0  0  0
 28 33  1  0  0  0  0
 29 30  1  0  0  0  0
 30 31  2  0  0  0  0
 30 32  1  0  0  0  0
 36 37  2  0  0  0  0
 36 38  1  0  0  0  0
 38 39  2  0  0  0  0
 38 44  1  0  0  0  0
 39 40  1  0  0  0  0
 39 47  1  0  0  0  0
 40 41  2  0  0  0  0
 40 46  1  0  0  0  0
 41 42  1  0  0  0  0
 41 43  1  0  0  0  0
 43 44  2  0  0  0  0
 43 45  1  0  0  0  0
M  END
>  <MODEL>
       1

$$$$
