tmp_first_model_5_56.pdb
 OpenBabel08272519233D

 57 62  0  0  1  0  0  0  0  0999 V2000
   -7.9070   -3.5090  -24.1910 C   0  0  0  0  0  0  0  0  0  0  0  0
   -8.2320   -2.8160  -22.8710 C   0  0  1  0  0  0  0  0  0  0  0  0
   -6.9980   -2.5990  -21.9880 C   0  0  0  0  0  0  0  0  0  0  0  0
   -7.3890   -1.4960  -21.1390 N   0  0  0  0  0  0  0  0  0  0  0  0
   -6.5140   -1.0000  -20.1420 C   0  0  0  0  0  0  0  0  0  0  0  0
   -6.7920   -1.2000  -18.8150 C   0  0  0  0  0  0  0  0  0  0  0  0
   -5.9200   -0.9220  -17.8140 N   0  0  0  0  0  0  0  0  0  0  0  0
   -4.7650   -0.3920  -18.1460 C   0  0  0  0  0  0  0  0  0  0  0  0
   -4.3950   -0.0360  -19.4780 C   0  0  0  0  0  0  0  0  0  0  0  0
   -3.2460    0.7640  -19.7660 C   0  0  0  0  0  0  0  0  0  0  0  0
   -3.1470    1.4170  -20.9620 C   0  0  0  0  0  0  0  0  0  0  0  0
   -4.0540    1.1280  -22.0110 C   0  0  0  0  0  0  0  0  0  0  0  0
   -5.0740    0.2300  -21.8030 C   0  0  0  0  0  0  0  0  0  0  0  0
   -5.3230   -0.2980  -20.5050 C   0  0  0  0  0  0  0  0  0  0  0  0
   -5.7550    0.0110  -22.6170 H   0  0  0  0  0  0  0  0  0  0  0  0
   -3.9370    1.6170  -22.9750 H   0  0  0  0  0  0  0  0  0  0  0  0
   -2.3230    2.0980  -21.1480 H   0  0  0  0  0  0  0  0  0  0  0  0
   -2.5480    0.9640  -18.9580 H   0  0  0  0  0  0  0  0  0  0  0  0
   -4.0690   -0.1600  -17.3380 H   0  0  0  0  0  0  0  0  0  0  0  0
   -7.7540   -1.6180  -18.5280 H   0  0  0  0  0  0  0  0  0  0  0  0
   -8.4700   -0.7720  -21.6080 C   0  0  0  0  0  0  0  0  0  0  0  0
   -8.9360    0.1950  -21.0490 O   0  0  0  0  0  0  0  0  0  0  0  0
   -8.9420   -1.4240  -22.9410 C   0  0  1  0  0  0  0  0  0  0  0  0
   -8.4520   -0.5990  -24.1680 C   0  0  0  0  0  0  0  0  0  0  0  0
   -9.2000    0.6340  -24.3620 N   0  0  0  0  0  0  0  0  0  0  0  0
   -8.5190    1.8680  -24.7310 C   0  0  0  0  0  0  0  0  0  0  0  0
   -8.0950    2.5720  -23.5110 C   0  0  0  0  0  0  0  0  0  0  0  0
   -7.0340    2.1590  -22.8790 N   0  0  0  0  0  0  0  0  0  0  0  0
   -6.8320    3.0450  -21.8330 C   0  0  0  0  0  0  0  0  0  0  0  0
   -7.7910    4.0250  -21.7530 C   0  0  0  0  0  0  0  0  0  0  0  0
   -8.7150    3.7700  -22.8620 C   0  0  0  0  0  0  0  0  0  0  0  0
   -9.7870    4.3620  -23.2390 N   0  0  0  0  0  0  0  0  0  0  0  0
   -9.9650    5.1270  -22.5780 H   0  0  0  0  0  0  0  0  0  0  0  0
   -7.9460    4.8100  -21.0330 H   0  0  0  0  0  0  0  0  0  0  0  0
   -5.9640    2.8650  -21.2210 H   0  0  0  0  0  0  0  0  0  0  0  0
   -9.1980    2.4580  -25.3520 H   0  0  0  0  0  0  0  0  0  0  0  0
   -7.6130    1.6080  -25.3010 H   0  0  0  0  0  0  0  0  0  0  0  0
  -10.5660    0.6310  -24.3460 C   0  0  0  0  0  0  0  0  0  0  0  0
  -11.2300    1.5660  -24.7750 O   0  0  0  0  0  0  0  0  0  0  0  0
  -11.2010   -0.5940  -23.7670 C   0  0  0  0  0  0  0  0  0  0  0  0
  -12.5720   -0.7650  -23.9500 C   0  0  0  0  0  0  0  0  0  0  0  0
  -13.2340   -1.8070  -23.3310 C   0  0  0  0  0  0  0  0  0  0  0  0
  -12.5100   -2.6070  -22.4530 C   0  0  0  0  0  0  0  0  0  0  0  0
  -13.1630   -3.5560  -21.7640 F   0  0  0  0  0  0  0  0  0  0  0  0
  -11.1520   -2.4610  -22.2600 C   0  0  0  0  0  0  0  0  0  0  0  0
  -10.4550   -1.5050  -23.0080 C   0  0  0  0  0  0  0  0  0  0  0  0
  -10.6630   -3.0820  -21.5170 H   0  0  0  0  0  0  0  0  0  0  0  0
  -14.3030   -1.9540  -23.4380 H   0  0  0  0  0  0  0  0  0  0  0  0
  -13.0980   -0.0380  -24.5600 H   0  0  0  0  0  0  0  0  0  0  0  0
   -8.5620   -1.2190  -25.0680 H   0  0  0  0  0  0  0  0  0  0  0  0
   -7.3910   -0.3450  -24.0570 H   0  0  0  0  0  0  0  0  0  0  0  0
   -6.7580   -3.4800  -21.3810 H   0  0  0  0  0  0  0  0  0  0  0  0
   -6.1050   -2.3580  -22.5860 H   0  0  0  0  0  0  0  0  0  0  0  0
   -8.9050   -3.4700  -22.3120 H   0  0  0  0  0  0  0  0  0  0  0  0
   -7.1670   -2.9390  -24.7660 H   0  0  0  0  0  0  0  0  0  0  0  0
   -8.8000   -3.6350  -24.8140 H   0  0  0  0  0  0  0  0  0  0  0  0
   -7.4800   -4.5030  -24.0100 H   0  0  0  0  0  0  0  0  0  0  0  0
  1  2  1  0  0  0  0
  1 55  1  0  0  0  0
  1 56  1  0  0  0  0
  1 57  1  0  0  0  0
  2  3  1  0  0  0  0
  2 23  1  0  0  0  0
  2 54  1  1  0  0  0
  3  4  1  0  0  0  0
  3 52  1  0  0  0  0
  3 53  1  0  0  0  0
  4  5  1  0  0  0  0
  4 21  1  0  0  0  0
  5  6  2  0  0  0  0
  5 14  1  0  0  0  0
  6  7  1  0  0  0  0
  6 20  1  0  0  0  0
  7  8  2  0  0  0  0
  8  9  1  0  0  0  0
  8 19  1  0  0  0  0
  9 10  2  0  0  0  0
  9 14  1  0  0  0  0
 10 11  1  0  0  0  0
 10 18  1  0  0  0  0
 11 12  2  0  0  0  0
 11 17  1  0  0  0  0
 12 13  1  0  0  0  0
 12 16  1  0  0  0  0
 13 14  2  0  0  0  0
 13 15  1  0  0  0  0
 21 22  2  0  0  0  0
 23 21  1  1  0  0  0
 23 24  1  0  0  0  0
 23 46  1  0  0  0  0
 24 25  1  0  0  0  0
 24 50  1  0  0  0  0
 24 51  1  0  0  0  0
 25 26  1  0  0  0  0
 25 38  1  0  0  0  0
 26 27  1  0  0  0  0
 26 36  1  0  0  0  0
 26 37  1  0  0  0  0
 27 28  2  0  0  0  0
 27 32  1  0  0  0  0
 28 29  1  0  0  0  0
 29 30  2  0  0  0  0
 29 35  1  0  0  0  0
 30 31  1  0  0  0  0
 30 34  1  0  0  0  0
 31 32  2  0  0  0  0
 31 33  1  0  0  0  0
 38 39  2  0  0  0  0
 38 40  1  0  0  0  0
 40 41  2  0  0  0  0
 40 46  1  0  0  0  0
 41 42  1  0  0  0  0
 41 49  1  0  0  0  0
 42 43  2  0  0  0  0
 42 48  1  0  0  0  0
 43 44  1  0  0  0  0
 43 45  1  0  0  0  0
 45 46  2  0  0  0  0
 45 47  1  0  0  0  0
M  END
>  <MODEL>
       1

$$$$
