tmp_first_model_8_2.pdb
 OpenBabel08272521063D

 60 65  0  0  1  0  0  0  0  0999 V2000
   -6.0740   -7.6190  -26.6120 C   0  0  0  0  0  0  0  0  0  0  0  0
   -6.5110   -6.1840  -26.7020 C   0  0  0  0  0  0  0  0  0  0  0  0
   -5.6610   -5.1330  -26.3680 C   0  0  0  0  0  0  0  0  0  0  0  0
   -6.0360   -3.8540  -26.4030 N   0  0  0  0  0  0  0  0  0  0  0  0
   -7.2940   -3.6060  -26.7780 C   0  0  0  0  0  0  0  0  0  0  0  0
   -7.7610   -2.1730  -26.8030 C   0  0  0  0  0  0  0  0  0  0  0  0
   -8.6230   -1.8230  -25.6810 N   0  0  0  0  0  0  0  0  0  0  0  0
   -7.9820   -1.2740  -24.4930 C   0  0  0  0  0  0  0  0  0  0  0  0
   -8.7520   -1.5420  -23.1810 C   0  0  2  0  0  0  0  0  0  0  0  0
   -8.1400   -0.6130  -22.1050 C   0  0  0  0  0  0  0  0  0  0  0  0
   -8.2270    0.5950  -22.0440 O   0  0  0  0  0  0  0  0  0  0  0  0
   -7.4230   -1.3750  -21.2080 N   0  0  0  0  0  0  0  0  0  0  0  0
   -6.6180   -0.8020  -20.1870 C   0  0  0  0  0  0  0  0  0  0  0  0
   -6.9000   -1.0590  -18.8710 C   0  0  0  0  0  0  0  0  0  0  0  0
   -6.1990   -0.5670  -17.8190 N   0  0  0  0  0  0  0  0  0  0  0  0
   -5.1720    0.2030  -18.0840 C   0  0  0  0  0  0  0  0  0  0  0  0
   -4.7400    0.5290  -19.3990 C   0  0  0  0  0  0  0  0  0  0  0  0
   -3.6070    1.3570  -19.6290 C   0  0  0  0  0  0  0  0  0  0  0  0
   -3.2100    1.6470  -20.9030 C   0  0  0  0  0  0  0  0  0  0  0  0
   -3.9320    1.1210  -22.0000 C   0  0  0  0  0  0  0  0  0  0  0  0
   -5.0090    0.3000  -21.8030 C   0  0  0  0  0  0  0  0  0  0  0  0
   -5.4710    0.0060  -20.4920 C   0  0  0  0  0  0  0  0  0  0  0  0
   -5.5140   -0.1370  -22.6580 H   0  0  0  0  0  0  0  0  0  0  0  0
   -3.5940    1.3310  -23.0090 H   0  0  0  0  0  0  0  0  0  0  0  0
   -2.3350    2.2630  -21.0880 H   0  0  0  0  0  0  0  0  0  0  0  0
   -3.0750    1.7590  -18.7690 H   0  0  0  0  0  0  0  0  0  0  0  0
   -4.6280    0.6130  -17.2320 H   0  0  0  0  0  0  0  0  0  0  0  0
   -7.7480   -1.6890  -18.6070 H   0  0  0  0  0  0  0  0  0  0  0  0
   -7.4070   -2.7930  -21.5190 C   0  0  0  0  0  0  0  0  0  0  0  0
   -8.5360   -2.9640  -22.5490 C   0  0  2  0  0  0  0  0  0  0  0  0
   -8.2930   -4.1150  -23.5250 C   0  0  0  0  0  0  0  0  0  0  0  0
   -9.0850   -4.1620  -24.2810 H   0  0  0  0  0  0  0  0  0  0  0  0
   -8.2680   -5.0720  -22.9920 H   0  0  0  0  0  0  0  0  0  0  0  0
   -7.3400   -4.0020  -24.0540 H   0  0  0  0  0  0  0  0  0  0  0  0
   -9.4640   -3.1610  -21.9920 H   0  0  0  0  0  0  0  0  0  0  0  0
   -6.4340   -3.1030  -21.9300 H   0  0  0  0  0  0  0  0  0  0  0  0
   -7.5750   -3.3740  -20.6090 H   0  0  0  0  0  0  0  0  0  0  0  0
  -10.2220   -1.2570  -23.4290 C   0  0  0  0  0  0  0  0  0  0  0  0
  -11.0480   -0.9380  -22.3440 C   0  0  0  0  0  0  0  0  0  0  0  0
  -12.3980   -0.7410  -22.5660 C   0  0  0  0  0  0  0  0  0  0  0  0
  -13.2420   -0.4050  -21.5800 F   0  0  0  0  0  0  0  0  0  0  0  0
  -12.9690   -0.8930  -23.8200 C   0  0  0  0  0  0  0  0  0  0  0  0
  -12.1660   -1.2470  -24.8830 C   0  0  0  0  0  0  0  0  0  0  0  0
  -10.7940   -1.4210  -24.6970 C   0  0  0  0  0  0  0  0  0  0  0  0
   -9.9740   -1.8390  -25.8730 C   0  0  0  0  0  0  0  0  0  0  0  0
  -10.4820   -2.1860  -26.9330 O   0  0  0  0  0  0  0  0  0  0  0  0
  -12.5740   -1.4070  -25.8740 H   0  0  0  0  0  0  0  0  0  0  0  0
  -14.0370   -0.7310  -23.8970 H   0  0  0  0  0  0  0  0  0  0  0  0
  -10.6060   -0.8500  -21.3580 H   0  0  0  0  0  0  0  0  0  0  0  0
   -6.9860   -1.7310  -24.4480 H   0  0  0  0  0  0  0  0  0  0  0  0
   -7.8780   -0.1800  -24.5740 H   0  0  0  0  0  0  0  0  0  0  0  0
   -8.3310   -1.9830  -27.7170 H   0  0  0  0  0  0  0  0  0  0  0  0
   -6.8690   -1.5420  -26.7710 H   0  0  0  0  0  0  0  0  0  0  0  0
   -8.1340   -4.6510  -27.1400 C   0  0  0  0  0  0  0  0  0  0  0  0
   -7.7570   -5.9300  -27.1050 N   0  0  0  0  0  0  0  0  0  0  0  0
   -9.1440   -4.4360  -27.4790 H   0  0  0  0  0  0  0  0  0  0  0  0
   -4.6460   -5.3490  -26.0440 H   0  0  0  0  0  0  0  0  0  0  0  0
   -5.1310   -7.7830  -27.1490 H   0  0  0  0  0  0  0  0  0  0  0  0
   -5.9160   -7.9160  -25.5670 H   0  0  0  0  0  0  0  0  0  0  0  0
   -6.8600   -8.2330  -27.0500 H   0  0  0  0  0  0  0  0  0  0  0  0
  1  2  1  0  0  0  0
  1 58  1  0  0  0  0
  1 59  1  0  0  0  0
  1 60  1  0  0  0  0
  2  3  2  0  0  0  0
  2 55  1  0  0  0  0
  3  4  1  0  0  0  0
  3 57  1  0  0  0  0
  4  5  2  0  0  0  0
  5  6  1  0  0  0  0
  5 54  1  0  0  0  0
  6  7  1  0  0  0  0
  6 52  1  0  0  0  0
  6 53  1  0  0  0  0
  7  8  1  0  0  0  0
  7 45  1  0  0  0  0
  8  9  1  0  0  0  0
  8 50  1  0  0  0  0
  8 51  1  0  0  0  0
  9 10  1  1  0  0  0
  9 30  1  0  0  0  0
  9 38  1  0  0  0  0
 10 11  2  0  0  0  0
 10 12  1  0  0  0  0
 12 13  1  0  0  0  0
 12 29  1  0  0  0  0
 13 14  2  0  0  0  0
 13 22  1  0  0  0  0
 14 15  1  0  0  0  0
 14 28  1  0  0  0  0
 15 16  2  0  0  0  0
 16 17  1  0  0  0  0
 16 27  1  0  0  0  0
 17 18  2  0  0  0  0
 17 22  1  0  0  0  0
 18 19  1  0  0  0  0
 18 26  1  0  0  0  0
 19 20  2  0  0  0  0
 19 25  1  0  0  0  0
 20 21  1  0  0  0  0
 20 24  1  0  0  0  0
 21 22  2  0  0  0  0
 21 23  1  0  0  0  0
 29 30  1  0  0  0  0
 29 36  1  0  0  0  0
 29 37  1  0  0  0  0
 30 31  1  0  0  0  0
 30 35  1  1  0  0  0
 31 32  1  0  0  0  0
 31 33  1  0  0  0  0
 31 34  1  0  0  0  0
 38 39  2  0  0  0  0
 38 44  1  0  0  0  0
 39 40  1  0  0  0  0
 39 49  1  0  0  0  0
 40 41  1  0  0  0  0
 40 42  2  0  0  0  0
 42 43  1  0  0  0  0
 42 48  1  0  0  0  0
 43 44  2  0  0  0  0
 43 47  1  0  0  0  0
 44 45  1  0  0  0  0
 45 46  2  0  0  0  0
 54 55  2  0  0  0  0
 54 56  1  0  0  0  0
M  END
>  <MODEL>
       1

$$$$
