tmp_first_model_17_57.pdb
 OpenBabel08282502223D

 59 63  0  0  1  0  0  0  0  0999 V2000
  -14.2750   -0.1330  -23.1540 C   0  0  0  0  0  0  0  0  0  0  0  0
  -13.7290   -1.2970  -22.4820 N   0  0  0  0  0  0  0  0  0  0  0  0
  -13.1370   -2.3300  -23.1480 C   0  0  0  0  0  0  0  0  0  0  0  0
  -13.0120   -2.3400  -24.3640 O   0  0  0  0  0  0  0  0  0  0  0  0
  -12.5800   -3.4460  -22.2430 C   0  0  0  0  0  0  0  0  0  0  0  0
  -11.1880   -3.7570  -22.5320 N   0  0  0  0  0  0  0  0  0  0  0  0
  -10.1070   -3.2780  -21.6680 C   0  0  0  0  0  0  0  0  0  0  0  0
   -8.7900   -2.9540  -22.4320 C   0  0  2  0  0  0  0  0  0  0  0  0
   -7.6550   -2.7770  -21.3830 C   0  0  0  0  0  0  0  0  0  0  0  0
   -7.1010   -3.6490  -20.7450 O   0  0  0  0  0  0  0  0  0  0  0  0
   -7.3410   -1.4360  -21.2680 N   0  0  0  0  0  0  0  0  0  0  0  0
   -6.5740   -0.9190  -20.1920 C   0  0  0  0  0  0  0  0  0  0  0  0
   -6.9070   -1.1670  -18.8820 C   0  0  0  0  0  0  0  0  0  0  0  0
   -6.2720   -0.6070  -17.8190 N   0  0  0  0  0  0  0  0  0  0  0  0
   -5.2630    0.1940  -18.0630 C   0  0  0  0  0  0  0  0  0  0  0  0
   -4.7960    0.5180  -19.3690 C   0  0  0  0  0  0  0  0  0  0  0  0
   -3.6790    1.3690  -19.5990 C   0  0  0  0  0  0  0  0  0  0  0  0
   -3.2790    1.6570  -20.8740 C   0  0  0  0  0  0  0  0  0  0  0  0
   -3.9710    1.1160  -21.9810 C   0  0  0  0  0  0  0  0  0  0  0  0
   -5.0470    0.2840  -21.7820 C   0  0  0  0  0  0  0  0  0  0  0  0
   -5.4810   -0.0370  -20.4700 C   0  0  0  0  0  0  0  0  0  0  0  0
   -5.5720   -0.1450  -22.6260 H   0  0  0  0  0  0  0  0  0  0  0  0
   -3.6400    1.3480  -22.9870 H   0  0  0  0  0  0  0  0  0  0  0  0
   -2.4140    2.2920  -21.0510 H   0  0  0  0  0  0  0  0  0  0  0  0
   -3.1460    1.7750  -18.7430 H   0  0  0  0  0  0  0  0  0  0  0  0
   -4.7560    0.6270  -17.1990 H   0  0  0  0  0  0  0  0  0  0  0  0
   -7.7290   -1.8380  -18.6400 H   0  0  0  0  0  0  0  0  0  0  0  0
   -8.2870   -0.5930  -21.9700 C   0  0  0  0  0  0  0  0  0  0  0  0
   -8.8760   -1.4880  -23.0880 C   0  0  0  0  0  0  0  0  0  0  0  0
   -8.0550   -1.4180  -24.3820 C   0  0  0  0  0  0  0  0  0  0  0  0
   -7.0000   -1.6730  -24.2270 H   0  0  0  0  0  0  0  0  0  0  0  0
   -8.1130   -0.4110  -24.8090 H   0  0  0  0  0  0  0  0  0  0  0  0
   -8.4730   -2.1210  -25.1110 H   0  0  0  0  0  0  0  0  0  0  0  0
  -10.2770   -0.9430  -23.4110 C   0  0  0  0  0  0  0  0  0  0  0  0
  -10.1680    0.0480  -23.8690 H   0  0  0  0  0  0  0  0  0  0  0  0
  -10.8210   -1.5840  -24.1090 H   0  0  0  0  0  0  0  0  0  0  0  0
  -10.9080   -0.7980  -22.5240 H   0  0  0  0  0  0  0  0  0  0  0  0
   -7.7980    0.3060  -22.3540 H   0  0  0  0  0  0  0  0  0  0  0  0
   -9.0810   -0.2620  -21.2760 H   0  0  0  0  0  0  0  0  0  0  0  0
   -8.4910   -4.1440  -23.3460 C   0  0  0  0  0  0  0  0  0  0  0  0
   -7.1780   -4.4810  -23.7250 C   0  0  0  0  0  0  0  0  0  0  0  0
   -6.9520   -5.4850  -24.6540 C   0  0  0  0  0  0  0  0  0  0  0  0
   -5.3290   -5.8530  -25.1600 Cl  0  0  0  0  0  0  0  0  0  0  0  0
   -7.9950   -6.2220  -25.2080 C   0  0  0  0  0  0  0  0  0  0  0  0
   -9.2800   -5.9350  -24.7970 C   0  0  0  0  0  0  0  0  0  0  0  0
   -9.5310   -4.9230  -23.8720 C   0  0  0  0  0  0  0  0  0  0  0  0
  -10.9610   -4.6860  -23.5110 C   0  0  0  0  0  0  0  0  0  0  0  0
  -11.8620   -5.2780  -24.0920 O   0  0  0  0  0  0  0  0  0  0  0  0
  -10.1320   -6.4790  -25.1890 H   0  0  0  0  0  0  0  0  0  0  0  0
   -7.7890   -7.0100  -25.9270 H   0  0  0  0  0  0  0  0  0  0  0  0
   -6.3280   -3.9750  -23.2780 H   0  0  0  0  0  0  0  0  0  0  0  0
  -10.4270   -2.3690  -21.1540 H   0  0  0  0  0  0  0  0  0  0  0  0
   -9.8640   -4.0130  -20.8960 H   0  0  0  0  0  0  0  0  0  0  0  0
  -13.1530   -4.3590  -22.4340 H   0  0  0  0  0  0  0  0  0  0  0  0
  -12.6850   -3.1960  -21.1840 H   0  0  0  0  0  0  0  0  0  0  0  0
  -13.8420   -1.3730  -21.4840 H   0  0  0  0  0  0  0  0  0  0  0  0
  -13.8330    0.7800  -22.7490 H   0  0  0  0  0  0  0  0  0  0  0  0
  -15.3660   -0.0700  -23.0630 H   0  0  0  0  0  0  0  0  0  0  0  0
  -14.0240   -0.1910  -24.2130 H   0  0  0  0  0  0  0  0  0  0  0  0
  1  2  1  0  0  0  0
  1 57  1  0  0  0  0
  1 58  1  0  0  0  0
  1 59  1  0  0  0  0
  2  3  1  0  0  0  0
  2 56  1  0  0  0  0
  3  4  2  0  0  0  0
  3  5  1  0  0  0  0
  5  6  1  0  0  0  0
  5 54  1  0  0  0  0
  5 55  1  0  0  0  0
  6  7  1  0  0  0  0
  6 47  1  0  0  0  0
  7  8  1  0  0  0  0
  7 52  1  0  0  0  0
  7 53  1  0  0  0  0
  8  9  1  1  0  0  0
  8 29  1  0  0  0  0
  8 40  1  0  0  0  0
  9 10  2  0  0  0  0
  9 11  1  0  0  0  0
 11 12  1  0  0  0  0
 11 28  1  0  0  0  0
 12 13  2  0  0  0  0
 12 21  1  0  0  0  0
 13 14  1  0  0  0  0
 13 27  1  0  0  0  0
 14 15  2  0  0  0  0
 15 16  1  0  0  0  0
 15 26  1  0  0  0  0
 16 17  2  0  0  0  0
 16 21  1  0  0  0  0
 17 18  1  0  0  0  0
 17 25  1  0  0  0  0
 18 19  2  0  0  0  0
 18 24  1  0  0  0  0
 19 20  1  0  0  0  0
 19 23  1  0  0  0  0
 20 21  2  0  0  0  0
 20 22  1  0  0  0  0
 28 29  1  0  0  0  0
 28 38  1  0  0  0  0
 28 39  1  0  0  0  0
 29 30  1  0  0  0  0
 29 34  1  0  0  0  0
 30 31  1  0  0  0  0
 30 32  1  0  0  0  0
 30 33  1  0  0  0  0
 34 35  1  0  0  0  0
 34 36  1  0  0  0  0
 34 37  1  0  0  0  0
 40 41  2  0  0  0  0
 40 46  1  0  0  0  0
 41 42  1  0  0  0  0
 41 51  1  0  0  0  0
 42 43  1  0  0  0  0
 42 44  2  0  0  0  0
 44 45  1  0  0  0  0
 44 50  1  0  0  0  0
 45 46  2  0  0  0  0
 45 49  1  0  0  0  0
 46 47  1  0  0  0  0
 47 48  2  0  0  0  0
M  END
>  <MODEL>
       1

$$$$
