tmp_first_model_16_86.pdb
 OpenBabel08282501503D

 43 45  0  0  1  0  0  0  0  0999 V2000
   -8.9910   -5.9690  -26.0060 C   0  0  0  0  0  0  0  0  0  0  0  0
   -8.3100   -5.0640  -24.9750 C   0  0  1  0  0  0  0  0  0  0  0  0
   -9.2560   -3.9850  -24.4460 C   0  0  0  0  0  0  0  0  0  0  0  0
   -8.5620   -3.0060  -23.4910 C   0  0  0  0  0  0  0  0  0  0  0  0
   -7.5640   -3.6210  -22.6020 N   0  0  0  0  0  0  0  0  0  0  0  0
   -6.7700   -2.8000  -21.8380 C   0  0  0  0  0  0  0  0  0  0  0  0
   -5.6220   -3.1020  -21.5440 O   0  0  0  0  0  0  0  0  0  0  0  0
   -7.4110   -1.4950  -21.3070 C   0  0  0  0  0  0  0  0  0  0  0  0
   -6.6020   -0.8480  -20.2170 C   0  0  0  0  0  0  0  0  0  0  0  0
   -6.9120   -1.0960  -18.9060 C   0  0  0  0  0  0  0  0  0  0  0  0
   -6.1710   -0.7070  -17.8370 N   0  0  0  0  0  0  0  0  0  0  0  0
   -5.0950    0.0030  -18.0810 C   0  0  0  0  0  0  0  0  0  0  0  0
   -4.7050    0.4350  -19.3840 C   0  0  0  0  0  0  0  0  0  0  0  0
   -3.6050    1.3080  -19.6120 C   0  0  0  0  0  0  0  0  0  0  0  0
   -3.2160    1.6170  -20.8880 C   0  0  0  0  0  0  0  0  0  0  0  0
   -3.9150    1.0820  -21.9930 C   0  0  0  0  0  0  0  0  0  0  0  0
   -5.0080    0.2740  -21.7980 C   0  0  0  0  0  0  0  0  0  0  0  0
   -5.4500   -0.0470  -20.4860 C   0  0  0  0  0  0  0  0  0  0  0  0
   -5.5350   -0.1490  -22.6470 H   0  0  0  0  0  0  0  0  0  0  0  0
   -3.5770    1.3140  -23.0000 H   0  0  0  0  0  0  0  0  0  0  0  0
   -2.3530    2.2550  -21.0630 H   0  0  0  0  0  0  0  0  0  0  0  0
   -3.0930    1.7330  -18.7500 H   0  0  0  0  0  0  0  0  0  0  0  0
   -4.4770    0.2550  -17.2140 H   0  0  0  0  0  0  0  0  0  0  0  0
   -7.7990   -1.6770  -18.6430 H   0  0  0  0  0  0  0  0  0  0  0  0
   -8.3910   -1.7580  -20.8870 H   0  0  0  0  0  0  0  0  0  0  0  0
   -7.6070   -0.7930  -22.1300 H   0  0  0  0  0  0  0  0  0  0  0  0
   -7.0610   -5.0090  -22.7360 C   0  0  1  0  0  0  0  0  0  0  0  0
   -7.1500   -5.7300  -21.3930 C   0  0  0  0  0  0  0  0  0  0  0  0
   -8.2070   -5.7510  -21.1110 H   0  0  0  0  0  0  0  0  0  0  0  0
   -6.5620   -5.2270  -20.6240 H   0  0  0  0  0  0  0  0  0  0  0  0
   -6.8030   -6.7630  -21.4840 H   0  0  0  0  0  0  0  0  0  0  0  0
   -7.8430   -5.8440  -23.7540 C   0  0  0  0  0  0  0  0  0  0  0  0
   -8.7350   -6.2650  -23.2590 H   0  0  0  0  0  0  0  0  0  0  0  0
   -7.2100   -6.6950  -24.0390 H   0  0  0  0  0  0  0  0  0  0  0  0
   -6.0140   -4.9080  -23.0510 H   0  0  0  0  0  0  0  0  0  0  0  0
   -8.0680   -2.2260  -24.0940 H   0  0  0  0  0  0  0  0  0  0  0  0
   -9.3120   -2.4960  -22.8720 H   0  0  0  0  0  0  0  0  0  0  0  0
   -9.6800   -3.4110  -25.2800 H   0  0  0  0  0  0  0  0  0  0  0  0
  -10.0940   -4.4850  -23.9350 H   0  0  0  0  0  0  0  0  0  0  0  0
   -7.4340   -4.5880  -25.4470 H   0  0  0  0  0  0  0  0  0  0  0  0
   -9.3150   -5.3890  -26.8760 H   0  0  0  0  0  0  0  0  0  0  0  0
   -9.8790   -6.4630  -25.5880 H   0  0  0  0  0  0  0  0  0  0  0  0
   -8.3110   -6.7520  -26.3570 H   0  0  0  0  0  0  0  0  0  0  0  0
  1  2  1  0  0  0  0
  1 41  1  0  0  0  0
  1 42  1  0  0  0  0
  1 43  1  0  0  0  0
  2  3  1  0  0  0  0
  2 32  1  0  0  0  0
  2 40  1  6  0  0  0
  3  4  1  0  0  0  0
  3 38  1  0  0  0  0
  3 39  1  0  0  0  0
  4  5  1  0  0  0  0
  4 36  1  0  0  0  0
  4 37  1  0  0  0  0
  5  6  1  0  0  0  0
  5 27  1  0  0  0  0
  6  7  2  0  0  0  0
  6  8  1  0  0  0  0
  8  9  1  0  0  0  0
  8 25  1  0  0  0  0
  8 26  1  0  0  0  0
  9 10  2  0  0  0  0
  9 18  1  0  0  0  0
 10 11  1  0  0  0  0
 10 24  1  0  0  0  0
 11 12  2  0  0  0  0
 12 13  1  0  0  0  0
 12 23  1  0  0  0  0
 13 14  2  0  0  0  0
 13 18  1  0  0  0  0
 14 15  1  0  0  0  0
 14 22  1  0  0  0  0
 15 16  2  0  0  0  0
 15 21  1  0  0  0  0
 16 17  1  0  0  0  0
 16 20  1  0  0  0  0
 17 18  2  0  0  0  0
 17 19  1  0  0  0  0
 27 28  1  0  0  0  0
 27 32  1  0  0  0  0
 27 35  1  6  0  0  0
 28 29  1  0  0  0  0
 28 30  1  0  0  0  0
 28 31  1  0  0  0  0
 32 33  1  0  0  0  0
 32 34  1  0  0  0  0
M  END
>  <MODEL>
       1

$$$$
