tmp_first_model_17_61.pdb
 OpenBabel08282502223D

 44 47  0  0  0  0  0  0  0  0999 V2000
   -6.1990   -3.5440  -21.1110 O   0  0  0  0  0  0  0  0  0  0  0  0
   -6.6350   -2.6870  -21.8550 C   0  0  0  0  0  0  0  0  0  0  0  0
   -7.3910   -1.4730  -21.2730 C   0  0  0  0  0  0  0  0  0  0  0  0
   -6.5800   -0.8200  -20.1720 C   0  0  0  0  0  0  0  0  0  0  0  0
   -6.8740   -1.0440  -18.8530 C   0  0  0  0  0  0  0  0  0  0  0  0
   -6.1900   -0.5360  -17.7910 N   0  0  0  0  0  0  0  0  0  0  0  0
   -5.1570    0.2220  -18.0630 C   0  0  0  0  0  0  0  0  0  0  0  0
   -4.7220    0.5350  -19.3780 C   0  0  0  0  0  0  0  0  0  0  0  0
   -3.5940    1.3590  -19.6200 C   0  0  0  0  0  0  0  0  0  0  0  0
   -3.1990    1.6420  -20.8980 C   0  0  0  0  0  0  0  0  0  0  0  0
   -3.9160    1.1050  -21.9920 C   0  0  0  0  0  0  0  0  0  0  0  0
   -5.0090    0.3010  -21.7860 C   0  0  0  0  0  0  0  0  0  0  0  0
   -5.4490   -0.0030  -20.4700 C   0  0  0  0  0  0  0  0  0  0  0  0
   -5.5430   -0.1030  -22.6430 H   0  0  0  0  0  0  0  0  0  0  0  0
   -3.5840    1.3260  -23.0010 H   0  0  0  0  0  0  0  0  0  0  0  0
   -2.3300    2.2680  -21.0870 H   0  0  0  0  0  0  0  0  0  0  0  0
   -3.0510    1.7680  -18.7710 H   0  0  0  0  0  0  0  0  0  0  0  0
   -4.6010    0.6280  -17.2150 H   0  0  0  0  0  0  0  0  0  0  0  0
   -7.7220   -1.6720  -18.5820 H   0  0  0  0  0  0  0  0  0  0  0  0
   -7.6530   -0.7390  -22.0470 H   0  0  0  0  0  0  0  0  0  0  0  0
   -8.3300   -1.8490  -20.8460 H   0  0  0  0  0  0  0  0  0  0  0  0
   -6.4250   -2.7460  -23.2260 N   0  0  0  0  0  0  0  0  0  0  0  0
   -5.0940   -3.1110  -23.7050 C   0  0  0  0  0  0  0  0  0  0  0  0
   -5.1660   -4.0170  -24.9240 C   0  0  0  0  0  0  0  0  0  0  0  0
   -6.0450   -3.4230  -26.0170 C   0  0  0  0  0  0  0  0  0  0  0  0
   -6.0870   -4.2640  -27.3140 C   0  0  0  0  0  0  0  0  0  0  0  0
   -5.4340   -3.1100  -28.1070 C   0  0  0  0  0  0  0  0  0  0  0  0
   -5.3880   -2.2650  -26.8160 C   0  0  0  0  0  0  0  0  0  0  0  0
   -5.9810   -1.3470  -26.8440 H   0  0  0  0  0  0  0  0  0  0  0  0
   -4.3830   -1.9980  -26.4780 H   0  0  0  0  0  0  0  0  0  0  0  0
   -6.0570   -2.6940  -28.9040 H   0  0  0  0  0  0  0  0  0  0  0  0
   -4.4550   -3.3450  -28.5340 H   0  0  0  0  0  0  0  0  0  0  0  0
   -7.0950   -4.5370  -27.6410 H   0  0  0  0  0  0  0  0  0  0  0  0
   -5.4990   -5.1850  -27.2720 H   0  0  0  0  0  0  0  0  0  0  0  0
   -7.4170   -3.0940  -25.4450 C   0  0  0  0  0  0  0  0  0  0  0  0
   -7.3290   -2.1870  -24.2180 C   0  0  0  0  0  0  0  0  0  0  0  0
   -7.0190   -1.1740  -24.5300 H   0  0  0  0  0  0  0  0  0  0  0  0
   -8.3200   -2.0950  -23.7690 H   0  0  0  0  0  0  0  0  0  0  0  0
   -7.9400   -4.0240  -25.1900 H   0  0  0  0  0  0  0  0  0  0  0  0
   -8.0270   -2.6090  -26.2120 H   0  0  0  0  0  0  0  0  0  0  0  0
   -4.1590   -4.1900  -25.3190 H   0  0  0  0  0  0  0  0  0  0  0  0
   -5.5520   -5.0030  -24.6350 H   0  0  0  0  0  0  0  0  0  0  0  0
   -4.5140   -2.2030  -23.9530 H   0  0  0  0  0  0  0  0  0  0  0  0
   -4.5730   -3.6070  -22.8860 H   0  0  0  0  0  0  0  0  0  0  0  0
  1  2  2  0  0  0  0
  2  3  1  0  0  0  0
  2 22  1  0  0  0  0
  3  4  1  0  0  0  0
  3 20  1  0  0  0  0
  3 21  1  0  0  0  0
  4  5  2  0  0  0  0
  4 13  1  0  0  0  0
  5  6  1  0  0  0  0
  5 19  1  0  0  0  0
  6  7  2  0  0  0  0
  7  8  1  0  0  0  0
  7 18  1  0  0  0  0
  8  9  2  0  0  0  0
  8 13  1  0  0  0  0
  9 10  1  0  0  0  0
  9 17  1  0  0  0  0
 10 11  2  0  0  0  0
 10 16  1  0  0  0  0
 11 12  1  0  0  0  0
 11 15  1  0  0  0  0
 12 13  2  0  0  0  0
 12 14  1  0  0  0  0
 22 23  1  0  0  0  0
 22 36  1  0  0  0  0
 23 24  1  0  0  0  0
 23 43  1  0  0  0  0
 23 44  1  0  0  0  0
 24 25  1  0  0  0  0
 24 41  1  0  0  0  0
 24 42  1  0  0  0  0
 25 26  1  0  0  0  0
 25 28  1  0  0  0  0
 25 35  1  0  0  0  0
 26 27  1  0  0  0  0
 26 33  1  0  0  0  0
 26 34  1  0  0  0  0
 27 28  1  0  0  0  0
 27 31  1  0  0  0  0
 27 32  1  0  0  0  0
 28 29  1  0  0  0  0
 28 30  1  0  0  0  0
 35 36  1  0  0  0  0
 35 39  1  0  0  0  0
 35 40  1  0  0  0  0
 36 37  1  0  0  0  0
 36 38  1  0  0  0  0
M  END
>  <MODEL>
       1

$$$$
