tmp_first_model_6_71.pdb
 OpenBabel08272519583D

 50 54  0  0  1  0  0  0  0  0999 V2000
  -10.5100   -2.5340  -22.6360 C   0  0  0  0  0  0  0  0  0  0  0  0
   -9.0980   -1.9670  -22.6540 C   0  0  1  0  0  0  0  0  0  0  0  0
   -8.7520   -1.3770  -21.2830 C   0  0  0  0  0  0  0  0  0  0  0  0
   -7.3050   -1.4170  -21.2600 N   0  0  0  0  0  0  0  0  0  0  0  0
   -6.5660   -0.8380  -20.2120 C   0  0  0  0  0  0  0  0  0  0  0  0
   -6.9200   -1.0650  -18.9080 C   0  0  0  0  0  0  0  0  0  0  0  0
   -6.2540   -0.5750  -17.8370 N   0  0  0  0  0  0  0  0  0  0  0  0
   -5.2140    0.1910  -18.0690 C   0  0  0  0  0  0  0  0  0  0  0  0
   -4.7680    0.5410  -19.3740 C   0  0  0  0  0  0  0  0  0  0  0  0
   -3.6440    1.3850  -19.5820 C   0  0  0  0  0  0  0  0  0  0  0  0
   -3.2830    1.7560  -20.8470 C   0  0  0  0  0  0  0  0  0  0  0  0
   -4.0270    1.3070  -21.9650 C   0  0  0  0  0  0  0  0  0  0  0  0
   -5.0970    0.4640  -21.7930 C   0  0  0  0  0  0  0  0  0  0  0  0
   -5.4740    0.0400  -20.4890 C   0  0  0  0  0  0  0  0  0  0  0  0
   -5.6480    0.0860  -22.6520 H   0  0  0  0  0  0  0  0  0  0  0  0
   -3.7340    1.6080  -22.9660 H   0  0  0  0  0  0  0  0  0  0  0  0
   -2.4280    2.4100  -21.0090 H   0  0  0  0  0  0  0  0  0  0  0  0
   -3.0960    1.7430  -18.7120 H   0  0  0  0  0  0  0  0  0  0  0  0
   -4.6740    0.5860  -17.2060 H   0  0  0  0  0  0  0  0  0  0  0  0
   -7.7660   -1.7100  -18.6710 H   0  0  0  0  0  0  0  0  0  0  0  0
   -6.7870   -2.3670  -22.1240 C   0  0  0  0  0  0  0  0  0  0  0  0
   -5.6260   -2.7290  -22.1530 O   0  0  0  0  0  0  0  0  0  0  0  0
   -7.9170   -2.9500  -22.9840 C   0  0  1  0  0  0  0  0  0  0  0  0
   -8.1390   -4.3860  -22.4320 C   0  0  0  0  0  0  0  0  0  0  0  0
   -8.9470   -5.2170  -23.2940 N   0  0  0  0  0  0  0  0  0  0  0  0
   -9.7610   -6.2650  -22.7280 C   0  0  0  0  0  0  0  0  0  0  0  0
   -9.3260   -7.6030  -23.1690 C   0  0  0  0  0  0  0  0  0  0  0  0
   -8.9940   -8.6470  -23.5350 N   0  0  0  0  0  0  0  0  0  0  0  0
   -9.6770   -6.1850  -21.6440 H   0  0  0  0  0  0  0  0  0  0  0  0
  -10.8050   -6.1200  -23.0260 H   0  0  0  0  0  0  0  0  0  0  0  0
   -8.9100   -5.1500  -24.6510 C   0  0  0  0  0  0  0  0  0  0  0  0
   -9.5920   -5.9010  -25.3390 O   0  0  0  0  0  0  0  0  0  0  0  0
   -8.0210   -4.1100  -25.2350 C   0  0  0  0  0  0  0  0  0  0  0  0
   -7.7440   -4.2250  -26.5960 C   0  0  0  0  0  0  0  0  0  0  0  0
   -6.9810   -3.2750  -27.2360 C   0  0  0  0  0  0  0  0  0  0  0  0
   -6.5150   -2.2080  -26.4770 C   0  0  0  0  0  0  0  0  0  0  0  0
   -5.7810   -1.2710  -27.0990 F   0  0  0  0  0  0  0  0  0  0  0  0
   -6.7600   -2.0720  -25.1220 C   0  0  0  0  0  0  0  0  0  0  0  0
   -7.5440   -3.0380  -24.4640 C   0  0  0  0  0  0  0  0  0  0  0  0
   -6.3140   -1.2220  -24.6110 H   0  0  0  0  0  0  0  0  0  0  0  0
   -6.7700   -3.3460  -28.2960 H   0  0  0  0  0  0  0  0  0  0  0  0
   -8.1440   -5.0780  -27.1370 H   0  0  0  0  0  0  0  0  0  0  0  0
   -7.1570   -4.8360  -22.2410 H   0  0  0  0  0  0  0  0  0  0  0  0
   -8.6500   -4.3240  -21.4690 H   0  0  0  0  0  0  0  0  0  0  0  0
   -9.1920   -1.9820  -20.4770 H   0  0  0  0  0  0  0  0  0  0  0  0
   -9.1240   -0.3580  -21.1500 H   0  0  0  0  0  0  0  0  0  0  0  0
   -9.0250   -1.1590  -23.3920 H   0  0  0  0  0  0  0  0  0  0  0  0
  -10.6200   -3.2450  -21.8120 H   0  0  0  0  0  0  0  0  0  0  0  0
  -11.2450   -1.7390  -22.4760 H   0  0  0  0  0  0  0  0  0  0  0  0
  -10.7590   -3.0580  -23.5580 H   0  0  0  0  0  0  0  0  0  0  0  0
  1  2  1  0  0  0  0
  1 48  1  0  0  0  0
  1 49  1  0  0  0  0
  1 50  1  0  0  0  0
  2  3  1  0  0  0  0
  2 23  1  0  0  0  0
  2 47  1  6  0  0  0
  3  4  1  0  0  0  0
  3 45  1  0  0  0  0
  3 46  1  0  0  0  0
  4  5  1  0  0  0  0
  4 21  1  0  0  0  0
  5  6  2  0  0  0  0
  5 14  1  0  0  0  0
  6  7  1  0  0  0  0
  6 20  1  0  0  0  0
  7  8  2  0  0  0  0
  8  9  1  0  0  0  0
  8 19  1  0  0  0  0
  9 10  2  0  0  0  0
  9 14  1  0  0  0  0
 10 11  1  0  0  0  0
 10 18  1  0  0  0  0
 11 12  2  0  0  0  0
 11 17  1  0  0  0  0
 12 13  1  0  0  0  0
 12 16  1  0  0  0  0
 13 14  2  0  0  0  0
 13 15  1  0  0  0  0
 21 22  2  0  0  0  0
 23 21  1  1  0  0  0
 23 24  1  0  0  0  0
 23 39  1  0  0  0  0
 24 25  1  0  0  0  0
 24 43  1  0  0  0  0
 24 44  1  0  0  0  0
 25 26  1  0  0  0  0
 25 31  1  0  0  0  0
 26 27  1  0  0  0  0
 26 29  1  0  0  0  0
 26 30  1  0  0  0  0
 27 28  3  0  0  0  0
 31 32  2  0  0  0  0
 31 33  1  0  0  0  0
 33 34  2  0  0  0  0
 33 39  1  0  0  0  0
 34 35  1  0  0  0  0
 34 42  1  0  0  0  0
 35 36  2  0  0  0  0
 35 41  1  0  0  0  0
 36 37  1  0  0  0  0
 36 38  1  0  0  0  0
 38 39  2  0  0  0  0
 38 40  1  0  0  0  0
M  END
>  <MODEL>
       1

$$$$
