tmp_first_model_2_4.pdb
 OpenBabel08272517383D

 59 64  0  0  1  0  0  0  0  0999 V2000
   -8.0740   -3.8370  -23.8610 C   0  0  0  0  0  0  0  0  0  0  0  0
   -8.4140   -2.8540  -22.7320 C   0  0  1  0  0  0  0  0  0  0  0  0
   -7.2630   -2.7040  -21.7150 C   0  0  0  0  0  0  0  0  0  0  0  0
   -7.4340   -1.3610  -21.1930 N   0  0  0  0  0  0  0  0  0  0  0  0
   -6.6140   -0.7990  -20.1790 C   0  0  0  0  0  0  0  0  0  0  0  0
   -6.9000   -1.0510  -18.8630 C   0  0  0  0  0  0  0  0  0  0  0  0
   -6.1970   -0.5570  -17.8140 N   0  0  0  0  0  0  0  0  0  0  0  0
   -5.1690    0.2100  -18.0850 C   0  0  0  0  0  0  0  0  0  0  0  0
   -4.7400    0.5320  -19.4040 C   0  0  0  0  0  0  0  0  0  0  0  0
   -3.6060    1.3580  -19.6440 C   0  0  0  0  0  0  0  0  0  0  0  0
   -3.2040    1.6370  -20.9200 C   0  0  0  0  0  0  0  0  0  0  0  0
   -3.9140    1.0950  -22.0210 C   0  0  0  0  0  0  0  0  0  0  0  0
   -5.0120    0.2980  -21.8140 C   0  0  0  0  0  0  0  0  0  0  0  0
   -5.4710    0.0090  -20.4950 C   0  0  0  0  0  0  0  0  0  0  0  0
   -5.5430   -0.1140  -22.6690 H   0  0  0  0  0  0  0  0  0  0  0  0
   -3.6040    1.3200  -23.0370 H   0  0  0  0  0  0  0  0  0  0  0  0
   -2.3480    2.2840  -21.0940 H   0  0  0  0  0  0  0  0  0  0  0  0
   -3.0800    1.7690  -18.7850 H   0  0  0  0  0  0  0  0  0  0  0  0
   -4.6230    0.6140  -17.2320 H   0  0  0  0  0  0  0  0  0  0  0  0
   -7.7480   -1.6820  -18.6010 H   0  0  0  0  0  0  0  0  0  0  0  0
   -8.2390   -0.5600  -21.9690 C   0  0  0  0  0  0  0  0  0  0  0  0
   -8.4310    0.6180  -21.7450 O   0  0  0  0  0  0  0  0  0  0  0  0
   -8.7910   -1.3950  -23.1500 C   0  0  1  0  0  0  0  0  0  0  0  0
   -8.0700   -0.9700  -24.4530 C   0  0  0  0  0  0  0  0  0  0  0  0
   -8.4420    0.3670  -24.8650 N   0  0  0  0  0  0  0  0  0  0  0  0
   -7.3910    1.3670  -25.0200 C   0  0  0  0  0  0  0  0  0  0  0  0
   -6.2980    0.9640  -25.9700 C   0  0  0  0  0  0  0  0  0  0  0  0
   -5.0490    0.7220  -25.6250 N   0  0  0  0  0  0  0  0  0  0  0  0
   -4.4130    0.3460  -26.7820 C   0  0  0  0  0  0  0  0  0  0  0  0
   -5.2930    0.3650  -27.8320 C   0  0  0  0  0  0  0  0  0  0  0  0
   -6.5010    0.7690  -27.3030 N   0  0  0  0  0  0  0  0  0  0  0  0
   -7.7500    0.9200  -28.0270 C   0  0  0  0  0  0  0  0  0  0  0  0
   -8.4610    0.1340  -27.7540 H   0  0  0  0  0  0  0  0  0  0  0  0
   -8.2040    1.8960  -27.8250 H   0  0  0  0  0  0  0  0  0  0  0  0
   -7.5240    0.8480  -29.0940 H   0  0  0  0  0  0  0  0  0  0  0  0
   -5.1960    0.1310  -28.8810 H   0  0  0  0  0  0  0  0  0  0  0  0
   -3.3650    0.0730  -26.7760 H   0  0  0  0  0  0  0  0  0  0  0  0
   -7.9010    2.2810  -25.3420 H   0  0  0  0  0  0  0  0  0  0  0  0
   -6.9120    1.5500  -24.0470 H   0  0  0  0  0  0  0  0  0  0  0  0
   -9.7600    0.7090  -24.9990 C   0  0  0  0  0  0  0  0  0  0  0  0
  -10.1340    1.6580  -25.6790 O   0  0  0  0  0  0  0  0  0  0  0  0
  -10.7310   -0.1430  -24.2270 C   0  0  0  0  0  0  0  0  0  0  0  0
  -12.0940    0.1410  -24.3340 C   0  0  0  0  0  0  0  0  0  0  0  0
  -13.0240   -0.5510  -23.5890 C   0  0  0  0  0  0  0  0  0  0  0  0
  -12.5620   -1.4560  -22.6420 C   0  0  0  0  0  0  0  0  0  0  0  0
  -13.4540   -2.0520  -21.8320 F   0  0  0  0  0  0  0  0  0  0  0  0
  -11.2190   -1.7310  -22.4820 C   0  0  0  0  0  0  0  0  0  0  0  0
  -10.2790   -1.1220  -23.3260 C   0  0  0  0  0  0  0  0  0  0  0  0
  -10.9350   -2.3900  -21.6680 H   0  0  0  0  0  0  0  0  0  0  0  0
  -14.0850   -0.3560  -23.6890 H   0  0  0  0  0  0  0  0  0  0  0  0
  -12.4200    0.9680  -24.9480 H   0  0  0  0  0  0  0  0  0  0  0  0
   -6.9870   -0.9710  -24.3010 H   0  0  0  0  0  0  0  0  0  0  0  0
   -8.3180   -1.6810  -25.2530 H   0  0  0  0  0  0  0  0  0  0  0  0
   -7.3110   -3.4370  -20.9020 H   0  0  0  0  0  0  0  0  0  0  0  0
   -6.2860   -2.8290  -22.2080 H   0  0  0  0  0  0  0  0  0  0  0  0
   -9.2810   -3.2430  -22.1930 H   0  0  0  0  0  0  0  0  0  0  0  0
   -7.9020   -4.8470  -23.4670 H   0  0  0  0  0  0  0  0  0  0  0  0
   -8.8750   -3.9040  -24.6060 H   0  0  0  0  0  0  0  0  0  0  0  0
   -7.1600   -3.5350  -24.3890 H   0  0  0  0  0  0  0  0  0  0  0  0
  1  2  1  0  0  0  0
  1 57  1  0  0  0  0
  1 58  1  0  0  0  0
  1 59  1  0  0  0  0
  2  3  1  0  0  0  0
  2 23  1  0  0  0  0
  2 56  1  1  0  0  0
  3  4  1  0  0  0  0
  3 54  1  0  0  0  0
  3 55  1  0  0  0  0
  4  5  1  0  0  0  0
  4 21  1  0  0  0  0
  5  6  2  0  0  0  0
  5 14  1  0  0  0  0
  6  7  1  0  0  0  0
  6 20  1  0  0  0  0
  7  8  2  0  0  0  0
  8  9  1  0  0  0  0
  8 19  1  0  0  0  0
  9 10  2  0  0  0  0
  9 14  1  0  0  0  0
 10 11  1  0  0  0  0
 10 18  1  0  0  0  0
 11 12  2  0  0  0  0
 11 17  1  0  0  0  0
 12 13  1  0  0  0  0
 12 16  1  0  0  0  0
 13 14  2  0  0  0  0
 13 15  1  0  0  0  0
 21 22  2  0  0  0  0
 23 21  1  1  0  0  0
 23 24  1  0  0  0  0
 23 48  1  0  0  0  0
 24 25  1  0  0  0  0
 24 52  1  0  0  0  0
 24 53  1  0  0  0  0
 25 26  1  0  0  0  0
 25 40  1  0  0  0  0
 26 27  1  0  0  0  0
 26 38  1  0  0  0  0
 26 39  1  0  0  0  0
 27 28  2  0  0  0  0
 27 31  1  0  0  0  0
 28 29  1  0  0  0  0
 29 30  2  0  0  0  0
 29 37  1  0  0  0  0
 30 31  1  0  0  0  0
 30 36  1  0  0  0  0
 31 32  1  0  0  0  0
 32 33  1  0  0  0  0
 32 34  1  0  0  0  0
 32 35  1  0  0  0  0
 40 41  2  0  0  0  0
 40 42  1  0  0  0  0
 42 43  2  0  0  0  0
 42 48  1  0  0  0  0
 43 44  1  0  0  0  0
 43 51  1  0  0  0  0
 44 45  2  0  0  0  0
 44 50  1  0  0  0  0
 45 46  1  0  0  0  0
 45 47  1  0  0  0  0
 47 48  2  0  0  0  0
 47 49  1  0  0  0  0
M  END
>  <MODEL>
       1

$$$$
