tmp_first_model_14_20.pdb
 OpenBabel08282500413D

 66 71  0  0  1  0  0  0  0  0999 V2000
   -7.0350    0.4840  -29.2720 C   0  0  0  0  0  0  0  0  0  0  0  0
   -7.4960   -0.6610  -28.5230 N   0  0  0  0  0  0  0  0  0  0  0  0
   -6.7350   -1.1160  -27.4920 C   0  0  0  0  0  0  0  0  0  0  0  0
   -5.6570   -0.6300  -27.1810 O   0  0  0  0  0  0  0  0  0  0  0  0
   -7.3430   -2.3040  -26.7400 C   0  0  0  0  0  0  0  0  0  0  0  0
   -8.2630   -1.8720  -25.7000 N   0  0  0  0  0  0  0  0  0  0  0  0
   -7.7270   -1.3540  -24.4510 C   0  0  0  0  0  0  0  0  0  0  0  0
   -8.6760   -1.5450  -23.2390 C   0  0  2  0  0  0  0  0  0  0  0  0
   -8.1970   -0.5690  -22.1530 C   0  0  0  0  0  0  0  0  0  0  0  0
   -8.4110    0.6210  -22.0730 O   0  0  0  0  0  0  0  0  0  0  0  0
   -7.3960   -1.2740  -21.2730 N   0  0  0  0  0  0  0  0  0  0  0  0
   -6.6170   -0.6850  -20.2520 C   0  0  0  0  0  0  0  0  0  0  0  0
   -6.9290   -0.9440  -18.9420 C   0  0  0  0  0  0  0  0  0  0  0  0
   -6.2600   -0.4400  -17.8810 N   0  0  0  0  0  0  0  0  0  0  0  0
   -5.2100    0.3040  -18.1310 C   0  0  0  0  0  0  0  0  0  0  0  0
   -4.7330    0.5990  -19.4380 C   0  0  0  0  0  0  0  0  0  0  0  0
   -3.5700    1.3870  -19.6500 C   0  0  0  0  0  0  0  0  0  0  0  0
   -3.1290    1.6380  -20.9190 C   0  0  0  0  0  0  0  0  0  0  0  0
   -3.8130    1.1010  -22.0320 C   0  0  0  0  0  0  0  0  0  0  0  0
   -4.9370    0.3360  -21.8510 C   0  0  0  0  0  0  0  0  0  0  0  0
   -5.4420    0.0830  -20.5450 C   0  0  0  0  0  0  0  0  0  0  0  0
   -5.4480   -0.0840  -22.7120 H   0  0  0  0  0  0  0  0  0  0  0  0
   -3.4510    1.3070  -23.0350 H   0  0  0  0  0  0  0  0  0  0  0  0
   -2.2530    2.2590  -21.0790 H   0  0  0  0  0  0  0  0  0  0  0  0
   -3.0580    1.7940  -18.7820 H   0  0  0  0  0  0  0  0  0  0  0  0
   -4.6790    0.7020  -17.2690 H   0  0  0  0  0  0  0  0  0  0  0  0
   -7.7860   -1.5780  -18.7170 H   0  0  0  0  0  0  0  0  0  0  0  0
   -7.3060   -2.6890  -21.5580 C   0  0  0  0  0  0  0  0  0  0  0  0
   -8.4830   -2.9150  -22.5060 C   0  0  2  0  0  0  0  0  0  0  0  0
   -8.3220   -4.1690  -23.3620 C   0  0  0  0  0  0  0  0  0  0  0  0
   -9.5000   -4.5510  -24.2310 C   0  0  0  0  0  0  0  0  0  0  0  0
   -9.2620   -5.0430  -25.5160 C   0  0  0  0  0  0  0  0  0  0  0  0
  -10.2860   -5.5980  -26.2720 C   0  0  0  0  0  0  0  0  0  0  0  0
  -11.5790   -5.6260  -25.7680 C   0  0  0  0  0  0  0  0  0  0  0  0
  -11.8440   -5.0640  -24.5210 C   0  0  0  0  0  0  0  0  0  0  0  0
  -10.8120   -4.5240  -23.7660 C   0  0  0  0  0  0  0  0  0  0  0  0
  -11.0580   -4.0810  -22.8040 H   0  0  0  0  0  0  0  0  0  0  0  0
  -12.8510   -5.0250  -24.1110 H   0  0  0  0  0  0  0  0  0  0  0  0
  -12.3660   -6.0710  -26.3690 H   0  0  0  0  0  0  0  0  0  0  0  0
  -10.0790   -6.0320  -27.2490 H   0  0  0  0  0  0  0  0  0  0  0  0
   -8.2570   -4.9840  -25.9360 H   0  0  0  0  0  0  0  0  0  0  0  0
   -7.4440   -4.0600  -24.0060 H   0  0  0  0  0  0  0  0  0  0  0  0
   -8.1010   -5.0110  -22.6900 H   0  0  0  0  0  0  0  0  0  0  0  0
   -9.3750   -3.0410  -21.8790 H   0  0  0  0  0  0  0  0  0  0  0  0
   -7.3950   -3.2610  -20.6330 H   0  0  0  0  0  0  0  0  0  0  0  0
   -6.3410   -2.9500  -22.0260 H   0  0  0  0  0  0  0  0  0  0  0  0
  -10.1190   -1.3400  -23.6490 C   0  0  0  0  0  0  0  0  0  0  0  0
  -11.1190   -1.2560  -22.6720 C   0  0  0  0  0  0  0  0  0  0  0  0
  -12.4550   -1.2700  -23.0260 C   0  0  0  0  0  0  0  0  0  0  0  0
  -13.6780   -1.2320  -21.7860 Cl  0  0  0  0  0  0  0  0  0  0  0  0
  -12.8510   -1.3830  -24.3560 C   0  0  0  0  0  0  0  0  0  0  0  0
  -11.8760   -1.4480  -25.3280 C   0  0  0  0  0  0  0  0  0  0  0  0
  -10.5270   -1.4140  -24.9820 C   0  0  0  0  0  0  0  0  0  0  0  0
   -9.5440   -1.6070  -26.0840 C   0  0  0  0  0  0  0  0  0  0  0  0
   -9.8850   -1.5950  -27.2680 O   0  0  0  0  0  0  0  0  0  0  0  0
  -12.1220   -1.5560  -26.3800 H   0  0  0  0  0  0  0  0  0  0  0  0
  -13.9110   -1.4640  -24.5820 H   0  0  0  0  0  0  0  0  0  0  0  0
  -10.8670   -1.2000  -21.6170 H   0  0  0  0  0  0  0  0  0  0  0  0
   -7.5090   -0.2820  -24.5440 H   0  0  0  0  0  0  0  0  0  0  0  0
   -6.7740   -1.8570  -24.2470 H   0  0  0  0  0  0  0  0  0  0  0  0
   -6.5260   -2.8830  -26.2980 H   0  0  0  0  0  0  0  0  0  0  0  0
   -7.9140   -2.9400  -27.4290 H   0  0  0  0  0  0  0  0  0  0  0  0
   -8.4910   -0.8680  -28.4860 H   0  0  0  0  0  0  0  0  0  0  0  0
   -7.6960    0.6490  -30.1260 H   0  0  0  0  0  0  0  0  0  0  0  0
   -6.0250    0.2960  -29.6400 H   0  0  0  0  0  0  0  0  0  0  0  0
   -6.9990    1.3890  -28.6570 H   0  0  0  0  0  0  0  0  0  0  0  0
  1  2  1  0  0  0  0
  1 64  1  0  0  0  0
  1 65  1  0  0  0  0
  1 66  1  0  0  0  0
  2  3  1  0  0  0  0
  2 63  1  0  0  0  0
  3  4  2  0  0  0  0
  3  5  1  0  0  0  0
  5  6  1  0  0  0  0
  5 61  1  0  0  0  0
  5 62  1  0  0  0  0
  6  7  1  0  0  0  0
  6 54  1  0  0  0  0
  7  8  1  0  0  0  0
  7 59  1  0  0  0  0
  7 60  1  0  0  0  0
  8  9  1  1  0  0  0
  8 29  1  0  0  0  0
  8 47  1  0  0  0  0
  9 10  2  0  0  0  0
  9 11  1  0  0  0  0
 11 12  1  0  0  0  0
 11 28  1  0  0  0  0
 12 13  2  0  0  0  0
 12 21  1  0  0  0  0
 13 14  1  0  0  0  0
 13 27  1  0  0  0  0
 14 15  2  0  0  0  0
 15 16  1  0  0  0  0
 15 26  1  0  0  0  0
 16 17  2  0  0  0  0
 16 21  1  0  0  0  0
 17 18  1  0  0  0  0
 17 25  1  0  0  0  0
 18 19  2  0  0  0  0
 18 24  1  0  0  0  0
 19 20  1  0  0  0  0
 19 23  1  0  0  0  0
 20 21  2  0  0  0  0
 20 22  1  0  0  0  0
 28 29  1  0  0  0  0
 28 45  1  0  0  0  0
 28 46  1  0  0  0  0
 29 30  1  0  0  0  0
 29 44  1  1  0  0  0
 30 31  1  0  0  0  0
 30 42  1  0  0  0  0
 30 43  1  0  0  0  0
 31 32  2  0  0  0  0
 31 36  1  0  0  0  0
 32 33  1  0  0  0  0
 32 41  1  0  0  0  0
 33 34  2  0  0  0  0
 33 40  1  0  0  0  0
 34 35  1  0  0  0  0
 34 39  1  0  0  0  0
 35 36  2  0  0  0  0
 35 38  1  0  0  0  0
 36 37  1  0  0  0  0
 47 48  2  0  0  0  0
 47 53  1  0  0  0  0
 48 49  1  0  0  0  0
 48 58  1  0  0  0  0
 49 50  1  0  0  0  0
 49 51  2  0  0  0  0
 51 52  1  0  0  0  0
 51 57  1  0  0  0  0
 52 53  2  0  0  0  0
 52 56  1  0  0  0  0
 53 54  1  0  0  0  0
 54 55  2  0  0  0  0
M  END
>  <MODEL>
       1

$$$$
