tmp_first_model_7_84.pdb
 OpenBabel08272520323D

 63 68  0  0  1  0  0  0  0  0999 V2000
   -7.4470   -2.4630  -24.3720 C   0  0  0  0  0  0  0  0  0  0  0  0
   -8.2500   -2.4790  -23.0630 C   0  0  1  0  0  0  0  0  0  0  0  0
   -7.3080   -2.5530  -21.8370 C   0  0  0  0  0  0  0  0  0  0  0  0
   -7.4520   -1.2660  -21.2010 N   0  0  0  0  0  0  0  0  0  0  0  0
   -6.6080   -0.7670  -20.1790 C   0  0  0  0  0  0  0  0  0  0  0  0
   -6.9040   -1.0260  -18.8680 C   0  0  0  0  0  0  0  0  0  0  0  0
   -6.1850   -0.5620  -17.8200 N   0  0  0  0  0  0  0  0  0  0  0  0
   -5.1550    0.2000  -18.0910 C   0  0  0  0  0  0  0  0  0  0  0  0
   -4.7410    0.5530  -19.4060 C   0  0  0  0  0  0  0  0  0  0  0  0
   -3.6270    1.3980  -19.6460 C   0  0  0  0  0  0  0  0  0  0  0  0
   -3.2580    1.7160  -20.9240 C   0  0  0  0  0  0  0  0  0  0  0  0
   -3.9820    1.2060  -22.0240 C   0  0  0  0  0  0  0  0  0  0  0  0
   -5.0690    0.3900  -21.8200 C   0  0  0  0  0  0  0  0  0  0  0  0
   -5.4840    0.0500  -20.5010 C   0  0  0  0  0  0  0  0  0  0  0  0
   -5.6230    0.0020  -22.6700 H   0  0  0  0  0  0  0  0  0  0  0  0
   -3.6830    1.4770  -23.0340 H   0  0  0  0  0  0  0  0  0  0  0  0
   -2.4050    2.3640  -21.0980 H   0  0  0  0  0  0  0  0  0  0  0  0
   -3.0860    1.7900  -18.7900 H   0  0  0  0  0  0  0  0  0  0  0  0
   -4.5860    0.5860  -17.2440 H   0  0  0  0  0  0  0  0  0  0  0  0
   -7.7710   -1.6370  -18.6240 H   0  0  0  0  0  0  0  0  0  0  0  0
   -8.5040   -0.5090  -21.6430 C   0  0  0  0  0  0  0  0  0  0  0  0
   -8.8110    0.5680  -21.1660 O   0  0  0  0  0  0  0  0  0  0  0  0
   -9.1760   -1.2370  -22.8230 C   0  0  1  0  0  0  0  0  0  0  0  0
   -9.2370   -0.2930  -24.0500 C   0  0  0  0  0  0  0  0  0  0  0  0
  -10.1090    0.8480  -23.8350 N   0  0  0  0  0  0  0  0  0  0  0  0
   -9.7830    2.1370  -24.4220 C   0  0  0  0  0  0  0  0  0  0  0  0
   -9.1560    3.1080  -23.4170 C   0  0  0  0  0  0  0  0  0  0  0  0
   -9.7670    4.0810  -23.0180 O   0  0  0  0  0  0  0  0  0  0  0  0
   -7.8830    2.7980  -23.0290 N   0  0  0  0  0  0  0  0  0  0  0  0
   -7.2420    3.4770  -21.9250 C   0  0  0  0  0  0  0  0  0  0  0  0
   -6.6150    4.7900  -22.2950 C   0  0  0  0  0  0  0  0  0  0  0  0
   -7.5620    5.7480  -22.5520 F   0  0  0  0  0  0  0  0  0  0  0  0
   -5.3860    5.2910  -21.6280 C   0  0  0  0  0  0  0  0  0  0  0  0
   -5.3770    4.9400  -23.0960 C   0  0  0  0  0  0  0  0  0  0  0  0
   -4.8500    4.0490  -23.4100 H   0  0  0  0  0  0  0  0  0  0  0  0
   -5.4130    5.7690  -23.7920 H   0  0  0  0  0  0  0  0  0  0  0  0
   -4.8620    4.6380  -20.9350 H   0  0  0  0  0  0  0  0  0  0  0  0
   -5.3930    6.3410  -21.3710 H   0  0  0  0  0  0  0  0  0  0  0  0
   -6.4860    2.8080  -21.5000 H   0  0  0  0  0  0  0  0  0  0  0  0
   -8.0030    3.6720  -21.1700 H   0  0  0  0  0  0  0  0  0  0  0  0
   -7.4930    1.9050  -23.2900 H   0  0  0  0  0  0  0  0  0  0  0  0
   -9.1220    1.9880  -25.2820 H   0  0  0  0  0  0  0  0  0  0  0  0
  -10.7020    2.5950  -24.7860 H   0  0  0  0  0  0  0  0  0  0  0  0
  -11.3510    0.6870  -23.2830 C   0  0  0  0  0  0  0  0  0  0  0  0
  -12.1870    1.5820  -23.2850 O   0  0  0  0  0  0  0  0  0  0  0  0
  -11.6390   -0.6530  -22.6810 C   0  0  0  0  0  0  0  0  0  0  0  0
  -12.9590   -0.9190  -22.3110 C   0  0  0  0  0  0  0  0  0  0  0  0
  -13.2970   -2.1180  -21.7180 C   0  0  0  0  0  0  0  0  0  0  0  0
  -12.2740   -3.0240  -21.4750 C   0  0  0  0  0  0  0  0  0  0  0  0
  -12.5860   -4.1770  -20.8660 F   0  0  0  0  0  0  0  0  0  0  0  0
  -10.9570   -2.7810  -21.8150 C   0  0  0  0  0  0  0  0  0  0  0  0
  -10.6170   -1.5850  -22.4570 C   0  0  0  0  0  0  0  0  0  0  0  0
  -10.2190   -3.5260  -21.5410 H   0  0  0  0  0  0  0  0  0  0  0  0
  -14.3140   -2.3530  -21.4210 H   0  0  0  0  0  0  0  0  0  0  0  0
  -13.7060   -0.1540  -22.4880 H   0  0  0  0  0  0  0  0  0  0  0  0
   -9.5970   -0.8760  -24.9090 H   0  0  0  0  0  0  0  0  0  0  0  0
   -8.2350    0.0800  -24.2740 H   0  0  0  0  0  0  0  0  0  0  0  0
   -6.2620   -2.7140  -22.1270 H   0  0  0  0  0  0  0  0  0  0  0  0
   -7.5860   -3.3670  -21.1540 H   0  0  0  0  0  0  0  0  0  0  0  0
   -8.8680   -3.3810  -23.1160 H   0  0  0  0  0  0  0  0  0  0  0  0
   -6.8380   -3.3710  -24.4520 H   0  0  0  0  0  0  0  0  0  0  0  0
   -8.1070   -2.4330  -25.2450 H   0  0  0  0  0  0  0  0  0  0  0  0
   -6.7680   -1.6030  -24.4230 H   0  0  0  0  0  0  0  0  0  0  0  0
  1  2  1  0  0  0  0
  1 61  1  0  0  0  0
  1 62  1  0  0  0  0
  1 63  1  0  0  0  0
  2  3  1  0  0  0  0
  2 23  1  0  0  0  0
  2 60  1  1  0  0  0
  3  4  1  0  0  0  0
  3 58  1  0  0  0  0
  3 59  1  0  0  0  0
  4  5  1  0  0  0  0
  4 21  1  0  0  0  0
  5  6  2  0  0  0  0
  5 14  1  0  0  0  0
  6  7  1  0  0  0  0
  6 20  1  0  0  0  0
  7  8  2  0  0  0  0
  8  9  1  0  0  0  0
  8 19  1  0  0  0  0
  9 10  2  0  0  0  0
  9 14  1  0  0  0  0
 10 11  1  0  0  0  0
 10 18  1  0  0  0  0
 11 12  2  0  0  0  0
 11 17  1  0  0  0  0
 12 13  1  0  0  0  0
 12 16  1  0  0  0  0
 13 14  2  0  0  0  0
 13 15  1  0  0  0  0
 21 22  2  0  0  0  0
 23 21  1  1  0  0  0
 23 24  1  0  0  0  0
 23 52  1  0  0  0  0
 24 25  1  0  0  0  0
 24 56  1  0  0  0  0
 24 57  1  0  0  0  0
 25 26  1  0  0  0  0
 25 44  1  0  0  0  0
 26 27  1  0  0  0  0
 26 42  1  0  0  0  0
 26 43  1  0  0  0  0
 27 28  2  0  0  0  0
 27 29  1  0  0  0  0
 29 30  1  0  0  0  0
 29 41  1  0  0  0  0
 30 31  1  0  0  0  0
 30 39  1  0  0  0  0
 30 40  1  0  0  0  0
 31 32  1  0  0  0  0
 31 33  1  0  0  0  0
 31 34  1  0  0  0  0
 33 34  1  0  0  0  0
 33 37  1  0  0  0  0
 33 38  1  0  0  0  0
 34 35  1  0  0  0  0
 34 36  1  0  0  0  0
 44 45  2  0  0  0  0
 44 46  1  0  0  0  0
 46 47  2  0  0  0  0
 46 52  1  0  0  0  0
 47 48  1  0  0  0  0
 47 55  1  0  0  0  0
 48 49  2  0  0  0  0
 48 54  1  0  0  0  0
 49 50  1  0  0  0  0
 49 51  1  0  0  0  0
 51 52  2  0  0  0  0
 51 53  1  0  0  0  0
M  END
>  <MODEL>
       1

$$$$
