tmp_first_model_10_46.pdb
 OpenBabel08272522163D

 50 54  0  0  1  0  0  0  0  0999 V2000
   -8.3540   -4.1600  -23.4470 C   0  0  0  0  0  0  0  0  0  0  0  0
   -8.5500   -2.9950  -22.4930 C   0  0  1  0  0  0  0  0  0  0  0  0
   -7.4040   -2.8090  -21.4930 C   0  0  0  0  0  0  0  0  0  0  0  0
   -7.4530   -1.3850  -21.1970 N   0  0  0  0  0  0  0  0  0  0  0  0
   -6.6710   -0.7850  -20.1840 C   0  0  0  0  0  0  0  0  0  0  0  0
   -6.9200   -1.1040  -18.8720 C   0  0  0  0  0  0  0  0  0  0  0  0
   -6.2340   -0.6190  -17.8110 N   0  0  0  0  0  0  0  0  0  0  0  0
   -5.2190    0.1710  -18.0760 C   0  0  0  0  0  0  0  0  0  0  0  0
   -4.8400    0.5730  -19.3910 C   0  0  0  0  0  0  0  0  0  0  0  0
   -3.7420    1.4490  -19.5950 C   0  0  0  0  0  0  0  0  0  0  0  0
   -3.4810    1.9450  -20.8430 C   0  0  0  0  0  0  0  0  0  0  0  0
   -4.2570    1.5220  -21.9460 C   0  0  0  0  0  0  0  0  0  0  0  0
   -5.2700    0.6120  -21.7890 C   0  0  0  0  0  0  0  0  0  0  0  0
   -5.6030    0.1200  -20.4900 C   0  0  0  0  0  0  0  0  0  0  0  0
   -5.8420    0.3050  -22.6580 H   0  0  0  0  0  0  0  0  0  0  0  0
   -4.0610    1.9540  -22.9250 H   0  0  0  0  0  0  0  0  0  0  0  0
   -2.7130    2.6960  -20.9860 H   0  0  0  0  0  0  0  0  0  0  0  0
   -3.1430    1.7360  -18.7350 H   0  0  0  0  0  0  0  0  0  0  0  0
   -4.6520    0.5490  -17.2250 H   0  0  0  0  0  0  0  0  0  0  0  0
   -7.7390   -1.7830  -18.6360 H   0  0  0  0  0  0  0  0  0  0  0  0
   -8.1840   -0.6500  -22.1080 C   0  0  0  0  0  0  0  0  0  0  0  0
   -8.3100    0.5570  -22.0810 O   0  0  0  0  0  0  0  0  0  0  0  0
   -8.7530   -1.5950  -23.1750 C   0  0  1  0  0  0  0  0  0  0  0  0
   -7.9350   -1.3340  -24.4690 C   0  0  0  0  0  0  0  0  0  0  0  0
   -8.5520   -1.9410  -25.6470 N   0  0  0  0  0  0  0  0  0  0  0  0
   -7.7670   -2.4230  -26.7710 C   0  0  0  0  0  0  0  0  0  0  0  0
   -7.9150   -3.8810  -26.9290 C   0  0  0  0  0  0  0  0  0  0  0  0
   -8.0840   -5.0180  -27.0450 N   0  0  0  0  0  0  0  0  0  0  0  0
   -8.1590   -1.9560  -27.6790 H   0  0  0  0  0  0  0  0  0  0  0  0
   -6.7140   -2.1590  -26.6500 H   0  0  0  0  0  0  0  0  0  0  0  0
   -9.8900   -1.7750  -25.9150 C   0  0  0  0  0  0  0  0  0  0  0  0
  -10.3610   -1.9410  -27.0340 O   0  0  0  0  0  0  0  0  0  0  0  0
  -10.7410   -1.3970  -24.7610 C   0  0  0  0  0  0  0  0  0  0  0  0
  -12.0970   -1.1970  -25.0080 C   0  0  0  0  0  0  0  0  0  0  0  0
  -12.9660   -0.8940  -23.9810 C   0  0  0  0  0  0  0  0  0  0  0  0
  -12.4370   -0.8270  -22.6980 C   0  0  0  0  0  0  0  0  0  0  0  0
  -13.2770   -0.5860  -21.6840 F   0  0  0  0  0  0  0  0  0  0  0  0
  -11.0930   -1.0180  -22.4300 C   0  0  0  0  0  0  0  0  0  0  0  0
  -10.2120   -1.3050  -23.4730 C   0  0  0  0  0  0  0  0  0  0  0  0
  -10.7190   -0.9390  -21.4170 H   0  0  0  0  0  0  0  0  0  0  0  0
  -14.0220   -0.7230  -24.1620 H   0  0  0  0  0  0  0  0  0  0  0  0
  -12.4440   -1.3010  -26.0290 H   0  0  0  0  0  0  0  0  0  0  0  0
   -6.9110   -1.7160  -24.3590 H   0  0  0  0  0  0  0  0  0  0  0  0
   -7.8630   -0.2400  -24.6010 H   0  0  0  0  0  0  0  0  0  0  0  0
   -7.5510   -3.3990  -20.5830 H   0  0  0  0  0  0  0  0  0  0  0  0
   -6.4270   -3.0960  -21.9130 H   0  0  0  0  0  0  0  0  0  0  0  0
   -9.4590   -3.1720  -21.8990 H   0  0  0  0  0  0  0  0  0  0  0  0
   -7.4490   -4.0090  -24.0470 H   0  0  0  0  0  0  0  0  0  0  0  0
   -8.2550   -5.1000  -22.8950 H   0  0  0  0  0  0  0  0  0  0  0  0
   -9.2050   -4.2340  -24.1290 H   0  0  0  0  0  0  0  0  0  0  0  0
  1  2  1  0  0  0  0
  1 48  1  0  0  0  0
  1 49  1  0  0  0  0
  1 50  1  0  0  0  0
  2  3  1  0  0  0  0
  2 23  1  0  0  0  0
  2 47  1  1  0  0  0
  3  4  1  0  0  0  0
  3 45  1  0  0  0  0
  3 46  1  0  0  0  0
  4  5  1  0  0  0  0
  4 21  1  0  0  0  0
  5  6  2  0  0  0  0
  5 14  1  0  0  0  0
  6  7  1  0  0  0  0
  6 20  1  0  0  0  0
  7  8  2  0  0  0  0
  8  9  1  0  0  0  0
  8 19  1  0  0  0  0
  9 10  2  0  0  0  0
  9 14  1  0  0  0  0
 10 11  1  0  0  0  0
 10 18  1  0  0  0  0
 11 12  2  0  0  0  0
 11 17  1  0  0  0  0
 12 13  1  0  0  0  0
 12 16  1  0  0  0  0
 13 14  2  0  0  0  0
 13 15  1  0  0  0  0
 21 22  2  0  0  0  0
 23 21  1  1  0  0  0
 23 24  1  0  0  0  0
 23 39  1  0  0  0  0
 24 25  1  0  0  0  0
 24 43  1  0  0  0  0
 24 44  1  0  0  0  0
 25 26  1  0  0  0  0
 25 31  1  0  0  0  0
 26 27  1  0  0  0  0
 26 29  1  0  0  0  0
 26 30  1  0  0  0  0
 27 28  3  0  0  0  0
 31 32  2  0  0  0  0
 31 33  1  0  0  0  0
 33 34  2  0  0  0  0
 33 39  1  0  0  0  0
 34 35  1  0  0  0  0
 34 42  1  0  0  0  0
 35 36  2  0  0  0  0
 35 41  1  0  0  0  0
 36 37  1  0  0  0  0
 36 38  1  0  0  0  0
 38 39  2  0  0  0  0
 38 40  1  0  0  0  0
M  END
>  <MODEL>
       1

$$$$
