tmp_first_model_3_69.pdb
 OpenBabel08272518143D

 63 67  0  0  0  0  0  0  0  0999 V2000
  -12.3440    6.3710  -23.9730 C   0  0  0  0  0  0  0  0  0  0  0  0
  -11.4930    5.3640  -23.8400 C   0  0  0  0  0  0  0  0  0  0  0  0
  -10.5720    5.0610  -24.9720 C   0  0  0  0  0  0  0  0  0  0  0  0
  -10.3800    5.8460  -25.8920 O   0  0  0  0  0  0  0  0  0  0  0  0
   -9.8800    3.8640  -24.9040 N   0  0  0  0  0  0  0  0  0  0  0  0
   -8.5600    3.8620  -25.5140 C   0  0  0  0  0  0  0  0  0  0  0  0
   -7.6040    3.1940  -24.5510 C   0  0  0  0  0  0  0  0  0  0  0  0
   -8.0400    1.7510  -24.3580 C   0  0  0  0  0  0  0  0  0  0  0  0
   -9.5190    1.6200  -24.0390 C   0  0  0  0  0  0  0  0  0  0  0  0
  -10.4050    2.6540  -24.3960 C   0  0  0  0  0  0  0  0  0  0  0  0
  -11.7920    2.4630  -24.2970 C   0  0  0  0  0  0  0  0  0  0  0  0
  -12.2940    1.2840  -23.7800 C   0  0  0  0  0  0  0  0  0  0  0  0
  -11.4270    0.2850  -23.3430 C   0  0  0  0  0  0  0  0  0  0  0  0
  -10.0540    0.4580  -23.4770 C   0  0  0  0  0  0  0  0  0  0  0  0
   -9.1520   -0.6810  -23.0060 N   0  3  0  0  0  0  0  0  0  0  0  0
   -8.3680   -1.3950  -24.2100 C   0  0  0  0  0  0  0  0  0  0  0  0
   -8.4130   -2.9140  -24.1860 C   0  0  0  0  0  0  0  0  0  0  0  0
   -7.2080   -3.6160  -24.0910 C   0  0  0  0  0  0  0  0  0  0  0  0
   -7.1750   -5.0030  -24.1100 C   0  0  0  0  0  0  0  0  0  0  0  0
   -8.3380   -5.7330  -24.2750 C   0  0  0  0  0  0  0  0  0  0  0  0
   -9.5330   -5.0490  -24.4330 C   0  0  0  0  0  0  0  0  0  0  0  0
  -10.9120   -6.0450  -24.8170 Cl  0  0  0  0  0  0  0  0  0  0  0  0
   -9.5940   -3.6570  -24.3460 C   0  0  0  0  0  0  0  0  0  0  0  0
  -10.5480   -3.1410  -24.4020 H   0  0  0  0  0  0  0  0  0  0  0  0
   -8.3470   -6.8170  -24.2800 H   0  0  0  0  0  0  0  0  0  0  0  0
   -6.2320   -5.5320  -24.0320 H   0  0  0  0  0  0  0  0  0  0  0  0
   -6.2640   -3.0820  -24.0360 H   0  0  0  0  0  0  0  0  0  0  0  0
   -7.3280   -1.0430  -24.2120 H   0  0  0  0  0  0  0  0  0  0  0  0
   -8.8370   -1.0110  -25.1160 H   0  0  0  0  0  0  0  0  0  0  0  0
   -8.3950   -0.3250  -21.7480 C   0  0  0  0  0  0  0  0  0  0  0  0
   -8.5780    0.7220  -21.1950 O   0  0  0  0  0  0  0  0  0  0  0  0
   -7.4540   -1.4110  -21.2270 C   0  0  0  0  0  0  0  0  0  0  0  0
   -6.5620   -0.8660  -20.1470 C   0  0  0  0  0  0  0  0  0  0  0  0
   -6.8720   -1.0580  -18.8270 C   0  0  0  0  0  0  0  0  0  0  0  0
   -6.1930   -0.5380  -17.7670 N   0  0  0  0  0  0  0  0  0  0  0  0
   -5.1610    0.2190  -18.0540 C   0  0  0  0  0  0  0  0  0  0  0  0
   -4.7280    0.5160  -19.3740 C   0  0  0  0  0  0  0  0  0  0  0  0
   -3.6150    1.3600  -19.6200 C   0  0  0  0  0  0  0  0  0  0  0  0
   -3.2310    1.6520  -20.8990 C   0  0  0  0  0  0  0  0  0  0  0  0
   -3.9490    1.1150  -21.9910 C   0  0  0  0  0  0  0  0  0  0  0  0
   -5.0320    0.2960  -21.7810 C   0  0  0  0  0  0  0  0  0  0  0  0
   -5.4490   -0.0320  -20.4600 C   0  0  0  0  0  0  0  0  0  0  0  0
   -5.5900   -0.0840  -22.6350 H   0  0  0  0  0  0  0  0  0  0  0  0
   -3.6440    1.3670  -23.0020 H   0  0  0  0  0  0  0  0  0  0  0  0
   -2.3830    2.3030  -21.0820 H   0  0  0  0  0  0  0  0  0  0  0  0
   -3.0950    1.7850  -18.7670 H   0  0  0  0  0  0  0  0  0  0  0  0
   -4.6150    0.6580  -17.2180 H   0  0  0  0  0  0  0  0  0  0  0  0
   -7.7290   -1.6770  -18.5610 H   0  0  0  0  0  0  0  0  0  0  0  0
   -8.0680   -2.2350  -20.8350 H   0  0  0  0  0  0  0  0  0  0  0  0
   -6.8770   -1.8090  -22.0660 H   0  0  0  0  0  0  0  0  0  0  0  0
   -9.8150   -1.4360  -22.7180 H   0  0  0  0  0  0  0  0  0  0  0  0
  -11.8280   -0.6300  -22.9170 H   0  0  0  0  0  0  0  0  0  0  0  0
  -13.3700    1.1450  -23.6960 H   0  0  0  0  0  0  0  0  0  0  0  0
  -12.4740    3.2460  -24.6160 H   0  0  0  0  0  0  0  0  0  0  0  0
   -7.8260    1.2040  -25.2880 H   0  0  0  0  0  0  0  0  0  0  0  0
   -7.4290    1.2920  -23.5790 H   0  0  0  0  0  0  0  0  0  0  0  0
   -6.5760    3.2530  -24.9230 H   0  0  0  0  0  0  0  0  0  0  0  0
   -7.6400    3.7210  -23.5930 H   0  0  0  0  0  0  0  0  0  0  0  0
   -8.6150    3.3420  -26.4790 H   0  0  0  0  0  0  0  0  0  0  0  0
   -8.2990    4.9030  -25.7070 H   0  0  0  0  0  0  0  0  0  0  0  0
  -11.4390    4.7360  -22.9490 H   0  0  0  0  0  0  0  0  0  0  0  0
  -12.3310    6.9570  -24.8910 H   0  0  0  0  0  0  0  0  0  0  0  0
  -13.0340    6.6410  -23.1830 H   0  0  0  0  0  0  0  0  0  0  0  0
  1  2  2  0  0  0  0
  1 62  1  0  0  0  0
  1 63  1  0  0  0  0
  2  3  1  0  0  0  0
  2 61  1  0  0  0  0
  3  4  2  0  0  0  0
  3  5  1  0  0  0  0
  5  6  1  0  0  0  0
  5 10  1  0  0  0  0
  6  7  1  0  0  0  0
  6 59  1  0  0  0  0
  6 60  1  0  0  0  0
  7  8  1  0  0  0  0
  7 57  1  0  0  0  0
  7 58  1  0  0  0  0
  8  9  1  0  0  0  0
  8 55  1  0  0  0  0
  8 56  1  0  0  0  0
  9 10  2  0  0  0  0
  9 14  1  0  0  0  0
 10 11  1  0  0  0  0
 11 12  2  0  0  0  0
 11 54  1  0  0  0  0
 12 13  1  0  0  0  0
 12 53  1  0  0  0  0
 13 14  2  0  0  0  0
 13 52  1  0  0  0  0
 14 15  1  0  0  0  0
 15 16  1  0  0  0  0
 15 30  1  0  0  0  0
 15 51  1  0  0  0  0
 16 17  1  0  0  0  0
 16 28  1  0  0  0  0
 16 29  1  0  0  0  0
 17 18  2  0  0  0  0
 17 23  1  0  0  0  0
 18 19  1  0  0  0  0
 18 27  1  0  0  0  0
 19 20  2  0  0  0  0
 19 26  1  0  0  0  0
 20 21  1  0  0  0  0
 20 25  1  0  0  0  0
 21 22  1  0  0  0  0
 21 23  2  0  0  0  0
 23 24  1  0  0  0  0
 30 31  2  0  0  0  0
 30 32  1  0  0  0  0
 32 33  1  0  0  0  0
 32 49  1  0  0  0  0
 32 50  1  0  0  0  0
 33 34  2  0  0  0  0
 33 42  1  0  0  0  0
 34 35  1  0  0  0  0
 34 48  1  0  0  0  0
 35 36  2  0  0  0  0
 36 37  1  0  0  0  0
 36 47  1  0  0  0  0
 37 38  2  0  0  0  0
 37 42  1  0  0  0  0
 38 39  1  0  0  0  0
 38 46  1  0  0  0  0
 39 40  2  0  0  0  0
 39 45  1  0  0  0  0
 40 41  1  0  0  0  0
 40 44  1  0  0  0  0
 41 42  2  0  0  0  0
 41 43  1  0  0  0  0
M  CHG  1  15   1
M  END
>  <MODEL>
       1

$$$$
