tmp_first_model_12_70.pdb
 OpenBabel08272523333D

 52 54  0  0  0  0  0  0  0  0999 V2000
  -11.0120   -7.4180  -26.8370 C   0  0  0  0  0  0  0  0  0  0  0  0
  -10.0030   -6.3340  -26.4860 C   0  0  0  0  0  0  0  0  0  0  0  0
  -10.5810   -4.9860  -26.9030 C   0  0  0  0  0  0  0  0  0  0  0  0
  -11.0410   -5.0490  -27.8910 H   0  0  0  0  0  0  0  0  0  0  0  0
   -9.8380   -4.1890  -26.9320 H   0  0  0  0  0  0  0  0  0  0  0  0
  -11.3720   -4.6700  -26.2160 H   0  0  0  0  0  0  0  0  0  0  0  0
   -9.6710   -6.3760  -24.9820 C   0  0  0  0  0  0  0  0  0  0  0  0
   -8.5460   -5.4490  -24.4660 C   0  0  0  0  0  0  0  0  0  0  0  0
   -7.3870   -5.5200  -25.4800 C   0  0  0  0  0  0  0  0  0  0  0  0
   -7.0990   -6.5630  -25.6610 H   0  0  0  0  0  0  0  0  0  0  0  0
   -6.4870   -4.9860  -25.1690 H   0  0  0  0  0  0  0  0  0  0  0  0
   -7.6820   -5.0860  -26.4400 H   0  0  0  0  0  0  0  0  0  0  0  0
   -8.0540   -5.9670  -23.0900 C   0  0  0  0  0  0  0  0  0  0  0  0
   -6.9740   -5.0510  -22.5350 C   0  0  0  0  0  0  0  0  0  0  0  0
   -7.5290   -3.7160  -22.3380 N   0  0  0  0  0  0  0  0  0  0  0  0
   -6.7490   -2.8160  -21.6760 C   0  0  0  0  0  0  0  0  0  0  0  0
   -5.5800   -3.0460  -21.4020 O   0  0  0  0  0  0  0  0  0  0  0  0
   -7.4220   -1.5010  -21.2590 C   0  0  0  0  0  0  0  0  0  0  0  0
   -6.6470   -0.8000  -20.1880 C   0  0  0  0  0  0  0  0  0  0  0  0
   -6.9270   -1.0870  -18.8800 C   0  0  0  0  0  0  0  0  0  0  0  0
   -6.2560   -0.6040  -17.8040 N   0  0  0  0  0  0  0  0  0  0  0  0
   -5.2280    0.1720  -18.0560 C   0  0  0  0  0  0  0  0  0  0  0  0
   -4.8070    0.5410  -19.3630 C   0  0  0  0  0  0  0  0  0  0  0  0
   -3.6930    1.3900  -19.5790 C   0  0  0  0  0  0  0  0  0  0  0  0
   -3.3750    1.8140  -20.8420 C   0  0  0  0  0  0  0  0  0  0  0  0
   -4.1760    1.4250  -21.9430 C   0  0  0  0  0  0  0  0  0  0  0  0
   -5.2400    0.5780  -21.7630 C   0  0  0  0  0  0  0  0  0  0  0  0
   -5.5680    0.0890  -20.4690 C   0  0  0  0  0  0  0  0  0  0  0  0
   -5.8340    0.2680  -22.6200 H   0  0  0  0  0  0  0  0  0  0  0  0
   -3.9280    1.7870  -22.9390 H   0  0  0  0  0  0  0  0  0  0  0  0
   -2.5240    2.4690  -21.0030 H   0  0  0  0  0  0  0  0  0  0  0  0
   -3.1220    1.7230  -18.7140 H   0  0  0  0  0  0  0  0  0  0  0  0
   -4.6840    0.5630  -17.1950 H   0  0  0  0  0  0  0  0  0  0  0  0
   -7.7440   -1.7690  -18.6420 H   0  0  0  0  0  0  0  0  0  0  0  0
   -7.5630   -0.8730  -22.1460 H   0  0  0  0  0  0  0  0  0  0  0  0
   -8.4220   -1.7380  -20.8700 H   0  0  0  0  0  0  0  0  0  0  0  0
   -8.8740   -3.4580  -22.8530 C   0  0  0  0  0  0  0  0  0  0  0  0
   -9.0410   -3.9830  -24.2830 C   0  0  0  0  0  0  0  0  0  0  0  0
  -10.1060   -3.8990  -24.5270 H   0  0  0  0  0  0  0  0  0  0  0  0
   -8.4990   -3.3130  -24.9650 H   0  0  0  0  0  0  0  0  0  0  0  0
   -9.6310   -3.9190  -22.2030 H   0  0  0  0  0  0  0  0  0  0  0  0
   -9.0600   -2.3810  -22.8490 H   0  0  0  0  0  0  0  0  0  0  0  0
   -6.1190   -4.9950  -23.2190 H   0  0  0  0  0  0  0  0  0  0  0  0
   -6.5540   -5.4140  -21.5920 H   0  0  0  0  0  0  0  0  0  0  0  0
   -8.8880   -6.0070  -22.3720 H   0  0  0  0  0  0  0  0  0  0  0  0
   -7.6620   -6.9880  -23.1720 H   0  0  0  0  0  0  0  0  0  0  0  0
  -10.5960   -6.1630  -24.4240 H   0  0  0  0  0  0  0  0  0  0  0  0
   -9.4110   -7.4090  -24.7220 H   0  0  0  0  0  0  0  0  0  0  0  0
   -9.1050   -6.5340  -27.0830 H   0  0  0  0  0  0  0  0  0  0  0  0
  -10.6350   -8.4280  -26.6450 H   0  0  0  0  0  0  0  0  0  0  0  0
  -11.8920   -7.2600  -26.2080 H   0  0  0  0  0  0  0  0  0  0  0  0
  -11.3210   -7.3380  -27.8880 H   0  0  0  0  0  0  0  0  0  0  0  0
  1  2  1  0  0  0  0
  1 50  1  0  0  0  0
  1 51  1  0  0  0  0
  1 52  1  0  0  0  0
  2  3  1  0  0  0  0
  2  7  1  0  0  0  0
  2 49  1  0  0  0  0
  3  4  1  0  0  0  0
  3  5  1  0  0  0  0
  3  6  1  0  0  0  0
  7  8  1  0  0  0  0
  7 47  1  0  0  0  0
  7 48  1  0  0  0  0
  8  9  1  0  0  0  0
  8 13  1  0  0  0  0
  8 38  1  0  0  0  0
  9 10  1  0  0  0  0
  9 11  1  0  0  0  0
  9 12  1  0  0  0  0
 13 14  1  0  0  0  0
 13 45  1  0  0  0  0
 13 46  1  0  0  0  0
 14 15  1  0  0  0  0
 14 43  1  0  0  0  0
 14 44  1  0  0  0  0
 15 16  1  0  0  0  0
 15 37  1  0  0  0  0
 16 17  2  0  0  0  0
 16 18  1  0  0  0  0
 18 19  1  0  0  0  0
 18 35  1  0  0  0  0
 18 36  1  0  0  0  0
 19 20  2  0  0  0  0
 19 28  1  0  0  0  0
 20 21  1  0  0  0  0
 20 34  1  0  0  0  0
 21 22  2  0  0  0  0
 22 23  1  0  0  0  0
 22 33  1  0  0  0  0
 23 24  2  0  0  0  0
 23 28  1  0  0  0  0
 24 25  1  0  0  0  0
 24 32  1  0  0  0  0
 25 26  2  0  0  0  0
 25 31  1  0  0  0  0
 26 27  1  0  0  0  0
 26 30  1  0  0  0  0
 27 28  2  0  0  0  0
 27 29  1  0  0  0  0
 37 38  1  0  0  0  0
 37 41  1  0  0  0  0
 37 42  1  0  0  0  0
 38 39  1  0  0  0  0
 38 40  1  0  0  0  0
M  END
>  <MODEL>
       1

$$$$
