tmp_first_model_11_37.pdb
 OpenBabel08272522543D

 56 60  0  0  1  0  0  0  0  0999 V2000
  -14.5660   -1.4190  -23.9550 C   0  0  0  0  0  0  0  0  0  0  0  0
  -13.7280   -2.5140  -23.5250 N   0  0  0  0  0  0  0  0  0  0  0  0
  -13.3120   -2.5380  -22.2350 C   0  0  0  0  0  0  0  0  0  0  0  0
  -13.5170   -1.6010  -21.4750 O   0  0  0  0  0  0  0  0  0  0  0  0
  -12.5340   -3.7730  -21.8030 C   0  0  0  0  0  0  0  0  0  0  0  0
  -11.1730   -3.8130  -22.3200 N   0  0  0  0  0  0  0  0  0  0  0  0
  -10.0720   -3.2860  -21.5170 C   0  0  0  0  0  0  0  0  0  0  0  0
   -8.8330   -2.8610  -22.3510 C   0  0  2  0  0  0  0  0  0  0  0  0
   -7.6900   -2.6850  -21.3510 C   0  0  0  0  0  0  0  0  0  0  0  0
   -7.1430   -3.5630  -20.7150 O   0  0  0  0  0  0  0  0  0  0  0  0
   -7.3710   -1.3470  -21.2550 N   0  0  0  0  0  0  0  0  0  0  0  0
   -6.5710   -0.8740  -20.1940 C   0  0  0  0  0  0  0  0  0  0  0  0
   -6.8950   -1.1440  -18.8900 C   0  0  0  0  0  0  0  0  0  0  0  0
   -6.2510   -0.5990  -17.8280 N   0  0  0  0  0  0  0  0  0  0  0  0
   -5.2390    0.1980  -18.0810 C   0  0  0  0  0  0  0  0  0  0  0  0
   -4.7680    0.5110  -19.3910 C   0  0  0  0  0  0  0  0  0  0  0  0
   -3.6410    1.3410  -19.6270 C   0  0  0  0  0  0  0  0  0  0  0  0
   -3.2370    1.6070  -20.9080 C   0  0  0  0  0  0  0  0  0  0  0  0
   -3.9300    1.0600  -22.0130 C   0  0  0  0  0  0  0  0  0  0  0  0
   -5.0190    0.2500  -21.8100 C   0  0  0  0  0  0  0  0  0  0  0  0
   -5.4580   -0.0350  -20.4900 C   0  0  0  0  0  0  0  0  0  0  0  0
   -5.5520   -0.1910  -22.6480 H   0  0  0  0  0  0  0  0  0  0  0  0
   -3.6020    1.2850  -23.0240 H   0  0  0  0  0  0  0  0  0  0  0  0
   -2.3770    2.2470  -21.0860 H   0  0  0  0  0  0  0  0  0  0  0  0
   -3.1190    1.7620  -18.7730 H   0  0  0  0  0  0  0  0  0  0  0  0
   -4.7290    0.6350  -17.2220 H   0  0  0  0  0  0  0  0  0  0  0  0
   -7.7200   -1.8140  -18.6560 H   0  0  0  0  0  0  0  0  0  0  0  0
   -8.3590   -0.4900  -21.8910 C   0  0  0  0  0  0  0  0  0  0  0  0
   -8.9700   -1.4140  -22.9530 C   0  0  2  0  0  0  0  0  0  0  0  0
  -10.3880   -1.0310  -23.3530 C   0  0  0  0  0  0  0  0  0  0  0  0
  -10.7820   -1.7690  -24.0600 H   0  0  0  0  0  0  0  0  0  0  0  0
  -10.4330   -0.0430  -23.8180 H   0  0  0  0  0  0  0  0  0  0  0  0
  -11.0420   -1.0050  -22.4740 H   0  0  0  0  0  0  0  0  0  0  0  0
   -8.3150   -1.3870  -23.8350 H   0  0  0  0  0  0  0  0  0  0  0  0
   -9.1160   -0.1560  -21.1620 H   0  0  0  0  0  0  0  0  0  0  0  0
   -7.8960    0.4110  -22.3060 H   0  0  0  0  0  0  0  0  0  0  0  0
   -8.5360   -3.9200  -23.3910 C   0  0  0  0  0  0  0  0  0  0  0  0
   -7.2480   -4.1240  -23.9110 C   0  0  0  0  0  0  0  0  0  0  0  0
   -7.0320   -5.0830  -24.8940 C   0  0  0  0  0  0  0  0  0  0  0  0
   -8.0860   -5.8880  -25.3370 C   0  0  0  0  0  0  0  0  0  0  0  0
   -9.3630   -5.6800  -24.8500 C   0  0  0  0  0  0  0  0  0  0  0  0
   -9.5880   -4.6700  -23.9230 C   0  0  0  0  0  0  0  0  0  0  0  0
  -10.9990   -4.3840  -23.5420 C   0  0  0  0  0  0  0  0  0  0  0  0
  -11.9500   -4.6500  -24.2770 O   0  0  0  0  0  0  0  0  0  0  0  0
  -10.2150   -6.2820  -25.1590 H   0  0  0  0  0  0  0  0  0  0  0  0
   -7.9110   -6.6770  -26.0620 H   0  0  0  0  0  0  0  0  0  0  0  0
   -6.0360   -5.2190  -25.3100 H   0  0  0  0  0  0  0  0  0  0  0  0
   -6.4040   -3.5590  -23.5170 H   0  0  0  0  0  0  0  0  0  0  0  0
  -10.4060   -2.4040  -20.9540 H   0  0  0  0  0  0  0  0  0  0  0  0
   -9.7550   -4.0320  -20.7790 H   0  0  0  0  0  0  0  0  0  0  0  0
  -12.5120   -3.8310  -20.7100 H   0  0  0  0  0  0  0  0  0  0  0  0
  -13.0630   -4.6360  -22.2180 H   0  0  0  0  0  0  0  0  0  0  0  0
  -13.4020   -3.2110  -24.1810 H   0  0  0  0  0  0  0  0  0  0  0  0
  -14.0190   -0.4740  -23.9870 H   0  0  0  0  0  0  0  0  0  0  0  0
  -15.3690   -1.2800  -23.2310 H   0  0  0  0  0  0  0  0  0  0  0  0
  -14.9840   -1.6450  -24.9380 H   0  0  0  0  0  0  0  0  0  0  0  0
  1  2  1  0  0  0  0
  1 54  1  0  0  0  0
  1 55  1  0  0  0  0
  1 56  1  0  0  0  0
  2  3  1  0  0  0  0
  2 53  1  0  0  0  0
  3  4  2  0  0  0  0
  3  5  1  0  0  0  0
  5  6  1  0  0  0  0
  5 51  1  0  0  0  0
  5 52  1  0  0  0  0
  6  7  1  0  0  0  0
  6 43  1  0  0  0  0
  7  8  1  0  0  0  0
  7 49  1  0  0  0  0
  7 50  1  0  0  0  0
  8  9  1  1  0  0  0
  8 29  1  0  0  0  0
  8 37  1  0  0  0  0
  9 10  2  0  0  0  0
  9 11  1  0  0  0  0
 11 12  1  0  0  0  0
 11 28  1  0  0  0  0
 12 13  2  0  0  0  0
 12 21  1  0  0  0  0
 13 14  1  0  0  0  0
 13 27  1  0  0  0  0
 14 15  2  0  0  0  0
 15 16  1  0  0  0  0
 15 26  1  0  0  0  0
 16 17  2  0  0  0  0
 16 21  1  0  0  0  0
 17 18  1  0  0  0  0
 17 25  1  0  0  0  0
 18 19  2  0  0  0  0
 18 24  1  0  0  0  0
 19 20  1  0  0  0  0
 19 23  1  0  0  0  0
 20 21  2  0  0  0  0
 20 22  1  0  0  0  0
 28 29  1  0  0  0  0
 28 35  1  0  0  0  0
 28 36  1  0  0  0  0
 29 30  1  0  0  0  0
 29 34  1  6  0  0  0
 30 31  1  0  0  0  0
 30 32  1  0  0  0  0
 30 33  1  0  0  0  0
 37 38  2  0  0  0  0
 37 42  1  0  0  0  0
 38 39  1  0  0  0  0
 38 48  1  0  0  0  0
 39 40  2  0  0  0  0
 39 47  1  0  0  0  0
 40 41  1  0  0  0  0
 40 46  1  0  0  0  0
 41 42  2  0  0  0  0
 41 45  1  0  0  0  0
 42 43  1  0  0  0  0
 43 44  2  0  0  0  0
M  END
>  <MODEL>
       1

$$$$
