tmp_first_model_18_26.pdb
 OpenBabel08282502533D

 55 60  0  0  1  0  0  0  0  0999 V2000
  -10.2220   -1.0580  -23.6350 C   0  0  0  0  0  0  0  0  0  0  0  0
   -8.8540   -1.3660  -23.0320 C   0  0  1  0  0  0  0  0  0  0  0  0
   -8.3920   -0.4230  -21.9070 C   0  0  0  0  0  0  0  0  0  0  0  0
   -7.3880   -1.2190  -21.2180 N   0  0  0  0  0  0  0  0  0  0  0  0
   -6.5840   -0.7470  -20.1560 C   0  0  0  0  0  0  0  0  0  0  0  0
   -6.8810   -1.0480  -18.8530 C   0  0  0  0  0  0  0  0  0  0  0  0
   -6.2110   -0.5360  -17.7880 N   0  0  0  0  0  0  0  0  0  0  0  0
   -5.1980    0.2640  -18.0290 C   0  0  0  0  0  0  0  0  0  0  0  0
   -4.7440    0.5990  -19.3410 C   0  0  0  0  0  0  0  0  0  0  0  0
   -3.6070    1.4140  -19.5870 C   0  0  0  0  0  0  0  0  0  0  0  0
   -3.1910    1.6540  -20.8690 C   0  0  0  0  0  0  0  0  0  0  0  0
   -3.8830    1.0990  -21.9680 C   0  0  0  0  0  0  0  0  0  0  0  0
   -4.9930    0.3220  -21.7600 C   0  0  0  0  0  0  0  0  0  0  0  0
   -5.4500    0.0680  -20.4410 C   0  0  0  0  0  0  0  0  0  0  0  0
   -5.5160   -0.1300  -22.5950 H   0  0  0  0  0  0  0  0  0  0  0  0
   -3.5370    1.2810  -22.9810 H   0  0  0  0  0  0  0  0  0  0  0  0
   -2.3210    2.2770  -21.0580 H   0  0  0  0  0  0  0  0  0  0  0  0
   -3.0770    1.8410  -18.7410 H   0  0  0  0  0  0  0  0  0  0  0  0
   -4.6650    0.6650  -17.1640 H   0  0  0  0  0  0  0  0  0  0  0  0
   -7.7040   -1.7210  -18.6200 H   0  0  0  0  0  0  0  0  0  0  0  0
   -7.4930   -2.5670  -21.4740 C   0  0  0  0  0  0  0  0  0  0  0  0
   -6.7580   -3.4100  -20.9980 O   0  0  0  0  0  0  0  0  0  0  0  0
   -8.6820   -2.7940  -22.4120 C   0  0  1  0  0  0  0  0  0  0  0  0
   -9.8910   -3.2140  -21.5170 C   0  0  0  0  0  0  0  0  0  0  0  0
  -11.0410   -3.6850  -22.2720 N   0  0  0  0  0  0  0  0  0  0  0  0
  -12.4000   -3.6330  -21.7230 C   0  0  0  0  0  0  0  0  0  0  0  0
  -13.2740   -2.5270  -22.2480 C   0  0  0  0  0  0  0  0  0  0  0  0
  -14.1210   -1.6370  -21.5690 C   0  0  0  0  0  0  0  0  0  0  0  0
  -14.7940   -0.9090  -22.4540 N   0  0  0  0  0  0  0  0  0  0  0  0
  -14.3740   -1.3880  -23.6100 N   0  0  0  0  0  0  0  0  0  0  0  0
  -13.4560   -2.3390  -23.5520 N   0  0  0  0  0  0  0  0  0  0  0  0
  -14.6370   -0.9780  -24.4920 H   0  0  0  0  0  0  0  0  0  0  0  0
  -14.2450   -1.4690  -20.5050 H   0  0  0  0  0  0  0  0  0  0  0  0
  -12.4000   -3.5930  -20.6330 H   0  0  0  0  0  0  0  0  0  0  0  0
  -12.8770   -4.5680  -22.0220 H   0  0  0  0  0  0  0  0  0  0  0  0
  -10.8410   -4.5320  -23.3230 C   0  0  0  0  0  0  0  0  0  0  0  0
  -11.7490   -5.1720  -23.8190 O   0  0  0  0  0  0  0  0  0  0  0  0
   -9.4600   -4.6770  -23.8620 C   0  0  0  0  0  0  0  0  0  0  0  0
   -9.2770   -5.6630  -24.8270 C   0  0  0  0  0  0  0  0  0  0  0  0
   -8.0390   -5.8750  -25.3900 C   0  0  0  0  0  0  0  0  0  0  0  0
   -6.9930   -5.0630  -24.9700 C   0  0  0  0  0  0  0  0  0  0  0  0
   -5.7840   -5.2800  -25.5140 F   0  0  0  0  0  0  0  0  0  0  0  0
   -7.1430   -4.0800  -24.0090 C   0  0  0  0  0  0  0  0  0  0  0  0
   -8.4070   -3.8750  -23.4320 C   0  0  0  0  0  0  0  0  0  0  0  0
   -6.2710   -3.5090  -23.7100 H   0  0  0  0  0  0  0  0  0  0  0  0
   -7.8770   -6.6470  -26.1330 H   0  0  0  0  0  0  0  0  0  0  0  0
  -10.1490   -6.2440  -25.1030 H   0  0  0  0  0  0  0  0  0  0  0  0
   -9.5350   -3.9940  -20.8310 H   0  0  0  0  0  0  0  0  0  0  0  0
  -10.2280   -2.3550  -20.9320 H   0  0  0  0  0  0  0  0  0  0  0  0
   -7.9620    0.5140  -22.2790 H   0  0  0  0  0  0  0  0  0  0  0  0
   -9.2150   -0.1760  -21.2200 H   0  0  0  0  0  0  0  0  0  0  0  0
   -8.1140   -1.3000  -23.8420 H   0  0  0  0  0  0  0  0  0  0  0  0
  -10.2520   -0.0450  -24.0450 H   0  0  0  0  0  0  0  0  0  0  0  0
  -10.4320   -1.7460  -24.4610 H   0  0  0  0  0  0  0  0  0  0  0  0
  -11.0340   -1.1610  -22.9070 H   0  0  0  0  0  0  0  0  0  0  0  0
  1  2  1  0  0  0  0
  1 53  1  0  0  0  0
  1 54  1  0  0  0  0
  1 55  1  0  0  0  0
  2  3  1  0  0  0  0
  2 23  1  0  0  0  0
  2 52  1  6  0  0  0
  3  4  1  0  0  0  0
  3 50  1  0  0  0  0
  3 51  1  0  0  0  0
  4  5  1  0  0  0  0
  4 21  1  0  0  0  0
  5  6  2  0  0  0  0
  5 14  1  0  0  0  0
  6  7  1  0  0  0  0
  6 20  1  0  0  0  0
  7  8  2  0  0  0  0
  8  9  1  0  0  0  0
  8 19  1  0  0  0  0
  9 10  2  0  0  0  0
  9 14  1  0  0  0  0
 10 11  1  0  0  0  0
 10 18  1  0  0  0  0
 11 12  2  0  0  0  0
 11 17  1  0  0  0  0
 12 13  1  0  0  0  0
 12 16  1  0  0  0  0
 13 14  2  0  0  0  0
 13 15  1  0  0  0  0
 21 22  2  0  0  0  0
 23 21  1  1  0  0  0
 23 24  1  0  0  0  0
 23 44  1  0  0  0  0
 24 25  1  0  0  0  0
 24 48  1  0  0  0  0
 24 49  1  0  0  0  0
 25 26  1  0  0  0  0
 25 36  1  0  0  0  0
 26 27  1  0  0  0  0
 26 34  1  0  0  0  0
 26 35  1  0  0  0  0
 27 28  1  0  0  0  0
 27 31  2  0  0  0  0
 28 29  2  0  0  0  0
 28 33  1  0  0  0  0
 29 30  1  0  0  0  0
 30 31  1  0  0  0  0
 30 32  1  0  0  0  0
 36 37  2  0  0  0  0
 36 38  1  0  0  0  0
 38 39  2  0  0  0  0
 38 44  1  0  0  0  0
 39 40  1  0  0  0  0
 39 47  1  0  0  0  0
 40 41  2  0  0  0  0
 40 46  1  0  0  0  0
 41 42  1  0  0  0  0
 41 43  1  0  0  0  0
 43 44  2  0  0  0  0
 43 45  1  0  0  0  0
M  END
>  <MODEL>
       1

$$$$
