tmp_first_model_11_73.pdb
 OpenBabel08272522543D

 50 53  0  0  1  0  0  0  0  0999 V2000
   -5.6010   -3.0210  -21.5760 O   0  0  0  0  0  0  0  0  0  0  0  0
   -6.7560   -2.7520  -21.8580 C   0  0  0  0  0  0  0  0  0  0  0  0
   -7.4150   -1.4780  -21.2680 C   0  0  0  0  0  0  0  0  0  0  0  0
   -6.5800   -0.8310  -20.1820 C   0  0  0  0  0  0  0  0  0  0  0  0
   -6.8740   -1.0450  -18.8620 C   0  0  0  0  0  0  0  0  0  0  0  0
   -6.1910   -0.5410  -17.7980 N   0  0  0  0  0  0  0  0  0  0  0  0
   -5.1590    0.2220  -18.0660 C   0  0  0  0  0  0  0  0  0  0  0  0
   -4.7210    0.5290  -19.3810 C   0  0  0  0  0  0  0  0  0  0  0  0
   -3.5910    1.3530  -19.6220 C   0  0  0  0  0  0  0  0  0  0  0  0
   -3.1900    1.6310  -20.9010 C   0  0  0  0  0  0  0  0  0  0  0  0
   -3.9010    1.0880  -21.9930 C   0  0  0  0  0  0  0  0  0  0  0  0
   -4.9990    0.2870  -21.7870 C   0  0  0  0  0  0  0  0  0  0  0  0
   -5.4450   -0.0130  -20.4750 C   0  0  0  0  0  0  0  0  0  0  0  0
   -5.5260   -0.1320  -22.6380 H   0  0  0  0  0  0  0  0  0  0  0  0
   -3.5760    1.3110  -23.0050 H   0  0  0  0  0  0  0  0  0  0  0  0
   -2.3280    2.2700  -21.0850 H   0  0  0  0  0  0  0  0  0  0  0  0
   -3.0570    1.7740  -18.7720 H   0  0  0  0  0  0  0  0  0  0  0  0
   -4.6030    0.6280  -17.2170 H   0  0  0  0  0  0  0  0  0  0  0  0
   -7.7210   -1.6700  -18.5850 H   0  0  0  0  0  0  0  0  0  0  0  0
   -7.6150   -0.7480  -22.0660 H   0  0  0  0  0  0  0  0  0  0  0  0
   -8.3960   -1.7470  -20.8480 H   0  0  0  0  0  0  0  0  0  0  0  0
   -7.5180   -3.5820  -22.6640 N   0  0  0  0  0  0  0  0  0  0  0  0
   -8.6640   -3.1250  -23.4530 C   0  0  0  0  0  0  0  0  0  0  0  0
   -9.7360   -4.2020  -23.5640 C   0  0  0  0  0  0  0  0  0  0  0  0
   -9.1620   -5.5020  -24.1060 C   0  0  0  0  0  0  0  0  0  0  0  0
   -7.9810   -5.9350  -23.2470 C   0  0  0  0  0  0  0  0  0  0  0  0
   -6.9070   -4.8530  -23.1040 C   0  0  1  0  0  0  0  0  0  0  0  0
   -6.0420   -4.6970  -24.3740 C   0  0  0  0  0  0  0  0  0  0  0  0
   -5.2220   -5.9290  -24.7050 C   0  0  0  0  0  0  0  0  0  0  0  0
   -4.0750   -6.2230  -23.9720 C   0  0  0  0  0  0  0  0  0  0  0  0
   -3.2850   -7.3340  -24.2320 C   0  0  0  0  0  0  0  0  0  0  0  0
   -3.6690   -8.2200  -25.2300 C   0  0  0  0  0  0  0  0  0  0  0  0
   -4.8290   -7.9640  -25.9560 C   0  0  0  0  0  0  0  0  0  0  0  0
   -5.5930   -6.8300  -25.6990 C   0  0  0  0  0  0  0  0  0  0  0  0
   -6.5030   -6.6440  -26.2620 H   0  0  0  0  0  0  0  0  0  0  0  0
   -5.1420   -8.6490  -26.7340 H   0  0  0  0  0  0  0  0  0  0  0  0
   -3.0690   -9.1000  -25.4300 H   0  0  0  0  0  0  0  0  0  0  0  0
   -2.3870   -7.5080  -23.6420 H   0  0  0  0  0  0  0  0  0  0  0  0
   -3.8490   -5.5900  -23.1330 H   0  0  0  0  0  0  0  0  0  0  0  0
   -6.6860   -4.4540  -25.2250 H   0  0  0  0  0  0  0  0  0  0  0  0
   -5.3780   -3.8400  -24.2160 H   0  0  0  0  0  0  0  0  0  0  0  0
   -6.2370   -5.1560  -22.2980 H   0  0  0  0  0  0  0  0  0  0  0  0
   -8.3360   -6.1750  -22.2440 H   0  0  0  0  0  0  0  0  0  0  0  0
   -7.5380   -6.8560  -23.6400 H   0  0  0  0  0  0  0  0  0  0  0  0
   -9.9320   -6.2830  -24.1250 H   0  0  0  0  0  0  0  0  0  0  0  0
   -8.8390   -5.3750  -25.1470 H   0  0  0  0  0  0  0  0  0  0  0  0
  -10.1660   -4.3770  -22.5740 H   0  0  0  0  0  0  0  0  0  0  0  0
  -10.5520   -3.8490  -24.2010 H   0  0  0  0  0  0  0  0  0  0  0  0
   -9.0870   -2.2320  -22.9920 H   0  0  0  0  0  0  0  0  0  0  0  0
   -8.3540   -2.8300  -24.4680 H   0  0  0  0  0  0  0  0  0  0  0  0
  1  2  2  0  0  0  0
  2  3  1  0  0  0  0
  2 22  1  0  0  0  0
  3  4  1  0  0  0  0
  3 20  1  0  0  0  0
  3 21  1  0  0  0  0
  4  5  2  0  0  0  0
  4 13  1  0  0  0  0
  5  6  1  0  0  0  0
  5 19  1  0  0  0  0
  6  7  2  0  0  0  0
  7  8  1  0  0  0  0
  7 18  1  0  0  0  0
  8  9  2  0  0  0  0
  8 13  1  0  0  0  0
  9 10  1  0  0  0  0
  9 17  1  0  0  0  0
 10 11  2  0  0  0  0
 10 16  1  0  0  0  0
 11 12  1  0  0  0  0
 11 15  1  0  0  0  0
 12 13  2  0  0  0  0
 12 14  1  0  0  0  0
 22 23  1  0  0  0  0
 22 27  1  0  0  0  0
 23 24  1  0  0  0  0
 23 49  1  0  0  0  0
 23 50  1  0  0  0  0
 24 25  1  0  0  0  0
 24 47  1  0  0  0  0
 24 48  1  0  0  0  0
 25 26  1  0  0  0  0
 25 45  1  0  0  0  0
 25 46  1  0  0  0  0
 26 27  1  0  0  0  0
 26 43  1  0  0  0  0
 26 44  1  0  0  0  0
 27 28  1  0  0  0  0
 27 42  1  1  0  0  0
 28 29  1  0  0  0  0
 28 40  1  0  0  0  0
 28 41  1  0  0  0  0
 29 30  2  0  0  0  0
 29 34  1  0  0  0  0
 30 31  1  0  0  0  0
 30 39  1  0  0  0  0
 31 32  2  0  0  0  0
 31 38  1  0  0  0  0
 32 33  1  0  0  0  0
 32 37  1  0  0  0  0
 33 34  2  0  0  0  0
 33 36  1  0  0  0  0
 34 35  1  0  0  0  0
M  END
>  <MODEL>
       1

$$$$
