tmp_first_model_19_81.pdb
 OpenBabel08282503233D

 36 38  0  0  0  0  0  0  0  0999 V2000
   -8.5040    0.7120  -21.4650 O   0  0  0  0  0  0  0  0  0  0  0  0
   -8.3860   -0.4020  -21.9340 C   0  0  0  0  0  0  0  0  0  0  0  0
   -7.4390   -1.4330  -21.2760 C   0  0  0  0  0  0  0  0  0  0  0  0
   -6.5830   -0.8270  -20.1870 C   0  0  0  0  0  0  0  0  0  0  0  0
   -6.8790   -1.0400  -18.8660 C   0  0  0  0  0  0  0  0  0  0  0  0
   -6.1900   -0.5430  -17.8040 N   0  0  0  0  0  0  0  0  0  0  0  0
   -5.1580    0.2220  -18.0660 C   0  0  0  0  0  0  0  0  0  0  0  0
   -4.7240    0.5330  -19.3830 C   0  0  0  0  0  0  0  0  0  0  0  0
   -3.5960    1.3600  -19.6230 C   0  0  0  0  0  0  0  0  0  0  0  0
   -3.2080    1.6560  -20.9030 C   0  0  0  0  0  0  0  0  0  0  0  0
   -3.9340    1.1300  -21.9950 C   0  0  0  0  0  0  0  0  0  0  0  0
   -5.0270    0.3230  -21.7880 C   0  0  0  0  0  0  0  0  0  0  0  0
   -5.4550    0.0010  -20.4740 C   0  0  0  0  0  0  0  0  0  0  0  0
   -5.5770   -0.0670  -22.6370 H   0  0  0  0  0  0  0  0  0  0  0  0
   -3.6230    1.3720  -23.0060 H   0  0  0  0  0  0  0  0  0  0  0  0
   -2.3530    2.3020  -21.0870 H   0  0  0  0  0  0  0  0  0  0  0  0
   -3.0580    1.7730  -18.7730 H   0  0  0  0  0  0  0  0  0  0  0  0
   -4.6040    0.6270  -17.2170 H   0  0  0  0  0  0  0  0  0  0  0  0
   -7.7290   -1.6590  -18.5870 H   0  0  0  0  0  0  0  0  0  0  0  0
   -6.8030   -1.9000  -22.0410 H   0  0  0  0  0  0  0  0  0  0  0  0
   -8.0410   -2.2450  -20.8440 H   0  0  0  0  0  0  0  0  0  0  0  0
   -9.0620   -0.7720  -23.0890 N   0  0  0  0  0  0  0  0  0  0  0  0
  -10.0070    0.1950  -23.6430 C   0  0  0  0  0  0  0  0  0  0  0  0
  -11.3800    0.2160  -23.0200 C   0  0  0  0  0  0  0  0  0  0  0  0
  -12.0210   -0.7910  -22.4160 C   0  0  0  0  0  0  0  0  0  0  0  0
  -11.5700   -2.1750  -22.1570 C   0  0  0  0  0  0  0  0  0  0  0  0
  -10.4470   -2.7810  -22.5520 C   0  0  0  0  0  0  0  0  0  0  0  0
   -9.3680   -2.1610  -23.4050 C   0  0  0  0  0  0  0  0  0  0  0  0
   -8.4510   -2.7530  -23.3600 H   0  0  0  0  0  0  0  0  0  0  0  0
   -9.6850   -2.1770  -24.4550 H   0  0  0  0  0  0  0  0  0  0  0  0
  -10.2830   -3.8150  -22.2470 H   0  0  0  0  0  0  0  0  0  0  0  0
  -12.2760   -2.7640  -21.5740 H   0  0  0  0  0  0  0  0  0  0  0  0
  -13.0200   -0.5790  -22.0380 H   0  0  0  0  0  0  0  0  0  0  0  0
  -11.8930    1.1790  -23.0810 H   0  0  0  0  0  0  0  0  0  0  0  0
  -10.1140   -0.0410  -24.7080 H   0  0  0  0  0  0  0  0  0  0  0  0
   -9.5580    1.1910  -23.5960 H   0  0  0  0  0  0  0  0  0  0  0  0
  1  2  2  0  0  0  0
  2  3  1  0  0  0  0
  2 22  1  0  0  0  0
  3  4  1  0  0  0  0
  3 20  1  0  0  0  0
  3 21  1  0  0  0  0
  4  5  2  0  0  0  0
  4 13  1  0  0  0  0
  5  6  1  0  0  0  0
  5 19  1  0  0  0  0
  6  7  2  0  0  0  0
  7  8  1  0  0  0  0
  7 18  1  0  0  0  0
  8  9  2  0  0  0  0
  8 13  1  0  0  0  0
  9 10  1  0  0  0  0
  9 17  1  0  0  0  0
 10 11  2  0  0  0  0
 10 16  1  0  0  0  0
 11 12  1  0  0  0  0
 11 15  1  0  0  0  0
 12 13  2  0  0  0  0
 12 14  1  0  0  0  0
 22 23  1  0  0  0  0
 22 28  1  0  0  0  0
 23 24  1  0  0  0  0
 23 35  1  0  0  0  0
 23 36  1  0  0  0  0
 24 25  2  0  0  0  0
 24 34  1  0  0  0  0
 25 26  1  0  0  0  0
 25 33  1  0  0  0  0
 26 27  2  0  0  0  0
 26 32  1  0  0  0  0
 27 28  1  0  0  0  0
 27 31  1  0  0  0  0
 28 29  1  0  0  0  0
 28 30  1  0  0  0  0
M  END
>  <MODEL>
       1

$$$$
