tmp_first_model_9_53.pdb
 OpenBabel08272521403D

 59 63  0  0  1  0  0  0  0  0999 V2000
  -13.9540   -1.0920  -24.5290 C   0  0  0  0  0  0  0  0  0  0  0  0
  -14.8350   -2.1390  -23.8610 C   0  0  0  0  0  0  0  0  0  0  0  0
  -14.0390   -3.1600  -23.2200 N   0  0  0  0  0  0  0  0  0  0  0  0
  -13.3200   -2.8390  -22.1120 C   0  0  0  0  0  0  0  0  0  0  0  0
  -13.3940   -1.7630  -21.5430 O   0  0  0  0  0  0  0  0  0  0  0  0
  -12.4160   -3.9710  -21.6560 C   0  0  0  0  0  0  0  0  0  0  0  0
  -11.0960   -3.8970  -22.2540 N   0  0  0  0  0  0  0  0  0  0  0  0
   -9.9760   -3.3800  -21.4780 C   0  0  0  0  0  0  0  0  0  0  0  0
   -8.7910   -2.9150  -22.3530 C   0  0  2  0  0  0  0  0  0  0  0  0
   -7.5610   -2.7030  -21.4550 C   0  0  0  0  0  0  0  0  0  0  0  0
   -6.8170   -3.5580  -21.0230 O   0  0  0  0  0  0  0  0  0  0  0  0
   -7.4010   -1.3500  -21.2400 N   0  0  0  0  0  0  0  0  0  0  0  0
   -6.5840   -0.8540  -20.1970 C   0  0  0  0  0  0  0  0  0  0  0  0
   -6.8900   -1.1040  -18.8820 C   0  0  0  0  0  0  0  0  0  0  0  0
   -6.2150   -0.5760  -17.8310 N   0  0  0  0  0  0  0  0  0  0  0  0
   -5.2010    0.2090  -18.0950 C   0  0  0  0  0  0  0  0  0  0  0  0
   -4.7560    0.5200  -19.4110 C   0  0  0  0  0  0  0  0  0  0  0  0
   -3.6290    1.3510  -19.6410 C   0  0  0  0  0  0  0  0  0  0  0  0
   -3.2250    1.6200  -20.9190 C   0  0  0  0  0  0  0  0  0  0  0  0
   -3.9260    1.0800  -22.0180 C   0  0  0  0  0  0  0  0  0  0  0  0
   -5.0210    0.2720  -21.8220 C   0  0  0  0  0  0  0  0  0  0  0  0
   -5.4650   -0.0190  -20.5040 C   0  0  0  0  0  0  0  0  0  0  0  0
   -5.5400   -0.1580  -22.6710 H   0  0  0  0  0  0  0  0  0  0  0  0
   -3.5930    1.2980  -23.0280 H   0  0  0  0  0  0  0  0  0  0  0  0
   -2.3650    2.2590  -21.0960 H   0  0  0  0  0  0  0  0  0  0  0  0
   -3.1130    1.7660  -18.7800 H   0  0  0  0  0  0  0  0  0  0  0  0
   -4.6650    0.6320  -17.2460 H   0  0  0  0  0  0  0  0  0  0  0  0
   -7.7290   -1.7490  -18.6320 H   0  0  0  0  0  0  0  0  0  0  0  0
   -8.3970   -0.5250  -21.9040 C   0  0  0  0  0  0  0  0  0  0  0  0
   -9.0110   -1.4760  -22.9440 C   0  0  2  0  0  0  0  0  0  0  0  0
  -10.4560   -1.1340  -23.2740 C   0  0  0  0  0  0  0  0  0  0  0  0
  -10.5410   -0.1680  -23.7770 H   0  0  0  0  0  0  0  0  0  0  0  0
  -11.0620   -1.0980  -22.3610 H   0  0  0  0  0  0  0  0  0  0  0  0
  -10.8880   -1.9000  -23.9240 H   0  0  0  0  0  0  0  0  0  0  0  0
   -8.3990   -1.4330  -23.8580 H   0  0  0  0  0  0  0  0  0  0  0  0
   -7.9330    0.3550  -22.3650 H   0  0  0  0  0  0  0  0  0  0  0  0
   -9.1560   -0.1620  -21.1900 H   0  0  0  0  0  0  0  0  0  0  0  0
   -8.5280   -3.9700  -23.3980 C   0  0  0  0  0  0  0  0  0  0  0  0
   -7.2530   -4.0970  -23.9570 C   0  0  0  0  0  0  0  0  0  0  0  0
   -7.0280   -5.0340  -24.9480 C   0  0  0  0  0  0  0  0  0  0  0  0
   -5.4530   -5.1220  -25.6810 Cl  0  0  0  0  0  0  0  0  0  0  0  0
   -8.0360   -5.8880  -25.3940 C   0  0  0  0  0  0  0  0  0  0  0  0
   -9.2990   -5.7570  -24.8450 C   0  0  0  0  0  0  0  0  0  0  0  0
   -9.5540   -4.7800  -23.8870 C   0  0  0  0  0  0  0  0  0  0  0  0
  -10.9490   -4.5860  -23.4190 C   0  0  0  0  0  0  0  0  0  0  0  0
  -11.9210   -5.0090  -24.0510 O   0  0  0  0  0  0  0  0  0  0  0  0
  -10.1150   -6.4040  -25.1490 H   0  0  0  0  0  0  0  0  0  0  0  0
   -7.8330   -6.6190  -26.1720 H   0  0  0  0  0  0  0  0  0  0  0  0
   -6.4350   -3.4730  -23.6120 H   0  0  0  0  0  0  0  0  0  0  0  0
   -9.6470   -4.1630  -20.7890 H   0  0  0  0  0  0  0  0  0  0  0  0
  -10.3360   -2.5150  -20.9090 H   0  0  0  0  0  0  0  0  0  0  0  0
  -12.8750   -4.8690  -22.0540 H   0  0  0  0  0  0  0  0  0  0  0  0
  -12.3550   -4.0370  -20.5690 H   0  0  0  0  0  0  0  0  0  0  0  0
  -13.6410   -3.8980  -23.7980 H   0  0  0  0  0  0  0  0  0  0  0  0
  -15.4390   -1.6750  -23.0740 H   0  0  0  0  0  0  0  0  0  0  0  0
  -15.5020   -2.6490  -24.5600 H   0  0  0  0  0  0  0  0  0  0  0  0
  -14.5450   -0.3310  -25.0360 H   0  0  0  0  0  0  0  0  0  0  0  0
  -13.2740   -1.5450  -25.2620 H   0  0  0  0  0  0  0  0  0  0  0  0
  -13.3670   -0.5980  -23.7490 H   0  0  0  0  0  0  0  0  0  0  0  0
  1  2  1  0  0  0  0
  1 57  1  0  0  0  0
  1 58  1  0  0  0  0
  1 59  1  0  0  0  0
  2  3  1  0  0  0  0
  2 55  1  0  0  0  0
  2 56  1  0  0  0  0
  3  4  1  0  0  0  0
  3 54  1  0  0  0  0
  4  5  2  0  0  0  0
  4  6  1  0  0  0  0
  6  7  1  0  0  0  0
  6 52  1  0  0  0  0
  6 53  1  0  0  0  0
  7  8  1  0  0  0  0
  7 45  1  0  0  0  0
  8  9  1  0  0  0  0
  8 50  1  0  0  0  0
  8 51  1  0  0  0  0
  9 10  1  1  0  0  0
  9 30  1  0  0  0  0
  9 38  1  0  0  0  0
 10 11  2  0  0  0  0
 10 12  1  0  0  0  0
 12 13  1  0  0  0  0
 12 29  1  0  0  0  0
 13 14  2  0  0  0  0
 13 22  1  0  0  0  0
 14 15  1  0  0  0  0
 14 28  1  0  0  0  0
 15 16  2  0  0  0  0
 16 17  1  0  0  0  0
 16 27  1  0  0  0  0
 17 18  2  0  0  0  0
 17 22  1  0  0  0  0
 18 19  1  0  0  0  0
 18 26  1  0  0  0  0
 19 20  2  0  0  0  0
 19 25  1  0  0  0  0
 20 21  1  0  0  0  0
 20 24  1  0  0  0  0
 21 22  2  0  0  0  0
 21 23  1  0  0  0  0
 29 30  1  0  0  0  0
 29 36  1  0  0  0  0
 29 37  1  0  0  0  0
 30 31  1  0  0  0  0
 30 35  1  6  0  0  0
 31 32  1  0  0  0  0
 31 33  1  0  0  0  0
 31 34  1  0  0  0  0
 38 39  2  0  0  0  0
 38 44  1  0  0  0  0
 39 40  1  0  0  0  0
 39 49  1  0  0  0  0
 40 41  1  0  0  0  0
 40 42  2  0  0  0  0
 42 43  1  0  0  0  0
 42 48  1  0  0  0  0
 43 44  2  0  0  0  0
 43 47  1  0  0  0  0
 44 45  1  0  0  0  0
 45 46  2  0  0  0  0
M  END
>  <MODEL>
       1

$$$$
