tmp_first_model_7_43.pdb
 OpenBabel08272520323D

 67 72  0  0  1  0  0  0  0  0999 V2000
   -7.5010    3.2380  -21.8790 C   0  0  0  0  0  0  0  0  0  0  0  0
   -8.5350    2.7130  -22.7380 N   0  0  0  0  0  0  0  0  0  0  0  0
   -8.1700    2.0080  -23.8300 C   0  0  0  0  0  0  0  0  0  0  0  0
   -6.9990    1.8290  -24.1420 O   0  0  0  0  0  0  0  0  0  0  0  0
   -9.3190    1.4280  -24.6400 C   0  0  0  0  0  0  0  0  0  0  0  0
   -9.8450    0.2480  -23.9940 N   0  0  0  0  0  0  0  0  0  0  0  0
   -9.0530   -0.9670  -24.0060 C   0  0  0  0  0  0  0  0  0  0  0  0
   -9.1900   -1.7500  -22.6680 C   0  0  2  0  0  0  0  0  0  0  0  0
   -8.6120   -0.9030  -21.5090 C   0  0  0  0  0  0  0  0  0  0  0  0
   -9.1270    0.0560  -20.9620 O   0  0  0  0  0  0  0  0  0  0  0  0
   -7.3700   -1.3960  -21.1910 N   0  0  0  0  0  0  0  0  0  0  0  0
   -6.5960   -0.8110  -20.1650 C   0  0  0  0  0  0  0  0  0  0  0  0
   -6.9220   -1.0350  -18.8500 C   0  0  0  0  0  0  0  0  0  0  0  0
   -6.2090   -0.5490  -17.8090 N   0  0  0  0  0  0  0  0  0  0  0  0
   -5.1650    0.1940  -18.0800 C   0  0  0  0  0  0  0  0  0  0  0  0
   -4.7280    0.5150  -19.3960 C   0  0  0  0  0  0  0  0  0  0  0  0
   -3.6020    1.3440  -19.6450 C   0  0  0  0  0  0  0  0  0  0  0  0
   -3.2380    1.6590  -20.9260 C   0  0  0  0  0  0  0  0  0  0  0  0
   -3.9860    1.1680  -22.0200 C   0  0  0  0  0  0  0  0  0  0  0  0
   -5.0790    0.3620  -21.8070 C   0  0  0  0  0  0  0  0  0  0  0  0
   -5.4700    0.0070  -20.4860 C   0  0  0  0  0  0  0  0  0  0  0  0
   -5.6720    0.0260  -22.6530 H   0  0  0  0  0  0  0  0  0  0  0  0
   -3.7030    1.4360  -23.0340 H   0  0  0  0  0  0  0  0  0  0  0  0
   -2.3860    2.3100  -21.1090 H   0  0  0  0  0  0  0  0  0  0  0  0
   -3.0590    1.7430  -18.7930 H   0  0  0  0  0  0  0  0  0  0  0  0
   -4.6030    0.5840  -17.2320 H   0  0  0  0  0  0  0  0  0  0  0  0
   -7.7900   -1.6420  -18.5960 H   0  0  0  0  0  0  0  0  0  0  0  0
   -6.9680   -2.5570  -21.9570 C   0  0  0  0  0  0  0  0  0  0  0  0
   -8.2800   -3.0060  -22.6390 C   0  0  2  0  0  0  0  0  0  0  0  0
   -8.0570   -3.6970  -23.9930 C   0  0  0  0  0  0  0  0  0  0  0  0
   -7.3690   -4.9480  -23.8040 N   0  0  0  0  0  0  0  0  0  0  0  0
   -7.0850   -5.8550  -24.7960 C   0  0  0  0  0  0  0  0  0  0  0  0
   -6.5970   -7.4710  -24.3500 S   0  0  0  0  0  0  0  0  0  0  0  0
   -6.4330   -7.8360  -26.0360 C   0  0  0  0  0  0  0  0  0  0  0  0
   -6.6970   -6.8650  -26.8470 N   0  0  0  0  0  0  0  0  0  0  0  0
   -7.0670   -5.7280  -26.1560 C   0  0  0  0  0  0  0  0  0  0  0  0
   -7.3780   -4.4890  -26.9410 C   0  0  0  0  0  0  0  0  0  0  0  0
   -7.3000   -4.7160  -28.0060 H   0  0  0  0  0  0  0  0  0  0  0  0
   -8.3890   -4.1220  -26.7350 H   0  0  0  0  0  0  0  0  0  0  0  0
   -6.6820   -3.6740  -26.7080 H   0  0  0  0  0  0  0  0  0  0  0  0
   -6.1100   -8.8200  -26.3490 H   0  0  0  0  0  0  0  0  0  0  0  0
   -6.9790   -5.1610  -22.9010 H   0  0  0  0  0  0  0  0  0  0  0  0
   -7.4720   -3.0300  -24.6460 H   0  0  0  0  0  0  0  0  0  0  0  0
   -9.0170   -3.8800  -24.4970 H   0  0  0  0  0  0  0  0  0  0  0  0
   -8.7520   -3.7400  -21.9810 H   0  0  0  0  0  0  0  0  0  0  0  0
   -6.5440   -3.3260  -21.3010 H   0  0  0  0  0  0  0  0  0  0  0  0
   -6.1960   -2.2970  -22.6980 H   0  0  0  0  0  0  0  0  0  0  0  0
  -10.6740   -1.9860  -22.4550 C   0  0  0  0  0  0  0  0  0  0  0  0
  -11.1970   -3.0420  -21.7030 C   0  0  0  0  0  0  0  0  0  0  0  0
  -12.5710   -3.1370  -21.5380 C   0  0  0  0  0  0  0  0  0  0  0  0
  -13.2520   -4.2440  -20.3960 Cl  0  0  0  0  0  0  0  0  0  0  0  0
  -13.4630   -2.3130  -22.2220 C   0  0  0  0  0  0  0  0  0  0  0  0
  -12.9510   -1.2240  -22.8890 C   0  0  0  0  0  0  0  0  0  0  0  0
  -11.5780   -1.0160  -22.9100 C   0  0  0  0  0  0  0  0  0  0  0  0
  -11.0920    0.2900  -23.4460 C   0  0  0  0  0  0  0  0  0  0  0  0
  -11.7640    1.3140  -23.4060 O   0  0  0  0  0  0  0  0  0  0  0  0
  -13.5910   -0.4810  -23.3530 H   0  0  0  0  0  0  0  0  0  0  0  0
  -14.5280   -2.5120  -22.1680 H   0  0  0  0  0  0  0  0  0  0  0  0
  -10.5410   -3.7600  -21.2220 H   0  0  0  0  0  0  0  0  0  0  0  0
   -8.0100   -0.6870  -24.1800 H   0  0  0  0  0  0  0  0  0  0  0  0
   -9.3740   -1.6090  -24.8390 H   0  0  0  0  0  0  0  0  0  0  0  0
   -8.9330    1.1880  -25.6370 H   0  0  0  0  0  0  0  0  0  0  0  0
  -10.1490    2.1300  -24.7300 H   0  0  0  0  0  0  0  0  0  0  0  0
   -9.4850    2.6580  -22.4040 H   0  0  0  0  0  0  0  0  0  0  0  0
   -7.9560    3.8900  -21.1360 H   0  0  0  0  0  0  0  0  0  0  0  0
   -6.7920    3.8140  -22.4750 H   0  0  0  0  0  0  0  0  0  0  0  0
   -6.9410    2.4240  -21.4010 H   0  0  0  0  0  0  0  0  0  0  0  0
  1  2  1  0  0  0  0
  1 65  1  0  0  0  0
  1 66  1  0  0  0  0
  1 67  1  0  0  0  0
  2  3  1  0  0  0  0
  2 64  1  0  0  0  0
  3  4  2  0  0  0  0
  3  5  1  0  0  0  0
  5  6  1  0  0  0  0
  5 62  1  0  0  0  0
  5 63  1  0  0  0  0
  6  7  1  0  0  0  0
  6 55  1  0  0  0  0
  7  8  1  0  0  0  0
  7 60  1  0  0  0  0
  7 61  1  0  0  0  0
  8  9  1  1  0  0  0
  8 29  1  0  0  0  0
  8 48  1  0  0  0  0
  9 10  2  0  0  0  0
  9 11  1  0  0  0  0
 11 12  1  0  0  0  0
 11 28  1  0  0  0  0
 12 13  2  0  0  0  0
 12 21  1  0  0  0  0
 13 14  1  0  0  0  0
 13 27  1  0  0  0  0
 14 15  2  0  0  0  0
 15 16  1  0  0  0  0
 15 26  1  0  0  0  0
 16 17  2  0  0  0  0
 16 21  1  0  0  0  0
 17 18  1  0  0  0  0
 17 25  1  0  0  0  0
 18 19  2  0  0  0  0
 18 24  1  0  0  0  0
 19 20  1  0  0  0  0
 19 23  1  0  0  0  0
 20 21  2  0  0  0  0
 20 22  1  0  0  0  0
 28 29  1  0  0  0  0
 28 46  1  0  0  0  0
 28 47  1  0  0  0  0
 29 30  1  0  0  0  0
 29 45  1  1  0  0  0
 30 31  1  0  0  0  0
 30 43  1  0  0  0  0
 30 44  1  0  0  0  0
 31 32  1  0  0  0  0
 31 42  1  0  0  0  0
 32 33  1  0  0  0  0
 32 36  2  0  0  0  0
 33 34  1  0  0  0  0
 34 35  2  0  0  0  0
 34 41  1  0  0  0  0
 35 36  1  0  0  0  0
 36 37  1  0  0  0  0
 37 38  1  0  0  0  0
 37 39  1  0  0  0  0
 37 40  1  0  0  0  0
 48 49  2  0  0  0  0
 48 54  1  0  0  0  0
 49 50  1  0  0  0  0
 49 59  1  0  0  0  0
 50 51  1  0  0  0  0
 50 52  2  0  0  0  0
 52 53  1  0  0  0  0
 52 58  1  0  0  0  0
 53 54  2  0  0  0  0
 53 57  1  0  0  0  0
 54 55  1  0  0  0  0
 55 56  2  0  0  0  0
M  END
>  <MODEL>
       1

$$$$
