tmp_first_model_9_76.pdb
 OpenBabel08272521403D

 66 71  0  0  1  0  0  0  0  0999 V2000
   -8.1950   -3.4710  -24.1030 C   0  0  0  0  0  0  0  0  0  0  0  0
   -8.4680   -2.7340  -22.7830 C   0  0  1  0  0  0  0  0  0  0  0  0
   -7.1830   -2.5240  -21.9490 C   0  0  0  0  0  0  0  0  0  0  0  0
   -7.4560   -1.3150  -21.1910 N   0  0  0  0  0  0  0  0  0  0  0  0
   -6.6160   -0.7930  -20.1690 C   0  0  0  0  0  0  0  0  0  0  0  0
   -6.9110   -1.0380  -18.8530 C   0  0  0  0  0  0  0  0  0  0  0  0
   -6.1940   -0.5580  -17.8110 N   0  0  0  0  0  0  0  0  0  0  0  0
   -5.1650    0.2080  -18.0820 C   0  0  0  0  0  0  0  0  0  0  0  0
   -4.7380    0.5400  -19.4000 C   0  0  0  0  0  0  0  0  0  0  0  0
   -3.6190    1.3830  -19.6430 C   0  0  0  0  0  0  0  0  0  0  0  0
   -3.2360    1.6820  -20.9250 C   0  0  0  0  0  0  0  0  0  0  0  0
   -3.9490    1.1390  -22.0160 C   0  0  0  0  0  0  0  0  0  0  0  0
   -5.0320    0.3160  -21.8050 C   0  0  0  0  0  0  0  0  0  0  0  0
   -5.4730    0.0100  -20.4850 C   0  0  0  0  0  0  0  0  0  0  0  0
   -5.5580   -0.0990  -22.6580 H   0  0  0  0  0  0  0  0  0  0  0  0
   -3.6430    1.3780  -23.0300 H   0  0  0  0  0  0  0  0  0  0  0  0
   -2.3940    2.3450  -21.1050 H   0  0  0  0  0  0  0  0  0  0  0  0
   -3.0940    1.7960  -18.7870 H   0  0  0  0  0  0  0  0  0  0  0  0
   -4.6190    0.6130  -17.2310 H   0  0  0  0  0  0  0  0  0  0  0  0
   -7.7660   -1.6590  -18.5930 H   0  0  0  0  0  0  0  0  0  0  0  0
   -8.5340   -0.5940  -21.6470 C   0  0  0  0  0  0  0  0  0  0  0  0
   -8.9220    0.4510  -21.1560 O   0  0  0  0  0  0  0  0  0  0  0  0
   -9.1340   -1.3210  -22.8750 C   0  0  1  0  0  0  0  0  0  0  0  0
   -8.7140   -0.5890  -24.1710 C   0  0  0  0  0  0  0  0  0  0  0  0
   -9.3150    0.7260  -24.2630 N   0  0  0  0  0  0  0  0  0  0  0  0
   -8.5150    1.7870  -24.8500 C   0  0  0  0  0  0  0  0  0  0  0  0
   -7.5560    2.4190  -23.8480 C   0  0  0  0  0  0  0  0  0  0  0  0
   -8.2830    3.2240  -22.8110 N   0  3  0  0  0  0  0  0  0  0  0  0
   -7.4860    3.3220  -21.5500 C   0  0  0  0  0  0  0  0  0  0  0  0
   -6.3320    4.3010  -21.6380 C   0  0  0  0  0  0  0  0  0  0  0  0
   -6.8010    5.5950  -21.9490 O   0  0  0  0  0  0  0  0  0  0  0  0
   -7.4380    5.5910  -23.2070 C   0  0  0  0  0  0  0  0  0  0  0  0
   -8.6440    4.6430  -23.2420 C   0  0  0  0  0  0  0  0  0  0  0  0
   -9.4030    5.0060  -22.5450 H   0  0  0  0  0  0  0  0  0  0  0  0
   -9.0630    4.6070  -24.2500 H   0  0  0  0  0  0  0  0  0  0  0  0
   -6.7130    5.3040  -23.9850 H   0  0  0  0  0  0  0  0  0  0  0  0
   -7.7630    6.6180  -23.3900 H   0  0  0  0  0  0  0  0  0  0  0  0
   -5.8550    4.3660  -20.6630 H   0  0  0  0  0  0  0  0  0  0  0  0
   -5.5840    3.9580  -22.3730 H   0  0  0  0  0  0  0  0  0  0  0  0
   -7.1350    2.3140  -21.3110 H   0  0  0  0  0  0  0  0  0  0  0  0
   -8.1590    3.6690  -20.7650 H   0  0  0  0  0  0  0  0  0  0  0  0
   -9.1450    2.7000  -22.5590 H   0  0  0  0  0  0  0  0  0  0  0  0
   -6.9890    1.6440  -23.3180 H   0  0  0  0  0  0  0  0  0  0  0  0
   -6.8380    3.0580  -24.3670 H   0  0  0  0  0  0  0  0  0  0  0  0
   -7.9310    1.3810  -25.6840 H   0  0  0  0  0  0  0  0  0  0  0  0
   -9.2130    2.5320  -25.2310 H   0  0  0  0  0  0  0  0  0  0  0  0
  -10.6640    0.8890  -24.0990 C   0  0  0  0  0  0  0  0  0  0  0  0
  -11.2630    1.8920  -24.4600 O   0  0  0  0  0  0  0  0  0  0  0  0
  -11.3670   -0.2370  -23.3920 C   0  0  0  0  0  0  0  0  0  0  0  0
  -12.7550   -0.1740  -23.2900 C   0  0  0  0  0  0  0  0  0  0  0  0
  -13.4440   -1.1160  -22.5540 C   0  0  0  0  0  0  0  0  0  0  0  0
  -12.7270   -2.1150  -21.8980 C   0  0  0  0  0  0  0  0  0  0  0  0
  -13.5800   -3.2480  -20.8890 Cl  0  0  0  0  0  0  0  0  0  0  0  0
  -11.3510   -2.1990  -21.9980 C   0  0  0  0  0  0  0  0  0  0  0  0
  -10.6500   -1.2840  -22.7920 C   0  0  0  0  0  0  0  0  0  0  0  0
  -10.8380   -2.9580  -21.4180 H   0  0  0  0  0  0  0  0  0  0  0  0
  -14.5210   -1.0690  -22.4530 H   0  0  0  0  0  0  0  0  0  0  0  0
  -13.2570    0.6500  -23.7850 H   0  0  0  0  0  0  0  0  0  0  0  0
   -7.6270   -0.4580  -24.1810 H   0  0  0  0  0  0  0  0  0  0  0  0
   -9.0070   -1.2080  -25.0340 H   0  0  0  0  0  0  0  0  0  0  0  0
   -6.9750   -3.3640  -21.2750 H   0  0  0  0  0  0  0  0  0  0  0  0
   -6.3020   -2.4020  -22.5990 H   0  0  0  0  0  0  0  0  0  0  0  0
   -9.1460   -3.3480  -22.1850 H   0  0  0  0  0  0  0  0  0  0  0  0
   -9.1010   -3.5780  -24.7120 H   0  0  0  0  0  0  0  0  0  0  0  0
   -7.4470   -2.9410  -24.7080 H   0  0  0  0  0  0  0  0  0  0  0  0
   -7.8010   -4.4790  -23.9160 H   0  0  0  0  0  0  0  0  0  0  0  0
  1  2  1  0  0  0  0
  1 64  1  0  0  0  0
  1 65  1  0  0  0  0
  1 66  1  0  0  0  0
  2  3  1  0  0  0  0
  2 23  1  0  0  0  0
  2 63  1  1  0  0  0
  3  4  1  0  0  0  0
  3 61  1  0  0  0  0
  3 62  1  0  0  0  0
  4  5  1  0  0  0  0
  4 21  1  0  0  0  0
  5  6  2  0  0  0  0
  5 14  1  0  0  0  0
  6  7  1  0  0  0  0
  6 20  1  0  0  0  0
  7  8  2  0  0  0  0
  8  9  1  0  0  0  0
  8 19  1  0  0  0  0
  9 10  2  0  0  0  0
  9 14  1  0  0  0  0
 10 11  1  0  0  0  0
 10 18  1  0  0  0  0
 11 12  2  0  0  0  0
 11 17  1  0  0  0  0
 12 13  1  0  0  0  0
 12 16  1  0  0  0  0
 13 14  2  0  0  0  0
 13 15  1  0  0  0  0
 21 22  2  0  0  0  0
 23 21  1  1  0  0  0
 23 24  1  0  0  0  0
 23 55  1  0  0  0  0
 24 25  1  0  0  0  0
 24 59  1  0  0  0  0
 24 60  1  0  0  0  0
 25 26  1  0  0  0  0
 25 47  1  0  0  0  0
 26 27  1  0  0  0  0
 26 45  1  0  0  0  0
 26 46  1  0  0  0  0
 27 28  1  0  0  0  0
 27 43  1  0  0  0  0
 27 44  1  0  0  0  0
 28 29  1  0  0  0  0
 28 33  1  0  0  0  0
 28 42  1  0  0  0  0
 29 30  1  0  0  0  0
 29 40  1  0  0  0  0
 29 41  1  0  0  0  0
 30 31  1  0  0  0  0
 30 38  1  0  0  0  0
 30 39  1  0  0  0  0
 31 32  1  0  0  0  0
 32 33  1  0  0  0  0
 32 36  1  0  0  0  0
 32 37  1  0  0  0  0
 33 34  1  0  0  0  0
 33 35  1  0  0  0  0
 47 48  2  0  0  0  0
 47 49  1  0  0  0  0
 49 50  2  0  0  0  0
 49 55  1  0  0  0  0
 50 51  1  0  0  0  0
 50 58  1  0  0  0  0
 51 52  2  0  0  0  0
 51 57  1  0  0  0  0
 52 53  1  0  0  0  0
 52 54  1  0  0  0  0
 54 55  2  0  0  0  0
 54 56  1  0  0  0  0
M  CHG  1  28   1
M  END
>  <MODEL>
       1

$$$$
