tmp_first_model_1_17.pdb
 OpenBabel08272517043D

 38 41  0  0  1  0  0  0  0  0999 V2000
   -9.3480   -4.9450  -25.6910 C   0  0  0  0  0  0  0  0  0  0  0  0
   -9.3470   -4.1960  -24.3580 C   0  0  2  0  0  0  0  0  0  0  0  0
  -10.3490   -3.0430  -24.3820 C   0  0  0  0  0  0  0  0  0  0  0  0
  -10.4200   -2.3550  -23.0170 C   0  0  0  0  0  0  0  0  0  0  0  0
   -9.0740   -2.1280  -22.4760 C   0  0  0  0  0  0  0  0  0  0  0  0
   -8.6940   -1.2290  -21.4390 C   0  0  0  0  0  0  0  0  0  0  0  0
   -9.3450   -0.3880  -20.8770 O   0  5  0  0  0  0  0  0  0  0  0  0
   -7.3230   -1.4860  -21.2090 N   0  0  0  0  0  0  0  0  0  0  0  0
   -6.5670   -0.8470  -20.1870 C   0  0  0  0  0  0  0  0  0  0  0  0
   -6.8880   -1.0550  -18.8700 C   0  0  0  0  0  0  0  0  0  0  0  0
   -6.1900   -0.5550  -17.8200 N   0  0  0  0  0  0  0  0  0  0  0  0
   -5.1590    0.2120  -18.0770 C   0  0  0  0  0  0  0  0  0  0  0  0
   -4.7270    0.5340  -19.3910 C   0  0  0  0  0  0  0  0  0  0  0  0
   -3.6000    1.3680  -19.6270 C   0  0  0  0  0  0  0  0  0  0  0  0
   -3.2210    1.6690  -20.9070 C   0  0  0  0  0  0  0  0  0  0  0  0
   -3.9530    1.1570  -22.0010 C   0  0  0  0  0  0  0  0  0  0  0  0
   -5.0470    0.3540  -21.7980 C   0  0  0  0  0  0  0  0  0  0  0  0
   -5.4540    0.0050  -20.4850 C   0  0  0  0  0  0  0  0  0  0  0  0
   -5.6070   -0.0300  -22.6440 H   0  0  0  0  0  0  0  0  0  0  0  0
   -3.6510    1.4060  -23.0150 H   0  0  0  0  0  0  0  0  0  0  0  0
   -2.3670    2.3150  -21.0950 H   0  0  0  0  0  0  0  0  0  0  0  0
   -3.0600    1.7720  -18.7740 H   0  0  0  0  0  0  0  0  0  0  0  0
   -4.6130    0.6190  -17.2220 H   0  0  0  0  0  0  0  0  0  0  0  0
   -7.7410   -1.6720  -18.5980 H   0  0  0  0  0  0  0  0  0  0  0  0
   -6.8500   -2.4310  -22.1280 C   0  0  0  0  0  0  0  0  0  0  0  0
   -5.7160   -2.8300  -22.2460 O   0  0  0  0  0  0  0  0  0  0  0  0
   -7.9670   -2.7930  -22.8740 N   0  0  0  0  0  0  0  0  0  0  0  0
   -7.9440   -3.6870  -24.0140 C   0  0  0  0  0  0  0  0  0  0  0  0
   -7.2760   -4.5020  -23.7590 H   0  0  0  0  0  0  0  0  0  0  0  0
   -7.5080   -3.1780  -24.8770 H   0  0  0  0  0  0  0  0  0  0  0  0
  -10.9610   -1.4040  -23.0790 H   0  0  0  0  0  0  0  0  0  0  0  0
  -11.0040   -2.9650  -22.3100 H   0  0  0  0  0  0  0  0  0  0  0  0
  -10.0340   -2.3170  -25.1410 H   0  0  0  0  0  0  0  0  0  0  0  0
  -11.3420   -3.4070  -24.6770 H   0  0  0  0  0  0  0  0  0  0  0  0
   -9.6530   -4.9010  -23.5740 H   0  0  0  0  0  0  0  0  0  0  0  0
  -10.3420   -5.3470  -25.9210 H   0  0  0  0  0  0  0  0  0  0  0  0
   -8.6480   -5.7870  -25.6930 H   0  0  0  0  0  0  0  0  0  0  0  0
   -9.0720   -4.2810  -26.5200 H   0  0  0  0  0  0  0  0  0  0  0  0
  1  2  1  0  0  0  0
  1 36  1  0  0  0  0
  1 37  1  0  0  0  0
  1 38  1  0  0  0  0
  2  3  1  0  0  0  0
  2 28  1  0  0  0  0
  2 35  1  1  0  0  0
  3  4  1  0  0  0  0
  3 33  1  0  0  0  0
  3 34  1  0  0  0  0
  4  5  1  0  0  0  0
  4 31  1  0  0  0  0
  4 32  1  0  0  0  0
  5  6  2  0  0  0  0
  5 27  1  0  0  0  0
  6  7  1  0  0  0  0
  6  8  1  0  0  0  0
  8  9  1  0  0  0  0
  8 25  1  0  0  0  0
  9 10  2  0  0  0  0
  9 18  1  0  0  0  0
 10 11  1  0  0  0  0
 10 24  1  0  0  0  0
 11 12  2  0  0  0  0
 12 13  1  0  0  0  0
 12 23  1  0  0  0  0
 13 14  2  0  0  0  0
 13 18  1  0  0  0  0
 14 15  1  0  0  0  0
 14 22  1  0  0  0  0
 15 16  2  0  0  0  0
 15 21  1  0  0  0  0
 16 17  1  0  0  0  0
 16 20  1  0  0  0  0
 17 18  2  0  0  0  0
 17 19  1  0  0  0  0
 25 26  2  0  0  0  0
 25 27  1  0  0  0  0
 27 28  1  0  0  0  0
 28 29  1  0  0  0  0
 28 30  1  0  0  0  0
M  CHG  1   7  -1
M  END
>  <MODEL>
       1

$$$$
