tmp_first_model_8_84.pdb
 OpenBabel08272521063D

 63 68  0  0  1  0  0  0  0  0999 V2000
   -8.3640   -4.2100  -23.4920 C   0  0  0  0  0  0  0  0  0  0  0  0
   -8.5520   -3.0120  -22.5680 C   0  0  1  0  0  0  0  0  0  0  0  0
   -7.3440   -2.7750  -21.6520 C   0  0  0  0  0  0  0  0  0  0  0  0
   -7.4680   -1.3780  -21.2870 N   0  0  0  0  0  0  0  0  0  0  0  0
   -6.7040   -0.7850  -20.2460 C   0  0  0  0  0  0  0  0  0  0  0  0
   -6.9790   -1.1170  -18.9430 C   0  0  0  0  0  0  0  0  0  0  0  0
   -6.2980   -0.6570  -17.8650 N   0  0  0  0  0  0  0  0  0  0  0  0
   -5.2900    0.1500  -18.0880 C   0  0  0  0  0  0  0  0  0  0  0  0
   -4.8750    0.5590  -19.3860 C   0  0  0  0  0  0  0  0  0  0  0  0
   -3.7530    1.4120  -19.5670 C   0  0  0  0  0  0  0  0  0  0  0  0
   -3.3520    1.7690  -20.8240 C   0  0  0  0  0  0  0  0  0  0  0  0
   -4.0620    1.3040  -21.9530 C   0  0  0  0  0  0  0  0  0  0  0  0
   -5.1540    0.4870  -21.8020 C   0  0  0  0  0  0  0  0  0  0  0  0
   -5.5960    0.0890  -20.5090 C   0  0  0  0  0  0  0  0  0  0  0  0
   -5.6930    0.1440  -22.6800 H   0  0  0  0  0  0  0  0  0  0  0  0
   -3.7270    1.5840  -22.9480 H   0  0  0  0  0  0  0  0  0  0  0  0
   -2.4900    2.4150  -20.9660 H   0  0  0  0  0  0  0  0  0  0  0  0
   -3.2270    1.7720  -18.6850 H   0  0  0  0  0  0  0  0  0  0  0  0
   -4.7370    0.5150  -17.2210 H   0  0  0  0  0  0  0  0  0  0  0  0
   -7.8110   -1.7860  -18.7260 H   0  0  0  0  0  0  0  0  0  0  0  0
   -8.2950   -0.6650  -22.1300 C   0  0  0  0  0  0  0  0  0  0  0  0
   -8.5210    0.5220  -22.0150 O   0  0  0  0  0  0  0  0  0  0  0  0
   -8.8280   -1.6160  -23.2300 C   0  0  1  0  0  0  0  0  0  0  0  0
   -7.9980   -1.3340  -24.5080 C   0  0  0  0  0  0  0  0  0  0  0  0
   -8.5920   -1.8580  -25.7370 N   0  0  0  0  0  0  0  0  0  0  0  0
   -7.7160   -2.2090  -26.8480 C   0  0  0  0  0  0  0  0  0  0  0  0
   -7.6450   -3.7280  -27.0970 C   0  0  0  0  0  0  0  0  0  0  0  0
   -6.7750   -4.4300  -26.6050 O   0  0  0  0  0  0  0  0  0  0  0  0
   -8.6310   -4.2000  -27.8980 N   0  0  0  0  0  0  0  0  0  0  0  0
   -8.6460   -5.5770  -28.3480 C   0  0  0  0  0  0  0  0  0  0  0  0
   -7.4790   -5.9180  -29.1640 C   0  0  0  0  0  0  0  0  0  0  0  0
   -6.5350   -4.9740  -29.4320 F   0  0  0  0  0  0  0  0  0  0  0  0
   -7.3370   -6.9640  -30.0030 C   0  0  0  0  0  0  0  0  0  0  0  0
   -7.4580   -7.1470  -29.9400 C   0  0  0  0  0  0  0  0  0  0  0  0
   -6.2080   -7.6060  -29.8660 H   0  0  0  0  0  0  0  0  0  0  0  0
   -8.3210   -8.2420  -29.0460 H   0  0  0  0  0  0  0  0  0  0  0  0
   -6.3410   -6.6930  -30.7060 H   0  0  0  0  0  0  0  0  0  0  0  0
   -8.1520   -6.9810  -31.0160 H   0  0  0  0  0  0  0  0  0  0  0  0
   -8.7020   -6.2620  -27.4830 H   0  0  0  0  0  0  0  0  0  0  0  0
   -9.6150   -5.7220  -28.8630 H   0  0  0  0  0  0  0  0  0  0  0  0
   -9.4300   -3.5990  -28.0600 H   0  0  0  0  0  0  0  0  0  0  0  0
   -8.0700   -1.7080  -27.7540 H   0  0  0  0  0  0  0  0  0  0  0  0
   -6.7090   -1.8610  -26.6200 H   0  0  0  0  0  0  0  0  0  0  0  0
   -9.9300   -1.8260  -25.9810 C   0  0  0  0  0  0  0  0  0  0  0  0
  -10.4000   -2.0980  -27.0910 O   0  0  0  0  0  0  0  0  0  0  0  0
  -10.8060   -1.4790  -24.8290 C   0  0  0  0  0  0  0  0  0  0  0  0
  -12.1660   -1.3040  -25.0830 C   0  0  0  0  0  0  0  0  0  0  0  0
  -13.0390   -1.0060  -24.0550 C   0  0  0  0  0  0  0  0  0  0  0  0
  -12.5250   -0.9210  -22.7650 C   0  0  0  0  0  0  0  0  0  0  0  0
  -13.3770   -0.6430  -21.7640 F   0  0  0  0  0  0  0  0  0  0  0  0
  -11.1850   -1.1180  -22.4810 C   0  0  0  0  0  0  0  0  0  0  0  0
  -10.2940   -1.3800  -23.5300 C   0  0  0  0  0  0  0  0  0  0  0  0
  -10.8320   -1.0630  -21.4560 H   0  0  0  0  0  0  0  0  0  0  0  0
  -14.1000   -0.8420  -24.2190 H   0  0  0  0  0  0  0  0  0  0  0  0
  -12.5100   -1.4120  -26.1070 H   0  0  0  0  0  0  0  0  0  0  0  0
   -7.0080   -1.7930  -24.4060 H   0  0  0  0  0  0  0  0  0  0  0  0
   -7.8570   -0.2440  -24.5780 H   0  0  0  0  0  0  0  0  0  0  0  0
   -6.3970   -2.9620  -22.1850 H   0  0  0  0  0  0  0  0  0  0  0  0
   -7.3530   -3.4080  -20.7600 H   0  0  0  0  0  0  0  0  0  0  0  0
   -9.4260   -3.1930  -21.9220 H   0  0  0  0  0  0  0  0  0  0  0  0
   -9.2320   -4.3570  -24.1420 H   0  0  0  0  0  0  0  0  0  0  0  0
   -7.4780   -4.1040  -24.1300 H   0  0  0  0  0  0  0  0  0  0  0  0
   -8.2350   -5.1200  -22.8950 H   0  0  0  0  0  0  0  0  0  0  0  0
  1  2  1  0  0  0  0
  1 61  1  0  0  0  0
  1 62  1  0  0  0  0
  1 63  1  0  0  0  0
  2  3  1  0  0  0  0
  2 23  1  0  0  0  0
  2 60  1  1  0  0  0
  3  4  1  0  0  0  0
  3 58  1  0  0  0  0
  3 59  1  0  0  0  0
  4  5  1  0  0  0  0
  4 21  1  0  0  0  0
  5  6  2  0  0  0  0
  5 14  1  0  0  0  0
  6  7  1  0  0  0  0
  6 20  1  0  0  0  0
  7  8  2  0  0  0  0
  8  9  1  0  0  0  0
  8 19  1  0  0  0  0
  9 10  2  0  0  0  0
  9 14  1  0  0  0  0
 10 11  1  0  0  0  0
 10 18  1  0  0  0  0
 11 12  2  0  0  0  0
 11 17  1  0  0  0  0
 12 13  1  0  0  0  0
 12 16  1  0  0  0  0
 13 14  2  0  0  0  0
 13 15  1  0  0  0  0
 21 22  2  0  0  0  0
 23 21  1  1  0  0  0
 23 24  1  0  0  0  0
 23 52  1  0  0  0  0
 24 25  1  0  0  0  0
 24 56  1  0  0  0  0
 24 57  1  0  0  0  0
 25 26  1  0  0  0  0
 25 44  1  0  0  0  0
 26 27  1  0  0  0  0
 26 42  1  0  0  0  0
 26 43  1  0  0  0  0
 27 28  2  0  0  0  0
 27 29  1  0  0  0  0
 29 30  1  0  0  0  0
 29 41  1  0  0  0  0
 30 31  1  0  0  0  0
 30 39  1  0  0  0  0
 30 40  1  0  0  0  0
 31 32  1  0  0  0  0
 31 33  1  0  0  0  0
 31 34  1  0  0  0  0
 33 34  1  0  0  0  0
 33 37  1  0  0  0  0
 33 38  1  0  0  0  0
 34 35  1  0  0  0  0
 34 36  1  0  0  0  0
 44 45  2  0  0  0  0
 44 46  1  0  0  0  0
 46 47  2  0  0  0  0
 46 52  1  0  0  0  0
 47 48  1  0  0  0  0
 47 55  1  0  0  0  0
 48 49  2  0  0  0  0
 48 54  1  0  0  0  0
 49 50  1  0  0  0  0
 49 51  1  0  0  0  0
 51 52  2  0  0  0  0
 51 53  1  0  0  0  0
M  END
>  <MODEL>
       1

$$$$
