tmp_first_model_19_68.pdb
 OpenBabel08282503233D

 65 70  0  0  1  0  0  0  0  0999 V2000
   -5.6550   -3.2100  -21.2870 O   0  0  0  0  0  0  0  0  0  0  0  0
   -6.6160   -2.7390  -21.8800 C   0  0  0  0  0  0  0  0  0  0  0  0
   -7.3400   -1.5150  -21.3120 C   0  0  0  0  0  0  0  0  0  0  0  0
   -6.5640   -0.8540  -20.2170 C   0  0  0  0  0  0  0  0  0  0  0  0
   -6.8880   -1.0770  -18.9070 C   0  0  0  0  0  0  0  0  0  0  0  0
   -6.2230   -0.5740  -17.8340 N   0  0  0  0  0  0  0  0  0  0  0  0
   -5.1890    0.1920  -18.0880 C   0  0  0  0  0  0  0  0  0  0  0  0
   -4.7220    0.4910  -19.3970 C   0  0  0  0  0  0  0  0  0  0  0  0
   -3.5930    1.3190  -19.6250 C   0  0  0  0  0  0  0  0  0  0  0  0
   -3.1850    1.6070  -20.8990 C   0  0  0  0  0  0  0  0  0  0  0  0
   -3.8870    1.0760  -22.0050 C   0  0  0  0  0  0  0  0  0  0  0  0
   -4.9810    0.2710  -21.8110 C   0  0  0  0  0  0  0  0  0  0  0  0
   -5.4290   -0.0440  -20.4990 C   0  0  0  0  0  0  0  0  0  0  0  0
   -5.5210   -0.1210  -22.6690 H   0  0  0  0  0  0  0  0  0  0  0  0
   -3.5660    1.3220  -23.0140 H   0  0  0  0  0  0  0  0  0  0  0  0
   -2.3300    2.2550  -21.0690 H   0  0  0  0  0  0  0  0  0  0  0  0
   -3.0800    1.7400  -18.7630 H   0  0  0  0  0  0  0  0  0  0  0  0
   -4.6600    0.6170  -17.2330 H   0  0  0  0  0  0  0  0  0  0  0  0
   -7.7440   -1.7070  -18.6660 H   0  0  0  0  0  0  0  0  0  0  0  0
   -8.3020   -1.8720  -20.9220 H   0  0  0  0  0  0  0  0  0  0  0  0
   -7.5760   -0.8120  -22.1150 H   0  0  0  0  0  0  0  0  0  0  0  0
   -7.1330   -3.2840  -23.0410 N   0  0  0  0  0  0  0  0  0  0  0  0
   -7.8500   -2.4770  -24.0260 C   0  0  0  0  0  0  0  0  0  0  0  0
   -9.3120   -2.1830  -23.7280 C   0  0  0  0  0  0  0  0  0  0  0  0
   -9.9210   -1.0680  -24.3120 C   0  0  0  0  0  0  0  0  0  0  0  0
  -11.2530   -0.7650  -24.0450 C   0  0  0  0  0  0  0  0  0  0  0  0
  -12.0100   -1.5730  -23.2020 C   0  0  0  0  0  0  0  0  0  0  0  0
  -11.4040   -2.6880  -22.6390 C   0  0  0  0  0  0  0  0  0  0  0  0
  -12.3350   -3.7340  -21.6010 Cl  0  0  0  0  0  0  0  0  0  0  0  0
  -10.0720   -2.9970  -22.8870 C   0  0  0  0  0  0  0  0  0  0  0  0
   -9.6390   -3.8630  -22.4020 H   0  0  0  0  0  0  0  0  0  0  0  0
  -13.0470   -1.3460  -22.9820 H   0  0  0  0  0  0  0  0  0  0  0  0
  -11.7100    0.1120  -24.4950 H   0  0  0  0  0  0  0  0  0  0  0  0
   -9.3510   -0.4250  -24.9790 H   0  0  0  0  0  0  0  0  0  0  0  0
   -7.7740   -2.9790  -24.9940 H   0  0  0  0  0  0  0  0  0  0  0  0
   -7.3160   -1.5270  -24.1620 H   0  0  0  0  0  0  0  0  0  0  0  0
   -6.7890   -4.6710  -23.3650 C   0  0  2  0  0  0  0  0  0  0  0  0
   -7.7040   -5.3400  -24.4150 C   0  0  0  0  0  0  0  0  0  0  0  0
   -7.4890   -6.8550  -24.1880 C   0  0  0  0  0  0  0  0  0  0  0  0
   -6.4650   -6.8690  -23.0590 C   0  0  2  0  0  0  0  0  0  0  0  0
   -6.8800   -5.6790  -22.2070 C   0  0  0  0  0  0  0  0  0  0  0  0
   -6.1990   -5.4430  -21.3850 H   0  0  0  0  0  0  0  0  0  0  0  0
   -7.9030   -5.7520  -21.8190 H   0  0  0  0  0  0  0  0  0  0  0  0
   -5.1310   -6.4090  -23.6900 N   0  3  2  0  0  0  0  0  0  0  0  0
   -3.9320   -6.7620  -22.8590 C   0  0  0  0  0  0  0  0  0  0  0  0
   -3.0870   -7.9390  -23.3630 C   0  0  0  0  0  0  0  0  0  0  0  0
   -3.7900   -9.0430  -24.1580 C   0  0  0  0  0  0  0  0  0  0  0  0
   -3.5080   -8.3590  -25.3900 O   0  0  0  0  0  0  0  0  0  0  0  0
   -2.4320   -7.6660  -24.7240 C   0  0  0  0  0  0  0  0  0  0  0  0
   -2.3820   -6.6190  -25.0380 H   0  0  0  0  0  0  0  0  0  0  0  0
   -1.4550   -8.1710  -24.8480 H   0  0  0  0  0  0  0  0  0  0  0  0
   -3.2130   -9.9800  -24.0690 H   0  0  0  0  0  0  0  0  0  0  0  0
   -4.8610   -9.2340  -24.0330 H   0  0  0  0  0  0  0  0  0  0  0  0
   -2.4530   -8.2900  -22.5470 H   0  0  0  0  0  0  0  0  0  0  0  0
   -3.2730   -5.8880  -22.8230 H   0  0  0  0  0  0  0  0  0  0  0  0
   -4.2660   -6.9330  -21.8310 H   0  0  0  0  0  0  0  0  0  0  0  0
   -5.3470   -4.8990  -23.8660 C   0  0  0  0  0  0  0  0  0  0  0  0
   -4.6330   -4.3570  -23.2470 H   0  0  0  0  0  0  0  0  0  0  0  0
   -5.2010   -4.6320  -24.9140 H   0  0  0  0  0  0  0  0  0  0  0  0
   -5.0040   -6.8500  -24.6140 H   0  0  0  0  0  0  0  0  0  0  0  0
   -6.3230   -7.8190  -22.5430 H   0  0  0  0  0  0  0  0  0  0  0  0
   -8.4190   -7.3510  -23.8980 H   0  0  0  0  0  0  0  0  0  0  0  0
   -7.0860   -7.3690  -25.0680 H   0  0  0  0  0  0  0  0  0  0  0  0
   -7.4320   -5.0380  -25.4300 H   0  0  0  0  0  0  0  0  0  0  0  0
   -8.7410   -5.0470  -24.2350 H   0  0  0  0  0  0  0  0  0  0  0  0
  1  2  2  0  0  0  0
  2  3  1  0  0  0  0
  2 22  1  0  0  0  0
  3  4  1  0  0  0  0
  3 20  1  0  0  0  0
  3 21  1  0  0  0  0
  4  5  2  0  0  0  0
  4 13  1  0  0  0  0
  5  6  1  0  0  0  0
  5 19  1  0  0  0  0
  6  7  2  0  0  0  0
  7  8  1  0  0  0  0
  7 18  1  0  0  0  0
  8  9  2  0  0  0  0
  8 13  1  0  0  0  0
  9 10  1  0  0  0  0
  9 17  1  0  0  0  0
 10 11  2  0  0  0  0
 10 16  1  0  0  0  0
 11 12  1  0  0  0  0
 11 15  1  0  0  0  0
 12 13  2  0  0  0  0
 12 14  1  0  0  0  0
 22 23  1  0  0  0  0
 23 24  1  0  0  0  0
 23 35  1  0  0  0  0
 23 36  1  0  0  0  0
 24 25  2  0  0  0  0
 24 30  1  0  0  0  0
 25 26  1  0  0  0  0
 25 34  1  0  0  0  0
 26 27  2  0  0  0  0
 26 33  1  0  0  0  0
 27 28  1  0  0  0  0
 27 32  1  0  0  0  0
 28 29  1  0  0  0  0
 28 30  2  0  0  0  0
 30 31  1  0  0  0  0
 37 22  1  1  0  0  0
 37 38  1  0  0  0  0
 37 41  1  0  0  0  0
 37 57  1  0  0  0  0
 38 39  1  0  0  0  0
 38 64  1  0  0  0  0
 38 65  1  0  0  0  0
 39 40  1  0  0  0  0
 39 62  1  0  0  0  0
 39 63  1  0  0  0  0
 40 41  1  0  0  0  0
 40 44  1  0  0  0  0
 40 61  1  1  0  0  0
 41 42  1  0  0  0  0
 41 43  1  0  0  0  0
 44 45  1  0  0  0  0
 44 57  1  0  0  0  0
 44 60  1  6  0  0  0
 45 46  1  0  0  0  0
 45 55  1  0  0  0  0
 45 56  1  0  0  0  0
 46 47  1  0  0  0  0
 46 49  1  0  0  0  0
 46 54  1  0  0  0  0
 47 48  1  0  0  0  0
 47 52  1  0  0  0  0
 47 53  1  0  0  0  0
 48 49  1  0  0  0  0
 49 50  1  0  0  0  0
 49 51  1  0  0  0  0
 57 58  1  0  0  0  0
 57 59  1  0  0  0  0
M  CHG  1  44   1
M  END
>  <MODEL>
       1

$$$$
