tmp_first_model_18_58.pdb
 OpenBabel08282502533D

 42 45  0  0  1  0  0  0  0  0999 V2000
  -10.7700   -3.7020  -21.7140 C   0  0  0  0  0  0  0  0  0  0  0  0
   -9.7780   -3.2490  -22.6750 N   0  0  0  0  0  0  0  0  0  0  0  0
   -9.9720   -2.0300  -23.4410 C   0  0  0  0  0  0  0  0  0  0  0  0
   -8.6400   -1.2570  -23.5390 C   0  0  1  0  0  0  0  0  0  0  0  0
   -8.1950   -0.6380  -22.1840 C   0  0  0  0  0  0  0  0  0  0  0  0
   -8.5250    0.4890  -21.8780 O   0  0  0  0  0  0  0  0  0  0  0  0
   -7.4060   -1.4090  -21.3520 N   0  0  0  0  0  0  0  0  0  0  0  0
   -6.6560   -0.8470  -20.2780 C   0  0  0  0  0  0  0  0  0  0  0  0
   -6.9910   -1.1020  -18.9740 C   0  0  0  0  0  0  0  0  0  0  0  0
   -6.3400   -0.5960  -17.8920 N   0  0  0  0  0  0  0  0  0  0  0  0
   -5.3090    0.1830  -18.1150 C   0  0  0  0  0  0  0  0  0  0  0  0
   -4.8260    0.5030  -19.4130 C   0  0  0  0  0  0  0  0  0  0  0  0
   -3.6870    1.3300  -19.6050 C   0  0  0  0  0  0  0  0  0  0  0  0
   -3.2190    1.5810  -20.8660 C   0  0  0  0  0  0  0  0  0  0  0  0
   -3.8640    1.0090  -21.9880 C   0  0  0  0  0  0  0  0  0  0  0  0
   -4.9720    0.2170  -21.8290 C   0  0  0  0  0  0  0  0  0  0  0  0
   -5.5010   -0.0380  -20.5320 C   0  0  0  0  0  0  0  0  0  0  0  0
   -5.4470   -0.2440  -22.6930 H   0  0  0  0  0  0  0  0  0  0  0  0
   -3.4720    1.1990  -22.9830 H   0  0  0  0  0  0  0  0  0  0  0  0
   -2.3500    2.2170  -21.0130 H   0  0  0  0  0  0  0  0  0  0  0  0
   -3.2040    1.7510  -18.7260 H   0  0  0  0  0  0  0  0  0  0  0  0
   -4.7800    0.5880  -17.2480 H   0  0  0  0  0  0  0  0  0  0  0  0
   -7.8450   -1.7370  -18.7370 H   0  0  0  0  0  0  0  0  0  0  0  0
   -7.3960   -2.4150  -21.4450 H   0  0  0  0  0  0  0  0  0  0  0  0
   -7.6580   -2.1910  -24.1920 C   0  0  0  0  0  0  0  0  0  0  0  0
   -6.6960   -1.7050  -25.0810 C   0  0  0  0  0  0  0  0  0  0  0  0
   -5.8560   -2.5940  -25.7350 C   0  0  0  0  0  0  0  0  0  0  0  0
   -4.6700   -1.9990  -26.8670 Cl  0  0  0  0  0  0  0  0  0  0  0  0
   -5.9510   -3.9650  -25.5180 C   0  0  0  0  0  0  0  0  0  0  0  0
   -6.8930   -4.4420  -24.6200 C   0  0  0  0  0  0  0  0  0  0  0  0
   -7.7430   -3.5620  -23.9510 C   0  0  0  0  0  0  0  0  0  0  0  0
   -8.7400   -4.0960  -22.9630 C   0  0  0  0  0  0  0  0  0  0  0  0
   -8.6260   -5.2030  -22.4490 O   0  0  0  0  0  0  0  0  0  0  0  0
   -6.9880   -5.5050  -24.4350 H   0  0  0  0  0  0  0  0  0  0  0  0
   -5.3000   -4.6450  -26.0560 H   0  0  0  0  0  0  0  0  0  0  0  0
   -6.6060   -0.6430  -25.2880 H   0  0  0  0  0  0  0  0  0  0  0  0
   -8.7820   -0.3760  -24.1730 H   0  0  0  0  0  0  0  0  0  0  0  0
  -10.7390   -1.4180  -22.9610 H   0  0  0  0  0  0  0  0  0  0  0  0
  -10.3470   -2.2620  -24.4540 H   0  0  0  0  0  0  0  0  0  0  0  0
  -11.4160   -4.4870  -22.1320 H   0  0  0  0  0  0  0  0  0  0  0  0
  -10.2300   -4.1230  -20.8620 H   0  0  0  0  0  0  0  0  0  0  0  0
  -11.3840   -2.8550  -21.3840 H   0  0  0  0  0  0  0  0  0  0  0  0
  1  2  1  0  0  0  0
  1 40  1  0  0  0  0
  1 41  1  0  0  0  0
  1 42  1  0  0  0  0
  2  3  1  0  0  0  0
  2 32  1  0  0  0  0
  3  4  1  0  0  0  0
  3 38  1  0  0  0  0
  3 39  1  0  0  0  0
  4  5  1  0  0  0  0
  4 25  1  0  0  0  0
  4 37  1  6  0  0  0
  5  6  2  0  0  0  0
  5  7  1  0  0  0  0
  7  8  1  0  0  0  0
  7 24  1  0  0  0  0
  8  9  2  0  0  0  0
  8 17  1  0  0  0  0
  9 10  1  0  0  0  0
  9 23  1  0  0  0  0
 10 11  2  0  0  0  0
 11 12  1  0  0  0  0
 11 22  1  0  0  0  0
 12 13  2  0  0  0  0
 12 17  1  0  0  0  0
 13 14  1  0  0  0  0
 13 21  1  0  0  0  0
 14 15  2  0  0  0  0
 14 20  1  0  0  0  0
 15 16  1  0  0  0  0
 15 19  1  0  0  0  0
 16 17  2  0  0  0  0
 16 18  1  0  0  0  0
 25 26  2  0  0  0  0
 25 31  1  0  0  0  0
 26 27  1  0  0  0  0
 26 36  1  0  0  0  0
 27 28  1  0  0  0  0
 27 29  2  0  0  0  0
 29 30  1  0  0  0  0
 29 35  1  0  0  0  0
 30 31  2  0  0  0  0
 30 34  1  0  0  0  0
 31 32  1  0  0  0  0
 32 33  2  0  0  0  0
M  END
>  <MODEL>
       1

$$$$
