tmp_first_model_1_41.pdb
 OpenBabel08272517043D

 67 71  0  0  1  0  0  0  0  0999 V2000
   -4.9120   -1.5400  -29.0870 C   0  0  0  0  0  0  0  0  0  0  0  0
   -5.2170   -1.2970  -27.6990 N   0  0  0  0  0  0  0  0  0  0  0  0
   -4.7780   -0.1570  -27.1170 C   0  0  0  0  0  0  0  0  0  0  0  0
   -4.0150    0.6230  -27.6680 O   0  0  0  0  0  0  0  0  0  0  0  0
   -5.2640    0.1640  -25.7050 C   0  0  0  0  0  0  0  0  0  0  0  0
   -6.3890   -0.5980  -25.2080 N   0  0  0  0  0  0  0  0  0  0  0  0
   -6.1800   -1.6310  -24.2060 C   0  0  0  0  0  0  0  0  0  0  0  0
   -7.3600   -1.7950  -23.1950 C   0  0  2  0  0  0  0  0  0  0  0  0
   -7.2250   -0.8260  -21.9940 C   0  0  0  0  0  0  0  0  0  0  0  0
   -7.6910    0.2830  -21.8630 O   0  0  0  0  0  0  0  0  0  0  0  0
   -6.4750   -1.4710  -21.0300 N   0  0  0  0  0  0  0  0  0  0  0  0
   -5.9500   -0.7670  -19.9220 C   0  0  0  0  0  0  0  0  0  0  0  0
   -6.4210   -1.0300  -18.6610 C   0  0  0  0  0  0  0  0  0  0  0  0
   -5.9510   -0.4560  -17.5270 N   0  0  0  0  0  0  0  0  0  0  0  0
   -4.9620    0.3980  -17.6460 C   0  0  0  0  0  0  0  0  0  0  0  0
   -4.3650    0.7520  -18.8920 C   0  0  0  0  0  0  0  0  0  0  0  0
   -3.2510    1.6320  -18.9660 C   0  0  0  0  0  0  0  0  0  0  0  0
   -2.7320    1.9990  -20.1770 C   0  0  0  0  0  0  0  0  0  0  0  0
   -3.3100    1.5120  -21.3700 C   0  0  0  0  0  0  0  0  0  0  0  0
   -4.3710    0.6430  -21.3230 C   0  0  0  0  0  0  0  0  0  0  0  0
   -4.9080    0.2070  -20.0770 C   0  0  0  0  0  0  0  0  0  0  0  0
   -4.8170    0.2990  -22.2480 H   0  0  0  0  0  0  0  0  0  0  0  0
   -2.9130    1.8260  -22.3300 H   0  0  0  0  0  0  0  0  0  0  0  0
   -1.8860    2.6780  -20.2290 H   0  0  0  0  0  0  0  0  0  0  0  0
   -2.8220    2.0090  -18.0440 H   0  0  0  0  0  0  0  0  0  0  0  0
   -4.5890    0.8600  -16.7300 H   0  0  0  0  0  0  0  0  0  0  0  0
   -7.2400   -1.7370  -18.5340 H   0  0  0  0  0  0  0  0  0  0  0  0
   -6.1780   -2.8600  -21.3560 C   0  0  0  0  0  0  0  0  0  0  0  0
   -7.2460   -3.1410  -22.4270 C   0  0  2  0  0  0  0  0  0  0  0  0
   -7.1310   -4.4280  -23.2670 C   0  0  0  0  0  0  0  0  0  0  0  0
   -8.2950   -5.6810  -22.6750 S   0  0  0  0  0  0  0  0  0  0  0  0
   -9.5710   -5.0260  -22.3980 O   0  0  0  0  0  0  0  0  0  0  0  0
   -7.6280   -6.4580  -21.6410 O   0  0  0  0  0  0  0  0  0  0  0  0
   -8.4870   -6.6710  -24.0270 N   0  0  0  0  0  0  0  0  0  0  0  0
   -8.5420   -8.0940  -23.6850 C   0  0  0  0  0  0  0  0  0  0  0  0
   -7.6300   -8.3750  -23.1660 H   0  0  0  0  0  0  0  0  0  0  0  0
   -8.6190   -8.6490  -24.6160 H   0  0  0  0  0  0  0  0  0  0  0  0
   -9.4090   -8.3360  -23.0650 H   0  0  0  0  0  0  0  0  0  0  0  0
   -9.6220   -6.2860  -24.8710 C   0  0  0  0  0  0  0  0  0  0  0  0
   -9.4770   -5.2910  -25.2940 H   0  0  0  0  0  0  0  0  0  0  0  0
  -10.5700   -6.2970  -24.3230 H   0  0  0  0  0  0  0  0  0  0  0  0
   -9.6860   -6.9850  -25.7060 H   0  0  0  0  0  0  0  0  0  0  0  0
   -6.1470   -4.9160  -23.2340 H   0  0  0  0  0  0  0  0  0  0  0  0
   -7.4090   -4.2570  -24.3160 H   0  0  0  0  0  0  0  0  0  0  0  0
   -8.1820   -3.2180  -21.8700 H   0  0  0  0  0  0  0  0  0  0  0  0
   -5.1530   -2.9720  -21.7500 H   0  0  0  0  0  0  0  0  0  0  0  0
   -6.2900   -3.4950  -20.4700 H   0  0  0  0  0  0  0  0  0  0  0  0
   -8.6870   -1.5920  -23.8700 C   0  0  0  0  0  0  0  0  0  0  0  0
   -9.8780   -1.9880  -23.2420 C   0  0  0  0  0  0  0  0  0  0  0  0
  -11.0900   -1.6120  -23.7830 C   0  0  0  0  0  0  0  0  0  0  0  0
  -12.2070   -1.9890  -23.1330 F   0  0  0  0  0  0  0  0  0  0  0  0
  -11.1930   -0.8590  -24.9490 C   0  0  0  0  0  0  0  0  0  0  0  0
  -10.0250   -0.5170  -25.5850 C   0  0  0  0  0  0  0  0  0  0  0  0
   -8.7910   -0.8470  -25.0460 C   0  0  0  0  0  0  0  0  0  0  0  0
   -7.6090   -0.2500  -25.7150 C   0  0  0  0  0  0  0  0  0  0  0  0
   -7.7130    0.5290  -26.6580 O   0  0  0  0  0  0  0  0  0  0  0  0
  -10.0210    0.0470  -26.5030 H   0  0  0  0  0  0  0  0  0  0  0  0
  -12.1400   -0.5390  -25.3610 H   0  0  0  0  0  0  0  0  0  0  0  0
   -9.8910   -2.6080  -22.3520 H   0  0  0  0  0  0  0  0  0  0  0  0
   -5.2690   -1.3720  -23.6560 H   0  0  0  0  0  0  0  0  0  0  0  0
   -5.9880   -2.6030  -24.6880 H   0  0  0  0  0  0  0  0  0  0  0  0
   -5.5240    1.2270  -25.7160 H   0  0  0  0  0  0  0  0  0  0  0  0
   -4.4150    0.0530  -25.0240 H   0  0  0  0  0  0  0  0  0  0  0  0
   -5.8850   -1.8860  -27.2270 H   0  0  0  0  0  0  0  0  0  0  0  0
   -4.2500   -2.3980  -29.2150 H   0  0  0  0  0  0  0  0  0  0  0  0
   -4.4040   -0.6460  -29.4490 H   0  0  0  0  0  0  0  0  0  0  0  0
   -5.8280   -1.7000  -29.6600 H   0  0  0  0  0  0  0  0  0  0  0  0
  1  2  1  0  0  0  0
  1 65  1  0  0  0  0
  1 66  1  0  0  0  0
  1 67  1  0  0  0  0
  2  3  1  0  0  0  0
  2 64  1  0  0  0  0
  3  4  2  0  0  0  0
  3  5  1  0  0  0  0
  5  6  1  0  0  0  0
  5 62  1  0  0  0  0
  5 63  1  0  0  0  0
  6  7  1  0  0  0  0
  6 55  1  0  0  0  0
  7  8  1  0  0  0  0
  7 60  1  0  0  0  0
  7 61  1  0  0  0  0
  8  9  1  1  0  0  0
  8 29  1  0  0  0  0
  8 48  1  0  0  0  0
  9 10  2  0  0  0  0
  9 11  1  0  0  0  0
 11 12  1  0  0  0  0
 11 28  1  0  0  0  0
 12 13  2  0  0  0  0
 12 21  1  0  0  0  0
 13 14  1  0  0  0  0
 13 27  1  0  0  0  0
 14 15  2  0  0  0  0
 15 16  1  0  0  0  0
 15 26  1  0  0  0  0
 16 17  2  0  0  0  0
 16 21  1  0  0  0  0
 17 18  1  0  0  0  0
 17 25  1  0  0  0  0
 18 19  2  0  0  0  0
 18 24  1  0  0  0  0
 19 20  1  0  0  0  0
 19 23  1  0  0  0  0
 20 21  2  0  0  0  0
 20 22  1  0  0  0  0
 28 29  1  0  0  0  0
 28 46  1  0  0  0  0
 28 47  1  0  0  0  0
 29 30  1  0  0  0  0
 29 45  1  1  0  0  0
 30 31  1  0  0  0  0
 30 43  1  0  0  0  0
 30 44  1  0  0  0  0
 31 32  2  0  0  0  0
 31 33  2  0  0  0  0
 31 34  1  0  0  0  0
 34 35  1  0  0  0  0
 34 39  1  0  0  0  0
 35 36  1  0  0  0  0
 35 37  1  0  0  0  0
 35 38  1  0  0  0  0
 39 40  1  0  0  0  0
 39 41  1  0  0  0  0
 39 42  1  0  0  0  0
 48 49  2  0  0  0  0
 48 54  1  0  0  0  0
 49 50  1  0  0  0  0
 49 59  1  0  0  0  0
 50 51  1  0  0  0  0
 50 52  2  0  0  0  0
 52 53  1  0  0  0  0
 52 58  1  0  0  0  0
 53 54  2  0  0  0  0
 53 57  1  0  0  0  0
 54 55  1  0  0  0  0
 55 56  2  0  0  0  0
M  END
>  <MODEL>
       1

$$$$
