tmp_first_model_16_57.pdb
 OpenBabel08282501503D

 59 63  0  0  1  0  0  0  0  0999 V2000
  -14.5300   -1.2150  -23.5770 C   0  0  0  0  0  0  0  0  0  0  0  0
  -13.7910   -2.3970  -23.1860 N   0  0  0  0  0  0  0  0  0  0  0  0
  -13.4910   -2.6120  -21.8770 C   0  0  0  0  0  0  0  0  0  0  0  0
  -13.9700   -1.9590  -20.9610 O   0  0  0  0  0  0  0  0  0  0  0  0
  -12.5790   -3.8110  -21.6290 C   0  0  0  0  0  0  0  0  0  0  0  0
  -11.2630   -3.7350  -22.2440 N   0  0  0  0  0  0  0  0  0  0  0  0
  -10.1220   -3.2870  -21.4490 C   0  0  0  0  0  0  0  0  0  0  0  0
   -8.8780   -2.9440  -22.3160 C   0  0  2  0  0  0  0  0  0  0  0  0
   -7.6740   -2.7420  -21.3860 C   0  0  0  0  0  0  0  0  0  0  0  0
   -7.0440   -3.6100  -20.8110 O   0  0  0  0  0  0  0  0  0  0  0  0
   -7.3900   -1.3950  -21.2910 N   0  0  0  0  0  0  0  0  0  0  0  0
   -6.5850   -0.9200  -20.2330 C   0  0  0  0  0  0  0  0  0  0  0  0
   -6.8960   -1.2190  -18.9310 C   0  0  0  0  0  0  0  0  0  0  0  0
   -6.1430   -0.8540  -17.8670 N   0  0  0  0  0  0  0  0  0  0  0  0
   -5.0910   -0.1090  -18.1050 C   0  0  0  0  0  0  0  0  0  0  0  0
   -4.7130    0.3450  -19.4000 C   0  0  0  0  0  0  0  0  0  0  0  0
   -3.6240    1.2290  -19.6030 C   0  0  0  0  0  0  0  0  0  0  0  0
   -3.2490    1.5720  -20.8700 C   0  0  0  0  0  0  0  0  0  0  0  0
   -3.9430    1.0660  -21.9940 C   0  0  0  0  0  0  0  0  0  0  0  0
   -5.0350    0.2540  -21.8210 C   0  0  0  0  0  0  0  0  0  0  0  0
   -5.4540   -0.1030  -20.5140 C   0  0  0  0  0  0  0  0  0  0  0  0
   -5.5840   -0.1250  -22.6780 H   0  0  0  0  0  0  0  0  0  0  0  0
   -3.6120    1.3280  -22.9930 H   0  0  0  0  0  0  0  0  0  0  0  0
   -2.4050    2.2370  -21.0250 H   0  0  0  0  0  0  0  0  0  0  0  0
   -3.1200    1.6270  -18.7260 H   0  0  0  0  0  0  0  0  0  0  0  0
   -4.4760    0.1770  -17.2500 H   0  0  0  0  0  0  0  0  0  0  0  0
   -7.8020   -1.7770  -18.7050 H   0  0  0  0  0  0  0  0  0  0  0  0
   -8.3940   -0.5680  -21.9410 C   0  0  0  0  0  0  0  0  0  0  0  0
   -9.0130   -1.5070  -23.0050 C   0  0  0  0  0  0  0  0  0  0  0  0
  -10.4560   -1.0910  -23.2920 C   0  0  0  0  0  0  0  0  0  0  0  0
  -11.0540   -1.0740  -22.3760 H   0  0  0  0  0  0  0  0  0  0  0  0
  -10.9130   -1.8030  -23.9820 H   0  0  0  0  0  0  0  0  0  0  0  0
  -10.4910   -0.0950  -23.7400 H   0  0  0  0  0  0  0  0  0  0  0  0
   -8.2220   -1.4450  -24.3240 C   0  0  0  0  0  0  0  0  0  0  0  0
   -8.6340   -2.1730  -25.0320 H   0  0  0  0  0  0  0  0  0  0  0  0
   -8.3100   -0.4460  -24.7650 H   0  0  0  0  0  0  0  0  0  0  0  0
   -7.1600   -1.6820  -24.1840 H   0  0  0  0  0  0  0  0  0  0  0  0
   -7.9510    0.3350  -22.3760 H   0  0  0  0  0  0  0  0  0  0  0  0
   -9.1560   -0.2430  -21.2120 H   0  0  0  0  0  0  0  0  0  0  0  0
   -8.6310   -4.1110  -23.2430 C   0  0  0  0  0  0  0  0  0  0  0  0
   -7.3390   -4.4710  -23.6600 C   0  0  0  0  0  0  0  0  0  0  0  0
   -7.1760   -5.4710  -24.6020 C   0  0  0  0  0  0  0  0  0  0  0  0
   -5.5860   -5.8120  -25.2170 Cl  0  0  0  0  0  0  0  0  0  0  0  0
   -8.2580   -6.1870  -25.1130 C   0  0  0  0  0  0  0  0  0  0  0  0
   -9.5220   -5.8590  -24.6630 C   0  0  0  0  0  0  0  0  0  0  0  0
   -9.7150   -4.8210  -23.7600 C   0  0  0  0  0  0  0  0  0  0  0  0
  -11.1080   -4.4650  -23.3870 C   0  0  0  0  0  0  0  0  0  0  0  0
  -12.0760   -4.8000  -24.0680 O   0  0  0  0  0  0  0  0  0  0  0  0
  -10.3930   -6.4120  -24.9900 H   0  0  0  0  0  0  0  0  0  0  0  0
   -8.1060   -6.9680  -25.8540 H   0  0  0  0  0  0  0  0  0  0  0  0
   -6.4650   -3.9660  -23.2560 H   0  0  0  0  0  0  0  0  0  0  0  0
  -10.4050   -2.3830  -20.8990 H   0  0  0  0  0  0  0  0  0  0  0  0
   -9.8530   -4.0610  -20.7210 H   0  0  0  0  0  0  0  0  0  0  0  0
  -12.5090   -3.9890  -20.5510 H   0  0  0  0  0  0  0  0  0  0  0  0
  -13.0960   -4.6470  -22.1150 H   0  0  0  0  0  0  0  0  0  0  0  0
  -13.5110   -3.0830  -23.8700 H   0  0  0  0  0  0  0  0  0  0  0  0
  -13.9080   -0.3140  -23.5580 H   0  0  0  0  0  0  0  0  0  0  0  0
  -14.9260   -1.3540  -24.5830 H   0  0  0  0  0  0  0  0  0  0  0  0
  -15.3500   -1.0510  -22.8790 H   0  0  0  0  0  0  0  0  0  0  0  0
  1  2  1  0  0  0  0
  1 57  1  0  0  0  0
  1 58  1  0  0  0  0
  1 59  1  0  0  0  0
  2  3  1  0  0  0  0
  2 56  1  0  0  0  0
  3  4  2  0  0  0  0
  3  5  1  0  0  0  0
  5  6  1  0  0  0  0
  5 54  1  0  0  0  0
  5 55  1  0  0  0  0
  6  7  1  0  0  0  0
  6 47  1  0  0  0  0
  7  8  1  0  0  0  0
  7 52  1  0  0  0  0
  7 53  1  0  0  0  0
  8  9  1  1  0  0  0
  8 29  1  0  0  0  0
  8 40  1  0  0  0  0
  9 10  2  0  0  0  0
  9 11  1  0  0  0  0
 11 12  1  0  0  0  0
 11 28  1  0  0  0  0
 12 13  2  0  0  0  0
 12 21  1  0  0  0  0
 13 14  1  0  0  0  0
 13 27  1  0  0  0  0
 14 15  2  0  0  0  0
 15 16  1  0  0  0  0
 15 26  1  0  0  0  0
 16 17  2  0  0  0  0
 16 21  1  0  0  0  0
 17 18  1  0  0  0  0
 17 25  1  0  0  0  0
 18 19  2  0  0  0  0
 18 24  1  0  0  0  0
 19 20  1  0  0  0  0
 19 23  1  0  0  0  0
 20 21  2  0  0  0  0
 20 22  1  0  0  0  0
 28 29  1  0  0  0  0
 28 38  1  0  0  0  0
 28 39  1  0  0  0  0
 29 30  1  0  0  0  0
 29 34  1  0  0  0  0
 30 31  1  0  0  0  0
 30 32  1  0  0  0  0
 30 33  1  0  0  0  0
 34 35  1  0  0  0  0
 34 36  1  0  0  0  0
 34 37  1  0  0  0  0
 40 41  2  0  0  0  0
 40 46  1  0  0  0  0
 41 42  1  0  0  0  0
 41 51  1  0  0  0  0
 42 43  1  0  0  0  0
 42 44  2  0  0  0  0
 44 45  1  0  0  0  0
 44 50  1  0  0  0  0
 45 46  2  0  0  0  0
 45 49  1  0  0  0  0
 46 47  1  0  0  0  0
 47 48  2  0  0  0  0
M  END
>  <MODEL>
       1

$$$$
