tmp_first_model_18_4.pdb
 OpenBabel08282502533D

 59 64  0  0  1  0  0  0  0  0999 V2000
   -8.0860   -3.8440  -23.8380 C   0  0  0  0  0  0  0  0  0  0  0  0
   -8.3920   -2.8670  -22.7090 C   0  0  1  0  0  0  0  0  0  0  0  0
   -7.2360   -2.6870  -21.7200 C   0  0  0  0  0  0  0  0  0  0  0  0
   -7.4590   -1.3600  -21.1920 N   0  0  0  0  0  0  0  0  0  0  0  0
   -6.6320   -0.8000  -20.1910 C   0  0  0  0  0  0  0  0  0  0  0  0
   -6.9120   -1.0670  -18.8760 C   0  0  0  0  0  0  0  0  0  0  0  0
   -6.2180   -0.5710  -17.8230 N   0  0  0  0  0  0  0  0  0  0  0  0
   -5.1970    0.2070  -18.0980 C   0  0  0  0  0  0  0  0  0  0  0  0
   -4.7740    0.5300  -19.4190 C   0  0  0  0  0  0  0  0  0  0  0  0
   -3.6400    1.3530  -19.6500 C   0  0  0  0  0  0  0  0  0  0  0  0
   -3.2260    1.6310  -20.9220 C   0  0  0  0  0  0  0  0  0  0  0  0
   -3.9240    1.0960  -22.0290 C   0  0  0  0  0  0  0  0  0  0  0  0
   -5.0310    0.3050  -21.8360 C   0  0  0  0  0  0  0  0  0  0  0  0
   -5.4950    0.0090  -20.5170 C   0  0  0  0  0  0  0  0  0  0  0  0
   -5.5370   -0.1040  -22.7080 H   0  0  0  0  0  0  0  0  0  0  0  0
   -3.5890    1.3060  -23.0420 H   0  0  0  0  0  0  0  0  0  0  0  0
   -2.3570    2.2630  -21.0880 H   0  0  0  0  0  0  0  0  0  0  0  0
   -3.1130    1.7490  -18.7870 H   0  0  0  0  0  0  0  0  0  0  0  0
   -4.6250    0.6070  -17.2600 H   0  0  0  0  0  0  0  0  0  0  0  0
   -7.7650   -1.7010  -18.6350 H   0  0  0  0  0  0  0  0  0  0  0  0
   -8.2760   -0.5780  -21.9810 C   0  0  0  0  0  0  0  0  0  0  0  0
   -8.5090    0.5860  -21.7650 O   0  0  0  0  0  0  0  0  0  0  0  0
   -8.7770   -1.4370  -23.1630 C   0  0  1  0  0  0  0  0  0  0  0  0
   -8.0240   -1.0240  -24.4510 C   0  0  0  0  0  0  0  0  0  0  0  0
   -8.4420    0.2790  -24.9310 N   0  0  0  0  0  0  0  0  0  0  0  0
   -7.4400    1.3300  -25.0140 C   0  0  0  0  0  0  0  0  0  0  0  0
   -6.3300    0.9510  -25.9450 C   0  0  0  0  0  0  0  0  0  0  0  0
   -5.0870    0.7110  -25.5830 N   0  0  0  0  0  0  0  0  0  0  0  0
   -4.4420    0.3550  -26.7390 C   0  0  0  0  0  0  0  0  0  0  0  0
   -5.3070    0.3680  -27.7960 C   0  0  0  0  0  0  0  0  0  0  0  0
   -6.5230    0.7440  -27.2780 N   0  0  0  0  0  0  0  0  0  0  0  0
   -7.7580    0.9100  -28.0160 C   0  0  0  0  0  0  0  0  0  0  0  0
   -8.4780    0.1280  -27.7630 H   0  0  0  0  0  0  0  0  0  0  0  0
   -8.1930    1.8890  -27.8020 H   0  0  0  0  0  0  0  0  0  0  0  0
   -7.5420    0.8570  -29.0850 H   0  0  0  0  0  0  0  0  0  0  0  0
   -5.2000    0.1560  -28.8490 H   0  0  0  0  0  0  0  0  0  0  0  0
   -3.3920    0.1150  -26.7530 H   0  0  0  0  0  0  0  0  0  0  0  0
   -7.9630    2.2380  -25.3340 H   0  0  0  0  0  0  0  0  0  0  0  0
   -7.0020    1.4920  -24.0180 H   0  0  0  0  0  0  0  0  0  0  0  0
   -9.7650    0.5780  -25.0820 C   0  0  0  0  0  0  0  0  0  0  0  0
  -10.1660    1.5610  -25.6960 O   0  0  0  0  0  0  0  0  0  0  0  0
  -10.7110   -0.3590  -24.3990 C   0  0  0  0  0  0  0  0  0  0  0  0
  -12.0730   -0.1830  -24.6520 C   0  0  0  0  0  0  0  0  0  0  0  0
  -13.0100   -0.7800  -23.8360 C   0  0  0  0  0  0  0  0  0  0  0  0
  -12.5460   -1.6200  -22.8250 C   0  0  0  0  0  0  0  0  0  0  0  0
  -13.4380   -2.1620  -21.9800 F   0  0  0  0  0  0  0  0  0  0  0  0
  -11.2110   -1.9140  -22.6390 C   0  0  0  0  0  0  0  0  0  0  0  0
  -10.2570   -1.2610  -23.4290 C   0  0  0  0  0  0  0  0  0  0  0  0
  -10.9360   -2.5740  -21.8190 H   0  0  0  0  0  0  0  0  0  0  0  0
  -14.0740   -0.5840  -23.9250 H   0  0  0  0  0  0  0  0  0  0  0  0
  -12.3600    0.4980  -25.4470 H   0  0  0  0  0  0  0  0  0  0  0  0
   -6.9430   -1.0100  -24.2830 H   0  0  0  0  0  0  0  0  0  0  0  0
   -8.2360   -1.7670  -25.2280 H   0  0  0  0  0  0  0  0  0  0  0  0
   -7.2520   -3.4180  -20.9070 H   0  0  0  0  0  0  0  0  0  0  0  0
   -6.2620   -2.7630  -22.2300 H   0  0  0  0  0  0  0  0  0  0  0  0
   -9.2360   -3.2580  -22.1380 H   0  0  0  0  0  0  0  0  0  0  0  0
   -7.9060   -4.8530  -23.4540 H   0  0  0  0  0  0  0  0  0  0  0  0
   -8.9120   -3.8900  -24.5590 H   0  0  0  0  0  0  0  0  0  0  0  0
   -7.1850   -3.5240  -24.3770 H   0  0  0  0  0  0  0  0  0  0  0  0
  1  2  1  0  0  0  0
  1 57  1  0  0  0  0
  1 58  1  0  0  0  0
  1 59  1  0  0  0  0
  2  3  1  0  0  0  0
  2 23  1  0  0  0  0
  2 56  1  1  0  0  0
  3  4  1  0  0  0  0
  3 54  1  0  0  0  0
  3 55  1  0  0  0  0
  4  5  1  0  0  0  0
  4 21  1  0  0  0  0
  5  6  2  0  0  0  0
  5 14  1  0  0  0  0
  6  7  1  0  0  0  0
  6 20  1  0  0  0  0
  7  8  2  0  0  0  0
  8  9  1  0  0  0  0
  8 19  1  0  0  0  0
  9 10  2  0  0  0  0
  9 14  1  0  0  0  0
 10 11  1  0  0  0  0
 10 18  1  0  0  0  0
 11 12  2  0  0  0  0
 11 17  1  0  0  0  0
 12 13  1  0  0  0  0
 12 16  1  0  0  0  0
 13 14  2  0  0  0  0
 13 15  1  0  0  0  0
 21 22  2  0  0  0  0
 23 21  1  1  0  0  0
 23 24  1  0  0  0  0
 23 48  1  0  0  0  0
 24 25  1  0  0  0  0
 24 52  1  0  0  0  0
 24 53  1  0  0  0  0
 25 26  1  0  0  0  0
 25 40  1  0  0  0  0
 26 27  1  0  0  0  0
 26 38  1  0  0  0  0
 26 39  1  0  0  0  0
 27 28  2  0  0  0  0
 27 31  1  0  0  0  0
 28 29  1  0  0  0  0
 29 30  2  0  0  0  0
 29 37  1  0  0  0  0
 30 31  1  0  0  0  0
 30 36  1  0  0  0  0
 31 32  1  0  0  0  0
 32 33  1  0  0  0  0
 32 34  1  0  0  0  0
 32 35  1  0  0  0  0
 40 41  2  0  0  0  0
 40 42  1  0  0  0  0
 42 43  2  0  0  0  0
 42 48  1  0  0  0  0
 43 44  1  0  0  0  0
 43 51  1  0  0  0  0
 44 45  2  0  0  0  0
 44 50  1  0  0  0  0
 45 46  1  0  0  0  0
 45 47  1  0  0  0  0
 47 48  2  0  0  0  0
 47 49  1  0  0  0  0
M  END
>  <MODEL>
       1

$$$$
