tmp_first_model_15_55.pdb
 OpenBabel08282501153D

 61 66  0  0  1  0  0  0  0  0999 V2000
   -9.1430   -4.6290  -25.8170 C   0  0  0  0  0  0  0  0  0  0  0  0
   -9.3230   -4.0170  -24.5610 O   0  0  0  0  0  0  0  0  0  0  0  0
   -8.1030   -3.6490  -23.9680 C   0  0  0  0  0  0  0  0  0  0  0  0
   -8.3700   -2.9260  -22.6570 C   0  0  1  0  0  0  0  0  0  0  0  0
   -7.0620   -2.5300  -21.9610 C   0  0  0  0  0  0  0  0  0  0  0  0
   -7.4160   -1.3500  -21.2020 N   0  0  0  0  0  0  0  0  0  0  0  0
   -6.6130   -0.8010  -20.1730 C   0  0  0  0  0  0  0  0  0  0  0  0
   -6.9250   -1.0390  -18.8590 C   0  0  0  0  0  0  0  0  0  0  0  0
   -6.2240   -0.5520  -17.8060 N   0  0  0  0  0  0  0  0  0  0  0  0
   -5.1890    0.2100  -18.0760 C   0  0  0  0  0  0  0  0  0  0  0  0
   -4.7530    0.5320  -19.3940 C   0  0  0  0  0  0  0  0  0  0  0  0
   -3.6320    1.3690  -19.6340 C   0  0  0  0  0  0  0  0  0  0  0  0
   -3.2420    1.6560  -20.9140 C   0  0  0  0  0  0  0  0  0  0  0  0
   -3.9400    1.1120  -22.0140 C   0  0  0  0  0  0  0  0  0  0  0  0
   -5.0200    0.2840  -21.8050 C   0  0  0  0  0  0  0  0  0  0  0  0
   -5.4660   -0.0110  -20.4870 C   0  0  0  0  0  0  0  0  0  0  0  0
   -5.5730   -0.0980  -22.6570 H   0  0  0  0  0  0  0  0  0  0  0  0
   -3.6230    1.3690  -23.0220 H   0  0  0  0  0  0  0  0  0  0  0  0
   -2.3890    2.3030  -21.0930 H   0  0  0  0  0  0  0  0  0  0  0  0
   -3.0970    1.7720  -18.7800 H   0  0  0  0  0  0  0  0  0  0  0  0
   -4.6200    0.6070  -17.2340 H   0  0  0  0  0  0  0  0  0  0  0  0
   -7.7900   -1.6540  -18.6190 H   0  0  0  0  0  0  0  0  0  0  0  0
   -8.6410   -0.8090  -21.5350 C   0  0  0  0  0  0  0  0  0  0  0  0
   -9.1420    0.1530  -20.9980 O   0  0  0  0  0  0  0  0  0  0  0  0
   -9.2230   -1.6280  -22.7110 C   0  0  1  0  0  0  0  0  0  0  0  0
   -9.0030   -0.8680  -24.0390 C   0  0  0  0  0  0  0  0  0  0  0  0
   -9.8190    0.3300  -24.1160 N   0  0  0  0  0  0  0  0  0  0  0  0
   -9.1930    1.5470  -24.6060 C   0  0  0  0  0  0  0  0  0  0  0  0
   -8.3330    2.2200  -23.5770 C   0  0  0  0  0  0  0  0  0  0  0  0
   -6.9900    2.2740  -23.4160 C   0  0  0  0  0  0  0  0  0  0  0  0
   -6.7260    3.0720  -22.3290 N   0  3  0  0  0  0  0  0  0  0  0  0
   -7.8800    3.5120  -21.8250 C   0  0  0  0  0  0  0  0  0  0  0  0
   -8.8760    2.9940  -22.5600 N   0  0  0  0  0  0  0  0  0  0  0  0
   -9.8460    2.9680  -22.2560 H   0  0  0  0  0  0  0  0  0  0  0  0
   -7.9900    4.2350  -21.0270 H   0  0  0  0  0  0  0  0  0  0  0  0
   -5.8110    3.0860  -21.8930 H   0  0  0  0  0  0  0  0  0  0  0  0
   -6.1730    1.8070  -23.9450 H   0  0  0  0  0  0  0  0  0  0  0  0
   -8.6060    1.2910  -25.4960 H   0  0  0  0  0  0  0  0  0  0  0  0
  -10.0010    2.2150  -24.9240 H   0  0  0  0  0  0  0  0  0  0  0  0
  -11.1650    0.2970  -23.8610 C   0  0  0  0  0  0  0  0  0  0  0  0
  -11.9300    1.1810  -24.2160 O   0  0  0  0  0  0  0  0  0  0  0  0
  -11.6360   -0.9030  -23.0940 C   0  0  0  0  0  0  0  0  0  0  0  0
  -13.0100   -1.0450  -22.8900 C   0  0  0  0  0  0  0  0  0  0  0  0
  -13.4990   -2.0630  -22.0960 C   0  0  0  0  0  0  0  0  0  0  0  0
  -12.5880   -2.9470  -21.5210 C   0  0  0  0  0  0  0  0  0  0  0  0
  -13.1590   -4.2040  -20.4650 Cl  0  0  0  0  0  0  0  0  0  0  0  0
  -11.2290   -2.8400  -21.7420 C   0  0  0  0  0  0  0  0  0  0  0  0
  -10.7210   -1.8170  -22.5460 C   0  0  0  0  0  0  0  0  0  0  0  0
  -10.5800   -3.5500  -21.2440 H   0  0  0  0  0  0  0  0  0  0  0  0
  -14.5570   -2.1690  -21.8850 H   0  0  0  0  0  0  0  0  0  0  0  0
  -13.6770   -0.3250  -23.3530 H   0  0  0  0  0  0  0  0  0  0  0  0
   -9.2600   -1.5460  -24.8600 H   0  0  0  0  0  0  0  0  0  0  0  0
   -7.9510   -0.5810  -24.1480 H   0  0  0  0  0  0  0  0  0  0  0  0
   -6.2780   -2.3140  -22.7030 H   0  0  0  0  0  0  0  0  0  0  0  0
   -6.6970   -3.3210  -21.2970 H   0  0  0  0  0  0  0  0  0  0  0  0
   -8.8890   -3.6330  -22.0140 H   0  0  0  0  0  0  0  0  0  0  0  0
   -7.5190   -2.9980  -24.6430 H   0  0  0  0  0  0  0  0  0  0  0  0
   -7.4910   -4.5450  -23.7690 H   0  0  0  0  0  0  0  0  0  0  0  0
   -8.5140   -5.5310  -25.7480 H   0  0  0  0  0  0  0  0  0  0  0  0
  -10.1260   -4.9200  -26.1940 H   0  0  0  0  0  0  0  0  0  0  0  0
   -8.6840   -3.9380  -26.5430 H   0  0  0  0  0  0  0  0  0  0  0  0
  1  2  1  0  0  0  0
  1 59  1  0  0  0  0
  1 60  1  0  0  0  0
  1 61  1  0  0  0  0
  2  3  1  0  0  0  0
  3  4  1  0  0  0  0
  3 57  1  0  0  0  0
  3 58  1  0  0  0  0
  4  5  1  0  0  0  0
  4 25  1  0  0  0  0
  4 56  1  1  0  0  0
  5  6  1  0  0  0  0
  5 54  1  0  0  0  0
  5 55  1  0  0  0  0
  6  7  1  0  0  0  0
  6 23  1  0  0  0  0
  7  8  2  0  0  0  0
  7 16  1  0  0  0  0
  8  9  1  0  0  0  0
  8 22  1  0  0  0  0
  9 10  2  0  0  0  0
 10 11  1  0  0  0  0
 10 21  1  0  0  0  0
 11 12  2  0  0  0  0
 11 16  1  0  0  0  0
 12 13  1  0  0  0  0
 12 20  1  0  0  0  0
 13 14  2  0  0  0  0
 13 19  1  0  0  0  0
 14 15  1  0  0  0  0
 14 18  1  0  0  0  0
 15 16  2  0  0  0  0
 15 17  1  0  0  0  0
 23 24  2  0  0  0  0
 25 23  1  1  0  0  0
 25 26  1  0  0  0  0
 25 48  1  0  0  0  0
 26 27  1  0  0  0  0
 26 52  1  0  0  0  0
 26 53  1  0  0  0  0
 27 28  1  0  0  0  0
 27 40  1  0  0  0  0
 28 29  1  0  0  0  0
 28 38  1  0  0  0  0
 28 39  1  0  0  0  0
 29 30  2  0  0  0  0
 29 33  1  0  0  0  0
 30 31  1  0  0  0  0
 30 37  1  0  0  0  0
 31 32  2  0  0  0  0
 31 36  1  0  0  0  0
 32 33  1  0  0  0  0
 32 35  1  0  0  0  0
 33 34  1  0  0  0  0
 40 41  2  0  0  0  0
 40 42  1  0  0  0  0
 42 43  2  0  0  0  0
 42 48  1  0  0  0  0
 43 44  1  0  0  0  0
 43 51  1  0  0  0  0
 44 45  2  0  0  0  0
 44 50  1  0  0  0  0
 45 46  1  0  0  0  0
 45 47  1  0  0  0  0
 47 48  2  0  0  0  0
 47 49  1  0  0  0  0
M  CHG  1  31   1
M  END
>  <MODEL>
       1

$$$$
