tmp_first_model_15_12.pdb
 OpenBabel08282501153D

 76 82  0  0  1  0  0  0  0  0999 V2000
   -9.9370    1.2980  -26.0030 O   0  0  0  0  0  0  0  0  0  0  0  0
   -9.6620    0.4120  -25.2030 C   0  0  0  0  0  0  0  0  0  0  0  0
  -10.6980   -0.1600  -24.2820 C   0  0  0  0  0  0  0  0  0  0  0  0
  -12.0130    0.2750  -24.4360 C   0  0  0  0  0  0  0  0  0  0  0  0
  -13.0110   -0.1710  -23.5900 C   0  0  0  0  0  0  0  0  0  0  0  0
  -12.6650   -1.0550  -22.5700 C   0  0  0  0  0  0  0  0  0  0  0  0
  -13.8990   -1.7030  -21.5310 Cl  0  0  0  0  0  0  0  0  0  0  0  0
  -11.3540   -1.4430  -22.3620 C   0  0  0  0  0  0  0  0  0  0  0  0
  -10.3510   -1.0500  -23.2550 C   0  0  0  0  0  0  0  0  0  0  0  0
   -8.9110   -1.4880  -23.0630 C   0  0  1  0  0  0  0  0  0  0  0  0
   -8.1890   -1.3870  -24.4350 C   0  0  0  0  0  0  0  0  0  0  0  0
   -8.4020   -0.0900  -25.0490 N   0  0  0  0  0  0  0  0  0  0  0  0
   -7.3030    0.6180  -25.6720 C   0  0  0  0  0  0  0  0  0  0  0  0
   -7.1350    0.2410  -27.1400 C   0  0  0  0  0  0  0  0  0  0  0  0
   -5.8740    0.7850  -27.7190 N   0  3  0  0  0  0  0  0  0  0  0  0
   -5.8280    2.2990  -27.7830 C   0  0  0  0  0  0  0  0  0  0  0  0
   -4.5680    2.7630  -28.4970 C   0  0  0  0  0  0  0  0  0  0  0  0
   -4.4470    2.2010  -29.7890 O   0  0  0  0  0  0  0  0  0  0  0  0
   -4.3740    0.7920  -29.7060 C   0  0  0  0  0  0  0  0  0  0  0  0
   -5.6240    0.2020  -29.0800 C   0  0  0  0  0  0  0  0  0  0  0  0
   -5.5330   -0.8830  -28.9850 H   0  0  0  0  0  0  0  0  0  0  0  0
   -6.4920    0.4270  -29.7070 H   0  0  0  0  0  0  0  0  0  0  0  0
   -4.2510    0.4080  -30.7230 H   0  0  0  0  0  0  0  0  0  0  0  0
   -3.4950    0.4980  -29.1110 H   0  0  0  0  0  0  0  0  0  0  0  0
   -3.6870    2.4920  -27.8930 H   0  0  0  0  0  0  0  0  0  0  0  0
   -4.5810    3.8500  -28.6140 H   0  0  0  0  0  0  0  0  0  0  0  0
   -5.8430    2.7020  -26.7700 H   0  0  0  0  0  0  0  0  0  0  0  0
   -6.7170    2.6480  -28.3180 H   0  0  0  0  0  0  0  0  0  0  0  0
   -5.0990    0.4700  -27.0970 H   0  0  0  0  0  0  0  0  0  0  0  0
   -7.9910    0.6190  -27.7120 H   0  0  0  0  0  0  0  0  0  0  0  0
   -7.1190   -0.8510  -27.2490 H   0  0  0  0  0  0  0  0  0  0  0  0
   -6.3860    0.3940  -25.1070 H   0  0  0  0  0  0  0  0  0  0  0  0
   -7.5000    1.6880  -25.5750 H   0  0  0  0  0  0  0  0  0  0  0  0
   -8.5690   -2.1890  -25.0860 H   0  0  0  0  0  0  0  0  0  0  0  0
   -7.1140   -1.5510  -24.3010 H   0  0  0  0  0  0  0  0  0  0  0  0
   -8.2050   -0.5700  -22.0360 C   0  0  0  0  0  0  0  0  0  0  0  0
   -8.2930    0.6330  -21.9280 O   0  0  0  0  0  0  0  0  0  0  0  0
   -7.4210   -1.3590  -21.2280 N   0  0  0  0  0  0  0  0  0  0  0  0
   -6.6130   -0.8230  -20.2100 C   0  0  0  0  0  0  0  0  0  0  0  0
   -6.9160   -1.0830  -18.8970 C   0  0  0  0  0  0  0  0  0  0  0  0
   -6.2410   -0.5830  -17.8350 N   0  0  0  0  0  0  0  0  0  0  0  0
   -5.2140    0.1920  -18.0980 C   0  0  0  0  0  0  0  0  0  0  0  0
   -4.7770    0.5150  -19.4150 C   0  0  0  0  0  0  0  0  0  0  0  0
   -3.6510    1.3510  -19.6280 C   0  0  0  0  0  0  0  0  0  0  0  0
   -3.2240    1.6310  -20.8970 C   0  0  0  0  0  0  0  0  0  0  0  0
   -3.9020    1.0890  -22.0130 C   0  0  0  0  0  0  0  0  0  0  0  0
   -5.0010    0.2860  -21.8330 C   0  0  0  0  0  0  0  0  0  0  0  0
   -5.4780   -0.0120  -20.5200 C   0  0  0  0  0  0  0  0  0  0  0  0
   -5.5160   -0.1120  -22.7030 H   0  0  0  0  0  0  0  0  0  0  0  0
   -3.5470    1.3140  -23.0150 H   0  0  0  0  0  0  0  0  0  0  0  0
   -2.3620    2.2710  -21.0560 H   0  0  0  0  0  0  0  0  0  0  0  0
   -3.1450    1.7620  -18.7570 H   0  0  0  0  0  0  0  0  0  0  0  0
   -4.6600    0.6030  -17.2520 H   0  0  0  0  0  0  0  0  0  0  0  0
   -7.7740   -1.7140  -18.6670 H   0  0  0  0  0  0  0  0  0  0  0  0
   -7.4860   -2.7640  -21.5280 C   0  0  0  0  0  0  0  0  0  0  0  0
   -8.7240   -2.8910  -22.4110 C   0  0  2  0  0  0  0  0  0  0  0  0
   -8.5910   -4.0850  -23.3410 C   0  0  0  0  0  0  0  0  0  0  0  0
   -9.7790   -4.2910  -24.1300 N   0  0  0  0  0  0  0  0  0  0  0  0
   -9.8440   -5.3240  -25.0010 C   0  0  0  0  0  0  0  0  0  0  0  0
   -8.7680   -6.1370  -25.0640 N   0  0  0  0  0  0  0  0  0  0  0  0
   -8.8490   -7.1440  -25.9310 C   0  0  0  0  0  0  0  0  0  0  0  0
   -9.9700   -7.3640  -26.7190 C   0  0  0  0  0  0  0  0  0  0  0  0
  -11.0160   -6.4600  -26.5630 C   0  0  0  0  0  0  0  0  0  0  0  0
  -10.9780   -5.4420  -25.7140 N   0  0  0  0  0  0  0  0  0  0  0  0
  -11.9260   -6.5590  -27.1550 H   0  0  0  0  0  0  0  0  0  0  0  0
  -10.0330   -8.1900  -27.4120 H   0  0  0  0  0  0  0  0  0  0  0  0
   -7.9740   -7.7960  -25.9940 H   0  0  0  0  0  0  0  0  0  0  0  0
  -10.5730   -3.6630  -24.0760 H   0  0  0  0  0  0  0  0  0  0  0  0
   -8.4100   -4.9920  -22.7530 H   0  0  0  0  0  0  0  0  0  0  0  0
   -7.7320   -3.9640  -24.0190 H   0  0  0  0  0  0  0  0  0  0  0  0
   -9.5910   -3.0750  -21.7680 H   0  0  0  0  0  0  0  0  0  0  0  0
   -7.5720   -3.3440  -20.6150 H   0  0  0  0  0  0  0  0  0  0  0  0
   -6.5880   -3.1190  -22.0550 H   0  0  0  0  0  0  0  0  0  0  0  0
  -11.1300   -2.0130  -21.4670 H   0  0  0  0  0  0  0  0  0  0  0  0
  -14.0290    0.1850  -23.6950 H   0  0  0  0  0  0  0  0  0  0  0  0
  -12.2150    0.9780  -25.2350 H   0  0  0  0  0  0  0  0  0  0  0  0
  1  2  2  0  0  0  0
  2  3  1  0  0  0  0
  2 12  1  0  0  0  0
  3  4  2  0  0  0  0
  3  9  1  0  0  0  0
  4  5  1  0  0  0  0
  4 76  1  0  0  0  0
  5  6  2  0  0  0  0
  5 75  1  0  0  0  0
  6  7  1  0  0  0  0
  6  8  1  0  0  0  0
  8  9  2  0  0  0  0
  8 74  1  0  0  0  0
 10  9  1  6  0  0  0
 10 11  1  0  0  0  0
 10 36  1  0  0  0  0
 10 56  1  0  0  0  0
 11 12  1  0  0  0  0
 11 34  1  0  0  0  0
 11 35  1  0  0  0  0
 12 13  1  0  0  0  0
 13 14  1  0  0  0  0
 13 32  1  0  0  0  0
 13 33  1  0  0  0  0
 14 15  1  0  0  0  0
 14 30  1  0  0  0  0
 14 31  1  0  0  0  0
 15 16  1  0  0  0  0
 15 20  1  0  0  0  0
 15 29  1  0  0  0  0
 16 17  1  0  0  0  0
 16 27  1  0  0  0  0
 16 28  1  0  0  0  0
 17 18  1  0  0  0  0
 17 25  1  0  0  0  0
 17 26  1  0  0  0  0
 18 19  1  0  0  0  0
 19 20  1  0  0  0  0
 19 23  1  0  0  0  0
 19 24  1  0  0  0  0
 20 21  1  0  0  0  0
 20 22  1  0  0  0  0
 36 37  2  0  0  0  0
 36 38  1  0  0  0  0
 38 39  1  0  0  0  0
 38 55  1  0  0  0  0
 39 40  2  0  0  0  0
 39 48  1  0  0  0  0
 40 41  1  0  0  0  0
 40 54  1  0  0  0  0
 41 42  2  0  0  0  0
 42 43  1  0  0  0  0
 42 53  1  0  0  0  0
 43 44  2  0  0  0  0
 43 48  1  0  0  0  0
 44 45  1  0  0  0  0
 44 52  1  0  0  0  0
 45 46  2  0  0  0  0
 45 51  1  0  0  0  0
 46 47  1  0  0  0  0
 46 50  1  0  0  0  0
 47 48  2  0  0  0  0
 47 49  1  0  0  0  0
 55 56  1  0  0  0  0
 55 72  1  0  0  0  0
 55 73  1  0  0  0  0
 56 57  1  0  0  0  0
 56 71  1  1  0  0  0
 57 58  1  0  0  0  0
 57 69  1  0  0  0  0
 57 70  1  0  0  0  0
 58 59  1  0  0  0  0
 58 68  1  0  0  0  0
 59 60  2  0  0  0  0
 59 64  1  0  0  0  0
 60 61  1  0  0  0  0
 61 62  2  0  0  0  0
 61 67  1  0  0  0  0
 62 63  1  0  0  0  0
 62 66  1  0  0  0  0
 63 64  2  0  0  0  0
 63 65  1  0  0  0  0
M  CHG  1  15   1
M  END
>  <MODEL>
       1

$$$$
