tmp_first_model_6_66.pdb
 OpenBabel08272519583D

 44 47  0  0  1  0  0  0  0  0999 V2000
   -9.7840    1.4410  -24.4030 C   0  0  0  0  0  0  0  0  0  0  0  0
  -10.9240    0.5070  -24.0120 C   0  0  0  0  0  0  0  0  0  0  0  0
  -10.7710   -0.1490  -22.6340 C   0  0  1  0  0  0  0  0  0  0  0  0
  -11.9880   -0.9540  -22.3050 C   0  0  0  0  0  0  0  0  0  0  0  0
  -13.3010   -0.4190  -22.1580 C   0  0  0  0  0  0  0  0  0  0  0  0
  -14.1980   -1.3620  -21.7750 C   0  0  0  0  0  0  0  0  0  0  0  0
  -13.4870   -2.9200  -21.6710 S   0  0  0  0  0  0  0  0  0  0  0  0
  -11.9330   -2.2990  -22.0940 C   0  0  0  0  0  0  0  0  0  0  0  0
  -10.6990   -3.1420  -22.2530 C   0  0  0  0  0  0  0  0  0  0  0  0
   -9.6530   -2.3190  -23.0100 C   0  0  0  0  0  0  0  0  0  0  0  0
   -9.5630   -0.9590  -22.4820 N   0  0  0  0  0  0  0  0  0  0  0  0
   -8.5470   -0.4280  -21.7240 C   0  0  0  0  0  0  0  0  0  0  0  0
   -8.5150    0.7470  -21.4010 O   0  0  0  0  0  0  0  0  0  0  0  0
   -7.4630   -1.4040  -21.2630 C   0  0  0  0  0  0  0  0  0  0  0  0
   -6.6070   -0.8150  -20.1820 C   0  0  0  0  0  0  0  0  0  0  0  0
   -6.9060   -1.0650  -18.8700 C   0  0  0  0  0  0  0  0  0  0  0  0
   -6.2290   -0.5780  -17.8000 N   0  0  0  0  0  0  0  0  0  0  0  0
   -5.2070    0.2050  -18.0590 C   0  0  0  0  0  0  0  0  0  0  0  0
   -4.7870    0.5600  -19.3690 C   0  0  0  0  0  0  0  0  0  0  0  0
   -3.6550    1.3770  -19.5960 C   0  0  0  0  0  0  0  0  0  0  0  0
   -3.2800    1.7110  -20.8700 C   0  0  0  0  0  0  0  0  0  0  0  0
   -4.0320    1.2430  -21.9700 C   0  0  0  0  0  0  0  0  0  0  0  0
   -5.1230    0.4330  -21.7790 C   0  0  0  0  0  0  0  0  0  0  0  0
   -5.5170    0.0550  -20.4690 C   0  0  0  0  0  0  0  0  0  0  0  0
   -5.6790    0.0680  -22.6370 H   0  0  0  0  0  0  0  0  0  0  0  0
   -3.7230    1.5050  -22.9760 H   0  0  0  0  0  0  0  0  0  0  0  0
   -2.4110    2.3320  -21.0440 H   0  0  0  0  0  0  0  0  0  0  0  0
   -3.0930    1.7340  -18.7400 H   0  0  0  0  0  0  0  0  0  0  0  0
   -4.6460    0.5940  -17.2100 H   0  0  0  0  0  0  0  0  0  0  0  0
   -7.7520   -1.7060  -18.6230 H   0  0  0  0  0  0  0  0  0  0  0  0
   -7.9830   -2.2900  -20.8740 H   0  0  0  0  0  0  0  0  0  0  0  0
   -6.8710   -1.7230  -22.1340 H   0  0  0  0  0  0  0  0  0  0  0  0
   -8.6710   -2.8020  -23.0510 H   0  0  0  0  0  0  0  0  0  0  0  0
   -9.9930   -2.2450  -24.0490 H   0  0  0  0  0  0  0  0  0  0  0  0
  -10.3180   -3.4700  -21.2780 H   0  0  0  0  0  0  0  0  0  0  0  0
  -10.9180   -4.0650  -22.8010 H   0  0  0  0  0  0  0  0  0  0  0  0
  -15.2300   -1.2080  -21.5160 H   0  0  0  0  0  0  0  0  0  0  0  0
  -13.5770    0.6150  -22.3320 H   0  0  0  0  0  0  0  0  0  0  0  0
  -10.6580    0.6740  -21.9210 H   0  0  0  0  0  0  0  0  0  0  0  0
  -11.8610    1.0740  -23.9660 H   0  0  0  0  0  0  0  0  0  0  0  0
  -11.0860   -0.2720  -24.7660 H   0  0  0  0  0  0  0  0  0  0  0  0
   -8.8500    0.8930  -24.5870 H   0  0  0  0  0  0  0  0  0  0  0  0
  -10.0420    1.9910  -25.3180 H   0  0  0  0  0  0  0  0  0  0  0  0
   -9.6130    2.1690  -23.5980 H   0  0  0  0  0  0  0  0  0  0  0  0
  1  2  1  0  0  0  0
  1 42  1  0  0  0  0
  1 43  1  0  0  0  0
  1 44  1  0  0  0  0
  2  3  1  0  0  0  0
  2 40  1  0  0  0  0
  2 41  1  0  0  0  0
  3  4  1  0  0  0  0
  3 11  1  0  0  0  0
  3 39  1  1  0  0  0
  4  5  1  0  0  0  0
  4  8  2  0  0  0  0
  5  6  2  0  0  0  0
  5 38  1  0  0  0  0
  6  7  1  0  0  0  0
  6 37  1  0  0  0  0
  7  8  1  0  0  0  0
  8  9  1  0  0  0  0
  9 10  1  0  0  0  0
  9 35  1  0  0  0  0
  9 36  1  0  0  0  0
 10 11  1  0  0  0  0
 10 33  1  0  0  0  0
 10 34  1  0  0  0  0
 11 12  1  0  0  0  0
 12 13  2  0  0  0  0
 12 14  1  0  0  0  0
 14 15  1  0  0  0  0
 14 31  1  0  0  0  0
 14 32  1  0  0  0  0
 15 16  2  0  0  0  0
 15 24  1  0  0  0  0
 16 17  1  0  0  0  0
 16 30  1  0  0  0  0
 17 18  2  0  0  0  0
 18 19  1  0  0  0  0
 18 29  1  0  0  0  0
 19 20  2  0  0  0  0
 19 24  1  0  0  0  0
 20 21  1  0  0  0  0
 20 28  1  0  0  0  0
 21 22  2  0  0  0  0
 21 27  1  0  0  0  0
 22 23  1  0  0  0  0
 22 26  1  0  0  0  0
 23 24  2  0  0  0  0
 23 25  1  0  0  0  0
M  END
>  <MODEL>
       1

$$$$
