tmp_first_model_2_87.pdb
 OpenBabel08272517383D

 59 64  0  0  1  0  0  0  0  0999 V2000
   -7.9450   -3.6840  -24.0250 C   0  0  0  0  0  0  0  0  0  0  0  0
   -8.3350   -2.8450  -22.7990 C   0  0  1  0  0  0  0  0  0  0  0  0
   -7.1520   -2.6500  -21.8270 C   0  0  0  0  0  0  0  0  0  0  0  0
   -7.4260   -1.3740  -21.1920 N   0  0  0  0  0  0  0  0  0  0  0  0
   -6.6100   -0.8040  -20.1740 C   0  0  0  0  0  0  0  0  0  0  0  0
   -6.9030   -1.0470  -18.8580 C   0  0  0  0  0  0  0  0  0  0  0  0
   -6.1980   -0.5530  -17.8090 N   0  0  0  0  0  0  0  0  0  0  0  0
   -5.1670    0.2100  -18.0800 C   0  0  0  0  0  0  0  0  0  0  0  0
   -4.7370    0.5320  -19.3990 C   0  0  0  0  0  0  0  0  0  0  0  0
   -3.6060    1.3620  -19.6380 C   0  0  0  0  0  0  0  0  0  0  0  0
   -3.2130    1.6480  -20.9160 C   0  0  0  0  0  0  0  0  0  0  0  0
   -3.9280    1.1150  -22.0120 C   0  0  0  0  0  0  0  0  0  0  0  0
   -5.0240    0.3120  -21.8090 C   0  0  0  0  0  0  0  0  0  0  0  0
   -5.4700    0.0080  -20.4890 C   0  0  0  0  0  0  0  0  0  0  0  0
   -5.5640   -0.0900  -22.6630 H   0  0  0  0  0  0  0  0  0  0  0  0
   -3.6120    1.3550  -23.0240 H   0  0  0  0  0  0  0  0  0  0  0  0
   -2.3580    2.2970  -21.0950 H   0  0  0  0  0  0  0  0  0  0  0  0
   -3.0760    1.7690  -18.7800 H   0  0  0  0  0  0  0  0  0  0  0  0
   -4.6180    0.6150  -17.2280 H   0  0  0  0  0  0  0  0  0  0  0  0
   -7.7500   -1.6750  -18.5920 H   0  0  0  0  0  0  0  0  0  0  0  0
   -8.3540   -0.6080  -21.8600 C   0  0  0  0  0  0  0  0  0  0  0  0
   -8.6500    0.5280  -21.5360 O   0  0  0  0  0  0  0  0  0  0  0  0
   -8.8990   -1.4070  -23.0660 C   0  0  1  0  0  0  0  0  0  0  0  0
   -8.3310   -0.8030  -24.3760 C   0  0  0  0  0  0  0  0  0  0  0  0
   -8.8770    0.5110  -24.6460 N   0  0  0  0  0  0  0  0  0  0  0  0
   -7.9550    1.6180  -24.8520 C   0  0  0  0  0  0  0  0  0  0  0  0
   -6.9980    1.4100  -25.9850 C   0  0  0  0  0  0  0  0  0  0  0  0
   -5.6380    1.1700  -25.9810 C   0  0  0  0  0  0  0  0  0  0  0  0
   -5.3010    0.9750  -27.3350 C   0  0  0  0  0  0  0  0  0  0  0  0
   -6.3670    1.0940  -28.1170 N   0  0  0  0  0  0  0  0  0  0  0  0
   -7.3850    1.3660  -27.2860 N   0  0  0  0  0  0  0  0  0  0  0  0
   -8.7220    1.5340  -27.8170 C   0  0  0  0  0  0  0  0  0  0  0  0
   -9.1880    2.4380  -27.4070 H   0  0  0  0  0  0  0  0  0  0  0  0
   -8.6200    1.6230  -28.9020 H   0  0  0  0  0  0  0  0  0  0  0  0
   -9.3500    0.6700  -27.5720 H   0  0  0  0  0  0  0  0  0  0  0  0
   -4.3440    0.7350  -27.7860 H   0  0  0  0  0  0  0  0  0  0  0  0
   -5.0120    1.1170  -25.0980 H   0  0  0  0  0  0  0  0  0  0  0  0
   -8.5760    2.5080  -24.9970 H   0  0  0  0  0  0  0  0  0  0  0  0
   -7.3660    1.7570  -23.9340 H   0  0  0  0  0  0  0  0  0  0  0  0
  -10.2240    0.7210  -24.6490 C   0  0  0  0  0  0  0  0  0  0  0  0
  -10.7460    1.6890  -25.1960 O   0  0  0  0  0  0  0  0  0  0  0  0
  -11.0340   -0.3020  -23.9110 C   0  0  0  0  0  0  0  0  0  0  0  0
  -12.4240   -0.1860  -23.9560 C   0  0  0  0  0  0  0  0  0  0  0  0
  -13.2190   -0.9970  -23.1700 C   0  0  0  0  0  0  0  0  0  0  0  0
  -12.5930   -1.9020  -22.3220 C   0  0  0  0  0  0  0  0  0  0  0  0
  -13.3550   -2.6550  -21.5100 F   0  0  0  0  0  0  0  0  0  0  0  0
  -11.2210   -2.0510  -22.2700 C   0  0  0  0  0  0  0  0  0  0  0  0
  -10.4140   -1.2820  -23.1180 C   0  0  0  0  0  0  0  0  0  0  0  0
  -10.8130   -2.7390  -21.5390 H   0  0  0  0  0  0  0  0  0  0  0  0
  -14.3000   -0.9240  -23.1670 H   0  0  0  0  0  0  0  0  0  0  0  0
  -12.8490    0.5770  -24.5980 H   0  0  0  0  0  0  0  0  0  0  0  0
   -7.2470   -0.7020  -24.2880 H   0  0  0  0  0  0  0  0  0  0  0  0
   -8.5630   -1.4730  -25.2170 H   0  0  0  0  0  0  0  0  0  0  0  0
   -6.1940   -2.6360  -22.3720 H   0  0  0  0  0  0  0  0  0  0  0  0
   -7.0840   -3.4440  -21.0750 H   0  0  0  0  0  0  0  0  0  0  0  0
   -9.1200   -3.3810  -22.2600 H   0  0  0  0  0  0  0  0  0  0  0  0
   -8.7750   -3.7890  -24.7340 H   0  0  0  0  0  0  0  0  0  0  0  0
   -7.1030   -3.2330  -24.5660 H   0  0  0  0  0  0  0  0  0  0  0  0
   -7.6350   -4.6920  -23.7260 H   0  0  0  0  0  0  0  0  0  0  0  0
  1  2  1  0  0  0  0
  1 57  1  0  0  0  0
  1 58  1  0  0  0  0
  1 59  1  0  0  0  0
  2  3  1  0  0  0  0
  2 23  1  0  0  0  0
  2 56  1  1  0  0  0
  3  4  1  0  0  0  0
  3 54  1  0  0  0  0
  3 55  1  0  0  0  0
  4  5  1  0  0  0  0
  4 21  1  0  0  0  0
  5  6  2  0  0  0  0
  5 14  1  0  0  0  0
  6  7  1  0  0  0  0
  6 20  1  0  0  0  0
  7  8  2  0  0  0  0
  8  9  1  0  0  0  0
  8 19  1  0  0  0  0
  9 10  2  0  0  0  0
  9 14  1  0  0  0  0
 10 11  1  0  0  0  0
 10 18  1  0  0  0  0
 11 12  2  0  0  0  0
 11 17  1  0  0  0  0
 12 13  1  0  0  0  0
 12 16  1  0  0  0  0
 13 14  2  0  0  0  0
 13 15  1  0  0  0  0
 21 22  2  0  0  0  0
 23 21  1  1  0  0  0
 23 24  1  0  0  0  0
 23 48  1  0  0  0  0
 24 25  1  0  0  0  0
 24 52  1  0  0  0  0
 24 53  1  0  0  0  0
 25 26  1  0  0  0  0
 25 40  1  0  0  0  0
 26 27  1  0  0  0  0
 26 38  1  0  0  0  0
 26 39  1  0  0  0  0
 27 28  2  0  0  0  0
 27 31  1  0  0  0  0
 28 29  1  0  0  0  0
 28 37  1  0  0  0  0
 29 30  2  0  0  0  0
 29 36  1  0  0  0  0
 30 31  1  0  0  0  0
 31 32  1  0  0  0  0
 32 33  1  0  0  0  0
 32 34  1  0  0  0  0
 32 35  1  0  0  0  0
 40 41  2  0  0  0  0
 40 42  1  0  0  0  0
 42 43  2  0  0  0  0
 42 48  1  0  0  0  0
 43 44  1  0  0  0  0
 43 51  1  0  0  0  0
 44 45  2  0  0  0  0
 44 50  1  0  0  0  0
 45 46  1  0  0  0  0
 45 47  1  0  0  0  0
 47 48  2  0  0  0  0
 47 49  1  0  0  0  0
M  END
>  <MODEL>
       1

$$$$
