tmp_first_model_11_5.pdb
 OpenBabel08272522543D

 58 61  0  0  1  0  0  0  0  0999 V2000
   -5.2740   -3.1490  -22.5820 C   0  0  0  0  0  0  0  0  0  0  0  0
   -6.5840   -3.3330  -22.4400 C   0  0  0  0  0  0  0  0  0  0  0  0
   -7.4380   -2.8460  -21.3000 C   0  0  0  0  0  0  0  0  0  0  0  0
   -7.4090   -1.3920  -21.1720 N   0  0  0  0  0  0  0  0  0  0  0  0
   -8.1490   -0.5190  -21.9660 C   0  0  0  0  0  0  0  0  0  0  0  0
   -8.2580    0.6520  -21.6550 O   0  0  0  0  0  0  0  0  0  0  0  0
   -8.7990   -1.0530  -23.2500 C   0  0  2  0  0  0  0  0  0  0  0  0
   -7.9650   -0.7740  -24.5170 C   0  0  0  0  0  0  0  0  0  0  0  0
   -7.9540    0.6490  -24.8260 N   0  0  0  0  0  0  0  0  0  0  0  0
   -6.7550    1.2310  -25.3870 C   0  0  0  0  0  0  0  0  0  0  0  0
   -6.6350    0.9220  -26.8820 C   0  0  0  0  0  0  0  0  0  0  0  0
   -6.2390   -0.1600  -27.2880 O   0  0  0  0  0  0  0  0  0  0  0  0
   -7.0070    1.9320  -27.7090 N   0  0  0  0  0  0  0  0  0  0  0  0
   -6.9650    1.7200  -29.1440 C   0  0  0  0  0  0  0  0  0  0  0  0
   -7.3210    2.6200  -29.6500 H   0  0  0  0  0  0  0  0  0  0  0  0
   -7.5850    0.8640  -29.4360 H   0  0  0  0  0  0  0  0  0  0  0  0
   -5.9370    1.5150  -29.4600 H   0  0  0  0  0  0  0  0  0  0  0  0
   -7.5750    2.6760  -27.3260 H   0  0  0  0  0  0  0  0  0  0  0  0
   -6.7760    2.3080  -25.1970 H   0  0  0  0  0  0  0  0  0  0  0  0
   -5.8870    0.7900  -24.8870 H   0  0  0  0  0  0  0  0  0  0  0  0
   -9.0940    1.4080  -24.8540 C   0  0  0  0  0  0  0  0  0  0  0  0
   -9.1290    2.4970  -25.4200 O   0  0  0  0  0  0  0  0  0  0  0  0
  -10.2680    0.8000  -24.1430 C   0  0  0  0  0  0  0  0  0  0  0  0
  -11.5200    1.4060  -24.2360 C   0  0  0  0  0  0  0  0  0  0  0  0
  -12.6600    0.7540  -23.7940 C   0  0  0  0  0  0  0  0  0  0  0  0
  -12.5150   -0.4950  -23.1800 C   0  0  0  0  0  0  0  0  0  0  0  0
  -13.9290   -1.4240  -22.7620 Cl  0  0  0  0  0  0  0  0  0  0  0  0
  -11.2620   -1.0140  -22.9140 C   0  0  0  0  0  0  0  0  0  0  0  0
  -10.1330   -0.3910  -23.4380 C   0  0  0  0  0  0  0  0  0  0  0  0
  -11.1380   -1.9070  -22.3060 H   0  0  0  0  0  0  0  0  0  0  0  0
  -13.6460    1.2060  -23.8960 H   0  0  0  0  0  0  0  0  0  0  0  0
  -11.5690    2.3790  -24.7030 H   0  0  0  0  0  0  0  0  0  0  0  0
   -8.4060   -1.3340  -25.3530 H   0  0  0  0  0  0  0  0  0  0  0  0
   -6.9410   -1.1440  -24.4300 H   0  0  0  0  0  0  0  0  0  0  0  0
   -8.9550   -2.1360  -23.1970 H   0  0  0  0  0  0  0  0  0  0  0  0
   -6.6080   -0.8150  -20.1590 C   0  0  0  0  0  0  0  0  0  0  0  0
   -6.9120   -1.0470  -18.8400 C   0  0  0  0  0  0  0  0  0  0  0  0
   -6.2240   -0.5410  -17.7920 N   0  0  0  0  0  0  0  0  0  0  0  0
   -5.1830    0.2080  -18.0720 C   0  0  0  0  0  0  0  0  0  0  0  0
   -4.7460    0.5120  -19.3920 C   0  0  0  0  0  0  0  0  0  0  0  0
   -3.6150    1.3360  -19.6300 C   0  0  0  0  0  0  0  0  0  0  0  0
   -3.2090    1.6130  -20.9060 C   0  0  0  0  0  0  0  0  0  0  0  0
   -3.9120    1.0720  -22.0050 C   0  0  0  0  0  0  0  0  0  0  0  0
   -5.0080    0.2680  -21.8020 C   0  0  0  0  0  0  0  0  0  0  0  0
   -5.4690   -0.0160  -20.4830 C   0  0  0  0  0  0  0  0  0  0  0  0
   -5.5500   -0.1330  -22.6560 H   0  0  0  0  0  0  0  0  0  0  0  0
   -3.5810    1.3060  -23.0130 H   0  0  0  0  0  0  0  0  0  0  0  0
   -2.3520    2.2580  -21.0780 H   0  0  0  0  0  0  0  0  0  0  0  0
   -3.0950    1.7510  -18.7710 H   0  0  0  0  0  0  0  0  0  0  0  0
   -4.6250    0.6190  -17.2310 H   0  0  0  0  0  0  0  0  0  0  0  0
   -7.7760   -1.6610  -18.5930 H   0  0  0  0  0  0  0  0  0  0  0  0
   -7.1190   -3.2810  -20.3470 H   0  0  0  0  0  0  0  0  0  0  0  0
   -8.4480   -3.1780  -21.5470 H   0  0  0  0  0  0  0  0  0  0  0  0
   -7.4360   -3.9620  -23.5380 C   0  0  0  0  0  0  0  0  0  0  0  0
   -6.8480   -4.2640  -24.5930 O   0  0  0  0  0  0  0  0  0  0  0  0
   -8.6540   -4.0830  -23.2760 O   0  5  0  0  0  0  0  0  0  0  0  0
   -4.7470   -3.5580  -23.4380 H   0  0  0  0  0  0  0  0  0  0  0  0
   -4.7110   -2.5790  -21.8410 H   0  0  0  0  0  0  0  0  0  0  0  0
  1  2  2  0  0  0  0
  1 57  1  0  0  0  0
  1 58  1  0  0  0  0
  2  3  1  0  0  0  0
  2 54  1  0  0  0  0
  3  4  1  0  0  0  0
  3 52  1  0  0  0  0
  3 53  1  0  0  0  0
  4  5  1  0  0  0  0
  4 36  1  0  0  0  0
  5  6  2  0  0  0  0
  5  7  1  0  0  0  0
  7  8  1  0  0  0  0
  7 29  1  0  0  0  0
  7 35  1  1  0  0  0
  8  9  1  0  0  0  0
  8 33  1  0  0  0  0
  8 34  1  0  0  0  0
  9 10  1  0  0  0  0
  9 21  1  0  0  0  0
 10 11  1  0  0  0  0
 10 19  1  0  0  0  0
 10 20  1  0  0  0  0
 11 12  2  0  0  0  0
 11 13  1  0  0  0  0
 13 14  1  0  0  0  0
 13 18  1  0  0  0  0
 14 15  1  0  0  0  0
 14 16  1  0  0  0  0
 14 17  1  0  0  0  0
 21 22  2  0  0  0  0
 21 23  1  0  0  0  0
 23 24  2  0  0  0  0
 23 29  1  0  0  0  0
 24 25  1  0  0  0  0
 24 32  1  0  0  0  0
 25 26  2  0  0  0  0
 25 31  1  0  0  0  0
 26 27  1  0  0  0  0
 26 28  1  0  0  0  0
 28 29  2  0  0  0  0
 28 30  1  0  0  0  0
 36 37  2  0  0  0  0
 36 45  1  0  0  0  0
 37 38  1  0  0  0  0
 37 51  1  0  0  0  0
 38 39  2  0  0  0  0
 39 40  1  0  0  0  0
 39 50  1  0  0  0  0
 40 41  2  0  0  0  0
 40 45  1  0  0  0  0
 41 42  1  0  0  0  0
 41 49  1  0  0  0  0
 42 43  2  0  0  0  0
 42 48  1  0  0  0  0
 43 44  1  0  0  0  0
 43 47  1  0  0  0  0
 44 45  2  0  0  0  0
 44 46  1  0  0  0  0
 54 55  2  0  0  0  0
 54 56  1  0  0  0  0
M  CHG  1  56  -1
M  END
>  <MODEL>
       1

$$$$
