tmp_first_model_7_41.pdb
 OpenBabel08272520323D

 67 71  0  0  1  0  0  0  0  0999 V2000
   -7.6220    3.0130  -21.9740 C   0  0  0  0  0  0  0  0  0  0  0  0
   -8.7530    2.5010  -22.7330 N   0  0  0  0  0  0  0  0  0  0  0  0
   -8.4770    1.7090  -23.8070 C   0  0  0  0  0  0  0  0  0  0  0  0
   -7.3320    1.4640  -24.1570 O   0  0  0  0  0  0  0  0  0  0  0  0
   -9.6780    1.1160  -24.5370 C   0  0  0  0  0  0  0  0  0  0  0  0
  -10.1230   -0.0800  -23.8590 N   0  0  0  0  0  0  0  0  0  0  0  0
   -9.2590   -1.2480  -23.8790 C   0  0  0  0  0  0  0  0  0  0  0  0
   -9.3060   -1.9880  -22.5140 C   0  0  2  0  0  0  0  0  0  0  0  0
   -8.7030   -1.0340  -21.4410 C   0  0  0  0  0  0  0  0  0  0  0  0
   -9.2310   -0.0620  -20.9440 O   0  0  0  0  0  0  0  0  0  0  0  0
   -7.4070   -1.4380  -21.1810 N   0  0  0  0  0  0  0  0  0  0  0  0
   -6.6230   -0.8300  -20.1680 C   0  0  0  0  0  0  0  0  0  0  0  0
   -6.9320   -1.0460  -18.8460 C   0  0  0  0  0  0  0  0  0  0  0  0
   -6.2160   -0.5530  -17.8090 N   0  0  0  0  0  0  0  0  0  0  0  0
   -5.1740    0.1880  -18.0880 C   0  0  0  0  0  0  0  0  0  0  0  0
   -4.7430    0.4960  -19.4080 C   0  0  0  0  0  0  0  0  0  0  0  0
   -3.6230    1.3320  -19.6530 C   0  0  0  0  0  0  0  0  0  0  0  0
   -3.2590    1.6470  -20.9330 C   0  0  0  0  0  0  0  0  0  0  0  0
   -4.0040    1.1500  -22.0240 C   0  0  0  0  0  0  0  0  0  0  0  0
   -5.0980    0.3390  -21.8150 C   0  0  0  0  0  0  0  0  0  0  0  0
   -5.4900   -0.0200  -20.4950 C   0  0  0  0  0  0  0  0  0  0  0  0
   -5.6960    0.0190  -22.6640 H   0  0  0  0  0  0  0  0  0  0  0  0
   -3.7210    1.4200  -23.0370 H   0  0  0  0  0  0  0  0  0  0  0  0
   -2.4110    2.3030  -21.1120 H   0  0  0  0  0  0  0  0  0  0  0  0
   -3.0890    1.7370  -18.7970 H   0  0  0  0  0  0  0  0  0  0  0  0
   -4.6130    0.5940  -17.2470 H   0  0  0  0  0  0  0  0  0  0  0  0
   -7.7920   -1.6590  -18.5860 H   0  0  0  0  0  0  0  0  0  0  0  0
   -6.9740   -2.5760  -21.9680 C   0  0  0  0  0  0  0  0  0  0  0  0
   -8.3100   -3.1810  -22.4460 C   0  0  2  0  0  0  0  0  0  0  0  0
   -8.2060   -3.9820  -23.7440 C   0  0  0  0  0  0  0  0  0  0  0  0
   -7.2670   -5.4870  -23.5250 S   0  0  0  0  0  0  0  0  0  0  0  0
   -5.8680   -5.1270  -23.3640 O   0  0  0  0  0  0  0  0  0  0  0  0
   -7.9590   -6.3010  -22.5330 O   0  0  0  0  0  0  0  0  0  0  0  0
   -7.4180   -6.2530  -24.9900 N   0  0  0  0  0  0  0  0  0  0  0  0
   -8.6690   -6.9470  -25.2550 C   0  0  0  0  0  0  0  0  0  0  0  0
   -9.4950   -6.2780  -25.5410 H   0  0  0  0  0  0  0  0  0  0  0  0
   -8.5030   -7.6520  -26.0740 H   0  0  0  0  0  0  0  0  0  0  0  0
   -8.9550   -7.5120  -24.3670 H   0  0  0  0  0  0  0  0  0  0  0  0
   -6.7480   -5.6510  -26.1350 C   0  0  0  0  0  0  0  0  0  0  0  0
   -7.2960   -4.8000  -26.5690 H   0  0  0  0  0  0  0  0  0  0  0  0
   -6.6440   -6.4140  -26.9100 H   0  0  0  0  0  0  0  0  0  0  0  0
   -5.7480   -5.3240  -25.8430 H   0  0  0  0  0  0  0  0  0  0  0  0
   -9.2080   -4.2650  -24.0860 H   0  0  0  0  0  0  0  0  0  0  0  0
   -7.7040   -3.3910  -24.5210 H   0  0  0  0  0  0  0  0  0  0  0  0
   -8.6430   -3.8510  -21.6470 H   0  0  0  0  0  0  0  0  0  0  0  0
   -6.3430   -2.2610  -22.8130 H   0  0  0  0  0  0  0  0  0  0  0  0
   -6.3910   -3.2860  -21.3750 H   0  0  0  0  0  0  0  0  0  0  0  0
  -10.7750   -2.3110  -22.2550 C   0  0  0  0  0  0  0  0  0  0  0  0
  -11.2150   -3.4450  -21.5570 C   0  0  0  0  0  0  0  0  0  0  0  0
  -12.5440   -3.5280  -21.1730 C   0  0  0  0  0  0  0  0  0  0  0  0
  -12.9280   -4.4370  -20.2630 F   0  0  0  0  0  0  0  0  0  0  0  0
  -13.5170   -2.6450  -21.6170 C   0  0  0  0  0  0  0  0  0  0  0  0
  -13.1070   -1.5720  -22.3740 C   0  0  0  0  0  0  0  0  0  0  0  0
  -11.7510   -1.3750  -22.6340 C   0  0  0  0  0  0  0  0  0  0  0  0
  -11.3660   -0.0960  -23.2990 C   0  0  0  0  0  0  0  0  0  0  0  0
  -12.1210    0.8690  -23.3260 O   0  0  0  0  0  0  0  0  0  0  0  0
  -13.8240   -0.8620  -22.7690 H   0  0  0  0  0  0  0  0  0  0  0  0
  -14.5490   -2.7970  -21.3210 H   0  0  0  0  0  0  0  0  0  0  0  0
  -10.5370   -4.2130  -21.2060 H   0  0  0  0  0  0  0  0  0  0  0  0
   -9.5660   -1.9240  -24.6900 H   0  0  0  0  0  0  0  0  0  0  0  0
   -8.2450   -0.8950  -24.0880 H   0  0  0  0  0  0  0  0  0  0  0  0
   -9.4170    0.8950  -25.5820 H   0  0  0  0  0  0  0  0  0  0  0  0
  -10.5050    1.8220  -24.5250 H   0  0  0  0  0  0  0  0  0  0  0  0
   -9.6230    2.3410  -22.2410 H   0  0  0  0  0  0  0  0  0  0  0  0
   -7.9400    3.7510  -21.2380 H   0  0  0  0  0  0  0  0  0  0  0  0
   -7.0890    2.2030  -21.4570 H   0  0  0  0  0  0  0  0  0  0  0  0
   -6.9330    3.5090  -22.6630 H   0  0  0  0  0  0  0  0  0  0  0  0
  1  2  1  0  0  0  0
  1 65  1  0  0  0  0
  1 66  1  0  0  0  0
  1 67  1  0  0  0  0
  2  3  1  0  0  0  0
  2 64  1  0  0  0  0
  3  4  2  0  0  0  0
  3  5  1  0  0  0  0
  5  6  1  0  0  0  0
  5 62  1  0  0  0  0
  5 63  1  0  0  0  0
  6  7  1  0  0  0  0
  6 55  1  0  0  0  0
  7  8  1  0  0  0  0
  7 60  1  0  0  0  0
  7 61  1  0  0  0  0
  8  9  1  1  0  0  0
  8 29  1  0  0  0  0
  8 48  1  0  0  0  0
  9 10  2  0  0  0  0
  9 11  1  0  0  0  0
 11 12  1  0  0  0  0
 11 28  1  0  0  0  0
 12 13  2  0  0  0  0
 12 21  1  0  0  0  0
 13 14  1  0  0  0  0
 13 27  1  0  0  0  0
 14 15  2  0  0  0  0
 15 16  1  0  0  0  0
 15 26  1  0  0  0  0
 16 17  2  0  0  0  0
 16 21  1  0  0  0  0
 17 18  1  0  0  0  0
 17 25  1  0  0  0  0
 18 19  2  0  0  0  0
 18 24  1  0  0  0  0
 19 20  1  0  0  0  0
 19 23  1  0  0  0  0
 20 21  2  0  0  0  0
 20 22  1  0  0  0  0
 28 29  1  0  0  0  0
 28 46  1  0  0  0  0
 28 47  1  0  0  0  0
 29 30  1  0  0  0  0
 29 45  1  1  0  0  0
 30 31  1  0  0  0  0
 30 43  1  0  0  0  0
 30 44  1  0  0  0  0
 31 32  2  0  0  0  0
 31 33  2  0  0  0  0
 31 34  1  0  0  0  0
 34 35  1  0  0  0  0
 34 39  1  0  0  0  0
 35 36  1  0  0  0  0
 35 37  1  0  0  0  0
 35 38  1  0  0  0  0
 39 40  1  0  0  0  0
 39 41  1  0  0  0  0
 39 42  1  0  0  0  0
 48 49  2  0  0  0  0
 48 54  1  0  0  0  0
 49 50  1  0  0  0  0
 49 59  1  0  0  0  0
 50 51  1  0  0  0  0
 50 52  2  0  0  0  0
 52 53  1  0  0  0  0
 52 58  1  0  0  0  0
 53 54  2  0  0  0  0
 53 57  1  0  0  0  0
 54 55  1  0  0  0  0
 55 56  2  0  0  0  0
M  END
>  <MODEL>
       1

$$$$
