tmp_first_model_18_57.pdb
 OpenBabel08282502533D

 59 63  0  0  1  0  0  0  0  0999 V2000
  -14.4930   -1.2260  -23.5310 C   0  0  0  0  0  0  0  0  0  0  0  0
  -13.6990   -2.3660  -23.0950 N   0  0  0  0  0  0  0  0  0  0  0  0
  -13.4630   -2.6160  -21.7740 C   0  0  0  0  0  0  0  0  0  0  0  0
  -14.0340   -2.0090  -20.8840 O   0  0  0  0  0  0  0  0  0  0  0  0
  -12.4880   -3.7720  -21.4790 C   0  0  0  0  0  0  0  0  0  0  0  0
  -11.1530   -3.7090  -22.0890 N   0  0  0  0  0  0  0  0  0  0  0  0
   -9.9790   -3.2180  -21.3790 C   0  0  0  0  0  0  0  0  0  0  0  0
   -8.7750   -2.9100  -22.3160 C   0  0  2  0  0  0  0  0  0  0  0  0
   -7.5570   -2.6420  -21.4410 C   0  0  0  0  0  0  0  0  0  0  0  0
   -6.7830   -3.4670  -20.9930 O   0  0  0  0  0  0  0  0  0  0  0  0
   -7.4290   -1.2870  -21.2570 N   0  0  0  0  0  0  0  0  0  0  0  0
   -6.6270   -0.7920  -20.2000 C   0  0  0  0  0  0  0  0  0  0  0  0
   -6.9210   -1.0800  -18.8890 C   0  0  0  0  0  0  0  0  0  0  0  0
   -6.2410   -0.5740  -17.8270 N   0  0  0  0  0  0  0  0  0  0  0  0
   -5.2270    0.2160  -18.0830 C   0  0  0  0  0  0  0  0  0  0  0  0
   -4.7820    0.5420  -19.3960 C   0  0  0  0  0  0  0  0  0  0  0  0
   -3.6430    1.3570  -19.6240 C   0  0  0  0  0  0  0  0  0  0  0  0
   -3.2270    1.6160  -20.9000 C   0  0  0  0  0  0  0  0  0  0  0  0
   -3.9180    1.0730  -22.0070 C   0  0  0  0  0  0  0  0  0  0  0  0
   -5.0300    0.2880  -21.8120 C   0  0  0  0  0  0  0  0  0  0  0  0
   -5.4920    0.0190  -20.4970 C   0  0  0  0  0  0  0  0  0  0  0  0
   -5.5490   -0.1430  -22.6620 H   0  0  0  0  0  0  0  0  0  0  0  0
   -3.5690    1.2740  -23.0150 H   0  0  0  0  0  0  0  0  0  0  0  0
   -2.3550    2.2400  -21.0760 H   0  0  0  0  0  0  0  0  0  0  0  0
   -3.1160    1.7610  -18.7640 H   0  0  0  0  0  0  0  0  0  0  0  0
   -4.6830    0.6260  -17.2310 H   0  0  0  0  0  0  0  0  0  0  0  0
   -7.7470   -1.7450  -18.6480 H   0  0  0  0  0  0  0  0  0  0  0  0
   -8.4490   -0.5250  -21.9640 C   0  0  0  0  0  0  0  0  0  0  0  0
   -8.9690   -1.5080  -23.0470 C   0  0  0  0  0  0  0  0  0  0  0  0
  -10.4100   -1.2160  -23.4620 C   0  0  0  0  0  0  0  0  0  0  0  0
  -11.1210   -1.4210  -22.6700 H   0  0  0  0  0  0  0  0  0  0  0  0
  -10.6910   -1.8350  -24.3190 H   0  0  0  0  0  0  0  0  0  0  0  0
  -10.5330   -0.1760  -23.7610 H   0  0  0  0  0  0  0  0  0  0  0  0
   -8.1280   -1.4130  -24.3310 C   0  0  0  0  0  0  0  0  0  0  0  0
   -8.4880   -2.1500  -25.0580 H   0  0  0  0  0  0  0  0  0  0  0  0
   -8.2340   -0.4200  -24.7820 H   0  0  0  0  0  0  0  0  0  0  0  0
   -7.0660   -1.6180  -24.1610 H   0  0  0  0  0  0  0  0  0  0  0  0
   -8.0320    0.3930  -22.3900 H   0  0  0  0  0  0  0  0  0  0  0  0
   -9.2550   -0.2330  -21.2770 H   0  0  0  0  0  0  0  0  0  0  0  0
   -8.5260   -4.0970  -23.2110 C   0  0  0  0  0  0  0  0  0  0  0  0
   -7.2540   -4.4560  -23.6860 C   0  0  0  0  0  0  0  0  0  0  0  0
   -7.1270   -5.4530  -24.6370 C   0  0  0  0  0  0  0  0  0  0  0  0
   -5.5440   -5.8710  -25.2430 Cl  0  0  0  0  0  0  0  0  0  0  0  0
   -8.2380   -6.1320  -25.1390 C   0  0  0  0  0  0  0  0  0  0  0  0
   -9.4870   -5.7900  -24.6620 C   0  0  0  0  0  0  0  0  0  0  0  0
   -9.6210   -4.8000  -23.6910 C   0  0  0  0  0  0  0  0  0  0  0  0
  -10.9850   -4.5190  -23.1750 C   0  0  0  0  0  0  0  0  0  0  0  0
  -11.9490   -5.0350  -23.7060 O   0  0  0  0  0  0  0  0  0  0  0  0
  -10.3900   -6.2670  -25.0330 H   0  0  0  0  0  0  0  0  0  0  0  0
   -8.1230   -6.9150  -25.8780 H   0  0  0  0  0  0  0  0  0  0  0  0
   -6.3660   -3.9660  -23.3090 H   0  0  0  0  0  0  0  0  0  0  0  0
  -10.2270   -2.3070  -20.8300 H   0  0  0  0  0  0  0  0  0  0  0  0
   -9.6740   -3.9690  -20.6550 H   0  0  0  0  0  0  0  0  0  0  0  0
  -12.4500   -3.9570  -20.4040 H   0  0  0  0  0  0  0  0  0  0  0  0
  -12.9660   -4.6390  -21.9380 H   0  0  0  0  0  0  0  0  0  0  0  0
  -13.2710   -2.9490  -23.8010 H   0  0  0  0  0  0  0  0  0  0  0  0
  -13.8930   -0.3040  -23.5940 H   0  0  0  0  0  0  0  0  0  0  0  0
  -14.9130   -1.4530  -24.5170 H   0  0  0  0  0  0  0  0  0  0  0  0
  -15.3080   -1.0370  -22.8250 H   0  0  0  0  0  0  0  0  0  0  0  0
  1  2  1  0  0  0  0
  1 57  1  0  0  0  0
  1 58  1  0  0  0  0
  1 59  1  0  0  0  0
  2  3  1  0  0  0  0
  2 56  1  0  0  0  0
  3  4  2  0  0  0  0
  3  5  1  0  0  0  0
  5  6  1  0  0  0  0
  5 54  1  0  0  0  0
  5 55  1  0  0  0  0
  6  7  1  0  0  0  0
  6 47  1  0  0  0  0
  7  8  1  0  0  0  0
  7 52  1  0  0  0  0
  7 53  1  0  0  0  0
  8  9  1  1  0  0  0
  8 29  1  0  0  0  0
  8 40  1  0  0  0  0
  9 10  2  0  0  0  0
  9 11  1  0  0  0  0
 11 12  1  0  0  0  0
 11 28  1  0  0  0  0
 12 13  2  0  0  0  0
 12 21  1  0  0  0  0
 13 14  1  0  0  0  0
 13 27  1  0  0  0  0
 14 15  2  0  0  0  0
 15 16  1  0  0  0  0
 15 26  1  0  0  0  0
 16 17  2  0  0  0  0
 16 21  1  0  0  0  0
 17 18  1  0  0  0  0
 17 25  1  0  0  0  0
 18 19  2  0  0  0  0
 18 24  1  0  0  0  0
 19 20  1  0  0  0  0
 19 23  1  0  0  0  0
 20 21  2  0  0  0  0
 20 22  1  0  0  0  0
 28 29  1  0  0  0  0
 28 38  1  0  0  0  0
 28 39  1  0  0  0  0
 29 30  1  0  0  0  0
 29 34  1  0  0  0  0
 30 31  1  0  0  0  0
 30 32  1  0  0  0  0
 30 33  1  0  0  0  0
 34 35  1  0  0  0  0
 34 36  1  0  0  0  0
 34 37  1  0  0  0  0
 40 41  2  0  0  0  0
 40 46  1  0  0  0  0
 41 42  1  0  0  0  0
 41 51  1  0  0  0  0
 42 43  1  0  0  0  0
 42 44  2  0  0  0  0
 44 45  1  0  0  0  0
 44 50  1  0  0  0  0
 45 46  2  0  0  0  0
 45 49  1  0  0  0  0
 46 47  1  0  0  0  0
 47 48  2  0  0  0  0
M  END
>  <MODEL>
       1

$$$$
