tmp_first_model_9_88.pdb
 OpenBabel08272521403D

 40 42  0  0  0  0  0  0  0  0999 V2000
   -5.5910   -2.9740  -21.6810 O   0  0  0  0  0  0  0  0  0  0  0  0
   -6.7930   -2.8000  -21.7760 C   0  0  0  0  0  0  0  0  0  0  0  0
   -7.4230   -1.4820  -21.2550 C   0  0  0  0  0  0  0  0  0  0  0  0
   -6.5820   -0.8240  -20.1810 C   0  0  0  0  0  0  0  0  0  0  0  0
   -6.8720   -1.0420  -18.8590 C   0  0  0  0  0  0  0  0  0  0  0  0
   -6.1830   -0.5420  -17.8030 N   0  0  0  0  0  0  0  0  0  0  0  0
   -5.1550    0.2260  -18.0660 C   0  0  0  0  0  0  0  0  0  0  0  0
   -4.7190    0.5340  -19.3830 C   0  0  0  0  0  0  0  0  0  0  0  0
   -3.5900    1.3600  -19.6200 C   0  0  0  0  0  0  0  0  0  0  0  0
   -3.1880    1.6360  -20.8990 C   0  0  0  0  0  0  0  0  0  0  0  0
   -3.9020    1.0950  -21.9900 C   0  0  0  0  0  0  0  0  0  0  0  0
   -4.9980    0.2910  -21.7850 C   0  0  0  0  0  0  0  0  0  0  0  0
   -5.4440   -0.0090  -20.4730 C   0  0  0  0  0  0  0  0  0  0  0  0
   -5.5150   -0.1380  -22.6370 H   0  0  0  0  0  0  0  0  0  0  0  0
   -3.5730    1.3080  -23.0030 H   0  0  0  0  0  0  0  0  0  0  0  0
   -2.3270    2.2720  -21.0840 H   0  0  0  0  0  0  0  0  0  0  0  0
   -3.0560    1.7760  -18.7690 H   0  0  0  0  0  0  0  0  0  0  0  0
   -4.6010    0.6290  -17.2160 H   0  0  0  0  0  0  0  0  0  0  0  0
   -7.7180   -1.6690  -18.5840 H   0  0  0  0  0  0  0  0  0  0  0  0
   -8.4250   -1.6850  -20.8470 H   0  0  0  0  0  0  0  0  0  0  0  0
   -7.5640   -0.7900  -22.0960 H   0  0  0  0  0  0  0  0  0  0  0  0
   -7.6210   -3.7650  -22.3130 N   0  0  0  0  0  0  0  0  0  0  0  0
   -7.2610   -5.1770  -22.1560 C   0  0  0  0  0  0  0  0  0  0  0  0
   -7.5510   -6.0020  -23.3990 C   0  0  0  0  0  0  0  0  0  0  0  0
   -8.9940   -5.8080  -23.8480 C   0  0  0  0  0  0  0  0  0  0  0  0
   -9.3390   -6.6190  -25.0800 C   0  0  0  0  0  0  0  0  0  0  0  0
   -8.5090   -6.2790  -26.1090 F   0  0  0  0  0  0  0  0  0  0  0  0
   -9.1550   -7.9510  -24.8520 F   0  0  0  0  0  0  0  0  0  0  0  0
  -10.3720   -6.4840  -25.4270 H   0  0  0  0  0  0  0  0  0  0  0  0
   -9.2780   -4.3290  -24.0580 C   0  0  0  0  0  0  0  0  0  0  0  0
   -8.9720   -3.5170  -22.8030 C   0  0  0  0  0  0  0  0  0  0  0  0
   -9.7210   -3.7520  -22.0320 H   0  0  0  0  0  0  0  0  0  0  0  0
   -9.0780   -2.4580  -23.0380 H   0  0  0  0  0  0  0  0  0  0  0  0
   -8.6820   -3.9650  -24.8980 H   0  0  0  0  0  0  0  0  0  0  0  0
  -10.3280   -4.1850  -24.3390 H   0  0  0  0  0  0  0  0  0  0  0  0
   -9.6550   -6.1850  -23.0690 H   0  0  0  0  0  0  0  0  0  0  0  0
   -6.8750   -5.7050  -24.2020 H   0  0  0  0  0  0  0  0  0  0  0  0
   -7.3570   -7.0620  -23.1960 H   0  0  0  0  0  0  0  0  0  0  0  0
   -6.2060   -5.2360  -21.8920 H   0  0  0  0  0  0  0  0  0  0  0  0
   -7.8200   -5.6290  -21.3290 H   0  0  0  0  0  0  0  0  0  0  0  0
  1  2  2  0  0  0  0
  2  3  1  0  0  0  0
  2 22  1  0  0  0  0
  3  4  1  0  0  0  0
  3 20  1  0  0  0  0
  3 21  1  0  0  0  0
  4  5  2  0  0  0  0
  4 13  1  0  0  0  0
  5  6  1  0  0  0  0
  5 19  1  0  0  0  0
  6  7  2  0  0  0  0
  7  8  1  0  0  0  0
  7 18  1  0  0  0  0
  8  9  2  0  0  0  0
  8 13  1  0  0  0  0
  9 10  1  0  0  0  0
  9 17  1  0  0  0  0
 10 11  2  0  0  0  0
 10 16  1  0  0  0  0
 11 12  1  0  0  0  0
 11 15  1  0  0  0  0
 12 13  2  0  0  0  0
 12 14  1  0  0  0  0
 22 23  1  0  0  0  0
 22 31  1  0  0  0  0
 23 24  1  0  0  0  0
 23 39  1  0  0  0  0
 23 40  1  0  0  0  0
 24 25  1  0  0  0  0
 24 37  1  0  0  0  0
 24 38  1  0  0  0  0
 25 26  1  0  0  0  0
 25 30  1  0  0  0  0
 25 36  1  0  0  0  0
 26 27  1  0  0  0  0
 26 28  1  0  0  0  0
 26 29  1  0  0  0  0
 30 31  1  0  0  0  0
 30 34  1  0  0  0  0
 30 35  1  0  0  0  0
 31 32  1  0  0  0  0
 31 33  1  0  0  0  0
M  END
>  <MODEL>
       1

$$$$
