tmp_first_model_9_58.pdb
 OpenBabel08272521403D

 42 45  0  0  1  0  0  0  0  0999 V2000
  -11.0120   -5.0260  -23.5510 C   0  0  0  0  0  0  0  0  0  0  0  0
  -10.1020   -3.8990  -23.6600 N   0  0  0  0  0  0  0  0  0  0  0  0
   -9.4250   -3.3950  -22.4670 C   0  0  0  0  0  0  0  0  0  0  0  0
   -9.4100   -1.8630  -22.5120 C   0  0  1  0  0  0  0  0  0  0  0  0
   -8.6580   -1.1540  -21.3890 C   0  0  0  0  0  0  0  0  0  0  0  0
   -9.1810   -0.2460  -20.7750 O   0  0  0  0  0  0  0  0  0  0  0  0
   -7.3280   -1.4730  -21.2010 N   0  0  0  0  0  0  0  0  0  0  0  0
   -6.5690   -0.8540  -20.1800 C   0  0  0  0  0  0  0  0  0  0  0  0
   -6.8970   -1.0580  -18.8670 C   0  0  0  0  0  0  0  0  0  0  0  0
   -6.2040   -0.5470  -17.8240 N   0  0  0  0  0  0  0  0  0  0  0  0
   -5.1690    0.2110  -18.0890 C   0  0  0  0  0  0  0  0  0  0  0  0
   -4.7300    0.5250  -19.4030 C   0  0  0  0  0  0  0  0  0  0  0  0
   -3.6080    1.3620  -19.6390 C   0  0  0  0  0  0  0  0  0  0  0  0
   -3.2270    1.6580  -20.9190 C   0  0  0  0  0  0  0  0  0  0  0  0
   -3.9570    1.1380  -22.0130 C   0  0  0  0  0  0  0  0  0  0  0  0
   -5.0460    0.3240  -21.8090 C   0  0  0  0  0  0  0  0  0  0  0  0
   -5.4510   -0.0140  -20.4910 C   0  0  0  0  0  0  0  0  0  0  0  0
   -5.6110   -0.0570  -22.6570 H   0  0  0  0  0  0  0  0  0  0  0  0
   -3.6510    1.3790  -23.0270 H   0  0  0  0  0  0  0  0  0  0  0  0
   -2.3720    2.3050  -21.1000 H   0  0  0  0  0  0  0  0  0  0  0  0
   -3.0780    1.7680  -18.7820 H   0  0  0  0  0  0  0  0  0  0  0  0
   -4.6250    0.6160  -17.2360 H   0  0  0  0  0  0  0  0  0  0  0  0
   -7.7520   -1.6780  -18.6070 H   0  0  0  0  0  0  0  0  0  0  0  0
   -6.8160   -1.9070  -21.9580 H   0  0  0  0  0  0  0  0  0  0  0  0
   -8.9100   -1.3780  -23.8560 C   0  0  0  0  0  0  0  0  0  0  0  0
   -8.3590   -0.1030  -23.9700 C   0  0  0  0  0  0  0  0  0  0  0  0
   -7.8820    0.3290  -25.1940 C   0  0  0  0  0  0  0  0  0  0  0  0
   -7.1330    1.8990  -25.3010 Cl  0  0  0  0  0  0  0  0  0  0  0  0
   -7.9760   -0.4770  -26.3240 C   0  0  0  0  0  0  0  0  0  0  0  0
   -8.5730   -1.7230  -26.2210 C   0  0  0  0  0  0  0  0  0  0  0  0
   -9.0500   -2.1760  -24.9920 C   0  0  0  0  0  0  0  0  0  0  0  0
   -9.7580   -3.4950  -24.9240 C   0  0  0  0  0  0  0  0  0  0  0  0
  -10.0450   -4.1510  -25.9150 O   0  0  0  0  0  0  0  0  0  0  0  0
   -8.6890   -2.3700  -27.0860 H   0  0  0  0  0  0  0  0  0  0  0  0
   -7.5960   -0.1130  -27.2700 H   0  0  0  0  0  0  0  0  0  0  0  0
   -8.2930    0.5430  -23.1020 H   0  0  0  0  0  0  0  0  0  0  0  0
  -10.4500   -1.5340  -22.3930 H   0  0  0  0  0  0  0  0  0  0  0  0
   -8.4120   -3.8200  -22.3600 H   0  0  0  0  0  0  0  0  0  0  0  0
  -10.0190   -3.7290  -21.6100 H   0  0  0  0  0  0  0  0  0  0  0  0
  -11.9870   -4.8130  -24.0090 H   0  0  0  0  0  0  0  0  0  0  0  0
  -10.6130   -5.9240  -24.0420 H   0  0  0  0  0  0  0  0  0  0  0  0
  -11.1610   -5.2030  -22.4840 H   0  0  0  0  0  0  0  0  0  0  0  0
  1  2  1  0  0  0  0
  1 40  1  0  0  0  0
  1 41  1  0  0  0  0
  1 42  1  0  0  0  0
  2  3  1  0  0  0  0
  2 32  1  0  0  0  0
  3  4  1  0  0  0  0
  3 38  1  0  0  0  0
  3 39  1  0  0  0  0
  4  5  1  0  0  0  0
  4 25  1  0  0  0  0
  4 37  1  1  0  0  0
  5  6  2  0  0  0  0
  5  7  1  0  0  0  0
  7  8  1  0  0  0  0
  7 24  1  0  0  0  0
  8  9  2  0  0  0  0
  8 17  1  0  0  0  0
  9 10  1  0  0  0  0
  9 23  1  0  0  0  0
 10 11  2  0  0  0  0
 11 12  1  0  0  0  0
 11 22  1  0  0  0  0
 12 13  2  0  0  0  0
 12 17  1  0  0  0  0
 13 14  1  0  0  0  0
 13 21  1  0  0  0  0
 14 15  2  0  0  0  0
 14 20  1  0  0  0  0
 15 16  1  0  0  0  0
 15 19  1  0  0  0  0
 16 17  2  0  0  0  0
 16 18  1  0  0  0  0
 25 26  2  0  0  0  0
 25 31  1  0  0  0  0
 26 27  1  0  0  0  0
 26 36  1  0  0  0  0
 27 28  1  0  0  0  0
 27 29  2  0  0  0  0
 29 30  1  0  0  0  0
 29 35  1  0  0  0  0
 30 31  2  0  0  0  0
 30 34  1  0  0  0  0
 31 32  1  0  0  0  0
 32 33  2  0  0  0  0
M  END
>  <MODEL>
       1

$$$$
