tmp_first_model_7_39.pdb
 OpenBabel08272520323D

 40 44  0  0  1  0  0  0  0  0999 V2000
   -7.2310    0.9540  -25.6020 C   0  0  0  0  0  0  0  0  0  0  0  0
   -6.4990   -0.3680  -25.4050 C   0  0  0  0  0  0  0  0  0  0  0  0
   -5.2950   -0.4650  -25.5740 O   0  0  0  0  0  0  0  0  0  0  0  0
   -7.2540   -1.4520  -25.0440 N   0  0  0  0  0  0  0  0  0  0  0  0
   -6.6450   -2.7650  -24.7200 C   0  0  0  0  0  0  0  0  0  0  0  0
   -7.8230   -3.4990  -24.0340 C   0  0  2  0  0  0  0  0  0  0  0  0
   -8.9950   -2.9680  -24.8670 C   0  0  0  0  0  0  0  0  0  0  0  0
   -8.6600   -1.5010  -24.5580 C   0  0  1  0  0  0  0  0  0  0  0  0
   -8.5970   -1.5850  -23.0820 C   0  0  0  0  0  0  0  0  0  0  0  0
   -8.1600   -0.6180  -22.1230 C   0  0  0  0  0  0  0  0  0  0  0  0
   -8.3110    0.5820  -22.0800 O   0  5  0  0  0  0  0  0  0  0  0  0
   -7.4060   -1.3990  -21.1910 N   0  0  0  0  0  0  0  0  0  0  0  0
   -6.5880   -0.8210  -20.1760 C   0  0  0  0  0  0  0  0  0  0  0  0
   -6.8820   -1.0540  -18.8590 C   0  0  0  0  0  0  0  0  0  0  0  0
   -6.1850   -0.5420  -17.8140 N   0  0  0  0  0  0  0  0  0  0  0  0
   -5.1570    0.2240  -18.0730 C   0  0  0  0  0  0  0  0  0  0  0  0
   -4.7190    0.5330  -19.3910 C   0  0  0  0  0  0  0  0  0  0  0  0
   -3.5840    1.3540  -19.6310 C   0  0  0  0  0  0  0  0  0  0  0  0
   -3.1870    1.6250  -20.9110 C   0  0  0  0  0  0  0  0  0  0  0  0
   -3.8960    1.0800  -22.0040 C   0  0  0  0  0  0  0  0  0  0  0  0
   -4.9860    0.2740  -21.7960 C   0  0  0  0  0  0  0  0  0  0  0  0
   -5.4430   -0.0080  -20.4810 C   0  0  0  0  0  0  0  0  0  0  0  0
   -5.5110   -0.1550  -22.6440 H   0  0  0  0  0  0  0  0  0  0  0  0
   -3.5760    1.2930  -23.0200 H   0  0  0  0  0  0  0  0  0  0  0  0
   -2.3290    2.2640  -21.0990 H   0  0  0  0  0  0  0  0  0  0  0  0
   -3.0530    1.7770  -18.7810 H   0  0  0  0  0  0  0  0  0  0  0  0
   -4.6060    0.6250  -17.2190 H   0  0  0  0  0  0  0  0  0  0  0  0
   -7.7360   -1.6740  -18.5970 H   0  0  0  0  0  0  0  0  0  0  0  0
   -7.2470   -2.7320  -21.6330 C   0  0  0  0  0  0  0  0  0  0  0  0
   -6.5230   -3.5770  -21.1620 O   0  0  0  0  0  0  0  0  0  0  0  0
   -8.0960   -2.8210  -22.7430 N   0  0  0  0  0  0  0  0  0  0  0  0
   -9.2990   -0.7220  -24.9740 H   0  0  0  0  0  0  0  0  0  0  0  0
   -9.9610   -3.2800  -24.4790 H   0  0  0  0  0  0  0  0  0  0  0  0
   -8.9160   -3.2070  -25.9300 H   0  0  0  0  0  0  0  0  0  0  0  0
   -7.7290   -4.5730  -23.9230 H   0  0  0  0  0  0  0  0  0  0  0  0
   -5.7860   -2.6790  -24.0510 H   0  0  0  0  0  0  0  0  0  0  0  0
   -6.3240   -3.2730  -25.6330 H   0  0  0  0  0  0  0  0  0  0  0  0
   -6.4990    1.6970  -25.9130 H   0  0  0  0  0  0  0  0  0  0  0  0
   -7.7130    1.2970  -24.6830 H   0  0  0  0  0  0  0  0  0  0  0  0
   -7.9970    0.8930  -26.3820 H   0  0  0  0  0  0  0  0  0  0  0  0
  1  2  1  0  0  0  0
  1 38  1  0  0  0  0
  1 39  1  0  0  0  0
  1 40  1  0  0  0  0
  2  3  2  0  0  0  0
  2  4  1  0  0  0  0
  4  5  1  0  0  0  0
  4  8  1  0  0  0  0
  5  6  1  0  0  0  0
  5 36  1  0  0  0  0
  5 37  1  0  0  0  0
  6  7  1  0  0  0  0
  6 31  1  0  0  0  0
  6 35  1  1  0  0  0
  7  8  1  0  0  0  0
  7 33  1  0  0  0  0
  7 34  1  0  0  0  0
  8  9  1  0  0  0  0
  8 32  1  6  0  0  0
  9 10  2  0  0  0  0
  9 31  1  0  0  0  0
 10 11  1  0  0  0  0
 10 12  1  0  0  0  0
 12 13  1  0  0  0  0
 12 29  1  0  0  0  0
 13 14  2  0  0  0  0
 13 22  1  0  0  0  0
 14 15  1  0  0  0  0
 14 28  1  0  0  0  0
 15 16  2  0  0  0  0
 16 17  1  0  0  0  0
 16 27  1  0  0  0  0
 17 18  2  0  0  0  0
 17 22  1  0  0  0  0
 18 19  1  0  0  0  0
 18 26  1  0  0  0  0
 19 20  2  0  0  0  0
 19 25  1  0  0  0  0
 20 21  1  0  0  0  0
 20 24  1  0  0  0  0
 21 22  2  0  0  0  0
 21 23  1  0  0  0  0
 29 30  2  0  0  0  0
 29 31  1  0  0  0  0
M  CHG  1  11  -1
M  END
>  <MODEL>
       1

$$$$
