tmp_first_model_2_34.pdb
 OpenBabel08272517383D

 66 70  0  0  1  0  0  0  0  0999 V2000
   -7.5280    3.2630  -21.8120 C   0  0  0  0  0  0  0  0  0  0  0  0
   -8.5410    2.8140  -22.7490 N   0  0  0  0  0  0  0  0  0  0  0  0
   -8.0810    2.0860  -23.8050 C   0  0  0  0  0  0  0  0  0  0  0  0
   -6.8820    1.9130  -23.9840 O   0  0  0  0  0  0  0  0  0  0  0  0
   -9.0930    1.4750  -24.7650 C   0  0  0  0  0  0  0  0  0  0  0  0
   -9.6530    0.2620  -24.2170 N   0  0  0  0  0  0  0  0  0  0  0  0
   -8.8150   -0.9170  -24.1000 C   0  0  0  0  0  0  0  0  0  0  0  0
   -9.0940   -1.7000  -22.7950 C   0  0  2  0  0  0  0  0  0  0  0  0
   -8.5770   -0.8890  -21.5820 C   0  0  0  0  0  0  0  0  0  0  0  0
   -9.1080    0.0680  -21.0620 O   0  0  0  0  0  0  0  0  0  0  0  0
   -7.3730   -1.4270  -21.1920 N   0  0  0  0  0  0  0  0  0  0  0  0
   -6.5970   -0.8300  -20.1700 C   0  0  0  0  0  0  0  0  0  0  0  0
   -6.9200   -1.0490  -18.8550 C   0  0  0  0  0  0  0  0  0  0  0  0
   -6.2300   -0.5440  -17.8040 N   0  0  0  0  0  0  0  0  0  0  0  0
   -5.1890    0.2090  -18.0730 C   0  0  0  0  0  0  0  0  0  0  0  0
   -4.7460    0.5190  -19.3910 C   0  0  0  0  0  0  0  0  0  0  0  0
   -3.6250    1.3590  -19.6310 C   0  0  0  0  0  0  0  0  0  0  0  0
   -3.2390    1.6560  -20.9100 C   0  0  0  0  0  0  0  0  0  0  0  0
   -3.9570    1.1360  -22.0100 C   0  0  0  0  0  0  0  0  0  0  0  0
   -5.0530    0.3290  -21.8070 C   0  0  0  0  0  0  0  0  0  0  0  0
   -5.4680   -0.0110  -20.4880 C   0  0  0  0  0  0  0  0  0  0  0  0
   -5.6190   -0.0220  -22.6660 H   0  0  0  0  0  0  0  0  0  0  0  0
   -3.6520    1.3850  -23.0230 H   0  0  0  0  0  0  0  0  0  0  0  0
   -2.3840    2.3020  -21.0900 H   0  0  0  0  0  0  0  0  0  0  0  0
   -3.0930    1.7640  -18.7750 H   0  0  0  0  0  0  0  0  0  0  0  0
   -4.6260    0.6120  -17.2290 H   0  0  0  0  0  0  0  0  0  0  0  0
   -7.7840   -1.6650  -18.6110 H   0  0  0  0  0  0  0  0  0  0  0  0
   -6.9610   -2.5940  -21.9440 C   0  0  0  0  0  0  0  0  0  0  0  0
   -8.2330   -2.9970  -22.7140 C   0  0  2  0  0  0  0  0  0  0  0  0
   -7.9290   -3.6890  -24.0420 C   0  0  0  0  0  0  0  0  0  0  0  0
   -7.2230   -4.8890  -23.8000 O   0  0  0  0  0  0  0  0  0  0  0  0
   -7.0470   -5.7040  -24.9560 C   0  0  0  0  0  0  0  0  0  0  0  0
   -5.6720   -6.3490  -24.8790 C   0  0  0  0  0  0  0  0  0  0  0  0
   -5.4870   -6.9650  -25.7650 H   0  0  0  0  0  0  0  0  0  0  0  0
   -4.8810   -5.5970  -24.8210 H   0  0  0  0  0  0  0  0  0  0  0  0
   -5.6010   -6.9920  -23.9990 H   0  0  0  0  0  0  0  0  0  0  0  0
   -8.1490   -6.7540  -25.0460 C   0  0  0  0  0  0  0  0  0  0  0  0
   -8.1280   -7.4040  -24.1670 H   0  0  0  0  0  0  0  0  0  0  0  0
   -9.1420   -6.3020  -25.1100 H   0  0  0  0  0  0  0  0  0  0  0  0
   -8.0070   -7.3760  -25.9350 H   0  0  0  0  0  0  0  0  0  0  0  0
   -7.0840   -5.0690  -25.8550 H   0  0  0  0  0  0  0  0  0  0  0  0
   -8.8700   -3.8870  -24.5840 H   0  0  0  0  0  0  0  0  0  0  0  0
   -7.3140   -3.0240  -24.6730 H   0  0  0  0  0  0  0  0  0  0  0  0
   -8.7770   -3.7190  -22.1040 H   0  0  0  0  0  0  0  0  0  0  0  0
   -6.1360   -2.3580  -22.6300 H   0  0  0  0  0  0  0  0  0  0  0  0
   -6.6210   -3.3830  -21.2690 H   0  0  0  0  0  0  0  0  0  0  0  0
  -10.5960   -1.8880  -22.6900 C   0  0  0  0  0  0  0  0  0  0  0  0
  -11.1400   -2.8500  -21.8330 C   0  0  0  0  0  0  0  0  0  0  0  0
  -12.5140   -2.9340  -21.6780 C   0  0  0  0  0  0  0  0  0  0  0  0
  -13.1740   -4.0190  -20.4920 Cl  0  0  0  0  0  0  0  0  0  0  0  0
  -13.3980   -2.1290  -22.3990 C   0  0  0  0  0  0  0  0  0  0  0  0
  -12.8660   -1.1550  -23.2160 C   0  0  0  0  0  0  0  0  0  0  0  0
  -11.4870   -1.0100  -23.3230 C   0  0  0  0  0  0  0  0  0  0  0  0
  -11.0020    0.1920  -24.0560 C   0  0  0  0  0  0  0  0  0  0  0  0
  -11.7630    1.0690  -24.4550 O   0  0  0  0  0  0  0  0  0  0  0  0
  -13.4900   -0.4510  -23.7560 H   0  0  0  0  0  0  0  0  0  0  0  0
  -14.4690   -2.2570  -22.2810 H   0  0  0  0  0  0  0  0  0  0  0  0
  -10.4970   -3.5190  -21.2680 H   0  0  0  0  0  0  0  0  0  0  0  0
   -9.0160   -1.5800  -24.9470 H   0  0  0  0  0  0  0  0  0  0  0  0
   -7.7680   -0.6040  -24.1520 H   0  0  0  0  0  0  0  0  0  0  0  0
   -8.5260    1.2650  -25.6810 H   0  0  0  0  0  0  0  0  0  0  0  0
   -9.9330    2.1490  -24.9640 H   0  0  0  0  0  0  0  0  0  0  0  0
   -9.4660    2.6720  -22.3680 H   0  0  0  0  0  0  0  0  0  0  0  0
   -6.8570    3.9610  -22.3140 H   0  0  0  0  0  0  0  0  0  0  0  0
   -7.9880    3.7540  -20.9590 H   0  0  0  0  0  0  0  0  0  0  0  0
   -6.9350    2.4140  -21.4550 H   0  0  0  0  0  0  0  0  0  0  0  0
  1  2  1  0  0  0  0
  1 64  1  0  0  0  0
  1 65  1  0  0  0  0
  1 66  1  0  0  0  0
  2  3  1  0  0  0  0
  2 63  1  0  0  0  0
  3  4  2  0  0  0  0
  3  5  1  0  0  0  0
  5  6  1  0  0  0  0
  5 61  1  0  0  0  0
  5 62  1  0  0  0  0
  6  7  1  0  0  0  0
  6 54  1  0  0  0  0
  7  8  1  0  0  0  0
  7 59  1  0  0  0  0
  7 60  1  0  0  0  0
  8  9  1  1  0  0  0
  8 29  1  0  0  0  0
  8 47  1  0  0  0  0
  9 10  2  0  0  0  0
  9 11  1  0  0  0  0
 11 12  1  0  0  0  0
 11 28  1  0  0  0  0
 12 13  2  0  0  0  0
 12 21  1  0  0  0  0
 13 14  1  0  0  0  0
 13 27  1  0  0  0  0
 14 15  2  0  0  0  0
 15 16  1  0  0  0  0
 15 26  1  0  0  0  0
 16 17  2  0  0  0  0
 16 21  1  0  0  0  0
 17 18  1  0  0  0  0
 17 25  1  0  0  0  0
 18 19  2  0  0  0  0
 18 24  1  0  0  0  0
 19 20  1  0  0  0  0
 19 23  1  0  0  0  0
 20 21  2  0  0  0  0
 20 22  1  0  0  0  0
 28 29  1  0  0  0  0
 28 45  1  0  0  0  0
 28 46  1  0  0  0  0
 29 30  1  0  0  0  0
 29 44  1  1  0  0  0
 30 31  1  0  0  0  0
 30 42  1  0  0  0  0
 30 43  1  0  0  0  0
 31 32  1  0  0  0  0
 32 33  1  0  0  0  0
 32 37  1  0  0  0  0
 32 41  1  0  0  0  0
 33 34  1  0  0  0  0
 33 35  1  0  0  0  0
 33 36  1  0  0  0  0
 37 38  1  0  0  0  0
 37 39  1  0  0  0  0
 37 40  1  0  0  0  0
 47 48  2  0  0  0  0
 47 53  1  0  0  0  0
 48 49  1  0  0  0  0
 48 58  1  0  0  0  0
 49 50  1  0  0  0  0
 49 51  2  0  0  0  0
 51 52  1  0  0  0  0
 51 57  1  0  0  0  0
 52 53  2  0  0  0  0
 52 56  1  0  0  0  0
 53 54  1  0  0  0  0
 54 55  2  0  0  0  0
M  END
>  <MODEL>
       1

$$$$
