tmp_first_model_15_17.pdb
 OpenBabel08282501153D

 38 41  0  0  1  0  0  0  0  0999 V2000
  -11.8700   -3.4240  -24.6570 C   0  0  0  0  0  0  0  0  0  0  0  0
  -10.4590   -2.9790  -24.2760 C   0  0  2  0  0  0  0  0  0  0  0  0
   -9.4910   -4.1580  -24.3090 C   0  0  0  0  0  0  0  0  0  0  0  0
   -8.0530   -3.7130  -24.0340 C   0  0  0  0  0  0  0  0  0  0  0  0
   -7.9920   -2.8090  -22.8870 C   0  0  0  0  0  0  0  0  0  0  0  0
   -6.8410   -2.4280  -22.1220 C   0  0  0  0  0  0  0  0  0  0  0  0
   -5.6890   -2.7930  -22.2070 O   0  5  0  0  0  0  0  0  0  0  0  0
   -7.3510   -1.4700  -21.1980 N   0  0  0  0  0  0  0  0  0  0  0  0
   -6.5790   -0.8420  -20.1820 C   0  0  0  0  0  0  0  0  0  0  0  0
   -6.8920   -1.0520  -18.8630 C   0  0  0  0  0  0  0  0  0  0  0  0
   -6.1960   -0.5440  -17.8130 N   0  0  0  0  0  0  0  0  0  0  0  0
   -5.1620    0.2140  -18.0750 C   0  0  0  0  0  0  0  0  0  0  0  0
   -4.7300    0.5330  -19.3900 C   0  0  0  0  0  0  0  0  0  0  0  0
   -3.6010    1.3660  -19.6280 C   0  0  0  0  0  0  0  0  0  0  0  0
   -3.2200    1.6690  -20.9050 C   0  0  0  0  0  0  0  0  0  0  0  0
   -3.9530    1.1590  -22.0010 C   0  0  0  0  0  0  0  0  0  0  0  0
   -5.0470    0.3590  -21.7960 C   0  0  0  0  0  0  0  0  0  0  0  0
   -5.4610    0.0060  -20.4840 C   0  0  0  0  0  0  0  0  0  0  0  0
   -5.6110   -0.0240  -22.6400 H   0  0  0  0  0  0  0  0  0  0  0  0
   -3.6530    1.4090  -23.0150 H   0  0  0  0  0  0  0  0  0  0  0  0
   -2.3650    2.3160  -21.0930 H   0  0  0  0  0  0  0  0  0  0  0  0
   -3.0620    1.7720  -18.7740 H   0  0  0  0  0  0  0  0  0  0  0  0
   -4.6110    0.6200  -17.2210 H   0  0  0  0  0  0  0  0  0  0  0  0
   -7.7390   -1.6740  -18.5910 H   0  0  0  0  0  0  0  0  0  0  0  0
   -8.7130   -1.2140  -21.4500 C   0  0  0  0  0  0  0  0  0  0  0  0
   -9.4130   -0.3700  -20.9440 O   0  0  0  0  0  0  0  0  0  0  0  0
   -9.0650   -2.1140  -22.4410 N   0  0  0  0  0  0  0  0  0  0  0  0
  -10.4290   -2.3130  -22.9030 C   0  0  0  0  0  0  0  0  0  0  0  0
  -10.9280   -1.3490  -22.9260 H   0  0  0  0  0  0  0  0  0  0  0  0
  -10.9880   -2.9180  -22.1860 H   0  0  0  0  0  0  0  0  0  0  0  0
   -7.6300   -3.2150  -24.9200 H   0  0  0  0  0  0  0  0  0  0  0  0
   -7.3930   -4.5620  -23.8370 H   0  0  0  0  0  0  0  0  0  0  0  0
   -9.8010   -4.8870  -23.5530 H   0  0  0  0  0  0  0  0  0  0  0  0
   -9.5420   -4.6650  -25.2790 H   0  0  0  0  0  0  0  0  0  0  0  0
  -10.1320   -2.2430  -25.0200 H   0  0  0  0  0  0  0  0  0  0  0  0
  -12.2550   -4.1890  -23.9720 H   0  0  0  0  0  0  0  0  0  0  0  0
  -12.5880   -2.5960  -24.6700 H   0  0  0  0  0  0  0  0  0  0  0  0
  -11.8600   -3.8680  -25.6560 H   0  0  0  0  0  0  0  0  0  0  0  0
  1  2  1  0  0  0  0
  1 36  1  0  0  0  0
  1 37  1  0  0  0  0
  1 38  1  0  0  0  0
  2  3  1  0  0  0  0
  2 28  1  0  0  0  0
  2 35  1  6  0  0  0
  3  4  1  0  0  0  0
  3 33  1  0  0  0  0
  3 34  1  0  0  0  0
  4  5  1  0  0  0  0
  4 31  1  0  0  0  0
  4 32  1  0  0  0  0
  5  6  2  0  0  0  0
  5 27  1  0  0  0  0
  6  7  1  0  0  0  0
  6  8  1  0  0  0  0
  8  9  1  0  0  0  0
  8 25  1  0  0  0  0
  9 10  2  0  0  0  0
  9 18  1  0  0  0  0
 10 11  1  0  0  0  0
 10 24  1  0  0  0  0
 11 12  2  0  0  0  0
 12 13  1  0  0  0  0
 12 23  1  0  0  0  0
 13 14  2  0  0  0  0
 13 18  1  0  0  0  0
 14 15  1  0  0  0  0
 14 22  1  0  0  0  0
 15 16  2  0  0  0  0
 15 21  1  0  0  0  0
 16 17  1  0  0  0  0
 16 20  1  0  0  0  0
 17 18  2  0  0  0  0
 17 19  1  0  0  0  0
 25 26  2  0  0  0  0
 25 27  1  0  0  0  0
 27 28  1  0  0  0  0
 28 29  1  0  0  0  0
 28 30  1  0  0  0  0
M  CHG  1   7  -1
M  END
>  <MODEL>
       1

$$$$
