tmp_first_model_20_67.pdb
 OpenBabel08282503553D

 58 63  0  0  1  0  0  0  0  0999 V2000
   -6.4900   -0.2680  -30.5830 C   0  0  0  0  0  0  0  0  0  0  0  0
   -6.3850   -0.2750  -29.0900 C   0  0  0  0  0  0  0  0  0  0  0  0
   -7.0820    0.5880  -28.1980 C   0  0  0  0  0  0  0  0  0  0  0  0
   -6.6650    0.1920  -26.9740 C   0  0  0  0  0  0  0  0  0  0  0  0
   -7.0560    0.6630  -25.6070 C   0  0  0  0  0  0  0  0  0  0  0  0
   -8.1810   -0.0440  -25.0310 N   0  0  0  0  0  0  0  0  0  0  0  0
   -7.9770   -1.3610  -24.4770 C   0  0  0  0  0  0  0  0  0  0  0  0
   -8.7610   -1.5220  -23.1540 C   0  0  2  0  0  0  0  0  0  0  0  0
   -8.1310   -0.5900  -22.0850 C   0  0  0  0  0  0  0  0  0  0  0  0
   -8.2160    0.6140  -22.0210 O   0  0  0  0  0  0  0  0  0  0  0  0
   -7.4140   -1.3660  -21.2020 N   0  0  0  0  0  0  0  0  0  0  0  0
   -6.6080   -0.8030  -20.1820 C   0  0  0  0  0  0  0  0  0  0  0  0
   -6.8990   -1.0520  -18.8640 C   0  0  0  0  0  0  0  0  0  0  0  0
   -6.2040   -0.5510  -17.8130 N   0  0  0  0  0  0  0  0  0  0  0  0
   -5.1700    0.2080  -18.0820 C   0  0  0  0  0  0  0  0  0  0  0  0
   -4.7300    0.5240  -19.3970 C   0  0  0  0  0  0  0  0  0  0  0  0
   -3.5950    1.3470  -19.6340 C   0  0  0  0  0  0  0  0  0  0  0  0
   -3.1840    1.6160  -20.9100 C   0  0  0  0  0  0  0  0  0  0  0  0
   -3.8810    1.0610  -22.0090 C   0  0  0  0  0  0  0  0  0  0  0  0
   -4.9780    0.2650  -21.8040 C   0  0  0  0  0  0  0  0  0  0  0  0
   -5.4540   -0.0070  -20.4890 C   0  0  0  0  0  0  0  0  0  0  0  0
   -5.5160   -0.1440  -22.6550 H   0  0  0  0  0  0  0  0  0  0  0  0
   -3.5550    1.2890  -23.0190 H   0  0  0  0  0  0  0  0  0  0  0  0
   -2.3300    2.2630  -21.0910 H   0  0  0  0  0  0  0  0  0  0  0  0
   -3.0690    1.7610  -18.7780 H   0  0  0  0  0  0  0  0  0  0  0  0
   -4.6230    0.6130  -17.2300 H   0  0  0  0  0  0  0  0  0  0  0  0
   -7.7470   -1.6820  -18.6020 H   0  0  0  0  0  0  0  0  0  0  0  0
   -7.4320   -2.7790  -21.5150 C   0  0  0  0  0  0  0  0  0  0  0  0
   -8.5740   -2.9370  -22.5370 C   0  0  2  0  0  0  0  0  0  0  0  0
   -8.3360   -4.0970  -23.5160 C   0  0  0  0  0  0  0  0  0  0  0  0
   -8.2990   -5.0560  -22.9840 H   0  0  0  0  0  0  0  0  0  0  0  0
   -7.3830   -3.9770  -24.0470 H   0  0  0  0  0  0  0  0  0  0  0  0
   -9.1260   -4.1680  -24.2740 H   0  0  0  0  0  0  0  0  0  0  0  0
   -9.4970   -3.1450  -21.9900 H   0  0  0  0  0  0  0  0  0  0  0  0
   -7.6080   -3.3400  -20.6000 H   0  0  0  0  0  0  0  0  0  0  0  0
   -6.4700   -3.1170  -21.9330 H   0  0  0  0  0  0  0  0  0  0  0  0
  -10.2010   -1.1070  -23.3910 C   0  0  0  0  0  0  0  0  0  0  0  0
  -11.2090   -1.4450  -22.4750 C   0  0  0  0  0  0  0  0  0  0  0  0
  -12.5040   -1.0250  -22.7080 C   0  0  0  0  0  0  0  0  0  0  0  0
  -13.4650   -1.3660  -21.8320 F   0  0  0  0  0  0  0  0  0  0  0  0
  -12.8390   -0.2070  -23.7810 C   0  0  0  0  0  0  0  0  0  0  0  0
  -11.8110    0.2740  -24.5660 C   0  0  0  0  0  0  0  0  0  0  0  0
  -10.5130   -0.2050  -24.4140 C   0  0  0  0  0  0  0  0  0  0  0  0
   -9.4530    0.3830  -25.2960 C   0  0  0  0  0  0  0  0  0  0  0  0
   -9.7040    1.2070  -26.1620 O   0  0  0  0  0  0  0  0  0  0  0  0
  -11.9570    1.0840  -25.2640 H   0  0  0  0  0  0  0  0  0  0  0  0
  -13.8680    0.0890  -23.9410 H   0  0  0  0  0  0  0  0  0  0  0  0
  -11.0040   -1.9760  -21.5500 H   0  0  0  0  0  0  0  0  0  0  0  0
   -8.3000   -2.1290  -25.1990 H   0  0  0  0  0  0  0  0  0  0  0  0
   -6.9050   -1.4760  -24.3010 H   0  0  0  0  0  0  0  0  0  0  0  0
   -6.2050    0.5850  -24.9200 H   0  0  0  0  0  0  0  0  0  0  0  0
   -7.3490    1.7100  -25.6880 H   0  0  0  0  0  0  0  0  0  0  0  0
   -5.7760   -0.7990  -27.0930 O   0  0  0  0  0  0  0  0  0  0  0  0
   -5.6010   -1.1000  -28.4360 N   0  0  0  0  0  0  0  0  0  0  0  0
   -7.8170    1.3490  -28.4250 H   0  0  0  0  0  0  0  0  0  0  0  0
   -7.5150   -0.0060  -30.8670 H   0  0  0  0  0  0  0  0  0  0  0  0
   -6.2290   -1.2350  -31.0260 H   0  0  0  0  0  0  0  0  0  0  0  0
   -5.8340    0.5030  -31.0010 H   0  0  0  0  0  0  0  0  0  0  0  0
  1  2  1  0  0  0  0
  1 56  1  0  0  0  0
  1 57  1  0  0  0  0
  1 58  1  0  0  0  0
  2  3  1  0  0  0  0
  2 54  2  0  0  0  0
  3  4  2  0  0  0  0
  3 55  1  0  0  0  0
  4  5  1  0  0  0  0
  4 53  1  0  0  0  0
  5  6  1  0  0  0  0
  5 51  1  0  0  0  0
  5 52  1  0  0  0  0
  6  7  1  0  0  0  0
  6 44  1  0  0  0  0
  7  8  1  0  0  0  0
  7 49  1  0  0  0  0
  7 50  1  0  0  0  0
  8  9  1  1  0  0  0
  8 29  1  0  0  0  0
  8 37  1  0  0  0  0
  9 10  2  0  0  0  0
  9 11  1  0  0  0  0
 11 12  1  0  0  0  0
 11 28  1  0  0  0  0
 12 13  2  0  0  0  0
 12 21  1  0  0  0  0
 13 14  1  0  0  0  0
 13 27  1  0  0  0  0
 14 15  2  0  0  0  0
 15 16  1  0  0  0  0
 15 26  1  0  0  0  0
 16 17  2  0  0  0  0
 16 21  1  0  0  0  0
 17 18  1  0  0  0  0
 17 25  1  0  0  0  0
 18 19  2  0  0  0  0
 18 24  1  0  0  0  0
 19 20  1  0  0  0  0
 19 23  1  0  0  0  0
 20 21  2  0  0  0  0
 20 22  1  0  0  0  0
 28 29  1  0  0  0  0
 28 35  1  0  0  0  0
 28 36  1  0  0  0  0
 29 30  1  0  0  0  0
 29 34  1  1  0  0  0
 30 31  1  0  0  0  0
 30 32  1  0  0  0  0
 30 33  1  0  0  0  0
 37 38  2  0  0  0  0
 37 43  1  0  0  0  0
 38 39  1  0  0  0  0
 38 48  1  0  0  0  0
 39 40  1  0  0  0  0
 39 41  2  0  0  0  0
 41 42  1  0  0  0  0
 41 47  1  0  0  0  0
 42 43  2  0  0  0  0
 42 46  1  0  0  0  0
 43 44  1  0  0  0  0
 44 45  2  0  0  0  0
 53 54  1  0  0  0  0
M  END
>  <MODEL>
       1

$$$$
