tmp_first_model_1_27.pdb
 OpenBabel08272517043D

 58 62  0  0  1  0  0  0  0  0999 V2000
   -3.7570   -5.3550  -22.7120 C   0  0  0  0  0  0  0  0  0  0  0  0
   -4.4940   -6.5310  -22.1680 N   0  3  0  0  0  0  0  0  0  0  0  0
   -5.6200   -6.2260  -21.2130 C   0  0  0  0  0  0  0  0  0  0  0  0
   -6.9960   -6.4860  -21.8430 C   0  0  0  0  0  0  0  0  0  0  0  0
   -7.3390   -5.4510  -22.8070 N   0  0  0  0  0  0  0  0  0  0  0  0
   -8.3170   -4.4360  -22.4660 C   0  0  0  0  0  0  0  0  0  0  0  0
   -7.9070   -3.0150  -22.9230 C   0  0  2  0  0  0  0  0  0  0  0  0
   -6.7910   -2.4810  -21.9830 C   0  0  0  0  0  0  0  0  0  0  0  0
   -5.6540   -2.9070  -21.8810 O   0  0  0  0  0  0  0  0  0  0  0  0
   -7.3090   -1.4480  -21.2330 N   0  0  0  0  0  0  0  0  0  0  0  0
   -6.5680   -0.8460  -20.1970 C   0  0  0  0  0  0  0  0  0  0  0  0
   -6.9110   -1.0590  -18.8890 C   0  0  0  0  0  0  0  0  0  0  0  0
   -6.2370   -0.5580  -17.8280 N   0  0  0  0  0  0  0  0  0  0  0  0
   -5.1990    0.2000  -18.0870 C   0  0  0  0  0  0  0  0  0  0  0  0
   -4.7470    0.5150  -19.3990 C   0  0  0  0  0  0  0  0  0  0  0  0
   -3.6210    1.3520  -19.6220 C   0  0  0  0  0  0  0  0  0  0  0  0
   -3.2290    1.6510  -20.8960 C   0  0  0  0  0  0  0  0  0  0  0  0
   -3.9400    1.1470  -22.0040 C   0  0  0  0  0  0  0  0  0  0  0  0
   -5.0300    0.3360  -21.8170 C   0  0  0  0  0  0  0  0  0  0  0  0
   -5.4510   -0.0100  -20.5010 C   0  0  0  0  0  0  0  0  0  0  0  0
   -5.5750   -0.0500  -22.6700 H   0  0  0  0  0  0  0  0  0  0  0  0
   -3.6200    1.4070  -23.0100 H   0  0  0  0  0  0  0  0  0  0  0  0
   -2.3770    2.3030  -21.0630 H   0  0  0  0  0  0  0  0  0  0  0  0
   -3.0980    1.7510  -18.7580 H   0  0  0  0  0  0  0  0  0  0  0  0
   -4.6530    0.6030  -17.2350 H   0  0  0  0  0  0  0  0  0  0  0  0
   -7.7660   -1.6890  -18.6520 H   0  0  0  0  0  0  0  0  0  0  0  0
   -8.7550   -1.3620  -21.3120 C   0  0  0  0  0  0  0  0  0  0  0  0
   -9.0740   -2.0010  -22.6690 C   0  0  2  0  0  0  0  0  0  0  0  0
  -10.4900   -2.5670  -22.6990 C   0  0  0  0  0  0  0  0  0  0  0  0
  -10.7000   -3.0830  -23.6410 H   0  0  0  0  0  0  0  0  0  0  0  0
  -10.6440   -3.2810  -21.8790 H   0  0  0  0  0  0  0  0  0  0  0  0
  -11.2170   -1.7600  -22.5790 H   0  0  0  0  0  0  0  0  0  0  0  0
   -9.0040   -1.2130  -23.4240 H   0  0  0  0  0  0  0  0  0  0  0  0
   -9.2520   -1.9170  -20.5000 H   0  0  0  0  0  0  0  0  0  0  0  0
   -9.0820   -0.3200  -21.2580 H   0  0  0  0  0  0  0  0  0  0  0  0
   -7.4030   -3.0880  -24.3490 C   0  0  0  0  0  0  0  0  0  0  0  0
   -7.3290   -1.9300  -25.1280 C   0  0  0  0  0  0  0  0  0  0  0  0
   -6.8940   -2.0150  -26.4310 C   0  0  0  0  0  0  0  0  0  0  0  0
   -6.8240   -0.8920  -27.1630 F   0  0  0  0  0  0  0  0  0  0  0  0
   -6.5240   -3.2130  -27.0260 C   0  0  0  0  0  0  0  0  0  0  0  0
   -6.5400   -4.3470  -26.2390 C   0  0  0  0  0  0  0  0  0  0  0  0
   -6.9200   -4.2850  -24.8970 C   0  0  0  0  0  0  0  0  0  0  0  0
   -6.7240   -5.4800  -24.0140 C   0  0  0  0  0  0  0  0  0  0  0  0
   -5.9880   -6.4230  -24.3470 O   0  0  0  0  0  0  0  0  0  0  0  0
   -6.2510   -5.3020  -26.6580 H   0  0  0  0  0  0  0  0  0  0  0  0
   -6.2070   -3.2320  -28.0630 H   0  0  0  0  0  0  0  0  0  0  0  0
   -7.5940   -0.9570  -24.7320 H   0  0  0  0  0  0  0  0  0  0  0  0
   -8.4070   -4.4120  -21.3810 H   0  0  0  0  0  0  0  0  0  0  0  0
   -9.2950   -4.6930  -22.8970 H   0  0  0  0  0  0  0  0  0  0  0  0
   -7.7760   -6.5140  -21.0780 H   0  0  0  0  0  0  0  0  0  0  0  0
   -7.0010   -7.4550  -22.3550 H   0  0  0  0  0  0  0  0  0  0  0  0
   -5.5100   -6.8530  -20.3240 H   0  0  0  0  0  0  0  0  0  0  0  0
   -5.5570   -5.1720  -20.9320 H   0  0  0  0  0  0  0  0  0  0  0  0
   -4.9090   -7.0080  -23.0030 H   0  0  0  0  0  0  0  0  0  0  0  0
   -3.8230   -7.1790  -21.7020 H   0  0  0  0  0  0  0  0  0  0  0  0
   -2.8530   -5.6970  -23.2200 H   0  0  0  0  0  0  0  0  0  0  0  0
   -4.3780   -4.8180  -23.4350 H   0  0  0  0  0  0  0  0  0  0  0  0
   -3.5020   -4.6590  -21.9130 H   0  0  0  0  0  0  0  0  0  0  0  0
  1  2  1  0  0  0  0
  1 56  1  0  0  0  0
  1 57  1  0  0  0  0
  1 58  1  0  0  0  0
  2  3  1  0  0  0  0
  2 54  1  0  0  0  0
  2 55  1  0  0  0  0
  3  4  1  0  0  0  0
  3 52  1  0  0  0  0
  3 53  1  0  0  0  0
  4  5  1  0  0  0  0
  4 50  1  0  0  0  0
  4 51  1  0  0  0  0
  5  6  1  0  0  0  0
  5 43  1  0  0  0  0
  6  7  1  0  0  0  0
  6 48  1  0  0  0  0
  6 49  1  0  0  0  0
  7  8  1  1  0  0  0
  7 28  1  0  0  0  0
  7 36  1  0  0  0  0
  8  9  2  0  0  0  0
  8 10  1  0  0  0  0
 10 11  1  0  0  0  0
 10 27  1  0  0  0  0
 11 12  2  0  0  0  0
 11 20  1  0  0  0  0
 12 13  1  0  0  0  0
 12 26  1  0  0  0  0
 13 14  2  0  0  0  0
 14 15  1  0  0  0  0
 14 25  1  0  0  0  0
 15 16  2  0  0  0  0
 15 20  1  0  0  0  0
 16 17  1  0  0  0  0
 16 24  1  0  0  0  0
 17 18  2  0  0  0  0
 17 23  1  0  0  0  0
 18 19  1  0  0  0  0
 18 22  1  0  0  0  0
 19 20  2  0  0  0  0
 19 21  1  0  0  0  0
 27 28  1  0  0  0  0
 27 34  1  0  0  0  0
 27 35  1  0  0  0  0
 28 29  1  0  0  0  0
 28 33  1  6  0  0  0
 29 30  1  0  0  0  0
 29 31  1  0  0  0  0
 29 32  1  0  0  0  0
 36 37  2  0  0  0  0
 36 42  1  0  0  0  0
 37 38  1  0  0  0  0
 37 47  1  0  0  0  0
 38 39  1  0  0  0  0
 38 40  2  0  0  0  0
 40 41  1  0  0  0  0
 40 46  1  0  0  0  0
 41 42  2  0  0  0  0
 41 45  1  0  0  0  0
 42 43  1  0  0  0  0
 43 44  2  0  0  0  0
M  CHG  1   2   1
M  END
>  <MODEL>
       1

$$$$
