tmp_first_model_13_81.pdb
 OpenBabel08282500103D

 36 38  0  0  0  0  0  0  0  0999 V2000
   -8.5040    0.7120  -21.4640 O   0  0  0  0  0  0  0  0  0  0  0  0
   -8.3860   -0.4020  -21.9330 C   0  0  0  0  0  0  0  0  0  0  0  0
   -7.4390   -1.4330  -21.2760 C   0  0  0  0  0  0  0  0  0  0  0  0
   -6.5820   -0.8280  -20.1850 C   0  0  0  0  0  0  0  0  0  0  0  0
   -6.8780   -1.0390  -18.8630 C   0  0  0  0  0  0  0  0  0  0  0  0
   -6.1890   -0.5330  -17.8060 N   0  0  0  0  0  0  0  0  0  0  0  0
   -5.1540    0.2230  -18.0680 C   0  0  0  0  0  0  0  0  0  0  0  0
   -4.7220    0.5360  -19.3840 C   0  0  0  0  0  0  0  0  0  0  0  0
   -3.5970    1.3670  -19.6220 C   0  0  0  0  0  0  0  0  0  0  0  0
   -3.2080    1.6590  -20.9020 C   0  0  0  0  0  0  0  0  0  0  0  0
   -3.9330    1.1300  -21.9930 C   0  0  0  0  0  0  0  0  0  0  0  0
   -5.0270    0.3230  -21.7870 C   0  0  0  0  0  0  0  0  0  0  0  0
   -5.4550    0.0020  -20.4730 C   0  0  0  0  0  0  0  0  0  0  0  0
   -5.5740   -0.0680  -22.6380 H   0  0  0  0  0  0  0  0  0  0  0  0
   -3.6240    1.3680  -23.0060 H   0  0  0  0  0  0  0  0  0  0  0  0
   -2.3530    2.3030  -21.0880 H   0  0  0  0  0  0  0  0  0  0  0  0
   -3.0570    1.7740  -18.7710 H   0  0  0  0  0  0  0  0  0  0  0  0
   -4.6010    0.6270  -17.2170 H   0  0  0  0  0  0  0  0  0  0  0  0
   -7.7280   -1.6590  -18.5830 H   0  0  0  0  0  0  0  0  0  0  0  0
   -6.8020   -1.8990  -22.0400 H   0  0  0  0  0  0  0  0  0  0  0  0
   -8.0410   -2.2450  -20.8440 H   0  0  0  0  0  0  0  0  0  0  0  0
   -9.0620   -0.7710  -23.0880 N   0  0  0  0  0  0  0  0  0  0  0  0
  -10.0070    0.1950  -23.6430 C   0  0  0  0  0  0  0  0  0  0  0  0
  -11.3810    0.2140  -23.0230 C   0  0  0  0  0  0  0  0  0  0  0  0
  -12.0240   -0.7940  -22.4230 C   0  0  0  0  0  0  0  0  0  0  0  0
  -11.5710   -2.1760  -22.1570 C   0  0  0  0  0  0  0  0  0  0  0  0
  -10.4470   -2.7810  -22.5510 C   0  0  0  0  0  0  0  0  0  0  0  0
   -9.3680   -2.1600  -23.4050 C   0  0  0  0  0  0  0  0  0  0  0  0
   -8.4500   -2.7530  -23.3600 H   0  0  0  0  0  0  0  0  0  0  0  0
   -9.6850   -2.1770  -24.4550 H   0  0  0  0  0  0  0  0  0  0  0  0
  -10.2830   -3.8150  -22.2470 H   0  0  0  0  0  0  0  0  0  0  0  0
  -12.2760   -2.7640  -21.5730 H   0  0  0  0  0  0  0  0  0  0  0  0
  -13.0200   -0.5800  -22.0410 H   0  0  0  0  0  0  0  0  0  0  0  0
  -11.8930    1.1780  -23.0810 H   0  0  0  0  0  0  0  0  0  0  0  0
  -10.1140   -0.0420  -24.7080 H   0  0  0  0  0  0  0  0  0  0  0  0
   -9.5590    1.1910  -23.5960 H   0  0  0  0  0  0  0  0  0  0  0  0
  1  2  2  0  0  0  0
  2  3  1  0  0  0  0
  2 22  1  0  0  0  0
  3  4  1  0  0  0  0
  3 20  1  0  0  0  0
  3 21  1  0  0  0  0
  4  5  2  0  0  0  0
  4 13  1  0  0  0  0
  5  6  1  0  0  0  0
  5 19  1  0  0  0  0
  6  7  2  0  0  0  0
  7  8  1  0  0  0  0
  7 18  1  0  0  0  0
  8  9  2  0  0  0  0
  8 13  1  0  0  0  0
  9 10  1  0  0  0  0
  9 17  1  0  0  0  0
 10 11  2  0  0  0  0
 10 16  1  0  0  0  0
 11 12  1  0  0  0  0
 11 15  1  0  0  0  0
 12 13  2  0  0  0  0
 12 14  1  0  0  0  0
 22 23  1  0  0  0  0
 22 28  1  0  0  0  0
 23 24  1  0  0  0  0
 23 35  1  0  0  0  0
 23 36  1  0  0  0  0
 24 25  2  0  0  0  0
 24 34  1  0  0  0  0
 25 26  1  0  0  0  0
 25 33  1  0  0  0  0
 26 27  2  0  0  0  0
 26 32  1  0  0  0  0
 27 28  1  0  0  0  0
 27 31  1  0  0  0  0
 28 29  1  0  0  0  0
 28 30  1  0  0  0  0
M  END
>  <MODEL>
       1

$$$$
