tmp_first_model_1_20.pdb
 OpenBabel08272517043D

 66 71  0  0  1  0  0  0  0  0999 V2000
   -4.9060   -1.8880  -28.6520 C   0  0  0  0  0  0  0  0  0  0  0  0
   -4.9450   -1.5770  -27.2420 N   0  0  0  0  0  0  0  0  0  0  0  0
   -4.7940   -0.3060  -26.7860 C   0  0  0  0  0  0  0  0  0  0  0  0
   -4.4110    0.6100  -27.4930 O   0  0  0  0  0  0  0  0  0  0  0  0
   -5.1250   -0.0890  -25.3020 C   0  0  0  0  0  0  0  0  0  0  0  0
   -6.3730   -0.6750  -24.8360 N   0  0  0  0  0  0  0  0  0  0  0  0
   -6.3410   -1.8690  -24.0170 C   0  0  0  0  0  0  0  0  0  0  0  0
   -7.5020   -1.9510  -22.9930 C   0  0  2  0  0  0  0  0  0  0  0  0
   -7.2680   -1.0270  -21.7830 C   0  0  0  0  0  0  0  0  0  0  0  0
   -7.7010    0.0830  -21.5620 O   0  0  0  0  0  0  0  0  0  0  0  0
   -6.4850   -1.7370  -20.8970 N   0  0  0  0  0  0  0  0  0  0  0  0
   -5.8530   -1.0790  -19.8340 C   0  0  0  0  0  0  0  0  0  0  0  0
   -6.2060   -1.3730  -18.5430 C   0  0  0  0  0  0  0  0  0  0  0  0
   -5.7060   -0.7460  -17.4540 N   0  0  0  0  0  0  0  0  0  0  0  0
   -4.8230    0.2030  -17.6650 C   0  0  0  0  0  0  0  0  0  0  0  0
   -4.3480    0.5790  -18.9530 C   0  0  0  0  0  0  0  0  0  0  0  0
   -3.3630    1.5860  -19.1110 C   0  0  0  0  0  0  0  0  0  0  0  0
   -2.8650    1.8930  -20.3470 C   0  0  0  0  0  0  0  0  0  0  0  0
   -3.3470    1.2120  -21.4890 C   0  0  0  0  0  0  0  0  0  0  0  0
   -4.3270    0.2590  -21.3690 C   0  0  0  0  0  0  0  0  0  0  0  0
   -4.8590   -0.0820  -20.0880 C   0  0  0  0  0  0  0  0  0  0  0  0
   -4.7130   -0.2290  -22.2610 H   0  0  0  0  0  0  0  0  0  0  0  0
   -2.9430    1.4490  -22.4710 H   0  0  0  0  0  0  0  0  0  0  0  0
   -2.1050    2.6620  -20.4600 H   0  0  0  0  0  0  0  0  0  0  0  0
   -3.0280    2.0980  -18.2160 H   0  0  0  0  0  0  0  0  0  0  0  0
   -4.4220    0.7260  -16.7960 H   0  0  0  0  0  0  0  0  0  0  0  0
   -6.9540   -2.1450  -18.3530 H   0  0  0  0  0  0  0  0  0  0  0  0
   -6.3520   -3.1470  -21.2290 C   0  0  0  0  0  0  0  0  0  0  0  0
   -7.4760   -3.3120  -22.2520 C   0  0  2  0  0  0  0  0  0  0  0  0
   -7.5680   -4.5940  -23.0930 C   0  0  0  0  0  0  0  0  0  0  0  0
   -6.3440   -5.0710  -23.8420 C   0  0  0  0  0  0  0  0  0  0  0  0
   -5.2860   -5.6740  -23.1610 C   0  0  0  0  0  0  0  0  0  0  0  0
   -4.1910   -6.1910  -23.8460 C   0  0  0  0  0  0  0  0  0  0  0  0
   -4.1220   -6.0930  -25.2320 C   0  0  0  0  0  0  0  0  0  0  0  0
   -5.1560   -5.4700  -25.9270 C   0  0  0  0  0  0  0  0  0  0  0  0
   -6.2550   -4.9720  -25.2350 C   0  0  0  0  0  0  0  0  0  0  0  0
   -7.0510   -4.4600  -25.7770 H   0  0  0  0  0  0  0  0  0  0  0  0
   -5.0900   -5.3430  -27.0060 H   0  0  0  0  0  0  0  0  0  0  0  0
   -3.2660   -6.4930  -25.7680 H   0  0  0  0  0  0  0  0  0  0  0  0
   -3.3910   -6.6670  -23.2870 H   0  0  0  0  0  0  0  0  0  0  0  0
   -5.3220   -5.7230  -22.0740 H   0  0  0  0  0  0  0  0  0  0  0  0
   -8.3840   -4.4490  -23.8120 H   0  0  0  0  0  0  0  0  0  0  0  0
   -7.8970   -5.3880  -22.4090 H   0  0  0  0  0  0  0  0  0  0  0  0
   -8.3880   -3.2940  -21.6510 H   0  0  0  0  0  0  0  0  0  0  0  0
   -5.3630   -3.3630  -21.6520 H   0  0  0  0  0  0  0  0  0  0  0  0
   -6.4910   -3.7730  -20.3440 H   0  0  0  0  0  0  0  0  0  0  0  0
   -8.7950   -1.6260  -23.6870 C   0  0  0  0  0  0  0  0  0  0  0  0
  -10.0270   -1.9950  -23.1340 C   0  0  0  0  0  0  0  0  0  0  0  0
  -11.2100   -1.6200  -23.7400 C   0  0  0  0  0  0  0  0  0  0  0  0
  -12.6940   -2.1300  -22.9650 Cl  0  0  0  0  0  0  0  0  0  0  0  0
  -11.2110   -0.8580  -24.9120 C   0  0  0  0  0  0  0  0  0  0  0  0
   -9.9970   -0.5020  -25.4660 C   0  0  0  0  0  0  0  0  0  0  0  0
   -8.7990   -0.8480  -24.8490 C   0  0  0  0  0  0  0  0  0  0  0  0
   -7.5410   -0.2420  -25.3990 C   0  0  0  0  0  0  0  0  0  0  0  0
   -7.5620    0.6050  -26.2820 O   0  0  0  0  0  0  0  0  0  0  0  0
   -9.9160    0.0600  -26.3890 H   0  0  0  0  0  0  0  0  0  0  0  0
  -12.1340   -0.5430  -25.3830 H   0  0  0  0  0  0  0  0  0  0  0  0
  -10.1000   -2.5780  -22.2240 H   0  0  0  0  0  0  0  0  0  0  0  0
   -5.3680   -1.9400  -23.5220 H   0  0  0  0  0  0  0  0  0  0  0  0
   -6.4470   -2.7360  -24.6700 H   0  0  0  0  0  0  0  0  0  0  0  0
   -5.1310    0.9910  -25.1310 H   0  0  0  0  0  0  0  0  0  0  0  0
   -4.3130   -0.5250  -24.7050 H   0  0  0  0  0  0  0  0  0  0  0  0
   -5.0870   -2.3310  -26.5910 H   0  0  0  0  0  0  0  0  0  0  0  0
   -4.5660   -0.9940  -29.1740 H   0  0  0  0  0  0  0  0  0  0  0  0
   -5.9020   -2.1640  -29.0120 H   0  0  0  0  0  0  0  0  0  0  0  0
   -4.2210   -2.7140  -28.8610 H   0  0  0  0  0  0  0  0  0  0  0  0
  1  2  1  0  0  0  0
  1 64  1  0  0  0  0
  1 65  1  0  0  0  0
  1 66  1  0  0  0  0
  2  3  1  0  0  0  0
  2 63  1  0  0  0  0
  3  4  2  0  0  0  0
  3  5  1  0  0  0  0
  5  6  1  0  0  0  0
  5 61  1  0  0  0  0
  5 62  1  0  0  0  0
  6  7  1  0  0  0  0
  6 54  1  0  0  0  0
  7  8  1  0  0  0  0
  7 59  1  0  0  0  0
  7 60  1  0  0  0  0
  8  9  1  1  0  0  0
  8 29  1  0  0  0  0
  8 47  1  0  0  0  0
  9 10  2  0  0  0  0
  9 11  1  0  0  0  0
 11 12  1  0  0  0  0
 11 28  1  0  0  0  0
 12 13  2  0  0  0  0
 12 21  1  0  0  0  0
 13 14  1  0  0  0  0
 13 27  1  0  0  0  0
 14 15  2  0  0  0  0
 15 16  1  0  0  0  0
 15 26  1  0  0  0  0
 16 17  2  0  0  0  0
 16 21  1  0  0  0  0
 17 18  1  0  0  0  0
 17 25  1  0  0  0  0
 18 19  2  0  0  0  0
 18 24  1  0  0  0  0
 19 20  1  0  0  0  0
 19 23  1  0  0  0  0
 20 21  2  0  0  0  0
 20 22  1  0  0  0  0
 28 29  1  0  0  0  0
 28 45  1  0  0  0  0
 28 46  1  0  0  0  0
 29 30  1  0  0  0  0
 29 44  1  1  0  0  0
 30 31  1  0  0  0  0
 30 42  1  0  0  0  0
 30 43  1  0  0  0  0
 31 32  2  0  0  0  0
 31 36  1  0  0  0  0
 32 33  1  0  0  0  0
 32 41  1  0  0  0  0
 33 34  2  0  0  0  0
 33 40  1  0  0  0  0
 34 35  1  0  0  0  0
 34 39  1  0  0  0  0
 35 36  2  0  0  0  0
 35 38  1  0  0  0  0
 36 37  1  0  0  0  0
 47 48  2  0  0  0  0
 47 53  1  0  0  0  0
 48 49  1  0  0  0  0
 48 58  1  0  0  0  0
 49 50  1  0  0  0  0
 49 51  2  0  0  0  0
 51 52  1  0  0  0  0
 51 57  1  0  0  0  0
 52 53  2  0  0  0  0
 52 56  1  0  0  0  0
 53 54  1  0  0  0  0
 54 55  2  0  0  0  0
M  END
>  <MODEL>
       1

$$$$
