tmp_first_model_18_90.pdb
 OpenBabel08282502533D

 64 68  0  0  1  0  0  0  0  0999 V2000
   -8.1230    0.8890  -29.5250 C   0  0  0  0  0  0  0  0  0  0  0  0
   -8.2150   -0.3390  -28.7590 N   0  0  0  0  0  0  0  0  0  0  0  0
   -7.4810   -0.4440  -27.6140 C   0  0  0  0  0  0  0  0  0  0  0  0
   -6.7030    0.4160  -27.2340 O   0  0  0  0  0  0  0  0  0  0  0  0
   -7.6940   -1.7540  -26.8480 C   0  0  0  0  0  0  0  0  0  0  0  0
   -8.5570   -1.5690  -25.6930 N   0  0  0  0  0  0  0  0  0  0  0  0
   -8.0260   -1.0110  -24.4510 C   0  0  0  0  0  0  0  0  0  0  0  0
   -8.7040   -1.6300  -23.1950 C   0  0  2  0  0  0  0  0  0  0  0  0
   -8.3230   -0.7370  -21.9970 C   0  0  0  0  0  0  0  0  0  0  0  0
   -8.7080    0.3900  -21.7750 O   0  0  0  0  0  0  0  0  0  0  0  0
   -7.4080   -1.4200  -21.2110 N   0  0  0  0  0  0  0  0  0  0  0  0
   -6.6380   -0.7970  -20.1920 C   0  0  0  0  0  0  0  0  0  0  0  0
   -6.9260   -1.0580  -18.8780 C   0  0  0  0  0  0  0  0  0  0  0  0
   -6.2360   -0.5630  -17.8200 N   0  0  0  0  0  0  0  0  0  0  0  0
   -5.2100    0.2090  -18.0860 C   0  0  0  0  0  0  0  0  0  0  0  0
   -4.7770    0.5360  -19.4020 C   0  0  0  0  0  0  0  0  0  0  0  0
   -3.6440    1.3600  -19.6260 C   0  0  0  0  0  0  0  0  0  0  0  0
   -3.2320    1.6380  -20.8990 C   0  0  0  0  0  0  0  0  0  0  0  0
   -3.9270    1.0990  -22.0050 C   0  0  0  0  0  0  0  0  0  0  0  0
   -5.0280    0.3020  -21.8160 C   0  0  0  0  0  0  0  0  0  0  0  0
   -5.4930    0.0110  -20.5000 C   0  0  0  0  0  0  0  0  0  0  0  0
   -5.5460   -0.1090  -22.6780 H   0  0  0  0  0  0  0  0  0  0  0  0
   -3.5810    1.3180  -23.0100 H   0  0  0  0  0  0  0  0  0  0  0  0
   -2.3650    2.2700  -21.0680 H   0  0  0  0  0  0  0  0  0  0  0  0
   -3.1210    1.7600  -18.7620 H   0  0  0  0  0  0  0  0  0  0  0  0
   -4.6510    0.6080  -17.2400 H   0  0  0  0  0  0  0  0  0  0  0  0
   -7.7680   -1.7040  -18.6360 H   0  0  0  0  0  0  0  0  0  0  0  0
   -7.0450   -2.7340  -21.7050 C   0  0  0  0  0  0  0  0  0  0  0  0
   -8.1420   -3.0160  -22.7430 C   0  0  2  0  0  0  0  0  0  0  0  0
   -7.7320   -3.9080  -23.9100 C   0  0  0  0  0  0  0  0  0  0  0  0
   -7.4630   -5.6010  -23.4280 S   0  0  0  0  0  0  0  0  0  0  0  0
   -8.4910   -5.9290  -22.4600 O   0  0  0  0  0  0  0  0  0  0  0  0
   -7.3120   -6.3760  -24.6540 O   0  0  0  0  0  0  0  0  0  0  0  0
   -6.0390   -5.6420  -22.5260 N   0  0  0  0  0  0  0  0  0  0  0  0
   -5.8860   -6.9690  -21.8890 C   0  0  0  0  0  0  0  0  0  0  0  0
   -6.7730   -7.1510  -21.2720 H   0  0  0  0  0  0  0  0  0  0  0  0
   -5.7840   -7.7680  -22.6360 H   0  0  0  0  0  0  0  0  0  0  0  0
   -5.0030   -6.9570  -21.2470 H   0  0  0  0  0  0  0  0  0  0  0  0
   -5.2380   -5.3860  -23.0990 H   0  0  0  0  0  0  0  0  0  0  0  0
   -8.5670   -3.9580  -24.6160 H   0  0  0  0  0  0  0  0  0  0  0  0
   -6.8410   -3.5440  -24.4300 H   0  0  0  0  0  0  0  0  0  0  0  0
   -8.9590   -3.5170  -22.2110 H   0  0  0  0  0  0  0  0  0  0  0  0
   -7.0400   -3.4660  -20.8900 H   0  0  0  0  0  0  0  0  0  0  0  0
   -6.0290   -2.7320  -22.1310 H   0  0  0  0  0  0  0  0  0  0  0  0
  -10.2000   -1.6730  -23.4620 C   0  0  0  0  0  0  0  0  0  0  0  0
  -11.0980   -2.0040  -22.4430 C   0  0  0  0  0  0  0  0  0  0  0  0
  -12.4520   -1.7980  -22.6210 C   0  0  0  0  0  0  0  0  0  0  0  0
  -13.2850   -2.1250  -21.6210 F   0  0  0  0  0  0  0  0  0  0  0  0
  -12.9750   -1.2900  -23.8070 C   0  0  0  0  0  0  0  0  0  0  0  0
  -12.0970   -1.1210  -24.8600 C   0  0  0  0  0  0  0  0  0  0  0  0
  -10.7410   -1.3870  -24.7220 C   0  0  0  0  0  0  0  0  0  0  0  0
   -9.8980   -1.4960  -25.9440 C   0  0  0  0  0  0  0  0  0  0  0  0
  -10.3620   -1.5520  -27.0820 O   0  0  0  0  0  0  0  0  0  0  0  0
  -12.4520   -0.8280  -25.8390 H   0  0  0  0  0  0  0  0  0  0  0  0
  -14.0340   -1.0870  -23.9220 H   0  0  0  0  0  0  0  0  0  0  0  0
  -10.7560   -2.3520  -21.4730 H   0  0  0  0  0  0  0  0  0  0  0  0
   -8.2090    0.0740  -24.4100 H   0  0  0  0  0  0  0  0  0  0  0  0
   -6.9380   -1.1520  -24.4400 H   0  0  0  0  0  0  0  0  0  0  0  0
   -8.1540   -2.5040  -27.4990 H   0  0  0  0  0  0  0  0  0  0  0  0
   -6.7240   -2.1310  -26.5120 H   0  0  0  0  0  0  0  0  0  0  0  0
   -9.0700   -0.8830  -28.8060 H   0  0  0  0  0  0  0  0  0  0  0  0
   -8.7840    0.8150  -30.3930 H   0  0  0  0  0  0  0  0  0  0  0  0
   -7.0930    1.0240  -29.8730 H   0  0  0  0  0  0  0  0  0  0  0  0
   -8.4050    1.7630  -28.9210 H   0  0  0  0  0  0  0  0  0  0  0  0
  1  2  1  0  0  0  0
  1 62  1  0  0  0  0
  1 63  1  0  0  0  0
  1 64  1  0  0  0  0
  2  3  1  0  0  0  0
  2 61  1  0  0  0  0
  3  4  2  0  0  0  0
  3  5  1  0  0  0  0
  5  6  1  0  0  0  0
  5 59  1  0  0  0  0
  5 60  1  0  0  0  0
  6  7  1  0  0  0  0
  6 52  1  0  0  0  0
  7  8  1  0  0  0  0
  7 57  1  0  0  0  0
  7 58  1  0  0  0  0
  8  9  1  1  0  0  0
  8 29  1  0  0  0  0
  8 45  1  0  0  0  0
  9 10  2  0  0  0  0
  9 11  1  0  0  0  0
 11 12  1  0  0  0  0
 11 28  1  0  0  0  0
 12 13  2  0  0  0  0
 12 21  1  0  0  0  0
 13 14  1  0  0  0  0
 13 27  1  0  0  0  0
 14 15  2  0  0  0  0
 15 16  1  0  0  0  0
 15 26  1  0  0  0  0
 16 17  2  0  0  0  0
 16 21  1  0  0  0  0
 17 18  1  0  0  0  0
 17 25  1  0  0  0  0
 18 19  2  0  0  0  0
 18 24  1  0  0  0  0
 19 20  1  0  0  0  0
 19 23  1  0  0  0  0
 20 21  2  0  0  0  0
 20 22  1  0  0  0  0
 28 29  1  0  0  0  0
 28 43  1  0  0  0  0
 28 44  1  0  0  0  0
 29 30  1  0  0  0  0
 29 42  1  1  0  0  0
 30 31  1  0  0  0  0
 30 40  1  0  0  0  0
 30 41  1  0  0  0  0
 31 32  2  0  0  0  0
 31 33  2  0  0  0  0
 31 34  1  0  0  0  0
 34 35  1  0  0  0  0
 34 39  1  0  0  0  0
 35 36  1  0  0  0  0
 35 37  1  0  0  0  0
 35 38  1  0  0  0  0
 45 46  2  0  0  0  0
 45 51  1  0  0  0  0
 46 47  1  0  0  0  0
 46 56  1  0  0  0  0
 47 48  1  0  0  0  0
 47 49  2  0  0  0  0
 49 50  1  0  0  0  0
 49 55  1  0  0  0  0
 50 51  2  0  0  0  0
 50 54  1  0  0  0  0
 51 52  1  0  0  0  0
 52 53  2  0  0  0  0
M  END
>  <MODEL>
       1

$$$$
