tmp_first_model_18_62.pdb
 OpenBabel08282502533D

 44 47  0  0  0  0  0  0  0  0999 V2000
   -5.6170   -3.1950  -21.2550 O   0  0  0  0  0  0  0  0  0  0  0  0
   -6.7330   -2.8920  -21.6530 C   0  0  0  0  0  0  0  0  0  0  0  0
   -7.3740   -1.5560  -21.2650 C   0  0  0  0  0  0  0  0  0  0  0  0
   -6.5940   -0.8730  -20.1880 C   0  0  0  0  0  0  0  0  0  0  0  0
   -6.9230   -1.0800  -18.8760 C   0  0  0  0  0  0  0  0  0  0  0  0
   -6.2660   -0.5630  -17.8060 N   0  0  0  0  0  0  0  0  0  0  0  0
   -5.2270    0.1980  -18.0650 C   0  0  0  0  0  0  0  0  0  0  0  0
   -4.7600    0.4870  -19.3770 C   0  0  0  0  0  0  0  0  0  0  0  0
   -3.6390    1.3280  -19.6080 C   0  0  0  0  0  0  0  0  0  0  0  0
   -3.2290    1.5980  -20.8860 C   0  0  0  0  0  0  0  0  0  0  0  0
   -3.9070    1.0290  -21.9870 C   0  0  0  0  0  0  0  0  0  0  0  0
   -4.9870    0.2030  -21.7900 C   0  0  0  0  0  0  0  0  0  0  0  0
   -5.4540   -0.0700  -20.4750 C   0  0  0  0  0  0  0  0  0  0  0  0
   -5.4830   -0.2470  -22.6440 H   0  0  0  0  0  0  0  0  0  0  0  0
   -3.5770    1.2590  -22.9970 H   0  0  0  0  0  0  0  0  0  0  0  0
   -2.3830    2.2570  -21.0610 H   0  0  0  0  0  0  0  0  0  0  0  0
   -3.1310    1.7620  -18.7510 H   0  0  0  0  0  0  0  0  0  0  0  0
   -4.7020    0.6230  -17.2080 H   0  0  0  0  0  0  0  0  0  0  0  0
   -7.7760   -1.7130  -18.6310 H   0  0  0  0  0  0  0  0  0  0  0  0
   -8.3870   -1.7640  -20.8940 H   0  0  0  0  0  0  0  0  0  0  0  0
   -7.4750   -0.9210  -22.1530 H   0  0  0  0  0  0  0  0  0  0  0  0
   -7.4760   -3.7380  -22.4330 N   0  0  0  0  0  0  0  0  0  0  0  0
   -7.1230   -5.1540  -22.3810 C   0  0  0  0  0  0  0  0  0  0  0  0
   -7.3230   -5.7990  -23.7420 C   0  0  0  0  0  0  0  0  0  0  0  0
   -8.7610   -5.5910  -24.2170 C   0  0  0  0  0  0  0  0  0  0  0  0
   -9.0470   -6.4210  -25.4560 C   0  0  0  0  0  0  0  0  0  0  0  0
  -10.4520   -6.6510  -25.9550 C   0  0  0  0  0  0  0  0  0  0  0  0
   -9.4670   -5.8820  -26.7860 C   0  0  0  0  0  0  0  0  0  0  0  0
   -9.6540   -4.8170  -26.8770 H   0  0  0  0  0  0  0  0  0  0  0  0
   -9.0330   -6.3640  -27.6540 H   0  0  0  0  0  0  0  0  0  0  0  0
  -10.7290   -7.6570  -26.2530 H   0  0  0  0  0  0  0  0  0  0  0  0
  -11.2600   -6.0870  -25.4920 H   0  0  0  0  0  0  0  0  0  0  0  0
   -8.4080   -7.3040  -25.5140 H   0  0  0  0  0  0  0  0  0  0  0  0
   -9.0660   -4.0910  -24.2820 C   0  0  0  0  0  0  0  0  0  0  0  0
   -8.8430   -3.4820  -22.8940 C   0  0  0  0  0  0  0  0  0  0  0  0
   -9.5600   -3.9320  -22.1820 H   0  0  0  0  0  0  0  0  0  0  0  0
   -9.0490   -2.4080  -22.9130 H   0  0  0  0  0  0  0  0  0  0  0  0
   -8.4300   -3.5910  -25.0280 H   0  0  0  0  0  0  0  0  0  0  0  0
  -10.1070   -3.9040  -24.5740 H   0  0  0  0  0  0  0  0  0  0  0  0
   -9.3970   -5.9890  -23.4150 H   0  0  0  0  0  0  0  0  0  0  0  0
   -7.1230   -6.8750  -23.6520 H   0  0  0  0  0  0  0  0  0  0  0  0
   -6.6160   -5.3780  -24.4720 H   0  0  0  0  0  0  0  0  0  0  0  0
   -6.0900   -5.2440  -22.0370 H   0  0  0  0  0  0  0  0  0  0  0  0
   -7.7700   -5.6440  -21.6310 H   0  0  0  0  0  0  0  0  0  0  0  0
  1  2  2  0  0  0  0
  2  3  1  0  0  0  0
  2 22  1  0  0  0  0
  3  4  1  0  0  0  0
  3 20  1  0  0  0  0
  3 21  1  0  0  0  0
  4  5  2  0  0  0  0
  4 13  1  0  0  0  0
  5  6  1  0  0  0  0
  5 19  1  0  0  0  0
  6  7  2  0  0  0  0
  7  8  1  0  0  0  0
  7 18  1  0  0  0  0
  8  9  2  0  0  0  0
  8 13  1  0  0  0  0
  9 10  1  0  0  0  0
  9 17  1  0  0  0  0
 10 11  2  0  0  0  0
 10 16  1  0  0  0  0
 11 12  1  0  0  0  0
 11 15  1  0  0  0  0
 12 13  2  0  0  0  0
 12 14  1  0  0  0  0
 22 23  1  0  0  0  0
 22 35  1  0  0  0  0
 23 24  1  0  0  0  0
 23 43  1  0  0  0  0
 23 44  1  0  0  0  0
 24 25  1  0  0  0  0
 24 41  1  0  0  0  0
 24 42  1  0  0  0  0
 25 26  1  0  0  0  0
 25 34  1  0  0  0  0
 25 40  1  0  0  0  0
 26 27  1  0  0  0  0
 26 28  1  0  0  0  0
 26 33  1  0  0  0  0
 27 28  1  0  0  0  0
 27 31  1  0  0  0  0
 27 32  1  0  0  0  0
 28 29  1  0  0  0  0
 28 30  1  0  0  0  0
 34 35  1  0  0  0  0
 34 38  1  0  0  0  0
 34 39  1  0  0  0  0
 35 36  1  0  0  0  0
 35 37  1  0  0  0  0
M  END
>  <MODEL>
       1

$$$$
