tmp_first_model_14_38.pdb
 OpenBabel08282500413D

 46 48  0  0  1  0  0  0  0  0999 V2000
   -8.1580   -4.6950  -26.5430 C   0  0  0  0  0  0  0  0  0  0  0  0
   -8.6540   -4.9600  -25.1190 C   0  0  1  0  0  0  0  0  0  0  0  0
   -7.5900   -5.5250  -24.1810 C   0  0  0  0  0  0  0  0  0  0  0  0
   -6.6150   -4.5190  -23.5530 C   0  0  1  0  0  0  0  0  0  0  0  0
   -5.4120   -4.1590  -24.4400 C   0  0  0  0  0  0  0  0  0  0  0  0
   -4.6070   -3.7380  -23.8290 H   0  0  0  0  0  0  0  0  0  0  0  0
   -5.6630   -3.4320  -25.2150 H   0  0  0  0  0  0  0  0  0  0  0  0
   -5.0160   -5.0550  -24.9370 H   0  0  0  0  0  0  0  0  0  0  0  0
   -7.3250   -3.3390  -23.0140 N   0  0  0  0  0  0  0  0  0  0  0  0
   -6.7240   -2.7040  -21.9380 C   0  0  0  0  0  0  0  0  0  0  0  0
   -5.6770   -3.1180  -21.4660 O   0  0  0  0  0  0  0  0  0  0  0  0
   -7.4080   -1.4720  -21.2840 C   0  0  0  0  0  0  0  0  0  0  0  0
   -6.5770   -0.8350  -20.1920 C   0  0  0  0  0  0  0  0  0  0  0  0
   -6.8750   -1.0420  -18.8720 C   0  0  0  0  0  0  0  0  0  0  0  0
   -6.1980   -0.5150  -17.8170 N   0  0  0  0  0  0  0  0  0  0  0  0
   -5.1560    0.2310  -18.0740 C   0  0  0  0  0  0  0  0  0  0  0  0
   -4.7160    0.5310  -19.3880 C   0  0  0  0  0  0  0  0  0  0  0  0
   -3.5890    1.3560  -19.6260 C   0  0  0  0  0  0  0  0  0  0  0  0
   -3.1900    1.6340  -20.9040 C   0  0  0  0  0  0  0  0  0  0  0  0
   -3.9040    1.0920  -21.9950 C   0  0  0  0  0  0  0  0  0  0  0  0
   -5.0000    0.2900  -21.7890 C   0  0  0  0  0  0  0  0  0  0  0  0
   -5.4440   -0.0140  -20.4770 C   0  0  0  0  0  0  0  0  0  0  0  0
   -5.5350   -0.1230  -22.6380 H   0  0  0  0  0  0  0  0  0  0  0  0
   -3.5820    1.3180  -23.0060 H   0  0  0  0  0  0  0  0  0  0  0  0
   -2.3310    2.2740  -21.0880 H   0  0  0  0  0  0  0  0  0  0  0  0
   -3.0560    1.7730  -18.7740 H   0  0  0  0  0  0  0  0  0  0  0  0
   -4.6030    0.6280  -17.2190 H   0  0  0  0  0  0  0  0  0  0  0  0
   -7.7180   -1.6690  -18.5860 H   0  0  0  0  0  0  0  0  0  0  0  0
   -7.6720   -0.7140  -22.0330 H   0  0  0  0  0  0  0  0  0  0  0  0
   -8.3590   -1.8080  -20.8480 H   0  0  0  0  0  0  0  0  0  0  0  0
   -8.4100   -2.7200  -23.7940 C   0  0  1  0  0  0  0  0  0  0  0  0
   -7.9390   -1.6590  -24.8010 C   0  0  0  0  0  0  0  0  0  0  0  0
   -7.4430   -2.0880  -25.6750 H   0  0  0  0  0  0  0  0  0  0  0  0
   -8.7980   -1.0840  -25.1700 H   0  0  0  0  0  0  0  0  0  0  0  0
   -7.2440   -0.9500  -24.3430 H   0  0  0  0  0  0  0  0  0  0  0  0
   -9.3300   -3.7770  -24.4250 C   0  0  0  0  0  0  0  0  0  0  0  0
   -9.9790   -4.1700  -23.6350 H   0  0  0  0  0  0  0  0  0  0  0  0
   -9.9960   -3.2780  -25.1360 H   0  0  0  0  0  0  0  0  0  0  0  0
   -9.0330   -2.1950  -23.0630 H   0  0  0  0  0  0  0  0  0  0  0  0
   -6.1940   -5.0180  -22.6790 H   0  0  0  0  0  0  0  0  0  0  0  0
   -8.0920   -6.0560  -23.3650 H   0  0  0  0  0  0  0  0  0  0  0  0
   -7.0110   -6.2880  -24.7140 H   0  0  0  0  0  0  0  0  0  0  0  0
   -9.4270   -5.7360  -25.2240 H   0  0  0  0  0  0  0  0  0  0  0  0
   -7.9240   -5.6400  -27.0470 H   0  0  0  0  0  0  0  0  0  0  0  0
   -8.9300   -4.1940  -27.1380 H   0  0  0  0  0  0  0  0  0  0  0  0
   -7.2550   -4.0810  -26.5810 H   0  0  0  0  0  0  0  0  0  0  0  0
  1  2  1  0  0  0  0
  1 44  1  0  0  0  0
  1 45  1  0  0  0  0
  1 46  1  0  0  0  0
  2  3  1  0  0  0  0
  2 36  1  0  0  0  0
  2 43  1  6  0  0  0
  3  4  1  0  0  0  0
  3 41  1  0  0  0  0
  3 42  1  0  0  0  0
  4  5  1  0  0  0  0
  4  9  1  0  0  0  0
  4 40  1  1  0  0  0
  5  6  1  0  0  0  0
  5  7  1  0  0  0  0
  5  8  1  0  0  0  0
  9 10  1  0  0  0  0
  9 31  1  0  0  0  0
 10 11  2  0  0  0  0
 10 12  1  0  0  0  0
 12 13  1  0  0  0  0
 12 29  1  0  0  0  0
 12 30  1  0  0  0  0
 13 14  2  0  0  0  0
 13 22  1  0  0  0  0
 14 15  1  0  0  0  0
 14 28  1  0  0  0  0
 15 16  2  0  0  0  0
 16 17  1  0  0  0  0
 16 27  1  0  0  0  0
 17 18  2  0  0  0  0
 17 22  1  0  0  0  0
 18 19  1  0  0  0  0
 18 26  1  0  0  0  0
 19 20  2  0  0  0  0
 19 25  1  0  0  0  0
 20 21  1  0  0  0  0
 20 24  1  0  0  0  0
 21 22  2  0  0  0  0
 21 23  1  0  0  0  0
 31 32  1  0  0  0  0
 31 36  1  0  0  0  0
 31 39  1  1  0  0  0
 32 33  1  0  0  0  0
 32 34  1  0  0  0  0
 32 35  1  0  0  0  0
 36 37  1  0  0  0  0
 36 38  1  0  0  0  0
M  END
>  <MODEL>
       1

$$$$
