tmp_first_model_16_40.pdb
 OpenBabel08282501503D

 40 42  0  0  0  0  0  0  0  0999 V2000
   -9.2810   -6.6100  -25.1500 C   0  0  0  0  0  0  0  0  0  0  0  0
   -8.9560   -5.7570  -23.9190 C   0  0  0  0  0  0  0  0  0  0  0  0
   -7.5230   -5.9610  -23.4270 C   0  0  0  0  0  0  0  0  0  0  0  0
   -7.2540   -5.1530  -22.1620 C   0  0  0  0  0  0  0  0  0  0  0  0
   -7.6190   -3.7550  -22.3230 N   0  0  0  0  0  0  0  0  0  0  0  0
   -6.7820   -2.8180  -21.7670 C   0  0  0  0  0  0  0  0  0  0  0  0
   -5.5900   -3.0360  -21.6320 O   0  0  0  0  0  0  0  0  0  0  0  0
   -7.4180   -1.4960  -21.2870 C   0  0  0  0  0  0  0  0  0  0  0  0
   -6.6050   -0.8370  -20.2070 C   0  0  0  0  0  0  0  0  0  0  0  0
   -6.9130   -1.0830  -18.8960 C   0  0  0  0  0  0  0  0  0  0  0  0
   -6.1710   -0.6930  -17.8320 N   0  0  0  0  0  0  0  0  0  0  0  0
   -5.0940    0.0160  -18.0780 C   0  0  0  0  0  0  0  0  0  0  0  0
   -4.7050    0.4450  -19.3820 C   0  0  0  0  0  0  0  0  0  0  0  0
   -3.6030    1.3150  -19.6110 C   0  0  0  0  0  0  0  0  0  0  0  0
   -3.2110    1.6240  -20.8880 C   0  0  0  0  0  0  0  0  0  0  0  0
   -3.9120    1.0860  -21.9910 C   0  0  0  0  0  0  0  0  0  0  0  0
   -5.0070    0.2800  -21.7950 C   0  0  0  0  0  0  0  0  0  0  0  0
   -5.4530   -0.0370  -20.4830 C   0  0  0  0  0  0  0  0  0  0  0  0
   -5.5270   -0.1500  -22.6440 H   0  0  0  0  0  0  0  0  0  0  0  0
   -3.5750    1.3140  -22.9990 H   0  0  0  0  0  0  0  0  0  0  0  0
   -2.3460    2.2590  -21.0640 H   0  0  0  0  0  0  0  0  0  0  0  0
   -3.0920    1.7380  -18.7500 H   0  0  0  0  0  0  0  0  0  0  0  0
   -4.4800    0.2650  -17.2080 H   0  0  0  0  0  0  0  0  0  0  0  0
   -7.7900   -1.6740  -18.6250 H   0  0  0  0  0  0  0  0  0  0  0  0
   -7.5650   -0.8190  -22.1370 H   0  0  0  0  0  0  0  0  0  0  0  0
   -8.4130   -1.7170  -20.8770 H   0  0  0  0  0  0  0  0  0  0  0  0
   -8.9620   -3.4960  -22.8070 C   0  0  0  0  0  0  0  0  0  0  0  0
   -9.2350   -4.2690  -24.1070 C   0  0  0  0  0  0  0  0  0  0  0  0
  -10.2990   -4.1580  -24.3450 H   0  0  0  0  0  0  0  0  0  0  0  0
   -8.6420   -3.8600  -24.9410 H   0  0  0  0  0  0  0  0  0  0  0  0
   -9.0590   -2.4220  -22.9850 H   0  0  0  0  0  0  0  0  0  0  0  0
   -9.7070   -3.7860  -22.0410 H   0  0  0  0  0  0  0  0  0  0  0  0
   -7.8270   -5.5860  -21.3230 H   0  0  0  0  0  0  0  0  0  0  0  0
   -6.1980   -5.1470  -21.8880 H   0  0  0  0  0  0  0  0  0  0  0  0
   -6.8140   -5.6790  -24.2220 H   0  0  0  0  0  0  0  0  0  0  0  0
   -7.3620   -7.0230  -23.2010 H   0  0  0  0  0  0  0  0  0  0  0  0
   -9.6420   -6.0230  -23.1130 H   0  0  0  0  0  0  0  0  0  0  0  0
   -9.1110   -7.6740  -24.9490 H   0  0  0  0  0  0  0  0  0  0  0  0
  -10.3320   -6.5000  -25.4340 H   0  0  0  0  0  0  0  0  0  0  0  0
   -8.6660   -6.3350  -26.0170 H   0  0  0  0  0  0  0  0  0  0  0  0
  1  2  1  0  0  0  0
  1 38  1  0  0  0  0
  1 39  1  0  0  0  0
  1 40  1  0  0  0  0
  2  3  1  0  0  0  0
  2 28  1  0  0  0  0
  2 37  1  0  0  0  0
  3  4  1  0  0  0  0
  3 35  1  0  0  0  0
  3 36  1  0  0  0  0
  4  5  1  0  0  0  0
  4 33  1  0  0  0  0
  4 34  1  0  0  0  0
  5  6  1  0  0  0  0
  5 27  1  0  0  0  0
  6  7  2  0  0  0  0
  6  8  1  0  0  0  0
  8  9  1  0  0  0  0
  8 25  1  0  0  0  0
  8 26  1  0  0  0  0
  9 10  2  0  0  0  0
  9 18  1  0  0  0  0
 10 11  1  0  0  0  0
 10 24  1  0  0  0  0
 11 12  2  0  0  0  0
 12 13  1  0  0  0  0
 12 23  1  0  0  0  0
 13 14  2  0  0  0  0
 13 18  1  0  0  0  0
 14 15  1  0  0  0  0
 14 22  1  0  0  0  0
 15 16  2  0  0  0  0
 15 21  1  0  0  0  0
 16 17  1  0  0  0  0
 16 20  1  0  0  0  0
 17 18  2  0  0  0  0
 17 19  1  0  0  0  0
 27 28  1  0  0  0  0
 27 31  1  0  0  0  0
 27 32  1  0  0  0  0
 28 29  1  0  0  0  0
 28 30  1  0  0  0  0
M  END
>  <MODEL>
       1

$$$$
