tmp_first_model_17_60.pdb
 OpenBabel08282502223D

 62 67  0  0  1  0  0  0  0  0999 V2000
   -6.6030    2.5650  -28.8180 C   0  0  0  0  0  0  0  0  0  0  0  0
   -5.3860    2.2940  -27.9310 C   0  0  0  0  0  0  0  0  0  0  0  0
   -5.6540    2.5030  -26.5110 N   0  0  0  0  0  0  0  0  0  0  0  0
   -5.3960    3.7060  -25.9740 N   0  0  0  0  0  0  0  0  0  0  0  0
   -5.7970    3.6230  -24.7120 C   0  0  0  0  0  0  0  0  0  0  0  0
   -6.3340    2.3460  -24.4340 C   0  0  0  0  0  0  0  0  0  0  0  0
   -6.2420    1.6570  -25.6220 C   0  0  0  0  0  0  0  0  0  0  0  0
   -6.6390    0.2380  -25.9130 C   0  0  0  0  0  0  0  0  0  0  0  0
   -7.8030   -0.1880  -25.1540 N   0  0  0  0  0  0  0  0  0  0  0  0
   -7.7680   -1.4640  -24.4620 C   0  0  0  0  0  0  0  0  0  0  0  0
   -8.6830   -1.4810  -23.2130 C   0  0  2  0  0  0  0  0  0  0  0  0
   -8.0850   -0.5690  -22.1110 C   0  0  0  0  0  0  0  0  0  0  0  0
   -8.1550    0.6430  -22.0430 O   0  0  0  0  0  0  0  0  0  0  0  0
   -7.4250   -1.3570  -21.1980 N   0  0  0  0  0  0  0  0  0  0  0  0
   -6.6120   -0.8050  -20.1790 C   0  0  0  0  0  0  0  0  0  0  0  0
   -6.9000   -1.0560  -18.8610 C   0  0  0  0  0  0  0  0  0  0  0  0
   -6.2030   -0.5550  -17.8120 N   0  0  0  0  0  0  0  0  0  0  0  0
   -5.1720    0.2090  -18.0830 C   0  0  0  0  0  0  0  0  0  0  0  0
   -4.7410    0.5300  -19.3990 C   0  0  0  0  0  0  0  0  0  0  0  0
   -3.6100    1.3590  -19.6350 C   0  0  0  0  0  0  0  0  0  0  0  0
   -3.2050    1.6380  -20.9090 C   0  0  0  0  0  0  0  0  0  0  0  0
   -3.9040    1.0850  -22.0090 C   0  0  0  0  0  0  0  0  0  0  0  0
   -4.9930    0.2760  -21.8050 C   0  0  0  0  0  0  0  0  0  0  0  0
   -5.4660   -0.0000  -20.4910 C   0  0  0  0  0  0  0  0  0  0  0  0
   -5.5080   -0.1590  -22.6560 H   0  0  0  0  0  0  0  0  0  0  0  0
   -3.5600    1.2960  -23.0160 H   0  0  0  0  0  0  0  0  0  0  0  0
   -2.3390    2.2690  -21.0880 H   0  0  0  0  0  0  0  0  0  0  0  0
   -3.0790    1.7660  -18.7770 H   0  0  0  0  0  0  0  0  0  0  0  0
   -4.6250    0.6140  -17.2320 H   0  0  0  0  0  0  0  0  0  0  0  0
   -7.7510   -1.6840  -18.6010 H   0  0  0  0  0  0  0  0  0  0  0  0
   -7.5160   -2.7790  -21.4780 C   0  0  0  0  0  0  0  0  0  0  0  0
   -8.6470   -2.8830  -22.5210 C   0  0  2  0  0  0  0  0  0  0  0  0
   -8.5010   -4.1070  -23.4330 C   0  0  0  0  0  0  0  0  0  0  0  0
   -9.2680   -4.1300  -24.2170 H   0  0  0  0  0  0  0  0  0  0  0  0
   -8.5830   -5.0390  -22.8600 H   0  0  0  0  0  0  0  0  0  0  0  0
   -7.5210   -4.1190  -23.9300 H   0  0  0  0  0  0  0  0  0  0  0  0
   -9.5880   -2.9750  -21.9720 H   0  0  0  0  0  0  0  0  0  0  0  0
   -7.7360   -3.3320  -20.5600 H   0  0  0  0  0  0  0  0  0  0  0  0
   -6.5650   -3.1690  -21.8750 H   0  0  0  0  0  0  0  0  0  0  0  0
  -10.0530   -0.9690  -23.6130 C   0  0  0  0  0  0  0  0  0  0  0  0
  -11.1840   -1.2450  -22.8330 C   0  0  0  0  0  0  0  0  0  0  0  0
  -12.4100   -0.7290  -23.2010 C   0  0  0  0  0  0  0  0  0  0  0  0
  -13.4880   -1.0140  -22.4540 F   0  0  0  0  0  0  0  0  0  0  0  0
  -12.5720    0.0760  -24.3220 C   0  0  0  0  0  0  0  0  0  0  0  0
  -11.4520    0.3790  -25.0670 C   0  0  0  0  0  0  0  0  0  0  0  0
  -10.1940   -0.1010  -24.7080 C   0  0  0  0  0  0  0  0  0  0  0  0
   -9.0060    0.3660  -25.5000 C   0  0  0  0  0  0  0  0  0  0  0  0
   -9.0920    1.1980  -26.3950 O   0  0  0  0  0  0  0  0  0  0  0  0
  -11.5110    0.9930  -25.9500 H   0  0  0  0  0  0  0  0  0  0  0  0
  -13.5560    0.4540  -24.5720 H   0  0  0  0  0  0  0  0  0  0  0  0
  -11.1380   -1.8360  -21.9250 H   0  0  0  0  0  0  0  0  0  0  0  0
   -6.7390   -1.6560  -24.1390 H   0  0  0  0  0  0  0  0  0  0  0  0
   -8.0850   -2.2750  -25.1370 H   0  0  0  0  0  0  0  0  0  0  0  0
   -6.8140    0.1020  -26.9880 H   0  0  0  0  0  0  0  0  0  0  0  0
   -5.8280   -0.4340  -25.6210 H   0  0  0  0  0  0  0  0  0  0  0  0
   -6.7290    1.9310  -23.5130 H   0  0  0  0  0  0  0  0  0  0  0  0
   -5.6860    4.4970  -24.0780 H   0  0  0  0  0  0  0  0  0  0  0  0
   -4.5580    2.9680  -28.1770 H   0  0  0  0  0  0  0  0  0  0  0  0
   -5.0300    1.2640  -28.0550 H   0  0  0  0  0  0  0  0  0  0  0  0
   -6.9210    3.6090  -28.7310 H   0  0  0  0  0  0  0  0  0  0  0  0
   -7.4480    1.9210  -28.5450 H   0  0  0  0  0  0  0  0  0  0  0  0
   -6.3430    2.3730  -29.8640 H   0  0  0  0  0  0  0  0  0  0  0  0
  1  2  1  0  0  0  0
  1 60  1  0  0  0  0
  1 61  1  0  0  0  0
  1 62  1  0  0  0  0
  2  3  1  0  0  0  0
  2 58  1  0  0  0  0
  2 59  1  0  0  0  0
  3  4  1  0  0  0  0
  3  7  1  0  0  0  0
  4  5  2  0  0  0  0
  5  6  1  0  0  0  0
  5 57  1  0  0  0  0
  6  7  2  0  0  0  0
  6 56  1  0  0  0  0
  7  8  1  0  0  0  0
  8  9  1  0  0  0  0
  8 54  1  0  0  0  0
  8 55  1  0  0  0  0
  9 10  1  0  0  0  0
  9 47  1  0  0  0  0
 10 11  1  0  0  0  0
 10 52  1  0  0  0  0
 10 53  1  0  0  0  0
 11 12  1  1  0  0  0
 11 32  1  0  0  0  0
 11 40  1  0  0  0  0
 12 13  2  0  0  0  0
 12 14  1  0  0  0  0
 14 15  1  0  0  0  0
 14 31  1  0  0  0  0
 15 16  2  0  0  0  0
 15 24  1  0  0  0  0
 16 17  1  0  0  0  0
 16 30  1  0  0  0  0
 17 18  2  0  0  0  0
 18 19  1  0  0  0  0
 18 29  1  0  0  0  0
 19 20  2  0  0  0  0
 19 24  1  0  0  0  0
 20 21  1  0  0  0  0
 20 28  1  0  0  0  0
 21 22  2  0  0  0  0
 21 27  1  0  0  0  0
 22 23  1  0  0  0  0
 22 26  1  0  0  0  0
 23 24  2  0  0  0  0
 23 25  1  0  0  0  0
 31 32  1  0  0  0  0
 31 38  1  0  0  0  0
 31 39  1  0  0  0  0
 32 33  1  0  0  0  0
 32 37  1  1  0  0  0
 33 34  1  0  0  0  0
 33 35  1  0  0  0  0
 33 36  1  0  0  0  0
 40 41  2  0  0  0  0
 40 46  1  0  0  0  0
 41 42  1  0  0  0  0
 41 51  1  0  0  0  0
 42 43  1  0  0  0  0
 42 44  2  0  0  0  0
 44 45  1  0  0  0  0
 44 50  1  0  0  0  0
 45 46  2  0  0  0  0
 45 49  1  0  0  0  0
 46 47  1  0  0  0  0
 47 48  2  0  0  0  0
M  END
>  <MODEL>
       1

$$$$
