tmp_first_model_20_10.pdb
 OpenBabel08282503553D

 57 62  0  0  1  0  0  0  0  0999 V2000
   -7.5190   -3.5010  -23.7830 C   0  0  0  0  0  0  0  0  0  0  0  0
   -8.4110   -2.8770  -22.7070 C   0  0  1  0  0  0  0  0  0  0  0  0
   -7.7090   -2.7140  -21.3480 C   0  0  0  0  0  0  0  0  0  0  0  0
   -7.3920   -1.3070  -21.2790 N   0  0  0  0  0  0  0  0  0  0  0  0
   -6.6080   -0.7780  -20.2330 C   0  0  0  0  0  0  0  0  0  0  0  0
   -6.9120   -1.0560  -18.9230 C   0  0  0  0  0  0  0  0  0  0  0  0
   -6.2350   -0.5680  -17.8550 N   0  0  0  0  0  0  0  0  0  0  0  0
   -5.1950    0.1920  -18.1050 C   0  0  0  0  0  0  0  0  0  0  0  0
   -4.7430    0.5180  -19.4160 C   0  0  0  0  0  0  0  0  0  0  0  0
   -3.6010    1.3340  -19.6320 C   0  0  0  0  0  0  0  0  0  0  0  0
   -3.1810    1.6180  -20.9030 C   0  0  0  0  0  0  0  0  0  0  0  0
   -3.8780    1.0990  -22.0180 C   0  0  0  0  0  0  0  0  0  0  0  0
   -4.9860    0.3110  -21.8380 C   0  0  0  0  0  0  0  0  0  0  0  0
   -5.4560    0.0160  -20.5250 C   0  0  0  0  0  0  0  0  0  0  0  0
   -5.5180   -0.0930  -22.6940 H   0  0  0  0  0  0  0  0  0  0  0  0
   -3.5370    1.3390  -23.0240 H   0  0  0  0  0  0  0  0  0  0  0  0
   -2.3140    2.2510  -21.0650 H   0  0  0  0  0  0  0  0  0  0  0  0
   -3.0780    1.7270  -18.7660 H   0  0  0  0  0  0  0  0  0  0  0  0
   -4.6500    0.5890  -17.2480 H   0  0  0  0  0  0  0  0  0  0  0  0
   -7.7700   -1.6830  -18.6840 H   0  0  0  0  0  0  0  0  0  0  0  0
   -8.2120   -0.5300  -22.0730 C   0  0  0  0  0  0  0  0  0  0  0  0
   -8.2660    0.6770  -22.0130 O   0  0  0  0  0  0  0  0  0  0  0  0
   -9.0060   -1.4720  -23.0170 C   0  0  1  0  0  0  0  0  0  0  0  0
   -8.8370   -1.0570  -24.4970 C   0  0  0  0  0  0  0  0  0  0  0  0
   -9.4560    0.2250  -24.7940 N   0  0  0  0  0  0  0  0  0  0  0  0
   -8.7240    1.2070  -25.5820 C   0  0  0  0  0  0  0  0  0  0  0  0
   -7.9100    2.1260  -24.7180 C   0  0  0  0  0  0  0  0  0  0  0  0
   -6.6040    2.1190  -24.3420 C   0  0  0  0  0  0  0  0  0  0  0  0
   -6.4270    3.1690  -23.4680 N   0  3  0  0  0  0  0  0  0  0  0  0
   -7.5920    3.8040  -23.3120 C   0  0  0  0  0  0  0  0  0  0  0  0
   -8.5080    3.1940  -24.0740 N   0  0  0  0  0  0  0  0  0  0  0  0
   -9.5120    3.3590  -24.0890 H   0  0  0  0  0  0  0  0  0  0  0  0
   -7.7420    4.6590  -22.6760 H   0  0  0  0  0  0  0  0  0  0  0  0
   -5.6060    3.3110  -22.8910 H   0  0  0  0  0  0  0  0  0  0  0  0
   -5.7640    1.4830  -24.5890 H   0  0  0  0  0  0  0  0  0  0  0  0
   -9.4730    1.7800  -26.1410 H   0  0  0  0  0  0  0  0  0  0  0  0
   -8.1020    0.6730  -26.3050 H   0  0  0  0  0  0  0  0  0  0  0  0
  -10.6140    0.6470  -24.2190 C   0  0  0  0  0  0  0  0  0  0  0  0
  -11.1180    1.7380  -24.4960 O   0  0  0  0  0  0  0  0  0  0  0  0
  -11.2460   -0.3270  -23.2740 C   0  0  0  0  0  0  0  0  0  0  0  0
  -12.6010   -0.1800  -22.9840 C   0  0  0  0  0  0  0  0  0  0  0  0
  -13.2820   -1.1310  -22.2470 C   0  0  0  0  0  0  0  0  0  0  0  0
  -12.5320   -2.1900  -21.7430 C   0  0  0  0  0  0  0  0  0  0  0  0
  -13.1650   -3.1400  -21.0360 F   0  0  0  0  0  0  0  0  0  0  0  0
  -11.1710   -2.3120  -21.9270 C   0  0  0  0  0  0  0  0  0  0  0  0
  -10.5000   -1.3900  -22.7370 C   0  0  0  0  0  0  0  0  0  0  0  0
  -10.6860   -3.1570  -21.4480 H   0  0  0  0  0  0  0  0  0  0  0  0
  -14.3520   -1.0750  -22.0490 H   0  0  0  0  0  0  0  0  0  0  0  0
  -13.1090    0.6940  -23.3800 H   0  0  0  0  0  0  0  0  0  0  0  0
   -9.2790   -1.8560  -25.1110 H   0  0  0  0  0  0  0  0  0  0  0  0
   -7.7790   -0.9710  -24.7410 H   0  0  0  0  0  0  0  0  0  0  0  0
   -6.7940   -3.3040  -21.2580 H   0  0  0  0  0  0  0  0  0  0  0  0
   -8.3790   -2.9930  -20.5240 H   0  0  0  0  0  0  0  0  0  0  0  0
   -9.2330   -3.5820  -22.6040 H   0  0  0  0  0  0  0  0  0  0  0  0
   -6.6320   -2.8990  -24.0030 H   0  0  0  0  0  0  0  0  0  0  0  0
   -7.1990   -4.4960  -23.4560 H   0  0  0  0  0  0  0  0  0  0  0  0
   -8.0880   -3.6360  -24.7090 H   0  0  0  0  0  0  0  0  0  0  0  0
  1  2  1  0  0  0  0
  1 55  1  0  0  0  0
  1 56  1  0  0  0  0
  1 57  1  0  0  0  0
  2  3  1  0  0  0  0
  2 23  1  0  0  0  0
  2 54  1  1  0  0  0
  3  4  1  0  0  0  0
  3 52  1  0  0  0  0
  3 53  1  0  0  0  0
  4  5  1  0  0  0  0
  4 21  1  0  0  0  0
  5  6  2  0  0  0  0
  5 14  1  0  0  0  0
  6  7  1  0  0  0  0
  6 20  1  0  0  0  0
  7  8  2  0  0  0  0
  8  9  1  0  0  0  0
  8 19  1  0  0  0  0
  9 10  2  0  0  0  0
  9 14  1  0  0  0  0
 10 11  1  0  0  0  0
 10 18  1  0  0  0  0
 11 12  2  0  0  0  0
 11 17  1  0  0  0  0
 12 13  1  0  0  0  0
 12 16  1  0  0  0  0
 13 14  2  0  0  0  0
 13 15  1  0  0  0  0
 21 22  2  0  0  0  0
 23 21  1  1  0  0  0
 23 24  1  0  0  0  0
 23 46  1  0  0  0  0
 24 25  1  0  0  0  0
 24 50  1  0  0  0  0
 24 51  1  0  0  0  0
 25 26  1  0  0  0  0
 25 38  1  0  0  0  0
 26 27  1  0  0  0  0
 26 36  1  0  0  0  0
 26 37  1  0  0  0  0
 27 28  2  0  0  0  0
 27 31  1  0  0  0  0
 28 29  1  0  0  0  0
 28 35  1  0  0  0  0
 29 30  2  0  0  0  0
 29 34  1  0  0  0  0
 30 31  1  0  0  0  0
 30 33  1  0  0  0  0
 31 32  1  0  0  0  0
 38 39  2  0  0  0  0
 38 40  1  0  0  0  0
 40 41  2  0  0  0  0
 40 46  1  0  0  0  0
 41 42  1  0  0  0  0
 41 49  1  0  0  0  0
 42 43  2  0  0  0  0
 42 48  1  0  0  0  0
 43 44  1  0  0  0  0
 43 45  1  0  0  0  0
 45 46  2  0  0  0  0
 45 47  1  0  0  0  0
M  CHG  1  29   1
M  END
>  <MODEL>
       1

$$$$
