tmp_first_model_19_96.pdb
 OpenBabel08282503233D

 66 70  0  0  1  0  0  0  0  0999 V2000
   -7.5210    3.2610  -21.8150 C   0  0  0  0  0  0  0  0  0  0  0  0
   -8.5140    2.7770  -22.7640 N   0  0  0  0  0  0  0  0  0  0  0  0
   -8.0390    2.0580  -23.8260 C   0  0  0  0  0  0  0  0  0  0  0  0
   -6.8460    1.9110  -24.0310 O   0  0  0  0  0  0  0  0  0  0  0  0
   -9.0740    1.4540  -24.7660 C   0  0  0  0  0  0  0  0  0  0  0  0
   -9.6510    0.2510  -24.2190 N   0  0  0  0  0  0  0  0  0  0  0  0
   -8.8180   -0.9300  -24.1040 C   0  0  0  0  0  0  0  0  0  0  0  0
   -9.0920   -1.7020  -22.7930 C   0  0  2  0  0  0  0  0  0  0  0  0
   -8.5770   -0.8950  -21.5840 C   0  0  0  0  0  0  0  0  0  0  0  0
   -9.1200    0.0550  -21.0500 O   0  0  0  0  0  0  0  0  0  0  0  0
   -7.3690   -1.4230  -21.2000 N   0  0  0  0  0  0  0  0  0  0  0  0
   -6.5940   -0.8290  -20.1790 C   0  0  0  0  0  0  0  0  0  0  0  0
   -6.9190   -1.0550  -18.8660 C   0  0  0  0  0  0  0  0  0  0  0  0
   -6.2220   -0.5630  -17.8160 N   0  0  0  0  0  0  0  0  0  0  0  0
   -5.1840    0.1970  -18.0820 C   0  0  0  0  0  0  0  0  0  0  0  0
   -4.7400    0.5110  -19.3990 C   0  0  0  0  0  0  0  0  0  0  0  0
   -3.6160    1.3430  -19.6400 C   0  0  0  0  0  0  0  0  0  0  0  0
   -3.2340    1.6490  -20.9190 C   0  0  0  0  0  0  0  0  0  0  0  0
   -3.9570    1.1360  -22.0180 C   0  0  0  0  0  0  0  0  0  0  0  0
   -5.0530    0.3300  -21.8150 C   0  0  0  0  0  0  0  0  0  0  0  0
   -5.4650   -0.0110  -20.4950 C   0  0  0  0  0  0  0  0  0  0  0  0
   -5.6190   -0.0220  -22.6740 H   0  0  0  0  0  0  0  0  0  0  0  0
   -3.6550    1.3890  -23.0310 H   0  0  0  0  0  0  0  0  0  0  0  0
   -2.3800    2.2970  -21.0940 H   0  0  0  0  0  0  0  0  0  0  0  0
   -3.0840    1.7470  -18.7830 H   0  0  0  0  0  0  0  0  0  0  0  0
   -4.6260    0.6000  -17.2360 H   0  0  0  0  0  0  0  0  0  0  0  0
   -7.7850   -1.6690  -18.6240 H   0  0  0  0  0  0  0  0  0  0  0  0
   -6.9590   -2.5960  -21.9470 C   0  0  0  0  0  0  0  0  0  0  0  0
   -8.2330   -2.9980  -22.7140 C   0  0  2  0  0  0  0  0  0  0  0  0
   -7.9320   -3.6890  -24.0420 C   0  0  0  0  0  0  0  0  0  0  0  0
   -7.2260   -4.8890  -23.7970 O   0  0  0  0  0  0  0  0  0  0  0  0
   -7.0480   -5.6990  -24.9560 C   0  0  0  0  0  0  0  0  0  0  0  0
   -5.6730   -6.3480  -24.8780 C   0  0  0  0  0  0  0  0  0  0  0  0
   -5.4880   -6.9640  -25.7660 H   0  0  0  0  0  0  0  0  0  0  0  0
   -4.8810   -5.5960  -24.8190 H   0  0  0  0  0  0  0  0  0  0  0  0
   -5.6030   -6.9920  -23.9970 H   0  0  0  0  0  0  0  0  0  0  0  0
   -8.1520   -6.7490  -25.0480 C   0  0  0  0  0  0  0  0  0  0  0  0
   -8.1300   -7.4030  -24.1700 H   0  0  0  0  0  0  0  0  0  0  0  0
   -9.1450   -6.2910  -25.1070 H   0  0  0  0  0  0  0  0  0  0  0  0
   -8.0140   -7.3660  -25.9420 H   0  0  0  0  0  0  0  0  0  0  0  0
   -7.0840   -5.0630  -25.8560 H   0  0  0  0  0  0  0  0  0  0  0  0
   -8.8740   -3.8860  -24.5840 H   0  0  0  0  0  0  0  0  0  0  0  0
   -7.3170   -3.0220  -24.6730 H   0  0  0  0  0  0  0  0  0  0  0  0
   -8.7750   -3.7200  -22.1030 H   0  0  0  0  0  0  0  0  0  0  0  0
   -6.1340   -2.3590  -22.6350 H   0  0  0  0  0  0  0  0  0  0  0  0
   -6.6180   -3.3820  -21.2670 H   0  0  0  0  0  0  0  0  0  0  0  0
  -10.5910   -1.8920  -22.6800 C   0  0  0  0  0  0  0  0  0  0  0  0
  -11.1230   -2.8790  -21.8470 C   0  0  0  0  0  0  0  0  0  0  0  0
  -12.4950   -3.0020  -21.7140 C   0  0  0  0  0  0  0  0  0  0  0  0
  -13.1270   -4.2030  -20.6240 Cl  0  0  0  0  0  0  0  0  0  0  0  0
  -13.3820   -2.1750  -22.4070 C   0  0  0  0  0  0  0  0  0  0  0  0
  -12.8640   -1.1670  -23.1930 C   0  0  0  0  0  0  0  0  0  0  0  0
  -11.4850   -1.0050  -23.2950 C   0  0  0  0  0  0  0  0  0  0  0  0
  -10.9990    0.2060  -24.0160 C   0  0  0  0  0  0  0  0  0  0  0  0
  -11.7530    1.1030  -24.3670 O   0  0  0  0  0  0  0  0  0  0  0  0
  -13.4960   -0.4630  -23.7250 H   0  0  0  0  0  0  0  0  0  0  0  0
  -14.4510   -2.3200  -22.2940 H   0  0  0  0  0  0  0  0  0  0  0  0
  -10.4770   -3.5400  -21.2790 H   0  0  0  0  0  0  0  0  0  0  0  0
   -9.0230   -1.6000  -24.9470 H   0  0  0  0  0  0  0  0  0  0  0  0
   -7.7710   -0.6150  -24.1560 H   0  0  0  0  0  0  0  0  0  0  0  0
   -8.5420    1.2380  -25.6970 H   0  0  0  0  0  0  0  0  0  0  0  0
   -9.9050    2.1390  -24.9440 H   0  0  0  0  0  0  0  0  0  0  0  0
   -9.4450    2.5960  -22.4050 H   0  0  0  0  0  0  0  0  0  0  0  0
   -6.7240    3.7480  -22.3840 H   0  0  0  0  0  0  0  0  0  0  0  0
   -7.9510    3.9790  -21.1100 H   0  0  0  0  0  0  0  0  0  0  0  0
   -7.0650    2.4290  -21.2560 H   0  0  0  0  0  0  0  0  0  0  0  0
  1  2  1  0  0  0  0
  1 64  1  0  0  0  0
  1 65  1  0  0  0  0
  1 66  1  0  0  0  0
  2  3  1  0  0  0  0
  2 63  1  0  0  0  0
  3  4  2  0  0  0  0
  3  5  1  0  0  0  0
  5  6  1  0  0  0  0
  5 61  1  0  0  0  0
  5 62  1  0  0  0  0
  6  7  1  0  0  0  0
  6 54  1  0  0  0  0
  7  8  1  0  0  0  0
  7 59  1  0  0  0  0
  7 60  1  0  0  0  0
  8  9  1  1  0  0  0
  8 29  1  0  0  0  0
  8 47  1  0  0  0  0
  9 10  2  0  0  0  0
  9 11  1  0  0  0  0
 11 12  1  0  0  0  0
 11 28  1  0  0  0  0
 12 13  2  0  0  0  0
 12 21  1  0  0  0  0
 13 14  1  0  0  0  0
 13 27  1  0  0  0  0
 14 15  2  0  0  0  0
 15 16  1  0  0  0  0
 15 26  1  0  0  0  0
 16 17  2  0  0  0  0
 16 21  1  0  0  0  0
 17 18  1  0  0  0  0
 17 25  1  0  0  0  0
 18 19  2  0  0  0  0
 18 24  1  0  0  0  0
 19 20  1  0  0  0  0
 19 23  1  0  0  0  0
 20 21  2  0  0  0  0
 20 22  1  0  0  0  0
 28 29  1  0  0  0  0
 28 45  1  0  0  0  0
 28 46  1  0  0  0  0
 29 30  1  0  0  0  0
 29 44  1  1  0  0  0
 30 31  1  0  0  0  0
 30 42  1  0  0  0  0
 30 43  1  0  0  0  0
 31 32  1  0  0  0  0
 32 33  1  0  0  0  0
 32 37  1  0  0  0  0
 32 41  1  0  0  0  0
 33 34  1  0  0  0  0
 33 35  1  0  0  0  0
 33 36  1  0  0  0  0
 37 38  1  0  0  0  0
 37 39  1  0  0  0  0
 37 40  1  0  0  0  0
 47 48  2  0  0  0  0
 47 53  1  0  0  0  0
 48 49  1  0  0  0  0
 48 58  1  0  0  0  0
 49 50  1  0  0  0  0
 49 51  2  0  0  0  0
 51 52  1  0  0  0  0
 51 57  1  0  0  0  0
 52 53  2  0  0  0  0
 52 56  1  0  0  0  0
 53 54  1  0  0  0  0
 54 55  2  0  0  0  0
M  END
>  <MODEL>
       1

$$$$
