tmp_first_model_10_18.pdb
 OpenBabel08272522163D

 56 61  0  0  1  0  0  0  0  0999 V2000
   -7.9200   -3.5590  -24.0830 C   0  0  0  0  0  0  0  0  0  0  0  0
   -8.2840   -2.8360  -22.7900 C   0  0  1  0  0  0  0  0  0  0  0  0
   -7.0540   -2.5790  -21.9070 C   0  0  0  0  0  0  0  0  0  0  0  0
   -7.4020   -1.3800  -21.1750 N   0  0  0  0  0  0  0  0  0  0  0  0
   -6.6100   -0.8170  -20.1450 C   0  0  0  0  0  0  0  0  0  0  0  0
   -6.9200   -1.0660  -18.8330 C   0  0  0  0  0  0  0  0  0  0  0  0
   -6.2260   -0.5720  -17.7810 N   0  0  0  0  0  0  0  0  0  0  0  0
   -5.1940    0.1920  -18.0430 C   0  0  0  0  0  0  0  0  0  0  0  0
   -4.7800    0.5540  -19.3590 C   0  0  0  0  0  0  0  0  0  0  0  0
   -3.6990    1.4430  -19.6020 C   0  0  0  0  0  0  0  0  0  0  0  0
   -3.4220    1.8680  -20.8700 C   0  0  0  0  0  0  0  0  0  0  0  0
   -4.2080    1.4320  -21.9590 C   0  0  0  0  0  0  0  0  0  0  0  0
   -5.1780    0.4730  -21.7590 C   0  0  0  0  0  0  0  0  0  0  0  0
   -5.5260    0.0550  -20.4480 C   0  0  0  0  0  0  0  0  0  0  0  0
   -5.7230    0.0850  -22.6140 H   0  0  0  0  0  0  0  0  0  0  0  0
   -4.0280    1.8430  -22.9460 H   0  0  0  0  0  0  0  0  0  0  0  0
   -2.6000    2.5570  -21.0450 H   0  0  0  0  0  0  0  0  0  0  0  0
   -3.0990    1.7680  -18.7570 H   0  0  0  0  0  0  0  0  0  0  0  0
   -4.6330    0.5790  -17.1920 H   0  0  0  0  0  0  0  0  0  0  0  0
   -7.7810   -1.6860  -18.6010 H   0  0  0  0  0  0  0  0  0  0  0  0
   -8.4770   -0.6870  -21.6850 C   0  0  0  0  0  0  0  0  0  0  0  0
   -8.9200    0.3350  -21.2070 O   0  0  0  0  0  0  0  0  0  0  0  0
   -8.9930   -1.4520  -22.9300 C   0  0  1  0  0  0  0  0  0  0  0  0
   -8.5450   -0.7510  -24.2370 C   0  0  0  0  0  0  0  0  0  0  0  0
   -9.2650    0.4830  -24.4870 N   0  0  0  0  0  0  0  0  0  0  0  0
   -8.5490    1.6980  -24.8510 C   0  0  0  0  0  0  0  0  0  0  0  0
   -8.1710    2.5380  -23.6570 C   0  0  0  0  0  0  0  0  0  0  0  0
   -8.8910    3.5420  -22.9730 C   0  0  0  0  0  0  0  0  0  0  0  0
   -8.0300    3.9990  -22.0060 C   0  0  0  0  0  0  0  0  0  0  0  0
   -6.8980    3.2770  -22.1300 N   0  0  0  0  0  0  0  0  0  0  0  0
   -6.9570    2.3900  -23.1350 N   0  0  0  0  0  0  0  0  0  0  0  0
   -6.0730    3.2880  -21.5470 H   0  0  0  0  0  0  0  0  0  0  0  0
   -8.1630    4.8230  -21.3210 H   0  0  0  0  0  0  0  0  0  0  0  0
   -9.9050    3.8740  -23.1370 H   0  0  0  0  0  0  0  0  0  0  0  0
   -7.6310    1.4150  -25.3810 H   0  0  0  0  0  0  0  0  0  0  0  0
   -9.1930    2.2650  -25.5320 H   0  0  0  0  0  0  0  0  0  0  0  0
  -10.6300    0.5660  -24.3700 C   0  0  0  0  0  0  0  0  0  0  0  0
  -11.2710    1.4970  -24.8350 O   0  0  0  0  0  0  0  0  0  0  0  0
  -11.2780   -0.5420  -23.6080 C   0  0  0  0  0  0  0  0  0  0  0  0
  -12.6710   -0.5530  -23.5470 C   0  0  0  0  0  0  0  0  0  0  0  0
  -13.3330   -1.4610  -22.7510 C   0  0  0  0  0  0  0  0  0  0  0  0
  -12.5580   -2.3400  -22.0050 C   0  0  0  0  0  0  0  0  0  0  0  0
  -13.1830   -3.2070  -21.1960 F   0  0  0  0  0  0  0  0  0  0  0  0
  -11.1800   -2.3600  -22.0560 C   0  0  0  0  0  0  0  0  0  0  0  0
  -10.5090   -1.4790  -22.9050 C   0  0  0  0  0  0  0  0  0  0  0  0
  -10.6490   -3.0580  -21.4210 H   0  0  0  0  0  0  0  0  0  0  0  0
  -14.4140   -1.4820  -22.6780 H   0  0  0  0  0  0  0  0  0  0  0  0
  -13.2060    0.1880  -24.1260 H   0  0  0  0  0  0  0  0  0  0  0  0
   -7.4710   -0.5290  -24.1960 H   0  0  0  0  0  0  0  0  0  0  0  0
   -8.7120   -1.4480  -25.0690 H   0  0  0  0  0  0  0  0  0  0  0  0
   -6.8650   -3.4110  -21.2220 H   0  0  0  0  0  0  0  0  0  0  0  0
   -6.1460   -2.4430  -22.5170 H   0  0  0  0  0  0  0  0  0  0  0  0
   -8.9590   -3.4870  -22.2290 H   0  0  0  0  0  0  0  0  0  0  0  0
   -8.7940   -3.7020  -24.7260 H   0  0  0  0  0  0  0  0  0  0  0  0
   -7.1680   -2.9960  -24.6500 H   0  0  0  0  0  0  0  0  0  0  0  0
   -7.4970   -4.5410  -23.8570 H   0  0  0  0  0  0  0  0  0  0  0  0
  1  2  1  0  0  0  0
  1 54  1  0  0  0  0
  1 55  1  0  0  0  0
  1 56  1  0  0  0  0
  2  3  1  0  0  0  0
  2 23  1  0  0  0  0
  2 53  1  1  0  0  0
  3  4  1  0  0  0  0
  3 51  1  0  0  0  0
  3 52  1  0  0  0  0
  4  5  1  0  0  0  0
  4 21  1  0  0  0  0
  5  6  2  0  0  0  0
  5 14  1  0  0  0  0
  6  7  1  0  0  0  0
  6 20  1  0  0  0  0
  7  8  2  0  0  0  0
  8  9  1  0  0  0  0
  8 19  1  0  0  0  0
  9 10  2  0  0  0  0
  9 14  1  0  0  0  0
 10 11  1  0  0  0  0
 10 18  1  0  0  0  0
 11 12  2  0  0  0  0
 11 17  1  0  0  0  0
 12 13  1  0  0  0  0
 12 16  1  0  0  0  0
 13 14  2  0  0  0  0
 13 15  1  0  0  0  0
 21 22  2  0  0  0  0
 23 21  1  1  0  0  0
 23 24  1  0  0  0  0
 23 45  1  0  0  0  0
 24 25  1  0  0  0  0
 24 49  1  0  0  0  0
 24 50  1  0  0  0  0
 25 26  1  0  0  0  0
 25 37  1  0  0  0  0
 26 27  1  0  0  0  0
 26 35  1  0  0  0  0
 26 36  1  0  0  0  0
 27 28  1  0  0  0  0
 27 31  2  0  0  0  0
 28 29  2  0  0  0  0
 28 34  1  0  0  0  0
 29 30  1  0  0  0  0
 29 33  1  0  0  0  0
 30 31  1  0  0  0  0
 30 32  1  0  0  0  0
 37 38  2  0  0  0  0
 37 39  1  0  0  0  0
 39 40  2  0  0  0  0
 39 45  1  0  0  0  0
 40 41  1  0  0  0  0
 40 48  1  0  0  0  0
 41 42  2  0  0  0  0
 41 47  1  0  0  0  0
 42 43  1  0  0  0  0
 42 44  1  0  0  0  0
 44 45  2  0  0  0  0
 44 46  1  0  0  0  0
M  END
>  <MODEL>
       1

$$$$
