tmp_first_model_9_18.pdb
 OpenBabel08272521403D

 56 61  0  0  1  0  0  0  0  0999 V2000
  -10.4640   -1.1960  -23.2320 C   0  0  0  0  0  0  0  0  0  0  0  0
   -9.0140   -1.5340  -22.9180 C   0  0  1  0  0  0  0  0  0  0  0  0
   -8.3830   -0.5560  -21.9160 C   0  0  0  0  0  0  0  0  0  0  0  0
   -7.3910   -1.3550  -21.2270 N   0  0  0  0  0  0  0  0  0  0  0  0
   -6.5830   -0.8390  -20.1840 C   0  0  0  0  0  0  0  0  0  0  0  0
   -6.8930   -1.0820  -18.8680 C   0  0  0  0  0  0  0  0  0  0  0  0
   -6.2080   -0.5620  -17.8180 N   0  0  0  0  0  0  0  0  0  0  0  0
   -5.1840    0.2110  -18.0840 C   0  0  0  0  0  0  0  0  0  0  0  0
   -4.7430    0.5210  -19.4030 C   0  0  0  0  0  0  0  0  0  0  0  0
   -3.6170    1.3480  -19.6380 C   0  0  0  0  0  0  0  0  0  0  0  0
   -3.2140    1.6210  -20.9190 C   0  0  0  0  0  0  0  0  0  0  0  0
   -3.9180    1.0780  -22.0180 C   0  0  0  0  0  0  0  0  0  0  0  0
   -5.0120    0.2730  -21.8170 C   0  0  0  0  0  0  0  0  0  0  0  0
   -5.4570   -0.0160  -20.4960 C   0  0  0  0  0  0  0  0  0  0  0  0
   -5.5390   -0.1530  -22.6670 H   0  0  0  0  0  0  0  0  0  0  0  0
   -3.5890    1.2990  -23.0310 H   0  0  0  0  0  0  0  0  0  0  0  0
   -2.3550    2.2580  -21.0990 H   0  0  0  0  0  0  0  0  0  0  0  0
   -3.0990    1.7650  -18.7800 H   0  0  0  0  0  0  0  0  0  0  0  0
   -4.6400    0.6370  -17.2400 H   0  0  0  0  0  0  0  0  0  0  0  0
   -7.7340   -1.7260  -18.6160 H   0  0  0  0  0  0  0  0  0  0  0  0
   -7.5480   -2.7130  -21.4160 C   0  0  0  0  0  0  0  0  0  0  0  0
   -6.7770   -3.5430  -20.9820 O   0  0  0  0  0  0  0  0  0  0  0  0
   -8.7840   -2.9550  -22.3070 C   0  0  1  0  0  0  0  0  0  0  0  0
   -9.9620   -3.4270  -21.4330 C   0  0  0  0  0  0  0  0  0  0  0  0
  -11.0760   -3.9920  -22.1780 N   0  0  0  0  0  0  0  0  0  0  0  0
  -12.4300   -3.9200  -21.6440 C   0  0  0  0  0  0  0  0  0  0  0  0
  -13.2900   -2.8100  -22.1720 C   0  0  0  0  0  0  0  0  0  0  0  0
  -13.9170   -2.8600  -23.4300 C   0  0  0  0  0  0  0  0  0  0  0  0
  -14.6160   -1.6840  -23.5240 C   0  0  0  0  0  0  0  0  0  0  0  0
  -14.4110   -1.0410  -22.3540 N   0  0  0  0  0  0  0  0  0  0  0  0
  -13.6180   -1.7140  -21.5050 N   0  0  0  0  0  0  0  0  0  0  0  0
  -14.7880   -0.1540  -22.0610 H   0  0  0  0  0  0  0  0  0  0  0  0
  -15.2420   -1.2650  -24.2990 H   0  0  0  0  0  0  0  0  0  0  0  0
  -13.7970   -3.6780  -24.1210 H   0  0  0  0  0  0  0  0  0  0  0  0
  -12.9030   -4.8210  -22.0220 H   0  0  0  0  0  0  0  0  0  0  0  0
  -12.4240   -3.9370  -20.5560 H   0  0  0  0  0  0  0  0  0  0  0  0
  -10.9280   -4.6750  -23.3520 C   0  0  0  0  0  0  0  0  0  0  0  0
  -11.8880   -5.0940  -23.9930 O   0  0  0  0  0  0  0  0  0  0  0  0
   -9.5300   -4.8450  -23.8230 C   0  0  0  0  0  0  0  0  0  0  0  0
   -9.2800   -5.8020  -24.8040 C   0  0  0  0  0  0  0  0  0  0  0  0
   -8.0210   -5.9040  -25.3670 C   0  0  0  0  0  0  0  0  0  0  0  0
   -7.0310   -5.0310  -24.9250 C   0  0  0  0  0  0  0  0  0  0  0  0
   -5.8230   -5.0760  -25.5110 F   0  0  0  0  0  0  0  0  0  0  0  0
   -7.2460   -4.1100  -23.9210 C   0  0  0  0  0  0  0  0  0  0  0  0
   -8.5110   -4.0170  -23.3430 C   0  0  0  0  0  0  0  0  0  0  0  0
   -6.4440   -3.4550  -23.5990 H   0  0  0  0  0  0  0  0  0  0  0  0
   -7.8000   -6.5940  -26.1750 H   0  0  0  0  0  0  0  0  0  0  0  0
  -10.1010   -6.4500  -25.1020 H   0  0  0  0  0  0  0  0  0  0  0  0
   -9.5750   -4.1670  -20.7430 H   0  0  0  0  0  0  0  0  0  0  0  0
  -10.3330   -2.5830  -20.8500 H   0  0  0  0  0  0  0  0  0  0  0  0
   -9.1330   -0.1710  -21.2100 H   0  0  0  0  0  0  0  0  0  0  0  0
   -7.9270    0.3110  -22.4080 H   0  0  0  0  0  0  0  0  0  0  0  0
   -8.4210   -1.4930  -23.8430 H   0  0  0  0  0  0  0  0  0  0  0  0
  -10.9260   -1.9670  -23.8580 H   0  0  0  0  0  0  0  0  0  0  0  0
  -11.0510   -1.1220  -22.3110 H   0  0  0  0  0  0  0  0  0  0  0  0
  -10.5400   -0.2350  -23.7440 H   0  0  0  0  0  0  0  0  0  0  0  0
  1  2  1  0  0  0  0
  1 54  1  0  0  0  0
  1 55  1  0  0  0  0
  1 56  1  0  0  0  0
  2  3  1  0  0  0  0
  2 23  1  0  0  0  0
  2 53  1  6  0  0  0
  3  4  1  0  0  0  0
  3 51  1  0  0  0  0
  3 52  1  0  0  0  0
  4  5  1  0  0  0  0
  4 21  1  0  0  0  0
  5  6  2  0  0  0  0
  5 14  1  0  0  0  0
  6  7  1  0  0  0  0
  6 20  1  0  0  0  0
  7  8  2  0  0  0  0
  8  9  1  0  0  0  0
  8 19  1  0  0  0  0
  9 10  2  0  0  0  0
  9 14  1  0  0  0  0
 10 11  1  0  0  0  0
 10 18  1  0  0  0  0
 11 12  2  0  0  0  0
 11 17  1  0  0  0  0
 12 13  1  0  0  0  0
 12 16  1  0  0  0  0
 13 14  2  0  0  0  0
 13 15  1  0  0  0  0
 21 22  2  0  0  0  0
 23 21  1  1  0  0  0
 23 24  1  0  0  0  0
 23 45  1  0  0  0  0
 24 25  1  0  0  0  0
 24 49  1  0  0  0  0
 24 50  1  0  0  0  0
 25 26  1  0  0  0  0
 25 37  1  0  0  0  0
 26 27  1  0  0  0  0
 26 35  1  0  0  0  0
 26 36  1  0  0  0  0
 27 28  1  0  0  0  0
 27 31  2  0  0  0  0
 28 29  2  0  0  0  0
 28 34  1  0  0  0  0
 29 30  1  0  0  0  0
 29 33  1  0  0  0  0
 30 31  1  0  0  0  0
 30 32  1  0  0  0  0
 37 38  2  0  0  0  0
 37 39  1  0  0  0  0
 39 40  2  0  0  0  0
 39 45  1  0  0  0  0
 40 41  1  0  0  0  0
 40 48  1  0  0  0  0
 41 42  2  0  0  0  0
 41 47  1  0  0  0  0
 42 43  1  0  0  0  0
 42 44  1  0  0  0  0
 44 45  2  0  0  0  0
 44 46  1  0  0  0  0
M  END
>  <MODEL>
       1

$$$$
