tmp_first_model_20_58.pdb
 OpenBabel08282503553D

 42 45  0  0  1  0  0  0  0  0999 V2000
  -11.9940   -4.1180  -22.8290 C   0  0  0  0  0  0  0  0  0  0  0  0
  -10.5690   -4.3450  -22.9130 N   0  0  0  0  0  0  0  0  0  0  0  0
   -9.6700   -3.9070  -21.8570 C   0  0  0  0  0  0  0  0  0  0  0  0
   -8.5240   -3.0700  -22.4540 C   0  0  1  0  0  0  0  0  0  0  0  0
   -7.5290   -2.6360  -21.3930 C   0  0  0  0  0  0  0  0  0  0  0  0
   -6.8460   -3.4130  -20.7530 O   0  0  0  0  0  0  0  0  0  0  0  0
   -7.4240   -1.2770  -21.2090 N   0  0  0  0  0  0  0  0  0  0  0  0
   -6.6160   -0.7540  -20.1820 C   0  0  0  0  0  0  0  0  0  0  0  0
   -6.9120   -1.0340  -18.8720 C   0  0  0  0  0  0  0  0  0  0  0  0
   -6.2290   -0.5370  -17.8150 N   0  0  0  0  0  0  0  0  0  0  0  0
   -5.1910    0.2200  -18.0830 C   0  0  0  0  0  0  0  0  0  0  0  0
   -4.7470    0.5450  -19.3960 C   0  0  0  0  0  0  0  0  0  0  0  0
   -3.6020    1.3490  -19.6310 C   0  0  0  0  0  0  0  0  0  0  0  0
   -3.1970    1.6150  -20.9110 C   0  0  0  0  0  0  0  0  0  0  0  0
   -3.9040    1.0860  -22.0130 C   0  0  0  0  0  0  0  0  0  0  0  0
   -5.0170    0.3060  -21.8150 C   0  0  0  0  0  0  0  0  0  0  0  0
   -5.4690    0.0380  -20.4940 C   0  0  0  0  0  0  0  0  0  0  0  0
   -5.5470   -0.1050  -22.6680 H   0  0  0  0  0  0  0  0  0  0  0  0
   -3.5640    1.3020  -23.0220 H   0  0  0  0  0  0  0  0  0  0  0  0
   -2.3300    2.2440  -21.0900 H   0  0  0  0  0  0  0  0  0  0  0  0
   -3.0600    1.7360  -18.7760 H   0  0  0  0  0  0  0  0  0  0  0  0
   -4.6270    0.5970  -17.2330 H   0  0  0  0  0  0  0  0  0  0  0  0
   -7.7580   -1.6800  -18.6440 H   0  0  0  0  0  0  0  0  0  0  0  0
   -7.8150   -0.6380  -21.8900 H   0  0  0  0  0  0  0  0  0  0  0  0
   -7.8510   -3.8840  -23.5300 C   0  0  0  0  0  0  0  0  0  0  0  0
   -6.4970   -3.7460  -23.8360 C   0  0  0  0  0  0  0  0  0  0  0  0
   -5.9410   -4.5190  -24.8420 C   0  0  0  0  0  0  0  0  0  0  0  0
   -4.2860   -4.2620  -25.3120 Cl  0  0  0  0  0  0  0  0  0  0  0  0
   -6.6930   -5.4850  -25.5060 C   0  0  0  0  0  0  0  0  0  0  0  0
   -8.0330   -5.6280  -25.1910 C   0  0  0  0  0  0  0  0  0  0  0  0
   -8.6170   -4.8090  -24.2370 C   0  0  0  0  0  0  0  0  0  0  0  0
  -10.0940   -4.8970  -24.0690 C   0  0  0  0  0  0  0  0  0  0  0  0
  -10.8110   -5.4190  -24.9150 O   0  0  0  0  0  0  0  0  0  0  0  0
   -8.6650   -6.3600  -25.6840 H   0  0  0  0  0  0  0  0  0  0  0  0
   -6.2260   -6.0940  -26.2690 H   0  0  0  0  0  0  0  0  0  0  0  0
   -5.8780   -3.0620  -23.2650 H   0  0  0  0  0  0  0  0  0  0  0  0
   -8.9450   -2.1520  -22.8810 H   0  0  0  0  0  0  0  0  0  0  0  0
  -10.2420   -3.3130  -21.1400 H   0  0  0  0  0  0  0  0  0  0  0  0
   -9.2180   -4.7600  -21.3320 H   0  0  0  0  0  0  0  0  0  0  0  0
  -12.3600   -4.2670  -21.8150 H   0  0  0  0  0  0  0  0  0  0  0  0
  -12.4720   -4.8430  -23.4870 H   0  0  0  0  0  0  0  0  0  0  0  0
  -12.2630   -3.1010  -23.1410 H   0  0  0  0  0  0  0  0  0  0  0  0
  1  2  1  0  0  0  0
  1 40  1  0  0  0  0
  1 41  1  0  0  0  0
  1 42  1  0  0  0  0
  2  3  1  0  0  0  0
  2 32  1  0  0  0  0
  3  4  1  0  0  0  0
  3 38  1  0  0  0  0
  3 39  1  0  0  0  0
  4  5  1  0  0  0  0
  4 25  1  0  0  0  0
  4 37  1  6  0  0  0
  5  6  2  0  0  0  0
  5  7  1  0  0  0  0
  7  8  1  0  0  0  0
  7 24  1  0  0  0  0
  8  9  2  0  0  0  0
  8 17  1  0  0  0  0
  9 10  1  0  0  0  0
  9 23  1  0  0  0  0
 10 11  2  0  0  0  0
 11 12  1  0  0  0  0
 11 22  1  0  0  0  0
 12 13  2  0  0  0  0
 12 17  1  0  0  0  0
 13 14  1  0  0  0  0
 13 21  1  0  0  0  0
 14 15  2  0  0  0  0
 14 20  1  0  0  0  0
 15 16  1  0  0  0  0
 15 19  1  0  0  0  0
 16 17  2  0  0  0  0
 16 18  1  0  0  0  0
 25 26  2  0  0  0  0
 25 31  1  0  0  0  0
 26 27  1  0  0  0  0
 26 36  1  0  0  0  0
 27 28  1  0  0  0  0
 27 29  2  0  0  0  0
 29 30  1  0  0  0  0
 29 35  1  0  0  0  0
 30 31  2  0  0  0  0
 30 34  1  0  0  0  0
 31 32  1  0  0  0  0
 32 33  2  0  0  0  0
M  END
>  <MODEL>
       1

$$$$
