tmp_first_model_18_59.pdb
 OpenBabel08282502533D

 60 65  0  0  1  0  0  0  0  0999 V2000
   -9.7730    1.1630  -29.2400 C   0  0  0  0  0  0  0  0  0  0  0  0
   -9.6080    1.4350  -27.8300 N   0  0  0  0  0  0  0  0  0  0  0  0
   -8.5850    0.8410  -27.1560 C   0  0  0  0  0  0  0  0  0  0  0  0
   -7.6970    0.1920  -27.6870 O   0  0  0  0  0  0  0  0  0  0  0  0
   -8.6470    1.0610  -25.6430 C   0  0  0  0  0  0  0  0  0  0  0  0
   -9.3200   -0.0420  -24.9870 N   0  0  0  0  0  0  0  0  0  0  0  0
   -8.5700   -1.2170  -24.5850 C   0  0  0  0  0  0  0  0  0  0  0  0
   -8.9750   -1.6790  -23.1580 C   0  0  2  0  0  0  0  0  0  0  0  0
   -8.3060   -0.6970  -22.1540 C   0  0  0  0  0  0  0  0  0  0  0  0
   -8.4640    0.5040  -22.1240 O   0  0  0  0  0  0  0  0  0  0  0  0
   -7.4270   -1.4010  -21.3490 N   0  0  0  0  0  0  0  0  0  0  0  0
   -6.6610   -0.8220  -20.3000 C   0  0  0  0  0  0  0  0  0  0  0  0
   -6.9780   -1.0970  -18.9920 C   0  0  0  0  0  0  0  0  0  0  0  0
   -6.3210   -0.6100  -17.9100 N   0  0  0  0  0  0  0  0  0  0  0  0
   -5.2880    0.1690  -18.1290 C   0  0  0  0  0  0  0  0  0  0  0  0
   -4.8150    0.5050  -19.4290 C   0  0  0  0  0  0  0  0  0  0  0  0
   -3.6720    1.3300  -19.6100 C   0  0  0  0  0  0  0  0  0  0  0  0
   -3.2040    1.5980  -20.8680 C   0  0  0  0  0  0  0  0  0  0  0  0
   -3.8530    1.0490  -21.9960 C   0  0  0  0  0  0  0  0  0  0  0  0
   -4.9700    0.2610  -21.8480 C   0  0  0  0  0  0  0  0  0  0  0  0
   -5.4970   -0.0160  -20.5560 C   0  0  0  0  0  0  0  0  0  0  0  0
   -5.4480   -0.1730  -22.7210 H   0  0  0  0  0  0  0  0  0  0  0  0
   -3.4650    1.2520  -22.9910 H   0  0  0  0  0  0  0  0  0  0  0  0
   -2.3310    2.2320  -21.0080 H   0  0  0  0  0  0  0  0  0  0  0  0
   -3.1810    1.7380  -18.7290 H   0  0  0  0  0  0  0  0  0  0  0  0
   -4.7580    0.5640  -17.2590 H   0  0  0  0  0  0  0  0  0  0  0  0
   -7.8260   -1.7420  -18.7630 H   0  0  0  0  0  0  0  0  0  0  0  0
   -7.6500   -2.8270  -21.4180 C   0  0  0  0  0  0  0  0  0  0  0  0
   -8.3470   -3.0480  -22.7710 C   0  0  2  0  0  0  0  0  0  0  0  0
   -7.4020   -3.7180  -23.7960 C   0  0  0  0  0  0  0  0  0  0  0  0
   -7.0910   -5.0950  -23.3070 C   0  0  0  0  0  0  0  0  0  0  0  0
   -5.9120   -5.5230  -22.8870 N   0  0  0  0  0  0  0  0  0  0  0  0
   -6.1370   -6.7660  -22.4630 N   0  0  0  0  0  0  0  0  0  0  0  0
   -7.4010   -7.0610  -22.6240 N   0  5  0  0  0  0  0  0  0  0  0  0
   -8.0330   -6.0190  -23.1520 N   0  0  0  0  0  0  0  0  0  0  0  0
   -6.4760   -3.1560  -23.9390 H   0  0  0  0  0  0  0  0  0  0  0  0
   -7.9080   -3.8310  -24.7580 H   0  0  0  0  0  0  0  0  0  0  0  0
   -9.1360   -3.7940  -22.6500 H   0  0  0  0  0  0  0  0  0  0  0  0
   -8.3090   -3.1470  -20.6010 H   0  0  0  0  0  0  0  0  0  0  0  0
   -6.7090   -3.3800  -21.3330 H   0  0  0  0  0  0  0  0  0  0  0  0
  -10.5110   -1.6800  -23.0750 C   0  0  0  0  0  0  0  0  0  0  0  0
  -11.1830   -2.4150  -22.0850 C   0  0  0  0  0  0  0  0  0  0  0  0
  -12.5660   -2.4410  -22.0440 C   0  0  0  0  0  0  0  0  0  0  0  0
  -13.3690   -3.3370  -20.7870 Cl  0  0  0  0  0  0  0  0  0  0  0  0
  -13.3450   -1.7400  -22.9630 C   0  0  0  0  0  0  0  0  0  0  0  0
  -12.7000   -0.9630  -23.9040 C   0  0  0  0  0  0  0  0  0  0  0  0
  -11.3080   -0.9520  -23.9740 C   0  0  0  0  0  0  0  0  0  0  0  0
  -10.6780   -0.0480  -24.9750 C   0  0  0  0  0  0  0  0  0  0  0  0
  -11.3440    0.7040  -25.6960 O   0  0  0  0  0  0  0  0  0  0  0  0
  -13.2690   -0.3320  -24.5820 H   0  0  0  0  0  0  0  0  0  0  0  0
  -14.4260   -1.7670  -22.8980 H   0  0  0  0  0  0  0  0  0  0  0  0
  -10.6260   -2.9750  -21.3390 H   0  0  0  0  0  0  0  0  0  0  0  0
   -7.5010   -0.9840  -24.6200 H   0  0  0  0  0  0  0  0  0  0  0  0
   -8.7420   -2.0310  -25.3010 H   0  0  0  0  0  0  0  0  0  0  0  0
   -9.1950    1.9800  -25.4120 H   0  0  0  0  0  0  0  0  0  0  0  0
   -7.6400    1.1490  -25.2220 H   0  0  0  0  0  0  0  0  0  0  0  0
  -10.4510    1.5720  -27.2820 H   0  0  0  0  0  0  0  0  0  0  0  0
  -10.5620    1.8090  -29.6300 H   0  0  0  0  0  0  0  0  0  0  0  0
  -10.0300    0.1140  -29.4270 H   0  0  0  0  0  0  0  0  0  0  0  0
   -8.8460    1.3850  -29.7720 H   0  0  0  0  0  0  0  0  0  0  0  0
  1  2  1  0  0  0  0
  1 58  1  0  0  0  0
  1 59  1  0  0  0  0
  1 60  1  0  0  0  0
  2  3  1  0  0  0  0
  2 57  1  0  0  0  0
  3  4  2  0  0  0  0
  3  5  1  0  0  0  0
  5  6  1  0  0  0  0
  5 55  1  0  0  0  0
  5 56  1  0  0  0  0
  6  7  1  0  0  0  0
  6 48  1  0  0  0  0
  7  8  1  0  0  0  0
  7 53  1  0  0  0  0
  7 54  1  0  0  0  0
  8  9  1  1  0  0  0
  8 29  1  0  0  0  0
  8 41  1  0  0  0  0
  9 10  2  0  0  0  0
  9 11  1  0  0  0  0
 11 12  1  0  0  0  0
 11 28  1  0  0  0  0
 12 13  2  0  0  0  0
 12 21  1  0  0  0  0
 13 14  1  0  0  0  0
 13 27  1  0  0  0  0
 14 15  2  0  0  0  0
 15 16  1  0  0  0  0
 15 26  1  0  0  0  0
 16 17  2  0  0  0  0
 16 21  1  0  0  0  0
 17 18  1  0  0  0  0
 17 25  1  0  0  0  0
 18 19  2  0  0  0  0
 18 24  1  0  0  0  0
 19 20  1  0  0  0  0
 19 23  1  0  0  0  0
 20 21  2  0  0  0  0
 20 22  1  0  0  0  0
 28 29  1  0  0  0  0
 28 39  1  0  0  0  0
 28 40  1  0  0  0  0
 29 30  1  0  0  0  0
 29 38  1  1  0  0  0
 30 31  1  0  0  0  0
 30 36  1  0  0  0  0
 30 37  1  0  0  0  0
 31 32  1  0  0  0  0
 31 35  2  0  0  0  0
 32 33  2  0  0  0  0
 33 34  1  0  0  0  0
 34 35  1  0  0  0  0
 41 42  2  0  0  0  0
 41 47  1  0  0  0  0
 42 43  1  0  0  0  0
 42 52  1  0  0  0  0
 43 44  1  0  0  0  0
 43 45  2  0  0  0  0
 45 46  1  0  0  0  0
 45 51  1  0  0  0  0
 46 47  2  0  0  0  0
 46 50  1  0  0  0  0
 47 48  1  0  0  0  0
 48 49  2  0  0  0  0
M  CHG  1  34  -1
M  END
>  <MODEL>
       1

$$$$
