tmp_first_model_9_78.pdb
 OpenBabel08272521403D

 56 60  0  0  1  0  0  0  0  0999 V2000
  -14.4610   -1.6300  -23.7690 C   0  0  0  0  0  0  0  0  0  0  0  0
  -13.7160   -2.7830  -23.3090 N   0  0  0  0  0  0  0  0  0  0  0  0
  -13.3160   -2.8190  -22.0120 C   0  0  0  0  0  0  0  0  0  0  0  0
  -13.6610   -1.9870  -21.1900 O   0  0  0  0  0  0  0  0  0  0  0  0
  -12.4210   -4.0000  -21.6680 C   0  0  0  0  0  0  0  0  0  0  0  0
  -11.1000   -3.9200  -22.2640 N   0  0  0  0  0  0  0  0  0  0  0  0
   -9.9830   -3.4020  -21.4750 C   0  0  0  0  0  0  0  0  0  0  0  0
   -8.7880   -2.9300  -22.3470 C   0  0  2  0  0  0  0  0  0  0  0  0
   -7.5590   -2.7070  -21.4480 C   0  0  0  0  0  0  0  0  0  0  0  0
   -6.8180   -3.5670  -21.0130 O   0  0  0  0  0  0  0  0  0  0  0  0
   -7.4000   -1.3550  -21.2340 N   0  0  0  0  0  0  0  0  0  0  0  0
   -6.5830   -0.8530  -20.1930 C   0  0  0  0  0  0  0  0  0  0  0  0
   -6.8890   -1.1020  -18.8800 C   0  0  0  0  0  0  0  0  0  0  0  0
   -6.2150   -0.5720  -17.8280 N   0  0  0  0  0  0  0  0  0  0  0  0
   -5.1980    0.2090  -18.0910 C   0  0  0  0  0  0  0  0  0  0  0  0
   -4.7540    0.5210  -19.4080 C   0  0  0  0  0  0  0  0  0  0  0  0
   -3.6280    1.3500  -19.6410 C   0  0  0  0  0  0  0  0  0  0  0  0
   -3.2230    1.6190  -20.9180 C   0  0  0  0  0  0  0  0  0  0  0  0
   -3.9260    1.0780  -22.0180 C   0  0  0  0  0  0  0  0  0  0  0  0
   -5.0190    0.2720  -21.8200 C   0  0  0  0  0  0  0  0  0  0  0  0
   -5.4630   -0.0200  -20.5020 C   0  0  0  0  0  0  0  0  0  0  0  0
   -5.5390   -0.1570  -22.6710 H   0  0  0  0  0  0  0  0  0  0  0  0
   -3.5930    1.2980  -23.0270 H   0  0  0  0  0  0  0  0  0  0  0  0
   -2.3650    2.2580  -21.0960 H   0  0  0  0  0  0  0  0  0  0  0  0
   -3.1110    1.7660  -18.7810 H   0  0  0  0  0  0  0  0  0  0  0  0
   -4.6590    0.6350  -17.2440 H   0  0  0  0  0  0  0  0  0  0  0  0
   -7.7300   -1.7440  -18.6310 H   0  0  0  0  0  0  0  0  0  0  0  0
   -8.3940   -0.5360  -21.9060 C   0  0  0  0  0  0  0  0  0  0  0  0
   -9.0080   -1.4910  -22.9420 C   0  0  2  0  0  0  0  0  0  0  0  0
  -10.4540   -1.1540  -23.2790 C   0  0  0  0  0  0  0  0  0  0  0  0
  -11.0630   -1.1320  -22.3670 H   0  0  0  0  0  0  0  0  0  0  0  0
  -10.5340   -0.1820  -23.7700 H   0  0  0  0  0  0  0  0  0  0  0  0
  -10.8680   -1.9190  -23.9410 H   0  0  0  0  0  0  0  0  0  0  0  0
   -8.3960   -1.4460  -23.8560 H   0  0  0  0  0  0  0  0  0  0  0  0
   -7.9280    0.3400  -22.3740 H   0  0  0  0  0  0  0  0  0  0  0  0
   -9.1520   -0.1730  -21.1920 H   0  0  0  0  0  0  0  0  0  0  0  0
   -8.5090   -3.9800  -23.3960 C   0  0  0  0  0  0  0  0  0  0  0  0
   -7.2330   -4.0970  -23.9520 C   0  0  0  0  0  0  0  0  0  0  0  0
   -6.9950   -5.0290  -24.9430 C   0  0  0  0  0  0  0  0  0  0  0  0
   -5.4260   -5.0950  -25.6770 Cl  0  0  0  0  0  0  0  0  0  0  0  0
   -7.9940   -5.8880  -25.3960 C   0  0  0  0  0  0  0  0  0  0  0  0
   -9.2570   -5.7680  -24.8490 C   0  0  0  0  0  0  0  0  0  0  0  0
   -9.5280   -4.7970  -23.8890 C   0  0  0  0  0  0  0  0  0  0  0  0
  -10.9310   -4.5980  -23.4360 C   0  0  0  0  0  0  0  0  0  0  0  0
  -11.8950   -4.9970  -24.0910 O   0  0  0  0  0  0  0  0  0  0  0  0
  -10.0630   -6.4250  -25.1570 H   0  0  0  0  0  0  0  0  0  0  0  0
   -7.7860   -6.6120  -26.1760 H   0  0  0  0  0  0  0  0  0  0  0  0
   -6.4250   -3.4600  -23.6110 H   0  0  0  0  0  0  0  0  0  0  0  0
   -9.6530   -4.1940  -20.7970 H   0  0  0  0  0  0  0  0  0  0  0  0
  -10.3330   -2.5410  -20.8910 H   0  0  0  0  0  0  0  0  0  0  0  0
  -12.9020   -4.8580  -22.1310 H   0  0  0  0  0  0  0  0  0  0  0  0
  -12.3750   -4.1350  -20.5860 H   0  0  0  0  0  0  0  0  0  0  0  0
  -13.4410   -3.5350  -23.9430 H   0  0  0  0  0  0  0  0  0  0  0  0
  -13.8440   -0.7190  -23.7550 H   0  0  0  0  0  0  0  0  0  0  0  0
  -14.8200   -1.7860  -24.7900 H   0  0  0  0  0  0  0  0  0  0  0  0
  -15.3170   -1.4570  -23.1090 H   0  0  0  0  0  0  0  0  0  0  0  0
  1  2  1  0  0  0  0
  1 54  1  0  0  0  0
  1 55  1  0  0  0  0
  1 56  1  0  0  0  0
  2  3  1  0  0  0  0
  2 53  1  0  0  0  0
  3  4  2  0  0  0  0
  3  5  1  0  0  0  0
  5  6  1  0  0  0  0
  5 51  1  0  0  0  0
  5 52  1  0  0  0  0
  6  7  1  0  0  0  0
  6 44  1  0  0  0  0
  7  8  1  0  0  0  0
  7 49  1  0  0  0  0
  7 50  1  0  0  0  0
  8  9  1  1  0  0  0
  8 29  1  0  0  0  0
  8 37  1  0  0  0  0
  9 10  2  0  0  0  0
  9 11  1  0  0  0  0
 11 12  1  0  0  0  0
 11 28  1  0  0  0  0
 12 13  2  0  0  0  0
 12 21  1  0  0  0  0
 13 14  1  0  0  0  0
 13 27  1  0  0  0  0
 14 15  2  0  0  0  0
 15 16  1  0  0  0  0
 15 26  1  0  0  0  0
 16 17  2  0  0  0  0
 16 21  1  0  0  0  0
 17 18  1  0  0  0  0
 17 25  1  0  0  0  0
 18 19  2  0  0  0  0
 18 24  1  0  0  0  0
 19 20  1  0  0  0  0
 19 23  1  0  0  0  0
 20 21  2  0  0  0  0
 20 22  1  0  0  0  0
 28 29  1  0  0  0  0
 28 35  1  0  0  0  0
 28 36  1  0  0  0  0
 29 30  1  0  0  0  0
 29 34  1  6  0  0  0
 30 31  1  0  0  0  0
 30 32  1  0  0  0  0
 30 33  1  0  0  0  0
 37 38  2  0  0  0  0
 37 43  1  0  0  0  0
 38 39  1  0  0  0  0
 38 48  1  0  0  0  0
 39 40  1  0  0  0  0
 39 41  2  0  0  0  0
 41 42  1  0  0  0  0
 41 47  1  0  0  0  0
 42 43  2  0  0  0  0
 42 46  1  0  0  0  0
 43 44  1  0  0  0  0
 44 45  2  0  0  0  0
M  END
>  <MODEL>
       1

$$$$
