tmp_first_model_10_50.pdb
 OpenBabel08272522163D

 66 70  0  0  1  0  0  0  0  0999 V2000
   -7.6140    3.0670  -22.0220 C   0  0  0  0  0  0  0  0  0  0  0  0
   -8.7770    2.5630  -22.7380 N   0  0  0  0  0  0  0  0  0  0  0  0
   -8.5330    1.7480  -23.8040 C   0  0  0  0  0  0  0  0  0  0  0  0
   -7.3920    1.4710  -24.1540 O   0  0  0  0  0  0  0  0  0  0  0  0
   -9.7200    1.1490  -24.5560 C   0  0  0  0  0  0  0  0  0  0  0  0
  -10.1530   -0.0660  -23.8970 N   0  0  0  0  0  0  0  0  0  0  0  0
   -9.2570   -1.2150  -23.8890 C   0  0  0  0  0  0  0  0  0  0  0  0
   -9.3130   -1.9520  -22.5250 C   0  0  2  0  0  0  0  0  0  0  0  0
   -8.7160   -1.0040  -21.4470 C   0  0  0  0  0  0  0  0  0  0  0  0
   -9.2450   -0.0210  -20.9650 O   0  0  0  0  0  0  0  0  0  0  0  0
   -7.4330   -1.4280  -21.1580 N   0  0  0  0  0  0  0  0  0  0  0  0
   -6.6510   -0.8150  -20.1470 C   0  0  0  0  0  0  0  0  0  0  0  0
   -6.9400   -1.0640  -18.8260 C   0  0  0  0  0  0  0  0  0  0  0  0
   -6.2300   -0.5740  -17.7810 N   0  0  0  0  0  0  0  0  0  0  0  0
   -5.1880    0.1710  -18.0580 C   0  0  0  0  0  0  0  0  0  0  0  0
   -4.7930    0.5370  -19.3760 C   0  0  0  0  0  0  0  0  0  0  0  0
   -3.7140    1.4310  -19.6130 C   0  0  0  0  0  0  0  0  0  0  0  0
   -3.4460    1.8710  -20.8780 C   0  0  0  0  0  0  0  0  0  0  0  0
   -4.2460    1.4530  -21.9650 C   0  0  0  0  0  0  0  0  0  0  0  0
   -5.2540    0.5310  -21.7710 C   0  0  0  0  0  0  0  0  0  0  0  0
   -5.5690    0.0660  -20.4650 C   0  0  0  0  0  0  0  0  0  0  0  0
   -5.8500    0.2180  -22.6220 H   0  0  0  0  0  0  0  0  0  0  0  0
   -4.0710    1.8660  -22.9550 H   0  0  0  0  0  0  0  0  0  0  0  0
   -2.6370    2.5750  -21.0520 H   0  0  0  0  0  0  0  0  0  0  0  0
   -3.1130    1.7500  -18.7640 H   0  0  0  0  0  0  0  0  0  0  0  0
   -4.6240    0.5720  -17.2140 H   0  0  0  0  0  0  0  0  0  0  0  0
   -7.7840   -1.7000  -18.5760 H   0  0  0  0  0  0  0  0  0  0  0  0
   -6.9920   -2.5480  -21.9700 C   0  0  0  0  0  0  0  0  0  0  0  0
   -8.3250   -3.1480  -22.4480 C   0  0  2  0  0  0  0  0  0  0  0  0
   -8.2120   -3.9960  -23.7130 C   0  0  0  0  0  0  0  0  0  0  0  0
   -7.4500   -5.1550  -23.4730 O   0  0  0  0  0  0  0  0  0  0  0  0
   -6.1690   -5.2230  -24.0870 C   0  0  0  0  0  0  0  0  0  0  0  0
   -6.2700   -5.7360  -25.5160 C   0  0  0  0  0  0  0  0  0  0  0  0
   -6.8740   -5.0760  -26.1450 H   0  0  0  0  0  0  0  0  0  0  0  0
   -5.2740   -5.8080  -25.9620 H   0  0  0  0  0  0  0  0  0  0  0  0
   -6.7260   -6.7290  -25.5280 H   0  0  0  0  0  0  0  0  0  0  0  0
   -5.3390   -6.1350  -23.2030 C   0  0  0  0  0  0  0  0  0  0  0  0
   -5.7860   -7.1340  -23.1870 H   0  0  0  0  0  0  0  0  0  0  0  0
   -5.3240   -5.7470  -22.1800 H   0  0  0  0  0  0  0  0  0  0  0  0
   -4.3080   -6.2150  -23.5660 H   0  0  0  0  0  0  0  0  0  0  0  0
   -5.7220   -4.2170  -24.0970 H   0  0  0  0  0  0  0  0  0  0  0  0
   -7.7700   -3.3950  -24.5240 H   0  0  0  0  0  0  0  0  0  0  0  0
   -9.2190   -4.3030  -24.0320 H   0  0  0  0  0  0  0  0  0  0  0  0
   -8.6530   -3.8080  -21.6400 H   0  0  0  0  0  0  0  0  0  0  0  0
   -6.3720   -2.2130  -22.8180 H   0  0  0  0  0  0  0  0  0  0  0  0
   -6.3990   -3.2540  -21.3800 H   0  0  0  0  0  0  0  0  0  0  0  0
  -10.7790   -2.2850  -22.2770 C   0  0  0  0  0  0  0  0  0  0  0  0
  -11.2030   -3.4430  -21.6120 C   0  0  0  0  0  0  0  0  0  0  0  0
  -12.5360   -3.6010  -21.2760 C   0  0  0  0  0  0  0  0  0  0  0  0
  -12.9060   -4.6740  -20.5540 F   0  0  0  0  0  0  0  0  0  0  0  0
  -13.5130   -2.6790  -21.6310 C   0  0  0  0  0  0  0  0  0  0  0  0
  -13.1140   -1.5660  -22.3410 C   0  0  0  0  0  0  0  0  0  0  0  0
  -11.7720   -1.3710  -22.6640 C   0  0  0  0  0  0  0  0  0  0  0  0
  -11.4360   -0.1360  -23.4340 C   0  0  0  0  0  0  0  0  0  0  0  0
  -12.2640    0.7430  -23.6350 O   0  0  0  0  0  0  0  0  0  0  0  0
  -13.8310   -0.8280  -22.6840 H   0  0  0  0  0  0  0  0  0  0  0  0
  -14.5450   -2.8410  -21.3410 H   0  0  0  0  0  0  0  0  0  0  0  0
  -10.5180   -4.2160  -21.2920 H   0  0  0  0  0  0  0  0  0  0  0  0
   -9.5410   -1.9110  -24.6910 H   0  0  0  0  0  0  0  0  0  0  0  0
   -8.2440   -0.8510  -24.0870 H   0  0  0  0  0  0  0  0  0  0  0  0
  -10.5780    1.8220  -24.5920 H   0  0  0  0  0  0  0  0  0  0  0  0
   -9.4100    0.9300  -25.5900 H   0  0  0  0  0  0  0  0  0  0  0  0
   -9.6180    2.4170  -22.1900 H   0  0  0  0  0  0  0  0  0  0  0  0
   -7.1100    2.2600  -21.4730 H   0  0  0  0  0  0  0  0  0  0  0  0
   -7.8960    3.8450  -21.3100 H   0  0  0  0  0  0  0  0  0  0  0  0
   -6.9120    3.4950  -22.7450 H   0  0  0  0  0  0  0  0  0  0  0  0
  1  2  1  0  0  0  0
  1 64  1  0  0  0  0
  1 65  1  0  0  0  0
  1 66  1  0  0  0  0
  2  3  1  0  0  0  0
  2 63  1  0  0  0  0
  3  4  2  0  0  0  0
  3  5  1  0  0  0  0
  5  6  1  0  0  0  0
  5 61  1  0  0  0  0
  5 62  1  0  0  0  0
  6  7  1  0  0  0  0
  6 54  1  0  0  0  0
  7  8  1  0  0  0  0
  7 59  1  0  0  0  0
  7 60  1  0  0  0  0
  8  9  1  1  0  0  0
  8 29  1  0  0  0  0
  8 47  1  0  0  0  0
  9 10  2  0  0  0  0
  9 11  1  0  0  0  0
 11 12  1  0  0  0  0
 11 28  1  0  0  0  0
 12 13  2  0  0  0  0
 12 21  1  0  0  0  0
 13 14  1  0  0  0  0
 13 27  1  0  0  0  0
 14 15  2  0  0  0  0
 15 16  1  0  0  0  0
 15 26  1  0  0  0  0
 16 17  2  0  0  0  0
 16 21  1  0  0  0  0
 17 18  1  0  0  0  0
 17 25  1  0  0  0  0
 18 19  2  0  0  0  0
 18 24  1  0  0  0  0
 19 20  1  0  0  0  0
 19 23  1  0  0  0  0
 20 21  2  0  0  0  0
 20 22  1  0  0  0  0
 28 29  1  0  0  0  0
 28 45  1  0  0  0  0
 28 46  1  0  0  0  0
 29 30  1  0  0  0  0
 29 44  1  1  0  0  0
 30 31  1  0  0  0  0
 30 42  1  0  0  0  0
 30 43  1  0  0  0  0
 31 32  1  0  0  0  0
 32 33  1  0  0  0  0
 32 37  1  0  0  0  0
 32 41  1  0  0  0  0
 33 34  1  0  0  0  0
 33 35  1  0  0  0  0
 33 36  1  0  0  0  0
 37 38  1  0  0  0  0
 37 39  1  0  0  0  0
 37 40  1  0  0  0  0
 47 48  2  0  0  0  0
 47 53  1  0  0  0  0
 48 49  1  0  0  0  0
 48 58  1  0  0  0  0
 49 50  1  0  0  0  0
 49 51  2  0  0  0  0
 51 52  1  0  0  0  0
 51 57  1  0  0  0  0
 52 53  2  0  0  0  0
 52 56  1  0  0  0  0
 53 54  1  0  0  0  0
 54 55  2  0  0  0  0
M  END
>  <MODEL>
       1

$$$$
