tmp_first_model_8_78.pdb
 OpenBabel08272521063D

 56 60  0  0  1  0  0  0  0  0999 V2000
  -14.5510   -1.4490  -23.9290 C   0  0  0  0  0  0  0  0  0  0  0  0
  -13.7370   -2.5560  -23.4710 N   0  0  0  0  0  0  0  0  0  0  0  0
  -13.3790   -2.6220  -22.1570 C   0  0  0  0  0  0  0  0  0  0  0  0
  -13.7650   -1.8030  -21.3400 O   0  0  0  0  0  0  0  0  0  0  0  0
  -12.4990   -3.8110  -21.7840 C   0  0  0  0  0  0  0  0  0  0  0  0
  -11.1560   -3.7850  -22.3430 N   0  0  0  0  0  0  0  0  0  0  0  0
  -10.0330   -3.3080  -21.5420 C   0  0  0  0  0  0  0  0  0  0  0  0
   -8.8160   -2.8610  -22.3880 C   0  0  2  0  0  0  0  0  0  0  0  0
   -7.6370   -2.6930  -21.4240 C   0  0  0  0  0  0  0  0  0  0  0  0
   -6.9950   -3.5820  -20.9030 O   0  0  0  0  0  0  0  0  0  0  0  0
   -7.3940   -1.3480  -21.2430 N   0  0  0  0  0  0  0  0  0  0  0  0
   -6.5880   -0.8770  -20.1860 C   0  0  0  0  0  0  0  0  0  0  0  0
   -6.8930   -1.1640  -18.8800 C   0  0  0  0  0  0  0  0  0  0  0  0
   -6.2340   -0.6360  -17.8200 N   0  0  0  0  0  0  0  0  0  0  0  0
   -5.2310    0.1740  -18.0670 C   0  0  0  0  0  0  0  0  0  0  0  0
   -4.7930    0.5260  -19.3760 C   0  0  0  0  0  0  0  0  0  0  0  0
   -3.6830    1.3830  -19.6050 C   0  0  0  0  0  0  0  0  0  0  0  0
   -3.3240    1.7120  -20.8860 C   0  0  0  0  0  0  0  0  0  0  0  0
   -4.0480    1.2050  -21.9880 C   0  0  0  0  0  0  0  0  0  0  0  0
   -5.1050    0.3510  -21.7920 C   0  0  0  0  0  0  0  0  0  0  0  0
   -5.5010    0.0010  -20.4740 C   0  0  0  0  0  0  0  0  0  0  0  0
   -5.6350   -0.0790  -22.6350 H   0  0  0  0  0  0  0  0  0  0  0  0
   -3.7490    1.4680  -22.9990 H   0  0  0  0  0  0  0  0  0  0  0  0
   -2.4740    2.3630  -21.0660 H   0  0  0  0  0  0  0  0  0  0  0  0
   -3.1340    1.7680  -18.7500 H   0  0  0  0  0  0  0  0  0  0  0  0
   -4.7080    0.5920  -17.2080 H   0  0  0  0  0  0  0  0  0  0  0  0
   -7.7160   -1.8360  -18.6420 H   0  0  0  0  0  0  0  0  0  0  0  0
   -8.3770   -0.4930  -21.8880 C   0  0  0  0  0  0  0  0  0  0  0  0
   -8.9770   -1.4080  -22.9650 C   0  0  2  0  0  0  0  0  0  0  0  0
  -10.3950   -1.0200  -23.3640 C   0  0  0  0  0  0  0  0  0  0  0  0
  -11.0560   -1.0150  -22.4890 H   0  0  0  0  0  0  0  0  0  0  0  0
  -10.4400   -0.0250  -23.8150 H   0  0  0  0  0  0  0  0  0  0  0  0
  -10.7850   -1.7430  -24.0850 H   0  0  0  0  0  0  0  0  0  0  0  0
   -8.3220   -1.3640  -23.8470 H   0  0  0  0  0  0  0  0  0  0  0  0
   -7.9110    0.4100  -22.2970 H   0  0  0  0  0  0  0  0  0  0  0  0
   -9.1410   -0.1540  -21.1690 H   0  0  0  0  0  0  0  0  0  0  0  0
   -8.5210   -3.9090  -23.4360 C   0  0  0  0  0  0  0  0  0  0  0  0
   -7.2340   -4.0700  -23.9720 C   0  0  0  0  0  0  0  0  0  0  0  0
   -7.0100   -5.0250  -24.9500 C   0  0  0  0  0  0  0  0  0  0  0  0
   -5.4090   -5.2110  -25.6210 Cl  0  0  0  0  0  0  0  0  0  0  0  0
   -8.0350   -5.8720  -25.3780 C   0  0  0  0  0  0  0  0  0  0  0  0
   -9.3130   -5.6890  -24.8830 C   0  0  0  0  0  0  0  0  0  0  0  0
   -9.5530   -4.7050  -23.9280 C   0  0  0  0  0  0  0  0  0  0  0  0
  -10.9570   -4.5130  -23.4810 C   0  0  0  0  0  0  0  0  0  0  0  0
  -11.8960   -4.9760  -24.1150 O   0  0  0  0  0  0  0  0  0  0  0  0
  -10.1520   -6.2960  -25.2210 H   0  0  0  0  0  0  0  0  0  0  0  0
   -7.8270   -6.6670  -26.0850 H   0  0  0  0  0  0  0  0  0  0  0  0
   -6.3990   -3.4960  -23.5850 H   0  0  0  0  0  0  0  0  0  0  0  0
   -9.7040   -4.0940  -20.8550 H   0  0  0  0  0  0  0  0  0  0  0  0
  -10.3370   -2.4390  -20.9490 H   0  0  0  0  0  0  0  0  0  0  0  0
  -13.0110   -4.6790  -22.2080 H   0  0  0  0  0  0  0  0  0  0  0  0
  -12.4480   -3.8840  -20.6950 H   0  0  0  0  0  0  0  0  0  0  0  0
  -13.3830   -3.2140  -24.1520 H   0  0  0  0  0  0  0  0  0  0  0  0
  -14.0010   -0.5020  -23.9660 H   0  0  0  0  0  0  0  0  0  0  0  0
  -14.9450   -1.6840  -24.9210 H   0  0  0  0  0  0  0  0  0  0  0  0
  -15.3800   -1.2750  -23.2430 H   0  0  0  0  0  0  0  0  0  0  0  0
  1  2  1  0  0  0  0
  1 54  1  0  0  0  0
  1 55  1  0  0  0  0
  1 56  1  0  0  0  0
  2  3  1  0  0  0  0
  2 53  1  0  0  0  0
  3  4  2  0  0  0  0
  3  5  1  0  0  0  0
  5  6  1  0  0  0  0
  5 51  1  0  0  0  0
  5 52  1  0  0  0  0
  6  7  1  0  0  0  0
  6 44  1  0  0  0  0
  7  8  1  0  0  0  0
  7 49  1  0  0  0  0
  7 50  1  0  0  0  0
  8  9  1  1  0  0  0
  8 29  1  0  0  0  0
  8 37  1  0  0  0  0
  9 10  2  0  0  0  0
  9 11  1  0  0  0  0
 11 12  1  0  0  0  0
 11 28  1  0  0  0  0
 12 13  2  0  0  0  0
 12 21  1  0  0  0  0
 13 14  1  0  0  0  0
 13 27  1  0  0  0  0
 14 15  2  0  0  0  0
 15 16  1  0  0  0  0
 15 26  1  0  0  0  0
 16 17  2  0  0  0  0
 16 21  1  0  0  0  0
 17 18  1  0  0  0  0
 17 25  1  0  0  0  0
 18 19  2  0  0  0  0
 18 24  1  0  0  0  0
 19 20  1  0  0  0  0
 19 23  1  0  0  0  0
 20 21  2  0  0  0  0
 20 22  1  0  0  0  0
 28 29  1  0  0  0  0
 28 35  1  0  0  0  0
 28 36  1  0  0  0  0
 29 30  1  0  0  0  0
 29 34  1  6  0  0  0
 30 31  1  0  0  0  0
 30 32  1  0  0  0  0
 30 33  1  0  0  0  0
 37 38  2  0  0  0  0
 37 43  1  0  0  0  0
 38 39  1  0  0  0  0
 38 48  1  0  0  0  0
 39 40  1  0  0  0  0
 39 41  2  0  0  0  0
 41 42  1  0  0  0  0
 41 47  1  0  0  0  0
 42 43  2  0  0  0  0
 42 46  1  0  0  0  0
 43 44  1  0  0  0  0
 44 45  2  0  0  0  0
M  END
>  <MODEL>
       1

$$$$
