tmp_first_model_17_50.pdb
 OpenBabel08282502223D

 66 70  0  0  1  0  0  0  0  0999 V2000
   -7.4440    3.3500  -21.8030 C   0  0  0  0  0  0  0  0  0  0  0  0
   -8.3510    2.8800  -22.8360 N   0  0  0  0  0  0  0  0  0  0  0  0
   -7.8290    2.1540  -23.8530 C   0  0  0  0  0  0  0  0  0  0  0  0
   -6.6200    2.0230  -24.0100 O   0  0  0  0  0  0  0  0  0  0  0  0
   -8.8320    1.5330  -24.8330 C   0  0  0  0  0  0  0  0  0  0  0  0
   -9.5340    0.3750  -24.3140 N   0  0  0  0  0  0  0  0  0  0  0  0
   -8.8060   -0.8700  -24.1770 C   0  0  0  0  0  0  0  0  0  0  0  0
   -9.1260   -1.5740  -22.8340 C   0  0  2  0  0  0  0  0  0  0  0  0
   -8.5420   -0.7510  -21.6510 C   0  0  0  0  0  0  0  0  0  0  0  0
   -8.9780    0.2810  -21.1860 O   0  0  0  0  0  0  0  0  0  0  0  0
   -7.4050   -1.3840  -21.2000 N   0  0  0  0  0  0  0  0  0  0  0  0
   -6.6080   -0.8090  -20.1720 C   0  0  0  0  0  0  0  0  0  0  0  0
   -6.9110   -1.0390  -18.8540 C   0  0  0  0  0  0  0  0  0  0  0  0
   -6.2070   -0.5450  -17.8050 N   0  0  0  0  0  0  0  0  0  0  0  0
   -5.1680    0.2080  -18.0750 C   0  0  0  0  0  0  0  0  0  0  0  0
   -4.7310    0.5300  -19.3910 C   0  0  0  0  0  0  0  0  0  0  0  0
   -3.6050    1.3640  -19.6390 C   0  0  0  0  0  0  0  0  0  0  0  0
   -3.2250    1.6580  -20.9180 C   0  0  0  0  0  0  0  0  0  0  0  0
   -3.9480    1.1290  -22.0110 C   0  0  0  0  0  0  0  0  0  0  0  0
   -5.0380    0.3180  -21.7980 C   0  0  0  0  0  0  0  0  0  0  0  0
   -5.4670    0.0020  -20.4820 C   0  0  0  0  0  0  0  0  0  0  0  0
   -5.5940   -0.0720  -22.6460 H   0  0  0  0  0  0  0  0  0  0  0  0
   -3.6420    1.3630  -23.0250 H   0  0  0  0  0  0  0  0  0  0  0  0
   -2.3630    2.2930  -21.1040 H   0  0  0  0  0  0  0  0  0  0  0  0
   -3.0650    1.7680  -18.7860 H   0  0  0  0  0  0  0  0  0  0  0  0
   -4.6170    0.6120  -17.2250 H   0  0  0  0  0  0  0  0  0  0  0  0
   -7.7600   -1.6670  -18.5940 H   0  0  0  0  0  0  0  0  0  0  0  0
   -7.0780   -2.6090  -21.9070 C   0  0  0  0  0  0  0  0  0  0  0  0
   -8.3660   -2.9310  -22.6960 C   0  0  2  0  0  0  0  0  0  0  0  0
   -8.0850   -3.6780  -23.9990 C   0  0  0  0  0  0  0  0  0  0  0  0
   -7.4670   -4.9190  -23.7070 O   0  0  0  0  0  0  0  0  0  0  0  0
   -7.3030   -5.7630  -24.8510 C   0  0  0  0  0  0  0  0  0  0  0  0
   -8.4380   -6.7860  -24.9210 C   0  0  0  0  0  0  0  0  0  0  0  0
   -8.4370   -7.4070  -24.0190 H   0  0  0  0  0  0  0  0  0  0  0  0
   -8.3140   -7.4390  -25.7950 H   0  0  0  0  0  0  0  0  0  0  0  0
   -9.4140   -6.2930  -25.0010 H   0  0  0  0  0  0  0  0  0  0  0  0
   -5.9400   -6.4430  -24.7590 C   0  0  0  0  0  0  0  0  0  0  0  0
   -5.8880   -7.0660  -23.8600 H   0  0  0  0  0  0  0  0  0  0  0  0
   -5.7720   -7.0810  -25.6350 H   0  0  0  0  0  0  0  0  0  0  0  0
   -5.1420   -5.6970  -24.7140 H   0  0  0  0  0  0  0  0  0  0  0  0
   -7.3290   -5.1350  -25.7590 H   0  0  0  0  0  0  0  0  0  0  0  0
   -9.0200   -3.8340  -24.5630 H   0  0  0  0  0  0  0  0  0  0  0  0
   -7.4140   -3.0840  -24.6440 H   0  0  0  0  0  0  0  0  0  0  0  0
   -8.9770   -3.5960  -22.0830 H   0  0  0  0  0  0  0  0  0  0  0  0
   -6.8060   -3.4000  -21.2010 H   0  0  0  0  0  0  0  0  0  0  0  0
   -6.2180   -2.4640  -22.5800 H   0  0  0  0  0  0  0  0  0  0  0  0
  -10.6370   -1.6370  -22.7090 C   0  0  0  0  0  0  0  0  0  0  0  0
  -11.2220   -2.5360  -21.8180 C   0  0  0  0  0  0  0  0  0  0  0  0
  -12.5890   -2.5470  -21.6480 C   0  0  0  0  0  0  0  0  0  0  0  0
  -13.0980   -3.3750  -20.7220 F   0  0  0  0  0  0  0  0  0  0  0  0
  -13.4350   -1.6950  -22.3510 C   0  0  0  0  0  0  0  0  0  0  0  0
  -12.8590   -0.7690  -23.1980 C   0  0  0  0  0  0  0  0  0  0  0  0
  -11.4720   -0.7120  -23.3550 C   0  0  0  0  0  0  0  0  0  0  0  0
  -10.8950    0.4150  -24.1560 C   0  0  0  0  0  0  0  0  0  0  0  0
  -11.5870    1.3180  -24.6010 O   0  0  0  0  0  0  0  0  0  0  0  0
  -13.4580   -0.0440  -23.7400 H   0  0  0  0  0  0  0  0  0  0  0  0
  -14.5070   -1.7430  -22.2000 H   0  0  0  0  0  0  0  0  0  0  0  0
  -10.6310   -3.2050  -21.2060 H   0  0  0  0  0  0  0  0  0  0  0  0
   -9.0510   -1.5530  -25.0080 H   0  0  0  0  0  0  0  0  0  0  0  0
   -7.7430   -0.6190  -24.2190 H   0  0  0  0  0  0  0  0  0  0  0  0
   -8.2500    1.2730  -25.7240 H   0  0  0  0  0  0  0  0  0  0  0  0
   -9.6110    2.2450  -25.1060 H   0  0  0  0  0  0  0  0  0  0  0  0
   -9.3470    2.8400  -22.6590 H   0  0  0  0  0  0  0  0  0  0  0  0
   -8.0230    3.8250  -21.0120 H   0  0  0  0  0  0  0  0  0  0  0  0
   -6.8540    2.5070  -21.4090 H   0  0  0  0  0  0  0  0  0  0  0  0
   -6.7470    4.0920  -22.2100 H   0  0  0  0  0  0  0  0  0  0  0  0
  1  2  1  0  0  0  0
  1 64  1  0  0  0  0
  1 65  1  0  0  0  0
  1 66  1  0  0  0  0
  2  3  1  0  0  0  0
  2 63  1  0  0  0  0
  3  4  2  0  0  0  0
  3  5  1  0  0  0  0
  5  6  1  0  0  0  0
  5 61  1  0  0  0  0
  5 62  1  0  0  0  0
  6  7  1  0  0  0  0
  6 54  1  0  0  0  0
  7  8  1  0  0  0  0
  7 59  1  0  0  0  0
  7 60  1  0  0  0  0
  8  9  1  1  0  0  0
  8 29  1  0  0  0  0
  8 47  1  0  0  0  0
  9 10  2  0  0  0  0
  9 11  1  0  0  0  0
 11 12  1  0  0  0  0
 11 28  1  0  0  0  0
 12 13  2  0  0  0  0
 12 21  1  0  0  0  0
 13 14  1  0  0  0  0
 13 27  1  0  0  0  0
 14 15  2  0  0  0  0
 15 16  1  0  0  0  0
 15 26  1  0  0  0  0
 16 17  2  0  0  0  0
 16 21  1  0  0  0  0
 17 18  1  0  0  0  0
 17 25  1  0  0  0  0
 18 19  2  0  0  0  0
 18 24  1  0  0  0  0
 19 20  1  0  0  0  0
 19 23  1  0  0  0  0
 20 21  2  0  0  0  0
 20 22  1  0  0  0  0
 28 29  1  0  0  0  0
 28 45  1  0  0  0  0
 28 46  1  0  0  0  0
 29 30  1  0  0  0  0
 29 44  1  1  0  0  0
 30 31  1  0  0  0  0
 30 42  1  0  0  0  0
 30 43  1  0  0  0  0
 31 32  1  0  0  0  0
 32 33  1  0  0  0  0
 32 37  1  0  0  0  0
 32 41  1  0  0  0  0
 33 34  1  0  0  0  0
 33 35  1  0  0  0  0
 33 36  1  0  0  0  0
 37 38  1  0  0  0  0
 37 39  1  0  0  0  0
 37 40  1  0  0  0  0
 47 48  2  0  0  0  0
 47 53  1  0  0  0  0
 48 49  1  0  0  0  0
 48 58  1  0  0  0  0
 49 50  1  0  0  0  0
 49 51  2  0  0  0  0
 51 52  1  0  0  0  0
 51 57  1  0  0  0  0
 52 53  2  0  0  0  0
 52 56  1  0  0  0  0
 53 54  1  0  0  0  0
 54 55  2  0  0  0  0
M  END
>  <MODEL>
       1

$$$$
