tmp_first_model_1_52.pdb
 OpenBabel08272517043D

 57 60  0  0  0  0  0  0  0  0999 V2000
   -2.8090   -4.2730  -29.7960 C   0  0  0  0  0  0  0  0  0  0  0  0
   -2.7760   -3.3240  -28.5960 C   0  0  0  0  0  0  0  0  0  0  0  0
   -3.9190   -3.5510  -27.6290 C   0  0  0  0  0  0  0  0  0  0  0  0
   -4.9840   -2.9680  -27.7180 O   0  0  0  0  0  0  0  0  0  0  0  0
   -3.6620   -4.4780  -26.6520 N   0  0  0  0  0  0  0  0  0  0  0  0
   -4.5150   -4.7310  -25.5620 C   0  0  0  0  0  0  0  0  0  0  0  0
   -4.5880   -6.0260  -25.0470 C   0  0  0  0  0  0  0  0  0  0  0  0
   -5.4420   -6.2960  -23.9860 C   0  0  0  0  0  0  0  0  0  0  0  0
   -6.1670   -5.2770  -23.3810 C   0  0  0  0  0  0  0  0  0  0  0  0
   -6.0430   -3.9790  -23.8710 C   0  0  0  0  0  0  0  0  0  0  0  0
   -6.7920   -2.9120  -23.2790 N   0  0  0  0  0  0  0  0  0  0  0  0
   -7.8240   -2.2610  -24.0910 C   0  0  0  0  0  0  0  0  0  0  0  0
   -9.2460   -2.6420  -23.7070 C   0  0  0  0  0  0  0  0  0  0  0  0
  -10.2600   -1.7140  -23.4870 C   0  0  0  0  0  0  0  0  0  0  0  0
  -11.5540   -2.1430  -23.2140 C   0  0  0  0  0  0  0  0  0  0  0  0
  -11.8450   -3.4900  -23.0630 C   0  0  0  0  0  0  0  0  0  0  0  0
  -10.8510   -4.4250  -23.3100 C   0  0  0  0  0  0  0  0  0  0  0  0
   -9.5800   -3.9960  -23.6650 C   0  0  0  0  0  0  0  0  0  0  0  0
   -8.8270   -4.7380  -23.9190 H   0  0  0  0  0  0  0  0  0  0  0  0
  -11.0720   -5.4870  -23.2480 H   0  0  0  0  0  0  0  0  0  0  0  0
  -12.8370   -3.8220  -22.7620 H   0  0  0  0  0  0  0  0  0  0  0  0
  -12.3430   -1.4070  -23.1640 H   0  0  0  0  0  0  0  0  0  0  0  0
  -10.0630   -0.6390  -23.5160 H   0  0  0  0  0  0  0  0  0  0  0  0
   -7.7000   -1.1670  -24.0950 H   0  0  0  0  0  0  0  0  0  0  0  0
   -7.6510   -2.6010  -25.1180 H   0  0  0  0  0  0  0  0  0  0  0  0
   -6.6090   -2.6890  -21.9250 C   0  0  0  0  0  0  0  0  0  0  0  0
   -5.8720   -3.3830  -21.2420 O   0  0  0  0  0  0  0  0  0  0  0  0
   -7.3550   -1.5050  -21.3080 C   0  0  0  0  0  0  0  0  0  0  0  0
   -6.5700   -0.8500  -20.2090 C   0  0  0  0  0  0  0  0  0  0  0  0
   -6.8850   -1.0770  -18.8990 C   0  0  0  0  0  0  0  0  0  0  0  0
   -6.2150   -0.5810  -17.8250 N   0  0  0  0  0  0  0  0  0  0  0  0
   -5.1880    0.1930  -18.0780 C   0  0  0  0  0  0  0  0  0  0  0  0
   -4.7350    0.5150  -19.3900 C   0  0  0  0  0  0  0  0  0  0  0  0
   -3.6080    1.3470  -19.6160 C   0  0  0  0  0  0  0  0  0  0  0  0
   -3.1940    1.6290  -20.8890 C   0  0  0  0  0  0  0  0  0  0  0  0
   -3.8900    1.0900  -21.9930 C   0  0  0  0  0  0  0  0  0  0  0  0
   -4.9850    0.2850  -21.8030 C   0  0  0  0  0  0  0  0  0  0  0  0
   -5.4410   -0.0240  -20.4920 C   0  0  0  0  0  0  0  0  0  0  0  0
   -5.5060   -0.1180  -22.6670 H   0  0  0  0  0  0  0  0  0  0  0  0
   -3.5550    1.3220  -23.0010 H   0  0  0  0  0  0  0  0  0  0  0  0
   -2.3330    2.2720  -21.0640 H   0  0  0  0  0  0  0  0  0  0  0  0
   -3.0880    1.7650  -18.7580 H   0  0  0  0  0  0  0  0  0  0  0  0
   -4.6480    0.6060  -17.2240 H   0  0  0  0  0  0  0  0  0  0  0  0
   -7.7370   -1.7130  -18.6600 H   0  0  0  0  0  0  0  0  0  0  0  0
   -7.6030   -0.7770  -22.0840 H   0  0  0  0  0  0  0  0  0  0  0  0
   -8.2990   -1.9010  -20.9080 H   0  0  0  0  0  0  0  0  0  0  0  0
   -5.2640   -3.7070  -24.9910 C   0  0  0  0  0  0  0  0  0  0  0  0
   -5.2360   -2.7080  -25.4160 H   0  0  0  0  0  0  0  0  0  0  0  0
   -6.8190   -5.4680  -22.5310 H   0  0  0  0  0  0  0  0  0  0  0  0
   -5.5360   -7.3090  -23.6120 H   0  0  0  0  0  0  0  0  0  0  0  0
   -4.0130   -6.8220  -25.5120 H   0  0  0  0  0  0  0  0  0  0  0  0
   -2.8270   -5.0370  -26.7190 H   0  0  0  0  0  0  0  0  0  0  0  0
   -1.8200   -3.4090  -28.0620 H   0  0  0  0  0  0  0  0  0  0  0  0
   -2.8780   -2.2990  -28.9520 H   0  0  0  0  0  0  0  0  0  0  0  0
   -2.6580   -5.3120  -29.4890 H   0  0  0  0  0  0  0  0  0  0  0  0
   -2.0070   -4.0070  -30.4940 H   0  0  0  0  0  0  0  0  0  0  0  0
   -3.7640   -4.2160  -30.3290 H   0  0  0  0  0  0  0  0  0  0  0  0
  1  2  1  0  0  0  0
  1 55  1  0  0  0  0
  1 56  1  0  0  0  0
  1 57  1  0  0  0  0
  2  3  1  0  0  0  0
  2 53  1  0  0  0  0
  2 54  1  0  0  0  0
  3  4  2  0  0  0  0
  3  5  1  0  0  0  0
  5  6  1  0  0  0  0
  5 52  1  0  0  0  0
  6  7  2  0  0  0  0
  6 47  1  0  0  0  0
  7  8  1  0  0  0  0
  7 51  1  0  0  0  0
  8  9  2  0  0  0  0
  8 50  1  0  0  0  0
  9 10  1  0  0  0  0
  9 49  1  0  0  0  0
 10 11  1  0  0  0  0
 10 47  2  0  0  0  0
 11 12  1  0  0  0  0
 11 26  1  0  0  0  0
 12 13  1  0  0  0  0
 12 24  1  0  0  0  0
 12 25  1  0  0  0  0
 13 14  2  0  0  0  0
 13 18  1  0  0  0  0
 14 15  1  0  0  0  0
 14 23  1  0  0  0  0
 15 16  2  0  0  0  0
 15 22  1  0  0  0  0
 16 17  1  0  0  0  0
 16 21  1  0  0  0  0
 17 18  2  0  0  0  0
 17 20  1  0  0  0  0
 18 19  1  0  0  0  0
 26 27  2  0  0  0  0
 26 28  1  0  0  0  0
 28 29  1  0  0  0  0
 28 45  1  0  0  0  0
 28 46  1  0  0  0  0
 29 30  2  0  0  0  0
 29 38  1  0  0  0  0
 30 31  1  0  0  0  0
 30 44  1  0  0  0  0
 31 32  2  0  0  0  0
 32 33  1  0  0  0  0
 32 43  1  0  0  0  0
 33 34  2  0  0  0  0
 33 38  1  0  0  0  0
 34 35  1  0  0  0  0
 34 42  1  0  0  0  0
 35 36  2  0  0  0  0
 35 41  1  0  0  0  0
 36 37  1  0  0  0  0
 36 40  1  0  0  0  0
 37 38  2  0  0  0  0
 37 39  1  0  0  0  0
 47 48  1  0  0  0  0
M  END
>  <MODEL>
       1

$$$$
