tmp_first_model_4_64.pdb
 OpenBabel08272518513D

 55 60  0  0  1  0  0  0  0  0999 V2000
   -7.9320   -3.6370  -24.0440 C   0  0  0  0  0  0  0  0  0  0  0  0
   -8.3130   -2.8450  -22.8010 C   0  0  1  0  0  0  0  0  0  0  0  0
   -7.1030   -2.6430  -21.8830 C   0  0  0  0  0  0  0  0  0  0  0  0
   -7.4040   -1.4210  -21.1840 N   0  0  0  0  0  0  0  0  0  0  0  0
   -6.5140   -0.9560  -20.1870 C   0  0  0  0  0  0  0  0  0  0  0  0
   -6.7550   -1.2600  -18.8770 C   0  0  0  0  0  0  0  0  0  0  0  0
   -5.9000   -0.9950  -17.8590 N   0  0  0  0  0  0  0  0  0  0  0  0
   -4.7770   -0.3910  -18.1540 C   0  0  0  0  0  0  0  0  0  0  0  0
   -4.4290    0.0250  -19.4690 C   0  0  0  0  0  0  0  0  0  0  0  0
   -3.2640    0.7890  -19.7250 C   0  0  0  0  0  0  0  0  0  0  0  0
   -3.0320    1.2980  -20.9720 C   0  0  0  0  0  0  0  0  0  0  0  0
   -3.9010    0.9840  -22.0430 C   0  0  0  0  0  0  0  0  0  0  0  0
   -5.0010    0.1900  -21.8340 C   0  0  0  0  0  0  0  0  0  0  0  0
   -5.3140   -0.2650  -20.5270 C   0  0  0  0  0  0  0  0  0  0  0  0
   -5.6490   -0.0700  -22.6660 H   0  0  0  0  0  0  0  0  0  0  0  0
   -3.7130    1.3970  -23.0290 H   0  0  0  0  0  0  0  0  0  0  0  0
   -2.1770    1.9470  -21.1460 H   0  0  0  0  0  0  0  0  0  0  0  0
   -2.6220    1.0180  -18.8790 H   0  0  0  0  0  0  0  0  0  0  0  0
   -4.0680   -0.1900  -17.3470 H   0  0  0  0  0  0  0  0  0  0  0  0
   -7.6860   -1.7680  -18.6310 H   0  0  0  0  0  0  0  0  0  0  0  0
   -8.3740   -0.6440  -21.7790 C   0  0  0  0  0  0  0  0  0  0  0  0
   -8.7050    0.4530  -21.3890 O   0  0  0  0  0  0  0  0  0  0  0  0
   -8.9270   -1.4230  -23.0060 C   0  0  1  0  0  0  0  0  0  0  0  0
   -8.4130   -0.7880  -24.3280 C   0  0  0  0  0  0  0  0  0  0  0  0
   -9.0620    0.4710  -24.6420 N   0  0  0  0  0  0  0  0  0  0  0  0
   -8.2830    1.6430  -25.0140 C   0  0  0  0  0  0  0  0  0  0  0  0
   -8.0200    2.5250  -23.8230 C   0  0  0  0  0  0  0  0  0  0  0  0
   -6.8340    2.5150  -23.1450 N   0  0  0  0  0  0  0  0  0  0  0  0
   -7.0470    3.3830  -22.1760 C   0  0  0  0  0  0  0  0  0  0  0  0
   -8.2800    3.9060  -22.2850 N   0  0  0  0  0  0  0  0  0  0  0  0
   -8.9210    3.3530  -23.3370 N   0  0  0  0  0  0  0  0  0  0  0  0
   -8.7920    4.4710  -21.6210 H   0  0  0  0  0  0  0  0  0  0  0  0
   -6.3440    3.6850  -21.4160 H   0  0  0  0  0  0  0  0  0  0  0  0
   -8.8420    2.1940  -25.7760 H   0  0  0  0  0  0  0  0  0  0  0  0
   -7.3320    1.3160  -25.4470 H   0  0  0  0  0  0  0  0  0  0  0  0
  -10.4260    0.5940  -24.6020 C   0  0  0  0  0  0  0  0  0  0  0  0
  -11.0190    1.5060  -25.1670 O   0  0  0  0  0  0  0  0  0  0  0  0
  -11.1470   -0.4350  -23.7900 C   0  0  0  0  0  0  0  0  0  0  0  0
  -12.5420   -0.3800  -23.7710 C   0  0  0  0  0  0  0  0  0  0  0  0
  -13.2750   -1.2150  -22.9540 C   0  0  0  0  0  0  0  0  0  0  0  0
  -12.5670   -2.0920  -22.1420 C   0  0  0  0  0  0  0  0  0  0  0  0
  -13.2580   -2.8880  -21.3120 F   0  0  0  0  0  0  0  0  0  0  0  0
  -11.1890   -2.1760  -22.1470 C   0  0  0  0  0  0  0  0  0  0  0  0
  -10.4470   -1.3670  -23.0130 C   0  0  0  0  0  0  0  0  0  0  0  0
  -10.7120   -2.8610  -21.4560 H   0  0  0  0  0  0  0  0  0  0  0  0
  -14.3590   -1.1770  -22.9100 H   0  0  0  0  0  0  0  0  0  0  0  0
  -13.0310    0.3540  -24.3970 H   0  0  0  0  0  0  0  0  0  0  0  0
   -7.3290   -0.6240  -24.2680 H   0  0  0  0  0  0  0  0  0  0  0  0
   -8.6030   -1.4940  -25.1460 H   0  0  0  0  0  0  0  0  0  0  0  0
   -6.1600   -2.5730  -22.4540 H   0  0  0  0  0  0  0  0  0  0  0  0
   -6.9910   -3.4560  -21.1600 H   0  0  0  0  0  0  0  0  0  0  0  0
   -9.0450   -3.4380  -22.2470 H   0  0  0  0  0  0  0  0  0  0  0  0
   -7.1240   -3.1350  -24.5900 H   0  0  0  0  0  0  0  0  0  0  0  0
   -8.7790   -3.7750  -24.7230 H   0  0  0  0  0  0  0  0  0  0  0  0
   -7.5640   -4.6230  -23.7450 H   0  0  0  0  0  0  0  0  0  0  0  0
  1  2  1  0  0  0  0
  1 53  1  0  0  0  0
  1 54  1  0  0  0  0
  1 55  1  0  0  0  0
  2  3  1  0  0  0  0
  2 23  1  0  0  0  0
  2 52  1  1  0  0  0
  3  4  1  0  0  0  0
  3 50  1  0  0  0  0
  3 51  1  0  0  0  0
  4  5  1  0  0  0  0
  4 21  1  0  0  0  0
  5  6  2  0  0  0  0
  5 14  1  0  0  0  0
  6  7  1  0  0  0  0
  6 20  1  0  0  0  0
  7  8  2  0  0  0  0
  8  9  1  0  0  0  0
  8 19  1  0  0  0  0
  9 10  2  0  0  0  0
  9 14  1  0  0  0  0
 10 11  1  0  0  0  0
 10 18  1  0  0  0  0
 11 12  2  0  0  0  0
 11 17  1  0  0  0  0
 12 13  1  0  0  0  0
 12 16  1  0  0  0  0
 13 14  2  0  0  0  0
 13 15  1  0  0  0  0
 21 22  2  0  0  0  0
 23 21  1  1  0  0  0
 23 24  1  0  0  0  0
 23 44  1  0  0  0  0
 24 25  1  0  0  0  0
 24 48  1  0  0  0  0
 24 49  1  0  0  0  0
 25 26  1  0  0  0  0
 25 36  1  0  0  0  0
 26 27  1  0  0  0  0
 26 34  1  0  0  0  0
 26 35  1  0  0  0  0
 27 28  1  0  0  0  0
 27 31  2  0  0  0  0
 28 29  2  0  0  0  0
 29 30  1  0  0  0  0
 29 33  1  0  0  0  0
 30 31  1  0  0  0  0
 30 32  1  0  0  0  0
 36 37  2  0  0  0  0
 36 38  1  0  0  0  0
 38 39  2  0  0  0  0
 38 44  1  0  0  0  0
 39 40  1  0  0  0  0
 39 47  1  0  0  0  0
 40 41  2  0  0  0  0
 40 46  1  0  0  0  0
 41 42  1  0  0  0  0
 41 43  1  0  0  0  0
 43 44  2  0  0  0  0
 43 45  1  0  0  0  0
M  END
>  <MODEL>
       1

$$$$
