tmp_first_model_8_45.pdb
 OpenBabel08272521063D

 66 71  0  0  1  0  0  0  0  0999 V2000
   -7.3620    3.3600  -21.8410 C   0  0  0  0  0  0  0  0  0  0  0  0
   -8.2880    2.9150  -22.8690 N   0  0  0  0  0  0  0  0  0  0  0  0
   -7.7480    2.1990  -23.8960 C   0  0  0  0  0  0  0  0  0  0  0  0
   -6.5430    2.0340  -24.0210 O   0  0  0  0  0  0  0  0  0  0  0  0
   -8.7290    1.5970  -24.9010 C   0  0  0  0  0  0  0  0  0  0  0  0
   -9.4080    0.4500  -24.3350 N   0  0  0  0  0  0  0  0  0  0  0  0
   -8.6720   -0.7910  -24.1700 C   0  0  0  0  0  0  0  0  0  0  0  0
   -9.0610   -1.5280  -22.8640 C   0  0  2  0  0  0  0  0  0  0  0  0
   -8.5310   -0.7480  -21.6360 C   0  0  0  0  0  0  0  0  0  0  0  0
   -8.9950    0.2550  -21.1390 O   0  0  0  0  0  0  0  0  0  0  0  0
   -7.4020   -1.3890  -21.1850 N   0  0  0  0  0  0  0  0  0  0  0  0
   -6.6060   -0.8160  -20.1670 C   0  0  0  0  0  0  0  0  0  0  0  0
   -6.9250   -1.0500  -18.8580 C   0  0  0  0  0  0  0  0  0  0  0  0
   -6.2240   -0.5690  -17.8040 N   0  0  0  0  0  0  0  0  0  0  0  0
   -5.1900    0.1930  -18.0710 C   0  0  0  0  0  0  0  0  0  0  0  0
   -4.7590    0.5300  -19.3860 C   0  0  0  0  0  0  0  0  0  0  0  0
   -3.6370    1.3650  -19.6270 C   0  0  0  0  0  0  0  0  0  0  0  0
   -3.2690    1.6860  -20.9040 C   0  0  0  0  0  0  0  0  0  0  0  0
   -4.0060    1.1940  -22.0040 C   0  0  0  0  0  0  0  0  0  0  0  0
   -5.0800    0.3620  -21.8010 C   0  0  0  0  0  0  0  0  0  0  0  0
   -5.4860    0.0090  -20.4840 C   0  0  0  0  0  0  0  0  0  0  0  0
   -5.6370   -0.0060  -22.6590 H   0  0  0  0  0  0  0  0  0  0  0  0
   -3.7150    1.4620  -23.0150 H   0  0  0  0  0  0  0  0  0  0  0  0
   -2.4050    2.3160  -21.0830 H   0  0  0  0  0  0  0  0  0  0  0  0
   -3.0930    1.7530  -18.7700 H   0  0  0  0  0  0  0  0  0  0  0  0
   -4.6250    0.5840  -17.2230 H   0  0  0  0  0  0  0  0  0  0  0  0
   -7.7930   -1.6620  -18.6240 H   0  0  0  0  0  0  0  0  0  0  0  0
   -7.0430   -2.5760  -21.9260 C   0  0  0  0  0  0  0  0  0  0  0  0
   -8.3130   -2.8970  -22.7260 C   0  0  2  0  0  0  0  0  0  0  0  0
   -8.0070   -3.6810  -24.0190 C   0  0  0  0  0  0  0  0  0  0  0  0
   -7.4140   -5.0590  -23.8050 C   0  0  0  0  0  0  0  0  0  0  0  0
   -8.2460   -6.1730  -23.6770 C   0  0  0  0  0  0  0  0  0  0  0  0
   -7.7290   -7.4460  -23.4510 C   0  0  0  0  0  0  0  0  0  0  0  0
   -6.3600   -7.6350  -23.3190 C   0  0  0  0  0  0  0  0  0  0  0  0
   -5.5150   -6.5420  -23.4850 C   0  0  0  0  0  0  0  0  0  0  0  0
   -6.0340   -5.2760  -23.7470 C   0  0  0  0  0  0  0  0  0  0  0  0
   -5.3460   -4.4460  -23.9060 H   0  0  0  0  0  0  0  0  0  0  0  0
   -4.4420   -6.6830  -23.4160 H   0  0  0  0  0  0  0  0  0  0  0  0
   -5.9460   -8.6140  -23.0920 H   0  0  0  0  0  0  0  0  0  0  0  0
   -8.4260   -8.2800  -23.3900 H   0  0  0  0  0  0  0  0  0  0  0  0
   -9.3250   -6.0610  -23.7600 H   0  0  0  0  0  0  0  0  0  0  0  0
   -8.9340   -3.7870  -24.5950 H   0  0  0  0  0  0  0  0  0  0  0  0
   -7.3130   -3.0940  -24.6340 H   0  0  0  0  0  0  0  0  0  0  0  0
   -8.9450   -3.5310  -22.1020 H   0  0  0  0  0  0  0  0  0  0  0  0
   -6.7680   -3.3890  -21.2480 H   0  0  0  0  0  0  0  0  0  0  0  0
   -6.1890   -2.3980  -22.6000 H   0  0  0  0  0  0  0  0  0  0  0  0
  -10.5720   -1.5890  -22.8050 C   0  0  0  0  0  0  0  0  0  0  0  0
  -11.2100   -2.5030  -21.9680 C   0  0  0  0  0  0  0  0  0  0  0  0
  -12.5890   -2.5080  -21.8780 C   0  0  0  0  0  0  0  0  0  0  0  0
  -13.3480   -3.6060  -20.7710 Cl  0  0  0  0  0  0  0  0  0  0  0  0
  -13.3870   -1.6370  -22.6170 C   0  0  0  0  0  0  0  0  0  0  0  0
  -12.7590   -0.7010  -23.4090 C   0  0  0  0  0  0  0  0  0  0  0  0
  -11.3710   -0.6470  -23.4670 C   0  0  0  0  0  0  0  0  0  0  0  0
  -10.7610    0.5060  -24.1880 C   0  0  0  0  0  0  0  0  0  0  0  0
  -11.4290    1.4530  -24.5880 O   0  0  0  0  0  0  0  0  0  0  0  0
  -13.3160    0.0330  -23.9780 H   0  0  0  0  0  0  0  0  0  0  0  0
  -14.4680   -1.6800  -22.5340 H   0  0  0  0  0  0  0  0  0  0  0  0
  -10.6430   -3.2010  -21.3620 H   0  0  0  0  0  0  0  0  0  0  0  0
   -8.8830   -1.4600  -25.0150 H   0  0  0  0  0  0  0  0  0  0  0  0
   -7.6020   -0.5600  -24.1780 H   0  0  0  0  0  0  0  0  0  0  0  0
   -9.5070    2.3100  -25.1990 H   0  0  0  0  0  0  0  0  0  0  0  0
   -8.1460    1.3000  -25.7780 H   0  0  0  0  0  0  0  0  0  0  0  0
   -9.2500    2.7520  -22.5850 H   0  0  0  0  0  0  0  0  0  0  0  0
   -6.6970    4.1310  -22.2440 H   0  0  0  0  0  0  0  0  0  0  0  0
   -7.9100    3.7850  -20.9990 H   0  0  0  0  0  0  0  0  0  0  0  0
   -6.7440    2.5150  -21.5050 H   0  0  0  0  0  0  0  0  0  0  0  0
  1  2  1  0  0  0  0
  1 64  1  0  0  0  0
  1 65  1  0  0  0  0
  1 66  1  0  0  0  0
  2  3  1  0  0  0  0
  2 63  1  0  0  0  0
  3  4  2  0  0  0  0
  3  5  1  0  0  0  0
  5  6  1  0  0  0  0
  5 61  1  0  0  0  0
  5 62  1  0  0  0  0
  6  7  1  0  0  0  0
  6 54  1  0  0  0  0
  7  8  1  0  0  0  0
  7 59  1  0  0  0  0
  7 60  1  0  0  0  0
  8  9  1  1  0  0  0
  8 29  1  0  0  0  0
  8 47  1  0  0  0  0
  9 10  2  0  0  0  0
  9 11  1  0  0  0  0
 11 12  1  0  0  0  0
 11 28  1  0  0  0  0
 12 13  2  0  0  0  0
 12 21  1  0  0  0  0
 13 14  1  0  0  0  0
 13 27  1  0  0  0  0
 14 15  2  0  0  0  0
 15 16  1  0  0  0  0
 15 26  1  0  0  0  0
 16 17  2  0  0  0  0
 16 21  1  0  0  0  0
 17 18  1  0  0  0  0
 17 25  1  0  0  0  0
 18 19  2  0  0  0  0
 18 24  1  0  0  0  0
 19 20  1  0  0  0  0
 19 23  1  0  0  0  0
 20 21  2  0  0  0  0
 20 22  1  0  0  0  0
 28 29  1  0  0  0  0
 28 45  1  0  0  0  0
 28 46  1  0  0  0  0
 29 30  1  0  0  0  0
 29 44  1  1  0  0  0
 30 31  1  0  0  0  0
 30 42  1  0  0  0  0
 30 43  1  0  0  0  0
 31 32  2  0  0  0  0
 31 36  1  0  0  0  0
 32 33  1  0  0  0  0
 32 41  1  0  0  0  0
 33 34  2  0  0  0  0
 33 40  1  0  0  0  0
 34 35  1  0  0  0  0
 34 39  1  0  0  0  0
 35 36  2  0  0  0  0
 35 38  1  0  0  0  0
 36 37  1  0  0  0  0
 47 48  2  0  0  0  0
 47 53  1  0  0  0  0
 48 49  1  0  0  0  0
 48 58  1  0  0  0  0
 49 50  1  0  0  0  0
 49 51  2  0  0  0  0
 51 52  1  0  0  0  0
 51 57  1  0  0  0  0
 52 53  2  0  0  0  0
 52 56  1  0  0  0  0
 53 54  1  0  0  0  0
 54 55  2  0  0  0  0
M  END
>  <MODEL>
       1

$$$$
