tmp_first_model_17_28.pdb
 OpenBabel08282502223D

 64 68  0  0  1  0  0  0  0  0999 V2000
   -5.2560   -3.8910  -19.3400 C   0  0  0  0  0  0  0  0  0  0  0  0
   -6.4180   -4.5960  -19.8290 N   0  0  0  0  0  0  0  0  0  0  0  0
   -6.2570   -5.7350  -20.5580 C   0  0  0  0  0  0  0  0  0  0  0  0
   -5.1810   -6.3090  -20.6050 O   0  0  0  0  0  0  0  0  0  0  0  0
   -7.4700   -6.2440  -21.3630 C   0  0  0  0  0  0  0  0  0  0  0  0
   -7.8240   -5.3600  -22.4640 N   0  0  0  0  0  0  0  0  0  0  0  0
   -8.6950   -4.2040  -22.2980 C   0  0  0  0  0  0  0  0  0  0  0  0
   -8.1090   -2.9100  -22.9540 C   0  0  2  0  0  0  0  0  0  0  0  0
   -6.9210   -2.3920  -22.1120 C   0  0  0  0  0  0  0  0  0  0  0  0
   -5.7740   -2.7880  -22.1480 O   0  0  0  0  0  0  0  0  0  0  0  0
   -7.3750   -1.4030  -21.2630 N   0  0  0  0  0  0  0  0  0  0  0  0
   -6.5980   -0.8490  -20.2270 C   0  0  0  0  0  0  0  0  0  0  0  0
   -6.9740   -1.0380  -18.9180 C   0  0  0  0  0  0  0  0  0  0  0  0
   -6.2860   -0.5690  -17.8520 N   0  0  0  0  0  0  0  0  0  0  0  0
   -5.2150    0.1500  -18.0960 C   0  0  0  0  0  0  0  0  0  0  0  0
   -4.7490    0.4630  -19.4040 C   0  0  0  0  0  0  0  0  0  0  0  0
   -3.6260    1.3070  -19.6100 C   0  0  0  0  0  0  0  0  0  0  0  0
   -3.2360    1.6440  -20.8760 C   0  0  0  0  0  0  0  0  0  0  0  0
   -3.9400    1.1490  -21.9970 C   0  0  0  0  0  0  0  0  0  0  0  0
   -5.0220    0.3210  -21.8280 C   0  0  0  0  0  0  0  0  0  0  0  0
   -5.4540   -0.0410  -20.5180 C   0  0  0  0  0  0  0  0  0  0  0  0
   -5.5580   -0.0620  -22.6920 H   0  0  0  0  0  0  0  0  0  0  0  0
   -3.6170    1.4250  -22.9970 H   0  0  0  0  0  0  0  0  0  0  0  0
   -2.3810    2.2970  -21.0330 H   0  0  0  0  0  0  0  0  0  0  0  0
   -3.1030    1.6920  -18.7390 H   0  0  0  0  0  0  0  0  0  0  0  0
   -4.6650    0.5310  -17.2380 H   0  0  0  0  0  0  0  0  0  0  0  0
   -7.8510   -1.6400  -18.6820 H   0  0  0  0  0  0  0  0  0  0  0  0
   -8.7970   -1.1570  -21.3900 C   0  0  0  0  0  0  0  0  0  0  0  0
   -9.0870   -1.7100  -22.7940 C   0  0  2  0  0  0  0  0  0  0  0  0
  -10.5540   -2.0560  -23.0130 C   0  0  0  0  0  0  0  0  0  0  0  0
  -11.6320   -0.6510  -23.2410 S   0  0  0  0  0  0  0  0  0  0  0  0
  -11.5030    0.2770  -22.1300 O   0  0  0  0  0  0  0  0  0  0  0  0
  -12.9400   -1.1750  -23.6030 O   0  0  0  0  0  0  0  0  0  0  0  0
  -10.9190    0.1500  -24.5250 N   0  0  0  0  0  0  0  0  0  0  0  0
  -11.0670   -0.3880  -25.8710 C   0  0  0  0  0  0  0  0  0  0  0  0
  -10.7080    0.3800  -26.5600 H   0  0  0  0  0  0  0  0  0  0  0  0
  -10.4120   -1.2600  -25.9790 H   0  0  0  0  0  0  0  0  0  0  0  0
  -12.1000   -0.6630  -26.1200 H   0  0  0  0  0  0  0  0  0  0  0  0
  -11.1700    1.1280  -24.4170 H   0  0  0  0  0  0  0  0  0  0  0  0
  -10.6990   -2.6890  -23.8970 H   0  0  0  0  0  0  0  0  0  0  0  0
  -10.9600   -2.5800  -22.1370 H   0  0  0  0  0  0  0  0  0  0  0  0
   -8.7790   -0.9310  -23.4990 H   0  0  0  0  0  0  0  0  0  0  0  0
   -9.3780   -1.7090  -20.6380 H   0  0  0  0  0  0  0  0  0  0  0  0
   -9.0320   -0.0940  -21.2920 H   0  0  0  0  0  0  0  0  0  0  0  0
   -7.6950   -3.2500  -24.3750 C   0  0  0  0  0  0  0  0  0  0  0  0
   -7.6300   -2.2870  -25.3960 C   0  0  0  0  0  0  0  0  0  0  0  0
   -7.1770   -2.6390  -26.6600 C   0  0  0  0  0  0  0  0  0  0  0  0
   -7.1000   -1.4080  -27.9030 Cl  0  0  0  0  0  0  0  0  0  0  0  0
   -6.7740   -3.9400  -26.9640 C   0  0  0  0  0  0  0  0  0  0  0  0
   -6.8220   -4.8890  -25.9640 C   0  0  0  0  0  0  0  0  0  0  0  0
   -7.2760   -4.5500  -24.6890 C   0  0  0  0  0  0  0  0  0  0  0  0
   -7.2220   -5.6340  -23.6640 C   0  0  0  0  0  0  0  0  0  0  0  0
   -6.6500   -6.6910  -23.8850 O   0  0  0  0  0  0  0  0  0  0  0  0
   -6.5040   -5.9130  -26.1390 H   0  0  0  0  0  0  0  0  0  0  0  0
   -6.4280   -4.1900  -27.9630 H   0  0  0  0  0  0  0  0  0  0  0  0
   -7.9070   -1.2530  -25.2200 H   0  0  0  0  0  0  0  0  0  0  0  0
   -8.8750   -4.0350  -21.2330 H   0  0  0  0  0  0  0  0  0  0  0  0
   -9.6680   -4.4090  -22.7620 H   0  0  0  0  0  0  0  0  0  0  0  0
   -7.1460   -7.1760  -21.8310 H   0  0  0  0  0  0  0  0  0  0  0  0
   -8.3580   -6.4420  -20.7520 H   0  0  0  0  0  0  0  0  0  0  0  0
   -7.2860   -4.0810  -19.8790 H   0  0  0  0  0  0  0  0  0  0  0  0
   -4.5850   -4.6370  -18.9380 H   0  0  0  0  0  0  0  0  0  0  0  0
   -4.7700   -3.3470  -20.1540 H   0  0  0  0  0  0  0  0  0  0  0  0
   -5.5480   -3.1900  -18.5560 H   0  0  0  0  0  0  0  0  0  0  0  0
  1  2  1  0  0  0  0
  1 62  1  0  0  0  0
  1 63  1  0  0  0  0
  1 64  1  0  0  0  0
  2  3  1  0  0  0  0
  2 61  1  0  0  0  0
  3  4  2  0  0  0  0
  3  5  1  0  0  0  0
  5  6  1  0  0  0  0
  5 59  1  0  0  0  0
  5 60  1  0  0  0  0
  6  7  1  0  0  0  0
  6 52  1  0  0  0  0
  7  8  1  0  0  0  0
  7 57  1  0  0  0  0
  7 58  1  0  0  0  0
  8  9  1  1  0  0  0
  8 29  1  0  0  0  0
  8 45  1  0  0  0  0
  9 10  2  0  0  0  0
  9 11  1  0  0  0  0
 11 12  1  0  0  0  0
 11 28  1  0  0  0  0
 12 13  2  0  0  0  0
 12 21  1  0  0  0  0
 13 14  1  0  0  0  0
 13 27  1  0  0  0  0
 14 15  2  0  0  0  0
 15 16  1  0  0  0  0
 15 26  1  0  0  0  0
 16 17  2  0  0  0  0
 16 21  1  0  0  0  0
 17 18  1  0  0  0  0
 17 25  1  0  0  0  0
 18 19  2  0  0  0  0
 18 24  1  0  0  0  0
 19 20  1  0  0  0  0
 19 23  1  0  0  0  0
 20 21  2  0  0  0  0
 20 22  1  0  0  0  0
 28 29  1  0  0  0  0
 28 43  1  0  0  0  0
 28 44  1  0  0  0  0
 29 30  1  0  0  0  0
 29 42  1  6  0  0  0
 30 31  1  0  0  0  0
 30 40  1  0  0  0  0
 30 41  1  0  0  0  0
 31 32  2  0  0  0  0
 31 33  2  0  0  0  0
 31 34  1  0  0  0  0
 34 35  1  0  0  0  0
 34 39  1  0  0  0  0
 35 36  1  0  0  0  0
 35 37  1  0  0  0  0
 35 38  1  0  0  0  0
 45 46  2  0  0  0  0
 45 51  1  0  0  0  0
 46 47  1  0  0  0  0
 46 56  1  0  0  0  0
 47 48  1  0  0  0  0
 47 49  2  0  0  0  0
 49 50  1  0  0  0  0
 49 55  1  0  0  0  0
 50 51  2  0  0  0  0
 50 54  1  0  0  0  0
 51 52  1  0  0  0  0
 52 53  2  0  0  0  0
M  END
>  <MODEL>
       1

$$$$
