tmp_first_model_12_21.pdb
 OpenBabel08272523333D

 63 68  0  0  1  0  0  0  0  0999 V2000
   -8.1900   -4.0520  -23.6450 C   0  0  0  0  0  0  0  0  0  0  0  0
   -8.2860   -3.2830  -22.3330 C   0  0  1  0  0  0  0  0  0  0  0  0
   -6.9670   -2.6210  -21.8940 C   0  0  0  0  0  0  0  0  0  0  0  0
   -7.3500   -1.3880  -21.2130 N   0  0  0  0  0  0  0  0  0  0  0  0
   -6.5820   -0.8060  -20.1660 C   0  0  0  0  0  0  0  0  0  0  0  0
   -6.8990   -1.0460  -18.8520 C   0  0  0  0  0  0  0  0  0  0  0  0
   -6.1980   -0.5490  -17.8010 N   0  0  0  0  0  0  0  0  0  0  0  0
   -5.1610    0.2130  -18.0650 C   0  0  0  0  0  0  0  0  0  0  0  0
   -4.7240    0.5390  -19.3820 C   0  0  0  0  0  0  0  0  0  0  0  0
   -3.5990    1.3710  -19.6260 C   0  0  0  0  0  0  0  0  0  0  0  0
   -3.2380    1.6860  -20.9070 C   0  0  0  0  0  0  0  0  0  0  0  0
   -4.0010    1.2150  -21.9970 C   0  0  0  0  0  0  0  0  0  0  0  0
   -5.0850    0.3910  -21.7880 C   0  0  0  0  0  0  0  0  0  0  0  0
   -5.4620    0.0260  -20.4720 C   0  0  0  0  0  0  0  0  0  0  0  0
   -5.6160   -0.0460  -22.6290 H   0  0  0  0  0  0  0  0  0  0  0  0
   -3.6620    1.4100  -23.0110 H   0  0  0  0  0  0  0  0  0  0  0  0
   -2.3600    2.2960  -21.1010 H   0  0  0  0  0  0  0  0  0  0  0  0
   -3.0500    1.7690  -18.7770 H   0  0  0  0  0  0  0  0  0  0  0  0
   -4.6080    0.6220  -17.2180 H   0  0  0  0  0  0  0  0  0  0  0  0
   -7.7580   -1.6800  -18.6060 H   0  0  0  0  0  0  0  0  0  0  0  0
   -8.6830   -1.0320  -21.3430 C   0  0  0  0  0  0  0  0  0  0  0  0
   -9.1060    0.0490  -20.9740 O   0  0  0  0  0  0  0  0  0  0  0  0
   -9.3600   -2.0350  -22.2590 C   0  0  1  0  0  0  0  0  0  0  0  0
   -9.5570   -1.3270  -23.7040 C   0  0  0  0  0  0  0  0  0  0  0  0
  -10.4460   -2.0290  -24.6630 N   0  0  0  0  0  0  0  0  0  0  0  0
  -10.2070   -1.9320  -26.0940 C   0  0  0  0  0  0  0  0  0  0  0  0
   -9.3140   -3.0300  -26.6960 C   0  0  0  0  0  0  0  0  0  0  0  0
   -8.1750   -2.7800  -27.0640 O   0  0  0  0  0  0  0  0  0  0  0  0
   -9.8570   -4.2740  -26.7870 N   0  0  0  0  0  0  0  0  0  0  0  0
   -9.0070   -5.3950  -27.1610 C   0  0  0  0  0  0  0  0  0  0  0  0
   -9.7160   -6.7210  -27.0410 C   0  0  0  0  0  0  0  0  0  0  0  0
   -8.8990   -7.9570  -26.7970 C   0  0  0  0  0  0  0  0  0  0  0  0
   -9.7580   -7.3980  -25.7000 C   0  0  0  0  0  0  0  0  0  0  0  0
  -10.6430   -7.9550  -25.4300 H   0  0  0  0  0  0  0  0  0  0  0  0
   -9.2650   -6.8970  -24.8670 H   0  0  0  0  0  0  0  0  0  0  0  0
   -7.8190   -7.8560  -26.7000 H   0  0  0  0  0  0  0  0  0  0  0  0
   -9.2220   -8.8870  -27.2580 H   0  0  0  0  0  0  0  0  0  0  0  0
  -10.5870   -6.8520  -27.6870 H   0  0  0  0  0  0  0  0  0  0  0  0
   -8.6240   -5.2400  -28.1770 H   0  0  0  0  0  0  0  0  0  0  0  0
   -8.1200   -5.4080  -26.5060 H   0  0  0  0  0  0  0  0  0  0  0  0
  -10.8090   -4.4370  -26.4710 H   0  0  0  0  0  0  0  0  0  0  0  0
  -11.1270   -1.9120  -26.6830 H   0  0  0  0  0  0  0  0  0  0  0  0
   -9.7170   -0.9730  -26.3000 H   0  0  0  0  0  0  0  0  0  0  0  0
  -11.4060   -2.8660  -24.1040 C   0  0  0  0  0  0  0  0  0  0  0  0
  -11.8550   -3.7970  -24.7550 O   0  0  0  0  0  0  0  0  0  0  0  0
  -11.8480   -2.6360  -22.7430 C   0  0  0  0  0  0  0  0  0  0  0  0
  -12.8500   -3.5740  -22.2510 C   0  0  0  0  0  0  0  0  0  0  0  0
  -13.3460   -3.7770  -20.7760 C   0  0  0  0  0  0  0  0  0  0  0  0
  -13.2110   -3.4380  -20.9780 C   0  0  0  0  0  0  0  0  0  0  0  0
  -13.0360   -4.5290  -19.7560 F   0  0  0  0  0  0  0  0  0  0  0  0
  -10.7810   -2.2860  -21.6890 C   0  0  0  0  0  0  0  0  0  0  0  0
  -10.7990   -2.2800  -21.6900 C   0  0  0  0  0  0  0  0  0  0  0  0
   -9.5020   -2.3900  -20.1240 H   0  0  0  0  0  0  0  0  0  0  0  0
  -14.4580   -3.6850  -20.6940 H   0  0  0  0  0  0  0  0  0  0  0  0
  -13.5040   -3.6230  -23.1170 H   0  0  0  0  0  0  0  0  0  0  0  0
   -8.5820   -1.2280  -24.1960 H   0  0  0  0  0  0  0  0  0  0  0  0
   -9.9090   -0.2990  -23.5440 H   0  0  0  0  0  0  0  0  0  0  0  0
   -6.3080   -2.4150  -22.7550 H   0  0  0  0  0  0  0  0  0  0  0  0
   -6.4190   -3.2900  -21.2160 H   0  0  0  0  0  0  0  0  0  0  0  0
   -8.4590   -4.0610  -21.5620 H   0  0  0  0  0  0  0  0  0  0  0  0
   -9.1610   -4.4520  -23.9640 H   0  0  0  0  0  0  0  0  0  0  0  0
   -7.5250   -4.9190  -23.5110 H   0  0  0  0  0  0  0  0  0  0  0  0
   -7.7800   -3.4560  -24.4700 H   0  0  0  0  0  0  0  0  0  0  0  0
  1  2  1  0  0  0  0
  1 61  1  0  0  0  0
  1 62  1  0  0  0  0
  1 63  1  0  0  0  0
  2  3  1  0  0  0  0
  2 23  1  0  0  0  0
  2 60  1  1  0  0  0
  3  4  1  0  0  0  0
  3 58  1  0  0  0  0
  3 59  1  0  0  0  0
  4  5  1  0  0  0  0
  4 21  1  0  0  0  0
  5  6  2  0  0  0  0
  5 14  1  0  0  0  0
  6  7  1  0  0  0  0
  6 20  1  0  0  0  0
  7  8  2  0  0  0  0
  8  9  1  0  0  0  0
  8 19  1  0  0  0  0
  9 10  2  0  0  0  0
  9 14  1  0  0  0  0
 10 11  1  0  0  0  0
 10 18  1  0  0  0  0
 11 12  2  0  0  0  0
 11 17  1  0  0  0  0
 12 13  1  0  0  0  0
 12 16  1  0  0  0  0
 13 14  2  0  0  0  0
 13 15  1  0  0  0  0
 21 22  2  0  0  0  0
 23 21  1  1  0  0  0
 23 24  1  0  0  0  0
 23 52  1  0  0  0  0
 24 25  1  0  0  0  0
 24 56  1  0  0  0  0
 24 57  1  0  0  0  0
 25 26  1  0  0  0  0
 25 44  1  0  0  0  0
 26 27  1  0  0  0  0
 26 42  1  0  0  0  0
 26 43  1  0  0  0  0
 27 28  2  0  0  0  0
 27 29  1  0  0  0  0
 29 30  1  0  0  0  0
 29 41  1  0  0  0  0
 30 31  1  0  0  0  0
 30 39  1  0  0  0  0
 30 40  1  0  0  0  0
 31 32  1  0  0  0  0
 31 33  1  0  0  0  0
 31 38  1  0  0  0  0
 32 33  1  0  0  0  0
 32 36  1  0  0  0  0
 32 37  1  0  0  0  0
 33 34  1  0  0  0  0
 33 35  1  0  0  0  0
 44 45  2  0  0  0  0
 44 46  1  0  0  0  0
 46 47  2  0  0  0  0
 46 52  1  0  0  0  0
 47 48  1  0  0  0  0
 47 55  1  0  0  0  0
 48 49  2  0  0  0  0
 48 54  1  0  0  0  0
 49 50  1  0  0  0  0
 49 51  1  0  0  0  0
 51 52  2  0  0  0  0
 51 53  1  0  0  0  0
M  END
>  <MODEL>
       1

$$$$
