tmp_first_model_8_82.pdb
 OpenBabel08272521063D

 54 57  0  0  1  0  0  0  0  0999 V2000
  -10.6600    0.3530  -25.3470 C   0  0  0  0  0  0  0  0  0  0  0  0
   -9.7760   -0.6070  -24.8390 O   0  0  0  0  0  0  0  0  0  0  0  0
   -8.4670   -0.5220  -25.1920 C   0  0  0  0  0  0  0  0  0  0  0  0
   -7.9450    0.5050  -25.9790 C   0  0  0  0  0  0  0  0  0  0  0  0
   -6.5780    0.5360  -26.2420 C   0  0  0  0  0  0  0  0  0  0  0  0
   -5.7560   -0.4560  -25.7250 C   0  0  0  0  0  0  0  0  0  0  0  0
   -6.2980   -1.4790  -24.9440 C   0  0  0  0  0  0  0  0  0  0  0  0
   -7.6560   -1.5490  -24.6740 C   0  0  0  0  0  0  0  0  0  0  0  0
   -8.3030   -2.6610  -23.8360 C   0  0  1  0  0  0  0  0  0  0  0  0
   -9.1470   -3.6440  -24.6850 C   0  0  0  0  0  0  0  0  0  0  0  0
   -8.4060   -4.8550  -25.2700 C   0  0  1  0  0  0  0  0  0  0  0  0
   -7.5040   -4.5290  -26.4660 C   0  0  0  0  0  0  0  0  0  0  0  0
   -6.6800   -3.8620  -26.1910 H   0  0  0  0  0  0  0  0  0  0  0  0
   -7.0700   -5.4460  -26.8850 H   0  0  0  0  0  0  0  0  0  0  0  0
   -8.0770   -4.0370  -27.2610 H   0  0  0  0  0  0  0  0  0  0  0  0
   -7.6730   -5.5510  -24.1200 C   0  0  0  0  0  0  0  0  0  0  0  0
   -6.7150   -4.6060  -23.4040 C   0  0  0  0  0  0  0  0  0  0  0  0
   -7.3600   -3.3670  -22.9610 N   0  0  0  0  0  0  0  0  0  0  0  0
   -6.7460   -2.7520  -21.8870 C   0  0  0  0  0  0  0  0  0  0  0  0
   -5.7330   -3.2180  -21.3940 O   0  0  0  0  0  0  0  0  0  0  0  0
   -7.3970   -1.4850  -21.2920 C   0  0  0  0  0  0  0  0  0  0  0  0
   -6.5750   -0.8530  -20.1960 C   0  0  0  0  0  0  0  0  0  0  0  0
   -6.8770   -1.0670  -18.8750 C   0  0  0  0  0  0  0  0  0  0  0  0
   -6.1970   -0.5590  -17.8110 N   0  0  0  0  0  0  0  0  0  0  0  0
   -5.1660    0.2060  -18.0720 C   0  0  0  0  0  0  0  0  0  0  0  0
   -4.7280    0.5230  -19.3860 C   0  0  0  0  0  0  0  0  0  0  0  0
   -3.6070    1.3600  -19.6180 C   0  0  0  0  0  0  0  0  0  0  0  0
   -3.2230    1.6530  -20.8960 C   0  0  0  0  0  0  0  0  0  0  0  0
   -3.9510    1.1350  -21.9910 C   0  0  0  0  0  0  0  0  0  0  0  0
   -5.0260    0.3060  -21.7930 C   0  0  0  0  0  0  0  0  0  0  0  0
   -5.4510   -0.0170  -20.4780 C   0  0  0  0  0  0  0  0  0  0  0  0
   -5.5490   -0.1150  -22.6490 H   0  0  0  0  0  0  0  0  0  0  0  0
   -3.6240    1.3620  -23.0020 H   0  0  0  0  0  0  0  0  0  0  0  0
   -2.3530    2.2740  -21.0830 H   0  0  0  0  0  0  0  0  0  0  0  0
   -3.0720    1.7600  -18.7600 H   0  0  0  0  0  0  0  0  0  0  0  0
   -4.6210    0.6210  -17.2210 H   0  0  0  0  0  0  0  0  0  0  0  0
   -7.7320   -1.6840  -18.6000 H   0  0  0  0  0  0  0  0  0  0  0  0
   -7.6110   -0.7660  -22.0930 H   0  0  0  0  0  0  0  0  0  0  0  0
   -8.3720   -1.7850  -20.8840 H   0  0  0  0  0  0  0  0  0  0  0  0
   -6.3210   -5.0740  -22.5020 H   0  0  0  0  0  0  0  0  0  0  0  0
   -5.8470   -4.3900  -24.0480 H   0  0  0  0  0  0  0  0  0  0  0  0
   -8.4150   -5.9200  -23.3960 H   0  0  0  0  0  0  0  0  0  0  0  0
   -7.1070   -6.4180  -24.4930 H   0  0  0  0  0  0  0  0  0  0  0  0
   -9.1800   -5.5470  -25.6310 H   0  0  0  0  0  0  0  0  0  0  0  0
   -9.6250   -3.0670  -25.4860 H   0  0  0  0  0  0  0  0  0  0  0  0
   -9.9440   -4.0270  -24.0320 H   0  0  0  0  0  0  0  0  0  0  0  0
   -9.0290   -2.1610  -23.1820 H   0  0  0  0  0  0  0  0  0  0  0  0
   -5.6500   -2.2590  -24.5470 H   0  0  0  0  0  0  0  0  0  0  0  0
   -4.6910   -0.4510  -25.9270 H   0  0  0  0  0  0  0  0  0  0  0  0
   -6.1630    1.3430  -26.8450 H   0  0  0  0  0  0  0  0  0  0  0  0
   -8.5930    1.2790  -26.3760 H   0  0  0  0  0  0  0  0  0  0  0  0
  -11.6400    0.0380  -24.9830 H   0  0  0  0  0  0  0  0  0  0  0  0
  -10.6300    0.3670  -26.4450 H   0  0  0  0  0  0  0  0  0  0  0  0
  -10.4230    1.3590  -24.9720 H   0  0  0  0  0  0  0  0  0  0  0  0
  1  2  1  0  0  0  0
  1 52  1  0  0  0  0
  1 53  1  0  0  0  0
  1 54  1  0  0  0  0
  2  3  1  0  0  0  0
  3  4  2  0  0  0  0
  3  8  1  0  0  0  0
  4  5  1  0  0  0  0
  4 51  1  0  0  0  0
  5  6  2  0  0  0  0
  5 50  1  0  0  0  0
  6  7  1  0  0  0  0
  6 49  1  0  0  0  0
  7  8  2  0  0  0  0
  7 48  1  0  0  0  0
  8  9  1  0  0  0  0
  9 10  1  0  0  0  0
  9 18  1  0  0  0  0
  9 47  1  1  0  0  0
 10 11  1  0  0  0  0
 10 45  1  0  0  0  0
 10 46  1  0  0  0  0
 11 12  1  0  0  0  0
 11 16  1  0  0  0  0
 11 44  1  6  0  0  0
 12 13  1  0  0  0  0
 12 14  1  0  0  0  0
 12 15  1  0  0  0  0
 16 17  1  0  0  0  0
 16 42  1  0  0  0  0
 16 43  1  0  0  0  0
 17 18  1  0  0  0  0
 17 40  1  0  0  0  0
 17 41  1  0  0  0  0
 18 19  1  0  0  0  0
 19 20  2  0  0  0  0
 19 21  1  0  0  0  0
 21 22  1  0  0  0  0
 21 38  1  0  0  0  0
 21 39  1  0  0  0  0
 22 23  2  0  0  0  0
 22 31  1  0  0  0  0
 23 24  1  0  0  0  0
 23 37  1  0  0  0  0
 24 25  2  0  0  0  0
 25 26  1  0  0  0  0
 25 36  1  0  0  0  0
 26 27  2  0  0  0  0
 26 31  1  0  0  0  0
 27 28  1  0  0  0  0
 27 35  1  0  0  0  0
 28 29  2  0  0  0  0
 28 34  1  0  0  0  0
 29 30  1  0  0  0  0
 29 33  1  0  0  0  0
 30 31  2  0  0  0  0
 30 32  1  0  0  0  0
M  END
>  <MODEL>
       1

$$$$
