tmp_first_model_11_21.pdb
 OpenBabel08272522543D

 63 68  0  0  1  0  0  0  0  0999 V2000
   -7.5600   -3.7000  -23.5090 C   0  0  0  0  0  0  0  0  0  0  0  0
   -8.4070   -2.9070  -22.5120 C   0  0  1  0  0  0  0  0  0  0  0  0
   -7.7080   -2.7050  -21.1550 C   0  0  0  0  0  0  0  0  0  0  0  0
   -7.4470   -1.2890  -21.0890 N   0  0  0  0  0  0  0  0  0  0  0  0
   -6.6300   -0.7350  -20.0800 C   0  0  0  0  0  0  0  0  0  0  0  0
   -6.8890   -1.0150  -18.7620 C   0  0  0  0  0  0  0  0  0  0  0  0
   -6.1850   -0.5220  -17.7160 N   0  0  0  0  0  0  0  0  0  0  0  0
   -5.1600    0.2490  -17.9920 C   0  0  0  0  0  0  0  0  0  0  0  0
   -4.7420    0.5700  -19.3160 C   0  0  0  0  0  0  0  0  0  0  0  0
   -3.5960    1.3750  -19.5610 C   0  0  0  0  0  0  0  0  0  0  0  0
   -3.1880    1.6390  -20.8410 C   0  0  0  0  0  0  0  0  0  0  0  0
   -3.9090    1.1080  -21.9350 C   0  0  0  0  0  0  0  0  0  0  0  0
   -5.0220    0.3280  -21.7280 C   0  0  0  0  0  0  0  0  0  0  0  0
   -5.4830    0.0560  -20.4060 C   0  0  0  0  0  0  0  0  0  0  0  0
   -5.5560   -0.0710  -22.5850 H   0  0  0  0  0  0  0  0  0  0  0  0
   -3.5890    1.3220  -22.9520 H   0  0  0  0  0  0  0  0  0  0  0  0
   -2.3110    2.2560  -21.0210 H   0  0  0  0  0  0  0  0  0  0  0  0
   -3.0620    1.7810  -18.7070 H   0  0  0  0  0  0  0  0  0  0  0  0
   -4.5900    0.6500  -17.1500 H   0  0  0  0  0  0  0  0  0  0  0  0
   -7.7290   -1.6570  -18.5000 H   0  0  0  0  0  0  0  0  0  0  0  0
   -8.2380   -0.5450  -21.9270 C   0  0  0  0  0  0  0  0  0  0  0  0
   -8.3810    0.6590  -21.8570 O   0  0  0  0  0  0  0  0  0  0  0  0
   -8.8920   -1.4940  -22.9830 C   0  0  1  0  0  0  0  0  0  0  0  0
   -8.3250   -1.0390  -24.3830 C   0  0  0  0  0  0  0  0  0  0  0  0
   -9.0270    0.1200  -24.9290 N   0  0  0  0  0  0  0  0  0  0  0  0
   -8.2450    1.1210  -25.6320 C   0  0  0  0  0  0  0  0  0  0  0  0
   -7.2810    1.8230  -24.6690 C   0  0  0  0  0  0  0  0  0  0  0  0
   -6.1030    1.4870  -24.5830 O   0  0  0  0  0  0  0  0  0  0  0  0
   -7.8430    2.7880  -23.9020 N   0  0  0  0  0  0  0  0  0  0  0  0
   -7.0830    3.4910  -22.8790 C   0  0  0  0  0  0  0  0  0  0  0  0
   -6.3160    4.6720  -23.4400 C   0  0  0  0  0  0  0  0  0  0  0  0
   -4.9840    4.4280  -24.0870 C   0  0  0  0  0  0  0  0  0  0  0  0
   -5.0590    5.1340  -22.7640 C   0  0  0  0  0  0  0  0  0  0  0  0
   -4.8570    6.2010  -22.7350 H   0  0  0  0  0  0  0  0  0  0  0  0
   -4.7330    4.5930  -21.8770 H   0  0  0  0  0  0  0  0  0  0  0  0
   -4.7180    4.9980  -24.9730 H   0  0  0  0  0  0  0  0  0  0  0  0
   -4.6340    3.3990  -24.0890 H   0  0  0  0  0  0  0  0  0  0  0  0
   -6.9430    5.4420  -23.8890 H   0  0  0  0  0  0  0  0  0  0  0  0
   -7.7840    3.8110  -22.1010 H   0  0  0  0  0  0  0  0  0  0  0  0
   -6.3860    2.7810  -22.4150 H   0  0  0  0  0  0  0  0  0  0  0  0
   -8.8490    2.8630  -23.8750 H   0  0  0  0  0  0  0  0  0  0  0  0
   -8.9590    1.8230  -26.0730 H   0  0  0  0  0  0  0  0  0  0  0  0
   -7.6520    0.6500  -26.4240 H   0  0  0  0  0  0  0  0  0  0  0  0
  -10.3750    0.3420  -24.7500 C   0  0  0  0  0  0  0  0  0  0  0  0
  -10.9250    1.3270  -25.2340 O   0  0  0  0  0  0  0  0  0  0  0  0
  -11.1040   -0.6470  -23.9080 C   0  0  0  0  0  0  0  0  0  0  0  0
  -12.5040   -0.6340  -23.7750 C   0  0  0  0  0  0  0  0  0  0  0  0
  -12.6880   -1.5280  -22.6560 C   0  0  0  0  0  0  0  0  0  0  0  0
  -12.6140   -1.7380  -22.6740 C   0  0  0  0  0  0  0  0  0  0  0  0
  -12.0910   -3.8280  -23.6420 F   0  0  0  0  0  0  0  0  0  0  0  0
  -11.2790   -2.0680  -22.0980 C   0  0  0  0  0  0  0  0  0  0  0  0
  -10.4330   -1.4310  -23.0060 C   0  0  0  0  0  0  0  0  0  0  0  0
  -11.9630   -3.1580  -22.9500 H   0  0  0  0  0  0  0  0  0  0  0  0
  -13.5860   -1.9320  -22.0440 H   0  0  0  0  0  0  0  0  0  0  0  0
  -12.9790    0.1700  -23.2890 H   0  0  0  0  0  0  0  0  0  0  0  0
   -7.2710   -0.7640  -24.2820 H   0  0  0  0  0  0  0  0  0  0  0  0
   -8.3680   -1.8620  -25.1080 H   0  0  0  0  0  0  0  0  0  0  0  0
   -6.7680   -3.2600  -21.0630 H   0  0  0  0  0  0  0  0  0  0  0  0
   -8.3720   -3.0120  -20.3360 H   0  0  0  0  0  0  0  0  0  0  0  0
   -9.3060   -3.4870  -22.2980 H   0  0  0  0  0  0  0  0  0  0  0  0
   -8.1320   -3.9090  -24.4200 H   0  0  0  0  0  0  0  0  0  0  0  0
   -7.2530   -4.6640  -23.0850 H   0  0  0  0  0  0  0  0  0  0  0  0
   -6.6580   -3.1480  -23.7950 H   0  0  0  0  0  0  0  0  0  0  0  0
  1  2  1  0  0  0  0
  1 61  1  0  0  0  0
  1 62  1  0  0  0  0
  1 63  1  0  0  0  0
  2  3  1  0  0  0  0
  2 23  1  0  0  0  0
  2 60  1  1  0  0  0
  3  4  1  0  0  0  0
  3 58  1  0  0  0  0
  3 59  1  0  0  0  0
  4  5  1  0  0  0  0
  4 21  1  0  0  0  0
  5  6  2  0  0  0  0
  5 14  1  0  0  0  0
  6  7  1  0  0  0  0
  6 20  1  0  0  0  0
  7  8  2  0  0  0  0
  8  9  1  0  0  0  0
  8 19  1  0  0  0  0
  9 10  2  0  0  0  0
  9 14  1  0  0  0  0
 10 11  1  0  0  0  0
 10 18  1  0  0  0  0
 11 12  2  0  0  0  0
 11 17  1  0  0  0  0
 12 13  1  0  0  0  0
 12 16  1  0  0  0  0
 13 14  2  0  0  0  0
 13 15  1  0  0  0  0
 21 22  2  0  0  0  0
 23 21  1  1  0  0  0
 23 24  1  0  0  0  0
 23 52  1  0  0  0  0
 24 25  1  0  0  0  0
 24 56  1  0  0  0  0
 24 57  1  0  0  0  0
 25 26  1  0  0  0  0
 25 44  1  0  0  0  0
 26 27  1  0  0  0  0
 26 42  1  0  0  0  0
 26 43  1  0  0  0  0
 27 28  2  0  0  0  0
 27 29  1  0  0  0  0
 29 30  1  0  0  0  0
 29 41  1  0  0  0  0
 30 31  1  0  0  0  0
 30 39  1  0  0  0  0
 30 40  1  0  0  0  0
 31 32  1  0  0  0  0
 31 33  1  0  0  0  0
 31 38  1  0  0  0  0
 32 33  1  0  0  0  0
 32 36  1  0  0  0  0
 32 37  1  0  0  0  0
 33 34  1  0  0  0  0
 33 35  1  0  0  0  0
 44 45  2  0  0  0  0
 44 46  1  0  0  0  0
 46 47  2  0  0  0  0
 46 52  1  0  0  0  0
 47 48  1  0  0  0  0
 47 55  1  0  0  0  0
 48 49  2  0  0  0  0
 48 54  1  0  0  0  0
 49 50  1  0  0  0  0
 49 51  1  0  0  0  0
 51 52  2  0  0  0  0
 51 53  1  0  0  0  0
M  END
>  <MODEL>
       1

$$$$
