tmp_first_model_1_11.pdb
 OpenBabel08272517043D

 48 52  0  0  0  0  0  0  0  0999 V2000
  -10.0610   -0.8820  -23.6840 C   0  0  0  0  0  0  0  0  0  0  0  0
   -9.1010   -1.4020  -22.7240 N   0  0  0  0  0  0  0  0  0  0  0  0
   -8.3010   -0.5560  -22.0060 C   0  0  0  0  0  0  0  0  0  0  0  0
   -8.3080    0.6540  -22.0130 O   0  0  0  0  0  0  0  0  0  0  0  0
   -7.4510   -1.3630  -21.2380 N   0  0  0  0  0  0  0  0  0  0  0  0
   -6.6260   -0.8370  -20.2170 C   0  0  0  0  0  0  0  0  0  0  0  0
   -6.9400   -1.0970  -18.9080 C   0  0  0  0  0  0  0  0  0  0  0  0
   -6.2570   -0.5980  -17.8520 N   0  0  0  0  0  0  0  0  0  0  0  0
   -5.2350    0.1820  -18.1100 C   0  0  0  0  0  0  0  0  0  0  0  0
   -4.7940    0.5160  -19.4210 C   0  0  0  0  0  0  0  0  0  0  0  0
   -3.6560    1.3380  -19.6350 C   0  0  0  0  0  0  0  0  0  0  0  0
   -3.2210    1.5890  -20.9060 C   0  0  0  0  0  0  0  0  0  0  0  0
   -3.9070    1.0420  -22.0140 C   0  0  0  0  0  0  0  0  0  0  0  0
   -5.0270    0.2650  -21.8360 C   0  0  0  0  0  0  0  0  0  0  0  0
   -5.4980   -0.0150  -20.5230 C   0  0  0  0  0  0  0  0  0  0  0  0
   -5.5620   -0.1370  -22.6920 H   0  0  0  0  0  0  0  0  0  0  0  0
   -3.5410    1.2320  -23.0170 H   0  0  0  0  0  0  0  0  0  0  0  0
   -2.3370    2.1990  -21.0720 H   0  0  0  0  0  0  0  0  0  0  0  0
   -3.1440    1.7380  -18.7630 H   0  0  0  0  0  0  0  0  0  0  0  0
   -4.6850    0.5790  -17.2570 H   0  0  0  0  0  0  0  0  0  0  0  0
   -7.7870   -1.7330  -18.6630 H   0  0  0  0  0  0  0  0  0  0  0  0
   -7.7140   -2.7160  -21.4190 C   0  0  0  0  0  0  0  0  0  0  0  0
   -7.0500   -3.6190  -20.9670 O   0  0  0  0  0  0  0  0  0  0  0  0
   -8.9050   -2.7880  -22.3620 C   0  0  0  0  0  0  0  0  0  0  0  0
   -8.7550   -3.8540  -23.4590 C   0  0  0  0  0  0  0  0  0  0  0  0
  -10.0740   -4.4290  -23.1240 N   0  0  0  0  0  0  0  0  0  0  0  0
  -11.2950   -4.3960  -24.2970 S   0  0  0  0  0  0  0  0  0  0  0  0
  -12.5010   -4.8950  -23.6630 O   0  0  0  0  0  0  0  0  0  0  0  0
  -11.2980   -3.0940  -24.9440 O   0  0  0  0  0  0  0  0  0  0  0  0
  -10.6960   -5.5590  -25.5180 C   0  0  0  0  0  0  0  0  0  0  0  0
  -10.5720   -6.9020  -25.1900 C   0  0  0  0  0  0  0  0  0  0  0  0
  -10.0130   -7.7910  -26.1040 C   0  0  0  0  0  0  0  0  0  0  0  0
   -9.6080   -7.3410  -27.3550 C   0  0  0  0  0  0  0  0  0  0  0  0
   -9.7730   -6.0020  -27.7020 C   0  0  0  0  0  0  0  0  0  0  0  0
  -10.3300   -5.1160  -26.7840 C   0  0  0  0  0  0  0  0  0  0  0  0
  -10.4820   -4.0750  -27.0380 H   0  0  0  0  0  0  0  0  0  0  0  0
   -9.4420   -5.6590  -28.6820 H   0  0  0  0  0  0  0  0  0  0  0  0
   -9.1910   -8.0390  -28.0730 H   0  0  0  0  0  0  0  0  0  0  0  0
   -9.8890   -8.8380  -25.8430 H   0  0  0  0  0  0  0  0  0  0  0  0
  -10.9350   -7.2450  -24.2390 H   0  0  0  0  0  0  0  0  0  0  0  0
  -10.1650   -3.5630  -21.9020 C   0  0  0  0  0  0  0  0  0  0  0  0
   -9.9820   -4.1590  -21.0070 H   0  0  0  0  0  0  0  0  0  0  0  0
  -11.0730   -2.9670  -21.7830 H   0  0  0  0  0  0  0  0  0  0  0  0
   -8.5830   -3.4980  -24.4760 H   0  0  0  0  0  0  0  0  0  0  0  0
   -7.9730   -4.5560  -23.1590 H   0  0  0  0  0  0  0  0  0  0  0  0
   -9.9780    0.2060  -23.6590 H   0  0  0  0  0  0  0  0  0  0  0  0
  -11.0830   -1.1710  -23.4310 H   0  0  0  0  0  0  0  0  0  0  0  0
   -9.8590   -1.2440  -24.6950 H   0  0  0  0  0  0  0  0  0  0  0  0
  1  2  1  0  0  0  0
  1 46  1  0  0  0  0
  1 47  1  0  0  0  0
  1 48  1  0  0  0  0
  2  3  1  0  0  0  0
  2 24  1  0  0  0  0
  3  4  2  0  0  0  0
  3  5  1  0  0  0  0
  5  6  1  0  0  0  0
  5 22  1  0  0  0  0
  6  7  2  0  0  0  0
  6 15  1  0  0  0  0
  7  8  1  0  0  0  0
  7 21  1  0  0  0  0
  8  9  2  0  0  0  0
  9 10  1  0  0  0  0
  9 20  1  0  0  0  0
 10 11  2  0  0  0  0
 10 15  1  0  0  0  0
 11 12  1  0  0  0  0
 11 19  1  0  0  0  0
 12 13  2  0  0  0  0
 12 18  1  0  0  0  0
 13 14  1  0  0  0  0
 13 17  1  0  0  0  0
 14 15  2  0  0  0  0
 14 16  1  0  0  0  0
 22 23  2  0  0  0  0
 22 24  1  0  0  0  0
 24 25  1  0  0  0  0
 24 41  1  0  0  0  0
 25 26  1  0  0  0  0
 25 44  1  0  0  0  0
 25 45  1  0  0  0  0
 26 27  1  0  0  0  0
 26 41  1  0  0  0  0
 27 28  2  0  0  0  0
 27 29  2  0  0  0  0
 27 30  1  0  0  0  0
 30 31  2  0  0  0  0
 30 35  1  0  0  0  0
 31 32  1  0  0  0  0
 31 40  1  0  0  0  0
 32 33  2  0  0  0  0
 32 39  1  0  0  0  0
 33 34  1  0  0  0  0
 33 38  1  0  0  0  0
 34 35  2  0  0  0  0
 34 37  1  0  0  0  0
 35 36  1  0  0  0  0
 41 42  1  0  0  0  0
 41 43  1  0  0  0  0
M  END
>  <MODEL>
       1

$$$$
