tmp_first_model_4_21.pdb
 OpenBabel08272518513D

 63 68  0  0  1  0  0  0  0  0999 V2000
   -8.3430   -4.1360  -23.4860 C   0  0  0  0  0  0  0  0  0  0  0  0
   -8.5600   -2.9710  -22.5420 C   0  0  1  0  0  0  0  0  0  0  0  0
   -7.3940   -2.7880  -21.5740 C   0  0  0  0  0  0  0  0  0  0  0  0
   -7.4250   -1.3820  -21.2480 N   0  0  0  0  0  0  0  0  0  0  0  0
   -6.5330   -0.9170  -20.2500 C   0  0  0  0  0  0  0  0  0  0  0  0
   -6.7550   -1.2720  -18.9440 C   0  0  0  0  0  0  0  0  0  0  0  0
   -5.8970   -1.0420  -17.9220 N   0  0  0  0  0  0  0  0  0  0  0  0
   -4.7720   -0.4320  -18.1990 C   0  0  0  0  0  0  0  0  0  0  0  0
   -4.4220    0.0060  -19.5030 C   0  0  0  0  0  0  0  0  0  0  0  0
   -3.2380    0.7480  -19.7320 C   0  0  0  0  0  0  0  0  0  0  0  0
   -2.9760    1.2590  -20.9750 C   0  0  0  0  0  0  0  0  0  0  0  0
   -3.8390    0.9740  -22.0580 C   0  0  0  0  0  0  0  0  0  0  0  0
   -4.9630    0.2140  -21.8680 C   0  0  0  0  0  0  0  0  0  0  0  0
   -5.3170   -0.2360  -20.5680 C   0  0  0  0  0  0  0  0  0  0  0  0
   -5.5900   -0.0540  -22.7100 H   0  0  0  0  0  0  0  0  0  0  0  0
   -3.6130    1.3700  -23.0450 H   0  0  0  0  0  0  0  0  0  0  0  0
   -2.1130    1.9000  -21.1330 H   0  0  0  0  0  0  0  0  0  0  0  0
   -2.6040    0.9640  -18.8760 H   0  0  0  0  0  0  0  0  0  0  0  0
   -4.0700   -0.2540  -17.3790 H   0  0  0  0  0  0  0  0  0  0  0  0
   -7.6690   -1.8080  -18.6930 H   0  0  0  0  0  0  0  0  0  0  0  0
   -8.1610   -0.6190  -22.1330 C   0  0  0  0  0  0  0  0  0  0  0  0
   -8.2680    0.5870  -22.0930 O   0  0  0  0  0  0  0  0  0  0  0  0
   -8.7750   -1.5610  -23.1980 C   0  0  1  0  0  0  0  0  0  0  0  0
   -7.9870   -1.3070  -24.5110 C   0  0  0  0  0  0  0  0  0  0  0  0
   -8.6290   -1.8710  -25.6950 N   0  0  0  0  0  0  0  0  0  0  0  0
   -7.8170   -2.2260  -26.8500 C   0  0  0  0  0  0  0  0  0  0  0  0
   -7.7930   -3.7440  -27.0310 C   0  0  0  0  0  0  0  0  0  0  0  0
   -6.9790   -4.4510  -26.4560 O   0  0  0  0  0  0  0  0  0  0  0  0
   -8.7420   -4.2270  -27.8830 N   0  0  0  0  0  0  0  0  0  0  0  0
   -8.9240   -5.6610  -28.0160 C   0  0  0  0  0  0  0  0  0  0  0  0
   -9.5470   -6.2770  -26.7790 C   0  0  0  0  0  0  0  0  0  0  0  0
   -9.5890   -7.7670  -26.6350 C   0  0  0  0  0  0  0  0  0  0  0  0
   -8.6750   -6.9620  -25.7650 C   0  0  0  0  0  0  0  0  0  0  0  0
   -8.9260   -6.8420  -24.7150 H   0  0  0  0  0  0  0  0  0  0  0  0
   -7.6150   -7.0080  -26.0070 H   0  0  0  0  0  0  0  0  0  0  0  0
   -9.1310   -8.3680  -27.4170 H   0  0  0  0  0  0  0  0  0  0  0  0
  -10.4710   -8.1990  -26.1760 H   0  0  0  0  0  0  0  0  0  0  0  0
  -10.4100   -5.7360  -26.3830 H   0  0  0  0  0  0  0  0  0  0  0  0
   -9.5510   -5.8460  -28.8980 H   0  0  0  0  0  0  0  0  0  0  0  0
   -7.9450   -6.1180  -28.2180 H   0  0  0  0  0  0  0  0  0  0  0  0
   -9.5550   -3.6390  -28.0360 H   0  0  0  0  0  0  0  0  0  0  0  0
   -6.8060   -1.8490  -26.6940 H   0  0  0  0  0  0  0  0  0  0  0  0
   -8.2340   -1.7460  -27.7400 H   0  0  0  0  0  0  0  0  0  0  0  0
   -9.9710   -1.7820  -25.9060 C   0  0  0  0  0  0  0  0  0  0  0  0
  -10.4780   -2.0540  -26.9960 O   0  0  0  0  0  0  0  0  0  0  0  0
  -10.7970   -1.3710  -24.7390 C   0  0  0  0  0  0  0  0  0  0  0  0
  -12.1580   -1.1530  -24.9520 C   0  0  0  0  0  0  0  0  0  0  0  0
  -13.0020   -0.8600  -23.9030 C   0  0  0  0  0  0  0  0  0  0  0  0
  -12.4460   -0.7920  -22.6350 C   0  0  0  0  0  0  0  0  0  0  0  0
  -13.2770   -0.5410  -21.6170 F   0  0  0  0  0  0  0  0  0  0  0  0
  -11.0970   -0.9900  -22.3940 C   0  0  0  0  0  0  0  0  0  0  0  0
  -10.2400   -1.2700  -23.4620 C   0  0  0  0  0  0  0  0  0  0  0  0
  -10.7040   -0.9360  -21.3880 H   0  0  0  0  0  0  0  0  0  0  0  0
  -14.0680   -0.6980  -24.0410 H   0  0  0  0  0  0  0  0  0  0  0  0
  -12.5350   -1.2340  -25.9620 H   0  0  0  0  0  0  0  0  0  0  0  0
   -7.8740   -0.2200  -24.6370 H   0  0  0  0  0  0  0  0  0  0  0  0
   -6.9810   -1.7360  -24.4240 H   0  0  0  0  0  0  0  0  0  0  0  0
   -7.5130   -3.3520  -20.6560 H   0  0  0  0  0  0  0  0  0  0  0  0
   -6.4280   -3.0860  -22.0150 H   0  0  0  0  0  0  0  0  0  0  0  0
   -9.4650   -3.1600  -21.9450 H   0  0  0  0  0  0  0  0  0  0  0  0
   -9.1610   -4.2110  -24.2070 H   0  0  0  0  0  0  0  0  0  0  0  0
   -8.2870   -5.0730  -22.9200 H   0  0  0  0  0  0  0  0  0  0  0  0
   -7.4130   -4.0120  -24.0470 H   0  0  0  0  0  0  0  0  0  0  0  0
  1  2  1  0  0  0  0
  1 61  1  0  0  0  0
  1 62  1  0  0  0  0
  1 63  1  0  0  0  0
  2  3  1  0  0  0  0
  2 23  1  0  0  0  0
  2 60  1  1  0  0  0
  3  4  1  0  0  0  0
  3 58  1  0  0  0  0
  3 59  1  0  0  0  0
  4  5  1  0  0  0  0
  4 21  1  0  0  0  0
  5  6  2  0  0  0  0
  5 14  1  0  0  0  0
  6  7  1  0  0  0  0
  6 20  1  0  0  0  0
  7  8  2  0  0  0  0
  8  9  1  0  0  0  0
  8 19  1  0  0  0  0
  9 10  2  0  0  0  0
  9 14  1  0  0  0  0
 10 11  1  0  0  0  0
 10 18  1  0  0  0  0
 11 12  2  0  0  0  0
 11 17  1  0  0  0  0
 12 13  1  0  0  0  0
 12 16  1  0  0  0  0
 13 14  2  0  0  0  0
 13 15  1  0  0  0  0
 21 22  2  0  0  0  0
 23 21  1  1  0  0  0
 23 24  1  0  0  0  0
 23 52  1  0  0  0  0
 24 25  1  0  0  0  0
 24 56  1  0  0  0  0
 24 57  1  0  0  0  0
 25 26  1  0  0  0  0
 25 44  1  0  0  0  0
 26 27  1  0  0  0  0
 26 42  1  0  0  0  0
 26 43  1  0  0  0  0
 27 28  2  0  0  0  0
 27 29  1  0  0  0  0
 29 30  1  0  0  0  0
 29 41  1  0  0  0  0
 30 31  1  0  0  0  0
 30 39  1  0  0  0  0
 30 40  1  0  0  0  0
 31 32  1  0  0  0  0
 31 33  1  0  0  0  0
 31 38  1  0  0  0  0
 32 33  1  0  0  0  0
 32 36  1  0  0  0  0
 32 37  1  0  0  0  0
 33 34  1  0  0  0  0
 33 35  1  0  0  0  0
 44 45  2  0  0  0  0
 44 46  1  0  0  0  0
 46 47  2  0  0  0  0
 46 52  1  0  0  0  0
 47 48  1  0  0  0  0
 47 55  1  0  0  0  0
 48 49  2  0  0  0  0
 48 54  1  0  0  0  0
 49 50  1  0  0  0  0
 49 51  1  0  0  0  0
 51 52  2  0  0  0  0
 51 53  1  0  0  0  0
M  END
>  <MODEL>
       1

$$$$
