tmp_first_model_17_36.pdb
 OpenBabel08282502223D

 47 50  0  0  1  0  0  0  0  0999 V2000
   -8.6660    0.6250  -21.3320 O   0  0  0  0  0  0  0  0  0  0  0  0
   -8.4200   -0.4130  -21.9220 C   0  0  0  0  0  0  0  0  0  0  0  0
   -7.4270   -1.4250  -21.2900 C   0  0  0  0  0  0  0  0  0  0  0  0
   -6.5850   -0.8240  -20.1850 C   0  0  0  0  0  0  0  0  0  0  0  0
   -6.8820   -1.0360  -18.8630 C   0  0  0  0  0  0  0  0  0  0  0  0
   -6.1960   -0.5320  -17.7980 N   0  0  0  0  0  0  0  0  0  0  0  0
   -5.1580    0.2200  -18.0660 C   0  0  0  0  0  0  0  0  0  0  0  0
   -4.7250    0.5350  -19.3820 C   0  0  0  0  0  0  0  0  0  0  0  0
   -3.6010    1.3650  -19.6220 C   0  0  0  0  0  0  0  0  0  0  0  0
   -3.2160    1.6610  -20.8980 C   0  0  0  0  0  0  0  0  0  0  0  0
   -3.9430    1.1300  -21.9910 C   0  0  0  0  0  0  0  0  0  0  0  0
   -5.0330    0.3210  -21.7950 C   0  0  0  0  0  0  0  0  0  0  0  0
   -5.4570    0.0020  -20.4780 C   0  0  0  0  0  0  0  0  0  0  0  0
   -5.5720   -0.0730  -22.6600 H   0  0  0  0  0  0  0  0  0  0  0  0
   -3.6170    1.3640  -22.9980 H   0  0  0  0  0  0  0  0  0  0  0  0
   -2.3510    2.2930  -21.0900 H   0  0  0  0  0  0  0  0  0  0  0  0
   -3.0570    1.7710  -18.7710 H   0  0  0  0  0  0  0  0  0  0  0  0
   -4.6030    0.6250  -17.2160 H   0  0  0  0  0  0  0  0  0  0  0  0
   -7.7300   -1.6600  -18.5840 H   0  0  0  0  0  0  0  0  0  0  0  0
   -6.7840   -1.8980  -22.0420 H   0  0  0  0  0  0  0  0  0  0  0  0
   -8.0350   -2.2320  -20.8580 H   0  0  0  0  0  0  0  0  0  0  0  0
   -9.0700   -0.7300  -23.1060 N   0  0  0  0  0  0  0  0  0  0  0  0
  -10.0870    0.2460  -23.5250 C   0  0  0  0  0  0  0  0  0  0  0  0
  -11.0550   -0.2990  -24.5530 C   0  0  0  0  0  0  0  0  0  0  0  0
  -10.3210   -0.9690  -25.6940 C   0  0  0  0  0  0  0  0  0  0  0  0
   -9.5340   -2.1450  -25.1300 C   0  0  0  0  0  0  0  0  0  0  0  0
   -8.5260   -1.7200  -24.0450 C   0  0  1  0  0  0  0  0  0  0  0  0
   -7.1870   -1.3040  -24.6620 C   0  0  0  0  0  0  0  0  0  0  0  0
   -6.9700   -0.0200  -25.1590 C   0  0  0  0  0  0  0  0  0  0  0  0
   -5.7490    0.3280  -25.7290 C   0  0  0  0  0  0  0  0  0  0  0  0
   -4.7200   -0.6050  -25.8240 C   0  0  0  0  0  0  0  0  0  0  0  0
   -4.9330   -1.9000  -25.3580 C   0  0  0  0  0  0  0  0  0  0  0  0
   -6.1590   -2.2430  -24.7910 C   0  0  0  0  0  0  0  0  0  0  0  0
   -6.3090   -3.2620  -24.4390 H   0  0  0  0  0  0  0  0  0  0  0  0
   -4.1410   -2.6400  -25.4270 H   0  0  0  0  0  0  0  0  0  0  0  0
   -3.7640   -0.3230  -26.2550 H   0  0  0  0  0  0  0  0  0  0  0  0
   -5.6020    1.3400  -26.0930 H   0  0  0  0  0  0  0  0  0  0  0  0
   -7.7590    0.7240  -25.1060 H   0  0  0  0  0  0  0  0  0  0  0  0
   -8.3260   -2.6150  -23.4490 H   0  0  0  0  0  0  0  0  0  0  0  0
  -10.2300   -2.8740  -24.7020 H   0  0  0  0  0  0  0  0  0  0  0  0
   -8.9900   -2.6770  -25.9150 H   0  0  0  0  0  0  0  0  0  0  0  0
   -9.6500   -0.2760  -26.2130 H   0  0  0  0  0  0  0  0  0  0  0  0
  -11.0530   -1.2490  -26.4490 H   0  0  0  0  0  0  0  0  0  0  0  0
  -11.6920    0.5050  -24.9340 H   0  0  0  0  0  0  0  0  0  0  0  0
  -11.7290   -1.0250  -24.0870 H   0  0  0  0  0  0  0  0  0  0  0  0
  -10.6270    0.5510  -22.6300 H   0  0  0  0  0  0  0  0  0  0  0  0
   -9.6300    1.1650  -23.9200 H   0  0  0  0  0  0  0  0  0  0  0  0
  1  2  2  0  0  0  0
  2  3  1  0  0  0  0
  2 22  1  0  0  0  0
  3  4  1  0  0  0  0
  3 20  1  0  0  0  0
  3 21  1  0  0  0  0
  4  5  2  0  0  0  0
  4 13  1  0  0  0  0
  5  6  1  0  0  0  0
  5 19  1  0  0  0  0
  6  7  2  0  0  0  0
  7  8  1  0  0  0  0
  7 18  1  0  0  0  0
  8  9  2  0  0  0  0
  8 13  1  0  0  0  0
  9 10  1  0  0  0  0
  9 17  1  0  0  0  0
 10 11  2  0  0  0  0
 10 16  1  0  0  0  0
 11 12  1  0  0  0  0
 11 15  1  0  0  0  0
 12 13  2  0  0  0  0
 12 14  1  0  0  0  0
 22 23  1  0  0  0  0
 22 27  1  0  0  0  0
 23 24  1  0  0  0  0
 23 46  1  0  0  0  0
 23 47  1  0  0  0  0
 24 25  1  0  0  0  0
 24 44  1  0  0  0  0
 24 45  1  0  0  0  0
 25 26  1  0  0  0  0
 25 42  1  0  0  0  0
 25 43  1  0  0  0  0
 26 27  1  0  0  0  0
 26 40  1  0  0  0  0
 26 41  1  0  0  0  0
 27 28  1  0  0  0  0
 27 39  1  1  0  0  0
 28 29  2  0  0  0  0
 28 33  1  0  0  0  0
 29 30  1  0  0  0  0
 29 38  1  0  0  0  0
 30 31  2  0  0  0  0
 30 37  1  0  0  0  0
 31 32  1  0  0  0  0
 31 36  1  0  0  0  0
 32 33  2  0  0  0  0
 32 35  1  0  0  0  0
 33 34  1  0  0  0  0
M  END
>  <MODEL>
       1

$$$$
