tmp_first_model_7_52.pdb
 OpenBabel08272520323D

 57 60  0  0  0  0  0  0  0  0999 V2000
   -6.4450    7.0850  -21.4770 C   0  0  0  0  0  0  0  0  0  0  0  0
   -6.8200    6.9930  -22.9600 C   0  0  0  0  0  0  0  0  0  0  0  0
   -7.8720    5.9370  -23.2110 C   0  0  0  0  0  0  0  0  0  0  0  0
   -9.0580    6.2180  -23.2290 O   0  0  0  0  0  0  0  0  0  0  0  0
   -7.3990    4.6620  -23.4010 N   0  0  0  0  0  0  0  0  0  0  0  0
   -8.1980    3.5650  -23.7940 C   0  0  0  0  0  0  0  0  0  0  0  0
   -9.2480    3.7670  -24.6910 C   0  0  0  0  0  0  0  0  0  0  0  0
  -10.0110    2.6870  -25.1050 C   0  0  0  0  0  0  0  0  0  0  0  0
   -9.7530    1.4130  -24.6080 C   0  0  0  0  0  0  0  0  0  0  0  0
   -8.7140    1.2050  -23.6990 C   0  0  0  0  0  0  0  0  0  0  0  0
   -8.4440   -0.1190  -23.2200 N   0  0  0  0  0  0  0  0  0  0  0  0
   -8.2240   -1.1950  -24.1920 C   0  0  0  0  0  0  0  0  0  0  0  0
   -6.8220   -1.2170  -24.7820 C   0  0  0  0  0  0  0  0  0  0  0  0
   -5.9890   -2.3290  -24.6340 C   0  0  0  0  0  0  0  0  0  0  0  0
   -4.7320   -2.3720  -25.2320 C   0  0  0  0  0  0  0  0  0  0  0  0
   -4.2460   -1.2380  -25.8790 C   0  0  0  0  0  0  0  0  0  0  0  0
   -5.0800   -0.1350  -26.0540 C   0  0  0  0  0  0  0  0  0  0  0  0
   -6.3740   -0.1350  -25.5420 C   0  0  0  0  0  0  0  0  0  0  0  0
   -7.0650    0.6790  -25.7700 H   0  0  0  0  0  0  0  0  0  0  0  0
   -4.7430    0.7210  -26.6330 H   0  0  0  0  0  0  0  0  0  0  0  0
   -3.2170   -1.2120  -26.2270 H   0  0  0  0  0  0  0  0  0  0  0  0
   -4.1470   -3.2910  -25.1880 H   0  0  0  0  0  0  0  0  0  0  0  0
   -6.3170   -3.1710  -24.0240 H   0  0  0  0  0  0  0  0  0  0  0  0
   -8.9570   -1.0750  -25.0040 H   0  0  0  0  0  0  0  0  0  0  0  0
   -8.4490   -2.1500  -23.7100 H   0  0  0  0  0  0  0  0  0  0  0  0
   -8.3690   -0.2960  -21.8360 C   0  0  0  0  0  0  0  0  0  0  0  0
   -9.0170    0.3890  -21.0660 O   0  0  0  0  0  0  0  0  0  0  0  0
   -7.4450   -1.3870  -21.2830 C   0  0  0  0  0  0  0  0  0  0  0  0
   -6.5750   -0.8320  -20.1820 C   0  0  0  0  0  0  0  0  0  0  0  0
   -6.8800   -1.0410  -18.8620 C   0  0  0  0  0  0  0  0  0  0  0  0
   -6.1890   -0.5390  -17.8070 N   0  0  0  0  0  0  0  0  0  0  0  0
   -5.1570    0.2170  -18.0750 C   0  0  0  0  0  0  0  0  0  0  0  0
   -4.7190    0.5260  -19.3920 C   0  0  0  0  0  0  0  0  0  0  0  0
   -3.5980    1.3600  -19.6290 C   0  0  0  0  0  0  0  0  0  0  0  0
   -3.2150    1.6560  -20.9060 C   0  0  0  0  0  0  0  0  0  0  0  0
   -3.9390    1.1320  -22.0020 C   0  0  0  0  0  0  0  0  0  0  0  0
   -5.0280    0.3200  -21.7990 C   0  0  0  0  0  0  0  0  0  0  0  0
   -5.4500   -0.0050  -20.4810 C   0  0  0  0  0  0  0  0  0  0  0  0
   -5.5650   -0.0680  -22.6630 H   0  0  0  0  0  0  0  0  0  0  0  0
   -3.6340    1.3770  -23.0160 H   0  0  0  0  0  0  0  0  0  0  0  0
   -2.3660    2.3060  -21.0860 H   0  0  0  0  0  0  0  0  0  0  0  0
   -3.0730    1.7710  -18.7690 H   0  0  0  0  0  0  0  0  0  0  0  0
   -4.6070    0.6260  -17.2260 H   0  0  0  0  0  0  0  0  0  0  0  0
   -7.7320   -1.6620  -18.5880 H   0  0  0  0  0  0  0  0  0  0  0  0
   -8.0920   -2.1660  -20.8620 H   0  0  0  0  0  0  0  0  0  0  0  0
   -6.8410   -1.8480  -22.0680 H   0  0  0  0  0  0  0  0  0  0  0  0
   -7.9160    2.2850  -23.3080 C   0  0  0  0  0  0  0  0  0  0  0  0
   -7.0760    2.1220  -22.6320 H   0  0  0  0  0  0  0  0  0  0  0  0
  -10.3610    0.5600  -24.8760 H   0  0  0  0  0  0  0  0  0  0  0  0
  -10.8030    2.8710  -25.8300 H   0  0  0  0  0  0  0  0  0  0  0  0
   -9.4660    4.7620  -25.0620 H   0  0  0  0  0  0  0  0  0  0  0  0
   -6.4330    4.4680  -23.1830 H   0  0  0  0  0  0  0  0  0  0  0  0
   -5.9330    6.8020  -23.5720 H   0  0  0  0  0  0  0  0  0  0  0  0
   -7.2760    7.9250  -23.3040 H   0  0  0  0  0  0  0  0  0  0  0  0
   -7.3310    7.2950  -20.8730 H   0  0  0  0  0  0  0  0  0  0  0  0
   -5.7280    7.8930  -21.3060 H   0  0  0  0  0  0  0  0  0  0  0  0
   -5.9930    6.1550  -21.1120 H   0  0  0  0  0  0  0  0  0  0  0  0
  1  2  1  0  0  0  0
  1 55  1  0  0  0  0
  1 56  1  0  0  0  0
  1 57  1  0  0  0  0
  2  3  1  0  0  0  0
  2 53  1  0  0  0  0
  2 54  1  0  0  0  0
  3  4  2  0  0  0  0
  3  5  1  0  0  0  0
  5  6  1  0  0  0  0
  5 52  1  0  0  0  0
  6  7  2  0  0  0  0
  6 47  1  0  0  0  0
  7  8  1  0  0  0  0
  7 51  1  0  0  0  0
  8  9  2  0  0  0  0
  8 50  1  0  0  0  0
  9 10  1  0  0  0  0
  9 49  1  0  0  0  0
 10 11  1  0  0  0  0
 10 47  2  0  0  0  0
 11 12  1  0  0  0  0
 11 26  1  0  0  0  0
 12 13  1  0  0  0  0
 12 24  1  0  0  0  0
 12 25  1  0  0  0  0
 13 14  2  0  0  0  0
 13 18  1  0  0  0  0
 14 15  1  0  0  0  0
 14 23  1  0  0  0  0
 15 16  2  0  0  0  0
 15 22  1  0  0  0  0
 16 17  1  0  0  0  0
 16 21  1  0  0  0  0
 17 18  2  0  0  0  0
 17 20  1  0  0  0  0
 18 19  1  0  0  0  0
 26 27  2  0  0  0  0
 26 28  1  0  0  0  0
 28 29  1  0  0  0  0
 28 45  1  0  0  0  0
 28 46  1  0  0  0  0
 29 30  2  0  0  0  0
 29 38  1  0  0  0  0
 30 31  1  0  0  0  0
 30 44  1  0  0  0  0
 31 32  2  0  0  0  0
 32 33  1  0  0  0  0
 32 43  1  0  0  0  0
 33 34  2  0  0  0  0
 33 38  1  0  0  0  0
 34 35  1  0  0  0  0
 34 42  1  0  0  0  0
 35 36  2  0  0  0  0
 35 41  1  0  0  0  0
 36 37  1  0  0  0  0
 36 40  1  0  0  0  0
 37 38  2  0  0  0  0
 37 39  1  0  0  0  0
 47 48  1  0  0  0  0
M  END
>  <MODEL>
       1

$$$$
