tmp_first_model_8_5.pdb
 OpenBabel08272521063D

 58 61  0  0  1  0  0  0  0  0999 V2000
   -8.1020   -4.6470  -21.8000 C   0  0  0  0  0  0  0  0  0  0  0  0
   -7.0840   -3.8360  -21.5100 C   0  0  0  0  0  0  0  0  0  0  0  0
   -6.7660   -2.4760  -22.0460 C   0  0  0  0  0  0  0  0  0  0  0  0
   -7.3680   -1.3990  -21.2530 N   0  0  0  0  0  0  0  0  0  0  0  0
   -8.6010   -0.7990  -21.4670 C   0  0  0  0  0  0  0  0  0  0  0  0
   -9.0400    0.0040  -20.6670 O   0  0  0  0  0  0  0  0  0  0  0  0
   -9.3280   -1.0980  -22.7770 C   0  0  2  0  0  0  0  0  0  0  0  0
   -8.7270   -0.2320  -23.8990 C   0  0  0  0  0  0  0  0  0  0  0  0
   -9.0680    1.1690  -23.6620 N   0  0  0  0  0  0  0  0  0  0  0  0
   -8.0270    2.1820  -23.7160 C   0  0  0  0  0  0  0  0  0  0  0  0
   -7.5190    2.3300  -25.1490 C   0  0  0  0  0  0  0  0  0  0  0  0
   -6.4820    1.8080  -25.5360 O   0  0  0  0  0  0  0  0  0  0  0  0
   -8.3360    3.0290  -25.9750 N   0  0  0  0  0  0  0  0  0  0  0  0
   -7.9620    3.2030  -27.3640 C   0  0  0  0  0  0  0  0  0  0  0  0
   -7.0110    3.7380  -27.4310 H   0  0  0  0  0  0  0  0  0  0  0  0
   -7.8390    2.2380  -27.8650 H   0  0  0  0  0  0  0  0  0  0  0  0
   -8.7300    3.7780  -27.8840 H   0  0  0  0  0  0  0  0  0  0  0  0
   -9.2510    3.3050  -25.6580 H   0  0  0  0  0  0  0  0  0  0  0  0
   -7.2020    1.8940  -23.0520 H   0  0  0  0  0  0  0  0  0  0  0  0
   -8.4430    3.1290  -23.3590 H   0  0  0  0  0  0  0  0  0  0  0  0
  -10.3660    1.5630  -23.4810 C   0  0  0  0  0  0  0  0  0  0  0  0
  -10.7470    2.7040  -23.7100 O   0  0  0  0  0  0  0  0  0  0  0  0
  -11.2850    0.4930  -22.9750 C   0  0  0  0  0  0  0  0  0  0  0  0
  -12.6400    0.7940  -22.8310 C   0  0  0  0  0  0  0  0  0  0  0  0
  -13.5350   -0.1780  -22.4260 C   0  0  0  0  0  0  0  0  0  0  0  0
  -13.0530   -1.4520  -22.1240 C   0  0  0  0  0  0  0  0  0  0  0  0
  -14.1710   -2.6780  -21.5980 Cl  0  0  0  0  0  0  0  0  0  0  0  0
  -11.7010   -1.7490  -22.2290 C   0  0  0  0  0  0  0  0  0  0  0  0
  -10.8000   -0.7770  -22.6660 C   0  0  0  0  0  0  0  0  0  0  0  0
  -11.3440   -2.7430  -21.9710 H   0  0  0  0  0  0  0  0  0  0  0  0
  -14.5960    0.0430  -22.3490 H   0  0  0  0  0  0  0  0  0  0  0  0
  -12.9730    1.8050  -23.0420 H   0  0  0  0  0  0  0  0  0  0  0  0
   -9.1190   -0.5740  -24.8670 H   0  0  0  0  0  0  0  0  0  0  0  0
   -7.6370   -0.3140  -23.9520 H   0  0  0  0  0  0  0  0  0  0  0  0
   -9.2050   -2.1580  -23.0060 H   0  0  0  0  0  0  0  0  0  0  0  0
   -6.6120   -0.8530  -20.1810 C   0  0  0  0  0  0  0  0  0  0  0  0
   -6.9120   -1.1250  -18.8720 C   0  0  0  0  0  0  0  0  0  0  0  0
   -6.2100   -0.6460  -17.8160 N   0  0  0  0  0  0  0  0  0  0  0  0
   -5.1950    0.1470  -18.0680 C   0  0  0  0  0  0  0  0  0  0  0  0
   -4.7790    0.5060  -19.3800 C   0  0  0  0  0  0  0  0  0  0  0  0
   -3.6620    1.3520  -19.6150 C   0  0  0  0  0  0  0  0  0  0  0  0
   -3.2970    1.6800  -20.8910 C   0  0  0  0  0  0  0  0  0  0  0  0
   -4.0280    1.1920  -21.9960 C   0  0  0  0  0  0  0  0  0  0  0  0
   -5.1020    0.3620  -21.7960 C   0  0  0  0  0  0  0  0  0  0  0  0
   -5.5030   -0.0050  -20.4780 C   0  0  0  0  0  0  0  0  0  0  0  0
   -5.6440   -0.0200  -22.6560 H   0  0  0  0  0  0  0  0  0  0  0  0
   -3.7240    1.4560  -23.0060 H   0  0  0  0  0  0  0  0  0  0  0  0
   -2.4410    2.3240  -21.0660 H   0  0  0  0  0  0  0  0  0  0  0  0
   -3.1200    1.7350  -18.7540 H   0  0  0  0  0  0  0  0  0  0  0  0
   -4.6410    0.5470  -17.2170 H   0  0  0  0  0  0  0  0  0  0  0  0
   -7.7490   -1.7780  -18.6290 H   0  0  0  0  0  0  0  0  0  0  0  0
   -6.9870   -2.3570  -23.1210 H   0  0  0  0  0  0  0  0  0  0  0  0
   -5.6950   -2.4320  -21.8260 H   0  0  0  0  0  0  0  0  0  0  0  0
   -5.9100   -4.1930  -20.5480 C   0  0  0  0  0  0  0  0  0  0  0  0
   -5.0440   -3.2950  -20.4660 O   0  0  0  0  0  0  0  0  0  0  0  0
   -5.8750   -5.2990  -19.9900 O   0  5  0  0  0  0  0  0  0  0  0  0
   -8.8900   -4.3470  -22.4910 H   0  0  0  0  0  0  0  0  0  0  0  0
   -8.2490   -5.6400  -21.3790 H   0  0  0  0  0  0  0  0  0  0  0  0
  1  2  2  0  0  0  0
  1 57  1  0  0  0  0
  1 58  1  0  0  0  0
  2  3  1  0  0  0  0
  2 54  1  0  0  0  0
  3  4  1  0  0  0  0
  3 52  1  0  0  0  0
  3 53  1  0  0  0  0
  4  5  1  0  0  0  0
  4 36  1  0  0  0  0
  5  6  2  0  0  0  0
  5  7  1  0  0  0  0
  7  8  1  0  0  0  0
  7 29  1  0  0  0  0
  7 35  1  6  0  0  0
  8  9  1  0  0  0  0
  8 33  1  0  0  0  0
  8 34  1  0  0  0  0
  9 10  1  0  0  0  0
  9 21  1  0  0  0  0
 10 11  1  0  0  0  0
 10 19  1  0  0  0  0
 10 20  1  0  0  0  0
 11 12  2  0  0  0  0
 11 13  1  0  0  0  0
 13 14  1  0  0  0  0
 13 18  1  0  0  0  0
 14 15  1  0  0  0  0
 14 16  1  0  0  0  0
 14 17  1  0  0  0  0
 21 22  2  0  0  0  0
 21 23  1  0  0  0  0
 23 24  2  0  0  0  0
 23 29  1  0  0  0  0
 24 25  1  0  0  0  0
 24 32  1  0  0  0  0
 25 26  2  0  0  0  0
 25 31  1  0  0  0  0
 26 27  1  0  0  0  0
 26 28  1  0  0  0  0
 28 29  2  0  0  0  0
 28 30  1  0  0  0  0
 36 37  2  0  0  0  0
 36 45  1  0  0  0  0
 37 38  1  0  0  0  0
 37 51  1  0  0  0  0
 38 39  2  0  0  0  0
 39 40  1  0  0  0  0
 39 50  1  0  0  0  0
 40 41  2  0  0  0  0
 40 45  1  0  0  0  0
 41 42  1  0  0  0  0
 41 49  1  0  0  0  0
 42 43  2  0  0  0  0
 42 48  1  0  0  0  0
 43 44  1  0  0  0  0
 43 47  1  0  0  0  0
 44 45  2  0  0  0  0
 44 46  1  0  0  0  0
 54 55  2  0  0  0  0
 54 56  1  0  0  0  0
M  CHG  1  56  -1
M  END
>  <MODEL>
       1

$$$$
