tmp_first_model_15_74.pdb
 OpenBabel08282501153D

 43 47  0  0  1  0  0  0  0  0999 V2000
   -9.4250   -0.4520  -20.9880 O   0  0  0  0  0  0  0  0  0  0  0  0
   -8.7450   -1.3650  -21.3800 C   0  0  0  0  0  0  0  0  0  0  0  0
   -9.1360   -2.4520  -22.1140 N   0  0  0  0  0  0  0  0  0  0  0  0
   -8.0400   -3.1470  -22.7410 C   0  0  1  0  0  0  0  0  0  0  0  0
   -8.1050   -4.6900  -22.7170 C   0  0  0  0  0  0  0  0  0  0  0  0
   -8.2240   -4.7230  -24.2750 C   0  0  2  0  0  0  0  0  0  0  0  0
   -7.1760   -5.5230  -24.9860 C   0  0  0  0  0  0  0  0  0  0  0  0
   -5.8200   -5.2780  -24.7410 C   0  0  0  0  0  0  0  0  0  0  0  0
   -4.8310   -6.0110  -25.3850 C   0  0  0  0  0  0  0  0  0  0  0  0
   -5.1810   -7.0130  -26.2890 C   0  0  0  0  0  0  0  0  0  0  0  0
   -6.5210   -7.2780  -26.5430 C   0  0  0  0  0  0  0  0  0  0  0  0
   -7.4980   -6.5350  -25.8920 C   0  0  0  0  0  0  0  0  0  0  0  0
   -9.1680   -6.9170  -26.2450 Cl  0  0  0  0  0  0  0  0  0  0  0  0
   -6.8270   -8.0520  -27.2420 H   0  0  0  0  0  0  0  0  0  0  0  0
   -4.4110   -7.5880  -26.7970 H   0  0  0  0  0  0  0  0  0  0  0  0
   -3.7870   -5.7970  -25.1800 H   0  0  0  0  0  0  0  0  0  0  0  0
   -5.5480   -4.4960  -24.0300 H   0  0  0  0  0  0  0  0  0  0  0  0
   -8.0350   -3.1710  -24.2990 C   0  0  0  0  0  0  0  0  0  0  0  0
   -8.8570   -2.6040  -24.7520 H   0  0  0  0  0  0  0  0  0  0  0  0
   -7.0980   -2.8280  -24.7560 H   0  0  0  0  0  0  0  0  0  0  0  0
   -9.2250   -5.0180  -24.6020 H   0  0  0  0  0  0  0  0  0  0  0  0
   -8.9690   -5.0650  -22.1630 H   0  0  0  0  0  0  0  0  0  0  0  0
   -7.1940   -5.1500  -22.3160 H   0  0  0  0  0  0  0  0  0  0  0  0
   -6.8400   -2.5170  -22.0520 C   0  0  0  0  0  0  0  0  0  0  0  0
   -5.6780   -2.8090  -22.2250 O   0  0  0  0  0  0  0  0  0  0  0  0
   -7.3400   -1.5180  -21.2060 N   0  0  0  0  0  0  0  0  0  0  0  0
   -6.5850   -0.8590  -20.1880 C   0  0  0  0  0  0  0  0  0  0  0  0
   -6.9100   -1.0600  -18.8680 C   0  0  0  0  0  0  0  0  0  0  0  0
   -6.2170   -0.5460  -17.8240 N   0  0  0  0  0  0  0  0  0  0  0  0
   -5.1800    0.2070  -18.0960 C   0  0  0  0  0  0  0  0  0  0  0  0
   -4.7470    0.5240  -19.4110 C   0  0  0  0  0  0  0  0  0  0  0  0
   -3.6170    1.3570  -19.6370 C   0  0  0  0  0  0  0  0  0  0  0  0
   -3.2270    1.6590  -20.9110 C   0  0  0  0  0  0  0  0  0  0  0  0
   -3.9560    1.1450  -22.0070 C   0  0  0  0  0  0  0  0  0  0  0  0
   -5.0500    0.3370  -21.8130 C   0  0  0  0  0  0  0  0  0  0  0  0
   -5.4700   -0.0120  -20.4990 C   0  0  0  0  0  0  0  0  0  0  0  0
   -5.5990   -0.0500  -22.6660 H   0  0  0  0  0  0  0  0  0  0  0  0
   -3.6460    1.3960  -23.0160 H   0  0  0  0  0  0  0  0  0  0  0  0
   -2.3690    2.3040  -21.0890 H   0  0  0  0  0  0  0  0  0  0  0  0
   -3.0860    1.7560  -18.7780 H   0  0  0  0  0  0  0  0  0  0  0  0
   -4.6290    0.6090  -17.2470 H   0  0  0  0  0  0  0  0  0  0  0  0
   -7.7570   -1.6850  -18.5990 H   0  0  0  0  0  0  0  0  0  0  0  0
  -10.1010   -2.6050  -22.3660 H   0  0  0  0  0  0  0  0  0  0  0  0
  1  2  2  0  0  0  0
  2  3  1  0  0  0  0
  2 26  1  0  0  0  0
  3  4  1  0  0  0  0
  3 43  1  0  0  0  0
  4  5  1  0  0  0  0
  4 18  1  0  0  0  0
  4 24  1  1  0  0  0
  5  6  1  0  0  0  0
  5 22  1  0  0  0  0
  5 23  1  0  0  0  0
  6  7  1  0  0  0  0
  6 18  1  0  0  0  0
  6 21  1  6  0  0  0
  7  8  2  0  0  0  0
  7 12  1  0  0  0  0
  8  9  1  0  0  0  0
  8 17  1  0  0  0  0
  9 10  2  0  0  0  0
  9 16  1  0  0  0  0
 10 11  1  0  0  0  0
 10 15  1  0  0  0  0
 11 12  2  0  0  0  0
 11 14  1  0  0  0  0
 12 13  1  0  0  0  0
 18 19  1  0  0  0  0
 18 20  1  0  0  0  0
 24 25  2  0  0  0  0
 24 26  1  0  0  0  0
 26 27  1  0  0  0  0
 27 28  2  0  0  0  0
 27 36  1  0  0  0  0
 28 29  1  0  0  0  0
 28 42  1  0  0  0  0
 29 30  2  0  0  0  0
 30 31  1  0  0  0  0
 30 41  1  0  0  0  0
 31 32  2  0  0  0  0
 31 36  1  0  0  0  0
 32 33  1  0  0  0  0
 32 40  1  0  0  0  0
 33 34  2  0  0  0  0
 33 39  1  0  0  0  0
 34 35  1  0  0  0  0
 34 38  1  0  0  0  0
 35 36  2  0  0  0  0
 35 37  1  0  0  0  0
M  END
>  <MODEL>
       1

$$$$
