tmp_first_model_7_38.pdb
 OpenBabel08272520323D

 46 48  0  0  1  0  0  0  0  0999 V2000
   -8.1590   -4.6950  -26.5430 C   0  0  0  0  0  0  0  0  0  0  0  0
   -8.6560   -4.9610  -25.1190 C   0  0  1  0  0  0  0  0  0  0  0  0
   -7.5970   -5.5300  -24.1810 C   0  0  0  0  0  0  0  0  0  0  0  0
   -6.6280   -4.5250  -23.5570 C   0  0  1  0  0  0  0  0  0  0  0  0
   -5.4390   -4.1710  -24.4520 C   0  0  0  0  0  0  0  0  0  0  0  0
   -4.6720   -3.7570  -23.8070 H   0  0  0  0  0  0  0  0  0  0  0  0
   -5.6690   -3.4310  -25.2200 H   0  0  0  0  0  0  0  0  0  0  0  0
   -5.0190   -5.0600  -24.9410 H   0  0  0  0  0  0  0  0  0  0  0  0
   -7.3260   -3.3390  -23.0140 N   0  0  0  0  0  0  0  0  0  0  0  0
   -6.7230   -2.7040  -21.9380 C   0  0  0  0  0  0  0  0  0  0  0  0
   -5.6780   -3.1190  -21.4630 O   0  0  0  0  0  0  0  0  0  0  0  0
   -7.4080   -1.4700  -21.2820 C   0  0  0  0  0  0  0  0  0  0  0  0
   -6.5780   -0.8340  -20.1860 C   0  0  0  0  0  0  0  0  0  0  0  0
   -6.8720   -1.0470  -18.8650 C   0  0  0  0  0  0  0  0  0  0  0  0
   -6.1840   -0.5420  -17.8050 N   0  0  0  0  0  0  0  0  0  0  0  0
   -5.1560    0.2230  -18.0690 C   0  0  0  0  0  0  0  0  0  0  0  0
   -4.7190    0.5290  -19.3830 C   0  0  0  0  0  0  0  0  0  0  0  0
   -3.5890    1.3530  -19.6250 C   0  0  0  0  0  0  0  0  0  0  0  0
   -3.1900    1.6330  -20.9030 C   0  0  0  0  0  0  0  0  0  0  0  0
   -3.9070    1.0960  -21.9940 C   0  0  0  0  0  0  0  0  0  0  0  0
   -5.0010    0.2910  -21.7870 C   0  0  0  0  0  0  0  0  0  0  0  0
   -5.4440   -0.0140  -20.4750 C   0  0  0  0  0  0  0  0  0  0  0  0
   -5.5350   -0.1230  -22.6370 H   0  0  0  0  0  0  0  0  0  0  0  0
   -3.5850    1.3240  -23.0050 H   0  0  0  0  0  0  0  0  0  0  0  0
   -2.3320    2.2750  -21.0860 H   0  0  0  0  0  0  0  0  0  0  0  0
   -3.0580    1.7730  -18.7740 H   0  0  0  0  0  0  0  0  0  0  0  0
   -4.6030    0.6280  -17.2170 H   0  0  0  0  0  0  0  0  0  0  0  0
   -7.7200   -1.6700  -18.5850 H   0  0  0  0  0  0  0  0  0  0  0  0
   -7.6720   -0.7130  -22.0320 H   0  0  0  0  0  0  0  0  0  0  0  0
   -8.3590   -1.8080  -20.8470 H   0  0  0  0  0  0  0  0  0  0  0  0
   -8.4110   -2.7190  -23.7940 C   0  0  1  0  0  0  0  0  0  0  0  0
   -7.9400   -1.6590  -24.8010 C   0  0  0  0  0  0  0  0  0  0  0  0
   -7.4440   -2.0880  -25.6760 H   0  0  0  0  0  0  0  0  0  0  0  0
   -8.7990   -1.0850  -25.1700 H   0  0  0  0  0  0  0  0  0  0  0  0
   -7.2440   -0.9500  -24.3420 H   0  0  0  0  0  0  0  0  0  0  0  0
   -9.3300   -3.7770  -24.4250 C   0  0  0  0  0  0  0  0  0  0  0  0
   -9.9800   -4.1690  -23.6360 H   0  0  0  0  0  0  0  0  0  0  0  0
   -9.9960   -3.2760  -25.1360 H   0  0  0  0  0  0  0  0  0  0  0  0
   -9.0340   -2.1940  -23.0640 H   0  0  0  0  0  0  0  0  0  0  0  0
   -6.1940   -5.0180  -22.6840 H   0  0  0  0  0  0  0  0  0  0  0  0
   -8.0960   -6.0590  -23.3640 H   0  0  0  0  0  0  0  0  0  0  0  0
   -7.0120   -6.2880  -24.7140 H   0  0  0  0  0  0  0  0  0  0  0  0
   -9.4290   -5.7360  -25.2250 H   0  0  0  0  0  0  0  0  0  0  0  0
   -7.9240   -5.6410  -27.0470 H   0  0  0  0  0  0  0  0  0  0  0  0
   -8.9310   -4.1940  -27.1380 H   0  0  0  0  0  0  0  0  0  0  0  0
   -7.2560   -4.0810  -26.5810 H   0  0  0  0  0  0  0  0  0  0  0  0
  1  2  1  0  0  0  0
  1 44  1  0  0  0  0
  1 45  1  0  0  0  0
  1 46  1  0  0  0  0
  2  3  1  0  0  0  0
  2 36  1  0  0  0  0
  2 43  1  6  0  0  0
  3  4  1  0  0  0  0
  3 41  1  0  0  0  0
  3 42  1  0  0  0  0
  4  5  1  0  0  0  0
  4  9  1  0  0  0  0
  4 40  1  1  0  0  0
  5  6  1  0  0  0  0
  5  7  1  0  0  0  0
  5  8  1  0  0  0  0
  9 10  1  0  0  0  0
  9 31  1  0  0  0  0
 10 11  2  0  0  0  0
 10 12  1  0  0  0  0
 12 13  1  0  0  0  0
 12 29  1  0  0  0  0
 12 30  1  0  0  0  0
 13 14  2  0  0  0  0
 13 22  1  0  0  0  0
 14 15  1  0  0  0  0
 14 28  1  0  0  0  0
 15 16  2  0  0  0  0
 16 17  1  0  0  0  0
 16 27  1  0  0  0  0
 17 18  2  0  0  0  0
 17 22  1  0  0  0  0
 18 19  1  0  0  0  0
 18 26  1  0  0  0  0
 19 20  2  0  0  0  0
 19 25  1  0  0  0  0
 20 21  1  0  0  0  0
 20 24  1  0  0  0  0
 21 22  2  0  0  0  0
 21 23  1  0  0  0  0
 31 32  1  0  0  0  0
 31 36  1  0  0  0  0
 31 39  1  1  0  0  0
 32 33  1  0  0  0  0
 32 34  1  0  0  0  0
 32 35  1  0  0  0  0
 36 37  1  0  0  0  0
 36 38  1  0  0  0  0
M  END
>  <MODEL>
       1

$$$$
