tmp_first_model_18_13.pdb
 OpenBabel08282502533D

 69 74  0  0  1  0  0  0  0  0999 V2000
   -6.9110    0.3580  -29.3510 C   0  0  0  0  0  0  0  0  0  0  0  0
   -7.3600    0.7550  -28.0370 N   0  0  0  0  0  0  0  0  0  0  0  0
   -6.6830    0.3520  -26.9310 C   0  0  0  0  0  0  0  0  0  0  0  0
   -5.7450   -0.4250  -26.9520 O   0  0  0  0  0  0  0  0  0  0  0  0
   -7.1900    0.9700  -25.6240 C   0  0  0  0  0  0  0  0  0  0  0  0
   -8.2740    0.2070  -25.0250 N   0  0  0  0  0  0  0  0  0  0  0  0
   -7.9420   -1.0430  -24.3540 C   0  0  0  0  0  0  0  0  0  0  0  0
   -8.8550   -1.2900  -23.1140 C   0  0  2  0  0  0  0  0  0  0  0  0
   -8.3570   -0.3800  -21.9510 C   0  0  0  0  0  0  0  0  0  0  0  0
   -8.6290    0.7760  -21.7380 O   0  0  0  0  0  0  0  0  0  0  0  0
   -7.4790   -1.1400  -21.1830 N   0  0  0  0  0  0  0  0  0  0  0  0
   -6.6560   -0.6210  -20.1470 C   0  0  0  0  0  0  0  0  0  0  0  0
   -6.9300   -0.9310  -18.8380 C   0  0  0  0  0  0  0  0  0  0  0  0
   -6.2240   -0.4820  -17.7700 N   0  0  0  0  0  0  0  0  0  0  0  0
   -5.1890    0.2870  -18.0100 C   0  0  0  0  0  0  0  0  0  0  0  0
   -4.7450    0.6320  -19.3180 C   0  0  0  0  0  0  0  0  0  0  0  0
   -3.5890    1.4310  -19.5330 C   0  0  0  0  0  0  0  0  0  0  0  0
   -3.1380    1.6680  -20.8020 C   0  0  0  0  0  0  0  0  0  0  0  0
   -3.8170    1.1210  -21.9120 C   0  0  0  0  0  0  0  0  0  0  0  0
   -4.9570    0.3770  -21.7320 C   0  0  0  0  0  0  0  0  0  0  0  0
   -5.4680    0.1330  -20.4280 C   0  0  0  0  0  0  0  0  0  0  0  0
   -5.4670   -0.0400  -22.5960 H   0  0  0  0  0  0  0  0  0  0  0  0
   -3.4360    1.2860  -22.9150 H   0  0  0  0  0  0  0  0  0  0  0  0
   -2.2470    2.2690  -20.9670 H   0  0  0  0  0  0  0  0  0  0  0  0
   -3.0720    1.8410  -18.6690 H   0  0  0  0  0  0  0  0  0  0  0  0
   -4.6250    0.6490  -17.1490 H   0  0  0  0  0  0  0  0  0  0  0  0
   -7.7760   -1.5770  -18.6110 H   0  0  0  0  0  0  0  0  0  0  0  0
   -7.3220   -2.4990  -21.6670 C   0  0  0  0  0  0  0  0  0  0  0  0
   -8.6060   -2.6810  -22.4760 C   0  0  2  0  0  0  0  0  0  0  0  0
   -8.6090   -3.8350  -23.4600 C   0  0  0  0  0  0  0  0  0  0  0  0
   -8.6760   -5.1190  -22.7880 N   0  0  0  0  0  0  0  0  0  0  0  0
   -8.0990   -6.1810  -23.4080 C   0  0  0  0  0  0  0  0  0  0  0  0
   -7.6090   -7.2990  -22.7090 C   0  0  0  0  0  0  0  0  0  0  0  0
   -6.8620   -8.1760  -23.4520 C   0  0  0  0  0  0  0  0  0  0  0  0
   -6.6940   -8.0770  -24.7800 N   0  0  0  0  0  0  0  0  0  0  0  0
   -7.3110   -7.0550  -25.3580 C   0  0  0  0  0  0  0  0  0  0  0  0
   -7.2100   -6.9350  -26.8500 C   0  0  0  0  0  0  0  0  0  0  0  0
   -6.3820   -7.5440  -27.2210 H   0  0  0  0  0  0  0  0  0  0  0  0
   -7.0690   -5.8860  -27.1280 H   0  0  0  0  0  0  0  0  0  0  0  0
   -8.1300   -7.2940  -27.3230 H   0  0  0  0  0  0  0  0  0  0  0  0
   -7.9770   -6.0830  -24.7330 N   0  0  0  0  0  0  0  0  0  0  0  0
   -6.3310   -8.9980  -22.9760 H   0  0  0  0  0  0  0  0  0  0  0  0
   -7.7350   -7.4400  -21.6420 H   0  0  0  0  0  0  0  0  0  0  0  0
   -8.6640   -5.1390  -21.7830 H   0  0  0  0  0  0  0  0  0  0  0  0
   -9.4460   -3.7600  -24.1640 H   0  0  0  0  0  0  0  0  0  0  0  0
   -7.7070   -3.8070  -24.0840 H   0  0  0  0  0  0  0  0  0  0  0  0
   -9.4030   -2.8650  -21.7450 H   0  0  0  0  0  0  0  0  0  0  0  0
   -7.2270   -3.1820  -20.8180 H   0  0  0  0  0  0  0  0  0  0  0  0
   -6.4230   -2.6220  -22.3040 H   0  0  0  0  0  0  0  0  0  0  0  0
  -10.2900   -1.0950  -23.5690 C   0  0  0  0  0  0  0  0  0  0  0  0
  -11.3530   -1.7080  -22.8880 C   0  0  0  0  0  0  0  0  0  0  0  0
  -12.6530   -1.5290  -23.3190 C   0  0  0  0  0  0  0  0  0  0  0  0
  -13.9380   -2.3220  -22.4600 Cl  0  0  0  0  0  0  0  0  0  0  0  0
  -12.9650   -0.7290  -24.4150 C   0  0  0  0  0  0  0  0  0  0  0  0
  -11.9270   -0.1210  -25.0900 C   0  0  0  0  0  0  0  0  0  0  0  0
  -10.6050   -0.3130  -24.6930 C   0  0  0  0  0  0  0  0  0  0  0  0
   -9.5470    0.3980  -25.4740 C   0  0  0  0  0  0  0  0  0  0  0  0
   -9.8070    1.1040  -26.4500 O   0  0  0  0  0  0  0  0  0  0  0  0
  -12.1070    0.5360  -25.9290 H   0  0  0  0  0  0  0  0  0  0  0  0
  -13.9970   -0.5850  -24.7140 H   0  0  0  0  0  0  0  0  0  0  0  0
  -11.1900   -2.2990  -21.9930 H   0  0  0  0  0  0  0  0  0  0  0  0
   -8.0620   -1.8790  -25.0590 H   0  0  0  0  0  0  0  0  0  0  0  0
   -6.8840   -1.0060  -24.0730 H   0  0  0  0  0  0  0  0  0  0  0  0
   -7.5170    2.0020  -25.7800 H   0  0  0  0  0  0  0  0  0  0  0  0
   -6.3580    0.9780  -24.9160 H   0  0  0  0  0  0  0  0  0  0  0  0
   -8.2780    1.1570  -27.9060 H   0  0  0  0  0  0  0  0  0  0  0  0
   -7.1180   -0.6950  -29.5670 H   0  0  0  0  0  0  0  0  0  0  0  0
   -5.8320    0.5080  -29.4280 H   0  0  0  0  0  0  0  0  0  0  0  0
   -7.4090    0.9800  -30.0970 H   0  0  0  0  0  0  0  0  0  0  0  0
  1  2  1  0  0  0  0
  1 67  1  0  0  0  0
  1 68  1  0  0  0  0
  1 69  1  0  0  0  0
  2  3  1  0  0  0  0
  2 66  1  0  0  0  0
  3  4  2  0  0  0  0
  3  5  1  0  0  0  0
  5  6  1  0  0  0  0
  5 64  1  0  0  0  0
  5 65  1  0  0  0  0
  6  7  1  0  0  0  0
  6 57  1  0  0  0  0
  7  8  1  0  0  0  0
  7 62  1  0  0  0  0
  7 63  1  0  0  0  0
  8  9  1  1  0  0  0
  8 29  1  0  0  0  0
  8 50  1  0  0  0  0
  9 10  2  0  0  0  0
  9 11  1  0  0  0  0
 11 12  1  0  0  0  0
 11 28  1  0  0  0  0
 12 13  2  0  0  0  0
 12 21  1  0  0  0  0
 13 14  1  0  0  0  0
 13 27  1  0  0  0  0
 14 15  2  0  0  0  0
 15 16  1  0  0  0  0
 15 26  1  0  0  0  0
 16 17  2  0  0  0  0
 16 21  1  0  0  0  0
 17 18  1  0  0  0  0
 17 25  1  0  0  0  0
 18 19  2  0  0  0  0
 18 24  1  0  0  0  0
 19 20  1  0  0  0  0
 19 23  1  0  0  0  0
 20 21  2  0  0  0  0
 20 22  1  0  0  0  0
 28 29  1  0  0  0  0
 28 48  1  0  0  0  0
 28 49  1  0  0  0  0
 29 30  1  0  0  0  0
 29 47  1  1  0  0  0
 30 31  1  0  0  0  0
 30 45  1  0  0  0  0
 30 46  1  0  0  0  0
 31 32  1  0  0  0  0
 31 44  1  0  0  0  0
 32 33  2  0  0  0  0
 32 41  1  0  0  0  0
 33 34  1  0  0  0  0
 33 43  1  0  0  0  0
 34 35  2  0  0  0  0
 34 42  1  0  0  0  0
 35 36  1  0  0  0  0
 36 37  1  0  0  0  0
 36 41  2  0  0  0  0
 37 38  1  0  0  0  0
 37 39  1  0  0  0  0
 37 40  1  0  0  0  0
 50 51  2  0  0  0  0
 50 56  1  0  0  0  0
 51 52  1  0  0  0  0
 51 61  1  0  0  0  0
 52 53  1  0  0  0  0
 52 54  2  0  0  0  0
 54 55  1  0  0  0  0
 54 60  1  0  0  0  0
 55 56  2  0  0  0  0
 55 59  1  0  0  0  0
 56 57  1  0  0  0  0
 57 58  2  0  0  0  0
M  END
>  <MODEL>
       1

$$$$
