tmp_first_model_20_59.pdb
 OpenBabel08282503553D

 60 65  0  0  1  0  0  0  0  0999 V2000
   -7.7440    3.2660  -22.4620 C   0  0  0  0  0  0  0  0  0  0  0  0
   -8.5290    2.7310  -23.5490 N   0  0  0  0  0  0  0  0  0  0  0  0
   -7.9210    2.0670  -24.5590 C   0  0  0  0  0  0  0  0  0  0  0  0
   -6.7100    2.0370  -24.7110 O   0  0  0  0  0  0  0  0  0  0  0  0
   -8.9070    1.3080  -25.4530 C   0  0  0  0  0  0  0  0  0  0  0  0
   -9.5710    0.2610  -24.6870 N   0  0  0  0  0  0  0  0  0  0  0  0
   -8.7290   -0.8530  -24.2950 C   0  0  0  0  0  0  0  0  0  0  0  0
   -9.1400   -1.5370  -22.9580 C   0  0  2  0  0  0  0  0  0  0  0  0
   -8.5940   -0.7050  -21.7630 C   0  0  0  0  0  0  0  0  0  0  0  0
   -9.0410    0.3460  -21.3530 O   0  0  0  0  0  0  0  0  0  0  0  0
   -7.4900   -1.3460  -21.2390 N   0  0  0  0  0  0  0  0  0  0  0  0
   -6.6950   -0.7700  -20.2050 C   0  0  0  0  0  0  0  0  0  0  0  0
   -7.0000   -1.0140  -18.8900 C   0  0  0  0  0  0  0  0  0  0  0  0
   -6.2860   -0.5560  -17.8290 N   0  0  0  0  0  0  0  0  0  0  0  0
   -5.2220    0.1640  -18.0780 C   0  0  0  0  0  0  0  0  0  0  0  0
   -4.7780    0.4960  -19.3900 C   0  0  0  0  0  0  0  0  0  0  0  0
   -3.6200    1.2880  -19.6170 C   0  0  0  0  0  0  0  0  0  0  0  0
   -3.2390    1.6080  -20.8900 C   0  0  0  0  0  0  0  0  0  0  0  0
   -4.0020    1.1660  -21.9940 C   0  0  0  0  0  0  0  0  0  0  0  0
   -5.1320    0.4080  -21.7990 C   0  0  0  0  0  0  0  0  0  0  0  0
   -5.5410    0.0320  -20.4900 C   0  0  0  0  0  0  0  0  0  0  0  0
   -5.7410    0.1210  -22.6520 H   0  0  0  0  0  0  0  0  0  0  0  0
   -3.6990    1.4340  -23.0010 H   0  0  0  0  0  0  0  0  0  0  0  0
   -2.3580    2.2210  -21.0660 H   0  0  0  0  0  0  0  0  0  0  0  0
   -3.0490    1.6410  -18.7620 H   0  0  0  0  0  0  0  0  0  0  0  0
   -4.6540    0.5340  -17.2200 H   0  0  0  0  0  0  0  0  0  0  0  0
   -7.8680   -1.6200  -18.6450 H   0  0  0  0  0  0  0  0  0  0  0  0
   -7.1130   -2.5470  -21.9620 C   0  0  0  0  0  0  0  0  0  0  0  0
   -8.3740   -2.8780  -22.7770 C   0  0  2  0  0  0  0  0  0  0  0  0
   -8.0700   -3.6860  -24.0530 C   0  0  0  0  0  0  0  0  0  0  0  0
   -7.4870   -5.0110  -23.6950 C   0  0  0  0  0  0  0  0  0  0  0  0
   -8.1860   -6.0570  -23.2800 N   0  0  0  0  0  0  0  0  0  0  0  0
   -7.2750   -6.9760  -22.9780 N   0  0  0  0  0  0  0  0  0  0  0  0
   -6.0790   -6.4950  -23.2030 N   0  5  0  0  0  0  0  0  0  0  0  0
   -6.1830   -5.2510  -23.6600 N   0  0  0  0  0  0  0  0  0  0  0  0
   -7.3360   -3.1730  -24.6800 H   0  0  0  0  0  0  0  0  0  0  0  0
   -8.9860   -3.8340  -24.6310 H   0  0  0  0  0  0  0  0  0  0  0  0
   -8.9970   -3.5200  -22.1520 H   0  0  0  0  0  0  0  0  0  0  0  0
   -6.2340   -2.3910  -22.6080 H   0  0  0  0  0  0  0  0  0  0  0  0
   -6.8490   -3.3600  -21.2790 H   0  0  0  0  0  0  0  0  0  0  0  0
  -10.6550   -1.6300  -22.8610 C   0  0  0  0  0  0  0  0  0  0  0  0
  -11.2810   -2.5270  -21.9840 C   0  0  0  0  0  0  0  0  0  0  0  0
  -12.6590   -2.5530  -21.8620 C   0  0  0  0  0  0  0  0  0  0  0  0
  -13.4100   -3.7080  -20.8010 Cl  0  0  0  0  0  0  0  0  0  0  0  0
  -13.4760   -1.6690  -22.5630 C   0  0  0  0  0  0  0  0  0  0  0  0
  -12.8630   -0.7370  -23.3720 C   0  0  0  0  0  0  0  0  0  0  0  0
  -11.4760   -0.7050  -23.5200 C   0  0  0  0  0  0  0  0  0  0  0  0
  -10.8850    0.3980  -24.3480 C   0  0  0  0  0  0  0  0  0  0  0  0
  -11.5440    1.3770  -24.6820 O   0  0  0  0  0  0  0  0  0  0  0  0
  -13.4550    0.0050  -23.8910 H   0  0  0  0  0  0  0  0  0  0  0  0
  -14.5550   -1.7090  -22.4420 H   0  0  0  0  0  0  0  0  0  0  0  0
  -10.7110   -3.2010  -21.3550 H   0  0  0  0  0  0  0  0  0  0  0  0
   -8.6790   -1.5790  -25.1160 H   0  0  0  0  0  0  0  0  0  0  0  0
   -7.7210   -0.4470  -24.1770 H   0  0  0  0  0  0  0  0  0  0  0  0
   -8.3440    0.8910  -26.2890 H   0  0  0  0  0  0  0  0  0  0  0  0
   -9.6850    1.9630  -25.8500 H   0  0  0  0  0  0  0  0  0  0  0  0
   -9.4900    2.5140  -23.3520 H   0  0  0  0  0  0  0  0  0  0  0  0
   -8.3240    4.0160  -21.9130 H   0  0  0  0  0  0  0  0  0  0  0  0
   -6.8470    3.7300  -22.8770 H   0  0  0  0  0  0  0  0  0  0  0  0
   -7.4190    2.4630  -21.7840 H   0  0  0  0  0  0  0  0  0  0  0  0
  1  2  1  0  0  0  0
  1 58  1  0  0  0  0
  1 59  1  0  0  0  0
  1 60  1  0  0  0  0
  2  3  1  0  0  0  0
  2 57  1  0  0  0  0
  3  4  2  0  0  0  0
  3  5  1  0  0  0  0
  5  6  1  0  0  0  0
  5 55  1  0  0  0  0
  5 56  1  0  0  0  0
  6  7  1  0  0  0  0
  6 48  1  0  0  0  0
  7  8  1  0  0  0  0
  7 53  1  0  0  0  0
  7 54  1  0  0  0  0
  8  9  1  1  0  0  0
  8 29  1  0  0  0  0
  8 41  1  0  0  0  0
  9 10  2  0  0  0  0
  9 11  1  0  0  0  0
 11 12  1  0  0  0  0
 11 28  1  0  0  0  0
 12 13  2  0  0  0  0
 12 21  1  0  0  0  0
 13 14  1  0  0  0  0
 13 27  1  0  0  0  0
 14 15  2  0  0  0  0
 15 16  1  0  0  0  0
 15 26  1  0  0  0  0
 16 17  2  0  0  0  0
 16 21  1  0  0  0  0
 17 18  1  0  0  0  0
 17 25  1  0  0  0  0
 18 19  2  0  0  0  0
 18 24  1  0  0  0  0
 19 20  1  0  0  0  0
 19 23  1  0  0  0  0
 20 21  2  0  0  0  0
 20 22  1  0  0  0  0
 28 29  1  0  0  0  0
 28 39  1  0  0  0  0
 28 40  1  0  0  0  0
 29 30  1  0  0  0  0
 29 38  1  1  0  0  0
 30 31  1  0  0  0  0
 30 36  1  0  0  0  0
 30 37  1  0  0  0  0
 31 32  1  0  0  0  0
 31 35  2  0  0  0  0
 32 33  2  0  0  0  0
 33 34  1  0  0  0  0
 34 35  1  0  0  0  0
 41 42  2  0  0  0  0
 41 47  1  0  0  0  0
 42 43  1  0  0  0  0
 42 52  1  0  0  0  0
 43 44  1  0  0  0  0
 43 45  2  0  0  0  0
 45 46  1  0  0  0  0
 45 51  1  0  0  0  0
 46 47  2  0  0  0  0
 46 50  1  0  0  0  0
 47 48  1  0  0  0  0
 48 49  2  0  0  0  0
M  CHG  1  34  -1
M  END
>  <MODEL>
       1

$$$$
