tmp_first_model_9_43.pdb
 OpenBabel08272521403D

 67 72  0  0  1  0  0  0  0  0999 V2000
   -7.3910    3.3850  -21.7610 C   0  0  0  0  0  0  0  0  0  0  0  0
   -8.2600    2.9350  -22.8350 N   0  0  0  0  0  0  0  0  0  0  0  0
   -7.6910    2.2580  -23.8570 C   0  0  0  0  0  0  0  0  0  0  0  0
   -6.4760    2.1560  -23.9740 O   0  0  0  0  0  0  0  0  0  0  0  0
   -8.6400    1.6420  -24.8910 C   0  0  0  0  0  0  0  0  0  0  0  0
   -9.3630    0.4800  -24.4020 N   0  0  0  0  0  0  0  0  0  0  0  0
   -8.6420   -0.7710  -24.2470 C   0  0  0  0  0  0  0  0  0  0  0  0
   -9.0340   -1.5050  -22.9380 C   0  0  2  0  0  0  0  0  0  0  0  0
   -8.4970   -0.7230  -21.7090 C   0  0  0  0  0  0  0  0  0  0  0  0
   -8.9440    0.3050  -21.2420 O   0  0  0  0  0  0  0  0  0  0  0  0
   -7.4000   -1.3860  -21.2060 N   0  0  0  0  0  0  0  0  0  0  0  0
   -6.6030   -0.8110  -20.1780 C   0  0  0  0  0  0  0  0  0  0  0  0
   -6.9060   -1.0430  -18.8620 C   0  0  0  0  0  0  0  0  0  0  0  0
   -6.1990   -0.5500  -17.8170 N   0  0  0  0  0  0  0  0  0  0  0  0
   -5.1660    0.2090  -18.0800 C   0  0  0  0  0  0  0  0  0  0  0  0
   -4.7280    0.5310  -19.3960 C   0  0  0  0  0  0  0  0  0  0  0  0
   -3.6020    1.3650  -19.6400 C   0  0  0  0  0  0  0  0  0  0  0  0
   -3.2160    1.6570  -20.9190 C   0  0  0  0  0  0  0  0  0  0  0  0
   -3.9410    1.1300  -22.0120 C   0  0  0  0  0  0  0  0  0  0  0  0
   -5.0330    0.3230  -21.8010 C   0  0  0  0  0  0  0  0  0  0  0  0
   -5.4640    0.0040  -20.4860 C   0  0  0  0  0  0  0  0  0  0  0  0
   -5.5880   -0.0660  -22.6510 H   0  0  0  0  0  0  0  0  0  0  0  0
   -3.6470    1.3660  -23.0290 H   0  0  0  0  0  0  0  0  0  0  0  0
   -2.3620    2.3050  -21.1000 H   0  0  0  0  0  0  0  0  0  0  0  0
   -3.0750    1.7760  -18.7820 H   0  0  0  0  0  0  0  0  0  0  0  0
   -4.6180    0.6140  -17.2280 H   0  0  0  0  0  0  0  0  0  0  0  0
   -7.7580   -1.6670  -18.6030 H   0  0  0  0  0  0  0  0  0  0  0  0
   -7.0440   -2.5880  -21.9300 C   0  0  0  0  0  0  0  0  0  0  0  0
   -8.2890   -2.8720  -22.7930 C   0  0  2  0  0  0  0  0  0  0  0  0
   -7.9210   -3.6310  -24.0880 C   0  0  0  0  0  0  0  0  0  0  0  0
   -7.3800   -4.9380  -23.8010 N   0  0  0  0  0  0  0  0  0  0  0  0
   -6.0600   -5.2850  -23.8090 C   0  0  0  0  0  0  0  0  0  0  0  0
   -4.8020   -4.2320  -24.4220 S   0  0  0  0  0  0  0  0  0  0  0  0
   -3.6510   -5.4720  -23.9960 C   0  0  0  0  0  0  0  0  0  0  0  0
   -4.1440   -6.5400  -23.4690 N   0  0  0  0  0  0  0  0  0  0  0  0
   -5.5210   -6.4600  -23.3640 C   0  0  0  0  0  0  0  0  0  0  0  0
   -6.3050   -7.6050  -22.7850 C   0  0  0  0  0  0  0  0  0  0  0  0
   -7.0260   -8.0160  -23.5050 H   0  0  0  0  0  0  0  0  0  0  0  0
   -6.8650   -7.3010  -21.8900 H   0  0  0  0  0  0  0  0  0  0  0  0
   -5.6180   -8.4070  -22.5000 H   0  0  0  0  0  0  0  0  0  0  0  0
   -2.5930   -5.3140  -24.1810 H   0  0  0  0  0  0  0  0  0  0  0  0
   -8.0170   -5.6620  -23.5060 H   0  0  0  0  0  0  0  0  0  0  0  0
   -8.8140   -3.7760  -24.7050 H   0  0  0  0  0  0  0  0  0  0  0  0
   -7.1780   -3.0710  -24.6750 H   0  0  0  0  0  0  0  0  0  0  0  0
   -8.9550   -3.5250  -22.2220 H   0  0  0  0  0  0  0  0  0  0  0  0
   -6.1500   -2.4330  -22.5530 H   0  0  0  0  0  0  0  0  0  0  0  0
   -6.8140   -3.4120  -21.2430 H   0  0  0  0  0  0  0  0  0  0  0  0
  -10.5530   -1.5510  -22.8650 C   0  0  0  0  0  0  0  0  0  0  0  0
  -11.1910   -2.4340  -21.9840 C   0  0  0  0  0  0  0  0  0  0  0  0
  -12.5710   -2.4570  -21.9010 C   0  0  0  0  0  0  0  0  0  0  0  0
  -13.3470   -3.5680  -20.8090 Cl  0  0  0  0  0  0  0  0  0  0  0  0
  -13.3620   -1.5960  -22.6610 C   0  0  0  0  0  0  0  0  0  0  0  0
  -12.7390   -0.6700  -23.4740 C   0  0  0  0  0  0  0  0  0  0  0  0
  -11.3470   -0.6220  -23.5540 C   0  0  0  0  0  0  0  0  0  0  0  0
  -10.7300    0.5140  -24.3220 C   0  0  0  0  0  0  0  0  0  0  0  0
  -11.4060    1.4090  -24.8030 O   0  0  0  0  0  0  0  0  0  0  0  0
  -13.3050    0.0570  -24.0470 H   0  0  0  0  0  0  0  0  0  0  0  0
  -14.4410   -1.6410  -22.5830 H   0  0  0  0  0  0  0  0  0  0  0  0
  -10.6240   -3.0870  -21.3320 H   0  0  0  0  0  0  0  0  0  0  0  0
   -7.5750   -0.5260  -24.2260 H   0  0  0  0  0  0  0  0  0  0  0  0
   -8.8410   -1.4340  -25.1050 H   0  0  0  0  0  0  0  0  0  0  0  0
   -8.0050    1.3790  -25.7450 H   0  0  0  0  0  0  0  0  0  0  0  0
   -9.4080    2.3510  -25.2130 H   0  0  0  0  0  0  0  0  0  0  0  0
   -9.2560    2.8580  -22.6810 H   0  0  0  0  0  0  0  0  0  0  0  0
   -6.7870    2.5400  -21.3950 H   0  0  0  0  0  0  0  0  0  0  0  0
   -6.7070    4.1630  -22.1160 H   0  0  0  0  0  0  0  0  0  0  0  0
   -8.0020    3.8020  -20.9630 H   0  0  0  0  0  0  0  0  0  0  0  0
  1  2  1  0  0  0  0
  1 65  1  0  0  0  0
  1 66  1  0  0  0  0
  1 67  1  0  0  0  0
  2  3  1  0  0  0  0
  2 64  1  0  0  0  0
  3  4  2  0  0  0  0
  3  5  1  0  0  0  0
  5  6  1  0  0  0  0
  5 62  1  0  0  0  0
  5 63  1  0  0  0  0
  6  7  1  0  0  0  0
  6 55  1  0  0  0  0
  7  8  1  0  0  0  0
  7 60  1  0  0  0  0
  7 61  1  0  0  0  0
  8  9  1  1  0  0  0
  8 29  1  0  0  0  0
  8 48  1  0  0  0  0
  9 10  2  0  0  0  0
  9 11  1  0  0  0  0
 11 12  1  0  0  0  0
 11 28  1  0  0  0  0
 12 13  2  0  0  0  0
 12 21  1  0  0  0  0
 13 14  1  0  0  0  0
 13 27  1  0  0  0  0
 14 15  2  0  0  0  0
 15 16  1  0  0  0  0
 15 26  1  0  0  0  0
 16 17  2  0  0  0  0
 16 21  1  0  0  0  0
 17 18  1  0  0  0  0
 17 25  1  0  0  0  0
 18 19  2  0  0  0  0
 18 24  1  0  0  0  0
 19 20  1  0  0  0  0
 19 23  1  0  0  0  0
 20 21  2  0  0  0  0
 20 22  1  0  0  0  0
 28 29  1  0  0  0  0
 28 46  1  0  0  0  0
 28 47  1  0  0  0  0
 29 30  1  0  0  0  0
 29 45  1  1  0  0  0
 30 31  1  0  0  0  0
 30 43  1  0  0  0  0
 30 44  1  0  0  0  0
 31 32  1  0  0  0  0
 31 42  1  0  0  0  0
 32 33  1  0  0  0  0
 32 36  2  0  0  0  0
 33 34  1  0  0  0  0
 34 35  2  0  0  0  0
 34 41  1  0  0  0  0
 35 36  1  0  0  0  0
 36 37  1  0  0  0  0
 37 38  1  0  0  0  0
 37 39  1  0  0  0  0
 37 40  1  0  0  0  0
 48 49  2  0  0  0  0
 48 54  1  0  0  0  0
 49 50  1  0  0  0  0
 49 59  1  0  0  0  0
 50 51  1  0  0  0  0
 50 52  2  0  0  0  0
 52 53  1  0  0  0  0
 52 58  1  0  0  0  0
 53 54  2  0  0  0  0
 53 57  1  0  0  0  0
 54 55  1  0  0  0  0
 55 56  2  0  0  0  0
M  END
>  <MODEL>
       1

$$$$
