tmp_first_model_20_32.pdb
 OpenBabel08282503553D

 57 62  0  0  1  0  0  0  0  0999 V2000
   -8.0930   -4.0070  -23.7960 C   0  0  0  0  0  0  0  0  0  0  0  0
   -8.3140   -3.1870  -22.5190 C   0  0  1  0  0  0  0  0  0  0  0  0
   -7.0200   -2.4900  -22.0490 C   0  0  0  0  0  0  0  0  0  0  0  0
   -7.4940   -1.3550  -21.2720 N   0  0  0  0  0  0  0  0  0  0  0  0
   -6.7270   -0.7930  -20.2110 C   0  0  0  0  0  0  0  0  0  0  0  0
   -7.0620   -1.0140  -18.8930 C   0  0  0  0  0  0  0  0  0  0  0  0
   -6.3390   -0.5660  -17.8330 N   0  0  0  0  0  0  0  0  0  0  0  0
   -5.2570    0.1290  -18.0840 C   0  0  0  0  0  0  0  0  0  0  0  0
   -4.7940    0.4440  -19.3910 C   0  0  0  0  0  0  0  0  0  0  0  0
   -3.6450    1.2550  -19.6140 C   0  0  0  0  0  0  0  0  0  0  0  0
   -3.2370    1.5430  -20.8870 C   0  0  0  0  0  0  0  0  0  0  0  0
   -3.9330    1.0020  -21.9940 C   0  0  0  0  0  0  0  0  0  0  0  0
   -5.0320    0.1990  -21.7990 C   0  0  0  0  0  0  0  0  0  0  0  0
   -5.5230   -0.0620  -20.4920 C   0  0  0  0  0  0  0  0  0  0  0  0
   -5.5530   -0.2140  -22.6590 H   0  0  0  0  0  0  0  0  0  0  0  0
   -3.6080    1.2360  -23.0040 H   0  0  0  0  0  0  0  0  0  0  0  0
   -2.3900    2.2030  -21.0630 H   0  0  0  0  0  0  0  0  0  0  0  0
   -3.1070    1.6460  -18.7550 H   0  0  0  0  0  0  0  0  0  0  0  0
   -4.6830    0.4810  -17.2250 H   0  0  0  0  0  0  0  0  0  0  0  0
   -7.9450   -1.5950  -18.6430 H   0  0  0  0  0  0  0  0  0  0  0  0
   -8.8240   -1.0500  -21.5230 C   0  0  0  0  0  0  0  0  0  0  0  0
   -9.4410   -0.1510  -20.9900 O   0  0  0  0  0  0  0  0  0  0  0  0
   -9.3730   -2.0410  -22.6090 C   0  0  1  0  0  0  0  0  0  0  0  0
   -9.3160   -1.3920  -24.0220 C   0  0  0  0  0  0  0  0  0  0  0  0
  -10.3660   -0.4100  -24.2750 N   0  0  0  0  0  0  0  0  0  0  0  0
   -9.9650    0.8230  -24.9490 C   0  0  0  0  0  0  0  0  0  0  0  0
   -9.1340    1.6230  -23.9990 C   0  0  0  0  0  0  0  0  0  0  0  0
   -7.8210    1.6680  -23.9780 N   0  0  0  0  0  0  0  0  0  0  0  0
   -7.4910    2.3060  -22.8370 N   0  0  0  0  0  0  0  0  0  0  0  0
   -8.5430    2.6280  -22.1730 N   0  0  0  0  0  0  0  0  0  0  0  0
   -9.5980    2.2030  -22.8870 N   0  0  0  0  0  0  0  0  0  0  0  0
  -10.9300    2.4980  -22.3950 C   0  0  0  0  0  0  0  0  0  0  0  0
  -11.0390    2.0400  -21.4100 H   0  0  0  0  0  0  0  0  0  0  0  0
  -11.7080    2.1440  -23.0720 H   0  0  0  0  0  0  0  0  0  0  0  0
  -11.0220    3.5790  -22.3110 H   0  0  0  0  0  0  0  0  0  0  0  0
  -10.8660    1.3590  -25.2570 H   0  0  0  0  0  0  0  0  0  0  0  0
   -9.3580    0.5890  -25.8330 H   0  0  0  0  0  0  0  0  0  0  0  0
  -11.6450   -0.5300  -23.8210 C   0  0  0  0  0  0  0  0  0  0  0  0
  -12.5500    0.2150  -24.1900 O   0  0  0  0  0  0  0  0  0  0  0  0
  -11.8820   -1.6320  -22.8390 C   0  0  0  0  0  0  0  0  0  0  0  0
  -13.2010   -1.8460  -22.4380 C   0  0  0  0  0  0  0  0  0  0  0  0
  -13.5140   -2.8550  -21.5530 C   0  0  0  0  0  0  0  0  0  0  0  0
  -12.4810   -3.6560  -21.1070 C   0  0  0  0  0  0  0  0  0  0  0  0
  -12.7720   -4.5680  -20.1620 F   0  0  0  0  0  0  0  0  0  0  0  0
  -11.1750   -3.4980  -21.5270 C   0  0  0  0  0  0  0  0  0  0  0  0
  -10.8250   -2.4300  -22.3600 C   0  0  0  0  0  0  0  0  0  0  0  0
  -10.4390   -4.1610  -21.0980 H   0  0  0  0  0  0  0  0  0  0  0  0
  -14.5150   -3.0420  -21.1890 H   0  0  0  0  0  0  0  0  0  0  0  0
  -13.9760   -1.1990  -22.8250 H   0  0  0  0  0  0  0  0  0  0  0  0
   -8.3550   -0.8770  -24.1270 H   0  0  0  0  0  0  0  0  0  0  0  0
   -9.3920   -2.1720  -24.7920 H   0  0  0  0  0  0  0  0  0  0  0  0
   -6.4300   -2.1690  -22.9240 H   0  0  0  0  0  0  0  0  0  0  0  0
   -6.3780   -3.1310  -21.4320 H   0  0  0  0  0  0  0  0  0  0  0  0
   -8.6230   -3.8610  -21.7150 H   0  0  0  0  0  0  0  0  0  0  0  0
   -7.4040   -4.8440  -23.6260 H   0  0  0  0  0  0  0  0  0  0  0  0
   -9.0350   -4.4160  -24.1870 H   0  0  0  0  0  0  0  0  0  0  0  0
   -7.6500   -3.3810  -24.5840 H   0  0  0  0  0  0  0  0  0  0  0  0
  1  2  1  0  0  0  0
  1 55  1  0  0  0  0
  1 56  1  0  0  0  0
  1 57  1  0  0  0  0
  2  3  1  0  0  0  0
  2 23  1  0  0  0  0
  2 54  1  1  0  0  0
  3  4  1  0  0  0  0
  3 52  1  0  0  0  0
  3 53  1  0  0  0  0
  4  5  1  0  0  0  0
  4 21  1  0  0  0  0
  5  6  2  0  0  0  0
  5 14  1  0  0  0  0
  6  7  1  0  0  0  0
  6 20  1  0  0  0  0
  7  8  2  0  0  0  0
  8  9  1  0  0  0  0
  8 19  1  0  0  0  0
  9 10  2  0  0  0  0
  9 14  1  0  0  0  0
 10 11  1  0  0  0  0
 10 18  1  0  0  0  0
 11 12  2  0  0  0  0
 11 17  1  0  0  0  0
 12 13  1  0  0  0  0
 12 16  1  0  0  0  0
 13 14  2  0  0  0  0
 13 15  1  0  0  0  0
 21 22  2  0  0  0  0
 23 21  1  1  0  0  0
 23 24  1  0  0  0  0
 23 46  1  0  0  0  0
 24 25  1  0  0  0  0
 24 50  1  0  0  0  0
 24 51  1  0  0  0  0
 25 26  1  0  0  0  0
 25 38  1  0  0  0  0
 26 27  1  0  0  0  0
 26 36  1  0  0  0  0
 26 37  1  0  0  0  0
 27 28  2  0  0  0  0
 27 31  1  0  0  0  0
 28 29  1  0  0  0  0
 29 30  2  0  0  0  0
 30 31  1  0  0  0  0
 31 32  1  0  0  0  0
 32 33  1  0  0  0  0
 32 34  1  0  0  0  0
 32 35  1  0  0  0  0
 38 39  2  0  0  0  0
 38 40  1  0  0  0  0
 40 41  2  0  0  0  0
 40 46  1  0  0  0  0
 41 42  1  0  0  0  0
 41 49  1  0  0  0  0
 42 43  2  0  0  0  0
 42 48  1  0  0  0  0
 43 44  1  0  0  0  0
 43 45  1  0  0  0  0
 45 46  2  0  0  0  0
 45 47  1  0  0  0  0
M  END
>  <MODEL>
       1

$$$$
