tmp_first_model_3_87.pdb
 OpenBabel08272518143D

 59 64  0  0  1  0  0  0  0  0999 V2000
   -8.0950   -4.0880  -23.6320 C   0  0  0  0  0  0  0  0  0  0  0  0
   -8.4160   -2.9690  -22.6350 C   0  0  1  0  0  0  0  0  0  0  0  0
   -7.3330   -2.7940  -21.5560 C   0  0  0  0  0  0  0  0  0  0  0  0
   -7.4130   -1.3870  -21.2020 N   0  0  0  0  0  0  0  0  0  0  0  0
   -6.6110   -0.8020  -20.1840 C   0  0  0  0  0  0  0  0  0  0  0  0
   -6.8990   -1.0520  -18.8680 C   0  0  0  0  0  0  0  0  0  0  0  0
   -6.2040   -0.5520  -17.8160 N   0  0  0  0  0  0  0  0  0  0  0  0
   -5.1720    0.2120  -18.0850 C   0  0  0  0  0  0  0  0  0  0  0  0
   -4.7340    0.5270  -19.4010 C   0  0  0  0  0  0  0  0  0  0  0  0
   -3.5960    1.3470  -19.6380 C   0  0  0  0  0  0  0  0  0  0  0  0
   -3.1840    1.6150  -20.9130 C   0  0  0  0  0  0  0  0  0  0  0  0
   -3.8840    1.0640  -22.0110 C   0  0  0  0  0  0  0  0  0  0  0  0
   -4.9840    0.2710  -21.8080 C   0  0  0  0  0  0  0  0  0  0  0  0
   -5.4600   -0.0010  -20.4930 C   0  0  0  0  0  0  0  0  0  0  0  0
   -5.5160   -0.1450  -22.6580 H   0  0  0  0  0  0  0  0  0  0  0  0
   -3.5610    1.2850  -23.0250 H   0  0  0  0  0  0  0  0  0  0  0  0
   -2.3250    2.2590  -21.0870 H   0  0  0  0  0  0  0  0  0  0  0  0
   -3.0780    1.7660  -18.7780 H   0  0  0  0  0  0  0  0  0  0  0  0
   -4.6260    0.6170  -17.2320 H   0  0  0  0  0  0  0  0  0  0  0  0
   -7.7450   -1.6880  -18.6080 H   0  0  0  0  0  0  0  0  0  0  0  0
   -8.1220   -0.6210  -22.1030 C   0  0  0  0  0  0  0  0  0  0  0  0
   -8.2550    0.5800  -22.0120 O   0  0  0  0  0  0  0  0  0  0  0  0
   -8.6440   -1.5350  -23.2310 C   0  0  1  0  0  0  0  0  0  0  0  0
   -7.8130   -1.2220  -24.4940 C   0  0  0  0  0  0  0  0  0  0  0  0
   -8.3520   -1.8660  -25.6770 N   0  0  0  0  0  0  0  0  0  0  0  0
   -7.4210   -2.2570  -26.7270 C   0  0  0  0  0  0  0  0  0  0  0  0
   -7.0370   -1.1350  -27.6430 C   0  0  0  0  0  0  0  0  0  0  0  0
   -7.6980   -0.6830  -28.7640 C   0  0  0  0  0  0  0  0  0  0  0  0
   -6.9610    0.4370  -29.1890 C   0  0  0  0  0  0  0  0  0  0  0  0
   -5.9140    0.6520  -28.4040 N   0  0  0  0  0  0  0  0  0  0  0  0
   -5.9640   -0.3190  -27.4770 N   0  0  0  0  0  0  0  0  0  0  0  0
   -4.9610   -0.3370  -26.4300 C   0  0  0  0  0  0  0  0  0  0  0  0
   -4.1120    0.2470  -26.7960 H   0  0  0  0  0  0  0  0  0  0  0  0
   -5.3460    0.1230  -25.5100 H   0  0  0  0  0  0  0  0  0  0  0  0
   -4.6480   -1.3670  -26.2310 H   0  0  0  0  0  0  0  0  0  0  0  0
   -7.1490    1.1200  -30.0130 H   0  0  0  0  0  0  0  0  0  0  0  0
   -8.6080   -1.1170  -29.1550 H   0  0  0  0  0  0  0  0  0  0  0  0
   -6.5360   -2.7020  -26.2540 H   0  0  0  0  0  0  0  0  0  0  0  0
   -7.9220   -3.0260  -27.3170 H   0  0  0  0  0  0  0  0  0  0  0  0
   -9.6820   -1.7770  -25.9970 C   0  0  0  0  0  0  0  0  0  0  0  0
  -10.1040   -2.0330  -27.1180 O   0  0  0  0  0  0  0  0  0  0  0  0
  -10.5880   -1.3790  -24.8710 C   0  0  0  0  0  0  0  0  0  0  0  0
  -11.9460   -1.1840  -25.1310 C   0  0  0  0  0  0  0  0  0  0  0  0
  -12.8340   -0.9250  -24.1050 C   0  0  0  0  0  0  0  0  0  0  0  0
  -12.3390   -0.8480  -22.8110 C   0  0  0  0  0  0  0  0  0  0  0  0
  -13.2060   -0.5950  -21.8220 F   0  0  0  0  0  0  0  0  0  0  0  0
  -11.0020   -1.0250  -22.5210 C   0  0  0  0  0  0  0  0  0  0  0  0
  -10.1010   -1.2770  -23.5610 C   0  0  0  0  0  0  0  0  0  0  0  0
  -10.6640   -0.9560  -21.4940 H   0  0  0  0  0  0  0  0  0  0  0  0
  -13.9010   -0.8120  -24.2580 H   0  0  0  0  0  0  0  0  0  0  0  0
  -12.2960   -1.3060  -26.1520 H   0  0  0  0  0  0  0  0  0  0  0  0
   -7.8090   -0.1280  -24.6120 H   0  0  0  0  0  0  0  0  0  0  0  0
   -6.7800   -1.5720  -24.3530 H   0  0  0  0  0  0  0  0  0  0  0  0
   -7.5160   -3.4230  -20.6780 H   0  0  0  0  0  0  0  0  0  0  0  0
   -6.3350   -3.0540  -21.9440 H   0  0  0  0  0  0  0  0  0  0  0  0
   -9.3590   -3.2160  -22.1260 H   0  0  0  0  0  0  0  0  0  0  0  0
   -8.8710   -4.1630  -24.4000 H   0  0  0  0  0  0  0  0  0  0  0  0
   -7.1410   -3.9070  -24.1430 H   0  0  0  0  0  0  0  0  0  0  0  0
   -8.0170   -5.0560  -23.1230 H   0  0  0  0  0  0  0  0  0  0  0  0
  1  2  1  0  0  0  0
  1 57  1  0  0  0  0
  1 58  1  0  0  0  0
  1 59  1  0  0  0  0
  2  3  1  0  0  0  0
  2 23  1  0  0  0  0
  2 56  1  1  0  0  0
  3  4  1  0  0  0  0
  3 54  1  0  0  0  0
  3 55  1  0  0  0  0
  4  5  1  0  0  0  0
  4 21  1  0  0  0  0
  5  6  2  0  0  0  0
  5 14  1  0  0  0  0
  6  7  1  0  0  0  0
  6 20  1  0  0  0  0
  7  8  2  0  0  0  0
  8  9  1  0  0  0  0
  8 19  1  0  0  0  0
  9 10  2  0  0  0  0
  9 14  1  0  0  0  0
 10 11  1  0  0  0  0
 10 18  1  0  0  0  0
 11 12  2  0  0  0  0
 11 17  1  0  0  0  0
 12 13  1  0  0  0  0
 12 16  1  0  0  0  0
 13 14  2  0  0  0  0
 13 15  1  0  0  0  0
 21 22  2  0  0  0  0
 23 21  1  1  0  0  0
 23 24  1  0  0  0  0
 23 48  1  0  0  0  0
 24 25  1  0  0  0  0
 24 52  1  0  0  0  0
 24 53  1  0  0  0  0
 25 26  1  0  0  0  0
 25 40  1  0  0  0  0
 26 27  1  0  0  0  0
 26 38  1  0  0  0  0
 26 39  1  0  0  0  0
 27 28  2  0  0  0  0
 27 31  1  0  0  0  0
 28 29  1  0  0  0  0
 28 37  1  0  0  0  0
 29 30  2  0  0  0  0
 29 36  1  0  0  0  0
 30 31  1  0  0  0  0
 31 32  1  0  0  0  0
 32 33  1  0  0  0  0
 32 34  1  0  0  0  0
 32 35  1  0  0  0  0
 40 41  2  0  0  0  0
 40 42  1  0  0  0  0
 42 43  2  0  0  0  0
 42 48  1  0  0  0  0
 43 44  1  0  0  0  0
 43 51  1  0  0  0  0
 44 45  2  0  0  0  0
 44 50  1  0  0  0  0
 45 46  1  0  0  0  0
 45 47  1  0  0  0  0
 47 48  2  0  0  0  0
 47 49  1  0  0  0  0
M  END
>  <MODEL>
       1

$$$$
