tmp_first_model_17_43.pdb
 OpenBabel08282502223D

 67 72  0  0  1  0  0  0  0  0999 V2000
   -7.3900    3.3820  -21.7500 C   0  0  0  0  0  0  0  0  0  0  0  0
   -8.2560    2.9330  -22.8270 N   0  0  0  0  0  0  0  0  0  0  0  0
   -7.6830    2.2520  -23.8500 C   0  0  0  0  0  0  0  0  0  0  0  0
   -6.4700    2.1550  -23.9710 O   0  0  0  0  0  0  0  0  0  0  0  0
   -8.6350    1.6350  -24.8810 C   0  0  0  0  0  0  0  0  0  0  0  0
   -9.3590    0.4740  -24.4000 N   0  0  0  0  0  0  0  0  0  0  0  0
   -8.6310   -0.7730  -24.2540 C   0  0  0  0  0  0  0  0  0  0  0  0
   -9.0160   -1.5030  -22.9470 C   0  0  2  0  0  0  0  0  0  0  0  0
   -8.4900   -0.7220  -21.7120 C   0  0  0  0  0  0  0  0  0  0  0  0
   -8.9380    0.3050  -21.2450 O   0  0  0  0  0  0  0  0  0  0  0  0
   -7.3970   -1.3880  -21.2020 N   0  0  0  0  0  0  0  0  0  0  0  0
   -6.6030   -0.8120  -20.1740 C   0  0  0  0  0  0  0  0  0  0  0  0
   -6.9110   -1.0420  -18.8570 C   0  0  0  0  0  0  0  0  0  0  0  0
   -6.2100   -0.5470  -17.8080 N   0  0  0  0  0  0  0  0  0  0  0  0
   -5.1700    0.2070  -18.0750 C   0  0  0  0  0  0  0  0  0  0  0  0
   -4.7330    0.5310  -19.3920 C   0  0  0  0  0  0  0  0  0  0  0  0
   -3.6080    1.3670  -19.6360 C   0  0  0  0  0  0  0  0  0  0  0  0
   -3.2270    1.6620  -20.9160 C   0  0  0  0  0  0  0  0  0  0  0  0
   -3.9490    1.1340  -22.0100 C   0  0  0  0  0  0  0  0  0  0  0  0
   -5.0390    0.3230  -21.7990 C   0  0  0  0  0  0  0  0  0  0  0  0
   -5.4660    0.0040  -20.4820 C   0  0  0  0  0  0  0  0  0  0  0  0
   -5.5930   -0.0670  -22.6480 H   0  0  0  0  0  0  0  0  0  0  0  0
   -3.6470    1.3740  -23.0230 H   0  0  0  0  0  0  0  0  0  0  0  0
   -2.3660    2.3000  -21.0990 H   0  0  0  0  0  0  0  0  0  0  0  0
   -3.0690    1.7710  -18.7830 H   0  0  0  0  0  0  0  0  0  0  0  0
   -4.6200    0.6100  -17.2250 H   0  0  0  0  0  0  0  0  0  0  0  0
   -7.7620   -1.6690  -18.6030 H   0  0  0  0  0  0  0  0  0  0  0  0
   -7.0410   -2.5910  -21.9270 C   0  0  0  0  0  0  0  0  0  0  0  0
   -8.2810   -2.8730  -22.7950 C   0  0  2  0  0  0  0  0  0  0  0  0
   -7.9190   -3.6310  -24.0900 C   0  0  0  0  0  0  0  0  0  0  0  0
   -7.3800   -4.9390  -23.8090 N   0  0  0  0  0  0  0  0  0  0  0  0
   -6.0580   -5.2840  -23.8100 C   0  0  0  0  0  0  0  0  0  0  0  0
   -4.7990   -4.2310  -24.4220 S   0  0  0  0  0  0  0  0  0  0  0  0
   -3.6490   -5.4720  -23.9960 C   0  0  0  0  0  0  0  0  0  0  0  0
   -4.1460   -6.5410  -23.4690 N   0  0  0  0  0  0  0  0  0  0  0  0
   -5.5220   -6.4590  -23.3630 C   0  0  0  0  0  0  0  0  0  0  0  0
   -6.3050   -7.6040  -22.7840 C   0  0  0  0  0  0  0  0  0  0  0  0
   -7.0270   -8.0120  -23.5050 H   0  0  0  0  0  0  0  0  0  0  0  0
   -6.8650   -7.3000  -21.8880 H   0  0  0  0  0  0  0  0  0  0  0  0
   -5.6180   -8.4060  -22.5000 H   0  0  0  0  0  0  0  0  0  0  0  0
   -2.5920   -5.3160  -24.1810 H   0  0  0  0  0  0  0  0  0  0  0  0
   -8.0150   -5.6570  -23.4950 H   0  0  0  0  0  0  0  0  0  0  0  0
   -8.8160   -3.7750  -24.7030 H   0  0  0  0  0  0  0  0  0  0  0  0
   -7.1790   -3.0700  -24.6770 H   0  0  0  0  0  0  0  0  0  0  0  0
   -8.9550   -3.5210  -22.2230 H   0  0  0  0  0  0  0  0  0  0  0  0
   -6.1480   -2.4350  -22.5510 H   0  0  0  0  0  0  0  0  0  0  0  0
   -6.8140   -3.4140  -21.2400 H   0  0  0  0  0  0  0  0  0  0  0  0
  -10.5290   -1.5590  -22.8870 C   0  0  0  0  0  0  0  0  0  0  0  0
  -11.1430   -2.4320  -21.9920 C   0  0  0  0  0  0  0  0  0  0  0  0
  -12.5140   -2.4490  -21.8460 C   0  0  0  0  0  0  0  0  0  0  0  0
  -13.1410   -3.4620  -20.5780 Cl  0  0  0  0  0  0  0  0  0  0  0  0
  -13.3390   -1.6270  -22.6170 C   0  0  0  0  0  0  0  0  0  0  0  0
  -12.7330   -0.7080  -23.4550 C   0  0  0  0  0  0  0  0  0  0  0  0
  -11.3420   -0.6390  -23.5580 C   0  0  0  0  0  0  0  0  0  0  0  0
  -10.7290    0.5050  -24.3060 C   0  0  0  0  0  0  0  0  0  0  0  0
  -11.4060    1.4170  -24.7560 O   0  0  0  0  0  0  0  0  0  0  0  0
  -13.3080    0.0170  -24.0200 H   0  0  0  0  0  0  0  0  0  0  0  0
  -14.4200   -1.6780  -22.5380 H   0  0  0  0  0  0  0  0  0  0  0  0
  -10.5680   -3.0790  -21.3420 H   0  0  0  0  0  0  0  0  0  0  0  0
   -7.5640   -0.5260  -24.2330 H   0  0  0  0  0  0  0  0  0  0  0  0
   -8.8370   -1.4390  -25.1080 H   0  0  0  0  0  0  0  0  0  0  0  0
   -8.0020    1.3770  -25.7380 H   0  0  0  0  0  0  0  0  0  0  0  0
   -9.3980    2.3490  -25.1930 H   0  0  0  0  0  0  0  0  0  0  0  0
   -9.2540    2.8510  -22.6760 H   0  0  0  0  0  0  0  0  0  0  0  0
   -6.7870    2.5380  -21.3800 H   0  0  0  0  0  0  0  0  0  0  0  0
   -6.7060    4.1620  -22.1050 H   0  0  0  0  0  0  0  0  0  0  0  0
   -8.0050    3.7980  -20.9530 H   0  0  0  0  0  0  0  0  0  0  0  0
  1  2  1  0  0  0  0
  1 65  1  0  0  0  0
  1 66  1  0  0  0  0
  1 67  1  0  0  0  0
  2  3  1  0  0  0  0
  2 64  1  0  0  0  0
  3  4  2  0  0  0  0
  3  5  1  0  0  0  0
  5  6  1  0  0  0  0
  5 62  1  0  0  0  0
  5 63  1  0  0  0  0
  6  7  1  0  0  0  0
  6 55  1  0  0  0  0
  7  8  1  0  0  0  0
  7 60  1  0  0  0  0
  7 61  1  0  0  0  0
  8  9  1  1  0  0  0
  8 29  1  0  0  0  0
  8 48  1  0  0  0  0
  9 10  2  0  0  0  0
  9 11  1  0  0  0  0
 11 12  1  0  0  0  0
 11 28  1  0  0  0  0
 12 13  2  0  0  0  0
 12 21  1  0  0  0  0
 13 14  1  0  0  0  0
 13 27  1  0  0  0  0
 14 15  2  0  0  0  0
 15 16  1  0  0  0  0
 15 26  1  0  0  0  0
 16 17  2  0  0  0  0
 16 21  1  0  0  0  0
 17 18  1  0  0  0  0
 17 25  1  0  0  0  0
 18 19  2  0  0  0  0
 18 24  1  0  0  0  0
 19 20  1  0  0  0  0
 19 23  1  0  0  0  0
 20 21  2  0  0  0  0
 20 22  1  0  0  0  0
 28 29  1  0  0  0  0
 28 46  1  0  0  0  0
 28 47  1  0  0  0  0
 29 30  1  0  0  0  0
 29 45  1  1  0  0  0
 30 31  1  0  0  0  0
 30 43  1  0  0  0  0
 30 44  1  0  0  0  0
 31 32  1  0  0  0  0
 31 42  1  0  0  0  0
 32 33  1  0  0  0  0
 32 36  2  0  0  0  0
 33 34  1  0  0  0  0
 34 35  2  0  0  0  0
 34 41  1  0  0  0  0
 35 36  1  0  0  0  0
 36 37  1  0  0  0  0
 37 38  1  0  0  0  0
 37 39  1  0  0  0  0
 37 40  1  0  0  0  0
 48 49  2  0  0  0  0
 48 54  1  0  0  0  0
 49 50  1  0  0  0  0
 49 59  1  0  0  0  0
 50 51  1  0  0  0  0
 50 52  2  0  0  0  0
 52 53  1  0  0  0  0
 52 58  1  0  0  0  0
 53 54  2  0  0  0  0
 53 57  1  0  0  0  0
 54 55  1  0  0  0  0
 55 56  2  0  0  0  0
M  END
>  <MODEL>
       1

$$$$
