tmp_first_model_4_52.pdb
 OpenBabel08272518513D

 57 60  0  0  0  0  0  0  0  0999 V2000
  -10.8570   -6.3870  -26.4180 C   0  0  0  0  0  0  0  0  0  0  0  0
  -10.5370   -6.2940  -24.9260 C   0  0  0  0  0  0  0  0  0  0  0  0
   -9.9320   -4.9890  -24.4420 C   0  0  0  0  0  0  0  0  0  0  0  0
  -10.3230   -4.4530  -23.4230 O   0  0  0  0  0  0  0  0  0  0  0  0
   -8.9160   -4.5240  -25.2420 N   0  0  0  0  0  0  0  0  0  0  0  0
   -8.2210   -3.3040  -25.1460 C   0  0  0  0  0  0  0  0  0  0  0  0
   -7.1930   -3.0450  -26.0630 C   0  0  0  0  0  0  0  0  0  0  0  0
   -6.5390   -1.8170  -26.0420 C   0  0  0  0  0  0  0  0  0  0  0  0
   -6.8940   -0.8500  -25.1040 C   0  0  0  0  0  0  0  0  0  0  0  0
   -7.9060   -1.1240  -24.1840 C   0  0  0  0  0  0  0  0  0  0  0  0
   -8.2980   -0.1210  -23.2380 N   0  0  0  0  0  0  0  0  0  0  0  0
   -8.9920    1.0680  -23.7540 C   0  0  0  0  0  0  0  0  0  0  0  0
  -10.4510    0.8090  -24.0770 C   0  0  0  0  0  0  0  0  0  0  0  0
  -10.8080    0.1750  -25.2670 C   0  0  0  0  0  0  0  0  0  0  0  0
  -12.1400   -0.1120  -25.5430 C   0  0  0  0  0  0  0  0  0  0  0  0
  -13.1340    0.2540  -24.6410 C   0  0  0  0  0  0  0  0  0  0  0  0
  -12.7870    0.8890  -23.4530 C   0  0  0  0  0  0  0  0  0  0  0  0
  -11.4510    1.1540  -23.1680 C   0  0  0  0  0  0  0  0  0  0  0  0
  -11.1770    1.6210  -22.2240 H   0  0  0  0  0  0  0  0  0  0  0  0
  -13.5590    1.1790  -22.7440 H   0  0  0  0  0  0  0  0  0  0  0  0
  -14.1760    0.0400  -24.8600 H   0  0  0  0  0  0  0  0  0  0  0  0
  -12.3920   -0.6370  -26.4590 H   0  0  0  0  0  0  0  0  0  0  0  0
  -10.0330   -0.1130  -25.9760 H   0  0  0  0  0  0  0  0  0  0  0  0
   -8.9000    1.8570  -23.0050 H   0  0  0  0  0  0  0  0  0  0  0  0
   -8.4600    1.3980  -24.6550 H   0  0  0  0  0  0  0  0  0  0  0  0
   -8.3150   -0.3350  -21.8690 C   0  0  0  0  0  0  0  0  0  0  0  0
   -8.9700    0.3630  -21.1180 O   0  0  0  0  0  0  0  0  0  0  0  0
   -7.4440   -1.4740  -21.3150 C   0  0  0  0  0  0  0  0  0  0  0  0
   -6.4860   -1.0270  -20.2400 C   0  0  0  0  0  0  0  0  0  0  0  0
   -6.7210   -1.3310  -18.9280 C   0  0  0  0  0  0  0  0  0  0  0  0
   -5.8690   -1.0740  -17.9020 N   0  0  0  0  0  0  0  0  0  0  0  0
   -4.7660   -0.4340  -18.1900 C   0  0  0  0  0  0  0  0  0  0  0  0
   -4.4140   -0.0010  -19.4960 C   0  0  0  0  0  0  0  0  0  0  0  0
   -3.2360    0.7480  -19.7470 C   0  0  0  0  0  0  0  0  0  0  0  0
   -2.9710    1.2370  -20.9930 C   0  0  0  0  0  0  0  0  0  0  0  0
   -3.8600    0.9720  -22.0590 C   0  0  0  0  0  0  0  0  0  0  0  0
   -4.9880    0.2110  -21.8560 C   0  0  0  0  0  0  0  0  0  0  0  0
   -5.3100   -0.2790  -20.5590 C   0  0  0  0  0  0  0  0  0  0  0  0
   -5.6480    0.0030  -22.6980 H   0  0  0  0  0  0  0  0  0  0  0  0
   -3.6590    1.3940  -23.0400 H   0  0  0  0  0  0  0  0  0  0  0  0
   -2.0920    1.8530  -21.1680 H   0  0  0  0  0  0  0  0  0  0  0  0
   -2.5770    0.9650  -18.9110 H   0  0  0  0  0  0  0  0  0  0  0  0
   -4.0900   -0.2140  -17.3620 H   0  0  0  0  0  0  0  0  0  0  0  0
   -7.6430   -1.8360  -18.6370 H   0  0  0  0  0  0  0  0  0  0  0  0
   -8.1400   -2.2140  -20.8960 H   0  0  0  0  0  0  0  0  0  0  0  0
   -6.8840   -1.9570  -22.1210 H   0  0  0  0  0  0  0  0  0  0  0  0
   -8.5690   -2.3470  -24.2000 C   0  0  0  0  0  0  0  0  0  0  0  0
   -9.3670   -2.5480  -23.4940 H   0  0  0  0  0  0  0  0  0  0  0  0
   -6.4100    0.1220  -25.0890 H   0  0  0  0  0  0  0  0  0  0  0  0
   -5.7640   -1.6000  -26.7750 H   0  0  0  0  0  0  0  0  0  0  0  0
   -6.9210   -3.7930  -26.8040 H   0  0  0  0  0  0  0  0  0  0  0  0
   -8.7680   -5.0340  -26.1020 H   0  0  0  0  0  0  0  0  0  0  0  0
  -11.4640   -6.3880  -24.3620 H   0  0  0  0  0  0  0  0  0  0  0  0
   -9.8600   -7.0920  -24.5940 H   0  0  0  0  0  0  0  0  0  0  0  0
  -11.5580   -5.5960  -26.6920 H   0  0  0  0  0  0  0  0  0  0  0  0
  -11.3250   -7.3460  -26.6670 H   0  0  0  0  0  0  0  0  0  0  0  0
   -9.9860   -6.2710  -27.0720 H   0  0  0  0  0  0  0  0  0  0  0  0
  1  2  1  0  0  0  0
  1 55  1  0  0  0  0
  1 56  1  0  0  0  0
  1 57  1  0  0  0  0
  2  3  1  0  0  0  0
  2 53  1  0  0  0  0
  2 54  1  0  0  0  0
  3  4  2  0  0  0  0
  3  5  1  0  0  0  0
  5  6  1  0  0  0  0
  5 52  1  0  0  0  0
  6  7  2  0  0  0  0
  6 47  1  0  0  0  0
  7  8  1  0  0  0  0
  7 51  1  0  0  0  0
  8  9  2  0  0  0  0
  8 50  1  0  0  0  0
  9 10  1  0  0  0  0
  9 49  1  0  0  0  0
 10 11  1  0  0  0  0
 10 47  2  0  0  0  0
 11 12  1  0  0  0  0
 11 26  1  0  0  0  0
 12 13  1  0  0  0  0
 12 24  1  0  0  0  0
 12 25  1  0  0  0  0
 13 14  2  0  0  0  0
 13 18  1  0  0  0  0
 14 15  1  0  0  0  0
 14 23  1  0  0  0  0
 15 16  2  0  0  0  0
 15 22  1  0  0  0  0
 16 17  1  0  0  0  0
 16 21  1  0  0  0  0
 17 18  2  0  0  0  0
 17 20  1  0  0  0  0
 18 19  1  0  0  0  0
 26 27  2  0  0  0  0
 26 28  1  0  0  0  0
 28 29  1  0  0  0  0
 28 45  1  0  0  0  0
 28 46  1  0  0  0  0
 29 30  2  0  0  0  0
 29 38  1  0  0  0  0
 30 31  1  0  0  0  0
 30 44  1  0  0  0  0
 31 32  2  0  0  0  0
 32 33  1  0  0  0  0
 32 43  1  0  0  0  0
 33 34  2  0  0  0  0
 33 38  1  0  0  0  0
 34 35  1  0  0  0  0
 34 42  1  0  0  0  0
 35 36  2  0  0  0  0
 35 41  1  0  0  0  0
 36 37  1  0  0  0  0
 36 40  1  0  0  0  0
 37 38  2  0  0  0  0
 37 39  1  0  0  0  0
 47 48  1  0  0  0  0
M  END
>  <MODEL>
       1

$$$$
