tmp_first_model_20_50.pdb
 OpenBabel08282503553D

 66 70  0  0  1  0  0  0  0  0999 V2000
   -7.8020    3.1940  -22.4630 C   0  0  0  0  0  0  0  0  0  0  0  0
   -8.6660    2.6640  -23.5020 N   0  0  0  0  0  0  0  0  0  0  0  0
   -8.1030    1.9710  -24.5220 C   0  0  0  0  0  0  0  0  0  0  0  0
   -6.8950    1.8900  -24.6840 O   0  0  0  0  0  0  0  0  0  0  0  0
   -9.1090    1.2130  -25.3920 C   0  0  0  0  0  0  0  0  0  0  0  0
   -9.7280    0.1530  -24.6130 N   0  0  0  0  0  0  0  0  0  0  0  0
   -8.8690   -0.9590  -24.2510 C   0  0  0  0  0  0  0  0  0  0  0  0
   -9.2050   -1.6160  -22.8750 C   0  0  2  0  0  0  0  0  0  0  0  0
   -8.6420   -0.7450  -21.7190 C   0  0  0  0  0  0  0  0  0  0  0  0
   -9.1310    0.2790  -21.2880 O   0  0  0  0  0  0  0  0  0  0  0  0
   -7.4790   -1.3240  -21.2480 N   0  0  0  0  0  0  0  0  0  0  0  0
   -6.6970   -0.7550  -20.2030 C   0  0  0  0  0  0  0  0  0  0  0  0
   -7.0170   -0.9870  -18.8900 C   0  0  0  0  0  0  0  0  0  0  0  0
   -6.3000   -0.5370  -17.8270 N   0  0  0  0  0  0  0  0  0  0  0  0
   -5.2260    0.1700  -18.0800 C   0  0  0  0  0  0  0  0  0  0  0  0
   -4.7790    0.5020  -19.3920 C   0  0  0  0  0  0  0  0  0  0  0  0
   -3.6150    1.2840  -19.6220 C   0  0  0  0  0  0  0  0  0  0  0  0
   -3.2320    1.5940  -20.8980 C   0  0  0  0  0  0  0  0  0  0  0  0
   -3.9950    1.1530  -22.0020 C   0  0  0  0  0  0  0  0  0  0  0  0
   -5.1300    0.4040  -21.8030 C   0  0  0  0  0  0  0  0  0  0  0  0
   -5.5410    0.0390  -20.4930 C   0  0  0  0  0  0  0  0  0  0  0  0
   -5.7420    0.1240  -22.6560 H   0  0  0  0  0  0  0  0  0  0  0  0
   -3.6910    1.4150  -23.0120 H   0  0  0  0  0  0  0  0  0  0  0  0
   -2.3490    2.2030  -21.0720 H   0  0  0  0  0  0  0  0  0  0  0  0
   -3.0460    1.6400  -18.7660 H   0  0  0  0  0  0  0  0  0  0  0  0
   -4.6510    0.5290  -17.2240 H   0  0  0  0  0  0  0  0  0  0  0  0
   -7.8940   -1.5840  -18.6550 H   0  0  0  0  0  0  0  0  0  0  0  0
   -7.0770   -2.5130  -21.9750 C   0  0  0  0  0  0  0  0  0  0  0  0
   -8.3810   -2.9210  -22.6890 C   0  0  2  0  0  0  0  0  0  0  0  0
   -8.1390   -3.7060  -23.9660 C   0  0  0  0  0  0  0  0  0  0  0  0
   -7.4970   -4.9190  -23.6660 O   0  0  0  0  0  0  0  0  0  0  0  0
   -7.3240   -5.7480  -24.8070 C   0  0  0  0  0  0  0  0  0  0  0  0
   -8.4700   -6.7460  -24.8820 C   0  0  0  0  0  0  0  0  0  0  0  0
   -8.4730   -7.3540  -23.9730 H   0  0  0  0  0  0  0  0  0  0  0  0
   -8.3570   -7.4030  -25.7500 H   0  0  0  0  0  0  0  0  0  0  0  0
   -9.4390   -6.2390  -24.9540 H   0  0  0  0  0  0  0  0  0  0  0  0
   -5.9680   -6.4250  -24.6810 C   0  0  0  0  0  0  0  0  0  0  0  0
   -5.9570   -7.0390  -23.7750 H   0  0  0  0  0  0  0  0  0  0  0  0
   -5.7750   -7.0640  -25.5500 H   0  0  0  0  0  0  0  0  0  0  0  0
   -5.1710   -5.6760  -24.6100 H   0  0  0  0  0  0  0  0  0  0  0  0
   -7.3290   -5.1120  -25.7040 H   0  0  0  0  0  0  0  0  0  0  0  0
   -9.0920   -3.8870  -24.4860 H   0  0  0  0  0  0  0  0  0  0  0  0
   -7.4900   -3.1370  -24.6500 H   0  0  0  0  0  0  0  0  0  0  0  0
   -8.9240   -3.5810  -22.0090 H   0  0  0  0  0  0  0  0  0  0  0  0
   -6.7260   -3.2860  -21.2840 H   0  0  0  0  0  0  0  0  0  0  0  0
   -6.2560   -2.3080  -22.6840 H   0  0  0  0  0  0  0  0  0  0  0  0
  -10.7150   -1.7520  -22.7440 C   0  0  0  0  0  0  0  0  0  0  0  0
  -11.3140   -2.7150  -21.9170 C   0  0  0  0  0  0  0  0  0  0  0  0
  -12.6840   -2.7070  -21.7310 C   0  0  0  0  0  0  0  0  0  0  0  0
  -13.2350   -3.6390  -20.9370 F   0  0  0  0  0  0  0  0  0  0  0  0
  -13.5220   -1.7660  -22.3160 C   0  0  0  0  0  0  0  0  0  0  0  0
  -12.9370   -0.8080  -23.1160 C   0  0  0  0  0  0  0  0  0  0  0  0
  -11.5590   -0.8000  -23.3380 C   0  0  0  0  0  0  0  0  0  0  0  0
  -11.0110    0.3020  -24.1870 C   0  0  0  0  0  0  0  0  0  0  0  0
  -11.6830    1.2930  -24.4700 O   0  0  0  0  0  0  0  0  0  0  0  0
  -13.5350   -0.0350  -23.5820 H   0  0  0  0  0  0  0  0  0  0  0  0
  -14.5910   -1.7930  -22.1240 H   0  0  0  0  0  0  0  0  0  0  0  0
  -10.7510   -3.4720  -21.3810 H   0  0  0  0  0  0  0  0  0  0  0  0
   -8.9010   -1.7090  -25.0510 H   0  0  0  0  0  0  0  0  0  0  0  0
   -7.8460   -0.5720  -24.2070 H   0  0  0  0  0  0  0  0  0  0  0  0
   -8.5700    0.8000  -26.2450 H   0  0  0  0  0  0  0  0  0  0  0  0
   -9.9120    1.8560  -25.7540 H   0  0  0  0  0  0  0  0  0  0  0  0
   -9.6160    2.4270  -23.2550 H   0  0  0  0  0  0  0  0  0  0  0  0
   -8.3200    3.9840  -21.9040 H   0  0  0  0  0  0  0  0  0  0  0  0
   -7.4680    2.3920  -21.7820 H   0  0  0  0  0  0  0  0  0  0  0  0
   -6.9230    3.6150  -22.9630 H   0  0  0  0  0  0  0  0  0  0  0  0
  1  2  1  0  0  0  0
  1 64  1  0  0  0  0
  1 65  1  0  0  0  0
  1 66  1  0  0  0  0
  2  3  1  0  0  0  0
  2 63  1  0  0  0  0
  3  4  2  0  0  0  0
  3  5  1  0  0  0  0
  5  6  1  0  0  0  0
  5 61  1  0  0  0  0
  5 62  1  0  0  0  0
  6  7  1  0  0  0  0
  6 54  1  0  0  0  0
  7  8  1  0  0  0  0
  7 59  1  0  0  0  0
  7 60  1  0  0  0  0
  8  9  1  1  0  0  0
  8 29  1  0  0  0  0
  8 47  1  0  0  0  0
  9 10  2  0  0  0  0
  9 11  1  0  0  0  0
 11 12  1  0  0  0  0
 11 28  1  0  0  0  0
 12 13  2  0  0  0  0
 12 21  1  0  0  0  0
 13 14  1  0  0  0  0
 13 27  1  0  0  0  0
 14 15  2  0  0  0  0
 15 16  1  0  0  0  0
 15 26  1  0  0  0  0
 16 17  2  0  0  0  0
 16 21  1  0  0  0  0
 17 18  1  0  0  0  0
 17 25  1  0  0  0  0
 18 19  2  0  0  0  0
 18 24  1  0  0  0  0
 19 20  1  0  0  0  0
 19 23  1  0  0  0  0
 20 21  2  0  0  0  0
 20 22  1  0  0  0  0
 28 29  1  0  0  0  0
 28 45  1  0  0  0  0
 28 46  1  0  0  0  0
 29 30  1  0  0  0  0
 29 44  1  1  0  0  0
 30 31  1  0  0  0  0
 30 42  1  0  0  0  0
 30 43  1  0  0  0  0
 31 32  1  0  0  0  0
 32 33  1  0  0  0  0
 32 37  1  0  0  0  0
 32 41  1  0  0  0  0
 33 34  1  0  0  0  0
 33 35  1  0  0  0  0
 33 36  1  0  0  0  0
 37 38  1  0  0  0  0
 37 39  1  0  0  0  0
 37 40  1  0  0  0  0
 47 48  2  0  0  0  0
 47 53  1  0  0  0  0
 48 49  1  0  0  0  0
 48 58  1  0  0  0  0
 49 50  1  0  0  0  0
 49 51  2  0  0  0  0
 51 52  1  0  0  0  0
 51 57  1  0  0  0  0
 52 53  2  0  0  0  0
 52 56  1  0  0  0  0
 53 54  1  0  0  0  0
 54 55  2  0  0  0  0
M  END
>  <MODEL>
       1

$$$$
