tmp_first_model_14_47.pdb
 OpenBabel08282500413D

 58 63  0  0  1  0  0  0  0  0999 V2000
   -5.6680   -3.1200  -21.4150 O   0  0  0  0  0  0  0  0  0  0  0  0
   -6.7450   -2.7570  -21.8510 C   0  0  0  0  0  0  0  0  0  0  0  0
   -7.4090   -1.4850  -21.2680 C   0  0  0  0  0  0  0  0  0  0  0  0
   -6.5790   -0.8320  -20.1860 C   0  0  0  0  0  0  0  0  0  0  0  0
   -6.8740   -1.0410  -18.8680 C   0  0  0  0  0  0  0  0  0  0  0  0
   -6.1960   -0.5160  -17.8130 N   0  0  0  0  0  0  0  0  0  0  0  0
   -5.1560    0.2300  -18.0720 C   0  0  0  0  0  0  0  0  0  0  0  0
   -4.7170    0.5320  -19.3860 C   0  0  0  0  0  0  0  0  0  0  0  0
   -3.5880    1.3570  -19.6260 C   0  0  0  0  0  0  0  0  0  0  0  0
   -3.1890    1.6330  -20.9020 C   0  0  0  0  0  0  0  0  0  0  0  0
   -3.9030    1.0890  -21.9950 C   0  0  0  0  0  0  0  0  0  0  0  0
   -4.9980    0.2890  -21.7880 C   0  0  0  0  0  0  0  0  0  0  0  0
   -5.4450   -0.0130  -20.4760 C   0  0  0  0  0  0  0  0  0  0  0  0
   -5.5290   -0.1250  -22.6410 H   0  0  0  0  0  0  0  0  0  0  0  0
   -3.5780    1.3150  -23.0060 H   0  0  0  0  0  0  0  0  0  0  0  0
   -2.3290    2.2710  -21.0870 H   0  0  0  0  0  0  0  0  0  0  0  0
   -3.0540    1.7730  -18.7730 H   0  0  0  0  0  0  0  0  0  0  0  0
   -4.6000    0.6290  -17.2180 H   0  0  0  0  0  0  0  0  0  0  0  0
   -7.7180   -1.6710  -18.5860 H   0  0  0  0  0  0  0  0  0  0  0  0
   -7.6190   -0.7650  -22.0690 H   0  0  0  0  0  0  0  0  0  0  0  0
   -8.3810   -1.7680  -20.8430 H   0  0  0  0  0  0  0  0  0  0  0  0
   -7.3990   -3.4600  -22.8600 N   0  0  0  0  0  0  0  0  0  0  0  0
   -8.6020   -2.9890  -23.5420 C   0  0  0  0  0  0  0  0  0  0  0  0
   -8.3480   -2.3840  -24.9110 C   0  0  0  0  0  0  0  0  0  0  0  0
   -9.2630   -2.5620  -25.9470 C   0  0  0  0  0  0  0  0  0  0  0  0
   -9.0360   -1.9930  -27.1970 C   0  0  0  0  0  0  0  0  0  0  0  0
   -7.8960   -1.2340  -27.4310 C   0  0  0  0  0  0  0  0  0  0  0  0
   -6.9970   -1.0550  -26.3900 C   0  0  0  0  0  0  0  0  0  0  0  0
   -5.5660   -0.0980  -26.6560 Cl  0  0  0  0  0  0  0  0  0  0  0  0
   -7.2070   -1.6180  -25.1400 C   0  0  0  0  0  0  0  0  0  0  0  0
   -6.4810   -1.4430  -24.3490 H   0  0  0  0  0  0  0  0  0  0  0  0
   -7.7120   -0.7840  -28.4020 H   0  0  0  0  0  0  0  0  0  0  0  0
   -9.7540   -2.1410  -27.9980 H   0  0  0  0  0  0  0  0  0  0  0  0
  -10.1620   -3.1540  -25.7820 H   0  0  0  0  0  0  0  0  0  0  0  0
   -9.2840   -3.8370  -23.6450 H   0  0  0  0  0  0  0  0  0  0  0  0
   -9.1190   -2.2700  -22.9020 H   0  0  0  0  0  0  0  0  0  0  0  0
   -6.7530   -4.6560  -23.3900 C   0  0  2  0  0  0  0  0  0  0  0  0
   -7.4390   -5.4810  -24.5060 C   0  0  0  0  0  0  0  0  0  0  0  0
   -6.4080   -6.5880  -24.6930 N   0  3  1  0  0  0  0  0  0  0  0  0
   -5.9240   -6.8170  -26.0710 C   0  0  0  0  0  0  0  0  0  0  0  0
   -5.1590   -8.0730  -26.3480 C   0  0  0  0  0  0  0  0  0  0  0  0
   -4.4590   -6.7490  -26.4090 C   0  0  0  0  0  0  0  0  0  0  0  0
   -4.1560   -6.3820  -27.3820 H   0  0  0  0  0  0  0  0  0  0  0  0
   -3.7390   -6.5530  -25.6260 H   0  0  0  0  0  0  0  0  0  0  0  0
   -5.3530   -8.5940  -27.2770 H   0  0  0  0  0  0  0  0  0  0  0  0
   -4.9650   -8.7070  -25.4890 H   0  0  0  0  0  0  0  0  0  0  0  0
   -6.6220   -6.5050  -26.8390 H   0  0  0  0  0  0  0  0  0  0  0  0
   -5.4030   -6.1360  -23.6500 C   0  0  2  0  0  0  0  0  0  0  0  0
   -6.3130   -5.8160  -22.4700 C   0  0  0  0  0  0  0  0  0  0  0  0
   -7.0740   -6.5670  -22.2280 H   0  0  0  0  0  0  0  0  0  0  0  0
   -5.7700   -5.4950  -21.5900 H   0  0  0  0  0  0  0  0  0  0  0  0
   -5.3060   -4.6400  -23.9520 C   0  0  0  0  0  0  0  0  0  0  0  0
   -5.2130   -4.3610  -25.0110 H   0  0  0  0  0  0  0  0  0  0  0  0
   -4.5930   -4.1220  -23.3230 H   0  0  0  0  0  0  0  0  0  0  0  0
   -4.5400   -6.7830  -23.5350 H   0  0  0  0  0  0  0  0  0  0  0  0
   -6.8210   -7.4950  -24.4120 H   0  0  0  0  0  0  0  0  0  0  0  0
   -7.5440   -4.9540  -25.4520 H   0  0  0  0  0  0  0  0  0  0  0  0
   -8.3920   -5.9250  -24.2120 H   0  0  0  0  0  0  0  0  0  0  0  0
  1  2  2  0  0  0  0
  2  3  1  0  0  0  0
  2 22  1  0  0  0  0
  3  4  1  0  0  0  0
  3 20  1  0  0  0  0
  3 21  1  0  0  0  0
  4  5  2  0  0  0  0
  4 13  1  0  0  0  0
  5  6  1  0  0  0  0
  5 19  1  0  0  0  0
  6  7  2  0  0  0  0
  7  8  1  0  0  0  0
  7 18  1  0  0  0  0
  8  9  2  0  0  0  0
  8 13  1  0  0  0  0
  9 10  1  0  0  0  0
  9 17  1  0  0  0  0
 10 11  2  0  0  0  0
 10 16  1  0  0  0  0
 11 12  1  0  0  0  0
 11 15  1  0  0  0  0
 12 13  2  0  0  0  0
 12 14  1  0  0  0  0
 22 23  1  0  0  0  0
 23 24  1  0  0  0  0
 23 35  1  0  0  0  0
 23 36  1  0  0  0  0
 24 25  2  0  0  0  0
 24 30  1  0  0  0  0
 25 26  1  0  0  0  0
 25 34  1  0  0  0  0
 26 27  2  0  0  0  0
 26 33  1  0  0  0  0
 27 28  1  0  0  0  0
 27 32  1  0  0  0  0
 28 29  1  0  0  0  0
 28 30  2  0  0  0  0
 30 31  1  0  0  0  0
 37 22  1  1  0  0  0
 37 38  1  0  0  0  0
 37 49  1  0  0  0  0
 37 52  1  0  0  0  0
 38 39  1  0  0  0  0
 38 57  1  0  0  0  0
 38 58  1  0  0  0  0
 39 40  1  0  0  0  0
 39 48  1  0  0  0  0
 39 56  1  1  0  0  0
 40 41  1  0  0  0  0
 40 42  1  0  0  0  0
 40 47  1  0  0  0  0
 41 42  1  0  0  0  0
 41 45  1  0  0  0  0
 41 46  1  0  0  0  0
 42 43  1  0  0  0  0
 42 44  1  0  0  0  0
 48 49  1  0  0  0  0
 48 52  1  0  0  0  0
 48 55  1  1  0  0  0
 49 50  1  0  0  0  0
 49 51  1  0  0  0  0
 52 53  1  0  0  0  0
 52 54  1  0  0  0  0
M  CHG  1  39   1
M  END
>  <MODEL>
       1

$$$$
