tmp_first_model_19_70.pdb
 OpenBabel08282503233D

 52 54  0  0  0  0  0  0  0  0999 V2000
   -5.6960    2.0500  -27.4780 C   0  0  0  0  0  0  0  0  0  0  0  0
   -6.5940    2.0650  -26.2400 C   0  0  0  0  0  0  0  0  0  0  0  0
   -6.0210    3.0280  -25.2000 C   0  0  0  0  0  0  0  0  0  0  0  0
   -5.8800    4.0310  -25.6160 H   0  0  0  0  0  0  0  0  0  0  0  0
   -6.6810    3.1180  -24.3300 H   0  0  0  0  0  0  0  0  0  0  0  0
   -5.0420    2.6910  -24.8380 H   0  0  0  0  0  0  0  0  0  0  0  0
   -6.7970    0.6560  -25.6490 C   0  0  0  0  0  0  0  0  0  0  0  0
   -8.1360   -0.0760  -25.9420 C   0  0  0  0  0  0  0  0  0  0  0  0
   -8.3210   -0.2040  -27.4580 C   0  0  0  0  0  0  0  0  0  0  0  0
   -7.4830   -0.7330  -27.9270 H   0  0  0  0  0  0  0  0  0  0  0  0
   -9.2320   -0.7630  -27.7020 H   0  0  0  0  0  0  0  0  0  0  0  0
   -8.3960    0.7690  -27.9500 H   0  0  0  0  0  0  0  0  0  0  0  0
   -9.3340    0.6680  -25.3350 C   0  0  0  0  0  0  0  0  0  0  0  0
   -9.2640    0.8010  -23.8110 C   0  0  0  0  0  0  0  0  0  0  0  0
   -8.7400   -0.4170  -23.1900 N   0  0  0  0  0  0  0  0  0  0  0  0
   -8.4190   -0.3590  -21.8550 C   0  0  0  0  0  0  0  0  0  0  0  0
   -8.8620    0.5200  -21.1350 O   0  0  0  0  0  0  0  0  0  0  0  0
   -7.4420   -1.4080  -21.2790 C   0  0  0  0  0  0  0  0  0  0  0  0
   -6.5790   -0.8300  -20.1800 C   0  0  0  0  0  0  0  0  0  0  0  0
   -6.8780   -1.0400  -18.8600 C   0  0  0  0  0  0  0  0  0  0  0  0
   -6.1860   -0.5440  -17.7980 N   0  0  0  0  0  0  0  0  0  0  0  0
   -5.1570    0.2220  -18.0640 C   0  0  0  0  0  0  0  0  0  0  0  0
   -4.7220    0.5350  -19.3810 C   0  0  0  0  0  0  0  0  0  0  0  0
   -3.5970    1.3650  -19.6240 C   0  0  0  0  0  0  0  0  0  0  0  0
   -3.2110    1.6620  -20.9030 C   0  0  0  0  0  0  0  0  0  0  0  0
   -3.9350    1.1300  -21.9940 C   0  0  0  0  0  0  0  0  0  0  0  0
   -5.0220    0.3170  -21.7850 C   0  0  0  0  0  0  0  0  0  0  0  0
   -5.4520   -0.0030  -20.4720 C   0  0  0  0  0  0  0  0  0  0  0  0
   -5.5620   -0.0860  -22.6360 H   0  0  0  0  0  0  0  0  0  0  0  0
   -3.6160    1.3690  -23.0050 H   0  0  0  0  0  0  0  0  0  0  0  0
   -2.3590    2.3100  -21.0880 H   0  0  0  0  0  0  0  0  0  0  0  0
   -3.0590    1.7810  -18.7740 H   0  0  0  0  0  0  0  0  0  0  0  0
   -4.6020    0.6290  -17.2150 H   0  0  0  0  0  0  0  0  0  0  0  0
   -7.7300   -1.6600  -18.5850 H   0  0  0  0  0  0  0  0  0  0  0  0
   -8.0440   -2.2260  -20.8590 H   0  0  0  0  0  0  0  0  0  0  0  0
   -6.8150   -1.8470  -22.0650 H   0  0  0  0  0  0  0  0  0  0  0  0
   -8.8430   -1.6260  -23.9900 C   0  0  0  0  0  0  0  0  0  0  0  0
   -8.0960   -1.4980  -25.3220 C   0  0  0  0  0  0  0  0  0  0  0  0
   -7.0560   -1.8090  -25.1910 H   0  0  0  0  0  0  0  0  0  0  0  0
   -8.5310   -2.2260  -26.0170 H   0  0  0  0  0  0  0  0  0  0  0  0
   -9.9000   -1.8540  -24.1880 H   0  0  0  0  0  0  0  0  0  0  0  0
   -8.4630   -2.4710  -23.4160 H   0  0  0  0  0  0  0  0  0  0  0  0
  -10.2510    1.0600  -23.4100 H   0  0  0  0  0  0  0  0  0  0  0  0
   -8.6100    1.6390  -23.5470 H   0  0  0  0  0  0  0  0  0  0  0  0
   -9.4250    1.6640  -25.7790 H   0  0  0  0  0  0  0  0  0  0  0  0
  -10.2600    0.1560  -25.6230 H   0  0  0  0  0  0  0  0  0  0  0  0
   -6.6630    0.6900  -24.5620 H   0  0  0  0  0  0  0  0  0  0  0  0
   -5.9790    0.0150  -26.0030 H   0  0  0  0  0  0  0  0  0  0  0  0
   -7.5620    2.4730  -26.5470 H   0  0  0  0  0  0  0  0  0  0  0  0
   -5.6120    3.0470  -27.9220 H   0  0  0  0  0  0  0  0  0  0  0  0
   -6.0660    1.3700  -28.2520 H   0  0  0  0  0  0  0  0  0  0  0  0
   -4.6800    1.7300  -27.2200 H   0  0  0  0  0  0  0  0  0  0  0  0
  1  2  1  0  0  0  0
  1 50  1  0  0  0  0
  1 51  1  0  0  0  0
  1 52  1  0  0  0  0
  2  3  1  0  0  0  0
  2  7  1  0  0  0  0
  2 49  1  0  0  0  0
  3  4  1  0  0  0  0
  3  5  1  0  0  0  0
  3  6  1  0  0  0  0
  7  8  1  0  0  0  0
  7 47  1  0  0  0  0
  7 48  1  0  0  0  0
  8  9  1  0  0  0  0
  8 13  1  0  0  0  0
  8 38  1  0  0  0  0
  9 10  1  0  0  0  0
  9 11  1  0  0  0  0
  9 12  1  0  0  0  0
 13 14  1  0  0  0  0
 13 45  1  0  0  0  0
 13 46  1  0  0  0  0
 14 15  1  0  0  0  0
 14 43  1  0  0  0  0
 14 44  1  0  0  0  0
 15 16  1  0  0  0  0
 15 37  1  0  0  0  0
 16 17  2  0  0  0  0
 16 18  1  0  0  0  0
 18 19  1  0  0  0  0
 18 35  1  0  0  0  0
 18 36  1  0  0  0  0
 19 20  2  0  0  0  0
 19 28  1  0  0  0  0
 20 21  1  0  0  0  0
 20 34  1  0  0  0  0
 21 22  2  0  0  0  0
 22 23  1  0  0  0  0
 22 33  1  0  0  0  0
 23 24  2  0  0  0  0
 23 28  1  0  0  0  0
 24 25  1  0  0  0  0
 24 32  1  0  0  0  0
 25 26  2  0  0  0  0
 25 31  1  0  0  0  0
 26 27  1  0  0  0  0
 26 30  1  0  0  0  0
 27 28  2  0  0  0  0
 27 29  1  0  0  0  0
 37 38  1  0  0  0  0
 37 41  1  0  0  0  0
 37 42  1  0  0  0  0
 38 39  1  0  0  0  0
 38 40  1  0  0  0  0
M  END
>  <MODEL>
       1

$$$$
