tmp_first_model_8_11.pdb
 OpenBabel08272521063D

 48 52  0  0  0  0  0  0  0  0999 V2000
   -9.6860   -0.9150  -23.9830 C   0  0  0  0  0  0  0  0  0  0  0  0
   -8.6830   -1.3680  -23.0540 N   0  0  0  0  0  0  0  0  0  0  0  0
   -8.4500   -0.7350  -21.8630 C   0  0  0  0  0  0  0  0  0  0  0  0
   -9.0560    0.2020  -21.3860 O   0  0  0  0  0  0  0  0  0  0  0  0
   -7.3570   -1.4010  -21.2810 N   0  0  0  0  0  0  0  0  0  0  0  0
   -6.5870   -0.8260  -20.2350 C   0  0  0  0  0  0  0  0  0  0  0  0
   -6.9330   -1.0720  -18.9350 C   0  0  0  0  0  0  0  0  0  0  0  0
   -6.2510   -0.5920  -17.8640 N   0  0  0  0  0  0  0  0  0  0  0  0
   -5.2130    0.1740  -18.1060 C   0  0  0  0  0  0  0  0  0  0  0  0
   -4.7600    0.5210  -19.4140 C   0  0  0  0  0  0  0  0  0  0  0  0
   -3.6300    1.3600  -19.6240 C   0  0  0  0  0  0  0  0  0  0  0  0
   -3.2380    1.6800  -20.8970 C   0  0  0  0  0  0  0  0  0  0  0  0
   -3.9610    1.1960  -22.0140 C   0  0  0  0  0  0  0  0  0  0  0  0
   -5.0410    0.3680  -21.8360 C   0  0  0  0  0  0  0  0  0  0  0  0
   -5.4680    0.0150  -20.5230 C   0  0  0  0  0  0  0  0  0  0  0  0
   -5.5770   -0.0120  -22.6990 H   0  0  0  0  0  0  0  0  0  0  0  0
   -3.6360    1.4510  -23.0210 H   0  0  0  0  0  0  0  0  0  0  0  0
   -2.3690    2.3130  -21.0680 H   0  0  0  0  0  0  0  0  0  0  0  0
   -3.0960    1.7400  -18.7550 H   0  0  0  0  0  0  0  0  0  0  0  0
   -4.6710    0.5700  -17.2460 H   0  0  0  0  0  0  0  0  0  0  0  0
   -7.7970   -1.7020  -18.7370 H   0  0  0  0  0  0  0  0  0  0  0  0
   -6.9140   -2.4670  -22.0700 C   0  0  0  0  0  0  0  0  0  0  0  0
   -6.0050   -3.2150  -21.8120 O   0  0  0  0  0  0  0  0  0  0  0  0
   -7.7890   -2.4670  -23.3080 C   0  0  0  0  0  0  0  0  0  0  0  0
   -8.4030   -3.8300  -23.7070 C   0  0  0  0  0  0  0  0  0  0  0  0
   -7.6360   -3.8180  -24.9690 N   0  0  0  0  0  0  0  0  0  0  0  0
   -8.4490   -3.8850  -26.4380 S   0  0  0  0  0  0  0  0  0  0  0  0
   -9.5160   -2.8860  -26.4330 O   0  0  0  0  0  0  0  0  0  0  0  0
   -7.4310   -3.8490  -27.4750 O   0  0  0  0  0  0  0  0  0  0  0  0
   -9.2280   -5.4770  -26.3860 C   0  0  0  0  0  0  0  0  0  0  0  0
   -8.5780   -6.6180  -25.9230 C   0  0  0  0  0  0  0  0  0  0  0  0
   -9.2430   -7.8330  -26.0410 C   0  0  0  0  0  0  0  0  0  0  0  0
  -10.5000   -7.9000  -26.6350 C   0  0  0  0  0  0  0  0  0  0  0  0
  -11.1080   -6.7580  -27.1350 C   0  0  0  0  0  0  0  0  0  0  0  0
  -10.4780   -5.5320  -26.9910 C   0  0  0  0  0  0  0  0  0  0  0  0
  -10.9190   -4.6050  -27.3380 H   0  0  0  0  0  0  0  0  0  0  0  0
  -12.0470   -6.8360  -27.6640 H   0  0  0  0  0  0  0  0  0  0  0  0
  -11.0010   -8.8550  -26.7390 H   0  0  0  0  0  0  0  0  0  0  0  0
   -8.7650   -8.7390  -25.7070 H   0  0  0  0  0  0  0  0  0  0  0  0
   -7.5760   -6.5540  -25.5000 H   0  0  0  0  0  0  0  0  0  0  0  0
   -7.0150   -2.5070  -24.6480 C   0  0  0  0  0  0  0  0  0  0  0  0
   -7.2470   -1.7060  -25.3530 H   0  0  0  0  0  0  0  0  0  0  0  0
   -5.9340   -2.6100  -24.5390 H   0  0  0  0  0  0  0  0  0  0  0  0
   -8.0900   -4.6620  -23.0710 H   0  0  0  0  0  0  0  0  0  0  0  0
   -9.4870   -3.8420  -23.8390 H   0  0  0  0  0  0  0  0  0  0  0  0
  -10.2440   -0.1260  -23.4840 H   0  0  0  0  0  0  0  0  0  0  0  0
  -10.3570   -1.7360  -24.2440 H   0  0  0  0  0  0  0  0  0  0  0  0
   -9.2240   -0.5200  -24.8910 H   0  0  0  0  0  0  0  0  0  0  0  0
  1  2  1  0  0  0  0
  1 46  1  0  0  0  0
  1 47  1  0  0  0  0
  1 48  1  0  0  0  0
  2  3  1  0  0  0  0
  2 24  1  0  0  0  0
  3  4  2  0  0  0  0
  3  5  1  0  0  0  0
  5  6  1  0  0  0  0
  5 22  1  0  0  0  0
  6  7  2  0  0  0  0
  6 15  1  0  0  0  0
  7  8  1  0  0  0  0
  7 21  1  0  0  0  0
  8  9  2  0  0  0  0
  9 10  1  0  0  0  0
  9 20  1  0  0  0  0
 10 11  2  0  0  0  0
 10 15  1  0  0  0  0
 11 12  1  0  0  0  0
 11 19  1  0  0  0  0
 12 13  2  0  0  0  0
 12 18  1  0  0  0  0
 13 14  1  0  0  0  0
 13 17  1  0  0  0  0
 14 15  2  0  0  0  0
 14 16  1  0  0  0  0
 22 23  2  0  0  0  0
 22 24  1  0  0  0  0
 24 25  1  0  0  0  0
 24 41  1  0  0  0  0
 25 26  1  0  0  0  0
 25 44  1  0  0  0  0
 25 45  1  0  0  0  0
 26 27  1  0  0  0  0
 26 41  1  0  0  0  0
 27 28  2  0  0  0  0
 27 29  2  0  0  0  0
 27 30  1  0  0  0  0
 30 31  2  0  0  0  0
 30 35  1  0  0  0  0
 31 32  1  0  0  0  0
 31 40  1  0  0  0  0
 32 33  2  0  0  0  0
 32 39  1  0  0  0  0
 33 34  1  0  0  0  0
 33 38  1  0  0  0  0
 34 35  2  0  0  0  0
 34 37  1  0  0  0  0
 35 36  1  0  0  0  0
 41 42  1  0  0  0  0
 41 43  1  0  0  0  0
M  END
>  <MODEL>
       1

$$$$
