tmp_first_model_8_62.pdb
 OpenBabel08272521063D

 44 47  0  0  0  0  0  0  0  0999 V2000
   -8.4560    0.7510  -21.4940 O   0  0  0  0  0  0  0  0  0  0  0  0
   -8.5280   -0.4350  -21.7700 C   0  0  0  0  0  0  0  0  0  0  0  0
   -7.4720   -1.4260  -21.2680 C   0  0  0  0  0  0  0  0  0  0  0  0
   -6.6060   -0.8340  -20.1900 C   0  0  0  0  0  0  0  0  0  0  0  0
   -6.9070   -1.0570  -18.8720 C   0  0  0  0  0  0  0  0  0  0  0  0
   -6.2190   -0.5650  -17.8080 N   0  0  0  0  0  0  0  0  0  0  0  0
   -5.1880    0.2020  -18.0720 C   0  0  0  0  0  0  0  0  0  0  0  0
   -4.7640    0.5330  -19.3870 C   0  0  0  0  0  0  0  0  0  0  0  0
   -3.6360    1.3640  -19.6160 C   0  0  0  0  0  0  0  0  0  0  0  0
   -3.2580    1.6760  -20.8920 C   0  0  0  0  0  0  0  0  0  0  0  0
   -3.9960    1.1810  -21.9900 C   0  0  0  0  0  0  0  0  0  0  0  0
   -5.0800    0.3580  -21.7940 C   0  0  0  0  0  0  0  0  0  0  0  0
   -5.4950    0.0140  -20.4800 C   0  0  0  0  0  0  0  0  0  0  0  0
   -5.6280   -0.0270  -22.6470 H   0  0  0  0  0  0  0  0  0  0  0  0
   -3.6770    1.4270  -23.0000 H   0  0  0  0  0  0  0  0  0  0  0  0
   -2.3890    2.3060  -21.0740 H   0  0  0  0  0  0  0  0  0  0  0  0
   -3.0910    1.7460  -18.7540 H   0  0  0  0  0  0  0  0  0  0  0  0
   -4.6280    0.6080  -17.2270 H   0  0  0  0  0  0  0  0  0  0  0  0
   -7.7560   -1.6870  -18.6050 H   0  0  0  0  0  0  0  0  0  0  0  0
   -8.0080   -2.2940  -20.8670 H   0  0  0  0  0  0  0  0  0  0  0  0
   -6.8790   -1.7940  -22.1170 H   0  0  0  0  0  0  0  0  0  0  0  0
   -9.5710   -0.9500  -22.4920 N   0  0  0  0  0  0  0  0  0  0  0  0
  -10.6080   -0.0040  -22.8890 C   0  0  0  0  0  0  0  0  0  0  0  0
  -11.9120   -0.7270  -23.2600 C   0  0  0  0  0  0  0  0  0  0  0  0
  -12.0990   -2.0900  -22.5700 C   0  0  0  0  0  0  0  0  0  0  0  0
  -13.3750   -2.7740  -23.0150 C   0  0  0  0  0  0  0  0  0  0  0  0
  -14.6780   -2.4320  -22.3770 C   0  0  0  0  0  0  0  0  0  0  0  0
  -14.0710   -3.7860  -22.1510 C   0  0  0  0  0  0  0  0  0  0  0  0
  -13.6260   -3.9970  -21.1840 H   0  0  0  0  0  0  0  0  0  0  0  0
  -14.5510   -4.6460  -22.6030 H   0  0  0  0  0  0  0  0  0  0  0  0
  -14.6870   -1.7270  -21.5520 H   0  0  0  0  0  0  0  0  0  0  0  0
  -15.5170   -2.3460  -23.0520 H   0  0  0  0  0  0  0  0  0  0  0  0
  -13.4300   -2.9580  -24.0860 H   0  0  0  0  0  0  0  0  0  0  0  0
  -10.8890   -3.0200  -22.7840 C   0  0  0  0  0  0  0  0  0  0  0  0
   -9.6290   -2.2380  -23.1720 C   0  0  0  0  0  0  0  0  0  0  0  0
   -9.6440   -2.0710  -24.2600 H   0  0  0  0  0  0  0  0  0  0  0  0
   -8.7240   -2.8100  -22.9600 H   0  0  0  0  0  0  0  0  0  0  0  0
  -10.7210   -3.6060  -21.8730 H   0  0  0  0  0  0  0  0  0  0  0  0
  -11.0940   -3.7500  -23.5760 H   0  0  0  0  0  0  0  0  0  0  0  0
  -12.1730   -1.8990  -21.4950 H   0  0  0  0  0  0  0  0  0  0  0  0
  -12.7680   -0.0660  -23.0560 H   0  0  0  0  0  0  0  0  0  0  0  0
  -11.8930   -0.8870  -24.3440 H   0  0  0  0  0  0  0  0  0  0  0  0
  -10.7420    0.6940  -22.0610 H   0  0  0  0  0  0  0  0  0  0  0  0
  -10.2450    0.5900  -23.7430 H   0  0  0  0  0  0  0  0  0  0  0  0
  1  2  2  0  0  0  0
  2  3  1  0  0  0  0
  2 22  1  0  0  0  0
  3  4  1  0  0  0  0
  3 20  1  0  0  0  0
  3 21  1  0  0  0  0
  4  5  2  0  0  0  0
  4 13  1  0  0  0  0
  5  6  1  0  0  0  0
  5 19  1  0  0  0  0
  6  7  2  0  0  0  0
  7  8  1  0  0  0  0
  7 18  1  0  0  0  0
  8  9  2  0  0  0  0
  8 13  1  0  0  0  0
  9 10  1  0  0  0  0
  9 17  1  0  0  0  0
 10 11  2  0  0  0  0
 10 16  1  0  0  0  0
 11 12  1  0  0  0  0
 11 15  1  0  0  0  0
 12 13  2  0  0  0  0
 12 14  1  0  0  0  0
 22 23  1  0  0  0  0
 22 35  1  0  0  0  0
 23 24  1  0  0  0  0
 23 43  1  0  0  0  0
 23 44  1  0  0  0  0
 24 25  1  0  0  0  0
 24 41  1  0  0  0  0
 24 42  1  0  0  0  0
 25 26  1  0  0  0  0
 25 34  1  0  0  0  0
 25 40  1  0  0  0  0
 26 27  1  0  0  0  0
 26 28  1  0  0  0  0
 26 33  1  0  0  0  0
 27 28  1  0  0  0  0
 27 31  1  0  0  0  0
 27 32  1  0  0  0  0
 28 29  1  0  0  0  0
 28 30  1  0  0  0  0
 34 35  1  0  0  0  0
 34 38  1  0  0  0  0
 34 39  1  0  0  0  0
 35 36  1  0  0  0  0
 35 37  1  0  0  0  0
M  END
>  <MODEL>
       1

$$$$
