tmp_first_model_4_20.pdb
 OpenBabel08272518513D

 66 71  0  0  1  0  0  0  0  0999 V2000
   -7.3550    3.3570  -21.8600 C   0  0  0  0  0  0  0  0  0  0  0  0
   -8.2990    2.8990  -22.8690 N   0  0  0  0  0  0  0  0  0  0  0  0
   -7.7840    2.1890  -23.9150 C   0  0  0  0  0  0  0  0  0  0  0  0
   -6.5830    2.0080  -24.0540 O   0  0  0  0  0  0  0  0  0  0  0  0
   -8.7850    1.6030  -24.9100 C   0  0  0  0  0  0  0  0  0  0  0  0
   -9.4510    0.4560  -24.3190 N   0  0  0  0  0  0  0  0  0  0  0  0
   -8.6980   -0.7800  -24.1580 C   0  0  0  0  0  0  0  0  0  0  0  0
   -9.0830   -1.5270  -22.8540 C   0  0  2  0  0  0  0  0  0  0  0  0
   -8.5330   -0.7660  -21.6160 C   0  0  0  0  0  0  0  0  0  0  0  0
   -8.9870    0.2320  -21.0940 O   0  0  0  0  0  0  0  0  0  0  0  0
   -7.3940   -1.4150  -21.2050 N   0  0  0  0  0  0  0  0  0  0  0  0
   -6.5240   -0.9470  -20.1970 C   0  0  0  0  0  0  0  0  0  0  0  0
   -6.7690   -1.2540  -18.8870 C   0  0  0  0  0  0  0  0  0  0  0  0
   -5.8990   -1.0120  -17.8750 N   0  0  0  0  0  0  0  0  0  0  0  0
   -4.7700   -0.4210  -18.1740 C   0  0  0  0  0  0  0  0  0  0  0  0
   -4.4310    0.0180  -19.4850 C   0  0  0  0  0  0  0  0  0  0  0  0
   -3.2620    0.7730  -19.7450 C   0  0  0  0  0  0  0  0  0  0  0  0
   -3.0510    1.3090  -20.9870 C   0  0  0  0  0  0  0  0  0  0  0  0
   -3.9420    1.0310  -22.0510 C   0  0  0  0  0  0  0  0  0  0  0  0
   -5.0510    0.2490  -21.8360 C   0  0  0  0  0  0  0  0  0  0  0  0
   -5.3280   -0.2530  -20.5380 C   0  0  0  0  0  0  0  0  0  0  0  0
   -5.7220    0.0220  -22.6590 H   0  0  0  0  0  0  0  0  0  0  0  0
   -3.7820    1.4750  -23.0270 H   0  0  0  0  0  0  0  0  0  0  0  0
   -2.1960    1.9550  -21.1600 H   0  0  0  0  0  0  0  0  0  0  0  0
   -2.5990    0.9650  -18.9080 H   0  0  0  0  0  0  0  0  0  0  0  0
   -4.0510   -0.2420  -17.3730 H   0  0  0  0  0  0  0  0  0  0  0  0
   -7.6990   -1.7620  -18.6390 H   0  0  0  0  0  0  0  0  0  0  0  0
   -7.0460   -2.5830  -21.9710 C   0  0  0  0  0  0  0  0  0  0  0  0
   -8.3330   -2.8940  -22.7390 C   0  0  2  0  0  0  0  0  0  0  0  0
   -8.0520   -3.6770  -24.0310 C   0  0  0  0  0  0  0  0  0  0  0  0
   -7.4880   -5.0560  -23.7640 C   0  0  0  0  0  0  0  0  0  0  0  0
   -6.1100   -5.2980  -23.7590 C   0  0  0  0  0  0  0  0  0  0  0  0
   -5.6070   -6.5680  -23.4840 C   0  0  0  0  0  0  0  0  0  0  0  0
   -6.4770   -7.6160  -23.2020 C   0  0  0  0  0  0  0  0  0  0  0  0
   -7.8500   -7.3920  -23.2070 C   0  0  0  0  0  0  0  0  0  0  0  0
   -8.3470   -6.1220  -23.4850 C   0  0  0  0  0  0  0  0  0  0  0  0
   -9.4240   -5.9570  -23.4920 H   0  0  0  0  0  0  0  0  0  0  0  0
   -8.5360   -8.2100  -23.0040 H   0  0  0  0  0  0  0  0  0  0  0  0
   -6.0850   -8.6060  -22.9830 H   0  0  0  0  0  0  0  0  0  0  0  0
   -4.5340   -6.7450  -23.4970 H   0  0  0  0  0  0  0  0  0  0  0  0
   -5.4140   -4.4880  -23.9750 H   0  0  0  0  0  0  0  0  0  0  0  0
   -8.9800   -3.7630  -24.6100 H   0  0  0  0  0  0  0  0  0  0  0  0
   -7.3410   -3.1040  -24.6410 H   0  0  0  0  0  0  0  0  0  0  0  0
   -8.9400   -3.5360  -22.0960 H   0  0  0  0  0  0  0  0  0  0  0  0
   -6.7660   -3.3940  -21.2910 H   0  0  0  0  0  0  0  0  0  0  0  0
   -6.1940   -2.4090  -22.6530 H   0  0  0  0  0  0  0  0  0  0  0  0
  -10.5950   -1.6050  -22.7890 C   0  0  0  0  0  0  0  0  0  0  0  0
  -11.2220   -2.5380  -21.9590 C   0  0  0  0  0  0  0  0  0  0  0  0
  -12.6000   -2.5650  -21.8580 C   0  0  0  0  0  0  0  0  0  0  0  0
  -13.3340   -3.7020  -20.7720 Cl  0  0  0  0  0  0  0  0  0  0  0  0
  -13.4120   -1.6900  -22.5750 C   0  0  0  0  0  0  0  0  0  0  0  0
  -12.7970   -0.7460  -23.3700 C   0  0  0  0  0  0  0  0  0  0  0  0
  -11.4080   -0.6780  -23.4550 C   0  0  0  0  0  0  0  0  0  0  0  0
  -10.8160    0.4610  -24.2260 C   0  0  0  0  0  0  0  0  0  0  0  0
  -11.5080    1.3480  -24.7100 O   0  0  0  0  0  0  0  0  0  0  0  0
  -13.3740   -0.0180  -23.9250 H   0  0  0  0  0  0  0  0  0  0  0  0
  -14.4920   -1.7360  -22.4830 H   0  0  0  0  0  0  0  0  0  0  0  0
  -10.6530   -3.2420  -21.3630 H   0  0  0  0  0  0  0  0  0  0  0  0
   -7.6260   -0.5500  -24.1650 H   0  0  0  0  0  0  0  0  0  0  0  0
   -8.8990   -1.4440  -25.0090 H   0  0  0  0  0  0  0  0  0  0  0  0
   -8.2350    1.3010  -25.8100 H   0  0  0  0  0  0  0  0  0  0  0  0
   -9.5550    2.3260  -25.2030 H   0  0  0  0  0  0  0  0  0  0  0  0
   -9.2500    2.7250  -22.5600 H   0  0  0  0  0  0  0  0  0  0  0  0
   -7.9010    3.8370  -21.0460 H   0  0  0  0  0  0  0  0  0  0  0  0
   -6.6830    4.1080  -22.2880 H   0  0  0  0  0  0  0  0  0  0  0  0
   -6.7560    2.5070  -21.4920 H   0  0  0  0  0  0  0  0  0  0  0  0
  1  2  1  0  0  0  0
  1 64  1  0  0  0  0
  1 65  1  0  0  0  0
  1 66  1  0  0  0  0
  2  3  1  0  0  0  0
  2 63  1  0  0  0  0
  3  4  2  0  0  0  0
  3  5  1  0  0  0  0
  5  6  1  0  0  0  0
  5 61  1  0  0  0  0
  5 62  1  0  0  0  0
  6  7  1  0  0  0  0
  6 54  1  0  0  0  0
  7  8  1  0  0  0  0
  7 59  1  0  0  0  0
  7 60  1  0  0  0  0
  8  9  1  1  0  0  0
  8 29  1  0  0  0  0
  8 47  1  0  0  0  0
  9 10  2  0  0  0  0
  9 11  1  0  0  0  0
 11 12  1  0  0  0  0
 11 28  1  0  0  0  0
 12 13  2  0  0  0  0
 12 21  1  0  0  0  0
 13 14  1  0  0  0  0
 13 27  1  0  0  0  0
 14 15  2  0  0  0  0
 15 16  1  0  0  0  0
 15 26  1  0  0  0  0
 16 17  2  0  0  0  0
 16 21  1  0  0  0  0
 17 18  1  0  0  0  0
 17 25  1  0  0  0  0
 18 19  2  0  0  0  0
 18 24  1  0  0  0  0
 19 20  1  0  0  0  0
 19 23  1  0  0  0  0
 20 21  2  0  0  0  0
 20 22  1  0  0  0  0
 28 29  1  0  0  0  0
 28 45  1  0  0  0  0
 28 46  1  0  0  0  0
 29 30  1  0  0  0  0
 29 44  1  1  0  0  0
 30 31  1  0  0  0  0
 30 42  1  0  0  0  0
 30 43  1  0  0  0  0
 31 32  2  0  0  0  0
 31 36  1  0  0  0  0
 32 33  1  0  0  0  0
 32 41  1  0  0  0  0
 33 34  2  0  0  0  0
 33 40  1  0  0  0  0
 34 35  1  0  0  0  0
 34 39  1  0  0  0  0
 35 36  2  0  0  0  0
 35 38  1  0  0  0  0
 36 37  1  0  0  0  0
 47 48  2  0  0  0  0
 47 53  1  0  0  0  0
 48 49  1  0  0  0  0
 48 58  1  0  0  0  0
 49 50  1  0  0  0  0
 49 51  2  0  0  0  0
 51 52  1  0  0  0  0
 51 57  1  0  0  0  0
 52 53  2  0  0  0  0
 52 56  1  0  0  0  0
 53 54  1  0  0  0  0
 54 55  2  0  0  0  0
M  END
>  <MODEL>
       1

$$$$
