tmp_first_model_11_67.pdb
 OpenBabel08272522543D

 58 63  0  0  1  0  0  0  0  0999 V2000
   -9.3780    1.1330  -30.7330 C   0  0  0  0  0  0  0  0  0  0  0  0
   -8.9720    0.8940  -29.3070 C   0  0  0  0  0  0  0  0  0  0  0  0
   -9.3490    1.5970  -28.1170 C   0  0  0  0  0  0  0  0  0  0  0  0
   -8.7180    0.9230  -27.1220 C   0  0  0  0  0  0  0  0  0  0  0  0
   -8.6180    1.1250  -25.6350 C   0  0  0  0  0  0  0  0  0  0  0  0
   -9.3190    0.1420  -24.8280 N   0  0  0  0  0  0  0  0  0  0  0  0
   -8.6970   -1.1320  -24.5080 C   0  0  0  0  0  0  0  0  0  0  0  0
   -8.9100   -1.5500  -23.0300 C   0  0  2  0  0  0  0  0  0  0  0  0
   -8.1250   -0.6190  -22.0850 C   0  0  0  0  0  0  0  0  0  0  0  0
   -8.1190    0.5890  -22.1060 O   0  0  0  0  0  0  0  0  0  0  0  0
   -7.3720   -1.3870  -21.2210 N   0  0  0  0  0  0  0  0  0  0  0  0
   -6.5850   -0.8260  -20.1880 C   0  0  0  0  0  0  0  0  0  0  0  0
   -6.8880   -1.0750  -18.8720 C   0  0  0  0  0  0  0  0  0  0  0  0
   -6.2150   -0.5630  -17.8120 N   0  0  0  0  0  0  0  0  0  0  0  0
   -5.1850    0.2080  -18.0700 C   0  0  0  0  0  0  0  0  0  0  0  0
   -4.7320    0.5130  -19.3850 C   0  0  0  0  0  0  0  0  0  0  0  0
   -3.6010    1.3430  -19.6080 C   0  0  0  0  0  0  0  0  0  0  0  0
   -3.1750    1.6130  -20.8800 C   0  0  0  0  0  0  0  0  0  0  0  0
   -3.8530    1.0560  -21.9870 C   0  0  0  0  0  0  0  0  0  0  0  0
   -4.9470    0.2500  -21.7980 C   0  0  0  0  0  0  0  0  0  0  0  0
   -5.4340   -0.0240  -20.4870 C   0  0  0  0  0  0  0  0  0  0  0  0
   -5.4630   -0.1720  -22.6530 H   0  0  0  0  0  0  0  0  0  0  0  0
   -3.5120    1.2790  -22.9950 H   0  0  0  0  0  0  0  0  0  0  0  0
   -2.3200    2.2630  -21.0470 H   0  0  0  0  0  0  0  0  0  0  0  0
   -3.0970    1.7690  -18.7440 H   0  0  0  0  0  0  0  0  0  0  0  0
   -4.6410    0.6240  -17.2190 H   0  0  0  0  0  0  0  0  0  0  0  0
   -7.7460   -1.6970  -18.6180 H   0  0  0  0  0  0  0  0  0  0  0  0
   -7.6290   -2.8040  -21.3240 C   0  0  0  0  0  0  0  0  0  0  0  0
   -8.3420   -2.9690  -22.6860 C   0  0  2  0  0  0  0  0  0  0  0  0
   -7.4550   -3.6160  -23.7520 C   0  0  0  0  0  0  0  0  0  0  0  0
   -6.5610   -3.0270  -23.9700 H   0  0  0  0  0  0  0  0  0  0  0  0
   -7.1380   -4.6140  -23.4300 H   0  0  0  0  0  0  0  0  0  0  0  0
   -8.0100   -3.7490  -24.6850 H   0  0  0  0  0  0  0  0  0  0  0  0
   -9.1770   -3.6610  -22.5660 H   0  0  0  0  0  0  0  0  0  0  0  0
   -8.2600   -3.1500  -20.4930 H   0  0  0  0  0  0  0  0  0  0  0  0
   -6.6870   -3.3580  -21.2630 H   0  0  0  0  0  0  0  0  0  0  0  0
  -10.4080   -1.4520  -22.7690 C   0  0  0  0  0  0  0  0  0  0  0  0
  -11.0140   -2.2540  -21.7960 C   0  0  0  0  0  0  0  0  0  0  0  0
  -12.3900   -2.2630  -21.6930 C   0  0  0  0  0  0  0  0  0  0  0  0
  -12.9770   -3.0920  -20.8120 F   0  0  0  0  0  0  0  0  0  0  0  0
  -13.2080   -1.4670  -22.4800 C   0  0  0  0  0  0  0  0  0  0  0  0
  -12.6020   -0.6110  -23.3820 C   0  0  0  0  0  0  0  0  0  0  0  0
  -11.2140   -0.5790  -23.5120 C   0  0  0  0  0  0  0  0  0  0  0  0
  -10.6140    0.4030  -24.4720 C   0  0  0  0  0  0  0  0  0  0  0  0
  -11.2310    1.3680  -24.9010 O   0  0  0  0  0  0  0  0  0  0  0  0
  -13.1900    0.0680  -23.9900 H   0  0  0  0  0  0  0  0  0  0  0  0
  -14.2860   -1.5370  -22.3620 H   0  0  0  0  0  0  0  0  0  0  0  0
  -10.4380   -2.8790  -21.1210 H   0  0  0  0  0  0  0  0  0  0  0  0
   -9.1410   -1.9100  -25.1420 H   0  0  0  0  0  0  0  0  0  0  0  0
   -7.6360   -1.0630  -24.7500 H   0  0  0  0  0  0  0  0  0  0  0  0
   -7.5590    1.1240  -25.3440 H   0  0  0  0  0  0  0  0  0  0  0  0
   -9.0510    2.1010  -25.4090 H   0  0  0  0  0  0  0  0  0  0  0  0
   -8.0240   -0.0950  -27.6430 O   0  0  0  0  0  0  0  0  0  0  0  0
   -8.1800   -0.1100  -29.0150 N   0  0  0  0  0  0  0  0  0  0  0  0
  -10.0380    2.4200  -28.0080 H   0  0  0  0  0  0  0  0  0  0  0  0
  -10.4680    1.1810  -30.8490 H   0  0  0  0  0  0  0  0  0  0  0  0
   -8.9590    2.0730  -31.1060 H   0  0  0  0  0  0  0  0  0  0  0  0
   -9.0160    0.3240  -31.3720 H   0  0  0  0  0  0  0  0  0  0  0  0
  1  2  1  0  0  0  0
  1 56  1  0  0  0  0
  1 57  1  0  0  0  0
  1 58  1  0  0  0  0
  2  3  1  0  0  0  0
  2 54  2  0  0  0  0
  3  4  2  0  0  0  0
  3 55  1  0  0  0  0
  4  5  1  0  0  0  0
  4 53  1  0  0  0  0
  5  6  1  0  0  0  0
  5 51  1  0  0  0  0
  5 52  1  0  0  0  0
  6  7  1  0  0  0  0
  6 44  1  0  0  0  0
  7  8  1  0  0  0  0
  7 49  1  0  0  0  0
  7 50  1  0  0  0  0
  8  9  1  1  0  0  0
  8 29  1  0  0  0  0
  8 37  1  0  0  0  0
  9 10  2  0  0  0  0
  9 11  1  0  0  0  0
 11 12  1  0  0  0  0
 11 28  1  0  0  0  0
 12 13  2  0  0  0  0
 12 21  1  0  0  0  0
 13 14  1  0  0  0  0
 13 27  1  0  0  0  0
 14 15  2  0  0  0  0
 15 16  1  0  0  0  0
 15 26  1  0  0  0  0
 16 17  2  0  0  0  0
 16 21  1  0  0  0  0
 17 18  1  0  0  0  0
 17 25  1  0  0  0  0
 18 19  2  0  0  0  0
 18 24  1  0  0  0  0
 19 20  1  0  0  0  0
 19 23  1  0  0  0  0
 20 21  2  0  0  0  0
 20 22  1  0  0  0  0
 28 29  1  0  0  0  0
 28 35  1  0  0  0  0
 28 36  1  0  0  0  0
 29 30  1  0  0  0  0
 29 34  1  1  0  0  0
 30 31  1  0  0  0  0
 30 32  1  0  0  0  0
 30 33  1  0  0  0  0
 37 38  2  0  0  0  0
 37 43  1  0  0  0  0
 38 39  1  0  0  0  0
 38 48  1  0  0  0  0
 39 40  1  0  0  0  0
 39 41  2  0  0  0  0
 41 42  1  0  0  0  0
 41 47  1  0  0  0  0
 42 43  2  0  0  0  0
 42 46  1  0  0  0  0
 43 44  1  0  0  0  0
 44 45  2  0  0  0  0
 53 54  1  0  0  0  0
M  END
>  <MODEL>
       1

$$$$
