tmp_first_model_5_92.pdb
 OpenBabel08272519233D

 60 65  0  0  1  0  0  0  0  0999 V2000
   -6.7700   -3.4560  -26.1300 C   0  0  0  0  0  0  0  0  0  0  0  0
   -7.0010   -2.9240  -24.8510 O   0  0  0  0  0  0  0  0  0  0  0  0
   -7.9760   -3.6450  -24.1290 C   0  0  0  0  0  0  0  0  0  0  0  0
   -8.2610   -2.9450  -22.8050 C   0  0  1  0  0  0  0  0  0  0  0  0
   -6.9830   -2.6320  -22.0180 C   0  0  0  0  0  0  0  0  0  0  0  0
   -7.3600   -1.4690  -21.2420 N   0  0  0  0  0  0  0  0  0  0  0  0
   -6.5360   -0.9490  -20.2170 C   0  0  0  0  0  0  0  0  0  0  0  0
   -6.8330   -1.1510  -18.8910 C   0  0  0  0  0  0  0  0  0  0  0  0
   -5.9680   -0.8830  -17.8780 N   0  0  0  0  0  0  0  0  0  0  0  0
   -4.7960   -0.3810  -18.2030 C   0  0  0  0  0  0  0  0  0  0  0  0
   -4.4130   -0.0290  -19.5340 C   0  0  0  0  0  0  0  0  0  0  0  0
   -3.2490    0.7400  -19.8200 C   0  0  0  0  0  0  0  0  0  0  0  0
   -3.1380    1.4160  -21.0050 C   0  0  0  0  0  0  0  0  0  0  0  0
   -4.0510    1.1580  -22.0560 C   0  0  0  0  0  0  0  0  0  0  0  0
   -5.0560    0.2400  -21.8720 C   0  0  0  0  0  0  0  0  0  0  0  0
   -5.3340   -0.2660  -20.5720 C   0  0  0  0  0  0  0  0  0  0  0  0
   -5.6540   -0.1190  -22.7050 H   0  0  0  0  0  0  0  0  0  0  0  0
   -3.9170    1.6370  -23.0240 H   0  0  0  0  0  0  0  0  0  0  0  0
   -2.2870    2.0670  -21.1930 H   0  0  0  0  0  0  0  0  0  0  0  0
   -2.5240    0.8940  -19.0310 H   0  0  0  0  0  0  0  0  0  0  0  0
   -4.1030   -0.1720  -17.3860 H   0  0  0  0  0  0  0  0  0  0  0  0
   -7.8030   -1.5490  -18.5910 H   0  0  0  0  0  0  0  0  0  0  0  0
   -8.5540   -0.8850  -21.5950 C   0  0  0  0  0  0  0  0  0  0  0  0
   -9.0620    0.0360  -20.9910 O   0  0  0  0  0  0  0  0  0  0  0  0
   -9.1010   -1.6170  -22.8460 C   0  0  1  0  0  0  0  0  0  0  0  0
   -8.8400   -0.7920  -24.1370 C   0  0  0  0  0  0  0  0  0  0  0  0
   -9.7210    0.3590  -24.2470 N   0  0  0  0  0  0  0  0  0  0  0  0
   -9.1650    1.6200  -24.7390 C   0  0  0  0  0  0  0  0  0  0  0  0
   -8.3690    2.3790  -23.7060 C   0  0  0  0  0  0  0  0  0  0  0  0
   -8.8710    3.3090  -22.7660 C   0  0  0  0  0  0  0  0  0  0  0  0
   -7.9250    3.7690  -21.9480 N   0  0  0  0  0  0  0  0  0  0  0  0
   -6.8260    3.1360  -22.3520 N   0  0  0  0  0  0  0  0  0  0  0  0
   -7.0220    2.3060  -23.4060 C   0  0  0  0  0  0  0  0  0  0  0  0
   -6.1720    1.7730  -23.8230 H   0  0  0  0  0  0  0  0  0  0  0  0
   -5.9560    3.3020  -21.8720 H   0  0  0  0  0  0  0  0  0  0  0  0
   -9.8930    3.6470  -22.6580 H   0  0  0  0  0  0  0  0  0  0  0  0
   -8.5420    1.4240  -25.6260 H   0  0  0  0  0  0  0  0  0  0  0  0
  -10.0260    2.2070  -25.0690 H   0  0  0  0  0  0  0  0  0  0  0  0
  -11.0830    0.1960  -24.1640 C   0  0  0  0  0  0  0  0  0  0  0  0
  -11.8820    1.0190  -24.5840 O   0  0  0  0  0  0  0  0  0  0  0  0
  -11.5140   -1.0750  -23.4840 C   0  0  0  0  0  0  0  0  0  0  0  0
  -12.8500   -1.4710  -23.5570 C   0  0  0  0  0  0  0  0  0  0  0  0
  -13.3280   -2.4800  -22.7450 C   0  0  0  0  0  0  0  0  0  0  0  0
  -12.4620   -3.0500  -21.8140 C   0  0  0  0  0  0  0  0  0  0  0  0
  -13.1010   -4.0810  -20.5690 Cl  0  0  0  0  0  0  0  0  0  0  0  0
  -11.1100   -2.7670  -21.8300 C   0  0  0  0  0  0  0  0  0  0  0  0
  -10.6000   -1.8260  -22.7320 C   0  0  0  0  0  0  0  0  0  0  0  0
  -10.4570   -3.3010  -21.1470 H   0  0  0  0  0  0  0  0  0  0  0  0
  -14.3670   -2.7870  -22.7650 H   0  0  0  0  0  0  0  0  0  0  0  0
  -13.5180   -0.9380  -24.2230 H   0  0  0  0  0  0  0  0  0  0  0  0
   -8.9830   -1.4420  -25.0130 H   0  0  0  0  0  0  0  0  0  0  0  0
   -7.8080   -0.4400  -24.1350 H   0  0  0  0  0  0  0  0  0  0  0  0
   -6.1340   -2.4220  -22.6780 H   0  0  0  0  0  0  0  0  0  0  0  0
   -6.6850   -3.4630  -21.3640 H   0  0  0  0  0  0  0  0  0  0  0  0
   -8.8420   -3.6550  -22.2080 H   0  0  0  0  0  0  0  0  0  0  0  0
   -7.6100   -4.6710  -23.9500 H   0  0  0  0  0  0  0  0  0  0  0  0
   -8.9060   -3.7220  -24.7190 H   0  0  0  0  0  0  0  0  0  0  0  0
   -6.0080   -2.8360  -26.6090 H   0  0  0  0  0  0  0  0  0  0  0  0
   -6.4060   -4.4940  -26.0750 H   0  0  0  0  0  0  0  0  0  0  0  0
   -7.6820   -3.4380  -26.7500 H   0  0  0  0  0  0  0  0  0  0  0  0
  1  2  1  0  0  0  0
  1 58  1  0  0  0  0
  1 59  1  0  0  0  0
  1 60  1  0  0  0  0
  2  3  1  0  0  0  0
  3  4  1  0  0  0  0
  3 56  1  0  0  0  0
  3 57  1  0  0  0  0
  4  5  1  0  0  0  0
  4 25  1  0  0  0  0
  4 55  1  1  0  0  0
  5  6  1  0  0  0  0
  5 53  1  0  0  0  0
  5 54  1  0  0  0  0
  6  7  1  0  0  0  0
  6 23  1  0  0  0  0
  7  8  2  0  0  0  0
  7 16  1  0  0  0  0
  8  9  1  0  0  0  0
  8 22  1  0  0  0  0
  9 10  2  0  0  0  0
 10 11  1  0  0  0  0
 10 21  1  0  0  0  0
 11 12  2  0  0  0  0
 11 16  1  0  0  0  0
 12 13  1  0  0  0  0
 12 20  1  0  0  0  0
 13 14  2  0  0  0  0
 13 19  1  0  0  0  0
 14 15  1  0  0  0  0
 14 18  1  0  0  0  0
 15 16  2  0  0  0  0
 15 17  1  0  0  0  0
 23 24  2  0  0  0  0
 25 23  1  1  0  0  0
 25 26  1  0  0  0  0
 25 47  1  0  0  0  0
 26 27  1  0  0  0  0
 26 51  1  0  0  0  0
 26 52  1  0  0  0  0
 27 28  1  0  0  0  0
 27 39  1  0  0  0  0
 28 29  1  0  0  0  0
 28 37  1  0  0  0  0
 28 38  1  0  0  0  0
 29 30  1  0  0  0  0
 29 33  2  0  0  0  0
 30 31  2  0  0  0  0
 30 36  1  0  0  0  0
 31 32  1  0  0  0  0
 32 33  1  0  0  0  0
 32 35  1  0  0  0  0
 33 34  1  0  0  0  0
 39 40  2  0  0  0  0
 39 41  1  0  0  0  0
 41 42  2  0  0  0  0
 41 47  1  0  0  0  0
 42 43  1  0  0  0  0
 42 50  1  0  0  0  0
 43 44  2  0  0  0  0
 43 49  1  0  0  0  0
 44 45  1  0  0  0  0
 44 46  1  0  0  0  0
 46 47  2  0  0  0  0
 46 48  1  0  0  0  0
M  END
>  <MODEL>
       1

$$$$
