tmp_first_model_5_18.pdb
 OpenBabel08272519223D

 56 61  0  0  1  0  0  0  0  0999 V2000
  -10.2090   -2.9400  -22.0400 C   0  0  0  0  0  0  0  0  0  0  0  0
   -9.1490   -2.0180  -22.6640 C   0  0  1  0  0  0  0  0  0  0  0  0
   -8.6320   -1.0000  -21.6210 C   0  0  0  0  0  0  0  0  0  0  0  0
   -7.3840   -1.5770  -21.1700 N   0  0  0  0  0  0  0  0  0  0  0  0
   -6.5390   -1.0420  -20.1680 C   0  0  0  0  0  0  0  0  0  0  0  0
   -6.7900   -1.2700  -18.8420 C   0  0  0  0  0  0  0  0  0  0  0  0
   -5.8980   -1.0220  -17.8500 N   0  0  0  0  0  0  0  0  0  0  0  0
   -4.7540   -0.4770  -18.1970 C   0  0  0  0  0  0  0  0  0  0  0  0
   -4.4340   -0.0660  -19.5230 C   0  0  0  0  0  0  0  0  0  0  0  0
   -3.2860    0.7260  -19.8020 C   0  0  0  0  0  0  0  0  0  0  0  0
   -3.1900    1.4040  -20.9860 C   0  0  0  0  0  0  0  0  0  0  0  0
   -4.1400    1.1830  -22.0140 C   0  0  0  0  0  0  0  0  0  0  0  0
   -5.1900    0.3250  -21.8160 C   0  0  0  0  0  0  0  0  0  0  0  0
   -5.3870   -0.2800  -20.5370 C   0  0  0  0  0  0  0  0  0  0  0  0
   -5.8980    0.1310  -22.6200 H   0  0  0  0  0  0  0  0  0  0  0  0
   -4.0050    1.6720  -22.9720 H   0  0  0  0  0  0  0  0  0  0  0  0
   -2.3480    2.0680  -21.1670 H   0  0  0  0  0  0  0  0  0  0  0  0
   -2.5600    0.8800  -19.0080 H   0  0  0  0  0  0  0  0  0  0  0  0
   -4.0300   -0.2960  -17.4020 H   0  0  0  0  0  0  0  0  0  0  0  0
   -7.7340   -1.7220  -18.5360 H   0  0  0  0  0  0  0  0  0  0  0  0
   -6.9010   -2.5710  -21.9870 C   0  0  0  0  0  0  0  0  0  0  0  0
   -5.8930   -3.2140  -21.7640 O   0  0  0  0  0  0  0  0  0  0  0  0
   -7.8660   -2.7500  -23.1770 C   0  0  1  0  0  0  0  0  0  0  0  0
   -8.0440   -4.2670  -23.4190 C   0  0  0  0  0  0  0  0  0  0  0  0
   -6.8310   -4.8780  -23.9530 N   0  0  0  0  0  0  0  0  0  0  0  0
   -6.3450   -6.1750  -23.4460 C   0  0  0  0  0  0  0  0  0  0  0  0
   -5.1680   -6.0640  -22.5630 C   0  0  0  0  0  0  0  0  0  0  0  0
   -5.2230   -5.9360  -20.9280 C   0  0  0  0  0  0  0  0  0  0  0  0
   -5.1850   -6.2800  -21.1420 C   0  0  0  0  0  0  0  0  0  0  0  0
   -2.9900   -6.0050  -22.3800 N   0  0  0  0  0  0  0  0  0  0  0  0
   -3.9930   -5.9610  -23.1790 N   0  0  0  0  0  0  0  0  0  0  0  0
   -2.1520   -5.9030  -22.9720 H   0  0  0  0  0  0  0  0  0  0  0  0
   -5.0620   -4.9160  -20.5230 H   0  0  0  0  0  0  0  0  0  0  0  0
   -6.1960   -6.5600  -20.5750 H   0  0  0  0  0  0  0  0  0  0  0  0
   -7.2050   -6.7160  -23.0160 H   0  0  0  0  0  0  0  0  0  0  0  0
   -6.0210   -6.7230  -24.3410 H   0  0  0  0  0  0  0  0  0  0  0  0
   -6.2780   -4.3660  -25.1030 C   0  0  0  0  0  0  0  0  0  0  0  0
   -5.5730   -5.0240  -25.8570 O   0  0  0  0  0  0  0  0  0  0  0  0
   -6.5690   -2.9200  -25.3620 C   0  0  0  0  0  0  0  0  0  0  0  0
   -6.0680   -2.3780  -26.5450 C   0  0  0  0  0  0  0  0  0  0  0  0
   -6.2700   -1.0500  -26.8570 C   0  0  0  0  0  0  0  0  0  0  0  0
   -6.9780   -0.2740  -25.9470 C   0  0  0  0  0  0  0  0  0  0  0  0
   -7.1930    1.0220  -26.2440 F   0  0  0  0  0  0  0  0  0  0  0  0
   -7.4850   -0.7820  -24.7650 C   0  0  0  0  0  0  0  0  0  0  0  0
   -7.3020   -2.1400  -24.4580 C   0  0  0  0  0  0  0  0  0  0  0  0
   -8.0350   -0.1030  -24.1210 H   0  0  0  0  0  0  0  0  0  0  0  0
   -5.9000   -0.6020  -27.7730 H   0  0  0  0  0  0  0  0  0  0  0  0
   -5.5100   -3.0330  -27.2050 H   0  0  0  0  0  0  0  0  0  0  0  0
   -8.2970   -4.7630  -22.4820 H   0  0  0  0  0  0  0  0  0  0  0  0
   -8.8800   -4.4150  -24.1170 H   0  0  0  0  0  0  0  0  0  0  0  0
   -8.4930   -0.0000  -22.0520 H   0  0  0  0  0  0  0  0  0  0  0  0
   -9.3250   -0.8810  -20.7900 H   0  0  0  0  0  0  0  0  0  0  0  0
   -9.6310   -1.5080  -23.5050 H   0  0  0  0  0  0  0  0  0  0  0  0
   -9.8130   -3.4840  -21.1740 H   0  0  0  0  0  0  0  0  0  0  0  0
  -10.5780   -3.6730  -22.7650 H   0  0  0  0  0  0  0  0  0  0  0  0
  -11.0700   -2.3530  -21.7010 H   0  0  0  0  0  0  0  0  0  0  0  0
  1  2  1  0  0  0  0
  1 54  1  0  0  0  0
  1 55  1  0  0  0  0
  1 56  1  0  0  0  0
  2  3  1  0  0  0  0
  2 23  1  0  0  0  0
  2 53  1  6  0  0  0
  3  4  1  0  0  0  0
  3 51  1  0  0  0  0
  3 52  1  0  0  0  0
  4  5  1  0  0  0  0
  4 21  1  0  0  0  0
  5  6  2  0  0  0  0
  5 14  1  0  0  0  0
  6  7  1  0  0  0  0
  6 20  1  0  0  0  0
  7  8  2  0  0  0  0
  8  9  1  0  0  0  0
  8 19  1  0  0  0  0
  9 10  2  0  0  0  0
  9 14  1  0  0  0  0
 10 11  1  0  0  0  0
 10 18  1  0  0  0  0
 11 12  2  0  0  0  0
 11 17  1  0  0  0  0
 12 13  1  0  0  0  0
 12 16  1  0  0  0  0
 13 14  2  0  0  0  0
 13 15  1  0  0  0  0
 21 22  2  0  0  0  0
 23 21  1  1  0  0  0
 23 24  1  0  0  0  0
 23 45  1  0  0  0  0
 24 25  1  0  0  0  0
 24 49  1  0  0  0  0
 24 50  1  0  0  0  0
 25 26  1  0  0  0  0
 25 37  1  0  0  0  0
 26 27  1  0  0  0  0
 26 35  1  0  0  0  0
 26 36  1  0  0  0  0
 27 28  1  0  0  0  0
 27 31  2  0  0  0  0
 28 29  2  0  0  0  0
 28 34  1  0  0  0  0
 29 30  1  0  0  0  0
 29 33  1  0  0  0  0
 30 31  1  0  0  0  0
 30 32  1  0  0  0  0
 37 38  2  0  0  0  0
 37 39  1  0  0  0  0
 39 40  2  0  0  0  0
 39 45  1  0  0  0  0
 40 41  1  0  0  0  0
 40 48  1  0  0  0  0
 41 42  2  0  0  0  0
 41 47  1  0  0  0  0
 42 43  1  0  0  0  0
 42 44  1  0  0  0  0
 44 45  2  0  0  0  0
 44 46  1  0  0  0  0
M  END
>  <MODEL>
       1

$$$$
