tmp_first_model_4_15.pdb
 OpenBabel08272518513D

 63 68  0  0  1  0  0  0  0  0999 V2000
   -7.3860    3.3670  -21.8580 C   0  0  0  0  0  0  0  0  0  0  0  0
   -8.3640    2.8910  -22.8260 N   0  0  0  0  0  0  0  0  0  0  0  0
   -7.8770    2.1730  -23.8810 C   0  0  0  0  0  0  0  0  0  0  0  0
   -6.6780    1.9890  -24.0470 O   0  0  0  0  0  0  0  0  0  0  0  0
   -8.8940    1.5850  -24.8580 C   0  0  0  0  0  0  0  0  0  0  0  0
   -9.5220    0.4120  -24.2770 N   0  0  0  0  0  0  0  0  0  0  0  0
   -8.7420   -0.8110  -24.1420 C   0  0  0  0  0  0  0  0  0  0  0  0
   -9.0910   -1.5700  -22.8350 C   0  0  2  0  0  0  0  0  0  0  0  0
   -8.5430   -0.7960  -21.6070 C   0  0  0  0  0  0  0  0  0  0  0  0
   -9.0130    0.1900  -21.0770 O   0  0  0  0  0  0  0  0  0  0  0  0
   -7.3800   -1.4150  -21.2150 N   0  0  0  0  0  0  0  0  0  0  0  0
   -6.5190   -0.9490  -20.2020 C   0  0  0  0  0  0  0  0  0  0  0  0
   -6.7660   -1.2590  -18.8930 C   0  0  0  0  0  0  0  0  0  0  0  0
   -5.8990   -1.0140  -17.8790 N   0  0  0  0  0  0  0  0  0  0  0  0
   -4.7690   -0.4220  -18.1770 C   0  0  0  0  0  0  0  0  0  0  0  0
   -4.4300    0.0190  -19.4880 C   0  0  0  0  0  0  0  0  0  0  0  0
   -3.2620    0.7760  -19.7480 C   0  0  0  0  0  0  0  0  0  0  0  0
   -3.0540    1.3140  -20.9900 C   0  0  0  0  0  0  0  0  0  0  0  0
   -3.9460    1.0380  -22.0530 C   0  0  0  0  0  0  0  0  0  0  0  0
   -5.0530    0.2540  -21.8380 C   0  0  0  0  0  0  0  0  0  0  0  0
   -5.3250   -0.2540  -20.5420 C   0  0  0  0  0  0  0  0  0  0  0  0
   -5.7290    0.0330  -22.6590 H   0  0  0  0  0  0  0  0  0  0  0  0
   -3.7910    1.4870  -23.0280 H   0  0  0  0  0  0  0  0  0  0  0  0
   -2.2020    1.9640  -21.1610 H   0  0  0  0  0  0  0  0  0  0  0  0
   -2.5960    0.9610  -18.9110 H   0  0  0  0  0  0  0  0  0  0  0  0
   -4.0520   -0.2420  -17.3730 H   0  0  0  0  0  0  0  0  0  0  0  0
   -7.6970   -1.7650  -18.6460 H   0  0  0  0  0  0  0  0  0  0  0  0
   -7.0200   -2.5860  -21.9680 C   0  0  0  0  0  0  0  0  0  0  0  0
   -8.3100   -2.9140  -22.7250 C   0  0  2  0  0  0  0  0  0  0  0  0
   -8.0140   -3.6560  -24.0310 C   0  0  0  0  0  0  0  0  0  0  0  0
   -7.4390   -4.9690  -23.7870 N   0  0  0  0  0  0  0  0  0  0  0  0
   -8.0970   -6.1180  -23.5090 C   0  0  0  0  0  0  0  0  0  0  0  0
   -7.1410   -7.0820  -23.2890 C   0  0  0  0  0  0  0  0  0  0  0  0
   -5.9170   -6.4060  -23.4590 C   0  0  0  0  0  0  0  0  0  0  0  0
   -6.1080   -5.1230  -23.7470 N   0  0  0  0  0  0  0  0  0  0  0  0
   -4.9100   -6.8050  -23.4000 H   0  0  0  0  0  0  0  0  0  0  0  0
   -7.2990   -8.1230  -23.0470 H   0  0  0  0  0  0  0  0  0  0  0  0
   -9.1790   -6.1680  -23.5040 H   0  0  0  0  0  0  0  0  0  0  0  0
   -7.2750   -3.1010  -24.6160 H   0  0  0  0  0  0  0  0  0  0  0  0
   -8.9210   -3.7770  -24.6330 H   0  0  0  0  0  0  0  0  0  0  0  0
   -8.8980   -3.5830  -22.0930 H   0  0  0  0  0  0  0  0  0  0  0  0
   -6.1690   -2.4120  -22.6520 H   0  0  0  0  0  0  0  0  0  0  0  0
   -6.7300   -3.3800  -21.2750 H   0  0  0  0  0  0  0  0  0  0  0  0
  -10.6000   -1.6830  -22.7500 C   0  0  0  0  0  0  0  0  0  0  0  0
  -11.1990   -2.6320  -21.9170 C   0  0  0  0  0  0  0  0  0  0  0  0
  -12.5740   -2.6750  -21.7890 C   0  0  0  0  0  0  0  0  0  0  0  0
  -13.2780   -3.8170  -20.6910 Cl  0  0  0  0  0  0  0  0  0  0  0  0
  -13.4120   -1.8070  -22.4860 C   0  0  0  0  0  0  0  0  0  0  0  0
  -12.8250   -0.8480  -23.2830 C   0  0  0  0  0  0  0  0  0  0  0  0
  -11.4390   -0.7630  -23.3900 C   0  0  0  0  0  0  0  0  0  0  0  0
  -10.8820    0.3950  -24.1540 C   0  0  0  0  0  0  0  0  0  0  0  0
  -11.5980    1.2810  -24.6080 O   0  0  0  0  0  0  0  0  0  0  0  0
  -13.4170   -0.1170  -23.8180 H   0  0  0  0  0  0  0  0  0  0  0  0
  -14.4890   -1.8710  -22.3750 H   0  0  0  0  0  0  0  0  0  0  0  0
  -10.6100   -3.3320  -21.3380 H   0  0  0  0  0  0  0  0  0  0  0  0
   -8.9450   -1.4720  -24.9950 H   0  0  0  0  0  0  0  0  0  0  0  0
   -7.6760   -0.5590  -24.1660 H   0  0  0  0  0  0  0  0  0  0  0  0
   -9.6930    2.2920  -25.1100 H   0  0  0  0  0  0  0  0  0  0  0  0
   -8.3620    1.3150  -25.7790 H   0  0  0  0  0  0  0  0  0  0  0  0
   -9.2990    2.7060  -22.4770 H   0  0  0  0  0  0  0  0  0  0  0  0
   -6.7770    2.5220  -21.4950 H   0  0  0  0  0  0  0  0  0  0  0  0
   -7.9050    3.8660  -21.0370 H   0  0  0  0  0  0  0  0  0  0  0  0
   -6.7320    4.1110  -22.3250 H   0  0  0  0  0  0  0  0  0  0  0  0
  1  2  1  0  0  0  0
  1 61  1  0  0  0  0
  1 62  1  0  0  0  0
  1 63  1  0  0  0  0
  2  3  1  0  0  0  0
  2 60  1  0  0  0  0
  3  4  2  0  0  0  0
  3  5  1  0  0  0  0
  5  6  1  0  0  0  0
  5 58  1  0  0  0  0
  5 59  1  0  0  0  0
  6  7  1  0  0  0  0
  6 51  1  0  0  0  0
  7  8  1  0  0  0  0
  7 56  1  0  0  0  0
  7 57  1  0  0  0  0
  8  9  1  1  0  0  0
  8 29  1  0  0  0  0
  8 44  1  0  0  0  0
  9 10  2  0  0  0  0
  9 11  1  0  0  0  0
 11 12  1  0  0  0  0
 11 28  1  0  0  0  0
 12 13  2  0  0  0  0
 12 21  1  0  0  0  0
 13 14  1  0  0  0  0
 13 27  1  0  0  0  0
 14 15  2  0  0  0  0
 15 16  1  0  0  0  0
 15 26  1  0  0  0  0
 16 17  2  0  0  0  0
 16 21  1  0  0  0  0
 17 18  1  0  0  0  0
 17 25  1  0  0  0  0
 18 19  2  0  0  0  0
 18 24  1  0  0  0  0
 19 20  1  0  0  0  0
 19 23  1  0  0  0  0
 20 21  2  0  0  0  0
 20 22  1  0  0  0  0
 28 29  1  0  0  0  0
 28 42  1  0  0  0  0
 28 43  1  0  0  0  0
 29 30  1  0  0  0  0
 29 41  1  1  0  0  0
 30 31  1  0  0  0  0
 30 39  1  0  0  0  0
 30 40  1  0  0  0  0
 31 32  1  0  0  0  0
 31 35  1  0  0  0  0
 32 33  2  0  0  0  0
 32 38  1  0  0  0  0
 33 34  1  0  0  0  0
 33 37  1  0  0  0  0
 34 35  2  0  0  0  0
 34 36  1  0  0  0  0
 44 45  2  0  0  0  0
 44 50  1  0  0  0  0
 45 46  1  0  0  0  0
 45 55  1  0  0  0  0
 46 47  1  0  0  0  0
 46 48  2  0  0  0  0
 48 49  1  0  0  0  0
 48 54  1  0  0  0  0
 49 50  2  0  0  0  0
 49 53  1  0  0  0  0
 50 51  1  0  0  0  0
 51 52  2  0  0  0  0
M  END
>  <MODEL>
       1

$$$$
