tmp_first_model_8_70.pdb
 OpenBabel08272521063D

 52 54  0  0  0  0  0  0  0  0999 V2000
  -10.1320   -5.1720  -27.1490 C   0  0  0  0  0  0  0  0  0  0  0  0
   -9.7930   -6.5180  -26.5160 C   0  0  0  0  0  0  0  0  0  0  0  0
  -10.9240   -7.5120  -26.8190 C   0  0  0  0  0  0  0  0  0  0  0  0
  -11.7870   -7.2950  -26.1810 H   0  0  0  0  0  0  0  0  0  0  0  0
  -10.6370   -8.5640  -26.6690 H   0  0  0  0  0  0  0  0  0  0  0  0
  -11.2660   -7.3850  -27.8540 H   0  0  0  0  0  0  0  0  0  0  0  0
   -9.5450   -6.3960  -25.0000 C   0  0  0  0  0  0  0  0  0  0  0  0
   -8.4420   -5.4100  -24.5370 C   0  0  0  0  0  0  0  0  0  0  0  0
   -7.2710   -5.4740  -25.5370 C   0  0  0  0  0  0  0  0  0  0  0  0
   -6.9200   -6.5030  -25.6820 H   0  0  0  0  0  0  0  0  0  0  0  0
   -6.4080   -4.8670  -25.2530 H   0  0  0  0  0  0  0  0  0  0  0  0
   -7.5830   -5.1130  -26.5170 H   0  0  0  0  0  0  0  0  0  0  0  0
   -8.9710   -3.9480  -24.3930 C   0  0  0  0  0  0  0  0  0  0  0  0
   -8.7830   -3.3690  -22.9830 C   0  0  0  0  0  0  0  0  0  0  0  0
   -7.4180   -3.5910  -22.5080 N   0  0  0  0  0  0  0  0  0  0  0  0
   -6.7070   -2.7370  -21.7180 C   0  0  0  0  0  0  0  0  0  0  0  0
   -5.5670   -2.9990  -21.3640 O   0  0  0  0  0  0  0  0  0  0  0  0
   -7.4170   -1.4620  -21.2560 C   0  0  0  0  0  0  0  0  0  0  0  0
   -6.6340   -0.8090  -20.1690 C   0  0  0  0  0  0  0  0  0  0  0  0
   -6.9300   -1.0770  -18.8610 C   0  0  0  0  0  0  0  0  0  0  0  0
   -6.2420   -0.6010  -17.7920 N   0  0  0  0  0  0  0  0  0  0  0  0
   -5.2110    0.1680  -18.0520 C   0  0  0  0  0  0  0  0  0  0  0  0
   -4.7790    0.5140  -19.3620 C   0  0  0  0  0  0  0  0  0  0  0  0
   -3.6660    1.3620  -19.5940 C   0  0  0  0  0  0  0  0  0  0  0  0
   -3.3090    1.7030  -20.8720 C   0  0  0  0  0  0  0  0  0  0  0  0
   -4.0350    1.1950  -21.9730 C   0  0  0  0  0  0  0  0  0  0  0  0
   -5.0920    0.3420  -21.7790 C   0  0  0  0  0  0  0  0  0  0  0  0
   -5.5070    0.0040  -20.4610 C   0  0  0  0  0  0  0  0  0  0  0  0
   -5.6050   -0.0870  -22.6350 H   0  0  0  0  0  0  0  0  0  0  0  0
   -3.7400    1.4730  -22.9840 H   0  0  0  0  0  0  0  0  0  0  0  0
   -2.4710    2.3700  -21.0500 H   0  0  0  0  0  0  0  0  0  0  0  0
   -3.1200    1.7470  -18.7370 H   0  0  0  0  0  0  0  0  0  0  0  0
   -4.6620    0.5610  -17.1950 H   0  0  0  0  0  0  0  0  0  0  0  0
   -7.7710   -1.7290  -18.6200 H   0  0  0  0  0  0  0  0  0  0  0  0
   -7.5720   -0.7850  -22.1050 H   0  0  0  0  0  0  0  0  0  0  0  0
   -8.4120   -1.7310  -20.8800 H   0  0  0  0  0  0  0  0  0  0  0  0
   -6.8940   -4.9470  -22.6100 C   0  0  0  0  0  0  0  0  0  0  0  0
   -7.9870   -5.8450  -23.1320 C   0  0  0  0  0  0  0  0  0  0  0  0
   -8.8330   -5.7550  -22.4440 H   0  0  0  0  0  0  0  0  0  0  0  0
   -7.6550   -6.8850  -23.1210 H   0  0  0  0  0  0  0  0  0  0  0  0
   -6.0150   -4.9930  -23.2590 H   0  0  0  0  0  0  0  0  0  0  0  0
   -6.5320   -5.2630  -21.6300 H   0  0  0  0  0  0  0  0  0  0  0  0
   -8.9790   -2.2980  -22.9980 H   0  0  0  0  0  0  0  0  0  0  0  0
   -9.5270   -3.8090  -22.2970 H   0  0  0  0  0  0  0  0  0  0  0  0
  -10.0420   -3.9020  -24.6180 H   0  0  0  0  0  0  0  0  0  0  0  0
   -8.4650   -3.2850  -25.1080 H   0  0  0  0  0  0  0  0  0  0  0  0
  -10.4770   -6.0890  -24.4970 H   0  0  0  0  0  0  0  0  0  0  0  0
   -9.2950   -7.3980  -24.6200 H   0  0  0  0  0  0  0  0  0  0  0  0
   -8.8790   -6.9090  -26.9800 H   0  0  0  0  0  0  0  0  0  0  0  0
   -9.3520   -4.4160  -27.0200 H   0  0  0  0  0  0  0  0  0  0  0  0
  -11.0390   -4.7890  -26.6870 H   0  0  0  0  0  0  0  0  0  0  0  0
  -10.3320   -5.2870  -28.2170 H   0  0  0  0  0  0  0  0  0  0  0  0
  1  2  1  0  0  0  0
  1 50  1  0  0  0  0
  1 51  1  0  0  0  0
  1 52  1  0  0  0  0
  2  3  1  0  0  0  0
  2  7  1  0  0  0  0
  2 49  1  0  0  0  0
  3  4  1  0  0  0  0
  3  5  1  0  0  0  0
  3  6  1  0  0  0  0
  7  8  1  0  0  0  0
  7 47  1  0  0  0  0
  7 48  1  0  0  0  0
  8  9  1  0  0  0  0
  8 13  1  0  0  0  0
  8 38  1  0  0  0  0
  9 10  1  0  0  0  0
  9 11  1  0  0  0  0
  9 12  1  0  0  0  0
 13 14  1  0  0  0  0
 13 45  1  0  0  0  0
 13 46  1  0  0  0  0
 14 15  1  0  0  0  0
 14 43  1  0  0  0  0
 14 44  1  0  0  0  0
 15 16  1  0  0  0  0
 15 37  1  0  0  0  0
 16 17  2  0  0  0  0
 16 18  1  0  0  0  0
 18 19  1  0  0  0  0
 18 35  1  0  0  0  0
 18 36  1  0  0  0  0
 19 20  2  0  0  0  0
 19 28  1  0  0  0  0
 20 21  1  0  0  0  0
 20 34  1  0  0  0  0
 21 22  2  0  0  0  0
 22 23  1  0  0  0  0
 22 33  1  0  0  0  0
 23 24  2  0  0  0  0
 23 28  1  0  0  0  0
 24 25  1  0  0  0  0
 24 32  1  0  0  0  0
 25 26  2  0  0  0  0
 25 31  1  0  0  0  0
 26 27  1  0  0  0  0
 26 30  1  0  0  0  0
 27 28  2  0  0  0  0
 27 29  1  0  0  0  0
 37 38  1  0  0  0  0
 37 41  1  0  0  0  0
 37 42  1  0  0  0  0
 38 39  1  0  0  0  0
 38 40  1  0  0  0  0
M  END
>  <MODEL>
       1

$$$$
