tmp_first_model_19_17.pdb
 OpenBabel08282503233D

 38 41  0  0  1  0  0  0  0  0999 V2000
   -9.3470   -4.9430  -25.6880 C   0  0  0  0  0  0  0  0  0  0  0  0
   -9.3370   -4.1930  -24.3540 C   0  0  2  0  0  0  0  0  0  0  0  0
  -10.3140   -3.0210  -24.3740 C   0  0  0  0  0  0  0  0  0  0  0  0
  -10.4120   -2.3450  -23.0080 C   0  0  0  0  0  0  0  0  0  0  0  0
   -9.0780   -2.1150  -22.4580 C   0  0  0  0  0  0  0  0  0  0  0  0
   -8.7150   -1.1870  -21.4390 C   0  0  0  0  0  0  0  0  0  0  0  0
   -9.3790   -0.3190  -20.9190 O   0  5  0  0  0  0  0  0  0  0  0  0
   -7.3420   -1.4720  -21.1980 N   0  0  0  0  0  0  0  0  0  0  0  0
   -6.5710   -0.8430  -20.1850 C   0  0  0  0  0  0  0  0  0  0  0  0
   -6.8890   -1.0540  -18.8680 C   0  0  0  0  0  0  0  0  0  0  0  0
   -6.1900   -0.5540  -17.8210 N   0  0  0  0  0  0  0  0  0  0  0  0
   -5.1590    0.2120  -18.0790 C   0  0  0  0  0  0  0  0  0  0  0  0
   -4.7260    0.5300  -19.3940 C   0  0  0  0  0  0  0  0  0  0  0  0
   -3.5960    1.3590  -19.6310 C   0  0  0  0  0  0  0  0  0  0  0  0
   -3.2190    1.6660  -20.9090 C   0  0  0  0  0  0  0  0  0  0  0  0
   -3.9530    1.1570  -22.0040 C   0  0  0  0  0  0  0  0  0  0  0  0
   -5.0480    0.3540  -21.8000 C   0  0  0  0  0  0  0  0  0  0  0  0
   -5.4560    0.0030  -20.4860 C   0  0  0  0  0  0  0  0  0  0  0  0
   -5.6090   -0.0300  -22.6440 H   0  0  0  0  0  0  0  0  0  0  0  0
   -3.6550    1.4100  -23.0170 H   0  0  0  0  0  0  0  0  0  0  0  0
   -2.3660    2.3160  -21.0940 H   0  0  0  0  0  0  0  0  0  0  0  0
   -3.0600    1.7670  -18.7770 H   0  0  0  0  0  0  0  0  0  0  0  0
   -4.6130    0.6190  -17.2230 H   0  0  0  0  0  0  0  0  0  0  0  0
   -7.7410   -1.6720  -18.5980 H   0  0  0  0  0  0  0  0  0  0  0  0
   -6.8610   -2.4220  -22.1190 C   0  0  0  0  0  0  0  0  0  0  0  0
   -5.7270   -2.8200  -22.2450 O   0  0  0  0  0  0  0  0  0  0  0  0
   -7.9730   -2.7860  -22.8630 N   0  0  0  0  0  0  0  0  0  0  0  0
   -7.9390   -3.6830  -24.0060 C   0  0  0  0  0  0  0  0  0  0  0  0
   -7.2720   -4.5000  -23.7540 H   0  0  0  0  0  0  0  0  0  0  0  0
   -7.5090   -3.1770  -24.8740 H   0  0  0  0  0  0  0  0  0  0  0  0
  -10.9630   -1.4010  -23.0740 H   0  0  0  0  0  0  0  0  0  0  0  0
  -11.0030   -2.9660  -22.3160 H   0  0  0  0  0  0  0  0  0  0  0  0
  -10.0030   -2.3010  -25.1400 H   0  0  0  0  0  0  0  0  0  0  0  0
  -11.3030   -3.3550  -24.6680 H   0  0  0  0  0  0  0  0  0  0  0  0
   -9.6530   -4.8970  -23.5730 H   0  0  0  0  0  0  0  0  0  0  0  0
  -10.3410   -5.3470  -25.9190 H   0  0  0  0  0  0  0  0  0  0  0  0
   -8.6480   -5.7870  -25.6930 H   0  0  0  0  0  0  0  0  0  0  0  0
   -9.0740   -4.2820  -26.5200 H   0  0  0  0  0  0  0  0  0  0  0  0
  1  2  1  0  0  0  0
  1 36  1  0  0  0  0
  1 37  1  0  0  0  0
  1 38  1  0  0  0  0
  2  3  1  0  0  0  0
  2 28  1  0  0  0  0
  2 35  1  1  0  0  0
  3  4  1  0  0  0  0
  3 33  1  0  0  0  0
  3 34  1  0  0  0  0
  4  5  1  0  0  0  0
  4 31  1  0  0  0  0
  4 32  1  0  0  0  0
  5  6  2  0  0  0  0
  5 27  1  0  0  0  0
  6  7  1  0  0  0  0
  6  8  1  0  0  0  0
  8  9  1  0  0  0  0
  8 25  1  0  0  0  0
  9 10  2  0  0  0  0
  9 18  1  0  0  0  0
 10 11  1  0  0  0  0
 10 24  1  0  0  0  0
 11 12  2  0  0  0  0
 12 13  1  0  0  0  0
 12 23  1  0  0  0  0
 13 14  2  0  0  0  0
 13 18  1  0  0  0  0
 14 15  1  0  0  0  0
 14 22  1  0  0  0  0
 15 16  2  0  0  0  0
 15 21  1  0  0  0  0
 16 17  1  0  0  0  0
 16 20  1  0  0  0  0
 17 18  2  0  0  0  0
 17 19  1  0  0  0  0
 25 26  2  0  0  0  0
 25 27  1  0  0  0  0
 27 28  1  0  0  0  0
 28 29  1  0  0  0  0
 28 30  1  0  0  0  0
M  CHG  1   7  -1
M  END
>  <MODEL>
       1

$$$$
