tmp_first_model_17_6.pdb
 OpenBabel08282502223D

 43 45  0  0  0  0  0  0  0  0999 V2000
  -14.3330   -1.2380  -24.9910 C   0  0  0  0  0  0  0  0  0  0  0  0
  -12.9130   -1.7650  -25.1880 C   0  0  0  0  0  0  0  0  0  0  0  0
  -11.9730   -1.5760  -23.9870 C   0  0  0  0  0  0  0  0  0  0  0  0
  -11.6380   -0.1080  -23.7360 C   0  0  0  0  0  0  0  0  0  0  0  0
  -10.6870    0.0230  -22.5590 C   0  0  0  0  0  0  0  0  0  0  0  0
   -9.4830   -0.8180  -22.6540 N   0  0  0  0  0  0  0  0  0  0  0  0
   -8.4690   -0.3990  -21.8010 C   0  0  0  0  0  0  0  0  0  0  0  0
   -8.4030    0.7620  -21.4400 O   0  0  0  0  0  0  0  0  0  0  0  0
   -7.4540   -1.4320  -21.2760 C   0  0  0  0  0  0  0  0  0  0  0  0
   -6.5930   -0.8480  -20.1870 C   0  0  0  0  0  0  0  0  0  0  0  0
   -6.9080   -1.0560  -18.8670 C   0  0  0  0  0  0  0  0  0  0  0  0
   -6.2340   -0.5480  -17.7990 N   0  0  0  0  0  0  0  0  0  0  0  0
   -5.1990    0.2060  -18.0670 C   0  0  0  0  0  0  0  0  0  0  0  0
   -4.7600    0.5260  -19.3800 C   0  0  0  0  0  0  0  0  0  0  0  0
   -3.6340    1.3520  -19.6140 C   0  0  0  0  0  0  0  0  0  0  0  0
   -3.2470    1.6550  -20.8890 C   0  0  0  0  0  0  0  0  0  0  0  0
   -3.9680    1.1380  -21.9880 C   0  0  0  0  0  0  0  0  0  0  0  0
   -5.0600    0.3310  -21.7900 C   0  0  0  0  0  0  0  0  0  0  0  0
   -5.4840   -0.0020  -20.4770 C   0  0  0  0  0  0  0  0  0  0  0  0
   -5.6180   -0.0390  -22.6440 H   0  0  0  0  0  0  0  0  0  0  0  0
   -3.6460    1.3790  -22.9960 H   0  0  0  0  0  0  0  0  0  0  0  0
   -2.3830    2.2890  -21.0730 H   0  0  0  0  0  0  0  0  0  0  0  0
   -3.0900    1.7480  -18.7600 H   0  0  0  0  0  0  0  0  0  0  0  0
   -4.6420    0.6190  -17.2230 H   0  0  0  0  0  0  0  0  0  0  0  0
   -7.7600   -1.6810  -18.6060 H   0  0  0  0  0  0  0  0  0  0  0  0
   -8.0180   -2.2920  -20.8820 H   0  0  0  0  0  0  0  0  0  0  0  0
   -6.8450   -1.8010  -22.1140 H   0  0  0  0  0  0  0  0  0  0  0  0
   -9.7860   -2.2360  -22.8880 C   0  0  0  0  0  0  0  0  0  0  0  0
  -10.6590   -2.3560  -24.1350 C   0  0  0  0  0  0  0  0  0  0  0  0
  -10.8440   -3.4100  -24.3670 H   0  0  0  0  0  0  0  0  0  0  0  0
  -10.0880   -1.9740  -24.9880 H   0  0  0  0  0  0  0  0  0  0  0  0
  -10.3150   -2.6790  -22.0210 H   0  0  0  0  0  0  0  0  0  0  0  0
   -8.8640   -2.8150  -23.0200 H   0  0  0  0  0  0  0  0  0  0  0  0
  -11.2350   -0.2650  -21.6560 H   0  0  0  0  0  0  0  0  0  0  0  0
  -10.3680    1.0500  -22.4140 H   0  0  0  0  0  0  0  0  0  0  0  0
  -11.2250    0.3290  -24.6560 H   0  0  0  0  0  0  0  0  0  0  0  0
  -12.5490    0.4660  -23.5220 H   0  0  0  0  0  0  0  0  0  0  0  0
  -12.4800   -1.9400  -23.0750 H   0  0  0  0  0  0  0  0  0  0  0  0
  -12.9830   -2.8320  -25.4420 H   0  0  0  0  0  0  0  0  0  0  0  0
  -12.4770   -1.2730  -26.0680 H   0  0  0  0  0  0  0  0  0  0  0  0
  -14.8310   -1.7520  -24.1630 H   0  0  0  0  0  0  0  0  0  0  0  0
  -14.9290   -1.4070  -25.8940 H   0  0  0  0  0  0  0  0  0  0  0  0
  -14.3540   -0.1650  -24.7750 H   0  0  0  0  0  0  0  0  0  0  0  0
  1  2  1  0  0  0  0
  1 41  1  0  0  0  0
  1 42  1  0  0  0  0
  1 43  1  0  0  0  0
  2  3  1  0  0  0  0
  2 39  1  0  0  0  0
  2 40  1  0  0  0  0
  3  4  1  0  0  0  0
  3 29  1  0  0  0  0
  3 38  1  0  0  0  0
  4  5  1  0  0  0  0
  4 36  1  0  0  0  0
  4 37  1  0  0  0  0
  5  6  1  0  0  0  0
  5 34  1  0  0  0  0
  5 35  1  0  0  0  0
  6  7  1  0  0  0  0
  6 28  1  0  0  0  0
  7  8  2  0  0  0  0
  7  9  1  0  0  0  0
  9 10  1  0  0  0  0
  9 26  1  0  0  0  0
  9 27  1  0  0  0  0
 10 11  2  0  0  0  0
 10 19  1  0  0  0  0
 11 12  1  0  0  0  0
 11 25  1  0  0  0  0
 12 13  2  0  0  0  0
 13 14  1  0  0  0  0
 13 24  1  0  0  0  0
 14 15  2  0  0  0  0
 14 19  1  0  0  0  0
 15 16  1  0  0  0  0
 15 23  1  0  0  0  0
 16 17  2  0  0  0  0
 16 22  1  0  0  0  0
 17 18  1  0  0  0  0
 17 21  1  0  0  0  0
 18 19  2  0  0  0  0
 18 20  1  0  0  0  0
 28 29  1  0  0  0  0
 28 32  1  0  0  0  0
 28 33  1  0  0  0  0
 29 30  1  0  0  0  0
 29 31  1  0  0  0  0
M  END
>  <MODEL>
       1

$$$$
