tmp_first_model_12_83.pdb
 OpenBabel08272523333D

 46 50  0  0  1  0  0  0  0  0999 V2000
   -5.6160   -4.0270  -25.8470 N   0  0  0  0  0  0  0  0  0  0  0  0
   -5.7940   -2.6830  -26.8200 S   0  0  0  0  0  0  0  0  0  0  0  0
   -6.0470   -3.0860  -28.1980 O   0  0  0  0  0  0  0  0  0  0  0  0
   -4.6770   -1.8060  -26.5110 O   0  0  0  0  0  0  0  0  0  0  0  0
   -7.3010   -2.0250  -26.1880 C   0  0  0  0  0  0  0  0  0  0  0  0
   -8.1730   -1.4400  -27.1040 C   0  0  0  0  0  0  0  0  0  0  0  0
   -9.3540   -0.8810  -26.6560 C   0  0  0  0  0  0  0  0  0  0  0  0
   -9.6640   -0.9180  -25.2930 C   0  0  0  0  0  0  0  0  0  0  0  0
   -8.7880   -1.5060  -24.3650 C   0  0  0  0  0  0  0  0  0  0  0  0
   -7.6130   -2.0920  -24.8390 C   0  0  0  0  0  0  0  0  0  0  0  0
   -6.9550   -2.6280  -24.1600 H   0  0  0  0  0  0  0  0  0  0  0  0
   -9.1120   -1.5350  -22.8740 C   0  0  1  0  0  0  0  0  0  0  0  0
  -10.6190   -1.2790  -22.7020 C   0  0  0  0  0  0  0  0  0  0  0  0
  -11.0450   -0.1000  -23.5740 C   0  0  0  0  0  0  0  0  0  0  0  0
  -10.8830   -0.4120  -24.9560 O   0  0  0  0  0  0  0  0  0  0  0  0
  -10.4540    0.7930  -23.3330 H   0  0  0  0  0  0  0  0  0  0  0  0
  -12.1090    0.1190  -23.4430 H   0  0  0  0  0  0  0  0  0  0  0  0
  -10.8410   -1.0850  -21.6500 H   0  0  0  0  0  0  0  0  0  0  0  0
  -11.1730   -2.1690  -23.0220 H   0  0  0  0  0  0  0  0  0  0  0  0
   -8.6620   -2.7650  -22.2250 N   0  0  0  0  0  0  0  0  0  0  0  0
   -7.4870   -2.5970  -21.5330 C   0  0  0  0  0  0  0  0  0  0  0  0
   -6.6730   -3.4320  -21.2200 O   0  0  0  0  0  0  0  0  0  0  0  0
   -7.3860   -1.2170  -21.2890 N   0  0  0  0  0  0  0  0  0  0  0  0
   -6.6240   -0.6610  -20.2240 C   0  0  0  0  0  0  0  0  0  0  0  0
   -6.9210   -0.9870  -18.9240 C   0  0  0  0  0  0  0  0  0  0  0  0
   -6.2370   -0.5300  -17.8460 N   0  0  0  0  0  0  0  0  0  0  0  0
   -5.2020    0.2430  -18.0710 C   0  0  0  0  0  0  0  0  0  0  0  0
   -4.7810    0.6610  -19.3650 C   0  0  0  0  0  0  0  0  0  0  0  0
   -3.6310    1.4750  -19.5600 C   0  0  0  0  0  0  0  0  0  0  0  0
   -3.2740    1.8590  -20.8240 C   0  0  0  0  0  0  0  0  0  0  0  0
   -4.0590    1.4800  -21.9390 C   0  0  0  0  0  0  0  0  0  0  0  0
   -5.1780    0.7010  -21.7710 C   0  0  0  0  0  0  0  0  0  0  0  0
   -5.5420    0.2390  -20.4770 C   0  0  0  0  0  0  0  0  0  0  0  0
   -5.7910    0.4090  -22.6200 H   0  0  0  0  0  0  0  0  0  0  0  0
   -3.7580    1.7750  -22.9400 H   0  0  0  0  0  0  0  0  0  0  0  0
   -2.3730    2.4450  -20.9840 H   0  0  0  0  0  0  0  0  0  0  0  0
   -3.0440    1.7650  -18.6910 H   0  0  0  0  0  0  0  0  0  0  0  0
   -4.6330    0.5660  -17.2020 H   0  0  0  0  0  0  0  0  0  0  0  0
   -7.7520   -1.6490  -18.7000 H   0  0  0  0  0  0  0  0  0  0  0  0
   -8.3050   -0.5060  -22.0660 C   0  0  0  0  0  0  0  0  0  0  0  0
   -8.4330    0.6940  -22.0720 O   0  0  0  0  0  0  0  0  0  0  0  0
   -8.7390   -3.6350  -22.7280 H   0  0  0  0  0  0  0  0  0  0  0  0
  -10.0640   -0.4270  -27.3430 H   0  0  0  0  0  0  0  0  0  0  0  0
   -7.9190   -1.4710  -28.1590 H   0  0  0  0  0  0  0  0  0  0  0  0
   -4.6300   -4.2550  -25.7790 H   0  0  0  0  0  0  0  0  0  0  0  0
   -6.1610   -4.8010  -26.2150 H   0  0  0  0  0  0  0  0  0  0  0  0
  1  2  1  0  0  0  0
  1 45  1  0  0  0  0
  1 46  1  0  0  0  0
  2  3  2  0  0  0  0
  2  4  2  0  0  0  0
  2  5  1  0  0  0  0
  5  6  2  0  0  0  0
  5 10  1  0  0  0  0
  6  7  1  0  0  0  0
  6 44  1  0  0  0  0
  7  8  2  0  0  0  0
  7 43  1  0  0  0  0
  8  9  1  0  0  0  0
  8 15  1  0  0  0  0
  9 10  2  0  0  0  0
 10 11  1  0  0  0  0
 12  9  1  6  0  0  0
 12 13  1  0  0  0  0
 12 20  1  0  0  0  0
 12 40  1  0  0  0  0
 13 14  1  0  0  0  0
 13 18  1  0  0  0  0
 13 19  1  0  0  0  0
 14 15  1  0  0  0  0
 14 16  1  0  0  0  0
 14 17  1  0  0  0  0
 20 21  1  0  0  0  0
 20 42  1  0  0  0  0
 21 22  2  0  0  0  0
 21 23  1  0  0  0  0
 23 24  1  0  0  0  0
 23 40  1  0  0  0  0
 24 25  2  0  0  0  0
 24 33  1  0  0  0  0
 25 26  1  0  0  0  0
 25 39  1  0  0  0  0
 26 27  2  0  0  0  0
 27 28  1  0  0  0  0
 27 38  1  0  0  0  0
 28 29  2  0  0  0  0
 28 33  1  0  0  0  0
 29 30  1  0  0  0  0
 29 37  1  0  0  0  0
 30 31  2  0  0  0  0
 30 36  1  0  0  0  0
 31 32  1  0  0  0  0
 31 35  1  0  0  0  0
 32 33  2  0  0  0  0
 32 34  1  0  0  0  0
 40 41  2  0  0  0  0
M  END
>  <MODEL>
       1

$$$$
