tmp_first_model_3_25.pdb
 OpenBabel08272518143D

 70 75  0  0  1  0  0  0  0  0999 V2000
   -5.7460   -7.6270  -25.6310 O   0  0  0  0  0  0  0  0  0  0  0  0
   -5.6480   -7.1160  -24.5300 C   0  0  0  0  0  0  0  0  0  0  0  0
   -6.8200   -6.3850  -23.8550 C   0  0  0  0  0  0  0  0  0  0  0  0
   -6.7900   -4.8860  -23.9490 N   0  3  1  0  0  0  0  0  0  0  0  0
   -6.7530   -4.5110  -25.4190 C   0  0  0  0  0  0  0  0  0  0  0  0
   -6.7730   -3.0210  -25.6310 C   0  0  0  0  0  0  0  0  0  0  0  0
   -6.2830   -2.4760  -26.8160 C   0  0  0  0  0  0  0  0  0  0  0  0
   -6.3060   -1.1060  -27.0310 C   0  0  0  0  0  0  0  0  0  0  0  0
   -6.8210   -0.2750  -26.0440 C   0  0  0  0  0  0  0  0  0  0  0  0
   -6.8410    1.4450  -26.2950 Cl  0  0  0  0  0  0  0  0  0  0  0  0
   -7.3100   -0.8020  -24.8610 C   0  0  0  0  0  0  0  0  0  0  0  0
   -7.3010   -2.1820  -24.6550 C   0  0  0  0  0  0  0  0  0  0  0  0
   -7.8140   -2.7130  -23.3340 C   0  0  2  0  0  0  0  0  0  0  0  0
   -6.8190   -2.3800  -22.2300 C   0  0  0  0  0  0  0  0  0  0  0  0
   -5.7200   -2.9120  -22.2130 O   0  0  0  0  0  0  0  0  0  0  0  0
   -7.2740   -1.4770  -21.2930 N   0  0  0  0  0  0  0  0  0  0  0  0
   -6.5360   -0.8820  -20.2400 C   0  0  0  0  0  0  0  0  0  0  0  0
   -6.9090   -1.0680  -18.9280 C   0  0  0  0  0  0  0  0  0  0  0  0
   -6.2410   -0.5630  -17.8600 N   0  0  0  0  0  0  0  0  0  0  0  0
   -5.1930    0.1900  -18.0970 C   0  0  0  0  0  0  0  0  0  0  0  0
   -4.7430    0.5100  -19.4080 C   0  0  0  0  0  0  0  0  0  0  0  0
   -3.6260    1.3590  -19.6260 C   0  0  0  0  0  0  0  0  0  0  0  0
   -3.2450    1.6940  -20.8980 C   0  0  0  0  0  0  0  0  0  0  0  0
   -3.9660    1.2010  -22.0120 C   0  0  0  0  0  0  0  0  0  0  0  0
   -5.0430    0.3700  -21.8310 C   0  0  0  0  0  0  0  0  0  0  0  0
   -5.4400   -0.0120  -20.5170 C   0  0  0  0  0  0  0  0  0  0  0  0
   -5.6090    0.0110  -22.6870 H   0  0  0  0  0  0  0  0  0  0  0  0
   -3.6690    1.4880  -23.0160 H   0  0  0  0  0  0  0  0  0  0  0  0
   -2.3910    2.3440  -21.0640 H   0  0  0  0  0  0  0  0  0  0  0  0
   -3.0980    1.7490  -18.7610 H   0  0  0  0  0  0  0  0  0  0  0  0
   -4.6440    0.5920  -17.2410 H   0  0  0  0  0  0  0  0  0  0  0  0
   -7.7720   -1.6870  -18.6750 H   0  0  0  0  0  0  0  0  0  0  0  0
   -8.2770   -1.4110  -21.2110 H   0  0  0  0  0  0  0  0  0  0  0  0
   -8.0060   -4.2290  -23.3190 C   0  0  0  0  0  0  0  0  0  0  0  0
   -8.9010   -4.5130  -23.8800 H   0  0  0  0  0  0  0  0  0  0  0  0
   -8.1160   -4.5760  -22.2880 H   0  0  0  0  0  0  0  0  0  0  0  0
   -8.7470   -2.2080  -23.0810 H   0  0  0  0  0  0  0  0  0  0  0  0
   -7.6880   -0.1360  -24.0910 H   0  0  0  0  0  0  0  0  0  0  0  0
   -5.9290   -0.6850  -27.9540 H   0  0  0  0  0  0  0  0  0  0  0  0
   -5.8820   -3.1360  -27.5840 H   0  0  0  0  0  0  0  0  0  0  0  0
   -7.6350   -4.9820  -25.8740 H   0  0  0  0  0  0  0  0  0  0  0  0
   -5.8790   -4.9710  -25.8820 H   0  0  0  0  0  0  0  0  0  0  0  0
   -5.9730   -4.4680  -23.4470 H   0  0  0  0  0  0  0  0  0  0  0  0
   -7.7000   -6.7650  -24.3830 H   0  0  0  0  0  0  0  0  0  0  0  0
   -6.8710   -6.7050  -22.8120 H   0  0  0  0  0  0  0  0  0  0  0  0
   -4.4970   -7.1700  -23.7910 N   0  0  0  0  0  0  0  0  0  0  0  0
   -3.3060   -7.8170  -24.1990 C   0  0  0  0  0  0  0  0  0  0  0  0
   -2.0860   -7.2070  -23.9200 C   0  0  0  0  0  0  0  0  0  0  0  0
   -0.9020   -7.7720  -24.3690 C   0  0  0  0  0  0  0  0  0  0  0  0
   -0.9270   -8.9930  -25.0400 C   0  0  0  0  0  0  0  0  0  0  0  0
    0.2950   -9.5760  -25.4800 N   0  0  0  0  0  0  0  0  0  0  0  0
    1.3090   -9.8750  -24.4740 C   0  0  0  0  0  0  0  0  0  0  0  0
    2.6320  -10.2270  -25.1320 C   0  0  0  0  0  0  0  0  0  0  0  0
    2.4140  -11.1800  -26.1440 O   0  0  0  0  0  0  0  0  0  0  0  0
    1.6880  -10.6260  -27.2060 C   0  0  0  0  0  0  0  0  0  0  0  0
    0.3920   -9.9490  -26.7950 C   0  0  0  0  0  0  0  0  0  0  0  0
   -0.4700   -9.7190  -27.6240 O   0  0  0  0  0  0  0  0  0  0  0  0
    2.2800   -9.8740  -27.7470 H   0  0  0  0  0  0  0  0  0  0  0  0
    1.4400  -11.4250  -27.9040 H   0  0  0  0  0  0  0  0  0  0  0  0
    3.1330   -9.3390  -25.5430 H   0  0  0  0  0  0  0  0  0  0  0  0
    3.3170  -10.6820  -24.4130 H   0  0  0  0  0  0  0  0  0  0  0  0
    1.4430   -9.0180  -23.8080 H   0  0  0  0  0  0  0  0  0  0  0  0
    0.9730  -10.7190  -23.8630 H   0  0  0  0  0  0  0  0  0  0  0  0
   -2.1420   -9.6490  -25.2400 C   0  0  0  0  0  0  0  0  0  0  0  0
   -3.3270   -9.0550  -24.8350 C   0  0  0  0  0  0  0  0  0  0  0  0
   -4.2740   -9.5420  -25.0140 H   0  0  0  0  0  0  0  0  0  0  0  0
   -2.1590  -10.6210  -25.7280 H   0  0  0  0  0  0  0  0  0  0  0  0
    0.0420   -7.2490  -24.2320 H   0  0  0  0  0  0  0  0  0  0  0  0
   -2.0660   -6.3090  -23.3220 H   0  0  0  0  0  0  0  0  0  0  0  0
   -4.4270   -6.5770  -22.9810 H   0  0  0  0  0  0  0  0  0  0  0  0
  1  2  2  0  0  0  0
  2  3  1  0  0  0  0
  2 46  1  0  0  0  0
  3  4  1  0  0  0  0
  3 44  1  0  0  0  0
  3 45  1  0  0  0  0
  4  5  1  0  0  0  0
  4 34  1  0  0  0  0
  4 43  1  1  0  0  0
  5  6  1  0  0  0  0
  5 41  1  0  0  0  0
  5 42  1  0  0  0  0
  6  7  2  0  0  0  0
  6 12  1  0  0  0  0
  7  8  1  0  0  0  0
  7 40  1  0  0  0  0
  8  9  2  0  0  0  0
  8 39  1  0  0  0  0
  9 10  1  0  0  0  0
  9 11  1  0  0  0  0
 11 12  2  0  0  0  0
 11 38  1  0  0  0  0
 12 13  1  0  0  0  0
 13 14  1  0  0  0  0
 13 34  1  0  0  0  0
 13 37  1  1  0  0  0
 14 15  2  0  0  0  0
 14 16  1  0  0  0  0
 16 17  1  0  0  0  0
 16 33  1  0  0  0  0
 17 18  2  0  0  0  0
 17 26  1  0  0  0  0
 18 19  1  0  0  0  0
 18 32  1  0  0  0  0
 19 20  2  0  0  0  0
 20 21  1  0  0  0  0
 20 31  1  0  0  0  0
 21 22  2  0  0  0  0
 21 26  1  0  0  0  0
 22 23  1  0  0  0  0
 22 30  1  0  0  0  0
 23 24  2  0  0  0  0
 23 29  1  0  0  0  0
 24 25  1  0  0  0  0
 24 28  1  0  0  0  0
 25 26  2  0  0  0  0
 25 27  1  0  0  0  0
 34 35  1  0  0  0  0
 34 36  1  0  0  0  0
 46 47  1  0  0  0  0
 46 70  1  0  0  0  0
 47 48  2  0  0  0  0
 47 65  1  0  0  0  0
 48 49  1  0  0  0  0
 48 69  1  0  0  0  0
 49 50  2  0  0  0  0
 49 68  1  0  0  0  0
 50 51  1  0  0  0  0
 50 64  1  0  0  0  0
 51 52  1  0  0  0  0
 51 56  1  0  0  0  0
 52 53  1  0  0  0  0
 52 62  1  0  0  0  0
 52 63  1  0  0  0  0
 53 54  1  0  0  0  0
 53 60  1  0  0  0  0
 53 61  1  0  0  0  0
 54 55  1  0  0  0  0
 55 56  1  0  0  0  0
 55 58  1  0  0  0  0
 55 59  1  0  0  0  0
 56 57  2  0  0  0  0
 64 65  2  0  0  0  0
 64 67  1  0  0  0  0
 65 66  1  0  0  0  0
M  CHG  1   4   1
M  END
>  <MODEL>
       1

$$$$
