tmp_first_model_4_35.pdb
 OpenBabel08272518513D

 40 42  0  0  0  0  0  0  0  0999 V2000
   -9.2250   -1.8680  -22.4310 O   0  0  0  0  0  0  0  0  0  0  0  0
   -8.2560   -1.1170  -22.3200 C   0  0  0  0  0  0  0  0  0  0  0  0
   -6.8740   -1.7210  -22.1220 C   0  0  0  0  0  0  0  0  0  0  0  0
   -6.1260   -1.2440  -20.8900 C   0  0  0  0  0  0  0  0  0  0  0  0
   -6.6200   -1.5430  -19.6420 C   0  0  0  0  0  0  0  0  0  0  0  0
   -6.0150   -1.2470  -18.4690 N   0  0  0  0  0  0  0  0  0  0  0  0
   -4.8850   -0.5880  -18.5280 C   0  0  0  0  0  0  0  0  0  0  0  0
   -4.2770   -0.1620  -19.7400 C   0  0  0  0  0  0  0  0  0  0  0  0
   -3.0990    0.6290  -19.7480 C   0  0  0  0  0  0  0  0  0  0  0  0
   -2.5600    1.0620  -20.9290 C   0  0  0  0  0  0  0  0  0  0  0  0
   -3.1730    0.7170  -22.1540 C   0  0  0  0  0  0  0  0  0  0  0  0
   -4.3140   -0.0540  -22.1690 C   0  0  0  0  0  0  0  0  0  0  0  0
   -4.9050   -0.5090  -20.9610 C   0  0  0  0  0  0  0  0  0  0  0  0
   -4.7870   -0.2740  -23.1210 H   0  0  0  0  0  0  0  0  0  0  0  0
   -2.7540    1.0820  -23.0870 H   0  0  0  0  0  0  0  0  0  0  0  0
   -1.6660    1.6790  -20.9340 H   0  0  0  0  0  0  0  0  0  0  0  0
   -2.6670    0.9150  -18.7910 H   0  0  0  0  0  0  0  0  0  0  0  0
   -4.3990   -0.3600  -17.5800 H   0  0  0  0  0  0  0  0  0  0  0  0
   -7.5710   -2.0680  -19.5580 H   0  0  0  0  0  0  0  0  0  0  0  0
   -7.0660   -2.7960  -22.0350 H   0  0  0  0  0  0  0  0  0  0  0  0
   -6.2740   -1.5890  -23.0240 H   0  0  0  0  0  0  0  0  0  0  0  0
   -8.3230    0.2480  -22.3150 N   0  0  0  0  0  0  0  0  0  0  0  0
   -7.3210    1.0850  -23.0600 C   0  0  0  0  0  0  0  0  0  0  0  0
   -7.8460    2.3790  -23.6120 C   0  0  0  0  0  0  0  0  0  0  0  0
   -9.0980    2.8160  -23.6180 C   0  0  0  0  0  0  0  0  0  0  0  0
   -8.4410    5.4450  -22.9970 C   0  0  0  0  0  0  0  0  0  0  0  0
   -7.9370    5.0520  -21.8480 F   0  0  0  0  0  0  0  0  0  0  0  0
   -9.3090    6.4160  -22.8320 F   0  0  0  0  0  0  0  0  0  0  0  0
   -7.4900    5.7890  -23.8380 F   0  0  0  0  0  0  0  0  0  0  0  0
   -9.5070    1.0450  -21.9050 C   0  0  0  0  0  0  0  0  0  0  0  0
   -9.5260    0.8930  -21.7320 C   0  0  0  0  0  0  0  0  0  0  0  0
  -10.2480    0.5330  -22.7340 H   0  0  0  0  0  0  0  0  0  0  0  0
   -9.8450    0.0300  -20.4720 H   0  0  0  0  0  0  0  0  0  0  0  0
  -10.4400    1.8040  -21.6850 H   0  0  0  0  0  0  0  0  0  0  0  0
   -8.8070    1.9020  -21.3700 H   0  0  0  0  0  0  0  0  0  0  0  0
   -9.2840    3.8850  -23.7240 H   0  0  0  0  0  0  0  0  0  0  0  0
   -7.0620    3.0110  -24.0090 H   0  0  0  0  0  0  0  0  0  0  0  0
   -9.9100    2.1270  -23.5090 H   0  0  0  0  0  0  0  0  0  0  0  0
   -6.9130    0.5000  -23.8790 H   0  0  0  0  0  0  0  0  0  0  0  0
   -6.4930    1.3210  -22.3820 H   0  0  0  0  0  0  0  0  0  0  0  0
  1  2  2  0  0  0  0
  2  3  1  0  0  0  0
  2 22  1  0  0  0  0
  3  4  1  0  0  0  0
  3 20  1  0  0  0  0
  3 21  1  0  0  0  0
  4  5  2  0  0  0  0
  4 13  1  0  0  0  0
  5  6  1  0  0  0  0
  5 19  1  0  0  0  0
  6  7  2  0  0  0  0
  7  8  1  0  0  0  0
  7 18  1  0  0  0  0
  8  9  2  0  0  0  0
  8 13  1  0  0  0  0
  9 10  1  0  0  0  0
  9 17  1  0  0  0  0
 10 11  2  0  0  0  0
 10 16  1  0  0  0  0
 11 12  1  0  0  0  0
 11 15  1  0  0  0  0
 12 13  2  0  0  0  0
 12 14  1  0  0  0  0
 22 23  1  0  0  0  0
 22 31  1  0  0  0  0
 23 24  1  0  0  0  0
 23 39  1  0  0  0  0
 23 40  1  0  0  0  0
 24 25  1  0  0  0  0
 24 37  1  0  0  0  0
 24 38  1  0  0  0  0
 25 26  1  0  0  0  0
 25 30  1  0  0  0  0
 25 36  1  0  0  0  0
 26 27  1  0  0  0  0
 26 28  1  0  0  0  0
 26 29  1  0  0  0  0
 30 31  1  0  0  0  0
 30 34  1  0  0  0  0
 30 35  1  0  0  0  0
 31 32  1  0  0  0  0
 31 33  1  0  0  0  0
M  END
>  <MODEL>
       1

$$$$
