tmp_first_model_6_75.pdb
 OpenBabel08272519583D

 66 71  0  0  1  0  0  0  0  0999 V2000
   -7.3520    3.3890  -21.9260 C   0  0  0  0  0  0  0  0  0  0  0  0
   -8.2950    2.8780  -22.9080 N   0  0  0  0  0  0  0  0  0  0  0  0
   -7.7810    2.1730  -23.9580 C   0  0  0  0  0  0  0  0  0  0  0  0
   -6.5770    2.0180  -24.1030 O   0  0  0  0  0  0  0  0  0  0  0  0
   -8.7840    1.5670  -24.9400 C   0  0  0  0  0  0  0  0  0  0  0  0
   -9.4360    0.4190  -24.3410 N   0  0  0  0  0  0  0  0  0  0  0  0
   -8.6880   -0.8190  -24.1640 C   0  0  0  0  0  0  0  0  0  0  0  0
   -9.0840   -1.5550  -22.8570 C   0  0  2  0  0  0  0  0  0  0  0  0
   -8.5710   -0.7720  -21.6250 C   0  0  0  0  0  0  0  0  0  0  0  0
   -9.0720    0.2070  -21.1070 O   0  0  0  0  0  0  0  0  0  0  0  0
   -7.4130   -1.3670  -21.1940 N   0  0  0  0  0  0  0  0  0  0  0  0
   -6.6320   -0.7870  -20.1700 C   0  0  0  0  0  0  0  0  0  0  0  0
   -6.9400   -1.0450  -18.8600 C   0  0  0  0  0  0  0  0  0  0  0  0
   -6.2380   -0.5740  -17.8020 N   0  0  0  0  0  0  0  0  0  0  0  0
   -5.2010    0.1870  -18.0590 C   0  0  0  0  0  0  0  0  0  0  0  0
   -4.7770    0.5430  -19.3730 C   0  0  0  0  0  0  0  0  0  0  0  0
   -3.6480    1.3760  -19.6030 C   0  0  0  0  0  0  0  0  0  0  0  0
   -3.2880    1.7210  -20.8780 C   0  0  0  0  0  0  0  0  0  0  0  0
   -4.0430    1.2670  -21.9800 C   0  0  0  0  0  0  0  0  0  0  0  0
   -5.1290    0.4430  -21.7860 C   0  0  0  0  0  0  0  0  0  0  0  0
   -5.5180    0.0540  -20.4740 C   0  0  0  0  0  0  0  0  0  0  0  0
   -5.7010    0.1080  -22.6460 H   0  0  0  0  0  0  0  0  0  0  0  0
   -3.7660    1.5580  -22.9890 H   0  0  0  0  0  0  0  0  0  0  0  0
   -2.4180    2.3510  -21.0480 H   0  0  0  0  0  0  0  0  0  0  0  0
   -3.0900    1.7320  -18.7420 H   0  0  0  0  0  0  0  0  0  0  0  0
   -4.6350    0.5660  -17.2070 H   0  0  0  0  0  0  0  0  0  0  0  0
   -7.7990   -1.6690  -18.6290 H   0  0  0  0  0  0  0  0  0  0  0  0
   -7.0280   -2.5470  -21.9320 C   0  0  0  0  0  0  0  0  0  0  0  0
   -8.3140   -2.9100  -22.6930 C   0  0  2  0  0  0  0  0  0  0  0  0
   -8.0140   -3.7050  -23.9790 C   0  0  0  0  0  0  0  0  0  0  0  0
   -7.5130   -5.0470  -23.7530 N   0  0  0  0  0  0  0  0  0  0  0  0
   -6.2080   -5.3800  -23.4790 C   0  0  0  0  0  0  0  0  0  0  0  0
   -5.0950   -4.5970  -23.8700 C   0  0  0  0  0  0  0  0  0  0  0  0
   -3.8480   -4.9580  -23.6020 N   0  0  0  0  0  0  0  0  0  0  0  0
   -3.6740   -6.1040  -22.9410 C   0  0  0  0  0  0  0  0  0  0  0  0
   -4.7590   -6.8790  -22.5670 C   0  0  0  0  0  0  0  0  0  0  0  0
   -6.0180   -6.5360  -22.8390 N   0  0  0  0  0  0  0  0  0  0  0  0
   -4.6170   -7.8120  -22.0250 H   0  0  0  0  0  0  0  0  0  0  0  0
   -2.6520   -6.3980  -22.7100 H   0  0  0  0  0  0  0  0  0  0  0  0
   -5.2170   -3.6640  -24.4160 H   0  0  0  0  0  0  0  0  0  0  0  0
   -8.1580   -5.7240  -23.3660 H   0  0  0  0  0  0  0  0  0  0  0  0
   -7.2730   -3.1630  -24.5790 H   0  0  0  0  0  0  0  0  0  0  0  0
   -8.9230   -3.7820  -24.5850 H   0  0  0  0  0  0  0  0  0  0  0  0
   -8.9130   -3.5480  -22.0320 H   0  0  0  0  0  0  0  0  0  0  0  0
   -6.6860   -3.3360  -21.2550 H   0  0  0  0  0  0  0  0  0  0  0  0
   -6.1920   -2.3340  -22.6180 H   0  0  0  0  0  0  0  0  0  0  0  0
  -10.5960   -1.6120  -22.7990 C   0  0  0  0  0  0  0  0  0  0  0  0
  -11.2360   -2.4540  -21.8810 C   0  0  0  0  0  0  0  0  0  0  0  0
  -12.6140   -2.3980  -21.7380 C   0  0  0  0  0  0  0  0  0  0  0  0
  -13.3960   -3.1890  -20.4030 Cl  0  0  0  0  0  0  0  0  0  0  0  0
  -13.4090   -1.5990  -22.5630 C   0  0  0  0  0  0  0  0  0  0  0  0
  -12.7820   -0.7580  -23.4540 C   0  0  0  0  0  0  0  0  0  0  0  0
  -11.3930   -0.7130  -23.5240 C   0  0  0  0  0  0  0  0  0  0  0  0
  -10.7970    0.4390  -24.2660 C   0  0  0  0  0  0  0  0  0  0  0  0
  -11.4790    1.3530  -24.7120 O   0  0  0  0  0  0  0  0  0  0  0  0
  -13.3390   -0.0730  -24.0830 H   0  0  0  0  0  0  0  0  0  0  0  0
  -14.4900   -1.5850  -22.4300 H   0  0  0  0  0  0  0  0  0  0  0  0
  -10.6610   -3.1310  -21.2570 H   0  0  0  0  0  0  0  0  0  0  0  0
   -8.8690   -1.4930  -25.0120 H   0  0  0  0  0  0  0  0  0  0  0  0
   -7.6220   -0.5800  -24.1610 H   0  0  0  0  0  0  0  0  0  0  0  0
   -8.2510    1.2860  -25.8560 H   0  0  0  0  0  0  0  0  0  0  0  0
   -9.5790    2.2710  -25.2060 H   0  0  0  0  0  0  0  0  0  0  0  0
   -9.2220    2.6510  -22.5740 H   0  0  0  0  0  0  0  0  0  0  0  0
   -6.7890    2.5570  -21.4810 H   0  0  0  0  0  0  0  0  0  0  0  0
   -6.6460    4.0690  -22.4090 H   0  0  0  0  0  0  0  0  0  0  0  0
   -7.8830    3.9540  -21.1560 H   0  0  0  0  0  0  0  0  0  0  0  0
  1  2  1  0  0  0  0
  1 64  1  0  0  0  0
  1 65  1  0  0  0  0
  1 66  1  0  0  0  0
  2  3  1  0  0  0  0
  2 63  1  0  0  0  0
  3  4  2  0  0  0  0
  3  5  1  0  0  0  0
  5  6  1  0  0  0  0
  5 61  1  0  0  0  0
  5 62  1  0  0  0  0
  6  7  1  0  0  0  0
  6 54  1  0  0  0  0
  7  8  1  0  0  0  0
  7 59  1  0  0  0  0
  7 60  1  0  0  0  0
  8  9  1  1  0  0  0
  8 29  1  0  0  0  0
  8 47  1  0  0  0  0
  9 10  2  0  0  0  0
  9 11  1  0  0  0  0
 11 12  1  0  0  0  0
 11 28  1  0  0  0  0
 12 13  2  0  0  0  0
 12 21  1  0  0  0  0
 13 14  1  0  0  0  0
 13 27  1  0  0  0  0
 14 15  2  0  0  0  0
 15 16  1  0  0  0  0
 15 26  1  0  0  0  0
 16 17  2  0  0  0  0
 16 21  1  0  0  0  0
 17 18  1  0  0  0  0
 17 25  1  0  0  0  0
 18 19  2  0  0  0  0
 18 24  1  0  0  0  0
 19 20  1  0  0  0  0
 19 23  1  0  0  0  0
 20 21  2  0  0  0  0
 20 22  1  0  0  0  0
 28 29  1  0  0  0  0
 28 45  1  0  0  0  0
 28 46  1  0  0  0  0
 29 30  1  0  0  0  0
 29 44  1  1  0  0  0
 30 31  1  0  0  0  0
 30 42  1  0  0  0  0
 30 43  1  0  0  0  0
 31 32  1  0  0  0  0
 31 41  1  0  0  0  0
 32 33  2  0  0  0  0
 32 37  1  0  0  0  0
 33 34  1  0  0  0  0
 33 40  1  0  0  0  0
 34 35  2  0  0  0  0
 35 36  1  0  0  0  0
 35 39  1  0  0  0  0
 36 37  2  0  0  0  0
 36 38  1  0  0  0  0
 47 48  2  0  0  0  0
 47 53  1  0  0  0  0
 48 49  1  0  0  0  0
 48 58  1  0  0  0  0
 49 50  1  0  0  0  0
 49 51  2  0  0  0  0
 51 52  1  0  0  0  0
 51 57  1  0  0  0  0
 52 53  2  0  0  0  0
 52 56  1  0  0  0  0
 53 54  1  0  0  0  0
 54 55  2  0  0  0  0
M  END
>  <MODEL>
       1

$$$$
