tmp_first_model_15_73.pdb
 OpenBabel08282501153D

 50 53  0  0  1  0  0  0  0  0999 V2000
   -5.5880   -3.0510  -21.5620 O   0  0  0  0  0  0  0  0  0  0  0  0
   -6.7420   -2.7600  -21.8400 C   0  0  0  0  0  0  0  0  0  0  0  0
   -7.4030   -1.4860  -21.2690 C   0  0  0  0  0  0  0  0  0  0  0  0
   -6.5770   -0.8390  -20.1860 C   0  0  0  0  0  0  0  0  0  0  0  0
   -6.8810   -1.0540  -18.8670 C   0  0  0  0  0  0  0  0  0  0  0  0
   -6.2000   -0.5460  -17.8060 N   0  0  0  0  0  0  0  0  0  0  0  0
   -5.1640    0.2140  -18.0720 C   0  0  0  0  0  0  0  0  0  0  0  0
   -4.7250    0.5220  -19.3860 C   0  0  0  0  0  0  0  0  0  0  0  0
   -3.5980    1.3500  -19.6210 C   0  0  0  0  0  0  0  0  0  0  0  0
   -3.1940    1.6250  -20.9000 C   0  0  0  0  0  0  0  0  0  0  0  0
   -3.9030    1.0820  -21.9950 C   0  0  0  0  0  0  0  0  0  0  0  0
   -4.9990    0.2780  -21.7920 C   0  0  0  0  0  0  0  0  0  0  0  0
   -5.4430   -0.0220  -20.4780 C   0  0  0  0  0  0  0  0  0  0  0  0
   -5.5320   -0.1380  -22.6400 H   0  0  0  0  0  0  0  0  0  0  0  0
   -3.5800    1.3110  -23.0070 H   0  0  0  0  0  0  0  0  0  0  0  0
   -2.3360    2.2670  -21.0780 H   0  0  0  0  0  0  0  0  0  0  0  0
   -3.0790    1.7670  -18.7620 H   0  0  0  0  0  0  0  0  0  0  0  0
   -4.6200    0.6240  -17.2200 H   0  0  0  0  0  0  0  0  0  0  0  0
   -7.7320   -1.6750  -18.5900 H   0  0  0  0  0  0  0  0  0  0  0  0
   -7.6060   -0.7740  -22.0840 H   0  0  0  0  0  0  0  0  0  0  0  0
   -8.3860   -1.7620  -20.8620 H   0  0  0  0  0  0  0  0  0  0  0  0
   -7.5070   -3.5680  -22.6550 N   0  0  0  0  0  0  0  0  0  0  0  0
   -8.6490   -3.0810  -23.4320 C   0  0  0  0  0  0  0  0  0  0  0  0
   -9.7110   -4.1710  -23.5770 C   0  0  0  0  0  0  0  0  0  0  0  0
   -9.0580   -5.4090  -24.1880 C   0  0  0  0  0  0  0  0  0  0  0  0
   -7.9540   -5.9030  -23.2550 C   0  0  0  0  0  0  0  0  0  0  0  0
   -6.8800   -4.8310  -23.0810 C   0  0  1  0  0  0  0  0  0  0  0  0
   -6.0270   -4.6770  -24.3630 C   0  0  0  0  0  0  0  0  0  0  0  0
   -5.2090   -5.9160  -24.6840 C   0  0  0  0  0  0  0  0  0  0  0  0
   -4.0480   -6.1910  -23.9560 C   0  0  0  0  0  0  0  0  0  0  0  0
   -3.2850   -7.3250  -24.2210 C   0  0  0  0  0  0  0  0  0  0  0  0
   -3.6710   -8.2160  -25.2190 C   0  0  0  0  0  0  0  0  0  0  0  0
   -4.8290   -7.9600  -25.9500 C   0  0  0  0  0  0  0  0  0  0  0  0
   -5.5890   -6.8220  -25.6800 C   0  0  0  0  0  0  0  0  0  0  0  0
   -6.4960   -6.6410  -26.2560 H   0  0  0  0  0  0  0  0  0  0  0  0
   -5.1450   -8.6450  -26.7340 H   0  0  0  0  0  0  0  0  0  0  0  0
   -3.0680   -9.0980  -25.4260 H   0  0  0  0  0  0  0  0  0  0  0  0
   -2.3830   -7.5110  -23.6430 H   0  0  0  0  0  0  0  0  0  0  0  0
   -3.7450   -5.4970  -23.1730 H   0  0  0  0  0  0  0  0  0  0  0  0
   -6.6850   -4.4490  -25.2120 H   0  0  0  0  0  0  0  0  0  0  0  0
   -5.3680   -3.8140  -24.2110 H   0  0  0  0  0  0  0  0  0  0  0  0
   -6.2020   -5.0960  -22.2630 H   0  0  0  0  0  0  0  0  0  0  0  0
   -8.3540   -6.1320  -22.2610 H   0  0  0  0  0  0  0  0  0  0  0  0
   -7.4850   -6.8150  -23.6410 H   0  0  0  0  0  0  0  0  0  0  0  0
   -9.7770   -6.1920  -24.3930 H   0  0  0  0  0  0  0  0  0  0  0  0
   -8.6320   -5.1680  -25.1750 H   0  0  0  0  0  0  0  0  0  0  0  0
  -10.1300   -4.4040  -22.5880 H   0  0  0  0  0  0  0  0  0  0  0  0
  -10.5320   -3.8060  -24.2040 H   0  0  0  0  0  0  0  0  0  0  0  0
   -9.0470   -2.1810  -22.9510 H   0  0  0  0  0  0  0  0  0  0  0  0
   -8.3210   -2.7940  -24.4460 H   0  0  0  0  0  0  0  0  0  0  0  0
  1  2  2  0  0  0  0
  2  3  1  0  0  0  0
  2 22  1  0  0  0  0
  3  4  1  0  0  0  0
  3 20  1  0  0  0  0
  3 21  1  0  0  0  0
  4  5  2  0  0  0  0
  4 13  1  0  0  0  0
  5  6  1  0  0  0  0
  5 19  1  0  0  0  0
  6  7  2  0  0  0  0
  7  8  1  0  0  0  0
  7 18  1  0  0  0  0
  8  9  2  0  0  0  0
  8 13  1  0  0  0  0
  9 10  1  0  0  0  0
  9 17  1  0  0  0  0
 10 11  2  0  0  0  0
 10 16  1  0  0  0  0
 11 12  1  0  0  0  0
 11 15  1  0  0  0  0
 12 13  2  0  0  0  0
 12 14  1  0  0  0  0
 22 23  1  0  0  0  0
 22 27  1  0  0  0  0
 23 24  1  0  0  0  0
 23 49  1  0  0  0  0
 23 50  1  0  0  0  0
 24 25  1  0  0  0  0
 24 47  1  0  0  0  0
 24 48  1  0  0  0  0
 25 26  1  0  0  0  0
 25 45  1  0  0  0  0
 25 46  1  0  0  0  0
 26 27  1  0  0  0  0
 26 43  1  0  0  0  0
 26 44  1  0  0  0  0
 27 28  1  0  0  0  0
 27 42  1  1  0  0  0
 28 29  1  0  0  0  0
 28 40  1  0  0  0  0
 28 41  1  0  0  0  0
 29 30  2  0  0  0  0
 29 34  1  0  0  0  0
 30 31  1  0  0  0  0
 30 39  1  0  0  0  0
 31 32  2  0  0  0  0
 31 38  1  0  0  0  0
 32 33  1  0  0  0  0
 32 37  1  0  0  0  0
 33 34  2  0  0  0  0
 33 36  1  0  0  0  0
 34 35  1  0  0  0  0
M  END
>  <MODEL>
       1

$$$$
