tmp_first_model_7_95.pdb
 OpenBabel08272520323D

 66 71  0  0  1  0  0  0  0  0999 V2000
   -7.0120    3.0630  -22.6350 C   0  0  0  0  0  0  0  0  0  0  0  0
   -8.1080    2.2550  -23.1470 N   0  0  0  0  0  0  0  0  0  0  0  0
   -8.0650    1.6610  -24.3680 C   0  0  0  0  0  0  0  0  0  0  0  0
   -7.0330    1.5560  -25.0130 O   0  0  0  0  0  0  0  0  0  0  0  0
   -9.4180    1.1280  -24.8800 C   0  0  0  0  0  0  0  0  0  0  0  0
   -9.9610    0.0820  -24.0380 N   0  0  0  0  0  0  0  0  0  0  0  0
   -9.3120   -1.2160  -24.0410 C   0  0  0  0  0  0  0  0  0  0  0  0
   -9.4310   -1.8690  -22.6410 C   0  0  2  0  0  0  0  0  0  0  0  0
   -8.8370   -0.9090  -21.5720 C   0  0  0  0  0  0  0  0  0  0  0  0
   -9.3980    0.0300  -21.0450 O   0  0  0  0  0  0  0  0  0  0  0  0
   -7.5390   -1.2910  -21.3260 N   0  0  0  0  0  0  0  0  0  0  0  0
   -6.7720   -0.7450  -20.2750 C   0  0  0  0  0  0  0  0  0  0  0  0
   -7.0920   -1.0130  -18.9660 C   0  0  0  0  0  0  0  0  0  0  0  0
   -6.3340   -0.6170  -17.9180 N   0  0  0  0  0  0  0  0  0  0  0  0
   -5.2510    0.0760  -18.1750 C   0  0  0  0  0  0  0  0  0  0  0  0
   -4.8210    0.4380  -19.4840 C   0  0  0  0  0  0  0  0  0  0  0  0
   -3.6560    1.2150  -19.7240 C   0  0  0  0  0  0  0  0  0  0  0  0
   -3.3030    1.5640  -20.9970 C   0  0  0  0  0  0  0  0  0  0  0  0
   -4.0870    1.1490  -22.0960 C   0  0  0  0  0  0  0  0  0  0  0  0
   -5.2150    0.3870  -21.8940 C   0  0  0  0  0  0  0  0  0  0  0  0
   -5.6070    0.0180  -20.5790 C   0  0  0  0  0  0  0  0  0  0  0  0
   -5.8370    0.1000  -22.7390 H   0  0  0  0  0  0  0  0  0  0  0  0
   -3.8160    1.4530  -23.1030 H   0  0  0  0  0  0  0  0  0  0  0  0
   -2.4270    2.1840  -21.1700 H   0  0  0  0  0  0  0  0  0  0  0  0
   -3.0760    1.5450  -18.8680 H   0  0  0  0  0  0  0  0  0  0  0  0
   -4.6440    0.3870  -17.3230 H   0  0  0  0  0  0  0  0  0  0  0  0
   -7.9870   -1.5850  -18.7220 H   0  0  0  0  0  0  0  0  0  0  0  0
   -7.1370   -2.4660  -22.0720 C   0  0  0  0  0  0  0  0  0  0  0  0
   -8.4980   -3.0890  -22.4190 C   0  0  2  0  0  0  0  0  0  0  0  0
   -8.4080   -4.2200  -23.4450 C   0  0  0  0  0  0  0  0  0  0  0  0
   -7.7210   -3.8670  -24.6730 N   0  0  0  0  0  0  0  0  0  0  0  0
   -8.1850   -4.1050  -25.9340 C   0  0  0  0  0  0  0  0  0  0  0  0
   -9.5370   -4.4090  -26.1950 C   0  0  0  0  0  0  0  0  0  0  0  0
   -9.8700   -4.6320  -27.5170 C   0  0  0  0  0  0  0  0  0  0  0  0
   -8.9920   -4.5190  -28.5190 N   0  0  0  0  0  0  0  0  0  0  0  0
   -7.7570   -4.1960  -28.1500 C   0  0  0  0  0  0  0  0  0  0  0  0
   -7.2870   -4.0000  -26.9220 N   0  0  0  0  0  0  0  0  0  0  0  0
   -7.0350   -4.0760  -28.9530 H   0  0  0  0  0  0  0  0  0  0  0  0
  -10.8900   -4.9080  -27.7880 H   0  0  0  0  0  0  0  0  0  0  0  0
  -10.2770   -4.4310  -25.4010 H   0  0  0  0  0  0  0  0  0  0  0  0
   -6.7110   -3.8070  -24.6400 H   0  0  0  0  0  0  0  0  0  0  0  0
   -7.8920   -5.0670  -22.9670 H   0  0  0  0  0  0  0  0  0  0  0  0
   -9.4160   -4.5620  -23.6830 H   0  0  0  0  0  0  0  0  0  0  0  0
   -8.8550   -3.5440  -21.4890 H   0  0  0  0  0  0  0  0  0  0  0  0
   -6.5770   -2.1770  -22.9760 H   0  0  0  0  0  0  0  0  0  0  0  0
   -6.4990   -3.1140  -21.4610 H   0  0  0  0  0  0  0  0  0  0  0  0
  -10.9160   -2.0270  -22.3890 C   0  0  0  0  0  0  0  0  0  0  0  0
  -11.4980   -3.0900  -21.6950 C   0  0  0  0  0  0  0  0  0  0  0  0
  -12.8470   -3.0400  -21.3760 C   0  0  0  0  0  0  0  0  0  0  0  0
  -13.5800   -4.2700  -20.4040 Cl  0  0  0  0  0  0  0  0  0  0  0  0
  -13.6670   -1.9930  -21.7830 C   0  0  0  0  0  0  0  0  0  0  0  0
  -13.1000   -0.9430  -22.4680 C   0  0  0  0  0  0  0  0  0  0  0  0
  -11.7410   -0.9580  -22.7600 C   0  0  0  0  0  0  0  0  0  0  0  0
  -11.1760    0.2540  -23.4320 C   0  0  0  0  0  0  0  0  0  0  0  0
  -11.7780    1.3190  -23.4380 O   0  0  0  0  0  0  0  0  0  0  0  0
  -13.6840   -0.0820  -22.7670 H   0  0  0  0  0  0  0  0  0  0  0  0
  -14.7200   -2.0030  -21.5350 H   0  0  0  0  0  0  0  0  0  0  0  0
  -10.9020   -3.9360  -21.3790 H   0  0  0  0  0  0  0  0  0  0  0  0
   -8.2680   -1.0700  -24.3250 H   0  0  0  0  0  0  0  0  0  0  0  0
   -9.7870   -1.8820  -24.7770 H   0  0  0  0  0  0  0  0  0  0  0  0
  -10.1590    1.9310  -24.8780 H   0  0  0  0  0  0  0  0  0  0  0  0
   -9.2900    0.7920  -25.9170 H   0  0  0  0  0  0  0  0  0  0  0  0
   -8.9630    2.2080  -22.6120 H   0  0  0  0  0  0  0  0  0  0  0  0
   -6.7020    2.7550  -21.6270 H   0  0  0  0  0  0  0  0  0  0  0  0
   -7.2780    4.1270  -22.6080 H   0  0  0  0  0  0  0  0  0  0  0  0
   -6.1660    2.9410  -23.3130 H   0  0  0  0  0  0  0  0  0  0  0  0
  1  2  1  0  0  0  0
  1 64  1  0  0  0  0
  1 65  1  0  0  0  0
  1 66  1  0  0  0  0
  2  3  1  0  0  0  0
  2 63  1  0  0  0  0
  3  4  2  0  0  0  0
  3  5  1  0  0  0  0
  5  6  1  0  0  0  0
  5 61  1  0  0  0  0
  5 62  1  0  0  0  0
  6  7  1  0  0  0  0
  6 54  1  0  0  0  0
  7  8  1  0  0  0  0
  7 59  1  0  0  0  0
  7 60  1  0  0  0  0
  8  9  1  1  0  0  0
  8 29  1  0  0  0  0
  8 47  1  0  0  0  0
  9 10  2  0  0  0  0
  9 11  1  0  0  0  0
 11 12  1  0  0  0  0
 11 28  1  0  0  0  0
 12 13  2  0  0  0  0
 12 21  1  0  0  0  0
 13 14  1  0  0  0  0
 13 27  1  0  0  0  0
 14 15  2  0  0  0  0
 15 16  1  0  0  0  0
 15 26  1  0  0  0  0
 16 17  2  0  0  0  0
 16 21  1  0  0  0  0
 17 18  1  0  0  0  0
 17 25  1  0  0  0  0
 18 19  2  0  0  0  0
 18 24  1  0  0  0  0
 19 20  1  0  0  0  0
 19 23  1  0  0  0  0
 20 21  2  0  0  0  0
 20 22  1  0  0  0  0
 28 29  1  0  0  0  0
 28 45  1  0  0  0  0
 28 46  1  0  0  0  0
 29 30  1  0  0  0  0
 29 44  1  1  0  0  0
 30 31  1  0  0  0  0
 30 42  1  0  0  0  0
 30 43  1  0  0  0  0
 31 32  1  0  0  0  0
 31 41  1  0  0  0  0
 32 33  2  0  0  0  0
 32 37  1  0  0  0  0
 33 34  1  0  0  0  0
 33 40  1  0  0  0  0
 34 35  2  0  0  0  0
 34 39  1  0  0  0  0
 35 36  1  0  0  0  0
 36 37  2  0  0  0  0
 36 38  1  0  0  0  0
 47 48  2  0  0  0  0
 47 53  1  0  0  0  0
 48 49  1  0  0  0  0
 48 58  1  0  0  0  0
 49 50  1  0  0  0  0
 49 51  2  0  0  0  0
 51 52  1  0  0  0  0
 51 57  1  0  0  0  0
 52 53  2  0  0  0  0
 52 56  1  0  0  0  0
 53 54  1  0  0  0  0
 54 55  2  0  0  0  0
M  END
>  <MODEL>
       1

$$$$
