tmp_first_model_1_45.pdb
 OpenBabel08272517043D

 66 71  0  0  1  0  0  0  0  0999 V2000
   -5.8640   -0.2220  -29.5070 C   0  0  0  0  0  0  0  0  0  0  0  0
   -5.6640    0.1020  -28.1120 N   0  0  0  0  0  0  0  0  0  0  0  0
   -5.0930   -0.8230  -27.2920 C   0  0  0  0  0  0  0  0  0  0  0  0
   -4.5410   -1.8310  -27.7010 O   0  0  0  0  0  0  0  0  0  0  0  0
   -5.1410   -0.4470  -25.7970 C   0  0  0  0  0  0  0  0  0  0  0  0
   -6.3490   -0.8730  -25.0960 N   0  0  0  0  0  0  0  0  0  0  0  0
   -6.2410   -1.9810  -24.1400 C   0  0  0  0  0  0  0  0  0  0  0  0
   -7.4120   -2.0630  -23.1120 C   0  0  2  0  0  0  0  0  0  0  0  0
   -7.1350   -1.0860  -21.9400 C   0  0  0  0  0  0  0  0  0  0  0  0
   -7.5170    0.0540  -21.8050 O   0  0  0  0  0  0  0  0  0  0  0  0
   -6.3660   -1.7730  -21.0210 N   0  0  0  0  0  0  0  0  0  0  0  0
   -5.8230   -1.1140  -19.9050 C   0  0  0  0  0  0  0  0  0  0  0  0
   -6.2440   -1.4050  -18.6310 C   0  0  0  0  0  0  0  0  0  0  0  0
   -5.8170   -0.7560  -17.5210 N   0  0  0  0  0  0  0  0  0  0  0  0
   -4.9310    0.1970  -17.6840 C   0  0  0  0  0  0  0  0  0  0  0  0
   -4.3710    0.5520  -18.9410 C   0  0  0  0  0  0  0  0  0  0  0  0
   -3.3870    1.5680  -19.0480 C   0  0  0  0  0  0  0  0  0  0  0  0
   -2.8450    1.8800  -20.2630 C   0  0  0  0  0  0  0  0  0  0  0  0
   -3.2920    1.2190  -21.4320 C   0  0  0  0  0  0  0  0  0  0  0  0
   -4.2690    0.2610  -21.3590 C   0  0  0  0  0  0  0  0  0  0  0  0
   -4.8280   -0.1070  -20.0990 C   0  0  0  0  0  0  0  0  0  0  0  0
   -4.6410   -0.1960  -22.2720 H   0  0  0  0  0  0  0  0  0  0  0  0
   -2.8690    1.4830  -22.3980 H   0  0  0  0  0  0  0  0  0  0  0  0
   -2.0900    2.6580  -20.3420 H   0  0  0  0  0  0  0  0  0  0  0  0
   -3.1020    2.0930  -18.1390 H   0  0  0  0  0  0  0  0  0  0  0  0
   -4.6000    0.7410  -16.7980 H   0  0  0  0  0  0  0  0  0  0  0  0
   -6.9980   -2.1760  -18.4690 H   0  0  0  0  0  0  0  0  0  0  0  0
   -6.2690   -3.1970  -21.2970 C   0  0  0  0  0  0  0  0  0  0  0  0
   -7.4100   -3.3840  -22.2930 C   0  0  2  0  0  0  0  0  0  0  0  0
   -7.5490   -4.7380  -23.0010 C   0  0  0  0  0  0  0  0  0  0  0  0
   -6.3430   -5.3130  -23.7080 C   0  0  0  0  0  0  0  0  0  0  0  0
   -6.2750   -5.3220  -25.1040 C   0  0  0  0  0  0  0  0  0  0  0  0
   -5.1990   -5.9070  -25.7700 C   0  0  0  0  0  0  0  0  0  0  0  0
   -4.1540   -6.4680  -25.0410 C   0  0  0  0  0  0  0  0  0  0  0  0
   -4.2030   -6.4510  -23.6480 C   0  0  0  0  0  0  0  0  0  0  0  0
   -5.2910   -5.8860  -22.9880 C   0  0  0  0  0  0  0  0  0  0  0  0
   -5.3340   -5.8930  -21.8980 H   0  0  0  0  0  0  0  0  0  0  0  0
   -3.3940   -6.8800  -23.0640 H   0  0  0  0  0  0  0  0  0  0  0  0
   -3.3150   -6.9300  -25.5590 H   0  0  0  0  0  0  0  0  0  0  0  0
   -5.1690   -5.9210  -26.8580 H   0  0  0  0  0  0  0  0  0  0  0  0
   -7.0670   -4.8320  -25.6730 H   0  0  0  0  0  0  0  0  0  0  0  0
   -7.8760   -5.4490  -22.2300 H   0  0  0  0  0  0  0  0  0  0  0  0
   -8.3820   -4.6540  -23.7100 H   0  0  0  0  0  0  0  0  0  0  0  0
   -8.3000   -3.3010  -21.6640 H   0  0  0  0  0  0  0  0  0  0  0  0
   -6.4130   -3.7760  -20.3820 H   0  0  0  0  0  0  0  0  0  0  0  0
   -5.2900   -3.4520  -21.7190 H   0  0  0  0  0  0  0  0  0  0  0  0
   -8.7210   -1.7160  -23.7630 C   0  0  0  0  0  0  0  0  0  0  0  0
   -9.9400   -2.0630  -23.1630 C   0  0  0  0  0  0  0  0  0  0  0  0
  -11.1350   -1.6150  -23.6990 C   0  0  0  0  0  0  0  0  0  0  0  0
  -12.6260   -2.0300  -22.8940 Cl  0  0  0  0  0  0  0  0  0  0  0  0
  -11.1600   -0.8300  -24.8550 C   0  0  0  0  0  0  0  0  0  0  0  0
   -9.9690   -0.4970  -25.4490 C   0  0  0  0  0  0  0  0  0  0  0  0
   -8.7580   -0.8890  -24.8860 C   0  0  0  0  0  0  0  0  0  0  0  0
   -7.5240   -0.3130  -25.4780 C   0  0  0  0  0  0  0  0  0  0  0  0
   -7.5900    0.6260  -26.2750 O   0  0  0  0  0  0  0  0  0  0  0  0
   -9.9500    0.1060  -26.3480 H   0  0  0  0  0  0  0  0  0  0  0  0
  -12.0790   -0.4280  -25.2700 H   0  0  0  0  0  0  0  0  0  0  0  0
   -9.9720   -2.6670  -22.2650 H   0  0  0  0  0  0  0  0  0  0  0  0
   -6.1530   -2.9130  -24.7010 H   0  0  0  0  0  0  0  0  0  0  0  0
   -5.3020   -1.8690  -23.5850 H   0  0  0  0  0  0  0  0  0  0  0  0
   -4.2920   -0.9350  -25.3180 H   0  0  0  0  0  0  0  0  0  0  0  0
   -5.0420    0.6420  -25.7030 H   0  0  0  0  0  0  0  0  0  0  0  0
   -6.3780    0.6700  -27.6660 H   0  0  0  0  0  0  0  0  0  0  0  0
   -4.9130   -0.5380  -29.9440 H   0  0  0  0  0  0  0  0  0  0  0  0
   -6.2190    0.6730  -30.0300 H   0  0  0  0  0  0  0  0  0  0  0  0
   -6.5930   -1.0340  -29.6340 H   0  0  0  0  0  0  0  0  0  0  0  0
  1  2  1  0  0  0  0
  1 64  1  0  0  0  0
  1 65  1  0  0  0  0
  1 66  1  0  0  0  0
  2  3  1  0  0  0  0
  2 63  1  0  0  0  0
  3  4  2  0  0  0  0
  3  5  1  0  0  0  0
  5  6  1  0  0  0  0
  5 61  1  0  0  0  0
  5 62  1  0  0  0  0
  6  7  1  0  0  0  0
  6 54  1  0  0  0  0
  7  8  1  0  0  0  0
  7 59  1  0  0  0  0
  7 60  1  0  0  0  0
  8  9  1  1  0  0  0
  8 29  1  0  0  0  0
  8 47  1  0  0  0  0
  9 10  2  0  0  0  0
  9 11  1  0  0  0  0
 11 12  1  0  0  0  0
 11 28  1  0  0  0  0
 12 13  2  0  0  0  0
 12 21  1  0  0  0  0
 13 14  1  0  0  0  0
 13 27  1  0  0  0  0
 14 15  2  0  0  0  0
 15 16  1  0  0  0  0
 15 26  1  0  0  0  0
 16 17  2  0  0  0  0
 16 21  1  0  0  0  0
 17 18  1  0  0  0  0
 17 25  1  0  0  0  0
 18 19  2  0  0  0  0
 18 24  1  0  0  0  0
 19 20  1  0  0  0  0
 19 23  1  0  0  0  0
 20 21  2  0  0  0  0
 20 22  1  0  0  0  0
 28 29  1  0  0  0  0
 28 45  1  0  0  0  0
 28 46  1  0  0  0  0
 29 30  1  0  0  0  0
 29 44  1  1  0  0  0
 30 31  1  0  0  0  0
 30 42  1  0  0  0  0
 30 43  1  0  0  0  0
 31 32  2  0  0  0  0
 31 36  1  0  0  0  0
 32 33  1  0  0  0  0
 32 41  1  0  0  0  0
 33 34  2  0  0  0  0
 33 40  1  0  0  0  0
 34 35  1  0  0  0  0
 34 39  1  0  0  0  0
 35 36  2  0  0  0  0
 35 38  1  0  0  0  0
 36 37  1  0  0  0  0
 47 48  2  0  0  0  0
 47 53  1  0  0  0  0
 48 49  1  0  0  0  0
 48 58  1  0  0  0  0
 49 50  1  0  0  0  0
 49 51  2  0  0  0  0
 51 52  1  0  0  0  0
 51 57  1  0  0  0  0
 52 53  2  0  0  0  0
 52 56  1  0  0  0  0
 53 54  1  0  0  0  0
 54 55  2  0  0  0  0
M  END
>  <MODEL>
       1

$$$$
