tmp_first_model_18_16.pdb
 OpenBabel08282502533D

 61 66  0  0  1  0  0  0  0  0999 V2000
   -9.8090    1.1470  -29.2170 C   0  0  0  0  0  0  0  0  0  0  0  0
   -9.6300    1.4460  -27.8130 N   0  0  0  0  0  0  0  0  0  0  0  0
   -8.6030    0.8480  -27.1450 C   0  0  0  0  0  0  0  0  0  0  0  0
   -7.7440    0.1700  -27.6810 O   0  0  0  0  0  0  0  0  0  0  0  0
   -8.6560    1.0590  -25.6280 C   0  0  0  0  0  0  0  0  0  0  0  0
   -9.3300   -0.0540  -24.9890 N   0  0  0  0  0  0  0  0  0  0  0  0
   -8.5860   -1.2260  -24.5750 C   0  0  0  0  0  0  0  0  0  0  0  0
   -8.9670   -1.6370  -23.1290 C   0  0  2  0  0  0  0  0  0  0  0  0
   -8.2890   -0.6350  -22.1440 C   0  0  0  0  0  0  0  0  0  0  0  0
   -8.4130    0.5710  -22.1230 O   0  0  0  0  0  0  0  0  0  0  0  0
   -7.4500   -1.3460  -21.3020 N   0  0  0  0  0  0  0  0  0  0  0  0
   -6.6640   -0.7790  -20.2600 C   0  0  0  0  0  0  0  0  0  0  0  0
   -6.9510   -1.0650  -18.9470 C   0  0  0  0  0  0  0  0  0  0  0  0
   -6.2770   -0.5830  -17.8720 N   0  0  0  0  0  0  0  0  0  0  0  0
   -5.2500    0.1960  -18.1120 C   0  0  0  0  0  0  0  0  0  0  0  0
   -4.7970    0.5320  -19.4190 C   0  0  0  0  0  0  0  0  0  0  0  0
   -3.6510    1.3490  -19.6150 C   0  0  0  0  0  0  0  0  0  0  0  0
   -3.1990    1.6110  -20.8790 C   0  0  0  0  0  0  0  0  0  0  0  0
   -3.8610    1.0600  -21.9970 C   0  0  0  0  0  0  0  0  0  0  0  0
   -4.9770    0.2750  -21.8320 C   0  0  0  0  0  0  0  0  0  0  0  0
   -5.4950    0.0120  -20.5350 C   0  0  0  0  0  0  0  0  0  0  0  0
   -5.4620   -0.1640  -22.6970 H   0  0  0  0  0  0  0  0  0  0  0  0
   -3.4820    1.2560  -22.9960 H   0  0  0  0  0  0  0  0  0  0  0  0
   -2.3260    2.2390  -21.0290 H   0  0  0  0  0  0  0  0  0  0  0  0
   -3.1470    1.7500  -18.7380 H   0  0  0  0  0  0  0  0  0  0  0  0
   -4.7070    0.5820  -17.2500 H   0  0  0  0  0  0  0  0  0  0  0  0
   -7.7940   -1.7120  -18.7100 H   0  0  0  0  0  0  0  0  0  0  0  0
   -7.6550   -2.7740  -21.3690 C   0  0  0  0  0  0  0  0  0  0  0  0
   -8.3640   -3.0020  -22.7110 C   0  0  2  0  0  0  0  0  0  0  0  0
   -7.4620   -3.6830  -23.7560 C   0  0  0  0  0  0  0  0  0  0  0  0
   -7.1160   -5.0310  -23.3410 N   0  0  0  0  0  0  0  0  0  0  0  0
   -5.8980   -5.4470  -23.0550 N   0  0  0  0  0  0  0  0  0  0  0  0
   -6.1280   -6.7140  -22.7350 C   0  0  0  0  0  0  0  0  0  0  0  0
   -7.4320   -7.0430  -22.8230 N   0  0  0  0  0  0  0  0  0  0  0  0
   -8.0410   -5.9560  -23.2160 N   0  0  0  0  0  0  0  0  0  0  0  0
   -5.3510   -7.4060  -22.4410 H   0  0  0  0  0  0  0  0  0  0  0  0
   -6.5310   -3.1480  -23.9370 H   0  0  0  0  0  0  0  0  0  0  0  0
   -7.9930   -3.7960  -24.7030 H   0  0  0  0  0  0  0  0  0  0  0  0
   -9.1770   -3.7160  -22.5740 H   0  0  0  0  0  0  0  0  0  0  0  0
   -8.3030   -3.0980  -20.5440 H   0  0  0  0  0  0  0  0  0  0  0  0
   -6.7000   -3.3030  -21.2810 H   0  0  0  0  0  0  0  0  0  0  0  0
  -10.5000   -1.6530  -23.0400 C   0  0  0  0  0  0  0  0  0  0  0  0
  -11.1650   -2.3640  -22.0250 C   0  0  0  0  0  0  0  0  0  0  0  0
  -12.5470   -2.3420  -21.9340 C   0  0  0  0  0  0  0  0  0  0  0  0
  -13.3470   -3.2130  -20.6560 Cl  0  0  0  0  0  0  0  0  0  0  0  0
  -13.3370   -1.6190  -22.8200 C   0  0  0  0  0  0  0  0  0  0  0  0
  -12.6960   -0.8710  -23.7870 C   0  0  0  0  0  0  0  0  0  0  0  0
  -11.3050   -0.9030  -23.9110 C   0  0  0  0  0  0  0  0  0  0  0  0
  -10.6890   -0.0390  -24.9590 C   0  0  0  0  0  0  0  0  0  0  0  0
  -11.3490    0.7140  -25.6810 O   0  0  0  0  0  0  0  0  0  0  0  0
  -13.2510   -0.2100  -24.4450 H   0  0  0  0  0  0  0  0  0  0  0  0
  -14.4190   -1.6500  -22.7260 H   0  0  0  0  0  0  0  0  0  0  0  0
  -10.6310   -2.9210  -21.2640 H   0  0  0  0  0  0  0  0  0  0  0  0
   -7.5210   -0.9900  -24.6370 H   0  0  0  0  0  0  0  0  0  0  0  0
   -8.7910   -2.0610  -25.2590 H   0  0  0  0  0  0  0  0  0  0  0  0
   -9.2170    1.9610  -25.3720 H   0  0  0  0  0  0  0  0  0  0  0  0
   -7.6480    1.1530  -25.2060 H   0  0  0  0  0  0  0  0  0  0  0  0
  -10.4630    1.6290  -27.2630 H   0  0  0  0  0  0  0  0  0  0  0  0
   -8.8890    1.3830  -29.7540 H   0  0  0  0  0  0  0  0  0  0  0  0
  -10.6250    1.7600  -29.6070 H   0  0  0  0  0  0  0  0  0  0  0  0
  -10.0410    0.0880  -29.3900 H   0  0  0  0  0  0  0  0  0  0  0  0
  1  2  1  0  0  0  0
  1 59  1  0  0  0  0
  1 60  1  0  0  0  0
  1 61  1  0  0  0  0
  2  3  1  0  0  0  0
  2 58  1  0  0  0  0
  3  4  2  0  0  0  0
  3  5  1  0  0  0  0
  5  6  1  0  0  0  0
  5 56  1  0  0  0  0
  5 57  1  0  0  0  0
  6  7  1  0  0  0  0
  6 49  1  0  0  0  0
  7  8  1  0  0  0  0
  7 54  1  0  0  0  0
  7 55  1  0  0  0  0
  8  9  1  1  0  0  0
  8 29  1  0  0  0  0
  8 42  1  0  0  0  0
  9 10  2  0  0  0  0
  9 11  1  0  0  0  0
 11 12  1  0  0  0  0
 11 28  1  0  0  0  0
 12 13  2  0  0  0  0
 12 21  1  0  0  0  0
 13 14  1  0  0  0  0
 13 27  1  0  0  0  0
 14 15  2  0  0  0  0
 15 16  1  0  0  0  0
 15 26  1  0  0  0  0
 16 17  2  0  0  0  0
 16 21  1  0  0  0  0
 17 18  1  0  0  0  0
 17 25  1  0  0  0  0
 18 19  2  0  0  0  0
 18 24  1  0  0  0  0
 19 20  1  0  0  0  0
 19 23  1  0  0  0  0
 20 21  2  0  0  0  0
 20 22  1  0  0  0  0
 28 29  1  0  0  0  0
 28 40  1  0  0  0  0
 28 41  1  0  0  0  0
 29 30  1  0  0  0  0
 29 39  1  1  0  0  0
 30 31  1  0  0  0  0
 30 37  1  0  0  0  0
 30 38  1  0  0  0  0
 31 32  1  0  0  0  0
 31 35  1  0  0  0  0
 32 33  2  0  0  0  0
 33 34  1  0  0  0  0
 33 36  1  0  0  0  0
 34 35  2  0  0  0  0
 42 43  2  0  0  0  0
 42 48  1  0  0  0  0
 43 44  1  0  0  0  0
 43 53  1  0  0  0  0
 44 45  1  0  0  0  0
 44 46  2  0  0  0  0
 46 47  1  0  0  0  0
 46 52  1  0  0  0  0
 47 48  2  0  0  0  0
 47 51  1  0  0  0  0
 48 49  1  0  0  0  0
 49 50  2  0  0  0  0
M  END
>  <MODEL>
       1

$$$$
