tmp_first_model_10_64.pdb
 OpenBabel08272522163D

 55 60  0  0  1  0  0  0  0  0999 V2000
   -8.3170   -4.1560  -23.4700 C   0  0  0  0  0  0  0  0  0  0  0  0
   -8.5390   -2.9950  -22.5140 C   0  0  1  0  0  0  0  0  0  0  0  0
   -7.4030   -2.8080  -21.4990 C   0  0  0  0  0  0  0  0  0  0  0  0
   -7.4480   -1.3850  -21.2000 N   0  0  0  0  0  0  0  0  0  0  0  0
   -6.6650   -0.7870  -20.1840 C   0  0  0  0  0  0  0  0  0  0  0  0
   -6.9190   -1.1000  -18.8720 C   0  0  0  0  0  0  0  0  0  0  0  0
   -6.2300   -0.6120  -17.8130 N   0  0  0  0  0  0  0  0  0  0  0  0
   -5.2150    0.1760  -18.0750 C   0  0  0  0  0  0  0  0  0  0  0  0
   -4.8340    0.5740  -19.3870 C   0  0  0  0  0  0  0  0  0  0  0  0
   -3.7280    1.4400  -19.6010 C   0  0  0  0  0  0  0  0  0  0  0  0
   -3.4510    1.9090  -20.8520 C   0  0  0  0  0  0  0  0  0  0  0  0
   -4.2350    1.4960  -21.9530 C   0  0  0  0  0  0  0  0  0  0  0  0
   -5.2390    0.5760  -21.7910 C   0  0  0  0  0  0  0  0  0  0  0  0
   -5.5920    0.1120  -20.4880 C   0  0  0  0  0  0  0  0  0  0  0  0
   -5.7920    0.2420  -22.6620 H   0  0  0  0  0  0  0  0  0  0  0  0
   -4.0340    1.9140  -22.9330 H   0  0  0  0  0  0  0  0  0  0  0  0
   -2.6620    2.6390  -21.0020 H   0  0  0  0  0  0  0  0  0  0  0  0
   -3.1250    1.7260  -18.7410 H   0  0  0  0  0  0  0  0  0  0  0  0
   -4.6470    0.5570  -17.2250 H   0  0  0  0  0  0  0  0  0  0  0  0
   -7.7440   -1.7670  -18.6340 H   0  0  0  0  0  0  0  0  0  0  0  0
   -8.1700   -0.6470  -22.1130 C   0  0  0  0  0  0  0  0  0  0  0  0
   -8.2900    0.5610  -22.0860 O   0  0  0  0  0  0  0  0  0  0  0  0
   -8.7480   -1.5880  -23.1830 C   0  0  1  0  0  0  0  0  0  0  0  0
   -7.9400   -1.3150  -24.4810 C   0  0  0  0  0  0  0  0  0  0  0  0
   -8.5750   -1.8630  -25.6770 N   0  0  0  0  0  0  0  0  0  0  0  0
   -7.7810   -2.3510  -26.7930 C   0  0  0  0  0  0  0  0  0  0  0  0
   -7.7900   -3.8510  -26.8630 C   0  0  0  0  0  0  0  0  0  0  0  0
   -6.6850   -4.5970  -26.5880 N   0  0  0  0  0  0  0  0  0  0  0  0
   -7.0920   -5.8190  -26.8590 C   0  0  0  0  0  0  0  0  0  0  0  0
   -8.3740   -5.8120  -27.2400 N   0  0  0  0  0  0  0  0  0  0  0  0
   -8.8480   -4.5440  -27.2480 N   0  0  0  0  0  0  0  0  0  0  0  0
   -8.9450   -6.5780  -27.5710 H   0  0  0  0  0  0  0  0  0  0  0  0
   -6.4870   -6.7090  -26.8160 H   0  0  0  0  0  0  0  0  0  0  0  0
   -8.2240   -1.9450  -27.7100 H   0  0  0  0  0  0  0  0  0  0  0  0
   -6.7580   -1.9810  -26.7030 H   0  0  0  0  0  0  0  0  0  0  0  0
   -9.9170   -1.7430  -25.9210 C   0  0  0  0  0  0  0  0  0  0  0  0
  -10.3980   -1.9340  -27.0310 O   0  0  0  0  0  0  0  0  0  0  0  0
  -10.7560   -1.3910  -24.7510 C   0  0  0  0  0  0  0  0  0  0  0  0
  -12.1170   -1.2090  -24.9840 C   0  0  0  0  0  0  0  0  0  0  0  0
  -12.9720   -0.9080  -23.9480 C   0  0  0  0  0  0  0  0  0  0  0  0
  -12.4260   -0.8250  -22.6730 C   0  0  0  0  0  0  0  0  0  0  0  0
  -13.2600   -0.5830  -21.6580 F   0  0  0  0  0  0  0  0  0  0  0  0
  -11.0800   -1.0090  -22.4180 C   0  0  0  0  0  0  0  0  0  0  0  0
  -10.2100   -1.2960  -23.4700 C   0  0  0  0  0  0  0  0  0  0  0  0
  -10.6940   -0.9320  -21.4110 H   0  0  0  0  0  0  0  0  0  0  0  0
  -14.0310   -0.7450  -24.1120 H   0  0  0  0  0  0  0  0  0  0  0  0
  -12.4720   -1.3270  -26.0010 H   0  0  0  0  0  0  0  0  0  0  0  0
   -7.8400   -0.2220  -24.5890 H   0  0  0  0  0  0  0  0  0  0  0  0
   -6.9260   -1.7290  -24.3870 H   0  0  0  0  0  0  0  0  0  0  0  0
   -7.5640   -3.3970  -20.5900 H   0  0  0  0  0  0  0  0  0  0  0  0
   -6.4220   -3.0960  -21.9070 H   0  0  0  0  0  0  0  0  0  0  0  0
   -9.4540   -3.1820  -21.9320 H   0  0  0  0  0  0  0  0  0  0  0  0
   -9.1320   -4.2110  -24.1990 H   0  0  0  0  0  0  0  0  0  0  0  0
   -8.2690   -5.0980  -22.9160 H   0  0  0  0  0  0  0  0  0  0  0  0
   -7.3780   -4.0270  -24.0190 H   0  0  0  0  0  0  0  0  0  0  0  0
  1  2  1  0  0  0  0
  1 53  1  0  0  0  0
  1 54  1  0  0  0  0
  1 55  1  0  0  0  0
  2  3  1  0  0  0  0
  2 23  1  0  0  0  0
  2 52  1  1  0  0  0
  3  4  1  0  0  0  0
  3 50  1  0  0  0  0
  3 51  1  0  0  0  0
  4  5  1  0  0  0  0
  4 21  1  0  0  0  0
  5  6  2  0  0  0  0
  5 14  1  0  0  0  0
  6  7  1  0  0  0  0
  6 20  1  0  0  0  0
  7  8  2  0  0  0  0
  8  9  1  0  0  0  0
  8 19  1  0  0  0  0
  9 10  2  0  0  0  0
  9 14  1  0  0  0  0
 10 11  1  0  0  0  0
 10 18  1  0  0  0  0
 11 12  2  0  0  0  0
 11 17  1  0  0  0  0
 12 13  1  0  0  0  0
 12 16  1  0  0  0  0
 13 14  2  0  0  0  0
 13 15  1  0  0  0  0
 21 22  2  0  0  0  0
 23 21  1  1  0  0  0
 23 24  1  0  0  0  0
 23 44  1  0  0  0  0
 24 25  1  0  0  0  0
 24 48  1  0  0  0  0
 24 49  1  0  0  0  0
 25 26  1  0  0  0  0
 25 36  1  0  0  0  0
 26 27  1  0  0  0  0
 26 34  1  0  0  0  0
 26 35  1  0  0  0  0
 27 28  1  0  0  0  0
 27 31  2  0  0  0  0
 28 29  2  0  0  0  0
 29 30  1  0  0  0  0
 29 33  1  0  0  0  0
 30 31  1  0  0  0  0
 30 32  1  0  0  0  0
 36 37  2  0  0  0  0
 36 38  1  0  0  0  0
 38 39  2  0  0  0  0
 38 44  1  0  0  0  0
 39 40  1  0  0  0  0
 39 47  1  0  0  0  0
 40 41  2  0  0  0  0
 40 46  1  0  0  0  0
 41 42  1  0  0  0  0
 41 43  1  0  0  0  0
 43 44  2  0  0  0  0
 43 45  1  0  0  0  0
M  END
>  <MODEL>
       1

$$$$
