tmp_first_model_10_85.pdb
 OpenBabel08272522163D

 57 62  0  0  1  0  0  0  0  0999 V2000
   -9.1790    1.0510  -29.3100 C   0  0  0  0  0  0  0  0  0  0  0  0
   -9.1260    1.3760  -27.9000 N   0  0  0  0  0  0  0  0  0  0  0  0
   -8.2510    0.6960  -27.1120 C   0  0  0  0  0  0  0  0  0  0  0  0
   -7.5090   -0.1800  -27.5280 O   0  0  0  0  0  0  0  0  0  0  0  0
   -8.2850    1.1120  -25.6410 C   0  0  0  0  0  0  0  0  0  0  0  0
   -9.1410    0.2350  -24.8730 N   0  0  0  0  0  0  0  0  0  0  0  0
   -8.6490   -1.0800  -24.5220 C   0  0  0  0  0  0  0  0  0  0  0  0
   -8.9490   -1.4390  -23.0500 C   0  0  2  0  0  0  0  0  0  0  0  0
   -8.1600   -0.5360  -22.0790 C   0  0  0  0  0  0  0  0  0  0  0  0
   -8.1560    0.6720  -22.0600 O   0  0  0  0  0  0  0  0  0  0  0  0
   -7.4190   -1.3230  -21.2130 N   0  0  0  0  0  0  0  0  0  0  0  0
   -6.6320   -0.7830  -20.1730 C   0  0  0  0  0  0  0  0  0  0  0  0
   -6.9040   -1.0870  -18.8610 C   0  0  0  0  0  0  0  0  0  0  0  0
   -6.2070   -0.6070  -17.8010 N   0  0  0  0  0  0  0  0  0  0  0  0
   -5.2000    0.1950  -18.0580 C   0  0  0  0  0  0  0  0  0  0  0  0
   -4.7960    0.5700  -19.3730 C   0  0  0  0  0  0  0  0  0  0  0  0
   -3.6790    1.4160  -19.6030 C   0  0  0  0  0  0  0  0  0  0  0  0
   -3.3840    1.8540  -20.8660 C   0  0  0  0  0  0  0  0  0  0  0  0
   -4.1650    1.4250  -21.9630 C   0  0  0  0  0  0  0  0  0  0  0  0
   -5.1490    0.4870  -21.7860 C   0  0  0  0  0  0  0  0  0  0  0  0
   -5.5330    0.0820  -20.4720 C   0  0  0  0  0  0  0  0  0  0  0  0
   -5.6560    0.0700  -22.6510 H   0  0  0  0  0  0  0  0  0  0  0  0
   -3.9630    1.8190  -22.9540 H   0  0  0  0  0  0  0  0  0  0  0  0
   -2.5540    2.5350  -21.0350 H   0  0  0  0  0  0  0  0  0  0  0  0
   -3.0850    1.7270  -18.7470 H   0  0  0  0  0  0  0  0  0  0  0  0
   -4.6350    0.5780  -17.2070 H   0  0  0  0  0  0  0  0  0  0  0  0
   -7.7540   -1.7240  -18.6180 H   0  0  0  0  0  0  0  0  0  0  0  0
   -7.6130   -2.7370  -21.3950 C   0  0  0  0  0  0  0  0  0  0  0  0
   -8.4250   -2.8260  -22.6740 C   0  0  0  0  0  0  0  0  0  0  0  0
   -9.2720   -4.0350  -22.8330 C   0  0  0  0  0  0  0  0  0  0  0  0
   -8.0380   -3.8920  -23.6690 C   0  0  0  0  0  0  0  0  0  0  0  0
   -7.1820   -4.5310  -23.4490 H   0  0  0  0  0  0  0  0  0  0  0  0
   -8.1520   -3.6550  -24.7230 H   0  0  0  0  0  0  0  0  0  0  0  0
   -9.2240   -4.6860  -21.9740 H   0  0  0  0  0  0  0  0  0  0  0  0
  -10.2490   -3.9280  -23.2940 H   0  0  0  0  0  0  0  0  0  0  0  0
   -6.6550   -3.2640  -21.4700 H   0  0  0  0  0  0  0  0  0  0  0  0
   -8.1760   -3.1820  -20.5650 H   0  0  0  0  0  0  0  0  0  0  0  0
  -10.4520   -1.2130  -22.8760 C   0  0  0  0  0  0  0  0  0  0  0  0
  -11.1920   -1.9680  -21.9640 C   0  0  0  0  0  0  0  0  0  0  0  0
  -12.5670   -1.8100  -21.8990 C   0  0  0  0  0  0  0  0  0  0  0  0
  -13.4790   -2.9810  -20.9860 Cl  0  0  0  0  0  0  0  0  0  0  0  0
  -13.2290   -0.7580  -22.5330 C   0  0  0  0  0  0  0  0  0  0  0  0
  -12.4800    0.0460  -23.3720 C   0  0  0  0  0  0  0  0  0  0  0  0
  -11.1370   -0.2290  -23.6090 C   0  0  0  0  0  0  0  0  0  0  0  0
  -10.4390    0.5880  -24.6500 C   0  0  0  0  0  0  0  0  0  0  0  0
  -10.9690    1.5240  -25.2450 O   0  0  0  0  0  0  0  0  0  0  0  0
  -12.9170    0.8930  -23.8850 H   0  0  0  0  0  0  0  0  0  0  0  0
  -14.2970   -0.6100  -22.3870 H   0  0  0  0  0  0  0  0  0  0  0  0
  -10.7170   -2.7290  -21.3530 H   0  0  0  0  0  0  0  0  0  0  0  0
   -7.5770   -1.1230  -24.7220 H   0  0  0  0  0  0  0  0  0  0  0  0
   -9.1350   -1.8320  -25.1560 H   0  0  0  0  0  0  0  0  0  0  0  0
   -8.6620    2.1330  -25.5350 H   0  0  0  0  0  0  0  0  0  0  0  0
   -7.2690    1.0400  -25.2300 H   0  0  0  0  0  0  0  0  0  0  0  0
   -9.8930    1.8700  -27.4610 H   0  0  0  0  0  0  0  0  0  0  0  0
   -9.5450    0.0310  -29.4760 H   0  0  0  0  0  0  0  0  0  0  0  0
   -9.8180    1.7590  -29.8370 H   0  0  0  0  0  0  0  0  0  0  0  0
   -8.1720    1.1270  -29.7280 H   0  0  0  0  0  0  0  0  0  0  0  0
  1  2  1  0  0  0  0
  1 55  1  0  0  0  0
  1 56  1  0  0  0  0
  1 57  1  0  0  0  0
  2  3  1  0  0  0  0
  2 54  1  0  0  0  0
  3  4  2  0  0  0  0
  3  5  1  0  0  0  0
  5  6  1  0  0  0  0
  5 52  1  0  0  0  0
  5 53  1  0  0  0  0
  6  7  1  0  0  0  0
  6 45  1  0  0  0  0
  7  8  1  0  0  0  0
  7 50  1  0  0  0  0
  7 51  1  0  0  0  0
  8  9  1  1  0  0  0
  8 29  1  0  0  0  0
  8 38  1  0  0  0  0
  9 10  2  0  0  0  0
  9 11  1  0  0  0  0
 11 12  1  0  0  0  0
 11 28  1  0  0  0  0
 12 13  2  0  0  0  0
 12 21  1  0  0  0  0
 13 14  1  0  0  0  0
 13 27  1  0  0  0  0
 14 15  2  0  0  0  0
 15 16  1  0  0  0  0
 15 26  1  0  0  0  0
 16 17  2  0  0  0  0
 16 21  1  0  0  0  0
 17 18  1  0  0  0  0
 17 25  1  0  0  0  0
 18 19  2  0  0  0  0
 18 24  1  0  0  0  0
 19 20  1  0  0  0  0
 19 23  1  0  0  0  0
 20 21  2  0  0  0  0
 20 22  1  0  0  0  0
 28 29  1  0  0  0  0
 28 36  1  0  0  0  0
 28 37  1  0  0  0  0
 29 30  1  0  0  0  0
 29 31  1  0  0  0  0
 30 31  1  0  0  0  0
 30 34  1  0  0  0  0
 30 35  1  0  0  0  0
 31 32  1  0  0  0  0
 31 33  1  0  0  0  0
 38 39  2  0  0  0  0
 38 44  1  0  0  0  0
 39 40  1  0  0  0  0
 39 49  1  0  0  0  0
 40 41  1  0  0  0  0
 40 42  2  0  0  0  0
 42 43  1  0  0  0  0
 42 48  1  0  0  0  0
 43 44  2  0  0  0  0
 43 47  1  0  0  0  0
 44 45  1  0  0  0  0
 45 46  2  0  0  0  0
M  END
>  <MODEL>
       1

$$$$
