tmp_first_model_5_10.pdb
 OpenBabel08272519223D

 57 62  0  0  1  0  0  0  0  0999 V2000
  -10.2850   -2.8410  -22.0020 C   0  0  0  0  0  0  0  0  0  0  0  0
   -9.2390   -1.9560  -22.6960 C   0  0  1  0  0  0  0  0  0  0  0  0
   -8.6260   -0.9860  -21.6610 C   0  0  0  0  0  0  0  0  0  0  0  0
   -7.4270   -1.6780  -21.2410 N   0  0  0  0  0  0  0  0  0  0  0  0
   -6.5390   -1.1670  -20.2580 C   0  0  0  0  0  0  0  0  0  0  0  0
   -6.7880   -1.4130  -18.9350 C   0  0  0  0  0  0  0  0  0  0  0  0
   -5.9020   -1.1850  -17.9340 N   0  0  0  0  0  0  0  0  0  0  0  0
   -4.7510   -0.6460  -18.2720 C   0  0  0  0  0  0  0  0  0  0  0  0
   -4.4530   -0.1620  -19.5800 C   0  0  0  0  0  0  0  0  0  0  0  0
   -3.3250    0.6700  -19.8300 C   0  0  0  0  0  0  0  0  0  0  0  0
   -3.2330    1.3770  -20.9970 C   0  0  0  0  0  0  0  0  0  0  0  0
   -4.1790    1.1650  -22.0310 C   0  0  0  0  0  0  0  0  0  0  0  0
   -5.2280    0.2980  -21.8560 C   0  0  0  0  0  0  0  0  0  0  0  0
   -5.4010   -0.3700  -20.6050 C   0  0  0  0  0  0  0  0  0  0  0  0
   -5.9530    0.1530  -22.6580 H   0  0  0  0  0  0  0  0  0  0  0  0
   -4.0580    1.6790  -22.9780 H   0  0  0  0  0  0  0  0  0  0  0  0
   -2.3910    2.0390  -21.1800 H   0  0  0  0  0  0  0  0  0  0  0  0
   -2.6340    0.8640  -19.0160 H   0  0  0  0  0  0  0  0  0  0  0  0
   -4.0090   -0.5070  -17.4840 H   0  0  0  0  0  0  0  0  0  0  0  0
   -7.7520   -1.8240  -18.6360 H   0  0  0  0  0  0  0  0  0  0  0  0
   -6.9870   -2.6240  -22.1500 C   0  0  0  0  0  0  0  0  0  0  0  0
   -5.9490   -3.2280  -22.0440 O   0  0  0  0  0  0  0  0  0  0  0  0
   -8.0130   -2.7270  -23.3060 C   0  0  1  0  0  0  0  0  0  0  0  0
   -8.3420   -4.2100  -23.6480 C   0  0  0  0  0  0  0  0  0  0  0  0
   -7.3020   -4.9060  -24.3910 N   0  0  0  0  0  0  0  0  0  0  0  0
   -6.9810   -6.2950  -24.0540 C   0  0  0  0  0  0  0  0  0  0  0  0
   -5.8870   -6.3830  -23.0360 C   0  0  0  0  0  0  0  0  0  0  0  0
   -4.5480   -6.4470  -23.2200 C   0  0  0  0  0  0  0  0  0  0  0  0
   -3.9600   -6.3100  -21.9820 N   0  3  0  0  0  0  0  0  0  0  0  0
   -4.9210   -6.1720  -21.0590 C   0  0  0  0  0  0  0  0  0  0  0  0
   -6.1070   -6.2440  -21.6720 N   0  0  0  0  0  0  0  0  0  0  0  0
   -7.0090   -6.0950  -21.2230 H   0  0  0  0  0  0  0  0  0  0  0  0
   -4.7690   -5.9840  -20.0060 H   0  0  0  0  0  0  0  0  0  0  0  0
   -2.9590   -6.2500  -21.8460 H   0  0  0  0  0  0  0  0  0  0  0  0
   -3.9690   -6.5730  -24.1300 H   0  0  0  0  0  0  0  0  0  0  0  0
   -6.6520   -6.7820  -24.9740 H   0  0  0  0  0  0  0  0  0  0  0  0
   -7.9030   -6.7870  -23.7190 H   0  0  0  0  0  0  0  0  0  0  0  0
   -6.5130   -4.2970  -25.3240 C   0  0  0  0  0  0  0  0  0  0  0  0
   -5.6730   -4.9090  -25.9720 O   0  0  0  0  0  0  0  0  0  0  0  0
   -6.7160   -2.8270  -25.4990 C   0  0  0  0  0  0  0  0  0  0  0  0
   -6.1130   -2.2360  -26.6100 C   0  0  0  0  0  0  0  0  0  0  0  0
   -6.2710   -0.8910  -26.8660 C   0  0  0  0  0  0  0  0  0  0  0  0
   -7.0180   -0.1520  -25.9590 C   0  0  0  0  0  0  0  0  0  0  0  0
   -7.1860    1.1610  -26.1960 F   0  0  0  0  0  0  0  0  0  0  0  0
   -7.5890   -0.7030  -24.8260 C   0  0  0  0  0  0  0  0  0  0  0  0
   -7.4530   -2.0750  -24.5760 C   0  0  0  0  0  0  0  0  0  0  0  0
   -8.1340   -0.0410  -24.1640 H   0  0  0  0  0  0  0  0  0  0  0  0
   -5.8310   -0.4020  -27.7280 H   0  0  0  0  0  0  0  0  0  0  0  0
   -5.5180   -2.8780  -27.2520 H   0  0  0  0  0  0  0  0  0  0  0  0
   -9.2740   -4.2120  -24.2280 H   0  0  0  0  0  0  0  0  0  0  0  0
   -8.5040   -4.7750  -22.7260 H   0  0  0  0  0  0  0  0  0  0  0  0
   -8.3850    0.0000  -22.0870 H   0  0  0  0  0  0  0  0  0  0  0  0
   -9.2910   -0.8050  -20.8130 H   0  0  0  0  0  0  0  0  0  0  0  0
   -9.7530   -1.4050  -23.4880 H   0  0  0  0  0  0  0  0  0  0  0  0
  -11.0760   -2.2240  -21.5590 H   0  0  0  0  0  0  0  0  0  0  0  0
  -10.7630   -3.5290  -22.7040 H   0  0  0  0  0  0  0  0  0  0  0  0
   -9.8430   -3.4350  -21.1950 H   0  0  0  0  0  0  0  0  0  0  0  0
  1  2  1  0  0  0  0
  1 55  1  0  0  0  0
  1 56  1  0  0  0  0
  1 57  1  0  0  0  0
  2  3  1  0  0  0  0
  2 23  1  0  0  0  0
  2 54  1  6  0  0  0
  3  4  1  0  0  0  0
  3 52  1  0  0  0  0
  3 53  1  0  0  0  0
  4  5  1  0  0  0  0
  4 21  1  0  0  0  0
  5  6  2  0  0  0  0
  5 14  1  0  0  0  0
  6  7  1  0  0  0  0
  6 20  1  0  0  0  0
  7  8  2  0  0  0  0
  8  9  1  0  0  0  0
  8 19  1  0  0  0  0
  9 10  2  0  0  0  0
  9 14  1  0  0  0  0
 10 11  1  0  0  0  0
 10 18  1  0  0  0  0
 11 12  2  0  0  0  0
 11 17  1  0  0  0  0
 12 13  1  0  0  0  0
 12 16  1  0  0  0  0
 13 14  2  0  0  0  0
 13 15  1  0  0  0  0
 21 22  2  0  0  0  0
 23 21  1  1  0  0  0
 23 24  1  0  0  0  0
 23 46  1  0  0  0  0
 24 25  1  0  0  0  0
 24 50  1  0  0  0  0
 24 51  1  0  0  0  0
 25 26  1  0  0  0  0
 25 38  1  0  0  0  0
 26 27  1  0  0  0  0
 26 36  1  0  0  0  0
 26 37  1  0  0  0  0
 27 28  2  0  0  0  0
 27 31  1  0  0  0  0
 28 29  1  0  0  0  0
 28 35  1  0  0  0  0
 29 30  2  0  0  0  0
 29 34  1  0  0  0  0
 30 31  1  0  0  0  0
 30 33  1  0  0  0  0
 31 32  1  0  0  0  0
 38 39  2  0  0  0  0
 38 40  1  0  0  0  0
 40 41  2  0  0  0  0
 40 46  1  0  0  0  0
 41 42  1  0  0  0  0
 41 49  1  0  0  0  0
 42 43  2  0  0  0  0
 42 48  1  0  0  0  0
 43 44  1  0  0  0  0
 43 45  1  0  0  0  0
 45 46  2  0  0  0  0
 45 47  1  0  0  0  0
M  CHG  1  29   1
M  END
>  <MODEL>
       1

$$$$
