tmp_first_model_10_76.pdb
 OpenBabel08272522163D

 66 71  0  0  1  0  0  0  0  0999 V2000
   -8.2100   -3.4590  -24.0830 C   0  0  0  0  0  0  0  0  0  0  0  0
   -8.4680   -2.7210  -22.7670 C   0  0  1  0  0  0  0  0  0  0  0  0
   -7.1850   -2.5160  -21.9420 C   0  0  0  0  0  0  0  0  0  0  0  0
   -7.4640   -1.3240  -21.1680 N   0  0  0  0  0  0  0  0  0  0  0  0
   -6.6370   -0.7890  -20.1490 C   0  0  0  0  0  0  0  0  0  0  0  0
   -6.9280   -1.0530  -18.8350 C   0  0  0  0  0  0  0  0  0  0  0  0
   -6.2070   -0.5870  -17.7860 N   0  0  0  0  0  0  0  0  0  0  0  0
   -5.1970    0.2080  -18.0580 C   0  0  0  0  0  0  0  0  0  0  0  0
   -4.8050    0.5880  -19.3770 C   0  0  0  0  0  0  0  0  0  0  0  0
   -3.6840    1.4260  -19.6270 C   0  0  0  0  0  0  0  0  0  0  0  0
   -3.3810    1.8320  -20.9010 C   0  0  0  0  0  0  0  0  0  0  0  0
   -4.1740    1.3990  -21.9880 C   0  0  0  0  0  0  0  0  0  0  0  0
   -5.1570    0.4550  -21.7860 C   0  0  0  0  0  0  0  0  0  0  0  0
   -5.5380    0.0660  -20.4680 C   0  0  0  0  0  0  0  0  0  0  0  0
   -5.6530    0.0120  -22.6460 H   0  0  0  0  0  0  0  0  0  0  0  0
   -3.9510    1.7620  -22.9900 H   0  0  0  0  0  0  0  0  0  0  0  0
   -2.5270    2.4850  -21.0800 H   0  0  0  0  0  0  0  0  0  0  0  0
   -3.0950    1.7550  -18.7770 H   0  0  0  0  0  0  0  0  0  0  0  0
   -4.6140    0.5830  -17.2150 H   0  0  0  0  0  0  0  0  0  0  0  0
   -7.7910   -1.6690  -18.5890 H   0  0  0  0  0  0  0  0  0  0  0  0
   -8.5230   -0.5890  -21.6380 C   0  0  0  0  0  0  0  0  0  0  0  0
   -8.8900    0.4640  -21.1540 O   0  0  0  0  0  0  0  0  0  0  0  0
   -9.1230   -1.3120  -22.8600 C   0  0  1  0  0  0  0  0  0  0  0  0
   -8.7030   -0.5820  -24.1490 C   0  0  0  0  0  0  0  0  0  0  0  0
   -9.3120    0.7290  -24.2470 N   0  0  0  0  0  0  0  0  0  0  0  0
   -8.5350    1.7780  -24.8740 C   0  0  0  0  0  0  0  0  0  0  0  0
   -7.5560    2.4220  -23.9020 C   0  0  0  0  0  0  0  0  0  0  0  0
   -8.2680    3.2320  -22.8600 N   0  3  0  0  0  0  0  0  0  0  0  0
   -7.4800    3.3370  -21.5990 C   0  0  0  0  0  0  0  0  0  0  0  0
   -6.3300    4.3230  -21.6420 C   0  0  0  0  0  0  0  0  0  0  0  0
   -6.8010    5.6110  -21.9730 O   0  0  0  0  0  0  0  0  0  0  0  0
   -7.4450    5.5970  -23.2300 C   0  0  0  0  0  0  0  0  0  0  0  0
   -8.6470    4.6460  -23.2640 C   0  0  0  0  0  0  0  0  0  0  0  0
   -9.4060    4.9920  -22.5570 H   0  0  0  0  0  0  0  0  0  0  0  0
   -9.0840    4.6360  -24.2640 H   0  0  0  0  0  0  0  0  0  0  0  0
   -6.7230    5.3190  -24.0140 H   0  0  0  0  0  0  0  0  0  0  0  0
   -7.7720    6.6230  -23.4140 H   0  0  0  0  0  0  0  0  0  0  0  0
   -5.8770    4.3970  -20.6480 H   0  0  0  0  0  0  0  0  0  0  0  0
   -5.5510    4.0000  -22.3510 H   0  0  0  0  0  0  0  0  0  0  0  0
   -7.1310    2.3430  -21.3220 H   0  0  0  0  0  0  0  0  0  0  0  0
   -8.1590    3.6800  -20.8190 H   0  0  0  0  0  0  0  0  0  0  0  0
   -9.1250    2.7110  -22.5930 H   0  0  0  0  0  0  0  0  0  0  0  0
   -6.9900    1.6520  -23.3660 H   0  0  0  0  0  0  0  0  0  0  0  0
   -6.8390    3.0430  -24.4400 H   0  0  0  0  0  0  0  0  0  0  0  0
   -7.9820    1.3520  -25.7190 H   0  0  0  0  0  0  0  0  0  0  0  0
   -9.2510    2.5140  -25.2420 H   0  0  0  0  0  0  0  0  0  0  0  0
  -10.6600    0.8850  -24.0990 C   0  0  0  0  0  0  0  0  0  0  0  0
  -11.2660    1.8810  -24.4810 O   0  0  0  0  0  0  0  0  0  0  0  0
  -11.3540   -0.2310  -23.3850 C   0  0  0  0  0  0  0  0  0  0  0  0
  -12.7410   -0.1600  -23.2930 C   0  0  0  0  0  0  0  0  0  0  0  0
  -13.4370   -1.1040  -22.5640 C   0  0  0  0  0  0  0  0  0  0  0  0
  -12.7190   -2.1120  -21.9170 C   0  0  0  0  0  0  0  0  0  0  0  0
  -13.5650   -3.2560  -20.9090 Cl  0  0  0  0  0  0  0  0  0  0  0  0
  -11.3420   -2.2020  -22.0110 C   0  0  0  0  0  0  0  0  0  0  0  0
  -10.6350   -1.2770  -22.7850 C   0  0  0  0  0  0  0  0  0  0  0  0
  -10.8320   -2.9810  -21.4530 H   0  0  0  0  0  0  0  0  0  0  0  0
  -14.5150   -1.0590  -22.4590 H   0  0  0  0  0  0  0  0  0  0  0  0
  -13.2390    0.6670  -23.7920 H   0  0  0  0  0  0  0  0  0  0  0  0
   -7.6150   -0.4640  -24.1760 H   0  0  0  0  0  0  0  0  0  0  0  0
   -9.0020   -1.2050  -25.0030 H   0  0  0  0  0  0  0  0  0  0  0  0
   -6.9710   -3.3620  -21.2800 H   0  0  0  0  0  0  0  0  0  0  0  0
   -6.3180   -2.3750  -22.6060 H   0  0  0  0  0  0  0  0  0  0  0  0
   -9.1440   -3.3330  -22.1690 H   0  0  0  0  0  0  0  0  0  0  0  0
   -9.1170   -3.5730  -24.6890 H   0  0  0  0  0  0  0  0  0  0  0  0
   -7.4680   -2.9290  -24.6920 H   0  0  0  0  0  0  0  0  0  0  0  0
   -7.8120   -4.4630  -23.8980 H   0  0  0  0  0  0  0  0  0  0  0  0
  1  2  1  0  0  0  0
  1 64  1  0  0  0  0
  1 65  1  0  0  0  0
  1 66  1  0  0  0  0
  2  3  1  0  0  0  0
  2 23  1  0  0  0  0
  2 63  1  1  0  0  0
  3  4  1  0  0  0  0
  3 61  1  0  0  0  0
  3 62  1  0  0  0  0
  4  5  1  0  0  0  0
  4 21  1  0  0  0  0
  5  6  2  0  0  0  0
  5 14  1  0  0  0  0
  6  7  1  0  0  0  0
  6 20  1  0  0  0  0
  7  8  2  0  0  0  0
  8  9  1  0  0  0  0
  8 19  1  0  0  0  0
  9 10  2  0  0  0  0
  9 14  1  0  0  0  0
 10 11  1  0  0  0  0
 10 18  1  0  0  0  0
 11 12  2  0  0  0  0
 11 17  1  0  0  0  0
 12 13  1  0  0  0  0
 12 16  1  0  0  0  0
 13 14  2  0  0  0  0
 13 15  1  0  0  0  0
 21 22  2  0  0  0  0
 23 21  1  1  0  0  0
 23 24  1  0  0  0  0
 23 55  1  0  0  0  0
 24 25  1  0  0  0  0
 24 59  1  0  0  0  0
 24 60  1  0  0  0  0
 25 26  1  0  0  0  0
 25 47  1  0  0  0  0
 26 27  1  0  0  0  0
 26 45  1  0  0  0  0
 26 46  1  0  0  0  0
 27 28  1  0  0  0  0
 27 43  1  0  0  0  0
 27 44  1  0  0  0  0
 28 29  1  0  0  0  0
 28 33  1  0  0  0  0
 28 42  1  0  0  0  0
 29 30  1  0  0  0  0
 29 40  1  0  0  0  0
 29 41  1  0  0  0  0
 30 31  1  0  0  0  0
 30 38  1  0  0  0  0
 30 39  1  0  0  0  0
 31 32  1  0  0  0  0
 32 33  1  0  0  0  0
 32 36  1  0  0  0  0
 32 37  1  0  0  0  0
 33 34  1  0  0  0  0
 33 35  1  0  0  0  0
 47 48  2  0  0  0  0
 47 49  1  0  0  0  0
 49 50  2  0  0  0  0
 49 55  1  0  0  0  0
 50 51  1  0  0  0  0
 50 58  1  0  0  0  0
 51 52  2  0  0  0  0
 51 57  1  0  0  0  0
 52 53  1  0  0  0  0
 52 54  1  0  0  0  0
 54 55  2  0  0  0  0
 54 56  1  0  0  0  0
M  CHG  1  28   1
M  END
>  <MODEL>
       1

$$$$
