tmp_first_model_13_51.pdb
 OpenBabel08282500103D

 50 52  0  0  0  0  0  0  0  0999 V2000
   -9.6750   -0.9910  -26.4130 C   0  0  0  0  0  0  0  0  0  0  0  0
   -9.1060   -0.3170  -25.4280 C   0  0  0  0  0  0  0  0  0  0  0  0
   -9.6280   -0.4530  -24.0150 C   0  0  0  0  0  0  0  0  0  0  0  0
   -8.7360   -1.2280  -23.1590 N   0  0  0  0  0  0  0  0  0  0  0  0
   -8.0740   -0.5210  -22.1560 C   0  0  0  0  0  0  0  0  0  0  0  0
   -8.1180    0.6970  -22.0690 O   0  0  0  0  0  0  0  0  0  0  0  0
   -7.3750   -1.3160  -21.2750 N   0  0  0  0  0  0  0  0  0  0  0  0
   -6.6000   -0.7860  -20.2200 C   0  0  0  0  0  0  0  0  0  0  0  0
   -6.9110   -1.0560  -18.9110 C   0  0  0  0  0  0  0  0  0  0  0  0
   -6.2290   -0.5530  -17.8530 N   0  0  0  0  0  0  0  0  0  0  0  0
   -5.1950    0.2130  -18.1010 C   0  0  0  0  0  0  0  0  0  0  0  0
   -4.7480    0.5350  -19.4120 C   0  0  0  0  0  0  0  0  0  0  0  0
   -3.6050    1.3490  -19.6400 C   0  0  0  0  0  0  0  0  0  0  0  0
   -3.1770    1.6050  -20.9160 C   0  0  0  0  0  0  0  0  0  0  0  0
   -3.8710    1.0610  -22.0230 C   0  0  0  0  0  0  0  0  0  0  0  0
   -4.9840    0.2820  -21.8290 C   0  0  0  0  0  0  0  0  0  0  0  0
   -5.4600    0.0160  -20.5110 C   0  0  0  0  0  0  0  0  0  0  0  0
   -5.5100   -0.1470  -22.6750 H   0  0  0  0  0  0  0  0  0  0  0  0
   -3.5310    1.2700  -23.0370 H   0  0  0  0  0  0  0  0  0  0  0  0
   -2.3080    2.2390  -21.0840 H   0  0  0  0  0  0  0  0  0  0  0  0
   -3.0820    1.7560  -18.7780 H   0  0  0  0  0  0  0  0  0  0  0  0
   -4.6420    0.6080  -17.2460 H   0  0  0  0  0  0  0  0  0  0  0  0
   -7.7690   -1.6860  -18.6710 H   0  0  0  0  0  0  0  0  0  0  0  0
   -7.6580   -2.2840  -21.2190 H   0  0  0  0  0  0  0  0  0  0  0  0
   -8.4220   -2.5610  -23.5670 C   0  0  0  0  0  0  0  0  0  0  0  0
   -7.1090   -2.9200  -23.8790 C   0  0  0  0  0  0  0  0  0  0  0  0
   -6.8290   -4.2180  -24.2860 C   0  0  0  0  0  0  0  0  0  0  0  0
   -7.8480   -5.1560  -24.4300 C   0  0  0  0  0  0  0  0  0  0  0  0
   -9.1610   -4.7630  -24.1940 C   0  0  0  0  0  0  0  0  0  0  0  0
  -10.4660   -5.8780  -24.5180 Cl  0  0  0  0  0  0  0  0  0  0  0  0
   -9.4600   -3.4790  -23.7570 C   0  0  0  0  0  0  0  0  0  0  0  0
  -10.4930   -3.2000  -23.5670 H   0  0  0  0  0  0  0  0  0  0  0  0
   -7.6310   -6.1780  -24.7230 H   0  0  0  0  0  0  0  0  0  0  0  0
   -5.8010   -4.4840  -24.5150 H   0  0  0  0  0  0  0  0  0  0  0  0
   -6.3240   -2.1670  -23.8280 H   0  0  0  0  0  0  0  0  0  0  0  0
  -10.5990   -0.9570  -24.0830 H   0  0  0  0  0  0  0  0  0  0  0  0
   -9.7830    0.5000  -23.5060 H   0  0  0  0  0  0  0  0  0  0  0  0
   -7.8740    0.4810  -25.7640 C   0  0  0  0  0  0  0  0  0  0  0  0
   -7.2020    0.2450  -26.7640 O   0  0  0  0  0  0  0  0  0  0  0  0
   -7.5560    1.4920  -24.9250 N   0  0  0  0  0  0  0  0  0  0  0  0
   -6.2360    2.0820  -25.0050 C   0  0  0  0  0  0  0  0  0  0  0  0
   -6.0550    3.1680  -23.9640 C   0  0  0  0  0  0  0  0  0  0  0  0
   -6.7540    3.9920  -24.1310 H   0  0  0  0  0  0  0  0  0  0  0  0
   -5.0330    3.5630  -23.9940 H   0  0  0  0  0  0  0  0  0  0  0  0
   -6.2460    2.7570  -22.9650 H   0  0  0  0  0  0  0  0  0  0  0  0
   -6.1000    2.4540  -26.0200 H   0  0  0  0  0  0  0  0  0  0  0  0
   -5.4850    1.2950  -24.8590 H   0  0  0  0  0  0  0  0  0  0  0  0
   -8.1220    1.6820  -24.1120 H   0  0  0  0  0  0  0  0  0  0  0  0
   -9.3030   -0.9310  -27.4330 H   0  0  0  0  0  0  0  0  0  0  0  0
  -10.5670   -1.5790  -26.2040 H   0  0  0  0  0  0  0  0  0  0  0  0
  1  2  2  0  0  0  0
  1 49  1  0  0  0  0
  1 50  1  0  0  0  0
  2  3  1  0  0  0  0
  2 38  1  0  0  0  0
  3  4  1  0  0  0  0
  3 36  1  0  0  0  0
  3 37  1  0  0  0  0
  4  5  1  0  0  0  0
  4 25  1  0  0  0  0
  5  6  2  0  0  0  0
  5  7  1  0  0  0  0
  7  8  1  0  0  0  0
  7 24  1  0  0  0  0
  8  9  2  0  0  0  0
  8 17  1  0  0  0  0
  9 10  1  0  0  0  0
  9 23  1  0  0  0  0
 10 11  2  0  0  0  0
 11 12  1  0  0  0  0
 11 22  1  0  0  0  0
 12 13  2  0  0  0  0
 12 17  1  0  0  0  0
 13 14  1  0  0  0  0
 13 21  1  0  0  0  0
 14 15  2  0  0  0  0
 14 20  1  0  0  0  0
 15 16  1  0  0  0  0
 15 19  1  0  0  0  0
 16 17  2  0  0  0  0
 16 18  1  0  0  0  0
 25 26  2  0  0  0  0
 25 31  1  0  0  0  0
 26 27  1  0  0  0  0
 26 35  1  0  0  0  0
 27 28  2  0  0  0  0
 27 34  1  0  0  0  0
 28 29  1  0  0  0  0
 28 33  1  0  0  0  0
 29 30  1  0  0  0  0
 29 31  2  0  0  0  0
 31 32  1  0  0  0  0
 38 39  2  0  0  0  0
 38 40  1  0  0  0  0
 40 41  1  0  0  0  0
 40 48  1  0  0  0  0
 41 42  1  0  0  0  0
 41 46  1  0  0  0  0
 41 47  1  0  0  0  0
 42 43  1  0  0  0  0
 42 44  1  0  0  0  0
 42 45  1  0  0  0  0
M  END
>  <MODEL>
       1

$$$$
