tmp_first_model_11_68.pdb
 OpenBabel08272522543D

 65 70  0  0  1  0  0  0  0  0999 V2000
   -9.2290    0.0810  -20.8340 O   0  0  0  0  0  0  0  0  0  0  0  0
   -8.4680   -0.3540  -21.6880 C   0  0  0  0  0  0  0  0  0  0  0  0
   -7.4460   -1.4150  -21.2760 C   0  0  0  0  0  0  0  0  0  0  0  0
   -6.5640   -0.8530  -20.1800 C   0  0  0  0  0  0  0  0  0  0  0  0
   -6.8900   -1.0450  -18.8620 C   0  0  0  0  0  0  0  0  0  0  0  0
   -6.2110   -0.5330  -17.8010 N   0  0  0  0  0  0  0  0  0  0  0  0
   -5.1710    0.2160  -18.0720 C   0  0  0  0  0  0  0  0  0  0  0  0
   -4.7210    0.5170  -19.3870 C   0  0  0  0  0  0  0  0  0  0  0  0
   -3.5980    1.3500  -19.6230 C   0  0  0  0  0  0  0  0  0  0  0  0
   -3.1990    1.6360  -20.9020 C   0  0  0  0  0  0  0  0  0  0  0  0
   -3.9110    1.1010  -21.9970 C   0  0  0  0  0  0  0  0  0  0  0  0
   -5.0040    0.2950  -21.7930 C   0  0  0  0  0  0  0  0  0  0  0  0
   -5.4420   -0.0250  -20.4790 C   0  0  0  0  0  0  0  0  0  0  0  0
   -5.5520   -0.0710  -22.6570 H   0  0  0  0  0  0  0  0  0  0  0  0
   -3.5920    1.3380  -23.0090 H   0  0  0  0  0  0  0  0  0  0  0  0
   -2.3440    2.2810  -21.0780 H   0  0  0  0  0  0  0  0  0  0  0  0
   -3.0750    1.7690  -18.7680 H   0  0  0  0  0  0  0  0  0  0  0  0
   -4.6220    0.6300  -17.2230 H   0  0  0  0  0  0  0  0  0  0  0  0
   -7.7610   -1.6460  -18.6060 H   0  0  0  0  0  0  0  0  0  0  0  0
   -6.8450   -1.7610  -22.1200 H   0  0  0  0  0  0  0  0  0  0  0  0
   -8.0140   -2.2660  -20.8780 H   0  0  0  0  0  0  0  0  0  0  0  0
   -8.4440    0.1500  -22.9800 N   0  0  0  0  0  0  0  0  0  0  0  0
   -8.2470   -0.7050  -24.1510 C   0  0  0  0  0  0  0  0  0  0  0  0
   -9.3780   -1.7020  -24.3380 C   0  0  0  0  0  0  0  0  0  0  0  0
   -9.2510   -3.0090  -23.8670 C   0  0  0  0  0  0  0  0  0  0  0  0
  -10.3070   -3.9070  -23.9740 C   0  0  0  0  0  0  0  0  0  0  0  0
  -11.5130   -3.5160  -24.5400 C   0  0  0  0  0  0  0  0  0  0  0  0
  -11.6430   -2.2100  -24.9960 C   0  0  0  0  0  0  0  0  0  0  0  0
  -13.1780   -1.7030  -25.6540 Cl  0  0  0  0  0  0  0  0  0  0  0  0
  -10.5860   -1.3090  -24.9200 C   0  0  0  0  0  0  0  0  0  0  0  0
  -10.7250   -0.3100  -25.3340 H   0  0  0  0  0  0  0  0  0  0  0  0
  -12.3420   -4.2110  -24.6320 H   0  0  0  0  0  0  0  0  0  0  0  0
  -10.1920   -4.9260  -23.6110 H   0  0  0  0  0  0  0  0  0  0  0  0
   -8.3140   -3.3350  -23.4170 H   0  0  0  0  0  0  0  0  0  0  0  0
   -8.1750   -0.0600  -25.0300 H   0  0  0  0  0  0  0  0  0  0  0  0
   -7.2910   -1.2350  -24.0630 H   0  0  0  0  0  0  0  0  0  0  0  0
   -8.8300    1.5520  -23.1140 C   0  0  2  0  0  0  0  0  0  0  0  0
  -10.3040    1.9150  -22.8090 C   0  0  0  0  0  0  0  0  0  0  0  0
  -10.4520    3.3210  -23.4430 C   0  0  0  0  0  0  0  0  0  0  0  0
   -9.0670    3.5900  -24.0220 C   0  0  2  0  0  0  0  0  0  0  0  0
   -8.6200    2.2090  -24.4880 C   0  0  0  0  0  0  0  0  0  0  0  0
   -7.5720    2.1690  -24.8120 H   0  0  0  0  0  0  0  0  0  0  0  0
   -9.2760    1.8100  -25.2700 H   0  0  0  0  0  0  0  0  0  0  0  0
   -8.1050    3.8430  -22.8370 N   0  3  2  0  0  0  0  0  0  0  0  0
   -6.8260    4.4560  -23.3110 C   0  0  0  0  0  0  0  0  0  0  0  0
   -6.9510    5.9570  -23.2300 C   0  0  0  0  0  0  0  0  0  0  0  0
   -5.7730    6.8770  -23.5270 C   0  0  0  0  0  0  0  0  0  0  0  0
   -6.0080    7.6110  -22.3090 O   0  0  0  0  0  0  0  0  0  0  0  0
   -6.8120    6.5240  -21.8210 C   0  0  0  0  0  0  0  0  0  0  0  0
   -6.2340    5.8540  -21.1640 H   0  0  0  0  0  0  0  0  0  0  0  0
   -7.7400    6.8190  -21.3260 H   0  0  0  0  0  0  0  0  0  0  0  0
   -5.8330    7.5250  -24.4060 H   0  0  0  0  0  0  0  0  0  0  0  0
   -4.8120    6.3410  -23.4960 H   0  0  0  0  0  0  0  0  0  0  0  0
   -7.8750    6.3150  -23.6900 H   0  0  0  0  0  0  0  0  0  0  0  0
   -6.6010    4.0990  -24.3170 H   0  0  0  0  0  0  0  0  0  0  0  0
   -5.9920    4.1340  -22.6840 H   0  0  0  0  0  0  0  0  0  0  0  0
   -7.9700    2.4770  -22.2110 C   0  0  0  0  0  0  0  0  0  0  0  0
   -8.3410    2.5090  -21.1870 H   0  0  0  0  0  0  0  0  0  0  0  0
   -6.9210    2.1710  -22.1930 H   0  0  0  0  0  0  0  0  0  0  0  0
   -8.5040    4.5020  -22.1460 H   0  0  0  0  0  0  0  0  0  0  0  0
   -9.0120    4.4060  -24.7390 H   0  0  0  0  0  0  0  0  0  0  0  0
  -10.7380    4.0940  -22.7220 H   0  0  0  0  0  0  0  0  0  0  0  0
  -11.1930    3.3180  -24.2450 H   0  0  0  0  0  0  0  0  0  0  0  0
  -10.5050    1.9090  -21.7390 H   0  0  0  0  0  0  0  0  0  0  0  0
  -10.9610    1.1840  -23.2890 H   0  0  0  0  0  0  0  0  0  0  0  0
  1  2  2  0  0  0  0
  2  3  1  0  0  0  0
  2 22  1  0  0  0  0
  3  4  1  0  0  0  0
  3 20  1  0  0  0  0
  3 21  1  0  0  0  0
  4  5  2  0  0  0  0
  4 13  1  0  0  0  0
  5  6  1  0  0  0  0
  5 19  1  0  0  0  0
  6  7  2  0  0  0  0
  7  8  1  0  0  0  0
  7 18  1  0  0  0  0
  8  9  2  0  0  0  0
  8 13  1  0  0  0  0
  9 10  1  0  0  0  0
  9 17  1  0  0  0  0
 10 11  2  0  0  0  0
 10 16  1  0  0  0  0
 11 12  1  0  0  0  0
 11 15  1  0  0  0  0
 12 13  2  0  0  0  0
 12 14  1  0  0  0  0
 22 23  1  0  0  0  0
 23 24  1  0  0  0  0
 23 35  1  0  0  0  0
 23 36  1  0  0  0  0
 24 25  2  0  0  0  0
 24 30  1  0  0  0  0
 25 26  1  0  0  0  0
 25 34  1  0  0  0  0
 26 27  2  0  0  0  0
 26 33  1  0  0  0  0
 27 28  1  0  0  0  0
 27 32  1  0  0  0  0
 28 29  1  0  0  0  0
 28 30  2  0  0  0  0
 30 31  1  0  0  0  0
 37 22  1  1  0  0  0
 37 38  1  0  0  0  0
 37 41  1  0  0  0  0
 37 57  1  0  0  0  0
 38 39  1  0  0  0  0
 38 64  1  0  0  0  0
 38 65  1  0  0  0  0
 39 40  1  0  0  0  0
 39 62  1  0  0  0  0
 39 63  1  0  0  0  0
 40 41  1  0  0  0  0
 40 44  1  0  0  0  0
 40 61  1  6  0  0  0
 41 42  1  0  0  0  0
 41 43  1  0  0  0  0
 44 45  1  0  0  0  0
 44 57  1  0  0  0  0
 44 60  1  1  0  0  0
 45 46  1  0  0  0  0
 45 55  1  0  0  0  0
 45 56  1  0  0  0  0
 46 47  1  0  0  0  0
 46 49  1  0  0  0  0
 46 54  1  0  0  0  0
 47 48  1  0  0  0  0
 47 52  1  0  0  0  0
 47 53  1  0  0  0  0
 48 49  1  0  0  0  0
 49 50  1  0  0  0  0
 49 51  1  0  0  0  0
 57 58  1  0  0  0  0
 57 59  1  0  0  0  0
M  CHG  1  44   1
M  END
>  <MODEL>
       1

$$$$
