tmp_first_model_12_97.pdb
 OpenBabel08272523333D

 40 43  0  0  1  0  0  0  0  0999 V2000
   -9.7160   -5.3000  -23.4920 C   0  0  0  0  0  0  0  0  0  0  0  0
  -10.6610   -4.3390  -22.7610 C   0  0  2  0  0  0  0  0  0  0  0  0
  -11.4440   -3.4860  -23.7530 C   0  0  0  0  0  0  0  0  0  0  0  0
  -10.5710   -2.6330  -24.4600 O   0  0  0  0  0  0  0  0  0  0  0  0
   -9.9120   -1.7100  -23.6190 C   0  0  0  0  0  0  0  0  0  0  0  0
   -9.0920   -2.3580  -22.4800 C   0  0  1  0  0  0  0  0  0  0  0  0
  -10.0100   -3.3700  -21.7760 C   0  0  0  0  0  0  0  0  0  0  0  0
  -10.8210   -2.7810  -21.3290 H   0  0  0  0  0  0  0  0  0  0  0  0
   -9.4770   -3.8720  -20.9590 H   0  0  0  0  0  0  0  0  0  0  0  0
   -7.7870   -2.8980  -22.8770 N   0  0  0  0  0  0  0  0  0  0  0  0
   -6.7670   -2.5130  -22.0310 C   0  0  0  0  0  0  0  0  0  0  0  0
   -5.6410   -2.9410  -21.9520 O   0  0  0  0  0  0  0  0  0  0  0  0
   -7.3060   -1.4770  -21.2460 N   0  0  0  0  0  0  0  0  0  0  0  0
   -6.6000   -0.8270  -20.2050 C   0  0  0  0  0  0  0  0  0  0  0  0
   -6.9460   -1.0690  -18.9000 C   0  0  0  0  0  0  0  0  0  0  0  0
   -6.2740   -0.5700  -17.8350 N   0  0  0  0  0  0  0  0  0  0  0  0
   -5.2340    0.1870  -18.0830 C   0  0  0  0  0  0  0  0  0  0  0  0
   -4.7930    0.5400  -19.3910 C   0  0  0  0  0  0  0  0  0  0  0  0
   -3.6720    1.3810  -19.5990 C   0  0  0  0  0  0  0  0  0  0  0  0
   -3.3490    1.7870  -20.8640 C   0  0  0  0  0  0  0  0  0  0  0  0
   -4.1450    1.3980  -21.9670 C   0  0  0  0  0  0  0  0  0  0  0  0
   -5.2180    0.5600  -21.7940 C   0  0  0  0  0  0  0  0  0  0  0  0
   -5.5360    0.0740  -20.4960 C   0  0  0  0  0  0  0  0  0  0  0  0
   -5.8340    0.2660  -22.6410 H   0  0  0  0  0  0  0  0  0  0  0  0
   -3.8920    1.7570  -22.9610 H   0  0  0  0  0  0  0  0  0  0  0  0
   -2.4930    2.4370  -21.0270 H   0  0  0  0  0  0  0  0  0  0  0  0
   -3.1120    1.7180  -18.7290 H   0  0  0  0  0  0  0  0  0  0  0  0
   -4.6920    0.5790  -17.2240 H   0  0  0  0  0  0  0  0  0  0  0  0
   -7.7940   -1.7070  -18.6770 H   0  0  0  0  0  0  0  0  0  0  0  0
   -8.6620   -1.2860  -21.4890 C   0  0  0  0  0  0  0  0  0  0  0  0
   -9.3590   -0.4230  -21.0050 O   0  0  0  0  0  0  0  0  0  0  0  0
   -7.7360   -3.8430  -23.2410 H   0  0  0  0  0  0  0  0  0  0  0  0
   -9.2410   -1.1340  -24.2610 H   0  0  0  0  0  0  0  0  0  0  0  0
  -10.6530   -1.0450  -23.1490 H   0  0  0  0  0  0  0  0  0  0  0  0
  -12.2230   -2.9050  -23.2240 H   0  0  0  0  0  0  0  0  0  0  0  0
  -11.9390   -4.1100  -24.5020 H   0  0  0  0  0  0  0  0  0  0  0  0
  -11.3770   -4.9430  -22.2010 H   0  0  0  0  0  0  0  0  0  0  0  0
   -9.1190   -4.8000  -24.2620 H   0  0  0  0  0  0  0  0  0  0  0  0
  -10.3230   -6.0480  -24.0110 H   0  0  0  0  0  0  0  0  0  0  0  0
   -9.0670   -5.8350  -22.7870 H   0  0  0  0  0  0  0  0  0  0  0  0
  1  2  1  0  0  0  0
  1 38  1  0  0  0  0
  1 39  1  0  0  0  0
  1 40  1  0  0  0  0
  2  3  1  0  0  0  0
  2  7  1  0  0  0  0
  2 37  1  1  0  0  0
  3  4  1  0  0  0  0
  3 35  1  0  0  0  0
  3 36  1  0  0  0  0
  4  5  1  0  0  0  0
  5  6  1  0  0  0  0
  5 33  1  0  0  0  0
  5 34  1  0  0  0  0
  6  7  1  0  0  0  0
  6 10  1  0  0  0  0
  6 30  1  1  0  0  0
  7  8  1  0  0  0  0
  7  9  1  0  0  0  0
 10 11  1  0  0  0  0
 10 32  1  0  0  0  0
 11 12  2  0  0  0  0
 11 13  1  0  0  0  0
 13 14  1  0  0  0  0
 13 30  1  0  0  0  0
 14 15  2  0  0  0  0
 14 23  1  0  0  0  0
 15 16  1  0  0  0  0
 15 29  1  0  0  0  0
 16 17  2  0  0  0  0
 17 18  1  0  0  0  0
 17 28  1  0  0  0  0
 18 19  2  0  0  0  0
 18 23  1  0  0  0  0
 19 20  1  0  0  0  0
 19 27  1  0  0  0  0
 20 21  2  0  0  0  0
 20 26  1  0  0  0  0
 21 22  1  0  0  0  0
 21 25  1  0  0  0  0
 22 23  2  0  0  0  0
 22 24  1  0  0  0  0
 30 31  2  0  0  0  0
M  END
>  <MODEL>
       1

$$$$
