tmp_first_model_14_72.pdb
 OpenBabel08282500413D

 41 44  0  0  0  0  0  0  0  0999 V2000
   -8.6910    0.6940  -21.2850 O   0  0  0  0  0  0  0  0  0  0  0  0
   -8.6450   -0.4480  -21.7210 C   0  0  0  0  0  0  0  0  0  0  0  0
   -7.5100   -1.4010  -21.3160 C   0  0  0  0  0  0  0  0  0  0  0  0
   -6.6340   -0.8110  -20.2460 C   0  0  0  0  0  0  0  0  0  0  0  0
   -6.9680   -0.9830  -18.9310 C   0  0  0  0  0  0  0  0  0  0  0  0
   -6.3040   -0.4600  -17.8690 N   0  0  0  0  0  0  0  0  0  0  0  0
   -5.2460    0.2660  -18.1320 C   0  0  0  0  0  0  0  0  0  0  0  0
   -4.7770    0.5400  -19.4430 C   0  0  0  0  0  0  0  0  0  0  0  0
   -3.6290    1.3390  -19.6690 C   0  0  0  0  0  0  0  0  0  0  0  0
   -3.2290    1.6260  -20.9440 C   0  0  0  0  0  0  0  0  0  0  0  0
   -3.9610    1.1250  -22.0420 C   0  0  0  0  0  0  0  0  0  0  0  0
   -5.0720    0.3430  -21.8490 C   0  0  0  0  0  0  0  0  0  0  0  0
   -5.5040    0.0110  -20.5380 C   0  0  0  0  0  0  0  0  0  0  0  0
   -5.6330   -0.0200  -22.7060 H   0  0  0  0  0  0  0  0  0  0  0  0
   -3.6360    1.3670  -23.0490 H   0  0  0  0  0  0  0  0  0  0  0  0
   -2.3630    2.2580  -21.1150 H   0  0  0  0  0  0  0  0  0  0  0  0
   -3.0870    1.7260  -18.8100 H   0  0  0  0  0  0  0  0  0  0  0  0
   -4.7100    0.6790  -17.2780 H   0  0  0  0  0  0  0  0  0  0  0  0
   -7.8390   -1.5860  -18.6780 H   0  0  0  0  0  0  0  0  0  0  0  0
   -7.9590   -2.3370  -20.9460 H   0  0  0  0  0  0  0  0  0  0  0  0
   -6.9180   -1.6640  -22.2010 H   0  0  0  0  0  0  0  0  0  0  0  0
   -9.6110   -0.9530  -22.5610 N   0  0  0  0  0  0  0  0  0  0  0  0
   -9.5610   -2.2630  -23.2250 C   0  0  0  0  0  0  0  0  0  0  0  0
  -10.2950   -3.3620  -22.4410 C   0  0  0  0  0  0  0  0  0  0  0  0
  -11.5270   -2.7930  -21.7100 C   0  0  0  0  0  0  0  0  0  0  0  0
  -12.4210   -1.8700  -22.5160 C   0  0  0  0  0  0  0  0  0  0  0  0
  -14.1370   -2.1200  -22.6490 S   0  0  0  0  0  0  0  0  0  0  0  0
  -14.3440   -0.6410  -23.5040 C   0  0  0  0  0  0  0  0  0  0  0  0
  -13.1680    0.0160  -23.6660 C   0  0  0  0  0  0  0  0  0  0  0  0
  -12.0530   -0.6710  -23.0680 C   0  0  0  0  0  0  0  0  0  0  0  0
  -10.6790   -0.0360  -22.9490 C   0  0  0  0  0  0  0  0  0  0  0  0
  -10.4040    0.4630  -23.8920 H   0  0  0  0  0  0  0  0  0  0  0  0
  -10.7200    0.7600  -22.1930 H   0  0  0  0  0  0  0  0  0  0  0  0
  -13.1210    0.9650  -24.1920 H   0  0  0  0  0  0  0  0  0  0  0  0
  -15.3330   -0.2770  -23.7590 H   0  0  0  0  0  0  0  0  0  0  0  0
  -12.1190   -3.5780  -21.2290 H   0  0  0  0  0  0  0  0  0  0  0  0
  -11.1120   -2.1610  -20.9130 H   0  0  0  0  0  0  0  0  0  0  0  0
   -9.6370   -3.8180  -21.6910 H   0  0  0  0  0  0  0  0  0  0  0  0
  -10.5620   -4.1740  -23.1310 H   0  0  0  0  0  0  0  0  0  0  0  0
  -10.0950   -2.1550  -24.1750 H   0  0  0  0  0  0  0  0  0  0  0  0
   -8.5240   -2.5630  -23.4440 H   0  0  0  0  0  0  0  0  0  0  0  0
  1  2  2  0  0  0  0
  2  3  1  0  0  0  0
  2 22  1  0  0  0  0
  3  4  1  0  0  0  0
  3 20  1  0  0  0  0
  3 21  1  0  0  0  0
  4  5  2  0  0  0  0
  4 13  1  0  0  0  0
  5  6  1  0  0  0  0
  5 19  1  0  0  0  0
  6  7  2  0  0  0  0
  7  8  1  0  0  0  0
  7 18  1  0  0  0  0
  8  9  2  0  0  0  0
  8 13  1  0  0  0  0
  9 10  1  0  0  0  0
  9 17  1  0  0  0  0
 10 11  2  0  0  0  0
 10 16  1  0  0  0  0
 11 12  1  0  0  0  0
 11 15  1  0  0  0  0
 12 13  2  0  0  0  0
 12 14  1  0  0  0  0
 22 23  1  0  0  0  0
 22 31  1  0  0  0  0
 23 24  1  0  0  0  0
 23 40  1  0  0  0  0
 23 41  1  0  0  0  0
 24 25  1  0  0  0  0
 24 38  1  0  0  0  0
 24 39  1  0  0  0  0
 25 26  1  0  0  0  0
 25 36  1  0  0  0  0
 25 37  1  0  0  0  0
 26 27  1  0  0  0  0
 26 30  2  0  0  0  0
 27 28  1  0  0  0  0
 28 29  2  0  0  0  0
 28 35  1  0  0  0  0
 29 30  1  0  0  0  0
 29 34  1  0  0  0  0
 30 31  1  0  0  0  0
 31 32  1  0  0  0  0
 31 33  1  0  0  0  0
M  END
>  <MODEL>
       1

$$$$
