tmp_first_model_7_90.pdb
 OpenBabel08272520323D

 64 68  0  0  1  0  0  0  0  0999 V2000
   -7.6100    3.1790  -21.8920 C   0  0  0  0  0  0  0  0  0  0  0  0
   -8.7400    2.7030  -22.6760 N   0  0  0  0  0  0  0  0  0  0  0  0
   -8.4080    1.9000  -23.7300 C   0  0  0  0  0  0  0  0  0  0  0  0
   -7.2400    1.6570  -24.0120 O   0  0  0  0  0  0  0  0  0  0  0  0
   -9.5440    1.2920  -24.5410 C   0  0  0  0  0  0  0  0  0  0  0  0
  -10.0120    0.0890  -23.8930 N   0  0  0  0  0  0  0  0  0  0  0  0
   -9.1710   -1.1000  -23.9240 C   0  0  0  0  0  0  0  0  0  0  0  0
   -9.2710   -1.8740  -22.5830 C   0  0  2  0  0  0  0  0  0  0  0  0
   -8.6770   -0.9800  -21.4670 C   0  0  0  0  0  0  0  0  0  0  0  0
   -9.2050   -0.0170  -20.9470 O   0  0  0  0  0  0  0  0  0  0  0  0
   -7.4020   -1.4270  -21.1840 N   0  0  0  0  0  0  0  0  0  0  0  0
   -6.6120   -0.8300  -20.1730 C   0  0  0  0  0  0  0  0  0  0  0  0
   -6.9220   -1.0470  -18.8530 C   0  0  0  0  0  0  0  0  0  0  0  0
   -6.2130   -0.5550  -17.8120 N   0  0  0  0  0  0  0  0  0  0  0  0
   -5.1740    0.1930  -18.0870 C   0  0  0  0  0  0  0  0  0  0  0  0
   -4.7460    0.5080  -19.4070 C   0  0  0  0  0  0  0  0  0  0  0  0
   -3.6240    1.3440  -19.6480 C   0  0  0  0  0  0  0  0  0  0  0  0
   -3.2550    1.6560  -20.9270 C   0  0  0  0  0  0  0  0  0  0  0  0
   -3.9920    1.1540  -22.0220 C   0  0  0  0  0  0  0  0  0  0  0  0
   -5.0840    0.3420  -21.8160 C   0  0  0  0  0  0  0  0  0  0  0  0
   -5.4840   -0.0120  -20.4980 C   0  0  0  0  0  0  0  0  0  0  0  0
   -5.6630    0.0080  -22.6720 H   0  0  0  0  0  0  0  0  0  0  0  0
   -3.6950    1.4150  -23.0330 H   0  0  0  0  0  0  0  0  0  0  0  0
   -2.4020    2.3040  -21.1040 H   0  0  0  0  0  0  0  0  0  0  0  0
   -3.0890    1.7460  -18.7920 H   0  0  0  0  0  0  0  0  0  0  0  0
   -4.6080    0.5970  -17.2460 H   0  0  0  0  0  0  0  0  0  0  0  0
   -7.7830   -1.6620  -18.6020 H   0  0  0  0  0  0  0  0  0  0  0  0
   -6.9860   -2.5710  -21.9690 C   0  0  0  0  0  0  0  0  0  0  0  0
   -8.3230   -3.1010  -22.5250 C   0  0  2  0  0  0  0  0  0  0  0  0
   -8.1880   -3.9030  -23.8190 C   0  0  0  0  0  0  0  0  0  0  0  0
   -7.4080   -5.4800  -23.5090 S   0  0  0  0  0  0  0  0  0  0  0  0
   -8.2550   -6.2450  -22.6000 O   0  0  0  0  0  0  0  0  0  0  0  0
   -6.0130   -5.2750  -23.1480 O   0  0  0  0  0  0  0  0  0  0  0  0
   -7.3810   -6.1320  -25.0490 N   0  0  0  0  0  0  0  0  0  0  0  0
   -8.6170   -6.6620  -25.6220 C   0  0  0  0  0  0  0  0  0  0  0  0
   -9.2690   -5.8420  -25.9450 H   0  0  0  0  0  0  0  0  0  0  0  0
   -9.1630   -7.3190  -24.9340 H   0  0  0  0  0  0  0  0  0  0  0  0
   -8.3480   -7.2260  -26.5190 H   0  0  0  0  0  0  0  0  0  0  0  0
   -6.5830   -6.7580  -25.1040 H   0  0  0  0  0  0  0  0  0  0  0  0
   -7.5860   -3.3880  -24.5740 H   0  0  0  0  0  0  0  0  0  0  0  0
   -9.1710   -4.1120  -24.2500 H   0  0  0  0  0  0  0  0  0  0  0  0
   -8.7150   -3.7880  -21.7720 H   0  0  0  0  0  0  0  0  0  0  0  0
   -6.4840   -3.3150  -21.3450 H   0  0  0  0  0  0  0  0  0  0  0  0
   -6.2920   -2.2830  -22.7750 H   0  0  0  0  0  0  0  0  0  0  0  0
  -10.7470   -2.1480  -22.3420 C   0  0  0  0  0  0  0  0  0  0  0  0
  -11.2130   -3.2510  -21.6220 C   0  0  0  0  0  0  0  0  0  0  0  0
  -12.5580   -3.3350  -21.3150 C   0  0  0  0  0  0  0  0  0  0  0  0
  -12.9700   -4.2820  -20.4600 F   0  0  0  0  0  0  0  0  0  0  0  0
  -13.5100   -2.4530  -21.8010 C   0  0  0  0  0  0  0  0  0  0  0  0
  -13.0600   -1.3740  -22.5300 C   0  0  0  0  0  0  0  0  0  0  0  0
  -11.6950   -1.1860  -22.7320 C   0  0  0  0  0  0  0  0  0  0  0  0
  -11.2420    0.1140  -23.3120 C   0  0  0  0  0  0  0  0  0  0  0  0
  -11.9160    1.1380  -23.2650 O   0  0  0  0  0  0  0  0  0  0  0  0
  -13.7500   -0.6410  -22.9280 H   0  0  0  0  0  0  0  0  0  0  0  0
  -14.5550   -2.6020  -21.5570 H   0  0  0  0  0  0  0  0  0  0  0  0
  -10.5600   -4.0260  -21.2390 H   0  0  0  0  0  0  0  0  0  0  0  0
   -9.4870   -1.7510  -24.7510 H   0  0  0  0  0  0  0  0  0  0  0  0
   -8.1390   -0.7750  -24.1030 H   0  0  0  0  0  0  0  0  0  0  0  0
  -10.3930    1.9710  -24.6390 H   0  0  0  0  0  0  0  0  0  0  0  0
   -9.1560    1.0410  -25.5330 H   0  0  0  0  0  0  0  0  0  0  0  0
   -9.6160    2.5690  -22.1780 H   0  0  0  0  0  0  0  0  0  0  0  0
   -7.9270    3.9190  -21.1530 H   0  0  0  0  0  0  0  0  0  0  0  0
   -7.0910    2.3340  -21.4100 H   0  0  0  0  0  0  0  0  0  0  0  0
   -6.9060    3.6610  -22.5730 H   0  0  0  0  0  0  0  0  0  0  0  0
  1  2  1  0  0  0  0
  1 62  1  0  0  0  0
  1 63  1  0  0  0  0
  1 64  1  0  0  0  0
  2  3  1  0  0  0  0
  2 61  1  0  0  0  0
  3  4  2  0  0  0  0
  3  5  1  0  0  0  0
  5  6  1  0  0  0  0
  5 59  1  0  0  0  0
  5 60  1  0  0  0  0
  6  7  1  0  0  0  0
  6 52  1  0  0  0  0
  7  8  1  0  0  0  0
  7 57  1  0  0  0  0
  7 58  1  0  0  0  0
  8  9  1  1  0  0  0
  8 29  1  0  0  0  0
  8 45  1  0  0  0  0
  9 10  2  0  0  0  0
  9 11  1  0  0  0  0
 11 12  1  0  0  0  0
 11 28  1  0  0  0  0
 12 13  2  0  0  0  0
 12 21  1  0  0  0  0
 13 14  1  0  0  0  0
 13 27  1  0  0  0  0
 14 15  2  0  0  0  0
 15 16  1  0  0  0  0
 15 26  1  0  0  0  0
 16 17  2  0  0  0  0
 16 21  1  0  0  0  0
 17 18  1  0  0  0  0
 17 25  1  0  0  0  0
 18 19  2  0  0  0  0
 18 24  1  0  0  0  0
 19 20  1  0  0  0  0
 19 23  1  0  0  0  0
 20 21  2  0  0  0  0
 20 22  1  0  0  0  0
 28 29  1  0  0  0  0
 28 43  1  0  0  0  0
 28 44  1  0  0  0  0
 29 30  1  0  0  0  0
 29 42  1  1  0  0  0
 30 31  1  0  0  0  0
 30 40  1  0  0  0  0
 30 41  1  0  0  0  0
 31 32  2  0  0  0  0
 31 33  2  0  0  0  0
 31 34  1  0  0  0  0
 34 35  1  0  0  0  0
 34 39  1  0  0  0  0
 35 36  1  0  0  0  0
 35 37  1  0  0  0  0
 35 38  1  0  0  0  0
 45 46  2  0  0  0  0
 45 51  1  0  0  0  0
 46 47  1  0  0  0  0
 46 56  1  0  0  0  0
 47 48  1  0  0  0  0
 47 49  2  0  0  0  0
 49 50  1  0  0  0  0
 49 55  1  0  0  0  0
 50 51  2  0  0  0  0
 50 54  1  0  0  0  0
 51 52  1  0  0  0  0
 52 53  2  0  0  0  0
M  END
>  <MODEL>
       1

$$$$
