tmp_first_model_14_76.pdb
 OpenBabel08282500413D

 66 71  0  0  1  0  0  0  0  0999 V2000
   -8.1120   -3.8220  -23.9130 C   0  0  0  0  0  0  0  0  0  0  0  0
   -8.3370   -3.0300  -22.6240 C   0  0  1  0  0  0  0  0  0  0  0  0
   -7.0210   -2.5980  -21.9390 C   0  0  0  0  0  0  0  0  0  0  0  0
   -7.4010   -1.4080  -21.1980 N   0  0  0  0  0  0  0  0  0  0  0  0
   -6.6080   -0.8090  -20.1820 C   0  0  0  0  0  0  0  0  0  0  0  0
   -6.9150   -1.0270  -18.8620 C   0  0  0  0  0  0  0  0  0  0  0  0
   -6.2170   -0.5120  -17.8250 N   0  0  0  0  0  0  0  0  0  0  0  0
   -5.1700    0.2260  -18.0920 C   0  0  0  0  0  0  0  0  0  0  0  0
   -4.7300    0.5320  -19.4090 C   0  0  0  0  0  0  0  0  0  0  0  0
   -3.6020    1.3630  -19.6450 C   0  0  0  0  0  0  0  0  0  0  0  0
   -3.2140    1.6550  -20.9240 C   0  0  0  0  0  0  0  0  0  0  0  0
   -3.9360    1.1250  -22.0160 C   0  0  0  0  0  0  0  0  0  0  0  0
   -5.0310    0.3160  -21.8130 C   0  0  0  0  0  0  0  0  0  0  0  0
   -5.4650   -0.0010  -20.4960 C   0  0  0  0  0  0  0  0  0  0  0  0
   -5.5780   -0.0760  -22.6650 H   0  0  0  0  0  0  0  0  0  0  0  0
   -3.6320    1.3710  -23.0310 H   0  0  0  0  0  0  0  0  0  0  0  0
   -2.3660    2.3100  -21.1050 H   0  0  0  0  0  0  0  0  0  0  0  0
   -3.0770    1.7760  -18.7880 H   0  0  0  0  0  0  0  0  0  0  0  0
   -4.6150    0.6200  -17.2400 H   0  0  0  0  0  0  0  0  0  0  0  0
   -7.7570   -1.6620  -18.5950 H   0  0  0  0  0  0  0  0  0  0  0  0
   -8.6360   -0.9080  -21.5390 C   0  0  0  0  0  0  0  0  0  0  0  0
   -9.1650    0.0400  -20.9920 O   0  0  0  0  0  0  0  0  0  0  0  0
   -9.1820   -1.7300  -22.7390 C   0  0  1  0  0  0  0  0  0  0  0  0
   -8.8870   -0.9660  -24.0640 C   0  0  0  0  0  0  0  0  0  0  0  0
   -9.6100    0.2910  -24.1530 N   0  0  0  0  0  0  0  0  0  0  0  0
   -8.8750    1.5050  -24.4880 C   0  0  0  0  0  0  0  0  0  0  0  0
   -8.2730    2.1680  -23.2460 C   0  0  0  0  0  0  0  0  0  0  0  0
   -7.5970    3.4750  -23.5230 N   0  3  0  0  0  0  0  0  0  0  0  0
   -6.3400    3.3530  -24.3710 C   0  0  0  0  0  0  0  0  0  0  0  0
   -5.6260    4.6970  -24.4880 C   0  0  0  0  0  0  0  0  0  0  0  0
   -5.3540    5.2810  -23.2340 O   0  0  0  0  0  0  0  0  0  0  0  0
   -6.5740    5.5220  -22.5630 C   0  0  0  0  0  0  0  0  0  0  0  0
   -7.2740    4.2070  -22.2350 C   0  0  0  0  0  0  0  0  0  0  0  0
   -8.2090    4.3720  -21.6920 H   0  0  0  0  0  0  0  0  0  0  0  0
   -6.6340    3.5490  -21.6360 H   0  0  0  0  0  0  0  0  0  0  0  0
   -7.2430    6.1070  -23.2130 H   0  0  0  0  0  0  0  0  0  0  0  0
   -6.3460    6.1400  -21.6940 H   0  0  0  0  0  0  0  0  0  0  0  0
   -4.6670    4.5830  -25.0010 H   0  0  0  0  0  0  0  0  0  0  0  0
   -6.2530    5.3920  -25.0710 H   0  0  0  0  0  0  0  0  0  0  0  0
   -5.6730    2.6230  -23.8990 H   0  0  0  0  0  0  0  0  0  0  0  0
   -6.6110    2.9940  -25.3680 H   0  0  0  0  0  0  0  0  0  0  0  0
   -8.2860    4.0680  -24.0310 H   0  0  0  0  0  0  0  0  0  0  0  0
   -9.0660    2.3400  -22.5110 H   0  0  0  0  0  0  0  0  0  0  0  0
   -7.5400    1.4900  -22.7910 H   0  0  0  0  0  0  0  0  0  0  0  0
   -9.5530    2.1900  -25.0030 H   0  0  0  0  0  0  0  0  0  0  0  0
   -8.0880    1.2140  -25.1900 H   0  0  0  0  0  0  0  0  0  0  0  0
  -10.8710    0.4120  -23.6500 C   0  0  0  0  0  0  0  0  0  0  0  0
  -11.4470    1.4910  -23.5540 O   0  0  0  0  0  0  0  0  0  0  0  0
  -11.4940   -0.8650  -23.1570 C   0  0  0  0  0  0  0  0  0  0  0  0
  -12.8830   -0.9370  -23.0860 C   0  0  0  0  0  0  0  0  0  0  0  0
  -13.4910   -1.9670  -22.3990 C   0  0  0  0  0  0  0  0  0  0  0  0
  -12.6870   -2.9170  -21.7720 C   0  0  0  0  0  0  0  0  0  0  0  0
  -13.4820   -4.1000  -20.7740 Cl  0  0  0  0  0  0  0  0  0  0  0  0
  -11.3060   -2.9060  -21.8960 C   0  0  0  0  0  0  0  0  0  0  0  0
  -10.6880   -1.8880  -22.6390 C   0  0  0  0  0  0  0  0  0  0  0  0
  -10.7300   -3.6480  -21.3530 H   0  0  0  0  0  0  0  0  0  0  0  0
  -14.5690   -2.0070  -22.2770 H   0  0  0  0  0  0  0  0  0  0  0  0
  -13.4550   -0.1310  -23.5290 H   0  0  0  0  0  0  0  0  0  0  0  0
   -7.8220   -0.7260  -24.1240 H   0  0  0  0  0  0  0  0  0  0  0  0
   -9.1420   -1.6220  -24.9100 H   0  0  0  0  0  0  0  0  0  0  0  0
   -6.2350   -2.3800  -22.6800 H   0  0  0  0  0  0  0  0  0  0  0  0
   -6.6250   -3.3640  -21.2600 H   0  0  0  0  0  0  0  0  0  0  0  0
   -8.8720   -3.6630  -21.9110 H   0  0  0  0  0  0  0  0  0  0  0  0
   -7.6030   -4.7710  -23.7100 H   0  0  0  0  0  0  0  0  0  0  0  0
   -7.4850   -3.2590  -24.6160 H   0  0  0  0  0  0  0  0  0  0  0  0
   -9.0570   -4.0470  -24.4190 H   0  0  0  0  0  0  0  0  0  0  0  0
  1  2  1  0  0  0  0
  1 64  1  0  0  0  0
  1 65  1  0  0  0  0
  1 66  1  0  0  0  0
  2  3  1  0  0  0  0
  2 23  1  0  0  0  0
  2 63  1  1  0  0  0
  3  4  1  0  0  0  0
  3 61  1  0  0  0  0
  3 62  1  0  0  0  0
  4  5  1  0  0  0  0
  4 21  1  0  0  0  0
  5  6  2  0  0  0  0
  5 14  1  0  0  0  0
  6  7  1  0  0  0  0
  6 20  1  0  0  0  0
  7  8  2  0  0  0  0
  8  9  1  0  0  0  0
  8 19  1  0  0  0  0
  9 10  2  0  0  0  0
  9 14  1  0  0  0  0
 10 11  1  0  0  0  0
 10 18  1  0  0  0  0
 11 12  2  0  0  0  0
 11 17  1  0  0  0  0
 12 13  1  0  0  0  0
 12 16  1  0  0  0  0
 13 14  2  0  0  0  0
 13 15  1  0  0  0  0
 21 22  2  0  0  0  0
 23 21  1  1  0  0  0
 23 24  1  0  0  0  0
 23 55  1  0  0  0  0
 24 25  1  0  0  0  0
 24 59  1  0  0  0  0
 24 60  1  0  0  0  0
 25 26  1  0  0  0  0
 25 47  1  0  0  0  0
 26 27  1  0  0  0  0
 26 45  1  0  0  0  0
 26 46  1  0  0  0  0
 27 28  1  0  0  0  0
 27 43  1  0  0  0  0
 27 44  1  0  0  0  0
 28 29  1  0  0  0  0
 28 33  1  0  0  0  0
 28 42  1  0  0  0  0
 29 30  1  0  0  0  0
 29 40  1  0  0  0  0
 29 41  1  0  0  0  0
 30 31  1  0  0  0  0
 30 38  1  0  0  0  0
 30 39  1  0  0  0  0
 31 32  1  0  0  0  0
 32 33  1  0  0  0  0
 32 36  1  0  0  0  0
 32 37  1  0  0  0  0
 33 34  1  0  0  0  0
 33 35  1  0  0  0  0
 47 48  2  0  0  0  0
 47 49  1  0  0  0  0
 49 50  2  0  0  0  0
 49 55  1  0  0  0  0
 50 51  1  0  0  0  0
 50 58  1  0  0  0  0
 51 52  2  0  0  0  0
 51 57  1  0  0  0  0
 52 53  1  0  0  0  0
 52 54  1  0  0  0  0
 54 55  2  0  0  0  0
 54 56  1  0  0  0  0
M  CHG  1  28   1
M  END
>  <MODEL>
       1

$$$$
