tmp_first_model_11_55.pdb
 OpenBabel08272522543D

 61 66  0  0  1  0  0  0  0  0999 V2000
   -7.0090   -5.4610  -25.0400 C   0  0  0  0  0  0  0  0  0  0  0  0
   -7.3460   -4.7960  -23.8480 O   0  0  0  0  0  0  0  0  0  0  0  0
   -7.9930   -3.5710  -24.0830 C   0  0  0  0  0  0  0  0  0  0  0  0
   -8.2950   -2.9140  -22.7400 C   0  0  1  0  0  0  0  0  0  0  0  0
   -7.0140   -2.5510  -21.9640 C   0  0  0  0  0  0  0  0  0  0  0  0
   -7.3960   -1.3750  -21.2080 N   0  0  0  0  0  0  0  0  0  0  0  0
   -6.6060   -0.8080  -20.1800 C   0  0  0  0  0  0  0  0  0  0  0  0
   -6.9250   -1.0400  -18.8660 C   0  0  0  0  0  0  0  0  0  0  0  0
   -6.2270   -0.5470  -17.8140 N   0  0  0  0  0  0  0  0  0  0  0  0
   -5.1890    0.2090  -18.0840 C   0  0  0  0  0  0  0  0  0  0  0  0
   -4.7520    0.5300  -19.4010 C   0  0  0  0  0  0  0  0  0  0  0  0
   -3.6300    1.3670  -19.6400 C   0  0  0  0  0  0  0  0  0  0  0  0
   -3.2440    1.6630  -20.9180 C   0  0  0  0  0  0  0  0  0  0  0  0
   -3.9450    1.1260  -22.0180 C   0  0  0  0  0  0  0  0  0  0  0  0
   -5.0230    0.2950  -21.8120 C   0  0  0  0  0  0  0  0  0  0  0  0
   -5.4660   -0.0090  -20.4940 C   0  0  0  0  0  0  0  0  0  0  0  0
   -5.5830   -0.0750  -22.6660 H   0  0  0  0  0  0  0  0  0  0  0  0
   -3.6310    1.3860  -23.0260 H   0  0  0  0  0  0  0  0  0  0  0  0
   -2.3920    2.3130  -21.0930 H   0  0  0  0  0  0  0  0  0  0  0  0
   -3.0960    1.7680  -18.7850 H   0  0  0  0  0  0  0  0  0  0  0  0
   -4.6240    0.6070  -17.2400 H   0  0  0  0  0  0  0  0  0  0  0  0
   -7.7880   -1.6560  -18.6240 H   0  0  0  0  0  0  0  0  0  0  0  0
   -8.5970   -0.8150  -21.5800 C   0  0  0  0  0  0  0  0  0  0  0  0
   -9.1150    0.1420  -21.0430 O   0  0  0  0  0  0  0  0  0  0  0  0
   -9.1360   -1.6070  -22.7940 C   0  0  1  0  0  0  0  0  0  0  0  0
   -8.8540   -0.8250  -24.1000 C   0  0  0  0  0  0  0  0  0  0  0  0
   -9.6660    0.3680  -24.2090 N   0  0  0  0  0  0  0  0  0  0  0  0
   -9.0370    1.5960  -24.6600 C   0  0  0  0  0  0  0  0  0  0  0  0
   -8.2210    2.2710  -23.5950 C   0  0  0  0  0  0  0  0  0  0  0  0
   -6.8800    2.3670  -23.4300 C   0  0  0  0  0  0  0  0  0  0  0  0
   -6.6520    3.1130  -22.2990 N   0  3  0  0  0  0  0  0  0  0  0  0
   -7.8190    3.4900  -21.7710 C   0  0  0  0  0  0  0  0  0  0  0  0
   -8.7950    2.9800  -22.5460 N   0  0  0  0  0  0  0  0  0  0  0  0
   -9.7690    2.9330  -22.2590 H   0  0  0  0  0  0  0  0  0  0  0  0
   -7.9440    4.1560  -20.9250 H   0  0  0  0  0  0  0  0  0  0  0  0
   -5.7410    3.1520  -21.8630 H   0  0  0  0  0  0  0  0  0  0  0  0
   -6.0450    1.9620  -23.9820 H   0  0  0  0  0  0  0  0  0  0  0  0
   -9.8470    2.2410  -25.0160 H   0  0  0  0  0  0  0  0  0  0  0  0
   -8.4060    1.3560  -25.5230 H   0  0  0  0  0  0  0  0  0  0  0  0
  -11.0170    0.3220  -24.0330 C   0  0  0  0  0  0  0  0  0  0  0  0
  -11.7690    1.2130  -24.4060 O   0  0  0  0  0  0  0  0  0  0  0  0
  -11.5180   -0.8870  -23.3100 C   0  0  0  0  0  0  0  0  0  0  0  0
  -12.8990   -1.0250  -23.1960 C   0  0  0  0  0  0  0  0  0  0  0  0
  -13.4360   -1.9490  -22.3280 C   0  0  0  0  0  0  0  0  0  0  0  0
  -12.5550   -2.7370  -21.5920 C   0  0  0  0  0  0  0  0  0  0  0  0
  -13.2200   -3.7520  -20.3600 Cl  0  0  0  0  0  0  0  0  0  0  0  0
  -11.1850   -2.7000  -21.7880 C   0  0  0  0  0  0  0  0  0  0  0  0
  -10.6370   -1.7710  -22.6750 C   0  0  0  0  0  0  0  0  0  0  0  0
  -10.5520   -3.3870  -21.2390 H   0  0  0  0  0  0  0  0  0  0  0  0
  -14.5080   -2.0470  -22.1810 H   0  0  0  0  0  0  0  0  0  0  0  0
  -13.5240   -0.3450  -23.7610 H   0  0  0  0  0  0  0  0  0  0  0  0
   -9.0630   -1.4860  -24.9510 H   0  0  0  0  0  0  0  0  0  0  0  0
   -7.8020   -0.5280  -24.1450 H   0  0  0  0  0  0  0  0  0  0  0  0
   -6.1740   -2.3410  -22.6420 H   0  0  0  0  0  0  0  0  0  0  0  0
   -6.7010   -3.3530  -21.2920 H   0  0  0  0  0  0  0  0  0  0  0  0
   -8.8460   -3.6500  -22.1530 H   0  0  0  0  0  0  0  0  0  0  0  0
   -8.9250   -3.7320  -24.6530 H   0  0  0  0  0  0  0  0  0  0  0  0
   -7.3460   -2.9110  -24.6890 H   0  0  0  0  0  0  0  0  0  0  0  0
   -6.5430   -6.4110  -24.7680 H   0  0  0  0  0  0  0  0  0  0  0  0
   -7.8960   -5.6720  -25.6590 H   0  0  0  0  0  0  0  0  0  0  0  0
   -6.2950   -4.8820  -25.6470 H   0  0  0  0  0  0  0  0  0  0  0  0
  1  2  1  0  0  0  0
  1 59  1  0  0  0  0
  1 60  1  0  0  0  0
  1 61  1  0  0  0  0
  2  3  1  0  0  0  0
  3  4  1  0  0  0  0
  3 57  1  0  0  0  0
  3 58  1  0  0  0  0
  4  5  1  0  0  0  0
  4 25  1  0  0  0  0
  4 56  1  1  0  0  0
  5  6  1  0  0  0  0
  5 54  1  0  0  0  0
  5 55  1  0  0  0  0
  6  7  1  0  0  0  0
  6 23  1  0  0  0  0
  7  8  2  0  0  0  0
  7 16  1  0  0  0  0
  8  9  1  0  0  0  0
  8 22  1  0  0  0  0
  9 10  2  0  0  0  0
 10 11  1  0  0  0  0
 10 21  1  0  0  0  0
 11 12  2  0  0  0  0
 11 16  1  0  0  0  0
 12 13  1  0  0  0  0
 12 20  1  0  0  0  0
 13 14  2  0  0  0  0
 13 19  1  0  0  0  0
 14 15  1  0  0  0  0
 14 18  1  0  0  0  0
 15 16  2  0  0  0  0
 15 17  1  0  0  0  0
 23 24  2  0  0  0  0
 25 23  1  1  0  0  0
 25 26  1  0  0  0  0
 25 48  1  0  0  0  0
 26 27  1  0  0  0  0
 26 52  1  0  0  0  0
 26 53  1  0  0  0  0
 27 28  1  0  0  0  0
 27 40  1  0  0  0  0
 28 29  1  0  0  0  0
 28 38  1  0  0  0  0
 28 39  1  0  0  0  0
 29 30  2  0  0  0  0
 29 33  1  0  0  0  0
 30 31  1  0  0  0  0
 30 37  1  0  0  0  0
 31 32  2  0  0  0  0
 31 36  1  0  0  0  0
 32 33  1  0  0  0  0
 32 35  1  0  0  0  0
 33 34  1  0  0  0  0
 40 41  2  0  0  0  0
 40 42  1  0  0  0  0
 42 43  2  0  0  0  0
 42 48  1  0  0  0  0
 43 44  1  0  0  0  0
 43 51  1  0  0  0  0
 44 45  2  0  0  0  0
 44 50  1  0  0  0  0
 45 46  1  0  0  0  0
 45 47  1  0  0  0  0
 47 48  2  0  0  0  0
 47 49  1  0  0  0  0
M  CHG  1  31   1
M  END
>  <MODEL>
       1

$$$$
