tmp_first_model_17_90.pdb
 OpenBabel08282502223D

 64 68  0  0  1  0  0  0  0  0999 V2000
   -7.4650    3.2810  -21.7490 C   0  0  0  0  0  0  0  0  0  0  0  0
   -8.4870    2.8070  -22.6680 N   0  0  0  0  0  0  0  0  0  0  0  0
   -8.0490    2.1010  -23.7500 C   0  0  0  0  0  0  0  0  0  0  0  0
   -6.8580    1.9330  -23.9810 O   0  0  0  0  0  0  0  0  0  0  0  0
   -9.0940    1.5240  -24.6960 C   0  0  0  0  0  0  0  0  0  0  0  0
   -9.6670    0.3150  -24.1510 N   0  0  0  0  0  0  0  0  0  0  0  0
   -8.8700   -0.8970  -24.0670 C   0  0  0  0  0  0  0  0  0  0  0  0
   -9.1500   -1.6650  -22.7530 C   0  0  2  0  0  0  0  0  0  0  0  0
   -8.6050   -0.8610  -21.5510 C   0  0  0  0  0  0  0  0  0  0  0  0
   -9.1050    0.1110  -21.0220 O   0  0  0  0  0  0  0  0  0  0  0  0
   -7.3980   -1.4140  -21.1830 N   0  0  0  0  0  0  0  0  0  0  0  0
   -6.6100   -0.8270  -20.1660 C   0  0  0  0  0  0  0  0  0  0  0  0
   -6.9300   -1.0440  -18.8500 C   0  0  0  0  0  0  0  0  0  0  0  0
   -6.2330   -0.5490  -17.8000 N   0  0  0  0  0  0  0  0  0  0  0  0
   -5.1900    0.1980  -18.0700 C   0  0  0  0  0  0  0  0  0  0  0  0
   -4.7540    0.5170  -19.3880 C   0  0  0  0  0  0  0  0  0  0  0  0
   -3.6340    1.3570  -19.6290 C   0  0  0  0  0  0  0  0  0  0  0  0
   -3.2570    1.6640  -20.9060 C   0  0  0  0  0  0  0  0  0  0  0  0
   -3.9780    1.1480  -22.0050 C   0  0  0  0  0  0  0  0  0  0  0  0
   -5.0670    0.3330  -21.8020 C   0  0  0  0  0  0  0  0  0  0  0  0
   -5.4810   -0.0100  -20.4850 C   0  0  0  0  0  0  0  0  0  0  0  0
   -5.6330   -0.0170  -22.6600 H   0  0  0  0  0  0  0  0  0  0  0  0
   -3.6660    1.3960  -23.0150 H   0  0  0  0  0  0  0  0  0  0  0  0
   -2.3970    2.3020  -21.0870 H   0  0  0  0  0  0  0  0  0  0  0  0
   -3.0930    1.7530  -18.7730 H   0  0  0  0  0  0  0  0  0  0  0  0
   -4.6240    0.5960  -17.2250 H   0  0  0  0  0  0  0  0  0  0  0  0
   -7.7940   -1.6570  -18.6080 H   0  0  0  0  0  0  0  0  0  0  0  0
   -7.0060   -2.5750  -21.9520 C   0  0  0  0  0  0  0  0  0  0  0  0
   -8.3140   -2.9740  -22.6550 C   0  0  2  0  0  0  0  0  0  0  0  0
   -8.1080   -3.7450  -23.9550 C   0  0  0  0  0  0  0  0  0  0  0  0
   -7.4170   -5.3610  -23.6460 S   0  0  0  0  0  0  0  0  0  0  0  0
   -6.0350   -5.2210  -23.2120 O   0  0  0  0  0  0  0  0  0  0  0  0
   -8.3630   -6.1190  -22.8360 O   0  0  0  0  0  0  0  0  0  0  0  0
   -7.3300   -5.9840  -25.1960 N   0  0  0  0  0  0  0  0  0  0  0  0
   -8.5480   -6.4450  -25.8610 C   0  0  0  0  0  0  0  0  0  0  0  0
   -9.1440   -5.5960  -26.2100 H   0  0  0  0  0  0  0  0  0  0  0  0
   -8.2520   -7.0020  -26.7530 H   0  0  0  0  0  0  0  0  0  0  0  0
   -9.1640   -7.0890  -25.2270 H   0  0  0  0  0  0  0  0  0  0  0  0
   -6.5850   -6.6700  -25.1970 H   0  0  0  0  0  0  0  0  0  0  0  0
   -7.4260   -3.2440  -24.6440 H   0  0  0  0  0  0  0  0  0  0  0  0
   -9.0560   -3.8900  -24.4770 H   0  0  0  0  0  0  0  0  0  0  0  0
   -8.8440   -3.6520  -21.9850 H   0  0  0  0  0  0  0  0  0  0  0  0
   -6.6340   -3.3650  -21.2970 H   0  0  0  0  0  0  0  0  0  0  0  0
   -6.2050   -2.3440  -22.6710 H   0  0  0  0  0  0  0  0  0  0  0  0
  -10.6510   -1.8220  -22.6330 C   0  0  0  0  0  0  0  0  0  0  0  0
  -11.2120   -2.7990  -21.8110 C   0  0  0  0  0  0  0  0  0  0  0  0
  -12.5700   -2.7770  -21.5670 C   0  0  0  0  0  0  0  0  0  0  0  0
  -13.0630   -3.6530  -20.6790 F   0  0  0  0  0  0  0  0  0  0  0  0
  -13.4430   -1.8710  -22.1550 C   0  0  0  0  0  0  0  0  0  0  0  0
  -12.9010   -0.9370  -23.0040 C   0  0  0  0  0  0  0  0  0  0  0  0
  -11.5250   -0.8830  -23.2010 C   0  0  0  0  0  0  0  0  0  0  0  0
  -11.0170    0.2910  -23.9610 C   0  0  0  0  0  0  0  0  0  0  0  0
  -11.7480    1.1920  -24.3500 O   0  0  0  0  0  0  0  0  0  0  0  0
  -13.5030   -0.1950  -23.5130 H   0  0  0  0  0  0  0  0  0  0  0  0
  -14.4970   -1.8900  -21.9010 H   0  0  0  0  0  0  0  0  0  0  0  0
  -10.6200   -3.5670  -21.3270 H   0  0  0  0  0  0  0  0  0  0  0  0
   -7.8140   -0.6280  -24.1500 H   0  0  0  0  0  0  0  0  0  0  0  0
   -9.1120   -1.5500  -24.9140 H   0  0  0  0  0  0  0  0  0  0  0  0
   -9.9340    2.2050  -24.8590 H   0  0  0  0  0  0  0  0  0  0  0  0
   -8.6040    1.3210  -25.6580 H   0  0  0  0  0  0  0  0  0  0  0  0
   -9.4190    2.6620  -22.2930 H   0  0  0  0  0  0  0  0  0  0  0  0
   -6.8490    4.0530  -22.2230 H   0  0  0  0  0  0  0  0  0  0  0  0
   -6.8370    2.4300  -21.4420 H   0  0  0  0  0  0  0  0  0  0  0  0
   -7.9390    3.7520  -20.8880 H   0  0  0  0  0  0  0  0  0  0  0  0
  1  2  1  0  0  0  0
  1 62  1  0  0  0  0
  1 63  1  0  0  0  0
  1 64  1  0  0  0  0
  2  3  1  0  0  0  0
  2 61  1  0  0  0  0
  3  4  2  0  0  0  0
  3  5  1  0  0  0  0
  5  6  1  0  0  0  0
  5 59  1  0  0  0  0
  5 60  1  0  0  0  0
  6  7  1  0  0  0  0
  6 52  1  0  0  0  0
  7  8  1  0  0  0  0
  7 57  1  0  0  0  0
  7 58  1  0  0  0  0
  8  9  1  1  0  0  0
  8 29  1  0  0  0  0
  8 45  1  0  0  0  0
  9 10  2  0  0  0  0
  9 11  1  0  0  0  0
 11 12  1  0  0  0  0
 11 28  1  0  0  0  0
 12 13  2  0  0  0  0
 12 21  1  0  0  0  0
 13 14  1  0  0  0  0
 13 27  1  0  0  0  0
 14 15  2  0  0  0  0
 15 16  1  0  0  0  0
 15 26  1  0  0  0  0
 16 17  2  0  0  0  0
 16 21  1  0  0  0  0
 17 18  1  0  0  0  0
 17 25  1  0  0  0  0
 18 19  2  0  0  0  0
 18 24  1  0  0  0  0
 19 20  1  0  0  0  0
 19 23  1  0  0  0  0
 20 21  2  0  0  0  0
 20 22  1  0  0  0  0
 28 29  1  0  0  0  0
 28 43  1  0  0  0  0
 28 44  1  0  0  0  0
 29 30  1  0  0  0  0
 29 42  1  1  0  0  0
 30 31  1  0  0  0  0
 30 40  1  0  0  0  0
 30 41  1  0  0  0  0
 31 32  2  0  0  0  0
 31 33  2  0  0  0  0
 31 34  1  0  0  0  0
 34 35  1  0  0  0  0
 34 39  1  0  0  0  0
 35 36  1  0  0  0  0
 35 37  1  0  0  0  0
 35 38  1  0  0  0  0
 45 46  2  0  0  0  0
 45 51  1  0  0  0  0
 46 47  1  0  0  0  0
 46 56  1  0  0  0  0
 47 48  1  0  0  0  0
 47 49  2  0  0  0  0
 49 50  1  0  0  0  0
 49 55  1  0  0  0  0
 50 51  2  0  0  0  0
 50 54  1  0  0  0  0
 51 52  1  0  0  0  0
 52 53  2  0  0  0  0
M  END
>  <MODEL>
       1

$$$$
