tmp_first_model_10_36.pdb
 OpenBabel08272522163D

 47 50  0  0  1  0  0  0  0  0999 V2000
   -8.7590    0.5830  -21.2730 O   0  0  0  0  0  0  0  0  0  0  0  0
   -8.4650   -0.4290  -21.8910 C   0  0  0  0  0  0  0  0  0  0  0  0
   -7.4550   -1.4120  -21.2960 C   0  0  0  0  0  0  0  0  0  0  0  0
   -6.6390   -0.7950  -20.1960 C   0  0  0  0  0  0  0  0  0  0  0  0
   -6.9220   -1.0470  -18.8780 C   0  0  0  0  0  0  0  0  0  0  0  0
   -6.2210   -0.5830  -17.8080 N   0  0  0  0  0  0  0  0  0  0  0  0
   -5.2090    0.2100  -18.0690 C   0  0  0  0  0  0  0  0  0  0  0  0
   -4.8160    0.5950  -19.3830 C   0  0  0  0  0  0  0  0  0  0  0  0
   -3.6830    1.4130  -19.6140 C   0  0  0  0  0  0  0  0  0  0  0  0
   -3.3790    1.8400  -20.8790 C   0  0  0  0  0  0  0  0  0  0  0  0
   -4.1930    1.4380  -21.9740 C   0  0  0  0  0  0  0  0  0  0  0  0
   -5.1840    0.5050  -21.7920 C   0  0  0  0  0  0  0  0  0  0  0  0
   -5.5530    0.0900  -20.4830 C   0  0  0  0  0  0  0  0  0  0  0  0
   -5.7130    0.1020  -22.6590 H   0  0  0  0  0  0  0  0  0  0  0  0
   -3.9890    1.8370  -22.9640 H   0  0  0  0  0  0  0  0  0  0  0  0
   -2.5310    2.4950  -21.0570 H   0  0  0  0  0  0  0  0  0  0  0  0
   -3.0820    1.7080  -18.7560 H   0  0  0  0  0  0  0  0  0  0  0  0
   -4.6340    0.5840  -17.2180 H   0  0  0  0  0  0  0  0  0  0  0  0
   -7.7640   -1.6870  -18.6200 H   0  0  0  0  0  0  0  0  0  0  0  0
   -6.8110   -1.8290  -22.0760 H   0  0  0  0  0  0  0  0  0  0  0  0
   -8.0420   -2.2530  -20.8970 H   0  0  0  0  0  0  0  0  0  0  0  0
   -9.0760   -0.7550  -23.0810 N   0  0  0  0  0  0  0  0  0  0  0  0
  -10.0630    0.2310  -23.5150 C   0  0  0  0  0  0  0  0  0  0  0  0
  -11.0470   -0.3020  -24.5400 C   0  0  0  0  0  0  0  0  0  0  0  0
  -10.3140   -0.9930  -25.6850 C   0  0  0  0  0  0  0  0  0  0  0  0
   -9.5150   -2.1560  -25.0980 C   0  0  0  0  0  0  0  0  0  0  0  0
   -8.5070   -1.7310  -24.0180 C   0  0  1  0  0  0  0  0  0  0  0  0
   -7.1750   -1.2920  -24.6350 C   0  0  0  0  0  0  0  0  0  0  0  0
   -6.9620   -0.0030  -25.1230 C   0  0  0  0  0  0  0  0  0  0  0  0
   -5.7460    0.3400  -25.7100 C   0  0  0  0  0  0  0  0  0  0  0  0
   -4.7240   -0.6010  -25.8120 C   0  0  0  0  0  0  0  0  0  0  0  0
   -4.9310   -1.8950  -25.3450 C   0  0  0  0  0  0  0  0  0  0  0  0
   -6.1530   -2.2340  -24.7710 C   0  0  0  0  0  0  0  0  0  0  0  0
   -6.3110   -3.2540  -24.4180 H   0  0  0  0  0  0  0  0  0  0  0  0
   -4.1440   -2.6420  -25.4230 H   0  0  0  0  0  0  0  0  0  0  0  0
   -3.7690   -0.3320  -26.2570 H   0  0  0  0  0  0  0  0  0  0  0  0
   -5.6020    1.3480  -26.0950 H   0  0  0  0  0  0  0  0  0  0  0  0
   -7.7440    0.7530  -25.0580 H   0  0  0  0  0  0  0  0  0  0  0  0
   -8.2870   -2.6360  -23.4350 H   0  0  0  0  0  0  0  0  0  0  0  0
  -10.2230   -2.8580  -24.6430 H   0  0  0  0  0  0  0  0  0  0  0  0
   -8.9650   -2.7100  -25.8690 H   0  0  0  0  0  0  0  0  0  0  0  0
   -9.6490   -0.2930  -26.2080 H   0  0  0  0  0  0  0  0  0  0  0  0
  -11.0240   -1.3620  -26.4330 H   0  0  0  0  0  0  0  0  0  0  0  0
  -11.6800    0.5290  -24.8770 H   0  0  0  0  0  0  0  0  0  0  0  0
  -11.7160   -1.0270  -24.0630 H   0  0  0  0  0  0  0  0  0  0  0  0
  -10.5810    0.5560  -22.6110 H   0  0  0  0  0  0  0  0  0  0  0  0
   -9.5470    1.1170  -23.9120 H   0  0  0  0  0  0  0  0  0  0  0  0
  1  2  2  0  0  0  0
  2  3  1  0  0  0  0
  2 22  1  0  0  0  0
  3  4  1  0  0  0  0
  3 20  1  0  0  0  0
  3 21  1  0  0  0  0
  4  5  2  0  0  0  0
  4 13  1  0  0  0  0
  5  6  1  0  0  0  0
  5 19  1  0  0  0  0
  6  7  2  0  0  0  0
  7  8  1  0  0  0  0
  7 18  1  0  0  0  0
  8  9  2  0  0  0  0
  8 13  1  0  0  0  0
  9 10  1  0  0  0  0
  9 17  1  0  0  0  0
 10 11  2  0  0  0  0
 10 16  1  0  0  0  0
 11 12  1  0  0  0  0
 11 15  1  0  0  0  0
 12 13  2  0  0  0  0
 12 14  1  0  0  0  0
 22 23  1  0  0  0  0
 22 27  1  0  0  0  0
 23 24  1  0  0  0  0
 23 46  1  0  0  0  0
 23 47  1  0  0  0  0
 24 25  1  0  0  0  0
 24 44  1  0  0  0  0
 24 45  1  0  0  0  0
 25 26  1  0  0  0  0
 25 42  1  0  0  0  0
 25 43  1  0  0  0  0
 26 27  1  0  0  0  0
 26 40  1  0  0  0  0
 26 41  1  0  0  0  0
 27 28  1  0  0  0  0
 27 39  1  1  0  0  0
 28 29  2  0  0  0  0
 28 33  1  0  0  0  0
 29 30  1  0  0  0  0
 29 38  1  0  0  0  0
 30 31  2  0  0  0  0
 30 37  1  0  0  0  0
 31 32  1  0  0  0  0
 31 36  1  0  0  0  0
 32 33  2  0  0  0  0
 32 35  1  0  0  0  0
 33 34  1  0  0  0  0
M  END
>  <MODEL>
       1

$$$$
