tmp_first_model_10_82.pdb
 OpenBabel08272522163D

 54 57  0  0  1  0  0  0  0  0999 V2000
  -10.6840    0.3560  -25.3870 C   0  0  0  0  0  0  0  0  0  0  0  0
   -9.8100   -0.6290  -24.9040 O   0  0  0  0  0  0  0  0  0  0  0  0
   -8.4880   -0.5190  -25.2050 C   0  0  0  0  0  0  0  0  0  0  0  0
   -7.9560    0.5150  -25.9770 C   0  0  0  0  0  0  0  0  0  0  0  0
   -6.5880    0.5470  -26.2400 C   0  0  0  0  0  0  0  0  0  0  0  0
   -5.7670   -0.4460  -25.7220 C   0  0  0  0  0  0  0  0  0  0  0  0
   -6.3100   -1.4630  -24.9360 C   0  0  0  0  0  0  0  0  0  0  0  0
   -7.6710   -1.5330  -24.6710 C   0  0  0  0  0  0  0  0  0  0  0  0
   -8.3020   -2.6460  -23.8270 C   0  0  1  0  0  0  0  0  0  0  0  0
   -9.1410   -3.6390  -24.6680 C   0  0  0  0  0  0  0  0  0  0  0  0
   -8.3840   -4.8440  -25.2430 C   0  0  1  0  0  0  0  0  0  0  0  0
   -7.5090   -4.5230  -26.4590 C   0  0  0  0  0  0  0  0  0  0  0  0
   -6.6840   -3.8490  -26.2060 H   0  0  0  0  0  0  0  0  0  0  0  0
   -7.0730   -5.4350  -26.8800 H   0  0  0  0  0  0  0  0  0  0  0  0
   -8.0890   -4.0440  -27.2540 H   0  0  0  0  0  0  0  0  0  0  0  0
   -7.5910   -5.4980  -24.1080 C   0  0  0  0  0  0  0  0  0  0  0  0
   -6.6340   -4.5340  -23.4330 C   0  0  0  0  0  0  0  0  0  0  0  0
   -7.3280   -3.3360  -22.9670 N   0  0  0  0  0  0  0  0  0  0  0  0
   -6.7310   -2.7450  -21.8730 C   0  0  0  0  0  0  0  0  0  0  0  0
   -5.7310   -3.2170  -21.3620 O   0  0  0  0  0  0  0  0  0  0  0  0
   -7.3970   -1.4930  -21.2870 C   0  0  0  0  0  0  0  0  0  0  0  0
   -6.5980   -0.8460  -20.1870 C   0  0  0  0  0  0  0  0  0  0  0  0
   -6.8860   -1.0860  -18.8690 C   0  0  0  0  0  0  0  0  0  0  0  0
   -6.2020   -0.5940  -17.7990 N   0  0  0  0  0  0  0  0  0  0  0  0
   -5.1880    0.1990  -18.0590 C   0  0  0  0  0  0  0  0  0  0  0  0
   -4.7840    0.5610  -19.3740 C   0  0  0  0  0  0  0  0  0  0  0  0
   -3.6610    1.3990  -19.6110 C   0  0  0  0  0  0  0  0  0  0  0  0
   -3.3630    1.8130  -20.8810 C   0  0  0  0  0  0  0  0  0  0  0  0
   -4.1570    1.3870  -21.9710 C   0  0  0  0  0  0  0  0  0  0  0  0
   -5.1530    0.4570  -21.7800 C   0  0  0  0  0  0  0  0  0  0  0  0
   -5.5100    0.0380  -20.4690 C   0  0  0  0  0  0  0  0  0  0  0  0
   -5.6550    0.0160  -22.6370 H   0  0  0  0  0  0  0  0  0  0  0  0
   -3.9570    1.7680  -22.9690 H   0  0  0  0  0  0  0  0  0  0  0  0
   -2.4960    2.4430  -21.0650 H   0  0  0  0  0  0  0  0  0  0  0  0
   -3.0680    1.7140  -18.7550 H   0  0  0  0  0  0  0  0  0  0  0  0
   -4.6340    0.6000  -17.2080 H   0  0  0  0  0  0  0  0  0  0  0  0
   -7.7400   -1.7090  -18.6040 H   0  0  0  0  0  0  0  0  0  0  0  0
   -7.5920   -0.7850  -22.0980 H   0  0  0  0  0  0  0  0  0  0  0  0
   -8.3760   -1.8000  -20.8960 H   0  0  0  0  0  0  0  0  0  0  0  0
   -6.2280   -5.0020  -22.5370 H   0  0  0  0  0  0  0  0  0  0  0  0
   -5.7670   -4.2750  -24.0600 H   0  0  0  0  0  0  0  0  0  0  0  0
   -8.2670   -5.8190  -23.3120 H   0  0  0  0  0  0  0  0  0  0  0  0
   -7.0470   -6.3860  -24.4580 H   0  0  0  0  0  0  0  0  0  0  0  0
   -9.1530   -5.5600  -25.5720 H   0  0  0  0  0  0  0  0  0  0  0  0
   -9.6360   -3.0710  -25.4660 H   0  0  0  0  0  0  0  0  0  0  0  0
   -9.9290   -4.0300  -24.0110 H   0  0  0  0  0  0  0  0  0  0  0  0
   -9.0320   -2.1580  -23.1670 H   0  0  0  0  0  0  0  0  0  0  0  0
   -5.6530   -2.2380  -24.5430 H   0  0  0  0  0  0  0  0  0  0  0  0
   -4.7010   -0.4480  -25.9250 H   0  0  0  0  0  0  0  0  0  0  0  0
   -6.1790    1.3500  -26.8520 H   0  0  0  0  0  0  0  0  0  0  0  0
   -8.6120    1.2810  -26.3750 H   0  0  0  0  0  0  0  0  0  0  0  0
  -11.6680    0.0660  -25.0160 H   0  0  0  0  0  0  0  0  0  0  0  0
  -10.6870    0.3870  -26.4850 H   0  0  0  0  0  0  0  0  0  0  0  0
  -10.4120    1.3490  -25.0050 H   0  0  0  0  0  0  0  0  0  0  0  0
  1  2  1  0  0  0  0
  1 52  1  0  0  0  0
  1 53  1  0  0  0  0
  1 54  1  0  0  0  0
  2  3  1  0  0  0  0
  3  4  2  0  0  0  0
  3  8  1  0  0  0  0
  4  5  1  0  0  0  0
  4 51  1  0  0  0  0
  5  6  2  0  0  0  0
  5 50  1  0  0  0  0
  6  7  1  0  0  0  0
  6 49  1  0  0  0  0
  7  8  2  0  0  0  0
  7 48  1  0  0  0  0
  8  9  1  0  0  0  0
  9 10  1  0  0  0  0
  9 18  1  0  0  0  0
  9 47  1  1  0  0  0
 10 11  1  0  0  0  0
 10 45  1  0  0  0  0
 10 46  1  0  0  0  0
 11 12  1  0  0  0  0
 11 16  1  0  0  0  0
 11 44  1  6  0  0  0
 12 13  1  0  0  0  0
 12 14  1  0  0  0  0
 12 15  1  0  0  0  0
 16 17  1  0  0  0  0
 16 42  1  0  0  0  0
 16 43  1  0  0  0  0
 17 18  1  0  0  0  0
 17 40  1  0  0  0  0
 17 41  1  0  0  0  0
 18 19  1  0  0  0  0
 19 20  2  0  0  0  0
 19 21  1  0  0  0  0
 21 22  1  0  0  0  0
 21 38  1  0  0  0  0
 21 39  1  0  0  0  0
 22 23  2  0  0  0  0
 22 31  1  0  0  0  0
 23 24  1  0  0  0  0
 23 37  1  0  0  0  0
 24 25  2  0  0  0  0
 25 26  1  0  0  0  0
 25 36  1  0  0  0  0
 26 27  2  0  0  0  0
 26 31  1  0  0  0  0
 27 28  1  0  0  0  0
 27 35  1  0  0  0  0
 28 29  2  0  0  0  0
 28 34  1  0  0  0  0
 29 30  1  0  0  0  0
 29 33  1  0  0  0  0
 30 31  2  0  0  0  0
 30 32  1  0  0  0  0
M  END
>  <MODEL>
       1

$$$$
