tmp_first_model_19_4.pdb
 OpenBabel08282503233D

 59 64  0  0  1  0  0  0  0  0999 V2000
   -8.0720   -3.8390  -23.8610 C   0  0  0  0  0  0  0  0  0  0  0  0
   -8.4110   -2.8540  -22.7330 C   0  0  1  0  0  0  0  0  0  0  0  0
   -7.2570   -2.7020  -21.7180 C   0  0  0  0  0  0  0  0  0  0  0  0
   -7.4340   -1.3600  -21.1980 N   0  0  0  0  0  0  0  0  0  0  0  0
   -6.6130   -0.7980  -20.1850 C   0  0  0  0  0  0  0  0  0  0  0  0
   -6.8980   -1.0530  -18.8680 C   0  0  0  0  0  0  0  0  0  0  0  0
   -6.1900   -0.5690  -17.8210 N   0  0  0  0  0  0  0  0  0  0  0  0
   -5.1660    0.2050  -18.0890 C   0  0  0  0  0  0  0  0  0  0  0  0
   -4.7360    0.5280  -19.4080 C   0  0  0  0  0  0  0  0  0  0  0  0
   -3.6010    1.3500  -19.6470 C   0  0  0  0  0  0  0  0  0  0  0  0
   -3.2010    1.6330  -20.9250 C   0  0  0  0  0  0  0  0  0  0  0  0
   -3.9120    1.0940  -22.0240 C   0  0  0  0  0  0  0  0  0  0  0  0
   -5.0110    0.2970  -21.8180 C   0  0  0  0  0  0  0  0  0  0  0  0
   -5.4700    0.0090  -20.4980 C   0  0  0  0  0  0  0  0  0  0  0  0
   -5.5450   -0.1140  -22.6710 H   0  0  0  0  0  0  0  0  0  0  0  0
   -3.6050    1.3220  -23.0410 H   0  0  0  0  0  0  0  0  0  0  0  0
   -2.3470    2.2840  -21.0940 H   0  0  0  0  0  0  0  0  0  0  0  0
   -3.0770    1.7630  -18.7890 H   0  0  0  0  0  0  0  0  0  0  0  0
   -4.6250    0.6120  -17.2350 H   0  0  0  0  0  0  0  0  0  0  0  0
   -7.7480   -1.6810  -18.6080 H   0  0  0  0  0  0  0  0  0  0  0  0
   -8.2420   -0.5630  -21.9740 C   0  0  0  0  0  0  0  0  0  0  0  0
   -8.4310    0.6170  -21.7500 O   0  0  0  0  0  0  0  0  0  0  0  0
   -8.7970   -1.4010  -23.1520 C   0  0  1  0  0  0  0  0  0  0  0  0
   -8.0710   -0.9750  -24.4540 C   0  0  0  0  0  0  0  0  0  0  0  0
   -8.4480    0.3620  -24.8680 N   0  0  0  0  0  0  0  0  0  0  0  0
   -7.3940    1.3620  -25.0190 C   0  0  0  0  0  0  0  0  0  0  0  0
   -6.2970    0.9620  -25.9700 C   0  0  0  0  0  0  0  0  0  0  0  0
   -5.0460    0.7220  -25.6250 N   0  0  0  0  0  0  0  0  0  0  0  0
   -4.4120    0.3470  -26.7830 C   0  0  0  0  0  0  0  0  0  0  0  0
   -5.2910    0.3660  -27.8310 C   0  0  0  0  0  0  0  0  0  0  0  0
   -6.4980    0.7690  -27.3030 N   0  0  0  0  0  0  0  0  0  0  0  0
   -7.7470    0.9180  -28.0250 C   0  0  0  0  0  0  0  0  0  0  0  0
   -8.4560    0.1300  -27.7520 H   0  0  0  0  0  0  0  0  0  0  0  0
   -8.1980    1.8960  -27.8220 H   0  0  0  0  0  0  0  0  0  0  0  0
   -7.5200    0.8460  -29.0920 H   0  0  0  0  0  0  0  0  0  0  0  0
   -5.1970    0.1300  -28.8820 H   0  0  0  0  0  0  0  0  0  0  0  0
   -3.3640    0.0730  -26.7760 H   0  0  0  0  0  0  0  0  0  0  0  0
   -7.9030    2.2770  -25.3400 H   0  0  0  0  0  0  0  0  0  0  0  0
   -6.9140    1.5480  -24.0470 H   0  0  0  0  0  0  0  0  0  0  0  0
   -9.7650    0.7300  -24.9480 C   0  0  0  0  0  0  0  0  0  0  0  0
  -10.1380    1.7200  -25.5690 O   0  0  0  0  0  0  0  0  0  0  0  0
  -10.7350   -0.1300  -24.1850 C   0  0  0  0  0  0  0  0  0  0  0  0
  -12.0940    0.1820  -24.2470 C   0  0  0  0  0  0  0  0  0  0  0  0
  -13.0250   -0.5560  -23.5460 C   0  0  0  0  0  0  0  0  0  0  0  0
  -12.5570   -1.4900  -22.6330 C   0  0  0  0  0  0  0  0  0  0  0  0
  -13.4350   -2.0970  -21.8200 F   0  0  0  0  0  0  0  0  0  0  0  0
  -11.2150   -1.7660  -22.4740 C   0  0  0  0  0  0  0  0  0  0  0  0
  -10.2860   -1.1400  -23.3200 C   0  0  0  0  0  0  0  0  0  0  0  0
  -10.9200   -2.4120  -21.6490 H   0  0  0  0  0  0  0  0  0  0  0  0
  -14.0860   -0.3740  -23.6530 H   0  0  0  0  0  0  0  0  0  0  0  0
  -12.4080    1.0850  -24.7510 H   0  0  0  0  0  0  0  0  0  0  0  0
   -6.9870   -0.9730  -24.3050 H   0  0  0  0  0  0  0  0  0  0  0  0
   -8.3160   -1.6880  -25.2560 H   0  0  0  0  0  0  0  0  0  0  0  0
   -7.2990   -3.4340  -20.9040 H   0  0  0  0  0  0  0  0  0  0  0  0
   -6.2790   -2.8260  -22.2130 H   0  0  0  0  0  0  0  0  0  0  0  0
   -9.2750   -3.2430  -22.1920 H   0  0  0  0  0  0  0  0  0  0  0  0
   -7.9010   -4.8500  -23.4690 H   0  0  0  0  0  0  0  0  0  0  0  0
   -8.8750   -3.9030  -24.6050 H   0  0  0  0  0  0  0  0  0  0  0  0
   -7.1590   -3.5360  -24.3910 H   0  0  0  0  0  0  0  0  0  0  0  0
  1  2  1  0  0  0  0
  1 57  1  0  0  0  0
  1 58  1  0  0  0  0
  1 59  1  0  0  0  0
  2  3  1  0  0  0  0
  2 23  1  0  0  0  0
  2 56  1  1  0  0  0
  3  4  1  0  0  0  0
  3 54  1  0  0  0  0
  3 55  1  0  0  0  0
  4  5  1  0  0  0  0
  4 21  1  0  0  0  0
  5  6  2  0  0  0  0
  5 14  1  0  0  0  0
  6  7  1  0  0  0  0
  6 20  1  0  0  0  0
  7  8  2  0  0  0  0
  8  9  1  0  0  0  0
  8 19  1  0  0  0  0
  9 10  2  0  0  0  0
  9 14  1  0  0  0  0
 10 11  1  0  0  0  0
 10 18  1  0  0  0  0
 11 12  2  0  0  0  0
 11 17  1  0  0  0  0
 12 13  1  0  0  0  0
 12 16  1  0  0  0  0
 13 14  2  0  0  0  0
 13 15  1  0  0  0  0
 21 22  2  0  0  0  0
 23 21  1  1  0  0  0
 23 24  1  0  0  0  0
 23 48  1  0  0  0  0
 24 25  1  0  0  0  0
 24 52  1  0  0  0  0
 24 53  1  0  0  0  0
 25 26  1  0  0  0  0
 25 40  1  0  0  0  0
 26 27  1  0  0  0  0
 26 38  1  0  0  0  0
 26 39  1  0  0  0  0
 27 28  2  0  0  0  0
 27 31  1  0  0  0  0
 28 29  1  0  0  0  0
 29 30  2  0  0  0  0
 29 37  1  0  0  0  0
 30 31  1  0  0  0  0
 30 36  1  0  0  0  0
 31 32  1  0  0  0  0
 32 33  1  0  0  0  0
 32 34  1  0  0  0  0
 32 35  1  0  0  0  0
 40 41  2  0  0  0  0
 40 42  1  0  0  0  0
 42 43  2  0  0  0  0
 42 48  1  0  0  0  0
 43 44  1  0  0  0  0
 43 51  1  0  0  0  0
 44 45  2  0  0  0  0
 44 50  1  0  0  0  0
 45 46  1  0  0  0  0
 45 47  1  0  0  0  0
 47 48  2  0  0  0  0
 47 49  1  0  0  0  0
M  END
>  <MODEL>
       1

$$$$
