tmp_first_model_10_60.pdb
 OpenBabel08272522163D

 62 67  0  0  1  0  0  0  0  0999 V2000
  -11.3180    4.3030  -25.2280 C   0  0  0  0  0  0  0  0  0  0  0  0
   -9.8240    4.1700  -25.5260 C   0  0  0  0  0  0  0  0  0  0  0  0
   -9.0680    3.5850  -24.4240 N   0  0  0  0  0  0  0  0  0  0  0  0
   -8.4840    4.4130  -23.5420 N   0  0  0  0  0  0  0  0  0  0  0  0
   -7.9000    3.6230  -22.6520 C   0  0  0  0  0  0  0  0  0  0  0  0
   -8.1130    2.2640  -22.9690 C   0  0  0  0  0  0  0  0  0  0  0  0
   -8.8880    2.2710  -24.1040 C   0  0  0  0  0  0  0  0  0  0  0  0
   -9.3940    1.0980  -24.9050 C   0  0  0  0  0  0  0  0  0  0  0  0
   -9.8580   -0.0000  -24.0800 N   0  0  0  0  0  0  0  0  0  0  0  0
   -9.0380   -1.1940  -23.9750 C   0  0  0  0  0  0  0  0  0  0  0  0
   -9.2200   -1.9100  -22.6130 C   0  0  2  0  0  0  0  0  0  0  0  0
   -8.6580   -1.0270  -21.4630 C   0  0  0  0  0  0  0  0  0  0  0  0
   -9.2200   -0.1070  -20.9040 O   0  0  0  0  0  0  0  0  0  0  0  0
   -7.3760   -1.4430  -21.1840 N   0  0  0  0  0  0  0  0  0  0  0  0
   -6.6080   -0.8320  -20.1570 C   0  0  0  0  0  0  0  0  0  0  0  0
   -6.9110   -1.0610  -18.8370 C   0  0  0  0  0  0  0  0  0  0  0  0
   -6.2050   -0.5620  -17.7950 N   0  0  0  0  0  0  0  0  0  0  0  0
   -5.1700    0.1950  -18.0680 C   0  0  0  0  0  0  0  0  0  0  0  0
   -4.7620    0.5450  -19.3850 C   0  0  0  0  0  0  0  0  0  0  0  0
   -3.6580    1.4100  -19.6250 C   0  0  0  0  0  0  0  0  0  0  0  0
   -3.3440    1.7880  -20.9000 C   0  0  0  0  0  0  0  0  0  0  0  0
   -4.1330    1.3510  -21.9870 C   0  0  0  0  0  0  0  0  0  0  0  0
   -5.1530    0.4500  -21.7830 C   0  0  0  0  0  0  0  0  0  0  0  0
   -5.5160    0.0440  -20.4690 C   0  0  0  0  0  0  0  0  0  0  0  0
   -5.6410   -0.0050  -22.6390 H   0  0  0  0  0  0  0  0  0  0  0  0
   -3.8670    1.6390  -22.9990 H   0  0  0  0  0  0  0  0  0  0  0  0
   -2.4530    2.3830  -21.0940 H   0  0  0  0  0  0  0  0  0  0  0  0
   -3.0630    1.7330  -18.7720 H   0  0  0  0  0  0  0  0  0  0  0  0
   -4.6200    0.6080  -17.2230 H   0  0  0  0  0  0  0  0  0  0  0  0
   -7.7660   -1.6790  -18.5730 H   0  0  0  0  0  0  0  0  0  0  0  0
   -6.9630   -2.6160  -21.9350 C   0  0  0  0  0  0  0  0  0  0  0  0
   -8.2920   -3.1590  -22.5090 C   0  0  2  0  0  0  0  0  0  0  0  0
   -8.0980   -3.9870  -23.7830 C   0  0  0  0  0  0  0  0  0  0  0  0
   -7.5580   -3.4100  -24.5450 H   0  0  0  0  0  0  0  0  0  0  0  0
   -7.5080   -4.8880  -23.5800 H   0  0  0  0  0  0  0  0  0  0  0  0
   -9.0540   -4.3010  -24.2190 H   0  0  0  0  0  0  0  0  0  0  0  0
   -8.7330   -3.7920  -21.7320 H   0  0  0  0  0  0  0  0  0  0  0  0
   -6.4570   -3.3280  -21.2730 H   0  0  0  0  0  0  0  0  0  0  0  0
   -6.2600   -2.3550  -22.7430 H   0  0  0  0  0  0  0  0  0  0  0  0
  -10.7100   -2.1410  -22.4260 C   0  0  0  0  0  0  0  0  0  0  0  0
  -11.2180   -3.2320  -21.7110 C   0  0  0  0  0  0  0  0  0  0  0  0
  -12.5740   -3.3210  -21.4780 C   0  0  0  0  0  0  0  0  0  0  0  0
  -13.0450   -4.3500  -20.7520 F   0  0  0  0  0  0  0  0  0  0  0  0
  -13.4750   -2.3690  -21.9350 C   0  0  0  0  0  0  0  0  0  0  0  0
  -12.9830   -1.2850  -22.6330 C   0  0  0  0  0  0  0  0  0  0  0  0
  -11.6160   -1.1680  -22.8820 C   0  0  0  0  0  0  0  0  0  0  0  0
  -11.1470    0.0370  -23.6430 C   0  0  0  0  0  0  0  0  0  0  0  0
  -11.8880    0.9850  -23.8730 O   0  0  0  0  0  0  0  0  0  0  0  0
  -13.6270   -0.4940  -23.0040 H   0  0  0  0  0  0  0  0  0  0  0  0
  -14.5290   -2.4920  -21.7210 H   0  0  0  0  0  0  0  0  0  0  0  0
  -10.5870   -3.9930  -21.2660 H   0  0  0  0  0  0  0  0  0  0  0  0
   -9.2960   -1.9120  -24.7720 H   0  0  0  0  0  0  0  0  0  0  0  0
   -7.9920   -0.8910  -24.0870 H   0  0  0  0  0  0  0  0  0  0  0  0
  -10.2140    1.4040  -25.5640 H   0  0  0  0  0  0  0  0  0  0  0  0
   -8.5840    0.6940  -25.5220 H   0  0  0  0  0  0  0  0  0  0  0  0
   -7.7870    1.3720  -22.4530 H   0  0  0  0  0  0  0  0  0  0  0  0
   -7.3680    4.0800  -21.8210 H   0  0  0  0  0  0  0  0  0  0  0  0
   -9.3640    5.1500  -25.6980 H   0  0  0  0  0  0  0  0  0  0  0  0
   -9.6500    3.5490  -26.4150 H   0  0  0  0  0  0  0  0  0  0  0  0
  -11.7720    3.3230  -25.0380 H   0  0  0  0  0  0  0  0  0  0  0  0
  -11.4880    4.9450  -24.3570 H   0  0  0  0  0  0  0  0  0  0  0  0
  -11.8170    4.7580  -26.0880 H   0  0  0  0  0  0  0  0  0  0  0  0
  1  2  1  0  0  0  0
  1 60  1  0  0  0  0
  1 61  1  0  0  0  0
  1 62  1  0  0  0  0
  2  3  1  0  0  0  0
  2 58  1  0  0  0  0
  2 59  1  0  0  0  0
  3  4  1  0  0  0  0
  3  7  1  0  0  0  0
  4  5  2  0  0  0  0
  5  6  1  0  0  0  0
  5 57  1  0  0  0  0
  6  7  2  0  0  0  0
  6 56  1  0  0  0  0
  7  8  1  0  0  0  0
  8  9  1  0  0  0  0
  8 54  1  0  0  0  0
  8 55  1  0  0  0  0
  9 10  1  0  0  0  0
  9 47  1  0  0  0  0
 10 11  1  0  0  0  0
 10 52  1  0  0  0  0
 10 53  1  0  0  0  0
 11 12  1  1  0  0  0
 11 32  1  0  0  0  0
 11 40  1  0  0  0  0
 12 13  2  0  0  0  0
 12 14  1  0  0  0  0
 14 15  1  0  0  0  0
 14 31  1  0  0  0  0
 15 16  2  0  0  0  0
 15 24  1  0  0  0  0
 16 17  1  0  0  0  0
 16 30  1  0  0  0  0
 17 18  2  0  0  0  0
 18 19  1  0  0  0  0
 18 29  1  0  0  0  0
 19 20  2  0  0  0  0
 19 24  1  0  0  0  0
 20 21  1  0  0  0  0
 20 28  1  0  0  0  0
 21 22  2  0  0  0  0
 21 27  1  0  0  0  0
 22 23  1  0  0  0  0
 22 26  1  0  0  0  0
 23 24  2  0  0  0  0
 23 25  1  0  0  0  0
 31 32  1  0  0  0  0
 31 38  1  0  0  0  0
 31 39  1  0  0  0  0
 32 33  1  0  0  0  0
 32 37  1  1  0  0  0
 33 34  1  0  0  0  0
 33 35  1  0  0  0  0
 33 36  1  0  0  0  0
 40 41  2  0  0  0  0
 40 46  1  0  0  0  0
 41 42  1  0  0  0  0
 41 51  1  0  0  0  0
 42 43  1  0  0  0  0
 42 44  2  0  0  0  0
 44 45  1  0  0  0  0
 44 50  1  0  0  0  0
 45 46  2  0  0  0  0
 45 49  1  0  0  0  0
 46 47  1  0  0  0  0
 47 48  2  0  0  0  0
M  END
>  <MODEL>
       1

$$$$
