tmp_first_model_8_43.pdb
 OpenBabel08272521063D

 67 72  0  0  1  0  0  0  0  0999 V2000
   -7.8650   -3.3160  -29.0900 C   0  0  0  0  0  0  0  0  0  0  0  0
   -8.5310   -2.3690  -28.2240 N   0  0  0  0  0  0  0  0  0  0  0  0
   -7.8580   -1.7190  -27.2490 C   0  0  0  0  0  0  0  0  0  0  0  0
   -6.7270   -2.0100  -26.8730 O   0  0  0  0  0  0  0  0  0  0  0  0
   -8.6710   -0.5740  -26.6380 C   0  0  0  0  0  0  0  0  0  0  0  0
   -9.2950   -1.0300  -25.4090 N   0  0  0  0  0  0  0  0  0  0  0  0
   -8.6110   -0.7060  -24.1660 C   0  0  0  0  0  0  0  0  0  0  0  0
   -9.0720   -1.5410  -22.9490 C   0  0  2  0  0  0  0  0  0  0  0  0
   -8.5780   -0.7700  -21.7020 C   0  0  0  0  0  0  0  0  0  0  0  0
   -9.0330    0.2550  -21.2390 O   0  0  0  0  0  0  0  0  0  0  0  0
   -7.4400   -1.3940  -21.2280 N   0  0  0  0  0  0  0  0  0  0  0  0
   -6.6440   -0.8140  -20.2050 C   0  0  0  0  0  0  0  0  0  0  0  0
   -6.9520   -1.0540  -18.8930 C   0  0  0  0  0  0  0  0  0  0  0  0
   -6.2500   -0.5830  -17.8300 N   0  0  0  0  0  0  0  0  0  0  0  0
   -5.2110    0.1750  -18.0880 C   0  0  0  0  0  0  0  0  0  0  0  0
   -4.7840    0.5200  -19.4030 C   0  0  0  0  0  0  0  0  0  0  0  0
   -3.6590    1.3560  -19.6250 C   0  0  0  0  0  0  0  0  0  0  0  0
   -3.2830    1.6830  -20.8980 C   0  0  0  0  0  0  0  0  0  0  0  0
   -4.0110    1.1940  -22.0040 C   0  0  0  0  0  0  0  0  0  0  0  0
   -5.0890    0.3650  -21.8170 C   0  0  0  0  0  0  0  0  0  0  0  0
   -5.5090    0.0080  -20.5050 C   0  0  0  0  0  0  0  0  0  0  0  0
   -5.6320   -0.0110  -22.6780 H   0  0  0  0  0  0  0  0  0  0  0  0
   -3.6910    1.4550  -23.0090 H   0  0  0  0  0  0  0  0  0  0  0  0
   -2.4150    2.3130  -21.0690 H   0  0  0  0  0  0  0  0  0  0  0  0
   -3.1130    1.7300  -18.7620 H   0  0  0  0  0  0  0  0  0  0  0  0
   -4.6390    0.5540  -17.2380 H   0  0  0  0  0  0  0  0  0  0  0  0
   -7.8210   -1.6660  -18.6640 H   0  0  0  0  0  0  0  0  0  0  0  0
   -7.0680   -2.5880  -21.9590 C   0  0  0  0  0  0  0  0  0  0  0  0
   -8.3210   -2.9090  -22.7710 C   0  0  2  0  0  0  0  0  0  0  0  0
   -7.9750   -3.7070  -24.0220 C   0  0  0  0  0  0  0  0  0  0  0  0
   -9.1710   -4.2730  -24.5910 N   0  0  0  0  0  0  0  0  0  0  0  0
   -9.2230   -4.9730  -25.7650 C   0  0  0  0  0  0  0  0  0  0  0  0
  -10.7480   -5.2400  -26.5490 S   0  0  0  0  0  0  0  0  0  0  0  0
   -9.9390   -6.1030  -27.8020 C   0  0  0  0  0  0  0  0  0  0  0  0
   -8.6590   -6.2100  -27.6490 N   0  0  0  0  0  0  0  0  0  0  0  0
   -8.2340   -5.5960  -26.4920 C   0  0  0  0  0  0  0  0  0  0  0  0
   -6.7760   -5.6810  -26.1300 C   0  0  0  0  0  0  0  0  0  0  0  0
   -6.2450   -6.2750  -26.8800 H   0  0  0  0  0  0  0  0  0  0  0  0
   -6.6380   -6.1740  -25.1590 H   0  0  0  0  0  0  0  0  0  0  0  0
   -6.3130   -4.6870  -26.0790 H   0  0  0  0  0  0  0  0  0  0  0  0
  -10.4900   -6.4600  -28.6650 H   0  0  0  0  0  0  0  0  0  0  0  0
  -10.0580   -4.0000  -24.1820 H   0  0  0  0  0  0  0  0  0  0  0  0
   -7.2860   -4.5100  -23.7290 H   0  0  0  0  0  0  0  0  0  0  0  0
   -7.4560   -3.0780  -24.7590 H   0  0  0  0  0  0  0  0  0  0  0  0
   -8.9730   -3.5350  -22.1440 H   0  0  0  0  0  0  0  0  0  0  0  0
   -6.2030   -2.4140  -22.6200 H   0  0  0  0  0  0  0  0  0  0  0  0
   -6.7990   -3.3980  -21.2710 H   0  0  0  0  0  0  0  0  0  0  0  0
  -10.5820   -1.6970  -23.0000 C   0  0  0  0  0  0  0  0  0  0  0  0
  -11.3010   -2.0040  -21.8400 C   0  0  0  0  0  0  0  0  0  0  0  0
  -12.6630   -2.2680  -21.8980 C   0  0  0  0  0  0  0  0  0  0  0  0
  -13.4600   -2.8730  -20.4750 Cl  0  0  0  0  0  0  0  0  0  0  0  0
  -13.3820   -2.1370  -23.0850 C   0  0  0  0  0  0  0  0  0  0  0  0
  -12.6720   -1.8280  -24.2320 C   0  0  0  0  0  0  0  0  0  0  0  0
  -11.2910   -1.6630  -24.2030 C   0  0  0  0  0  0  0  0  0  0  0  0
  -10.5810   -1.4760  -25.4990 C   0  0  0  0  0  0  0  0  0  0  0  0
  -11.1220   -1.6840  -26.5820 O   0  0  0  0  0  0  0  0  0  0  0  0
  -13.1570   -1.7200  -25.1920 H   0  0  0  0  0  0  0  0  0  0  0  0
  -14.4600   -2.2770  -23.1190 H   0  0  0  0  0  0  0  0  0  0  0  0
  -10.7820   -2.0380  -20.8900 H   0  0  0  0  0  0  0  0  0  0  0  0
   -8.7600    0.3570  -23.9430 H   0  0  0  0  0  0  0  0  0  0  0  0
   -7.5300   -0.8320  -24.3240 H   0  0  0  0  0  0  0  0  0  0  0  0
   -8.0320    0.2850  -26.4070 H   0  0  0  0  0  0  0  0  0  0  0  0
   -9.4530   -0.2530  -27.3380 H   0  0  0  0  0  0  0  0  0  0  0  0
   -9.5310   -2.2170  -28.2880 H   0  0  0  0  0  0  0  0  0  0  0  0
   -7.1600   -3.9010  -28.4930 H   0  0  0  0  0  0  0  0  0  0  0  0
   -7.3190   -2.8150  -29.9010 H   0  0  0  0  0  0  0  0  0  0  0  0
   -8.6010   -4.0020  -29.5050 H   0  0  0  0  0  0  0  0  0  0  0  0
  1  2  1  0  0  0  0
  1 65  1  0  0  0  0
  1 66  1  0  0  0  0
  1 67  1  0  0  0  0
  2  3  1  0  0  0  0
  2 64  1  0  0  0  0
  3  4  2  0  0  0  0
  3  5  1  0  0  0  0
  5  6  1  0  0  0  0
  5 62  1  0  0  0  0
  5 63  1  0  0  0  0
  6  7  1  0  0  0  0
  6 55  1  0  0  0  0
  7  8  1  0  0  0  0
  7 60  1  0  0  0  0
  7 61  1  0  0  0  0
  8  9  1  1  0  0  0
  8 29  1  0  0  0  0
  8 48  1  0  0  0  0
  9 10  2  0  0  0  0
  9 11  1  0  0  0  0
 11 12  1  0  0  0  0
 11 28  1  0  0  0  0
 12 13  2  0  0  0  0
 12 21  1  0  0  0  0
 13 14  1  0  0  0  0
 13 27  1  0  0  0  0
 14 15  2  0  0  0  0
 15 16  1  0  0  0  0
 15 26  1  0  0  0  0
 16 17  2  0  0  0  0
 16 21  1  0  0  0  0
 17 18  1  0  0  0  0
 17 25  1  0  0  0  0
 18 19  2  0  0  0  0
 18 24  1  0  0  0  0
 19 20  1  0  0  0  0
 19 23  1  0  0  0  0
 20 21  2  0  0  0  0
 20 22  1  0  0  0  0
 28 29  1  0  0  0  0
 28 46  1  0  0  0  0
 28 47  1  0  0  0  0
 29 30  1  0  0  0  0
 29 45  1  1  0  0  0
 30 31  1  0  0  0  0
 30 43  1  0  0  0  0
 30 44  1  0  0  0  0
 31 32  1  0  0  0  0
 31 42  1  0  0  0  0
 32 33  1  0  0  0  0
 32 36  2  0  0  0  0
 33 34  1  0  0  0  0
 34 35  2  0  0  0  0
 34 41  1  0  0  0  0
 35 36  1  0  0  0  0
 36 37  1  0  0  0  0
 37 38  1  0  0  0  0
 37 39  1  0  0  0  0
 37 40  1  0  0  0  0
 48 49  2  0  0  0  0
 48 54  1  0  0  0  0
 49 50  1  0  0  0  0
 49 59  1  0  0  0  0
 50 51  1  0  0  0  0
 50 52  2  0  0  0  0
 52 53  1  0  0  0  0
 52 58  1  0  0  0  0
 53 54  2  0  0  0  0
 53 57  1  0  0  0  0
 54 55  1  0  0  0  0
 55 56  2  0  0  0  0
M  END
>  <MODEL>
       1

$$$$
