tmp_first_model_17_37.pdb
 OpenBabel08282502223D

 56 60  0  0  1  0  0  0  0  0999 V2000
  -14.5440   -1.3550  -24.0710 C   0  0  0  0  0  0  0  0  0  0  0  0
  -13.6350   -2.4530  -23.8030 N   0  0  0  0  0  0  0  0  0  0  0  0
  -13.1310   -2.4980  -22.5460 C   0  0  0  0  0  0  0  0  0  0  0  0
  -13.2030   -1.5300  -21.8050 O   0  0  0  0  0  0  0  0  0  0  0  0
  -12.4800   -3.7880  -22.0650 C   0  0  0  0  0  0  0  0  0  0  0  0
  -11.0990   -3.8990  -22.5120 N   0  0  0  0  0  0  0  0  0  0  0  0
  -10.0290   -3.3370  -21.6900 C   0  0  0  0  0  0  0  0  0  0  0  0
   -8.7760   -2.8760  -22.4850 C   0  0  2  0  0  0  0  0  0  0  0  0
   -7.6450   -2.7350  -21.4430 C   0  0  0  0  0  0  0  0  0  0  0  0
   -7.0810   -3.6380  -20.8540 O   0  0  0  0  0  0  0  0  0  0  0  0
   -7.3630   -1.3980  -21.2550 N   0  0  0  0  0  0  0  0  0  0  0  0
   -6.5730   -0.9250  -20.1840 C   0  0  0  0  0  0  0  0  0  0  0  0
   -6.9040   -1.1870  -18.8790 C   0  0  0  0  0  0  0  0  0  0  0  0
   -6.2690   -0.6280  -17.8160 N   0  0  0  0  0  0  0  0  0  0  0  0
   -5.2650    0.1810  -18.0600 C   0  0  0  0  0  0  0  0  0  0  0  0
   -4.7970    0.5080  -19.3680 C   0  0  0  0  0  0  0  0  0  0  0  0
   -3.6860    1.3640  -19.6030 C   0  0  0  0  0  0  0  0  0  0  0  0
   -3.2930    1.6510  -20.8820 C   0  0  0  0  0  0  0  0  0  0  0  0
   -3.9820    1.1010  -21.9870 C   0  0  0  0  0  0  0  0  0  0  0  0
   -5.0480    0.2610  -21.7840 C   0  0  0  0  0  0  0  0  0  0  0  0
   -5.4780   -0.0510  -20.4680 C   0  0  0  0  0  0  0  0  0  0  0  0
   -5.5690   -0.1840  -22.6240 H   0  0  0  0  0  0  0  0  0  0  0  0
   -3.6570    1.3340  -22.9960 H   0  0  0  0  0  0  0  0  0  0  0  0
   -2.4350    2.2930  -21.0640 H   0  0  0  0  0  0  0  0  0  0  0  0
   -3.1530    1.7760  -18.7510 H   0  0  0  0  0  0  0  0  0  0  0  0
   -4.7640    0.6220  -17.1970 H   0  0  0  0  0  0  0  0  0  0  0  0
   -7.7250   -1.8620  -18.6450 H   0  0  0  0  0  0  0  0  0  0  0  0
   -8.3230   -0.5230  -21.8960 C   0  0  0  0  0  0  0  0  0  0  0  0
   -8.9000   -1.3980  -23.0180 C   0  0  2  0  0  0  0  0  0  0  0  0
  -10.2850   -0.9250  -23.4420 C   0  0  0  0  0  0  0  0  0  0  0  0
  -10.7320   -1.6270  -24.1520 H   0  0  0  0  0  0  0  0  0  0  0  0
  -10.2320    0.0590  -23.9180 H   0  0  0  0  0  0  0  0  0  0  0  0
  -10.9600   -0.8310  -22.5830 H   0  0  0  0  0  0  0  0  0  0  0  0
   -8.2170   -1.3400  -23.8750 H   0  0  0  0  0  0  0  0  0  0  0  0
   -9.1000   -0.2070  -21.1770 H   0  0  0  0  0  0  0  0  0  0  0  0
   -7.8380    0.3890  -22.2620 H   0  0  0  0  0  0  0  0  0  0  0  0
   -8.4510   -3.9240  -23.5450 C   0  0  0  0  0  0  0  0  0  0  0  0
   -7.1480   -4.1260  -24.0280 C   0  0  0  0  0  0  0  0  0  0  0  0
   -6.8810   -5.1040  -24.9790 C   0  0  0  0  0  0  0  0  0  0  0  0
   -7.9040   -5.9130  -25.4750 C   0  0  0  0  0  0  0  0  0  0  0  0
   -9.1970   -5.7050  -25.0340 C   0  0  0  0  0  0  0  0  0  0  0  0
   -9.4660   -4.7210  -24.0890 C   0  0  0  0  0  0  0  0  0  0  0  0
  -10.8930   -4.5400  -23.6950 C   0  0  0  0  0  0  0  0  0  0  0  0
  -11.8240   -4.9340  -24.3960 O   0  0  0  0  0  0  0  0  0  0  0  0
  -10.0350   -6.2940  -25.3910 H   0  0  0  0  0  0  0  0  0  0  0  0
   -7.6950   -6.7100  -26.1840 H   0  0  0  0  0  0  0  0  0  0  0  0
   -5.8680   -5.2480  -25.3430 H   0  0  0  0  0  0  0  0  0  0  0  0
   -6.3260   -3.5390  -23.6240 H   0  0  0  0  0  0  0  0  0  0  0  0
  -10.4360   -2.4780  -21.1440 H   0  0  0  0  0  0  0  0  0  0  0  0
   -9.6930   -4.0700  -20.9510 H   0  0  0  0  0  0  0  0  0  0  0  0
  -12.5380   -3.7840  -20.9690 H   0  0  0  0  0  0  0  0  0  0  0  0
  -13.0420   -4.6330  -22.4760 H   0  0  0  0  0  0  0  0  0  0  0  0
  -13.3990   -3.1750  -24.4660 H   0  0  0  0  0  0  0  0  0  0  0  0
  -14.0150   -0.4080  -23.9220 H   0  0  0  0  0  0  0  0  0  0  0  0
  -15.3480   -1.4000  -23.3260 H   0  0  0  0  0  0  0  0  0  0  0  0
  -14.9470   -1.4190  -25.0830 H   0  0  0  0  0  0  0  0  0  0  0  0
  1  2  1  0  0  0  0
  1 54  1  0  0  0  0
  1 55  1  0  0  0  0
  1 56  1  0  0  0  0
  2  3  1  0  0  0  0
  2 53  1  0  0  0  0
  3  4  2  0  0  0  0
  3  5  1  0  0  0  0
  5  6  1  0  0  0  0
  5 51  1  0  0  0  0
  5 52  1  0  0  0  0
  6  7  1  0  0  0  0
  6 43  1  0  0  0  0
  7  8  1  0  0  0  0
  7 49  1  0  0  0  0
  7 50  1  0  0  0  0
  8  9  1  1  0  0  0
  8 29  1  0  0  0  0
  8 37  1  0  0  0  0
  9 10  2  0  0  0  0
  9 11  1  0  0  0  0
 11 12  1  0  0  0  0
 11 28  1  0  0  0  0
 12 13  2  0  0  0  0
 12 21  1  0  0  0  0
 13 14  1  0  0  0  0
 13 27  1  0  0  0  0
 14 15  2  0  0  0  0
 15 16  1  0  0  0  0
 15 26  1  0  0  0  0
 16 17  2  0  0  0  0
 16 21  1  0  0  0  0
 17 18  1  0  0  0  0
 17 25  1  0  0  0  0
 18 19  2  0  0  0  0
 18 24  1  0  0  0  0
 19 20  1  0  0  0  0
 19 23  1  0  0  0  0
 20 21  2  0  0  0  0
 20 22  1  0  0  0  0
 28 29  1  0  0  0  0
 28 35  1  0  0  0  0
 28 36  1  0  0  0  0
 29 30  1  0  0  0  0
 29 34  1  6  0  0  0
 30 31  1  0  0  0  0
 30 32  1  0  0  0  0
 30 33  1  0  0  0  0
 37 38  2  0  0  0  0
 37 42  1  0  0  0  0
 38 39  1  0  0  0  0
 38 48  1  0  0  0  0
 39 40  2  0  0  0  0
 39 47  1  0  0  0  0
 40 41  1  0  0  0  0
 40 46  1  0  0  0  0
 41 42  2  0  0  0  0
 41 45  1  0  0  0  0
 42 43  1  0  0  0  0
 43 44  2  0  0  0  0
M  END
>  <MODEL>
       1

$$$$
