tmp_first_model_5_32.pdb
 OpenBabel08272519233D

 57 62  0  0  1  0  0  0  0  0999 V2000
   -7.9560   -3.7400  -24.0940 C   0  0  0  0  0  0  0  0  0  0  0  0
   -8.2300   -3.0510  -22.7580 C   0  0  1  0  0  0  0  0  0  0  0  0
   -6.9540   -2.6790  -21.9850 C   0  0  0  0  0  0  0  0  0  0  0  0
   -7.3700   -1.5420  -21.1920 N   0  0  0  0  0  0  0  0  0  0  0  0
   -6.5500   -0.9760  -20.1830 C   0  0  0  0  0  0  0  0  0  0  0  0
   -6.8290   -1.1720  -18.8560 C   0  0  0  0  0  0  0  0  0  0  0  0
   -5.9440   -0.9230  -17.8530 N   0  0  0  0  0  0  0  0  0  0  0  0
   -4.7680   -0.4410  -18.1930 C   0  0  0  0  0  0  0  0  0  0  0  0
   -4.4190   -0.0400  -19.5190 C   0  0  0  0  0  0  0  0  0  0  0  0
   -3.2490    0.7220  -19.8080 C   0  0  0  0  0  0  0  0  0  0  0  0
   -3.1350    1.3880  -20.9990 C   0  0  0  0  0  0  0  0  0  0  0  0
   -4.0750    1.1630  -22.0370 C   0  0  0  0  0  0  0  0  0  0  0  0
   -5.1240    0.3010  -21.8350 C   0  0  0  0  0  0  0  0  0  0  0  0
   -5.3590   -0.2640  -20.5470 C   0  0  0  0  0  0  0  0  0  0  0  0
   -5.7760    0.0300  -22.6590 H   0  0  0  0  0  0  0  0  0  0  0  0
   -3.9380    1.6500  -23.0000 H   0  0  0  0  0  0  0  0  0  0  0  0
   -2.2720    2.0180  -21.1940 H   0  0  0  0  0  0  0  0  0  0  0  0
   -2.5040    0.8490  -19.0310 H   0  0  0  0  0  0  0  0  0  0  0  0
   -4.0510   -0.2840  -17.3840 H   0  0  0  0  0  0  0  0  0  0  0  0
   -7.7910   -1.5700  -18.5330 H   0  0  0  0  0  0  0  0  0  0  0  0
   -8.5500   -0.9590  -21.5930 C   0  0  0  0  0  0  0  0  0  0  0  0
   -9.0130    0.0320  -21.0710 O   0  0  0  0  0  0  0  0  0  0  0  0
   -9.1090   -1.7600  -22.8000 C   0  0  1  0  0  0  0  0  0  0  0  0
   -8.9050   -0.9560  -24.1160 C   0  0  0  0  0  0  0  0  0  0  0  0
   -9.8180    0.1700  -24.1990 N   0  0  0  0  0  0  0  0  0  0  0  0
   -9.3740    1.4830  -24.6300 C   0  0  0  0  0  0  0  0  0  0  0  0
   -9.4750    1.7460  -26.1070 C   0  0  0  0  0  0  0  0  0  0  0  0
  -10.3110    2.5830  -26.6790 N   0  0  0  0  0  0  0  0  0  0  0  0
  -10.1150    2.4730  -28.0070 N   0  0  0  0  0  0  0  0  0  0  0  0
   -9.1760    1.6330  -28.2590 N   0  0  0  0  0  0  0  0  0  0  0  0
   -8.7380    1.1710  -27.0780 N   0  0  0  0  0  0  0  0  0  0  0  0
   -7.5770    0.3100  -27.0190 C   0  0  0  0  0  0  0  0  0  0  0  0
   -7.1190    0.3330  -28.0070 H   0  0  0  0  0  0  0  0  0  0  0  0
   -6.8490    0.6730  -26.2870 H   0  0  0  0  0  0  0  0  0  0  0  0
   -7.8730   -0.7150  -26.7800 H   0  0  0  0  0  0  0  0  0  0  0  0
   -8.3420    1.6350  -24.2850 H   0  0  0  0  0  0  0  0  0  0  0  0
  -10.0200    2.2190  -24.1470 H   0  0  0  0  0  0  0  0  0  0  0  0
  -11.1680   -0.0430  -24.0970 C   0  0  0  0  0  0  0  0  0  0  0  0
  -11.9940    0.7470  -24.5310 O   0  0  0  0  0  0  0  0  0  0  0  0
  -11.5540   -1.2940  -23.3750 C   0  0  0  0  0  0  0  0  0  0  0  0
  -12.8980   -1.6760  -23.3880 C   0  0  0  0  0  0  0  0  0  0  0  0
  -13.3460   -2.6820  -22.5550 C   0  0  0  0  0  0  0  0  0  0  0  0
  -12.4220   -3.2760  -21.7000 C   0  0  0  0  0  0  0  0  0  0  0  0
  -12.8690   -4.1640  -20.7990 F   0  0  0  0  0  0  0  0  0  0  0  0
  -11.0730   -2.9870  -21.7490 C   0  0  0  0  0  0  0  0  0  0  0  0
  -10.6030   -2.0250  -22.6500 C   0  0  0  0  0  0  0  0  0  0  0  0
  -10.3910   -3.5280  -21.1000 H   0  0  0  0  0  0  0  0  0  0  0  0
  -14.3830   -3.0000  -22.5330 H   0  0  0  0  0  0  0  0  0  0  0  0
  -13.5840   -1.1350  -24.0340 H   0  0  0  0  0  0  0  0  0  0  0  0
   -7.8770   -0.5840  -24.1880 H   0  0  0  0  0  0  0  0  0  0  0  0
   -9.0980   -1.6260  -24.9700 H   0  0  0  0  0  0  0  0  0  0  0  0
   -6.6060   -3.5030  -21.3490 H   0  0  0  0  0  0  0  0  0  0  0  0
   -6.1200   -2.4260  -22.6570 H   0  0  0  0  0  0  0  0  0  0  0  0
   -8.7760   -3.7580  -22.1290 H   0  0  0  0  0  0  0  0  0  0  0  0
   -7.3670   -3.1020  -24.7630 H   0  0  0  0  0  0  0  0  0  0  0  0
   -8.8870   -3.9950  -24.6120 H   0  0  0  0  0  0  0  0  0  0  0  0
   -7.3880   -4.6670  -23.9510 H   0  0  0  0  0  0  0  0  0  0  0  0
  1  2  1  0  0  0  0
  1 55  1  0  0  0  0
  1 56  1  0  0  0  0
  1 57  1  0  0  0  0
  2  3  1  0  0  0  0
  2 23  1  0  0  0  0
  2 54  1  1  0  0  0
  3  4  1  0  0  0  0
  3 52  1  0  0  0  0
  3 53  1  0  0  0  0
  4  5  1  0  0  0  0
  4 21  1  0  0  0  0
  5  6  2  0  0  0  0
  5 14  1  0  0  0  0
  6  7  1  0  0  0  0
  6 20  1  0  0  0  0
  7  8  2  0  0  0  0
  8  9  1  0  0  0  0
  8 19  1  0  0  0  0
  9 10  2  0  0  0  0
  9 14  1  0  0  0  0
 10 11  1  0  0  0  0
 10 18  1  0  0  0  0
 11 12  2  0  0  0  0
 11 17  1  0  0  0  0
 12 13  1  0  0  0  0
 12 16  1  0  0  0  0
 13 14  2  0  0  0  0
 13 15  1  0  0  0  0
 21 22  2  0  0  0  0
 23 21  1  1  0  0  0
 23 24  1  0  0  0  0
 23 46  1  0  0  0  0
 24 25  1  0  0  0  0
 24 50  1  0  0  0  0
 24 51  1  0  0  0  0
 25 26  1  0  0  0  0
 25 38  1  0  0  0  0
 26 27  1  0  0  0  0
 26 36  1  0  0  0  0
 26 37  1  0  0  0  0
 27 28  2  0  0  0  0
 27 31  1  0  0  0  0
 28 29  1  0  0  0  0
 29 30  2  0  0  0  0
 30 31  1  0  0  0  0
 31 32  1  0  0  0  0
 32 33  1  0  0  0  0
 32 34  1  0  0  0  0
 32 35  1  0  0  0  0
 38 39  2  0  0  0  0
 38 40  1  0  0  0  0
 40 41  2  0  0  0  0
 40 46  1  0  0  0  0
 41 42  1  0  0  0  0
 41 49  1  0  0  0  0
 42 43  2  0  0  0  0
 42 48  1  0  0  0  0
 43 44  1  0  0  0  0
 43 45  1  0  0  0  0
 45 46  2  0  0  0  0
 45 47  1  0  0  0  0
M  END
>  <MODEL>
       1

$$$$
