tmp_first_model_17_80.pdb
 OpenBabel08282502223D

 60 65  0  0  1  0  0  0  0  0999 V2000
   -7.2220    2.7480  -28.5800 C   0  0  0  0  0  0  0  0  0  0  0  0
   -7.4850    2.6710  -27.1600 N   0  0  0  0  0  0  0  0  0  0  0  0
   -8.1690    1.6200  -26.6280 C   0  0  0  0  0  0  0  0  0  0  0  0
   -8.5810    0.7090  -27.3270 O   0  0  0  0  0  0  0  0  0  0  0  0
   -8.3880    1.6330  -25.1300 C   0  0  0  0  0  0  0  0  0  0  0  0
   -9.0990    0.5070  -24.6000 N   0  0  0  0  0  0  0  0  0  0  0  0
   -8.3880   -0.7300  -24.3620 C   0  0  0  0  0  0  0  0  0  0  0  0
   -8.8560   -1.4260  -23.0550 C   0  0  2  0  0  0  0  0  0  0  0  0
   -8.3660   -0.6550  -21.8110 C   0  0  0  0  0  0  0  0  0  0  0  0
   -8.7390    0.4280  -21.4120 O   0  0  0  0  0  0  0  0  0  0  0  0
   -7.3940   -1.3990  -21.1870 N   0  0  0  0  0  0  0  0  0  0  0  0
   -6.5970   -0.8260  -20.1650 C   0  0  0  0  0  0  0  0  0  0  0  0
   -6.9120   -1.0530  -18.8500 C   0  0  0  0  0  0  0  0  0  0  0  0
   -6.2160   -0.5480  -17.7990 N   0  0  0  0  0  0  0  0  0  0  0  0
   -5.1800    0.2070  -18.0740 C   0  0  0  0  0  0  0  0  0  0  0  0
   -4.7480    0.5270  -19.3940 C   0  0  0  0  0  0  0  0  0  0  0  0
   -3.6240    1.3600  -19.6330 C   0  0  0  0  0  0  0  0  0  0  0  0
   -3.2340    1.6520  -20.9120 C   0  0  0  0  0  0  0  0  0  0  0  0
   -3.9420    1.1150  -22.0120 C   0  0  0  0  0  0  0  0  0  0  0  0
   -5.0250    0.2950  -21.8070 C   0  0  0  0  0  0  0  0  0  0  0  0
   -5.4670   -0.0070  -20.4840 C   0  0  0  0  0  0  0  0  0  0  0  0
   -5.5400   -0.1280  -22.6650 H   0  0  0  0  0  0  0  0  0  0  0  0
   -3.6190    1.3490  -23.0230 H   0  0  0  0  0  0  0  0  0  0  0  0
   -2.3730    2.2900  -21.0940 H   0  0  0  0  0  0  0  0  0  0  0  0
   -3.0870    1.7600  -18.7780 H   0  0  0  0  0  0  0  0  0  0  0  0
   -4.6170    0.6080  -17.2310 H   0  0  0  0  0  0  0  0  0  0  0  0
   -7.7760   -1.6670  -18.6020 H   0  0  0  0  0  0  0  0  0  0  0  0
   -7.0580   -2.6310  -21.8650 C   0  0  0  0  0  0  0  0  0  0  0  0
   -8.2190   -2.8300  -22.8520 C   0  0  2  0  0  0  0  0  0  0  0  0
   -7.8060   -3.5990  -24.1060 C   0  0  0  0  0  0  0  0  0  0  0  0
   -7.0110   -3.0660  -24.6410 H   0  0  0  0  0  0  0  0  0  0  0  0
   -8.6440   -3.7420  -24.8010 H   0  0  0  0  0  0  0  0  0  0  0  0
   -7.4210   -4.5930  -23.8480 H   0  0  0  0  0  0  0  0  0  0  0  0
   -8.9810   -3.4230  -22.3480 H   0  0  0  0  0  0  0  0  0  0  0  0
   -6.9700   -3.4470  -21.1390 H   0  0  0  0  0  0  0  0  0  0  0  0
   -6.1030   -2.5430  -22.4030 H   0  0  0  0  0  0  0  0  0  0  0  0
  -10.3660   -1.4670  -23.0290 C   0  0  0  0  0  0  0  0  0  0  0  0
  -11.0340   -2.2660  -22.0910 C   0  0  0  0  0  0  0  0  0  0  0  0
  -12.4120   -2.2260  -22.0010 C   0  0  0  0  0  0  0  0  0  0  0  0
  -13.1820   -3.0560  -20.6740 Cl  0  0  0  0  0  0  0  0  0  0  0  0
  -13.1730   -1.4370  -22.8700 C   0  0  0  0  0  0  0  0  0  0  0  0
  -12.5150   -0.6050  -23.7530 C   0  0  0  0  0  0  0  0  0  0  0  0
  -11.1200   -0.5870  -23.7970 C   0  0  0  0  0  0  0  0  0  0  0  0
  -10.4710    0.5270  -24.5450 C   0  0  0  0  0  0  0  0  0  0  0  0
  -11.1380    1.4460  -24.9780 O   0  0  0  0  0  0  0  0  0  0  0  0
  -13.0540    0.0900  -24.3890 H   0  0  0  0  0  0  0  0  0  0  0  0
  -14.2560   -1.4580  -22.8010 H   0  0  0  0  0  0  0  0  0  0  0  0
  -10.4840   -2.8920  -21.3980 H   0  0  0  0  0  0  0  0  0  0  0  0
   -7.3230   -0.5040  -24.3210 H   0  0  0  0  0  0  0  0  0  0  0  0
   -8.5580   -1.4040  -25.2090 H   0  0  0  0  0  0  0  0  0  0  0  0
   -7.2860    2.1830  -24.2370 C   0  0  0  0  0  0  0  0  0  0  0  0
   -8.5610    2.9420  -24.4030 C   0  0  0  0  0  0  0  0  0  0  0  0
   -8.5880    3.8600  -24.9830 H   0  0  0  0  0  0  0  0  0  0  0  0
   -9.2570    2.9140  -23.5710 H   0  0  0  0  0  0  0  0  0  0  0  0
   -6.3680    2.5370  -24.6950 H   0  0  0  0  0  0  0  0  0  0  0  0
   -7.1590    1.6630  -23.2940 H   0  0  0  0  0  0  0  0  0  0  0  0
   -7.1060    3.3850  -26.5660 H   0  0  0  0  0  0  0  0  0  0  0  0
   -8.1560    2.7660  -29.1440 H   0  0  0  0  0  0  0  0  0  0  0  0
   -6.6590    3.6580  -28.7950 H   0  0  0  0  0  0  0  0  0  0  0  0
   -6.6470    1.8840  -28.9200 H   0  0  0  0  0  0  0  0  0  0  0  0
  1  2  1  0  0  0  0
  1 58  1  0  0  0  0
  1 59  1  0  0  0  0
  1 60  1  0  0  0  0
  2  3  1  0  0  0  0
  2 57  1  0  0  0  0
  3  4  2  0  0  0  0
  3  5  1  0  0  0  0
  5  6  1  0  0  0  0
  5 51  1  0  0  0  0
  5 52  1  0  0  0  0
  6  7  1  0  0  0  0
  6 44  1  0  0  0  0
  7  8  1  0  0  0  0
  7 49  1  0  0  0  0
  7 50  1  0  0  0  0
  8  9  1  1  0  0  0
  8 29  1  0  0  0  0
  8 37  1  0  0  0  0
  9 10  2  0  0  0  0
  9 11  1  0  0  0  0
 11 12  1  0  0  0  0
 11 28  1  0  0  0  0
 12 13  2  0  0  0  0
 12 21  1  0  0  0  0
 13 14  1  0  0  0  0
 13 27  1  0  0  0  0
 14 15  2  0  0  0  0
 15 16  1  0  0  0  0
 15 26  1  0  0  0  0
 16 17  2  0  0  0  0
 16 21  1  0  0  0  0
 17 18  1  0  0  0  0
 17 25  1  0  0  0  0
 18 19  2  0  0  0  0
 18 24  1  0  0  0  0
 19 20  1  0  0  0  0
 19 23  1  0  0  0  0
 20 21  2  0  0  0  0
 20 22  1  0  0  0  0
 28 29  1  0  0  0  0
 28 35  1  0  0  0  0
 28 36  1  0  0  0  0
 29 30  1  0  0  0  0
 29 34  1  1  0  0  0
 30 31  1  0  0  0  0
 30 32  1  0  0  0  0
 30 33  1  0  0  0  0
 37 38  2  0  0  0  0
 37 43  1  0  0  0  0
 38 39  1  0  0  0  0
 38 48  1  0  0  0  0
 39 40  1  0  0  0  0
 39 41  2  0  0  0  0
 41 42  1  0  0  0  0
 41 47  1  0  0  0  0
 42 43  2  0  0  0  0
 42 46  1  0  0  0  0
 43 44  1  0  0  0  0
 44 45  2  0  0  0  0
 51 52  1  0  0  0  0
 51 55  1  0  0  0  0
 51 56  1  0  0  0  0
 52 53  1  0  0  0  0
 52 54  1  0  0  0  0
M  END
>  <MODEL>
       1

$$$$
