tmp_first_model_15_82.pdb
 OpenBabel08282501153D

 54 57  0  0  1  0  0  0  0  0999 V2000
   -9.4790    1.4600  -24.5860 C   0  0  0  0  0  0  0  0  0  0  0  0
   -8.9130    0.1710  -24.4560 O   0  0  0  0  0  0  0  0  0  0  0  0
   -7.6230   -0.0580  -24.8480 C   0  0  0  0  0  0  0  0  0  0  0  0
   -6.7890    0.9280  -25.3880 C   0  0  0  0  0  0  0  0  0  0  0  0
   -5.4820    0.6110  -25.7610 C   0  0  0  0  0  0  0  0  0  0  0  0
   -4.9930   -0.6810  -25.6110 C   0  0  0  0  0  0  0  0  0  0  0  0
   -5.8280   -1.6460  -25.0610 C   0  0  0  0  0  0  0  0  0  0  0  0
   -7.1240   -1.3630  -24.6500 C   0  0  0  0  0  0  0  0  0  0  0  0
   -7.9880   -2.4730  -24.0490 C   0  0  1  0  0  0  0  0  0  0  0  0
   -8.5380   -3.3730  -25.1590 C   0  0  0  0  0  0  0  0  0  0  0  0
   -9.2380   -4.6030  -24.5950 C   0  0  1  0  0  0  0  0  0  0  0  0
   -9.8850   -5.4440  -25.6970 C   0  0  0  0  0  0  0  0  0  0  0  0
  -10.6240   -4.8680  -26.2670 H   0  0  0  0  0  0  0  0  0  0  0  0
   -9.1340   -5.8080  -26.4080 H   0  0  0  0  0  0  0  0  0  0  0  0
  -10.3980   -6.3210  -25.2900 H   0  0  0  0  0  0  0  0  0  0  0  0
   -8.2680   -5.4310  -23.7360 C   0  0  0  0  0  0  0  0  0  0  0  0
   -6.9950   -4.6710  -23.3580 C   0  0  0  0  0  0  0  0  0  0  0  0
   -7.2840   -3.2710  -23.0390 N   0  0  0  0  0  0  0  0  0  0  0  0
   -6.7360   -2.7280  -21.8870 C   0  0  0  0  0  0  0  0  0  0  0  0
   -5.7980   -3.2560  -21.3160 O   0  0  0  0  0  0  0  0  0  0  0  0
   -7.3990   -1.4620  -21.2840 C   0  0  0  0  0  0  0  0  0  0  0  0
   -6.5770   -0.8300  -20.1830 C   0  0  0  0  0  0  0  0  0  0  0  0
   -6.8720   -1.0480  -18.8630 C   0  0  0  0  0  0  0  0  0  0  0  0
   -6.1900   -0.5420  -17.7970 N   0  0  0  0  0  0  0  0  0  0  0  0
   -5.1580    0.2220  -18.0660 C   0  0  0  0  0  0  0  0  0  0  0  0
   -4.7200    0.5320  -19.3820 C   0  0  0  0  0  0  0  0  0  0  0  0
   -3.5940    1.3590  -19.6230 C   0  0  0  0  0  0  0  0  0  0  0  0
   -3.1960    1.6370  -20.9010 C   0  0  0  0  0  0  0  0  0  0  0  0
   -3.9120    1.0930  -21.9930 C   0  0  0  0  0  0  0  0  0  0  0  0
   -5.0060    0.2880  -21.7960 C   0  0  0  0  0  0  0  0  0  0  0  0
   -5.4440   -0.0110  -20.4790 C   0  0  0  0  0  0  0  0  0  0  0  0
   -5.5320   -0.1190  -22.6620 H   0  0  0  0  0  0  0  0  0  0  0  0
   -3.5900    1.3200  -23.0040 H   0  0  0  0  0  0  0  0  0  0  0  0
   -2.3350    2.2770  -21.0890 H   0  0  0  0  0  0  0  0  0  0  0  0
   -3.0580    1.7760  -18.7710 H   0  0  0  0  0  0  0  0  0  0  0  0
   -4.6030    0.6290  -17.2160 H   0  0  0  0  0  0  0  0  0  0  0  0
   -7.7220   -1.6720  -18.5870 H   0  0  0  0  0  0  0  0  0  0  0  0
   -7.6490   -0.7190  -22.0520 H   0  0  0  0  0  0  0  0  0  0  0  0
   -8.3630   -1.7790  -20.8570 H   0  0  0  0  0  0  0  0  0  0  0  0
   -6.2580   -4.7550  -24.1700 H   0  0  0  0  0  0  0  0  0  0  0  0
   -6.5260   -5.1230  -22.4840 H   0  0  0  0  0  0  0  0  0  0  0  0
   -7.9810   -6.3460  -24.2630 H   0  0  0  0  0  0  0  0  0  0  0  0
   -8.7830   -5.7570  -22.8290 H   0  0  0  0  0  0  0  0  0  0  0  0
  -10.0440   -4.2470  -23.9430 H   0  0  0  0  0  0  0  0  0  0  0  0
   -9.2430   -2.7850  -25.7520 H   0  0  0  0  0  0  0  0  0  0  0  0
   -7.7480   -3.6690  -25.8620 H   0  0  0  0  0  0  0  0  0  0  0  0
   -8.8460   -2.0020  -23.5630 H   0  0  0  0  0  0  0  0  0  0  0  0
   -5.4410   -2.6540  -24.9570 H   0  0  0  0  0  0  0  0  0  0  0  0
   -3.9790   -0.9380  -25.9100 H   0  0  0  0  0  0  0  0  0  0  0  0
   -4.8360    1.3780  -26.1760 H   0  0  0  0  0  0  0  0  0  0  0  0
   -7.1410    1.9470  -25.5200 H   0  0  0  0  0  0  0  0  0  0  0  0
   -9.5300    1.8150  -25.6220 H   0  0  0  0  0  0  0  0  0  0  0  0
   -8.9660    2.2160  -23.9800 H   0  0  0  0  0  0  0  0  0  0  0  0
  -10.4990    1.3700  -24.2150 H   0  0  0  0  0  0  0  0  0  0  0  0
  1  2  1  0  0  0  0
  1 52  1  0  0  0  0
  1 53  1  0  0  0  0
  1 54  1  0  0  0  0
  2  3  1  0  0  0  0
  3  4  2  0  0  0  0
  3  8  1  0  0  0  0
  4  5  1  0  0  0  0
  4 51  1  0  0  0  0
  5  6  2  0  0  0  0
  5 50  1  0  0  0  0
  6  7  1  0  0  0  0
  6 49  1  0  0  0  0
  7  8  2  0  0  0  0
  7 48  1  0  0  0  0
  8  9  1  0  0  0  0
  9 10  1  0  0  0  0
  9 18  1  0  0  0  0
  9 47  1  1  0  0  0
 10 11  1  0  0  0  0
 10 45  1  0  0  0  0
 10 46  1  0  0  0  0
 11 12  1  0  0  0  0
 11 16  1  0  0  0  0
 11 44  1  1  0  0  0
 12 13  1  0  0  0  0
 12 14  1  0  0  0  0
 12 15  1  0  0  0  0
 16 17  1  0  0  0  0
 16 42  1  0  0  0  0
 16 43  1  0  0  0  0
 17 18  1  0  0  0  0
 17 40  1  0  0  0  0
 17 41  1  0  0  0  0
 18 19  1  0  0  0  0
 19 20  2  0  0  0  0
 19 21  1  0  0  0  0
 21 22  1  0  0  0  0
 21 38  1  0  0  0  0
 21 39  1  0  0  0  0
 22 23  2  0  0  0  0
 22 31  1  0  0  0  0
 23 24  1  0  0  0  0
 23 37  1  0  0  0  0
 24 25  2  0  0  0  0
 25 26  1  0  0  0  0
 25 36  1  0  0  0  0
 26 27  2  0  0  0  0
 26 31  1  0  0  0  0
 27 28  1  0  0  0  0
 27 35  1  0  0  0  0
 28 29  2  0  0  0  0
 28 34  1  0  0  0  0
 29 30  1  0  0  0  0
 29 33  1  0  0  0  0
 30 31  2  0  0  0  0
 30 32  1  0  0  0  0
M  END
>  <MODEL>
       1

$$$$
