tmp_first_model_12_93.pdb
 OpenBabel08272523333D

 62 67  0  0  1  0  0  0  0  0999 V2000
  -11.4280    2.5370  -22.1060 C   0  0  0  0  0  0  0  0  0  0  0  0
  -10.4840    3.3130  -23.0160 C   0  0  0  0  0  0  0  0  0  0  0  0
   -9.1760    2.7150  -23.3030 N   0  0  0  0  0  0  0  0  0  0  0  0
   -6.9510    2.8210  -23.5090 N   0  0  0  0  0  0  0  0  0  0  0  0
   -7.9870    3.2010  -22.8120 C   0  0  0  0  0  0  0  0  0  0  0  0
   -7.4700    2.0720  -24.5330 C   0  0  0  0  0  0  0  0  0  0  0  0
   -8.8320    1.9640  -24.4220 C   0  0  0  0  0  0  0  0  0  0  0  0
   -9.8240    1.1390  -25.1640 C   0  0  0  0  0  0  0  0  0  0  0  0
  -10.2720    0.0020  -24.3670 N   0  0  0  0  0  0  0  0  0  0  0  0
   -9.3200   -1.0680  -24.1420 C   0  0  0  0  0  0  0  0  0  0  0  0
   -9.4760   -1.7520  -22.7590 C   0  0  2  0  0  0  0  0  0  0  0  0
   -8.9810   -0.8190  -21.6100 C   0  0  0  0  0  0  0  0  0  0  0  0
   -9.5950    0.0750  -21.0690 O   0  0  0  0  0  0  0  0  0  0  0  0
   -7.6880   -1.1740  -21.2950 N   0  0  0  0  0  0  0  0  0  0  0  0
   -6.9620   -0.6230  -20.2150 C   0  0  0  0  0  0  0  0  0  0  0  0
   -7.2310   -1.0040  -18.9260 C   0  0  0  0  0  0  0  0  0  0  0  0
   -6.4570   -0.6730  -17.8630 N   0  0  0  0  0  0  0  0  0  0  0  0
   -5.3970    0.0650  -18.0820 C   0  0  0  0  0  0  0  0  0  0  0  0
   -5.0340    0.5710  -19.3600 C   0  0  0  0  0  0  0  0  0  0  0  0
   -3.9080    1.4110  -19.5530 C   0  0  0  0  0  0  0  0  0  0  0  0
   -3.6440    1.9430  -20.7850 C   0  0  0  0  0  0  0  0  0  0  0  0
   -4.4920    1.6580  -21.8790 C   0  0  0  0  0  0  0  0  0  0  0  0
   -5.5680    0.8180  -21.7200 C   0  0  0  0  0  0  0  0  0  0  0  0
   -5.8550    0.2440  -20.4580 C   0  0  0  0  0  0  0  0  0  0  0  0
   -6.2570    0.6560  -22.5430 H   0  0  0  0  0  0  0  0  0  0  0  0
   -4.3180    2.1270  -22.8420 H   0  0  0  0  0  0  0  0  0  0  0  0
   -2.8000    2.6150  -20.9180 H   0  0  0  0  0  0  0  0  0  0  0  0
   -3.2830    1.6370  -18.6940 H   0  0  0  0  0  0  0  0  0  0  0  0
   -4.7670    0.3080  -17.2250 H   0  0  0  0  0  0  0  0  0  0  0  0
   -8.0980   -1.6250  -18.7120 H   0  0  0  0  0  0  0  0  0  0  0  0
   -7.1690   -2.2410  -22.1210 C   0  0  0  0  0  0  0  0  0  0  0  0
   -8.4530   -2.9200  -22.6270 C   0  0  2  0  0  0  0  0  0  0  0  0
   -8.1920   -3.7720  -23.8630 C   0  0  0  0  0  0  0  0  0  0  0  0
   -7.6850   -3.1780  -24.6330 H   0  0  0  0  0  0  0  0  0  0  0  0
   -9.1160   -4.1700  -24.2940 H   0  0  0  0  0  0  0  0  0  0  0  0
   -7.5370   -4.6150  -23.6170 H   0  0  0  0  0  0  0  0  0  0  0  0
   -8.8100   -3.5580  -21.8110 H   0  0  0  0  0  0  0  0  0  0  0  0
   -6.5270   -2.9120  -21.5410 H   0  0  0  0  0  0  0  0  0  0  0  0
   -6.5730   -1.8450  -22.9630 H   0  0  0  0  0  0  0  0  0  0  0  0
  -10.9460   -2.0740  -22.5590 C   0  0  0  0  0  0  0  0  0  0  0  0
  -11.3970   -3.1350  -21.7590 C   0  0  0  0  0  0  0  0  0  0  0  0
  -12.6980   -3.1230  -21.2940 C   0  0  0  0  0  0  0  0  0  0  0  0
  -13.1050   -4.0820  -20.4450 F   0  0  0  0  0  0  0  0  0  0  0  0
  -13.6080   -2.1250  -21.6230 C   0  0  0  0  0  0  0  0  0  0  0  0
  -13.2080   -1.1680  -22.5270 C   0  0  0  0  0  0  0  0  0  0  0  0
  -11.9120   -1.1720  -23.0350 C   0  0  0  0  0  0  0  0  0  0  0  0
  -11.5930   -0.1500  -24.0860 C   0  0  0  0  0  0  0  0  0  0  0  0
  -12.4700    0.5440  -24.5930 O   0  0  0  0  0  0  0  0  0  0  0  0
  -13.8850   -0.3930  -22.8690 H   0  0  0  0  0  0  0  0  0  0  0  0
  -14.6000   -2.1360  -21.1850 H   0  0  0  0  0  0  0  0  0  0  0  0
  -10.7570   -3.9580  -21.4590 H   0  0  0  0  0  0  0  0  0  0  0  0
   -8.3150   -0.6470  -24.2370 H   0  0  0  0  0  0  0  0  0  0  0  0
   -9.4530   -1.8250  -24.9250 H   0  0  0  0  0  0  0  0  0  0  0  0
  -10.7160    1.7020  -25.4500 H   0  0  0  0  0  0  0  0  0  0  0  0
   -9.3810    0.7850  -26.1000 H   0  0  0  0  0  0  0  0  0  0  0  0
   -6.8360    1.6560  -25.3090 H   0  0  0  0  0  0  0  0  0  0  0  0
   -7.9300    3.8480  -21.9450 H   0  0  0  0  0  0  0  0  0  0  0  0
  -11.0030    3.5170  -23.9580 H   0  0  0  0  0  0  0  0  0  0  0  0
  -10.2610    4.2960  -22.5840 H   0  0  0  0  0  0  0  0  0  0  0  0
  -10.9620    2.2670  -21.1600 H   0  0  0  0  0  0  0  0  0  0  0  0
  -12.2960    3.1750  -21.9160 H   0  0  0  0  0  0  0  0  0  0  0  0
  -11.8010    1.6250  -22.5710 H   0  0  0  0  0  0  0  0  0  0  0  0
  1  2  1  0  0  0  0
  1 60  1  0  0  0  0
  1 61  1  0  0  0  0
  1 62  1  0  0  0  0
  2  3  1  0  0  0  0
  2 58  1  0  0  0  0
  2 59  1  0  0  0  0
  3  4  1  0  0  0  0
  3  7  1  0  0  0  0
  4  5  2  0  0  0  0
  5  6  1  0  0  0  0
  5 57  1  0  0  0  0
  6  7  2  0  0  0  0
  6 56  1  0  0  0  0
  7  8  1  0  0  0  0
  8  9  1  0  0  0  0
  8 54  1  0  0  0  0
  8 55  1  0  0  0  0
  9 10  1  0  0  0  0
  9 47  1  0  0  0  0
 10 11  1  0  0  0  0
 10 52  1  0  0  0  0
 10 53  1  0  0  0  0
 11 12  1  1  0  0  0
 11 32  1  0  0  0  0
 11 40  1  0  0  0  0
 12 13  2  0  0  0  0
 12 14  1  0  0  0  0
 14 15  1  0  0  0  0
 14 31  1  0  0  0  0
 15 16  2  0  0  0  0
 15 24  1  0  0  0  0
 16 17  1  0  0  0  0
 16 30  1  0  0  0  0
 17 18  2  0  0  0  0
 18 19  1  0  0  0  0
 18 29  1  0  0  0  0
 19 20  2  0  0  0  0
 19 24  1  0  0  0  0
 20 21  1  0  0  0  0
 20 28  1  0  0  0  0
 21 22  2  0  0  0  0
 21 27  1  0  0  0  0
 22 23  1  0  0  0  0
 22 26  1  0  0  0  0
 23 24  2  0  0  0  0
 23 25  1  0  0  0  0
 31 32  1  0  0  0  0
 31 38  1  0  0  0  0
 31 39  1  0  0  0  0
 32 33  1  0  0  0  0
 32 37  1  1  0  0  0
 33 34  1  0  0  0  0
 33 35  1  0  0  0  0
 33 36  1  0  0  0  0
 40 41  2  0  0  0  0
 40 46  1  0  0  0  0
 41 42  1  0  0  0  0
 41 51  1  0  0  0  0
 42 43  1  0  0  0  0
 42 44  2  0  0  0  0
 44 45  1  0  0  0  0
 44 50  1  0  0  0  0
 45 46  2  0  0  0  0
 45 49  1  0  0  0  0
 46 47  1  0  0  0  0
 47 48  2  0  0  0  0
M  END
>  <MODEL>
       1

$$$$
