tmp_first_model_6_28.pdb
 OpenBabel08272519583D

 64 68  0  0  1  0  0  0  0  0999 V2000
   -7.2280    3.4200  -22.1240 C   0  0  0  0  0  0  0  0  0  0  0  0
   -8.1750    2.7680  -23.0010 N   0  0  0  0  0  0  0  0  0  0  0  0
   -7.7380    2.1290  -24.1150 C   0  0  0  0  0  0  0  0  0  0  0  0
   -6.5560    2.0330  -24.4210 O   0  0  0  0  0  0  0  0  0  0  0  0
   -8.8560    1.5530  -24.9810 C   0  0  0  0  0  0  0  0  0  0  0  0
   -9.5300    0.4440  -24.3310 N   0  0  0  0  0  0  0  0  0  0  0  0
   -8.7610   -0.7660  -24.1200 C   0  0  0  0  0  0  0  0  0  0  0  0
   -9.1690   -1.5170  -22.8250 C   0  0  2  0  0  0  0  0  0  0  0  0
   -8.6320   -0.7500  -21.6010 C   0  0  0  0  0  0  0  0  0  0  0  0
   -9.1430    0.2150  -21.0660 O   0  0  0  0  0  0  0  0  0  0  0  0
   -7.4580   -1.3410  -21.1960 N   0  0  0  0  0  0  0  0  0  0  0  0
   -6.6730   -0.7750  -20.1590 C   0  0  0  0  0  0  0  0  0  0  0  0
   -6.9750   -1.0500  -18.8510 C   0  0  0  0  0  0  0  0  0  0  0  0
   -6.2570   -0.6050  -17.7910 N   0  0  0  0  0  0  0  0  0  0  0  0
   -5.2200    0.1600  -18.0330 C   0  0  0  0  0  0  0  0  0  0  0  0
   -4.8050    0.5430  -19.3410 C   0  0  0  0  0  0  0  0  0  0  0  0
   -3.6830    1.3870  -19.5660 C   0  0  0  0  0  0  0  0  0  0  0  0
   -3.3510    1.7780  -20.8350 C   0  0  0  0  0  0  0  0  0  0  0  0
   -4.1260    1.3540  -21.9360 C   0  0  0  0  0  0  0  0  0  0  0  0
   -5.2070    0.5250  -21.7460 C   0  0  0  0  0  0  0  0  0  0  0  0
   -5.5660    0.0850  -20.4440 C   0  0  0  0  0  0  0  0  0  0  0  0
   -5.8210    0.2450  -22.5970 H   0  0  0  0  0  0  0  0  0  0  0  0
   -3.8900    1.6940  -22.9390 H   0  0  0  0  0  0  0  0  0  0  0  0
   -2.4970    2.4280  -21.0030 H   0  0  0  0  0  0  0  0  0  0  0  0
   -3.1080    1.7240  -18.7090 H   0  0  0  0  0  0  0  0  0  0  0  0
   -4.6490    0.5230  -17.1740 H   0  0  0  0  0  0  0  0  0  0  0  0
   -7.8360   -1.6710  -18.6140 H   0  0  0  0  0  0  0  0  0  0  0  0
   -7.0840   -2.5140  -21.9620 C   0  0  0  0  0  0  0  0  0  0  0  0
   -8.3880   -2.8680  -22.7140 C   0  0  2  0  0  0  0  0  0  0  0  0
   -8.1900   -3.5440  -24.0790 C   0  0  0  0  0  0  0  0  0  0  0  0
   -7.4200   -5.1490  -24.1160 S   0  0  0  0  0  0  0  0  0  0  0  0
   -6.1250   -5.0430  -23.4540 O   0  0  0  0  0  0  0  0  0  0  0  0
   -7.5240   -5.6130  -25.4950 O   0  0  0  0  0  0  0  0  0  0  0  0
   -8.4400   -6.0670  -23.1900 N   0  0  0  0  0  0  0  0  0  0  0  0
   -7.9850   -6.7170  -21.9700 C   0  0  0  0  0  0  0  0  0  0  0  0
   -8.8590   -6.9170  -21.3500 H   0  0  0  0  0  0  0  0  0  0  0  0
   -7.3250   -6.0340  -21.4380 H   0  0  0  0  0  0  0  0  0  0  0  0
   -7.4570   -7.6590  -22.1470 H   0  0  0  0  0  0  0  0  0  0  0  0
   -9.0830   -6.5960  -23.7650 H   0  0  0  0  0  0  0  0  0  0  0  0
   -7.5180   -2.9590  -24.7160 H   0  0  0  0  0  0  0  0  0  0  0  0
   -9.1530   -3.6550  -24.5940 H   0  0  0  0  0  0  0  0  0  0  0  0
   -8.9710   -3.5430  -22.0760 H   0  0  0  0  0  0  0  0  0  0  0  0
   -6.7490   -3.3160  -21.3000 H   0  0  0  0  0  0  0  0  0  0  0  0
   -6.2570   -2.3030  -22.6550 H   0  0  0  0  0  0  0  0  0  0  0  0
  -10.6860   -1.5960  -22.7670 C   0  0  0  0  0  0  0  0  0  0  0  0
  -11.3330   -2.4490  -21.8630 C   0  0  0  0  0  0  0  0  0  0  0  0
  -12.7090   -2.3860  -21.7060 C   0  0  0  0  0  0  0  0  0  0  0  0
  -13.4730   -3.2440  -20.3980 Cl  0  0  0  0  0  0  0  0  0  0  0  0
  -13.5070   -1.5550  -22.4940 C   0  0  0  0  0  0  0  0  0  0  0  0
  -12.8780   -0.7110  -23.3830 C   0  0  0  0  0  0  0  0  0  0  0  0
  -11.4880   -0.6890  -23.4770 C   0  0  0  0  0  0  0  0  0  0  0  0
  -10.8960    0.4210  -24.2880 C   0  0  0  0  0  0  0  0  0  0  0  0
  -11.6010    1.2760  -24.8100 O   0  0  0  0  0  0  0  0  0  0  0  0
  -13.4450   -0.0340  -24.0080 H   0  0  0  0  0  0  0  0  0  0  0  0
  -14.5800   -1.5320  -22.3380 H   0  0  0  0  0  0  0  0  0  0  0  0
  -10.7610   -3.1280  -21.2400 H   0  0  0  0  0  0  0  0  0  0  0  0
   -8.8740   -1.4280  -24.9860 H   0  0  0  0  0  0  0  0  0  0  0  0
   -7.7060   -0.4830  -24.0660 H   0  0  0  0  0  0  0  0  0  0  0  0
   -8.4130    1.2570  -25.9370 H   0  0  0  0  0  0  0  0  0  0  0  0
   -9.6220    2.3110  -25.1680 H   0  0  0  0  0  0  0  0  0  0  0  0
   -9.1000    2.5510  -22.6460 H   0  0  0  0  0  0  0  0  0  0  0  0
   -6.7110    2.6920  -21.4890 H   0  0  0  0  0  0  0  0  0  0  0  0
   -6.4810    3.9300  -22.7360 H   0  0  0  0  0  0  0  0  0  0  0  0
   -7.7410    4.1590  -21.5080 H   0  0  0  0  0  0  0  0  0  0  0  0
  1  2  1  0  0  0  0
  1 62  1  0  0  0  0
  1 63  1  0  0  0  0
  1 64  1  0  0  0  0
  2  3  1  0  0  0  0
  2 61  1  0  0  0  0
  3  4  2  0  0  0  0
  3  5  1  0  0  0  0
  5  6  1  0  0  0  0
  5 59  1  0  0  0  0
  5 60  1  0  0  0  0
  6  7  1  0  0  0  0
  6 52  1  0  0  0  0
  7  8  1  0  0  0  0
  7 57  1  0  0  0  0
  7 58  1  0  0  0  0
  8  9  1  1  0  0  0
  8 29  1  0  0  0  0
  8 45  1  0  0  0  0
  9 10  2  0  0  0  0
  9 11  1  0  0  0  0
 11 12  1  0  0  0  0
 11 28  1  0  0  0  0
 12 13  2  0  0  0  0
 12 21  1  0  0  0  0
 13 14  1  0  0  0  0
 13 27  1  0  0  0  0
 14 15  2  0  0  0  0
 15 16  1  0  0  0  0
 15 26  1  0  0  0  0
 16 17  2  0  0  0  0
 16 21  1  0  0  0  0
 17 18  1  0  0  0  0
 17 25  1  0  0  0  0
 18 19  2  0  0  0  0
 18 24  1  0  0  0  0
 19 20  1  0  0  0  0
 19 23  1  0  0  0  0
 20 21  2  0  0  0  0
 20 22  1  0  0  0  0
 28 29  1  0  0  0  0
 28 43  1  0  0  0  0
 28 44  1  0  0  0  0
 29 30  1  0  0  0  0
 29 42  1  1  0  0  0
 30 31  1  0  0  0  0
 30 40  1  0  0  0  0
 30 41  1  0  0  0  0
 31 32  2  0  0  0  0
 31 33  2  0  0  0  0
 31 34  1  0  0  0  0
 34 35  1  0  0  0  0
 34 39  1  0  0  0  0
 35 36  1  0  0  0  0
 35 37  1  0  0  0  0
 35 38  1  0  0  0  0
 45 46  2  0  0  0  0
 45 51  1  0  0  0  0
 46 47  1  0  0  0  0
 46 56  1  0  0  0  0
 47 48  1  0  0  0  0
 47 49  2  0  0  0  0
 49 50  1  0  0  0  0
 49 55  1  0  0  0  0
 50 51  2  0  0  0  0
 50 54  1  0  0  0  0
 51 52  1  0  0  0  0
 52 53  2  0  0  0  0
M  END
>  <MODEL>
       1

$$$$
