tmp_first_model_15_88.pdb
 OpenBabel08282501153D

 40 42  0  0  0  0  0  0  0  0999 V2000
   -9.1750    0.2280  -21.0760 O   0  0  0  0  0  0  0  0  0  0  0  0
   -8.3760   -0.3110  -21.8080 C   0  0  0  0  0  0  0  0  0  0  0  0
   -7.4440   -1.4110  -21.2740 C   0  0  0  0  0  0  0  0  0  0  0  0
   -6.5710   -0.8350  -20.1760 C   0  0  0  0  0  0  0  0  0  0  0  0
   -6.8770   -1.0410  -18.8570 C   0  0  0  0  0  0  0  0  0  0  0  0
   -6.1930   -0.5360  -17.7950 N   0  0  0  0  0  0  0  0  0  0  0  0
   -5.1570    0.2220  -18.0650 C   0  0  0  0  0  0  0  0  0  0  0  0
   -4.7230    0.5340  -19.3810 C   0  0  0  0  0  0  0  0  0  0  0  0
   -3.6020    1.3680  -19.6240 C   0  0  0  0  0  0  0  0  0  0  0  0
   -3.2130    1.6620  -20.9020 C   0  0  0  0  0  0  0  0  0  0  0  0
   -3.9320    1.1290  -21.9960 C   0  0  0  0  0  0  0  0  0  0  0  0
   -5.0190    0.3170  -21.7870 C   0  0  0  0  0  0  0  0  0  0  0  0
   -5.4500   -0.0020  -20.4720 C   0  0  0  0  0  0  0  0  0  0  0  0
   -5.5530   -0.0880  -22.6400 H   0  0  0  0  0  0  0  0  0  0  0  0
   -3.6160    1.3670  -23.0080 H   0  0  0  0  0  0  0  0  0  0  0  0
   -2.3590    2.3110  -21.0840 H   0  0  0  0  0  0  0  0  0  0  0  0
   -3.0680    1.7810  -18.7710 H   0  0  0  0  0  0  0  0  0  0  0  0
   -4.6040    0.6270  -17.2150 H   0  0  0  0  0  0  0  0  0  0  0  0
   -7.7290   -1.6610  -18.5820 H   0  0  0  0  0  0  0  0  0  0  0  0
   -8.0690   -2.2030  -20.8450 H   0  0  0  0  0  0  0  0  0  0  0  0
   -6.8350   -1.8470  -22.0750 H   0  0  0  0  0  0  0  0  0  0  0  0
   -8.1720    0.0940  -23.1320 N   0  0  0  0  0  0  0  0  0  0  0  0
   -8.3880    1.4980  -23.4580 C   0  0  0  0  0  0  0  0  0  0  0  0
   -7.4020    1.9410  -24.5370 C   0  0  0  0  0  0  0  0  0  0  0  0
   -7.4890    1.0310  -25.7610 C   0  0  0  0  0  0  0  0  0  0  0  0
   -6.5070    1.4240  -26.8480 C   0  0  0  0  0  0  0  0  0  0  0  0
   -5.2280    1.3790  -26.3660 F   0  0  0  0  0  0  0  0  0  0  0  0
   -6.7320    2.7060  -27.2620 F   0  0  0  0  0  0  0  0  0  0  0  0
   -6.5520    0.7740  -27.7340 H   0  0  0  0  0  0  0  0  0  0  0  0
   -7.2920   -0.4270  -25.3560 C   0  0  0  0  0  0  0  0  0  0  0  0
   -8.2700   -0.8210  -24.2620 C   0  0  0  0  0  0  0  0  0  0  0  0
   -9.2900   -0.8310  -24.6850 H   0  0  0  0  0  0  0  0  0  0  0  0
   -8.0770   -1.8320  -23.9100 H   0  0  0  0  0  0  0  0  0  0  0  0
   -7.4170   -1.0800  -26.2270 H   0  0  0  0  0  0  0  0  0  0  0  0
   -6.2690   -0.5680  -24.9970 H   0  0  0  0  0  0  0  0  0  0  0  0
   -8.4810    1.1520  -26.2150 H   0  0  0  0  0  0  0  0  0  0  0  0
   -7.5900    2.9800  -24.8240 H   0  0  0  0  0  0  0  0  0  0  0  0
   -6.3840    1.9120  -24.1310 H   0  0  0  0  0  0  0  0  0  0  0  0
   -8.2410    2.0710  -22.5430 H   0  0  0  0  0  0  0  0  0  0  0  0
   -9.4190    1.6990  -23.7880 H   0  0  0  0  0  0  0  0  0  0  0  0
  1  2  2  0  0  0  0
  2  3  1  0  0  0  0
  2 22  1  0  0  0  0
  3  4  1  0  0  0  0
  3 20  1  0  0  0  0
  3 21  1  0  0  0  0
  4  5  2  0  0  0  0
  4 13  1  0  0  0  0
  5  6  1  0  0  0  0
  5 19  1  0  0  0  0
  6  7  2  0  0  0  0
  7  8  1  0  0  0  0
  7 18  1  0  0  0  0
  8  9  2  0  0  0  0
  8 13  1  0  0  0  0
  9 10  1  0  0  0  0
  9 17  1  0  0  0  0
 10 11  2  0  0  0  0
 10 16  1  0  0  0  0
 11 12  1  0  0  0  0
 11 15  1  0  0  0  0
 12 13  2  0  0  0  0
 12 14  1  0  0  0  0
 22 23  1  0  0  0  0
 22 31  1  0  0  0  0
 23 24  1  0  0  0  0
 23 39  1  0  0  0  0
 23 40  1  0  0  0  0
 24 25  1  0  0  0  0
 24 37  1  0  0  0  0
 24 38  1  0  0  0  0
 25 26  1  0  0  0  0
 25 30  1  0  0  0  0
 25 36  1  0  0  0  0
 26 27  1  0  0  0  0
 26 28  1  0  0  0  0
 26 29  1  0  0  0  0
 30 31  1  0  0  0  0
 30 34  1  0  0  0  0
 30 35  1  0  0  0  0
 31 32  1  0  0  0  0
 31 33  1  0  0  0  0
M  END
>  <MODEL>
       1

$$$$
