tmp_first_model_12_62.pdb
 OpenBabel08272523333D

 44 47  0  0  0  0  0  0  0  0999 V2000
   -6.0180   -3.4800  -21.0400 O   0  0  0  0  0  0  0  0  0  0  0  0
   -6.4950   -2.6480  -21.7870 C   0  0  0  0  0  0  0  0  0  0  0  0
   -7.3680   -1.5010  -21.2650 C   0  0  0  0  0  0  0  0  0  0  0  0
   -6.6220   -0.7740  -20.1700 C   0  0  0  0  0  0  0  0  0  0  0  0
   -6.8960   -1.0400  -18.8540 C   0  0  0  0  0  0  0  0  0  0  0  0
   -6.1990   -0.5620  -17.7890 N   0  0  0  0  0  0  0  0  0  0  0  0
   -5.1840    0.2230  -18.0550 C   0  0  0  0  0  0  0  0  0  0  0  0
   -4.7810    0.5880  -19.3680 C   0  0  0  0  0  0  0  0  0  0  0  0
   -3.6360    1.3950  -19.5950 C   0  0  0  0  0  0  0  0  0  0  0  0
   -3.2610    1.7240  -20.8700 C   0  0  0  0  0  0  0  0  0  0  0  0
   -4.0380    1.2920  -21.9710 C   0  0  0  0  0  0  0  0  0  0  0  0
   -5.1240    0.4690  -21.7770 C   0  0  0  0  0  0  0  0  0  0  0  0
   -5.5210    0.0860  -20.4650 C   0  0  0  0  0  0  0  0  0  0  0  0
   -5.6810    0.1140  -22.6380 H   0  0  0  0  0  0  0  0  0  0  0  0
   -3.7520    1.5960  -22.9790 H   0  0  0  0  0  0  0  0  0  0  0  0
   -2.3730    2.3280  -21.0450 H   0  0  0  0  0  0  0  0  0  0  0  0
   -3.0520    1.7160  -18.7320 H   0  0  0  0  0  0  0  0  0  0  0  0
   -4.6130    0.6100  -17.2090 H   0  0  0  0  0  0  0  0  0  0  0  0
   -7.7340   -1.6910  -18.6030 H   0  0  0  0  0  0  0  0  0  0  0  0
   -7.6220   -0.8280  -22.0890 H   0  0  0  0  0  0  0  0  0  0  0  0
   -8.3040   -1.9180  -20.8730 H   0  0  0  0  0  0  0  0  0  0  0  0
   -6.1660   -2.6090  -23.1280 N   0  0  0  0  0  0  0  0  0  0  0  0
   -4.9290   -3.2840  -23.4870 C   0  0  0  0  0  0  0  0  0  0  0  0
   -4.2140   -2.4800  -24.5600 C   0  0  0  0  0  0  0  0  0  0  0  0
   -5.0960   -2.2400  -25.7830 C   0  0  0  0  0  0  0  0  0  0  0  0
   -4.4430   -1.3360  -26.8190 C   0  0  0  0  0  0  0  0  0  0  0  0
   -4.0230    0.0810  -26.5250 C   0  0  0  0  0  0  0  0  0  0  0  0
   -2.9910   -0.9590  -26.8460 C   0  0  0  0  0  0  0  0  0  0  0  0
   -2.5290   -0.9300  -27.8250 H   0  0  0  0  0  0  0  0  0  0  0  0
   -2.3230   -1.3040  -26.0610 H   0  0  0  0  0  0  0  0  0  0  0  0
   -4.0720    0.4740  -25.5110 H   0  0  0  0  0  0  0  0  0  0  0  0
   -4.2650    0.8290  -27.2710 H   0  0  0  0  0  0  0  0  0  0  0  0
   -4.8740   -1.4550  -27.8140 H   0  0  0  0  0  0  0  0  0  0  0  0
   -6.4360   -1.6290  -25.3520 C   0  0  0  0  0  0  0  0  0  0  0  0
   -7.0990   -2.4380  -24.2410 C   0  0  0  0  0  0  0  0  0  0  0  0
   -7.3790   -3.4320  -24.6330 H   0  0  0  0  0  0  0  0  0  0  0  0
   -8.0190   -1.9690  -23.8800 H   0  0  0  0  0  0  0  0  0  0  0  0
   -6.2210   -0.6220  -24.9740 H   0  0  0  0  0  0  0  0  0  0  0  0
   -7.1070   -1.5230  -26.2130 H   0  0  0  0  0  0  0  0  0  0  0  0
   -5.2980   -3.2000  -26.2730 H   0  0  0  0  0  0  0  0  0  0  0  0
   -3.9840   -1.4910  -24.1520 H   0  0  0  0  0  0  0  0  0  0  0  0
   -3.2670   -2.9610  -24.8290 H   0  0  0  0  0  0  0  0  0  0  0  0
   -5.1530   -4.3070  -23.8230 H   0  0  0  0  0  0  0  0  0  0  0  0
   -4.3430   -3.3640  -22.5680 H   0  0  0  0  0  0  0  0  0  0  0  0
  1  2  2  0  0  0  0
  2  3  1  0  0  0  0
  2 22  1  0  0  0  0
  3  4  1  0  0  0  0
  3 20  1  0  0  0  0
  3 21  1  0  0  0  0
  4  5  2  0  0  0  0
  4 13  1  0  0  0  0
  5  6  1  0  0  0  0
  5 19  1  0  0  0  0
  6  7  2  0  0  0  0
  7  8  1  0  0  0  0
  7 18  1  0  0  0  0
  8  9  2  0  0  0  0
  8 13  1  0  0  0  0
  9 10  1  0  0  0  0
  9 17  1  0  0  0  0
 10 11  2  0  0  0  0
 10 16  1  0  0  0  0
 11 12  1  0  0  0  0
 11 15  1  0  0  0  0
 12 13  2  0  0  0  0
 12 14  1  0  0  0  0
 22 23  1  0  0  0  0
 22 35  1  0  0  0  0
 23 24  1  0  0  0  0
 23 43  1  0  0  0  0
 23 44  1  0  0  0  0
 24 25  1  0  0  0  0
 24 41  1  0  0  0  0
 24 42  1  0  0  0  0
 25 26  1  0  0  0  0
 25 34  1  0  0  0  0
 25 40  1  0  0  0  0
 26 27  1  0  0  0  0
 26 28  1  0  0  0  0
 26 33  1  0  0  0  0
 27 28  1  0  0  0  0
 27 31  1  0  0  0  0
 27 32  1  0  0  0  0
 28 29  1  0  0  0  0
 28 30  1  0  0  0  0
 34 35  1  0  0  0  0
 34 38  1  0  0  0  0
 34 39  1  0  0  0  0
 35 36  1  0  0  0  0
 35 37  1  0  0  0  0
M  END
>  <MODEL>
       1

$$$$
