tmp_first_model_17_27.pdb
 OpenBabel08282502223D

 58 62  0  0  1  0  0  0  0  0999 V2000
   -3.7610   -5.3580  -22.7100 C   0  0  0  0  0  0  0  0  0  0  0  0
   -4.4950   -6.5330  -22.1630 N   0  3  0  0  0  0  0  0  0  0  0  0
   -5.6230   -6.2240  -21.2090 C   0  0  0  0  0  0  0  0  0  0  0  0
   -7.0000   -6.4860  -21.8360 C   0  0  0  0  0  0  0  0  0  0  0  0
   -7.3430   -5.4530  -22.8010 N   0  0  0  0  0  0  0  0  0  0  0  0
   -8.3120   -4.4350  -22.4400 C   0  0  0  0  0  0  0  0  0  0  0  0
   -7.9030   -3.0180  -22.9130 C   0  0  2  0  0  0  0  0  0  0  0  0
   -6.7850   -2.4740  -21.9820 C   0  0  0  0  0  0  0  0  0  0  0  0
   -5.6400   -2.8850  -21.9030 O   0  0  0  0  0  0  0  0  0  0  0  0
   -7.3100   -1.4580  -21.2160 N   0  0  0  0  0  0  0  0  0  0  0  0
   -6.5730   -0.8460  -20.1810 C   0  0  0  0  0  0  0  0  0  0  0  0
   -6.9170   -1.0490  -18.8720 C   0  0  0  0  0  0  0  0  0  0  0  0
   -6.2500   -0.5360  -17.8130 N   0  0  0  0  0  0  0  0  0  0  0  0
   -5.2030    0.2080  -18.0790 C   0  0  0  0  0  0  0  0  0  0  0  0
   -4.7530    0.5180  -19.3930 C   0  0  0  0  0  0  0  0  0  0  0  0
   -3.6280    1.3530  -19.6190 C   0  0  0  0  0  0  0  0  0  0  0  0
   -3.2470    1.6630  -20.8940 C   0  0  0  0  0  0  0  0  0  0  0  0
   -3.9660    1.1640  -22.0000 C   0  0  0  0  0  0  0  0  0  0  0  0
   -5.0470    0.3440  -21.8080 C   0  0  0  0  0  0  0  0  0  0  0  0
   -5.4590   -0.0090  -20.4930 C   0  0  0  0  0  0  0  0  0  0  0  0
   -5.5890   -0.0470  -22.6640 H   0  0  0  0  0  0  0  0  0  0  0  0
   -3.6500    1.4320  -23.0030 H   0  0  0  0  0  0  0  0  0  0  0  0
   -2.3920    2.3100  -21.0630 H   0  0  0  0  0  0  0  0  0  0  0  0
   -3.0930    1.7410  -18.7580 H   0  0  0  0  0  0  0  0  0  0  0  0
   -4.6510    0.6130  -17.2320 H   0  0  0  0  0  0  0  0  0  0  0  0
   -7.7750   -1.6790  -18.6350 H   0  0  0  0  0  0  0  0  0  0  0  0
   -8.7570   -1.3710  -21.2980 C   0  0  0  0  0  0  0  0  0  0  0  0
   -9.0710   -2.0050  -22.6600 C   0  0  2  0  0  0  0  0  0  0  0  0
  -10.4900   -2.5660  -22.6940 C   0  0  0  0  0  0  0  0  0  0  0  0
  -10.7010   -3.0830  -23.6360 H   0  0  0  0  0  0  0  0  0  0  0  0
  -10.6480   -3.2790  -21.8730 H   0  0  0  0  0  0  0  0  0  0  0  0
  -11.2160   -1.7550  -22.5760 H   0  0  0  0  0  0  0  0  0  0  0  0
   -9.0030   -1.2140  -23.4130 H   0  0  0  0  0  0  0  0  0  0  0  0
   -9.2580   -1.9320  -20.4910 H   0  0  0  0  0  0  0  0  0  0  0  0
   -9.0830   -0.3280  -21.2420 H   0  0  0  0  0  0  0  0  0  0  0  0
   -7.4090   -3.0930  -24.3400 C   0  0  0  0  0  0  0  0  0  0  0  0
   -7.3350   -1.9360  -25.1180 C   0  0  0  0  0  0  0  0  0  0  0  0
   -6.9010   -2.0220  -26.4210 C   0  0  0  0  0  0  0  0  0  0  0  0
   -6.8270   -0.8980  -27.1500 F   0  0  0  0  0  0  0  0  0  0  0  0
   -6.5340   -3.2180  -27.0200 C   0  0  0  0  0  0  0  0  0  0  0  0
   -6.5510   -4.3500  -26.2350 C   0  0  0  0  0  0  0  0  0  0  0  0
   -6.9290   -4.2890  -24.8920 C   0  0  0  0  0  0  0  0  0  0  0  0
   -6.7310   -5.4840  -24.0070 C   0  0  0  0  0  0  0  0  0  0  0  0
   -5.9920   -6.4230  -24.3360 O   0  0  0  0  0  0  0  0  0  0  0  0
   -6.2640   -5.3050  -26.6510 H   0  0  0  0  0  0  0  0  0  0  0  0
   -6.2160   -3.2360  -28.0580 H   0  0  0  0  0  0  0  0  0  0  0  0
   -7.6000   -0.9630  -24.7190 H   0  0  0  0  0  0  0  0  0  0  0  0
   -8.3890   -4.4120  -21.3520 H   0  0  0  0  0  0  0  0  0  0  0  0
   -9.2960   -4.6890  -22.8580 H   0  0  0  0  0  0  0  0  0  0  0  0
   -7.7780   -6.5140  -21.0690 H   0  0  0  0  0  0  0  0  0  0  0  0
   -7.0030   -7.4550  -22.3520 H   0  0  0  0  0  0  0  0  0  0  0  0
   -5.5190   -6.8480  -20.3180 H   0  0  0  0  0  0  0  0  0  0  0  0
   -5.5570   -5.1680  -20.9280 H   0  0  0  0  0  0  0  0  0  0  0  0
   -4.9030   -7.0210  -22.9940 H   0  0  0  0  0  0  0  0  0  0  0  0
   -3.8240   -7.1730  -21.6820 H   0  0  0  0  0  0  0  0  0  0  0  0
   -2.8550   -5.7010  -23.2170 H   0  0  0  0  0  0  0  0  0  0  0  0
   -4.3850   -4.8230  -23.4320 H   0  0  0  0  0  0  0  0  0  0  0  0
   -3.5050   -4.6640  -21.9100 H   0  0  0  0  0  0  0  0  0  0  0  0
  1  2  1  0  0  0  0
  1 56  1  0  0  0  0
  1 57  1  0  0  0  0
  1 58  1  0  0  0  0
  2  3  1  0  0  0  0
  2 54  1  0  0  0  0
  2 55  1  0  0  0  0
  3  4  1  0  0  0  0
  3 52  1  0  0  0  0
  3 53  1  0  0  0  0
  4  5  1  0  0  0  0
  4 50  1  0  0  0  0
  4 51  1  0  0  0  0
  5  6  1  0  0  0  0
  5 43  1  0  0  0  0
  6  7  1  0  0  0  0
  6 48  1  0  0  0  0
  6 49  1  0  0  0  0
  7  8  1  1  0  0  0
  7 28  1  0  0  0  0
  7 36  1  0  0  0  0
  8  9  2  0  0  0  0
  8 10  1  0  0  0  0
 10 11  1  0  0  0  0
 10 27  1  0  0  0  0
 11 12  2  0  0  0  0
 11 20  1  0  0  0  0
 12 13  1  0  0  0  0
 12 26  1  0  0  0  0
 13 14  2  0  0  0  0
 14 15  1  0  0  0  0
 14 25  1  0  0  0  0
 15 16  2  0  0  0  0
 15 20  1  0  0  0  0
 16 17  1  0  0  0  0
 16 24  1  0  0  0  0
 17 18  2  0  0  0  0
 17 23  1  0  0  0  0
 18 19  1  0  0  0  0
 18 22  1  0  0  0  0
 19 20  2  0  0  0  0
 19 21  1  0  0  0  0
 27 28  1  0  0  0  0
 27 34  1  0  0  0  0
 27 35  1  0  0  0  0
 28 29  1  0  0  0  0
 28 33  1  6  0  0  0
 29 30  1  0  0  0  0
 29 31  1  0  0  0  0
 29 32  1  0  0  0  0
 36 37  2  0  0  0  0
 36 42  1  0  0  0  0
 37 38  1  0  0  0  0
 37 47  1  0  0  0  0
 38 39  1  0  0  0  0
 38 40  2  0  0  0  0
 40 41  1  0  0  0  0
 40 46  1  0  0  0  0
 41 42  2  0  0  0  0
 41 45  1  0  0  0  0
 42 43  1  0  0  0  0
 43 44  2  0  0  0  0
M  CHG  1   2   1
M  END
>  <MODEL>
       1

$$$$
