tmp_first_model_10_15.pdb
 OpenBabel08272522163D

 63 68  0  0  1  0  0  0  0  0999 V2000
   -7.4950    3.3000  -21.9700 C   0  0  0  0  0  0  0  0  0  0  0  0
   -8.5880    2.7480  -22.7570 N   0  0  0  0  0  0  0  0  0  0  0  0
   -8.2860    1.9670  -23.8310 C   0  0  0  0  0  0  0  0  0  0  0  0
   -7.1280    1.7340  -24.1480 O   0  0  0  0  0  0  0  0  0  0  0  0
   -9.4400    1.3740  -24.6530 C   0  0  0  0  0  0  0  0  0  0  0  0
   -9.9390    0.1570  -24.0370 N   0  0  0  0  0  0  0  0  0  0  0  0
   -9.0780   -1.0170  -23.9860 C   0  0  0  0  0  0  0  0  0  0  0  0
   -9.2440   -1.7840  -22.6460 C   0  0  2  0  0  0  0  0  0  0  0  0
   -8.6800   -0.8920  -21.5040 C   0  0  0  0  0  0  0  0  0  0  0  0
   -9.1960    0.0900  -21.0110 O   0  0  0  0  0  0  0  0  0  0  0  0
   -7.4370   -1.3740  -21.1530 N   0  0  0  0  0  0  0  0  0  0  0  0
   -6.6590   -0.7760  -20.1360 C   0  0  0  0  0  0  0  0  0  0  0  0
   -6.9410   -1.0490  -18.8200 C   0  0  0  0  0  0  0  0  0  0  0  0
   -6.2220   -0.5800  -17.7750 N   0  0  0  0  0  0  0  0  0  0  0  0
   -5.1840    0.1770  -18.0450 C   0  0  0  0  0  0  0  0  0  0  0  0
   -4.7930    0.5570  -19.3620 C   0  0  0  0  0  0  0  0  0  0  0  0
   -3.7110    1.4480  -19.6010 C   0  0  0  0  0  0  0  0  0  0  0  0
   -3.4550    1.9030  -20.8670 C   0  0  0  0  0  0  0  0  0  0  0  0
   -4.2550    1.4840  -21.9520 C   0  0  0  0  0  0  0  0  0  0  0  0
   -5.2700    0.5720  -21.7560 C   0  0  0  0  0  0  0  0  0  0  0  0
   -5.5700    0.0950  -20.4490 C   0  0  0  0  0  0  0  0  0  0  0  0
   -5.8880    0.2780  -22.5980 H   0  0  0  0  0  0  0  0  0  0  0  0
   -4.0750    1.8770  -22.9500 H   0  0  0  0  0  0  0  0  0  0  0  0
   -2.6510    2.6120  -21.0410 H   0  0  0  0  0  0  0  0  0  0  0  0
   -3.1180    1.7760  -18.7530 H   0  0  0  0  0  0  0  0  0  0  0  0
   -4.6170    0.5640  -17.1990 H   0  0  0  0  0  0  0  0  0  0  0  0
   -7.7790   -1.6970  -18.5740 H   0  0  0  0  0  0  0  0  0  0  0  0
   -6.9970   -2.5110  -21.9270 C   0  0  0  0  0  0  0  0  0  0  0  0
   -8.3030   -3.0230  -22.5470 C   0  0  2  0  0  0  0  0  0  0  0  0
   -8.0480   -3.8010  -23.8430 C   0  0  0  0  0  0  0  0  0  0  0  0
   -7.2370   -4.9910  -23.6220 N   0  0  0  0  0  0  0  0  0  0  0  0
   -5.9100   -5.1670  -23.8360 C   0  0  0  0  0  0  0  0  0  0  0  0
   -5.6070   -6.4610  -23.4780 C   0  0  0  0  0  0  0  0  0  0  0  0
   -6.8380   -6.9840  -23.0310 C   0  0  0  0  0  0  0  0  0  0  0  0
   -7.8080   -6.0820  -23.1040 N   0  0  0  0  0  0  0  0  0  0  0  0
   -7.0790   -7.9760  -22.6680 H   0  0  0  0  0  0  0  0  0  0  0  0
   -4.6530   -6.9740  -23.5610 H   0  0  0  0  0  0  0  0  0  0  0  0
   -5.2820   -4.3640  -24.2090 H   0  0  0  0  0  0  0  0  0  0  0  0
   -7.5150   -3.1680  -24.5570 H   0  0  0  0  0  0  0  0  0  0  0  0
   -8.9990   -4.1090  -24.2880 H   0  0  0  0  0  0  0  0  0  0  0  0
   -8.7450   -3.7130  -21.8250 H   0  0  0  0  0  0  0  0  0  0  0  0
   -6.5160   -3.2630  -21.2940 H   0  0  0  0  0  0  0  0  0  0  0  0
   -6.2620   -2.2170  -22.6940 H   0  0  0  0  0  0  0  0  0  0  0  0
  -10.7330   -2.0510  -22.4600 C   0  0  0  0  0  0  0  0  0  0  0  0
  -11.2260   -3.1360  -21.7200 C   0  0  0  0  0  0  0  0  0  0  0  0
  -12.5830   -3.2570  -21.4610 C   0  0  0  0  0  0  0  0  0  0  0  0
  -13.1460   -4.5760  -20.4630 Cl  0  0  0  0  0  0  0  0  0  0  0  0
  -13.5050   -2.3320  -21.9480 C   0  0  0  0  0  0  0  0  0  0  0  0
  -13.0350   -1.2740  -22.6970 C   0  0  0  0  0  0  0  0  0  0  0  0
  -11.6740   -1.1280  -22.9480 C   0  0  0  0  0  0  0  0  0  0  0  0
  -11.2660    0.0830  -23.7250 C   0  0  0  0  0  0  0  0  0  0  0  0
  -12.0720    0.9480  -24.0490 O   0  0  0  0  0  0  0  0  0  0  0  0
  -13.7050   -0.5230  -23.1050 H   0  0  0  0  0  0  0  0  0  0  0  0
  -14.5610   -2.4380  -21.7310 H   0  0  0  0  0  0  0  0  0  0  0  0
  -10.5700   -3.8840  -21.2880 H   0  0  0  0  0  0  0  0  0  0  0  0
   -8.0460   -0.6740  -24.1020 H   0  0  0  0  0  0  0  0  0  0  0  0
   -9.3220   -1.6870  -24.8230 H   0  0  0  0  0  0  0  0  0  0  0  0
  -10.2930    2.0540  -24.7330 H   0  0  0  0  0  0  0  0  0  0  0  0
   -9.0690    1.1780  -25.6730 H   0  0  0  0  0  0  0  0  0  0  0  0
   -9.4810    2.6270  -22.2950 H   0  0  0  0  0  0  0  0  0  0  0  0
   -7.8840    4.0520  -21.2820 H   0  0  0  0  0  0  0  0  0  0  0  0
   -6.7470    3.7580  -22.6270 H   0  0  0  0  0  0  0  0  0  0  0  0
   -6.9920    2.5160  -21.3940 H   0  0  0  0  0  0  0  0  0  0  0  0
  1  2  1  0  0  0  0
  1 61  1  0  0  0  0
  1 62  1  0  0  0  0
  1 63  1  0  0  0  0
  2  3  1  0  0  0  0
  2 60  1  0  0  0  0
  3  4  2  0  0  0  0
  3  5  1  0  0  0  0
  5  6  1  0  0  0  0
  5 58  1  0  0  0  0
  5 59  1  0  0  0  0
  6  7  1  0  0  0  0
  6 51  1  0  0  0  0
  7  8  1  0  0  0  0
  7 56  1  0  0  0  0
  7 57  1  0  0  0  0
  8  9  1  1  0  0  0
  8 29  1  0  0  0  0
  8 44  1  0  0  0  0
  9 10  2  0  0  0  0
  9 11  1  0  0  0  0
 11 12  1  0  0  0  0
 11 28  1  0  0  0  0
 12 13  2  0  0  0  0
 12 21  1  0  0  0  0
 13 14  1  0  0  0  0
 13 27  1  0  0  0  0
 14 15  2  0  0  0  0
 15 16  1  0  0  0  0
 15 26  1  0  0  0  0
 16 17  2  0  0  0  0
 16 21  1  0  0  0  0
 17 18  1  0  0  0  0
 17 25  1  0  0  0  0
 18 19  2  0  0  0  0
 18 24  1  0  0  0  0
 19 20  1  0  0  0  0
 19 23  1  0  0  0  0
 20 21  2  0  0  0  0
 20 22  1  0  0  0  0
 28 29  1  0  0  0  0
 28 42  1  0  0  0  0
 28 43  1  0  0  0  0
 29 30  1  0  0  0  0
 29 41  1  1  0  0  0
 30 31  1  0  0  0  0
 30 39  1  0  0  0  0
 30 40  1  0  0  0  0
 31 32  1  0  0  0  0
 31 35  1  0  0  0  0
 32 33  2  0  0  0  0
 32 38  1  0  0  0  0
 33 34  1  0  0  0  0
 33 37  1  0  0  0  0
 34 35  2  0  0  0  0
 34 36  1  0  0  0  0
 44 45  2  0  0  0  0
 44 50  1  0  0  0  0
 45 46  1  0  0  0  0
 45 55  1  0  0  0  0
 46 47  1  0  0  0  0
 46 48  2  0  0  0  0
 48 49  1  0  0  0  0
 48 54  1  0  0  0  0
 49 50  2  0  0  0  0
 49 53  1  0  0  0  0
 50 51  1  0  0  0  0
 51 52  2  0  0  0  0
M  END
>  <MODEL>
       1

$$$$
