tmp_first_model_17_73.pdb
 OpenBabel08282502223D

 50 53  0  0  1  0  0  0  0  0999 V2000
   -5.5990   -3.0290  -21.5810 O   0  0  0  0  0  0  0  0  0  0  0  0
   -6.7580   -2.7540  -21.8600 C   0  0  0  0  0  0  0  0  0  0  0  0
   -7.4150   -1.4800  -21.2680 C   0  0  0  0  0  0  0  0  0  0  0  0
   -6.5810   -0.8320  -20.1820 C   0  0  0  0  0  0  0  0  0  0  0  0
   -6.8740   -1.0450  -18.8620 C   0  0  0  0  0  0  0  0  0  0  0  0
   -6.1910   -0.5390  -17.7980 N   0  0  0  0  0  0  0  0  0  0  0  0
   -5.1590    0.2210  -18.0660 C   0  0  0  0  0  0  0  0  0  0  0  0
   -4.7220    0.5300  -19.3800 C   0  0  0  0  0  0  0  0  0  0  0  0
   -3.5960    1.3580  -19.6210 C   0  0  0  0  0  0  0  0  0  0  0  0
   -3.1980    1.6400  -20.8980 C   0  0  0  0  0  0  0  0  0  0  0  0
   -3.9110    1.0960  -21.9920 C   0  0  0  0  0  0  0  0  0  0  0  0
   -5.0020    0.2890  -21.7860 C   0  0  0  0  0  0  0  0  0  0  0  0
   -5.4460   -0.0140  -20.4750 C   0  0  0  0  0  0  0  0  0  0  0  0
   -5.5270   -0.1340  -22.6370 H   0  0  0  0  0  0  0  0  0  0  0  0
   -3.5740    1.3110  -23.0000 H   0  0  0  0  0  0  0  0  0  0  0  0
   -2.3290    2.2660  -21.0870 H   0  0  0  0  0  0  0  0  0  0  0  0
   -3.0540    1.7710  -18.7710 H   0  0  0  0  0  0  0  0  0  0  0  0
   -4.6030    0.6270  -17.2160 H   0  0  0  0  0  0  0  0  0  0  0  0
   -7.7200   -1.6690  -18.5840 H   0  0  0  0  0  0  0  0  0  0  0  0
   -7.6150   -0.7500  -22.0650 H   0  0  0  0  0  0  0  0  0  0  0  0
   -8.3960   -1.7480  -20.8480 H   0  0  0  0  0  0  0  0  0  0  0  0
   -7.5180   -3.5810  -22.6640 N   0  0  0  0  0  0  0  0  0  0  0  0
   -8.6630   -3.1260  -23.4510 C   0  0  0  0  0  0  0  0  0  0  0  0
   -9.7340   -4.2020  -23.5640 C   0  0  0  0  0  0  0  0  0  0  0  0
   -9.1620   -5.5020  -24.1050 C   0  0  0  0  0  0  0  0  0  0  0  0
   -7.9810   -5.9310  -23.2470 C   0  0  0  0  0  0  0  0  0  0  0  0
   -6.9100   -4.8490  -23.1050 C   0  0  1  0  0  0  0  0  0  0  0  0
   -6.0410   -4.6960  -24.3710 C   0  0  0  0  0  0  0  0  0  0  0  0
   -5.2080   -5.9200  -24.6890 C   0  0  0  0  0  0  0  0  0  0  0  0
   -4.0470   -6.1890  -23.9580 C   0  0  0  0  0  0  0  0  0  0  0  0
   -3.2850   -7.3200  -24.2200 C   0  0  0  0  0  0  0  0  0  0  0  0
   -3.6700   -8.2110  -25.2180 C   0  0  0  0  0  0  0  0  0  0  0  0
   -4.8280   -7.9610  -25.9500 C   0  0  0  0  0  0  0  0  0  0  0  0
   -5.5850   -6.8250  -25.6840 C   0  0  0  0  0  0  0  0  0  0  0  0
   -6.4940   -6.6400  -26.2530 H   0  0  0  0  0  0  0  0  0  0  0  0
   -5.1420   -8.6460  -26.7320 H   0  0  0  0  0  0  0  0  0  0  0  0
   -3.0710   -9.0920  -25.4260 H   0  0  0  0  0  0  0  0  0  0  0  0
   -2.3830   -7.5100  -23.6430 H   0  0  0  0  0  0  0  0  0  0  0  0
   -3.7440   -5.5000  -23.1730 H   0  0  0  0  0  0  0  0  0  0  0  0
   -6.6860   -4.4570  -25.2240 H   0  0  0  0  0  0  0  0  0  0  0  0
   -5.3820   -3.8370  -24.2150 H   0  0  0  0  0  0  0  0  0  0  0  0
   -6.2410   -5.1510  -22.2990 H   0  0  0  0  0  0  0  0  0  0  0  0
   -8.3300   -6.1690  -22.2420 H   0  0  0  0  0  0  0  0  0  0  0  0
   -7.5380   -6.8530  -23.6370 H   0  0  0  0  0  0  0  0  0  0  0  0
   -9.9310   -6.2820  -24.1270 H   0  0  0  0  0  0  0  0  0  0  0  0
   -8.8400   -5.3750  -25.1460 H   0  0  0  0  0  0  0  0  0  0  0  0
  -10.1660   -4.3770  -22.5760 H   0  0  0  0  0  0  0  0  0  0  0  0
  -10.5510   -3.8480  -24.1990 H   0  0  0  0  0  0  0  0  0  0  0  0
   -9.0840   -2.2330  -22.9910 H   0  0  0  0  0  0  0  0  0  0  0  0
   -8.3560   -2.8300  -24.4650 H   0  0  0  0  0  0  0  0  0  0  0  0
  1  2  2  0  0  0  0
  2  3  1  0  0  0  0
  2 22  1  0  0  0  0
  3  4  1  0  0  0  0
  3 20  1  0  0  0  0
  3 21  1  0  0  0  0
  4  5  2  0  0  0  0
  4 13  1  0  0  0  0
  5  6  1  0  0  0  0
  5 19  1  0  0  0  0
  6  7  2  0  0  0  0
  7  8  1  0  0  0  0
  7 18  1  0  0  0  0
  8  9  2  0  0  0  0
  8 13  1  0  0  0  0
  9 10  1  0  0  0  0
  9 17  1  0  0  0  0
 10 11  2  0  0  0  0
 10 16  1  0  0  0  0
 11 12  1  0  0  0  0
 11 15  1  0  0  0  0
 12 13  2  0  0  0  0
 12 14  1  0  0  0  0
 22 23  1  0  0  0  0
 22 27  1  0  0  0  0
 23 24  1  0  0  0  0
 23 49  1  0  0  0  0
 23 50  1  0  0  0  0
 24 25  1  0  0  0  0
 24 47  1  0  0  0  0
 24 48  1  0  0  0  0
 25 26  1  0  0  0  0
 25 45  1  0  0  0  0
 25 46  1  0  0  0  0
 26 27  1  0  0  0  0
 26 43  1  0  0  0  0
 26 44  1  0  0  0  0
 27 28  1  0  0  0  0
 27 42  1  1  0  0  0
 28 29  1  0  0  0  0
 28 40  1  0  0  0  0
 28 41  1  0  0  0  0
 29 30  2  0  0  0  0
 29 34  1  0  0  0  0
 30 31  1  0  0  0  0
 30 39  1  0  0  0  0
 31 32  2  0  0  0  0
 31 38  1  0  0  0  0
 32 33  1  0  0  0  0
 32 37  1  0  0  0  0
 33 34  2  0  0  0  0
 33 36  1  0  0  0  0
 34 35  1  0  0  0  0
M  END
>  <MODEL>
       1

$$$$
