tmp_first_model_5_46.pdb
 OpenBabel08272519233D

 50 54  0  0  1  0  0  0  0  0999 V2000
  -10.3790   -0.9840  -23.4420 C   0  0  0  0  0  0  0  0  0  0  0  0
   -8.9840   -1.4260  -23.0050 C   0  0  1  0  0  0  0  0  0  0  0  0
   -8.4070   -0.5490  -21.8790 C   0  0  0  0  0  0  0  0  0  0  0  0
   -7.4460   -1.4280  -21.2350 N   0  0  0  0  0  0  0  0  0  0  0  0
   -6.5120   -1.0550  -20.2390 C   0  0  0  0  0  0  0  0  0  0  0  0
   -6.7090   -1.4280  -18.9320 C   0  0  0  0  0  0  0  0  0  0  0  0
   -5.7970   -1.2520  -17.9420 N   0  0  0  0  0  0  0  0  0  0  0  0
   -4.6670   -0.6700  -18.2740 C   0  0  0  0  0  0  0  0  0  0  0  0
   -4.3850   -0.1220  -19.5640 C   0  0  0  0  0  0  0  0  0  0  0  0
   -3.2370    0.6920  -19.8170 C   0  0  0  0  0  0  0  0  0  0  0  0
   -3.1620    1.4090  -20.9750 C   0  0  0  0  0  0  0  0  0  0  0  0
   -4.1110    1.2090  -22.0070 C   0  0  0  0  0  0  0  0  0  0  0  0
   -5.1570    0.3480  -21.8340 C   0  0  0  0  0  0  0  0  0  0  0  0
   -5.3580   -0.2820  -20.5780 C   0  0  0  0  0  0  0  0  0  0  0  0
   -5.8620    0.2040  -22.6440 H   0  0  0  0  0  0  0  0  0  0  0  0
   -3.9990    1.7360  -22.9460 H   0  0  0  0  0  0  0  0  0  0  0  0
   -2.3110    2.0550  -21.1600 H   0  0  0  0  0  0  0  0  0  0  0  0
   -2.4820    0.8130  -19.0410 H   0  0  0  0  0  0  0  0  0  0  0  0
   -3.9180   -0.5820  -17.4860 H   0  0  0  0  0  0  0  0  0  0  0  0
   -7.6600   -1.8730  -18.6420 H   0  0  0  0  0  0  0  0  0  0  0  0
   -7.6800   -2.7620  -21.4900 C   0  0  0  0  0  0  0  0  0  0  0  0
   -7.0240   -3.6680  -21.0100 O   0  0  0  0  0  0  0  0  0  0  0  0
   -8.8730   -2.8900  -22.4570 C   0  0  1  0  0  0  0  0  0  0  0  0
  -10.1050   -3.3140  -21.6220 C   0  0  0  0  0  0  0  0  0  0  0  0
  -11.2390   -3.7410  -22.4400 N   0  0  0  0  0  0  0  0  0  0  0  0
  -12.5970   -3.6420  -21.9310 C   0  0  0  0  0  0  0  0  0  0  0  0
  -13.4460   -2.6680  -22.6460 C   0  0  0  0  0  0  0  0  0  0  0  0
  -14.1580   -1.9540  -23.2150 N   0  0  0  0  0  0  0  0  0  0  0  0
  -12.5680   -3.3920  -20.8690 H   0  0  0  0  0  0  0  0  0  0  0  0
  -13.0930   -4.6070  -22.0620 H   0  0  0  0  0  0  0  0  0  0  0  0
  -11.0690   -4.5830  -23.5130 C   0  0  0  0  0  0  0  0  0  0  0  0
  -12.0110   -5.1340  -24.0560 O   0  0  0  0  0  0  0  0  0  0  0  0
   -9.6660   -4.7640  -23.9780 C   0  0  0  0  0  0  0  0  0  0  0  0
   -9.4270   -5.7850  -24.8970 C   0  0  0  0  0  0  0  0  0  0  0  0
   -8.1580   -6.0090  -25.3910 C   0  0  0  0  0  0  0  0  0  0  0  0
   -7.1450   -5.1620  -24.9580 C   0  0  0  0  0  0  0  0  0  0  0  0
   -5.9120   -5.3400  -25.4550 F   0  0  0  0  0  0  0  0  0  0  0  0
   -7.3520   -4.1460  -24.0430 C   0  0  0  0  0  0  0  0  0  0  0  0
   -8.6300   -3.9450  -23.5150 C   0  0  0  0  0  0  0  0  0  0  0  0
   -6.5170   -3.5290  -23.7310 H   0  0  0  0  0  0  0  0  0  0  0  0
   -7.9280   -6.8050  -26.0950 H   0  0  0  0  0  0  0  0  0  0  0  0
  -10.2670   -6.4030  -25.2000 H   0  0  0  0  0  0  0  0  0  0  0  0
   -9.7770   -4.1110  -20.9440 H   0  0  0  0  0  0  0  0  0  0  0  0
  -10.4290   -2.4620  -21.0180 H   0  0  0  0  0  0  0  0  0  0  0  0
   -9.1920   -0.2400  -21.1710 H   0  0  0  0  0  0  0  0  0  0  0  0
   -7.9280    0.3600  -22.2530 H   0  0  0  0  0  0  0  0  0  0  0  0
   -8.3010   -1.3660  -23.8670 H   0  0  0  0  0  0  0  0  0  0  0  0
  -10.3500    0.0330  -23.8470 H   0  0  0  0  0  0  0  0  0  0  0  0
  -11.0780   -0.9920  -22.5980 H   0  0  0  0  0  0  0  0  0  0  0  0
  -10.7980   -1.6540  -24.2000 H   0  0  0  0  0  0  0  0  0  0  0  0
  1  2  1  0  0  0  0
  1 48  1  0  0  0  0
  1 49  1  0  0  0  0
  1 50  1  0  0  0  0
  2  3  1  0  0  0  0
  2 23  1  0  0  0  0
  2 47  1  6  0  0  0
  3  4  1  0  0  0  0
  3 45  1  0  0  0  0
  3 46  1  0  0  0  0
  4  5  1  0  0  0  0
  4 21  1  0  0  0  0
  5  6  2  0  0  0  0
  5 14  1  0  0  0  0
  6  7  1  0  0  0  0
  6 20  1  0  0  0  0
  7  8  2  0  0  0  0
  8  9  1  0  0  0  0
  8 19  1  0  0  0  0
  9 10  2  0  0  0  0
  9 14  1  0  0  0  0
 10 11  1  0  0  0  0
 10 18  1  0  0  0  0
 11 12  2  0  0  0  0
 11 17  1  0  0  0  0
 12 13  1  0  0  0  0
 12 16  1  0  0  0  0
 13 14  2  0  0  0  0
 13 15  1  0  0  0  0
 21 22  2  0  0  0  0
 23 21  1  1  0  0  0
 23 24  1  0  0  0  0
 23 39  1  0  0  0  0
 24 25  1  0  0  0  0
 24 43  1  0  0  0  0
 24 44  1  0  0  0  0
 25 26  1  0  0  0  0
 25 31  1  0  0  0  0
 26 27  1  0  0  0  0
 26 29  1  0  0  0  0
 26 30  1  0  0  0  0
 27 28  3  0  0  0  0
 31 32  2  0  0  0  0
 31 33  1  0  0  0  0
 33 34  2  0  0  0  0
 33 39  1  0  0  0  0
 34 35  1  0  0  0  0
 34 42  1  0  0  0  0
 35 36  2  0  0  0  0
 35 41  1  0  0  0  0
 36 37  1  0  0  0  0
 36 38  1  0  0  0  0
 38 39  2  0  0  0  0
 38 40  1  0  0  0  0
M  END
>  <MODEL>
       1

$$$$
