tmp_first_model_5_44.pdb
 OpenBabel08272519233D

 60 64  0  0  1  0  0  0  0  0999 V2000
  -14.6960   -1.6380  -23.3190 C   0  0  0  0  0  0  0  0  0  0  0  0
  -13.6180   -2.5270  -22.9510 N   0  0  0  0  0  0  0  0  0  0  0  0
  -13.3350   -2.8550  -21.6640 C   0  0  0  0  0  0  0  0  0  0  0  0
  -13.8260   -2.3220  -20.6820 O   0  0  0  0  0  0  0  0  0  0  0  0
  -12.3780   -4.0340  -21.5910 C   0  0  0  0  0  0  0  0  0  0  0  0
  -11.1390   -3.8640  -22.3310 N   0  0  0  0  0  0  0  0  0  0  0  0
   -9.9750   -3.3740  -21.6150 C   0  0  0  0  0  0  0  0  0  0  0  0
   -8.8300   -2.8740  -22.5250 C   0  0  2  0  0  0  0  0  0  0  0  0
   -7.6360   -2.7210  -21.5830 C   0  0  0  0  0  0  0  0  0  0  0  0
   -6.9530   -3.6190  -21.1350 O   0  0  0  0  0  0  0  0  0  0  0  0
   -7.4700   -1.3880  -21.2550 N   0  0  0  0  0  0  0  0  0  0  0  0
   -6.5080   -1.0830  -20.2590 C   0  0  0  0  0  0  0  0  0  0  0  0
   -6.5840   -1.6720  -19.0200 C   0  0  0  0  0  0  0  0  0  0  0  0
   -5.6390   -1.5580  -18.0580 N   0  0  0  0  0  0  0  0  0  0  0  0
   -4.5810   -0.8350  -18.3400 C   0  0  0  0  0  0  0  0  0  0  0  0
   -4.3850   -0.1550  -19.5690 C   0  0  0  0  0  0  0  0  0  0  0  0
   -3.2590    0.6830  -19.7970 C   0  0  0  0  0  0  0  0  0  0  0  0
   -3.2030    1.4740  -20.9120 C   0  0  0  0  0  0  0  0  0  0  0  0
   -4.1740    1.3370  -21.9310 C   0  0  0  0  0  0  0  0  0  0  0  0
   -5.2450    0.4940  -21.7590 C   0  0  0  0  0  0  0  0  0  0  0  0
   -5.3950   -0.2350  -20.5500 C   0  0  0  0  0  0  0  0  0  0  0  0
   -5.9960    0.3990  -22.5350 H   0  0  0  0  0  0  0  0  0  0  0  0
   -4.0770    1.9030  -22.8530 H   0  0  0  0  0  0  0  0  0  0  0  0
   -2.3770    2.1640  -21.0540 H   0  0  0  0  0  0  0  0  0  0  0  0
   -2.5070    0.7600  -19.0220 H   0  0  0  0  0  0  0  0  0  0  0  0
   -3.8130   -0.7530  -17.5730 H   0  0  0  0  0  0  0  0  0  0  0  0
   -7.4300   -2.2960  -18.7400 H   0  0  0  0  0  0  0  0  0  0  0  0
   -8.5150   -0.5360  -21.8370 C   0  0  0  0  0  0  0  0  0  0  0  0
   -9.0260   -1.4040  -23.0070 C   0  0  2  0  0  0  0  0  0  0  0  0
  -10.4320   -1.0800  -23.4780 C   0  0  0  0  0  0  0  0  0  0  0  0
  -10.4660    0.2420  -23.9570 O   0  0  0  0  0  0  0  0  0  0  0  0
  -11.7770    0.6110  -24.2890 C   0  0  0  0  0  0  0  0  0  0  0  0
  -12.4110    0.7020  -23.3940 H   0  0  0  0  0  0  0  0  0  0  0  0
  -12.2360   -0.1440  -24.9420 H   0  0  0  0  0  0  0  0  0  0  0  0
  -11.7450    1.5740  -24.8020 H   0  0  0  0  0  0  0  0  0  0  0  0
  -10.7140   -1.7820  -24.2790 H   0  0  0  0  0  0  0  0  0  0  0  0
  -11.1630   -1.2110  -22.6690 H   0  0  0  0  0  0  0  0  0  0  0  0
   -8.3620   -1.2400  -23.8640 H   0  0  0  0  0  0  0  0  0  0  0  0
   -9.3060   -0.3320  -21.0990 H   0  0  0  0  0  0  0  0  0  0  0  0
   -8.1420    0.4320  -22.1810 H   0  0  0  0  0  0  0  0  0  0  0  0
   -8.6010   -3.8910  -23.6170 C   0  0  0  0  0  0  0  0  0  0  0  0
   -7.3270   -4.1060  -24.1560 C   0  0  0  0  0  0  0  0  0  0  0  0
   -7.1320   -5.1240  -25.0710 C   0  0  0  0  0  0  0  0  0  0  0  0
   -5.5170   -5.4860  -25.6080 Cl  0  0  0  0  0  0  0  0  0  0  0  0
   -8.1940   -5.8940  -25.5430 C   0  0  0  0  0  0  0  0  0  0  0  0
   -9.4660   -5.6330  -25.0700 C   0  0  0  0  0  0  0  0  0  0  0  0
   -9.6720   -4.6500  -24.1030 C   0  0  0  0  0  0  0  0  0  0  0  0
  -11.0460   -4.4500  -23.5610 C   0  0  0  0  0  0  0  0  0  0  0  0
  -12.0540   -4.7840  -24.1830 O   0  0  0  0  0  0  0  0  0  0  0  0
  -10.3150   -6.2070  -25.4290 H   0  0  0  0  0  0  0  0  0  0  0  0
   -8.0100   -6.6810  -26.2680 H   0  0  0  0  0  0  0  0  0  0  0  0
   -6.4810   -3.5130  -23.8260 H   0  0  0  0  0  0  0  0  0  0  0  0
   -9.5680   -4.1730  -20.9910 H   0  0  0  0  0  0  0  0  0  0  0  0
  -10.2610   -2.5420  -20.9620 H   0  0  0  0  0  0  0  0  0  0  0  0
  -12.9250   -4.8440  -22.0780 H   0  0  0  0  0  0  0  0  0  0  0  0
  -12.2060   -4.2750  -20.5430 H   0  0  0  0  0  0  0  0  0  0  0  0
  -13.2630   -3.1670  -23.6500 H   0  0  0  0  0  0  0  0  0  0  0  0
  -15.2680   -1.3990  -22.4240 H   0  0  0  0  0  0  0  0  0  0  0  0
  -15.3420   -2.1080  -24.0660 H   0  0  0  0  0  0  0  0  0  0  0  0
  -14.2930   -0.7090  -23.7350 H   0  0  0  0  0  0  0  0  0  0  0  0
  1  2  1  0  0  0  0
  1 58  1  0  0  0  0
  1 59  1  0  0  0  0
  1 60  1  0  0  0  0
  2  3  1  0  0  0  0
  2 57  1  0  0  0  0
  3  4  2  0  0  0  0
  3  5  1  0  0  0  0
  5  6  1  0  0  0  0
  5 55  1  0  0  0  0
  5 56  1  0  0  0  0
  6  7  1  0  0  0  0
  6 48  1  0  0  0  0
  7  8  1  0  0  0  0
  7 53  1  0  0  0  0
  7 54  1  0  0  0  0
  8  9  1  1  0  0  0
  8 29  1  0  0  0  0
  8 41  1  0  0  0  0
  9 10  2  0  0  0  0
  9 11  1  0  0  0  0
 11 12  1  0  0  0  0
 11 28  1  0  0  0  0
 12 13  2  0  0  0  0
 12 21  1  0  0  0  0
 13 14  1  0  0  0  0
 13 27  1  0  0  0  0
 14 15  2  0  0  0  0
 15 16  1  0  0  0  0
 15 26  1  0  0  0  0
 16 17  2  0  0  0  0
 16 21  1  0  0  0  0
 17 18  1  0  0  0  0
 17 25  1  0  0  0  0
 18 19  2  0  0  0  0
 18 24  1  0  0  0  0
 19 20  1  0  0  0  0
 19 23  1  0  0  0  0
 20 21  2  0  0  0  0
 20 22  1  0  0  0  0
 28 29  1  0  0  0  0
 28 39  1  0  0  0  0
 28 40  1  0  0  0  0
 29 30  1  0  0  0  0
 29 38  1  6  0  0  0
 30 31  1  0  0  0  0
 30 36  1  0  0  0  0
 30 37  1  0  0  0  0
 31 32  1  0  0  0  0
 32 33  1  0  0  0  0
 32 34  1  0  0  0  0
 32 35  1  0  0  0  0
 41 42  2  0  0  0  0
 41 47  1  0  0  0  0
 42 43  1  0  0  0  0
 42 52  1  0  0  0  0
 43 44  1  0  0  0  0
 43 45  2  0  0  0  0
 45 46  1  0  0  0  0
 45 51  1  0  0  0  0
 46 47  2  0  0  0  0
 46 50  1  0  0  0  0
 47 48  1  0  0  0  0
 48 49  2  0  0  0  0
M  END
>  <MODEL>
       1

$$$$
