tmp_first_model_17_97.pdb
 OpenBabel08282502223D

 40 43  0  0  1  0  0  0  0  0999 V2000
  -12.5570   -1.4490  -23.7770 C   0  0  0  0  0  0  0  0  0  0  0  0
  -11.1650   -0.8770  -23.5450 C   0  0  2  0  0  0  0  0  0  0  0  0
  -10.7070   -0.0500  -24.7420 C   0  0  0  0  0  0  0  0  0  0  0  0
   -9.4100    0.4720  -24.5600 O   0  0  0  0  0  0  0  0  0  0  0  0
   -8.4560   -0.5550  -24.4620 C   0  0  0  0  0  0  0  0  0  0  0  0
   -8.7010   -1.4530  -23.2350 C   0  0  1  0  0  0  0  0  0  0  0  0
  -10.1450   -1.9770  -23.2680 C   0  0  0  0  0  0  0  0  0  0  0  0
  -10.3620   -2.4730  -22.3160 H   0  0  0  0  0  0  0  0  0  0  0  0
  -10.2160   -2.7530  -24.0450 H   0  0  0  0  0  0  0  0  0  0  0  0
   -7.7330   -2.5190  -23.1570 N   0  0  0  0  0  0  0  0  0  0  0  0
   -6.9440   -2.5250  -22.0370 C   0  0  0  0  0  0  0  0  0  0  0  0
   -6.0450   -3.2830  -21.7550 O   0  0  0  0  0  0  0  0  0  0  0  0
   -7.3760   -1.4190  -21.2640 N   0  0  0  0  0  0  0  0  0  0  0  0
   -6.5890   -0.8430  -20.2040 C   0  0  0  0  0  0  0  0  0  0  0  0
   -6.8940   -1.0550  -18.8810 C   0  0  0  0  0  0  0  0  0  0  0  0
   -6.1990   -0.5420  -17.8240 N   0  0  0  0  0  0  0  0  0  0  0  0
   -5.1590    0.2180  -18.0700 C   0  0  0  0  0  0  0  0  0  0  0  0
   -4.7250    0.5320  -19.3900 C   0  0  0  0  0  0  0  0  0  0  0  0
   -3.5970    1.3670  -19.6280 C   0  0  0  0  0  0  0  0  0  0  0  0
   -3.2150    1.6550  -20.9120 C   0  0  0  0  0  0  0  0  0  0  0  0
   -3.9350    1.1220  -22.0020 C   0  0  0  0  0  0  0  0  0  0  0  0
   -5.0220    0.3130  -21.7940 C   0  0  0  0  0  0  0  0  0  0  0  0
   -5.4530   -0.0060  -20.4790 C   0  0  0  0  0  0  0  0  0  0  0  0
   -5.5700   -0.0920  -22.6370 H   0  0  0  0  0  0  0  0  0  0  0  0
   -3.6190    1.3480  -23.0150 H   0  0  0  0  0  0  0  0  0  0  0  0
   -2.3530    2.2860  -21.1050 H   0  0  0  0  0  0  0  0  0  0  0  0
   -3.0480    1.7780  -18.7840 H   0  0  0  0  0  0  0  0  0  0  0  0
   -4.6020    0.6260  -17.2190 H   0  0  0  0  0  0  0  0  0  0  0  0
   -7.7410   -1.6770  -18.6080 H   0  0  0  0  0  0  0  0  0  0  0  0
   -8.3880   -0.7060  -21.9360 C   0  0  0  0  0  0  0  0  0  0  0  0
   -8.8800    0.3180  -21.5380 O   0  0  0  0  0  0  0  0  0  0  0  0
   -7.6190   -3.2140  -23.8760 H   0  0  0  0  0  0  0  0  0  0  0  0
   -7.4710   -0.0870  -24.3800 H   0  0  0  0  0  0  0  0  0  0  0  0
   -8.4660   -1.1640  -25.3820 H   0  0  0  0  0  0  0  0  0  0  0  0
  -10.7240   -0.6590  -25.6620 H   0  0  0  0  0  0  0  0  0  0  0  0
  -11.3730    0.8050  -24.8980 H   0  0  0  0  0  0  0  0  0  0  0  0
  -11.1950   -0.2080  -22.6800 H   0  0  0  0  0  0  0  0  0  0  0  0
  -12.8900   -2.0310  -22.9120 H   0  0  0  0  0  0  0  0  0  0  0  0
  -13.2890   -0.6530  -23.9460 H   0  0  0  0  0  0  0  0  0  0  0  0
  -12.5720   -2.1110  -24.6510 H   0  0  0  0  0  0  0  0  0  0  0  0
  1  2  1  0  0  0  0
  1 38  1  0  0  0  0
  1 39  1  0  0  0  0
  1 40  1  0  0  0  0
  2  3  1  0  0  0  0
  2  7  1  0  0  0  0
  2 37  1  1  0  0  0
  3  4  1  0  0  0  0
  3 35  1  0  0  0  0
  3 36  1  0  0  0  0
  4  5  1  0  0  0  0
  5  6  1  0  0  0  0
  5 33  1  0  0  0  0
  5 34  1  0  0  0  0
  6  7  1  0  0  0  0
  6 10  1  0  0  0  0
  6 30  1  1  0  0  0
  7  8  1  0  0  0  0
  7  9  1  0  0  0  0
 10 11  1  0  0  0  0
 10 32  1  0  0  0  0
 11 12  2  0  0  0  0
 11 13  1  0  0  0  0
 13 14  1  0  0  0  0
 13 30  1  0  0  0  0
 14 15  2  0  0  0  0
 14 23  1  0  0  0  0
 15 16  1  0  0  0  0
 15 29  1  0  0  0  0
 16 17  2  0  0  0  0
 17 18  1  0  0  0  0
 17 28  1  0  0  0  0
 18 19  2  0  0  0  0
 18 23  1  0  0  0  0
 19 20  1  0  0  0  0
 19 27  1  0  0  0  0
 20 21  2  0  0  0  0
 20 26  1  0  0  0  0
 21 22  1  0  0  0  0
 21 25  1  0  0  0  0
 22 23  2  0  0  0  0
 22 24  1  0  0  0  0
 30 31  2  0  0  0  0
M  END
>  <MODEL>
       1

$$$$
