tmp_first_model_11_32.pdb
 OpenBabel08272522543D

 57 62  0  0  1  0  0  0  0  0999 V2000
   -7.4950   -3.5260  -23.8290 C   0  0  0  0  0  0  0  0  0  0  0  0
   -8.3750   -2.9550  -22.7050 C   0  0  1  0  0  0  0  0  0  0  0  0
   -7.5920   -2.7880  -21.3810 C   0  0  0  0  0  0  0  0  0  0  0  0
   -7.4080   -1.3590  -21.2400 N   0  0  0  0  0  0  0  0  0  0  0  0
   -6.6110   -0.8060  -20.2010 C   0  0  0  0  0  0  0  0  0  0  0  0
   -6.9160   -1.0610  -18.8870 C   0  0  0  0  0  0  0  0  0  0  0  0
   -6.2350   -0.5640  -17.8240 N   0  0  0  0  0  0  0  0  0  0  0  0
   -5.1980    0.1980  -18.0760 C   0  0  0  0  0  0  0  0  0  0  0  0
   -4.7410    0.5100  -19.3860 C   0  0  0  0  0  0  0  0  0  0  0  0
   -3.6030    1.3320  -19.6040 C   0  0  0  0  0  0  0  0  0  0  0  0
   -3.1690    1.5920  -20.8720 C   0  0  0  0  0  0  0  0  0  0  0  0
   -3.8360    1.0250  -21.9820 C   0  0  0  0  0  0  0  0  0  0  0  0
   -4.9460    0.2360  -21.7960 C   0  0  0  0  0  0  0  0  0  0  0  0
   -5.4450   -0.0220  -20.4920 C   0  0  0  0  0  0  0  0  0  0  0  0
   -5.4550   -0.2040  -22.6490 H   0  0  0  0  0  0  0  0  0  0  0  0
   -3.4840    1.2380  -22.9870 H   0  0  0  0  0  0  0  0  0  0  0  0
   -2.3130    2.2420  -21.0380 H   0  0  0  0  0  0  0  0  0  0  0  0
   -3.0970    1.7560  -18.7410 H   0  0  0  0  0  0  0  0  0  0  0  0
   -4.6560    0.6010  -17.2200 H   0  0  0  0  0  0  0  0  0  0  0  0
   -7.7720   -1.6850  -18.6340 H   0  0  0  0  0  0  0  0  0  0  0  0
   -8.2780   -0.6150  -22.0080 C   0  0  0  0  0  0  0  0  0  0  0  0
   -8.4280    0.5850  -21.9240 O   0  0  0  0  0  0  0  0  0  0  0  0
   -9.0410   -1.5630  -22.9640 C   0  0  1  0  0  0  0  0  0  0  0  0
   -8.8690   -1.0660  -24.4240 C   0  0  0  0  0  0  0  0  0  0  0  0
   -9.6010    0.1620  -24.6980 N   0  0  0  0  0  0  0  0  0  0  0  0
   -8.9770    1.1750  -25.5330 C   0  0  0  0  0  0  0  0  0  0  0  0
   -7.9320    1.9630  -24.8010 C   0  0  0  0  0  0  0  0  0  0  0  0
   -6.6290    1.8270  -24.9490 N   0  0  0  0  0  0  0  0  0  0  0  0
   -6.0650    2.7960  -24.2020 N   0  0  0  0  0  0  0  0  0  0  0  0
   -6.9620    3.4950  -23.6050 N   0  0  0  0  0  0  0  0  0  0  0  0
   -8.1530    2.9820  -23.9540 N   0  0  0  0  0  0  0  0  0  0  0  0
   -9.3890    3.5580  -23.4520 C   0  0  0  0  0  0  0  0  0  0  0  0
  -10.0920    3.7100  -24.2780 H   0  0  0  0  0  0  0  0  0  0  0  0
   -9.8390    2.9190  -22.6850 H   0  0  0  0  0  0  0  0  0  0  0  0
   -9.1290    4.5230  -23.0130 H   0  0  0  0  0  0  0  0  0  0  0  0
   -8.4860    0.7040  -26.3920 H   0  0  0  0  0  0  0  0  0  0  0  0
   -9.7750    1.8210  -25.9110 H   0  0  0  0  0  0  0  0  0  0  0  0
  -10.8980    0.3240  -24.3120 C   0  0  0  0  0  0  0  0  0  0  0  0
  -11.6040    1.2470  -24.7080 O   0  0  0  0  0  0  0  0  0  0  0  0
  -11.4060   -0.7110  -23.3530 C   0  0  0  0  0  0  0  0  0  0  0  0
  -12.7840   -0.7720  -23.1690 C   0  0  0  0  0  0  0  0  0  0  0  0
  -13.3320   -1.6620  -22.2700 C   0  0  0  0  0  0  0  0  0  0  0  0
  -12.4700   -2.4200  -21.5010 C   0  0  0  0  0  0  0  0  0  0  0  0
  -13.0280   -3.1930  -20.5510 F   0  0  0  0  0  0  0  0  0  0  0  0
  -11.1030   -2.4320  -21.6980 C   0  0  0  0  0  0  0  0  0  0  0  0
  -10.5400   -1.5720  -22.6600 C   0  0  0  0  0  0  0  0  0  0  0  0
  -10.4970   -3.1290  -21.1240 H   0  0  0  0  0  0  0  0  0  0  0  0
  -14.4000   -1.7900  -22.1180 H   0  0  0  0  0  0  0  0  0  0  0  0
  -13.4080   -0.0820  -23.7250 H   0  0  0  0  0  0  0  0  0  0  0  0
   -7.8160   -0.8530  -24.6200 H   0  0  0  0  0  0  0  0  0  0  0  0
   -9.2120   -1.8600  -25.1010 H   0  0  0  0  0  0  0  0  0  0  0  0
   -8.1590   -3.1950  -20.5310 H   0  0  0  0  0  0  0  0  0  0  0  0
   -6.6160   -3.2880  -21.4040 H   0  0  0  0  0  0  0  0  0  0  0  0
   -9.1680   -3.6990  -22.5720 H   0  0  0  0  0  0  0  0  0  0  0  0
   -8.0730   -3.6910  -24.7460 H   0  0  0  0  0  0  0  0  0  0  0  0
   -7.1020   -4.5050  -23.5260 H   0  0  0  0  0  0  0  0  0  0  0  0
   -6.6410   -2.8820  -24.0710 H   0  0  0  0  0  0  0  0  0  0  0  0
  1  2  1  0  0  0  0
  1 55  1  0  0  0  0
  1 56  1  0  0  0  0
  1 57  1  0  0  0  0
  2  3  1  0  0  0  0
  2 23  1  0  0  0  0
  2 54  1  1  0  0  0
  3  4  1  0  0  0  0
  3 52  1  0  0  0  0
  3 53  1  0  0  0  0
  4  5  1  0  0  0  0
  4 21  1  0  0  0  0
  5  6  2  0  0  0  0
  5 14  1  0  0  0  0
  6  7  1  0  0  0  0
  6 20  1  0  0  0  0
  7  8  2  0  0  0  0
  8  9  1  0  0  0  0
  8 19  1  0  0  0  0
  9 10  2  0  0  0  0
  9 14  1  0  0  0  0
 10 11  1  0  0  0  0
 10 18  1  0  0  0  0
 11 12  2  0  0  0  0
 11 17  1  0  0  0  0
 12 13  1  0  0  0  0
 12 16  1  0  0  0  0
 13 14  2  0  0  0  0
 13 15  1  0  0  0  0
 21 22  2  0  0  0  0
 23 21  1  1  0  0  0
 23 24  1  0  0  0  0
 23 46  1  0  0  0  0
 24 25  1  0  0  0  0
 24 50  1  0  0  0  0
 24 51  1  0  0  0  0
 25 26  1  0  0  0  0
 25 38  1  0  0  0  0
 26 27  1  0  0  0  0
 26 36  1  0  0  0  0
 26 37  1  0  0  0  0
 27 28  2  0  0  0  0
 27 31  1  0  0  0  0
 28 29  1  0  0  0  0
 29 30  2  0  0  0  0
 30 31  1  0  0  0  0
 31 32  1  0  0  0  0
 32 33  1  0  0  0  0
 32 34  1  0  0  0  0
 32 35  1  0  0  0  0
 38 39  2  0  0  0  0
 38 40  1  0  0  0  0
 40 41  2  0  0  0  0
 40 46  1  0  0  0  0
 41 42  1  0  0  0  0
 41 49  1  0  0  0  0
 42 43  2  0  0  0  0
 42 48  1  0  0  0  0
 43 44  1  0  0  0  0
 43 45  1  0  0  0  0
 45 46  2  0  0  0  0
 45 47  1  0  0  0  0
M  END
>  <MODEL>
       1

$$$$
