tmp_first_model_19_36.pdb
 OpenBabel08282503233D

 47 50  0  0  1  0  0  0  0  0999 V2000
   -8.6670    0.6230  -21.3310 O   0  0  0  0  0  0  0  0  0  0  0  0
   -8.4180   -0.4130  -21.9220 C   0  0  0  0  0  0  0  0  0  0  0  0
   -7.4270   -1.4250  -21.2920 C   0  0  0  0  0  0  0  0  0  0  0  0
   -6.5850   -0.8230  -20.1890 C   0  0  0  0  0  0  0  0  0  0  0  0
   -6.8810   -1.0380  -18.8680 C   0  0  0  0  0  0  0  0  0  0  0  0
   -6.1890   -0.5430  -17.8040 N   0  0  0  0  0  0  0  0  0  0  0  0
   -5.1580    0.2210  -18.0680 C   0  0  0  0  0  0  0  0  0  0  0  0
   -4.7230    0.5330  -19.3850 C   0  0  0  0  0  0  0  0  0  0  0  0
   -3.5940    1.3560  -19.6260 C   0  0  0  0  0  0  0  0  0  0  0  0
   -3.2060    1.6510  -20.9020 C   0  0  0  0  0  0  0  0  0  0  0  0
   -3.9340    1.1220  -21.9940 C   0  0  0  0  0  0  0  0  0  0  0  0
   -5.0290    0.3190  -21.7970 C   0  0  0  0  0  0  0  0  0  0  0  0
   -5.4560    0.0020  -20.4800 C   0  0  0  0  0  0  0  0  0  0  0  0
   -5.5720   -0.0720  -22.6600 H   0  0  0  0  0  0  0  0  0  0  0  0
   -3.6200    1.3640  -23.0030 H   0  0  0  0  0  0  0  0  0  0  0  0
   -2.3500    2.2970  -21.0880 H   0  0  0  0  0  0  0  0  0  0  0  0
   -3.0590    1.7710  -18.7730 H   0  0  0  0  0  0  0  0  0  0  0  0
   -4.6050    0.6260  -17.2160 H   0  0  0  0  0  0  0  0  0  0  0  0
   -7.7300   -1.6590  -18.5870 H   0  0  0  0  0  0  0  0  0  0  0  0
   -6.7830   -1.8980  -22.0420 H   0  0  0  0  0  0  0  0  0  0  0  0
   -8.0340   -2.2310  -20.8580 H   0  0  0  0  0  0  0  0  0  0  0  0
   -9.0680   -0.7330  -23.1040 N   0  0  0  0  0  0  0  0  0  0  0  0
  -10.0820    0.2370  -23.5280 C   0  0  0  0  0  0  0  0  0  0  0  0
  -11.0520   -0.3180  -24.5540 C   0  0  0  0  0  0  0  0  0  0  0  0
  -10.3370   -0.9960  -25.7090 C   0  0  0  0  0  0  0  0  0  0  0  0
   -9.5330   -2.1500  -25.1310 C   0  0  0  0  0  0  0  0  0  0  0  0
   -8.5260   -1.7200  -24.0470 C   0  0  1  0  0  0  0  0  0  0  0  0
   -7.1870   -1.3030  -24.6630 C   0  0  0  0  0  0  0  0  0  0  0  0
   -6.9710   -0.0190  -25.1590 C   0  0  0  0  0  0  0  0  0  0  0  0
   -5.7500    0.3280  -25.7290 C   0  0  0  0  0  0  0  0  0  0  0  0
   -4.7210   -0.6050  -25.8230 C   0  0  0  0  0  0  0  0  0  0  0  0
   -4.9340   -1.9000  -25.3580 C   0  0  0  0  0  0  0  0  0  0  0  0
   -6.1590   -2.2440  -24.7910 C   0  0  0  0  0  0  0  0  0  0  0  0
   -6.3090   -3.2630  -24.4400 H   0  0  0  0  0  0  0  0  0  0  0  0
   -4.1400   -2.6390  -25.4270 H   0  0  0  0  0  0  0  0  0  0  0  0
   -3.7640   -0.3230  -26.2540 H   0  0  0  0  0  0  0  0  0  0  0  0
   -5.6020    1.3400  -26.0940 H   0  0  0  0  0  0  0  0  0  0  0  0
   -7.7590    0.7250  -25.1070 H   0  0  0  0  0  0  0  0  0  0  0  0
   -8.3260   -2.6150  -23.4530 H   0  0  0  0  0  0  0  0  0  0  0  0
  -10.2280   -2.8790  -24.7030 H   0  0  0  0  0  0  0  0  0  0  0  0
   -8.9900   -2.6780  -25.9200 H   0  0  0  0  0  0  0  0  0  0  0  0
   -9.6720   -0.2930  -26.2250 H   0  0  0  0  0  0  0  0  0  0  0  0
  -11.0490   -1.3550  -26.4610 H   0  0  0  0  0  0  0  0  0  0  0  0
  -11.6800    0.5060  -24.8880 H   0  0  0  0  0  0  0  0  0  0  0  0
  -11.7300   -1.0350  -24.0800 H   0  0  0  0  0  0  0  0  0  0  0  0
  -10.6260    0.5480  -22.6360 H   0  0  0  0  0  0  0  0  0  0  0  0
   -9.6300    1.1610  -23.9220 H   0  0  0  0  0  0  0  0  0  0  0  0
  1  2  2  0  0  0  0
  2  3  1  0  0  0  0
  2 22  1  0  0  0  0
  3  4  1  0  0  0  0
  3 20  1  0  0  0  0
  3 21  1  0  0  0  0
  4  5  2  0  0  0  0
  4 13  1  0  0  0  0
  5  6  1  0  0  0  0
  5 19  1  0  0  0  0
  6  7  2  0  0  0  0
  7  8  1  0  0  0  0
  7 18  1  0  0  0  0
  8  9  2  0  0  0  0
  8 13  1  0  0  0  0
  9 10  1  0  0  0  0
  9 17  1  0  0  0  0
 10 11  2  0  0  0  0
 10 16  1  0  0  0  0
 11 12  1  0  0  0  0
 11 15  1  0  0  0  0
 12 13  2  0  0  0  0
 12 14  1  0  0  0  0
 22 23  1  0  0  0  0
 22 27  1  0  0  0  0
 23 24  1  0  0  0  0
 23 46  1  0  0  0  0
 23 47  1  0  0  0  0
 24 25  1  0  0  0  0
 24 44  1  0  0  0  0
 24 45  1  0  0  0  0
 25 26  1  0  0  0  0
 25 42  1  0  0  0  0
 25 43  1  0  0  0  0
 26 27  1  0  0  0  0
 26 40  1  0  0  0  0
 26 41  1  0  0  0  0
 27 28  1  0  0  0  0
 27 39  1  1  0  0  0
 28 29  2  0  0  0  0
 28 33  1  0  0  0  0
 29 30  1  0  0  0  0
 29 38  1  0  0  0  0
 30 31  2  0  0  0  0
 30 37  1  0  0  0  0
 31 32  1  0  0  0  0
 31 36  1  0  0  0  0
 32 33  2  0  0  0  0
 32 35  1  0  0  0  0
 33 34  1  0  0  0  0
M  END
>  <MODEL>
       1

$$$$
