tmp_first_model_20_75.pdb
 OpenBabel08282503553D

 66 71  0  0  1  0  0  0  0  0999 V2000
   -7.7590    3.0440  -22.2390 C   0  0  0  0  0  0  0  0  0  0  0  0
   -8.7930    2.5820  -23.1290 N   0  0  0  0  0  0  0  0  0  0  0  0
   -8.4080    1.9000  -24.2320 C   0  0  0  0  0  0  0  0  0  0  0  0
   -7.2330    1.7490  -24.5370 O   0  0  0  0  0  0  0  0  0  0  0  0
   -9.5390    1.2620  -25.0310 C   0  0  0  0  0  0  0  0  0  0  0  0
  -10.0680    0.1120  -24.3200 N   0  0  0  0  0  0  0  0  0  0  0  0
   -9.1560   -0.9980  -24.1090 C   0  0  0  0  0  0  0  0  0  0  0  0
   -9.3700   -1.7390  -22.7530 C   0  0  2  0  0  0  0  0  0  0  0  0
   -8.7950   -0.8470  -21.6130 C   0  0  0  0  0  0  0  0  0  0  0  0
   -9.3310    0.1320  -21.1280 O   0  0  0  0  0  0  0  0  0  0  0  0
   -7.5490   -1.3220  -21.2620 N   0  0  0  0  0  0  0  0  0  0  0  0
   -6.7540   -0.7610  -20.2270 C   0  0  0  0  0  0  0  0  0  0  0  0
   -7.0510   -1.0290  -18.9130 C   0  0  0  0  0  0  0  0  0  0  0  0
   -6.3220   -0.5890  -17.8560 N   0  0  0  0  0  0  0  0  0  0  0  0
   -5.2570    0.1300  -18.1150 C   0  0  0  0  0  0  0  0  0  0  0  0
   -4.8200    0.4730  -19.4270 C   0  0  0  0  0  0  0  0  0  0  0  0
   -3.6610    1.2660  -19.6560 C   0  0  0  0  0  0  0  0  0  0  0  0
   -3.2840    1.5920  -20.9310 C   0  0  0  0  0  0  0  0  0  0  0  0
   -4.0460    1.1470  -22.0340 C   0  0  0  0  0  0  0  0  0  0  0  0
   -5.1730    0.3820  -21.8370 C   0  0  0  0  0  0  0  0  0  0  0  0
   -5.5880    0.0160  -20.5260 C   0  0  0  0  0  0  0  0  0  0  0  0
   -5.7890    0.1150  -22.6910 H   0  0  0  0  0  0  0  0  0  0  0  0
   -3.7570    1.4280  -23.0430 H   0  0  0  0  0  0  0  0  0  0  0  0
   -2.4110    2.2140  -21.1060 H   0  0  0  0  0  0  0  0  0  0  0  0
   -3.0960    1.6240  -18.7990 H   0  0  0  0  0  0  0  0  0  0  0  0
   -4.6770    0.4870  -17.2620 H   0  0  0  0  0  0  0  0  0  0  0  0
   -7.9150   -1.6450  -18.6720 H   0  0  0  0  0  0  0  0  0  0  0  0
   -7.1240   -2.4740  -22.0310 C   0  0  0  0  0  0  0  0  0  0  0  0
   -8.4410   -2.9890  -22.6360 C   0  0  2  0  0  0  0  0  0  0  0  0
   -8.2020   -3.7770  -23.9190 C   0  0  0  0  0  0  0  0  0  0  0  0
   -9.4520   -4.2740  -24.4330 N   0  0  0  0  0  0  0  0  0  0  0  0
   -9.5680   -4.9230  -25.6270 C   0  0  0  0  0  0  0  0  0  0  0  0
   -8.4270   -5.1810  -26.4260 C   0  0  0  0  0  0  0  0  0  0  0  0
   -8.5030   -5.8010  -27.5890 N   0  0  0  0  0  0  0  0  0  0  0  0
   -9.7230   -6.1950  -27.9720 C   0  0  0  0  0  0  0  0  0  0  0  0
  -10.8390   -5.9530  -27.1850 C   0  0  0  0  0  0  0  0  0  0  0  0
  -10.7820   -5.3100  -26.0160 N   0  0  0  0  0  0  0  0  0  0  0  0
  -11.8210   -6.2900  -27.5050 H   0  0  0  0  0  0  0  0  0  0  0  0
   -9.8000   -6.7100  -28.9250 H   0  0  0  0  0  0  0  0  0  0  0  0
   -7.4450   -4.8590  -26.0890 H   0  0  0  0  0  0  0  0  0  0  0  0
  -10.3230   -3.9830  -24.0080 H   0  0  0  0  0  0  0  0  0  0  0  0
   -7.5190   -4.6170  -23.7410 H   0  0  0  0  0  0  0  0  0  0  0  0
   -7.6870   -3.1310  -24.6530 H   0  0  0  0  0  0  0  0  0  0  0  0
   -8.8960   -3.6610  -21.9010 H   0  0  0  0  0  0  0  0  0  0  0  0
   -6.3910   -2.1970  -22.8090 H   0  0  0  0  0  0  0  0  0  0  0  0
   -6.6370   -3.2110  -21.3820 H   0  0  0  0  0  0  0  0  0  0  0  0
  -10.8680   -1.9660  -22.5580 C   0  0  0  0  0  0  0  0  0  0  0  0
  -11.4060   -3.0450  -21.8380 C   0  0  0  0  0  0  0  0  0  0  0  0
  -12.7580   -3.0590  -21.5080 C   0  0  0  0  0  0  0  0  0  0  0  0
  -13.4340   -4.3070  -20.5030 Cl  0  0  0  0  0  0  0  0  0  0  0  0
  -13.6370   -2.0680  -21.9350 C   0  0  0  0  0  0  0  0  0  0  0  0
  -13.1250   -1.0210  -22.6640 C   0  0  0  0  0  0  0  0  0  0  0  0
  -11.7710   -0.9770  -22.9870 C   0  0  0  0  0  0  0  0  0  0  0  0
  -11.3280    0.1880  -23.8110 C   0  0  0  0  0  0  0  0  0  0  0  0
  -12.0590    1.1510  -24.0100 O   0  0  0  0  0  0  0  0  0  0  0  0
  -13.7590   -0.2050  -22.9880 H   0  0  0  0  0  0  0  0  0  0  0  0
  -14.6970   -2.1460  -21.7060 H   0  0  0  0  0  0  0  0  0  0  0  0
  -10.7890   -3.8800  -21.5220 H   0  0  0  0  0  0  0  0  0  0  0  0
   -8.1570   -0.5590  -24.1120 H   0  0  0  0  0  0  0  0  0  0  0  0
   -9.2130   -1.6870  -24.9610 H   0  0  0  0  0  0  0  0  0  0  0  0
  -10.3760    1.9500  -25.1430 H   0  0  0  0  0  0  0  0  0  0  0  0
   -9.1360    0.9800  -26.0100 H   0  0  0  0  0  0  0  0  0  0  0  0
   -9.7020    2.3900  -22.7460 H   0  0  0  0  0  0  0  0  0  0  0  0
   -8.1840    3.4830  -21.3400 H   0  0  0  0  0  0  0  0  0  0  0  0
   -7.1200    2.2080  -21.9410 H   0  0  0  0  0  0  0  0  0  0  0  0
   -7.1340    3.7850  -22.7450 H   0  0  0  0  0  0  0  0  0  0  0  0
  1  2  1  0  0  0  0
  1 64  1  0  0  0  0
  1 65  1  0  0  0  0
  1 66  1  0  0  0  0
  2  3  1  0  0  0  0
  2 63  1  0  0  0  0
  3  4  2  0  0  0  0
  3  5  1  0  0  0  0
  5  6  1  0  0  0  0
  5 61  1  0  0  0  0
  5 62  1  0  0  0  0
  6  7  1  0  0  0  0
  6 54  1  0  0  0  0
  7  8  1  0  0  0  0
  7 59  1  0  0  0  0
  7 60  1  0  0  0  0
  8  9  1  1  0  0  0
  8 29  1  0  0  0  0
  8 47  1  0  0  0  0
  9 10  2  0  0  0  0
  9 11  1  0  0  0  0
 11 12  1  0  0  0  0
 11 28  1  0  0  0  0
 12 13  2  0  0  0  0
 12 21  1  0  0  0  0
 13 14  1  0  0  0  0
 13 27  1  0  0  0  0
 14 15  2  0  0  0  0
 15 16  1  0  0  0  0
 15 26  1  0  0  0  0
 16 17  2  0  0  0  0
 16 21  1  0  0  0  0
 17 18  1  0  0  0  0
 17 25  1  0  0  0  0
 18 19  2  0  0  0  0
 18 24  1  0  0  0  0
 19 20  1  0  0  0  0
 19 23  1  0  0  0  0
 20 21  2  0  0  0  0
 20 22  1  0  0  0  0
 28 29  1  0  0  0  0
 28 45  1  0  0  0  0
 28 46  1  0  0  0  0
 29 30  1  0  0  0  0
 29 44  1  1  0  0  0
 30 31  1  0  0  0  0
 30 42  1  0  0  0  0
 30 43  1  0  0  0  0
 31 32  1  0  0  0  0
 31 41  1  0  0  0  0
 32 33  2  0  0  0  0
 32 37  1  0  0  0  0
 33 34  1  0  0  0  0
 33 40  1  0  0  0  0
 34 35  2  0  0  0  0
 35 36  1  0  0  0  0
 35 39  1  0  0  0  0
 36 37  2  0  0  0  0
 36 38  1  0  0  0  0
 47 48  2  0  0  0  0
 47 53  1  0  0  0  0
 48 49  1  0  0  0  0
 48 58  1  0  0  0  0
 49 50  1  0  0  0  0
 49 51  2  0  0  0  0
 51 52  1  0  0  0  0
 51 57  1  0  0  0  0
 52 53  2  0  0  0  0
 52 56  1  0  0  0  0
 53 54  1  0  0  0  0
 54 55  2  0  0  0  0
M  END
>  <MODEL>
       1

$$$$
