tmp_first_model_4_89.pdb
 OpenBabel08272518513D

 43 45  0  0  0  0  0  0  0  0999 V2000
   -6.2530    1.4960  -26.6450 C   0  0  0  0  0  0  0  0  0  0  0  0
   -7.4330    1.1170  -25.7460 C   0  0  0  0  0  0  0  0  0  0  0  0
   -8.7300    1.3500  -26.5340 C   0  0  0  0  0  0  0  0  0  0  0  0
   -9.6320    1.1130  -25.9650 H   0  0  0  0  0  0  0  0  0  0  0  0
   -8.8060    2.4000  -26.8380 H   0  0  0  0  0  0  0  0  0  0  0  0
   -8.7490    0.7410  -27.4440 H   0  0  0  0  0  0  0  0  0  0  0  0
   -7.4100    1.9900  -24.4770 C   0  0  0  0  0  0  0  0  0  0  0  0
   -8.4070    1.5290  -23.4170 C   0  0  0  0  0  0  0  0  0  0  0  0
   -8.1430    0.1330  -23.0900 N   0  0  0  0  0  0  0  0  0  0  0  0
   -8.3160   -0.2450  -21.7680 C   0  0  0  0  0  0  0  0  0  0  0  0
   -9.0490    0.3550  -21.0100 O   0  0  0  0  0  0  0  0  0  0  0  0
   -7.4710   -1.4360  -21.2970 C   0  0  0  0  0  0  0  0  0  0  0  0
   -6.4790   -1.0360  -20.2240 C   0  0  0  0  0  0  0  0  0  0  0  0
   -6.7270   -1.2970  -18.9040 C   0  0  0  0  0  0  0  0  0  0  0  0
   -5.8920   -1.0230  -17.8670 N   0  0  0  0  0  0  0  0  0  0  0  0
   -4.7640   -0.4310  -18.1640 C   0  0  0  0  0  0  0  0  0  0  0  0
   -4.4160   -0.0040  -19.4740 C   0  0  0  0  0  0  0  0  0  0  0  0
   -3.2620    0.7850  -19.7250 C   0  0  0  0  0  0  0  0  0  0  0  0
   -3.0430    1.3280  -20.9610 C   0  0  0  0  0  0  0  0  0  0  0  0
   -3.9070    1.0030  -22.0240 C   0  0  0  0  0  0  0  0  0  0  0  0
   -4.9910    0.1860  -21.8310 C   0  0  0  0  0  0  0  0  0  0  0  0
   -5.2920   -0.3150  -20.5380 C   0  0  0  0  0  0  0  0  0  0  0  0
   -5.6650   -0.0380  -22.6530 H   0  0  0  0  0  0  0  0  0  0  0  0
   -3.7400    1.4440  -23.0030 H   0  0  0  0  0  0  0  0  0  0  0  0
   -2.2280    2.0300  -21.1220 H   0  0  0  0  0  0  0  0  0  0  0  0
   -2.5860    0.9880  -18.9010 H   0  0  0  0  0  0  0  0  0  0  0  0
   -4.0780   -0.2140  -17.3450 H   0  0  0  0  0  0  0  0  0  0  0  0
   -7.6730   -1.7520  -18.6270 H   0  0  0  0  0  0  0  0  0  0  0  0
   -6.9450   -1.8620  -22.1570 H   0  0  0  0  0  0  0  0  0  0  0  0
   -8.1660   -2.1890  -20.9050 H   0  0  0  0  0  0  0  0  0  0  0  0
   -8.2400   -0.7800  -24.2300 C   0  0  0  0  0  0  0  0  0  0  0  0
   -7.2760   -0.3590  -25.3360 C   0  0  0  0  0  0  0  0  0  0  0  0
   -6.2480   -0.5130  -24.9830 H   0  0  0  0  0  0  0  0  0  0  0  0
   -7.3940   -1.0050  -26.2150 H   0  0  0  0  0  0  0  0  0  0  0  0
   -9.2670   -0.7980  -24.6270 H   0  0  0  0  0  0  0  0  0  0  0  0
   -8.0310   -1.7980  -23.8980 H   0  0  0  0  0  0  0  0  0  0  0  0
   -8.2890    2.1040  -22.4980 H   0  0  0  0  0  0  0  0  0  0  0  0
   -9.4480    1.6770  -23.7410 H   0  0  0  0  0  0  0  0  0  0  0  0
   -7.5760    3.0430  -24.7330 H   0  0  0  0  0  0  0  0  0  0  0  0
   -6.4060    1.9340  -24.0330 H   0  0  0  0  0  0  0  0  0  0  0  0
   -6.3030    2.5480  -26.9470 H   0  0  0  0  0  0  0  0  0  0  0  0
   -6.2430    0.8830  -27.5540 H   0  0  0  0  0  0  0  0  0  0  0  0
   -5.2990    1.3400  -26.1300 H   0  0  0  0  0  0  0  0  0  0  0  0
  1  2  1  0  0  0  0
  1 41  1  0  0  0  0
  1 42  1  0  0  0  0
  1 43  1  0  0  0  0
  2  3  1  0  0  0  0
  2  7  1  0  0  0  0
  2 32  1  0  0  0  0
  3  4  1  0  0  0  0
  3  5  1  0  0  0  0
  3  6  1  0  0  0  0
  7  8  1  0  0  0  0
  7 39  1  0  0  0  0
  7 40  1  0  0  0  0
  8  9  1  0  0  0  0
  8 37  1  0  0  0  0
  8 38  1  0  0  0  0
  9 10  1  0  0  0  0
  9 31  1  0  0  0  0
 10 11  2  0  0  0  0
 10 12  1  0  0  0  0
 12 13  1  0  0  0  0
 12 29  1  0  0  0  0
 12 30  1  0  0  0  0
 13 14  2  0  0  0  0
 13 22  1  0  0  0  0
 14 15  1  0  0  0  0
 14 28  1  0  0  0  0
 15 16  2  0  0  0  0
 16 17  1  0  0  0  0
 16 27  1  0  0  0  0
 17 18  2  0  0  0  0
 17 22  1  0  0  0  0
 18 19  1  0  0  0  0
 18 26  1  0  0  0  0
 19 20  2  0  0  0  0
 19 25  1  0  0  0  0
 20 21  1  0  0  0  0
 20 24  1  0  0  0  0
 21 22  2  0  0  0  0
 21 23  1  0  0  0  0
 31 32  1  0  0  0  0
 31 35  1  0  0  0  0
 31 36  1  0  0  0  0
 32 33  1  0  0  0  0
 32 34  1  0  0  0  0
M  END
>  <MODEL>
       1

$$$$
