tmp_first_model_3_54.pdb
 OpenBabel08272518143D

 40 43  0  0  0  0  0  0  0  0999 V2000
   -9.4330   -3.8990  -22.7390 C   0  0  0  0  0  0  0  0  0  0  0  0
   -8.6640   -2.7320  -22.3530 N   0  0  0  0  0  0  0  0  0  0  0  0
   -8.6820   -1.4720  -22.8820 C   0  0  0  0  0  0  0  0  0  0  0  0
   -9.5580   -1.0620  -24.0160 C   0  0  0  0  0  0  0  0  0  0  0  0
  -10.9760   -0.8020  -23.5440 C   0  0  0  0  0  0  0  0  0  0  0  0
  -11.9710   -1.7540  -23.7440 C   0  0  0  0  0  0  0  0  0  0  0  0
  -13.2880   -1.5150  -23.3550 C   0  0  0  0  0  0  0  0  0  0  0  0
  -13.6000   -0.3460  -22.6610 C   0  0  0  0  0  0  0  0  0  0  0  0
  -12.5900    0.5780  -22.3890 C   0  0  0  0  0  0  0  0  0  0  0  0
  -11.2870    0.3590  -22.8350 C   0  0  0  0  0  0  0  0  0  0  0  0
  -10.4870    1.0650  -22.6050 H   0  0  0  0  0  0  0  0  0  0  0  0
  -12.8130    1.4700  -21.8050 H   0  0  0  0  0  0  0  0  0  0  0  0
  -14.6120   -0.1720  -22.2930 H   0  0  0  0  0  0  0  0  0  0  0  0
  -14.0660   -2.2460  -23.5680 H   0  0  0  0  0  0  0  0  0  0  0  0
  -11.6730   -2.7180  -24.1470 H   0  0  0  0  0  0  0  0  0  0  0  0
   -9.1180   -0.1630  -24.4570 H   0  0  0  0  0  0  0  0  0  0  0  0
   -9.5650   -1.8250  -24.8040 H   0  0  0  0  0  0  0  0  0  0  0  0
   -7.9320   -0.6490  -22.2110 N   0  0  0  0  0  0  0  0  0  0  0  0
   -7.4050   -1.3920  -21.1910 N   0  0  0  0  0  0  0  0  0  0  0  0
   -6.5980   -0.8200  -20.1760 C   0  0  0  0  0  0  0  0  0  0  0  0
   -6.9050   -1.0510  -18.8570 C   0  0  0  0  0  0  0  0  0  0  0  0
   -6.2150   -0.5340  -17.8150 N   0  0  0  0  0  0  0  0  0  0  0  0
   -5.1780    0.2160  -18.0930 C   0  0  0  0  0  0  0  0  0  0  0  0
   -4.7360    0.5210  -19.4070 C   0  0  0  0  0  0  0  0  0  0  0  0
   -3.6000    1.3440  -19.6330 C   0  0  0  0  0  0  0  0  0  0  0  0
   -3.1850    1.6120  -20.9070 C   0  0  0  0  0  0  0  0  0  0  0  0
   -3.8830    1.0560  -22.0050 C   0  0  0  0  0  0  0  0  0  0  0  0
   -4.9850    0.2600  -21.8150 C   0  0  0  0  0  0  0  0  0  0  0  0
   -5.4600   -0.0140  -20.5000 C   0  0  0  0  0  0  0  0  0  0  0  0
   -5.5340   -0.1510  -22.6560 H   0  0  0  0  0  0  0  0  0  0  0  0
   -3.5510    1.2850  -23.0130 H   0  0  0  0  0  0  0  0  0  0  0  0
   -2.3290    2.2590  -21.0820 H   0  0  0  0  0  0  0  0  0  0  0  0
   -3.0900    1.7620  -18.7690 H   0  0  0  0  0  0  0  0  0  0  0  0
   -4.6260    0.6170  -17.2430 H   0  0  0  0  0  0  0  0  0  0  0  0
   -7.7440   -1.6890  -18.5940 H   0  0  0  0  0  0  0  0  0  0  0  0
   -7.8400   -2.7070  -21.2340 C   0  0  0  0  0  0  0  0  0  0  0  0
   -7.5570   -3.6170  -20.4840 O   0  0  0  0  0  0  0  0  0  0  0  0
   -8.9190   -4.7650  -22.3220 H   0  0  0  0  0  0  0  0  0  0  0  0
  -10.4510   -3.8550  -22.3330 H   0  0  0  0  0  0  0  0  0  0  0  0
   -9.4680   -3.9830  -23.8300 H   0  0  0  0  0  0  0  0  0  0  0  0
  1  2  1  0  0  0  0
  1 38  1  0  0  0  0
  1 39  1  0  0  0  0
  1 40  1  0  0  0  0
  2  3  1  0  0  0  0
  2 36  1  0  0  0  0
  3  4  1  0  0  0  0
  3 18  2  0  0  0  0
  4  5  1  0  0  0  0
  4 16  1  0  0  0  0
  4 17  1  0  0  0  0
  5  6  2  0  0  0  0
  5 10  1  0  0  0  0
  6  7  1  0  0  0  0
  6 15  1  0  0  0  0
  7  8  2  0  0  0  0
  7 14  1  0  0  0  0
  8  9  1  0  0  0  0
  8 13  1  0  0  0  0
  9 10  2  0  0  0  0
  9 12  1  0  0  0  0
 10 11  1  0  0  0  0
 18 19  1  0  0  0  0
 19 20  1  0  0  0  0
 19 36  1  0  0  0  0
 20 21  2  0  0  0  0
 20 29  1  0  0  0  0
 21 22  1  0  0  0  0
 21 35  1  0  0  0  0
 22 23  2  0  0  0  0
 23 24  1  0  0  0  0
 23 34  1  0  0  0  0
 24 25  2  0  0  0  0
 24 29  1  0  0  0  0
 25 26  1  0  0  0  0
 25 33  1  0  0  0  0
 26 27  2  0  0  0  0
 26 32  1  0  0  0  0
 27 28  1  0  0  0  0
 27 31  1  0  0  0  0
 28 29  2  0  0  0  0
 28 30  1  0  0  0  0
 36 37  2  0  0  0  0
M  END
>  <MODEL>
       1

$$$$
