tmp_first_model_4_36.pdb
 OpenBabel08272518513D

 47 50  0  0  1  0  0  0  0  0999 V2000
   -8.7590    0.5980  -21.2770 O   0  0  0  0  0  0  0  0  0  0  0  0
   -8.4530   -0.4100  -21.8900 C   0  0  0  0  0  0  0  0  0  0  0  0
   -7.4550   -1.4380  -21.3230 C   0  0  0  0  0  0  0  0  0  0  0  0
   -6.5130   -0.9850  -20.2440 C   0  0  0  0  0  0  0  0  0  0  0  0
   -6.7610   -1.2590  -18.9280 C   0  0  0  0  0  0  0  0  0  0  0  0
   -5.9320   -0.9920  -17.8880 N   0  0  0  0  0  0  0  0  0  0  0  0
   -4.8130   -0.3730  -18.1690 C   0  0  0  0  0  0  0  0  0  0  0  0
   -4.4440    0.0380  -19.4810 C   0  0  0  0  0  0  0  0  0  0  0  0
   -3.2860    0.8210  -19.7200 C   0  0  0  0  0  0  0  0  0  0  0  0
   -3.0560    1.3480  -20.9610 C   0  0  0  0  0  0  0  0  0  0  0  0
   -3.9110    1.0160  -22.0380 C   0  0  0  0  0  0  0  0  0  0  0  0
   -4.9930    0.1930  -21.8590 C   0  0  0  0  0  0  0  0  0  0  0  0
   -5.3170   -0.2730  -20.5530 C   0  0  0  0  0  0  0  0  0  0  0  0
   -5.6720   -0.0040  -22.6850 H   0  0  0  0  0  0  0  0  0  0  0  0
   -3.7280    1.4450  -23.0190 H   0  0  0  0  0  0  0  0  0  0  0  0
   -2.2640    2.0710  -21.1200 H   0  0  0  0  0  0  0  0  0  0  0  0
   -2.6250    1.0410  -18.8860 H   0  0  0  0  0  0  0  0  0  0  0  0
   -4.1540   -0.1460  -17.3310 H   0  0  0  0  0  0  0  0  0  0  0  0
   -7.7140   -1.7040  -18.6570 H   0  0  0  0  0  0  0  0  0  0  0  0
   -6.8570   -1.8600  -22.1320 H   0  0  0  0  0  0  0  0  0  0  0  0
   -8.0860   -2.2440  -20.9250 H   0  0  0  0  0  0  0  0  0  0  0  0
   -9.0720   -0.7420  -23.0830 N   0  0  0  0  0  0  0  0  0  0  0  0
  -10.0710    0.2370  -23.5230 C   0  0  0  0  0  0  0  0  0  0  0  0
  -11.0540   -0.3030  -24.5480 C   0  0  0  0  0  0  0  0  0  0  0  0
  -10.3190   -0.9950  -25.6910 C   0  0  0  0  0  0  0  0  0  0  0  0
   -9.5200   -2.1570  -25.1040 C   0  0  0  0  0  0  0  0  0  0  0  0
   -8.5120   -1.7270  -24.0210 C   0  0  1  0  0  0  0  0  0  0  0  0
   -7.1790   -1.2950  -24.6410 C   0  0  0  0  0  0  0  0  0  0  0  0
   -6.1560   -2.2390  -24.7750 C   0  0  0  0  0  0  0  0  0  0  0  0
   -4.9350   -1.9020  -25.3530 C   0  0  0  0  0  0  0  0  0  0  0  0
   -4.7260   -0.6080  -25.8210 C   0  0  0  0  0  0  0  0  0  0  0  0
   -5.7470    0.3350  -25.7160 C   0  0  0  0  0  0  0  0  0  0  0  0
   -6.9650   -0.0070  -25.1310 C   0  0  0  0  0  0  0  0  0  0  0  0
   -7.7440    0.7500  -25.0670 H   0  0  0  0  0  0  0  0  0  0  0  0
   -5.5990    1.3430  -26.0950 H   0  0  0  0  0  0  0  0  0  0  0  0
   -3.7730   -0.3360  -26.2680 H   0  0  0  0  0  0  0  0  0  0  0  0
   -4.1510   -2.6510  -25.4330 H   0  0  0  0  0  0  0  0  0  0  0  0
   -6.3110   -3.2560  -24.4180 H   0  0  0  0  0  0  0  0  0  0  0  0
   -8.3000   -2.6330  -23.4360 H   0  0  0  0  0  0  0  0  0  0  0  0
   -8.9710   -2.7080  -25.8790 H   0  0  0  0  0  0  0  0  0  0  0  0
  -10.2250   -2.8630  -24.6500 H   0  0  0  0  0  0  0  0  0  0  0  0
   -9.6520   -0.2930  -26.2110 H   0  0  0  0  0  0  0  0  0  0  0  0
  -11.0290   -1.3660  -26.4380 H   0  0  0  0  0  0  0  0  0  0  0  0
  -11.6860    0.5260  -24.8950 H   0  0  0  0  0  0  0  0  0  0  0  0
  -11.7230   -1.0270  -24.0670 H   0  0  0  0  0  0  0  0  0  0  0  0
  -10.5980    0.5600  -22.6230 H   0  0  0  0  0  0  0  0  0  0  0  0
   -9.5610    1.1260  -23.9210 H   0  0  0  0  0  0  0  0  0  0  0  0
  1  2  2  0  0  0  0
  2  3  1  0  0  0  0
  2 22  1  0  0  0  0
  3  4  1  0  0  0  0
  3 20  1  0  0  0  0
  3 21  1  0  0  0  0
  4  5  2  0  0  0  0
  4 13  1  0  0  0  0
  5  6  1  0  0  0  0
  5 19  1  0  0  0  0
  6  7  2  0  0  0  0
  7  8  1  0  0  0  0
  7 18  1  0  0  0  0
  8  9  2  0  0  0  0
  8 13  1  0  0  0  0
  9 10  1  0  0  0  0
  9 17  1  0  0  0  0
 10 11  2  0  0  0  0
 10 16  1  0  0  0  0
 11 12  1  0  0  0  0
 11 15  1  0  0  0  0
 12 13  2  0  0  0  0
 12 14  1  0  0  0  0
 22 23  1  0  0  0  0
 22 27  1  0  0  0  0
 23 24  1  0  0  0  0
 23 46  1  0  0  0  0
 23 47  1  0  0  0  0
 24 25  1  0  0  0  0
 24 44  1  0  0  0  0
 24 45  1  0  0  0  0
 25 26  1  0  0  0  0
 25 42  1  0  0  0  0
 25 43  1  0  0  0  0
 26 27  1  0  0  0  0
 26 40  1  0  0  0  0
 26 41  1  0  0  0  0
 27 28  1  0  0  0  0
 27 39  1  1  0  0  0
 28 29  2  0  0  0  0
 28 33  1  0  0  0  0
 29 30  1  0  0  0  0
 29 38  1  0  0  0  0
 30 31  2  0  0  0  0
 30 37  1  0  0  0  0
 31 32  1  0  0  0  0
 31 36  1  0  0  0  0
 32 33  2  0  0  0  0
 32 35  1  0  0  0  0
 33 34  1  0  0  0  0
M  END
>  <MODEL>
       1

$$$$
