tmp_first_model_4_19.pdb
 OpenBabel08272518513D

 42 45  0  0  1  0  0  0  0  0999 V2000
   -9.1150   -0.0210  -20.7780 O   0  0  0  0  0  0  0  0  0  0  0  0
   -8.6300   -0.8870  -21.4800 C   0  0  0  0  0  0  0  0  0  0  0  0
   -9.3530   -1.4970  -22.6820 C   0  0  1  0  0  0  0  0  0  0  0  0
  -10.4290   -0.5580  -23.1810 C   0  0  0  0  0  0  0  0  0  0  0  0
  -10.0830    0.7550  -23.4910 C   0  0  0  0  0  0  0  0  0  0  0  0
  -11.0370    1.6700  -23.9040 C   0  0  0  0  0  0  0  0  0  0  0  0
  -12.3710    1.2760  -23.9900 C   0  0  0  0  0  0  0  0  0  0  0  0
  -13.5920    2.4720  -24.2590 Cl  0  0  0  0  0  0  0  0  0  0  0  0
  -12.7140   -0.0670  -23.8020 C   0  0  0  0  0  0  0  0  0  0  0  0
  -14.3290   -0.6380  -24.0890 Cl  0  0  0  0  0  0  0  0  0  0  0  0
  -11.7420   -0.9750  -23.3860 C   0  0  0  0  0  0  0  0  0  0  0  0
  -12.0360   -2.0070  -23.2140 H   0  0  0  0  0  0  0  0  0  0  0  0
  -10.7500    2.6900  -24.1510 H   0  0  0  0  0  0  0  0  0  0  0  0
   -9.0570    1.0810  -23.3490 H   0  0  0  0  0  0  0  0  0  0  0  0
   -8.3340   -1.8000  -23.7820 C   0  0  0  0  0  0  0  0  0  0  0  0
   -7.2380   -2.7660  -23.3500 C   0  0  2  0  0  0  0  0  0  0  0  0
   -7.5310   -4.1180  -23.6630 O   0  0  0  0  0  0  0  0  0  0  0  0
   -8.3890   -4.3180  -23.2630 H   0  0  0  0  0  0  0  0  0  0  0  0
   -6.9320   -2.6350  -21.8600 C   0  0  0  0  0  0  0  0  0  0  0  0
   -7.3550   -1.3750  -21.2900 N   0  0  0  0  0  0  0  0  0  0  0  0
   -6.5460   -0.9160  -20.2250 C   0  0  0  0  0  0  0  0  0  0  0  0
   -6.8080   -1.2320  -18.9190 C   0  0  0  0  0  0  0  0  0  0  0  0
   -5.9720   -0.9620  -17.8870 N   0  0  0  0  0  0  0  0  0  0  0  0
   -4.8510   -0.3340  -18.1630 C   0  0  0  0  0  0  0  0  0  0  0  0
   -4.4740    0.0760  -19.4770 C   0  0  0  0  0  0  0  0  0  0  0  0
   -3.3130    0.8480  -19.7280 C   0  0  0  0  0  0  0  0  0  0  0  0
   -3.0700    1.3530  -20.9760 C   0  0  0  0  0  0  0  0  0  0  0  0
   -3.9150    1.0070  -22.0550 C   0  0  0  0  0  0  0  0  0  0  0  0
   -5.0020    0.1960  -21.8540 C   0  0  0  0  0  0  0  0  0  0  0  0
   -5.3310   -0.2410  -20.5450 C   0  0  0  0  0  0  0  0  0  0  0  0
   -5.6740   -0.0450  -22.6730 H   0  0  0  0  0  0  0  0  0  0  0  0
   -3.7200    1.4100  -23.0430 H   0  0  0  0  0  0  0  0  0  0  0  0
   -2.2480    2.0450  -21.1460 H   0  0  0  0  0  0  0  0  0  0  0  0
   -2.6690    1.1010  -18.8900 H   0  0  0  0  0  0  0  0  0  0  0  0
   -4.1890   -0.1010  -17.3340 H   0  0  0  0  0  0  0  0  0  0  0  0
   -7.7510   -1.7120  -18.6700 H   0  0  0  0  0  0  0  0  0  0  0  0
   -7.4110   -3.4650  -21.3250 H   0  0  0  0  0  0  0  0  0  0  0  0
   -5.8580   -2.7250  -21.6800 H   0  0  0  0  0  0  0  0  0  0  0  0
   -6.3330   -2.5410  -23.9230 H   0  0  0  0  0  0  0  0  0  0  0  0
   -7.8810   -0.8470  -24.0750 H   0  0  0  0  0  0  0  0  0  0  0  0
   -8.8370   -2.1960  -24.6680 H   0  0  0  0  0  0  0  0  0  0  0  0
   -9.8110   -2.4280  -22.3280 H   0  0  0  0  0  0  0  0  0  0  0  0
  1  2  2  0  0  0  0
  2  3  1  0  0  0  0
  2 20  1  0  0  0  0
  3  4  1  0  0  0  0
  3 15  1  0  0  0  0
  3 42  1  1  0  0  0
  4  5  2  0  0  0  0
  4 11  1  0  0  0  0
  5  6  1  0  0  0  0
  5 14  1  0  0  0  0
  6  7  2  0  0  0  0
  6 13  1  0  0  0  0
  7  8  1  0  0  0  0
  7  9  1  0  0  0  0
  9 10  1  0  0  0  0
  9 11  2  0  0  0  0
 11 12  1  0  0  0  0
 15 16  1  0  0  0  0
 15 40  1  0  0  0  0
 15 41  1  0  0  0  0
 16 17  1  0  0  0  0
 16 19  1  0  0  0  0
 16 39  1  6  0  0  0
 17 18  1  0  0  0  0
 19 20  1  0  0  0  0
 19 37  1  0  0  0  0
 19 38  1  0  0  0  0
 20 21  1  0  0  0  0
 21 22  2  0  0  0  0
 21 30  1  0  0  0  0
 22 23  1  0  0  0  0
 22 36  1  0  0  0  0
 23 24  2  0  0  0  0
 24 25  1  0  0  0  0
 24 35  1  0  0  0  0
 25 26  2  0  0  0  0
 25 30  1  0  0  0  0
 26 27  1  0  0  0  0
 26 34  1  0  0  0  0
 27 28  2  0  0  0  0
 27 33  1  0  0  0  0
 28 29  1  0  0  0  0
 28 32  1  0  0  0  0
 29 30  2  0  0  0  0
 29 31  1  0  0  0  0
M  END
>  <MODEL>
       1

$$$$
