tmp_first_model_18_46.pdb
 OpenBabel08282502533D

 50 54  0  0  1  0  0  0  0  0999 V2000
   -8.4340   -4.1110  -23.4310 C   0  0  0  0  0  0  0  0  0  0  0  0
   -8.5700   -2.9150  -22.5030 C   0  0  1  0  0  0  0  0  0  0  0  0
   -7.4060   -2.7220  -21.5340 C   0  0  0  0  0  0  0  0  0  0  0  0
   -7.4540   -1.3060  -21.2410 N   0  0  0  0  0  0  0  0  0  0  0  0
   -6.6470   -0.7590  -20.2200 C   0  0  0  0  0  0  0  0  0  0  0  0
   -6.9320   -1.0530  -18.9090 C   0  0  0  0  0  0  0  0  0  0  0  0
   -6.2470   -0.5750  -17.8440 N   0  0  0  0  0  0  0  0  0  0  0  0
   -5.2190    0.1990  -18.1010 C   0  0  0  0  0  0  0  0  0  0  0  0
   -4.7760    0.5300  -19.4140 C   0  0  0  0  0  0  0  0  0  0  0  0
   -3.6370    1.3490  -19.6250 C   0  0  0  0  0  0  0  0  0  0  0  0
   -3.2000    1.6160  -20.8910 C   0  0  0  0  0  0  0  0  0  0  0  0
   -3.8740    1.0680  -22.0050 C   0  0  0  0  0  0  0  0  0  0  0  0
   -4.9840    0.2800  -21.8310 C   0  0  0  0  0  0  0  0  0  0  0  0
   -5.4820    0.0160  -20.5220 C   0  0  0  0  0  0  0  0  0  0  0  0
   -5.4760   -0.1480  -22.7010 H   0  0  0  0  0  0  0  0  0  0  0  0
   -3.5150    1.2810  -23.0070 H   0  0  0  0  0  0  0  0  0  0  0  0
   -2.3300    2.2480  -21.0470 H   0  0  0  0  0  0  0  0  0  0  0  0
   -3.1300    1.7510  -18.7510 H   0  0  0  0  0  0  0  0  0  0  0  0
   -4.6730    0.5990  -17.2480 H   0  0  0  0  0  0  0  0  0  0  0  0
   -7.7780   -1.7020  -18.6850 H   0  0  0  0  0  0  0  0  0  0  0  0
   -8.2200   -0.5620  -22.1190 C   0  0  0  0  0  0  0  0  0  0  0  0
   -8.4110    0.6310  -22.0240 O   0  0  0  0  0  0  0  0  0  0  0  0
   -8.7360   -1.5420  -23.2120 C   0  0  1  0  0  0  0  0  0  0  0  0
   -7.8220   -1.4490  -24.4650 C   0  0  0  0  0  0  0  0  0  0  0  0
   -7.9800   -0.1660  -25.1280 N   0  0  0  0  0  0  0  0  0  0  0  0
   -6.8510    0.6220  -25.5760 C   0  0  0  0  0  0  0  0  0  0  0  0
   -6.5990    1.8010  -24.7270 C   0  0  0  0  0  0  0  0  0  0  0  0
   -6.3450    2.7390  -24.0990 N   0  0  0  0  0  0  0  0  0  0  0  0
   -5.9530   -0.0010  -25.5860 H   0  0  0  0  0  0  0  0  0  0  0  0
   -7.0540    0.9740  -26.5910 H   0  0  0  0  0  0  0  0  0  0  0  0
   -9.2240    0.2980  -25.4670 C   0  0  0  0  0  0  0  0  0  0  0  0
   -9.3880    1.1810  -26.2970 O   0  0  0  0  0  0  0  0  0  0  0  0
  -10.3620   -0.3290  -24.7300 C   0  0  0  0  0  0  0  0  0  0  0  0
  -11.6520    0.0040  -25.1450 C   0  0  0  0  0  0  0  0  0  0  0  0
  -12.7540   -0.4510  -24.4510 C   0  0  0  0  0  0  0  0  0  0  0  0
  -12.5320   -1.3240  -23.3940 C   0  0  0  0  0  0  0  0  0  0  0  0
  -13.5950   -1.7940  -22.7180 F   0  0  0  0  0  0  0  0  0  0  0  0
  -11.2700   -1.7390  -23.0190 C   0  0  0  0  0  0  0  0  0  0  0  0
  -10.1440   -1.2150  -23.6660 C   0  0  0  0  0  0  0  0  0  0  0  0
  -11.2020   -2.4610  -22.2140 H   0  0  0  0  0  0  0  0  0  0  0  0
  -13.7610   -0.1300  -24.6920 H   0  0  0  0  0  0  0  0  0  0  0  0
  -11.7440    0.6200  -26.0320 H   0  0  0  0  0  0  0  0  0  0  0  0
   -8.0780   -2.2660  -25.1590 H   0  0  0  0  0  0  0  0  0  0  0  0
   -6.7700   -1.5570  -24.1820 H   0  0  0  0  0  0  0  0  0  0  0  0
   -6.4390   -3.0220  -21.9680 H   0  0  0  0  0  0  0  0  0  0  0  0
   -7.5360   -3.2840  -20.6110 H   0  0  0  0  0  0  0  0  0  0  0  0
   -9.4510   -3.0510  -21.8710 H   0  0  0  0  0  0  0  0  0  0  0  0
   -8.4520   -5.0450  -22.8640 H   0  0  0  0  0  0  0  0  0  0  0  0
   -9.2520   -4.1240  -24.1610 H   0  0  0  0  0  0  0  0  0  0  0  0
   -7.4890   -4.0620  -23.9840 H   0  0  0  0  0  0  0  0  0  0  0  0
  1  2  1  0  0  0  0
  1 48  1  0  0  0  0
  1 49  1  0  0  0  0
  1 50  1  0  0  0  0
  2  3  1  0  0  0  0
  2 23  1  0  0  0  0
  2 47  1  1  0  0  0
  3  4  1  0  0  0  0
  3 45  1  0  0  0  0
  3 46  1  0  0  0  0
  4  5  1  0  0  0  0
  4 21  1  0  0  0  0
  5  6  2  0  0  0  0
  5 14  1  0  0  0  0
  6  7  1  0  0  0  0
  6 20  1  0  0  0  0
  7  8  2  0  0  0  0
  8  9  1  0  0  0  0
  8 19  1  0  0  0  0
  9 10  2  0  0  0  0
  9 14  1  0  0  0  0
 10 11  1  0  0  0  0
 10 18  1  0  0  0  0
 11 12  2  0  0  0  0
 11 17  1  0  0  0  0
 12 13  1  0  0  0  0
 12 16  1  0  0  0  0
 13 14  2  0  0  0  0
 13 15  1  0  0  0  0
 21 22  2  0  0  0  0
 23 21  1  1  0  0  0
 23 24  1  0  0  0  0
 23 39  1  0  0  0  0
 24 25  1  0  0  0  0
 24 43  1  0  0  0  0
 24 44  1  0  0  0  0
 25 26  1  0  0  0  0
 25 31  1  0  0  0  0
 26 27  1  0  0  0  0
 26 29  1  0  0  0  0
 26 30  1  0  0  0  0
 27 28  3  0  0  0  0
 31 32  2  0  0  0  0
 31 33  1  0  0  0  0
 33 34  2  0  0  0  0
 33 39  1  0  0  0  0
 34 35  1  0  0  0  0
 34 42  1  0  0  0  0
 35 36  2  0  0  0  0
 35 41  1  0  0  0  0
 36 37  1  0  0  0  0
 36 38  1  0  0  0  0
 38 39  2  0  0  0  0
 38 40  1  0  0  0  0
M  END
>  <MODEL>
       1

$$$$
