tmp_first_model_9_84.pdb
 OpenBabel08272521403D

 63 68  0  0  1  0  0  0  0  0999 V2000
   -8.1570   -3.7810  -23.9090 C   0  0  0  0  0  0  0  0  0  0  0  0
   -8.3370   -3.0340  -22.5950 C   0  0  1  0  0  0  0  0  0  0  0  0
   -7.0210   -2.4530  -22.0450 C   0  0  0  0  0  0  0  0  0  0  0  0
   -7.4700   -1.3580  -21.2120 N   0  0  0  0  0  0  0  0  0  0  0  0
   -6.6720   -0.7820  -20.1840 C   0  0  0  0  0  0  0  0  0  0  0  0
   -6.9710   -1.0150  -18.8620 C   0  0  0  0  0  0  0  0  0  0  0  0
   -6.2510   -0.5300  -17.8230 N   0  0  0  0  0  0  0  0  0  0  0  0
   -5.2120    0.2210  -18.0910 C   0  0  0  0  0  0  0  0  0  0  0  0
   -4.7760    0.5300  -19.4090 C   0  0  0  0  0  0  0  0  0  0  0  0
   -3.6570    1.3730  -19.6550 C   0  0  0  0  0  0  0  0  0  0  0  0
   -3.2700    1.6620  -20.9350 C   0  0  0  0  0  0  0  0  0  0  0  0
   -3.9980    1.1410  -22.0250 C   0  0  0  0  0  0  0  0  0  0  0  0
   -5.0910    0.3270  -21.8130 C   0  0  0  0  0  0  0  0  0  0  0  0
   -5.5130    0.0000  -20.4960 C   0  0  0  0  0  0  0  0  0  0  0  0
   -5.6790   -0.0050  -22.6620 H   0  0  0  0  0  0  0  0  0  0  0  0
   -3.7100    1.3980  -23.0400 H   0  0  0  0  0  0  0  0  0  0  0  0
   -2.4250    2.3210  -21.1150 H   0  0  0  0  0  0  0  0  0  0  0  0
   -3.1400    1.8020  -18.8010 H   0  0  0  0  0  0  0  0  0  0  0  0
   -4.6480    0.6270  -17.2480 H   0  0  0  0  0  0  0  0  0  0  0  0
   -7.8210   -1.6380  -18.5950 H   0  0  0  0  0  0  0  0  0  0  0  0
   -8.7500   -0.9390  -21.5070 C   0  0  0  0  0  0  0  0  0  0  0  0
   -9.3080    0.0090  -20.9880 O   0  0  0  0  0  0  0  0  0  0  0  0
   -9.3480   -1.8490  -22.6220 C   0  0  1  0  0  0  0  0  0  0  0  0
   -9.3160   -1.1170  -24.0010 C   0  0  0  0  0  0  0  0  0  0  0  0
  -10.3090   -0.0630  -24.1490 N   0  0  0  0  0  0  0  0  0  0  0  0
   -9.9180    1.1380  -24.8730 C   0  0  0  0  0  0  0  0  0  0  0  0
   -8.6840    1.7210  -24.1700 C   0  0  0  0  0  0  0  0  0  0  0  0
   -7.5520    1.6690  -24.6270 O   0  0  0  0  0  0  0  0  0  0  0  0
   -8.9850    2.2020  -22.9380 N   0  0  0  0  0  0  0  0  0  0  0  0
   -7.9980    2.5210  -21.9310 C   0  0  0  0  0  0  0  0  0  0  0  0
   -7.5090    3.9420  -22.0200 C   0  0  0  0  0  0  0  0  0  0  0  0
   -8.5330    4.8560  -21.9800 F   0  0  0  0  0  0  0  0  0  0  0  0
   -6.3590    4.2840  -22.8960 C   0  0  0  0  0  0  0  0  0  0  0  0
   -6.2310    4.3570  -21.3860 C   0  0  0  0  0  0  0  0  0  0  0  0
   -5.6470    3.5770  -20.8980 H   0  0  0  0  0  0  0  0  0  0  0  0
   -6.2080    5.3450  -20.9320 H   0  0  0  0  0  0  0  0  0  0  0  0
   -5.8790    3.4650  -23.4310 H   0  0  0  0  0  0  0  0  0  0  0  0
   -6.4360    5.2220  -23.4310 H   0  0  0  0  0  0  0  0  0  0  0  0
   -8.4490    2.3180  -20.9580 H   0  0  0  0  0  0  0  0  0  0  0  0
   -7.1410    1.8520  -22.0620 H   0  0  0  0  0  0  0  0  0  0  0  0
   -9.9380    2.1090  -22.6170 H   0  0  0  0  0  0  0  0  0  0  0  0
   -9.7080    0.9240  -25.9250 H   0  0  0  0  0  0  0  0  0  0  0  0
  -10.7620    1.8320  -24.8070 H   0  0  0  0  0  0  0  0  0  0  0  0
  -11.5180   -0.0860  -23.5290 C   0  0  0  0  0  0  0  0  0  0  0  0
  -12.3060    0.8510  -23.6040 O   0  0  0  0  0  0  0  0  0  0  0  0
  -11.8250   -1.3190  -22.7410 C   0  0  0  0  0  0  0  0  0  0  0  0
  -13.1640   -1.5340  -22.4160 C   0  0  0  0  0  0  0  0  0  0  0  0
  -13.5340   -2.5980  -21.6260 C   0  0  0  0  0  0  0  0  0  0  0  0
  -12.5220   -3.4500  -21.2150 C   0  0  0  0  0  0  0  0  0  0  0  0
  -12.8500   -4.3790  -20.3080 F   0  0  0  0  0  0  0  0  0  0  0  0
  -11.2000   -3.3310  -21.6090 C   0  0  0  0  0  0  0  0  0  0  0  0
  -10.8060   -2.2020  -22.3400 C   0  0  0  0  0  0  0  0  0  0  0  0
  -10.5040   -4.0870  -21.2600 H   0  0  0  0  0  0  0  0  0  0  0  0
  -14.5560   -2.7720  -21.3030 H   0  0  0  0  0  0  0  0  0  0  0  0
  -13.9030   -0.8360  -22.7880 H   0  0  0  0  0  0  0  0  0  0  0  0
   -9.4740   -1.8440  -24.8040 H   0  0  0  0  0  0  0  0  0  0  0  0
   -8.3320   -0.6650  -24.1480 H   0  0  0  0  0  0  0  0  0  0  0  0
   -6.3580   -2.1060  -22.8530 H   0  0  0  0  0  0  0  0  0  0  0  0
   -6.4580   -3.1880  -21.4600 H   0  0  0  0  0  0  0  0  0  0  0  0
   -8.6930   -3.7320  -21.8320 H   0  0  0  0  0  0  0  0  0  0  0  0
   -7.7030   -3.1290  -24.6650 H   0  0  0  0  0  0  0  0  0  0  0  0
   -7.5020   -4.6480  -23.7900 H   0  0  0  0  0  0  0  0  0  0  0  0
   -9.1200   -4.1260  -24.2990 H   0  0  0  0  0  0  0  0  0  0  0  0
  1  2  1  0  0  0  0
  1 61  1  0  0  0  0
  1 62  1  0  0  0  0
  1 63  1  0  0  0  0
  2  3  1  0  0  0  0
  2 23  1  0  0  0  0
  2 60  1  1  0  0  0
  3  4  1  0  0  0  0
  3 58  1  0  0  0  0
  3 59  1  0  0  0  0
  4  5  1  0  0  0  0
  4 21  1  0  0  0  0
  5  6  2  0  0  0  0
  5 14  1  0  0  0  0
  6  7  1  0  0  0  0
  6 20  1  0  0  0  0
  7  8  2  0  0  0  0
  8  9  1  0  0  0  0
  8 19  1  0  0  0  0
  9 10  2  0  0  0  0
  9 14  1  0  0  0  0
 10 11  1  0  0  0  0
 10 18  1  0  0  0  0
 11 12  2  0  0  0  0
 11 17  1  0  0  0  0
 12 13  1  0  0  0  0
 12 16  1  0  0  0  0
 13 14  2  0  0  0  0
 13 15  1  0  0  0  0
 21 22  2  0  0  0  0
 23 21  1  1  0  0  0
 23 24  1  0  0  0  0
 23 52  1  0  0  0  0
 24 25  1  0  0  0  0
 24 56  1  0  0  0  0
 24 57  1  0  0  0  0
 25 26  1  0  0  0  0
 25 44  1  0  0  0  0
 26 27  1  0  0  0  0
 26 42  1  0  0  0  0
 26 43  1  0  0  0  0
 27 28  2  0  0  0  0
 27 29  1  0  0  0  0
 29 30  1  0  0  0  0
 29 41  1  0  0  0  0
 30 31  1  0  0  0  0
 30 39  1  0  0  0  0
 30 40  1  0  0  0  0
 31 32  1  0  0  0  0
 31 33  1  0  0  0  0
 31 34  1  0  0  0  0
 33 34  1  0  0  0  0
 33 37  1  0  0  0  0
 33 38  1  0  0  0  0
 34 35  1  0  0  0  0
 34 36  1  0  0  0  0
 44 45  2  0  0  0  0
 44 46  1  0  0  0  0
 46 47  2  0  0  0  0
 46 52  1  0  0  0  0
 47 48  1  0  0  0  0
 47 55  1  0  0  0  0
 48 49  2  0  0  0  0
 48 54  1  0  0  0  0
 49 50  1  0  0  0  0
 49 51  1  0  0  0  0
 51 52  2  0  0  0  0
 51 53  1  0  0  0  0
M  END
>  <MODEL>
       1

$$$$
