tmp_first_model_12_79.pdb
 OpenBabel08272523333D

 45 49  0  0  0  0  0  0  0  0999 V2000
   -9.6300   -0.9230  -24.0350 C   0  0  0  0  0  0  0  0  0  0  0  0
   -8.6450   -1.3740  -23.0840 N   0  0  0  0  0  0  0  0  0  0  0  0
   -8.4230   -0.7190  -21.9000 C   0  0  0  0  0  0  0  0  0  0  0  0
   -9.0050    0.2410  -21.4560 O   0  0  0  0  0  0  0  0  0  0  0  0
   -7.3510   -1.3910  -21.2870 N   0  0  0  0  0  0  0  0  0  0  0  0
   -6.5980   -0.7990  -20.2350 C   0  0  0  0  0  0  0  0  0  0  0  0
   -6.9280   -1.0670  -18.9340 C   0  0  0  0  0  0  0  0  0  0  0  0
   -6.2440   -0.5910  -17.8630 N   0  0  0  0  0  0  0  0  0  0  0  0
   -5.2160    0.1890  -18.0990 C   0  0  0  0  0  0  0  0  0  0  0  0
   -4.7810    0.5640  -19.4050 C   0  0  0  0  0  0  0  0  0  0  0  0
   -3.6400    1.3870  -19.6120 C   0  0  0  0  0  0  0  0  0  0  0  0
   -3.2610    1.7300  -20.8830 C   0  0  0  0  0  0  0  0  0  0  0  0
   -4.0200    1.2990  -21.9970 C   0  0  0  0  0  0  0  0  0  0  0  0
   -5.1100    0.4800  -21.8220 C   0  0  0  0  0  0  0  0  0  0  0  0
   -5.5020    0.0780  -20.5140 C   0  0  0  0  0  0  0  0  0  0  0  0
   -5.6590    0.1120  -22.6830 H   0  0  0  0  0  0  0  0  0  0  0  0
   -3.7100    1.5750  -23.0040 H   0  0  0  0  0  0  0  0  0  0  0  0
   -2.3740    2.3380  -21.0520 H   0  0  0  0  0  0  0  0  0  0  0  0
   -3.0760    1.7200  -18.7430 H   0  0  0  0  0  0  0  0  0  0  0  0
   -4.6660    0.5700  -17.2370 H   0  0  0  0  0  0  0  0  0  0  0  0
   -7.7810   -1.7080  -18.7250 H   0  0  0  0  0  0  0  0  0  0  0  0
   -6.9130   -2.4790  -22.0530 C   0  0  0  0  0  0  0  0  0  0  0  0
   -6.0110   -3.2270  -21.7670 O   0  0  0  0  0  0  0  0  0  0  0  0
   -7.7710   -2.4940  -23.3060 C   0  0  0  0  0  0  0  0  0  0  0  0
   -6.9770   -2.5680  -24.6360 C   0  0  0  0  0  0  0  0  0  0  0  0
   -7.6200   -3.8710  -24.9510 N   0  0  0  0  0  0  0  0  0  0  0  0
   -8.4200   -3.9300  -26.4280 S   0  0  0  0  0  0  0  0  0  0  0  0
   -9.4710   -2.9160  -26.4230 O   0  0  0  0  0  0  0  0  0  0  0  0
   -7.3850   -3.9070  -27.4430 O   0  0  0  0  0  0  0  0  0  0  0  0
   -9.2160   -5.5150  -26.4770 C   0  0  0  0  0  0  0  0  0  0  0  0
  -10.3280   -5.6200  -27.4890 C   0  0  0  0  0  0  0  0  0  0  0  0
  -10.6530   -5.5930  -26.0350 C   0  0  0  0  0  0  0  0  0  0  0  0
  -11.0820   -4.6830  -25.6270 H   0  0  0  0  0  0  0  0  0  0  0  0
  -10.9650   -6.5150  -25.5580 H   0  0  0  0  0  0  0  0  0  0  0  0
  -10.5390   -4.7390  -28.0840 H   0  0  0  0  0  0  0  0  0  0  0  0
  -10.4260   -6.5570  -28.0250 H   0  0  0  0  0  0  0  0  0  0  0  0
   -8.5480   -6.3590  -26.3290 H   0  0  0  0  0  0  0  0  0  0  0  0
   -8.4050   -3.8540  -23.7010 C   0  0  0  0  0  0  0  0  0  0  0  0
   -9.4880   -3.8570  -23.8490 H   0  0  0  0  0  0  0  0  0  0  0  0
   -8.1130   -4.6810  -23.0530 H   0  0  0  0  0  0  0  0  0  0  0  0
   -5.9010   -2.6830  -24.5010 H   0  0  0  0  0  0  0  0  0  0  0  0
   -7.1750   -1.7660  -25.3530 H   0  0  0  0  0  0  0  0  0  0  0  0
  -10.1620   -0.0980  -23.5640 H   0  0  0  0  0  0  0  0  0  0  0  0
   -9.1470   -0.5780  -24.9530 H   0  0  0  0  0  0  0  0  0  0  0  0
  -10.3210   -1.7350  -24.2720 H   0  0  0  0  0  0  0  0  0  0  0  0
  1  2  1  0  0  0  0
  1 43  1  0  0  0  0
  1 44  1  0  0  0  0
  1 45  1  0  0  0  0
  2  3  1  0  0  0  0
  2 24  1  0  0  0  0
  3  4  2  0  0  0  0
  3  5  1  0  0  0  0
  5  6  1  0  0  0  0
  5 22  1  0  0  0  0
  6  7  2  0  0  0  0
  6 15  1  0  0  0  0
  7  8  1  0  0  0  0
  7 21  1  0  0  0  0
  8  9  2  0  0  0  0
  9 10  1  0  0  0  0
  9 20  1  0  0  0  0
 10 11  2  0  0  0  0
 10 15  1  0  0  0  0
 11 12  1  0  0  0  0
 11 19  1  0  0  0  0
 12 13  2  0  0  0  0
 12 18  1  0  0  0  0
 13 14  1  0  0  0  0
 13 17  1  0  0  0  0
 14 15  2  0  0  0  0
 14 16  1  0  0  0  0
 22 23  2  0  0  0  0
 22 24  1  0  0  0  0
 24 25  1  0  0  0  0
 24 38  1  0  0  0  0
 25 26  1  0  0  0  0
 25 41  1  0  0  0  0
 25 42  1  0  0  0  0
 26 27  1  0  0  0  0
 26 38  1  0  0  0  0
 27 28  2  0  0  0  0
 27 29  2  0  0  0  0
 27 30  1  0  0  0  0
 30 31  1  0  0  0  0
 30 32  1  0  0  0  0
 30 37  1  0  0  0  0
 31 32  1  0  0  0  0
 31 35  1  0  0  0  0
 31 36  1  0  0  0  0
 32 33  1  0  0  0  0
 32 34  1  0  0  0  0
 38 39  1  0  0  0  0
 38 40  1  0  0  0  0
M  END
>  <MODEL>
       1

$$$$
