tmp_first_model_2_85.pdb
 OpenBabel08272517383D

 57 62  0  0  1  0  0  0  0  0999 V2000
   -9.1960    1.0840  -29.3190 C   0  0  0  0  0  0  0  0  0  0  0  0
   -9.1290    1.3900  -27.9040 N   0  0  0  0  0  0  0  0  0  0  0  0
   -8.2690    0.6850  -27.1230 C   0  0  0  0  0  0  0  0  0  0  0  0
   -7.5370   -0.1930  -27.5570 O   0  0  0  0  0  0  0  0  0  0  0  0
   -8.2860    1.0750  -25.6460 C   0  0  0  0  0  0  0  0  0  0  0  0
   -9.1350    0.1980  -24.8760 N   0  0  0  0  0  0  0  0  0  0  0  0
   -8.6520   -1.1210  -24.5210 C   0  0  0  0  0  0  0  0  0  0  0  0
   -8.9630   -1.4880  -23.0500 C   0  0  2  0  0  0  0  0  0  0  0  0
   -8.1690   -0.5730  -22.0880 C   0  0  0  0  0  0  0  0  0  0  0  0
   -8.1950    0.6350  -22.0700 O   0  0  0  0  0  0  0  0  0  0  0  0
   -7.4150   -1.3540  -21.2310 N   0  0  0  0  0  0  0  0  0  0  0  0
   -6.6060   -0.8120  -20.2020 C   0  0  0  0  0  0  0  0  0  0  0  0
   -6.9070   -1.0660  -18.8860 C   0  0  0  0  0  0  0  0  0  0  0  0
   -6.2250   -0.5640  -17.8290 N   0  0  0  0  0  0  0  0  0  0  0  0
   -5.1940    0.2030  -18.0900 C   0  0  0  0  0  0  0  0  0  0  0  0
   -4.7450    0.5150  -19.4040 C   0  0  0  0  0  0  0  0  0  0  0  0
   -3.6120    1.3440  -19.6230 C   0  0  0  0  0  0  0  0  0  0  0  0
   -3.1860    1.6150  -20.8940 C   0  0  0  0  0  0  0  0  0  0  0  0
   -3.8660    1.0620  -22.0020 C   0  0  0  0  0  0  0  0  0  0  0  0
   -4.9630    0.2580  -21.8160 C   0  0  0  0  0  0  0  0  0  0  0  0
   -5.4510   -0.0170  -20.5050 C   0  0  0  0  0  0  0  0  0  0  0  0
   -5.4760   -0.1590  -22.6760 H   0  0  0  0  0  0  0  0  0  0  0  0
   -3.5230    1.2850  -23.0080 H   0  0  0  0  0  0  0  0  0  0  0  0
   -2.3280    2.2610  -21.0610 H   0  0  0  0  0  0  0  0  0  0  0  0
   -3.1050    1.7620  -18.7580 H   0  0  0  0  0  0  0  0  0  0  0  0
   -4.6480    0.6130  -17.2390 H   0  0  0  0  0  0  0  0  0  0  0  0
   -7.7660   -1.6880  -18.6350 H   0  0  0  0  0  0  0  0  0  0  0  0
   -7.6380   -2.7720  -21.3790 C   0  0  0  0  0  0  0  0  0  0  0  0
   -8.4790   -2.8920  -22.6440 C   0  0  0  0  0  0  0  0  0  0  0  0
   -9.3390   -4.1090  -22.8280 C   0  0  0  0  0  0  0  0  0  0  0  0
   -8.0900   -3.9480  -23.6440 C   0  0  0  0  0  0  0  0  0  0  0  0
   -7.2310   -4.5750  -23.4140 H   0  0  0  0  0  0  0  0  0  0  0  0
   -8.1800   -3.7140  -24.7010 H   0  0  0  0  0  0  0  0  0  0  0  0
   -9.3650   -4.8450  -22.0220 H   0  0  0  0  0  0  0  0  0  0  0  0
  -10.2970   -3.9660  -23.3220 H   0  0  0  0  0  0  0  0  0  0  0  0
   -6.6800   -3.2960  -21.4670 H   0  0  0  0  0  0  0  0  0  0  0  0
   -8.1750   -3.1770  -20.5160 H   0  0  0  0  0  0  0  0  0  0  0  0
  -10.4640   -1.2510  -22.9020 C   0  0  0  0  0  0  0  0  0  0  0  0
  -11.2360   -2.0190  -22.0390 C   0  0  0  0  0  0  0  0  0  0  0  0
  -12.6020   -1.8320  -21.9590 C   0  0  0  0  0  0  0  0  0  0  0  0
  -13.5110   -2.9120  -20.9310 Cl  0  0  0  0  0  0  0  0  0  0  0  0
  -13.2470   -0.7900  -22.6200 C   0  0  0  0  0  0  0  0  0  0  0  0
  -12.4730    0.0310  -23.4150 C   0  0  0  0  0  0  0  0  0  0  0  0
  -11.1210   -0.2270  -23.5980 C   0  0  0  0  0  0  0  0  0  0  0  0
  -10.4010    0.6070  -24.5940 C   0  0  0  0  0  0  0  0  0  0  0  0
  -10.8900    1.6140  -25.1020 O   0  0  0  0  0  0  0  0  0  0  0  0
  -12.8740    0.9020  -23.9150 H   0  0  0  0  0  0  0  0  0  0  0  0
  -14.3040   -0.6140  -22.4600 H   0  0  0  0  0  0  0  0  0  0  0  0
  -10.7710   -2.7520  -21.3920 H   0  0  0  0  0  0  0  0  0  0  0  0
   -7.5770   -1.1500  -24.6990 H   0  0  0  0  0  0  0  0  0  0  0  0
   -9.1320   -1.8610  -25.1700 H   0  0  0  0  0  0  0  0  0  0  0  0
   -8.6680    2.0910  -25.5190 H   0  0  0  0  0  0  0  0  0  0  0  0
   -7.2590    1.0060  -25.2660 H   0  0  0  0  0  0  0  0  0  0  0  0
   -9.8820    1.9020  -27.4640 H   0  0  0  0  0  0  0  0  0  0  0  0
   -9.4780    0.0370  -29.4810 H   0  0  0  0  0  0  0  0  0  0  0  0
   -9.9220    1.7410  -29.8050 H   0  0  0  0  0  0  0  0  0  0  0  0
   -8.2170    1.2350  -29.7810 H   0  0  0  0  0  0  0  0  0  0  0  0
  1  2  1  0  0  0  0
  1 55  1  0  0  0  0
  1 56  1  0  0  0  0
  1 57  1  0  0  0  0
  2  3  1  0  0  0  0
  2 54  1  0  0  0  0
  3  4  2  0  0  0  0
  3  5  1  0  0  0  0
  5  6  1  0  0  0  0
  5 52  1  0  0  0  0
  5 53  1  0  0  0  0
  6  7  1  0  0  0  0
  6 45  1  0  0  0  0
  7  8  1  0  0  0  0
  7 50  1  0  0  0  0
  7 51  1  0  0  0  0
  8  9  1  1  0  0  0
  8 29  1  0  0  0  0
  8 38  1  0  0  0  0
  9 10  2  0  0  0  0
  9 11  1  0  0  0  0
 11 12  1  0  0  0  0
 11 28  1  0  0  0  0
 12 13  2  0  0  0  0
 12 21  1  0  0  0  0
 13 14  1  0  0  0  0
 13 27  1  0  0  0  0
 14 15  2  0  0  0  0
 15 16  1  0  0  0  0
 15 26  1  0  0  0  0
 16 17  2  0  0  0  0
 16 21  1  0  0  0  0
 17 18  1  0  0  0  0
 17 25  1  0  0  0  0
 18 19  2  0  0  0  0
 18 24  1  0  0  0  0
 19 20  1  0  0  0  0
 19 23  1  0  0  0  0
 20 21  2  0  0  0  0
 20 22  1  0  0  0  0
 28 29  1  0  0  0  0
 28 36  1  0  0  0  0
 28 37  1  0  0  0  0
 29 30  1  0  0  0  0
 29 31  1  0  0  0  0
 30 31  1  0  0  0  0
 30 34  1  0  0  0  0
 30 35  1  0  0  0  0
 31 32  1  0  0  0  0
 31 33  1  0  0  0  0
 38 39  2  0  0  0  0
 38 44  1  0  0  0  0
 39 40  1  0  0  0  0
 39 49  1  0  0  0  0
 40 41  1  0  0  0  0
 40 42  2  0  0  0  0
 42 43  1  0  0  0  0
 42 48  1  0  0  0  0
 43 44  2  0  0  0  0
 43 47  1  0  0  0  0
 44 45  1  0  0  0  0
 45 46  2  0  0  0  0
M  END
>  <MODEL>
       1

$$$$
