tmp_first_model_1_90.pdb
 OpenBabel08272517043D

 64 68  0  0  1  0  0  0  0  0999 V2000
   -4.9810   -1.6670  -29.1250 C   0  0  0  0  0  0  0  0  0  0  0  0
   -5.2000   -1.4880  -27.7080 N   0  0  0  0  0  0  0  0  0  0  0  0
   -4.7620   -0.3540  -27.1090 C   0  0  0  0  0  0  0  0  0  0  0  0
   -3.9980    0.4350  -27.6470 O   0  0  0  0  0  0  0  0  0  0  0  0
   -5.2730    0.0070  -25.7180 C   0  0  0  0  0  0  0  0  0  0  0  0
   -6.4410   -0.6850  -25.2230 N   0  0  0  0  0  0  0  0  0  0  0  0
   -6.2970   -1.7580  -24.2590 C   0  0  0  0  0  0  0  0  0  0  0  0
   -7.5000   -1.8710  -23.2710 C   0  0  2  0  0  0  0  0  0  0  0  0
   -7.2980   -0.9360  -22.0670 C   0  0  0  0  0  0  0  0  0  0  0  0
   -7.7060    0.1900  -21.9040 O   0  0  0  0  0  0  0  0  0  0  0  0
   -6.5420   -1.6340  -21.1480 N   0  0  0  0  0  0  0  0  0  0  0  0
   -6.0050   -0.9710  -20.0310 C   0  0  0  0  0  0  0  0  0  0  0  0
   -6.4710   -1.2380  -18.7700 C   0  0  0  0  0  0  0  0  0  0  0  0
   -6.0220   -0.6340  -17.6450 N   0  0  0  0  0  0  0  0  0  0  0  0
   -5.0660    0.2550  -17.7830 C   0  0  0  0  0  0  0  0  0  0  0  0
   -4.4690    0.5960  -19.0300 C   0  0  0  0  0  0  0  0  0  0  0  0
   -3.3870    1.5140  -19.1200 C   0  0  0  0  0  0  0  0  0  0  0  0
   -2.8780    1.8720  -20.3380 C   0  0  0  0  0  0  0  0  0  0  0  0
   -3.4450    1.3530  -21.5260 C   0  0  0  0  0  0  0  0  0  0  0  0
   -4.4750    0.4490  -21.4620 C   0  0  0  0  0  0  0  0  0  0  0  0
   -4.9940    0.0220  -20.2050 C   0  0  0  0  0  0  0  0  0  0  0  0
   -4.9230    0.0890  -22.3830 H   0  0  0  0  0  0  0  0  0  0  0  0
   -3.0670    1.6740  -22.4940 H   0  0  0  0  0  0  0  0  0  0  0  0
   -2.0550    2.5790  -20.4070 H   0  0  0  0  0  0  0  0  0  0  0  0
   -2.9830    1.9270  -18.2010 H   0  0  0  0  0  0  0  0  0  0  0  0
   -4.7180    0.7540  -16.8790 H   0  0  0  0  0  0  0  0  0  0  0  0
   -7.2690   -1.9680  -18.6460 H   0  0  0  0  0  0  0  0  0  0  0  0
   -6.3550   -3.0340  -21.4880 C   0  0  0  0  0  0  0  0  0  0  0  0
   -7.4500   -3.2390  -22.5470 C   0  0  2  0  0  0  0  0  0  0  0  0
   -7.3010   -4.4110  -23.5060 C   0  0  0  0  0  0  0  0  0  0  0  0
   -7.7600   -5.9710  -22.8030 S   0  0  0  0  0  0  0  0  0  0  0  0
   -8.8020   -5.7920  -21.8060 O   0  0  0  0  0  0  0  0  0  0  0  0
   -7.9410   -6.9220  -23.8880 O   0  0  0  0  0  0  0  0  0  0  0  0
   -6.3160   -6.3370  -22.0250 N   0  0  0  0  0  0  0  0  0  0  0  0
   -6.2490   -7.7630  -21.7200 C   0  0  0  0  0  0  0  0  0  0  0  0
   -7.0020   -8.0090  -20.9680 H   0  0  0  0  0  0  0  0  0  0  0  0
   -5.2450   -8.0050  -21.3710 H   0  0  0  0  0  0  0  0  0  0  0  0
   -6.4500   -8.3240  -22.6340 H   0  0  0  0  0  0  0  0  0  0  0  0
   -6.2700   -5.7650  -21.1840 H   0  0  0  0  0  0  0  0  0  0  0  0
   -7.9210   -4.2830  -24.3990 H   0  0  0  0  0  0  0  0  0  0  0  0
   -6.2680   -4.5640  -23.8260 H   0  0  0  0  0  0  0  0  0  0  0  0
   -8.3900   -3.3540  -22.0040 H   0  0  0  0  0  0  0  0  0  0  0  0
   -5.3570   -3.2170  -21.9150 H   0  0  0  0  0  0  0  0  0  0  0  0
   -6.4590   -3.6540  -20.5950 H   0  0  0  0  0  0  0  0  0  0  0  0
   -8.8060   -1.5730  -23.9400 C   0  0  0  0  0  0  0  0  0  0  0  0
  -10.0050   -1.9230  -23.3110 C   0  0  0  0  0  0  0  0  0  0  0  0
  -11.2040   -1.5430  -23.8680 C   0  0  0  0  0  0  0  0  0  0  0  0
  -12.3280   -1.9150  -23.2340 F   0  0  0  0  0  0  0  0  0  0  0  0
  -11.2750   -0.7880  -25.0290 C   0  0  0  0  0  0  0  0  0  0  0  0
  -10.0950   -0.4920  -25.6710 C   0  0  0  0  0  0  0  0  0  0  0  0
   -8.8660   -0.8430  -25.1250 C   0  0  0  0  0  0  0  0  0  0  0  0
   -7.6350   -0.3290  -25.7950 C   0  0  0  0  0  0  0  0  0  0  0  0
   -7.6690    0.3960  -26.7820 O   0  0  0  0  0  0  0  0  0  0  0  0
  -10.0820    0.0190  -26.6150 H   0  0  0  0  0  0  0  0  0  0  0  0
  -12.2090   -0.4000  -25.4160 H   0  0  0  0  0  0  0  0  0  0  0  0
  -10.0350   -2.4600  -22.3750 H   0  0  0  0  0  0  0  0  0  0  0  0
   -5.3750   -1.5890  -23.6810 H   0  0  0  0  0  0  0  0  0  0  0  0
   -6.1580   -2.7070  -24.7980 H   0  0  0  0  0  0  0  0  0  0  0  0
   -4.4470   -0.1110  -25.0070 H   0  0  0  0  0  0  0  0  0  0  0  0
   -5.5050    1.0750  -25.7820 H   0  0  0  0  0  0  0  0  0  0  0  0
   -5.8460   -2.0930  -27.2250 H   0  0  0  0  0  0  0  0  0  0  0  0
   -4.4440   -0.7860  -29.4750 H   0  0  0  0  0  0  0  0  0  0  0  0
   -4.3720   -2.5510  -29.3330 H   0  0  0  0  0  0  0  0  0  0  0  0
   -5.9290   -1.7380  -29.6670 H   0  0  0  0  0  0  0  0  0  0  0  0
  1  2  1  0  0  0  0
  1 62  1  0  0  0  0
  1 63  1  0  0  0  0
  1 64  1  0  0  0  0
  2  3  1  0  0  0  0
  2 61  1  0  0  0  0
  3  4  2  0  0  0  0
  3  5  1  0  0  0  0
  5  6  1  0  0  0  0
  5 59  1  0  0  0  0
  5 60  1  0  0  0  0
  6  7  1  0  0  0  0
  6 52  1  0  0  0  0
  7  8  1  0  0  0  0
  7 57  1  0  0  0  0
  7 58  1  0  0  0  0
  8  9  1  1  0  0  0
  8 29  1  0  0  0  0
  8 45  1  0  0  0  0
  9 10  2  0  0  0  0
  9 11  1  0  0  0  0
 11 12  1  0  0  0  0
 11 28  1  0  0  0  0
 12 13  2  0  0  0  0
 12 21  1  0  0  0  0
 13 14  1  0  0  0  0
 13 27  1  0  0  0  0
 14 15  2  0  0  0  0
 15 16  1  0  0  0  0
 15 26  1  0  0  0  0
 16 17  2  0  0  0  0
 16 21  1  0  0  0  0
 17 18  1  0  0  0  0
 17 25  1  0  0  0  0
 18 19  2  0  0  0  0
 18 24  1  0  0  0  0
 19 20  1  0  0  0  0
 19 23  1  0  0  0  0
 20 21  2  0  0  0  0
 20 22  1  0  0  0  0
 28 29  1  0  0  0  0
 28 43  1  0  0  0  0
 28 44  1  0  0  0  0
 29 30  1  0  0  0  0
 29 42  1  1  0  0  0
 30 31  1  0  0  0  0
 30 40  1  0  0  0  0
 30 41  1  0  0  0  0
 31 32  2  0  0  0  0
 31 33  2  0  0  0  0
 31 34  1  0  0  0  0
 34 35  1  0  0  0  0
 34 39  1  0  0  0  0
 35 36  1  0  0  0  0
 35 37  1  0  0  0  0
 35 38  1  0  0  0  0
 45 46  2  0  0  0  0
 45 51  1  0  0  0  0
 46 47  1  0  0  0  0
 46 56  1  0  0  0  0
 47 48  1  0  0  0  0
 47 49  2  0  0  0  0
 49 50  1  0  0  0  0
 49 55  1  0  0  0  0
 50 51  2  0  0  0  0
 50 54  1  0  0  0  0
 51 52  1  0  0  0  0
 52 53  2  0  0  0  0
M  END
>  <MODEL>
       1

$$$$
