tmp_first_model_2_60.pdb
 OpenBabel08272517383D

 62 67  0  0  1  0  0  0  0  0999 V2000
  -11.5890    2.5020  -21.8400 C   0  0  0  0  0  0  0  0  0  0  0  0
  -10.7390    3.3530  -22.7870 C   0  0  0  0  0  0  0  0  0  0  0  0
   -9.3590    2.9230  -23.0040 N   0  0  0  0  0  0  0  0  0  0  0  0
   -7.1230    2.9810  -22.9670 N   0  0  0  0  0  0  0  0  0  0  0  0
   -8.2230    3.4660  -22.4470 C   0  0  0  0  0  0  0  0  0  0  0  0
   -7.5570    2.1050  -23.9270 C   0  0  0  0  0  0  0  0  0  0  0  0
   -8.9250    2.0530  -23.9850 C   0  0  0  0  0  0  0  0  0  0  0  0
   -9.8410    1.2620  -24.8600 C   0  0  0  0  0  0  0  0  0  0  0  0
  -10.2500    0.0140  -24.2270 N   0  0  0  0  0  0  0  0  0  0  0  0
   -9.2540   -1.0270  -24.0490 C   0  0  0  0  0  0  0  0  0  0  0  0
   -9.3820   -1.7750  -22.7020 C   0  0  2  0  0  0  0  0  0  0  0  0
   -8.8280   -0.8910  -21.5390 C   0  0  0  0  0  0  0  0  0  0  0  0
   -9.4010    0.0180  -20.9820 O   0  0  0  0  0  0  0  0  0  0  0  0
   -7.5400   -1.3010  -21.2490 N   0  0  0  0  0  0  0  0  0  0  0  0
   -6.7640   -0.7530  -20.1930 C   0  0  0  0  0  0  0  0  0  0  0  0
   -7.0980   -0.9840  -18.8800 C   0  0  0  0  0  0  0  0  0  0  0  0
   -6.3770   -0.5440  -17.8160 N   0  0  0  0  0  0  0  0  0  0  0  0
   -5.3050    0.1700  -18.0600 C   0  0  0  0  0  0  0  0  0  0  0  0
   -4.8520    0.5020  -19.3670 C   0  0  0  0  0  0  0  0  0  0  0  0
   -3.7020    1.3100  -19.5820 C   0  0  0  0  0  0  0  0  0  0  0  0
   -3.2800    1.5900  -20.8530 C   0  0  0  0  0  0  0  0  0  0  0  0
   -3.9710    1.0520  -21.9630 C   0  0  0  0  0  0  0  0  0  0  0  0
   -5.0780    0.2590  -21.7770 C   0  0  0  0  0  0  0  0  0  0  0  0
   -5.5740   -0.0050  -20.4720 C   0  0  0  0  0  0  0  0  0  0  0  0
   -5.5760   -0.1740  -22.6400 H   0  0  0  0  0  0  0  0  0  0  0  0
   -3.6220    1.2600  -22.9720 H   0  0  0  0  0  0  0  0  0  0  0  0
   -2.4130    2.2250  -21.0210 H   0  0  0  0  0  0  0  0  0  0  0  0
   -3.1690    1.6900  -18.7130 H   0  0  0  0  0  0  0  0  0  0  0  0
   -4.7270    0.5230  -17.2030 H   0  0  0  0  0  0  0  0  0  0  0  0
   -7.9830   -1.5660  -18.6370 H   0  0  0  0  0  0  0  0  0  0  0  0
   -7.0900   -2.4080  -22.0700 C   0  0  0  0  0  0  0  0  0  0  0  0
   -8.3910   -2.9810  -22.6550 C   0  0  2  0  0  0  0  0  0  0  0  0
   -8.1510   -3.7140  -23.9720 C   0  0  0  0  0  0  0  0  0  0  0  0
   -7.6350   -3.0620  -24.6880 H   0  0  0  0  0  0  0  0  0  0  0  0
   -9.0860   -4.0470  -24.4370 H   0  0  0  0  0  0  0  0  0  0  0  0
   -7.5140   -4.5900  -23.8180 H   0  0  0  0  0  0  0  0  0  0  0  0
   -8.7790   -3.6930  -21.9230 H   0  0  0  0  0  0  0  0  0  0  0  0
   -6.5390   -3.1350  -21.4680 H   0  0  0  0  0  0  0  0  0  0  0  0
   -6.4300   -2.0860  -22.8900 H   0  0  0  0  0  0  0  0  0  0  0  0
  -10.8550   -2.1250  -22.5240 C   0  0  0  0  0  0  0  0  0  0  0  0
  -11.2540   -3.1930  -21.7160 C   0  0  0  0  0  0  0  0  0  0  0  0
  -12.5830   -3.3330  -21.3740 C   0  0  0  0  0  0  0  0  0  0  0  0
  -12.9160   -4.2750  -20.4810 F   0  0  0  0  0  0  0  0  0  0  0  0
  -13.5940   -2.5150  -21.8560 C   0  0  0  0  0  0  0  0  0  0  0  0
  -13.2260   -1.5130  -22.7280 C   0  0  0  0  0  0  0  0  0  0  0  0
  -11.8820   -1.3260  -23.0620 C   0  0  0  0  0  0  0  0  0  0  0  0
  -11.5720   -0.1960  -23.9890 C   0  0  0  0  0  0  0  0  0  0  0  0
  -12.4520    0.5310  -24.4380 O   0  0  0  0  0  0  0  0  0  0  0  0
  -13.9580   -0.8310  -23.1500 H   0  0  0  0  0  0  0  0  0  0  0  0
  -14.6170   -2.6720  -21.5290 H   0  0  0  0  0  0  0  0  0  0  0  0
  -10.5540   -3.9080  -21.3000 H   0  0  0  0  0  0  0  0  0  0  0  0
   -8.2670   -0.5640  -24.1230 H   0  0  0  0  0  0  0  0  0  0  0  0
   -9.3530   -1.7610  -24.8560 H   0  0  0  0  0  0  0  0  0  0  0  0
  -10.7710    1.7920  -25.0950 H   0  0  0  0  0  0  0  0  0  0  0  0
   -9.3430    1.0350  -25.8120 H   0  0  0  0  0  0  0  0  0  0  0  0
   -6.8570    1.5480  -24.5250 H   0  0  0  0  0  0  0  0  0  0  0  0
   -8.2490    4.1940  -21.6460 H   0  0  0  0  0  0  0  0  0  0  0  0
  -11.2460    3.3900  -23.7650 H   0  0  0  0  0  0  0  0  0  0  0  0
  -10.6850    4.3790  -22.4050 H   0  0  0  0  0  0  0  0  0  0  0  0
  -11.1310    2.3110  -20.8680 H   0  0  0  0  0  0  0  0  0  0  0  0
  -12.5100    3.0630  -21.6620 H   0  0  0  0  0  0  0  0  0  0  0  0
  -11.8480    1.5370  -22.2780 H   0  0  0  0  0  0  0  0  0  0  0  0
  1  2  1  0  0  0  0
  1 60  1  0  0  0  0
  1 61  1  0  0  0  0
  1 62  1  0  0  0  0
  2  3  1  0  0  0  0
  2 58  1  0  0  0  0
  2 59  1  0  0  0  0
  3  4  1  0  0  0  0
  3  7  1  0  0  0  0
  4  5  2  0  0  0  0
  5  6  1  0  0  0  0
  5 57  1  0  0  0  0
  6  7  2  0  0  0  0
  6 56  1  0  0  0  0
  7  8  1  0  0  0  0
  8  9  1  0  0  0  0
  8 54  1  0  0  0  0
  8 55  1  0  0  0  0
  9 10  1  0  0  0  0
  9 47  1  0  0  0  0
 10 11  1  0  0  0  0
 10 52  1  0  0  0  0
 10 53  1  0  0  0  0
 11 12  1  1  0  0  0
 11 32  1  0  0  0  0
 11 40  1  0  0  0  0
 12 13  2  0  0  0  0
 12 14  1  0  0  0  0
 14 15  1  0  0  0  0
 14 31  1  0  0  0  0
 15 16  2  0  0  0  0
 15 24  1  0  0  0  0
 16 17  1  0  0  0  0
 16 30  1  0  0  0  0
 17 18  2  0  0  0  0
 18 19  1  0  0  0  0
 18 29  1  0  0  0  0
 19 20  2  0  0  0  0
 19 24  1  0  0  0  0
 20 21  1  0  0  0  0
 20 28  1  0  0  0  0
 21 22  2  0  0  0  0
 21 27  1  0  0  0  0
 22 23  1  0  0  0  0
 22 26  1  0  0  0  0
 23 24  2  0  0  0  0
 23 25  1  0  0  0  0
 31 32  1  0  0  0  0
 31 38  1  0  0  0  0
 31 39  1  0  0  0  0
 32 33  1  0  0  0  0
 32 37  1  1  0  0  0
 33 34  1  0  0  0  0
 33 35  1  0  0  0  0
 33 36  1  0  0  0  0
 40 41  2  0  0  0  0
 40 46  1  0  0  0  0
 41 42  1  0  0  0  0
 41 51  1  0  0  0  0
 42 43  1  0  0  0  0
 42 44  2  0  0  0  0
 44 45  1  0  0  0  0
 44 50  1  0  0  0  0
 45 46  2  0  0  0  0
 45 49  1  0  0  0  0
 46 47  1  0  0  0  0
 47 48  2  0  0  0  0
M  END
>  <MODEL>
       1

$$$$
