tmp_first_model_7_18.pdb
 OpenBabel08272520323D

 56 61  0  0  1  0  0  0  0  0999 V2000
  -10.2170   -2.9460  -22.0470 C   0  0  0  0  0  0  0  0  0  0  0  0
   -9.1670   -1.9960  -22.6460 C   0  0  1  0  0  0  0  0  0  0  0  0
   -8.7070   -0.9660  -21.5900 C   0  0  0  0  0  0  0  0  0  0  0  0
   -7.3940   -1.4200  -21.1950 N   0  0  0  0  0  0  0  0  0  0  0  0
   -6.6090   -0.8140  -20.1840 C   0  0  0  0  0  0  0  0  0  0  0  0
   -6.9280   -1.0210  -18.8680 C   0  0  0  0  0  0  0  0  0  0  0  0
   -6.2270   -0.5250  -17.8220 N   0  0  0  0  0  0  0  0  0  0  0  0
   -5.1790    0.2130  -18.0940 C   0  0  0  0  0  0  0  0  0  0  0  0
   -4.7430    0.5190  -19.4130 C   0  0  0  0  0  0  0  0  0  0  0  0
   -3.6100    1.3410  -19.6420 C   0  0  0  0  0  0  0  0  0  0  0  0
   -3.2330    1.6620  -20.9160 C   0  0  0  0  0  0  0  0  0  0  0  0
   -3.9690    1.1680  -22.0170 C   0  0  0  0  0  0  0  0  0  0  0  0
   -5.0600    0.3570  -21.8250 C   0  0  0  0  0  0  0  0  0  0  0  0
   -5.4760    0.0040  -20.5060 C   0  0  0  0  0  0  0  0  0  0  0  0
   -5.6070   -0.0250  -22.6880 H   0  0  0  0  0  0  0  0  0  0  0  0
   -3.6680    1.4410  -23.0240 H   0  0  0  0  0  0  0  0  0  0  0  0
   -2.3800    2.3130  -21.0870 H   0  0  0  0  0  0  0  0  0  0  0  0
   -3.0720    1.7280  -18.7810 H   0  0  0  0  0  0  0  0  0  0  0  0
   -4.6160    0.6120  -17.2490 H   0  0  0  0  0  0  0  0  0  0  0  0
   -7.7870   -1.6420  -18.6160 H   0  0  0  0  0  0  0  0  0  0  0  0
   -6.8520   -2.3730  -22.0210 C   0  0  0  0  0  0  0  0  0  0  0  0
   -5.7510   -2.8540  -21.8640 O   0  0  0  0  0  0  0  0  0  0  0  0
   -7.8520   -2.6850  -23.1550 C   0  0  1  0  0  0  0  0  0  0  0  0
   -8.0070   -4.2170  -23.3530 C   0  0  0  0  0  0  0  0  0  0  0  0
   -6.8280   -4.8470  -23.9390 N   0  0  0  0  0  0  0  0  0  0  0  0
   -6.4190   -6.1840  -23.4940 C   0  0  0  0  0  0  0  0  0  0  0  0
   -5.3510   -6.1450  -22.4930 C   0  0  0  0  0  0  0  0  0  0  0  0
   -3.8410   -6.2630  -22.8330 C   0  0  0  0  0  0  0  0  0  0  0  0
   -3.9990   -6.1270  -23.0280 C   0  0  0  0  0  0  0  0  0  0  0  0
   -4.8060   -5.8430  -20.4070 N   0  0  0  0  0  0  0  0  0  0  0  0
   -5.7830   -5.9870  -21.2010 N   0  0  0  0  0  0  0  0  0  0  0  0
   -5.2060   -5.6400  -19.4820 H   0  0  0  0  0  0  0  0  0  0  0  0
   -1.7300   -5.3870  -23.6070 H   0  0  0  0  0  0  0  0  0  0  0  0
   -3.0190   -5.6710  -23.4530 H   0  0  0  0  0  0  0  0  0  0  0  0
   -7.2910   -6.6750  -23.0510 H   0  0  0  0  0  0  0  0  0  0  0  0
   -6.1020   -6.7490  -24.3730 H   0  0  0  0  0  0  0  0  0  0  0  0
   -6.2340   -4.3150  -25.0510 C   0  0  0  0  0  0  0  0  0  0  0  0
   -5.4830   -4.9660  -25.7640 O   0  0  0  0  0  0  0  0  0  0  0  0
   -6.5690   -2.8730  -25.3490 C   0  0  0  0  0  0  0  0  0  0  0  0
   -6.0600   -2.3300  -26.5300 C   0  0  0  0  0  0  0  0  0  0  0  0
   -6.2840   -1.0070  -26.8570 C   0  0  0  0  0  0  0  0  0  0  0  0
   -7.0100   -0.2340  -25.9610 C   0  0  0  0  0  0  0  0  0  0  0  0
   -7.2410    1.0540  -26.2710 F   0  0  0  0  0  0  0  0  0  0  0  0
   -7.5180   -0.7390  -24.7780 C   0  0  0  0  0  0  0  0  0  0  0  0
   -7.3280   -2.0930  -24.4650 C   0  0  0  0  0  0  0  0  0  0  0  0
   -8.0790   -0.0640  -24.1390 H   0  0  0  0  0  0  0  0  0  0  0  0
   -5.9190   -0.5690  -27.7790 H   0  0  0  0  0  0  0  0  0  0  0  0
   -5.4770   -2.9760  -27.1750 H   0  0  0  0  0  0  0  0  0  0  0  0
   -8.8710   -4.3880  -24.0100 H   0  0  0  0  0  0  0  0  0  0  0  0
   -8.2150   -4.6970  -22.3960 H   0  0  0  0  0  0  0  0  0  0  0  0
   -9.3760   -0.9490  -20.7330 H   0  0  0  0  0  0  0  0  0  0  0  0
   -8.6720    0.0590  -21.9840 H   0  0  0  0  0  0  0  0  0  0  0  0
   -9.6530   -1.4860  -23.4850 H   0  0  0  0  0  0  0  0  0  0  0  0
  -11.0790   -2.3770  -21.6810 H   0  0  0  0  0  0  0  0  0  0  0  0
   -9.8160   -3.5170  -21.2020 H   0  0  0  0  0  0  0  0  0  0  0  0
  -10.5920   -3.6520  -22.7930 H   0  0  0  0  0  0  0  0  0  0  0  0
  1  2  1  0  0  0  0
  1 54  1  0  0  0  0
  1 55  1  0  0  0  0
  1 56  1  0  0  0  0
  2  3  1  0  0  0  0
  2 23  1  0  0  0  0
  2 53  1  6  0  0  0
  3  4  1  0  0  0  0
  3 51  1  0  0  0  0
  3 52  1  0  0  0  0
  4  5  1  0  0  0  0
  4 21  1  0  0  0  0
  5  6  2  0  0  0  0
  5 14  1  0  0  0  0
  6  7  1  0  0  0  0
  6 20  1  0  0  0  0
  7  8  2  0  0  0  0
  8  9  1  0  0  0  0
  8 19  1  0  0  0  0
  9 10  2  0  0  0  0
  9 14  1  0  0  0  0
 10 11  1  0  0  0  0
 10 18  1  0  0  0  0
 11 12  2  0  0  0  0
 11 17  1  0  0  0  0
 12 13  1  0  0  0  0
 12 16  1  0  0  0  0
 13 14  2  0  0  0  0
 13 15  1  0  0  0  0
 21 22  2  0  0  0  0
 23 21  1  1  0  0  0
 23 24  1  0  0  0  0
 23 45  1  0  0  0  0
 24 25  1  0  0  0  0
 24 49  1  0  0  0  0
 24 50  1  0  0  0  0
 25 26  1  0  0  0  0
 25 37  1  0  0  0  0
 26 27  1  0  0  0  0
 26 35  1  0  0  0  0
 26 36  1  0  0  0  0
 27 28  1  0  0  0  0
 27 31  2  0  0  0  0
 28 29  2  0  0  0  0
 28 34  1  0  0  0  0
 29 30  1  0  0  0  0
 29 33  1  0  0  0  0
 30 31  1  0  0  0  0
 30 32  1  0  0  0  0
 37 38  2  0  0  0  0
 37 39  1  0  0  0  0
 39 40  2  0  0  0  0
 39 45  1  0  0  0  0
 40 41  1  0  0  0  0
 40 48  1  0  0  0  0
 41 42  2  0  0  0  0
 41 47  1  0  0  0  0
 42 43  1  0  0  0  0
 42 44  1  0  0  0  0
 44 45  2  0  0  0  0
 44 46  1  0  0  0  0
M  END
>  <MODEL>
       1

$$$$
