tmp_first_model_5_2.pdb
 OpenBabel08272519223D

 60 65  0  0  1  0  0  0  0  0999 V2000
   -6.3330    1.0790  -30.6320 C   0  0  0  0  0  0  0  0  0  0  0  0
   -6.7090    1.2120  -29.1830 C   0  0  0  0  0  0  0  0  0  0  0  0
   -6.0540    0.4750  -28.1920 C   0  0  0  0  0  0  0  0  0  0  0  0
   -6.3520    0.5880  -26.8990 N   0  0  0  0  0  0  0  0  0  0  0  0
   -7.3420    1.4310  -26.5810 C   0  0  0  0  0  0  0  0  0  0  0  0
   -7.7070    1.5820  -25.1200 C   0  0  0  0  0  0  0  0  0  0  0  0
   -8.6260    0.5750  -24.6090 N   0  0  0  0  0  0  0  0  0  0  0  0
   -8.1440   -0.7710  -24.3630 C   0  0  0  0  0  0  0  0  0  0  0  0
   -8.8040   -1.3900  -23.1020 C   0  0  2  0  0  0  0  0  0  0  0  0
   -8.2930   -0.6550  -21.8410 C   0  0  0  0  0  0  0  0  0  0  0  0
   -8.5500    0.4800  -21.5000 O   0  0  0  0  0  0  0  0  0  0  0  0
   -7.4360   -1.4930  -21.1550 N   0  0  0  0  0  0  0  0  0  0  0  0
   -6.5510   -0.9830  -20.1650 C   0  0  0  0  0  0  0  0  0  0  0  0
   -6.8050   -1.2060  -18.8340 C   0  0  0  0  0  0  0  0  0  0  0  0
   -5.8970   -0.9960  -17.8480 N   0  0  0  0  0  0  0  0  0  0  0  0
   -4.7420   -0.4790  -18.1910 C   0  0  0  0  0  0  0  0  0  0  0  0
   -4.4240   -0.0390  -19.5090 C   0  0  0  0  0  0  0  0  0  0  0  0
   -3.2530    0.7230  -19.7890 C   0  0  0  0  0  0  0  0  0  0  0  0
   -3.1340    1.3960  -20.9740 C   0  0  0  0  0  0  0  0  0  0  0  0
   -4.0680    1.1690  -22.0170 C   0  0  0  0  0  0  0  0  0  0  0  0
   -5.1270    0.3160  -21.8240 C   0  0  0  0  0  0  0  0  0  0  0  0
   -5.3730   -0.2530  -20.5300 C   0  0  0  0  0  0  0  0  0  0  0  0
   -5.7700    0.0700  -22.6670 H   0  0  0  0  0  0  0  0  0  0  0  0
   -3.9310    1.6730  -22.9750 H   0  0  0  0  0  0  0  0  0  0  0  0
   -2.2540    2.0030  -21.1670 H   0  0  0  0  0  0  0  0  0  0  0  0
   -2.5070    0.8340  -19.0110 H   0  0  0  0  0  0  0  0  0  0  0  0
   -3.9960   -0.3680  -17.4040 H   0  0  0  0  0  0  0  0  0  0  0  0
   -7.7630   -1.6170  -18.5120 H   0  0  0  0  0  0  0  0  0  0  0  0
   -7.1420   -2.7280  -21.8610 C   0  0  0  0  0  0  0  0  0  0  0  0
   -8.3220   -2.8480  -22.8320 C   0  0  2  0  0  0  0  0  0  0  0  0
   -8.0400   -3.7300  -24.0420 C   0  0  0  0  0  0  0  0  0  0  0  0
   -7.1930   -3.3550  -24.6280 H   0  0  0  0  0  0  0  0  0  0  0  0
   -8.9100   -3.7830  -24.7030 H   0  0  0  0  0  0  0  0  0  0  0  0
   -7.7940   -4.7520  -23.7300 H   0  0  0  0  0  0  0  0  0  0  0  0
   -9.1160   -3.3190  -22.2520 H   0  0  0  0  0  0  0  0  0  0  0  0
   -6.1710   -2.6820  -22.3800 H   0  0  0  0  0  0  0  0  0  0  0  0
   -7.0980   -3.5710  -21.1620 H   0  0  0  0  0  0  0  0  0  0  0  0
  -10.3080   -1.2450  -23.2660 C   0  0  0  0  0  0  0  0  0  0  0  0
  -11.2010   -2.1000  -22.6040 C   0  0  0  0  0  0  0  0  0  0  0  0
  -12.5430   -2.0560  -22.9130 C   0  0  0  0  0  0  0  0  0  0  0  0
  -13.3660   -2.9380  -22.3220 F   0  0  0  0  0  0  0  0  0  0  0  0
  -13.0780   -1.1280  -23.7970 C   0  0  0  0  0  0  0  0  0  0  0  0
  -12.2180   -0.1950  -24.3350 C   0  0  0  0  0  0  0  0  0  0  0  0
  -10.8470   -0.2400  -24.0860 C   0  0  0  0  0  0  0  0  0  0  0  0
   -9.9700    0.7990  -24.7300 C   0  0  0  0  0  0  0  0  0  0  0  0
  -10.4180    1.7710  -25.3260 O   0  0  0  0  0  0  0  0  0  0  0  0
  -12.5930    0.6060  -24.9570 H   0  0  0  0  0  0  0  0  0  0  0  0
  -14.1380   -1.1340  -24.0290 H   0  0  0  0  0  0  0  0  0  0  0  0
  -10.8970   -2.7990  -21.8320 H   0  0  0  0  0  0  0  0  0  0  0  0
   -7.0550   -0.7360  -24.2640 H   0  0  0  0  0  0  0  0  0  0  0  0
   -8.3810   -1.3960  -25.2360 H   0  0  0  0  0  0  0  0  0  0  0  0
   -6.7910    1.5290  -24.5200 H   0  0  0  0  0  0  0  0  0  0  0  0
   -8.1810    2.5530  -24.9570 H   0  0  0  0  0  0  0  0  0  0  0  0
   -8.0050    2.1540  -27.5680 C   0  0  0  0  0  0  0  0  0  0  0  0
   -7.6900    2.0570  -28.8620 N   0  0  0  0  0  0  0  0  0  0  0  0
   -8.8090    2.8390  -27.3020 H   0  0  0  0  0  0  0  0  0  0  0  0
   -5.2710   -0.2330  -28.4600 H   0  0  0  0  0  0  0  0  0  0  0  0
   -6.4960    0.0610  -31.0010 H   0  0  0  0  0  0  0  0  0  0  0  0
   -6.9260    1.7630  -31.2410 H   0  0  0  0  0  0  0  0  0  0  0  0
   -5.2730    1.3050  -30.7900 H   0  0  0  0  0  0  0  0  0  0  0  0
  1  2  1  0  0  0  0
  1 58  1  0  0  0  0
  1 59  1  0  0  0  0
  1 60  1  0  0  0  0
  2  3  2  0  0  0  0
  2 55  1  0  0  0  0
  3  4  1  0  0  0  0
  3 57  1  0  0  0  0
  4  5  2  0  0  0  0
  5  6  1  0  0  0  0
  5 54  1  0  0  0  0
  6  7  1  0  0  0  0
  6 52  1  0  0  0  0
  6 53  1  0  0  0  0
  7  8  1  0  0  0  0
  7 45  1  0  0  0  0
  8  9  1  0  0  0  0
  8 50  1  0  0  0  0
  8 51  1  0  0  0  0
  9 10  1  1  0  0  0
  9 30  1  0  0  0  0
  9 38  1  0  0  0  0
 10 11  2  0  0  0  0
 10 12  1  0  0  0  0
 12 13  1  0  0  0  0
 12 29  1  0  0  0  0
 13 14  2  0  0  0  0
 13 22  1  0  0  0  0
 14 15  1  0  0  0  0
 14 28  1  0  0  0  0
 15 16  2  0  0  0  0
 16 17  1  0  0  0  0
 16 27  1  0  0  0  0
 17 18  2  0  0  0  0
 17 22  1  0  0  0  0
 18 19  1  0  0  0  0
 18 26  1  0  0  0  0
 19 20  2  0  0  0  0
 19 25  1  0  0  0  0
 20 21  1  0  0  0  0
 20 24  1  0  0  0  0
 21 22  2  0  0  0  0
 21 23  1  0  0  0  0
 29 30  1  0  0  0  0
 29 36  1  0  0  0  0
 29 37  1  0  0  0  0
 30 31  1  0  0  0  0
 30 35  1  1  0  0  0
 31 32  1  0  0  0  0
 31 33  1  0  0  0  0
 31 34  1  0  0  0  0
 38 39  2  0  0  0  0
 38 44  1  0  0  0  0
 39 40  1  0  0  0  0
 39 49  1  0  0  0  0
 40 41  1  0  0  0  0
 40 42  2  0  0  0  0
 42 43  1  0  0  0  0
 42 48  1  0  0  0  0
 43 44  2  0  0  0  0
 43 47  1  0  0  0  0
 44 45  1  0  0  0  0
 45 46  2  0  0  0  0
 54 55  2  0  0  0  0
 54 56  1  0  0  0  0
M  END
>  <MODEL>
       1

$$$$
