tmp_first_model_17_38.pdb
 OpenBabel08282502223D

 46 48  0  0  1  0  0  0  0  0999 V2000
   -8.1440   -4.7050  -26.5290 C   0  0  0  0  0  0  0  0  0  0  0  0
   -8.6490   -4.9640  -25.1120 C   0  0  1  0  0  0  0  0  0  0  0  0
   -7.5880   -5.5280  -24.1770 C   0  0  0  0  0  0  0  0  0  0  0  0
   -6.6140   -4.5190  -23.5530 C   0  0  1  0  0  0  0  0  0  0  0  0
   -5.4110   -4.1600  -24.4400 C   0  0  0  0  0  0  0  0  0  0  0  0
   -4.6080   -3.7380  -23.8290 H   0  0  0  0  0  0  0  0  0  0  0  0
   -5.6630   -3.4320  -25.2140 H   0  0  0  0  0  0  0  0  0  0  0  0
   -5.0160   -5.0550  -24.9380 H   0  0  0  0  0  0  0  0  0  0  0  0
   -7.3230   -3.3370  -23.0150 N   0  0  0  0  0  0  0  0  0  0  0  0
   -6.7240   -2.7040  -21.9360 C   0  0  0  0  0  0  0  0  0  0  0  0
   -5.6750   -3.1190  -21.4680 O   0  0  0  0  0  0  0  0  0  0  0  0
   -7.4080   -1.4710  -21.2800 C   0  0  0  0  0  0  0  0  0  0  0  0
   -6.5780   -0.8360  -20.1840 C   0  0  0  0  0  0  0  0  0  0  0  0
   -6.8730   -1.0480  -18.8620 C   0  0  0  0  0  0  0  0  0  0  0  0
   -6.1920   -0.5390  -17.7970 N   0  0  0  0  0  0  0  0  0  0  0  0
   -5.1590    0.2200  -18.0650 C   0  0  0  0  0  0  0  0  0  0  0  0
   -4.7220    0.5300  -19.3800 C   0  0  0  0  0  0  0  0  0  0  0  0
   -3.5960    1.3590  -19.6220 C   0  0  0  0  0  0  0  0  0  0  0  0
   -3.2010    1.6410  -20.9000 C   0  0  0  0  0  0  0  0  0  0  0  0
   -3.9140    1.1000  -21.9930 C   0  0  0  0  0  0  0  0  0  0  0  0
   -5.0040    0.2910  -21.7860 C   0  0  0  0  0  0  0  0  0  0  0  0
   -5.4460   -0.0140  -20.4730 C   0  0  0  0  0  0  0  0  0  0  0  0
   -5.5350   -0.1240  -22.6370 H   0  0  0  0  0  0  0  0  0  0  0  0
   -3.5800    1.3180  -23.0020 H   0  0  0  0  0  0  0  0  0  0  0  0
   -2.3320    2.2690  -21.0880 H   0  0  0  0  0  0  0  0  0  0  0  0
   -3.0550    1.7710  -18.7720 H   0  0  0  0  0  0  0  0  0  0  0  0
   -4.6030    0.6270  -17.2160 H   0  0  0  0  0  0  0  0  0  0  0  0
   -7.7210   -1.6720  -18.5860 H   0  0  0  0  0  0  0  0  0  0  0  0
   -7.6720   -0.7140  -22.0310 H   0  0  0  0  0  0  0  0  0  0  0  0
   -8.3600   -1.8080  -20.8470 H   0  0  0  0  0  0  0  0  0  0  0  0
   -8.4100   -2.7190  -23.7940 C   0  0  1  0  0  0  0  0  0  0  0  0
   -7.9400   -1.6590  -24.8010 C   0  0  0  0  0  0  0  0  0  0  0  0
   -7.4440   -2.0880  -25.6760 H   0  0  0  0  0  0  0  0  0  0  0  0
   -8.7990   -1.0850  -25.1700 H   0  0  0  0  0  0  0  0  0  0  0  0
   -7.2440   -0.9500  -24.3420 H   0  0  0  0  0  0  0  0  0  0  0  0
   -9.3280   -3.7780  -24.4240 C   0  0  0  0  0  0  0  0  0  0  0  0
   -9.9790   -4.1700  -23.6350 H   0  0  0  0  0  0  0  0  0  0  0  0
   -9.9940   -3.2780  -25.1340 H   0  0  0  0  0  0  0  0  0  0  0  0
   -9.0330   -2.1960  -23.0630 H   0  0  0  0  0  0  0  0  0  0  0  0
   -6.1940   -5.0180  -22.6790 H   0  0  0  0  0  0  0  0  0  0  0  0
   -8.0930   -6.0570  -23.3620 H   0  0  0  0  0  0  0  0  0  0  0  0
   -7.0110   -6.2880  -24.7130 H   0  0  0  0  0  0  0  0  0  0  0  0
   -9.4270   -5.7350  -25.2230 H   0  0  0  0  0  0  0  0  0  0  0  0
   -7.9200   -5.6460  -27.0450 H   0  0  0  0  0  0  0  0  0  0  0  0
   -8.9230   -4.2060  -27.1000 H   0  0  0  0  0  0  0  0  0  0  0  0
   -7.2480   -4.0810  -26.5780 H   0  0  0  0  0  0  0  0  0  0  0  0
  1  2  1  0  0  0  0
  1 44  1  0  0  0  0
  1 45  1  0  0  0  0
  1 46  1  0  0  0  0
  2  3  1  0  0  0  0
  2 36  1  0  0  0  0
  2 43  1  6  0  0  0
  3  4  1  0  0  0  0
  3 41  1  0  0  0  0
  3 42  1  0  0  0  0
  4  5  1  0  0  0  0
  4  9  1  0  0  0  0
  4 40  1  1  0  0  0
  5  6  1  0  0  0  0
  5  7  1  0  0  0  0
  5  8  1  0  0  0  0
  9 10  1  0  0  0  0
  9 31  1  0  0  0  0
 10 11  2  0  0  0  0
 10 12  1  0  0  0  0
 12 13  1  0  0  0  0
 12 29  1  0  0  0  0
 12 30  1  0  0  0  0
 13 14  2  0  0  0  0
 13 22  1  0  0  0  0
 14 15  1  0  0  0  0
 14 28  1  0  0  0  0
 15 16  2  0  0  0  0
 16 17  1  0  0  0  0
 16 27  1  0  0  0  0
 17 18  2  0  0  0  0
 17 22  1  0  0  0  0
 18 19  1  0  0  0  0
 18 26  1  0  0  0  0
 19 20  2  0  0  0  0
 19 25  1  0  0  0  0
 20 21  1  0  0  0  0
 20 24  1  0  0  0  0
 21 22  2  0  0  0  0
 21 23  1  0  0  0  0
 31 32  1  0  0  0  0
 31 36  1  0  0  0  0
 31 39  1  1  0  0  0
 32 33  1  0  0  0  0
 32 34  1  0  0  0  0
 32 35  1  0  0  0  0
 36 37  1  0  0  0  0
 36 38  1  0  0  0  0
M  END
>  <MODEL>
       1

$$$$
