tmp_first_model_10_49.pdb
 OpenBabel08272522163D

 67 72  0  0  1  0  0  0  0  0999 V2000
   -7.4340    3.3470  -21.9270 C   0  0  0  0  0  0  0  0  0  0  0  0
   -8.4490    2.8550  -22.8440 N   0  0  0  0  0  0  0  0  0  0  0  0
   -8.0040    2.1030  -23.8920 C   0  0  0  0  0  0  0  0  0  0  0  0
   -6.8150    1.8930  -24.0860 O   0  0  0  0  0  0  0  0  0  0  0  0
   -9.0490    1.4980  -24.8230 C   0  0  0  0  0  0  0  0  0  0  0  0
   -9.6130    0.3100  -24.2110 N   0  0  0  0  0  0  0  0  0  0  0  0
   -8.7910   -0.8880  -24.1060 C   0  0  0  0  0  0  0  0  0  0  0  0
   -9.0890   -1.6690  -22.8010 C   0  0  2  0  0  0  0  0  0  0  0  0
   -8.5700   -0.8650  -21.5870 C   0  0  0  0  0  0  0  0  0  0  0  0
   -9.0730    0.1160  -21.0790 O   0  0  0  0  0  0  0  0  0  0  0  0
   -7.3890   -1.4360  -21.1770 N   0  0  0  0  0  0  0  0  0  0  0  0
   -6.6210   -0.8260  -20.1570 C   0  0  0  0  0  0  0  0  0  0  0  0
   -6.9330   -1.0680  -18.8440 C   0  0  0  0  0  0  0  0  0  0  0  0
   -6.2390   -0.5770  -17.7920 N   0  0  0  0  0  0  0  0  0  0  0  0
   -5.2040    0.1840  -18.0600 C   0  0  0  0  0  0  0  0  0  0  0  0
   -4.7970    0.5510  -19.3760 C   0  0  0  0  0  0  0  0  0  0  0  0
   -3.7110    1.4310  -19.6150 C   0  0  0  0  0  0  0  0  0  0  0  0
   -3.4420    1.8810  -20.8790 C   0  0  0  0  0  0  0  0  0  0  0  0
   -4.2500    1.4730  -21.9670 C   0  0  0  0  0  0  0  0  0  0  0  0
   -5.2380    0.5350  -21.7780 C   0  0  0  0  0  0  0  0  0  0  0  0
   -5.5580    0.0730  -20.4700 C   0  0  0  0  0  0  0  0  0  0  0  0
   -5.8200    0.1990  -22.6330 H   0  0  0  0  0  0  0  0  0  0  0  0
   -4.1030    1.9180  -22.9480 H   0  0  0  0  0  0  0  0  0  0  0  0
   -2.6270    2.5800  -21.0450 H   0  0  0  0  0  0  0  0  0  0  0  0
   -3.1080    1.7420  -18.7660 H   0  0  0  0  0  0  0  0  0  0  0  0
   -4.6380    0.5640  -17.2090 H   0  0  0  0  0  0  0  0  0  0  0  0
   -7.7900   -1.6940  -18.6100 H   0  0  0  0  0  0  0  0  0  0  0  0
   -6.9730   -2.5910  -21.9480 C   0  0  0  0  0  0  0  0  0  0  0  0
   -8.2470   -2.9790  -22.7190 C   0  0  2  0  0  0  0  0  0  0  0  0
   -7.9720   -3.6750  -24.0600 C   0  0  0  0  0  0  0  0  0  0  0  0
   -7.4060   -4.9860  -23.8510 N   0  0  0  0  0  0  0  0  0  0  0  0
   -6.8870   -5.7570  -24.8730 C   0  0  0  0  0  0  0  0  0  0  0  0
   -6.1230   -6.8820  -24.7800 C   0  0  0  0  0  0  0  0  0  0  0  0
   -5.7480   -7.4630  -25.9750 N   0  0  0  0  0  0  0  0  0  0  0  0
   -6.2340   -6.8160  -26.9860 C   0  0  0  0  0  0  0  0  0  0  0  0
   -6.0860   -7.2800  -28.4000 C   0  0  0  0  0  0  0  0  0  0  0  0
   -5.8920   -6.4650  -29.1030 H   0  0  0  0  0  0  0  0  0  0  0  0
   -7.0040   -7.7930  -28.7170 H   0  0  0  0  0  0  0  0  0  0  0  0
   -5.2630   -7.9990  -28.4320 H   0  0  0  0  0  0  0  0  0  0  0  0
   -7.1780   -5.3980  -26.5560 S   0  0  0  0  0  0  0  0  0  0  0  0
   -5.8320   -7.3680  -23.8530 H   0  0  0  0  0  0  0  0  0  0  0  0
   -7.1010   -5.2280  -22.9230 H   0  0  0  0  0  0  0  0  0  0  0  0
   -8.9140   -3.7670  -24.6180 H   0  0  0  0  0  0  0  0  0  0  0  0
   -7.2850   -3.0620  -24.6670 H   0  0  0  0  0  0  0  0  0  0  0  0
   -8.8000   -3.6910  -22.0980 H   0  0  0  0  0  0  0  0  0  0  0  0
   -6.1470   -2.3430  -22.6340 H   0  0  0  0  0  0  0  0  0  0  0  0
   -6.6270   -3.3890  -21.2830 H   0  0  0  0  0  0  0  0  0  0  0  0
  -10.5900   -1.8420  -22.6970 C   0  0  0  0  0  0  0  0  0  0  0  0
  -11.1420   -2.8260  -21.8740 C   0  0  0  0  0  0  0  0  0  0  0  0
  -12.5130   -2.9210  -21.7270 C   0  0  0  0  0  0  0  0  0  0  0  0
  -13.1570   -4.1350  -20.6670 Cl  0  0  0  0  0  0  0  0  0  0  0  0
  -13.3900   -2.0630  -22.3890 C   0  0  0  0  0  0  0  0  0  0  0  0
  -12.8510   -1.0720  -23.1800 C   0  0  0  0  0  0  0  0  0  0  0  0
  -11.4720   -0.9410  -23.3090 C   0  0  0  0  0  0  0  0  0  0  0  0
  -10.9700    0.2420  -24.0710 C   0  0  0  0  0  0  0  0  0  0  0  0
  -11.7260    1.0980  -24.5170 O   0  0  0  0  0  0  0  0  0  0  0  0
  -13.4710   -0.3540  -23.7040 H   0  0  0  0  0  0  0  0  0  0  0  0
  -14.4620   -2.1590  -22.2630 H   0  0  0  0  0  0  0  0  0  0  0  0
  -10.5210   -3.5160  -21.3170 H   0  0  0  0  0  0  0  0  0  0  0  0
   -7.7350   -0.5980  -24.1450 H   0  0  0  0  0  0  0  0  0  0  0  0
   -8.9930   -1.5460  -24.9620 H   0  0  0  0  0  0  0  0  0  0  0  0
   -9.8780    2.1820  -25.0200 H   0  0  0  0  0  0  0  0  0  0  0  0
   -8.5740    1.2400  -25.7790 H   0  0  0  0  0  0  0  0  0  0  0  0
   -9.3580    2.6450  -22.4530 H   0  0  0  0  0  0  0  0  0  0  0  0
   -6.7270    3.9710  -22.4800 H   0  0  0  0  0  0  0  0  0  0  0  0
   -7.8840    3.9650  -21.1500 H   0  0  0  0  0  0  0  0  0  0  0  0
   -6.9030    2.4930  -21.4850 H   0  0  0  0  0  0  0  0  0  0  0  0
  1  2  1  0  0  0  0
  1 65  1  0  0  0  0
  1 66  1  0  0  0  0
  1 67  1  0  0  0  0
  2  3  1  0  0  0  0
  2 64  1  0  0  0  0
  3  4  2  0  0  0  0
  3  5  1  0  0  0  0
  5  6  1  0  0  0  0
  5 62  1  0  0  0  0
  5 63  1  0  0  0  0
  6  7  1  0  0  0  0
  6 55  1  0  0  0  0
  7  8  1  0  0  0  0
  7 60  1  0  0  0  0
  7 61  1  0  0  0  0
  8  9  1  1  0  0  0
  8 29  1  0  0  0  0
  8 48  1  0  0  0  0
  9 10  2  0  0  0  0
  9 11  1  0  0  0  0
 11 12  1  0  0  0  0
 11 28  1  0  0  0  0
 12 13  2  0  0  0  0
 12 21  1  0  0  0  0
 13 14  1  0  0  0  0
 13 27  1  0  0  0  0
 14 15  2  0  0  0  0
 15 16  1  0  0  0  0
 15 26  1  0  0  0  0
 16 17  2  0  0  0  0
 16 21  1  0  0  0  0
 17 18  1  0  0  0  0
 17 25  1  0  0  0  0
 18 19  2  0  0  0  0
 18 24  1  0  0  0  0
 19 20  1  0  0  0  0
 19 23  1  0  0  0  0
 20 21  2  0  0  0  0
 20 22  1  0  0  0  0
 28 29  1  0  0  0  0
 28 46  1  0  0  0  0
 28 47  1  0  0  0  0
 29 30  1  0  0  0  0
 29 45  1  1  0  0  0
 30 31  1  0  0  0  0
 30 43  1  0  0  0  0
 30 44  1  0  0  0  0
 31 32  1  0  0  0  0
 31 42  1  0  0  0  0
 32 33  2  0  0  0  0
 32 40  1  0  0  0  0
 33 34  1  0  0  0  0
 33 41  1  0  0  0  0
 34 35  2  0  0  0  0
 35 36  1  0  0  0  0
 35 40  1  0  0  0  0
 36 37  1  0  0  0  0
 36 38  1  0  0  0  0
 36 39  1  0  0  0  0
 48 49  2  0  0  0  0
 48 54  1  0  0  0  0
 49 50  1  0  0  0  0
 49 59  1  0  0  0  0
 50 51  1  0  0  0  0
 50 52  2  0  0  0  0
 52 53  1  0  0  0  0
 52 58  1  0  0  0  0
 53 54  2  0  0  0  0
 53 57  1  0  0  0  0
 54 55  1  0  0  0  0
 55 56  2  0  0  0  0
M  END
>  <MODEL>
       1

$$$$
