tmp_first_model_14_2.pdb
 OpenBabel08282500413D

 60 65  0  0  1  0  0  0  0  0999 V2000
   -5.9880   -7.4660  -26.6800 C   0  0  0  0  0  0  0  0  0  0  0  0
   -6.4400   -6.0360  -26.6680 C   0  0  0  0  0  0  0  0  0  0  0  0
   -5.6130   -4.9770  -26.3010 C   0  0  0  0  0  0  0  0  0  0  0  0
   -6.0170   -3.7060  -26.3340 N   0  0  0  0  0  0  0  0  0  0  0  0
   -7.2540   -3.4780  -26.7690 C   0  0  0  0  0  0  0  0  0  0  0  0
   -7.7140   -2.0490  -26.8680 C   0  0  0  0  0  0  0  0  0  0  0  0
   -8.5520   -1.7080  -25.7270 N   0  0  0  0  0  0  0  0  0  0  0  0
   -7.9220   -1.2440  -24.4970 C   0  0  0  0  0  0  0  0  0  0  0  0
   -8.7470   -1.5360  -23.2100 C   0  0  2  0  0  0  0  0  0  0  0  0
   -8.1840   -0.5880  -22.1420 C   0  0  0  0  0  0  0  0  0  0  0  0
   -8.3290    0.6150  -22.0750 O   0  0  0  0  0  0  0  0  0  0  0  0
   -7.3930   -1.3160  -21.2830 N   0  0  0  0  0  0  0  0  0  0  0  0
   -6.6160   -0.7340  -20.2590 C   0  0  0  0  0  0  0  0  0  0  0  0
   -6.9340   -0.9900  -18.9530 C   0  0  0  0  0  0  0  0  0  0  0  0
   -6.2690   -0.4860  -17.8910 N   0  0  0  0  0  0  0  0  0  0  0  0
   -5.2190    0.2590  -18.1400 C   0  0  0  0  0  0  0  0  0  0  0  0
   -4.7500    0.5590  -19.4480 C   0  0  0  0  0  0  0  0  0  0  0  0
   -3.6010    1.3610  -19.6530 C   0  0  0  0  0  0  0  0  0  0  0  0
   -3.1590    1.6260  -20.9210 C   0  0  0  0  0  0  0  0  0  0  0  0
   -3.8430    1.0910  -22.0370 C   0  0  0  0  0  0  0  0  0  0  0  0
   -4.9580    0.3140  -21.8670 C   0  0  0  0  0  0  0  0  0  0  0  0
   -5.4560    0.0440  -20.5580 C   0  0  0  0  0  0  0  0  0  0  0  0
   -5.4760   -0.0940  -22.7330 H   0  0  0  0  0  0  0  0  0  0  0  0
   -3.4780    1.3040  -23.0390 H   0  0  0  0  0  0  0  0  0  0  0  0
   -2.2860    2.2510  -21.0760 H   0  0  0  0  0  0  0  0  0  0  0  0
   -3.0870    1.7580  -18.7830 H   0  0  0  0  0  0  0  0  0  0  0  0
   -4.6820    0.6600  -17.2810 H   0  0  0  0  0  0  0  0  0  0  0  0
   -7.7920   -1.6250  -18.7240 H   0  0  0  0  0  0  0  0  0  0  0  0
   -7.3360   -2.7280  -21.5650 C   0  0  0  0  0  0  0  0  0  0  0  0
   -8.4970   -2.9330  -22.5390 C   0  0  2  0  0  0  0  0  0  0  0  0
   -8.3040   -4.1050  -23.4840 C   0  0  0  0  0  0  0  0  0  0  0  0
   -9.1200   -4.1460  -24.2130 H   0  0  0  0  0  0  0  0  0  0  0  0
   -8.2810   -5.0500  -22.9290 H   0  0  0  0  0  0  0  0  0  0  0  0
   -7.3640   -4.0100  -24.0370 H   0  0  0  0  0  0  0  0  0  0  0  0
   -9.3870   -3.1260  -21.9250 H   0  0  0  0  0  0  0  0  0  0  0  0
   -6.3670   -3.0230  -21.9960 H   0  0  0  0  0  0  0  0  0  0  0  0
   -7.4520   -3.2860  -20.6370 H   0  0  0  0  0  0  0  0  0  0  0  0
  -10.2230   -1.3360  -23.4840 C   0  0  0  0  0  0  0  0  0  0  0  0
  -11.1220   -1.1000  -22.4380 C   0  0  0  0  0  0  0  0  0  0  0  0
  -12.4790   -1.0340  -22.6990 C   0  0  0  0  0  0  0  0  0  0  0  0
  -13.3380   -0.8230  -21.6920 F   0  0  0  0  0  0  0  0  0  0  0  0
  -13.0060   -1.1960  -23.9740 C   0  0  0  0  0  0  0  0  0  0  0  0
  -12.1220   -1.4550  -24.9990 C   0  0  0  0  0  0  0  0  0  0  0  0
  -10.7560   -1.5240  -24.7590 C   0  0  0  0  0  0  0  0  0  0  0  0
   -9.8920   -1.8370  -25.9210 C   0  0  0  0  0  0  0  0  0  0  0  0
  -10.3620   -2.1950  -26.9990 O   0  0  0  0  0  0  0  0  0  0  0  0
  -12.4460   -1.6320  -26.0170 H   0  0  0  0  0  0  0  0  0  0  0  0
  -14.0760   -1.1410  -24.1440 H   0  0  0  0  0  0  0  0  0  0  0  0
  -10.7690   -0.9610  -21.4250 H   0  0  0  0  0  0  0  0  0  0  0  0
   -6.9290   -1.7090  -24.4120 H   0  0  0  0  0  0  0  0  0  0  0  0
   -7.7660   -0.1580  -24.5640 H   0  0  0  0  0  0  0  0  0  0  0  0
   -8.3240   -1.8910  -27.7680 H   0  0  0  0  0  0  0  0  0  0  0  0
   -6.8390   -1.3980  -26.8950 H   0  0  0  0  0  0  0  0  0  0  0  0
   -8.1060   -4.5400  -27.0710 C   0  0  0  0  0  0  0  0  0  0  0  0
   -7.7070   -5.8070  -27.0330 N   0  0  0  0  0  0  0  0  0  0  0  0
   -9.1320   -4.3640  -27.3830 H   0  0  0  0  0  0  0  0  0  0  0  0
   -4.5820   -5.1310  -25.9930 H   0  0  0  0  0  0  0  0  0  0  0  0
   -4.9720   -7.5960  -27.0620 H   0  0  0  0  0  0  0  0  0  0  0  0
   -6.0160   -7.9160  -25.6830 H   0  0  0  0  0  0  0  0  0  0  0  0
   -6.6760   -8.0130  -27.3190 H   0  0  0  0  0  0  0  0  0  0  0  0
  1  2  1  0  0  0  0
  1 58  1  0  0  0  0
  1 59  1  0  0  0  0
  1 60  1  0  0  0  0
  2  3  2  0  0  0  0
  2 55  1  0  0  0  0
  3  4  1  0  0  0  0
  3 57  1  0  0  0  0
  4  5  2  0  0  0  0
  5  6  1  0  0  0  0
  5 54  1  0  0  0  0
  6  7  1  0  0  0  0
  6 52  1  0  0  0  0
  6 53  1  0  0  0  0
  7  8  1  0  0  0  0
  7 45  1  0  0  0  0
  8  9  1  0  0  0  0
  8 50  1  0  0  0  0
  8 51  1  0  0  0  0
  9 10  1  1  0  0  0
  9 30  1  0  0  0  0
  9 38  1  0  0  0  0
 10 11  2  0  0  0  0
 10 12  1  0  0  0  0
 12 13  1  0  0  0  0
 12 29  1  0  0  0  0
 13 14  2  0  0  0  0
 13 22  1  0  0  0  0
 14 15  1  0  0  0  0
 14 28  1  0  0  0  0
 15 16  2  0  0  0  0
 16 17  1  0  0  0  0
 16 27  1  0  0  0  0
 17 18  2  0  0  0  0
 17 22  1  0  0  0  0
 18 19  1  0  0  0  0
 18 26  1  0  0  0  0
 19 20  2  0  0  0  0
 19 25  1  0  0  0  0
 20 21  1  0  0  0  0
 20 24  1  0  0  0  0
 21 22  2  0  0  0  0
 21 23  1  0  0  0  0
 29 30  1  0  0  0  0
 29 36  1  0  0  0  0
 29 37  1  0  0  0  0
 30 31  1  0  0  0  0
 30 35  1  1  0  0  0
 31 32  1  0  0  0  0
 31 33  1  0  0  0  0
 31 34  1  0  0  0  0
 38 39  2  0  0  0  0
 38 44  1  0  0  0  0
 39 40  1  0  0  0  0
 39 49  1  0  0  0  0
 40 41  1  0  0  0  0
 40 42  2  0  0  0  0
 42 43  1  0  0  0  0
 42 48  1  0  0  0  0
 43 44  2  0  0  0  0
 43 47  1  0  0  0  0
 44 45  1  0  0  0  0
 45 46  2  0  0  0  0
 54 55  2  0  0  0  0
 54 56  1  0  0  0  0
M  END
>  <MODEL>
       1

$$$$
