tmp_first_model_1_23.pdb
 OpenBabel08272517043D

 68 73  0  0  1  0  0  0  0  0999 V2000
   -6.0680   -0.0050  -29.4160 C   0  0  0  0  0  0  0  0  0  0  0  0
   -5.9670    0.4420  -28.0400 N   0  0  0  0  0  0  0  0  0  0  0  0
   -5.2820   -0.3090  -27.1310 C   0  0  0  0  0  0  0  0  0  0  0  0
   -4.4880   -1.1740  -27.4540 O   0  0  0  0  0  0  0  0  0  0  0  0
   -5.5320    0.0170  -25.6410 C   0  0  0  0  0  0  0  0  0  0  0  0
   -6.7210   -0.6390  -25.1000 N   0  0  0  0  0  0  0  0  0  0  0  0
   -6.5930   -1.8090  -24.2340 C   0  0  0  0  0  0  0  0  0  0  0  0
   -7.7390   -1.9310  -23.1770 C   0  0  2  0  0  0  0  0  0  0  0  0
   -7.4260   -0.9890  -22.0000 C   0  0  0  0  0  0  0  0  0  0  0  0
   -7.7280    0.1730  -21.8750 O   0  0  0  0  0  0  0  0  0  0  0  0
   -6.6870   -1.7160  -21.0840 N   0  0  0  0  0  0  0  0  0  0  0  0
   -6.1360   -1.0270  -19.9900 C   0  0  0  0  0  0  0  0  0  0  0  0
   -6.6030   -1.2140  -18.7160 C   0  0  0  0  0  0  0  0  0  0  0  0
   -6.1030   -0.5760  -17.6300 N   0  0  0  0  0  0  0  0  0  0  0  0
   -5.1130    0.2680  -17.8210 C   0  0  0  0  0  0  0  0  0  0  0  0
   -4.5460    0.5590  -19.0990 C   0  0  0  0  0  0  0  0  0  0  0  0
   -3.4550    1.4520  -19.2950 C   0  0  0  0  0  0  0  0  0  0  0  0
   -3.0070    1.7450  -20.5550 C   0  0  0  0  0  0  0  0  0  0  0  0
   -3.6250    1.1740  -21.6890 C   0  0  0  0  0  0  0  0  0  0  0  0
   -4.6510    0.2870  -21.5260 C   0  0  0  0  0  0  0  0  0  0  0  0
   -5.1120   -0.0660  -20.2270 C   0  0  0  0  0  0  0  0  0  0  0  0
   -5.1380   -0.1280  -22.4000 H   0  0  0  0  0  0  0  0  0  0  0  0
   -3.2970    1.4390  -22.6910 H   0  0  0  0  0  0  0  0  0  0  0  0
   -2.1760    2.4280  -20.7030 H   0  0  0  0  0  0  0  0  0  0  0  0
   -2.9800    1.8990  -18.4270 H   0  0  0  0  0  0  0  0  0  0  0  0
   -4.7220    0.7670  -16.9330 H   0  0  0  0  0  0  0  0  0  0  0  0
   -7.4430   -1.8900  -18.5530 H   0  0  0  0  0  0  0  0  0  0  0  0
   -6.5210   -3.1250  -21.4480 C   0  0  0  0  0  0  0  0  0  0  0  0
   -7.7210   -3.2680  -22.3920 C   0  0  2  0  0  0  0  0  0  0  0  0
   -8.0090   -4.5620  -23.1760 C   0  0  0  0  0  0  0  0  0  0  0  0
   -6.9710   -5.1750  -23.9710 N   0  0  0  0  0  0  0  0  0  0  0  0
   -5.8480   -5.8050  -23.4600 C   0  0  0  0  0  0  0  0  0  0  0  0
   -4.6760   -5.8510  -24.2340 C   0  0  0  0  0  0  0  0  0  0  0  0
   -3.5240   -6.4390  -23.7330 C   0  0  0  0  0  0  0  0  0  0  0  0
   -3.5210   -7.0360  -22.4770 C   0  0  0  0  0  0  0  0  0  0  0  0
   -4.6920   -7.0340  -21.7230 C   0  0  0  0  0  0  0  0  0  0  0  0
   -5.8450   -6.4170  -22.1970 C   0  0  0  0  0  0  0  0  0  0  0  0
   -6.7510   -6.4320  -21.5960 H   0  0  0  0  0  0  0  0  0  0  0  0
   -4.7190   -7.5190  -20.7480 H   0  0  0  0  0  0  0  0  0  0  0  0
   -2.6150   -7.4980  -22.0920 H   0  0  0  0  0  0  0  0  0  0  0  0
   -2.6180   -6.4320  -24.3380 H   0  0  0  0  0  0  0  0  0  0  0  0
   -4.6760   -5.4150  -25.2320 H   0  0  0  0  0  0  0  0  0  0  0  0
   -6.9150   -4.9080  -24.9420 H   0  0  0  0  0  0  0  0  0  0  0  0
   -8.3810   -5.3100  -22.4690 H   0  0  0  0  0  0  0  0  0  0  0  0
   -8.8530   -4.3510  -23.8470 H   0  0  0  0  0  0  0  0  0  0  0  0
   -8.5720   -3.1740  -21.7090 H   0  0  0  0  0  0  0  0  0  0  0  0
   -5.5490   -3.3050  -21.9350 H   0  0  0  0  0  0  0  0  0  0  0  0
   -6.5820   -3.7620  -20.5610 H   0  0  0  0  0  0  0  0  0  0  0  0
   -9.0700   -1.6160  -23.7980 C   0  0  0  0  0  0  0  0  0  0  0  0
  -10.2910   -2.0090  -23.2200 C   0  0  0  0  0  0  0  0  0  0  0  0
  -11.4900   -1.5850  -23.7630 C   0  0  0  0  0  0  0  0  0  0  0  0
  -12.9620   -2.0940  -22.9610 Cl  0  0  0  0  0  0  0  0  0  0  0  0
  -11.5240   -0.7420  -24.8810 C   0  0  0  0  0  0  0  0  0  0  0  0
  -10.3370   -0.4060  -25.4720 C   0  0  0  0  0  0  0  0  0  0  0  0
   -9.1300   -0.8090  -24.9300 C   0  0  0  0  0  0  0  0  0  0  0  0
   -7.9240   -0.2140  -25.5500 C   0  0  0  0  0  0  0  0  0  0  0  0
   -8.0410    0.6680  -26.4060 O   0  0  0  0  0  0  0  0  0  0  0  0
  -10.2740    0.2000  -26.3610 H   0  0  0  0  0  0  0  0  0  0  0  0
  -12.4240   -0.2930  -25.2790 H   0  0  0  0  0  0  0  0  0  0  0  0
  -10.3600   -2.6160  -22.3240 H   0  0  0  0  0  0  0  0  0  0  0  0
   -5.6310   -1.7450  -23.7160 H   0  0  0  0  0  0  0  0  0  0  0  0
   -6.5740   -2.7160  -24.8450 H   0  0  0  0  0  0  0  0  0  0  0  0
   -4.6580   -0.3410  -25.0890 H   0  0  0  0  0  0  0  0  0  0  0  0
   -5.6230    1.0990  -25.4800 H   0  0  0  0  0  0  0  0  0  0  0  0
   -6.7660    0.9400  -27.6680 H   0  0  0  0  0  0  0  0  0  0  0  0
   -5.0620   -0.1370  -29.8190 H   0  0  0  0  0  0  0  0  0  0  0  0
   -6.6180   -0.9540  -29.5180 H   0  0  0  0  0  0  0  0  0  0  0  0
   -6.5930    0.7610  -30.0000 H   0  0  0  0  0  0  0  0  0  0  0  0
  1  2  1  0  0  0  0
  1 66  1  0  0  0  0
  1 67  1  0  0  0  0
  1 68  1  0  0  0  0
  2  3  1  0  0  0  0
  2 65  1  0  0  0  0
  3  4  2  0  0  0  0
  3  5  1  0  0  0  0
  5  6  1  0  0  0  0
  5 63  1  0  0  0  0
  5 64  1  0  0  0  0
  6  7  1  0  0  0  0
  6 56  1  0  0  0  0
  7  8  1  0  0  0  0
  7 61  1  0  0  0  0
  7 62  1  0  0  0  0
  8  9  1  1  0  0  0
  8 29  1  0  0  0  0
  8 49  1  0  0  0  0
  9 10  2  0  0  0  0
  9 11  1  0  0  0  0
 11 12  1  0  0  0  0
 11 28  1  0  0  0  0
 12 13  2  0  0  0  0
 12 21  1  0  0  0  0
 13 14  1  0  0  0  0
 13 27  1  0  0  0  0
 14 15  2  0  0  0  0
 15 16  1  0  0  0  0
 15 26  1  0  0  0  0
 16 17  2  0  0  0  0
 16 21  1  0  0  0  0
 17 18  1  0  0  0  0
 17 25  1  0  0  0  0
 18 19  2  0  0  0  0
 18 24  1  0  0  0  0
 19 20  1  0  0  0  0
 19 23  1  0  0  0  0
 20 21  2  0  0  0  0
 20 22  1  0  0  0  0
 28 29  1  0  0  0  0
 28 47  1  0  0  0  0
 28 48  1  0  0  0  0
 29 30  1  0  0  0  0
 29 46  1  1  0  0  0
 30 31  1  0  0  0  0
 30 44  1  0  0  0  0
 30 45  1  0  0  0  0
 31 32  1  0  0  0  0
 31 43  1  0  0  0  0
 32 33  2  0  0  0  0
 32 37  1  0  0  0  0
 33 34  1  0  0  0  0
 33 42  1  0  0  0  0
 34 35  2  0  0  0  0
 34 41  1  0  0  0  0
 35 36  1  0  0  0  0
 35 40  1  0  0  0  0
 36 37  2  0  0  0  0
 36 39  1  0  0  0  0
 37 38  1  0  0  0  0
 49 50  2  0  0  0  0
 49 55  1  0  0  0  0
 50 51  1  0  0  0  0
 50 60  1  0  0  0  0
 51 52  1  0  0  0  0
 51 53  2  0  0  0  0
 53 54  1  0  0  0  0
 53 59  1  0  0  0  0
 54 55  2  0  0  0  0
 54 58  1  0  0  0  0
 55 56  1  0  0  0  0
 56 57  2  0  0  0  0
M  END
>  <MODEL>
       1

$$$$
