tmp_first_model_5_4.pdb
 OpenBabel08272519223D

 59 64  0  0  1  0  0  0  0  0999 V2000
   -8.0740   -3.8540  -23.8920 C   0  0  0  0  0  0  0  0  0  0  0  0
   -8.3520   -2.8800  -22.7620 C   0  0  1  0  0  0  0  0  0  0  0  0
   -7.2050   -2.7620  -21.7610 C   0  0  0  0  0  0  0  0  0  0  0  0
   -7.4340   -1.4510  -21.1880 N   0  0  0  0  0  0  0  0  0  0  0  0
   -6.5610   -0.9380  -20.2060 C   0  0  0  0  0  0  0  0  0  0  0  0
   -6.8140   -1.1570  -18.8810 C   0  0  0  0  0  0  0  0  0  0  0  0
   -5.9490   -0.8840  -17.8760 N   0  0  0  0  0  0  0  0  0  0  0  0
   -4.7920   -0.3630  -18.2200 C   0  0  0  0  0  0  0  0  0  0  0  0
   -4.4440   -0.0120  -19.5540 C   0  0  0  0  0  0  0  0  0  0  0  0
   -3.2690    0.7370  -19.8390 C   0  0  0  0  0  0  0  0  0  0  0  0
   -3.1550    1.4160  -21.0190 C   0  0  0  0  0  0  0  0  0  0  0  0
   -4.0710    1.1650  -22.0710 C   0  0  0  0  0  0  0  0  0  0  0  0
   -5.0810    0.2580  -21.8810 C   0  0  0  0  0  0  0  0  0  0  0  0
   -5.3750   -0.2390  -20.5800 C   0  0  0  0  0  0  0  0  0  0  0  0
   -5.6690   -0.0650  -22.7300 H   0  0  0  0  0  0  0  0  0  0  0  0
   -3.9140    1.6000  -23.0560 H   0  0  0  0  0  0  0  0  0  0  0  0
   -2.2860    2.0400  -21.2020 H   0  0  0  0  0  0  0  0  0  0  0  0
   -2.5510    0.8650  -19.0350 H   0  0  0  0  0  0  0  0  0  0  0  0
   -4.0910   -0.1220  -17.4210 H   0  0  0  0  0  0  0  0  0  0  0  0
   -7.7720   -1.5780  -18.5860 H   0  0  0  0  0  0  0  0  0  0  0  0
   -8.2020   -0.6140  -21.9680 C   0  0  0  0  0  0  0  0  0  0  0  0
   -8.3910    0.5570  -21.7140 O   0  0  0  0  0  0  0  0  0  0  0  0
   -8.7320   -1.4270  -23.1710 C   0  0  1  0  0  0  0  0  0  0  0  0
   -8.0120   -0.9870  -24.4750 C   0  0  0  0  0  0  0  0  0  0  0  0
   -8.4080    0.3540  -24.8850 N   0  0  0  0  0  0  0  0  0  0  0  0
   -7.3780    1.3820  -25.0090 C   0  0  0  0  0  0  0  0  0  0  0  0
   -6.2850    0.9780  -25.9500 C   0  0  0  0  0  0  0  0  0  0  0  0
   -5.0380    0.7270  -25.6040 N   0  0  0  0  0  0  0  0  0  0  0  0
   -4.4140    0.3410  -26.7630 C   0  0  0  0  0  0  0  0  0  0  0  0
   -5.2950    0.3570  -27.8070 C   0  0  0  0  0  0  0  0  0  0  0  0
   -6.5010    0.7690  -27.2810 N   0  0  0  0  0  0  0  0  0  0  0  0
   -7.7550    0.9180  -28.0040 C   0  0  0  0  0  0  0  0  0  0  0  0
   -8.4680    0.1260  -27.7520 H   0  0  0  0  0  0  0  0  0  0  0  0
   -8.2120    1.8900  -27.7940 H   0  0  0  0  0  0  0  0  0  0  0  0
   -7.5410    0.8620  -29.0730 H   0  0  0  0  0  0  0  0  0  0  0  0
   -5.1780    0.1420  -28.8590 H   0  0  0  0  0  0  0  0  0  0  0  0
   -3.3610    0.0900  -26.7820 H   0  0  0  0  0  0  0  0  0  0  0  0
   -7.8680    2.3050  -25.3400 H   0  0  0  0  0  0  0  0  0  0  0  0
   -6.9380    1.5730  -24.0210 H   0  0  0  0  0  0  0  0  0  0  0  0
   -9.7250    0.7160  -24.9450 C   0  0  0  0  0  0  0  0  0  0  0  0
  -10.1120    1.7000  -25.5700 O   0  0  0  0  0  0  0  0  0  0  0  0
  -10.6830   -0.1740  -24.2090 C   0  0  0  0  0  0  0  0  0  0  0  0
  -12.0500    0.0410  -24.3890 C   0  0  0  0  0  0  0  0  0  0  0  0
  -12.9780   -0.8170  -23.8310 C   0  0  0  0  0  0  0  0  0  0  0  0
  -12.5010   -1.8170  -22.9930 C   0  0  0  0  0  0  0  0  0  0  0  0
  -13.3920   -2.6460  -22.4240 F   0  0  0  0  0  0  0  0  0  0  0  0
  -11.1680   -1.9710  -22.6910 C   0  0  0  0  0  0  0  0  0  0  0  0
  -10.2180   -1.1980  -23.3690 C   0  0  0  0  0  0  0  0  0  0  0  0
  -10.9050   -2.6930  -21.9250 H   0  0  0  0  0  0  0  0  0  0  0  0
  -14.0450   -0.7410  -24.0090 H   0  0  0  0  0  0  0  0  0  0  0  0
  -12.3700    0.9000  -24.9650 H   0  0  0  0  0  0  0  0  0  0  0  0
   -6.9270   -1.0030  -24.3470 H   0  0  0  0  0  0  0  0  0  0  0  0
   -8.2420   -1.7060  -25.2750 H   0  0  0  0  0  0  0  0  0  0  0  0
   -7.2530   -3.5360  -20.9860 H   0  0  0  0  0  0  0  0  0  0  0  0
   -6.2160   -2.8480  -22.2420 H   0  0  0  0  0  0  0  0  0  0  0  0
   -9.1890   -3.2620  -22.1780 H   0  0  0  0  0  0  0  0  0  0  0  0
   -7.9100   -4.8550  -23.4840 H   0  0  0  0  0  0  0  0  0  0  0  0
   -8.9150   -3.8940  -24.5910 H   0  0  0  0  0  0  0  0  0  0  0  0
   -7.1760   -3.5650  -24.4530 H   0  0  0  0  0  0  0  0  0  0  0  0
  1  2  1  0  0  0  0
  1 57  1  0  0  0  0
  1 58  1  0  0  0  0
  1 59  1  0  0  0  0
  2  3  1  0  0  0  0
  2 23  1  0  0  0  0
  2 56  1  1  0  0  0
  3  4  1  0  0  0  0
  3 54  1  0  0  0  0
  3 55  1  0  0  0  0
  4  5  1  0  0  0  0
  4 21  1  0  0  0  0
  5  6  2  0  0  0  0
  5 14  1  0  0  0  0
  6  7  1  0  0  0  0
  6 20  1  0  0  0  0
  7  8  2  0  0  0  0
  8  9  1  0  0  0  0
  8 19  1  0  0  0  0
  9 10  2  0  0  0  0
  9 14  1  0  0  0  0
 10 11  1  0  0  0  0
 10 18  1  0  0  0  0
 11 12  2  0  0  0  0
 11 17  1  0  0  0  0
 12 13  1  0  0  0  0
 12 16  1  0  0  0  0
 13 14  2  0  0  0  0
 13 15  1  0  0  0  0
 21 22  2  0  0  0  0
 23 21  1  1  0  0  0
 23 24  1  0  0  0  0
 23 48  1  0  0  0  0
 24 25  1  0  0  0  0
 24 52  1  0  0  0  0
 24 53  1  0  0  0  0
 25 26  1  0  0  0  0
 25 40  1  0  0  0  0
 26 27  1  0  0  0  0
 26 38  1  0  0  0  0
 26 39  1  0  0  0  0
 27 28  2  0  0  0  0
 27 31  1  0  0  0  0
 28 29  1  0  0  0  0
 29 30  2  0  0  0  0
 29 37  1  0  0  0  0
 30 31  1  0  0  0  0
 30 36  1  0  0  0  0
 31 32  1  0  0  0  0
 32 33  1  0  0  0  0
 32 34  1  0  0  0  0
 32 35  1  0  0  0  0
 40 41  2  0  0  0  0
 40 42  1  0  0  0  0
 42 43  2  0  0  0  0
 42 48  1  0  0  0  0
 43 44  1  0  0  0  0
 43 51  1  0  0  0  0
 44 45  2  0  0  0  0
 44 50  1  0  0  0  0
 45 46  1  0  0  0  0
 45 47  1  0  0  0  0
 47 48  2  0  0  0  0
 47 49  1  0  0  0  0
M  END
>  <MODEL>
       1

$$$$
