tmp_first_model_4_18.pdb
 OpenBabel08272518513D

 56 61  0  0  1  0  0  0  0  0999 V2000
   -7.9300   -3.5630  -24.1030 C   0  0  0  0  0  0  0  0  0  0  0  0
   -8.2960   -2.8440  -22.8120 C   0  0  1  0  0  0  0  0  0  0  0  0
   -7.0540   -2.5980  -21.9470 C   0  0  0  0  0  0  0  0  0  0  0  0
   -7.3840   -1.4060  -21.2080 N   0  0  0  0  0  0  0  0  0  0  0  0
   -6.5150   -0.9450  -20.1950 C   0  0  0  0  0  0  0  0  0  0  0  0
   -6.7630   -1.2500  -18.8840 C   0  0  0  0  0  0  0  0  0  0  0  0
   -5.8920   -1.0070  -17.8730 N   0  0  0  0  0  0  0  0  0  0  0  0
   -4.7610   -0.4140  -18.1660 C   0  0  0  0  0  0  0  0  0  0  0  0
   -4.4130    0.0070  -19.4800 C   0  0  0  0  0  0  0  0  0  0  0  0
   -3.2470    0.7690  -19.7380 C   0  0  0  0  0  0  0  0  0  0  0  0
   -3.0180    1.2790  -20.9880 C   0  0  0  0  0  0  0  0  0  0  0  0
   -3.8920    0.9670  -22.0560 C   0  0  0  0  0  0  0  0  0  0  0  0
   -4.9940    0.1770  -21.8400 C   0  0  0  0  0  0  0  0  0  0  0  0
   -5.3050   -0.2740  -20.5310 C   0  0  0  0  0  0  0  0  0  0  0  0
   -5.6470   -0.0800  -22.6670 H   0  0  0  0  0  0  0  0  0  0  0  0
   -3.7180    1.3950  -23.0410 H   0  0  0  0  0  0  0  0  0  0  0  0
   -2.1660    1.9300  -21.1610 H   0  0  0  0  0  0  0  0  0  0  0  0
   -2.6080    0.9990  -18.8920 H   0  0  0  0  0  0  0  0  0  0  0  0
   -4.0500   -0.2260  -17.3590 H   0  0  0  0  0  0  0  0  0  0  0  0
   -7.6920   -1.7620  -18.6360 H   0  0  0  0  0  0  0  0  0  0  0  0
   -8.4780   -0.7130  -21.6740 C   0  0  0  0  0  0  0  0  0  0  0  0
   -8.9310    0.2850  -21.1560 O   0  0  0  0  0  0  0  0  0  0  0  0
   -9.0010   -1.4560  -22.9370 C   0  0  1  0  0  0  0  0  0  0  0  0
   -8.5510   -0.7480  -24.2420 C   0  0  0  0  0  0  0  0  0  0  0  0
   -9.2700    0.4860  -24.4920 N   0  0  0  0  0  0  0  0  0  0  0  0
   -8.5380    1.6950  -24.8510 C   0  0  0  0  0  0  0  0  0  0  0  0
   -8.1440    2.5170  -23.6520 C   0  0  0  0  0  0  0  0  0  0  0  0
   -8.8680    3.5340  -22.9860 C   0  0  0  0  0  0  0  0  0  0  0  0
   -8.0200    3.9870  -22.0070 C   0  0  0  0  0  0  0  0  0  0  0  0
   -6.8940    3.2490  -22.1040 N   0  0  0  0  0  0  0  0  0  0  0  0
   -6.9410    2.3460  -23.0970 N   0  0  0  0  0  0  0  0  0  0  0  0
   -6.0940    3.2950  -21.4960 H   0  0  0  0  0  0  0  0  0  0  0  0
   -8.1460    4.8080  -21.3160 H   0  0  0  0  0  0  0  0  0  0  0  0
   -9.8780    3.8830  -23.1530 H   0  0  0  0  0  0  0  0  0  0  0  0
   -7.6250    1.4110  -25.3900 H   0  0  0  0  0  0  0  0  0  0  0  0
   -9.1750    2.2750  -25.5270 H   0  0  0  0  0  0  0  0  0  0  0  0
  -10.6340    0.5680  -24.3760 C   0  0  0  0  0  0  0  0  0  0  0  0
  -11.2770    1.5010  -24.8370 O   0  0  0  0  0  0  0  0  0  0  0  0
  -11.2860   -0.5450  -23.6170 C   0  0  0  0  0  0  0  0  0  0  0  0
  -12.6800   -0.5570  -23.5520 C   0  0  0  0  0  0  0  0  0  0  0  0
  -13.3440   -1.4660  -22.7570 C   0  0  0  0  0  0  0  0  0  0  0  0
  -12.5680   -2.3450  -22.0120 C   0  0  0  0  0  0  0  0  0  0  0  0
  -13.1910   -3.2100  -21.2000 F   0  0  0  0  0  0  0  0  0  0  0  0
  -11.1900   -2.3630  -22.0640 C   0  0  0  0  0  0  0  0  0  0  0  0
  -10.5180   -1.4820  -22.9150 C   0  0  0  0  0  0  0  0  0  0  0  0
  -10.6550   -3.0520  -21.4230 H   0  0  0  0  0  0  0  0  0  0  0  0
  -14.4260   -1.4860  -22.6800 H   0  0  0  0  0  0  0  0  0  0  0  0
  -13.2230    0.1840  -24.1220 H   0  0  0  0  0  0  0  0  0  0  0  0
   -7.4780   -0.5240  -24.1980 H   0  0  0  0  0  0  0  0  0  0  0  0
   -8.7120   -1.4380  -25.0810 H   0  0  0  0  0  0  0  0  0  0  0  0
   -6.8670   -3.4230  -21.2530 H   0  0  0  0  0  0  0  0  0  0  0  0
   -6.1430   -2.4740  -22.5590 H   0  0  0  0  0  0  0  0  0  0  0  0
   -8.9630   -3.4950  -22.2450 H   0  0  0  0  0  0  0  0  0  0  0  0
   -8.7990   -3.7130  -24.7530 H   0  0  0  0  0  0  0  0  0  0  0  0
   -7.1740   -2.9970  -24.6590 H   0  0  0  0  0  0  0  0  0  0  0  0
   -7.5010   -4.5390  -23.8600 H   0  0  0  0  0  0  0  0  0  0  0  0
  1  2  1  0  0  0  0
  1 54  1  0  0  0  0
  1 55  1  0  0  0  0
  1 56  1  0  0  0  0
  2  3  1  0  0  0  0
  2 23  1  0  0  0  0
  2 53  1  1  0  0  0
  3  4  1  0  0  0  0
  3 51  1  0  0  0  0
  3 52  1  0  0  0  0
  4  5  1  0  0  0  0
  4 21  1  0  0  0  0
  5  6  2  0  0  0  0
  5 14  1  0  0  0  0
  6  7  1  0  0  0  0
  6 20  1  0  0  0  0
  7  8  2  0  0  0  0
  8  9  1  0  0  0  0
  8 19  1  0  0  0  0
  9 10  2  0  0  0  0
  9 14  1  0  0  0  0
 10 11  1  0  0  0  0
 10 18  1  0  0  0  0
 11 12  2  0  0  0  0
 11 17  1  0  0  0  0
 12 13  1  0  0  0  0
 12 16  1  0  0  0  0
 13 14  2  0  0  0  0
 13 15  1  0  0  0  0
 21 22  2  0  0  0  0
 23 21  1  1  0  0  0
 23 24  1  0  0  0  0
 23 45  1  0  0  0  0
 24 25  1  0  0  0  0
 24 49  1  0  0  0  0
 24 50  1  0  0  0  0
 25 26  1  0  0  0  0
 25 37  1  0  0  0  0
 26 27  1  0  0  0  0
 26 35  1  0  0  0  0
 26 36  1  0  0  0  0
 27 28  1  0  0  0  0
 27 31  2  0  0  0  0
 28 29  2  0  0  0  0
 28 34  1  0  0  0  0
 29 30  1  0  0  0  0
 29 33  1  0  0  0  0
 30 31  1  0  0  0  0
 30 32  1  0  0  0  0
 37 38  2  0  0  0  0
 37 39  1  0  0  0  0
 39 40  2  0  0  0  0
 39 45  1  0  0  0  0
 40 41  1  0  0  0  0
 40 48  1  0  0  0  0
 41 42  2  0  0  0  0
 41 47  1  0  0  0  0
 42 43  1  0  0  0  0
 42 44  1  0  0  0  0
 44 45  2  0  0  0  0
 44 46  1  0  0  0  0
M  END
>  <MODEL>
       1

$$$$
