tmp_first_model_16_61.pdb
 OpenBabel08282501503D

 44 47  0  0  0  0  0  0  0  0999 V2000
   -8.4140    0.7690  -21.5840 O   0  0  0  0  0  0  0  0  0  0  0  0
   -8.5400   -0.4260  -21.7870 C   0  0  0  0  0  0  0  0  0  0  0  0
   -7.4850   -1.4200  -21.2950 C   0  0  0  0  0  0  0  0  0  0  0  0
   -6.6150   -0.8540  -20.2080 C   0  0  0  0  0  0  0  0  0  0  0  0
   -6.9090   -1.1130  -18.8980 C   0  0  0  0  0  0  0  0  0  0  0  0
   -6.1540   -0.7530  -17.8280 N   0  0  0  0  0  0  0  0  0  0  0  0
   -5.0890   -0.0230  -18.0840 C   0  0  0  0  0  0  0  0  0  0  0  0
   -4.7170    0.4130  -19.3860 C   0  0  0  0  0  0  0  0  0  0  0  0
   -3.6180    1.2850  -19.6020 C   0  0  0  0  0  0  0  0  0  0  0  0
   -3.2450    1.6260  -20.8760 C   0  0  0  0  0  0  0  0  0  0  0  0
   -3.9630    1.1250  -21.9850 C   0  0  0  0  0  0  0  0  0  0  0  0
   -5.0610    0.3230  -21.7970 C   0  0  0  0  0  0  0  0  0  0  0  0
   -5.4780   -0.0400  -20.4880 C   0  0  0  0  0  0  0  0  0  0  0  0
   -5.6210   -0.0310  -22.6560 H   0  0  0  0  0  0  0  0  0  0  0  0
   -3.6320    1.3770  -22.9890 H   0  0  0  0  0  0  0  0  0  0  0  0
   -2.3930    2.2770  -21.0440 H   0  0  0  0  0  0  0  0  0  0  0  0
   -3.0960    1.6940  -18.7400 H   0  0  0  0  0  0  0  0  0  0  0  0
   -4.4600    0.2770  -17.2440 H   0  0  0  0  0  0  0  0  0  0  0  0
   -7.8220   -1.6670  -18.6640 H   0  0  0  0  0  0  0  0  0  0  0  0
   -6.8850   -1.7670  -22.1480 H   0  0  0  0  0  0  0  0  0  0  0  0
   -8.0110   -2.2970  -20.9020 H   0  0  0  0  0  0  0  0  0  0  0  0
   -9.6350   -0.9470  -22.4180 N   0  0  0  0  0  0  0  0  0  0  0  0
   -9.7740   -2.3330  -22.8730 C   0  0  0  0  0  0  0  0  0  0  0  0
  -10.8260   -2.4380  -23.9830 C   0  0  0  0  0  0  0  0  0  0  0  0
  -12.2160   -1.9470  -23.5600 C   0  0  0  0  0  0  0  0  0  0  0  0
  -13.2080   -1.6920  -24.7280 C   0  0  0  0  0  0  0  0  0  0  0  0
  -14.1430   -2.8120  -24.2140 C   0  0  0  0  0  0  0  0  0  0  0  0
  -13.1670   -3.0620  -23.0430 C   0  0  0  0  0  0  0  0  0  0  0  0
  -13.5830   -2.8420  -22.0560 H   0  0  0  0  0  0  0  0  0  0  0  0
  -12.7050   -4.0530  -23.0140 H   0  0  0  0  0  0  0  0  0  0  0  0
  -15.1400   -2.4810  -23.9120 H   0  0  0  0  0  0  0  0  0  0  0  0
  -14.2670   -3.6570  -24.8980 H   0  0  0  0  0  0  0  0  0  0  0  0
  -13.6430   -0.6880  -24.7170 H   0  0  0  0  0  0  0  0  0  0  0  0
  -12.7870   -1.8700  -25.7190 H   0  0  0  0  0  0  0  0  0  0  0  0
  -12.0580   -0.7850  -22.5710 C   0  0  0  0  0  0  0  0  0  0  0  0
  -10.7390   -0.0360  -22.6970 C   0  0  0  0  0  0  0  0  0  0  0  0
  -10.6650    0.7800  -21.9750 H   0  0  0  0  0  0  0  0  0  0  0  0
  -10.6040    0.4060  -23.6910 H   0  0  0  0  0  0  0  0  0  0  0  0
  -12.9100   -0.0950  -22.6120 H   0  0  0  0  0  0  0  0  0  0  0  0
  -12.0490   -1.2300  -21.5790 H   0  0  0  0  0  0  0  0  0  0  0  0
  -10.4830   -1.8130  -24.8160 H   0  0  0  0  0  0  0  0  0  0  0  0
  -10.8760   -3.4700  -24.3560 H   0  0  0  0  0  0  0  0  0  0  0  0
   -8.8080   -2.6710  -23.2660 H   0  0  0  0  0  0  0  0  0  0  0  0
  -10.0310   -2.9930  -22.0310 H   0  0  0  0  0  0  0  0  0  0  0  0
  1  2  2  0  0  0  0
  2  3  1  0  0  0  0
  2 22  1  0  0  0  0
  3  4  1  0  0  0  0
  3 20  1  0  0  0  0
  3 21  1  0  0  0  0
  4  5  2  0  0  0  0
  4 13  1  0  0  0  0
  5  6  1  0  0  0  0
  5 19  1  0  0  0  0
  6  7  2  0  0  0  0
  7  8  1  0  0  0  0
  7 18  1  0  0  0  0
  8  9  2  0  0  0  0
  8 13  1  0  0  0  0
  9 10  1  0  0  0  0
  9 17  1  0  0  0  0
 10 11  2  0  0  0  0
 10 16  1  0  0  0  0
 11 12  1  0  0  0  0
 11 15  1  0  0  0  0
 12 13  2  0  0  0  0
 12 14  1  0  0  0  0
 22 23  1  0  0  0  0
 22 36  1  0  0  0  0
 23 24  1  0  0  0  0
 23 43  1  0  0  0  0
 23 44  1  0  0  0  0
 24 25  1  0  0  0  0
 24 41  1  0  0  0  0
 24 42  1  0  0  0  0
 25 26  1  0  0  0  0
 25 28  1  0  0  0  0
 25 35  1  0  0  0  0
 26 27  1  0  0  0  0
 26 33  1  0  0  0  0
 26 34  1  0  0  0  0
 27 28  1  0  0  0  0
 27 31  1  0  0  0  0
 27 32  1  0  0  0  0
 28 29  1  0  0  0  0
 28 30  1  0  0  0  0
 35 36  1  0  0  0  0
 35 39  1  0  0  0  0
 35 40  1  0  0  0  0
 36 37  1  0  0  0  0
 36 38  1  0  0  0  0
M  END
>  <MODEL>
       1

$$$$
