tmp_first_model_1_35.pdb
 OpenBabel08272517043D

 40 42  0  0  0  0  0  0  0  0999 V2000
   -5.5900   -2.9560  -21.6860 O   0  0  0  0  0  0  0  0  0  0  0  0
   -6.7950   -2.7930  -21.7770 C   0  0  0  0  0  0  0  0  0  0  0  0
   -7.4250   -1.4780  -21.2540 C   0  0  0  0  0  0  0  0  0  0  0  0
   -6.5820   -0.8230  -20.1790 C   0  0  0  0  0  0  0  0  0  0  0  0
   -6.8730   -1.0420  -18.8560 C   0  0  0  0  0  0  0  0  0  0  0  0
   -6.1850   -0.5470  -17.7960 N   0  0  0  0  0  0  0  0  0  0  0  0
   -5.1560    0.2240  -18.0610 C   0  0  0  0  0  0  0  0  0  0  0  0
   -4.7200    0.5350  -19.3800 C   0  0  0  0  0  0  0  0  0  0  0  0
   -3.5900    1.3630  -19.6180 C   0  0  0  0  0  0  0  0  0  0  0  0
   -3.1890    1.6350  -20.9000 C   0  0  0  0  0  0  0  0  0  0  0  0
   -3.8980    1.0910  -21.9910 C   0  0  0  0  0  0  0  0  0  0  0  0
   -4.9970    0.2910  -21.7860 C   0  0  0  0  0  0  0  0  0  0  0  0
   -5.4430   -0.0070  -20.4700 C   0  0  0  0  0  0  0  0  0  0  0  0
   -5.5150   -0.1340  -22.6380 H   0  0  0  0  0  0  0  0  0  0  0  0
   -3.5680    1.3090  -23.0030 H   0  0  0  0  0  0  0  0  0  0  0  0
   -2.3270    2.2700  -21.0860 H   0  0  0  0  0  0  0  0  0  0  0  0
   -3.0490    1.7770  -18.7700 H   0  0  0  0  0  0  0  0  0  0  0  0
   -4.5970    0.6300  -17.2170 H   0  0  0  0  0  0  0  0  0  0  0  0
   -7.7210   -1.6720  -18.5890 H   0  0  0  0  0  0  0  0  0  0  0  0
   -8.4250   -1.6810  -20.8440 H   0  0  0  0  0  0  0  0  0  0  0  0
   -7.5660   -0.7850  -22.0940 H   0  0  0  0  0  0  0  0  0  0  0  0
   -7.6210   -3.7680  -22.3130 N   0  0  0  0  0  0  0  0  0  0  0  0
   -8.9730   -3.5170  -22.8050 C   0  0  0  0  0  0  0  0  0  0  0  0
   -9.2850   -4.3300  -24.0630 C   0  0  0  0  0  0  0  0  0  0  0  0
   -9.0000   -5.8120  -23.8410 C   0  0  0  0  0  0  0  0  0  0  0  0
   -9.3170   -6.6350  -25.0760 C   0  0  0  0  0  0  0  0  0  0  0  0
   -9.1020   -7.9520  -24.8900 F   0  0  0  0  0  0  0  0  0  0  0  0
  -10.5970   -6.5020  -25.4740 F   0  0  0  0  0  0  0  0  0  0  0  0
   -8.5540   -6.2700  -26.1250 F   0  0  0  0  0  0  0  0  0  0  0  0
   -7.5540   -6.0060  -23.3940 C   0  0  0  0  0  0  0  0  0  0  0  0
   -7.2630   -5.1830  -22.1450 C   0  0  0  0  0  0  0  0  0  0  0  0
   -6.2040   -5.2570  -21.8930 H   0  0  0  0  0  0  0  0  0  0  0  0
   -7.8200   -5.6180  -21.3020 H   0  0  0  0  0  0  0  0  0  0  0  0
   -7.3540   -7.0660  -23.1960 H   0  0  0  0  0  0  0  0  0  0  0  0
   -6.8750   -5.7020  -24.1960 H   0  0  0  0  0  0  0  0  0  0  0  0
   -9.6720   -6.1920  -23.0670 H   0  0  0  0  0  0  0  0  0  0  0  0
   -8.6810   -3.9610  -24.8980 H   0  0  0  0  0  0  0  0  0  0  0  0
  -10.3350   -4.1810  -24.3460 H   0  0  0  0  0  0  0  0  0  0  0  0
   -9.0840   -2.4570  -23.0480 H   0  0  0  0  0  0  0  0  0  0  0  0
   -9.7220   -3.7510  -22.0340 H   0  0  0  0  0  0  0  0  0  0  0  0
  1  2  2  0  0  0  0
  2  3  1  0  0  0  0
  2 22  1  0  0  0  0
  3  4  1  0  0  0  0
  3 20  1  0  0  0  0
  3 21  1  0  0  0  0
  4  5  2  0  0  0  0
  4 13  1  0  0  0  0
  5  6  1  0  0  0  0
  5 19  1  0  0  0  0
  6  7  2  0  0  0  0
  7  8  1  0  0  0  0
  7 18  1  0  0  0  0
  8  9  2  0  0  0  0
  8 13  1  0  0  0  0
  9 10  1  0  0  0  0
  9 17  1  0  0  0  0
 10 11  2  0  0  0  0
 10 16  1  0  0  0  0
 11 12  1  0  0  0  0
 11 15  1  0  0  0  0
 12 13  2  0  0  0  0
 12 14  1  0  0  0  0
 22 23  1  0  0  0  0
 22 31  1  0  0  0  0
 23 24  1  0  0  0  0
 23 39  1  0  0  0  0
 23 40  1  0  0  0  0
 24 25  1  0  0  0  0
 24 37  1  0  0  0  0
 24 38  1  0  0  0  0
 25 26  1  0  0  0  0
 25 30  1  0  0  0  0
 25 36  1  0  0  0  0
 26 27  1  0  0  0  0
 26 28  1  0  0  0  0
 26 29  1  0  0  0  0
 30 31  1  0  0  0  0
 30 34  1  0  0  0  0
 30 35  1  0  0  0  0
 31 32  1  0  0  0  0
 31 33  1  0  0  0  0
M  END
>  <MODEL>
       1

$$$$
