tmp_first_model_20_44.pdb
 OpenBabel08282503553D

 60 64  0  0  1  0  0  0  0  0999 V2000
   -5.0100   -3.8970  -19.2800 C   0  0  0  0  0  0  0  0  0  0  0  0
   -5.5820   -4.5980  -20.4080 N   0  0  0  0  0  0  0  0  0  0  0  0
   -5.9770   -5.8900  -20.3700 C   0  0  0  0  0  0  0  0  0  0  0  0
   -5.6510   -6.6830  -19.5000 O   0  0  0  0  0  0  0  0  0  0  0  0
   -6.9320   -6.3340  -21.4930 C   0  0  0  0  0  0  0  0  0  0  0  0
   -7.1490   -5.3720  -22.5580 N   0  0  0  0  0  0  0  0  0  0  0  0
   -8.1220   -4.2970  -22.3860 C   0  0  0  0  0  0  0  0  0  0  0  0
   -7.6990   -2.9840  -23.1000 C   0  0  2  0  0  0  0  0  0  0  0  0
   -6.6640   -2.2230  -22.2420 C   0  0  0  0  0  0  0  0  0  0  0  0
   -5.4720   -2.4620  -22.1880 O   0  0  0  0  0  0  0  0  0  0  0  0
   -7.2950   -1.2620  -21.4770 N   0  0  0  0  0  0  0  0  0  0  0  0
   -6.6530   -0.6450  -20.3830 C   0  0  0  0  0  0  0  0  0  0  0  0
   -7.1680   -0.7740  -19.1140 C   0  0  0  0  0  0  0  0  0  0  0  0
   -6.5310   -0.3700  -17.9920 N   0  0  0  0  0  0  0  0  0  0  0  0
   -5.3670    0.2210  -18.1390 C   0  0  0  0  0  0  0  0  0  0  0  0
   -4.7770    0.5120  -19.4000 C   0  0  0  0  0  0  0  0  0  0  0  0
   -3.5580    1.2290  -19.5000 C   0  0  0  0  0  0  0  0  0  0  0  0
   -3.0560    1.5800  -20.7230 C   0  0  0  0  0  0  0  0  0  0  0  0
   -3.7380    1.2060  -21.8990 C   0  0  0  0  0  0  0  0  0  0  0  0
   -4.9050    0.4870  -21.8330 C   0  0  0  0  0  0  0  0  0  0  0  0
   -5.4410    0.0990  -20.5710 C   0  0  0  0  0  0  0  0  0  0  0  0
   -5.4230    0.2090  -22.7440 H   0  0  0  0  0  0  0  0  0  0  0  0
   -3.3460    1.5050  -22.8650 H   0  0  0  0  0  0  0  0  0  0  0  0
   -2.1410    2.1600  -20.7970 H   0  0  0  0  0  0  0  0  0  0  0  0
   -3.0620    1.5240  -18.5820 H   0  0  0  0  0  0  0  0  0  0  0  0
   -4.8450    0.5290  -17.2330 H   0  0  0  0  0  0  0  0  0  0  0  0
   -8.1280   -1.2630  -18.9440 H   0  0  0  0  0  0  0  0  0  0  0  0
   -8.7470   -1.3390  -21.6380 C   0  0  0  0  0  0  0  0  0  0  0  0
   -8.8560   -1.9330  -23.0510 C   0  0  2  0  0  0  0  0  0  0  0  0
  -10.2480   -2.4090  -23.4320 C   0  0  0  0  0  0  0  0  0  0  0  0
  -10.8710   -2.9850  -22.3040 O   0  0  0  0  0  0  0  0  0  0  0  0
  -12.2570   -3.1390  -22.4500 C   0  0  0  0  0  0  0  0  0  0  0  0
  -12.5080   -3.9880  -23.1010 H   0  0  0  0  0  0  0  0  0  0  0  0
  -12.6700   -3.3160  -21.4550 H   0  0  0  0  0  0  0  0  0  0  0  0
  -12.7100   -2.2250  -22.8630 H   0  0  0  0  0  0  0  0  0  0  0  0
  -10.8500   -1.5540  -23.7840 H   0  0  0  0  0  0  0  0  0  0  0  0
  -10.1830   -3.1330  -24.2650 H   0  0  0  0  0  0  0  0  0  0  0  0
   -8.5690   -1.1330  -23.7420 H   0  0  0  0  0  0  0  0  0  0  0  0
   -9.2020   -2.0120  -20.9000 H   0  0  0  0  0  0  0  0  0  0  0  0
   -9.2040   -0.3530  -21.5420 H   0  0  0  0  0  0  0  0  0  0  0  0
   -7.1630   -3.3240  -24.4770 C   0  0  0  0  0  0  0  0  0  0  0  0
   -6.9630   -2.3150  -25.4340 C   0  0  0  0  0  0  0  0  0  0  0  0
   -6.4860   -2.6320  -26.6960 C   0  0  0  0  0  0  0  0  0  0  0  0
   -6.2400   -1.3610  -27.8640 Cl  0  0  0  0  0  0  0  0  0  0  0  0
   -6.1650   -3.9410  -27.0530 C   0  0  0  0  0  0  0  0  0  0  0  0
   -6.3180   -4.9310  -26.1030 C   0  0  0  0  0  0  0  0  0  0  0  0
   -6.7810   -4.6290  -24.8240 C   0  0  0  0  0  0  0  0  0  0  0  0
   -6.7870   -5.7500  -23.8310 C   0  0  0  0  0  0  0  0  0  0  0  0
   -6.4410   -6.8850  -24.1150 O   0  0  0  0  0  0  0  0  0  0  0  0
   -6.0660   -5.9620  -26.3140 H   0  0  0  0  0  0  0  0  0  0  0  0
   -5.7920   -4.1570  -28.0500 H   0  0  0  0  0  0  0  0  0  0  0  0
   -7.1740   -1.2760  -25.1980 H   0  0  0  0  0  0  0  0  0  0  0  0
   -8.2420   -4.0930  -21.3250 H   0  0  0  0  0  0  0  0  0  0  0  0
   -9.0990   -4.6040  -22.7820 H   0  0  0  0  0  0  0  0  0  0  0  0
   -6.5080   -7.2300  -21.9490 H   0  0  0  0  0  0  0  0  0  0  0  0
   -7.8850   -6.6400  -21.0390 H   0  0  0  0  0  0  0  0  0  0  0  0
   -5.5480   -4.1190  -21.3050 H   0  0  0  0  0  0  0  0  0  0  0  0
   -4.0160   -3.5030  -19.5240 H   0  0  0  0  0  0  0  0  0  0  0  0
   -5.6320   -3.0420  -18.9870 H   0  0  0  0  0  0  0  0  0  0  0  0
   -4.9720   -4.5760  -18.4270 H   0  0  0  0  0  0  0  0  0  0  0  0
  1  2  1  0  0  0  0
  1 58  1  0  0  0  0
  1 59  1  0  0  0  0
  1 60  1  0  0  0  0
  2  3  1  0  0  0  0
  2 57  1  0  0  0  0
  3  4  2  0  0  0  0
  3  5  1  0  0  0  0
  5  6  1  0  0  0  0
  5 55  1  0  0  0  0
  5 56  1  0  0  0  0
  6  7  1  0  0  0  0
  6 48  1  0  0  0  0
  7  8  1  0  0  0  0
  7 53  1  0  0  0  0
  7 54  1  0  0  0  0
  8  9  1  1  0  0  0
  8 29  1  0  0  0  0
  8 41  1  0  0  0  0
  9 10  2  0  0  0  0
  9 11  1  0  0  0  0
 11 12  1  0  0  0  0
 11 28  1  0  0  0  0
 12 13  2  0  0  0  0
 12 21  1  0  0  0  0
 13 14  1  0  0  0  0
 13 27  1  0  0  0  0
 14 15  2  0  0  0  0
 15 16  1  0  0  0  0
 15 26  1  0  0  0  0
 16 17  2  0  0  0  0
 16 21  1  0  0  0  0
 17 18  1  0  0  0  0
 17 25  1  0  0  0  0
 18 19  2  0  0  0  0
 18 24  1  0  0  0  0
 19 20  1  0  0  0  0
 19 23  1  0  0  0  0
 20 21  2  0  0  0  0
 20 22  1  0  0  0  0
 28 29  1  0  0  0  0
 28 39  1  0  0  0  0
 28 40  1  0  0  0  0
 29 30  1  0  0  0  0
 29 38  1  6  0  0  0
 30 31  1  0  0  0  0
 30 36  1  0  0  0  0
 30 37  1  0  0  0  0
 31 32  1  0  0  0  0
 32 33  1  0  0  0  0
 32 34  1  0  0  0  0
 32 35  1  0  0  0  0
 41 42  2  0  0  0  0
 41 47  1  0  0  0  0
 42 43  1  0  0  0  0
 42 52  1  0  0  0  0
 43 44  1  0  0  0  0
 43 45  2  0  0  0  0
 45 46  1  0  0  0  0
 45 51  1  0  0  0  0
 46 47  2  0  0  0  0
 46 50  1  0  0  0  0
 47 48  1  0  0  0  0
 48 49  2  0  0  0  0
M  END
>  <MODEL>
       1

$$$$
