tmp_first_model_17_53.pdb
 OpenBabel08282502223D

 59 63  0  0  1  0  0  0  0  0999 V2000
   -7.6480    3.4990  -21.9390 C   0  0  0  0  0  0  0  0  0  0  0  0
   -7.4890    3.6940  -22.1250 C   0  0  0  0  0  0  0  0  0  0  0  0
   -8.2320    3.0580  -23.1970 N   0  0  0  0  0  0  0  0  0  0  0  0
   -7.5580    2.3200  -24.0450 C   0  0  0  0  0  0  0  0  0  0  0  0
   -6.3380    2.1560  -24.0150 O   0  0  0  0  0  0  0  0  0  0  0  0
   -8.4520    1.6450  -25.0900 C   0  0  0  0  0  0  0  0  0  0  0  0
   -9.1860    0.5330  -24.5000 N   0  0  0  0  0  0  0  0  0  0  0  0
   -8.4880   -0.7230  -24.2920 C   0  0  0  0  0  0  0  0  0  0  0  0
   -8.9280   -1.4600  -22.9980 C   0  0  2  0  0  0  0  0  0  0  0  0
   -8.4460   -0.7140  -21.7410 C   0  0  0  0  0  0  0  0  0  0  0  0
   -8.9290    0.3040  -21.2820 O   0  0  0  0  0  0  0  0  0  0  0  0
   -7.3940   -1.3940  -21.1890 N   0  0  0  0  0  0  0  0  0  0  0  0
   -6.6250   -0.8070  -20.1530 C   0  0  0  0  0  0  0  0  0  0  0  0
   -6.9630   -1.0190  -18.8420 C   0  0  0  0  0  0  0  0  0  0  0  0
   -6.2670   -0.5310  -17.7850 N   0  0  0  0  0  0  0  0  0  0  0  0
   -5.2120    0.2030  -18.0470 C   0  0  0  0  0  0  0  0  0  0  0  0
   -4.7670    0.5290  -19.3610 C   0  0  0  0  0  0  0  0  0  0  0  0
   -3.6340    1.3500  -19.6010 C   0  0  0  0  0  0  0  0  0  0  0  0
   -3.2520    1.6520  -20.8790 C   0  0  0  0  0  0  0  0  0  0  0  0
   -3.9930    1.1650  -21.9790 C   0  0  0  0  0  0  0  0  0  0  0  0
   -5.1010    0.3790  -21.7750 C   0  0  0  0  0  0  0  0  0  0  0  0
   -5.5040    0.0230  -20.4570 C   0  0  0  0  0  0  0  0  0  0  0  0
   -5.6930    0.0570  -22.6260 H   0  0  0  0  0  0  0  0  0  0  0  0
   -3.6930    1.4210  -22.9910 H   0  0  0  0  0  0  0  0  0  0  0  0
   -2.3770    2.2710  -21.0600 H   0  0  0  0  0  0  0  0  0  0  0  0
   -3.0870    1.7380  -18.7470 H   0  0  0  0  0  0  0  0  0  0  0  0
   -4.6490    0.5890  -17.1950 H   0  0  0  0  0  0  0  0  0  0  0  0
   -7.8410   -1.6170  -18.6060 H   0  0  0  0  0  0  0  0  0  0  0  0
   -7.0130   -2.5860  -21.9190 C   0  0  0  0  0  0  0  0  0  0  0  0
   -8.2240   -2.8390  -22.8420 C   0  0  2  0  0  0  0  0  0  0  0  0
   -7.8710   -3.5710  -24.1350 C   0  0  0  0  0  0  0  0  0  0  0  0
   -7.1150   -3.0210  -24.7090 H   0  0  0  0  0  0  0  0  0  0  0  0
   -7.4680   -4.5680  -23.9270 H   0  0  0  0  0  0  0  0  0  0  0  0
   -8.7560   -3.6930  -24.7720 H   0  0  0  0  0  0  0  0  0  0  0  0
   -8.9150   -3.4740  -22.2830 H   0  0  0  0  0  0  0  0  0  0  0  0
   -6.8380   -3.4160  -21.2260 H   0  0  0  0  0  0  0  0  0  0  0  0
   -6.0870   -2.4260  -22.4920 H   0  0  0  0  0  0  0  0  0  0  0  0
  -10.4380   -1.4730  -22.9290 C   0  0  0  0  0  0  0  0  0  0  0  0
  -11.0870   -2.3280  -22.0350 C   0  0  0  0  0  0  0  0  0  0  0  0
  -12.4590   -2.2670  -21.8920 C   0  0  0  0  0  0  0  0  0  0  0  0
  -13.1870   -3.1530  -20.5810 Cl  0  0  0  0  0  0  0  0  0  0  0  0
  -13.2290   -1.3920  -22.6610 C   0  0  0  0  0  0  0  0  0  0  0  0
  -12.5810   -0.4830  -23.4760 C   0  0  0  0  0  0  0  0  0  0  0  0
  -11.1880   -0.4640  -23.5440 C   0  0  0  0  0  0  0  0  0  0  0  0
  -10.4880    0.7220  -24.1460 C   0  0  0  0  0  0  0  0  0  0  0  0
  -11.0270    1.8200  -24.2700 O   0  0  0  0  0  0  0  0  0  0  0  0
  -13.1390    0.2580  -24.0370 H   0  0  0  0  0  0  0  0  0  0  0  0
  -14.3070   -1.3900  -22.5560 H   0  0  0  0  0  0  0  0  0  0  0  0
  -10.5370   -3.0060  -21.3920 H   0  0  0  0  0  0  0  0  0  0  0  0
   -7.4180   -0.5010  -24.2380 H   0  0  0  0  0  0  0  0  0  0  0  0
   -8.6630   -1.3700  -25.1600 H   0  0  0  0  0  0  0  0  0  0  0  0
   -9.1840    2.3720  -25.4440 H   0  0  0  0  0  0  0  0  0  0  0  0
   -7.8590    1.3140  -25.9480 H   0  0  0  0  0  0  0  0  0  0  0  0
   -9.2400    2.9150  -23.2110 H   0  0  0  0  0  0  0  0  0  0  0  0
   -6.6400    4.8020  -22.8120 H   0  0  0  0  0  0  0  0  0  0  0  0
   -8.4010    4.4420  -21.8170 H   0  0  0  0  0  0  0  0  0  0  0  0
   -8.3490    2.5470  -20.9190 H   0  0  0  0  0  0  0  0  0  0  0  0
   -7.0270    4.0910  -20.9960 H   0  0  0  0  0  0  0  0  0  0  0  0
   -6.6330    2.8450  -22.0190 H   0  0  0  0  0  0  0  0  0  0  0  0
  1  2  1  0  0  0  0
  1 57  1  0  0  0  0
  1 58  1  0  0  0  0
  1 59  1  0  0  0  0
  2  3  1  0  0  0  0
  2 55  1  0  0  0  0
  2 56  1  0  0  0  0
  3  4  1  0  0  0  0
  3 54  1  0  0  0  0
  4  5  2  0  0  0  0
  4  6  1  0  0  0  0
  6  7  1  0  0  0  0
  6 52  1  0  0  0  0
  6 53  1  0  0  0  0
  7  8  1  0  0  0  0
  7 45  1  0  0  0  0
  8  9  1  0  0  0  0
  8 50  1  0  0  0  0
  8 51  1  0  0  0  0
  9 10  1  1  0  0  0
  9 30  1  0  0  0  0
  9 38  1  0  0  0  0
 10 11  2  0  0  0  0
 10 12  1  0  0  0  0
 12 13  1  0  0  0  0
 12 29  1  0  0  0  0
 13 14  2  0  0  0  0
 13 22  1  0  0  0  0
 14 15  1  0  0  0  0
 14 28  1  0  0  0  0
 15 16  2  0  0  0  0
 16 17  1  0  0  0  0
 16 27  1  0  0  0  0
 17 18  2  0  0  0  0
 17 22  1  0  0  0  0
 18 19  1  0  0  0  0
 18 26  1  0  0  0  0
 19 20  2  0  0  0  0
 19 25  1  0  0  0  0
 20 21  1  0  0  0  0
 20 24  1  0  0  0  0
 21 22  2  0  0  0  0
 21 23  1  0  0  0  0
 29 30  1  0  0  0  0
 29 36  1  0  0  0  0
 29 37  1  0  0  0  0
 30 31  1  0  0  0  0
 30 35  1  1  0  0  0
 31 32  1  0  0  0  0
 31 33  1  0  0  0  0
 31 34  1  0  0  0  0
 38 39  2  0  0  0  0
 38 44  1  0  0  0  0
 39 40  1  0  0  0  0
 39 49  1  0  0  0  0
 40 41  1  0  0  0  0
 40 42  2  0  0  0  0
 42 43  1  0  0  0  0
 42 48  1  0  0  0  0
 43 44  2  0  0  0  0
 43 47  1  0  0  0  0
 44 45  1  0  0  0  0
 45 46  2  0  0  0  0
M  END
>  <MODEL>
       1

$$$$
