tmp_first_model_16_60.pdb
 OpenBabel08282501503D

 62 67  0  0  1  0  0  0  0  0999 V2000
  -11.3130    4.3000  -25.2280 C   0  0  0  0  0  0  0  0  0  0  0  0
   -9.8250    4.1620  -25.5240 C   0  0  0  0  0  0  0  0  0  0  0  0
   -9.0620    3.5820  -24.4280 N   0  0  0  0  0  0  0  0  0  0  0  0
   -8.4850    4.4140  -23.5460 N   0  0  0  0  0  0  0  0  0  0  0  0
   -7.9020    3.6250  -22.6550 C   0  0  0  0  0  0  0  0  0  0  0  0
   -8.1090    2.2650  -22.9600 C   0  0  0  0  0  0  0  0  0  0  0  0
   -8.8690    2.2710  -24.1080 C   0  0  0  0  0  0  0  0  0  0  0  0
   -9.3690    1.1090  -24.9250 C   0  0  0  0  0  0  0  0  0  0  0  0
   -9.8350    0.0140  -24.1020 N   0  0  0  0  0  0  0  0  0  0  0  0
   -9.0210   -1.1810  -23.9820 C   0  0  0  0  0  0  0  0  0  0  0  0
   -9.2210   -1.9010  -22.6300 C   0  0  2  0  0  0  0  0  0  0  0  0
   -8.6690   -1.0250  -21.4870 C   0  0  0  0  0  0  0  0  0  0  0  0
   -9.2470   -0.1190  -20.9170 O   0  0  0  0  0  0  0  0  0  0  0  0
   -7.3800   -1.4180  -21.2290 N   0  0  0  0  0  0  0  0  0  0  0  0
   -6.6160   -0.8430  -20.1890 C   0  0  0  0  0  0  0  0  0  0  0  0
   -6.9280   -1.1040  -18.8790 C   0  0  0  0  0  0  0  0  0  0  0  0
   -6.1630   -0.7210  -17.8270 N   0  0  0  0  0  0  0  0  0  0  0  0
   -5.1010    0.0050  -18.0860 C   0  0  0  0  0  0  0  0  0  0  0  0
   -4.7200    0.4300  -19.3930 C   0  0  0  0  0  0  0  0  0  0  0  0
   -3.6210    1.3040  -19.6220 C   0  0  0  0  0  0  0  0  0  0  0  0
   -3.2570    1.6380  -20.8960 C   0  0  0  0  0  0  0  0  0  0  0  0
   -3.9750    1.1340  -22.0020 C   0  0  0  0  0  0  0  0  0  0  0  0
   -5.0670    0.3210  -21.8060 C   0  0  0  0  0  0  0  0  0  0  0  0
   -5.4730   -0.0410  -20.4920 C   0  0  0  0  0  0  0  0  0  0  0  0
   -5.6170   -0.0500  -22.6660 H   0  0  0  0  0  0  0  0  0  0  0  0
   -3.6590    1.3920  -23.0090 H   0  0  0  0  0  0  0  0  0  0  0  0
   -2.4050    2.2910  -21.0720 H   0  0  0  0  0  0  0  0  0  0  0  0
   -3.0940    1.7140  -18.7630 H   0  0  0  0  0  0  0  0  0  0  0  0
   -4.4740    0.3020  -17.2420 H   0  0  0  0  0  0  0  0  0  0  0  0
   -7.8320   -1.6620  -18.6430 H   0  0  0  0  0  0  0  0  0  0  0  0
   -6.9750   -2.6080  -21.9520 C   0  0  0  0  0  0  0  0  0  0  0  0
   -8.3030   -3.1530  -22.5120 C   0  0  2  0  0  0  0  0  0  0  0  0
   -8.1090   -3.9840  -23.7780 C   0  0  0  0  0  0  0  0  0  0  0  0
   -7.5660   -3.4110  -24.5390 H   0  0  0  0  0  0  0  0  0  0  0  0
   -7.5140   -4.8790  -23.5670 H   0  0  0  0  0  0  0  0  0  0  0  0
   -9.0620   -4.3060  -24.2110 H   0  0  0  0  0  0  0  0  0  0  0  0
   -8.7320   -3.7860  -21.7280 H   0  0  0  0  0  0  0  0  0  0  0  0
   -6.4760   -3.3130  -21.2780 H   0  0  0  0  0  0  0  0  0  0  0  0
   -6.2700   -2.3580  -22.7560 H   0  0  0  0  0  0  0  0  0  0  0  0
  -10.7110   -2.1080  -22.4490 C   0  0  0  0  0  0  0  0  0  0  0  0
  -11.2420   -3.1340  -21.6620 C   0  0  0  0  0  0  0  0  0  0  0  0
  -12.5920   -3.1260  -21.3540 C   0  0  0  0  0  0  0  0  0  0  0  0
  -13.0480   -3.9750  -20.4270 F   0  0  0  0  0  0  0  0  0  0  0  0
  -13.5060   -2.2360  -21.9180 C   0  0  0  0  0  0  0  0  0  0  0  0
  -12.9810   -1.2240  -22.7020 C   0  0  0  0  0  0  0  0  0  0  0  0
  -11.6100   -1.1440  -22.9370 C   0  0  0  0  0  0  0  0  0  0  0  0
  -11.1340    0.0530  -23.6910 C   0  0  0  0  0  0  0  0  0  0  0  0
  -11.8780    1.0030  -23.9210 O   0  0  0  0  0  0  0  0  0  0  0  0
  -13.6050   -0.4460  -23.1270 H   0  0  0  0  0  0  0  0  0  0  0  0
  -14.5730   -2.3360  -21.7280 H   0  0  0  0  0  0  0  0  0  0  0  0
  -10.6280   -3.9310  -21.2540 H   0  0  0  0  0  0  0  0  0  0  0  0
   -9.2780   -1.8850  -24.7810 H   0  0  0  0  0  0  0  0  0  0  0  0
   -7.9700   -0.8970  -24.0980 H   0  0  0  0  0  0  0  0  0  0  0  0
  -10.2070    1.4170  -25.5580 H   0  0  0  0  0  0  0  0  0  0  0  0
   -8.5720    0.7220  -25.5770 H   0  0  0  0  0  0  0  0  0  0  0  0
   -7.7810    1.3860  -22.4200 H   0  0  0  0  0  0  0  0  0  0  0  0
   -7.3670    4.0800  -21.8290 H   0  0  0  0  0  0  0  0  0  0  0  0
   -9.3770    5.1420  -25.6940 H   0  0  0  0  0  0  0  0  0  0  0  0
   -9.6600    3.5600  -26.4250 H   0  0  0  0  0  0  0  0  0  0  0  0
  -11.7670    3.3230  -25.0340 H   0  0  0  0  0  0  0  0  0  0  0  0
  -11.4820    4.9410  -24.3580 H   0  0  0  0  0  0  0  0  0  0  0  0
  -11.8130    4.7570  -26.0880 H   0  0  0  0  0  0  0  0  0  0  0  0
  1  2  1  0  0  0  0
  1 60  1  0  0  0  0
  1 61  1  0  0  0  0
  1 62  1  0  0  0  0
  2  3  1  0  0  0  0
  2 58  1  0  0  0  0
  2 59  1  0  0  0  0
  3  4  1  0  0  0  0
  3  7  1  0  0  0  0
  4  5  2  0  0  0  0
  5  6  1  0  0  0  0
  5 57  1  0  0  0  0
  6  7  2  0  0  0  0
  6 56  1  0  0  0  0
  7  8  1  0  0  0  0
  8  9  1  0  0  0  0
  8 54  1  0  0  0  0
  8 55  1  0  0  0  0
  9 10  1  0  0  0  0
  9 47  1  0  0  0  0
 10 11  1  0  0  0  0
 10 52  1  0  0  0  0
 10 53  1  0  0  0  0
 11 12  1  1  0  0  0
 11 32  1  0  0  0  0
 11 40  1  0  0  0  0
 12 13  2  0  0  0  0
 12 14  1  0  0  0  0
 14 15  1  0  0  0  0
 14 31  1  0  0  0  0
 15 16  2  0  0  0  0
 15 24  1  0  0  0  0
 16 17  1  0  0  0  0
 16 30  1  0  0  0  0
 17 18  2  0  0  0  0
 18 19  1  0  0  0  0
 18 29  1  0  0  0  0
 19 20  2  0  0  0  0
 19 24  1  0  0  0  0
 20 21  1  0  0  0  0
 20 28  1  0  0  0  0
 21 22  2  0  0  0  0
 21 27  1  0  0  0  0
 22 23  1  0  0  0  0
 22 26  1  0  0  0  0
 23 24  2  0  0  0  0
 23 25  1  0  0  0  0
 31 32  1  0  0  0  0
 31 38  1  0  0  0  0
 31 39  1  0  0  0  0
 32 33  1  0  0  0  0
 32 37  1  1  0  0  0
 33 34  1  0  0  0  0
 33 35  1  0  0  0  0
 33 36  1  0  0  0  0
 40 41  2  0  0  0  0
 40 46  1  0  0  0  0
 41 42  1  0  0  0  0
 41 51  1  0  0  0  0
 42 43  1  0  0  0  0
 42 44  2  0  0  0  0
 44 45  1  0  0  0  0
 44 50  1  0  0  0  0
 45 46  2  0  0  0  0
 45 49  1  0  0  0  0
 46 47  1  0  0  0  0
 47 48  2  0  0  0  0
M  END
>  <MODEL>
       1

$$$$
