tmp_first_model_11_79.pdb
 OpenBabel08272522543D

 45 49  0  0  0  0  0  0  0  0999 V2000
   -7.3090   -4.0840  -23.6490 C   0  0  0  0  0  0  0  0  0  0  0  0
   -7.4510   -2.9880  -22.7260 N   0  0  0  0  0  0  0  0  0  0  0  0
   -6.4400   -2.5300  -21.9250 C   0  0  0  0  0  0  0  0  0  0  0  0
   -5.3110   -2.9560  -21.8260 O   0  0  0  0  0  0  0  0  0  0  0  0
   -6.9750   -1.4360  -21.2170 N   0  0  0  0  0  0  0  0  0  0  0  0
   -6.2830   -0.7830  -20.1640 C   0  0  0  0  0  0  0  0  0  0  0  0
   -6.6690   -0.9930  -18.8650 C   0  0  0  0  0  0  0  0  0  0  0  0
   -6.0490   -0.4610  -17.7830 N   0  0  0  0  0  0  0  0  0  0  0  0
   -5.0130    0.3120  -18.0100 C   0  0  0  0  0  0  0  0  0  0  0  0
   -4.5150    0.6210  -19.3070 C   0  0  0  0  0  0  0  0  0  0  0  0
   -3.3950    1.4740  -19.4930 C   0  0  0  0  0  0  0  0  0  0  0  0
   -2.9820    1.8030  -20.7550 C   0  0  0  0  0  0  0  0  0  0  0  0
   -3.6560    1.2920  -21.8870 C   0  0  0  0  0  0  0  0  0  0  0  0
   -4.7290    0.4460  -21.7340 C   0  0  0  0  0  0  0  0  0  0  0  0
   -5.1750    0.0790  -20.4320 C   0  0  0  0  0  0  0  0  0  0  0  0
   -5.2500    0.0660  -22.6070 H   0  0  0  0  0  0  0  0  0  0  0  0
   -3.3310    1.5840  -22.8830 H   0  0  0  0  0  0  0  0  0  0  0  0
   -2.1410    2.4770  -20.8970 H   0  0  0  0  0  0  0  0  0  0  0  0
   -2.9050    1.8810  -18.6120 H   0  0  0  0  0  0  0  0  0  0  0  0
   -4.5170    0.7440  -17.1410 H   0  0  0  0  0  0  0  0  0  0  0  0
   -7.5220   -1.6350  -18.6570 H   0  0  0  0  0  0  0  0  0  0  0  0
   -8.3270   -1.2470  -21.4900 C   0  0  0  0  0  0  0  0  0  0  0  0
   -9.0140   -0.3510  -21.0570 O   0  0  0  0  0  0  0  0  0  0  0  0
   -8.7180   -2.3990  -22.3920 C   0  0  0  0  0  0  0  0  0  0  0  0
   -9.7710   -3.3320  -21.7480 C   0  0  0  0  0  0  0  0  0  0  0  0
  -10.7840   -2.7580  -22.6440 N   0  0  0  0  0  0  0  0  0  0  0  0
  -12.0230   -3.7030  -23.2050 S   0  0  0  0  0  0  0  0  0  0  0  0
  -13.0080   -3.8610  -22.1470 O   0  0  0  0  0  0  0  0  0  0  0  0
  -11.5660   -4.8240  -24.0110 O   0  0  0  0  0  0  0  0  0  0  0  0
  -14.1970   -3.7220  -25.1820 C   0  0  0  0  0  0  0  0  0  0  0  0
  -13.3280   -2.9400  -25.7740 C   0  0  0  0  0  0  0  0  0  0  0  0
  -14.4460   -3.7080  -25.2350 C   0  0  0  0  0  0  0  0  0  0  0  0
  -14.1720   -4.9680  -25.2970 H   0  0  0  0  0  0  0  0  0  0  0  0
  -15.9500   -3.6680  -25.8100 H   0  0  0  0  0  0  0  0  0  0  0  0
  -12.6400   -3.0460  -26.6330 H   0  0  0  0  0  0  0  0  0  0  0  0
  -13.7750   -2.2130  -25.3010 H   0  0  0  0  0  0  0  0  0  0  0  0
  -14.4380   -3.5690  -23.9720 H   0  0  0  0  0  0  0  0  0  0  0  0
   -9.7690   -2.0700  -23.4710 C   0  0  0  0  0  0  0  0  0  0  0  0
   -9.5660   -2.5580  -24.4350 H   0  0  0  0  0  0  0  0  0  0  0  0
   -9.9870   -1.0050  -23.6040 H   0  0  0  0  0  0  0  0  0  0  0  0
   -9.5870   -4.4030  -21.8980 H   0  0  0  0  0  0  0  0  0  0  0  0
   -9.9320   -3.1400  -20.6960 H   0  0  0  0  0  0  0  0  0  0  0  0
   -7.6470   -3.7900  -24.6490 H   0  0  0  0  0  0  0  0  0  0  0  0
   -7.8860   -4.9580  -23.3240 H   0  0  0  0  0  0  0  0  0  0  0  0
   -6.2510   -4.3470  -23.6810 H   0  0  0  0  0  0  0  0  0  0  0  0
  1  2  1  0  0  0  0
  1 43  1  0  0  0  0
  1 44  1  0  0  0  0
  1 45  1  0  0  0  0
  2  3  1  0  0  0  0
  2 24  1  0  0  0  0
  3  4  2  0  0  0  0
  3  5  1  0  0  0  0
  5  6  1  0  0  0  0
  5 22  1  0  0  0  0
  6  7  2  0  0  0  0
  6 15  1  0  0  0  0
  7  8  1  0  0  0  0
  7 21  1  0  0  0  0
  8  9  2  0  0  0  0
  9 10  1  0  0  0  0
  9 20  1  0  0  0  0
 10 11  2  0  0  0  0
 10 15  1  0  0  0  0
 11 12  1  0  0  0  0
 11 19  1  0  0  0  0
 12 13  2  0  0  0  0
 12 18  1  0  0  0  0
 13 14  1  0  0  0  0
 13 17  1  0  0  0  0
 14 15  2  0  0  0  0
 14 16  1  0  0  0  0
 22 23  2  0  0  0  0
 22 24  1  0  0  0  0
 24 25  1  0  0  0  0
 24 38  1  0  0  0  0
 25 26  1  0  0  0  0
 25 41  1  0  0  0  0
 25 42  1  0  0  0  0
 26 27  1  0  0  0  0
 26 38  1  0  0  0  0
 27 28  2  0  0  0  0
 27 29  2  0  0  0  0
 27 30  1  0  0  0  0
 30 31  1  0  0  0  0
 30 32  1  0  0  0  0
 30 37  1  0  0  0  0
 31 32  1  0  0  0  0
 31 35  1  0  0  0  0
 31 36  1  0  0  0  0
 32 33  1  0  0  0  0
 32 34  1  0  0  0  0
 38 39  1  0  0  0  0
 38 40  1  0  0  0  0
M  END
>  <MODEL>
       1

$$$$
