tmp_first_model_16_48.pdb
 OpenBabel08282501503D

 46 48  0  0  0  0  0  0  0  0999 V2000
  -13.6440   -2.9840  -24.5880 C   0  0  0  0  0  0  0  0  0  0  0  0
  -13.4850   -2.7260  -23.0850 C   0  0  0  0  0  0  0  0  0  0  0  0
  -13.7370   -4.0280  -22.3190 C   0  0  0  0  0  0  0  0  0  0  0  0
  -13.6390   -3.9000  -21.2350 H   0  0  0  0  0  0  0  0  0  0  0  0
  -14.7400   -4.4220  -22.5210 H   0  0  0  0  0  0  0  0  0  0  0  0
  -13.0160   -4.7850  -22.6430 H   0  0  0  0  0  0  0  0  0  0  0  0
  -12.1290   -2.0920  -22.6770 C   0  0  0  0  0  0  0  0  0  0  0  0
  -10.9090   -3.0300  -22.8560 C   0  0  0  0  0  0  0  0  0  0  0  0
   -9.6310   -2.2480  -23.2070 C   0  0  0  0  0  0  0  0  0  0  0  0
   -9.5810   -0.9570  -22.5260 N   0  0  0  0  0  0  0  0  0  0  0  0
   -8.5330   -0.4410  -21.8140 C   0  0  0  0  0  0  0  0  0  0  0  0
   -8.4510    0.7480  -21.5460 O   0  0  0  0  0  0  0  0  0  0  0  0
   -7.4800   -1.4310  -21.3030 C   0  0  0  0  0  0  0  0  0  0  0  0
   -6.6210   -0.8420  -20.2140 C   0  0  0  0  0  0  0  0  0  0  0  0
   -6.9220   -1.0980  -18.9030 C   0  0  0  0  0  0  0  0  0  0  0  0
   -6.1660   -0.7340  -17.8340 N   0  0  0  0  0  0  0  0  0  0  0  0
   -5.0930   -0.0150  -18.0850 C   0  0  0  0  0  0  0  0  0  0  0  0
   -4.7170    0.4270  -19.3870 C   0  0  0  0  0  0  0  0  0  0  0  0
   -3.6150    1.3010  -19.6060 C   0  0  0  0  0  0  0  0  0  0  0  0
   -3.2430    1.6340  -20.8830 C   0  0  0  0  0  0  0  0  0  0  0  0
   -3.9590    1.1290  -21.9900 C   0  0  0  0  0  0  0  0  0  0  0  0
   -5.0580    0.3270  -21.7990 C   0  0  0  0  0  0  0  0  0  0  0  0
   -5.4780   -0.0280  -20.4870 C   0  0  0  0  0  0  0  0  0  0  0  0
   -5.6110   -0.0400  -22.6540 H   0  0  0  0  0  0  0  0  0  0  0  0
   -3.6260    1.3770  -22.9960 H   0  0  0  0  0  0  0  0  0  0  0  0
   -2.3870    2.2810  -21.0520 H   0  0  0  0  0  0  0  0  0  0  0  0
   -3.0950    1.7120  -18.7440 H   0  0  0  0  0  0  0  0  0  0  0  0
   -4.4590    0.2420  -17.2350 H   0  0  0  0  0  0  0  0  0  0  0  0
   -7.8220   -1.6700  -18.6620 H   0  0  0  0  0  0  0  0  0  0  0  0
   -8.0090   -2.2970  -20.8860 H   0  0  0  0  0  0  0  0  0  0  0  0
   -6.8700   -1.8160  -22.1350 H   0  0  0  0  0  0  0  0  0  0  0  0
  -10.6350   -0.0140  -22.8860 C   0  0  0  0  0  0  0  0  0  0  0  0
  -11.8950   -0.7410  -23.3720 C   0  0  0  0  0  0  0  0  0  0  0  0
  -11.7850   -0.9210  -24.4510 H   0  0  0  0  0  0  0  0  0  0  0  0
  -12.7680   -0.0860  -23.2290 H   0  0  0  0  0  0  0  0  0  0  0  0
  -10.8230    0.5940  -21.9940 H   0  0  0  0  0  0  0  0  0  0  0  0
  -10.2600    0.6750  -23.6570 H   0  0  0  0  0  0  0  0  0  0  0  0
   -9.6170   -2.0770  -24.2950 H   0  0  0  0  0  0  0  0  0  0  0  0
   -8.7400   -2.8280  -22.9570 H   0  0  0  0  0  0  0  0  0  0  0  0
  -10.7660   -3.6120  -21.9320 H   0  0  0  0  0  0  0  0  0  0  0  0
  -11.0810   -3.7580  -23.6620 H   0  0  0  0  0  0  0  0  0  0  0  0
  -12.2150   -1.8900  -21.6000 H   0  0  0  0  0  0  0  0  0  0  0  0
  -14.2570   -1.9960  -22.7930 H   0  0  0  0  0  0  0  0  0  0  0  0
  -12.8740   -3.6720  -24.9640 H   0  0  0  0  0  0  0  0  0  0  0  0
  -14.6170   -3.4510  -24.7910 H   0  0  0  0  0  0  0  0  0  0  0  0
  -13.5970   -2.0620  -25.1760 H   0  0  0  0  0  0  0  0  0  0  0  0
  1  2  1  0  0  0  0
  1 44  1  0  0  0  0
  1 45  1  0  0  0  0
  1 46  1  0  0  0  0
  2  3  1  0  0  0  0
  2  7  1  0  0  0  0
  2 43  1  0  0  0  0
  3  4  1  0  0  0  0
  3  5  1  0  0  0  0
  3  6  1  0  0  0  0
  7  8  1  0  0  0  0
  7 33  1  0  0  0  0
  7 42  1  0  0  0  0
  8  9  1  0  0  0  0
  8 40  1  0  0  0  0
  8 41  1  0  0  0  0
  9 10  1  0  0  0  0
  9 38  1  0  0  0  0
  9 39  1  0  0  0  0
 10 11  1  0  0  0  0
 10 32  1  0  0  0  0
 11 12  2  0  0  0  0
 11 13  1  0  0  0  0
 13 14  1  0  0  0  0
 13 30  1  0  0  0  0
 13 31  1  0  0  0  0
 14 15  2  0  0  0  0
 14 23  1  0  0  0  0
 15 16  1  0  0  0  0
 15 29  1  0  0  0  0
 16 17  2  0  0  0  0
 17 18  1  0  0  0  0
 17 28  1  0  0  0  0
 18 19  2  0  0  0  0
 18 23  1  0  0  0  0
 19 20  1  0  0  0  0
 19 27  1  0  0  0  0
 20 21  2  0  0  0  0
 20 26  1  0  0  0  0
 21 22  1  0  0  0  0
 21 25  1  0  0  0  0
 22 23  2  0  0  0  0
 22 24  1  0  0  0  0
 32 33  1  0  0  0  0
 32 36  1  0  0  0  0
 32 37  1  0  0  0  0
 33 34  1  0  0  0  0
 33 35  1  0  0  0  0
M  END
>  <MODEL>
       1

$$$$
