tmp_first_model_20_82.pdb
 OpenBabel08282503553D

 54 57  0  0  1  0  0  0  0  0999 V2000
  -10.6580    0.3810  -25.3300 C   0  0  0  0  0  0  0  0  0  0  0  0
   -9.7870   -0.5990  -24.8330 O   0  0  0  0  0  0  0  0  0  0  0  0
   -8.4780   -0.5210  -25.1870 C   0  0  0  0  0  0  0  0  0  0  0  0
   -7.9510    0.5030  -25.9760 C   0  0  0  0  0  0  0  0  0  0  0  0
   -6.5840    0.5340  -26.2400 C   0  0  0  0  0  0  0  0  0  0  0  0
   -5.7610   -0.4570  -25.7240 C   0  0  0  0  0  0  0  0  0  0  0  0
   -6.3050   -1.4780  -24.9440 C   0  0  0  0  0  0  0  0  0  0  0  0
   -7.6640   -1.5480  -24.6730 C   0  0  0  0  0  0  0  0  0  0  0  0
   -8.3050   -2.6630  -23.8350 C   0  0  1  0  0  0  0  0  0  0  0  0
   -9.1480   -3.6450  -24.6850 C   0  0  0  0  0  0  0  0  0  0  0  0
   -8.4070   -4.8550  -25.2700 C   0  0  1  0  0  0  0  0  0  0  0  0
   -7.5040   -4.5300  -26.4650 C   0  0  0  0  0  0  0  0  0  0  0  0
   -6.6810   -3.8630  -26.1910 H   0  0  0  0  0  0  0  0  0  0  0  0
   -7.0700   -5.4460  -26.8850 H   0  0  0  0  0  0  0  0  0  0  0  0
   -8.0760   -4.0370  -27.2600 H   0  0  0  0  0  0  0  0  0  0  0  0
   -7.6730   -5.5500  -24.1200 C   0  0  0  0  0  0  0  0  0  0  0  0
   -6.7140   -4.6060  -23.4040 C   0  0  0  0  0  0  0  0  0  0  0  0
   -7.3610   -3.3670  -22.9600 N   0  0  0  0  0  0  0  0  0  0  0  0
   -6.7460   -2.7480  -21.8890 C   0  0  0  0  0  0  0  0  0  0  0  0
   -5.7250   -3.2070  -21.4020 O   0  0  0  0  0  0  0  0  0  0  0  0
   -7.3970   -1.4840  -21.2900 C   0  0  0  0  0  0  0  0  0  0  0  0
   -6.5740   -0.8510  -20.1950 C   0  0  0  0  0  0  0  0  0  0  0  0
   -6.8800   -1.0580  -18.8730 C   0  0  0  0  0  0  0  0  0  0  0  0
   -6.2050   -0.5420  -17.8090 N   0  0  0  0  0  0  0  0  0  0  0  0
   -5.1660    0.2100  -18.0730 C   0  0  0  0  0  0  0  0  0  0  0  0
   -4.7210    0.5160  -19.3890 C   0  0  0  0  0  0  0  0  0  0  0  0
   -3.5950    1.3450  -19.6240 C   0  0  0  0  0  0  0  0  0  0  0  0
   -3.1970    1.6230  -20.9020 C   0  0  0  0  0  0  0  0  0  0  0  0
   -3.9070    1.0840  -21.9990 C   0  0  0  0  0  0  0  0  0  0  0  0
   -5.0020    0.2790  -21.7970 C   0  0  0  0  0  0  0  0  0  0  0  0
   -5.4400   -0.0290  -20.4810 C   0  0  0  0  0  0  0  0  0  0  0  0
   -5.5490   -0.1150  -22.6500 H   0  0  0  0  0  0  0  0  0  0  0  0
   -3.5910    1.3240  -23.0100 H   0  0  0  0  0  0  0  0  0  0  0  0
   -2.3440    2.2680  -21.0840 H   0  0  0  0  0  0  0  0  0  0  0  0
   -3.0660    1.7570  -18.7670 H   0  0  0  0  0  0  0  0  0  0  0  0
   -4.6180    0.6200  -17.2220 H   0  0  0  0  0  0  0  0  0  0  0  0
   -7.7320   -1.6780  -18.5970 H   0  0  0  0  0  0  0  0  0  0  0  0
   -7.6120   -0.7630  -22.0900 H   0  0  0  0  0  0  0  0  0  0  0  0
   -8.3720   -1.7830  -20.8810 H   0  0  0  0  0  0  0  0  0  0  0  0
   -6.3190   -5.0740  -22.5020 H   0  0  0  0  0  0  0  0  0  0  0  0
   -5.8460   -4.3910  -24.0470 H   0  0  0  0  0  0  0  0  0  0  0  0
   -8.4130   -5.9210  -23.3970 H   0  0  0  0  0  0  0  0  0  0  0  0
   -7.1070   -6.4170  -24.4930 H   0  0  0  0  0  0  0  0  0  0  0  0
   -9.1800   -5.5480  -25.6320 H   0  0  0  0  0  0  0  0  0  0  0  0
   -9.6240   -3.0690  -25.4860 H   0  0  0  0  0  0  0  0  0  0  0  0
   -9.9460   -4.0270  -24.0330 H   0  0  0  0  0  0  0  0  0  0  0  0
   -9.0300   -2.1630  -23.1810 H   0  0  0  0  0  0  0  0  0  0  0  0
   -5.6560   -2.2580  -24.5500 H   0  0  0  0  0  0  0  0  0  0  0  0
   -4.6950   -0.4540  -25.9250 H   0  0  0  0  0  0  0  0  0  0  0  0
   -6.1670    1.3400  -26.8430 H   0  0  0  0  0  0  0  0  0  0  0  0
   -8.5930    1.2820  -26.3740 H   0  0  0  0  0  0  0  0  0  0  0  0
  -11.6500    0.0690  -24.9990 H   0  0  0  0  0  0  0  0  0  0  0  0
  -10.5970    0.4260  -26.4220 H   0  0  0  0  0  0  0  0  0  0  0  0
  -10.4230    1.3730  -24.9240 H   0  0  0  0  0  0  0  0  0  0  0  0
  1  2  1  0  0  0  0
  1 52  1  0  0  0  0
  1 53  1  0  0  0  0
  1 54  1  0  0  0  0
  2  3  1  0  0  0  0
  3  4  2  0  0  0  0
  3  8  1  0  0  0  0
  4  5  1  0  0  0  0
  4 51  1  0  0  0  0
  5  6  2  0  0  0  0
  5 50  1  0  0  0  0
  6  7  1  0  0  0  0
  6 49  1  0  0  0  0
  7  8  2  0  0  0  0
  7 48  1  0  0  0  0
  8  9  1  0  0  0  0
  9 10  1  0  0  0  0
  9 18  1  0  0  0  0
  9 47  1  1  0  0  0
 10 11  1  0  0  0  0
 10 45  1  0  0  0  0
 10 46  1  0  0  0  0
 11 12  1  0  0  0  0
 11 16  1  0  0  0  0
 11 44  1  6  0  0  0
 12 13  1  0  0  0  0
 12 14  1  0  0  0  0
 12 15  1  0  0  0  0
 16 17  1  0  0  0  0
 16 42  1  0  0  0  0
 16 43  1  0  0  0  0
 17 18  1  0  0  0  0
 17 40  1  0  0  0  0
 17 41  1  0  0  0  0
 18 19  1  0  0  0  0
 19 20  2  0  0  0  0
 19 21  1  0  0  0  0
 21 22  1  0  0  0  0
 21 38  1  0  0  0  0
 21 39  1  0  0  0  0
 22 23  2  0  0  0  0
 22 31  1  0  0  0  0
 23 24  1  0  0  0  0
 23 37  1  0  0  0  0
 24 25  2  0  0  0  0
 25 26  1  0  0  0  0
 25 36  1  0  0  0  0
 26 27  2  0  0  0  0
 26 31  1  0  0  0  0
 27 28  1  0  0  0  0
 27 35  1  0  0  0  0
 28 29  2  0  0  0  0
 28 34  1  0  0  0  0
 29 30  1  0  0  0  0
 29 33  1  0  0  0  0
 30 31  2  0  0  0  0
 30 32  1  0  0  0  0
M  END
>  <MODEL>
       1

$$$$
