tmp_first_model_2_93.pdb
 OpenBabel08272517383D

 62 67  0  0  1  0  0  0  0  0999 V2000
  -11.5900    2.5020  -21.8430 C   0  0  0  0  0  0  0  0  0  0  0  0
  -10.7440    3.3520  -22.7890 C   0  0  0  0  0  0  0  0  0  0  0  0
   -9.3610    2.9230  -23.0050 N   0  0  0  0  0  0  0  0  0  0  0  0
   -7.1250    2.9840  -22.9640 N   0  0  0  0  0  0  0  0  0  0  0  0
   -8.2270    3.4600  -22.4420 C   0  0  0  0  0  0  0  0  0  0  0  0
   -7.5560    2.1090  -23.9270 C   0  0  0  0  0  0  0  0  0  0  0  0
   -8.9250    2.0580  -23.9900 C   0  0  0  0  0  0  0  0  0  0  0  0
   -9.8390    1.2600  -24.8650 C   0  0  0  0  0  0  0  0  0  0  0  0
  -10.2490    0.0150  -24.2280 N   0  0  0  0  0  0  0  0  0  0  0  0
   -9.2550   -1.0280  -24.0520 C   0  0  0  0  0  0  0  0  0  0  0  0
   -9.3840   -1.7750  -22.7030 C   0  0  2  0  0  0  0  0  0  0  0  0
   -8.8290   -0.8930  -21.5400 C   0  0  0  0  0  0  0  0  0  0  0  0
   -9.4020    0.0180  -20.9820 O   0  0  0  0  0  0  0  0  0  0  0  0
   -7.5410   -1.3010  -21.2500 N   0  0  0  0  0  0  0  0  0  0  0  0
   -6.7660   -0.7520  -20.1940 C   0  0  0  0  0  0  0  0  0  0  0  0
   -7.1000   -0.9830  -18.8810 C   0  0  0  0  0  0  0  0  0  0  0  0
   -6.3800   -0.5430  -17.8170 N   0  0  0  0  0  0  0  0  0  0  0  0
   -5.3070    0.1700  -18.0600 C   0  0  0  0  0  0  0  0  0  0  0  0
   -4.8520    0.5010  -19.3670 C   0  0  0  0  0  0  0  0  0  0  0  0
   -3.7030    1.3080  -19.5820 C   0  0  0  0  0  0  0  0  0  0  0  0
   -3.2800    1.5890  -20.8520 C   0  0  0  0  0  0  0  0  0  0  0  0
   -3.9700    1.0510  -21.9630 C   0  0  0  0  0  0  0  0  0  0  0  0
   -5.0790    0.2600  -21.7780 C   0  0  0  0  0  0  0  0  0  0  0  0
   -5.5740   -0.0050  -20.4730 C   0  0  0  0  0  0  0  0  0  0  0  0
   -5.5770   -0.1730  -22.6400 H   0  0  0  0  0  0  0  0  0  0  0  0
   -3.6210    1.2590  -22.9710 H   0  0  0  0  0  0  0  0  0  0  0  0
   -2.4130    2.2230  -21.0190 H   0  0  0  0  0  0  0  0  0  0  0  0
   -3.1720    1.6900  -18.7130 H   0  0  0  0  0  0  0  0  0  0  0  0
   -4.7300    0.5220  -17.2030 H   0  0  0  0  0  0  0  0  0  0  0  0
   -7.9860   -1.5660  -18.6390 H   0  0  0  0  0  0  0  0  0  0  0  0
   -7.0910   -2.4080  -22.0720 C   0  0  0  0  0  0  0  0  0  0  0  0
   -8.3930   -2.9810  -22.6550 C   0  0  2  0  0  0  0  0  0  0  0  0
   -8.1520   -3.7150  -23.9710 C   0  0  0  0  0  0  0  0  0  0  0  0
   -7.6360   -3.0640  -24.6880 H   0  0  0  0  0  0  0  0  0  0  0  0
   -9.0870   -4.0490  -24.4350 H   0  0  0  0  0  0  0  0  0  0  0  0
   -7.5150   -4.5920  -23.8160 H   0  0  0  0  0  0  0  0  0  0  0  0
   -8.7780   -3.6930  -21.9210 H   0  0  0  0  0  0  0  0  0  0  0  0
   -6.5380   -3.1360  -21.4690 H   0  0  0  0  0  0  0  0  0  0  0  0
   -6.4310   -2.0840  -22.8900 H   0  0  0  0  0  0  0  0  0  0  0  0
  -10.8560   -2.1240  -22.5230 C   0  0  0  0  0  0  0  0  0  0  0  0
  -11.2550   -3.1930  -21.7150 C   0  0  0  0  0  0  0  0  0  0  0  0
  -12.5850   -3.3320  -21.3730 C   0  0  0  0  0  0  0  0  0  0  0  0
  -12.9200   -4.2730  -20.4790 F   0  0  0  0  0  0  0  0  0  0  0  0
  -13.5950   -2.5130  -21.8580 C   0  0  0  0  0  0  0  0  0  0  0  0
  -13.2240   -1.5110  -22.7300 C   0  0  0  0  0  0  0  0  0  0  0  0
  -11.8800   -1.3250  -23.0640 C   0  0  0  0  0  0  0  0  0  0  0  0
  -11.5710   -0.1960  -23.9880 C   0  0  0  0  0  0  0  0  0  0  0  0
  -12.4530    0.5300  -24.4420 O   0  0  0  0  0  0  0  0  0  0  0  0
  -13.9580   -0.8320  -23.1520 H   0  0  0  0  0  0  0  0  0  0  0  0
  -14.6180   -2.6690  -21.5300 H   0  0  0  0  0  0  0  0  0  0  0  0
  -10.5540   -3.9070  -21.2960 H   0  0  0  0  0  0  0  0  0  0  0  0
   -8.2680   -0.5670  -24.1220 H   0  0  0  0  0  0  0  0  0  0  0  0
   -9.3530   -1.7620  -24.8600 H   0  0  0  0  0  0  0  0  0  0  0  0
  -10.7680    1.7900  -25.1000 H   0  0  0  0  0  0  0  0  0  0  0  0
   -9.3390    1.0320  -25.8170 H   0  0  0  0  0  0  0  0  0  0  0  0
   -6.8530    1.5520  -24.5240 H   0  0  0  0  0  0  0  0  0  0  0  0
   -8.2600    4.2030  -21.6550 H   0  0  0  0  0  0  0  0  0  0  0  0
  -11.2490    3.3960  -23.7670 H   0  0  0  0  0  0  0  0  0  0  0  0
  -10.6820    4.3750  -22.4060 H   0  0  0  0  0  0  0  0  0  0  0  0
  -11.1300    2.3140  -20.8740 H   0  0  0  0  0  0  0  0  0  0  0  0
  -12.5080    3.0650  -21.6620 H   0  0  0  0  0  0  0  0  0  0  0  0
  -11.8460    1.5370  -22.2790 H   0  0  0  0  0  0  0  0  0  0  0  0
  1  2  1  0  0  0  0
  1 60  1  0  0  0  0
  1 61  1  0  0  0  0
  1 62  1  0  0  0  0
  2  3  1  0  0  0  0
  2 58  1  0  0  0  0
  2 59  1  0  0  0  0
  3  4  1  0  0  0  0
  3  7  1  0  0  0  0
  4  5  2  0  0  0  0
  5  6  1  0  0  0  0
  5 57  1  0  0  0  0
  6  7  2  0  0  0  0
  6 56  1  0  0  0  0
  7  8  1  0  0  0  0
  8  9  1  0  0  0  0
  8 54  1  0  0  0  0
  8 55  1  0  0  0  0
  9 10  1  0  0  0  0
  9 47  1  0  0  0  0
 10 11  1  0  0  0  0
 10 52  1  0  0  0  0
 10 53  1  0  0  0  0
 11 12  1  1  0  0  0
 11 32  1  0  0  0  0
 11 40  1  0  0  0  0
 12 13  2  0  0  0  0
 12 14  1  0  0  0  0
 14 15  1  0  0  0  0
 14 31  1  0  0  0  0
 15 16  2  0  0  0  0
 15 24  1  0  0  0  0
 16 17  1  0  0  0  0
 16 30  1  0  0  0  0
 17 18  2  0  0  0  0
 18 19  1  0  0  0  0
 18 29  1  0  0  0  0
 19 20  2  0  0  0  0
 19 24  1  0  0  0  0
 20 21  1  0  0  0  0
 20 28  1  0  0  0  0
 21 22  2  0  0  0  0
 21 27  1  0  0  0  0
 22 23  1  0  0  0  0
 22 26  1  0  0  0  0
 23 24  2  0  0  0  0
 23 25  1  0  0  0  0
 31 32  1  0  0  0  0
 31 38  1  0  0  0  0
 31 39  1  0  0  0  0
 32 33  1  0  0  0  0
 32 37  1  1  0  0  0
 33 34  1  0  0  0  0
 33 35  1  0  0  0  0
 33 36  1  0  0  0  0
 40 41  2  0  0  0  0
 40 46  1  0  0  0  0
 41 42  1  0  0  0  0
 41 51  1  0  0  0  0
 42 43  1  0  0  0  0
 42 44  2  0  0  0  0
 44 45  1  0  0  0  0
 44 50  1  0  0  0  0
 45 46  2  0  0  0  0
 45 49  1  0  0  0  0
 46 47  1  0  0  0  0
 47 48  2  0  0  0  0
M  END
>  <MODEL>
       1

$$$$
