tmp_first_model_4_3.pdb
 OpenBabel08272518513D

 66 70  0  0  1  0  0  0  0  0999 V2000
   -7.3980    3.2850  -21.9340 C   0  0  0  0  0  0  0  0  0  0  0  0
   -8.4070    2.7530  -22.8350 N   0  0  0  0  0  0  0  0  0  0  0  0
   -8.0040    2.0530  -23.9280 C   0  0  0  0  0  0  0  0  0  0  0  0
   -6.8190    1.8720  -24.1680 O   0  0  0  0  0  0  0  0  0  0  0  0
   -9.1030    1.4740  -24.8300 C   0  0  0  0  0  0  0  0  0  0  0  0
   -9.6690    0.2780  -24.2320 N   0  0  0  0  0  0  0  0  0  0  0  0
   -8.8270   -0.9030  -24.1000 C   0  0  0  0  0  0  0  0  0  0  0  0
   -9.1160   -1.6950  -22.7930 C   0  0  2  0  0  0  0  0  0  0  0  0
   -8.5580   -0.9130  -21.5680 C   0  0  0  0  0  0  0  0  0  0  0  0
   -9.0550    0.0430  -21.0110 O   0  0  0  0  0  0  0  0  0  0  0  0
   -7.3590   -1.4820  -21.2080 N   0  0  0  0  0  0  0  0  0  0  0  0
   -6.5250   -0.9670  -20.1860 C   0  0  0  0  0  0  0  0  0  0  0  0
   -6.7400   -1.3080  -18.8750 C   0  0  0  0  0  0  0  0  0  0  0  0
   -5.8450   -1.0870  -17.8810 N   0  0  0  0  0  0  0  0  0  0  0  0
   -4.7220   -0.4970  -18.1960 C   0  0  0  0  0  0  0  0  0  0  0  0
   -4.4100   -0.0220  -19.5000 C   0  0  0  0  0  0  0  0  0  0  0  0
   -3.2170    0.6980  -19.7700 C   0  0  0  0  0  0  0  0  0  0  0  0
   -2.9820    1.2170  -21.0140 C   0  0  0  0  0  0  0  0  0  0  0  0
   -3.9320    1.0270  -22.0470 C   0  0  0  0  0  0  0  0  0  0  0  0
   -5.0670    0.2860  -21.8250 C   0  0  0  0  0  0  0  0  0  0  0  0
   -5.3500   -0.2320  -20.5320 C   0  0  0  0  0  0  0  0  0  0  0  0
   -5.7640    0.0900  -22.6390 H   0  0  0  0  0  0  0  0  0  0  0  0
   -3.7680    1.4630  -23.0280 H   0  0  0  0  0  0  0  0  0  0  0  0
   -2.0960    1.8150  -21.2020 H   0  0  0  0  0  0  0  0  0  0  0  0
   -2.5400    0.8840  -18.9390 H   0  0  0  0  0  0  0  0  0  0  0  0
   -3.9920   -0.3520  -17.3990 H   0  0  0  0  0  0  0  0  0  0  0  0
   -7.6600   -1.8110  -18.5850 H   0  0  0  0  0  0  0  0  0  0  0  0
   -6.9640   -2.6310  -21.9970 C   0  0  0  0  0  0  0  0  0  0  0  0
   -8.2660   -3.0050  -22.7300 C   0  0  2  0  0  0  0  0  0  0  0  0
   -7.9790   -3.6850  -24.0610 C   0  0  0  0  0  0  0  0  0  0  0  0
   -7.2490   -4.8660  -23.8090 O   0  0  0  0  0  0  0  0  0  0  0  0
   -7.0560   -5.6800  -24.9560 C   0  0  0  0  0  0  0  0  0  0  0  0
   -5.6890   -6.3340  -24.8520 C   0  0  0  0  0  0  0  0  0  0  0  0
   -5.5000   -6.9510  -25.7360 H   0  0  0  0  0  0  0  0  0  0  0  0
   -4.8990   -5.5830  -24.7780 H   0  0  0  0  0  0  0  0  0  0  0  0
   -5.6420   -6.9740  -23.9670 H   0  0  0  0  0  0  0  0  0  0  0  0
   -8.1640   -6.7180  -25.0470 C   0  0  0  0  0  0  0  0  0  0  0  0
   -8.1250   -7.3790  -24.1770 H   0  0  0  0  0  0  0  0  0  0  0  0
   -9.1510   -6.2500  -25.0780 H   0  0  0  0  0  0  0  0  0  0  0  0
   -8.0440   -7.3180  -25.9530 H   0  0  0  0  0  0  0  0  0  0  0  0
   -7.0760   -5.0430  -25.8540 H   0  0  0  0  0  0  0  0  0  0  0  0
   -8.9200   -3.8990  -24.5940 H   0  0  0  0  0  0  0  0  0  0  0  0
   -7.3770   -3.0220  -24.7070 H   0  0  0  0  0  0  0  0  0  0  0  0
   -8.7930   -3.7260  -22.1020 H   0  0  0  0  0  0  0  0  0  0  0  0
   -6.1570   -2.3840  -22.7030 H   0  0  0  0  0  0  0  0  0  0  0  0
   -6.5890   -3.4440  -21.3660 H   0  0  0  0  0  0  0  0  0  0  0  0
  -10.6240   -1.8700  -22.6810 C   0  0  0  0  0  0  0  0  0  0  0  0
  -11.1840   -2.8360  -21.8330 C   0  0  0  0  0  0  0  0  0  0  0  0
  -12.5570   -2.9130  -21.6680 C   0  0  0  0  0  0  0  0  0  0  0  0
  -13.2240   -4.0070  -20.4890 Cl  0  0  0  0  0  0  0  0  0  0  0  0
  -13.4280   -2.0950  -22.3880 C   0  0  0  0  0  0  0  0  0  0  0  0
  -12.8900   -1.1410  -23.2220 C   0  0  0  0  0  0  0  0  0  0  0  0
  -11.5090   -0.9920  -23.3290 C   0  0  0  0  0  0  0  0  0  0  0  0
  -11.0250    0.1960  -24.0960 C   0  0  0  0  0  0  0  0  0  0  0  0
  -11.7930    1.0360  -24.5440 O   0  0  0  0  0  0  0  0  0  0  0  0
  -13.5210   -0.4640  -23.7880 H   0  0  0  0  0  0  0  0  0  0  0  0
  -14.5000   -2.1950  -22.2610 H   0  0  0  0  0  0  0  0  0  0  0  0
  -10.5650   -3.5240  -21.2670 H   0  0  0  0  0  0  0  0  0  0  0  0
   -8.9890   -1.5600  -24.9660 H   0  0  0  0  0  0  0  0  0  0  0  0
   -7.7850   -0.5720  -24.1080 H   0  0  0  0  0  0  0  0  0  0  0  0
   -8.6680    1.2560  -25.8140 H   0  0  0  0  0  0  0  0  0  0  0  0
   -9.9360    2.1660  -24.9900 H   0  0  0  0  0  0  0  0  0  0  0  0
   -9.3320    2.5920  -22.4660 H   0  0  0  0  0  0  0  0  0  0  0  0
   -6.6870    3.8970  -22.4920 H   0  0  0  0  0  0  0  0  0  0  0  0
   -7.8680    3.9230  -21.1850 H   0  0  0  0  0  0  0  0  0  0  0  0
   -6.8190    2.4800  -21.4590 H   0  0  0  0  0  0  0  0  0  0  0  0
  1  2  1  0  0  0  0
  1 64  1  0  0  0  0
  1 65  1  0  0  0  0
  1 66  1  0  0  0  0
  2  3  1  0  0  0  0
  2 63  1  0  0  0  0
  3  4  2  0  0  0  0
  3  5  1  0  0  0  0
  5  6  1  0  0  0  0
  5 61  1  0  0  0  0
  5 62  1  0  0  0  0
  6  7  1  0  0  0  0
  6 54  1  0  0  0  0
  7  8  1  0  0  0  0
  7 59  1  0  0  0  0
  7 60  1  0  0  0  0
  8  9  1  1  0  0  0
  8 29  1  0  0  0  0
  8 47  1  0  0  0  0
  9 10  2  0  0  0  0
  9 11  1  0  0  0  0
 11 12  1  0  0  0  0
 11 28  1  0  0  0  0
 12 13  2  0  0  0  0
 12 21  1  0  0  0  0
 13 14  1  0  0  0  0
 13 27  1  0  0  0  0
 14 15  2  0  0  0  0
 15 16  1  0  0  0  0
 15 26  1  0  0  0  0
 16 17  2  0  0  0  0
 16 21  1  0  0  0  0
 17 18  1  0  0  0  0
 17 25  1  0  0  0  0
 18 19  2  0  0  0  0
 18 24  1  0  0  0  0
 19 20  1  0  0  0  0
 19 23  1  0  0  0  0
 20 21  2  0  0  0  0
 20 22  1  0  0  0  0
 28 29  1  0  0  0  0
 28 45  1  0  0  0  0
 28 46  1  0  0  0  0
 29 30  1  0  0  0  0
 29 44  1  1  0  0  0
 30 31  1  0  0  0  0
 30 42  1  0  0  0  0
 30 43  1  0  0  0  0
 31 32  1  0  0  0  0
 32 33  1  0  0  0  0
 32 37  1  0  0  0  0
 32 41  1  0  0  0  0
 33 34  1  0  0  0  0
 33 35  1  0  0  0  0
 33 36  1  0  0  0  0
 37 38  1  0  0  0  0
 37 39  1  0  0  0  0
 37 40  1  0  0  0  0
 47 48  2  0  0  0  0
 47 53  1  0  0  0  0
 48 49  1  0  0  0  0
 48 58  1  0  0  0  0
 49 50  1  0  0  0  0
 49 51  2  0  0  0  0
 51 52  1  0  0  0  0
 51 57  1  0  0  0  0
 52 53  2  0  0  0  0
 52 56  1  0  0  0  0
 53 54  1  0  0  0  0
 54 55  2  0  0  0  0
M  END
>  <MODEL>
       1

$$$$
