tmp_first_model_10_97.pdb
 OpenBabel08272522163D

 40 43  0  0  1  0  0  0  0  0999 V2000
  -12.5810   -3.9310  -21.0450 C   0  0  0  0  0  0  0  0  0  0  0  0
  -11.5860   -2.9390  -21.6920 C   0  0  2  0  0  0  0  0  0  0  0  0
  -12.0660   -2.4660  -23.0570 C   0  0  0  0  0  0  0  0  0  0  0  0
  -11.2370   -1.4520  -23.5780 O   0  0  0  0  0  0  0  0  0  0  0  0
   -9.9140   -1.8840  -23.7710 C   0  0  0  0  0  0  0  0  0  0  0  0
   -9.2320   -2.3850  -22.4870 C   0  0  1  0  0  0  0  0  0  0  0  0
  -10.1520   -3.4460  -21.8460 C   0  0  0  0  0  0  0  0  0  0  0  0
  -10.1320   -4.3140  -22.5160 H   0  0  0  0  0  0  0  0  0  0  0  0
   -9.7250   -3.7440  -20.8820 H   0  0  0  0  0  0  0  0  0  0  0  0
   -7.9230   -2.9200  -22.8300 N   0  0  0  0  0  0  0  0  0  0  0  0
   -6.9220   -2.5180  -21.9800 C   0  0  0  0  0  0  0  0  0  0  0  0
   -5.8030   -2.9550  -21.8690 O   0  0  0  0  0  0  0  0  0  0  0  0
   -7.4620   -1.4620  -21.2260 N   0  0  0  0  0  0  0  0  0  0  0  0
   -6.7110   -0.8240  -20.1950 C   0  0  0  0  0  0  0  0  0  0  0  0
   -6.9830   -1.1060  -18.8790 C   0  0  0  0  0  0  0  0  0  0  0  0
   -6.2670   -0.6330  -17.8260 N   0  0  0  0  0  0  0  0  0  0  0  0
   -5.2440    0.1490  -18.0770 C   0  0  0  0  0  0  0  0  0  0  0  0
   -4.8560    0.5340  -19.3920 C   0  0  0  0  0  0  0  0  0  0  0  0
   -3.7790    1.4410  -19.6050 C   0  0  0  0  0  0  0  0  0  0  0  0
   -3.5490    1.9550  -20.8530 C   0  0  0  0  0  0  0  0  0  0  0  0
   -4.3450    1.5380  -21.9480 C   0  0  0  0  0  0  0  0  0  0  0  0
   -5.3460    0.6090  -21.7770 C   0  0  0  0  0  0  0  0  0  0  0  0
   -5.6270    0.0720  -20.4870 C   0  0  0  0  0  0  0  0  0  0  0  0
   -5.9630    0.3090  -22.6200 H   0  0  0  0  0  0  0  0  0  0  0  0
   -4.1680    1.9630  -22.9350 H   0  0  0  0  0  0  0  0  0  0  0  0
   -2.7740    2.7060  -21.0140 H   0  0  0  0  0  0  0  0  0  0  0  0
   -3.1850    1.7610  -18.7480 H   0  0  0  0  0  0  0  0  0  0  0  0
   -4.6720    0.5490  -17.2300 H   0  0  0  0  0  0  0  0  0  0  0  0
   -7.8110   -1.7620  -18.6190 H   0  0  0  0  0  0  0  0  0  0  0  0
   -8.8230   -1.2820  -21.4880 C   0  0  0  0  0  0  0  0  0  0  0  0
   -9.5120   -0.4110  -21.0120 O   0  0  0  0  0  0  0  0  0  0  0  0
   -7.8420   -3.8250  -23.2680 H   0  0  0  0  0  0  0  0  0  0  0  0
   -9.3500   -1.0410  -24.1750 H   0  0  0  0  0  0  0  0  0  0  0  0
   -9.8660   -2.7200  -24.4930 H   0  0  0  0  0  0  0  0  0  0  0  0
  -13.0630   -2.0310  -22.9770 H   0  0  0  0  0  0  0  0  0  0  0  0
  -12.1250   -3.3280  -23.7470 H   0  0  0  0  0  0  0  0  0  0  0  0
  -11.5010   -2.0510  -21.0720 H   0  0  0  0  0  0  0  0  0  0  0  0
  -12.0790   -4.7400  -20.4970 H   0  0  0  0  0  0  0  0  0  0  0  0
  -13.2420   -4.3980  -21.7860 H   0  0  0  0  0  0  0  0  0  0  0  0
  -13.2230   -3.4160  -20.3200 H   0  0  0  0  0  0  0  0  0  0  0  0
  1  2  1  0  0  0  0
  1 38  1  0  0  0  0
  1 39  1  0  0  0  0
  1 40  1  0  0  0  0
  2  3  1  0  0  0  0
  2  7  1  0  0  0  0
  2 37  1  1  0  0  0
  3  4  1  0  0  0  0
  3 35  1  0  0  0  0
  3 36  1  0  0  0  0
  4  5  1  0  0  0  0
  5  6  1  0  0  0  0
  5 33  1  0  0  0  0
  5 34  1  0  0  0  0
  6  7  1  0  0  0  0
  6 10  1  0  0  0  0
  6 30  1  1  0  0  0
  7  8  1  0  0  0  0
  7  9  1  0  0  0  0
 10 11  1  0  0  0  0
 10 32  1  0  0  0  0
 11 12  2  0  0  0  0
 11 13  1  0  0  0  0
 13 14  1  0  0  0  0
 13 30  1  0  0  0  0
 14 15  2  0  0  0  0
 14 23  1  0  0  0  0
 15 16  1  0  0  0  0
 15 29  1  0  0  0  0
 16 17  2  0  0  0  0
 17 18  1  0  0  0  0
 17 28  1  0  0  0  0
 18 19  2  0  0  0  0
 18 23  1  0  0  0  0
 19 20  1  0  0  0  0
 19 27  1  0  0  0  0
 20 21  2  0  0  0  0
 20 26  1  0  0  0  0
 21 22  1  0  0  0  0
 21 25  1  0  0  0  0
 22 23  2  0  0  0  0
 22 24  1  0  0  0  0
 30 31  2  0  0  0  0
M  END
>  <MODEL>
       1

$$$$
