tmp_first_model_12_81.pdb
 OpenBabel08272523333D

 36 38  0  0  0  0  0  0  0  0999 V2000
   -8.5110    0.7120  -21.4660 O   0  0  0  0  0  0  0  0  0  0  0  0
   -8.3850   -0.4010  -21.9340 C   0  0  0  0  0  0  0  0  0  0  0  0
   -7.4390   -1.4330  -21.2770 C   0  0  0  0  0  0  0  0  0  0  0  0
   -6.5820   -0.8270  -20.1850 C   0  0  0  0  0  0  0  0  0  0  0  0
   -6.8790   -1.0420  -18.8640 C   0  0  0  0  0  0  0  0  0  0  0  0
   -6.1950   -0.5370  -17.8010 N   0  0  0  0  0  0  0  0  0  0  0  0
   -5.1570    0.2200  -18.0630 C   0  0  0  0  0  0  0  0  0  0  0  0
   -4.7270    0.5370  -19.3790 C   0  0  0  0  0  0  0  0  0  0  0  0
   -3.6000    1.3670  -19.6160 C   0  0  0  0  0  0  0  0  0  0  0  0
   -3.2310    1.6940  -20.8940 C   0  0  0  0  0  0  0  0  0  0  0  0
   -4.0010    1.2300  -21.9830 C   0  0  0  0  0  0  0  0  0  0  0  0
   -5.0850    0.4050  -21.7790 C   0  0  0  0  0  0  0  0  0  0  0  0
   -5.4710    0.0240  -20.4700 C   0  0  0  0  0  0  0  0  0  0  0  0
   -5.5890   -0.0450  -22.6280 H   0  0  0  0  0  0  0  0  0  0  0  0
   -3.6420    1.4080  -22.9920 H   0  0  0  0  0  0  0  0  0  0  0  0
   -2.3480    2.3030  -21.0830 H   0  0  0  0  0  0  0  0  0  0  0  0
   -3.0570    1.7690  -18.7630 H   0  0  0  0  0  0  0  0  0  0  0  0
   -4.6040    0.6260  -17.2140 H   0  0  0  0  0  0  0  0  0  0  0  0
   -7.7290   -1.6600  -18.5840 H   0  0  0  0  0  0  0  0  0  0  0  0
   -6.8060   -1.9000  -22.0440 H   0  0  0  0  0  0  0  0  0  0  0  0
   -8.0420   -2.2460  -20.8460 H   0  0  0  0  0  0  0  0  0  0  0  0
   -9.0570   -0.7710  -23.0910 N   0  0  0  0  0  0  0  0  0  0  0  0
  -10.0040    0.1950  -23.6400 C   0  0  0  0  0  0  0  0  0  0  0  0
  -11.3790    0.2140  -23.0180 C   0  0  0  0  0  0  0  0  0  0  0  0
  -12.0210   -0.7910  -22.4150 C   0  0  0  0  0  0  0  0  0  0  0  0
  -11.5710   -2.1750  -22.1550 C   0  0  0  0  0  0  0  0  0  0  0  0
  -10.4460   -2.7790  -22.5490 C   0  0  0  0  0  0  0  0  0  0  0  0
   -9.3660   -2.1600  -23.4020 C   0  0  0  0  0  0  0  0  0  0  0  0
   -8.4500   -2.7540  -23.3580 H   0  0  0  0  0  0  0  0  0  0  0  0
   -9.6810   -2.1700  -24.4520 H   0  0  0  0  0  0  0  0  0  0  0  0
  -10.2860   -3.8160  -22.2490 H   0  0  0  0  0  0  0  0  0  0  0  0
  -12.2820   -2.7640  -21.5770 H   0  0  0  0  0  0  0  0  0  0  0  0
  -13.0220   -0.5840  -22.0380 H   0  0  0  0  0  0  0  0  0  0  0  0
  -11.8910    1.1770  -23.0830 H   0  0  0  0  0  0  0  0  0  0  0  0
  -10.1080   -0.0440  -24.7050 H   0  0  0  0  0  0  0  0  0  0  0  0
   -9.5570    1.1910  -23.5910 H   0  0  0  0  0  0  0  0  0  0  0  0
  1  2  2  0  0  0  0
  2  3  1  0  0  0  0
  2 22  1  0  0  0  0
  3  4  1  0  0  0  0
  3 20  1  0  0  0  0
  3 21  1  0  0  0  0
  4  5  2  0  0  0  0
  4 13  1  0  0  0  0
  5  6  1  0  0  0  0
  5 19  1  0  0  0  0
  6  7  2  0  0  0  0
  7  8  1  0  0  0  0
  7 18  1  0  0  0  0
  8  9  2  0  0  0  0
  8 13  1  0  0  0  0
  9 10  1  0  0  0  0
  9 17  1  0  0  0  0
 10 11  2  0  0  0  0
 10 16  1  0  0  0  0
 11 12  1  0  0  0  0
 11 15  1  0  0  0  0
 12 13  2  0  0  0  0
 12 14  1  0  0  0  0
 22 23  1  0  0  0  0
 22 28  1  0  0  0  0
 23 24  1  0  0  0  0
 23 35  1  0  0  0  0
 23 36  1  0  0  0  0
 24 25  2  0  0  0  0
 24 34  1  0  0  0  0
 25 26  1  0  0  0  0
 25 33  1  0  0  0  0
 26 27  2  0  0  0  0
 26 32  1  0  0  0  0
 27 28  1  0  0  0  0
 27 31  1  0  0  0  0
 28 29  1  0  0  0  0
 28 30  1  0  0  0  0
M  END
>  <MODEL>
       1

$$$$
