tmp_first_model_19_69.pdb
 OpenBabel08282503233D

 63 67  0  0  0  0  0  0  0  0999 V2000
  -12.1760    6.5050  -23.7150 C   0  0  0  0  0  0  0  0  0  0  0  0
  -11.4400    5.3950  -23.7100 C   0  0  0  0  0  0  0  0  0  0  0  0
  -10.5370    5.1130  -24.8720 C   0  0  0  0  0  0  0  0  0  0  0  0
  -10.3090    5.9660  -25.7180 O   0  0  0  0  0  0  0  0  0  0  0  0
   -9.9040    3.8760  -24.9350 N   0  0  0  0  0  0  0  0  0  0  0  0
   -8.5920    3.8520  -25.5790 C   0  0  0  0  0  0  0  0  0  0  0  0
   -7.6090    3.2470  -24.5960 C   0  0  0  0  0  0  0  0  0  0  0  0
   -8.0250    1.8010  -24.3410 C   0  0  0  0  0  0  0  0  0  0  0  0
   -9.5070    1.6450  -24.0380 C   0  0  0  0  0  0  0  0  0  0  0  0
  -10.4070    2.6660  -24.4020 C   0  0  0  0  0  0  0  0  0  0  0  0
  -11.7890    2.4690  -24.2750 C   0  0  0  0  0  0  0  0  0  0  0  0
  -12.2870    1.2880  -23.7590 C   0  0  0  0  0  0  0  0  0  0  0  0
  -11.4070    0.2940  -23.3390 C   0  0  0  0  0  0  0  0  0  0  0  0
  -10.0370    0.4730  -23.4900 C   0  0  0  0  0  0  0  0  0  0  0  0
   -9.1400   -0.6790  -23.0190 N   0  3  0  0  0  0  0  0  0  0  0  0
   -8.2540   -1.3230  -24.1690 C   0  0  0  0  0  0  0  0  0  0  0  0
   -8.3130   -2.8390  -24.2700 C   0  0  0  0  0  0  0  0  0  0  0  0
   -7.1860   -3.6120  -23.9690 C   0  0  0  0  0  0  0  0  0  0  0  0
   -7.1990   -4.9970  -24.0930 C   0  0  0  0  0  0  0  0  0  0  0  0
   -8.3080   -5.6410  -24.6280 C   0  0  0  0  0  0  0  0  0  0  0  0
   -9.4140   -4.8750  -24.9680 C   0  0  0  0  0  0  0  0  0  0  0  0
  -10.7720   -5.6820  -25.7000 Cl  0  0  0  0  0  0  0  0  0  0  0  0
   -9.4480   -3.5000  -24.7580 C   0  0  0  0  0  0  0  0  0  0  0  0
  -10.3490   -2.9450  -25.0050 H   0  0  0  0  0  0  0  0  0  0  0  0
   -8.3280   -6.7140  -24.7970 H   0  0  0  0  0  0  0  0  0  0  0  0
   -6.3390   -5.5770  -23.7730 H   0  0  0  0  0  0  0  0  0  0  0  0
   -6.2780   -3.1170  -23.6310 H   0  0  0  0  0  0  0  0  0  0  0  0
   -7.2150   -1.0030  -24.0300 H   0  0  0  0  0  0  0  0  0  0  0  0
   -8.6230   -0.8530  -25.0810 H   0  0  0  0  0  0  0  0  0  0  0  0
   -8.4540   -0.3440  -21.7130 C   0  0  0  0  0  0  0  0  0  0  0  0
   -8.7180    0.6710  -21.1300 O   0  0  0  0  0  0  0  0  0  0  0  0
   -7.4800   -1.4020  -21.2040 C   0  0  0  0  0  0  0  0  0  0  0  0
   -6.5870   -0.8580  -20.1270 C   0  0  0  0  0  0  0  0  0  0  0  0
   -6.8650   -1.0850  -18.8060 C   0  0  0  0  0  0  0  0  0  0  0  0
   -6.1630   -0.5880  -17.7540 N   0  0  0  0  0  0  0  0  0  0  0  0
   -5.1480    0.1920  -18.0400 C   0  0  0  0  0  0  0  0  0  0  0  0
   -4.7330    0.5060  -19.3650 C   0  0  0  0  0  0  0  0  0  0  0  0
   -3.6140    1.3350  -19.6260 C   0  0  0  0  0  0  0  0  0  0  0  0
   -3.2460    1.6310  -20.9100 C   0  0  0  0  0  0  0  0  0  0  0  0
   -3.9760    1.0990  -21.9970 C   0  0  0  0  0  0  0  0  0  0  0  0
   -5.0600    0.2860  -21.7710 C   0  0  0  0  0  0  0  0  0  0  0  0
   -5.4700   -0.0320  -20.4460 C   0  0  0  0  0  0  0  0  0  0  0  0
   -5.6260   -0.1010  -22.6170 H   0  0  0  0  0  0  0  0  0  0  0  0
   -3.6780    1.3400  -23.0140 H   0  0  0  0  0  0  0  0  0  0  0  0
   -2.3940    2.2760  -21.1020 H   0  0  0  0  0  0  0  0  0  0  0  0
   -3.0750    1.7470  -18.7770 H   0  0  0  0  0  0  0  0  0  0  0  0
   -4.6020    0.6240  -17.2010 H   0  0  0  0  0  0  0  0  0  0  0  0
   -7.6980   -1.7350  -18.5340 H   0  0  0  0  0  0  0  0  0  0  0  0
   -8.0880   -2.2330  -20.8150 H   0  0  0  0  0  0  0  0  0  0  0  0
   -6.8880   -1.7720  -22.0450 H   0  0  0  0  0  0  0  0  0  0  0  0
   -9.8170   -1.4520  -22.8100 H   0  0  0  0  0  0  0  0  0  0  0  0
  -11.7860   -0.6220  -22.9000 H   0  0  0  0  0  0  0  0  0  0  0  0
  -13.3600    1.1490  -23.6600 H   0  0  0  0  0  0  0  0  0  0  0  0
  -12.4660    3.2600  -24.5740 H   0  0  0  0  0  0  0  0  0  0  0  0
   -7.7970    1.2320  -25.2540 H   0  0  0  0  0  0  0  0  0  0  0  0
   -7.4190    1.3610  -23.5440 H   0  0  0  0  0  0  0  0  0  0  0  0
   -6.5780    3.3000  -24.9680 H   0  0  0  0  0  0  0  0  0  0  0  0
   -7.6580    3.8270  -23.6700 H   0  0  0  0  0  0  0  0  0  0  0  0
   -8.6340    3.2660  -26.5070 H   0  0  0  0  0  0  0  0  0  0  0  0
   -8.3520    4.8790  -25.8540 H   0  0  0  0  0  0  0  0  0  0  0  0
  -11.4490    4.6960  -22.8740 H   0  0  0  0  0  0  0  0  0  0  0  0
  -12.1280    7.1760  -24.5690 H   0  0  0  0  0  0  0  0  0  0  0  0
  -12.8360    6.7650  -22.8930 H   0  0  0  0  0  0  0  0  0  0  0  0
  1  2  2  0  0  0  0
  1 62  1  0  0  0  0
  1 63  1  0  0  0  0
  2  3  1  0  0  0  0
  2 61  1  0  0  0  0
  3  4  2  0  0  0  0
  3  5  1  0  0  0  0
  5  6  1  0  0  0  0
  5 10  1  0  0  0  0
  6  7  1  0  0  0  0
  6 59  1  0  0  0  0
  6 60  1  0  0  0  0
  7  8  1  0  0  0  0
  7 57  1  0  0  0  0
  7 58  1  0  0  0  0
  8  9  1  0  0  0  0
  8 55  1  0  0  0  0
  8 56  1  0  0  0  0
  9 10  2  0  0  0  0
  9 14  1  0  0  0  0
 10 11  1  0  0  0  0
 11 12  2  0  0  0  0
 11 54  1  0  0  0  0
 12 13  1  0  0  0  0
 12 53  1  0  0  0  0
 13 14  2  0  0  0  0
 13 52  1  0  0  0  0
 14 15  1  0  0  0  0
 15 16  1  0  0  0  0
 15 30  1  0  0  0  0
 15 51  1  0  0  0  0
 16 17  1  0  0  0  0
 16 28  1  0  0  0  0
 16 29  1  0  0  0  0
 17 18  2  0  0  0  0
 17 23  1  0  0  0  0
 18 19  1  0  0  0  0
 18 27  1  0  0  0  0
 19 20  2  0  0  0  0
 19 26  1  0  0  0  0
 20 21  1  0  0  0  0
 20 25  1  0  0  0  0
 21 22  1  0  0  0  0
 21 23  2  0  0  0  0
 23 24  1  0  0  0  0
 30 31  2  0  0  0  0
 30 32  1  0  0  0  0
 32 33  1  0  0  0  0
 32 49  1  0  0  0  0
 32 50  1  0  0  0  0
 33 34  2  0  0  0  0
 33 42  1  0  0  0  0
 34 35  1  0  0  0  0
 34 48  1  0  0  0  0
 35 36  2  0  0  0  0
 36 37  1  0  0  0  0
 36 47  1  0  0  0  0
 37 38  2  0  0  0  0
 37 42  1  0  0  0  0
 38 39  1  0  0  0  0
 38 46  1  0  0  0  0
 39 40  2  0  0  0  0
 39 45  1  0  0  0  0
 40 41  1  0  0  0  0
 40 44  1  0  0  0  0
 41 42  2  0  0  0  0
 41 43  1  0  0  0  0
M  CHG  1  15   1
M  END
>  <MODEL>
       1

$$$$
