tmp_first_model_7_77.pdb
 OpenBabel08272520323D

 55 60  0  0  1  0  0  0  0  0999 V2000
  -10.2370   -2.9730  -22.0720 C   0  0  0  0  0  0  0  0  0  0  0  0
   -9.1660   -2.0170  -22.6270 C   0  0  1  0  0  0  0  0  0  0  0  0
   -8.6950   -1.0410  -21.5290 C   0  0  0  0  0  0  0  0  0  0  0  0
   -7.3460   -1.4500  -21.2060 N   0  0  0  0  0  0  0  0  0  0  0  0
   -6.5680   -0.8530  -20.1880 C   0  0  0  0  0  0  0  0  0  0  0  0
   -6.9020   -1.0540  -18.8730 C   0  0  0  0  0  0  0  0  0  0  0  0
   -6.2150   -0.5430  -17.8250 N   0  0  0  0  0  0  0  0  0  0  0  0
   -5.1740    0.2060  -18.0960 C   0  0  0  0  0  0  0  0  0  0  0  0
   -4.7300    0.5100  -19.4140 C   0  0  0  0  0  0  0  0  0  0  0  0
   -3.6080    1.3480  -19.6420 C   0  0  0  0  0  0  0  0  0  0  0  0
   -3.2270    1.6640  -20.9170 C   0  0  0  0  0  0  0  0  0  0  0  0
   -3.9540    1.1600  -22.0200 C   0  0  0  0  0  0  0  0  0  0  0  0
   -5.0390    0.3400  -21.8290 C   0  0  0  0  0  0  0  0  0  0  0  0
   -5.4470   -0.0200  -20.5080 C   0  0  0  0  0  0  0  0  0  0  0  0
   -5.5930   -0.0360  -22.6900 H   0  0  0  0  0  0  0  0  0  0  0  0
   -3.6520    1.4310  -23.0280 H   0  0  0  0  0  0  0  0  0  0  0  0
   -2.3730    2.3150  -21.0860 H   0  0  0  0  0  0  0  0  0  0  0  0
   -3.0840    1.7500  -18.7790 H   0  0  0  0  0  0  0  0  0  0  0  0
   -4.6250    0.6160  -17.2480 H   0  0  0  0  0  0  0  0  0  0  0  0
   -7.7590   -1.6800  -18.6220 H   0  0  0  0  0  0  0  0  0  0  0  0
   -6.8240   -2.3980  -22.0500 C   0  0  0  0  0  0  0  0  0  0  0  0
   -5.7250   -2.9010  -21.9210 O   0  0  0  0  0  0  0  0  0  0  0  0
   -7.8620   -2.6810  -23.1570 C   0  0  1  0  0  0  0  0  0  0  0  0
   -7.9670   -4.1940  -23.3500 C   0  0  0  0  0  0  0  0  0  0  0  0
   -6.7080   -4.6770  -23.8830 N   0  0  0  0  0  0  0  0  0  0  0  0
   -6.2310   -5.9590  -23.4050 C   0  0  0  0  0  0  0  0  0  0  0  0
   -7.0580   -7.0660  -23.9870 C   0  0  0  0  0  0  0  0  0  0  0  0
   -7.0190   -7.5620  -25.2440 C   0  0  0  0  0  0  0  0  0  0  0  0
   -8.1870   -8.2310  -25.4580 O   0  0  0  0  0  0  0  0  0  0  0  0
   -8.8500   -8.1480  -24.2860 C   0  0  0  0  0  0  0  0  0  0  0  0
   -8.2320   -7.4890  -23.3570 N   0  0  0  0  0  0  0  0  0  0  0  0
   -9.7980   -8.6750  -24.2480 H   0  0  0  0  0  0  0  0  0  0  0  0
   -6.2690   -7.6170  -26.0280 H   0  0  0  0  0  0  0  0  0  0  0  0
   -5.1780   -6.0310  -23.6870 H   0  0  0  0  0  0  0  0  0  0  0  0
   -6.2960   -5.9380  -22.3100 H   0  0  0  0  0  0  0  0  0  0  0  0
   -6.2510   -4.2330  -25.0930 C   0  0  0  0  0  0  0  0  0  0  0  0
   -5.5460   -4.9100  -25.8340 O   0  0  0  0  0  0  0  0  0  0  0  0
   -6.6380   -2.8310  -25.3980 C   0  0  0  0  0  0  0  0  0  0  0  0
   -6.1760   -2.2820  -26.5910 C   0  0  0  0  0  0  0  0  0  0  0  0
   -6.3970   -0.9460  -26.8590 C   0  0  0  0  0  0  0  0  0  0  0  0
   -7.0770   -0.1830  -25.9150 C   0  0  0  0  0  0  0  0  0  0  0  0
   -7.2700    1.1270  -26.1640 F   0  0  0  0  0  0  0  0  0  0  0  0
   -7.5600   -0.7160  -24.7360 C   0  0  0  0  0  0  0  0  0  0  0  0
   -7.3680   -2.0770  -24.4710 C   0  0  0  0  0  0  0  0  0  0  0  0
   -8.0770   -0.0560  -24.0450 H   0  0  0  0  0  0  0  0  0  0  0  0
   -6.0370   -0.4720  -27.7610 H   0  0  0  0  0  0  0  0  0  0  0  0
   -5.6250   -2.9380  -27.2610 H   0  0  0  0  0  0  0  0  0  0  0  0
   -8.7960   -4.4250  -24.0390 H   0  0  0  0  0  0  0  0  0  0  0  0
   -8.1490   -4.6970  -22.3950 H   0  0  0  0  0  0  0  0  0  0  0  0
   -9.3360   -1.1240  -20.6570 H   0  0  0  0  0  0  0  0  0  0  0  0
   -8.7090    0.0070  -21.8550 H   0  0  0  0  0  0  0  0  0  0  0  0
   -9.6410   -1.4760  -23.4550 H   0  0  0  0  0  0  0  0  0  0  0  0
  -11.0900   -2.3980  -21.6920 H   0  0  0  0  0  0  0  0  0  0  0  0
   -9.8490   -3.5780  -21.2430 H   0  0  0  0  0  0  0  0  0  0  0  0
  -10.6180   -3.6480  -22.8440 H   0  0  0  0  0  0  0  0  0  0  0  0
  1  2  1  0  0  0  0
  1 53  1  0  0  0  0
  1 54  1  0  0  0  0
  1 55  1  0  0  0  0
  2  3  1  0  0  0  0
  2 23  1  0  0  0  0
  2 52  1  6  0  0  0
  3  4  1  0  0  0  0
  3 50  1  0  0  0  0
  3 51  1  0  0  0  0
  4  5  1  0  0  0  0
  4 21  1  0  0  0  0
  5  6  2  0  0  0  0
  5 14  1  0  0  0  0
  6  7  1  0  0  0  0
  6 20  1  0  0  0  0
  7  8  2  0  0  0  0
  8  9  1  0  0  0  0
  8 19  1  0  0  0  0
  9 10  2  0  0  0  0
  9 14  1  0  0  0  0
 10 11  1  0  0  0  0
 10 18  1  0  0  0  0
 11 12  2  0  0  0  0
 11 17  1  0  0  0  0
 12 13  1  0  0  0  0
 12 16  1  0  0  0  0
 13 14  2  0  0  0  0
 13 15  1  0  0  0  0
 21 22  2  0  0  0  0
 23 21  1  1  0  0  0
 23 24  1  0  0  0  0
 23 44  1  0  0  0  0
 24 25  1  0  0  0  0
 24 48  1  0  0  0  0
 24 49  1  0  0  0  0
 25 26  1  0  0  0  0
 25 36  1  0  0  0  0
 26 27  1  0  0  0  0
 26 34  1  0  0  0  0
 26 35  1  0  0  0  0
 27 28  2  0  0  0  0
 27 31  1  0  0  0  0
 28 29  1  0  0  0  0
 28 33  1  0  0  0  0
 29 30  1  0  0  0  0
 30 31  2  0  0  0  0
 30 32  1  0  0  0  0
 36 37  2  0  0  0  0
 36 38  1  0  0  0  0
 38 39  2  0  0  0  0
 38 44  1  0  0  0  0
 39 40  1  0  0  0  0
 39 47  1  0  0  0  0
 40 41  2  0  0  0  0
 40 46  1  0  0  0  0
 41 42  1  0  0  0  0
 41 43  1  0  0  0  0
 43 44  2  0  0  0  0
 43 45  1  0  0  0  0
M  END
>  <MODEL>
       1

$$$$
