tmp_first_model_14_51.pdb
 OpenBabel08282500413D

 50 52  0  0  0  0  0  0  0  0999 V2000
   -7.6750   -3.8230  -26.4570 C   0  0  0  0  0  0  0  0  0  0  0  0
   -6.8830   -3.4740  -25.4480 C   0  0  0  0  0  0  0  0  0  0  0  0
   -7.1290   -3.9080  -24.0220 C   0  0  0  0  0  0  0  0  0  0  0  0
   -7.5560   -2.7980  -23.1780 N   0  0  0  0  0  0  0  0  0  0  0  0
   -6.6770   -2.3440  -22.2110 C   0  0  0  0  0  0  0  0  0  0  0  0
   -5.5050   -2.6960  -22.1630 O   0  0  0  0  0  0  0  0  0  0  0  0
   -7.2490   -1.4570  -21.3260 N   0  0  0  0  0  0  0  0  0  0  0  0
   -6.5260   -0.8710  -20.2730 C   0  0  0  0  0  0  0  0  0  0  0  0
   -6.9130   -1.0520  -18.9720 C   0  0  0  0  0  0  0  0  0  0  0  0
   -6.2730   -0.5220  -17.9040 N   0  0  0  0  0  0  0  0  0  0  0  0
   -5.2110    0.2090  -18.1400 C   0  0  0  0  0  0  0  0  0  0  0  0
   -4.7210    0.4980  -19.4430 C   0  0  0  0  0  0  0  0  0  0  0  0
   -3.6020    1.3440  -19.6600 C   0  0  0  0  0  0  0  0  0  0  0  0
   -3.2130    1.6680  -20.9320 C   0  0  0  0  0  0  0  0  0  0  0  0
   -3.9220    1.1600  -22.0440 C   0  0  0  0  0  0  0  0  0  0  0  0
   -4.9910    0.3280  -21.8620 C   0  0  0  0  0  0  0  0  0  0  0  0
   -5.4070   -0.0400  -20.5510 C   0  0  0  0  0  0  0  0  0  0  0  0
   -5.5360   -0.0540  -22.7190 H   0  0  0  0  0  0  0  0  0  0  0  0
   -3.6130    1.4380  -23.0490 H   0  0  0  0  0  0  0  0  0  0  0  0
   -2.3800    2.3430  -21.0900 H   0  0  0  0  0  0  0  0  0  0  0  0
   -3.0800    1.7470  -18.7970 H   0  0  0  0  0  0  0  0  0  0  0  0
   -4.6910    0.6190  -17.2740 H   0  0  0  0  0  0  0  0  0  0  0  0
   -7.7880   -1.6640  -18.7540 H   0  0  0  0  0  0  0  0  0  0  0  0
   -8.2600   -1.4380  -21.2630 H   0  0  0  0  0  0  0  0  0  0  0  0
   -8.7370   -2.0880  -23.5580 C   0  0  0  0  0  0  0  0  0  0  0  0
   -8.6920   -0.7370  -23.9140 C   0  0  0  0  0  0  0  0  0  0  0  0
   -9.8460   -0.0780  -24.3170 C   0  0  0  0  0  0  0  0  0  0  0  0
  -11.0730   -0.7290  -24.3050 C   0  0  0  0  0  0  0  0  0  0  0  0
  -11.1080   -2.0610  -23.9140 C   0  0  0  0  0  0  0  0  0  0  0  0
  -12.6460   -2.8680  -23.8090 Cl  0  0  0  0  0  0  0  0  0  0  0  0
   -9.9500   -2.7680  -23.6140 C   0  0  0  0  0  0  0  0  0  0  0  0
   -9.9740   -3.8390  -23.4280 H   0  0  0  0  0  0  0  0  0  0  0  0
  -11.9790   -0.2240  -24.6270 H   0  0  0  0  0  0  0  0  0  0  0  0
   -9.7940    0.9570  -24.6400 H   0  0  0  0  0  0  0  0  0  0  0  0
   -7.7520   -0.1960  -23.8670 H   0  0  0  0  0  0  0  0  0  0  0  0
   -7.9180   -4.6690  -24.0080 H   0  0  0  0  0  0  0  0  0  0  0  0
   -6.2410   -4.3420  -23.5540 H   0  0  0  0  0  0  0  0  0  0  0  0
   -5.7970   -2.4950  -25.7990 C   0  0  0  0  0  0  0  0  0  0  0  0
   -5.8680   -1.8320  -26.8310 O   0  0  0  0  0  0  0  0  0  0  0  0
   -4.7390   -2.4090  -24.9650 N   0  0  0  0  0  0  0  0  0  0  0  0
   -3.8370   -1.2930  -25.1700 C   0  0  0  0  0  0  0  0  0  0  0  0
   -2.6950   -1.4250  -24.1870 C   0  0  0  0  0  0  0  0  0  0  0  0
   -2.0880   -0.5190  -24.1380 H   0  0  0  0  0  0  0  0  0  0  0  0
   -3.1320   -1.5850  -23.1870 H   0  0  0  0  0  0  0  0  0  0  0  0
   -2.0260   -2.2520  -24.4530 H   0  0  0  0  0  0  0  0  0  0  0  0
   -4.3650   -0.3380  -25.0040 H   0  0  0  0  0  0  0  0  0  0  0  0
   -3.5260   -1.2910  -26.2230 H   0  0  0  0  0  0  0  0  0  0  0  0
   -4.7870   -2.7930  -24.0240 H   0  0  0  0  0  0  0  0  0  0  0  0
   -7.4780   -3.3910  -27.4360 H   0  0  0  0  0  0  0  0  0  0  0  0
   -8.4990   -4.5180  -26.3170 H   0  0  0  0  0  0  0  0  0  0  0  0
  1  2  2  0  0  0  0
  1 49  1  0  0  0  0
  1 50  1  0  0  0  0
  2  3  1  0  0  0  0
  2 38  1  0  0  0  0
  3  4  1  0  0  0  0
  3 36  1  0  0  0  0
  3 37  1  0  0  0  0
  4  5  1  0  0  0  0
  4 25  1  0  0  0  0
  5  6  2  0  0  0  0
  5  7  1  0  0  0  0
  7  8  1  0  0  0  0
  7 24  1  0  0  0  0
  8  9  2  0  0  0  0
  8 17  1  0  0  0  0
  9 10  1  0  0  0  0
  9 23  1  0  0  0  0
 10 11  2  0  0  0  0
 11 12  1  0  0  0  0
 11 22  1  0  0  0  0
 12 13  2  0  0  0  0
 12 17  1  0  0  0  0
 13 14  1  0  0  0  0
 13 21  1  0  0  0  0
 14 15  2  0  0  0  0
 14 20  1  0  0  0  0
 15 16  1  0  0  0  0
 15 19  1  0  0  0  0
 16 17  2  0  0  0  0
 16 18  1  0  0  0  0
 25 26  2  0  0  0  0
 25 31  1  0  0  0  0
 26 27  1  0  0  0  0
 26 35  1  0  0  0  0
 27 28  2  0  0  0  0
 27 34  1  0  0  0  0
 28 29  1  0  0  0  0
 28 33  1  0  0  0  0
 29 30  1  0  0  0  0
 29 31  2  0  0  0  0
 31 32  1  0  0  0  0
 38 39  2  0  0  0  0
 38 40  1  0  0  0  0
 40 41  1  0  0  0  0
 40 48  1  0  0  0  0
 41 42  1  0  0  0  0
 41 46  1  0  0  0  0
 41 47  1  0  0  0  0
 42 43  1  0  0  0  0
 42 44  1  0  0  0  0
 42 45  1  0  0  0  0
M  END
>  <MODEL>
       1

$$$$
