tmp_first_model_12_86.pdb
 OpenBabel08272523333D

 43 45  0  0  1  0  0  0  0  0999 V2000
   -8.5470   -5.5640  -25.7820 C   0  0  0  0  0  0  0  0  0  0  0  0
   -9.0630   -5.4490  -24.3440 C   0  0  1  0  0  0  0  0  0  0  0  0
   -8.0270   -5.8760  -23.3080 C   0  0  0  0  0  0  0  0  0  0  0  0
   -6.9380   -4.8330  -23.0940 C   0  0  0  0  0  0  0  0  0  0  0  0
   -7.5130   -3.5410  -22.7110 N   0  0  0  0  0  0  0  0  0  0  0  0
   -6.7550   -2.7460  -21.8630 C   0  0  0  0  0  0  0  0  0  0  0  0
   -5.6170   -3.0480  -21.5530 O   0  0  0  0  0  0  0  0  0  0  0  0
   -7.4120   -1.4760  -21.2700 C   0  0  0  0  0  0  0  0  0  0  0  0
   -6.5780   -0.8310  -20.1830 C   0  0  0  0  0  0  0  0  0  0  0  0
   -6.8730   -1.0490  -18.8640 C   0  0  0  0  0  0  0  0  0  0  0  0
   -6.1900   -0.5440  -17.8010 N   0  0  0  0  0  0  0  0  0  0  0  0
   -5.1570    0.2200  -18.0640 C   0  0  0  0  0  0  0  0  0  0  0  0
   -4.7230    0.5340  -19.3770 C   0  0  0  0  0  0  0  0  0  0  0  0
   -3.5940    1.3600  -19.6150 C   0  0  0  0  0  0  0  0  0  0  0  0
   -3.2180    1.6780  -20.8920 C   0  0  0  0  0  0  0  0  0  0  0  0
   -3.9830    1.2120  -21.9810 C   0  0  0  0  0  0  0  0  0  0  0  0
   -5.0690    0.3880  -21.7760 C   0  0  0  0  0  0  0  0  0  0  0  0
   -5.4640    0.0140  -20.4700 C   0  0  0  0  0  0  0  0  0  0  0  0
   -5.5400   -0.1010  -22.6230 H   0  0  0  0  0  0  0  0  0  0  0  0
   -3.6030    1.3600  -22.9880 H   0  0  0  0  0  0  0  0  0  0  0  0
   -2.3230    2.2730  -21.0810 H   0  0  0  0  0  0  0  0  0  0  0  0
   -3.0550    1.7660  -18.7600 H   0  0  0  0  0  0  0  0  0  0  0  0
   -4.6050    0.6280  -17.2140 H   0  0  0  0  0  0  0  0  0  0  0  0
   -7.7220   -1.6720  -18.5850 H   0  0  0  0  0  0  0  0  0  0  0  0
   -7.6220   -0.7490  -22.0680 H   0  0  0  0  0  0  0  0  0  0  0  0
   -8.3930   -1.7520  -20.8540 H   0  0  0  0  0  0  0  0  0  0  0  0
   -8.5390   -2.9980  -23.6120 C   0  0  1  0  0  0  0  0  0  0  0  0
   -7.9410   -2.2910  -24.8390 C   0  0  0  0  0  0  0  0  0  0  0  0
   -8.7290   -1.9770  -25.5350 H   0  0  0  0  0  0  0  0  0  0  0  0
   -7.2480   -2.9320  -25.3940 H   0  0  0  0  0  0  0  0  0  0  0  0
   -7.3900   -1.3880  -24.5500 H   0  0  0  0  0  0  0  0  0  0  0  0
   -9.5900   -4.0640  -23.9660 C   0  0  0  0  0  0  0  0  0  0  0  0
  -10.2120   -3.6820  -24.7830 H   0  0  0  0  0  0  0  0  0  0  0  0
  -10.2620   -4.1720  -23.1080 H   0  0  0  0  0  0  0  0  0  0  0  0
   -9.0790   -2.2370  -23.0430 H   0  0  0  0  0  0  0  0  0  0  0  0
   -6.3010   -4.7550  -23.9880 H   0  0  0  0  0  0  0  0  0  0  0  0
   -6.2730   -5.1440  -22.2900 H   0  0  0  0  0  0  0  0  0  0  0  0
   -7.5750   -6.8270  -23.6110 H   0  0  0  0  0  0  0  0  0  0  0  0
   -8.5230   -6.0620  -22.3510 H   0  0  0  0  0  0  0  0  0  0  0  0
   -9.9160   -6.1410  -24.2750 H   0  0  0  0  0  0  0  0  0  0  0  0
   -7.6000   -5.0390  -25.9390 H   0  0  0  0  0  0  0  0  0  0  0  0
   -8.3800   -6.6150  -26.0500 H   0  0  0  0  0  0  0  0  0  0  0  0
   -9.2690   -5.1520  -26.4970 H   0  0  0  0  0  0  0  0  0  0  0  0
  1  2  1  0  0  0  0
  1 41  1  0  0  0  0
  1 42  1  0  0  0  0
  1 43  1  0  0  0  0
  2  3  1  0  0  0  0
  2 32  1  0  0  0  0
  2 40  1  1  0  0  0
  3  4  1  0  0  0  0
  3 38  1  0  0  0  0
  3 39  1  0  0  0  0
  4  5  1  0  0  0  0
  4 36  1  0  0  0  0
  4 37  1  0  0  0  0
  5  6  1  0  0  0  0
  5 27  1  0  0  0  0
  6  7  2  0  0  0  0
  6  8  1  0  0  0  0
  8  9  1  0  0  0  0
  8 25  1  0  0  0  0
  8 26  1  0  0  0  0
  9 10  2  0  0  0  0
  9 18  1  0  0  0  0
 10 11  1  0  0  0  0
 10 24  1  0  0  0  0
 11 12  2  0  0  0  0
 12 13  1  0  0  0  0
 12 23  1  0  0  0  0
 13 14  2  0  0  0  0
 13 18  1  0  0  0  0
 14 15  1  0  0  0  0
 14 22  1  0  0  0  0
 15 16  2  0  0  0  0
 15 21  1  0  0  0  0
 16 17  1  0  0  0  0
 16 20  1  0  0  0  0
 17 18  2  0  0  0  0
 17 19  1  0  0  0  0
 27 28  1  0  0  0  0
 27 32  1  0  0  0  0
 27 35  1  1  0  0  0
 28 29  1  0  0  0  0
 28 30  1  0  0  0  0
 28 31  1  0  0  0  0
 32 33  1  0  0  0  0
 32 34  1  0  0  0  0
M  END
>  <MODEL>
       1

$$$$
