tmp_first_model_4_0.pdb
 OpenBabel08272518513D

 66 71  0  0  1  0  0  0  0  0999 V2000
   -7.8240   -6.0350  -26.6880 C   0  0  0  0  0  0  0  0  0  0  0  0
   -8.0790   -4.6270  -26.9360 N   0  0  0  0  0  0  0  0  0  0  0  0
   -7.1600   -3.7040  -26.5620 C   0  0  0  0  0  0  0  0  0  0  0  0
   -6.1110   -3.9950  -26.0020 O   0  0  0  0  0  0  0  0  0  0  0  0
   -7.5770   -2.2520  -26.8090 C   0  0  0  0  0  0  0  0  0  0  0  0
   -8.4630   -1.8060  -25.7380 N   0  0  0  0  0  0  0  0  0  0  0  0
   -7.9040   -1.3170  -24.4860 C   0  0  0  0  0  0  0  0  0  0  0  0
   -8.7790   -1.5810  -23.2210 C   0  0  2  0  0  0  0  0  0  0  0  0
   -8.1960   -0.6410  -22.1310 C   0  0  0  0  0  0  0  0  0  0  0  0
   -8.3300    0.5580  -22.0540 O   0  0  0  0  0  0  0  0  0  0  0  0
   -7.4160   -1.4040  -21.2750 N   0  0  0  0  0  0  0  0  0  0  0  0
   -6.5130   -0.9480  -20.2790 C   0  0  0  0  0  0  0  0  0  0  0  0
   -6.7050   -1.3640  -18.9810 C   0  0  0  0  0  0  0  0  0  0  0  0
   -5.8090   -1.2160  -17.9800 N   0  0  0  0  0  0  0  0  0  0  0  0
   -4.6830   -0.6130  -18.2630 C   0  0  0  0  0  0  0  0  0  0  0  0
   -4.3680   -0.0800  -19.5410 C   0  0  0  0  0  0  0  0  0  0  0  0
   -3.1480    0.6080  -19.7780 C   0  0  0  0  0  0  0  0  0  0  0  0
   -2.8660    1.1300  -21.0100 C   0  0  0  0  0  0  0  0  0  0  0  0
   -3.7740    0.9390  -22.0780 C   0  0  0  0  0  0  0  0  0  0  0  0
   -4.9460    0.2500  -21.8820 C   0  0  0  0  0  0  0  0  0  0  0  0
   -5.2970   -0.2500  -20.5950 C   0  0  0  0  0  0  0  0  0  0  0  0
   -5.6040    0.0560  -22.7270 H   0  0  0  0  0  0  0  0  0  0  0  0
   -3.5570    1.3760  -23.0490 H   0  0  0  0  0  0  0  0  0  0  0  0
   -1.9460    1.6890  -21.1740 H   0  0  0  0  0  0  0  0  0  0  0  0
   -2.4720    0.7540  -18.9430 H   0  0  0  0  0  0  0  0  0  0  0  0
   -3.9540   -0.5140  -17.4600 H   0  0  0  0  0  0  0  0  0  0  0  0
   -7.6240   -1.8750  -18.6960 H   0  0  0  0  0  0  0  0  0  0  0  0
   -7.3780   -2.8060  -21.6230 C   0  0  0  0  0  0  0  0  0  0  0  0
   -8.5840   -2.9730  -22.5380 C   0  0  2  0  0  0  0  0  0  0  0  0
   -8.4840   -4.1640  -23.4910 C   0  0  0  0  0  0  0  0  0  0  0  0
   -8.4350   -5.4690  -22.8500 N   0  0  0  0  0  0  0  0  0  0  0  0
   -7.2750   -6.0050  -22.3650 C   0  0  0  0  0  0  0  0  0  0  0  0
   -6.0230   -5.7160  -22.9370 C   0  0  0  0  0  0  0  0  0  0  0  0
   -4.9330   -6.2780  -22.3040 C   0  0  0  0  0  0  0  0  0  0  0  0
   -5.0200   -7.0460  -21.2120 N   0  0  0  0  0  0  0  0  0  0  0  0
   -6.2530   -7.2730  -20.7900 C   0  0  0  0  0  0  0  0  0  0  0  0
   -7.3910   -6.8440  -21.3220 N   0  0  0  0  0  0  0  0  0  0  0  0
   -6.3340   -7.8670  -19.8780 H   0  0  0  0  0  0  0  0  0  0  0  0
   -3.9200   -6.1000  -22.6560 H   0  0  0  0  0  0  0  0  0  0  0  0
   -5.9150   -5.0890  -23.8240 H   0  0  0  0  0  0  0  0  0  0  0  0
   -9.2330   -5.6890  -22.2710 H   0  0  0  0  0  0  0  0  0  0  0  0
   -9.3540   -4.1350  -24.1540 H   0  0  0  0  0  0  0  0  0  0  0  0
   -7.5890   -4.0560  -24.0990 H   0  0  0  0  0  0  0  0  0  0  0  0
   -9.4700   -3.1100  -21.9010 H   0  0  0  0  0  0  0  0  0  0  0  0
   -7.4360   -3.3990  -20.7180 H   0  0  0  0  0  0  0  0  0  0  0  0
   -6.4350   -3.0830  -22.1220 H   0  0  0  0  0  0  0  0  0  0  0  0
  -10.2390   -1.3360  -23.5580 C   0  0  0  0  0  0  0  0  0  0  0  0
  -11.1960   -1.1610  -22.5430 C   0  0  0  0  0  0  0  0  0  0  0  0
  -12.5340   -1.0040  -22.8830 C   0  0  0  0  0  0  0  0  0  0  0  0
  -13.7620   -0.9020  -21.6530 Cl  0  0  0  0  0  0  0  0  0  0  0  0
  -12.9570   -0.9590  -24.2100 C   0  0  0  0  0  0  0  0  0  0  0  0
  -12.0190   -1.1390  -25.2040 C   0  0  0  0  0  0  0  0  0  0  0  0
  -10.6910   -1.3990  -24.8820 C   0  0  0  0  0  0  0  0  0  0  0  0
   -9.7990   -1.8520  -25.9910 C   0  0  0  0  0  0  0  0  0  0  0  0
  -10.2340   -2.2740  -27.0600 O   0  0  0  0  0  0  0  0  0  0  0  0
  -12.2950   -1.1100  -26.2510 H   0  0  0  0  0  0  0  0  0  0  0  0
  -14.0110   -0.8340  -24.4330 H   0  0  0  0  0  0  0  0  0  0  0  0
  -10.9060   -1.1620  -21.4960 H   0  0  0  0  0  0  0  0  0  0  0  0
   -7.7440   -0.2330  -24.5440 H   0  0  0  0  0  0  0  0  0  0  0  0
   -6.9180   -1.7810  -24.3630 H   0  0  0  0  0  0  0  0  0  0  0  0
   -6.6820   -1.6260  -26.8600 H   0  0  0  0  0  0  0  0  0  0  0  0
   -8.1420   -2.1700  -27.7430 H   0  0  0  0  0  0  0  0  0  0  0  0
   -8.9920   -4.3150  -27.2410 H   0  0  0  0  0  0  0  0  0  0  0  0
   -7.5310   -6.2000  -25.6410 H   0  0  0  0  0  0  0  0  0  0  0  0
   -8.7250   -6.6110  -26.9120 H   0  0  0  0  0  0  0  0  0  0  0  0
   -7.0000   -6.3910  -27.3140 H   0  0  0  0  0  0  0  0  0  0  0  0
  1  2  1  0  0  0  0
  1 64  1  0  0  0  0
  1 65  1  0  0  0  0
  1 66  1  0  0  0  0
  2  3  1  0  0  0  0
  2 63  1  0  0  0  0
  3  4  2  0  0  0  0
  3  5  1  0  0  0  0
  5  6  1  0  0  0  0
  5 61  1  0  0  0  0
  5 62  1  0  0  0  0
  6  7  1  0  0  0  0
  6 54  1  0  0  0  0
  7  8  1  0  0  0  0
  7 59  1  0  0  0  0
  7 60  1  0  0  0  0
  8  9  1  1  0  0  0
  8 29  1  0  0  0  0
  8 47  1  0  0  0  0
  9 10  2  0  0  0  0
  9 11  1  0  0  0  0
 11 12  1  0  0  0  0
 11 28  1  0  0  0  0
 12 13  2  0  0  0  0
 12 21  1  0  0  0  0
 13 14  1  0  0  0  0
 13 27  1  0  0  0  0
 14 15  2  0  0  0  0
 15 16  1  0  0  0  0
 15 26  1  0  0  0  0
 16 17  2  0  0  0  0
 16 21  1  0  0  0  0
 17 18  1  0  0  0  0
 17 25  1  0  0  0  0
 18 19  2  0  0  0  0
 18 24  1  0  0  0  0
 19 20  1  0  0  0  0
 19 23  1  0  0  0  0
 20 21  2  0  0  0  0
 20 22  1  0  0  0  0
 28 29  1  0  0  0  0
 28 45  1  0  0  0  0
 28 46  1  0  0  0  0
 29 30  1  0  0  0  0
 29 44  1  1  0  0  0
 30 31  1  0  0  0  0
 30 42  1  0  0  0  0
 30 43  1  0  0  0  0
 31 32  1  0  0  0  0
 31 41  1  0  0  0  0
 32 33  2  0  0  0  0
 32 37  1  0  0  0  0
 33 34  1  0  0  0  0
 33 40  1  0  0  0  0
 34 35  2  0  0  0  0
 34 39  1  0  0  0  0
 35 36  1  0  0  0  0
 36 37  2  0  0  0  0
 36 38  1  0  0  0  0
 47 48  2  0  0  0  0
 47 53  1  0  0  0  0
 48 49  1  0  0  0  0
 48 58  1  0  0  0  0
 49 50  1  0  0  0  0
 49 51  2  0  0  0  0
 51 52  1  0  0  0  0
 51 57  1  0  0  0  0
 52 53  2  0  0  0  0
 52 56  1  0  0  0  0
 53 54  1  0  0  0  0
 54 55  2  0  0  0  0
M  END
>  <MODEL>
       1

$$$$
