tmp_first_model_4_23.pdb
 OpenBabel08272518513D

 68 73  0  0  1  0  0  0  0  0999 V2000
   -7.3280    3.4100  -21.8590 C   0  0  0  0  0  0  0  0  0  0  0  0
   -8.2870    2.9750  -22.8620 N   0  0  0  0  0  0  0  0  0  0  0  0
   -7.8030    2.2390  -23.9030 C   0  0  0  0  0  0  0  0  0  0  0  0
   -6.6070    2.0090  -24.0410 O   0  0  0  0  0  0  0  0  0  0  0  0
   -8.8270    1.6770  -24.8850 C   0  0  0  0  0  0  0  0  0  0  0  0
   -9.4980    0.5390  -24.2860 N   0  0  0  0  0  0  0  0  0  0  0  0
   -8.7530   -0.7070  -24.1560 C   0  0  0  0  0  0  0  0  0  0  0  0
   -9.1380   -1.4770  -22.8680 C   0  0  2  0  0  0  0  0  0  0  0  0
   -8.5500   -0.7410  -21.6280 C   0  0  0  0  0  0  0  0  0  0  0  0
   -8.9670    0.2710  -21.1010 O   0  0  0  0  0  0  0  0  0  0  0  0
   -7.4250   -1.4240  -21.2300 N   0  0  0  0  0  0  0  0  0  0  0  0
   -6.5370   -0.9750  -20.2230 C   0  0  0  0  0  0  0  0  0  0  0  0
   -6.7740   -1.2810  -18.9120 C   0  0  0  0  0  0  0  0  0  0  0  0
   -5.8900   -1.0630  -17.9050 N   0  0  0  0  0  0  0  0  0  0  0  0
   -4.7560   -0.4800  -18.2030 C   0  0  0  0  0  0  0  0  0  0  0  0
   -4.4260   -0.0290  -19.5100 C   0  0  0  0  0  0  0  0  0  0  0  0
   -3.2550    0.7220  -19.7640 C   0  0  0  0  0  0  0  0  0  0  0  0
   -3.0460    1.2770  -20.9980 C   0  0  0  0  0  0  0  0  0  0  0  0
   -3.9530    1.0270  -22.0570 C   0  0  0  0  0  0  0  0  0  0  0  0
   -5.0590    0.2430  -21.8490 C   0  0  0  0  0  0  0  0  0  0  0  0
   -5.3390   -0.2780  -20.5600 C   0  0  0  0  0  0  0  0  0  0  0  0
   -5.7400    0.0400  -22.6720 H   0  0  0  0  0  0  0  0  0  0  0  0
   -3.7960    1.4870  -23.0280 H   0  0  0  0  0  0  0  0  0  0  0  0
   -2.1880    1.9200  -21.1660 H   0  0  0  0  0  0  0  0  0  0  0  0
   -2.5820    0.8940  -18.9280 H   0  0  0  0  0  0  0  0  0  0  0  0
   -4.0280   -0.3250  -17.4040 H   0  0  0  0  0  0  0  0  0  0  0  0
   -7.7100   -1.7740  -18.6530 H   0  0  0  0  0  0  0  0  0  0  0  0
   -7.1220   -2.5950  -22.0180 C   0  0  0  0  0  0  0  0  0  0  0  0
   -8.4220   -2.8620  -22.7860 C   0  0  2  0  0  0  0  0  0  0  0  0
   -8.1320   -3.6250  -24.0800 C   0  0  0  0  0  0  0  0  0  0  0  0
   -9.3270   -4.0640  -24.7540 N   0  0  0  0  0  0  0  0  0  0  0  0
   -9.2920   -4.6850  -25.9920 C   0  0  0  0  0  0  0  0  0  0  0  0
  -10.4940   -5.0610  -26.6150 C   0  0  0  0  0  0  0  0  0  0  0  0
  -10.5040   -5.6130  -27.8880 C   0  0  0  0  0  0  0  0  0  0  0  0
   -9.3130   -5.8750  -28.5590 C   0  0  0  0  0  0  0  0  0  0  0  0
   -8.1150   -5.5770  -27.9160 C   0  0  0  0  0  0  0  0  0  0  0  0
   -8.0890   -4.9840  -26.6560 C   0  0  0  0  0  0  0  0  0  0  0  0
   -7.1270   -4.7640  -26.1960 H   0  0  0  0  0  0  0  0  0  0  0  0
   -7.1760   -5.8170  -28.4080 H   0  0  0  0  0  0  0  0  0  0  0  0
   -9.3160   -6.3200  -29.5530 H   0  0  0  0  0  0  0  0  0  0  0  0
  -11.4500   -5.8500  -28.3700 H   0  0  0  0  0  0  0  0  0  0  0  0
  -11.4220   -4.9590  -26.0670 H   0  0  0  0  0  0  0  0  0  0  0  0
  -10.2210   -3.7090  -24.4510 H   0  0  0  0  0  0  0  0  0  0  0  0
   -7.5280   -4.5060  -23.8200 H   0  0  0  0  0  0  0  0  0  0  0  0
   -7.5020   -2.9980  -24.7360 H   0  0  0  0  0  0  0  0  0  0  0  0
   -9.0410   -3.5100  -22.1600 H   0  0  0  0  0  0  0  0  0  0  0  0
   -6.8560   -3.4210  -21.3520 H   0  0  0  0  0  0  0  0  0  0  0  0
   -6.2730   -2.4270  -22.7030 H   0  0  0  0  0  0  0  0  0  0  0  0
  -10.6510   -1.5280  -22.7700 C   0  0  0  0  0  0  0  0  0  0  0  0
  -11.2760   -2.4510  -21.9250 C   0  0  0  0  0  0  0  0  0  0  0  0
  -12.6510   -2.4480  -21.7810 C   0  0  0  0  0  0  0  0  0  0  0  0
  -13.3800   -3.5810  -20.6860 Cl  0  0  0  0  0  0  0  0  0  0  0  0
  -13.4590   -1.5360  -22.4570 C   0  0  0  0  0  0  0  0  0  0  0  0
  -12.8460   -0.6000  -23.2630 C   0  0  0  0  0  0  0  0  0  0  0  0
  -11.4590   -0.5730  -23.4010 C   0  0  0  0  0  0  0  0  0  0  0  0
  -10.8610    0.5650  -24.1700 C   0  0  0  0  0  0  0  0  0  0  0  0
  -11.5470    1.4690  -24.6280 O   0  0  0  0  0  0  0  0  0  0  0  0
  -13.4170    0.1600  -23.7820 H   0  0  0  0  0  0  0  0  0  0  0  0
  -14.5350   -1.5420  -22.3190 H   0  0  0  0  0  0  0  0  0  0  0  0
  -10.7080   -3.1540  -21.3270 H   0  0  0  0  0  0  0  0  0  0  0  0
   -7.6810   -0.4800  -24.1500 H   0  0  0  0  0  0  0  0  0  0  0  0
   -8.9520   -1.3430  -25.0290 H   0  0  0  0  0  0  0  0  0  0  0  0
   -8.3050    1.3660  -25.7970 H   0  0  0  0  0  0  0  0  0  0  0  0
   -9.5930    2.4090  -25.1560 H   0  0  0  0  0  0  0  0  0  0  0  0
   -9.2360    2.8120  -22.5500 H   0  0  0  0  0  0  0  0  0  0  0  0
   -6.7440    2.5460  -21.5070 H   0  0  0  0  0  0  0  0  0  0  0  0
   -7.8590    3.8930  -21.0370 H   0  0  0  0  0  0  0  0  0  0  0  0
   -6.6430    4.1480  -22.2850 H   0  0  0  0  0  0  0  0  0  0  0  0
  1  2  1  0  0  0  0
  1 66  1  0  0  0  0
  1 67  1  0  0  0  0
  1 68  1  0  0  0  0
  2  3  1  0  0  0  0
  2 65  1  0  0  0  0
  3  4  2  0  0  0  0
  3  5  1  0  0  0  0
  5  6  1  0  0  0  0
  5 63  1  0  0  0  0
  5 64  1  0  0  0  0
  6  7  1  0  0  0  0
  6 56  1  0  0  0  0
  7  8  1  0  0  0  0
  7 61  1  0  0  0  0
  7 62  1  0  0  0  0
  8  9  1  1  0  0  0
  8 29  1  0  0  0  0
  8 49  1  0  0  0  0
  9 10  2  0  0  0  0
  9 11  1  0  0  0  0
 11 12  1  0  0  0  0
 11 28  1  0  0  0  0
 12 13  2  0  0  0  0
 12 21  1  0  0  0  0
 13 14  1  0  0  0  0
 13 27  1  0  0  0  0
 14 15  2  0  0  0  0
 15 16  1  0  0  0  0
 15 26  1  0  0  0  0
 16 17  2  0  0  0  0
 16 21  1  0  0  0  0
 17 18  1  0  0  0  0
 17 25  1  0  0  0  0
 18 19  2  0  0  0  0
 18 24  1  0  0  0  0
 19 20  1  0  0  0  0
 19 23  1  0  0  0  0
 20 21  2  0  0  0  0
 20 22  1  0  0  0  0
 28 29  1  0  0  0  0
 28 47  1  0  0  0  0
 28 48  1  0  0  0  0
 29 30  1  0  0  0  0
 29 46  1  1  0  0  0
 30 31  1  0  0  0  0
 30 44  1  0  0  0  0
 30 45  1  0  0  0  0
 31 32  1  0  0  0  0
 31 43  1  0  0  0  0
 32 33  2  0  0  0  0
 32 37  1  0  0  0  0
 33 34  1  0  0  0  0
 33 42  1  0  0  0  0
 34 35  2  0  0  0  0
 34 41  1  0  0  0  0
 35 36  1  0  0  0  0
 35 40  1  0  0  0  0
 36 37  2  0  0  0  0
 36 39  1  0  0  0  0
 37 38  1  0  0  0  0
 49 50  2  0  0  0  0
 49 55  1  0  0  0  0
 50 51  1  0  0  0  0
 50 60  1  0  0  0  0
 51 52  1  0  0  0  0
 51 53  2  0  0  0  0
 53 54  1  0  0  0  0
 53 59  1  0  0  0  0
 54 55  2  0  0  0  0
 54 58  1  0  0  0  0
 55 56  1  0  0  0  0
 56 57  2  0  0  0  0
M  END
>  <MODEL>
       1

$$$$
