tmp_first_model_17_35.pdb
 OpenBabel08282502223D

 40 42  0  0  0  0  0  0  0  0999 V2000
   -9.2500   -1.9030  -22.4450 O   0  0  0  0  0  0  0  0  0  0  0  0
   -8.3470   -1.1010  -22.2380 C   0  0  0  0  0  0  0  0  0  0  0  0
   -6.9510   -1.5620  -21.8260 C   0  0  0  0  0  0  0  0  0  0  0  0
   -6.3710   -0.8740  -20.5920 C   0  0  0  0  0  0  0  0  0  0  0  0
   -6.9650   -1.0560  -19.3640 C   0  0  0  0  0  0  0  0  0  0  0  0
   -6.5320   -0.5130  -18.1970 N   0  0  0  0  0  0  0  0  0  0  0  0
   -5.4710    0.2550  -18.2490 C   0  0  0  0  0  0  0  0  0  0  0  0
   -4.7600    0.5600  -19.4430 C   0  0  0  0  0  0  0  0  0  0  0  0
   -3.6640    1.4640  -19.4660 C   0  0  0  0  0  0  0  0  0  0  0  0
   -3.0800    1.8180  -20.6510 C   0  0  0  0  0  0  0  0  0  0  0  0
   -3.5480    1.2600  -21.8580 C   0  0  0  0  0  0  0  0  0  0  0  0
   -4.5480    0.3170  -21.8530 C   0  0  0  0  0  0  0  0  0  0  0  0
   -5.2150   -0.0300  -20.6490 C   0  0  0  0  0  0  0  0  0  0  0  0
   -4.8450   -0.1340  -22.7950 H   0  0  0  0  0  0  0  0  0  0  0  0
   -3.0780    1.5460  -22.7940 H   0  0  0  0  0  0  0  0  0  0  0  0
   -2.2560    2.5240  -20.6760 H   0  0  0  0  0  0  0  0  0  0  0  0
   -3.3160    1.8910  -18.5300 H   0  0  0  0  0  0  0  0  0  0  0  0
   -5.1230    0.6850  -17.3090 H   0  0  0  0  0  0  0  0  0  0  0  0
   -7.8500   -1.6900  -19.2730 H   0  0  0  0  0  0  0  0  0  0  0  0
   -7.0580   -2.6340  -21.6370 H   0  0  0  0  0  0  0  0  0  0  0  0
   -6.2720   -1.4640  -22.6770 H   0  0  0  0  0  0  0  0  0  0  0  0
   -8.4610    0.2590  -22.3150 N   0  0  0  0  0  0  0  0  0  0  0  0
   -7.4730    1.0760  -23.0970 C   0  0  0  0  0  0  0  0  0  0  0  0
   -7.9940    2.3570  -23.6830 C   0  0  0  0  0  0  0  0  0  0  0  0
   -9.2400    2.8120  -23.7060 C   0  0  0  0  0  0  0  0  0  0  0  0
   -8.4250    5.4450  -22.9580 C   0  0  0  0  0  0  0  0  0  0  0  0
   -7.8240    5.0800  -21.8430 F   0  0  0  0  0  0  0  0  0  0  0  0
   -9.3920    6.3030  -22.7060 F   0  0  0  0  0  0  0  0  0  0  0  0
   -7.5600    5.9530  -23.8150 F   0  0  0  0  0  0  0  0  0  0  0  0
   -9.6820    1.0390  -22.0050 C   0  0  0  0  0  0  0  0  0  0  0  0
   -9.7160    0.8850  -21.8330 C   0  0  0  0  0  0  0  0  0  0  0  0
  -10.3550    0.5370  -22.8880 H   0  0  0  0  0  0  0  0  0  0  0  0
  -10.1770   -0.0230  -20.6480 H   0  0  0  0  0  0  0  0  0  0  0  0
  -10.6310    1.7920  -21.8420 H   0  0  0  0  0  0  0  0  0  0  0  0
   -9.0250    1.8860  -21.4020 H   0  0  0  0  0  0  0  0  0  0  0  0
   -9.3950    3.8870  -23.8260 H   0  0  0  0  0  0  0  0  0  0  0  0
   -7.2010    2.9920  -24.0770 H   0  0  0  0  0  0  0  0  0  0  0  0
  -10.0760    2.1540  -23.6150 H   0  0  0  0  0  0  0  0  0  0  0  0
   -7.0400    0.4510  -23.8880 H   0  0  0  0  0  0  0  0  0  0  0  0
   -6.6640    1.3510  -22.4140 H   0  0  0  0  0  0  0  0  0  0  0  0
  1  2  2  0  0  0  0
  2  3  1  0  0  0  0
  2 22  1  0  0  0  0
  3  4  1  0  0  0  0
  3 20  1  0  0  0  0
  3 21  1  0  0  0  0
  4  5  2  0  0  0  0
  4 13  1  0  0  0  0
  5  6  1  0  0  0  0
  5 19  1  0  0  0  0
  6  7  2  0  0  0  0
  7  8  1  0  0  0  0
  7 18  1  0  0  0  0
  8  9  2  0  0  0  0
  8 13  1  0  0  0  0
  9 10  1  0  0  0  0
  9 17  1  0  0  0  0
 10 11  2  0  0  0  0
 10 16  1  0  0  0  0
 11 12  1  0  0  0  0
 11 15  1  0  0  0  0
 12 13  2  0  0  0  0
 12 14  1  0  0  0  0
 22 23  1  0  0  0  0
 22 31  1  0  0  0  0
 23 24  1  0  0  0  0
 23 39  1  0  0  0  0
 23 40  1  0  0  0  0
 24 25  1  0  0  0  0
 24 37  1  0  0  0  0
 24 38  1  0  0  0  0
 25 26  1  0  0  0  0
 25 30  1  0  0  0  0
 25 36  1  0  0  0  0
 26 27  1  0  0  0  0
 26 28  1  0  0  0  0
 26 29  1  0  0  0  0
 30 31  1  0  0  0  0
 30 34  1  0  0  0  0
 30 35  1  0  0  0  0
 31 32  1  0  0  0  0
 31 33  1  0  0  0  0
M  END
>  <MODEL>
       1

$$$$
