tmp_first_model_3_35.pdb
 OpenBabel08272518143D

 40 42  0  0  0  0  0  0  0  0999 V2000
   -9.1650   -1.8820  -22.7080 O   0  0  0  0  0  0  0  0  0  0  0  0
   -8.3060   -1.0790  -22.3530 C   0  0  0  0  0  0  0  0  0  0  0  0
   -6.9870   -1.6030  -21.7820 C   0  0  0  0  0  0  0  0  0  0  0  0
   -6.4110   -0.8500  -20.5990 C   0  0  0  0  0  0  0  0  0  0  0  0
   -7.0050   -0.9630  -19.3630 C   0  0  0  0  0  0  0  0  0  0  0  0
   -6.5270   -0.4370  -18.2070 N   0  0  0  0  0  0  0  0  0  0  0  0
   -5.4240    0.2660  -18.2910 C   0  0  0  0  0  0  0  0  0  0  0  0
   -4.7280    0.5180  -19.5040 C   0  0  0  0  0  0  0  0  0  0  0  0
   -3.5940    1.3680  -19.5530 C   0  0  0  0  0  0  0  0  0  0  0  0
   -2.9900    1.6570  -20.7460 C   0  0  0  0  0  0  0  0  0  0  0  0
   -3.4650    1.0720  -21.9390 C   0  0  0  0  0  0  0  0  0  0  0  0
   -4.5370    0.2100  -21.9110 C   0  0  0  0  0  0  0  0  0  0  0  0
   -5.2190   -0.0670  -20.6960 C   0  0  0  0  0  0  0  0  0  0  0  0
   -4.8780   -0.2320  -22.8440 H   0  0  0  0  0  0  0  0  0  0  0  0
   -2.9830    1.3120  -22.8820 H   0  0  0  0  0  0  0  0  0  0  0  0
   -2.1480    2.3420  -20.7840 H   0  0  0  0  0  0  0  0  0  0  0  0
   -3.2400    1.8040  -18.6220 H   0  0  0  0  0  0  0  0  0  0  0  0
   -5.0310    0.6900  -17.3660 H   0  0  0  0  0  0  0  0  0  0  0  0
   -7.9340   -1.5260  -19.2610 H   0  0  0  0  0  0  0  0  0  0  0  0
   -7.2040   -2.6320  -21.4810 H   0  0  0  0  0  0  0  0  0  0  0  0
   -6.2600   -1.6720  -22.5950 H   0  0  0  0  0  0  0  0  0  0  0  0
   -8.4150    0.2990  -22.4180 N   0  0  0  0  0  0  0  0  0  0  0  0
   -9.5940    1.0840  -21.9840 C   0  0  0  0  0  0  0  0  0  0  0  0
   -9.6160    0.9250  -21.8010 C   0  0  0  0  0  0  0  0  0  0  0  0
   -9.2800    2.8860  -23.6620 C   0  0  0  0  0  0  0  0  0  0  0  0
   -8.4660    5.4270  -22.8490 C   0  0  0  0  0  0  0  0  0  0  0  0
   -7.6020    5.7730  -23.7840 F   0  0  0  0  0  0  0  0  0  0  0  0
   -9.2590    6.4300  -22.5470 F   0  0  0  0  0  0  0  0  0  0  0  0
   -7.8440    4.9840  -21.7750 F   0  0  0  0  0  0  0  0  0  0  0  0
   -8.0190    2.4710  -23.6890 C   0  0  0  0  0  0  0  0  0  0  0  0
   -7.4580    1.1730  -23.1680 C   0  0  0  0  0  0  0  0  0  0  0  0
   -7.0340    0.6000  -23.9950 H   0  0  0  0  0  0  0  0  0  0  0  0
   -6.6350    1.4400  -22.4940 H   0  0  0  0  0  0  0  0  0  0  0  0
  -10.0920    2.1860  -23.6600 H   0  0  0  0  0  0  0  0  0  0  0  0
   -7.2460    3.1340  -24.0800 H   0  0  0  0  0  0  0  0  0  0  0  0
   -9.4850    3.9600  -23.6810 H   0  0  0  0  0  0  0  0  0  0  0  0
  -10.4940    1.8610  -21.7290 H   0  0  0  0  0  0  0  0  0  0  0  0
   -8.8730    1.9090  -21.4480 H   0  0  0  0  0  0  0  0  0  0  0  0
   -9.9170    0.0670  -20.5120 H   0  0  0  0  0  0  0  0  0  0  0  0
  -10.3560    0.5810  -22.7880 H   0  0  0  0  0  0  0  0  0  0  0  0
  1  2  2  0  0  0  0
  2  3  1  0  0  0  0
  2 22  1  0  0  0  0
  3  4  1  0  0  0  0
  3 20  1  0  0  0  0
  3 21  1  0  0  0  0
  4  5  2  0  0  0  0
  4 13  1  0  0  0  0
  5  6  1  0  0  0  0
  5 19  1  0  0  0  0
  6  7  2  0  0  0  0
  7  8  1  0  0  0  0
  7 18  1  0  0  0  0
  8  9  2  0  0  0  0
  8 13  1  0  0  0  0
  9 10  1  0  0  0  0
  9 17  1  0  0  0  0
 10 11  2  0  0  0  0
 10 16  1  0  0  0  0
 11 12  1  0  0  0  0
 11 15  1  0  0  0  0
 12 13  2  0  0  0  0
 12 14  1  0  0  0  0
 22 23  1  0  0  0  0
 22 31  1  0  0  0  0
 23 24  1  0  0  0  0
 23 39  1  0  0  0  0
 23 40  1  0  0  0  0
 24 25  1  0  0  0  0
 24 37  1  0  0  0  0
 24 38  1  0  0  0  0
 25 26  1  0  0  0  0
 25 30  1  0  0  0  0
 25 36  1  0  0  0  0
 26 27  1  0  0  0  0
 26 28  1  0  0  0  0
 26 29  1  0  0  0  0
 30 31  1  0  0  0  0
 30 34  1  0  0  0  0
 30 35  1  0  0  0  0
 31 32  1  0  0  0  0
 31 33  1  0  0  0  0
M  END
>  <MODEL>
       1

$$$$
