tmp_first_model_14_90.pdb
 OpenBabel08282500413D

 64 68  0  0  1  0  0  0  0  0999 V2000
   -7.8050   -4.2070  -27.6660 C   0  0  0  0  0  0  0  0  0  0  0  0
   -8.5780   -3.2100  -26.9470 N   0  0  0  0  0  0  0  0  0  0  0  0
   -9.8670   -3.4860  -26.6030 C   0  0  0  0  0  0  0  0  0  0  0  0
  -10.3980   -4.5370  -26.9140 O   0  0  0  0  0  0  0  0  0  0  0  0
  -10.5690   -2.4070  -25.7720 C   0  0  0  0  0  0  0  0  0  0  0  0
  -10.3730   -2.6200  -24.3370 N   0  0  0  0  0  0  0  0  0  0  0  0
   -9.5220   -1.6790  -23.5920 C   0  0  0  0  0  0  0  0  0  0  0  0
   -8.9210   -2.2540  -22.2810 C   0  0  2  0  0  0  0  0  0  0  0  0
   -8.3170   -1.1410  -21.4350 C   0  0  0  0  0  0  0  0  0  0  0  0
   -8.9400   -0.2180  -20.9450 O   0  0  0  0  0  0  0  0  0  0  0  0
   -6.9820   -1.3740  -21.2460 N   0  0  0  0  0  0  0  0  0  0  0  0
   -6.3080   -0.7250  -20.1790 C   0  0  0  0  0  0  0  0  0  0  0  0
   -6.7290   -0.8620  -18.8770 C   0  0  0  0  0  0  0  0  0  0  0  0
   -6.0920   -0.3110  -17.8160 N   0  0  0  0  0  0  0  0  0  0  0  0
   -5.0200    0.4070  -18.0480 C   0  0  0  0  0  0  0  0  0  0  0  0
   -4.5090    0.6680  -19.3510 C   0  0  0  0  0  0  0  0  0  0  0  0
   -3.3770    1.4930  -19.5840 C   0  0  0  0  0  0  0  0  0  0  0  0
   -2.9940    1.7890  -20.8650 C   0  0  0  0  0  0  0  0  0  0  0  0
   -3.7200    1.2860  -21.9710 C   0  0  0  0  0  0  0  0  0  0  0  0
   -4.8020    0.4680  -21.7690 C   0  0  0  0  0  0  0  0  0  0  0  0
   -5.1950    0.1190  -20.4540 C   0  0  0  0  0  0  0  0  0  0  0  0
   -5.3890    0.1040  -22.6070 H   0  0  0  0  0  0  0  0  0  0  0  0
   -3.4300    1.5560  -22.9820 H   0  0  0  0  0  0  0  0  0  0  0  0
   -2.1420    2.4370  -21.0440 H   0  0  0  0  0  0  0  0  0  0  0  0
   -2.8430    1.8980  -18.7280 H   0  0  0  0  0  0  0  0  0  0  0  0
   -4.5060    0.8300  -17.1800 H   0  0  0  0  0  0  0  0  0  0  0  0
   -7.6250   -1.4320  -18.6400 H   0  0  0  0  0  0  0  0  0  0  0  0
   -6.4780   -2.4710  -22.0630 C   0  0  0  0  0  0  0  0  0  0  0  0
   -7.7510   -3.2830  -22.4420 C   0  0  2  0  0  0  0  0  0  0  0  0
   -7.6340   -3.9850  -23.8100 C   0  0  0  0  0  0  0  0  0  0  0  0
   -6.4490   -5.3300  -23.8680 S   0  0  0  0  0  0  0  0  0  0  0  0
   -6.5430   -5.9470  -25.1820 O   0  0  0  0  0  0  0  0  0  0  0  0
   -5.1680   -4.8540  -23.3670 O   0  0  0  0  0  0  0  0  0  0  0  0
   -7.0290   -6.4220  -22.7660 N   0  0  0  0  0  0  0  0  0  0  0  0
   -8.3350   -7.0120  -23.0380 C   0  0  0  0  0  0  0  0  0  0  0  0
   -8.2740   -7.5970  -23.9550 H   0  0  0  0  0  0  0  0  0  0  0  0
   -9.1390   -6.2650  -23.1380 H   0  0  0  0  0  0  0  0  0  0  0  0
   -8.5890   -7.6680  -22.2070 H   0  0  0  0  0  0  0  0  0  0  0  0
   -6.8640   -6.0920  -21.8200 H   0  0  0  0  0  0  0  0  0  0  0  0
   -7.3070   -3.3080  -24.6030 H   0  0  0  0  0  0  0  0  0  0  0  0
   -8.5850   -4.4190  -24.1310 H   0  0  0  0  0  0  0  0  0  0  0  0
   -7.9150   -4.0480  -21.6710 H   0  0  0  0  0  0  0  0  0  0  0  0
   -5.9980   -2.0790  -22.9680 H   0  0  0  0  0  0  0  0  0  0  0  0
   -5.7300   -3.0550  -21.5220 H   0  0  0  0  0  0  0  0  0  0  0  0
  -10.1050   -2.6930  -21.4130 C   0  0  0  0  0  0  0  0  0  0  0  0
  -10.4950   -3.9740  -21.3290 C   0  0  0  0  0  0  0  0  0  0  0  0
  -13.2920   -4.2550  -20.5960 C   0  0  0  0  0  0  0  0  0  0  0  0
  -13.2260   -5.0030  -19.4970 F   0  0  0  0  0  0  0  0  0  0  0  0
  -13.3010   -4.1800  -20.6470 C   0  0  0  0  0  0  0  0  0  0  0  0
  -12.7690   -3.8720  -21.8620 C   0  0  0  0  0  0  0  0  0  0  0  0
  -11.3280   -3.5400  -22.2620 C   0  0  0  0  0  0  0  0  0  0  0  0
  -11.2960   -3.4540  -23.7380 C   0  0  0  0  0  0  0  0  0  0  0  0
  -12.1310   -4.0580  -24.3820 O   0  0  0  0  0  0  0  0  0  0  0  0
  -13.5500   -3.4610  -22.3890 H   0  0  0  0  0  0  0  0  0  0  0  0
  -14.5950   -4.1770  -20.7220 H   0  0  0  0  0  0  0  0  0  0  0  0
  -10.4110   -1.8820  -20.7200 H   0  0  0  0  0  0  0  0  0  0  0  0
  -10.1010   -0.7920  -23.3010 H   0  0  0  0  0  0  0  0  0  0  0  0
   -8.7070   -1.3540  -24.2560 H   0  0  0  0  0  0  0  0  0  0  0  0
  -11.6340   -2.4770  -25.9970 H   0  0  0  0  0  0  0  0  0  0  0  0
  -10.2170   -1.4070  -26.0600 H   0  0  0  0  0  0  0  0  0  0  0  0
   -8.2220   -2.2740  -26.8380 H   0  0  0  0  0  0  0  0  0  0  0  0
   -6.7840   -3.8420  -27.7960 H   0  0  0  0  0  0  0  0  0  0  0  0
   -8.2460   -4.4230  -28.6460 H   0  0  0  0  0  0  0  0  0  0  0  0
   -7.7800   -5.1310  -27.0810 H   0  0  0  0  0  0  0  0  0  0  0  0
  1  2  1  0  0  0  0
  1 62  1  0  0  0  0
  1 63  1  0  0  0  0
  1 64  1  0  0  0  0
  2  3  1  0  0  0  0
  2 61  1  0  0  0  0
  3  4  2  0  0  0  0
  3  5  1  0  0  0  0
  5  6  1  0  0  0  0
  5 59  1  0  0  0  0
  5 60  1  0  0  0  0
  6  7  1  0  0  0  0
  6 52  1  0  0  0  0
  7  8  1  0  0  0  0
  7 57  1  0  0  0  0
  7 58  1  0  0  0  0
  8  9  1  1  0  0  0
  8 29  1  0  0  0  0
  8 45  1  0  0  0  0
  9 10  2  0  0  0  0
  9 11  1  0  0  0  0
 11 12  1  0  0  0  0
 11 28  1  0  0  0  0
 12 13  2  0  0  0  0
 12 21  1  0  0  0  0
 13 14  1  0  0  0  0
 13 27  1  0  0  0  0
 14 15  2  0  0  0  0
 15 16  1  0  0  0  0
 15 26  1  0  0  0  0
 16 17  2  0  0  0  0
 16 21  1  0  0  0  0
 17 18  1  0  0  0  0
 17 25  1  0  0  0  0
 18 19  2  0  0  0  0
 18 24  1  0  0  0  0
 19 20  1  0  0  0  0
 19 23  1  0  0  0  0
 20 21  2  0  0  0  0
 20 22  1  0  0  0  0
 28 29  1  0  0  0  0
 28 43  1  0  0  0  0
 28 44  1  0  0  0  0
 29 30  1  0  0  0  0
 29 42  1  1  0  0  0
 30 31  1  0  0  0  0
 30 40  1  0  0  0  0
 30 41  1  0  0  0  0
 31 32  2  0  0  0  0
 31 33  2  0  0  0  0
 31 34  1  0  0  0  0
 34 35  1  0  0  0  0
 34 39  1  0  0  0  0
 35 36  1  0  0  0  0
 35 37  1  0  0  0  0
 35 38  1  0  0  0  0
 45 46  2  0  0  0  0
 45 51  1  0  0  0  0
 46 47  1  0  0  0  0
 46 56  1  0  0  0  0
 47 48  1  0  0  0  0
 47 49  2  0  0  0  0
 49 50  1  0  0  0  0
 49 55  1  0  0  0  0
 50 51  2  0  0  0  0
 50 54  1  0  0  0  0
 51 52  1  0  0  0  0
 52 53  2  0  0  0  0
M  END
>  <MODEL>
       1

$$$$
