tmp_first_model_11_93.pdb
 OpenBabel08272522543D

 62 67  0  0  1  0  0  0  0  0999 V2000
  -14.7640   -3.6570  -24.3260 C   0  0  0  0  0  0  0  0  0  0  0  0
  -13.8770   -2.4720  -23.9100 C   0  0  0  0  0  0  0  0  0  0  0  0
  -13.9300   -2.1770  -22.4900 N   0  0  0  0  0  0  0  0  0  0  0  0
  -14.9480   -1.4070  -22.0960 N   0  0  0  0  0  0  0  0  0  0  0  0
  -14.9730   -1.5170  -20.7790 C   0  0  0  0  0  0  0  0  0  0  0  0
  -13.9570   -2.3640  -20.3110 C   0  0  0  0  0  0  0  0  0  0  0  0
  -13.2830   -2.7690  -21.4480 C   0  0  0  0  0  0  0  0  0  0  0  0
  -12.2830   -3.8660  -21.6750 C   0  0  0  0  0  0  0  0  0  0  0  0
  -11.0670   -3.6060  -22.4610 N   0  0  0  0  0  0  0  0  0  0  0  0
   -9.9000   -3.2650  -21.6500 C   0  0  0  0  0  0  0  0  0  0  0  0
   -8.6940   -2.7900  -22.4770 C   0  0  2  0  0  0  0  0  0  0  0  0
   -7.5370   -2.6460  -21.4710 C   0  0  0  0  0  0  0  0  0  0  0  0
   -6.9270   -3.5430  -20.9190 O   0  0  0  0  0  0  0  0  0  0  0  0
   -7.3090   -1.3070  -21.2550 N   0  0  0  0  0  0  0  0  0  0  0  0
   -6.5170   -0.8450  -20.1810 C   0  0  0  0  0  0  0  0  0  0  0  0
   -6.8390   -1.1220  -18.8770 C   0  0  0  0  0  0  0  0  0  0  0  0
   -6.2010   -0.5770  -17.8100 N   0  0  0  0  0  0  0  0  0  0  0  0
   -5.1950    0.2310  -18.0510 C   0  0  0  0  0  0  0  0  0  0  0  0
   -4.7210    0.5520  -19.3580 C   0  0  0  0  0  0  0  0  0  0  0  0
   -3.6020    1.3960  -19.5890 C   0  0  0  0  0  0  0  0  0  0  0  0
   -3.1890    1.6620  -20.8660 C   0  0  0  0  0  0  0  0  0  0  0  0
   -3.8680    1.1060  -21.9740 C   0  0  0  0  0  0  0  0  0  0  0  0
   -4.9530    0.2890  -21.7770 C   0  0  0  0  0  0  0  0  0  0  0  0
   -5.4040    0.0020  -20.4620 C   0  0  0  0  0  0  0  0  0  0  0  0
   -5.4750   -0.1530  -22.6190 H   0  0  0  0  0  0  0  0  0  0  0  0
   -3.5360    1.3290  -22.9840 H   0  0  0  0  0  0  0  0  0  0  0  0
   -2.3350    2.3110  -21.0400 H   0  0  0  0  0  0  0  0  0  0  0  0
   -3.0920    1.8300  -18.7320 H   0  0  0  0  0  0  0  0  0  0  0  0
   -4.6930    0.6710  -17.1870 H   0  0  0  0  0  0  0  0  0  0  0  0
   -7.6570   -1.8020  -18.6430 H   0  0  0  0  0  0  0  0  0  0  0  0
   -8.2820   -0.4500  -21.9100 C   0  0  0  0  0  0  0  0  0  0  0  0
   -8.8290   -1.3340  -23.0400 C   0  0  2  0  0  0  0  0  0  0  0  0
  -10.2180   -0.8970  -23.4920 C   0  0  0  0  0  0  0  0  0  0  0  0
  -10.2100    0.1490  -23.8170 H   0  0  0  0  0  0  0  0  0  0  0  0
  -10.5760   -1.5030  -24.3300 H   0  0  0  0  0  0  0  0  0  0  0  0
  -10.9340   -0.9840  -22.6690 H   0  0  0  0  0  0  0  0  0  0  0  0
   -8.1390   -1.2730  -23.8940 H   0  0  0  0  0  0  0  0  0  0  0  0
   -7.8200    0.4770  -22.2640 H   0  0  0  0  0  0  0  0  0  0  0  0
   -9.0830   -0.1610  -21.2100 H   0  0  0  0  0  0  0  0  0  0  0  0
   -8.4130   -3.8410  -23.5210 C   0  0  0  0  0  0  0  0  0  0  0  0
   -7.1100   -4.0330  -23.9970 C   0  0  0  0  0  0  0  0  0  0  0  0
   -6.8810   -5.0370  -24.9180 C   0  0  0  0  0  0  0  0  0  0  0  0
   -5.6260   -5.2290  -25.3580 F   0  0  0  0  0  0  0  0  0  0  0  0
   -7.8900   -5.8580  -25.4160 C   0  0  0  0  0  0  0  0  0  0  0  0
   -9.1770   -5.6510  -24.9490 C   0  0  0  0  0  0  0  0  0  0  0  0
   -9.4440   -4.6590  -24.0000 C   0  0  0  0  0  0  0  0  0  0  0  0
  -10.8550   -4.4860  -23.5210 C   0  0  0  0  0  0  0  0  0  0  0  0
  -11.7770   -5.0620  -24.0840 O   0  0  0  0  0  0  0  0  0  0  0  0
   -9.9980   -6.2730  -25.2890 H   0  0  0  0  0  0  0  0  0  0  0  0
   -7.6470   -6.6410  -26.1330 H   0  0  0  0  0  0  0  0  0  0  0  0
   -6.2770   -3.4420  -23.6180 H   0  0  0  0  0  0  0  0  0  0  0  0
  -10.1830   -2.4870  -20.9420 H   0  0  0  0  0  0  0  0  0  0  0  0
   -9.5440   -4.1210  -21.0560 H   0  0  0  0  0  0  0  0  0  0  0  0
  -11.9940   -4.2760  -20.7010 H   0  0  0  0  0  0  0  0  0  0  0  0
  -12.8130   -4.6260  -22.2530 H   0  0  0  0  0  0  0  0  0  0  0  0
  -13.7080   -2.5630  -19.2830 H   0  0  0  0  0  0  0  0  0  0  0  0
  -15.7710   -1.0080  -20.2480 H   0  0  0  0  0  0  0  0  0  0  0  0
  -12.8320   -2.6590  -24.1840 H   0  0  0  0  0  0  0  0  0  0  0  0
  -14.2280   -1.5380  -24.3570 H   0  0  0  0  0  0  0  0  0  0  0  0
  -15.0560   -3.5750  -25.3810 H   0  0  0  0  0  0  0  0  0  0  0  0
  -15.6930   -3.6990  -23.7380 H   0  0  0  0  0  0  0  0  0  0  0  0
  -14.1940   -4.5880  -24.2100 H   0  0  0  0  0  0  0  0  0  0  0  0
  1  2  1  0  0  0  0
  1 60  1  0  0  0  0
  1 61  1  0  0  0  0
  1 62  1  0  0  0  0
  2  3  1  0  0  0  0
  2 58  1  0  0  0  0
  2 59  1  0  0  0  0
  3  4  1  0  0  0  0
  3  7  1  0  0  0  0
  4  5  2  0  0  0  0
  5  6  1  0  0  0  0
  5 57  1  0  0  0  0
  6  7  2  0  0  0  0
  6 56  1  0  0  0  0
  7  8  1  0  0  0  0
  8  9  1  0  0  0  0
  8 54  1  0  0  0  0
  8 55  1  0  0  0  0
  9 10  1  0  0  0  0
  9 47  1  0  0  0  0
 10 11  1  0  0  0  0
 10 52  1  0  0  0  0
 10 53  1  0  0  0  0
 11 12  1  1  0  0  0
 11 32  1  0  0  0  0
 11 40  1  0  0  0  0
 12 13  2  0  0  0  0
 12 14  1  0  0  0  0
 14 15  1  0  0  0  0
 14 31  1  0  0  0  0
 15 16  2  0  0  0  0
 15 24  1  0  0  0  0
 16 17  1  0  0  0  0
 16 30  1  0  0  0  0
 17 18  2  0  0  0  0
 18 19  1  0  0  0  0
 18 29  1  0  0  0  0
 19 20  2  0  0  0  0
 19 24  1  0  0  0  0
 20 21  1  0  0  0  0
 20 28  1  0  0  0  0
 21 22  2  0  0  0  0
 21 27  1  0  0  0  0
 22 23  1  0  0  0  0
 22 26  1  0  0  0  0
 23 24  2  0  0  0  0
 23 25  1  0  0  0  0
 31 32  1  0  0  0  0
 31 38  1  0  0  0  0
 31 39  1  0  0  0  0
 32 33  1  0  0  0  0
 32 37  1  6  0  0  0
 33 34  1  0  0  0  0
 33 35  1  0  0  0  0
 33 36  1  0  0  0  0
 40 41  2  0  0  0  0
 40 46  1  0  0  0  0
 41 42  1  0  0  0  0
 41 51  1  0  0  0  0
 42 43  1  0  0  0  0
 42 44  2  0  0  0  0
 44 45  1  0  0  0  0
 44 50  1  0  0  0  0
 45 46  2  0  0  0  0
 45 49  1  0  0  0  0
 46 47  1  0  0  0  0
 47 48  2  0  0  0  0
M  END
>  <MODEL>
       1

$$$$
