tmp_first_model_15_8.pdb
 OpenBabel08282501153D

 60 64  0  0  1  0  0  0  0  0999 V2000
   -7.6120    3.0600  -21.9420 C   0  0  0  0  0  0  0  0  0  0  0  0
   -8.7630    2.5850  -22.6970 N   0  0  0  0  0  0  0  0  0  0  0  0
   -8.4770    1.7920  -23.7680 C   0  0  0  0  0  0  0  0  0  0  0  0
   -7.3180    1.5390  -24.0860 O   0  0  0  0  0  0  0  0  0  0  0  0
   -9.6430    1.2050  -24.5600 C   0  0  0  0  0  0  0  0  0  0  0  0
  -10.1010   -0.0090  -23.9150 N   0  0  0  0  0  0  0  0  0  0  0  0
   -9.2190   -1.1680  -23.8990 C   0  0  0  0  0  0  0  0  0  0  0  0
   -9.3020   -1.9150  -22.5440 C   0  0  2  0  0  0  0  0  0  0  0  0
   -8.7070   -0.9930  -21.4430 C   0  0  0  0  0  0  0  0  0  0  0  0
   -9.2420   -0.0270  -20.9350 O   0  0  0  0  0  0  0  0  0  0  0  0
   -7.4210   -1.4170  -21.1710 N   0  0  0  0  0  0  0  0  0  0  0  0
   -6.6260   -0.8220  -20.1590 C   0  0  0  0  0  0  0  0  0  0  0  0
   -6.9340   -1.0430  -18.8380 C   0  0  0  0  0  0  0  0  0  0  0  0
   -6.2280   -0.5520  -17.7920 N   0  0  0  0  0  0  0  0  0  0  0  0
   -5.1880    0.1970  -18.0720 C   0  0  0  0  0  0  0  0  0  0  0  0
   -4.7580    0.5130  -19.3930 C   0  0  0  0  0  0  0  0  0  0  0  0
   -3.6380    1.3520  -19.6350 C   0  0  0  0  0  0  0  0  0  0  0  0
   -3.2630    1.6520  -20.9150 C   0  0  0  0  0  0  0  0  0  0  0  0
   -3.9900    1.1410  -22.0110 C   0  0  0  0  0  0  0  0  0  0  0  0
   -5.0870    0.3350  -21.8040 C   0  0  0  0  0  0  0  0  0  0  0  0
   -5.4930   -0.0110  -20.4840 C   0  0  0  0  0  0  0  0  0  0  0  0
   -5.6690    0.0090  -22.6610 H   0  0  0  0  0  0  0  0  0  0  0  0
   -3.6860    1.3910  -23.0230 H   0  0  0  0  0  0  0  0  0  0  0  0
   -2.4070    2.2960  -21.0940 H   0  0  0  0  0  0  0  0  0  0  0  0
   -3.1050    1.7580  -18.7790 H   0  0  0  0  0  0  0  0  0  0  0  0
   -4.6220    0.6030  -17.2320 H   0  0  0  0  0  0  0  0  0  0  0  0
   -7.7920   -1.6650  -18.5920 H   0  0  0  0  0  0  0  0  0  0  0  0
   -6.9960   -2.5590  -21.9660 C   0  0  0  0  0  0  0  0  0  0  0  0
   -8.3310   -3.1270  -22.4870 C   0  0  2  0  0  0  0  0  0  0  0  0
   -8.1810   -3.9080  -23.7940 C   0  0  0  0  0  0  0  0  0  0  0  0
   -7.3930   -5.0640  -23.6290 O   0  0  0  0  0  0  0  0  0  0  0  0
   -8.1440   -6.2300  -23.4220 C   0  0  0  0  0  0  0  0  0  0  0  0
   -8.7220   -6.5070  -24.3150 H   0  0  0  0  0  0  0  0  0  0  0  0
   -8.8360   -6.1100  -22.5820 H   0  0  0  0  0  0  0  0  0  0  0  0
   -7.4480   -7.0380  -23.1890 H   0  0  0  0  0  0  0  0  0  0  0  0
   -7.6680   -3.2740  -24.5310 H   0  0  0  0  0  0  0  0  0  0  0  0
   -9.1750   -4.1550  -24.2070 H   0  0  0  0  0  0  0  0  0  0  0  0
   -8.6890   -3.8090  -21.7080 H   0  0  0  0  0  0  0  0  0  0  0  0
   -6.3410   -2.2480  -22.7960 H   0  0  0  0  0  0  0  0  0  0  0  0
   -6.4470   -3.2800  -21.3520 H   0  0  0  0  0  0  0  0  0  0  0  0
  -10.7790   -2.2160  -22.3180 C   0  0  0  0  0  0  0  0  0  0  0  0
  -11.2260   -3.3210  -21.5900 C   0  0  0  0  0  0  0  0  0  0  0  0
  -12.5610   -3.4290  -21.2370 C   0  0  0  0  0  0  0  0  0  0  0  0
  -13.0430   -4.6220  -20.0770 Cl  0  0  0  0  0  0  0  0  0  0  0  0
  -13.5290   -2.5420  -21.6900 C   0  0  0  0  0  0  0  0  0  0  0  0
  -13.1120   -1.4850  -22.4650 C   0  0  0  0  0  0  0  0  0  0  0  0
  -11.7620   -1.3120  -22.7520 C   0  0  0  0  0  0  0  0  0  0  0  0
  -11.3980   -0.0770  -23.5040 C   0  0  0  0  0  0  0  0  0  0  0  0
  -12.2090    0.8180  -23.7240 O   0  0  0  0  0  0  0  0  0  0  0  0
  -13.8080   -0.7480  -22.8460 H   0  0  0  0  0  0  0  0  0  0  0  0
  -14.5700   -2.6730  -21.4180 H   0  0  0  0  0  0  0  0  0  0  0  0
  -10.5520   -4.0940  -21.2450 H   0  0  0  0  0  0  0  0  0  0  0  0
   -8.1980   -0.8200  -24.0880 H   0  0  0  0  0  0  0  0  0  0  0  0
   -9.5010   -1.8610  -24.7030 H   0  0  0  0  0  0  0  0  0  0  0  0
  -10.5000    1.8840  -24.6310 H   0  0  0  0  0  0  0  0  0  0  0  0
   -9.2860    0.9720  -25.5720 H   0  0  0  0  0  0  0  0  0  0  0  0
   -9.6230    2.4370  -22.1740 H   0  0  0  0  0  0  0  0  0  0  0  0
   -7.9270    3.8600  -21.2690 H   0  0  0  0  0  0  0  0  0  0  0  0
   -6.8920    3.4680  -22.6530 H   0  0  0  0  0  0  0  0  0  0  0  0
   -7.1310    2.2400  -21.3790 H   0  0  0  0  0  0  0  0  0  0  0  0
  1  2  1  0  0  0  0
  1 58  1  0  0  0  0
  1 59  1  0  0  0  0
  1 60  1  0  0  0  0
  2  3  1  0  0  0  0
  2 57  1  0  0  0  0
  3  4  2  0  0  0  0
  3  5  1  0  0  0  0
  5  6  1  0  0  0  0
  5 55  1  0  0  0  0
  5 56  1  0  0  0  0
  6  7  1  0  0  0  0
  6 48  1  0  0  0  0
  7  8  1  0  0  0  0
  7 53  1  0  0  0  0
  7 54  1  0  0  0  0
  8  9  1  1  0  0  0
  8 29  1  0  0  0  0
  8 41  1  0  0  0  0
  9 10  2  0  0  0  0
  9 11  1  0  0  0  0
 11 12  1  0  0  0  0
 11 28  1  0  0  0  0
 12 13  2  0  0  0  0
 12 21  1  0  0  0  0
 13 14  1  0  0  0  0
 13 27  1  0  0  0  0
 14 15  2  0  0  0  0
 15 16  1  0  0  0  0
 15 26  1  0  0  0  0
 16 17  2  0  0  0  0
 16 21  1  0  0  0  0
 17 18  1  0  0  0  0
 17 25  1  0  0  0  0
 18 19  2  0  0  0  0
 18 24  1  0  0  0  0
 19 20  1  0  0  0  0
 19 23  1  0  0  0  0
 20 21  2  0  0  0  0
 20 22  1  0  0  0  0
 28 29  1  0  0  0  0
 28 39  1  0  0  0  0
 28 40  1  0  0  0  0
 29 30  1  0  0  0  0
 29 38  1  1  0  0  0
 30 31  1  0  0  0  0
 30 36  1  0  0  0  0
 30 37  1  0  0  0  0
 31 32  1  0  0  0  0
 32 33  1  0  0  0  0
 32 34  1  0  0  0  0
 32 35  1  0  0  0  0
 41 42  2  0  0  0  0
 41 47  1  0  0  0  0
 42 43  1  0  0  0  0
 42 52  1  0  0  0  0
 43 44  1  0  0  0  0
 43 45  2  0  0  0  0
 45 46  1  0  0  0  0
 45 51  1  0  0  0  0
 46 47  2  0  0  0  0
 46 50  1  0  0  0  0
 47 48  1  0  0  0  0
 48 49  2  0  0  0  0
M  END
>  <MODEL>
       1

$$$$
