tmp_first_model_6_85.pdb
 OpenBabel08272519583D

 57 62  0  0  1  0  0  0  0  0999 V2000
   -6.4300    3.5320  -22.9180 C   0  0  0  0  0  0  0  0  0  0  0  0
   -6.8060    2.5000  -23.8660 N   0  0  0  0  0  0  0  0  0  0  0  0
   -8.0930    2.5370  -24.3080 C   0  0  0  0  0  0  0  0  0  0  0  0
   -8.8390    3.4600  -24.0350 O   0  0  0  0  0  0  0  0  0  0  0  0
   -8.5350    1.4280  -25.2560 C   0  0  0  0  0  0  0  0  0  0  0  0
   -9.3030    0.3620  -24.6380 N   0  0  0  0  0  0  0  0  0  0  0  0
   -8.7500   -0.9760  -24.4570 C   0  0  0  0  0  0  0  0  0  0  0  0
   -8.9960   -1.4800  -23.0080 C   0  0  2  0  0  0  0  0  0  0  0  0
   -8.2500   -0.5490  -22.0140 C   0  0  0  0  0  0  0  0  0  0  0  0
   -8.3860    0.6510  -21.8770 O   0  0  0  0  0  0  0  0  0  0  0  0
   -7.3670   -1.3130  -21.2780 N   0  0  0  0  0  0  0  0  0  0  0  0
   -6.6080   -0.7670  -20.2190 C   0  0  0  0  0  0  0  0  0  0  0  0
   -6.9010   -1.0770  -18.9170 C   0  0  0  0  0  0  0  0  0  0  0  0
   -6.2270   -0.5960  -17.8460 N   0  0  0  0  0  0  0  0  0  0  0  0
   -5.2090    0.1970  -18.0880 C   0  0  0  0  0  0  0  0  0  0  0  0
   -4.7810    0.5780  -19.3910 C   0  0  0  0  0  0  0  0  0  0  0  0
   -3.6470    1.4070  -19.6010 C   0  0  0  0  0  0  0  0  0  0  0  0
   -3.2530    1.7350  -20.8710 C   0  0  0  0  0  0  0  0  0  0  0  0
   -3.9660    1.2460  -21.9870 C   0  0  0  0  0  0  0  0  0  0  0  0
   -5.0530    0.4220  -21.8080 C   0  0  0  0  0  0  0  0  0  0  0  0
   -5.5020    0.0870  -20.5020 C   0  0  0  0  0  0  0  0  0  0  0  0
   -5.5400   -0.0230  -22.6690 H   0  0  0  0  0  0  0  0  0  0  0  0
   -3.6380    1.5160  -22.9880 H   0  0  0  0  0  0  0  0  0  0  0  0
   -2.3790    2.3570  -21.0280 H   0  0  0  0  0  0  0  0  0  0  0  0
   -3.1020    1.7620  -18.7320 H   0  0  0  0  0  0  0  0  0  0  0  0
   -4.6640    0.5780  -17.2250 H   0  0  0  0  0  0  0  0  0  0  0  0
   -7.7420   -1.7320  -18.6910 H   0  0  0  0  0  0  0  0  0  0  0  0
   -7.4950   -2.7370  -21.4730 C   0  0  0  0  0  0  0  0  0  0  0  0
   -8.3610   -2.8570  -22.7180 C   0  0  0  0  0  0  0  0  0  0  0  0
   -7.9020   -3.7860  -23.8150 C   0  0  0  0  0  0  0  0  0  0  0  0
   -9.0960   -4.1390  -22.9850 C   0  0  0  0  0  0  0  0  0  0  0  0
  -10.0720   -4.0430  -23.4500 H   0  0  0  0  0  0  0  0  0  0  0  0
   -9.0180   -4.9380  -22.2470 H   0  0  0  0  0  0  0  0  0  0  0  0
   -8.0700   -3.4950  -24.8480 H   0  0  0  0  0  0  0  0  0  0  0  0
   -6.9920   -4.3570  -23.6530 H   0  0  0  0  0  0  0  0  0  0  0  0
   -6.5100   -3.2080  -21.5950 H   0  0  0  0  0  0  0  0  0  0  0  0
   -8.0010   -3.1960  -20.6190 H   0  0  0  0  0  0  0  0  0  0  0  0
  -10.5070   -1.3920  -22.7890 C   0  0  0  0  0  0  0  0  0  0  0  0
  -11.1870   -2.2710  -21.9420 C   0  0  0  0  0  0  0  0  0  0  0  0
  -12.5510   -2.1570  -21.7640 C   0  0  0  0  0  0  0  0  0  0  0  0
  -13.3400   -3.2270  -20.6540 Cl  0  0  0  0  0  0  0  0  0  0  0  0
  -13.2980   -1.1580  -22.3780 C   0  0  0  0  0  0  0  0  0  0  0  0
  -12.6320   -0.2550  -23.1820 C   0  0  0  0  0  0  0  0  0  0  0  0
  -11.2580   -0.3740  -23.3950 C   0  0  0  0  0  0  0  0  0  0  0  0
  -10.6230    0.6020  -24.3440 C   0  0  0  0  0  0  0  0  0  0  0  0
  -11.2700    1.5170  -24.8300 O   0  0  0  0  0  0  0  0  0  0  0  0
  -13.1390    0.5810  -23.6530 H   0  0  0  0  0  0  0  0  0  0  0  0
  -14.3690   -1.0980  -22.2220 H   0  0  0  0  0  0  0  0  0  0  0  0
  -10.6770   -3.0680  -21.4200 H   0  0  0  0  0  0  0  0  0  0  0  0
   -7.6740   -0.9560  -24.6530 H   0  0  0  0  0  0  0  0  0  0  0  0
   -9.2320   -1.6790  -25.1590 H   0  0  0  0  0  0  0  0  0  0  0  0
   -7.6890    0.9880  -25.7950 H   0  0  0  0  0  0  0  0  0  0  0  0
   -9.2000    1.9620  -25.9310 H   0  0  0  0  0  0  0  0  0  0  0  0
   -6.3460    1.6030  -23.8130 H   0  0  0  0  0  0  0  0  0  0  0  0
   -5.4190    3.3530  -22.5540 H   0  0  0  0  0  0  0  0  0  0  0  0
   -7.1350    3.5350  -22.0810 H   0  0  0  0  0  0  0  0  0  0  0  0
   -6.4830    4.5080  -23.4100 H   0  0  0  0  0  0  0  0  0  0  0  0
  1  2  1  0  0  0  0
  1 55  1  0  0  0  0
  1 56  1  0  0  0  0
  1 57  1  0  0  0  0
  2  3  1  0  0  0  0
  2 54  1  0  0  0  0
  3  4  2  0  0  0  0
  3  5  1  0  0  0  0
  5  6  1  0  0  0  0
  5 52  1  0  0  0  0
  5 53  1  0  0  0  0
  6  7  1  0  0  0  0
  6 45  1  0  0  0  0
  7  8  1  0  0  0  0
  7 50  1  0  0  0  0
  7 51  1  0  0  0  0
  8  9  1  1  0  0  0
  8 29  1  0  0  0  0
  8 38  1  0  0  0  0
  9 10  2  0  0  0  0
  9 11  1  0  0  0  0
 11 12  1  0  0  0  0
 11 28  1  0  0  0  0
 12 13  2  0  0  0  0
 12 21  1  0  0  0  0
 13 14  1  0  0  0  0
 13 27  1  0  0  0  0
 14 15  2  0  0  0  0
 15 16  1  0  0  0  0
 15 26  1  0  0  0  0
 16 17  2  0  0  0  0
 16 21  1  0  0  0  0
 17 18  1  0  0  0  0
 17 25  1  0  0  0  0
 18 19  2  0  0  0  0
 18 24  1  0  0  0  0
 19 20  1  0  0  0  0
 19 23  1  0  0  0  0
 20 21  2  0  0  0  0
 20 22  1  0  0  0  0
 28 29  1  0  0  0  0
 28 36  1  0  0  0  0
 28 37  1  0  0  0  0
 29 30  1  0  0  0  0
 29 31  1  0  0  0  0
 30 31  1  0  0  0  0
 30 34  1  0  0  0  0
 30 35  1  0  0  0  0
 31 32  1  0  0  0  0
 31 33  1  0  0  0  0
 38 39  2  0  0  0  0
 38 44  1  0  0  0  0
 39 40  1  0  0  0  0
 39 49  1  0  0  0  0
 40 41  1  0  0  0  0
 40 42  2  0  0  0  0
 42 43  1  0  0  0  0
 42 48  1  0  0  0  0
 43 44  2  0  0  0  0
 43 47  1  0  0  0  0
 44 45  1  0  0  0  0
 45 46  2  0  0  0  0
M  END
>  <MODEL>
       1

$$$$
