tmp_first_model_17_2.pdb
 OpenBabel08282502223D

 60 65  0  0  1  0  0  0  0  0999 V2000
   -5.1910   -1.5080  -30.5030 C   0  0  0  0  0  0  0  0  0  0  0  0
   -5.6730   -0.8830  -29.2200 C   0  0  0  0  0  0  0  0  0  0  0  0
   -5.1520   -1.2690  -27.9850 C   0  0  0  0  0  0  0  0  0  0  0  0
   -5.5740   -0.7630  -26.8300 N   0  0  0  0  0  0  0  0  0  0  0  0
   -6.5620    0.1350  -26.8870 C   0  0  0  0  0  0  0  0  0  0  0  0
   -7.0780    0.6970  -25.5840 C   0  0  0  0  0  0  0  0  0  0  0  0
   -8.1830   -0.0240  -24.9880 N   0  0  0  0  0  0  0  0  0  0  0  0
   -7.9530   -1.3470  -24.4580 C   0  0  0  0  0  0  0  0  0  0  0  0
   -8.7510   -1.5210  -23.1500 C   0  0  2  0  0  0  0  0  0  0  0  0
   -8.1350   -0.6000  -22.0680 C   0  0  0  0  0  0  0  0  0  0  0  0
   -8.2190    0.6050  -21.9990 O   0  0  0  0  0  0  0  0  0  0  0  0
   -7.4240   -1.3790  -21.1850 N   0  0  0  0  0  0  0  0  0  0  0  0
   -6.6090   -0.8090  -20.1760 C   0  0  0  0  0  0  0  0  0  0  0  0
   -6.8980   -1.0550  -18.8580 C   0  0  0  0  0  0  0  0  0  0  0  0
   -6.2030   -0.5530  -17.8100 N   0  0  0  0  0  0  0  0  0  0  0  0
   -5.1720    0.2090  -18.0810 C   0  0  0  0  0  0  0  0  0  0  0  0
   -4.7380    0.5270  -19.3980 C   0  0  0  0  0  0  0  0  0  0  0  0
   -3.6050    1.3550  -19.6330 C   0  0  0  0  0  0  0  0  0  0  0  0
   -3.2000    1.6300  -20.9090 C   0  0  0  0  0  0  0  0  0  0  0  0
   -3.8980    1.0780  -22.0060 C   0  0  0  0  0  0  0  0  0  0  0  0
   -4.9880    0.2720  -21.8050 C   0  0  0  0  0  0  0  0  0  0  0  0
   -5.4610   -0.0050  -20.4890 C   0  0  0  0  0  0  0  0  0  0  0  0
   -5.5130   -0.1500  -22.6580 H   0  0  0  0  0  0  0  0  0  0  0  0
   -3.5540    1.2920  -23.0140 H   0  0  0  0  0  0  0  0  0  0  0  0
   -2.3330    2.2610  -21.0890 H   0  0  0  0  0  0  0  0  0  0  0  0
   -3.0750    1.7630  -18.7760 H   0  0  0  0  0  0  0  0  0  0  0  0
   -4.6250    0.6150  -17.2300 H   0  0  0  0  0  0  0  0  0  0  0  0
   -7.7470   -1.6860  -18.6010 H   0  0  0  0  0  0  0  0  0  0  0  0
   -7.4240   -2.7930  -21.5120 C   0  0  0  0  0  0  0  0  0  0  0  0
   -8.5570   -2.9460  -22.5490 C   0  0  2  0  0  0  0  0  0  0  0  0
   -8.2910   -4.0840  -23.5450 C   0  0  0  0  0  0  0  0  0  0  0  0
   -9.0780   -4.1590  -24.3060 H   0  0  0  0  0  0  0  0  0  0  0  0
   -8.2340   -5.0490  -23.0290 H   0  0  0  0  0  0  0  0  0  0  0  0
   -7.3400   -3.9370  -24.0730 H   0  0  0  0  0  0  0  0  0  0  0  0
   -9.4800   -3.1740  -22.0100 H   0  0  0  0  0  0  0  0  0  0  0  0
   -6.4550   -3.1020  -21.9350 H   0  0  0  0  0  0  0  0  0  0  0  0
   -7.5950   -3.3890  -20.6110 H   0  0  0  0  0  0  0  0  0  0  0  0
  -10.1880   -1.0930  -23.4020 C   0  0  0  0  0  0  0  0  0  0  0  0
  -11.1910   -1.4620  -22.4960 C   0  0  0  0  0  0  0  0  0  0  0  0
  -12.4920   -1.0730  -22.7300 C   0  0  0  0  0  0  0  0  0  0  0  0
  -13.4520   -1.4900  -21.8900 F   0  0  0  0  0  0  0  0  0  0  0  0
  -12.8510   -0.2760  -23.8100 C   0  0  0  0  0  0  0  0  0  0  0  0
  -11.8550    0.1470  -24.6690 C   0  0  0  0  0  0  0  0  0  0  0  0
  -10.5260   -0.2300  -24.4610 C   0  0  0  0  0  0  0  0  0  0  0  0
   -9.4530    0.3320  -25.3450 C   0  0  0  0  0  0  0  0  0  0  0  0
   -9.6530    1.0620  -26.3050 O   0  0  0  0  0  0  0  0  0  0  0  0
  -12.0810    0.7870  -25.5140 H   0  0  0  0  0  0  0  0  0  0  0  0
  -13.8930   -0.0010  -23.9310 H   0  0  0  0  0  0  0  0  0  0  0  0
  -10.9860   -2.0320  -21.5940 H   0  0  0  0  0  0  0  0  0  0  0  0
   -6.8780   -1.4630  -24.2790 H   0  0  0  0  0  0  0  0  0  0  0  0
   -8.2790   -2.1040  -25.1920 H   0  0  0  0  0  0  0  0  0  0  0  0
   -7.4360    1.7160  -25.7420 H   0  0  0  0  0  0  0  0  0  0  0  0
   -6.2500    0.6960  -24.8650 H   0  0  0  0  0  0  0  0  0  0  0  0
   -7.0540    0.5560  -28.1200 C   0  0  0  0  0  0  0  0  0  0  0  0
   -6.6190    0.0550  -29.2780 N   0  0  0  0  0  0  0  0  0  0  0  0
   -7.8230    1.3220  -28.1700 H   0  0  0  0  0  0  0  0  0  0  0  0
   -4.3810   -2.0320  -27.9290 H   0  0  0  0  0  0  0  0  0  0  0  0
   -5.4970   -2.5610  -30.5600 H   0  0  0  0  0  0  0  0  0  0  0  0
   -4.0950   -1.4840  -30.5550 H   0  0  0  0  0  0  0  0  0  0  0  0
   -5.6100   -0.9680  -31.3570 H   0  0  0  0  0  0  0  0  0  0  0  0
  1  2  1  0  0  0  0
  1 58  1  0  0  0  0
  1 59  1  0  0  0  0
  1 60  1  0  0  0  0
  2  3  2  0  0  0  0
  2 55  1  0  0  0  0
  3  4  1  0  0  0  0
  3 57  1  0  0  0  0
  4  5  2  0  0  0  0
  5  6  1  0  0  0  0
  5 54  1  0  0  0  0
  6  7  1  0  0  0  0
  6 52  1  0  0  0  0
  6 53  1  0  0  0  0
  7  8  1  0  0  0  0
  7 45  1  0  0  0  0
  8  9  1  0  0  0  0
  8 50  1  0  0  0  0
  8 51  1  0  0  0  0
  9 10  1  1  0  0  0
  9 30  1  0  0  0  0
  9 38  1  0  0  0  0
 10 11  2  0  0  0  0
 10 12  1  0  0  0  0
 12 13  1  0  0  0  0
 12 29  1  0  0  0  0
 13 14  2  0  0  0  0
 13 22  1  0  0  0  0
 14 15  1  0  0  0  0
 14 28  1  0  0  0  0
 15 16  2  0  0  0  0
 16 17  1  0  0  0  0
 16 27  1  0  0  0  0
 17 18  2  0  0  0  0
 17 22  1  0  0  0  0
 18 19  1  0  0  0  0
 18 26  1  0  0  0  0
 19 20  2  0  0  0  0
 19 25  1  0  0  0  0
 20 21  1  0  0  0  0
 20 24  1  0  0  0  0
 21 22  2  0  0  0  0
 21 23  1  0  0  0  0
 29 30  1  0  0  0  0
 29 36  1  0  0  0  0
 29 37  1  0  0  0  0
 30 31  1  0  0  0  0
 30 35  1  1  0  0  0
 31 32  1  0  0  0  0
 31 33  1  0  0  0  0
 31 34  1  0  0  0  0
 38 39  2  0  0  0  0
 38 44  1  0  0  0  0
 39 40  1  0  0  0  0
 39 49  1  0  0  0  0
 40 41  1  0  0  0  0
 40 42  2  0  0  0  0
 42 43  1  0  0  0  0
 42 48  1  0  0  0  0
 43 44  2  0  0  0  0
 43 47  1  0  0  0  0
 44 45  1  0  0  0  0
 45 46  2  0  0  0  0
 54 55  2  0  0  0  0
 54 56  1  0  0  0  0
M  END
>  <MODEL>
       1

$$$$
