tmp_first_model_1_25.pdb
 OpenBabel08272517043D

 70 75  0  0  1  0  0  0  0  0999 V2000
   -5.7800   -7.7700  -25.5510 O   0  0  0  0  0  0  0  0  0  0  0  0
   -5.6680   -7.1690  -24.4970 C   0  0  0  0  0  0  0  0  0  0  0  0
   -6.8490   -6.4190  -23.8690 C   0  0  0  0  0  0  0  0  0  0  0  0
   -6.7820   -4.9120  -23.9720 N   0  3  1  0  0  0  0  0  0  0  0  0
   -6.7620   -4.5230  -25.4500 C   0  0  0  0  0  0  0  0  0  0  0  0
   -6.7690   -3.0270  -25.6400 C   0  0  0  0  0  0  0  0  0  0  0  0
   -6.2820   -2.4790  -26.8280 C   0  0  0  0  0  0  0  0  0  0  0  0
   -6.3000   -1.1090  -27.0490 C   0  0  0  0  0  0  0  0  0  0  0  0
   -6.8130   -0.2770  -26.0600 C   0  0  0  0  0  0  0  0  0  0  0  0
   -6.8490    1.4480  -26.3170 Cl  0  0  0  0  0  0  0  0  0  0  0  0
   -7.3030   -0.8050  -24.8750 C   0  0  0  0  0  0  0  0  0  0  0  0
   -7.2950   -2.1850  -24.6600 C   0  0  0  0  0  0  0  0  0  0  0  0
   -7.8090   -2.7020  -23.3260 C   0  0  2  0  0  0  0  0  0  0  0  0
   -6.8340   -2.3350  -22.2120 C   0  0  0  0  0  0  0  0  0  0  0  0
   -5.7230   -2.8440  -22.1960 O   0  0  0  0  0  0  0  0  0  0  0  0
   -7.3090   -1.4360  -21.2750 N   0  0  0  0  0  0  0  0  0  0  0  0
   -6.5560   -0.8580  -20.2200 C   0  0  0  0  0  0  0  0  0  0  0  0
   -6.8960   -1.0660  -18.9020 C   0  0  0  0  0  0  0  0  0  0  0  0
   -6.2100   -0.5710  -17.8420 N   0  0  0  0  0  0  0  0  0  0  0  0
   -5.1770    0.1960  -18.0880 C   0  0  0  0  0  0  0  0  0  0  0  0
   -4.7360    0.5240  -19.4010 C   0  0  0  0  0  0  0  0  0  0  0  0
   -3.6170    1.3720  -19.6250 C   0  0  0  0  0  0  0  0  0  0  0  0
   -3.2410    1.6940  -20.9010 C   0  0  0  0  0  0  0  0  0  0  0  0
   -3.9710    1.1990  -22.0070 C   0  0  0  0  0  0  0  0  0  0  0  0
   -5.0550    0.3790  -21.8160 C   0  0  0  0  0  0  0  0  0  0  0  0
   -5.4500    0.0010  -20.5010 C   0  0  0  0  0  0  0  0  0  0  0  0
   -5.6200    0.0120  -22.6680 H   0  0  0  0  0  0  0  0  0  0  0  0
   -3.6700    1.4660  -23.0160 H   0  0  0  0  0  0  0  0  0  0  0  0
   -2.3870    2.3420  -21.0760 H   0  0  0  0  0  0  0  0  0  0  0  0
   -3.0830    1.7580  -18.7590 H   0  0  0  0  0  0  0  0  0  0  0  0
   -4.6330    0.5950  -17.2300 H   0  0  0  0  0  0  0  0  0  0  0  0
   -7.7560   -1.6800  -18.6370 H   0  0  0  0  0  0  0  0  0  0  0  0
   -8.3130   -1.3720  -21.1780 H   0  0  0  0  0  0  0  0  0  0  0  0
   -7.9870   -4.2230  -23.3150 C   0  0  0  0  0  0  0  0  0  0  0  0
   -8.8870   -4.4960  -23.8750 H   0  0  0  0  0  0  0  0  0  0  0  0
   -8.0840   -4.5750  -22.2860 H   0  0  0  0  0  0  0  0  0  0  0  0
   -8.7630   -2.2190  -23.1040 H   0  0  0  0  0  0  0  0  0  0  0  0
   -7.6920   -0.1390  -24.1100 H   0  0  0  0  0  0  0  0  0  0  0  0
   -5.9220   -0.6790  -27.9720 H   0  0  0  0  0  0  0  0  0  0  0  0
   -5.8790   -3.1360  -27.5980 H   0  0  0  0  0  0  0  0  0  0  0  0
   -7.6460   -4.9740  -25.9250 H   0  0  0  0  0  0  0  0  0  0  0  0
   -5.8930   -4.9760  -25.9320 H   0  0  0  0  0  0  0  0  0  0  0  0
   -5.9450   -4.4990  -23.4940 H   0  0  0  0  0  0  0  0  0  0  0  0
   -7.7280   -6.7800  -24.4080 H   0  0  0  0  0  0  0  0  0  0  0  0
   -6.9720   -6.6970  -22.8220 H   0  0  0  0  0  0  0  0  0  0  0  0
   -4.5030   -7.1160  -23.7860 N   0  0  0  0  0  0  0  0  0  0  0  0
   -3.2940   -7.7500  -24.1740 C   0  0  0  0  0  0  0  0  0  0  0  0
   -2.0720   -7.1090  -23.9620 C   0  0  0  0  0  0  0  0  0  0  0  0
   -0.8860   -7.7080  -24.3860 C   0  0  0  0  0  0  0  0  0  0  0  0
   -0.9060   -8.9500  -25.0260 C   0  0  0  0  0  0  0  0  0  0  0  0
    0.3180   -9.5450  -25.4770 N   0  0  0  0  0  0  0  0  0  0  0  0
    1.3330   -9.8740  -24.4760 C   0  0  0  0  0  0  0  0  0  0  0  0
    2.6520  -10.2400  -25.1410 C   0  0  0  0  0  0  0  0  0  0  0  0
    2.4230  -11.1930  -26.1510 O   0  0  0  0  0  0  0  0  0  0  0  0
    1.7020  -10.6240  -27.2100 C   0  0  0  0  0  0  0  0  0  0  0  0
    0.4030   -9.9440  -26.7880 C   0  0  0  0  0  0  0  0  0  0  0  0
   -0.4730   -9.7300  -27.6070 O   0  0  0  0  0  0  0  0  0  0  0  0
    2.3110   -9.8650  -27.7320 H   0  0  0  0  0  0  0  0  0  0  0  0
    1.4530  -11.4270  -27.9060 H   0  0  0  0  0  0  0  0  0  0  0  0
    3.1450   -9.3540  -25.5700 H   0  0  0  0  0  0  0  0  0  0  0  0
    3.3350  -10.6980  -24.4180 H   0  0  0  0  0  0  0  0  0  0  0  0
    1.4730   -9.0110  -23.8180 H   0  0  0  0  0  0  0  0  0  0  0  0
    0.9790  -10.7220  -23.8760 H   0  0  0  0  0  0  0  0  0  0  0  0
   -2.1290   -9.6070  -25.1960 C   0  0  0  0  0  0  0  0  0  0  0  0
   -3.3130   -9.0090  -24.7750 C   0  0  0  0  0  0  0  0  0  0  0  0
   -4.2640   -9.5030  -24.9310 H   0  0  0  0  0  0  0  0  0  0  0  0
   -2.1630  -10.5790  -25.6880 H   0  0  0  0  0  0  0  0  0  0  0  0
    0.0610   -7.1910  -24.2330 H   0  0  0  0  0  0  0  0  0  0  0  0
   -2.0410   -6.1410  -23.4680 H   0  0  0  0  0  0  0  0  0  0  0  0
   -4.4980   -6.5260  -22.9710 H   0  0  0  0  0  0  0  0  0  0  0  0
  1  2  2  0  0  0  0
  2  3  1  0  0  0  0
  2 46  1  0  0  0  0
  3  4  1  0  0  0  0
  3 44  1  0  0  0  0
  3 45  1  0  0  0  0
  4  5  1  0  0  0  0
  4 34  1  0  0  0  0
  4 43  1  1  0  0  0
  5  6  1  0  0  0  0
  5 41  1  0  0  0  0
  5 42  1  0  0  0  0
  6  7  2  0  0  0  0
  6 12  1  0  0  0  0
  7  8  1  0  0  0  0
  7 40  1  0  0  0  0
  8  9  2  0  0  0  0
  8 39  1  0  0  0  0
  9 10  1  0  0  0  0
  9 11  1  0  0  0  0
 11 12  2  0  0  0  0
 11 38  1  0  0  0  0
 12 13  1  0  0  0  0
 13 14  1  0  0  0  0
 13 34  1  0  0  0  0
 13 37  1  1  0  0  0
 14 15  2  0  0  0  0
 14 16  1  0  0  0  0
 16 17  1  0  0  0  0
 16 33  1  0  0  0  0
 17 18  2  0  0  0  0
 17 26  1  0  0  0  0
 18 19  1  0  0  0  0
 18 32  1  0  0  0  0
 19 20  2  0  0  0  0
 20 21  1  0  0  0  0
 20 31  1  0  0  0  0
 21 22  2  0  0  0  0
 21 26  1  0  0  0  0
 22 23  1  0  0  0  0
 22 30  1  0  0  0  0
 23 24  2  0  0  0  0
 23 29  1  0  0  0  0
 24 25  1  0  0  0  0
 24 28  1  0  0  0  0
 25 26  2  0  0  0  0
 25 27  1  0  0  0  0
 34 35  1  0  0  0  0
 34 36  1  0  0  0  0
 46 47  1  0  0  0  0
 46 70  1  0  0  0  0
 47 48  2  0  0  0  0
 47 65  1  0  0  0  0
 48 49  1  0  0  0  0
 48 69  1  0  0  0  0
 49 50  2  0  0  0  0
 49 68  1  0  0  0  0
 50 51  1  0  0  0  0
 50 64  1  0  0  0  0
 51 52  1  0  0  0  0
 51 56  1  0  0  0  0
 52 53  1  0  0  0  0
 52 62  1  0  0  0  0
 52 63  1  0  0  0  0
 53 54  1  0  0  0  0
 53 60  1  0  0  0  0
 53 61  1  0  0  0  0
 54 55  1  0  0  0  0
 55 56  1  0  0  0  0
 55 58  1  0  0  0  0
 55 59  1  0  0  0  0
 56 57  2  0  0  0  0
 64 65  2  0  0  0  0
 64 67  1  0  0  0  0
 65 66  1  0  0  0  0
M  CHG  1   4   1
M  END
>  <MODEL>
       1

$$$$
