tmp_first_model_3_15.pdb
 OpenBabel08272518143D

 63 68  0  0  1  0  0  0  0  0999 V2000
   -7.4980    3.3600  -21.7770 C   0  0  0  0  0  0  0  0  0  0  0  0
   -8.4240    2.9020  -22.7810 N   0  0  0  0  0  0  0  0  0  0  0  0
   -7.8930    2.2000  -23.8090 C   0  0  0  0  0  0  0  0  0  0  0  0
   -6.6860    2.0820  -23.9470 O   0  0  0  0  0  0  0  0  0  0  0  0
   -8.8640    1.5830  -24.8030 C   0  0  0  0  0  0  0  0  0  0  0  0
   -9.5230    0.4020  -24.2950 N   0  0  0  0  0  0  0  0  0  0  0  0
   -8.7470   -0.8200  -24.1760 C   0  0  0  0  0  0  0  0  0  0  0  0
   -9.0640   -1.5690  -22.8650 C   0  0  2  0  0  0  0  0  0  0  0  0
   -8.5350   -0.7820  -21.6410 C   0  0  0  0  0  0  0  0  0  0  0  0
   -9.0300    0.2000  -21.1220 O   0  0  0  0  0  0  0  0  0  0  0  0
   -7.3830   -1.3900  -21.2050 N   0  0  0  0  0  0  0  0  0  0  0  0
   -6.5980   -0.8160  -20.1740 C   0  0  0  0  0  0  0  0  0  0  0  0
   -6.9140   -1.0450  -18.8580 C   0  0  0  0  0  0  0  0  0  0  0  0
   -6.2180   -0.5470  -17.8080 N   0  0  0  0  0  0  0  0  0  0  0  0
   -5.1770    0.2080  -18.0770 C   0  0  0  0  0  0  0  0  0  0  0  0
   -4.7360    0.5250  -19.3950 C   0  0  0  0  0  0  0  0  0  0  0  0
   -3.6120    1.3620  -19.6390 C   0  0  0  0  0  0  0  0  0  0  0  0
   -3.2300    1.6610  -20.9190 C   0  0  0  0  0  0  0  0  0  0  0  0
   -3.9560    1.1420  -22.0160 C   0  0  0  0  0  0  0  0  0  0  0  0
   -5.0460    0.3310  -21.8060 C   0  0  0  0  0  0  0  0  0  0  0  0
   -5.4660    0.0010  -20.4870 C   0  0  0  0  0  0  0  0  0  0  0  0
   -5.6120   -0.0400  -22.6550 H   0  0  0  0  0  0  0  0  0  0  0  0
   -3.6650    1.3960  -23.0300 H   0  0  0  0  0  0  0  0  0  0  0  0
   -2.3790    2.3140  -21.0960 H   0  0  0  0  0  0  0  0  0  0  0  0
   -3.0840    1.7720  -18.7830 H   0  0  0  0  0  0  0  0  0  0  0  0
   -4.6220    0.6100  -17.2290 H   0  0  0  0  0  0  0  0  0  0  0  0
   -7.7700   -1.6690  -18.6070 H   0  0  0  0  0  0  0  0  0  0  0  0
   -7.0190   -2.5850  -21.9340 C   0  0  0  0  0  0  0  0  0  0  0  0
   -8.2830   -2.9140  -22.7400 C   0  0  2  0  0  0  0  0  0  0  0  0
   -7.9740   -3.6710  -24.0450 C   0  0  0  0  0  0  0  0  0  0  0  0
   -7.4010   -4.9830  -23.8070 N   0  0  0  0  0  0  0  0  0  0  0  0
   -8.0760   -6.1170  -23.5080 C   0  0  0  0  0  0  0  0  0  0  0  0
   -7.1330   -7.0980  -23.2850 C   0  0  0  0  0  0  0  0  0  0  0  0
   -5.8990   -6.4320  -23.4780 C   0  0  0  0  0  0  0  0  0  0  0  0
   -6.0720   -5.1510  -23.7860 N   0  0  0  0  0  0  0  0  0  0  0  0
   -4.8860   -6.8140  -23.4060 H   0  0  0  0  0  0  0  0  0  0  0  0
   -7.3140   -8.1350  -23.0190 H   0  0  0  0  0  0  0  0  0  0  0  0
   -9.1630   -6.1200  -23.4890 H   0  0  0  0  0  0  0  0  0  0  0  0
   -7.2340   -3.1290  -24.6390 H   0  0  0  0  0  0  0  0  0  0  0  0
   -8.8870   -3.8120  -24.6370 H   0  0  0  0  0  0  0  0  0  0  0  0
   -8.9100   -3.5750  -22.1400 H   0  0  0  0  0  0  0  0  0  0  0  0
   -6.1650   -2.4040  -22.6040 H   0  0  0  0  0  0  0  0  0  0  0  0
   -6.7310   -3.3850  -21.2440 H   0  0  0  0  0  0  0  0  0  0  0  0
  -10.5700   -1.6780  -22.7660 C   0  0  0  0  0  0  0  0  0  0  0  0
  -11.1260   -2.6050  -21.8860 C   0  0  0  0  0  0  0  0  0  0  0  0
  -12.4920   -2.6700  -21.7060 C   0  0  0  0  0  0  0  0  0  0  0  0
  -13.0710   -3.8010  -20.5140 Cl  0  0  0  0  0  0  0  0  0  0  0  0
  -13.3560   -1.8320  -22.4170 C   0  0  0  0  0  0  0  0  0  0  0  0
  -12.8110   -0.8780  -23.2550 C   0  0  0  0  0  0  0  0  0  0  0  0
  -11.4290   -0.7710  -23.4000 C   0  0  0  0  0  0  0  0  0  0  0  0
  -10.8860    0.3970  -24.1630 C   0  0  0  0  0  0  0  0  0  0  0  0
  -11.6060    1.2880  -24.5990 O   0  0  0  0  0  0  0  0  0  0  0  0
  -13.4400   -0.1720  -23.7890 H   0  0  0  0  0  0  0  0  0  0  0  0
  -14.4290   -1.9140  -22.2990 H   0  0  0  0  0  0  0  0  0  0  0  0
  -10.4950   -3.2690  -21.3090 H   0  0  0  0  0  0  0  0  0  0  0  0
   -8.9680   -1.4890  -25.0210 H   0  0  0  0  0  0  0  0  0  0  0  0
   -7.6910   -0.5390  -24.2000 H   0  0  0  0  0  0  0  0  0  0  0  0
   -9.6680    2.2730  -25.0590 H   0  0  0  0  0  0  0  0  0  0  0  0
   -8.2600    1.3410  -25.6830 H   0  0  0  0  0  0  0  0  0  0  0  0
   -9.3840    2.7470  -22.5260 H   0  0  0  0  0  0  0  0  0  0  0  0
   -6.8980    2.5220  -21.4080 H   0  0  0  0  0  0  0  0  0  0  0  0
   -8.0430    3.8290  -20.9660 H   0  0  0  0  0  0  0  0  0  0  0  0
   -6.8050    4.0810  -22.2040 H   0  0  0  0  0  0  0  0  0  0  0  0
  1  2  1  0  0  0  0
  1 61  1  0  0  0  0
  1 62  1  0  0  0  0
  1 63  1  0  0  0  0
  2  3  1  0  0  0  0
  2 60  1  0  0  0  0
  3  4  2  0  0  0  0
  3  5  1  0  0  0  0
  5  6  1  0  0  0  0
  5 58  1  0  0  0  0
  5 59  1  0  0  0  0
  6  7  1  0  0  0  0
  6 51  1  0  0  0  0
  7  8  1  0  0  0  0
  7 56  1  0  0  0  0
  7 57  1  0  0  0  0
  8  9  1  1  0  0  0
  8 29  1  0  0  0  0
  8 44  1  0  0  0  0
  9 10  2  0  0  0  0
  9 11  1  0  0  0  0
 11 12  1  0  0  0  0
 11 28  1  0  0  0  0
 12 13  2  0  0  0  0
 12 21  1  0  0  0  0
 13 14  1  0  0  0  0
 13 27  1  0  0  0  0
 14 15  2  0  0  0  0
 15 16  1  0  0  0  0
 15 26  1  0  0  0  0
 16 17  2  0  0  0  0
 16 21  1  0  0  0  0
 17 18  1  0  0  0  0
 17 25  1  0  0  0  0
 18 19  2  0  0  0  0
 18 24  1  0  0  0  0
 19 20  1  0  0  0  0
 19 23  1  0  0  0  0
 20 21  2  0  0  0  0
 20 22  1  0  0  0  0
 28 29  1  0  0  0  0
 28 42  1  0  0  0  0
 28 43  1  0  0  0  0
 29 30  1  0  0  0  0
 29 41  1  1  0  0  0
 30 31  1  0  0  0  0
 30 39  1  0  0  0  0
 30 40  1  0  0  0  0
 31 32  1  0  0  0  0
 31 35  1  0  0  0  0
 32 33  2  0  0  0  0
 32 38  1  0  0  0  0
 33 34  1  0  0  0  0
 33 37  1  0  0  0  0
 34 35  2  0  0  0  0
 34 36  1  0  0  0  0
 44 45  2  0  0  0  0
 44 50  1  0  0  0  0
 45 46  1  0  0  0  0
 45 55  1  0  0  0  0
 46 47  1  0  0  0  0
 46 48  2  0  0  0  0
 48 49  1  0  0  0  0
 48 54  1  0  0  0  0
 49 50  2  0  0  0  0
 49 53  1  0  0  0  0
 50 51  1  0  0  0  0
 51 52  2  0  0  0  0
M  END
>  <MODEL>
       1

$$$$
