tmp_first_model_12_37.pdb
 OpenBabel08272523333D

 56 60  0  0  1  0  0  0  0  0999 V2000
   -6.8280    3.5760  -23.2070 C   0  0  0  0  0  0  0  0  0  0  0  0
   -7.7080    2.9570  -24.1770 N   0  0  0  0  0  0  0  0  0  0  0  0
   -7.2890    1.8510  -24.8340 C   0  0  0  0  0  0  0  0  0  0  0  0
   -6.1470    1.4110  -24.7540 O   0  0  0  0  0  0  0  0  0  0  0  0
   -8.3620    1.1600  -25.6750 C   0  0  0  0  0  0  0  0  0  0  0  0
   -9.1790    0.3000  -24.8370 N   0  0  0  0  0  0  0  0  0  0  0  0
   -8.6870   -1.0230  -24.4990 C   0  0  0  0  0  0  0  0  0  0  0  0
   -8.9990   -1.4180  -23.0320 C   0  0  2  0  0  0  0  0  0  0  0  0
   -8.2040   -0.4960  -22.0830 C   0  0  0  0  0  0  0  0  0  0  0  0
   -8.1920    0.7190  -22.1010 O   0  0  0  0  0  0  0  0  0  0  0  0
   -7.4580   -1.2710  -21.2250 N   0  0  0  0  0  0  0  0  0  0  0  0
   -6.6600   -0.7340  -20.1930 C   0  0  0  0  0  0  0  0  0  0  0  0
   -6.8990   -1.0830  -18.8860 C   0  0  0  0  0  0  0  0  0  0  0  0
   -6.2020   -0.6180  -17.8230 N   0  0  0  0  0  0  0  0  0  0  0  0
   -5.2010    0.1940  -18.0660 C   0  0  0  0  0  0  0  0  0  0  0  0
   -4.8070    0.5910  -19.3760 C   0  0  0  0  0  0  0  0  0  0  0  0
   -3.6720    1.4210  -19.5880 C   0  0  0  0  0  0  0  0  0  0  0  0
   -3.3200    1.8120  -20.8510 C   0  0  0  0  0  0  0  0  0  0  0  0
   -4.0960    1.4020  -21.9580 C   0  0  0  0  0  0  0  0  0  0  0  0
   -5.1830    0.5790  -21.7820 C   0  0  0  0  0  0  0  0  0  0  0  0
   -5.5640    0.1420  -20.4800 C   0  0  0  0  0  0  0  0  0  0  0  0
   -5.7740    0.3060  -22.6490 H   0  0  0  0  0  0  0  0  0  0  0  0
   -3.8540    1.7540  -22.9590 H   0  0  0  0  0  0  0  0  0  0  0  0
   -2.4500    2.4450  -21.0080 H   0  0  0  0  0  0  0  0  0  0  0  0
   -3.1020    1.7410  -18.7200 H   0  0  0  0  0  0  0  0  0  0  0  0
   -4.6420    0.5700  -17.2090 H   0  0  0  0  0  0  0  0  0  0  0  0
   -7.7190   -1.7590  -18.6470 H   0  0  0  0  0  0  0  0  0  0  0  0
   -7.8070   -2.6790  -21.2890 C   0  0  0  0  0  0  0  0  0  0  0  0
   -8.4910   -2.8420  -22.6600 C   0  0  2  0  0  0  0  0  0  0  0  0
   -7.5890   -3.5380  -23.6860 C   0  0  0  0  0  0  0  0  0  0  0  0
   -8.1130   -3.6570  -24.6390 H   0  0  0  0  0  0  0  0  0  0  0  0
   -7.3320   -4.5440  -23.3360 H   0  0  0  0  0  0  0  0  0  0  0  0
   -6.6590   -2.9870  -23.8660 H   0  0  0  0  0  0  0  0  0  0  0  0
   -9.3520   -3.5000  -22.5540 H   0  0  0  0  0  0  0  0  0  0  0  0
   -6.9040   -3.2880  -21.1850 H   0  0  0  0  0  0  0  0  0  0  0  0
   -8.4960   -2.9400  -20.4750 H   0  0  0  0  0  0  0  0  0  0  0  0
  -10.5050   -1.2310  -22.8440 C   0  0  0  0  0  0  0  0  0  0  0  0
  -11.3180   -2.1070  -22.1110 C   0  0  0  0  0  0  0  0  0  0  0  0
  -12.6780   -1.8790  -21.9950 C   0  0  0  0  0  0  0  0  0  0  0  0
  -13.2660   -0.7600  -22.5800 C   0  0  0  0  0  0  0  0  0  0  0  0
  -12.4800    0.1330  -23.2860 C   0  0  0  0  0  0  0  0  0  0  0  0
  -11.1210   -0.1260  -23.4490 C   0  0  0  0  0  0  0  0  0  0  0  0
  -10.3380    0.8000  -24.3360 C   0  0  0  0  0  0  0  0  0  0  0  0
  -10.7170    1.9410  -24.5930 O   0  0  0  0  0  0  0  0  0  0  0  0
  -12.8930    1.0000  -23.7890 H   0  0  0  0  0  0  0  0  0  0  0  0
  -14.3350   -0.6130  -22.5070 H   0  0  0  0  0  0  0  0  0  0  0  0
  -13.2950   -2.5640  -21.4190 H   0  0  0  0  0  0  0  0  0  0  0  0
  -10.9310   -3.0010  -21.6260 H   0  0  0  0  0  0  0  0  0  0  0  0
   -9.1440   -1.7690  -25.1610 H   0  0  0  0  0  0  0  0  0  0  0  0
   -7.6110   -1.0100  -24.6710 H   0  0  0  0  0  0  0  0  0  0  0  0
   -9.0220    1.8950  -26.1410 H   0  0  0  0  0  0  0  0  0  0  0  0
   -7.8700    0.5640  -26.4490 H   0  0  0  0  0  0  0  0  0  0  0  0
   -8.7060    3.0790  -24.0570 H   0  0  0  0  0  0  0  0  0  0  0  0
   -7.3300    4.4310  -22.7510 H   0  0  0  0  0  0  0  0  0  0  0  0
   -5.9140    3.9180  -23.7020 H   0  0  0  0  0  0  0  0  0  0  0  0
   -6.5500    2.8560  -22.4270 H   0  0  0  0  0  0  0  0  0  0  0  0
  1  2  1  0  0  0  0
  1 54  1  0  0  0  0
  1 55  1  0  0  0  0
  1 56  1  0  0  0  0
  2  3  1  0  0  0  0
  2 53  1  0  0  0  0
  3  4  2  0  0  0  0
  3  5  1  0  0  0  0
  5  6  1  0  0  0  0
  5 51  1  0  0  0  0
  5 52  1  0  0  0  0
  6  7  1  0  0  0  0
  6 43  1  0  0  0  0
  7  8  1  0  0  0  0
  7 49  1  0  0  0  0
  7 50  1  0  0  0  0
  8  9  1  1  0  0  0
  8 29  1  0  0  0  0
  8 37  1  0  0  0  0
  9 10  2  0  0  0  0
  9 11  1  0  0  0  0
 11 12  1  0  0  0  0
 11 28  1  0  0  0  0
 12 13  2  0  0  0  0
 12 21  1  0  0  0  0
 13 14  1  0  0  0  0
 13 27  1  0  0  0  0
 14 15  2  0  0  0  0
 15 16  1  0  0  0  0
 15 26  1  0  0  0  0
 16 17  2  0  0  0  0
 16 21  1  0  0  0  0
 17 18  1  0  0  0  0
 17 25  1  0  0  0  0
 18 19  2  0  0  0  0
 18 24  1  0  0  0  0
 19 20  1  0  0  0  0
 19 23  1  0  0  0  0
 20 21  2  0  0  0  0
 20 22  1  0  0  0  0
 28 29  1  0  0  0  0
 28 35  1  0  0  0  0
 28 36  1  0  0  0  0
 29 30  1  0  0  0  0
 29 34  1  1  0  0  0
 30 31  1  0  0  0  0
 30 32  1  0  0  0  0
 30 33  1  0  0  0  0
 37 38  2  0  0  0  0
 37 42  1  0  0  0  0
 38 39  1  0  0  0  0
 38 48  1  0  0  0  0
 39 40  2  0  0  0  0
 39 47  1  0  0  0  0
 40 41  1  0  0  0  0
 40 46  1  0  0  0  0
 41 42  2  0  0  0  0
 41 45  1  0  0  0  0
 42 43  1  0  0  0  0
 43 44  2  0  0  0  0
M  END
>  <MODEL>
       1

$$$$
