tmp_first_model_10_52.pdb
 OpenBabel08272522163D

 57 60  0  0  0  0  0  0  0  0999 V2000
  -13.9410   -1.4180  -24.1850 C   0  0  0  0  0  0  0  0  0  0  0  0
  -13.2210   -1.4990  -25.5340 C   0  0  0  0  0  0  0  0  0  0  0  0
  -11.8050   -0.9610  -25.4880 C   0  0  0  0  0  0  0  0  0  0  0  0
  -11.5400    0.1990  -25.7470 O   0  0  0  0  0  0  0  0  0  0  0  0
  -10.8580   -1.8820  -25.1030 N   0  0  0  0  0  0  0  0  0  0  0  0
   -9.4640   -1.6520  -25.1200 C   0  0  0  0  0  0  0  0  0  0  0  0
   -8.8960   -0.8250  -26.0870 C   0  0  0  0  0  0  0  0  0  0  0  0
   -7.5200   -0.6510  -26.0920 C   0  0  0  0  0  0  0  0  0  0  0  0
   -6.7080   -1.2590  -25.1430 C   0  0  0  0  0  0  0  0  0  0  0  0
   -7.2760   -2.0650  -24.1540 C   0  0  0  0  0  0  0  0  0  0  0  0
   -6.4080   -2.6750  -23.1920 N   0  0  0  0  0  0  0  0  0  0  0  0
   -5.3680   -3.5880  -23.6910 C   0  0  0  0  0  0  0  0  0  0  0  0
   -5.9630   -4.9260  -24.0660 C   0  0  0  0  0  0  0  0  0  0  0  0
   -5.9820   -5.9770  -23.1470 C   0  0  0  0  0  0  0  0  0  0  0  0
   -6.7570   -7.1030  -23.4010 C   0  0  0  0  0  0  0  0  0  0  0  0
   -7.4910   -7.1900  -24.5820 C   0  0  0  0  0  0  0  0  0  0  0  0
   -7.3820   -6.2010  -25.5560 C   0  0  0  0  0  0  0  0  0  0  0  0
   -6.5990   -5.0830  -25.3010 C   0  0  0  0  0  0  0  0  0  0  0  0
   -6.4900   -4.3270  -26.0780 H   0  0  0  0  0  0  0  0  0  0  0  0
   -7.9110   -6.2970  -26.5040 H   0  0  0  0  0  0  0  0  0  0  0  0
   -8.1480   -8.0340  -24.7470 H   0  0  0  0  0  0  0  0  0  0  0  0
   -6.8030   -7.9140  -22.6770 H   0  0  0  0  0  0  0  0  0  0  0  0
   -5.4000   -5.9260  -22.2260 H   0  0  0  0  0  0  0  0  0  0  0  0
   -4.8740   -3.1250  -24.5520 H   0  0  0  0  0  0  0  0  0  0  0  0
   -4.6150   -3.6790  -22.9060 H   0  0  0  0  0  0  0  0  0  0  0  0
   -6.6190   -2.6570  -21.8230 C   0  0  0  0  0  0  0  0  0  0  0  0
   -6.1390   -3.5110  -21.0950 O   0  0  0  0  0  0  0  0  0  0  0  0
   -7.4050   -1.4830  -21.2410 C   0  0  0  0  0  0  0  0  0  0  0  0
   -6.6230   -0.8100  -20.1470 C   0  0  0  0  0  0  0  0  0  0  0  0
   -6.8910   -1.0810  -18.8330 C   0  0  0  0  0  0  0  0  0  0  0  0
   -6.2070   -0.5780  -17.7730 N   0  0  0  0  0  0  0  0  0  0  0  0
   -5.1870    0.2010  -18.0420 C   0  0  0  0  0  0  0  0  0  0  0  0
   -4.7900    0.5720  -19.3580 C   0  0  0  0  0  0  0  0  0  0  0  0
   -3.6900    1.4410  -19.5920 C   0  0  0  0  0  0  0  0  0  0  0  0
   -3.4290    1.9020  -20.8520 C   0  0  0  0  0  0  0  0  0  0  0  0
   -4.2410    1.4910  -21.9320 C   0  0  0  0  0  0  0  0  0  0  0  0
   -5.2390    0.5590  -21.7540 C   0  0  0  0  0  0  0  0  0  0  0  0
   -5.5550    0.0920  -20.4460 C   0  0  0  0  0  0  0  0  0  0  0  0
   -5.7890    0.2000  -22.6240 H   0  0  0  0  0  0  0  0  0  0  0  0
   -4.0480    1.8990  -22.9180 H   0  0  0  0  0  0  0  0  0  0  0  0
   -2.6220    2.6110  -21.0240 H   0  0  0  0  0  0  0  0  0  0  0  0
   -3.0830    1.7560  -18.7480 H   0  0  0  0  0  0  0  0  0  0  0  0
   -4.6270    0.5920  -17.1920 H   0  0  0  0  0  0  0  0  0  0  0  0
   -7.7210   -1.7410  -18.5800 H   0  0  0  0  0  0  0  0  0  0  0  0
   -7.6560   -0.7720  -22.0310 H   0  0  0  0  0  0  0  0  0  0  0  0
   -8.3430   -1.8890  -20.8440 H   0  0  0  0  0  0  0  0  0  0  0  0
   -8.6560   -2.2850  -24.1690 C   0  0  0  0  0  0  0  0  0  0  0  0
   -9.1150   -2.9260  -23.4200 H   0  0  0  0  0  0  0  0  0  0  0  0
   -5.6330   -1.0980  -25.1550 H   0  0  0  0  0  0  0  0  0  0  0  0
   -7.0720   -0.0220  -26.8580 H   0  0  0  0  0  0  0  0  0  0  0  0
   -9.5200   -0.3320  -26.8240 H   0  0  0  0  0  0  0  0  0  0  0  0
  -11.1660   -2.7990  -24.8120 H   0  0  0  0  0  0  0  0  0  0  0  0
  -13.2050   -2.5350  -25.8970 H   0  0  0  0  0  0  0  0  0  0  0  0
  -13.7710   -0.8940  -26.2540 H   0  0  0  0  0  0  0  0  0  0  0  0
  -14.9820   -1.7400  -24.3160 H   0  0  0  0  0  0  0  0  0  0  0  0
  -13.9420   -0.3930  -23.7910 H   0  0  0  0  0  0  0  0  0  0  0  0
  -13.4690   -2.0680  -23.4390 H   0  0  0  0  0  0  0  0  0  0  0  0
  1  2  1  0  0  0  0
  1 55  1  0  0  0  0
  1 56  1  0  0  0  0
  1 57  1  0  0  0  0
  2  3  1  0  0  0  0
  2 53  1  0  0  0  0
  2 54  1  0  0  0  0
  3  4  2  0  0  0  0
  3  5  1  0  0  0  0
  5  6  1  0  0  0  0
  5 52  1  0  0  0  0
  6  7  2  0  0  0  0
  6 47  1  0  0  0  0
  7  8  1  0  0  0  0
  7 51  1  0  0  0  0
  8  9  2  0  0  0  0
  8 50  1  0  0  0  0
  9 10  1  0  0  0  0
  9 49  1  0  0  0  0
 10 11  1  0  0  0  0
 10 47  2  0  0  0  0
 11 12  1  0  0  0  0
 11 26  1  0  0  0  0
 12 13  1  0  0  0  0
 12 24  1  0  0  0  0
 12 25  1  0  0  0  0
 13 14  2  0  0  0  0
 13 18  1  0  0  0  0
 14 15  1  0  0  0  0
 14 23  1  0  0  0  0
 15 16  2  0  0  0  0
 15 22  1  0  0  0  0
 16 17  1  0  0  0  0
 16 21  1  0  0  0  0
 17 18  2  0  0  0  0
 17 20  1  0  0  0  0
 18 19  1  0  0  0  0
 26 27  2  0  0  0  0
 26 28  1  0  0  0  0
 28 29  1  0  0  0  0
 28 45  1  0  0  0  0
 28 46  1  0  0  0  0
 29 30  2  0  0  0  0
 29 38  1  0  0  0  0
 30 31  1  0  0  0  0
 30 44  1  0  0  0  0
 31 32  2  0  0  0  0
 32 33  1  0  0  0  0
 32 43  1  0  0  0  0
 33 34  2  0  0  0  0
 33 38  1  0  0  0  0
 34 35  1  0  0  0  0
 34 42  1  0  0  0  0
 35 36  2  0  0  0  0
 35 41  1  0  0  0  0
 36 37  1  0  0  0  0
 36 40  1  0  0  0  0
 37 38  2  0  0  0  0
 37 39  1  0  0  0  0
 47 48  1  0  0  0  0
M  END
>  <MODEL>
       1

$$$$
