tmp_first_model_18_45.pdb
 OpenBabel08282502533D

 66 71  0  0  1  0  0  0  0  0999 V2000
   -8.6390    4.4500  -23.2710 C   0  0  0  0  0  0  0  0  0  0  0  0
   -8.6740    3.4110  -24.2810 N   0  0  0  0  0  0  0  0  0  0  0  0
   -7.7330    2.4320  -24.2580 C   0  0  0  0  0  0  0  0  0  0  0  0
   -6.8360    2.4070  -23.4320 O   0  0  0  0  0  0  0  0  0  0  0  0
   -7.8850    1.3420  -25.3240 C   0  0  0  0  0  0  0  0  0  0  0  0
   -8.7150    0.2600  -24.8140 N   0  0  0  0  0  0  0  0  0  0  0  0
   -8.1290   -0.9860  -24.3490 C   0  0  0  0  0  0  0  0  0  0  0  0
   -8.8230   -1.5420  -23.0680 C   0  0  2  0  0  0  0  0  0  0  0  0
   -8.4010   -0.7330  -21.8110 C   0  0  0  0  0  0  0  0  0  0  0  0
   -8.8490    0.3150  -21.4020 O   0  0  0  0  0  0  0  0  0  0  0  0
   -7.3850   -1.4220  -21.1840 N   0  0  0  0  0  0  0  0  0  0  0  0
   -6.6060   -0.8270  -20.1630 C   0  0  0  0  0  0  0  0  0  0  0  0
   -6.9250   -1.0600  -18.8530 C   0  0  0  0  0  0  0  0  0  0  0  0
   -6.2360   -0.5650  -17.7940 N   0  0  0  0  0  0  0  0  0  0  0  0
   -5.1990    0.1930  -18.0560 C   0  0  0  0  0  0  0  0  0  0  0  0
   -4.7510    0.5060  -19.3700 C   0  0  0  0  0  0  0  0  0  0  0  0
   -3.6220    1.3350  -19.6000 C   0  0  0  0  0  0  0  0  0  0  0  0
   -3.2090    1.6090  -20.8720 C   0  0  0  0  0  0  0  0  0  0  0  0
   -3.9150    1.0780  -21.9770 C   0  0  0  0  0  0  0  0  0  0  0  0
   -5.0240    0.2890  -21.7850 C   0  0  0  0  0  0  0  0  0  0  0  0
   -5.4670   -0.0180  -20.4700 C   0  0  0  0  0  0  0  0  0  0  0  0
   -5.5780   -0.0790  -22.6470 H   0  0  0  0  0  0  0  0  0  0  0  0
   -3.5870    1.3080  -22.9850 H   0  0  0  0  0  0  0  0  0  0  0  0
   -2.3420    2.2410  -21.0460 H   0  0  0  0  0  0  0  0  0  0  0  0
   -3.1040    1.7430  -18.7360 H   0  0  0  0  0  0  0  0  0  0  0  0
   -4.6540    0.6050  -17.2060 H   0  0  0  0  0  0  0  0  0  0  0  0
   -7.7880   -1.6810  -18.6240 H   0  0  0  0  0  0  0  0  0  0  0  0
   -7.0650   -2.6990  -21.7780 C   0  0  0  0  0  0  0  0  0  0  0  0
   -8.2630   -2.9610  -22.7050 C   0  0  2  0  0  0  0  0  0  0  0  0
   -7.9220   -3.8730  -23.9020 C   0  0  0  0  0  0  0  0  0  0  0  0
   -7.5410   -5.2870  -23.5170 C   0  0  0  0  0  0  0  0  0  0  0  0
   -8.5110   -6.2900  -23.5240 C   0  0  0  0  0  0  0  0  0  0  0  0
   -8.2150   -7.5870  -23.1180 C   0  0  0  0  0  0  0  0  0  0  0  0
   -6.9210   -7.9110  -22.7250 C   0  0  0  0  0  0  0  0  0  0  0  0
   -5.9280   -6.9310  -22.7520 C   0  0  0  0  0  0  0  0  0  0  0  0
   -6.2340   -5.6310  -23.1500 C   0  0  0  0  0  0  0  0  0  0  0  0
   -5.4330   -4.8880  -23.2160 H   0  0  0  0  0  0  0  0  0  0  0  0
   -4.9020   -7.1880  -22.4910 H   0  0  0  0  0  0  0  0  0  0  0  0
   -6.6740   -8.9270  -22.4240 H   0  0  0  0  0  0  0  0  0  0  0  0
   -9.0090   -8.3310  -23.1170 H   0  0  0  0  0  0  0  0  0  0  0  0
   -9.5120   -6.0540  -23.8810 H   0  0  0  0  0  0  0  0  0  0  0  0
   -8.8030   -3.8980  -24.5590 H   0  0  0  0  0  0  0  0  0  0  0  0
   -7.1000   -3.4140  -24.4700 H   0  0  0  0  0  0  0  0  0  0  0  0
   -9.0170   -3.4800  -22.1020 H   0  0  0  0  0  0  0  0  0  0  0  0
   -6.9540   -3.4750  -21.0130 H   0  0  0  0  0  0  0  0  0  0  0  0
   -6.1110   -2.6690  -22.3280 H   0  0  0  0  0  0  0  0  0  0  0  0
  -10.3260   -1.4620  -23.2690 C   0  0  0  0  0  0  0  0  0  0  0  0
  -11.1850   -2.1700  -22.4130 C   0  0  0  0  0  0  0  0  0  0  0  0
  -12.5580   -2.0140  -22.5020 C   0  0  0  0  0  0  0  0  0  0  0  0
  -13.5760   -2.8510  -21.3530 Cl  0  0  0  0  0  0  0  0  0  0  0  0
  -13.1310   -1.1980  -23.4800 C   0  0  0  0  0  0  0  0  0  0  0  0
  -12.2930   -0.4980  -24.3290 C   0  0  0  0  0  0  0  0  0  0  0  0
  -10.9040   -0.5850  -24.2020 C   0  0  0  0  0  0  0  0  0  0  0  0
  -10.0610    0.3810  -24.9840 C   0  0  0  0  0  0  0  0  0  0  0  0
  -10.5430    1.2850  -25.6660 O   0  0  0  0  0  0  0  0  0  0  0  0
  -12.7070    0.1490  -25.0960 H   0  0  0  0  0  0  0  0  0  0  0  0
  -14.2100   -1.0910  -23.5420 H   0  0  0  0  0  0  0  0  0  0  0  0
  -10.7990   -2.8240  -21.6380 H   0  0  0  0  0  0  0  0  0  0  0  0
   -7.0620   -0.8190  -24.1540 H   0  0  0  0  0  0  0  0  0  0  0  0
   -8.2280   -1.7280  -25.1540 H   0  0  0  0  0  0  0  0  0  0  0  0
   -8.3470    1.7490  -26.2270 H   0  0  0  0  0  0  0  0  0  0  0  0
   -6.8990    0.9560  -25.5910 H   0  0  0  0  0  0  0  0  0  0  0  0
   -9.5310    3.2250  -24.7830 H   0  0  0  0  0  0  0  0  0  0  0  0
   -7.6760    4.9670  -23.3000 H   0  0  0  0  0  0  0  0  0  0  0  0
   -8.7540    4.0370  -22.2630 H   0  0  0  0  0  0  0  0  0  0  0  0
   -9.4380    5.1650  -23.4720 H   0  0  0  0  0  0  0  0  0  0  0  0
  1  2  1  0  0  0  0
  1 64  1  0  0  0  0
  1 65  1  0  0  0  0
  1 66  1  0  0  0  0
  2  3  1  0  0  0  0
  2 63  1  0  0  0  0
  3  4  2  0  0  0  0
  3  5  1  0  0  0  0
  5  6  1  0  0  0  0
  5 61  1  0  0  0  0
  5 62  1  0  0  0  0
  6  7  1  0  0  0  0
  6 54  1  0  0  0  0
  7  8  1  0  0  0  0
  7 59  1  0  0  0  0
  7 60  1  0  0  0  0
  8  9  1  1  0  0  0
  8 29  1  0  0  0  0
  8 47  1  0  0  0  0
  9 10  2  0  0  0  0
  9 11  1  0  0  0  0
 11 12  1  0  0  0  0
 11 28  1  0  0  0  0
 12 13  2  0  0  0  0
 12 21  1  0  0  0  0
 13 14  1  0  0  0  0
 13 27  1  0  0  0  0
 14 15  2  0  0  0  0
 15 16  1  0  0  0  0
 15 26  1  0  0  0  0
 16 17  2  0  0  0  0
 16 21  1  0  0  0  0
 17 18  1  0  0  0  0
 17 25  1  0  0  0  0
 18 19  2  0  0  0  0
 18 24  1  0  0  0  0
 19 20  1  0  0  0  0
 19 23  1  0  0  0  0
 20 21  2  0  0  0  0
 20 22  1  0  0  0  0
 28 29  1  0  0  0  0
 28 45  1  0  0  0  0
 28 46  1  0  0  0  0
 29 30  1  0  0  0  0
 29 44  1  1  0  0  0
 30 31  1  0  0  0  0
 30 42  1  0  0  0  0
 30 43  1  0  0  0  0
 31 32  2  0  0  0  0
 31 36  1  0  0  0  0
 32 33  1  0  0  0  0
 32 41  1  0  0  0  0
 33 34  2  0  0  0  0
 33 40  1  0  0  0  0
 34 35  1  0  0  0  0
 34 39  1  0  0  0  0
 35 36  2  0  0  0  0
 35 38  1  0  0  0  0
 36 37  1  0  0  0  0
 47 48  2  0  0  0  0
 47 53  1  0  0  0  0
 48 49  1  0  0  0  0
 48 58  1  0  0  0  0
 49 50  1  0  0  0  0
 49 51  2  0  0  0  0
 51 52  1  0  0  0  0
 51 57  1  0  0  0  0
 52 53  2  0  0  0  0
 52 56  1  0  0  0  0
 53 54  1  0  0  0  0
 54 55  2  0  0  0  0
M  END
>  <MODEL>
       1

$$$$
