tmp_first_model_9_79.pdb
 OpenBabel08272521403D

 45 49  0  0  0  0  0  0  0  0999 V2000
   -9.3990   -4.0890  -22.3600 C   0  0  0  0  0  0  0  0  0  0  0  0
   -8.7120   -2.8280  -22.1610 N   0  0  0  0  0  0  0  0  0  0  0  0
   -7.5520   -2.7190  -21.4380 C   0  0  0  0  0  0  0  0  0  0  0  0
   -6.8410   -3.6150  -21.0410 O   0  0  0  0  0  0  0  0  0  0  0  0
   -7.3140   -1.3450  -21.2610 N   0  0  0  0  0  0  0  0  0  0  0  0
   -6.5020   -0.8200  -20.2180 C   0  0  0  0  0  0  0  0  0  0  0  0
   -6.8430   -1.0550  -18.9110 C   0  0  0  0  0  0  0  0  0  0  0  0
   -6.1820   -0.5330  -17.8520 N   0  0  0  0  0  0  0  0  0  0  0  0
   -5.1560    0.2410  -18.0960 C   0  0  0  0  0  0  0  0  0  0  0  0
   -4.6870    0.5480  -19.4030 C   0  0  0  0  0  0  0  0  0  0  0  0
   -3.5640    1.3880  -19.6100 C   0  0  0  0  0  0  0  0  0  0  0  0
   -3.1420    1.6730  -20.8790 C   0  0  0  0  0  0  0  0  0  0  0  0
   -3.8220    1.1320  -21.9910 C   0  0  0  0  0  0  0  0  0  0  0  0
   -4.9090    0.3110  -21.8170 C   0  0  0  0  0  0  0  0  0  0  0  0
   -5.3730    0.0050  -20.5080 C   0  0  0  0  0  0  0  0  0  0  0  0
   -5.4260   -0.1030  -22.6760 H   0  0  0  0  0  0  0  0  0  0  0  0
   -3.4800    1.3640  -22.9940 H   0  0  0  0  0  0  0  0  0  0  0  0
   -2.2870    2.3240  -21.0400 H   0  0  0  0  0  0  0  0  0  0  0  0
   -3.0690    1.8060  -18.7400 H   0  0  0  0  0  0  0  0  0  0  0  0
   -4.6370    0.6690  -17.2370 H   0  0  0  0  0  0  0  0  0  0  0  0
   -7.6990   -1.6810  -18.6690 H   0  0  0  0  0  0  0  0  0  0  0  0
   -8.2440   -0.5750  -21.9530 C   0  0  0  0  0  0  0  0  0  0  0  0
   -8.3020    0.6290  -21.9770 O   0  0  0  0  0  0  0  0  0  0  0  0
   -9.1850   -1.5530  -22.6250 C   0  0  0  0  0  0  0  0  0  0  0  0
  -10.6700   -1.1920  -22.4510 C   0  0  0  0  0  0  0  0  0  0  0  0
  -10.8580   -1.1490  -23.9300 N   0  0  0  0  0  0  0  0  0  0  0  0
  -11.8950   -2.2780  -24.6350 S   0  0  0  0  0  0  0  0  0  0  0  0
  -11.1650   -2.8070  -25.7780 O   0  0  0  0  0  0  0  0  0  0  0  0
  -12.4430   -3.1350  -23.5920 O   0  0  0  0  0  0  0  0  0  0  0  0
  -13.2520   -1.3160  -25.1870 C   0  0  0  0  0  0  0  0  0  0  0  0
  -13.7420   -0.1420  -24.3390 C   0  0  0  0  0  0  0  0  0  0  0  0
  -13.7920   -0.4440  -24.2860 C   0  0  0  0  0  0  0  0  0  0  0  0
  -14.5690    0.7620  -24.4120 H   0  0  0  0  0  0  0  0  0  0  0  0
  -12.9590    1.1600  -24.8060 H   0  0  0  0  0  0  0  0  0  0  0  0
  -14.6250   -1.0530  -23.6440 H   0  0  0  0  0  0  0  0  0  0  0  0
  -13.0970   -0.1900  -23.2900 H   0  0  0  0  0  0  0  0  0  0  0  0
  -13.9660   -1.9510  -25.6810 H   0  0  0  0  0  0  0  0  0  0  0  0
   -9.3850   -1.3620  -24.1470 C   0  0  0  0  0  0  0  0  0  0  0  0
   -9.1400   -2.2230  -24.7760 H   0  0  0  0  0  0  0  0  0  0  0  0
   -8.9020   -0.4550  -24.5230 H   0  0  0  0  0  0  0  0  0  0  0  0
  -10.7690   -0.1780  -22.0620 H   0  0  0  0  0  0  0  0  0  0  0  0
  -11.2820   -1.9090  -21.8990 H   0  0  0  0  0  0  0  0  0  0  0  0
   -9.5280   -4.3140  -23.4250 H   0  0  0  0  0  0  0  0  0  0  0  0
   -8.7780   -4.8610  -21.9050 H   0  0  0  0  0  0  0  0  0  0  0  0
  -10.3840   -4.0930  -21.8780 H   0  0  0  0  0  0  0  0  0  0  0  0
  1  2  1  0  0  0  0
  1 43  1  0  0  0  0
  1 44  1  0  0  0  0
  1 45  1  0  0  0  0
  2  3  1  0  0  0  0
  2 24  1  0  0  0  0
  3  4  2  0  0  0  0
  3  5  1  0  0  0  0
  5  6  1  0  0  0  0
  5 22  1  0  0  0  0
  6  7  2  0  0  0  0
  6 15  1  0  0  0  0
  7  8  1  0  0  0  0
  7 21  1  0  0  0  0
  8  9  2  0  0  0  0
  9 10  1  0  0  0  0
  9 20  1  0  0  0  0
 10 11  2  0  0  0  0
 10 15  1  0  0  0  0
 11 12  1  0  0  0  0
 11 19  1  0  0  0  0
 12 13  2  0  0  0  0
 12 18  1  0  0  0  0
 13 14  1  0  0  0  0
 13 17  1  0  0  0  0
 14 15  2  0  0  0  0
 14 16  1  0  0  0  0
 22 23  2  0  0  0  0
 22 24  1  0  0  0  0
 24 25  1  0  0  0  0
 24 38  1  0  0  0  0
 25 26  1  0  0  0  0
 25 41  1  0  0  0  0
 25 42  1  0  0  0  0
 26 27  1  0  0  0  0
 26 38  1  0  0  0  0
 27 28  2  0  0  0  0
 27 29  2  0  0  0  0
 27 30  1  0  0  0  0
 30 31  1  0  0  0  0
 30 32  1  0  0  0  0
 30 37  1  0  0  0  0
 31 32  1  0  0  0  0
 31 35  1  0  0  0  0
 31 36  1  0  0  0  0
 32 33  1  0  0  0  0
 32 34  1  0  0  0  0
 38 39  1  0  0  0  0
 38 40  1  0  0  0  0
M  END
>  <MODEL>
       1

$$$$
