tmp_first_model_4_80.pdb
 OpenBabel08272518513D

 60 65  0  0  1  0  0  0  0  0999 V2000
   -8.3030    2.2580  -28.8960 C   0  0  0  0  0  0  0  0  0  0  0  0
   -8.6300    2.2850  -27.4830 N   0  0  0  0  0  0  0  0  0  0  0  0
   -7.8810    1.5190  -26.6400 C   0  0  0  0  0  0  0  0  0  0  0  0
   -6.9090    0.8760  -27.0030 O   0  0  0  0  0  0  0  0  0  0  0  0
   -8.2860    1.5880  -25.1830 C   0  0  0  0  0  0  0  0  0  0  0  0
   -9.0460    0.5010  -24.6550 N   0  0  0  0  0  0  0  0  0  0  0  0
   -8.3660   -0.7490  -24.3770 C   0  0  0  0  0  0  0  0  0  0  0  0
   -8.8800   -1.3950  -23.0680 C   0  0  2  0  0  0  0  0  0  0  0  0
   -8.3550   -0.6290  -21.8260 C   0  0  0  0  0  0  0  0  0  0  0  0
   -8.6870    0.4790  -21.4480 O   0  0  0  0  0  0  0  0  0  0  0  0
   -7.4200   -1.4150  -21.1900 N   0  0  0  0  0  0  0  0  0  0  0  0
   -6.5280   -0.9520  -20.1930 C   0  0  0  0  0  0  0  0  0  0  0  0
   -6.7630   -1.2630  -18.8820 C   0  0  0  0  0  0  0  0  0  0  0  0
   -5.9050   -1.0010  -17.8660 N   0  0  0  0  0  0  0  0  0  0  0  0
   -4.7820   -0.3960  -18.1620 C   0  0  0  0  0  0  0  0  0  0  0  0
   -4.4370    0.0220  -19.4790 C   0  0  0  0  0  0  0  0  0  0  0  0
   -3.2750    0.7960  -19.7340 C   0  0  0  0  0  0  0  0  0  0  0  0
   -3.0480    1.3120  -20.9790 C   0  0  0  0  0  0  0  0  0  0  0  0
   -3.9090    0.9850  -22.0530 C   0  0  0  0  0  0  0  0  0  0  0  0
   -5.0030    0.1830  -21.8450 C   0  0  0  0  0  0  0  0  0  0  0  0
   -5.3210   -0.2710  -20.5340 C   0  0  0  0  0  0  0  0  0  0  0  0
   -5.6250   -0.1120  -22.6810 H   0  0  0  0  0  0  0  0  0  0  0  0
   -3.7250    1.4010  -23.0380 H   0  0  0  0  0  0  0  0  0  0  0  0
   -2.2130    1.9850  -21.1510 H   0  0  0  0  0  0  0  0  0  0  0  0
   -2.6290    1.0290  -18.8940 H   0  0  0  0  0  0  0  0  0  0  0  0
   -4.0830   -0.1810  -17.3520 H   0  0  0  0  0  0  0  0  0  0  0  0
   -7.6910   -1.7700  -18.6280 H   0  0  0  0  0  0  0  0  0  0  0  0
   -7.0990   -2.6330  -21.8880 C   0  0  0  0  0  0  0  0  0  0  0  0
   -8.2740   -2.8190  -22.8540 C   0  0  2  0  0  0  0  0  0  0  0  0
   -7.8530   -3.6100  -24.0860 C   0  0  0  0  0  0  0  0  0  0  0  0
   -8.6820   -3.7570  -24.7850 H   0  0  0  0  0  0  0  0  0  0  0  0
   -7.0370   -3.1030  -24.6120 H   0  0  0  0  0  0  0  0  0  0  0  0
   -7.4870   -4.5930  -23.7750 H   0  0  0  0  0  0  0  0  0  0  0  0
   -9.0310   -3.4090  -22.3350 H   0  0  0  0  0  0  0  0  0  0  0  0
   -7.0210   -3.4520  -21.1670 H   0  0  0  0  0  0  0  0  0  0  0  0
   -6.1340   -2.5670  -22.4190 H   0  0  0  0  0  0  0  0  0  0  0  0
  -10.4000   -1.3440  -23.0810 C   0  0  0  0  0  0  0  0  0  0  0  0
  -11.1240   -2.1350  -22.1820 C   0  0  0  0  0  0  0  0  0  0  0  0
  -12.5050   -2.1010  -22.1750 C   0  0  0  0  0  0  0  0  0  0  0  0
  -13.3620   -3.1190  -21.0590 Cl  0  0  0  0  0  0  0  0  0  0  0  0
  -13.2240   -1.2700  -23.0310 C   0  0  0  0  0  0  0  0  0  0  0  0
  -12.5160   -0.4420  -23.8770 C   0  0  0  0  0  0  0  0  0  0  0  0
  -11.1210   -0.4550  -23.8920 C   0  0  0  0  0  0  0  0  0  0  0  0
  -10.4170    0.5580  -24.7320 C   0  0  0  0  0  0  0  0  0  0  0  0
  -10.9970    1.4100  -25.3900 O   0  0  0  0  0  0  0  0  0  0  0  0
  -13.0270    0.2520  -24.5320 H   0  0  0  0  0  0  0  0  0  0  0  0
  -14.3090   -1.2610  -23.0080 H   0  0  0  0  0  0  0  0  0  0  0  0
  -10.6260   -2.7800  -21.4670 H   0  0  0  0  0  0  0  0  0  0  0  0
   -8.5320   -1.4420  -25.2120 H   0  0  0  0  0  0  0  0  0  0  0  0
   -7.2920   -0.5550  -24.3380 H   0  0  0  0  0  0  0  0  0  0  0  0
   -8.4480    2.9360  -24.5560 C   0  0  0  0  0  0  0  0  0  0  0  0
   -7.2040    2.1370  -24.2990 C   0  0  0  0  0  0  0  0  0  0  0  0
   -6.2810    2.4120  -24.8030 H   0  0  0  0  0  0  0  0  0  0  0  0
   -7.1280    1.6770  -23.3170 H   0  0  0  0  0  0  0  0  0  0  0  0
   -8.4040    3.8030  -25.2140 H   0  0  0  0  0  0  0  0  0  0  0  0
   -9.1600    2.9700  -23.7370 H   0  0  0  0  0  0  0  0  0  0  0  0
   -9.5980    2.4330  -27.2080 H   0  0  0  0  0  0  0  0  0  0  0  0
   -8.8580    3.0450  -29.4100 H   0  0  0  0  0  0  0  0  0  0  0  0
   -8.5090    1.2770  -29.3560 H   0  0  0  0  0  0  0  0  0  0  0  0
   -7.2410    2.4920  -29.0070 H   0  0  0  0  0  0  0  0  0  0  0  0
  1  2  1  0  0  0  0
  1 58  1  0  0  0  0
  1 59  1  0  0  0  0
  1 60  1  0  0  0  0
  2  3  1  0  0  0  0
  2 57  1  0  0  0  0
  3  4  2  0  0  0  0
  3  5  1  0  0  0  0
  5  6  1  0  0  0  0
  5 51  1  0  0  0  0
  5 52  1  0  0  0  0
  6  7  1  0  0  0  0
  6 44  1  0  0  0  0
  7  8  1  0  0  0  0
  7 49  1  0  0  0  0
  7 50  1  0  0  0  0
  8  9  1  1  0  0  0
  8 29  1  0  0  0  0
  8 37  1  0  0  0  0
  9 10  2  0  0  0  0
  9 11  1  0  0  0  0
 11 12  1  0  0  0  0
 11 28  1  0  0  0  0
 12 13  2  0  0  0  0
 12 21  1  0  0  0  0
 13 14  1  0  0  0  0
 13 27  1  0  0  0  0
 14 15  2  0  0  0  0
 15 16  1  0  0  0  0
 15 26  1  0  0  0  0
 16 17  2  0  0  0  0
 16 21  1  0  0  0  0
 17 18  1  0  0  0  0
 17 25  1  0  0  0  0
 18 19  2  0  0  0  0
 18 24  1  0  0  0  0
 19 20  1  0  0  0  0
 19 23  1  0  0  0  0
 20 21  2  0  0  0  0
 20 22  1  0  0  0  0
 28 29  1  0  0  0  0
 28 35  1  0  0  0  0
 28 36  1  0  0  0  0
 29 30  1  0  0  0  0
 29 34  1  1  0  0  0
 30 31  1  0  0  0  0
 30 32  1  0  0  0  0
 30 33  1  0  0  0  0
 37 38  2  0  0  0  0
 37 43  1  0  0  0  0
 38 39  1  0  0  0  0
 38 48  1  0  0  0  0
 39 40  1  0  0  0  0
 39 41  2  0  0  0  0
 41 42  1  0  0  0  0
 41 47  1  0  0  0  0
 42 43  2  0  0  0  0
 42 46  1  0  0  0  0
 43 44  1  0  0  0  0
 44 45  2  0  0  0  0
 51 52  1  0  0  0  0
 51 55  1  0  0  0  0
 51 56  1  0  0  0  0
 52 53  1  0  0  0  0
 52 54  1  0  0  0  0
M  END
>  <MODEL>
       1

$$$$
