tmp_first_model_12_68.pdb
 OpenBabel08272523333D

 65 70  0  0  1  0  0  0  0  0999 V2000
   -9.0870    0.4130  -21.1290 O   0  0  0  0  0  0  0  0  0  0  0  0
   -8.1290    0.0680  -21.8040 C   0  0  0  0  0  0  0  0  0  0  0  0
   -7.2740   -1.0960  -21.2940 C   0  0  0  0  0  0  0  0  0  0  0  0
   -6.4750   -0.6170  -20.0970 C   0  0  0  0  0  0  0  0  0  0  0  0
   -6.8690   -0.9220  -18.8220 C   0  0  0  0  0  0  0  0  0  0  0  0
   -6.2830   -0.4560  -17.6880 N   0  0  0  0  0  0  0  0  0  0  0  0
   -5.2650    0.3580  -17.8290 C   0  0  0  0  0  0  0  0  0  0  0  0
   -4.7390    0.7620  -19.0860 C   0  0  0  0  0  0  0  0  0  0  0  0
   -3.6520    1.6670  -19.2040 C   0  0  0  0  0  0  0  0  0  0  0  0
   -3.2140    2.0820  -20.4330 C   0  0  0  0  0  0  0  0  0  0  0  0
   -3.8290    1.5870  -21.6000 C   0  0  0  0  0  0  0  0  0  0  0  0
   -4.8660    0.6890  -21.5090 C   0  0  0  0  0  0  0  0  0  0  0  0
   -5.3630    0.2580  -20.2540 C   0  0  0  0  0  0  0  0  0  0  0  0
   -5.3250    0.3210  -22.4170 H   0  0  0  0  0  0  0  0  0  0  0  0
   -3.4880    1.9200  -22.5780 H   0  0  0  0  0  0  0  0  0  0  0  0
   -2.4030    2.7990  -20.5150 H   0  0  0  0  0  0  0  0  0  0  0  0
   -3.1870    2.0350  -18.2930 H   0  0  0  0  0  0  0  0  0  0  0  0
   -4.8020    0.7480  -16.9180 H   0  0  0  0  0  0  0  0  0  0  0  0
   -7.7160   -1.5890  -18.6570 H   0  0  0  0  0  0  0  0  0  0  0  0
   -7.9720   -1.8750  -20.9760 H   0  0  0  0  0  0  0  0  0  0  0  0
   -6.6270   -1.5180  -22.0650 H   0  0  0  0  0  0  0  0  0  0  0  0
   -7.7160    0.7590  -22.9420 N   0  0  0  0  0  0  0  0  0  0  0  0
   -7.2160    0.0710  -24.1470 C   0  0  0  0  0  0  0  0  0  0  0  0
   -8.2990   -0.3400  -25.1170 C   0  0  0  0  0  0  0  0  0  0  0  0
   -8.8320   -1.7340  -25.2540 C   0  0  0  0  0  0  0  0  0  0  0  0
  -10.5100   -1.6470  -26.3050 C   0  0  0  0  0  0  0  0  0  0  0  0
  -10.4060   -1.4040  -26.0400 C   0  0  0  0  0  0  0  0  0  0  0  0
  -10.1950    0.0590  -26.6440 C   0  0  0  0  0  0  0  0  0  0  0  0
  -10.1740    0.3570  -28.4610 Cl  0  0  0  0  0  0  0  0  0  0  0  0
   -8.9680    0.5590  -25.9110 C   0  0  0  0  0  0  0  0  0  0  0  0
   -8.6640    1.5890  -26.0440 H   0  0  0  0  0  0  0  0  0  0  0  0
  -11.0450    0.6750  -26.3320 H   0  0  0  0  0  0  0  0  0  0  0  0
  -10.0090   -2.5490  -26.6680 H   0  0  0  0  0  0  0  0  0  0  0  0
   -8.9790   -2.0960  -24.1850 H   0  0  0  0  0  0  0  0  0  0  0  0
   -6.6670   -0.8190  -23.8210 H   0  0  0  0  0  0  0  0  0  0  0  0
   -6.4610    0.7250  -24.6180 H   0  0  0  0  0  0  0  0  0  0  0  0
   -8.0250    2.1940  -22.9640 C   0  0  2  0  0  0  0  0  0  0  0  0
   -9.4870    2.6050  -23.2390 C   0  0  0  0  0  0  0  0  0  0  0  0
   -9.3780    4.1170  -23.5620 C   0  0  0  0  0  0  0  0  0  0  0  0
   -7.8780    4.3900  -23.4370 C   0  0  2  0  0  0  0  0  0  0  0  0
   -7.2460    3.0920  -23.9380 C   0  0  0  0  0  0  0  0  0  0  0  0
   -7.4840    2.9030  -24.9870 H   0  0  0  0  0  0  0  0  0  0  0  0
   -6.1590    3.0460  -23.7850 H   0  0  0  0  0  0  0  0  0  0  0  0
   -7.5960    4.3370  -21.9250 N   0  3  2  0  0  0  0  0  0  0  0  0
   -6.3200    4.9570  -21.4610 C   0  0  0  0  0  0  0  0  0  0  0  0
   -6.3970    6.4710  -21.3790 C   0  0  0  0  0  0  0  0  0  0  0  0
   -5.1530    7.1740  -20.8220 C   0  0  0  0  0  0  0  0  0  0  0  0
   -4.9890    7.9540  -22.0180 O   0  0  0  0  0  0  0  0  0  0  0  0
   -6.0770    7.2680  -22.6530 C   0  0  0  0  0  0  0  0  0  0  0  0
   -6.8540    7.9570  -23.0090 H   0  0  0  0  0  0  0  0  0  0  0  0
   -5.7230    6.6490  -23.4890 H   0  0  0  0  0  0  0  0  0  0  0  0
   -4.2960    6.5070  -20.6500 H   0  0  0  0  0  0  0  0  0  0  0  0
   -5.2980    7.8020  -19.9360 H   0  0  0  0  0  0  0  0  0  0  0  0
   -7.3310    6.7640  -20.8930 H   0  0  0  0  0  0  0  0  0  0  0  0
   -6.0650    4.5520  -20.4730 H   0  0  0  0  0  0  0  0  0  0  0  0
   -5.5050    4.6610  -22.1380 H   0  0  0  0  0  0  0  0  0  0  0  0
   -7.6700    2.8630  -21.6300 C   0  0  0  0  0  0  0  0  0  0  0  0
   -6.7040    2.5260  -21.2520 H   0  0  0  0  0  0  0  0  0  0  0  0
   -8.4230    2.6640  -20.8710 H   0  0  0  0  0  0  0  0  0  0  0  0
   -8.3610    4.8140  -21.4120 H   0  0  0  0  0  0  0  0  0  0  0  0
   -7.5260    5.3250  -23.8600 H   0  0  0  0  0  0  0  0  0  0  0  0
   -9.7430    4.3440  -24.5690 H   0  0  0  0  0  0  0  0  0  0  0  0
   -9.9320    4.7380  -22.8490 H   0  0  0  0  0  0  0  0  0  0  0  0
  -10.1260    2.3870  -22.3840 H   0  0  0  0  0  0  0  0  0  0  0  0
   -9.8730    2.0560  -24.0940 H   0  0  0  0  0  0  0  0  0  0  0  0
  1  2  2  0  0  0  0
  2  3  1  0  0  0  0
  2 22  1  0  0  0  0
  3  4  1  0  0  0  0
  3 20  1  0  0  0  0
  3 21  1  0  0  0  0
  4  5  2  0  0  0  0
  4 13  1  0  0  0  0
  5  6  1  0  0  0  0
  5 19  1  0  0  0  0
  6  7  2  0  0  0  0
  7  8  1  0  0  0  0
  7 18  1  0  0  0  0
  8  9  2  0  0  0  0
  8 13  1  0  0  0  0
  9 10  1  0  0  0  0
  9 17  1  0  0  0  0
 10 11  2  0  0  0  0
 10 16  1  0  0  0  0
 11 12  1  0  0  0  0
 11 15  1  0  0  0  0
 12 13  2  0  0  0  0
 12 14  1  0  0  0  0
 22 23  1  0  0  0  0
 23 24  1  0  0  0  0
 23 35  1  0  0  0  0
 23 36  1  0  0  0  0
 24 25  2  0  0  0  0
 24 30  1  0  0  0  0
 25 26  1  0  0  0  0
 25 34  1  0  0  0  0
 26 27  2  0  0  0  0
 26 33  1  0  0  0  0
 27 28  1  0  0  0  0
 27 32  1  0  0  0  0
 28 29  1  0  0  0  0
 28 30  2  0  0  0  0
 30 31  1  0  0  0  0
 37 22  1  6  0  0  0
 37 38  1  0  0  0  0
 37 41  1  0  0  0  0
 37 57  1  0  0  0  0
 38 39  1  0  0  0  0
 38 64  1  0  0  0  0
 38 65  1  0  0  0  0
 39 40  1  0  0  0  0
 39 62  1  0  0  0  0
 39 63  1  0  0  0  0
 40 41  1  0  0  0  0
 40 44  1  0  0  0  0
 40 61  1  6  0  0  0
 41 42  1  0  0  0  0
 41 43  1  0  0  0  0
 44 45  1  0  0  0  0
 44 57  1  0  0  0  0
 44 60  1  1  0  0  0
 45 46  1  0  0  0  0
 45 55  1  0  0  0  0
 45 56  1  0  0  0  0
 46 47  1  0  0  0  0
 46 49  1  0  0  0  0
 46 54  1  0  0  0  0
 47 48  1  0  0  0  0
 47 52  1  0  0  0  0
 47 53  1  0  0  0  0
 48 49  1  0  0  0  0
 49 50  1  0  0  0  0
 49 51  1  0  0  0  0
 57 58  1  0  0  0  0
 57 59  1  0  0  0  0
M  CHG  1  44   1
M  END
>  <MODEL>
       1

$$$$
