tmp_first_model_18_19.pdb
 OpenBabel08282502533D

 42 45  0  0  1  0  0  0  0  0999 V2000
   -9.0960   -0.1000  -20.6630 O   0  0  0  0  0  0  0  0  0  0  0  0
   -8.6760   -0.9730  -21.3920 C   0  0  0  0  0  0  0  0  0  0  0  0
   -9.5260   -1.5260  -22.5490 C   0  0  1  0  0  0  0  0  0  0  0  0
   -9.7150   -0.4660  -23.6300 C   0  0  0  0  0  0  0  0  0  0  0  0
  -10.8920   -0.4250  -24.3800 C   0  0  0  0  0  0  0  0  0  0  0  0
  -11.0540    0.4860  -25.4160 C   0  0  0  0  0  0  0  0  0  0  0  0
  -10.0390    1.3860  -25.7200 C   0  0  0  0  0  0  0  0  0  0  0  0
  -10.2810    2.5410  -26.9850 Cl  0  0  0  0  0  0  0  0  0  0  0  0
   -8.8510    1.3370  -24.9940 C   0  0  0  0  0  0  0  0  0  0  0  0
   -7.5340    2.4000  -25.3590 Cl  0  0  0  0  0  0  0  0  0  0  0  0
   -8.6960    0.4170  -23.9640 C   0  0  0  0  0  0  0  0  0  0  0  0
   -7.7510    0.3950  -23.4310 H   0  0  0  0  0  0  0  0  0  0  0  0
  -11.9960    0.5640  -25.9450 H   0  0  0  0  0  0  0  0  0  0  0  0
  -11.7200   -1.0780  -24.1330 H   0  0  0  0  0  0  0  0  0  0  0  0
   -9.0010   -2.8460  -23.1060 C   0  0  0  0  0  0  0  0  0  0  0  0
   -7.4900   -2.8330  -23.2400 C   0  0  2  0  0  0  0  0  0  0  0  0
   -7.0010   -4.0110  -23.8390 O   0  0  0  0  0  0  0  0  0  0  0  0
   -7.2970   -4.7430  -23.2770 H   0  0  0  0  0  0  0  0  0  0  0  0
   -6.8640   -2.6140  -21.8750 C   0  0  0  0  0  0  0  0  0  0  0  0
   -7.3720   -1.4120  -21.2400 N   0  0  0  0  0  0  0  0  0  0  0  0
   -6.6070   -0.8130  -20.1890 C   0  0  0  0  0  0  0  0  0  0  0  0
   -6.9020   -1.0500  -18.8680 C   0  0  0  0  0  0  0  0  0  0  0  0
   -6.1930   -0.5560  -17.8180 N   0  0  0  0  0  0  0  0  0  0  0  0
   -5.1630    0.2160  -18.0730 C   0  0  0  0  0  0  0  0  0  0  0  0
   -4.7270    0.5300  -19.3910 C   0  0  0  0  0  0  0  0  0  0  0  0
   -3.6010    1.3630  -19.6320 C   0  0  0  0  0  0  0  0  0  0  0  0
   -3.2130    1.6510  -20.9130 C   0  0  0  0  0  0  0  0  0  0  0  0
   -3.9330    1.1130  -22.0060 C   0  0  0  0  0  0  0  0  0  0  0  0
   -5.0220    0.3020  -21.7940 C   0  0  0  0  0  0  0  0  0  0  0  0
   -5.4560   -0.0060  -20.4810 C   0  0  0  0  0  0  0  0  0  0  0  0
   -5.5700   -0.0990  -22.6400 H   0  0  0  0  0  0  0  0  0  0  0  0
   -3.6230    1.3450  -23.0180 H   0  0  0  0  0  0  0  0  0  0  0  0
   -2.3580    2.2950  -21.1030 H   0  0  0  0  0  0  0  0  0  0  0  0
   -3.0620    1.7770  -18.7830 H   0  0  0  0  0  0  0  0  0  0  0  0
   -4.6110    0.6230  -17.2220 H   0  0  0  0  0  0  0  0  0  0  0  0
   -7.7460   -1.6750  -18.5850 H   0  0  0  0  0  0  0  0  0  0  0  0
   -5.7840   -2.5070  -21.9650 H   0  0  0  0  0  0  0  0  0  0  0  0
   -7.0400   -3.4980  -21.2430 H   0  0  0  0  0  0  0  0  0  0  0  0
   -7.1980   -2.0240  -23.9140 H   0  0  0  0  0  0  0  0  0  0  0  0
   -9.3060   -3.6710  -22.4450 H   0  0  0  0  0  0  0  0  0  0  0  0
   -9.4570   -3.0420  -24.0820 H   0  0  0  0  0  0  0  0  0  0  0  0
  -10.5170   -1.7310  -22.1360 H   0  0  0  0  0  0  0  0  0  0  0  0
  1  2  2  0  0  0  0
  2  3  1  0  0  0  0
  2 20  1  0  0  0  0
  3  4  1  0  0  0  0
  3 15  1  0  0  0  0
  3 42  1  1  0  0  0
  4  5  2  0  0  0  0
  4 11  1  0  0  0  0
  5  6  1  0  0  0  0
  5 14  1  0  0  0  0
  6  7  2  0  0  0  0
  6 13  1  0  0  0  0
  7  8  1  0  0  0  0
  7  9  1  0  0  0  0
  9 10  1  0  0  0  0
  9 11  2  0  0  0  0
 11 12  1  0  0  0  0
 15 16  1  0  0  0  0
 15 40  1  0  0  0  0
 15 41  1  0  0  0  0
 16 17  1  0  0  0  0
 16 19  1  0  0  0  0
 16 39  1  6  0  0  0
 17 18  1  0  0  0  0
 19 20  1  0  0  0  0
 19 37  1  0  0  0  0
 19 38  1  0  0  0  0
 20 21  1  0  0  0  0
 21 22  2  0  0  0  0
 21 30  1  0  0  0  0
 22 23  1  0  0  0  0
 22 36  1  0  0  0  0
 23 24  2  0  0  0  0
 24 25  1  0  0  0  0
 24 35  1  0  0  0  0
 25 26  2  0  0  0  0
 25 30  1  0  0  0  0
 26 27  1  0  0  0  0
 26 34  1  0  0  0  0
 27 28  2  0  0  0  0
 27 33  1  0  0  0  0
 28 29  1  0  0  0  0
 28 32  1  0  0  0  0
 29 30  2  0  0  0  0
 29 31  1  0  0  0  0
M  END
>  <MODEL>
       1

$$$$
