tmp_first_model_2_80.pdb
 OpenBabel08272517383D

 60 65  0  0  1  0  0  0  0  0999 V2000
   -6.8110    3.5020  -23.4250 C   0  0  0  0  0  0  0  0  0  0  0  0
   -7.5580    2.6810  -24.3590 N   0  0  0  0  0  0  0  0  0  0  0  0
   -6.9640    1.6060  -24.9170 C   0  0  0  0  0  0  0  0  0  0  0  0
   -5.7620    1.3860  -24.8300 O   0  0  0  0  0  0  0  0  0  0  0  0
   -7.8970    0.7110  -25.7270 C   0  0  0  0  0  0  0  0  0  0  0  0
   -8.9210    0.0180  -24.9920 N   0  0  0  0  0  0  0  0  0  0  0  0
   -8.5960   -1.2820  -24.4200 C   0  0  0  0  0  0  0  0  0  0  0  0
   -9.1090   -1.4320  -22.9610 C   0  0  2  0  0  0  0  0  0  0  0  0
   -8.2790   -0.5010  -22.0350 C   0  0  0  0  0  0  0  0  0  0  0  0
   -8.2840    0.7140  -22.0250 O   0  0  0  0  0  0  0  0  0  0  0  0
   -7.4920   -1.2740  -21.2110 N   0  0  0  0  0  0  0  0  0  0  0  0
   -6.6580   -0.7490  -20.1930 C   0  0  0  0  0  0  0  0  0  0  0  0
   -6.9250   -1.0440  -18.8780 C   0  0  0  0  0  0  0  0  0  0  0  0
   -6.2240   -0.5670  -17.8210 N   0  0  0  0  0  0  0  0  0  0  0  0
   -5.1980    0.2080  -18.0840 C   0  0  0  0  0  0  0  0  0  0  0  0
   -4.7680    0.5400  -19.4000 C   0  0  0  0  0  0  0  0  0  0  0  0
   -3.6280    1.3570  -19.6300 C   0  0  0  0  0  0  0  0  0  0  0  0
   -3.2160    1.6340  -20.9040 C   0  0  0  0  0  0  0  0  0  0  0  0
   -3.9210    1.1030  -22.0100 C   0  0  0  0  0  0  0  0  0  0  0  0
   -5.0250    0.3120  -21.8140 C   0  0  0  0  0  0  0  0  0  0  0  0
   -5.4980    0.0320  -20.5010 C   0  0  0  0  0  0  0  0  0  0  0  0
   -5.5460   -0.1000  -22.6720 H   0  0  0  0  0  0  0  0  0  0  0  0
   -3.6080    1.3370  -23.0230 H   0  0  0  0  0  0  0  0  0  0  0  0
   -2.3490    2.2650  -21.0740 H   0  0  0  0  0  0  0  0  0  0  0  0
   -3.1040    1.7560  -18.7650 H   0  0  0  0  0  0  0  0  0  0  0  0
   -4.6410    0.6050  -17.2340 H   0  0  0  0  0  0  0  0  0  0  0  0
   -7.7720   -1.6840  -18.6280 H   0  0  0  0  0  0  0  0  0  0  0  0
   -7.5420   -2.6880  -21.5010 C   0  0  0  0  0  0  0  0  0  0  0  0
   -8.7960   -2.8310  -22.3720 C   0  0  2  0  0  0  0  0  0  0  0  0
   -8.7250   -3.9900  -23.3590 C   0  0  0  0  0  0  0  0  0  0  0  0
   -7.8840   -3.8800  -24.0550 H   0  0  0  0  0  0  0  0  0  0  0  0
   -9.6430   -4.0550  -23.9540 H   0  0  0  0  0  0  0  0  0  0  0  0
   -8.5930   -4.9350  -22.8240 H   0  0  0  0  0  0  0  0  0  0  0  0
   -9.5980   -3.0350  -21.6650 H   0  0  0  0  0  0  0  0  0  0  0  0
   -7.6350   -3.2620  -20.5740 H   0  0  0  0  0  0  0  0  0  0  0  0
   -6.6250   -3.0280  -22.0050 H   0  0  0  0  0  0  0  0  0  0  0  0
  -10.5930   -1.0710  -22.9580 C   0  0  0  0  0  0  0  0  0  0  0  0
  -11.5690   -1.7400  -22.2030 C   0  0  0  0  0  0  0  0  0  0  0  0
  -12.8940   -1.3420  -22.2490 C   0  0  0  0  0  0  0  0  0  0  0  0
  -14.0600   -2.2150  -21.2930 Cl  0  0  0  0  0  0  0  0  0  0  0  0
  -13.3070   -0.2580  -23.0130 C   0  0  0  0  0  0  0  0  0  0  0  0
  -12.3510    0.4190  -23.7430 C   0  0  0  0  0  0  0  0  0  0  0  0
  -11.0220   -0.0090  -23.7650 C   0  0  0  0  0  0  0  0  0  0  0  0
  -10.0920    0.6730  -24.7140 C   0  0  0  0  0  0  0  0  0  0  0  0
  -10.3700    1.7480  -25.2350 O   0  0  0  0  0  0  0  0  0  0  0  0
  -12.6170    1.2870  -24.3330 H   0  0  0  0  0  0  0  0  0  0  0  0
  -14.3560    0.0170  -23.0440 H   0  0  0  0  0  0  0  0  0  0  0  0
  -11.3320   -2.5660  -21.5430 H   0  0  0  0  0  0  0  0  0  0  0  0
   -7.5100   -1.3830  -24.4430 H   0  0  0  0  0  0  0  0  0  0  0  0
   -9.0380   -2.0740  -25.0370 H   0  0  0  0  0  0  0  0  0  0  0  0
   -7.2160   -0.0120  -26.8570 C   0  0  0  0  0  0  0  0  0  0  0  0
   -8.1530    1.1190  -27.1540 C   0  0  0  0  0  0  0  0  0  0  0  0
   -9.1340    0.8710  -27.5450 H   0  0  0  0  0  0  0  0  0  0  0  0
   -7.7540    2.0710  -27.4910 H   0  0  0  0  0  0  0  0  0  0  0  0
   -7.5540   -1.0220  -27.0780 H   0  0  0  0  0  0  0  0  0  0  0  0
   -6.1480    0.1690  -26.9560 H   0  0  0  0  0  0  0  0  0  0  0  0
   -8.5680    2.7470  -24.4110 H   0  0  0  0  0  0  0  0  0  0  0  0
   -6.4430    2.8980  -22.5820 H   0  0  0  0  0  0  0  0  0  0  0  0
   -5.9440    3.9470  -23.9240 H   0  0  0  0  0  0  0  0  0  0  0  0
   -7.4620    4.2970  -23.0570 H   0  0  0  0  0  0  0  0  0  0  0  0
  1  2  1  0  0  0  0
  1 58  1  0  0  0  0
  1 59  1  0  0  0  0
  1 60  1  0  0  0  0
  2  3  1  0  0  0  0
  2 57  1  0  0  0  0
  3  4  2  0  0  0  0
  3  5  1  0  0  0  0
  5  6  1  0  0  0  0
  5 51  1  0  0  0  0
  5 52  1  0  0  0  0
  6  7  1  0  0  0  0
  6 44  1  0  0  0  0
  7  8  1  0  0  0  0
  7 49  1  0  0  0  0
  7 50  1  0  0  0  0
  8  9  1  1  0  0  0
  8 29  1  0  0  0  0
  8 37  1  0  0  0  0
  9 10  2  0  0  0  0
  9 11  1  0  0  0  0
 11 12  1  0  0  0  0
 11 28  1  0  0  0  0
 12 13  2  0  0  0  0
 12 21  1  0  0  0  0
 13 14  1  0  0  0  0
 13 27  1  0  0  0  0
 14 15  2  0  0  0  0
 15 16  1  0  0  0  0
 15 26  1  0  0  0  0
 16 17  2  0  0  0  0
 16 21  1  0  0  0  0
 17 18  1  0  0  0  0
 17 25  1  0  0  0  0
 18 19  2  0  0  0  0
 18 24  1  0  0  0  0
 19 20  1  0  0  0  0
 19 23  1  0  0  0  0
 20 21  2  0  0  0  0
 20 22  1  0  0  0  0
 28 29  1  0  0  0  0
 28 35  1  0  0  0  0
 28 36  1  0  0  0  0
 29 30  1  0  0  0  0
 29 34  1  1  0  0  0
 30 31  1  0  0  0  0
 30 32  1  0  0  0  0
 30 33  1  0  0  0  0
 37 38  2  0  0  0  0
 37 43  1  0  0  0  0
 38 39  1  0  0  0  0
 38 48  1  0  0  0  0
 39 40  1  0  0  0  0
 39 41  2  0  0  0  0
 41 42  1  0  0  0  0
 41 47  1  0  0  0  0
 42 43  2  0  0  0  0
 42 46  1  0  0  0  0
 43 44  1  0  0  0  0
 44 45  2  0  0  0  0
 51 52  1  0  0  0  0
 51 55  1  0  0  0  0
 51 56  1  0  0  0  0
 52 53  1  0  0  0  0
 52 54  1  0  0  0  0
M  END
>  <MODEL>
       1

$$$$
