tmp_first_model_11_13.pdb
 OpenBabel08272522543D

 69 74  0  0  1  0  0  0  0  0999 V2000
   -7.4340    3.3920  -21.8450 C   0  0  0  0  0  0  0  0  0  0  0  0
   -8.4740    2.9020  -22.7400 N   0  0  0  0  0  0  0  0  0  0  0  0
   -8.0770    2.1420  -23.8030 C   0  0  0  0  0  0  0  0  0  0  0  0
   -6.8990    1.8860  -24.0220 O   0  0  0  0  0  0  0  0  0  0  0  0
   -9.1550    1.5840  -24.7300 C   0  0  0  0  0  0  0  0  0  0  0  0
   -9.7330    0.3970  -24.1410 N   0  0  0  0  0  0  0  0  0  0  0  0
   -8.9310   -0.8150  -24.0670 C   0  0  0  0  0  0  0  0  0  0  0  0
   -9.2100   -1.6010  -22.7630 C   0  0  2  0  0  0  0  0  0  0  0  0
   -8.6310   -0.8130  -21.5600 C   0  0  0  0  0  0  0  0  0  0  0  0
   -9.1060    0.1740  -21.0350 O   0  0  0  0  0  0  0  0  0  0  0  0
   -7.4400   -1.3990  -21.1940 N   0  0  0  0  0  0  0  0  0  0  0  0
   -6.6270   -0.8270  -20.1820 C   0  0  0  0  0  0  0  0  0  0  0  0
   -6.9430   -1.0430  -18.8640 C   0  0  0  0  0  0  0  0  0  0  0  0
   -6.2410   -0.5550  -17.8130 N   0  0  0  0  0  0  0  0  0  0  0  0
   -5.1960    0.1890  -18.0860 C   0  0  0  0  0  0  0  0  0  0  0  0
   -4.7620    0.5060  -19.4040 C   0  0  0  0  0  0  0  0  0  0  0  0
   -3.6380    1.3420  -19.6380 C   0  0  0  0  0  0  0  0  0  0  0  0
   -3.2540    1.6490  -20.9140 C   0  0  0  0  0  0  0  0  0  0  0  0
   -3.9750    1.1380  -22.0150 C   0  0  0  0  0  0  0  0  0  0  0  0
   -5.0730    0.3320  -21.8170 C   0  0  0  0  0  0  0  0  0  0  0  0
   -5.4930   -0.0130  -20.5010 C   0  0  0  0  0  0  0  0  0  0  0  0
   -5.6400   -0.0070  -22.6790 H   0  0  0  0  0  0  0  0  0  0  0  0
   -3.6640    1.3900  -23.0240 H   0  0  0  0  0  0  0  0  0  0  0  0
   -2.3970    2.2930  -21.0860 H   0  0  0  0  0  0  0  0  0  0  0  0
   -3.1100    1.7440  -18.7770 H   0  0  0  0  0  0  0  0  0  0  0  0
   -4.6270    0.5860  -17.2440 H   0  0  0  0  0  0  0  0  0  0  0  0
   -7.8110   -1.6500  -18.6220 H   0  0  0  0  0  0  0  0  0  0  0  0
   -7.0870   -2.5630  -21.9870 C   0  0  0  0  0  0  0  0  0  0  0  0
   -8.4020   -2.9290  -22.6950 C   0  0  2  0  0  0  0  0  0  0  0  0
   -8.1620   -3.6810  -24.0070 C   0  0  0  0  0  0  0  0  0  0  0  0
   -9.3990   -4.0690  -24.6460 N   0  0  0  0  0  0  0  0  0  0  0  0
   -9.4080   -4.7400  -25.8300 C   0  0  0  0  0  0  0  0  0  0  0  0
  -10.6130   -5.2120  -26.3930 C   0  0  0  0  0  0  0  0  0  0  0  0
  -10.5080   -5.8560  -27.6060 C   0  0  0  0  0  0  0  0  0  0  0  0
   -9.3520   -6.0250  -28.2570 N   0  0  0  0  0  0  0  0  0  0  0  0
   -8.2710   -5.5550  -27.6350 C   0  0  0  0  0  0  0  0  0  0  0  0
   -6.9740   -5.8020  -28.3540 C   0  0  0  0  0  0  0  0  0  0  0  0
   -7.1660   -5.7530  -29.4300 H   0  0  0  0  0  0  0  0  0  0  0  0
   -6.6240   -6.8180  -28.1300 H   0  0  0  0  0  0  0  0  0  0  0  0
   -6.1940   -5.0890  -28.0720 H   0  0  0  0  0  0  0  0  0  0  0  0
   -8.2340   -4.9210  -26.4550 N   0  0  0  0  0  0  0  0  0  0  0  0
  -11.3820   -6.2700  -28.1080 H   0  0  0  0  0  0  0  0  0  0  0  0
  -11.5750   -5.0850  -25.9000 H   0  0  0  0  0  0  0  0  0  0  0  0
  -10.2640   -3.9950  -24.1300 H   0  0  0  0  0  0  0  0  0  0  0  0
   -7.5550   -4.5740  -23.8110 H   0  0  0  0  0  0  0  0  0  0  0  0
   -7.5900   -3.0630  -24.7130 H   0  0  0  0  0  0  0  0  0  0  0  0
   -8.9520   -3.6030  -22.0300 H   0  0  0  0  0  0  0  0  0  0  0  0
   -6.2910   -2.3360  -22.7140 H   0  0  0  0  0  0  0  0  0  0  0  0
   -6.7300   -3.3750  -21.3460 H   0  0  0  0  0  0  0  0  0  0  0  0
  -10.7130   -1.7590  -22.6390 C   0  0  0  0  0  0  0  0  0  0  0  0
  -11.2850   -2.7200  -21.7980 C   0  0  0  0  0  0  0  0  0  0  0  0
  -12.6510   -2.7190  -21.5800 C   0  0  0  0  0  0  0  0  0  0  0  0
  -13.3210   -3.7560  -20.3710 Cl  0  0  0  0  0  0  0  0  0  0  0  0
  -13.5210   -1.8750  -22.2620 C   0  0  0  0  0  0  0  0  0  0  0  0
  -12.9670   -0.9670  -23.1330 C   0  0  0  0  0  0  0  0  0  0  0  0
  -11.5880   -0.8530  -23.2540 C   0  0  0  0  0  0  0  0  0  0  0  0
  -11.0820    0.3580  -23.9600 C   0  0  0  0  0  0  0  0  0  0  0  0
  -11.8280    1.2630  -24.3190 O   0  0  0  0  0  0  0  0  0  0  0  0
  -13.5750   -0.2670  -23.6910 H   0  0  0  0  0  0  0  0  0  0  0  0
  -14.5850   -1.8940  -22.0520 H   0  0  0  0  0  0  0  0  0  0  0  0
  -10.6900   -3.4480  -21.2580 H   0  0  0  0  0  0  0  0  0  0  0  0
   -7.8750   -0.5390  -24.1330 H   0  0  0  0  0  0  0  0  0  0  0  0
   -9.1630   -1.4640  -24.9210 H   0  0  0  0  0  0  0  0  0  0  0  0
   -8.6810    1.3280  -25.6870 H   0  0  0  0  0  0  0  0  0  0  0  0
   -9.9780    2.2810  -24.9170 H   0  0  0  0  0  0  0  0  0  0  0  0
   -9.3970    2.7750  -22.3410 H   0  0  0  0  0  0  0  0  0  0  0  0
   -6.8430    2.5400  -21.4730 H   0  0  0  0  0  0  0  0  0  0  0  0
   -6.7740    4.0850  -22.3790 H   0  0  0  0  0  0  0  0  0  0  0  0
   -7.8920    3.9540  -21.0260 H   0  0  0  0  0  0  0  0  0  0  0  0
  1  2  1  0  0  0  0
  1 67  1  0  0  0  0
  1 68  1  0  0  0  0
  1 69  1  0  0  0  0
  2  3  1  0  0  0  0
  2 66  1  0  0  0  0
  3  4  2  0  0  0  0
  3  5  1  0  0  0  0
  5  6  1  0  0  0  0
  5 64  1  0  0  0  0
  5 65  1  0  0  0  0
  6  7  1  0  0  0  0
  6 57  1  0  0  0  0
  7  8  1  0  0  0  0
  7 62  1  0  0  0  0
  7 63  1  0  0  0  0
  8  9  1  1  0  0  0
  8 29  1  0  0  0  0
  8 50  1  0  0  0  0
  9 10  2  0  0  0  0
  9 11  1  0  0  0  0
 11 12  1  0  0  0  0
 11 28  1  0  0  0  0
 12 13  2  0  0  0  0
 12 21  1  0  0  0  0
 13 14  1  0  0  0  0
 13 27  1  0  0  0  0
 14 15  2  0  0  0  0
 15 16  1  0  0  0  0
 15 26  1  0  0  0  0
 16 17  2  0  0  0  0
 16 21  1  0  0  0  0
 17 18  1  0  0  0  0
 17 25  1  0  0  0  0
 18 19  2  0  0  0  0
 18 24  1  0  0  0  0
 19 20  1  0  0  0  0
 19 23  1  0  0  0  0
 20 21  2  0  0  0  0
 20 22  1  0  0  0  0
 28 29  1  0  0  0  0
 28 48  1  0  0  0  0
 28 49  1  0  0  0  0
 29 30  1  0  0  0  0
 29 47  1  1  0  0  0
 30 31  1  0  0  0  0
 30 45  1  0  0  0  0
 30 46  1  0  0  0  0
 31 32  1  0  0  0  0
 31 44  1  0  0  0  0
 32 33  2  0  0  0  0
 32 41  1  0  0  0  0
 33 34  1  0  0  0  0
 33 43  1  0  0  0  0
 34 35  2  0  0  0  0
 34 42  1  0  0  0  0
 35 36  1  0  0  0  0
 36 37  1  0  0  0  0
 36 41  2  0  0  0  0
 37 38  1  0  0  0  0
 37 39  1  0  0  0  0
 37 40  1  0  0  0  0
 50 51  2  0  0  0  0
 50 56  1  0  0  0  0
 51 52  1  0  0  0  0
 51 61  1  0  0  0  0
 52 53  1  0  0  0  0
 52 54  2  0  0  0  0
 54 55  1  0  0  0  0
 54 60  1  0  0  0  0
 55 56  2  0  0  0  0
 55 59  1  0  0  0  0
 56 57  1  0  0  0  0
 57 58  2  0  0  0  0
M  END
>  <MODEL>
       1

$$$$
