tmp_first_model_17_48.pdb
 OpenBabel08282502223D

 46 48  0  0  0  0  0  0  0  0999 V2000
   -8.5210   -6.7760  -25.9060 C   0  0  0  0  0  0  0  0  0  0  0  0
   -9.6170   -6.7220  -24.8470 C   0  0  0  0  0  0  0  0  0  0  0  0
  -10.9830   -6.5490  -25.5100 C   0  0  0  0  0  0  0  0  0  0  0  0
  -11.7950   -6.5150  -24.7780 H   0  0  0  0  0  0  0  0  0  0  0  0
  -11.1920   -7.3740  -26.1990 H   0  0  0  0  0  0  0  0  0  0  0  0
  -11.0360   -5.6270  -26.0960 H   0  0  0  0  0  0  0  0  0  0  0  0
   -9.3610   -5.6610  -23.7460 C   0  0  0  0  0  0  0  0  0  0  0  0
   -9.2780   -4.2230  -24.2500 C   0  0  0  0  0  0  0  0  0  0  0  0
   -8.8340   -3.2510  -23.1600 C   0  0  0  0  0  0  0  0  0  0  0  0
   -7.5510   -3.6280  -22.5690 N   0  0  0  0  0  0  0  0  0  0  0  0
   -6.7690   -2.7730  -21.8320 C   0  0  0  0  0  0  0  0  0  0  0  0
   -5.5940   -3.0180  -21.6080 O   0  0  0  0  0  0  0  0  0  0  0  0
   -7.4190   -1.4850  -21.2620 C   0  0  0  0  0  0  0  0  0  0  0  0
   -6.5820   -0.8310  -20.1830 C   0  0  0  0  0  0  0  0  0  0  0  0
   -6.8740   -1.0440  -18.8590 C   0  0  0  0  0  0  0  0  0  0  0  0
   -6.1910   -0.5390  -17.7970 N   0  0  0  0  0  0  0  0  0  0  0  0
   -5.1570    0.2220  -18.0640 C   0  0  0  0  0  0  0  0  0  0  0  0
   -4.7220    0.5310  -19.3820 C   0  0  0  0  0  0  0  0  0  0  0  0
   -3.5950    1.3600  -19.6190 C   0  0  0  0  0  0  0  0  0  0  0  0
   -3.1970    1.6410  -20.8990 C   0  0  0  0  0  0  0  0  0  0  0  0
   -3.9090    1.0970  -21.9910 C   0  0  0  0  0  0  0  0  0  0  0  0
   -5.0020    0.2890  -21.7860 C   0  0  0  0  0  0  0  0  0  0  0  0
   -5.4460   -0.0120  -20.4720 C   0  0  0  0  0  0  0  0  0  0  0  0
   -5.5240   -0.1350  -22.6370 H   0  0  0  0  0  0  0  0  0  0  0  0
   -3.5730    1.3110  -23.0010 H   0  0  0  0  0  0  0  0  0  0  0  0
   -2.3290    2.2680  -21.0870 H   0  0  0  0  0  0  0  0  0  0  0  0
   -3.0530    1.7730  -18.7710 H   0  0  0  0  0  0  0  0  0  0  0  0
   -4.6010    0.6270  -17.2170 H   0  0  0  0  0  0  0  0  0  0  0  0
   -7.7200   -1.6700  -18.5840 H   0  0  0  0  0  0  0  0  0  0  0  0
   -8.4110   -1.7200  -20.8480 H   0  0  0  0  0  0  0  0  0  0  0  0
   -7.5940   -0.7630  -22.0730 H   0  0  0  0  0  0  0  0  0  0  0  0
   -7.0390   -4.9580  -22.8970 C   0  0  0  0  0  0  0  0  0  0  0  0
   -8.1510   -5.9970  -22.8460 C   0  0  0  0  0  0  0  0  0  0  0  0
   -7.7490   -6.9850  -23.0980 H   0  0  0  0  0  0  0  0  0  0  0  0
   -8.4560   -6.0650  -21.7980 H   0  0  0  0  0  0  0  0  0  0  0  0
   -6.2600   -5.2130  -22.1790 H   0  0  0  0  0  0  0  0  0  0  0  0
   -6.5630   -4.9630  -23.8830 H   0  0  0  0  0  0  0  0  0  0  0  0
   -8.7490   -2.2540  -23.6050 H   0  0  0  0  0  0  0  0  0  0  0  0
   -9.6120   -3.1760  -22.3880 H   0  0  0  0  0  0  0  0  0  0  0  0
  -10.2640   -3.9080  -24.6050 H   0  0  0  0  0  0  0  0  0  0  0  0
   -8.6140   -4.1420  -25.1100 H   0  0  0  0  0  0  0  0  0  0  0  0
  -10.2530   -5.6340  -23.1170 H   0  0  0  0  0  0  0  0  0  0  0  0
   -9.6270   -7.7000  -24.3500 H   0  0  0  0  0  0  0  0  0  0  0  0
   -7.5200   -6.8330  -25.4690 H   0  0  0  0  0  0  0  0  0  0  0  0
   -8.5440   -5.8930  -26.5520 H   0  0  0  0  0  0  0  0  0  0  0  0
   -8.6450   -7.6490  -26.5550 H   0  0  0  0  0  0  0  0  0  0  0  0
  1  2  1  0  0  0  0
  1 44  1  0  0  0  0
  1 45  1  0  0  0  0
  1 46  1  0  0  0  0
  2  3  1  0  0  0  0
  2  7  1  0  0  0  0
  2 43  1  0  0  0  0
  3  4  1  0  0  0  0
  3  5  1  0  0  0  0
  3  6  1  0  0  0  0
  7  8  1  0  0  0  0
  7 33  1  0  0  0  0
  7 42  1  0  0  0  0
  8  9  1  0  0  0  0
  8 40  1  0  0  0  0
  8 41  1  0  0  0  0
  9 10  1  0  0  0  0
  9 38  1  0  0  0  0
  9 39  1  0  0  0  0
 10 11  1  0  0  0  0
 10 32  1  0  0  0  0
 11 12  2  0  0  0  0
 11 13  1  0  0  0  0
 13 14  1  0  0  0  0
 13 30  1  0  0  0  0
 13 31  1  0  0  0  0
 14 15  2  0  0  0  0
 14 23  1  0  0  0  0
 15 16  1  0  0  0  0
 15 29  1  0  0  0  0
 16 17  2  0  0  0  0
 17 18  1  0  0  0  0
 17 28  1  0  0  0  0
 18 19  2  0  0  0  0
 18 23  1  0  0  0  0
 19 20  1  0  0  0  0
 19 27  1  0  0  0  0
 20 21  2  0  0  0  0
 20 26  1  0  0  0  0
 21 22  1  0  0  0  0
 21 25  1  0  0  0  0
 22 23  2  0  0  0  0
 22 24  1  0  0  0  0
 32 33  1  0  0  0  0
 32 36  1  0  0  0  0
 32 37  1  0  0  0  0
 33 34  1  0  0  0  0
 33 35  1  0  0  0  0
M  END
>  <MODEL>
       1

$$$$
