tmp_first_model_20_23.pdb
 OpenBabel08282503553D

 68 73  0  0  1  0  0  0  0  0999 V2000
   -7.8110    3.2990  -22.4190 C   0  0  0  0  0  0  0  0  0  0  0  0
   -8.6610    2.7840  -23.4770 N   0  0  0  0  0  0  0  0  0  0  0  0
   -8.0840    2.0750  -24.4820 C   0  0  0  0  0  0  0  0  0  0  0  0
   -6.8730    1.9840  -24.6340 O   0  0  0  0  0  0  0  0  0  0  0  0
   -9.0700    1.3420  -25.3880 C   0  0  0  0  0  0  0  0  0  0  0  0
   -9.7070    0.2620  -24.6540 N   0  0  0  0  0  0  0  0  0  0  0  0
   -8.8260   -0.8280  -24.2760 C   0  0  0  0  0  0  0  0  0  0  0  0
   -9.2070   -1.5540  -22.9480 C   0  0  2  0  0  0  0  0  0  0  0  0
   -8.6700   -0.7100  -21.7530 C   0  0  0  0  0  0  0  0  0  0  0  0
   -9.1530    0.3150  -21.3230 O   0  0  0  0  0  0  0  0  0  0  0  0
   -7.5250   -1.3050  -21.2690 N   0  0  0  0  0  0  0  0  0  0  0  0
   -6.7370   -0.7440  -20.2280 C   0  0  0  0  0  0  0  0  0  0  0  0
   -7.0400   -1.0110  -18.9190 C   0  0  0  0  0  0  0  0  0  0  0  0
   -6.3170   -0.5760  -17.8550 N   0  0  0  0  0  0  0  0  0  0  0  0
   -5.2480    0.1430  -18.1040 C   0  0  0  0  0  0  0  0  0  0  0  0
   -4.8070    0.4860  -19.4150 C   0  0  0  0  0  0  0  0  0  0  0  0
   -3.6450    1.2740  -19.6360 C   0  0  0  0  0  0  0  0  0  0  0  0
   -3.2600    1.5990  -20.9090 C   0  0  0  0  0  0  0  0  0  0  0  0
   -4.0210    1.1600  -22.0160 C   0  0  0  0  0  0  0  0  0  0  0  0
   -5.1560    0.4090  -21.8280 C   0  0  0  0  0  0  0  0  0  0  0  0
   -5.5720    0.0380  -20.5170 C   0  0  0  0  0  0  0  0  0  0  0  0
   -5.7600    0.1220  -22.6850 H   0  0  0  0  0  0  0  0  0  0  0  0
   -3.7160    1.4340  -23.0230 H   0  0  0  0  0  0  0  0  0  0  0  0
   -2.3800    2.2140  -21.0760 H   0  0  0  0  0  0  0  0  0  0  0  0
   -3.0800    1.6220  -18.7750 H   0  0  0  0  0  0  0  0  0  0  0  0
   -4.6710    0.4940  -17.2470 H   0  0  0  0  0  0  0  0  0  0  0  0
   -7.9110   -1.6190  -18.6810 H   0  0  0  0  0  0  0  0  0  0  0  0
   -7.1170   -2.4810  -22.0040 C   0  0  0  0  0  0  0  0  0  0  0  0
   -8.3880   -2.8780  -22.7670 C   0  0  2  0  0  0  0  0  0  0  0  0
   -8.0570   -3.6960  -24.0140 C   0  0  0  0  0  0  0  0  0  0  0  0
   -9.2700   -4.2150  -24.6010 N   0  0  0  0  0  0  0  0  0  0  0  0
   -9.2430   -4.7750  -25.8770 C   0  0  0  0  0  0  0  0  0  0  0  0
  -10.4480   -5.1680  -26.4730 C   0  0  0  0  0  0  0  0  0  0  0  0
  -10.4590   -5.7140  -27.7490 C   0  0  0  0  0  0  0  0  0  0  0  0
   -9.2760   -5.8760  -28.4640 C   0  0  0  0  0  0  0  0  0  0  0  0
   -8.0760   -5.5120  -27.8670 C   0  0  0  0  0  0  0  0  0  0  0  0
   -8.0490   -4.9770  -26.5820 C   0  0  0  0  0  0  0  0  0  0  0  0
   -7.0970   -4.7060  -26.1370 H   0  0  0  0  0  0  0  0  0  0  0  0
   -7.1370   -5.6400  -28.4020 H   0  0  0  0  0  0  0  0  0  0  0  0
   -9.2890   -6.2830  -29.4720 H   0  0  0  0  0  0  0  0  0  0  0  0
  -11.4100   -6.0120  -28.1860 H   0  0  0  0  0  0  0  0  0  0  0  0
  -11.3750   -5.0620  -25.9170 H   0  0  0  0  0  0  0  0  0  0  0  0
  -10.0840   -3.6290  -24.4450 H   0  0  0  0  0  0  0  0  0  0  0  0
   -7.4000   -4.5370  -23.7550 H   0  0  0  0  0  0  0  0  0  0  0  0
   -7.4770   -3.0740  -24.7200 H   0  0  0  0  0  0  0  0  0  0  0  0
   -8.9830   -3.5190  -22.1120 H   0  0  0  0  0  0  0  0  0  0  0  0
   -6.7810   -3.2650  -21.3180 H   0  0  0  0  0  0  0  0  0  0  0  0
   -6.2780   -2.2640  -22.6870 H   0  0  0  0  0  0  0  0  0  0  0  0
  -10.7280   -1.6700  -22.8290 C   0  0  0  0  0  0  0  0  0  0  0  0
  -11.3430   -2.6010  -21.9760 C   0  0  0  0  0  0  0  0  0  0  0  0
  -12.7180   -2.5850  -21.7870 C   0  0  0  0  0  0  0  0  0  0  0  0
  -13.4600   -3.7600  -20.7390 Cl  0  0  0  0  0  0  0  0  0  0  0  0
  -13.5350   -1.6400  -22.4020 C   0  0  0  0  0  0  0  0  0  0  0  0
  -12.9410   -0.6910  -23.2060 C   0  0  0  0  0  0  0  0  0  0  0  0
  -11.5590   -0.6990  -23.4140 C   0  0  0  0  0  0  0  0  0  0  0  0
  -10.9950    0.4120  -24.2420 C   0  0  0  0  0  0  0  0  0  0  0  0
  -11.6590    1.4080  -24.5140 O   0  0  0  0  0  0  0  0  0  0  0  0
  -13.5250    0.0960  -23.6720 H   0  0  0  0  0  0  0  0  0  0  0  0
  -14.6080   -1.6440  -22.2270 H   0  0  0  0  0  0  0  0  0  0  0  0
  -10.7700   -3.3290  -21.4150 H   0  0  0  0  0  0  0  0  0  0  0  0
   -7.8340   -0.3790  -24.1580 H   0  0  0  0  0  0  0  0  0  0  0  0
   -8.7590   -1.5220  -25.1240 H   0  0  0  0  0  0  0  0  0  0  0  0
   -8.4900    0.9640  -26.2320 H   0  0  0  0  0  0  0  0  0  0  0  0
   -9.8740    1.9890  -25.7400 H   0  0  0  0  0  0  0  0  0  0  0  0
   -9.6330    2.6340  -23.2390 H   0  0  0  0  0  0  0  0  0  0  0  0
   -7.5020    2.4850  -21.7430 H   0  0  0  0  0  0  0  0  0  0  0  0
   -8.3310    4.0740  -21.8390 H   0  0  0  0  0  0  0  0  0  0  0  0
   -6.9060    3.7290  -22.8710 H   0  0  0  0  0  0  0  0  0  0  0  0
  1  2  1  0  0  0  0
  1 66  1  0  0  0  0
  1 67  1  0  0  0  0
  1 68  1  0  0  0  0
  2  3  1  0  0  0  0
  2 65  1  0  0  0  0
  3  4  2  0  0  0  0
  3  5  1  0  0  0  0
  5  6  1  0  0  0  0
  5 63  1  0  0  0  0
  5 64  1  0  0  0  0
  6  7  1  0  0  0  0
  6 56  1  0  0  0  0
  7  8  1  0  0  0  0
  7 61  1  0  0  0  0
  7 62  1  0  0  0  0
  8  9  1  1  0  0  0
  8 29  1  0  0  0  0
  8 49  1  0  0  0  0
  9 10  2  0  0  0  0
  9 11  1  0  0  0  0
 11 12  1  0  0  0  0
 11 28  1  0  0  0  0
 12 13  2  0  0  0  0
 12 21  1  0  0  0  0
 13 14  1  0  0  0  0
 13 27  1  0  0  0  0
 14 15  2  0  0  0  0
 15 16  1  0  0  0  0
 15 26  1  0  0  0  0
 16 17  2  0  0  0  0
 16 21  1  0  0  0  0
 17 18  1  0  0  0  0
 17 25  1  0  0  0  0
 18 19  2  0  0  0  0
 18 24  1  0  0  0  0
 19 20  1  0  0  0  0
 19 23  1  0  0  0  0
 20 21  2  0  0  0  0
 20 22  1  0  0  0  0
 28 29  1  0  0  0  0
 28 47  1  0  0  0  0
 28 48  1  0  0  0  0
 29 30  1  0  0  0  0
 29 46  1  1  0  0  0
 30 31  1  0  0  0  0
 30 44  1  0  0  0  0
 30 45  1  0  0  0  0
 31 32  1  0  0  0  0
 31 43  1  0  0  0  0
 32 33  2  0  0  0  0
 32 37  1  0  0  0  0
 33 34  1  0  0  0  0
 33 42  1  0  0  0  0
 34 35  2  0  0  0  0
 34 41  1  0  0  0  0
 35 36  1  0  0  0  0
 35 40  1  0  0  0  0
 36 37  2  0  0  0  0
 36 39  1  0  0  0  0
 37 38  1  0  0  0  0
 49 50  2  0  0  0  0
 49 55  1  0  0  0  0
 50 51  1  0  0  0  0
 50 60  1  0  0  0  0
 51 52  1  0  0  0  0
 51 53  2  0  0  0  0
 53 54  1  0  0  0  0
 53 59  1  0  0  0  0
 54 55  2  0  0  0  0
 54 58  1  0  0  0  0
 55 56  1  0  0  0  0
 56 57  2  0  0  0  0
M  END
>  <MODEL>
       1

$$$$
