tmp_first_model_19_83.pdb
 OpenBabel08282503233D

 46 50  0  0  1  0  0  0  0  0999 V2000
   -5.3090   -3.3330  -26.7900 N   0  0  0  0  0  0  0  0  0  0  0  0
   -5.7720   -1.7420  -26.8130 S   0  0  0  0  0  0  0  0  0  0  0  0
   -4.9140   -1.0800  -25.8530 O   0  0  0  0  0  0  0  0  0  0  0  0
   -5.8150   -1.3720  -28.2150 O   0  0  0  0  0  0  0  0  0  0  0  0
   -7.4370   -1.6840  -26.1890 C   0  0  0  0  0  0  0  0  0  0  0  0
   -8.5070   -1.7060  -27.0790 C   0  0  0  0  0  0  0  0  0  0  0  0
   -9.7970   -1.6820  -26.5840 C   0  0  0  0  0  0  0  0  0  0  0  0
  -10.0270   -1.6540  -25.2050 C   0  0  0  0  0  0  0  0  0  0  0  0
   -8.9530   -1.6000  -24.3070 C   0  0  0  0  0  0  0  0  0  0  0  0
   -7.6570   -1.6540  -24.8180 C   0  0  0  0  0  0  0  0  0  0  0  0
   -6.8040   -1.6640  -24.1460 H   0  0  0  0  0  0  0  0  0  0  0  0
   -9.1860   -1.5270  -22.8040 C   0  0  1  0  0  0  0  0  0  0  0  0
  -10.6360   -1.1170  -22.5210 C   0  0  0  0  0  0  0  0  0  0  0  0
  -11.6020   -1.8670  -23.4260 C   0  0  0  0  0  0  0  0  0  0  0  0
  -11.3300   -1.6370  -24.8070 O   0  0  0  0  0  0  0  0  0  0  0  0
  -12.6280   -1.5120  -23.2780 H   0  0  0  0  0  0  0  0  0  0  0  0
  -11.5770   -2.9490  -23.2130 H   0  0  0  0  0  0  0  0  0  0  0  0
  -10.7260   -0.0350  -22.6780 H   0  0  0  0  0  0  0  0  0  0  0  0
  -10.8360   -1.3430  -21.4730 H   0  0  0  0  0  0  0  0  0  0  0  0
   -8.8190   -2.7740  -22.1480 N   0  0  0  0  0  0  0  0  0  0  0  0
   -7.7010   -2.6810  -21.3670 C   0  0  0  0  0  0  0  0  0  0  0  0
   -6.9910   -3.5540  -20.9340 O   0  0  0  0  0  0  0  0  0  0  0  0
   -7.4700   -1.2960  -21.2040 N   0  0  0  0  0  0  0  0  0  0  0  0
   -6.6170   -0.7840  -20.1900 C   0  0  0  0  0  0  0  0  0  0  0  0
   -6.9020   -1.0570  -18.8760 C   0  0  0  0  0  0  0  0  0  0  0  0
   -6.2010   -0.5620  -17.8300 N   0  0  0  0  0  0  0  0  0  0  0  0
   -5.1750    0.2060  -18.0960 C   0  0  0  0  0  0  0  0  0  0  0  0
   -4.7300    0.5170  -19.4090 C   0  0  0  0  0  0  0  0  0  0  0  0
   -3.5960    1.3400  -19.6400 C   0  0  0  0  0  0  0  0  0  0  0  0
   -3.1880    1.6120  -20.9150 C   0  0  0  0  0  0  0  0  0  0  0  0
   -3.8890    1.0630  -22.0120 C   0  0  0  0  0  0  0  0  0  0  0  0
   -4.9880    0.2660  -21.8130 C   0  0  0  0  0  0  0  0  0  0  0  0
   -5.4550   -0.0080  -20.4990 C   0  0  0  0  0  0  0  0  0  0  0  0
   -5.5300   -0.1460  -22.6610 H   0  0  0  0  0  0  0  0  0  0  0  0
   -3.5650    1.2830  -23.0240 H   0  0  0  0  0  0  0  0  0  0  0  0
   -2.3300    2.2560  -21.0910 H   0  0  0  0  0  0  0  0  0  0  0  0
   -3.0780    1.7570  -18.7810 H   0  0  0  0  0  0  0  0  0  0  0  0
   -4.6330    0.6120  -17.2440 H   0  0  0  0  0  0  0  0  0  0  0  0
   -7.7490   -1.6850  -18.6080 H   0  0  0  0  0  0  0  0  0  0  0  0
   -8.2440   -0.5460  -22.0930 C   0  0  0  0  0  0  0  0  0  0  0  0
   -8.1820    0.6490  -22.2580 O   0  0  0  0  0  0  0  0  0  0  0  0
   -9.2300   -3.6590  -22.4060 H   0  0  0  0  0  0  0  0  0  0  0  0
  -10.6460   -1.6710  -27.2580 H   0  0  0  0  0  0  0  0  0  0  0  0
   -8.3250   -1.7390  -28.1500 H   0  0  0  0  0  0  0  0  0  0  0  0
   -5.8460   -3.8950  -27.4420 H   0  0  0  0  0  0  0  0  0  0  0  0
   -5.2420   -3.6910  -25.8450 H   0  0  0  0  0  0  0  0  0  0  0  0
  1  2  1  0  0  0  0
  1 45  1  0  0  0  0
  1 46  1  0  0  0  0
  2  3  2  0  0  0  0
  2  4  2  0  0  0  0
  2  5  1  0  0  0  0
  5  6  2  0  0  0  0
  5 10  1  0  0  0  0
  6  7  1  0  0  0  0
  6 44  1  0  0  0  0
  7  8  2  0  0  0  0
  7 43  1  0  0  0  0
  8  9  1  0  0  0  0
  8 15  1  0  0  0  0
  9 10  2  0  0  0  0
 10 11  1  0  0  0  0
 12  9  1  6  0  0  0
 12 13  1  0  0  0  0
 12 20  1  0  0  0  0
 12 40  1  0  0  0  0
 13 14  1  0  0  0  0
 13 18  1  0  0  0  0
 13 19  1  0  0  0  0
 14 15  1  0  0  0  0
 14 16  1  0  0  0  0
 14 17  1  0  0  0  0
 20 21  1  0  0  0  0
 20 42  1  0  0  0  0
 21 22  2  0  0  0  0
 21 23  1  0  0  0  0
 23 24  1  0  0  0  0
 23 40  1  0  0  0  0
 24 25  2  0  0  0  0
 24 33  1  0  0  0  0
 25 26  1  0  0  0  0
 25 39  1  0  0  0  0
 26 27  2  0  0  0  0
 27 28  1  0  0  0  0
 27 38  1  0  0  0  0
 28 29  2  0  0  0  0
 28 33  1  0  0  0  0
 29 30  1  0  0  0  0
 29 37  1  0  0  0  0
 30 31  2  0  0  0  0
 30 36  1  0  0  0  0
 31 32  1  0  0  0  0
 31 35  1  0  0  0  0
 32 33  2  0  0  0  0
 32 34  1  0  0  0  0
 40 41  2  0  0  0  0
M  END
>  <MODEL>
       1

$$$$
