tmp_first_model_17_0.pdb
 OpenBabel08282502223D

 66 71  0  0  1  0  0  0  0  0999 V2000
   -6.7690    0.0860  -29.3840 C   0  0  0  0  0  0  0  0  0  0  0  0
   -7.0940    0.4800  -28.0340 N   0  0  0  0  0  0  0  0  0  0  0  0
   -6.4230   -0.0330  -26.9740 C   0  0  0  0  0  0  0  0  0  0  0  0
   -5.5450   -0.8770  -27.0650 O   0  0  0  0  0  0  0  0  0  0  0  0
   -6.8380    0.5580  -25.6230 C   0  0  0  0  0  0  0  0  0  0  0  0
   -7.9820   -0.1000  -25.0340 N   0  0  0  0  0  0  0  0  0  0  0  0
   -7.7790   -1.3860  -24.4010 C   0  0  0  0  0  0  0  0  0  0  0  0
   -8.6800   -1.5290  -23.1500 C   0  0  2  0  0  0  0  0  0  0  0  0
   -8.1440   -0.5960  -22.0340 C   0  0  0  0  0  0  0  0  0  0  0  0
   -8.3060    0.5980  -21.9360 O   0  0  0  0  0  0  0  0  0  0  0  0
   -7.3980   -1.3590  -21.1570 N   0  0  0  0  0  0  0  0  0  0  0  0
   -6.6110   -0.8000  -20.1190 C   0  0  0  0  0  0  0  0  0  0  0  0
   -6.9020   -1.0750  -18.8060 C   0  0  0  0  0  0  0  0  0  0  0  0
   -6.2310   -0.5640  -17.7420 N   0  0  0  0  0  0  0  0  0  0  0  0
   -5.2090    0.2200  -17.9950 C   0  0  0  0  0  0  0  0  0  0  0  0
   -4.7620    0.5480  -19.3080 C   0  0  0  0  0  0  0  0  0  0  0  0
   -3.6380    1.3890  -19.5390 C   0  0  0  0  0  0  0  0  0  0  0  0
   -3.2280    1.6650  -20.8160 C   0  0  0  0  0  0  0  0  0  0  0  0
   -3.9150    1.1130  -21.9190 C   0  0  0  0  0  0  0  0  0  0  0  0
   -4.9980    0.2970  -21.7220 C   0  0  0  0  0  0  0  0  0  0  0  0
   -5.4670    0.0140  -20.4080 C   0  0  0  0  0  0  0  0  0  0  0  0
   -5.5120   -0.1370  -22.5740 H   0  0  0  0  0  0  0  0  0  0  0  0
   -3.5770    1.3320  -22.9260 H   0  0  0  0  0  0  0  0  0  0  0  0
   -2.3700    2.3060  -20.9950 H   0  0  0  0  0  0  0  0  0  0  0  0
   -3.1110    1.8070  -18.6870 H   0  0  0  0  0  0  0  0  0  0  0  0
   -4.6750    0.6280  -17.1370 H   0  0  0  0  0  0  0  0  0  0  0  0
   -7.7450   -1.7240  -18.5730 H   0  0  0  0  0  0  0  0  0  0  0  0
   -7.3390   -2.7650  -21.5000 C   0  0  0  0  0  0  0  0  0  0  0  0
   -8.4950   -2.9220  -22.5030 C   0  0  2  0  0  0  0  0  0  0  0  0
   -8.3690   -4.0850  -23.4990 C   0  0  0  0  0  0  0  0  0  0  0  0
   -8.3280   -5.3840  -22.8610 N   0  0  0  0  0  0  0  0  0  0  0  0
   -7.2040   -5.9450  -22.3300 C   0  0  0  0  0  0  0  0  0  0  0  0
   -5.9100   -5.6090  -22.7720 C   0  0  0  0  0  0  0  0  0  0  0  0
   -4.8620   -6.2660  -22.1630 C   0  0  0  0  0  0  0  0  0  0  0  0
   -5.0400   -7.1450  -21.1700 N   0  0  0  0  0  0  0  0  0  0  0  0
   -6.3000   -7.3740  -20.8360 C   0  0  0  0  0  0  0  0  0  0  0  0
   -7.3990   -6.8500  -21.3580 N   0  0  0  0  0  0  0  0  0  0  0  0
   -6.4590   -8.0660  -20.0080 H   0  0  0  0  0  0  0  0  0  0  0  0
   -3.8270   -6.0730  -22.4500 H   0  0  0  0  0  0  0  0  0  0  0  0
   -5.7450   -4.8620  -23.5410 H   0  0  0  0  0  0  0  0  0  0  0  0
   -9.1660   -5.6080  -22.3430 H   0  0  0  0  0  0  0  0  0  0  0  0
   -7.4860   -3.9650  -24.1320 H   0  0  0  0  0  0  0  0  0  0  0  0
   -9.2360   -4.0550  -24.1740 H   0  0  0  0  0  0  0  0  0  0  0  0
   -9.3870   -3.1200  -21.9040 H   0  0  0  0  0  0  0  0  0  0  0  0
   -7.4600   -3.3730  -20.5990 H   0  0  0  0  0  0  0  0  0  0  0  0
   -6.3590   -3.0220  -21.9270 H   0  0  0  0  0  0  0  0  0  0  0  0
  -10.0990   -1.1570  -23.5490 C   0  0  0  0  0  0  0  0  0  0  0  0
  -11.2100   -1.5780  -22.8030 C   0  0  0  0  0  0  0  0  0  0  0  0
  -12.4800   -1.1420  -23.1390 C   0  0  0  0  0  0  0  0  0  0  0  0
  -13.8410   -1.6670  -22.1970 Cl  0  0  0  0  0  0  0  0  0  0  0  0
  -12.7110   -0.2870  -24.2150 C   0  0  0  0  0  0  0  0  0  0  0  0
  -11.6320    0.1060  -24.9760 C   0  0  0  0  0  0  0  0  0  0  0  0
  -10.3440   -0.3030  -24.6350 C   0  0  0  0  0  0  0  0  0  0  0  0
   -9.2290    0.2310  -25.4620 C   0  0  0  0  0  0  0  0  0  0  0  0
   -9.4260    0.9380  -26.4530 O   0  0  0  0  0  0  0  0  0  0  0  0
  -11.7570    0.7440  -25.8420 H   0  0  0  0  0  0  0  0  0  0  0  0
  -13.7150    0.0650  -24.4230 H   0  0  0  0  0  0  0  0  0  0  0  0
  -11.1120   -2.2310  -21.9440 H   0  0  0  0  0  0  0  0  0  0  0  0
   -8.0080   -2.1760  -25.1300 H   0  0  0  0  0  0  0  0  0  0  0  0
   -6.7230   -1.4720  -24.1260 H   0  0  0  0  0  0  0  0  0  0  0  0
   -5.9840    0.4410  -24.9520 H   0  0  0  0  0  0  0  0  0  0  0  0
   -7.0720    1.6210  -25.7150 H   0  0  0  0  0  0  0  0  0  0  0  0
   -8.0070    0.8710  -27.8410 H   0  0  0  0  0  0  0  0  0  0  0  0
   -5.6870    0.1530  -29.5290 H   0  0  0  0  0  0  0  0  0  0  0  0
   -7.2520    0.7800  -30.0770 H   0  0  0  0  0  0  0  0  0  0  0  0
   -7.0990   -0.9350  -29.6070 H   0  0  0  0  0  0  0  0  0  0  0  0
  1  2  1  0  0  0  0
  1 64  1  0  0  0  0
  1 65  1  0  0  0  0
  1 66  1  0  0  0  0
  2  3  1  0  0  0  0
  2 63  1  0  0  0  0
  3  4  2  0  0  0  0
  3  5  1  0  0  0  0
  5  6  1  0  0  0  0
  5 61  1  0  0  0  0
  5 62  1  0  0  0  0
  6  7  1  0  0  0  0
  6 54  1  0  0  0  0
  7  8  1  0  0  0  0
  7 59  1  0  0  0  0
  7 60  1  0  0  0  0
  8  9  1  1  0  0  0
  8 29  1  0  0  0  0
  8 47  1  0  0  0  0
  9 10  2  0  0  0  0
  9 11  1  0  0  0  0
 11 12  1  0  0  0  0
 11 28  1  0  0  0  0
 12 13  2  0  0  0  0
 12 21  1  0  0  0  0
 13 14  1  0  0  0  0
 13 27  1  0  0  0  0
 14 15  2  0  0  0  0
 15 16  1  0  0  0  0
 15 26  1  0  0  0  0
 16 17  2  0  0  0  0
 16 21  1  0  0  0  0
 17 18  1  0  0  0  0
 17 25  1  0  0  0  0
 18 19  2  0  0  0  0
 18 24  1  0  0  0  0
 19 20  1  0  0  0  0
 19 23  1  0  0  0  0
 20 21  2  0  0  0  0
 20 22  1  0  0  0  0
 28 29  1  0  0  0  0
 28 45  1  0  0  0  0
 28 46  1  0  0  0  0
 29 30  1  0  0  0  0
 29 44  1  1  0  0  0
 30 31  1  0  0  0  0
 30 42  1  0  0  0  0
 30 43  1  0  0  0  0
 31 32  1  0  0  0  0
 31 41  1  0  0  0  0
 32 33  2  0  0  0  0
 32 37  1  0  0  0  0
 33 34  1  0  0  0  0
 33 40  1  0  0  0  0
 34 35  2  0  0  0  0
 34 39  1  0  0  0  0
 35 36  1  0  0  0  0
 36 37  2  0  0  0  0
 36 38  1  0  0  0  0
 47 48  2  0  0  0  0
 47 53  1  0  0  0  0
 48 49  1  0  0  0  0
 48 58  1  0  0  0  0
 49 50  1  0  0  0  0
 49 51  2  0  0  0  0
 51 52  1  0  0  0  0
 51 57  1  0  0  0  0
 52 53  2  0  0  0  0
 52 56  1  0  0  0  0
 53 54  1  0  0  0  0
 54 55  2  0  0  0  0
M  END
>  <MODEL>
       1

$$$$
