tmp_first_model_10_48.pdb
 OpenBabel08272522163D

 46 48  0  0  0  0  0  0  0  0999 V2000
  -13.2390   -3.7470  -22.7320 C   0  0  0  0  0  0  0  0  0  0  0  0
  -13.2830   -2.7210  -23.8680 C   0  0  0  0  0  0  0  0  0  0  0  0
  -14.6550   -2.0470  -23.9180 C   0  0  0  0  0  0  0  0  0  0  0  0
  -15.4320   -2.8010  -24.0820 H   0  0  0  0  0  0  0  0  0  0  0  0
  -14.8850   -1.5290  -22.9780 H   0  0  0  0  0  0  0  0  0  0  0  0
  -14.7240   -1.3140  -24.7310 H   0  0  0  0  0  0  0  0  0  0  0  0
  -12.1260   -1.6990  -23.8610 C   0  0  0  0  0  0  0  0  0  0  0  0
  -10.7400   -2.3730  -24.0480 C   0  0  0  0  0  0  0  0  0  0  0  0
   -9.8470   -2.3390  -22.7970 C   0  0  0  0  0  0  0  0  0  0  0  0
   -9.6470   -0.9530  -22.3680 N   0  0  0  0  0  0  0  0  0  0  0  0
   -8.5430   -0.4410  -21.7480 C   0  0  0  0  0  0  0  0  0  0  0  0
   -8.4120    0.7600  -21.5660 O   0  0  0  0  0  0  0  0  0  0  0  0
   -7.4770   -1.4240  -21.2490 C   0  0  0  0  0  0  0  0  0  0  0  0
   -6.6240   -0.8140  -20.1680 C   0  0  0  0  0  0  0  0  0  0  0  0
   -6.9080   -1.0650  -18.8470 C   0  0  0  0  0  0  0  0  0  0  0  0
   -6.2110   -0.5810  -17.7850 N   0  0  0  0  0  0  0  0  0  0  0  0
   -5.1990    0.2080  -18.0510 C   0  0  0  0  0  0  0  0  0  0  0  0
   -4.8080    0.5830  -19.3660 C   0  0  0  0  0  0  0  0  0  0  0  0
   -3.6870    1.4190  -19.6040 C   0  0  0  0  0  0  0  0  0  0  0  0
   -3.3870    1.8380  -20.8720 C   0  0  0  0  0  0  0  0  0  0  0  0
   -4.1970    1.4290  -21.9600 C   0  0  0  0  0  0  0  0  0  0  0  0
   -5.1990    0.5080  -21.7680 C   0  0  0  0  0  0  0  0  0  0  0  0
   -5.5540    0.0840  -20.4590 C   0  0  0  0  0  0  0  0  0  0  0  0
   -5.7470    0.1220  -22.6230 H   0  0  0  0  0  0  0  0  0  0  0  0
   -4.0030    1.8290  -22.9530 H   0  0  0  0  0  0  0  0  0  0  0  0
   -2.5390    2.4940  -21.0510 H   0  0  0  0  0  0  0  0  0  0  0  0
   -3.0780    1.7130  -18.7520 H   0  0  0  0  0  0  0  0  0  0  0  0
   -4.6260    0.5970  -17.2070 H   0  0  0  0  0  0  0  0  0  0  0  0
   -7.7510   -1.7020  -18.5810 H   0  0  0  0  0  0  0  0  0  0  0  0
   -7.9880   -2.3120  -20.8640 H   0  0  0  0  0  0  0  0  0  0  0  0
   -6.8750   -1.7610  -22.1070 H   0  0  0  0  0  0  0  0  0  0  0  0
  -10.7230   -0.0200  -22.6940 C   0  0  0  0  0  0  0  0  0  0  0  0
  -12.0550   -0.7560  -22.6520 C   0  0  0  0  0  0  0  0  0  0  0  0
  -12.0930   -1.3440  -21.7280 H   0  0  0  0  0  0  0  0  0  0  0  0
  -12.8840   -0.0360  -22.6320 H   0  0  0  0  0  0  0  0  0  0  0  0
  -10.6830    0.8090  -21.9870 H   0  0  0  0  0  0  0  0  0  0  0  0
  -10.5450    0.4030  -23.6970 H   0  0  0  0  0  0  0  0  0  0  0  0
  -10.3050   -2.9300  -21.9880 H   0  0  0  0  0  0  0  0  0  0  0  0
   -8.8770   -2.7960  -23.0300 H   0  0  0  0  0  0  0  0  0  0  0  0
  -10.8620   -3.4110  -24.3820 H   0  0  0  0  0  0  0  0  0  0  0  0
  -10.2000   -1.8510  -24.8490 H   0  0  0  0  0  0  0  0  0  0  0  0
  -12.2950   -1.0620  -24.7440 H   0  0  0  0  0  0  0  0  0  0  0  0
  -13.1540   -3.2770  -24.8100 H   0  0  0  0  0  0  0  0  0  0  0  0
  -13.4490   -3.2900  -21.7560 H   0  0  0  0  0  0  0  0  0  0  0  0
  -13.9990   -4.5190  -22.8990 H   0  0  0  0  0  0  0  0  0  0  0  0
  -12.2720   -4.2580  -22.6640 H   0  0  0  0  0  0  0  0  0  0  0  0
  1  2  1  0  0  0  0
  1 44  1  0  0  0  0
  1 45  1  0  0  0  0
  1 46  1  0  0  0  0
  2  3  1  0  0  0  0
  2  7  1  0  0  0  0
  2 43  1  0  0  0  0
  3  4  1  0  0  0  0
  3  5  1  0  0  0  0
  3  6  1  0  0  0  0
  7  8  1  0  0  0  0
  7 33  1  0  0  0  0
  7 42  1  0  0  0  0
  8  9  1  0  0  0  0
  8 40  1  0  0  0  0
  8 41  1  0  0  0  0
  9 10  1  0  0  0  0
  9 38  1  0  0  0  0
  9 39  1  0  0  0  0
 10 11  1  0  0  0  0
 10 32  1  0  0  0  0
 11 12  2  0  0  0  0
 11 13  1  0  0  0  0
 13 14  1  0  0  0  0
 13 30  1  0  0  0  0
 13 31  1  0  0  0  0
 14 15  2  0  0  0  0
 14 23  1  0  0  0  0
 15 16  1  0  0  0  0
 15 29  1  0  0  0  0
 16 17  2  0  0  0  0
 17 18  1  0  0  0  0
 17 28  1  0  0  0  0
 18 19  2  0  0  0  0
 18 23  1  0  0  0  0
 19 20  1  0  0  0  0
 19 27  1  0  0  0  0
 20 21  2  0  0  0  0
 20 26  1  0  0  0  0
 21 22  1  0  0  0  0
 21 25  1  0  0  0  0
 22 23  2  0  0  0  0
 22 24  1  0  0  0  0
 32 33  1  0  0  0  0
 32 36  1  0  0  0  0
 32 37  1  0  0  0  0
 33 34  1  0  0  0  0
 33 35  1  0  0  0  0
M  END
>  <MODEL>
       1

$$$$
