tmp_first_model_13_73.pdb
 OpenBabel08282500103D

 50 53  0  0  1  0  0  0  0  0999 V2000
   -5.6010   -3.0330  -21.5760 O   0  0  0  0  0  0  0  0  0  0  0  0
   -6.7570   -2.7540  -21.8600 C   0  0  0  0  0  0  0  0  0  0  0  0
   -7.4140   -1.4800  -21.2700 C   0  0  0  0  0  0  0  0  0  0  0  0
   -6.5810   -0.8310  -20.1850 C   0  0  0  0  0  0  0  0  0  0  0  0
   -6.8730   -1.0450  -18.8660 C   0  0  0  0  0  0  0  0  0  0  0  0
   -6.1830   -0.5390  -17.8080 N   0  0  0  0  0  0  0  0  0  0  0  0
   -5.1560    0.2240  -18.0700 C   0  0  0  0  0  0  0  0  0  0  0  0
   -4.7190    0.5320  -19.3840 C   0  0  0  0  0  0  0  0  0  0  0  0
   -3.5910    1.3580  -19.6240 C   0  0  0  0  0  0  0  0  0  0  0  0
   -3.1880    1.6330  -20.9000 C   0  0  0  0  0  0  0  0  0  0  0  0
   -3.9020    1.0880  -21.9930 C   0  0  0  0  0  0  0  0  0  0  0  0
   -4.9980    0.2880  -21.7860 C   0  0  0  0  0  0  0  0  0  0  0  0
   -5.4450   -0.0140  -20.4770 C   0  0  0  0  0  0  0  0  0  0  0  0
   -5.5230   -0.1340  -22.6380 H   0  0  0  0  0  0  0  0  0  0  0  0
   -3.5780    1.3060  -23.0050 H   0  0  0  0  0  0  0  0  0  0  0  0
   -2.3280    2.2710  -21.0860 H   0  0  0  0  0  0  0  0  0  0  0  0
   -3.0560    1.7720  -18.7700 H   0  0  0  0  0  0  0  0  0  0  0  0
   -4.6030    0.6270  -17.2160 H   0  0  0  0  0  0  0  0  0  0  0  0
   -7.7180   -1.6680  -18.5820 H   0  0  0  0  0  0  0  0  0  0  0  0
   -7.6150   -0.7500  -22.0660 H   0  0  0  0  0  0  0  0  0  0  0  0
   -8.3950   -1.7470  -20.8490 H   0  0  0  0  0  0  0  0  0  0  0  0
   -7.5200   -3.5830  -22.6620 N   0  0  0  0  0  0  0  0  0  0  0  0
   -8.6630   -3.1250  -23.4510 C   0  0  0  0  0  0  0  0  0  0  0  0
   -9.7340   -4.2010  -23.5640 C   0  0  0  0  0  0  0  0  0  0  0  0
   -9.1620   -5.5020  -24.1050 C   0  0  0  0  0  0  0  0  0  0  0  0
   -7.9850   -5.9350  -23.2420 C   0  0  0  0  0  0  0  0  0  0  0  0
   -6.9130   -4.8510  -23.1010 C   0  0  1  0  0  0  0  0  0  0  0  0
   -6.0430   -4.6960  -24.3700 C   0  0  0  0  0  0  0  0  0  0  0  0
   -5.2090   -5.9200  -24.6880 C   0  0  0  0  0  0  0  0  0  0  0  0
   -4.0470   -6.1890  -23.9580 C   0  0  0  0  0  0  0  0  0  0  0  0
   -3.2850   -7.3200  -24.2200 C   0  0  0  0  0  0  0  0  0  0  0  0
   -3.6700   -8.2120  -25.2180 C   0  0  0  0  0  0  0  0  0  0  0  0
   -4.8280   -7.9610  -25.9500 C   0  0  0  0  0  0  0  0  0  0  0  0
   -5.5850   -6.8250  -25.6830 C   0  0  0  0  0  0  0  0  0  0  0  0
   -6.4940   -6.6400  -26.2530 H   0  0  0  0  0  0  0  0  0  0  0  0
   -5.1420   -8.6460  -26.7320 H   0  0  0  0  0  0  0  0  0  0  0  0
   -3.0720   -9.0920  -25.4260 H   0  0  0  0  0  0  0  0  0  0  0  0
   -2.3830   -7.5090  -23.6440 H   0  0  0  0  0  0  0  0  0  0  0  0
   -3.7440   -5.4990  -23.1740 H   0  0  0  0  0  0  0  0  0  0  0  0
   -6.6850   -4.4570  -25.2240 H   0  0  0  0  0  0  0  0  0  0  0  0
   -5.3820   -3.8370  -24.2150 H   0  0  0  0  0  0  0  0  0  0  0  0
   -6.2400   -5.1510  -22.2980 H   0  0  0  0  0  0  0  0  0  0  0  0
   -8.3500   -6.1920  -22.2440 H   0  0  0  0  0  0  0  0  0  0  0  0
   -7.5380   -6.8520  -23.6370 H   0  0  0  0  0  0  0  0  0  0  0  0
   -9.9320   -6.2800  -24.1290 H   0  0  0  0  0  0  0  0  0  0  0  0
   -8.8390   -5.3750  -25.1450 H   0  0  0  0  0  0  0  0  0  0  0  0
  -10.1660   -4.3760  -22.5760 H   0  0  0  0  0  0  0  0  0  0  0  0
  -10.5500   -3.8480  -24.2000 H   0  0  0  0  0  0  0  0  0  0  0  0
   -9.0840   -2.2320  -22.9920 H   0  0  0  0  0  0  0  0  0  0  0  0
   -8.3550   -2.8300  -24.4650 H   0  0  0  0  0  0  0  0  0  0  0  0
  1  2  2  0  0  0  0
  2  3  1  0  0  0  0
  2 22  1  0  0  0  0
  3  4  1  0  0  0  0
  3 20  1  0  0  0  0
  3 21  1  0  0  0  0
  4  5  2  0  0  0  0
  4 13  1  0  0  0  0
  5  6  1  0  0  0  0
  5 19  1  0  0  0  0
  6  7  2  0  0  0  0
  7  8  1  0  0  0  0
  7 18  1  0  0  0  0
  8  9  2  0  0  0  0
  8 13  1  0  0  0  0
  9 10  1  0  0  0  0
  9 17  1  0  0  0  0
 10 11  2  0  0  0  0
 10 16  1  0  0  0  0
 11 12  1  0  0  0  0
 11 15  1  0  0  0  0
 12 13  2  0  0  0  0
 12 14  1  0  0  0  0
 22 23  1  0  0  0  0
 22 27  1  0  0  0  0
 23 24  1  0  0  0  0
 23 49  1  0  0  0  0
 23 50  1  0  0  0  0
 24 25  1  0  0  0  0
 24 47  1  0  0  0  0
 24 48  1  0  0  0  0
 25 26  1  0  0  0  0
 25 45  1  0  0  0  0
 25 46  1  0  0  0  0
 26 27  1  0  0  0  0
 26 43  1  0  0  0  0
 26 44  1  0  0  0  0
 27 28  1  0  0  0  0
 27 42  1  1  0  0  0
 28 29  1  0  0  0  0
 28 40  1  0  0  0  0
 28 41  1  0  0  0  0
 29 30  2  0  0  0  0
 29 34  1  0  0  0  0
 30 31  1  0  0  0  0
 30 39  1  0  0  0  0
 31 32  2  0  0  0  0
 31 38  1  0  0  0  0
 32 33  1  0  0  0  0
 32 37  1  0  0  0  0
 33 34  2  0  0  0  0
 33 36  1  0  0  0  0
 34 35  1  0  0  0  0
M  END
>  <MODEL>
       1

$$$$
