tmp_first_model_15_72.pdb
 OpenBabel08282501153D

 41 44  0  0  0  0  0  0  0  0999 V2000
   -8.4810    0.7090  -21.4500 O   0  0  0  0  0  0  0  0  0  0  0  0
   -8.3840   -0.4070  -21.9310 C   0  0  0  0  0  0  0  0  0  0  0  0
   -7.4340   -1.4350  -21.2710 C   0  0  0  0  0  0  0  0  0  0  0  0
   -6.5790   -0.8340  -20.1780 C   0  0  0  0  0  0  0  0  0  0  0  0
   -6.8770   -1.0380  -18.8570 C   0  0  0  0  0  0  0  0  0  0  0  0
   -6.1920   -0.5380  -17.7910 N   0  0  0  0  0  0  0  0  0  0  0  0
   -5.1570    0.2220  -18.0600 C   0  0  0  0  0  0  0  0  0  0  0  0
   -4.7230    0.5350  -19.3810 C   0  0  0  0  0  0  0  0  0  0  0  0
   -3.5950    1.3700  -19.6220 C   0  0  0  0  0  0  0  0  0  0  0  0
   -3.2100    1.6600  -20.9020 C   0  0  0  0  0  0  0  0  0  0  0  0
   -3.9330    1.1320  -21.9930 C   0  0  0  0  0  0  0  0  0  0  0  0
   -5.0240    0.3230  -21.7870 C   0  0  0  0  0  0  0  0  0  0  0  0
   -5.4530    0.0010  -20.4690 C   0  0  0  0  0  0  0  0  0  0  0  0
   -5.5740   -0.0650  -22.6380 H   0  0  0  0  0  0  0  0  0  0  0  0
   -3.6210    1.3740  -23.0060 H   0  0  0  0  0  0  0  0  0  0  0  0
   -2.3530    2.3020  -21.0890 H   0  0  0  0  0  0  0  0  0  0  0  0
   -3.0520    1.7800  -18.7730 H   0  0  0  0  0  0  0  0  0  0  0  0
   -4.5970    0.6300  -17.2160 H   0  0  0  0  0  0  0  0  0  0  0  0
   -7.7300   -1.6610  -18.5880 H   0  0  0  0  0  0  0  0  0  0  0  0
   -6.7920   -1.9010  -22.0290 H   0  0  0  0  0  0  0  0  0  0  0  0
   -8.0430   -2.2410  -20.8410 H   0  0  0  0  0  0  0  0  0  0  0  0
   -9.0490   -0.7700  -23.0930 N   0  0  0  0  0  0  0  0  0  0  0  0
   -9.3840   -2.1550  -23.4190 C   0  0  0  0  0  0  0  0  0  0  0  0
  -10.6300   -2.7100  -22.7270 C   0  0  0  0  0  0  0  0  0  0  0  0
  -11.9410   -2.0700  -23.2040 C   0  0  0  0  0  0  0  0  0  0  0  0
  -12.1020   -0.6260  -22.7820 C   0  0  0  0  0  0  0  0  0  0  0  0
  -13.5060   -0.0940  -21.9180 S   0  0  0  0  0  0  0  0  0  0  0  0
  -12.9120    1.5270  -21.8250 C   0  0  0  0  0  0  0  0  0  0  0  0
  -11.7140    1.6520  -22.4540 C   0  0  0  0  0  0  0  0  0  0  0  0
  -11.2430    0.4120  -22.9940 C   0  0  0  0  0  0  0  0  0  0  0  0
   -9.9210    0.2440  -23.6960 C   0  0  0  0  0  0  0  0  0  0  0  0
   -9.4000    1.2010  -23.7180 H   0  0  0  0  0  0  0  0  0  0  0  0
  -10.1120   -0.0230  -24.7420 H   0  0  0  0  0  0  0  0  0  0  0  0
  -11.1530    2.5790  -22.5340 H   0  0  0  0  0  0  0  0  0  0  0  0
  -13.4710    2.3060  -21.3260 H   0  0  0  0  0  0  0  0  0  0  0  0
  -12.7880   -2.6640  -22.8500 H   0  0  0  0  0  0  0  0  0  0  0  0
  -11.9820   -2.1080  -24.3020 H   0  0  0  0  0  0  0  0  0  0  0  0
  -10.6830   -3.7940  -22.8860 H   0  0  0  0  0  0  0  0  0  0  0  0
  -10.5340   -2.5590  -21.6480 H   0  0  0  0  0  0  0  0  0  0  0  0
   -8.5200   -2.7850  -23.2060 H   0  0  0  0  0  0  0  0  0  0  0  0
   -9.5320   -2.2190  -24.5020 H   0  0  0  0  0  0  0  0  0  0  0  0
  1  2  2  0  0  0  0
  2  3  1  0  0  0  0
  2 22  1  0  0  0  0
  3  4  1  0  0  0  0
  3 20  1  0  0  0  0
  3 21  1  0  0  0  0
  4  5  2  0  0  0  0
  4 13  1  0  0  0  0
  5  6  1  0  0  0  0
  5 19  1  0  0  0  0
  6  7  2  0  0  0  0
  7  8  1  0  0  0  0
  7 18  1  0  0  0  0
  8  9  2  0  0  0  0
  8 13  1  0  0  0  0
  9 10  1  0  0  0  0
  9 17  1  0  0  0  0
 10 11  2  0  0  0  0
 10 16  1  0  0  0  0
 11 12  1  0  0  0  0
 11 15  1  0  0  0  0
 12 13  2  0  0  0  0
 12 14  1  0  0  0  0
 22 23  1  0  0  0  0
 22 31  1  0  0  0  0
 23 24  1  0  0  0  0
 23 40  1  0  0  0  0
 23 41  1  0  0  0  0
 24 25  1  0  0  0  0
 24 38  1  0  0  0  0
 24 39  1  0  0  0  0
 25 26  1  0  0  0  0
 25 36  1  0  0  0  0
 25 37  1  0  0  0  0
 26 27  1  0  0  0  0
 26 30  2  0  0  0  0
 27 28  1  0  0  0  0
 28 29  2  0  0  0  0
 28 35  1  0  0  0  0
 29 30  1  0  0  0  0
 29 34  1  0  0  0  0
 30 31  1  0  0  0  0
 31 32  1  0  0  0  0
 31 33  1  0  0  0  0
M  END
>  <MODEL>
       1

$$$$
