tmp_first_model_6_39.pdb
 OpenBabel08272519583D

 40 44  0  0  1  0  0  0  0  0999 V2000
   -7.2400    0.9260  -25.5980 C   0  0  0  0  0  0  0  0  0  0  0  0
   -6.5120   -0.3960  -25.4080 C   0  0  0  0  0  0  0  0  0  0  0  0
   -5.3010   -0.5090  -25.5380 O   0  0  0  0  0  0  0  0  0  0  0  0
   -7.2730   -1.4750  -25.0910 N   0  0  0  0  0  0  0  0  0  0  0  0
   -6.6330   -2.7640  -24.7430 C   0  0  0  0  0  0  0  0  0  0  0  0
   -7.8050   -3.4850  -24.0500 C   0  0  2  0  0  0  0  0  0  0  0  0
   -9.0020   -2.9600  -24.8590 C   0  0  0  0  0  0  0  0  0  0  0  0
   -8.6590   -1.4850  -24.5590 C   0  0  1  0  0  0  0  0  0  0  0  0
   -8.5620   -1.5460  -23.0910 C   0  0  0  0  0  0  0  0  0  0  0  0
   -8.1680   -0.6100  -22.0790 C   0  0  0  0  0  0  0  0  0  0  0  0
   -8.3600    0.5780  -21.9710 O   0  5  0  0  0  0  0  0  0  0  0  0
   -7.4010   -1.3870  -21.1790 N   0  0  0  0  0  0  0  0  0  0  0  0
   -6.5830   -0.8220  -20.1670 C   0  0  0  0  0  0  0  0  0  0  0  0
   -6.8900   -1.0660  -18.8550 C   0  0  0  0  0  0  0  0  0  0  0  0
   -6.1980   -0.5600  -17.8080 N   0  0  0  0  0  0  0  0  0  0  0  0
   -5.1700    0.2080  -18.0770 C   0  0  0  0  0  0  0  0  0  0  0  0
   -4.7390    0.5420  -19.3930 C   0  0  0  0  0  0  0  0  0  0  0  0
   -3.6050    1.3720  -19.6190 C   0  0  0  0  0  0  0  0  0  0  0  0
   -3.2140    1.6770  -20.8930 C   0  0  0  0  0  0  0  0  0  0  0  0
   -3.9420    1.1680  -21.9900 C   0  0  0  0  0  0  0  0  0  0  0  0
   -5.0250    0.3450  -21.7990 C   0  0  0  0  0  0  0  0  0  0  0  0
   -5.4680    0.0240  -20.4830 C   0  0  0  0  0  0  0  0  0  0  0  0
   -5.4890   -0.1160  -22.6680 H   0  0  0  0  0  0  0  0  0  0  0  0
   -3.6030    1.3560  -23.0050 H   0  0  0  0  0  0  0  0  0  0  0  0
   -2.3280    2.2810  -21.0730 H   0  0  0  0  0  0  0  0  0  0  0  0
   -3.0690    1.7520  -18.7560 H   0  0  0  0  0  0  0  0  0  0  0  0
   -4.6290    0.6150  -17.2240 H   0  0  0  0  0  0  0  0  0  0  0  0
   -7.7430   -1.6920  -18.6040 H   0  0  0  0  0  0  0  0  0  0  0  0
   -7.2420   -2.7030  -21.6390 C   0  0  0  0  0  0  0  0  0  0  0  0
   -6.5160   -3.5480  -21.1780 O   0  0  0  0  0  0  0  0  0  0  0  0
   -8.0600   -2.7780  -22.7650 N   0  0  0  0  0  0  0  0  0  0  0  0
   -9.2740   -0.6870  -24.9800 H   0  0  0  0  0  0  0  0  0  0  0  0
   -9.9540   -3.2740  -24.4390 H   0  0  0  0  0  0  0  0  0  0  0  0
   -8.9320   -3.1950  -25.9240 H   0  0  0  0  0  0  0  0  0  0  0  0
   -7.6940   -4.5530  -23.9030 H   0  0  0  0  0  0  0  0  0  0  0  0
   -5.7890   -2.6150  -24.0610 H   0  0  0  0  0  0  0  0  0  0  0  0
   -6.2870   -3.2690  -25.6480 H   0  0  0  0  0  0  0  0  0  0  0  0
   -6.4880    1.6550  -25.9010 H   0  0  0  0  0  0  0  0  0  0  0  0
   -7.7250    1.2460  -24.6680 H   0  0  0  0  0  0  0  0  0  0  0  0
   -8.0220    0.8560  -26.3630 H   0  0  0  0  0  0  0  0  0  0  0  0
  1  2  1  0  0  0  0
  1 38  1  0  0  0  0
  1 39  1  0  0  0  0
  1 40  1  0  0  0  0
  2  3  2  0  0  0  0
  2  4  1  0  0  0  0
  4  5  1  0  0  0  0
  4  8  1  0  0  0  0
  5  6  1  0  0  0  0
  5 36  1  0  0  0  0
  5 37  1  0  0  0  0
  6  7  1  0  0  0  0
  6 31  1  0  0  0  0
  6 35  1  1  0  0  0
  7  8  1  0  0  0  0
  7 33  1  0  0  0  0
  7 34  1  0  0  0  0
  8  9  1  0  0  0  0
  8 32  1  6  0  0  0
  9 10  2  0  0  0  0
  9 31  1  0  0  0  0
 10 11  1  0  0  0  0
 10 12  1  0  0  0  0
 12 13  1  0  0  0  0
 12 29  1  0  0  0  0
 13 14  2  0  0  0  0
 13 22  1  0  0  0  0
 14 15  1  0  0  0  0
 14 28  1  0  0  0  0
 15 16  2  0  0  0  0
 16 17  1  0  0  0  0
 16 27  1  0  0  0  0
 17 18  2  0  0  0  0
 17 22  1  0  0  0  0
 18 19  1  0  0  0  0
 18 26  1  0  0  0  0
 19 20  2  0  0  0  0
 19 25  1  0  0  0  0
 20 21  1  0  0  0  0
 20 24  1  0  0  0  0
 21 22  2  0  0  0  0
 21 23  1  0  0  0  0
 29 30  2  0  0  0  0
 29 31  1  0  0  0  0
M  CHG  1  11  -1
M  END
>  <MODEL>
       1

$$$$
