tmp_first_model_16_79.pdb
 OpenBabel08282501503D

 45 49  0  0  0  0  0  0  0  0999 V2000
   -7.6850   -4.2090  -23.7350 C   0  0  0  0  0  0  0  0  0  0  0  0
   -7.8300   -3.0350  -22.9030 N   0  0  0  0  0  0  0  0  0  0  0  0
   -6.8040   -2.5750  -22.1230 C   0  0  0  0  0  0  0  0  0  0  0  0
   -5.6550   -2.9590  -22.0980 O   0  0  0  0  0  0  0  0  0  0  0  0
   -7.3330   -1.5330  -21.3460 N   0  0  0  0  0  0  0  0  0  0  0  0
   -6.6010   -0.9480  -20.2840 C   0  0  0  0  0  0  0  0  0  0  0  0
   -6.9570   -1.1960  -18.9830 C   0  0  0  0  0  0  0  0  0  0  0  0
   -6.2060   -0.8460  -17.9130 N   0  0  0  0  0  0  0  0  0  0  0  0
   -5.1270   -0.1420  -18.1520 C   0  0  0  0  0  0  0  0  0  0  0  0
   -4.7340    0.2990  -19.4450 C   0  0  0  0  0  0  0  0  0  0  0  0
   -3.6530    1.1930  -19.6180 C   0  0  0  0  0  0  0  0  0  0  0  0
   -3.2870    1.5860  -20.8740 C   0  0  0  0  0  0  0  0  0  0  0  0
   -3.9890    1.1200  -22.0080 C   0  0  0  0  0  0  0  0  0  0  0  0
   -5.0690    0.2870  -21.8650 C   0  0  0  0  0  0  0  0  0  0  0  0
   -5.4650   -0.1370  -20.5650 C   0  0  0  0  0  0  0  0  0  0  0  0
   -5.6320   -0.0370  -22.7370 H   0  0  0  0  0  0  0  0  0  0  0  0
   -3.6740    1.4360  -22.9970 H   0  0  0  0  0  0  0  0  0  0  0  0
   -2.4520    2.2660  -21.0050 H   0  0  0  0  0  0  0  0  0  0  0  0
   -3.1610    1.5640  -18.7240 H   0  0  0  0  0  0  0  0  0  0  0  0
   -4.5040    0.1260  -17.2990 H   0  0  0  0  0  0  0  0  0  0  0  0
   -7.8880   -1.7130  -18.7620 H   0  0  0  0  0  0  0  0  0  0  0  0
   -8.6900   -1.3440  -21.5690 C   0  0  0  0  0  0  0  0  0  0  0  0
   -9.3670   -0.4720  -21.0800 O   0  0  0  0  0  0  0  0  0  0  0  0
   -9.0950   -2.4330  -22.5490 C   0  0  0  0  0  0  0  0  0  0  0  0
  -10.0850   -1.9770  -23.6420 C   0  0  0  0  0  0  0  0  0  0  0  0
  -11.1040   -2.8960  -23.1000 N   0  0  0  0  0  0  0  0  0  0  0  0
  -11.9540   -4.0490  -23.9760 S   0  0  0  0  0  0  0  0  0  0  0  0
  -12.8840   -4.6400  -23.0340 O   0  0  0  0  0  0  0  0  0  0  0  0
  -11.0550   -4.9020  -24.7400 O   0  0  0  0  0  0  0  0  0  0  0  0
  -12.9600   -3.0780  -25.0720 C   0  0  0  0  0  0  0  0  0  0  0  0
  -14.2700   -2.6360  -24.4900 C   0  0  0  0  0  0  0  0  0  0  0  0
  -14.2470   -3.7610  -25.4620 C   0  0  0  0  0  0  0  0  0  0  0  0
  -14.4120   -4.7600  -25.0680 H   0  0  0  0  0  0  0  0  0  0  0  0
  -14.5880   -3.5850  -26.4760 H   0  0  0  0  0  0  0  0  0  0  0  0
  -14.4100   -2.9010  -23.4510 H   0  0  0  0  0  0  0  0  0  0  0  0
  -14.6690   -1.6880  -24.8150 H   0  0  0  0  0  0  0  0  0  0  0  0
  -12.4240   -2.4720  -25.7980 H   0  0  0  0  0  0  0  0  0  0  0  0
  -10.1980   -3.3910  -22.0450 C   0  0  0  0  0  0  0  0  0  0  0  0
  -10.5840   -3.1440  -21.0660 H   0  0  0  0  0  0  0  0  0  0  0  0
   -9.9350   -4.4510  -22.1100 H   0  0  0  0  0  0  0  0  0  0  0  0
   -9.7840   -2.1780  -24.6690 H   0  0  0  0  0  0  0  0  0  0  0  0
  -10.4070   -0.9390  -23.5060 H   0  0  0  0  0  0  0  0  0  0  0  0
   -8.1380   -5.0950  -23.2780 H   0  0  0  0  0  0  0  0  0  0  0  0
   -6.6170   -4.3870  -23.8460 H   0  0  0  0  0  0  0  0  0  0  0  0
   -8.1340   -4.0360  -24.7150 H   0  0  0  0  0  0  0  0  0  0  0  0
  1  2  1  0  0  0  0
  1 43  1  0  0  0  0
  1 44  1  0  0  0  0
  1 45  1  0  0  0  0
  2  3  1  0  0  0  0
  2 24  1  0  0  0  0
  3  4  2  0  0  0  0
  3  5  1  0  0  0  0
  5  6  1  0  0  0  0
  5 22  1  0  0  0  0
  6  7  2  0  0  0  0
  6 15  1  0  0  0  0
  7  8  1  0  0  0  0
  7 21  1  0  0  0  0
  8  9  2  0  0  0  0
  9 10  1  0  0  0  0
  9 20  1  0  0  0  0
 10 11  2  0  0  0  0
 10 15  1  0  0  0  0
 11 12  1  0  0  0  0
 11 19  1  0  0  0  0
 12 13  2  0  0  0  0
 12 18  1  0  0  0  0
 13 14  1  0  0  0  0
 13 17  1  0  0  0  0
 14 15  2  0  0  0  0
 14 16  1  0  0  0  0
 22 23  2  0  0  0  0
 22 24  1  0  0  0  0
 24 25  1  0  0  0  0
 24 38  1  0  0  0  0
 25 26  1  0  0  0  0
 25 41  1  0  0  0  0
 25 42  1  0  0  0  0
 26 27  1  0  0  0  0
 26 38  1  0  0  0  0
 27 28  2  0  0  0  0
 27 29  2  0  0  0  0
 27 30  1  0  0  0  0
 30 31  1  0  0  0  0
 30 32  1  0  0  0  0
 30 37  1  0  0  0  0
 31 32  1  0  0  0  0
 31 35  1  0  0  0  0
 31 36  1  0  0  0  0
 32 33  1  0  0  0  0
 32 34  1  0  0  0  0
 38 39  1  0  0  0  0
 38 40  1  0  0  0  0
M  END
>  <MODEL>
       1

$$$$
