tmp_first_model_7_79.pdb
 OpenBabel08272520323D

 45 49  0  0  0  0  0  0  0  0999 V2000
  -10.5560   -2.7530  -22.4770 C   0  0  0  0  0  0  0  0  0  0  0  0
   -9.1620   -2.4800  -22.1640 N   0  0  0  0  0  0  0  0  0  0  0  0
   -8.7600   -1.4120  -21.3980 C   0  0  0  0  0  0  0  0  0  0  0  0
   -9.4450   -0.4990  -21.0010 O   0  0  0  0  0  0  0  0  0  0  0  0
   -7.3620   -1.5470  -21.2140 N   0  0  0  0  0  0  0  0  0  0  0  0
   -6.5970   -0.8700  -20.2020 C   0  0  0  0  0  0  0  0  0  0  0  0
   -6.9070   -1.0630  -18.8780 C   0  0  0  0  0  0  0  0  0  0  0  0
   -6.2080   -0.5460  -17.8360 N   0  0  0  0  0  0  0  0  0  0  0  0
   -5.1740    0.2080  -18.0990 C   0  0  0  0  0  0  0  0  0  0  0  0
   -4.7430    0.5200  -19.4160 C   0  0  0  0  0  0  0  0  0  0  0  0
   -3.6110    1.3530  -19.6410 C   0  0  0  0  0  0  0  0  0  0  0  0
   -3.2220    1.6610  -20.9140 C   0  0  0  0  0  0  0  0  0  0  0  0
   -3.9570    1.1510  -22.0070 C   0  0  0  0  0  0  0  0  0  0  0  0
   -5.0500    0.3410  -21.8130 C   0  0  0  0  0  0  0  0  0  0  0  0
   -5.4750   -0.0170  -20.5040 C   0  0  0  0  0  0  0  0  0  0  0  0
   -5.5980   -0.0460  -22.6650 H   0  0  0  0  0  0  0  0  0  0  0  0
   -3.6530    1.4060  -23.0170 H   0  0  0  0  0  0  0  0  0  0  0  0
   -2.3690    2.3110  -21.0900 H   0  0  0  0  0  0  0  0  0  0  0  0
   -3.0810    1.7570  -18.7810 H   0  0  0  0  0  0  0  0  0  0  0  0
   -4.6240    0.6110  -17.2470 H   0  0  0  0  0  0  0  0  0  0  0  0
   -7.7530   -1.6830  -18.5960 H   0  0  0  0  0  0  0  0  0  0  0  0
   -6.8560   -2.5340  -22.0590 C   0  0  0  0  0  0  0  0  0  0  0  0
   -5.6910   -2.8110  -22.2160 O   0  0  0  0  0  0  0  0  0  0  0  0
   -8.0500   -3.1760  -22.7540 C   0  0  0  0  0  0  0  0  0  0  0  0
   -8.0320   -4.7160  -22.7400 C   0  0  0  0  0  0  0  0  0  0  0  0
   -7.8940   -4.7480  -24.2400 N   0  0  0  0  0  0  0  0  0  0  0  0
   -9.1550   -5.5860  -24.9930 S   0  0  0  0  0  0  0  0  0  0  0  0
  -10.3770   -4.9040  -24.5860 O   0  0  0  0  0  0  0  0  0  0  0  0
   -8.9690   -6.9910  -24.7060 O   0  0  0  0  0  0  0  0  0  0  0  0
   -8.9850   -5.3270  -26.7460 C   0  0  0  0  0  0  0  0  0  0  0  0
  -10.2160   -5.6100  -27.5790 C   0  0  0  0  0  0  0  0  0  0  0  0
   -9.7500   -4.1980  -27.3890 C   0  0  0  0  0  0  0  0  0  0  0  0
   -9.2770   -3.6980  -28.2300 H   0  0  0  0  0  0  0  0  0  0  0  0
  -10.3270   -3.5480  -26.7300 H   0  0  0  0  0  0  0  0  0  0  0  0
  -10.0660   -6.0830  -28.5480 H   0  0  0  0  0  0  0  0  0  0  0  0
  -11.1150   -5.9380  -27.0580 H   0  0  0  0  0  0  0  0  0  0  0  0
   -8.0030   -5.6090  -27.1180 H   0  0  0  0  0  0  0  0  0  0  0  0
   -7.9710   -3.2620  -24.3010 C   0  0  0  0  0  0  0  0  0  0  0  0
   -8.8380   -2.8570  -24.8370 H   0  0  0  0  0  0  0  0  0  0  0  0
   -7.0530   -2.8570  -24.7220 H   0  0  0  0  0  0  0  0  0  0  0  0
   -7.1500   -5.1350  -22.2600 H   0  0  0  0  0  0  0  0  0  0  0  0
   -8.9420   -5.1730  -22.3390 H   0  0  0  0  0  0  0  0  0  0  0  0
  -10.7580   -2.5930  -23.5440 H   0  0  0  0  0  0  0  0  0  0  0  0
  -10.8240   -3.7860  -22.2230 H   0  0  0  0  0  0  0  0  0  0  0  0
  -11.1500   -2.0600  -21.8800 H   0  0  0  0  0  0  0  0  0  0  0  0
  1  2  1  0  0  0  0
  1 43  1  0  0  0  0
  1 44  1  0  0  0  0
  1 45  1  0  0  0  0
  2  3  1  0  0  0  0
  2 24  1  0  0  0  0
  3  4  2  0  0  0  0
  3  5  1  0  0  0  0
  5  6  1  0  0  0  0
  5 22  1  0  0  0  0
  6  7  2  0  0  0  0
  6 15  1  0  0  0  0
  7  8  1  0  0  0  0
  7 21  1  0  0  0  0
  8  9  2  0  0  0  0
  9 10  1  0  0  0  0
  9 20  1  0  0  0  0
 10 11  2  0  0  0  0
 10 15  1  0  0  0  0
 11 12  1  0  0  0  0
 11 19  1  0  0  0  0
 12 13  2  0  0  0  0
 12 18  1  0  0  0  0
 13 14  1  0  0  0  0
 13 17  1  0  0  0  0
 14 15  2  0  0  0  0
 14 16  1  0  0  0  0
 22 23  2  0  0  0  0
 22 24  1  0  0  0  0
 24 25  1  0  0  0  0
 24 38  1  0  0  0  0
 25 26  1  0  0  0  0
 25 41  1  0  0  0  0
 25 42  1  0  0  0  0
 26 27  1  0  0  0  0
 26 38  1  0  0  0  0
 27 28  2  0  0  0  0
 27 29  2  0  0  0  0
 27 30  1  0  0  0  0
 30 31  1  0  0  0  0
 30 32  1  0  0  0  0
 30 37  1  0  0  0  0
 31 32  1  0  0  0  0
 31 35  1  0  0  0  0
 31 36  1  0  0  0  0
 32 33  1  0  0  0  0
 32 34  1  0  0  0  0
 38 39  1  0  0  0  0
 38 40  1  0  0  0  0
M  END
>  <MODEL>
       1

$$$$
