tmp_first_model_2_17.pdb
 OpenBabel08272517383D

 38 41  0  0  1  0  0  0  0  0999 V2000
   -9.1360   -5.0290  -25.6400 C   0  0  0  0  0  0  0  0  0  0  0  0
   -9.3010   -4.2280  -24.3440 C   0  0  2  0  0  0  0  0  0  0  0  0
  -10.3190   -3.0700  -24.3960 C   0  0  0  0  0  0  0  0  0  0  0  0
  -10.4170   -2.3680  -23.0240 C   0  0  0  0  0  0  0  0  0  0  0  0
   -9.0860   -2.0900  -22.4750 C   0  0  0  0  0  0  0  0  0  0  0  0
   -8.6950   -1.1420  -21.4680 C   0  0  0  0  0  0  0  0  0  0  0  0
   -9.3140   -0.2250  -20.9710 O   0  5  0  0  0  0  0  0  0  0  0  0
   -7.3370   -1.4610  -21.2000 N   0  0  0  0  0  0  0  0  0  0  0  0
   -6.5630   -0.8490  -20.1790 C   0  0  0  0  0  0  0  0  0  0  0  0
   -6.8950   -1.0560  -18.8630 C   0  0  0  0  0  0  0  0  0  0  0  0
   -6.2080   -0.5470  -17.8130 N   0  0  0  0  0  0  0  0  0  0  0  0
   -5.1690    0.2090  -18.0810 C   0  0  0  0  0  0  0  0  0  0  0  0
   -4.7330    0.5290  -19.3980 C   0  0  0  0  0  0  0  0  0  0  0  0
   -3.6070    1.3640  -19.6280 C   0  0  0  0  0  0  0  0  0  0  0  0
   -3.2240    1.6690  -20.9060 C   0  0  0  0  0  0  0  0  0  0  0  0
   -3.9540    1.1620  -22.0050 C   0  0  0  0  0  0  0  0  0  0  0  0
   -5.0470    0.3550  -21.8080 C   0  0  0  0  0  0  0  0  0  0  0  0
   -5.4530    0.0010  -20.4900 C   0  0  0  0  0  0  0  0  0  0  0  0
   -5.6030   -0.0230  -22.6600 H   0  0  0  0  0  0  0  0  0  0  0  0
   -3.6470    1.4150  -23.0150 H   0  0  0  0  0  0  0  0  0  0  0  0
   -2.3670    2.3130  -21.0830 H   0  0  0  0  0  0  0  0  0  0  0  0
   -3.0760    1.7580  -18.7670 H   0  0  0  0  0  0  0  0  0  0  0  0
   -4.6210    0.6110  -17.2310 H   0  0  0  0  0  0  0  0  0  0  0  0
   -7.7540   -1.6740  -18.6080 H   0  0  0  0  0  0  0  0  0  0  0  0
   -6.8770   -2.4320  -22.0970 C   0  0  0  0  0  0  0  0  0  0  0  0
   -5.7460   -2.8560  -22.2180 O   0  0  0  0  0  0  0  0  0  0  0  0
   -7.9870   -2.7890  -22.8420 N   0  0  0  0  0  0  0  0  0  0  0  0
   -7.9140   -3.6830  -23.9880 C   0  0  0  0  0  0  0  0  0  0  0  0
   -7.2270   -4.4910  -23.7160 H   0  0  0  0  0  0  0  0  0  0  0  0
   -7.4990   -3.1460  -24.8590 H   0  0  0  0  0  0  0  0  0  0  0  0
  -10.9560   -1.4180  -23.0860 H   0  0  0  0  0  0  0  0  0  0  0  0
  -11.0000   -2.9850  -22.3190 H   0  0  0  0  0  0  0  0  0  0  0  0
  -10.0060   -2.3330  -25.1520 H   0  0  0  0  0  0  0  0  0  0  0  0
  -11.3160   -3.4240  -24.6880 H   0  0  0  0  0  0  0  0  0  0  0  0
   -9.6260   -4.9140  -23.5470 H   0  0  0  0  0  0  0  0  0  0  0  0
   -9.9570   -5.7260  -25.8170 H   0  0  0  0  0  0  0  0  0  0  0  0
   -8.2100   -5.6170  -25.6160 H   0  0  0  0  0  0  0  0  0  0  0  0
   -9.0600   -4.3720  -26.5120 H   0  0  0  0  0  0  0  0  0  0  0  0
  1  2  1  0  0  0  0
  1 36  1  0  0  0  0
  1 37  1  0  0  0  0
  1 38  1  0  0  0  0
  2  3  1  0  0  0  0
  2 28  1  0  0  0  0
  2 35  1  1  0  0  0
  3  4  1  0  0  0  0
  3 33  1  0  0  0  0
  3 34  1  0  0  0  0
  4  5  1  0  0  0  0
  4 31  1  0  0  0  0
  4 32  1  0  0  0  0
  5  6  2  0  0  0  0
  5 27  1  0  0  0  0
  6  7  1  0  0  0  0
  6  8  1  0  0  0  0
  8  9  1  0  0  0  0
  8 25  1  0  0  0  0
  9 10  2  0  0  0  0
  9 18  1  0  0  0  0
 10 11  1  0  0  0  0
 10 24  1  0  0  0  0
 11 12  2  0  0  0  0
 12 13  1  0  0  0  0
 12 23  1  0  0  0  0
 13 14  2  0  0  0  0
 13 18  1  0  0  0  0
 14 15  1  0  0  0  0
 14 22  1  0  0  0  0
 15 16  2  0  0  0  0
 15 21  1  0  0  0  0
 16 17  1  0  0  0  0
 16 20  1  0  0  0  0
 17 18  2  0  0  0  0
 17 19  1  0  0  0  0
 25 26  2  0  0  0  0
 25 27  1  0  0  0  0
 27 28  1  0  0  0  0
 28 29  1  0  0  0  0
 28 30  1  0  0  0  0
M  CHG  1   7  -1
M  END
>  <MODEL>
       1

$$$$
