tmp_first_model_12_55.pdb
 OpenBabel08272523333D

 61 66  0  0  1  0  0  0  0  0999 V2000
   -7.0070   -5.4600  -25.0450 C   0  0  0  0  0  0  0  0  0  0  0  0
   -7.3280   -4.7930  -23.8500 O   0  0  0  0  0  0  0  0  0  0  0  0
   -7.9870   -3.5720  -24.0820 C   0  0  0  0  0  0  0  0  0  0  0  0
   -8.2890   -2.9150  -22.7370 C   0  0  1  0  0  0  0  0  0  0  0  0
   -7.0090   -2.5500  -21.9590 C   0  0  0  0  0  0  0  0  0  0  0  0
   -7.3890   -1.3670  -21.2090 N   0  0  0  0  0  0  0  0  0  0  0  0
   -6.6140   -0.7860  -20.1740 C   0  0  0  0  0  0  0  0  0  0  0  0
   -6.9170   -1.0460  -18.8620 C   0  0  0  0  0  0  0  0  0  0  0  0
   -6.2150   -0.5660  -17.8060 N   0  0  0  0  0  0  0  0  0  0  0  0
   -5.1950    0.2180  -18.0650 C   0  0  0  0  0  0  0  0  0  0  0  0
   -4.7830    0.5830  -19.3800 C   0  0  0  0  0  0  0  0  0  0  0  0
   -3.6520    1.4100  -19.6130 C   0  0  0  0  0  0  0  0  0  0  0  0
   -3.2920    1.7500  -20.8890 C   0  0  0  0  0  0  0  0  0  0  0  0
   -4.0470    1.2920  -21.9890 C   0  0  0  0  0  0  0  0  0  0  0  0
   -5.1180    0.4460  -21.7880 C   0  0  0  0  0  0  0  0  0  0  0  0
   -5.5100    0.0700  -20.4750 C   0  0  0  0  0  0  0  0  0  0  0  0
   -5.6880    0.0870  -22.6380 H   0  0  0  0  0  0  0  0  0  0  0  0
   -3.7650    1.6020  -22.9940 H   0  0  0  0  0  0  0  0  0  0  0  0
   -2.4220    2.3750  -21.0640 H   0  0  0  0  0  0  0  0  0  0  0  0
   -3.0800    1.7510  -18.7570 H   0  0  0  0  0  0  0  0  0  0  0  0
   -4.6190    0.5940  -17.2180 H   0  0  0  0  0  0  0  0  0  0  0  0
   -7.7700   -1.6780  -18.6230 H   0  0  0  0  0  0  0  0  0  0  0  0
   -8.5930   -0.8110  -21.5810 C   0  0  0  0  0  0  0  0  0  0  0  0
   -9.1000    0.1510  -21.0500 O   0  0  0  0  0  0  0  0  0  0  0  0
   -9.1350   -1.6110  -22.7890 C   0  0  1  0  0  0  0  0  0  0  0  0
   -8.8590   -0.8360  -24.0990 C   0  0  0  0  0  0  0  0  0  0  0  0
   -9.6720    0.3550  -24.2120 N   0  0  0  0  0  0  0  0  0  0  0  0
   -9.0450    1.5810  -24.6700 C   0  0  0  0  0  0  0  0  0  0  0  0
   -8.2490    2.2740  -23.6070 C   0  0  0  0  0  0  0  0  0  0  0  0
   -6.9130    2.3910  -23.4240 C   0  0  0  0  0  0  0  0  0  0  0  0
   -6.7100    3.1820  -22.3200 N   0  3  0  0  0  0  0  0  0  0  0  0
   -7.8910    3.5700  -21.8330 C   0  0  0  0  0  0  0  0  0  0  0  0
   -8.8460    3.0150  -22.5980 N   0  0  0  0  0  0  0  0  0  0  0  0
   -9.8170    2.9360  -22.3020 H   0  0  0  0  0  0  0  0  0  0  0  0
   -8.0370    4.2770  -21.0290 H   0  0  0  0  0  0  0  0  0  0  0  0
   -5.8100    3.2240  -21.8550 H   0  0  0  0  0  0  0  0  0  0  0  0
   -6.0690    1.9730  -23.9560 H   0  0  0  0  0  0  0  0  0  0  0  0
   -9.8530    2.2210  -25.0390 H   0  0  0  0  0  0  0  0  0  0  0  0
   -8.4010    1.3360  -25.5220 H   0  0  0  0  0  0  0  0  0  0  0  0
  -11.0230    0.3150  -24.0230 C   0  0  0  0  0  0  0  0  0  0  0  0
  -11.7740    1.2000  -24.4160 O   0  0  0  0  0  0  0  0  0  0  0  0
  -11.5190   -0.8710  -23.2600 C   0  0  0  0  0  0  0  0  0  0  0  0
  -12.8970   -0.9730  -23.0910 C   0  0  0  0  0  0  0  0  0  0  0  0
  -13.4230   -1.9340  -22.2570 C   0  0  0  0  0  0  0  0  0  0  0  0
  -12.5450   -2.7950  -21.6050 C   0  0  0  0  0  0  0  0  0  0  0  0
  -13.2020   -3.9140  -20.4520 Cl  0  0  0  0  0  0  0  0  0  0  0  0
  -11.1770   -2.7470  -21.8110 C   0  0  0  0  0  0  0  0  0  0  0  0
  -10.6360   -1.7800  -22.6620 C   0  0  0  0  0  0  0  0  0  0  0  0
  -10.5420   -3.4530  -21.2870 H   0  0  0  0  0  0  0  0  0  0  0  0
  -14.4890   -2.0150  -22.0780 H   0  0  0  0  0  0  0  0  0  0  0  0
  -13.5230   -0.2630  -23.6160 H   0  0  0  0  0  0  0  0  0  0  0  0
   -9.0680   -1.5020  -24.9450 H   0  0  0  0  0  0  0  0  0  0  0  0
   -7.8060   -0.5360  -24.1510 H   0  0  0  0  0  0  0  0  0  0  0  0
   -6.1710   -2.3440  -22.6400 H   0  0  0  0  0  0  0  0  0  0  0  0
   -6.6980   -3.3530  -21.2850 H   0  0  0  0  0  0  0  0  0  0  0  0
   -8.8370   -3.6550  -22.1530 H   0  0  0  0  0  0  0  0  0  0  0  0
   -8.9210   -3.7430  -24.6460 H   0  0  0  0  0  0  0  0  0  0  0  0
   -7.3490   -2.9100  -24.6940 H   0  0  0  0  0  0  0  0  0  0  0  0
   -6.5420   -6.4120  -24.7780 H   0  0  0  0  0  0  0  0  0  0  0  0
   -7.9000   -5.6680  -25.6570 H   0  0  0  0  0  0  0  0  0  0  0  0
   -6.2950   -4.8840  -25.6590 H   0  0  0  0  0  0  0  0  0  0  0  0
  1  2  1  0  0  0  0
  1 59  1  0  0  0  0
  1 60  1  0  0  0  0
  1 61  1  0  0  0  0
  2  3  1  0  0  0  0
  3  4  1  0  0  0  0
  3 57  1  0  0  0  0
  3 58  1  0  0  0  0
  4  5  1  0  0  0  0
  4 25  1  0  0  0  0
  4 56  1  1  0  0  0
  5  6  1  0  0  0  0
  5 54  1  0  0  0  0
  5 55  1  0  0  0  0
  6  7  1  0  0  0  0
  6 23  1  0  0  0  0
  7  8  2  0  0  0  0
  7 16  1  0  0  0  0
  8  9  1  0  0  0  0
  8 22  1  0  0  0  0
  9 10  2  0  0  0  0
 10 11  1  0  0  0  0
 10 21  1  0  0  0  0
 11 12  2  0  0  0  0
 11 16  1  0  0  0  0
 12 13  1  0  0  0  0
 12 20  1  0  0  0  0
 13 14  2  0  0  0  0
 13 19  1  0  0  0  0
 14 15  1  0  0  0  0
 14 18  1  0  0  0  0
 15 16  2  0  0  0  0
 15 17  1  0  0  0  0
 23 24  2  0  0  0  0
 25 23  1  1  0  0  0
 25 26  1  0  0  0  0
 25 48  1  0  0  0  0
 26 27  1  0  0  0  0
 26 52  1  0  0  0  0
 26 53  1  0  0  0  0
 27 28  1  0  0  0  0
 27 40  1  0  0  0  0
 28 29  1  0  0  0  0
 28 38  1  0  0  0  0
 28 39  1  0  0  0  0
 29 30  2  0  0  0  0
 29 33  1  0  0  0  0
 30 31  1  0  0  0  0
 30 37  1  0  0  0  0
 31 32  2  0  0  0  0
 31 36  1  0  0  0  0
 32 33  1  0  0  0  0
 32 35  1  0  0  0  0
 33 34  1  0  0  0  0
 40 41  2  0  0  0  0
 40 42  1  0  0  0  0
 42 43  2  0  0  0  0
 42 48  1  0  0  0  0
 43 44  1  0  0  0  0
 43 51  1  0  0  0  0
 44 45  2  0  0  0  0
 44 50  1  0  0  0  0
 45 46  1  0  0  0  0
 45 47  1  0  0  0  0
 47 48  2  0  0  0  0
 47 49  1  0  0  0  0
M  CHG  1  31   1
M  END
>  <MODEL>
       1

$$$$
