tmp_first_model_12_44.pdb
 OpenBabel08272523333D

 60 64  0  0  1  0  0  0  0  0999 V2000
   -7.4200    3.4230  -21.8580 C   0  0  0  0  0  0  0  0  0  0  0  0
   -8.2960    2.9540  -22.9140 N   0  0  0  0  0  0  0  0  0  0  0  0
   -7.7390    2.2140  -23.9130 C   0  0  0  0  0  0  0  0  0  0  0  0
   -6.5350    2.0580  -24.0240 O   0  0  0  0  0  0  0  0  0  0  0  0
   -8.7150    1.6000  -24.9110 C   0  0  0  0  0  0  0  0  0  0  0  0
   -9.4110    0.4640  -24.3550 N   0  0  0  0  0  0  0  0  0  0  0  0
   -8.6760   -0.7730  -24.1840 C   0  0  0  0  0  0  0  0  0  0  0  0
   -9.0580   -1.4920  -22.8760 C   0  0  2  0  0  0  0  0  0  0  0  0
   -8.5160   -0.7180  -21.6580 C   0  0  0  0  0  0  0  0  0  0  0  0
   -8.9590    0.2970  -21.1670 O   0  0  0  0  0  0  0  0  0  0  0  0
   -7.4000   -1.3690  -21.1930 N   0  0  0  0  0  0  0  0  0  0  0  0
   -6.6150   -0.7860  -20.1680 C   0  0  0  0  0  0  0  0  0  0  0  0
   -6.9200   -1.0450  -18.8570 C   0  0  0  0  0  0  0  0  0  0  0  0
   -6.2160   -0.5680  -17.8020 N   0  0  0  0  0  0  0  0  0  0  0  0
   -5.1940    0.2120  -18.0630 C   0  0  0  0  0  0  0  0  0  0  0  0
   -4.7810    0.5760  -19.3770 C   0  0  0  0  0  0  0  0  0  0  0  0
   -3.6470    1.3960  -19.6150 C   0  0  0  0  0  0  0  0  0  0  0  0
   -3.2840    1.7340  -20.8920 C   0  0  0  0  0  0  0  0  0  0  0  0
   -4.0600    1.3010  -21.9920 C   0  0  0  0  0  0  0  0  0  0  0  0
   -5.1410    0.4720  -21.7910 C   0  0  0  0  0  0  0  0  0  0  0  0
   -5.5190    0.0760  -20.4770 C   0  0  0  0  0  0  0  0  0  0  0  0
   -5.7060    0.1160  -22.6490 H   0  0  0  0  0  0  0  0  0  0  0  0
   -3.7860    1.5920  -23.0030 H   0  0  0  0  0  0  0  0  0  0  0  0
   -2.4020    2.3480  -21.0680 H   0  0  0  0  0  0  0  0  0  0  0  0
   -3.0700    1.7340  -18.7570 H   0  0  0  0  0  0  0  0  0  0  0  0
   -4.6170    0.5870  -17.2160 H   0  0  0  0  0  0  0  0  0  0  0  0
   -7.7790   -1.6720  -18.6180 H   0  0  0  0  0  0  0  0  0  0  0  0
   -7.0610   -2.5760  -21.9160 C   0  0  0  0  0  0  0  0  0  0  0  0
   -8.3270   -2.8600  -22.7480 C   0  0  2  0  0  0  0  0  0  0  0  0
   -8.0080   -3.6080  -24.0510 C   0  0  0  0  0  0  0  0  0  0  0  0
   -7.4510   -4.8820  -23.7940 O   0  0  0  0  0  0  0  0  0  0  0  0
   -8.3790   -5.9380  -23.8560 C   0  0  0  0  0  0  0  0  0  0  0  0
   -9.2450   -5.7770  -23.1910 H   0  0  0  0  0  0  0  0  0  0  0  0
   -7.8550   -6.8450  -23.5380 H   0  0  0  0  0  0  0  0  0  0  0  0
   -8.7530   -6.0970  -24.8820 H   0  0  0  0  0  0  0  0  0  0  0  0
   -7.2480   -3.0500  -24.6140 H   0  0  0  0  0  0  0  0  0  0  0  0
   -8.8980   -3.6990  -24.6970 H   0  0  0  0  0  0  0  0  0  0  0  0
   -8.9730   -3.5210  -22.1670 H   0  0  0  0  0  0  0  0  0  0  0  0
   -6.8210   -3.3900  -21.2260 H   0  0  0  0  0  0  0  0  0  0  0  0
   -6.1890   -2.4130  -22.5660 H   0  0  0  0  0  0  0  0  0  0  0  0
  -10.5690   -1.5510  -22.8080 C   0  0  0  0  0  0  0  0  0  0  0  0
  -11.1940   -2.4560  -21.9490 C   0  0  0  0  0  0  0  0  0  0  0  0
  -12.5720   -2.4700  -21.8430 C   0  0  0  0  0  0  0  0  0  0  0  0
  -13.2980   -3.5720  -20.7030 Cl  0  0  0  0  0  0  0  0  0  0  0  0
  -13.3770   -1.5990  -22.5800 C   0  0  0  0  0  0  0  0  0  0  0  0
  -12.7650   -0.6660  -23.3950 C   0  0  0  0  0  0  0  0  0  0  0  0
  -11.3750   -0.6250  -23.4840 C   0  0  0  0  0  0  0  0  0  0  0  0
  -10.7750    0.4970  -24.2670 C   0  0  0  0  0  0  0  0  0  0  0  0
  -11.4560    1.3890  -24.7560 O   0  0  0  0  0  0  0  0  0  0  0  0
  -13.3310    0.0620  -23.9680 H   0  0  0  0  0  0  0  0  0  0  0  0
  -14.4560   -1.6630  -22.4880 H   0  0  0  0  0  0  0  0  0  0  0  0
  -10.6130   -3.1470  -21.3460 H   0  0  0  0  0  0  0  0  0  0  0  0
   -7.6080   -0.5340  -24.1960 H   0  0  0  0  0  0  0  0  0  0  0  0
   -8.8990   -1.4450  -25.0210 H   0  0  0  0  0  0  0  0  0  0  0  0
   -8.1230    1.3050  -25.7820 H   0  0  0  0  0  0  0  0  0  0  0  0
   -9.4890    2.3180  -25.1900 H   0  0  0  0  0  0  0  0  0  0  0  0
   -9.2550    2.7640  -22.6600 H   0  0  0  0  0  0  0  0  0  0  0  0
   -6.6640    4.0800  -22.2820 H   0  0  0  0  0  0  0  0  0  0  0  0
   -6.8960    2.5840  -21.3880 H   0  0  0  0  0  0  0  0  0  0  0  0
   -7.9800    3.9730  -21.1000 H   0  0  0  0  0  0  0  0  0  0  0  0
  1  2  1  0  0  0  0
  1 58  1  0  0  0  0
  1 59  1  0  0  0  0
  1 60  1  0  0  0  0
  2  3  1  0  0  0  0
  2 57  1  0  0  0  0
  3  4  2  0  0  0  0
  3  5  1  0  0  0  0
  5  6  1  0  0  0  0
  5 55  1  0  0  0  0
  5 56  1  0  0  0  0
  6  7  1  0  0  0  0
  6 48  1  0  0  0  0
  7  8  1  0  0  0  0
  7 53  1  0  0  0  0
  7 54  1  0  0  0  0
  8  9  1  1  0  0  0
  8 29  1  0  0  0  0
  8 41  1  0  0  0  0
  9 10  2  0  0  0  0
  9 11  1  0  0  0  0
 11 12  1  0  0  0  0
 11 28  1  0  0  0  0
 12 13  2  0  0  0  0
 12 21  1  0  0  0  0
 13 14  1  0  0  0  0
 13 27  1  0  0  0  0
 14 15  2  0  0  0  0
 15 16  1  0  0  0  0
 15 26  1  0  0  0  0
 16 17  2  0  0  0  0
 16 21  1  0  0  0  0
 17 18  1  0  0  0  0
 17 25  1  0  0  0  0
 18 19  2  0  0  0  0
 18 24  1  0  0  0  0
 19 20  1  0  0  0  0
 19 23  1  0  0  0  0
 20 21  2  0  0  0  0
 20 22  1  0  0  0  0
 28 29  1  0  0  0  0
 28 39  1  0  0  0  0
 28 40  1  0  0  0  0
 29 30  1  0  0  0  0
 29 38  1  1  0  0  0
 30 31  1  0  0  0  0
 30 36  1  0  0  0  0
 30 37  1  0  0  0  0
 31 32  1  0  0  0  0
 32 33  1  0  0  0  0
 32 34  1  0  0  0  0
 32 35  1  0  0  0  0
 41 42  2  0  0  0  0
 41 47  1  0  0  0  0
 42 43  1  0  0  0  0
 42 52  1  0  0  0  0
 43 44  1  0  0  0  0
 43 45  2  0  0  0  0
 45 46  1  0  0  0  0
 45 51  1  0  0  0  0
 46 47  2  0  0  0  0
 46 50  1  0  0  0  0
 47 48  1  0  0  0  0
 48 49  2  0  0  0  0
M  END
>  <MODEL>
       1

$$$$
