tmp_first_model_2_49.pdb
 OpenBabel08272517383D

 67 72  0  0  1  0  0  0  0  0999 V2000
   -7.5410    3.2550  -21.7310 C   0  0  0  0  0  0  0  0  0  0  0  0
   -8.5170    2.8270  -22.7150 N   0  0  0  0  0  0  0  0  0  0  0  0
   -8.0140    2.1360  -23.7600 C   0  0  0  0  0  0  0  0  0  0  0  0
   -6.8080    2.0230  -23.9330 O   0  0  0  0  0  0  0  0  0  0  0  0
   -9.0060    1.5130  -24.7400 C   0  0  0  0  0  0  0  0  0  0  0  0
   -9.6240    0.2980  -24.2420 N   0  0  0  0  0  0  0  0  0  0  0  0
   -8.8200   -0.9070  -24.1470 C   0  0  0  0  0  0  0  0  0  0  0  0
   -9.0980   -1.6810  -22.8300 C   0  0  2  0  0  0  0  0  0  0  0  0
   -8.5670   -0.8630  -21.6200 C   0  0  0  0  0  0  0  0  0  0  0  0
   -9.0830    0.1110  -21.1130 O   0  0  0  0  0  0  0  0  0  0  0  0
   -7.3810   -1.4210  -21.2020 N   0  0  0  0  0  0  0  0  0  0  0  0
   -6.6010   -0.8220  -20.1750 C   0  0  0  0  0  0  0  0  0  0  0  0
   -6.9110   -1.0460  -18.8550 C   0  0  0  0  0  0  0  0  0  0  0  0
   -6.2110   -0.5470  -17.8090 N   0  0  0  0  0  0  0  0  0  0  0  0
   -5.1730    0.2090  -18.0770 C   0  0  0  0  0  0  0  0  0  0  0  0
   -4.7340    0.5280  -19.3950 C   0  0  0  0  0  0  0  0  0  0  0  0
   -3.6100    1.3670  -19.6380 C   0  0  0  0  0  0  0  0  0  0  0  0
   -3.2270    1.6650  -20.9180 C   0  0  0  0  0  0  0  0  0  0  0  0
   -3.9510    1.1400  -22.0100 C   0  0  0  0  0  0  0  0  0  0  0  0
   -5.0420    0.3260  -21.8010 C   0  0  0  0  0  0  0  0  0  0  0  0
   -5.4660   -0.0030  -20.4840 C   0  0  0  0  0  0  0  0  0  0  0  0
   -5.6050   -0.0430  -22.6520 H   0  0  0  0  0  0  0  0  0  0  0  0
   -3.6580    1.3880  -23.0250 H   0  0  0  0  0  0  0  0  0  0  0  0
   -2.3770    2.3170  -21.0990 H   0  0  0  0  0  0  0  0  0  0  0  0
   -3.0790    1.7750  -18.7810 H   0  0  0  0  0  0  0  0  0  0  0  0
   -4.6230    0.6130  -17.2270 H   0  0  0  0  0  0  0  0  0  0  0  0
   -7.7600   -1.6730  -18.5960 H   0  0  0  0  0  0  0  0  0  0  0  0
   -6.9830   -2.6060  -21.9390 C   0  0  0  0  0  0  0  0  0  0  0  0
   -8.2490   -2.9950  -22.7400 C   0  0  2  0  0  0  0  0  0  0  0  0
   -7.9250   -3.6980  -24.0770 C   0  0  0  0  0  0  0  0  0  0  0  0
   -7.2730   -4.9700  -23.8610 N   0  0  0  0  0  0  0  0  0  0  0  0
   -6.8490   -5.8100  -24.8730 C   0  0  0  0  0  0  0  0  0  0  0  0
   -6.2280   -7.0220  -24.7730 C   0  0  0  0  0  0  0  0  0  0  0  0
   -5.8980   -7.6450  -25.9630 N   0  0  0  0  0  0  0  0  0  0  0  0
   -6.2670   -6.9410  -26.9820 C   0  0  0  0  0  0  0  0  0  0  0  0
   -6.0930   -7.3600  -28.4100 C   0  0  0  0  0  0  0  0  0  0  0  0
   -5.9230   -6.4960  -29.0570 H   0  0  0  0  0  0  0  0  0  0  0  0
   -6.9880   -7.8860  -28.7660 H   0  0  0  0  0  0  0  0  0  0  0  0
   -5.2490   -8.0510  -28.4750 H   0  0  0  0  0  0  0  0  0  0  0  0
   -7.0450   -5.4170  -26.5680 S   0  0  0  0  0  0  0  0  0  0  0  0
   -5.9850   -7.5290  -23.8450 H   0  0  0  0  0  0  0  0  0  0  0  0
   -7.1280   -5.3110  -22.9260 H   0  0  0  0  0  0  0  0  0  0  0  0
   -8.8500   -3.8510  -24.6530 H   0  0  0  0  0  0  0  0  0  0  0  0
   -7.2660   -3.0570  -24.6830 H   0  0  0  0  0  0  0  0  0  0  0  0
   -8.8260   -3.7000  -22.1350 H   0  0  0  0  0  0  0  0  0  0  0  0
   -6.1360   -2.3860  -22.6070 H   0  0  0  0  0  0  0  0  0  0  0  0
   -6.6580   -3.3880  -21.2420 H   0  0  0  0  0  0  0  0  0  0  0  0
  -10.6070   -1.8350  -22.7040 C   0  0  0  0  0  0  0  0  0  0  0  0
  -11.1490   -2.7850  -21.8310 C   0  0  0  0  0  0  0  0  0  0  0  0
  -12.5200   -2.8800  -21.6790 C   0  0  0  0  0  0  0  0  0  0  0  0
  -13.2040   -4.0080  -20.5520 Cl  0  0  0  0  0  0  0  0  0  0  0  0
  -13.3940   -2.0550  -22.3840 C   0  0  0  0  0  0  0  0  0  0  0  0
  -12.8690   -1.0730  -23.1960 C   0  0  0  0  0  0  0  0  0  0  0  0
  -11.4880   -0.9390  -23.3280 C   0  0  0  0  0  0  0  0  0  0  0  0
  -10.9810    0.2530  -24.0810 C   0  0  0  0  0  0  0  0  0  0  0  0
  -11.7330    1.1280  -24.4870 O   0  0  0  0  0  0  0  0  0  0  0  0
  -13.5010   -0.3640  -23.7220 H   0  0  0  0  0  0  0  0  0  0  0  0
  -14.4620   -2.1770  -22.2550 H   0  0  0  0  0  0  0  0  0  0  0  0
  -10.5080   -3.4270  -21.2380 H   0  0  0  0  0  0  0  0  0  0  0  0
   -7.7750   -0.5920  -24.1800 H   0  0  0  0  0  0  0  0  0  0  0  0
   -9.0280   -1.5700  -25.0030 H   0  0  0  0  0  0  0  0  0  0  0  0
   -9.8330    2.1870  -24.9700 H   0  0  0  0  0  0  0  0  0  0  0  0
   -8.4210    1.3150  -25.6460 H   0  0  0  0  0  0  0  0  0  0  0  0
   -9.4930    2.7170  -22.4660 H   0  0  0  0  0  0  0  0  0  0  0  0
   -6.8770    4.0120  -22.1580 H   0  0  0  0  0  0  0  0  0  0  0  0
   -8.0570    3.6920  -20.8820 H   0  0  0  0  0  0  0  0  0  0  0  0
   -6.9220    2.3920  -21.4430 H   0  0  0  0  0  0  0  0  0  0  0  0
  1  2  1  0  0  0  0
  1 65  1  0  0  0  0
  1 66  1  0  0  0  0
  1 67  1  0  0  0  0
  2  3  1  0  0  0  0
  2 64  1  0  0  0  0
  3  4  2  0  0  0  0
  3  5  1  0  0  0  0
  5  6  1  0  0  0  0
  5 62  1  0  0  0  0
  5 63  1  0  0  0  0
  6  7  1  0  0  0  0
  6 55  1  0  0  0  0
  7  8  1  0  0  0  0
  7 60  1  0  0  0  0
  7 61  1  0  0  0  0
  8  9  1  1  0  0  0
  8 29  1  0  0  0  0
  8 48  1  0  0  0  0
  9 10  2  0  0  0  0
  9 11  1  0  0  0  0
 11 12  1  0  0  0  0
 11 28  1  0  0  0  0
 12 13  2  0  0  0  0
 12 21  1  0  0  0  0
 13 14  1  0  0  0  0
 13 27  1  0  0  0  0
 14 15  2  0  0  0  0
 15 16  1  0  0  0  0
 15 26  1  0  0  0  0
 16 17  2  0  0  0  0
 16 21  1  0  0  0  0
 17 18  1  0  0  0  0
 17 25  1  0  0  0  0
 18 19  2  0  0  0  0
 18 24  1  0  0  0  0
 19 20  1  0  0  0  0
 19 23  1  0  0  0  0
 20 21  2  0  0  0  0
 20 22  1  0  0  0  0
 28 29  1  0  0  0  0
 28 46  1  0  0  0  0
 28 47  1  0  0  0  0
 29 30  1  0  0  0  0
 29 45  1  1  0  0  0
 30 31  1  0  0  0  0
 30 43  1  0  0  0  0
 30 44  1  0  0  0  0
 31 32  1  0  0  0  0
 31 42  1  0  0  0  0
 32 33  2  0  0  0  0
 32 40  1  0  0  0  0
 33 34  1  0  0  0  0
 33 41  1  0  0  0  0
 34 35  2  0  0  0  0
 35 36  1  0  0  0  0
 35 40  1  0  0  0  0
 36 37  1  0  0  0  0
 36 38  1  0  0  0  0
 36 39  1  0  0  0  0
 48 49  2  0  0  0  0
 48 54  1  0  0  0  0
 49 50  1  0  0  0  0
 49 59  1  0  0  0  0
 50 51  1  0  0  0  0
 50 52  2  0  0  0  0
 52 53  1  0  0  0  0
 52 58  1  0  0  0  0
 53 54  2  0  0  0  0
 53 57  1  0  0  0  0
 54 55  1  0  0  0  0
 55 56  2  0  0  0  0
M  END
>  <MODEL>
       1

$$$$
