tmp_first_model_19_28.pdb
 OpenBabel08282503233D

 64 68  0  0  1  0  0  0  0  0999 V2000
   -7.5450    3.0850  -21.8700 C   0  0  0  0  0  0  0  0  0  0  0  0
   -8.6460    2.6090  -22.6980 N   0  0  0  0  0  0  0  0  0  0  0  0
   -8.3080    1.8760  -23.7980 C   0  0  0  0  0  0  0  0  0  0  0  0
   -7.1400    1.6790  -24.1120 O   0  0  0  0  0  0  0  0  0  0  0  0
   -9.4620    1.3040  -24.6210 C   0  0  0  0  0  0  0  0  0  0  0  0
   -9.9660    0.1010  -23.9920 N   0  0  0  0  0  0  0  0  0  0  0  0
   -9.1050   -1.0740  -23.9650 C   0  0  0  0  0  0  0  0  0  0  0  0
   -9.2480   -1.8270  -22.6210 C   0  0  2  0  0  0  0  0  0  0  0  0
   -8.6680   -0.9600  -21.4810 C   0  0  0  0  0  0  0  0  0  0  0  0
   -9.2070   -0.0170  -20.9360 O   0  0  0  0  0  0  0  0  0  0  0  0
   -7.3980   -1.4150  -21.1960 N   0  0  0  0  0  0  0  0  0  0  0  0
   -6.6090   -0.8330  -20.1770 C   0  0  0  0  0  0  0  0  0  0  0  0
   -6.9260   -1.0570  -18.8600 C   0  0  0  0  0  0  0  0  0  0  0  0
   -6.2230   -0.5670  -17.8120 N   0  0  0  0  0  0  0  0  0  0  0  0
   -5.1850    0.1880  -18.0850 C   0  0  0  0  0  0  0  0  0  0  0  0
   -4.7480    0.5030  -19.4040 C   0  0  0  0  0  0  0  0  0  0  0  0
   -3.6260    1.3400  -19.6460 C   0  0  0  0  0  0  0  0  0  0  0  0
   -3.2530    1.6470  -20.9240 C   0  0  0  0  0  0  0  0  0  0  0  0
   -3.9790    1.1410  -22.0230 C   0  0  0  0  0  0  0  0  0  0  0  0
   -5.0720    0.3290  -21.8180 C   0  0  0  0  0  0  0  0  0  0  0  0
   -5.4770   -0.0210  -20.4980 C   0  0  0  0  0  0  0  0  0  0  0  0
   -5.6500   -0.0040  -22.6760 H   0  0  0  0  0  0  0  0  0  0  0  0
   -3.6750    1.3940  -23.0340 H   0  0  0  0  0  0  0  0  0  0  0  0
   -2.3980    2.2920  -21.1000 H   0  0  0  0  0  0  0  0  0  0  0  0
   -3.0910    1.7390  -18.7880 H   0  0  0  0  0  0  0  0  0  0  0  0
   -4.6220    0.5940  -17.2430 H   0  0  0  0  0  0  0  0  0  0  0  0
   -7.7900   -1.6690  -18.6170 H   0  0  0  0  0  0  0  0  0  0  0  0
   -6.9900   -2.5700  -21.9670 C   0  0  0  0  0  0  0  0  0  0  0  0
   -8.3220   -3.0720  -22.5530 C   0  0  2  0  0  0  0  0  0  0  0  0
   -8.1680   -3.8660  -23.8470 C   0  0  0  0  0  0  0  0  0  0  0  0
   -7.2540   -5.3750  -23.5500 S   0  0  0  0  0  0  0  0  0  0  0  0
   -5.8680   -5.0250  -23.2500 O   0  0  0  0  0  0  0  0  0  0  0  0
   -7.9780   -6.2110  -22.6040 O   0  0  0  0  0  0  0  0  0  0  0  0
   -7.4050   -6.1410  -25.0300 N   0  0  0  0  0  0  0  0  0  0  0  0
   -6.6890   -5.6270  -26.1960 C   0  0  0  0  0  0  0  0  0  0  0  0
   -7.1720   -4.7160  -26.5660 H   0  0  0  0  0  0  0  0  0  0  0  0
   -6.7640   -6.3730  -26.9920 H   0  0  0  0  0  0  0  0  0  0  0  0
   -5.6310   -5.4250  -25.9960 H   0  0  0  0  0  0  0  0  0  0  0  0
   -7.3020   -7.1380  -24.8760 H   0  0  0  0  0  0  0  0  0  0  0  0
   -7.6210   -3.2970  -24.6040 H   0  0  0  0  0  0  0  0  0  0  0  0
   -9.1340   -4.1560  -24.2670 H   0  0  0  0  0  0  0  0  0  0  0  0
   -8.7360   -3.7600  -21.8170 H   0  0  0  0  0  0  0  0  0  0  0  0
   -6.5230   -3.3210  -21.3240 H   0  0  0  0  0  0  0  0  0  0  0  0
   -6.2750   -2.2980  -22.7580 H   0  0  0  0  0  0  0  0  0  0  0  0
  -10.7310   -2.0860  -22.4180 C   0  0  0  0  0  0  0  0  0  0  0  0
  -11.1890   -3.1690  -21.6670 C   0  0  0  0  0  0  0  0  0  0  0  0
  -12.5410   -3.3280  -21.4260 C   0  0  0  0  0  0  0  0  0  0  0  0
  -13.0530   -4.5680  -20.3220 Cl  0  0  0  0  0  0  0  0  0  0  0  0
  -13.4940   -2.4740  -21.9730 C   0  0  0  0  0  0  0  0  0  0  0  0
  -13.0530   -1.3850  -22.6930 C   0  0  0  0  0  0  0  0  0  0  0  0
  -11.6920   -1.1850  -22.9020 C   0  0  0  0  0  0  0  0  0  0  0  0
  -11.2880    0.0350  -23.6610 C   0  0  0  0  0  0  0  0  0  0  0  0
  -12.0860    0.9170  -23.9550 O   0  0  0  0  0  0  0  0  0  0  0  0
  -13.7420   -0.6460  -23.0850 H   0  0  0  0  0  0  0  0  0  0  0  0
  -14.5480   -2.6640  -21.8160 H   0  0  0  0  0  0  0  0  0  0  0  0
  -10.5120   -3.8920  -21.2300 H   0  0  0  0  0  0  0  0  0  0  0  0
   -8.0700   -0.7490  -24.1280 H   0  0  0  0  0  0  0  0  0  0  0  0
   -9.3810   -1.7540  -24.7820 H   0  0  0  0  0  0  0  0  0  0  0  0
  -10.2960    2.0120  -24.7090 H   0  0  0  0  0  0  0  0  0  0  0  0
   -9.0710    1.0740  -25.6200 H   0  0  0  0  0  0  0  0  0  0  0  0
   -9.5380    2.4540  -22.2290 H   0  0  0  0  0  0  0  0  0  0  0  0
   -6.7850    3.5150  -22.5310 H   0  0  0  0  0  0  0  0  0  0  0  0
   -7.9160    3.8660  -21.2000 H   0  0  0  0  0  0  0  0  0  0  0  0
   -7.0730    2.2640  -21.2940 H   0  0  0  0  0  0  0  0  0  0  0  0
  1  2  1  0  0  0  0
  1 62  1  0  0  0  0
  1 63  1  0  0  0  0
  1 64  1  0  0  0  0
  2  3  1  0  0  0  0
  2 61  1  0  0  0  0
  3  4  2  0  0  0  0
  3  5  1  0  0  0  0
  5  6  1  0  0  0  0
  5 59  1  0  0  0  0
  5 60  1  0  0  0  0
  6  7  1  0  0  0  0
  6 52  1  0  0  0  0
  7  8  1  0  0  0  0
  7 57  1  0  0  0  0
  7 58  1  0  0  0  0
  8  9  1  1  0  0  0
  8 29  1  0  0  0  0
  8 45  1  0  0  0  0
  9 10  2  0  0  0  0
  9 11  1  0  0  0  0
 11 12  1  0  0  0  0
 11 28  1  0  0  0  0
 12 13  2  0  0  0  0
 12 21  1  0  0  0  0
 13 14  1  0  0  0  0
 13 27  1  0  0  0  0
 14 15  2  0  0  0  0
 15 16  1  0  0  0  0
 15 26  1  0  0  0  0
 16 17  2  0  0  0  0
 16 21  1  0  0  0  0
 17 18  1  0  0  0  0
 17 25  1  0  0  0  0
 18 19  2  0  0  0  0
 18 24  1  0  0  0  0
 19 20  1  0  0  0  0
 19 23  1  0  0  0  0
 20 21  2  0  0  0  0
 20 22  1  0  0  0  0
 28 29  1  0  0  0  0
 28 43  1  0  0  0  0
 28 44  1  0  0  0  0
 29 30  1  0  0  0  0
 29 42  1  1  0  0  0
 30 31  1  0  0  0  0
 30 40  1  0  0  0  0
 30 41  1  0  0  0  0
 31 32  2  0  0  0  0
 31 33  2  0  0  0  0
 31 34  1  0  0  0  0
 34 35  1  0  0  0  0
 34 39  1  0  0  0  0
 35 36  1  0  0  0  0
 35 37  1  0  0  0  0
 35 38  1  0  0  0  0
 45 46  2  0  0  0  0
 45 51  1  0  0  0  0
 46 47  1  0  0  0  0
 46 56  1  0  0  0  0
 47 48  1  0  0  0  0
 47 49  2  0  0  0  0
 49 50  1  0  0  0  0
 49 55  1  0  0  0  0
 50 51  2  0  0  0  0
 50 54  1  0  0  0  0
 51 52  1  0  0  0  0
 52 53  2  0  0  0  0
M  END
>  <MODEL>
       1

$$$$
