tmp_first_model_14_0.pdb
 OpenBabel08282500413D

 66 71  0  0  1  0  0  0  0  0999 V2000
   -7.8270   -6.0300  -26.6720 C   0  0  0  0  0  0  0  0  0  0  0  0
   -8.0030   -4.6150  -26.9490 N   0  0  0  0  0  0  0  0  0  0  0  0
   -7.0770   -3.7070  -26.5680 C   0  0  0  0  0  0  0  0  0  0  0  0
   -6.0390   -4.0080  -25.9880 O   0  0  0  0  0  0  0  0  0  0  0  0
   -7.4420   -2.2420  -26.8180 C   0  0  0  0  0  0  0  0  0  0  0  0
   -8.3610   -1.7650  -25.7920 N   0  0  0  0  0  0  0  0  0  0  0  0
   -7.8370   -1.3130  -24.5090 C   0  0  0  0  0  0  0  0  0  0  0  0
   -8.7460   -1.5820  -23.2650 C   0  0  2  0  0  0  0  0  0  0  0  0
   -8.2430   -0.6080  -22.1820 C   0  0  0  0  0  0  0  0  0  0  0  0
   -8.4630    0.5800  -22.1020 O   0  0  0  0  0  0  0  0  0  0  0  0
   -7.3820   -1.3070  -21.3520 N   0  0  0  0  0  0  0  0  0  0  0  0
   -6.6280   -0.7070  -20.3130 C   0  0  0  0  0  0  0  0  0  0  0  0
   -6.9660   -0.9460  -19.0040 C   0  0  0  0  0  0  0  0  0  0  0  0
   -6.3110   -0.4420  -17.9320 N   0  0  0  0  0  0  0  0  0  0  0  0
   -5.2510    0.2920  -18.1640 C   0  0  0  0  0  0  0  0  0  0  0  0
   -4.7590    0.5870  -19.4660 C   0  0  0  0  0  0  0  0  0  0  0  0
   -3.5910    1.3730  -19.6600 C   0  0  0  0  0  0  0  0  0  0  0  0
   -3.1300    1.6300  -20.9220 C   0  0  0  0  0  0  0  0  0  0  0  0
   -3.8080    1.1060  -22.0450 C   0  0  0  0  0  0  0  0  0  0  0  0
   -4.9400    0.3450  -21.8830 C   0  0  0  0  0  0  0  0  0  0  0  0
   -5.4550    0.0730  -20.5850 C   0  0  0  0  0  0  0  0  0  0  0  0
   -5.4470   -0.0590  -22.7550 H   0  0  0  0  0  0  0  0  0  0  0  0
   -3.4320    1.3130  -23.0430 H   0  0  0  0  0  0  0  0  0  0  0  0
   -2.2470    2.2450  -21.0700 H   0  0  0  0  0  0  0  0  0  0  0  0
   -3.0840    1.7740  -18.7870 H   0  0  0  0  0  0  0  0  0  0  0  0
   -4.7180    0.6840  -17.2970 H   0  0  0  0  0  0  0  0  0  0  0  0
   -7.8330   -1.5670  -18.7820 H   0  0  0  0  0  0  0  0  0  0  0  0
   -7.3110   -2.7310  -21.6220 C   0  0  0  0  0  0  0  0  0  0  0  0
   -8.5190   -2.9490  -22.5430 C   0  0  2  0  0  0  0  0  0  0  0  0
   -8.4670   -4.1480  -23.4920 C   0  0  0  0  0  0  0  0  0  0  0  0
   -8.3770   -5.4450  -22.8410 N   0  0  0  0  0  0  0  0  0  0  0  0
   -7.1780   -5.9510  -22.4110 C   0  0  0  0  0  0  0  0  0  0  0  0
   -5.9630   -5.6660  -23.0630 C   0  0  0  0  0  0  0  0  0  0  0  0
   -4.8190   -6.1370  -22.4510 C   0  0  0  0  0  0  0  0  0  0  0  0
   -4.8370   -6.8430  -21.3120 N   0  0  0  0  0  0  0  0  0  0  0  0
   -6.0450   -7.1050  -20.8350 C   0  0  0  0  0  0  0  0  0  0  0  0
   -7.2210   -6.7490  -21.3340 N   0  0  0  0  0  0  0  0  0  0  0  0
   -6.0780   -7.6810  -19.9110 H   0  0  0  0  0  0  0  0  0  0  0  0
   -3.8300   -5.9320  -22.8700 H   0  0  0  0  0  0  0  0  0  0  0  0
   -5.9380   -5.1100  -24.0010 H   0  0  0  0  0  0  0  0  0  0  0  0
   -9.1420   -5.6590  -22.2160 H   0  0  0  0  0  0  0  0  0  0  0  0
   -9.3850   -4.1380  -24.0960 H   0  0  0  0  0  0  0  0  0  0  0  0
   -7.6200   -4.0370  -24.1660 H   0  0  0  0  0  0  0  0  0  0  0  0
   -9.3920   -3.0880  -21.8840 H   0  0  0  0  0  0  0  0  0  0  0  0
   -7.3810   -3.2790  -20.6810 H   0  0  0  0  0  0  0  0  0  0  0  0
   -6.3480   -2.9980  -22.0860 H   0  0  0  0  0  0  0  0  0  0  0  0
  -10.2020   -1.4130  -23.6350 C   0  0  0  0  0  0  0  0  0  0  0  0
  -11.1770   -1.3340  -22.6270 C   0  0  0  0  0  0  0  0  0  0  0  0
  -12.5240   -1.3360  -22.9660 C   0  0  0  0  0  0  0  0  0  0  0  0
  -13.7710   -1.3280  -21.7470 Cl  0  0  0  0  0  0  0  0  0  0  0  0
  -12.9340   -1.4340  -24.2950 C   0  0  0  0  0  0  0  0  0  0  0  0
  -11.9800   -1.5480  -25.2820 C   0  0  0  0  0  0  0  0  0  0  0  0
  -10.6270   -1.5630  -24.9590 C   0  0  0  0  0  0  0  0  0  0  0  0
   -9.6820   -1.9360  -26.0460 C   0  0  0  0  0  0  0  0  0  0  0  0
  -10.0820   -2.4350  -27.1020 O   0  0  0  0  0  0  0  0  0  0  0  0
  -12.2490   -1.6860  -26.3280 H   0  0  0  0  0  0  0  0  0  0  0  0
  -13.9960   -1.4860  -24.5230 H   0  0  0  0  0  0  0  0  0  0  0  0
  -10.8800   -1.3030  -21.5830 H   0  0  0  0  0  0  0  0  0  0  0  0
   -7.6760   -0.2300  -24.5560 H   0  0  0  0  0  0  0  0  0  0  0  0
   -6.8640   -1.8060  -24.3800 H   0  0  0  0  0  0  0  0  0  0  0  0
   -6.5280   -1.6470  -26.8280 H   0  0  0  0  0  0  0  0  0  0  0  0
   -7.9500   -2.1480  -27.7770 H   0  0  0  0  0  0  0  0  0  0  0  0
   -8.8930   -4.2750  -27.2880 H   0  0  0  0  0  0  0  0  0  0  0  0
   -7.5970   -6.1960  -25.6090 H   0  0  0  0  0  0  0  0  0  0  0  0
   -8.7490   -6.5620  -26.9180 H   0  0  0  0  0  0  0  0  0  0  0  0
   -7.0140   -6.4480  -27.2760 H   0  0  0  0  0  0  0  0  0  0  0  0
  1  2  1  0  0  0  0
  1 64  1  0  0  0  0
  1 65  1  0  0  0  0
  1 66  1  0  0  0  0
  2  3  1  0  0  0  0
  2 63  1  0  0  0  0
  3  4  2  0  0  0  0
  3  5  1  0  0  0  0
  5  6  1  0  0  0  0
  5 61  1  0  0  0  0
  5 62  1  0  0  0  0
  6  7  1  0  0  0  0
  6 54  1  0  0  0  0
  7  8  1  0  0  0  0
  7 59  1  0  0  0  0
  7 60  1  0  0  0  0
  8  9  1  1  0  0  0
  8 29  1  0  0  0  0
  8 47  1  0  0  0  0
  9 10  2  0  0  0  0
  9 11  1  0  0  0  0
 11 12  1  0  0  0  0
 11 28  1  0  0  0  0
 12 13  2  0  0  0  0
 12 21  1  0  0  0  0
 13 14  1  0  0  0  0
 13 27  1  0  0  0  0
 14 15  2  0  0  0  0
 15 16  1  0  0  0  0
 15 26  1  0  0  0  0
 16 17  2  0  0  0  0
 16 21  1  0  0  0  0
 17 18  1  0  0  0  0
 17 25  1  0  0  0  0
 18 19  2  0  0  0  0
 18 24  1  0  0  0  0
 19 20  1  0  0  0  0
 19 23  1  0  0  0  0
 20 21  2  0  0  0  0
 20 22  1  0  0  0  0
 28 29  1  0  0  0  0
 28 45  1  0  0  0  0
 28 46  1  0  0  0  0
 29 30  1  0  0  0  0
 29 44  1  1  0  0  0
 30 31  1  0  0  0  0
 30 42  1  0  0  0  0
 30 43  1  0  0  0  0
 31 32  1  0  0  0  0
 31 41  1  0  0  0  0
 32 33  2  0  0  0  0
 32 37  1  0  0  0  0
 33 34  1  0  0  0  0
 33 40  1  0  0  0  0
 34 35  2  0  0  0  0
 34 39  1  0  0  0  0
 35 36  1  0  0  0  0
 36 37  2  0  0  0  0
 36 38  1  0  0  0  0
 47 48  2  0  0  0  0
 47 53  1  0  0  0  0
 48 49  1  0  0  0  0
 48 58  1  0  0  0  0
 49 50  1  0  0  0  0
 49 51  2  0  0  0  0
 51 52  1  0  0  0  0
 51 57  1  0  0  0  0
 52 53  2  0  0  0  0
 52 56  1  0  0  0  0
 53 54  1  0  0  0  0
 54 55  2  0  0  0  0
M  END
>  <MODEL>
       1

$$$$
