tmp_first_model_14_21.pdb
 OpenBabel08282500413D

 63 68  0  0  1  0  0  0  0  0999 V2000
   -8.3230   -4.1220  -23.4710 C   0  0  0  0  0  0  0  0  0  0  0  0
   -8.5220   -2.9500  -22.5270 C   0  0  1  0  0  0  0  0  0  0  0  0
   -7.3680   -2.7420  -21.5430 C   0  0  0  0  0  0  0  0  0  0  0  0
   -7.4000   -1.3230  -21.2780 N   0  0  0  0  0  0  0  0  0  0  0  0
   -6.6150   -0.7530  -20.2520 C   0  0  0  0  0  0  0  0  0  0  0  0
   -6.9260   -1.0100  -18.9420 C   0  0  0  0  0  0  0  0  0  0  0  0
   -6.2590   -0.5000  -17.8820 N   0  0  0  0  0  0  0  0  0  0  0  0
   -5.2120    0.2460  -18.1310 C   0  0  0  0  0  0  0  0  0  0  0  0
   -4.7500    0.5460  -19.4410 C   0  0  0  0  0  0  0  0  0  0  0  0
   -3.6020    1.3520  -19.6510 C   0  0  0  0  0  0  0  0  0  0  0  0
   -3.1710    1.6210  -20.9190 C   0  0  0  0  0  0  0  0  0  0  0  0
   -3.8530    1.0840  -22.0330 C   0  0  0  0  0  0  0  0  0  0  0  0
   -4.9630    0.2990  -21.8560 C   0  0  0  0  0  0  0  0  0  0  0  0
   -5.4550    0.0270  -20.5480 C   0  0  0  0  0  0  0  0  0  0  0  0
   -5.4760   -0.1080  -22.7200 H   0  0  0  0  0  0  0  0  0  0  0  0
   -3.4960    1.3000  -23.0350 H   0  0  0  0  0  0  0  0  0  0  0  0
   -2.3030    2.2540  -21.0780 H   0  0  0  0  0  0  0  0  0  0  0  0
   -3.0890    1.7530  -18.7820 H   0  0  0  0  0  0  0  0  0  0  0  0
   -4.6650    0.6430  -17.2750 H   0  0  0  0  0  0  0  0  0  0  0  0
   -7.7780   -1.6450  -18.7050 H   0  0  0  0  0  0  0  0  0  0  0  0
   -8.1580   -0.5860  -22.1590 C   0  0  0  0  0  0  0  0  0  0  0  0
   -8.2900    0.6210  -22.1050 O   0  0  0  0  0  0  0  0  0  0  0  0
   -8.7540   -1.5480  -23.2060 C   0  0  1  0  0  0  0  0  0  0  0  0
   -7.9680   -1.2990  -24.5210 C   0  0  0  0  0  0  0  0  0  0  0  0
   -8.6030   -1.8660  -25.7070 N   0  0  0  0  0  0  0  0  0  0  0  0
   -7.8000   -2.2300  -26.8620 C   0  0  0  0  0  0  0  0  0  0  0  0
   -7.7840   -3.7490  -27.0280 C   0  0  0  0  0  0  0  0  0  0  0  0
   -6.9730   -4.4580  -26.4510 O   0  0  0  0  0  0  0  0  0  0  0  0
   -8.7380   -4.2280  -27.8780 N   0  0  0  0  0  0  0  0  0  0  0  0
   -8.9180   -5.6610  -28.0150 C   0  0  0  0  0  0  0  0  0  0  0  0
   -9.5380   -6.2800  -26.7740 C   0  0  0  0  0  0  0  0  0  0  0  0
   -9.5880   -7.7730  -26.6310 C   0  0  0  0  0  0  0  0  0  0  0  0
   -8.6660   -6.9740  -25.7630 C   0  0  0  0  0  0  0  0  0  0  0  0
   -8.9130   -6.8470  -24.7110 H   0  0  0  0  0  0  0  0  0  0  0  0
   -7.6050   -7.0240  -26.0060 H   0  0  0  0  0  0  0  0  0  0  0  0
   -9.1350   -8.3780  -27.4150 H   0  0  0  0  0  0  0  0  0  0  0  0
  -10.4730   -8.2040  -26.1750 H   0  0  0  0  0  0  0  0  0  0  0  0
  -10.3960   -5.7310  -26.3700 H   0  0  0  0  0  0  0  0  0  0  0  0
   -9.5470   -5.8440  -28.8980 H   0  0  0  0  0  0  0  0  0  0  0  0
   -7.9380   -6.1120  -28.2190 H   0  0  0  0  0  0  0  0  0  0  0  0
   -9.5630   -3.6470  -27.9920 H   0  0  0  0  0  0  0  0  0  0  0  0
   -6.7910   -1.8450  -26.7210 H   0  0  0  0  0  0  0  0  0  0  0  0
   -8.2410   -1.7610  -27.7440 H   0  0  0  0  0  0  0  0  0  0  0  0
   -9.9430   -1.8290  -25.9100 C   0  0  0  0  0  0  0  0  0  0  0  0
  -10.4470   -2.1010  -27.0070 O   0  0  0  0  0  0  0  0  0  0  0  0
  -10.7800   -1.4900  -24.7380 C   0  0  0  0  0  0  0  0  0  0  0  0
  -12.1490   -1.4090  -24.9530 C   0  0  0  0  0  0  0  0  0  0  0  0
  -13.0130   -1.1220  -23.9220 C   0  0  0  0  0  0  0  0  0  0  0  0
  -12.4610   -0.9940  -22.6560 C   0  0  0  0  0  0  0  0  0  0  0  0
  -13.3120   -0.8160  -21.6420 F   0  0  0  0  0  0  0  0  0  0  0  0
  -11.1020   -1.0700  -22.4090 C   0  0  0  0  0  0  0  0  0  0  0  0
  -10.2270   -1.3140  -23.4690 C   0  0  0  0  0  0  0  0  0  0  0  0
  -10.7090   -0.9390  -21.4100 H   0  0  0  0  0  0  0  0  0  0  0  0
  -14.0800   -0.9980  -24.0710 H   0  0  0  0  0  0  0  0  0  0  0  0
  -12.4890   -1.6080  -25.9580 H   0  0  0  0  0  0  0  0  0  0  0  0
   -7.8480   -0.2120  -24.6480 H   0  0  0  0  0  0  0  0  0  0  0  0
   -6.9670   -1.7390  -24.4380 H   0  0  0  0  0  0  0  0  0  0  0  0
   -7.5130   -3.2680  -20.6020 H   0  0  0  0  0  0  0  0  0  0  0  0
   -6.3960   -3.0630  -21.9510 H   0  0  0  0  0  0  0  0  0  0  0  0
   -9.4250   -3.1340  -21.9280 H   0  0  0  0  0  0  0  0  0  0  0  0
   -9.1550   -4.1820  -24.1800 H   0  0  0  0  0  0  0  0  0  0  0  0
   -8.2800   -5.0620  -22.9100 H   0  0  0  0  0  0  0  0  0  0  0  0
   -7.4010   -4.0170  -24.0490 H   0  0  0  0  0  0  0  0  0  0  0  0
  1  2  1  0  0  0  0
  1 61  1  0  0  0  0
  1 62  1  0  0  0  0
  1 63  1  0  0  0  0
  2  3  1  0  0  0  0
  2 23  1  0  0  0  0
  2 60  1  1  0  0  0
  3  4  1  0  0  0  0
  3 58  1  0  0  0  0
  3 59  1  0  0  0  0
  4  5  1  0  0  0  0
  4 21  1  0  0  0  0
  5  6  2  0  0  0  0
  5 14  1  0  0  0  0
  6  7  1  0  0  0  0
  6 20  1  0  0  0  0
  7  8  2  0  0  0  0
  8  9  1  0  0  0  0
  8 19  1  0  0  0  0
  9 10  2  0  0  0  0
  9 14  1  0  0  0  0
 10 11  1  0  0  0  0
 10 18  1  0  0  0  0
 11 12  2  0  0  0  0
 11 17  1  0  0  0  0
 12 13  1  0  0  0  0
 12 16  1  0  0  0  0
 13 14  2  0  0  0  0
 13 15  1  0  0  0  0
 21 22  2  0  0  0  0
 23 21  1  1  0  0  0
 23 24  1  0  0  0  0
 23 52  1  0  0  0  0
 24 25  1  0  0  0  0
 24 56  1  0  0  0  0
 24 57  1  0  0  0  0
 25 26  1  0  0  0  0
 25 44  1  0  0  0  0
 26 27  1  0  0  0  0
 26 42  1  0  0  0  0
 26 43  1  0  0  0  0
 27 28  2  0  0  0  0
 27 29  1  0  0  0  0
 29 30  1  0  0  0  0
 29 41  1  0  0  0  0
 30 31  1  0  0  0  0
 30 39  1  0  0  0  0
 30 40  1  0  0  0  0
 31 32  1  0  0  0  0
 31 33  1  0  0  0  0
 31 38  1  0  0  0  0
 32 33  1  0  0  0  0
 32 36  1  0  0  0  0
 32 37  1  0  0  0  0
 33 34  1  0  0  0  0
 33 35  1  0  0  0  0
 44 45  2  0  0  0  0
 44 46  1  0  0  0  0
 46 47  2  0  0  0  0
 46 52  1  0  0  0  0
 47 48  1  0  0  0  0
 47 55  1  0  0  0  0
 48 49  2  0  0  0  0
 48 54  1  0  0  0  0
 49 50  1  0  0  0  0
 49 51  1  0  0  0  0
 51 52  2  0  0  0  0
 51 53  1  0  0  0  0
M  END
>  <MODEL>
       1

$$$$
