tmp_first_model_14_46.pdb
 OpenBabel08282500413D

 50 54  0  0  1  0  0  0  0  0999 V2000
  -10.4490   -1.0600  -23.3640 C   0  0  0  0  0  0  0  0  0  0  0  0
   -9.0060   -1.4050  -22.9940 C   0  0  1  0  0  0  0  0  0  0  0  0
   -8.4230   -0.4740  -21.9160 C   0  0  0  0  0  0  0  0  0  0  0  0
   -7.4140   -1.2970  -21.2740 N   0  0  0  0  0  0  0  0  0  0  0  0
   -6.6010   -0.8010  -20.2280 C   0  0  0  0  0  0  0  0  0  0  0  0
   -6.9260   -1.0320  -18.9160 C   0  0  0  0  0  0  0  0  0  0  0  0
   -6.2570   -0.4920  -17.8700 N   0  0  0  0  0  0  0  0  0  0  0  0
   -5.2210    0.2650  -18.1270 C   0  0  0  0  0  0  0  0  0  0  0  0
   -4.7560    0.5570  -19.4390 C   0  0  0  0  0  0  0  0  0  0  0  0
   -3.6140    1.3680  -19.6680 C   0  0  0  0  0  0  0  0  0  0  0  0
   -3.2060    1.6270  -20.9470 C   0  0  0  0  0  0  0  0  0  0  0  0
   -3.9130    1.0860  -22.0470 C   0  0  0  0  0  0  0  0  0  0  0  0
   -5.0170    0.2930  -21.8490 C   0  0  0  0  0  0  0  0  0  0  0  0
   -5.4670    0.0160  -20.5310 C   0  0  0  0  0  0  0  0  0  0  0  0
   -5.5510   -0.1360  -22.6900 H   0  0  0  0  0  0  0  0  0  0  0  0
   -3.5740    1.2940  -23.0560 H   0  0  0  0  0  0  0  0  0  0  0  0
   -2.3310    2.2470  -21.1270 H   0  0  0  0  0  0  0  0  0  0  0  0
   -3.0800    1.7700  -18.8110 H   0  0  0  0  0  0  0  0  0  0  0  0
   -4.6920    0.6920  -17.2750 H   0  0  0  0  0  0  0  0  0  0  0  0
   -7.7710   -1.6640  -18.6530 H   0  0  0  0  0  0  0  0  0  0  0  0
   -7.5580   -2.6450  -21.5150 C   0  0  0  0  0  0  0  0  0  0  0  0
   -6.8020   -3.4970  -21.0950 O   0  0  0  0  0  0  0  0  0  0  0  0
   -8.7880   -2.8560  -22.4200 C   0  0  1  0  0  0  0  0  0  0  0  0
   -9.9850   -3.2930  -21.5400 C   0  0  0  0  0  0  0  0  0  0  0  0
  -11.1430   -3.6830  -22.3470 N   0  0  0  0  0  0  0  0  0  0  0  0
  -12.5050   -3.5000  -21.8700 C   0  0  0  0  0  0  0  0  0  0  0  0
  -13.3490   -2.6540  -22.7300 C   0  0  0  0  0  0  0  0  0  0  0  0
  -14.0590   -1.9880  -23.3560 N   0  0  0  0  0  0  0  0  0  0  0  0
  -12.5170   -3.0530  -20.8730 H   0  0  0  0  0  0  0  0  0  0  0  0
  -12.9930   -4.4740  -21.8070 H   0  0  0  0  0  0  0  0  0  0  0  0
  -10.9960   -4.5340  -23.4170 C   0  0  0  0  0  0  0  0  0  0  0  0
  -11.9490   -5.0730  -23.9620 O   0  0  0  0  0  0  0  0  0  0  0  0
   -9.5960   -4.7400  -23.9060 C   0  0  0  0  0  0  0  0  0  0  0  0
   -9.3650   -5.7530  -24.8370 C   0  0  0  0  0  0  0  0  0  0  0  0
   -8.1030   -5.9470  -25.3680 C   0  0  0  0  0  0  0  0  0  0  0  0
   -7.0800   -5.0960  -24.9660 C   0  0  0  0  0  0  0  0  0  0  0  0
   -5.8510   -5.2750  -25.4750 F   0  0  0  0  0  0  0  0  0  0  0  0
   -7.2710   -4.1070  -24.0220 C   0  0  0  0  0  0  0  0  0  0  0  0
   -8.5430   -3.9300  -23.4610 C   0  0  0  0  0  0  0  0  0  0  0  0
   -6.4160   -3.5390  -23.6750 H   0  0  0  0  0  0  0  0  0  0  0  0
   -7.9030   -6.7470  -26.0700 H   0  0  0  0  0  0  0  0  0  0  0  0
  -10.2080   -6.3680  -25.1430 H   0  0  0  0  0  0  0  0  0  0  0  0
   -9.6770   -4.1370  -20.9150 H   0  0  0  0  0  0  0  0  0  0  0  0
  -10.2280   -2.4510  -20.8800 H   0  0  0  0  0  0  0  0  0  0  0  0
   -9.2020   -0.1440  -21.2070 H   0  0  0  0  0  0  0  0  0  0  0  0
   -7.9870    0.4400  -22.3340 H   0  0  0  0  0  0  0  0  0  0  0  0
   -8.3850   -1.3460  -23.8970 H   0  0  0  0  0  0  0  0  0  0  0  0
  -10.5460   -0.0790  -23.8410 H   0  0  0  0  0  0  0  0  0  0  0  0
  -11.0810   -1.0520  -22.4680 H   0  0  0  0  0  0  0  0  0  0  0  0
  -10.8590   -1.8150  -24.0430 H   0  0  0  0  0  0  0  0  0  0  0  0
  1  2  1  0  0  0  0
  1 48  1  0  0  0  0
  1 49  1  0  0  0  0
  1 50  1  0  0  0  0
  2  3  1  0  0  0  0
  2 23  1  0  0  0  0
  2 47  1  6  0  0  0
  3  4  1  0  0  0  0
  3 45  1  0  0  0  0
  3 46  1  0  0  0  0
  4  5  1  0  0  0  0
  4 21  1  0  0  0  0
  5  6  2  0  0  0  0
  5 14  1  0  0  0  0
  6  7  1  0  0  0  0
  6 20  1  0  0  0  0
  7  8  2  0  0  0  0
  8  9  1  0  0  0  0
  8 19  1  0  0  0  0
  9 10  2  0  0  0  0
  9 14  1  0  0  0  0
 10 11  1  0  0  0  0
 10 18  1  0  0  0  0
 11 12  2  0  0  0  0
 11 17  1  0  0  0  0
 12 13  1  0  0  0  0
 12 16  1  0  0  0  0
 13 14  2  0  0  0  0
 13 15  1  0  0  0  0
 21 22  2  0  0  0  0
 23 21  1  1  0  0  0
 23 24  1  0  0  0  0
 23 39  1  0  0  0  0
 24 25  1  0  0  0  0
 24 43  1  0  0  0  0
 24 44  1  0  0  0  0
 25 26  1  0  0  0  0
 25 31  1  0  0  0  0
 26 27  1  0  0  0  0
 26 29  1  0  0  0  0
 26 30  1  0  0  0  0
 27 28  3  0  0  0  0
 31 32  2  0  0  0  0
 31 33  1  0  0  0  0
 33 34  2  0  0  0  0
 33 39  1  0  0  0  0
 34 35  1  0  0  0  0
 34 42  1  0  0  0  0
 35 36  2  0  0  0  0
 35 41  1  0  0  0  0
 36 37  1  0  0  0  0
 36 38  1  0  0  0  0
 38 39  2  0  0  0  0
 38 40  1  0  0  0  0
M  END
>  <MODEL>
       1

$$$$
