tmp_first_model_16_63.pdb
 OpenBabel08282501503D

 57 61  0  0  1  0  0  0  0  0999 V2000
   -7.3550    3.4320  -21.8520 C   0  0  0  0  0  0  0  0  0  0  0  0
   -8.1740    2.9440  -22.9430 N   0  0  0  0  0  0  0  0  0  0  0  0
   -7.6050    2.2440  -23.9490 C   0  0  0  0  0  0  0  0  0  0  0  0
   -6.3910    2.1150  -24.0610 O   0  0  0  0  0  0  0  0  0  0  0  0
   -8.5610    1.6260  -24.9750 C   0  0  0  0  0  0  0  0  0  0  0  0
   -9.3030    0.4900  -24.4650 N   0  0  0  0  0  0  0  0  0  0  0  0
   -8.6000   -0.7650  -24.2820 C   0  0  0  0  0  0  0  0  0  0  0  0
   -9.0150   -1.4750  -22.9670 C   0  0  2  0  0  0  0  0  0  0  0  0
   -8.4650   -0.6880  -21.7540 C   0  0  0  0  0  0  0  0  0  0  0  0
   -8.8720    0.3660  -21.3070 O   0  0  0  0  0  0  0  0  0  0  0  0
   -7.4040   -1.3790  -21.2300 N   0  0  0  0  0  0  0  0  0  0  0  0
   -6.6210   -0.8170  -20.1930 C   0  0  0  0  0  0  0  0  0  0  0  0
   -6.9380   -1.0780  -18.8870 C   0  0  0  0  0  0  0  0  0  0  0  0
   -6.1830   -0.6870  -17.8340 N   0  0  0  0  0  0  0  0  0  0  0  0
   -5.1130    0.0330  -18.0850 C   0  0  0  0  0  0  0  0  0  0  0  0
   -4.7180    0.4610  -19.3920 C   0  0  0  0  0  0  0  0  0  0  0  0
   -3.6090    1.3270  -19.6290 C   0  0  0  0  0  0  0  0  0  0  0  0
   -3.2310    1.6430  -20.9080 C   0  0  0  0  0  0  0  0  0  0  0  0
   -3.9460    1.1230  -22.0090 C   0  0  0  0  0  0  0  0  0  0  0  0
   -5.0420    0.3190  -21.8050 C   0  0  0  0  0  0  0  0  0  0  0  0
   -5.4740   -0.0130  -20.4890 C   0  0  0  0  0  0  0  0  0  0  0  0
   -5.5880   -0.0680  -22.6610 H   0  0  0  0  0  0  0  0  0  0  0  0
   -3.6370    1.3660  -23.0210 H   0  0  0  0  0  0  0  0  0  0  0  0
   -2.3720    2.2860  -21.0840 H   0  0  0  0  0  0  0  0  0  0  0  0
   -3.0860    1.7460  -18.7730 H   0  0  0  0  0  0  0  0  0  0  0  0
   -4.5010    0.3120  -17.2240 H   0  0  0  0  0  0  0  0  0  0  0  0
   -7.8220   -1.6670  -18.6480 H   0  0  0  0  0  0  0  0  0  0  0  0
   -7.0800   -2.6170  -21.9090 C   0  0  0  0  0  0  0  0  0  0  0  0
   -8.3110   -2.8620  -22.8130 C   0  0  2  0  0  0  0  0  0  0  0  0
   -7.9410   -3.5830  -24.1080 C   0  0  0  0  0  0  0  0  0  0  0  0
   -7.4270   -4.8520  -23.7540 O   0  0  0  0  0  0  0  0  0  0  0  0
   -7.2070   -5.3280  -24.5630 H   0  0  0  0  0  0  0  0  0  0  0  0
   -7.1810   -2.9980  -24.6520 H   0  0  0  0  0  0  0  0  0  0  0  0
   -8.8260   -3.6830  -24.7560 H   0  0  0  0  0  0  0  0  0  0  0  0
   -8.9970   -3.5230  -22.2780 H   0  0  0  0  0  0  0  0  0  0  0  0
   -6.9140   -3.4240  -21.1860 H   0  0  0  0  0  0  0  0  0  0  0  0
   -6.1530   -2.5040  -22.4930 H   0  0  0  0  0  0  0  0  0  0  0  0
  -10.5320   -1.4860  -22.8930 C   0  0  0  0  0  0  0  0  0  0  0  0
  -11.1780   -2.3340  -21.9850 C   0  0  0  0  0  0  0  0  0  0  0  0
  -12.5570   -2.3310  -21.9000 C   0  0  0  0  0  0  0  0  0  0  0  0
  -13.3530   -3.3890  -20.7710 Cl  0  0  0  0  0  0  0  0  0  0  0  0
  -13.3310   -1.4750  -22.6840 C   0  0  0  0  0  0  0  0  0  0  0  0
  -12.7000   -0.5810  -23.5260 C   0  0  0  0  0  0  0  0  0  0  0  0
  -11.3080   -0.5610  -23.6070 C   0  0  0  0  0  0  0  0  0  0  0  0
  -10.6700    0.5410  -24.3970 C   0  0  0  0  0  0  0  0  0  0  0  0
  -11.3360    1.4350  -24.9070 O   0  0  0  0  0  0  0  0  0  0  0  0
  -13.2460    0.1440  -24.1220 H   0  0  0  0  0  0  0  0  0  0  0  0
  -14.4100   -1.4960  -22.5990 H   0  0  0  0  0  0  0  0  0  0  0  0
  -10.6140   -2.9760  -21.3180 H   0  0  0  0  0  0  0  0  0  0  0  0
   -7.5300   -0.5290  -24.2530 H   0  0  0  0  0  0  0  0  0  0  0  0
   -8.8040   -1.4410  -25.1280 H   0  0  0  0  0  0  0  0  0  0  0  0
   -7.9300    1.3350  -25.8240 H   0  0  0  0  0  0  0  0  0  0  0  0
   -9.3250    2.3350  -25.3040 H   0  0  0  0  0  0  0  0  0  0  0  0
   -9.1730    2.8830  -22.8100 H   0  0  0  0  0  0  0  0  0  0  0  0
   -6.6090    4.1480  -22.2180 H   0  0  0  0  0  0  0  0  0  0  0  0
   -8.0190    3.9380  -21.1510 H   0  0  0  0  0  0  0  0  0  0  0  0
   -6.8210    2.6040  -21.3570 H   0  0  0  0  0  0  0  0  0  0  0  0
  1  2  1  0  0  0  0
  1 55  1  0  0  0  0
  1 56  1  0  0  0  0
  1 57  1  0  0  0  0
  2  3  1  0  0  0  0
  2 54  1  0  0  0  0
  3  4  2  0  0  0  0
  3  5  1  0  0  0  0
  5  6  1  0  0  0  0
  5 52  1  0  0  0  0
  5 53  1  0  0  0  0
  6  7  1  0  0  0  0
  6 45  1  0  0  0  0
  7  8  1  0  0  0  0
  7 50  1  0  0  0  0
  7 51  1  0  0  0  0
  8  9  1  1  0  0  0
  8 29  1  0  0  0  0
  8 38  1  0  0  0  0
  9 10  2  0  0  0  0
  9 11  1  0  0  0  0
 11 12  1  0  0  0  0
 11 28  1  0  0  0  0
 12 13  2  0  0  0  0
 12 21  1  0  0  0  0
 13 14  1  0  0  0  0
 13 27  1  0  0  0  0
 14 15  2  0  0  0  0
 15 16  1  0  0  0  0
 15 26  1  0  0  0  0
 16 17  2  0  0  0  0
 16 21  1  0  0  0  0
 17 18  1  0  0  0  0
 17 25  1  0  0  0  0
 18 19  2  0  0  0  0
 18 24  1  0  0  0  0
 19 20  1  0  0  0  0
 19 23  1  0  0  0  0
 20 21  2  0  0  0  0
 20 22  1  0  0  0  0
 28 29  1  0  0  0  0
 28 36  1  0  0  0  0
 28 37  1  0  0  0  0
 29 30  1  0  0  0  0
 29 35  1  1  0  0  0
 30 31  1  0  0  0  0
 30 33  1  0  0  0  0
 30 34  1  0  0  0  0
 31 32  1  0  0  0  0
 38 39  2  0  0  0  0
 38 44  1  0  0  0  0
 39 40  1  0  0  0  0
 39 49  1  0  0  0  0
 40 41  1  0  0  0  0
 40 42  2  0  0  0  0
 42 43  1  0  0  0  0
 42 48  1  0  0  0  0
 43 44  2  0  0  0  0
 43 47  1  0  0  0  0
 44 45  1  0  0  0  0
 45 46  2  0  0  0  0
M  END
>  <MODEL>
       1

$$$$
