tmp_first_model_19_57.pdb
 OpenBabel08282503233D

 59 63  0  0  1  0  0  0  0  0999 V2000
   -7.3780    3.3540  -21.9160 C   0  0  0  0  0  0  0  0  0  0  0  0
   -8.2080    2.8450  -22.9920 N   0  0  0  0  0  0  0  0  0  0  0  0
   -7.6120    2.1460  -23.9940 C   0  0  0  0  0  0  0  0  0  0  0  0
   -6.3990    2.0220  -24.0870 O   0  0  0  0  0  0  0  0  0  0  0  0
   -8.5690    1.5430  -25.0180 C   0  0  0  0  0  0  0  0  0  0  0  0
   -9.3110    0.4220  -24.4750 N   0  0  0  0  0  0  0  0  0  0  0  0
   -8.6090   -0.8260  -24.1960 C   0  0  0  0  0  0  0  0  0  0  0  0
   -9.0680   -1.5200  -22.8730 C   0  0  2  0  0  0  0  0  0  0  0  0
   -8.5270   -0.7530  -21.6390 C   0  0  0  0  0  0  0  0  0  0  0  0
   -8.9780    0.2650  -21.1450 O   0  0  0  0  0  0  0  0  0  0  0  0
   -7.4000   -1.3920  -21.1880 N   0  0  0  0  0  0  0  0  0  0  0  0
   -6.5960   -0.8220  -20.1710 C   0  0  0  0  0  0  0  0  0  0  0  0
   -6.9160   -1.0480  -18.8590 C   0  0  0  0  0  0  0  0  0  0  0  0
   -6.2140   -0.5600  -17.8090 N   0  0  0  0  0  0  0  0  0  0  0  0
   -5.1780    0.1980  -18.0770 C   0  0  0  0  0  0  0  0  0  0  0  0
   -4.7380    0.5140  -19.3950 C   0  0  0  0  0  0  0  0  0  0  0  0
   -3.6110    1.3420  -19.6410 C   0  0  0  0  0  0  0  0  0  0  0  0
   -3.2330    1.6440  -20.9200 C   0  0  0  0  0  0  0  0  0  0  0  0
   -3.9620    1.1360  -22.0170 C   0  0  0  0  0  0  0  0  0  0  0  0
   -5.0560    0.3290  -21.8090 C   0  0  0  0  0  0  0  0  0  0  0  0
   -5.4680   -0.0080  -20.4900 C   0  0  0  0  0  0  0  0  0  0  0  0
   -5.6250   -0.0300  -22.6610 H   0  0  0  0  0  0  0  0  0  0  0  0
   -3.6680    1.3910  -23.0300 H   0  0  0  0  0  0  0  0  0  0  0  0
   -2.3730    2.2820  -21.0970 H   0  0  0  0  0  0  0  0  0  0  0  0
   -3.0750    1.7450  -18.7860 H   0  0  0  0  0  0  0  0  0  0  0  0
   -4.6170    0.5980  -17.2320 H   0  0  0  0  0  0  0  0  0  0  0  0
   -7.7840   -1.6570  -18.6190 H   0  0  0  0  0  0  0  0  0  0  0  0
   -7.0590   -2.5860  -21.9260 C   0  0  0  0  0  0  0  0  0  0  0  0
   -8.3540   -2.9450  -22.7110 C   0  0  0  0  0  0  0  0  0  0  0  0
   -9.1600   -3.9880  -21.9120 C   0  0  0  0  0  0  0  0  0  0  0  0
   -9.3290   -3.6800  -20.8770 H   0  0  0  0  0  0  0  0  0  0  0  0
   -8.6120   -4.9350  -21.8770 H   0  0  0  0  0  0  0  0  0  0  0  0
  -10.1270   -4.1840  -22.3840 H   0  0  0  0  0  0  0  0  0  0  0  0
   -7.9800   -3.6330  -24.0350 C   0  0  0  0  0  0  0  0  0  0  0  0
   -7.5160   -4.6040  -23.8320 H   0  0  0  0  0  0  0  0  0  0  0  0
   -8.8670   -3.8140  -24.6530 H   0  0  0  0  0  0  0  0  0  0  0  0
   -7.2610   -3.0530  -24.6240 H   0  0  0  0  0  0  0  0  0  0  0  0
   -6.7520   -3.3820  -21.2370 H   0  0  0  0  0  0  0  0  0  0  0  0
   -6.2110   -2.4120  -22.6100 H   0  0  0  0  0  0  0  0  0  0  0  0
  -10.5800   -1.4410  -22.8360 C   0  0  0  0  0  0  0  0  0  0  0  0
  -11.2760   -2.0360  -21.7920 C   0  0  0  0  0  0  0  0  0  0  0  0
  -12.6510   -2.1590  -21.8610 C   0  0  0  0  0  0  0  0  0  0  0  0
  -13.4630   -3.1240  -20.6630 Cl  0  0  0  0  0  0  0  0  0  0  0  0
  -13.4000   -1.5090  -22.8430 C   0  0  0  0  0  0  0  0  0  0  0  0
  -12.7190   -0.7100  -23.7380 C   0  0  0  0  0  0  0  0  0  0  0  0
  -11.3300   -0.6230  -23.6880 C   0  0  0  0  0  0  0  0  0  0  0  0
  -10.6710    0.5140  -24.3920 C   0  0  0  0  0  0  0  0  0  0  0  0
  -11.2980    1.4900  -24.7830 O   0  0  0  0  0  0  0  0  0  0  0  0
  -13.2400   -0.0960  -24.4610 H   0  0  0  0  0  0  0  0  0  0  0  0
  -14.4830   -1.5630  -22.8320 H   0  0  0  0  0  0  0  0  0  0  0  0
  -10.7200   -2.3910  -20.9430 H   0  0  0  0  0  0  0  0  0  0  0  0
   -7.5460   -0.5910  -24.1160 H   0  0  0  0  0  0  0  0  0  0  0  0
   -8.7690   -1.5340  -25.0200 H   0  0  0  0  0  0  0  0  0  0  0  0
   -9.3030    2.2950  -25.3230 H   0  0  0  0  0  0  0  0  0  0  0  0
   -7.9820    1.2440  -25.8910 H   0  0  0  0  0  0  0  0  0  0  0  0
   -9.1880    2.6730  -22.7970 H   0  0  0  0  0  0  0  0  0  0  0  0
   -6.8640    2.5340  -21.3910 H   0  0  0  0  0  0  0  0  0  0  0  0
   -6.6230    4.0350  -22.3190 H   0  0  0  0  0  0  0  0  0  0  0  0
   -7.9900    3.9250  -21.2190 H   0  0  0  0  0  0  0  0  0  0  0  0
  1  2  1  0  0  0  0
  1 57  1  0  0  0  0
  1 58  1  0  0  0  0
  1 59  1  0  0  0  0
  2  3  1  0  0  0  0
  2 56  1  0  0  0  0
  3  4  2  0  0  0  0
  3  5  1  0  0  0  0
  5  6  1  0  0  0  0
  5 54  1  0  0  0  0
  5 55  1  0  0  0  0
  6  7  1  0  0  0  0
  6 47  1  0  0  0  0
  7  8  1  0  0  0  0
  7 52  1  0  0  0  0
  7 53  1  0  0  0  0
  8  9  1  1  0  0  0
  8 29  1  0  0  0  0
  8 40  1  0  0  0  0
  9 10  2  0  0  0  0
  9 11  1  0  0  0  0
 11 12  1  0  0  0  0
 11 28  1  0  0  0  0
 12 13  2  0  0  0  0
 12 21  1  0  0  0  0
 13 14  1  0  0  0  0
 13 27  1  0  0  0  0
 14 15  2  0  0  0  0
 15 16  1  0  0  0  0
 15 26  1  0  0  0  0
 16 17  2  0  0  0  0
 16 21  1  0  0  0  0
 17 18  1  0  0  0  0
 17 25  1  0  0  0  0
 18 19  2  0  0  0  0
 18 24  1  0  0  0  0
 19 20  1  0  0  0  0
 19 23  1  0  0  0  0
 20 21  2  0  0  0  0
 20 22  1  0  0  0  0
 28 29  1  0  0  0  0
 28 38  1  0  0  0  0
 28 39  1  0  0  0  0
 29 30  1  0  0  0  0
 29 34  1  0  0  0  0
 30 31  1  0  0  0  0
 30 32  1  0  0  0  0
 30 33  1  0  0  0  0
 34 35  1  0  0  0  0
 34 36  1  0  0  0  0
 34 37  1  0  0  0  0
 40 41  2  0  0  0  0
 40 46  1  0  0  0  0
 41 42  1  0  0  0  0
 41 51  1  0  0  0  0
 42 43  1  0  0  0  0
 42 44  2  0  0  0  0
 44 45  1  0  0  0  0
 44 50  1  0  0  0  0
 45 46  2  0  0  0  0
 45 49  1  0  0  0  0
 46 47  1  0  0  0  0
 47 48  2  0  0  0  0
M  END
>  <MODEL>
       1

$$$$
