tmp_first_model_4_75.pdb
 OpenBabel08272518513D

 66 71  0  0  1  0  0  0  0  0999 V2000
   -7.1530    3.3370  -21.9320 C   0  0  0  0  0  0  0  0  0  0  0  0
   -8.0700    2.8100  -22.9170 N   0  0  0  0  0  0  0  0  0  0  0  0
   -7.6150    2.2530  -24.0640 C   0  0  0  0  0  0  0  0  0  0  0  0
   -6.4300    2.1820  -24.3560 O   0  0  0  0  0  0  0  0  0  0  0  0
   -8.7270    1.6970  -24.9560 C   0  0  0  0  0  0  0  0  0  0  0  0
   -9.4610    0.6770  -24.2290 N   0  0  0  0  0  0  0  0  0  0  0  0
   -8.7500   -0.5660  -24.0400 C   0  0  0  0  0  0  0  0  0  0  0  0
   -9.1730   -1.3170  -22.7580 C   0  0  2  0  0  0  0  0  0  0  0  0
   -8.5800   -0.6260  -21.5040 C   0  0  0  0  0  0  0  0  0  0  0  0
   -8.9990    0.3770  -20.9660 O   0  0  0  0  0  0  0  0  0  0  0  0
   -7.4660   -1.3340  -21.1070 N   0  0  0  0  0  0  0  0  0  0  0  0
   -6.5350   -0.9190  -20.1240 C   0  0  0  0  0  0  0  0  0  0  0  0
   -6.6770   -1.3390  -18.8260 C   0  0  0  0  0  0  0  0  0  0  0  0
   -5.7690   -1.1140  -17.8470 N   0  0  0  0  0  0  0  0  0  0  0  0
   -4.6890   -0.4440  -18.1590 C   0  0  0  0  0  0  0  0  0  0  0  0
   -4.3990    0.0230  -19.4730 C   0  0  0  0  0  0  0  0  0  0  0  0
   -3.1970    0.7180  -19.7750 C   0  0  0  0  0  0  0  0  0  0  0  0
   -2.9460    1.1620  -21.0440 C   0  0  0  0  0  0  0  0  0  0  0  0
   -3.9090    0.9740  -22.0620 C   0  0  0  0  0  0  0  0  0  0  0  0
   -5.0950    0.3310  -21.7890 C   0  0  0  0  0  0  0  0  0  0  0  0
   -5.3610   -0.1870  -20.4880 C   0  0  0  0  0  0  0  0  0  0  0  0
   -5.8520    0.2650  -22.5670 H   0  0  0  0  0  0  0  0  0  0  0  0
   -3.7330    1.3650  -23.0590 H   0  0  0  0  0  0  0  0  0  0  0  0
   -2.0170    1.6810  -21.2720 H   0  0  0  0  0  0  0  0  0  0  0  0
   -2.4950    0.8990  -18.9660 H   0  0  0  0  0  0  0  0  0  0  0  0
   -3.9720   -0.2420  -17.3600 H   0  0  0  0  0  0  0  0  0  0  0  0
   -7.5540   -1.9160  -18.5420 H   0  0  0  0  0  0  0  0  0  0  0  0
   -7.1490   -2.4570  -21.9520 C   0  0  0  0  0  0  0  0  0  0  0  0
   -8.4520   -2.6890  -22.7210 C   0  0  2  0  0  0  0  0  0  0  0  0
   -8.2170   -3.3540  -24.0750 C   0  0  0  0  0  0  0  0  0  0  0  0
   -7.5030   -4.5980  -23.8810 N   0  0  0  0  0  0  0  0  0  0  0  0
   -7.0000   -5.3440  -24.8970 C   0  0  0  0  0  0  0  0  0  0  0  0
   -5.8990   -7.2200  -25.5360 C   0  0  0  0  0  0  0  0  0  0  0  0
   -6.3300   -6.4610  -24.5370 N   0  0  0  0  0  0  0  0  0  0  0  0
   -6.1570   -6.9450  -26.8790 C   0  0  0  0  0  0  0  0  0  0  0  0
   -6.7880   -5.7360  -27.1270 C   0  0  0  0  0  0  0  0  0  0  0  0
   -7.1860   -4.9090  -26.1580 N   0  0  0  0  0  0  0  0  0  0  0  0
   -6.9930   -5.4010  -28.1450 H   0  0  0  0  0  0  0  0  0  0  0  0
   -5.9350   -7.6820  -27.6490 H   0  0  0  0  0  0  0  0  0  0  0  0
   -5.3340   -8.1050  -25.2470 H   0  0  0  0  0  0  0  0  0  0  0  0
   -7.2670   -4.8740  -22.9400 H   0  0  0  0  0  0  0  0  0  0  0  0
   -9.1750   -3.5440  -24.5710 H   0  0  0  0  0  0  0  0  0  0  0  0
   -7.6300   -2.7090  -24.7420 H   0  0  0  0  0  0  0  0  0  0  0  0
   -9.0550   -3.3820  -22.1320 H   0  0  0  0  0  0  0  0  0  0  0  0
   -6.8410   -3.3100  -21.3360 H   0  0  0  0  0  0  0  0  0  0  0  0
   -6.3160   -2.2310  -22.6380 H   0  0  0  0  0  0  0  0  0  0  0  0
  -10.6870   -1.3710  -22.7300 C   0  0  0  0  0  0  0  0  0  0  0  0
  -11.3520   -2.3300  -21.9560 C   0  0  0  0  0  0  0  0  0  0  0  0
  -12.7320   -2.3490  -21.9030 C   0  0  0  0  0  0  0  0  0  0  0  0
  -13.5200   -3.5490  -20.9200 Cl  0  0  0  0  0  0  0  0  0  0  0  0
  -13.5030   -1.4210  -22.6000 C   0  0  0  0  0  0  0  0  0  0  0  0
  -12.8540   -0.4630  -23.3530 C   0  0  0  0  0  0  0  0  0  0  0  0
  -11.4620   -0.4230  -23.4150 C   0  0  0  0  0  0  0  0  0  0  0  0
  -10.8340    0.6850  -24.2140 C   0  0  0  0  0  0  0  0  0  0  0  0
  -11.4990    1.5360  -24.7820 O   0  0  0  0  0  0  0  0  0  0  0  0
  -13.4050    0.2890  -23.9040 H   0  0  0  0  0  0  0  0  0  0  0  0
  -14.5840   -1.4470  -22.5290 H   0  0  0  0  0  0  0  0  0  0  0  0
  -10.8070   -3.0670  -21.3760 H   0  0  0  0  0  0  0  0  0  0  0  0
   -7.6780   -0.3440  -23.9940 H   0  0  0  0  0  0  0  0  0  0  0  0
   -8.9410   -1.2170  -24.9050 H   0  0  0  0  0  0  0  0  0  0  0  0
   -8.2650    1.2940  -25.8630 H   0  0  0  0  0  0  0  0  0  0  0  0
   -9.4510    2.4650  -25.2390 H   0  0  0  0  0  0  0  0  0  0  0  0
   -9.0060    2.5810  -22.6180 H   0  0  0  0  0  0  0  0  0  0  0  0
   -6.4340    3.9980  -22.4200 H   0  0  0  0  0  0  0  0  0  0  0  0
   -6.6000    2.5340  -21.4220 H   0  0  0  0  0  0  0  0  0  0  0  0
   -7.7210    3.9220  -21.2060 H   0  0  0  0  0  0  0  0  0  0  0  0
  1  2  1  0  0  0  0
  1 64  1  0  0  0  0
  1 65  1  0  0  0  0
  1 66  1  0  0  0  0
  2  3  1  0  0  0  0
  2 63  1  0  0  0  0
  3  4  2  0  0  0  0
  3  5  1  0  0  0  0
  5  6  1  0  0  0  0
  5 61  1  0  0  0  0
  5 62  1  0  0  0  0
  6  7  1  0  0  0  0
  6 54  1  0  0  0  0
  7  8  1  0  0  0  0
  7 59  1  0  0  0  0
  7 60  1  0  0  0  0
  8  9  1  1  0  0  0
  8 29  1  0  0  0  0
  8 47  1  0  0  0  0
  9 10  2  0  0  0  0
  9 11  1  0  0  0  0
 11 12  1  0  0  0  0
 11 28  1  0  0  0  0
 12 13  2  0  0  0  0
 12 21  1  0  0  0  0
 13 14  1  0  0  0  0
 13 27  1  0  0  0  0
 14 15  2  0  0  0  0
 15 16  1  0  0  0  0
 15 26  1  0  0  0  0
 16 17  2  0  0  0  0
 16 21  1  0  0  0  0
 17 18  1  0  0  0  0
 17 25  1  0  0  0  0
 18 19  2  0  0  0  0
 18 24  1  0  0  0  0
 19 20  1  0  0  0  0
 19 23  1  0  0  0  0
 20 21  2  0  0  0  0
 20 22  1  0  0  0  0
 28 29  1  0  0  0  0
 28 45  1  0  0  0  0
 28 46  1  0  0  0  0
 29 30  1  0  0  0  0
 29 44  1  1  0  0  0
 30 31  1  0  0  0  0
 30 42  1  0  0  0  0
 30 43  1  0  0  0  0
 31 32  1  0  0  0  0
 31 41  1  0  0  0  0
 32 33  2  0  0  0  0
 32 37  1  0  0  0  0
 33 34  1  0  0  0  0
 33 40  1  0  0  0  0
 34 35  2  0  0  0  0
 35 36  1  0  0  0  0
 35 39  1  0  0  0  0
 36 37  2  0  0  0  0
 36 38  1  0  0  0  0
 47 48  2  0  0  0  0
 47 53  1  0  0  0  0
 48 49  1  0  0  0  0
 48 58  1  0  0  0  0
 49 50  1  0  0  0  0
 49 51  2  0  0  0  0
 51 52  1  0  0  0  0
 51 57  1  0  0  0  0
 52 53  2  0  0  0  0
 52 56  1  0  0  0  0
 53 54  1  0  0  0  0
 54 55  2  0  0  0  0
M  END
>  <MODEL>
       1

$$$$
