tmp_first_model_11_11.pdb
 OpenBabel08272522543D

 48 52  0  0  0  0  0  0  0  0999 V2000
  -10.1050   -0.8340  -23.6170 C   0  0  0  0  0  0  0  0  0  0  0  0
   -9.1550   -1.3990  -22.6820 N   0  0  0  0  0  0  0  0  0  0  0  0
   -8.2910   -0.5770  -22.0110 C   0  0  0  0  0  0  0  0  0  0  0  0
   -8.2200    0.6300  -22.1040 O   0  0  0  0  0  0  0  0  0  0  0  0
   -7.5110   -1.3950  -21.1780 N   0  0  0  0  0  0  0  0  0  0  0  0
   -6.6560   -0.8720  -20.1680 C   0  0  0  0  0  0  0  0  0  0  0  0
   -6.9570   -1.1070  -18.8520 C   0  0  0  0  0  0  0  0  0  0  0  0
   -6.2810   -0.5760  -17.8060 N   0  0  0  0  0  0  0  0  0  0  0  0
   -5.2530    0.1910  -18.0790 C   0  0  0  0  0  0  0  0  0  0  0  0
   -4.8060    0.4830  -19.3980 C   0  0  0  0  0  0  0  0  0  0  0  0
   -3.6670    1.3020  -19.6320 C   0  0  0  0  0  0  0  0  0  0  0  0
   -3.2460    1.5560  -20.9080 C   0  0  0  0  0  0  0  0  0  0  0  0
   -3.9460    1.0060  -22.0060 C   0  0  0  0  0  0  0  0  0  0  0  0
   -5.0540    0.2180  -21.8050 C   0  0  0  0  0  0  0  0  0  0  0  0
   -5.5210   -0.0610  -20.4880 C   0  0  0  0  0  0  0  0  0  0  0  0
   -5.5890   -0.1850  -22.6580 H   0  0  0  0  0  0  0  0  0  0  0  0
   -3.6080    1.2180  -23.0180 H   0  0  0  0  0  0  0  0  0  0  0  0
   -2.3780    2.1860  -21.0910 H   0  0  0  0  0  0  0  0  0  0  0  0
   -3.1500    1.7360  -18.7800 H   0  0  0  0  0  0  0  0  0  0  0  0
   -4.7100    0.6160  -17.2330 H   0  0  0  0  0  0  0  0  0  0  0  0
   -7.8000   -1.7450  -18.6000 H   0  0  0  0  0  0  0  0  0  0  0  0
   -7.9730   -2.7090  -21.2160 C   0  0  0  0  0  0  0  0  0  0  0  0
   -7.6110   -3.6080  -20.5020 O   0  0  0  0  0  0  0  0  0  0  0  0
   -9.0020   -2.7900  -22.3310 C   0  0  0  0  0  0  0  0  0  0  0  0
   -8.6500   -3.8460  -23.4180 C   0  0  0  0  0  0  0  0  0  0  0  0
   -9.9210   -4.5620  -23.1930 N   0  0  0  0  0  0  0  0  0  0  0  0
  -11.0390   -4.5480  -24.4700 S   0  0  0  0  0  0  0  0  0  0  0  0
  -12.2430   -5.1220  -23.9100 O   0  0  0  0  0  0  0  0  0  0  0  0
  -11.0750   -3.2130  -25.0620 O   0  0  0  0  0  0  0  0  0  0  0  0
  -10.4010   -5.6110  -25.7610 C   0  0  0  0  0  0  0  0  0  0  0  0
  -10.1460   -6.9630  -25.5630 C   0  0  0  0  0  0  0  0  0  0  0  0
   -9.6520   -7.7310  -26.6150 C   0  0  0  0  0  0  0  0  0  0  0  0
   -9.4210   -7.1490  -27.8570 C   0  0  0  0  0  0  0  0  0  0  0  0
   -9.7160   -5.8060  -28.0630 C   0  0  0  0  0  0  0  0  0  0  0  0
  -10.2360   -5.0470  -27.0230 C   0  0  0  0  0  0  0  0  0  0  0  0
  -10.5460   -4.0220  -27.1800 H   0  0  0  0  0  0  0  0  0  0  0  0
   -9.5460   -5.3520  -29.0360 H   0  0  0  0  0  0  0  0  0  0  0  0
   -9.0640   -7.7550  -28.6830 H   0  0  0  0  0  0  0  0  0  0  0  0
   -9.4600   -8.7920  -26.4740 H   0  0  0  0  0  0  0  0  0  0  0  0
  -10.3470   -7.4240  -24.6080 H   0  0  0  0  0  0  0  0  0  0  0  0
  -10.2410   -3.6690  -22.0220 C   0  0  0  0  0  0  0  0  0  0  0  0
  -10.1040   -4.2170  -21.0910 H   0  0  0  0  0  0  0  0  0  0  0  0
  -11.2280   -3.2020  -22.0230 H   0  0  0  0  0  0  0  0  0  0  0  0
   -8.5110   -3.4830  -24.4370 H   0  0  0  0  0  0  0  0  0  0  0  0
   -7.8170   -4.4720  -23.0860 H   0  0  0  0  0  0  0  0  0  0  0  0
   -9.9080    0.2400  -23.6360 H   0  0  0  0  0  0  0  0  0  0  0  0
  -11.1340   -1.0020  -23.2830 H   0  0  0  0  0  0  0  0  0  0  0  0
   -9.9670   -1.2620  -24.6100 H   0  0  0  0  0  0  0  0  0  0  0  0
  1  2  1  0  0  0  0
  1 46  1  0  0  0  0
  1 47  1  0  0  0  0
  1 48  1  0  0  0  0
  2  3  1  0  0  0  0
  2 24  1  0  0  0  0
  3  4  2  0  0  0  0
  3  5  1  0  0  0  0
  5  6  1  0  0  0  0
  5 22  1  0  0  0  0
  6  7  2  0  0  0  0
  6 15  1  0  0  0  0
  7  8  1  0  0  0  0
  7 21  1  0  0  0  0
  8  9  2  0  0  0  0
  9 10  1  0  0  0  0
  9 20  1  0  0  0  0
 10 11  2  0  0  0  0
 10 15  1  0  0  0  0
 11 12  1  0  0  0  0
 11 19  1  0  0  0  0
 12 13  2  0  0  0  0
 12 18  1  0  0  0  0
 13 14  1  0  0  0  0
 13 17  1  0  0  0  0
 14 15  2  0  0  0  0
 14 16  1  0  0  0  0
 22 23  2  0  0  0  0
 22 24  1  0  0  0  0
 24 25  1  0  0  0  0
 24 41  1  0  0  0  0
 25 26  1  0  0  0  0
 25 44  1  0  0  0  0
 25 45  1  0  0  0  0
 26 27  1  0  0  0  0
 26 41  1  0  0  0  0
 27 28  2  0  0  0  0
 27 29  2  0  0  0  0
 27 30  1  0  0  0  0
 30 31  2  0  0  0  0
 30 35  1  0  0  0  0
 31 32  1  0  0  0  0
 31 40  1  0  0  0  0
 32 33  2  0  0  0  0
 32 39  1  0  0  0  0
 33 34  1  0  0  0  0
 33 38  1  0  0  0  0
 34 35  2  0  0  0  0
 34 37  1  0  0  0  0
 35 36  1  0  0  0  0
 41 42  1  0  0  0  0
 41 43  1  0  0  0  0
M  END
>  <MODEL>
       1

$$$$
