tmp_first_model_6_69.pdb
 OpenBabel08272519583D

 63 67  0  0  0  0  0  0  0  0999 V2000
  -12.2250    6.4670  -23.8480 C   0  0  0  0  0  0  0  0  0  0  0  0
  -11.4370    5.4030  -23.7920 C   0  0  0  0  0  0  0  0  0  0  0  0
  -10.5920    5.0550  -24.9670 C   0  0  0  0  0  0  0  0  0  0  0  0
  -10.4430    5.8100  -25.9140 O   0  0  0  0  0  0  0  0  0  0  0  0
   -9.8880    3.8650  -24.8920 N   0  0  0  0  0  0  0  0  0  0  0  0
   -8.5700    3.8680  -25.5040 C   0  0  0  0  0  0  0  0  0  0  0  0
   -7.6070    3.1950  -24.5500 C   0  0  0  0  0  0  0  0  0  0  0  0
   -8.0410    1.7510  -24.3660 C   0  0  0  0  0  0  0  0  0  0  0  0
   -9.5210    1.6220  -24.0570 C   0  0  0  0  0  0  0  0  0  0  0  0
  -10.4110    2.6540  -24.4030 C   0  0  0  0  0  0  0  0  0  0  0  0
  -11.7970    2.4620  -24.3000 C   0  0  0  0  0  0  0  0  0  0  0  0
  -12.2980    1.2800  -23.7830 C   0  0  0  0  0  0  0  0  0  0  0  0
  -11.4220    0.2820  -23.3540 C   0  0  0  0  0  0  0  0  0  0  0  0
  -10.0480    0.4650  -23.4850 C   0  0  0  0  0  0  0  0  0  0  0  0
   -9.1250   -0.6610  -23.0160 N   0  3  0  0  0  0  0  0  0  0  0  0
   -8.3030   -1.3510  -24.2110 C   0  0  0  0  0  0  0  0  0  0  0  0
   -8.3560   -2.8620  -24.1540 C   0  0  0  0  0  0  0  0  0  0  0  0
   -7.1950   -3.6410  -24.1120 C   0  0  0  0  0  0  0  0  0  0  0  0
   -7.2770   -5.0280  -24.1550 C   0  0  0  0  0  0  0  0  0  0  0  0
   -8.5060   -5.6580  -24.2680 C   0  0  0  0  0  0  0  0  0  0  0  0
   -9.6550   -4.8850  -24.3120 C   0  0  0  0  0  0  0  0  0  0  0  0
  -11.1870   -5.6890  -24.4960 Cl  0  0  0  0  0  0  0  0  0  0  0  0
   -9.5960   -3.5050  -24.2110 C   0  0  0  0  0  0  0  0  0  0  0  0
  -10.5200   -2.9360  -24.1920 H   0  0  0  0  0  0  0  0  0  0  0  0
   -8.5920   -6.7350  -24.3220 H   0  0  0  0  0  0  0  0  0  0  0  0
   -6.3760   -5.6260  -24.0850 H   0  0  0  0  0  0  0  0  0  0  0  0
   -6.2150   -3.1720  -24.0490 H   0  0  0  0  0  0  0  0  0  0  0  0
   -7.2720   -0.9780  -24.2160 H   0  0  0  0  0  0  0  0  0  0  0  0
   -8.7860   -0.9760  -25.1160 H   0  0  0  0  0  0  0  0  0  0  0  0
   -8.3790   -0.3170  -21.7510 C   0  0  0  0  0  0  0  0  0  0  0  0
   -8.5580    0.7310  -21.1950 O   0  0  0  0  0  0  0  0  0  0  0  0
   -7.4420   -1.4050  -21.2300 C   0  0  0  0  0  0  0  0  0  0  0  0
   -6.5620   -0.8510  -20.1460 C   0  0  0  0  0  0  0  0  0  0  0  0
   -6.8650   -1.0630  -18.8290 C   0  0  0  0  0  0  0  0  0  0  0  0
   -6.1800   -0.5580  -17.7690 N   0  0  0  0  0  0  0  0  0  0  0  0
   -5.1610    0.2200  -18.0450 C   0  0  0  0  0  0  0  0  0  0  0  0
   -4.7430    0.5460  -19.3630 C   0  0  0  0  0  0  0  0  0  0  0  0
   -3.6280    1.3870  -19.6060 C   0  0  0  0  0  0  0  0  0  0  0  0
   -3.2560    1.7020  -20.8830 C   0  0  0  0  0  0  0  0  0  0  0  0
   -3.9980    1.2020  -21.9780 C   0  0  0  0  0  0  0  0  0  0  0  0
   -5.0720    0.3690  -21.7700 C   0  0  0  0  0  0  0  0  0  0  0  0
   -5.4700    0.0100  -20.4530 C   0  0  0  0  0  0  0  0  0  0  0  0
   -5.6130   -0.0280  -22.6270 H   0  0  0  0  0  0  0  0  0  0  0  0
   -3.6870    1.4410  -22.9920 H   0  0  0  0  0  0  0  0  0  0  0  0
   -2.3870    2.3280  -21.0690 H   0  0  0  0  0  0  0  0  0  0  0  0
   -3.0760    1.7670  -18.7490 H   0  0  0  0  0  0  0  0  0  0  0  0
   -4.6070    0.6400  -17.2030 H   0  0  0  0  0  0  0  0  0  0  0  0
   -7.7220   -1.6850  -18.5660 H   0  0  0  0  0  0  0  0  0  0  0  0
   -8.0570   -2.2290  -20.8370 H   0  0  0  0  0  0  0  0  0  0  0  0
   -6.8650   -1.7980  -22.0720 H   0  0  0  0  0  0  0  0  0  0  0  0
   -9.7750   -1.4280  -22.7450 H   0  0  0  0  0  0  0  0  0  0  0  0
  -11.8100   -0.6370  -22.9220 H   0  0  0  0  0  0  0  0  0  0  0  0
  -13.3740    1.1450  -23.6910 H   0  0  0  0  0  0  0  0  0  0  0  0
  -12.4750    3.2440  -24.6220 H   0  0  0  0  0  0  0  0  0  0  0  0
   -7.8240    1.2050  -25.2970 H   0  0  0  0  0  0  0  0  0  0  0  0
   -7.4460    1.2850  -23.5750 H   0  0  0  0  0  0  0  0  0  0  0  0
   -6.5790    3.2470  -24.9240 H   0  0  0  0  0  0  0  0  0  0  0  0
   -7.6400    3.7150  -23.5870 H   0  0  0  0  0  0  0  0  0  0  0  0
   -8.6160    3.3580  -26.4730 H   0  0  0  0  0  0  0  0  0  0  0  0
   -8.3180    4.9120  -25.6880 H   0  0  0  0  0  0  0  0  0  0  0  0
  -11.3480    4.7770  -22.9080 H   0  0  0  0  0  0  0  0  0  0  0  0
  -12.2150    7.0760  -24.7470 H   0  0  0  0  0  0  0  0  0  0  0  0
  -12.8710    6.7470  -23.0220 H   0  0  0  0  0  0  0  0  0  0  0  0
  1  2  2  0  0  0  0
  1 62  1  0  0  0  0
  1 63  1  0  0  0  0
  2  3  1  0  0  0  0
  2 61  1  0  0  0  0
  3  4  2  0  0  0  0
  3  5  1  0  0  0  0
  5  6  1  0  0  0  0
  5 10  1  0  0  0  0
  6  7  1  0  0  0  0
  6 59  1  0  0  0  0
  6 60  1  0  0  0  0
  7  8  1  0  0  0  0
  7 57  1  0  0  0  0
  7 58  1  0  0  0  0
  8  9  1  0  0  0  0
  8 55  1  0  0  0  0
  8 56  1  0  0  0  0
  9 10  2  0  0  0  0
  9 14  1  0  0  0  0
 10 11  1  0  0  0  0
 11 12  2  0  0  0  0
 11 54  1  0  0  0  0
 12 13  1  0  0  0  0
 12 53  1  0  0  0  0
 13 14  2  0  0  0  0
 13 52  1  0  0  0  0
 14 15  1  0  0  0  0
 15 16  1  0  0  0  0
 15 30  1  0  0  0  0
 15 51  1  0  0  0  0
 16 17  1  0  0  0  0
 16 28  1  0  0  0  0
 16 29  1  0  0  0  0
 17 18  2  0  0  0  0
 17 23  1  0  0  0  0
 18 19  1  0  0  0  0
 18 27  1  0  0  0  0
 19 20  2  0  0  0  0
 19 26  1  0  0  0  0
 20 21  1  0  0  0  0
 20 25  1  0  0  0  0
 21 22  1  0  0  0  0
 21 23  2  0  0  0  0
 23 24  1  0  0  0  0
 30 31  2  0  0  0  0
 30 32  1  0  0  0  0
 32 33  1  0  0  0  0
 32 49  1  0  0  0  0
 32 50  1  0  0  0  0
 33 34  2  0  0  0  0
 33 42  1  0  0  0  0
 34 35  1  0  0  0  0
 34 48  1  0  0  0  0
 35 36  2  0  0  0  0
 36 37  1  0  0  0  0
 36 47  1  0  0  0  0
 37 38  2  0  0  0  0
 37 42  1  0  0  0  0
 38 39  1  0  0  0  0
 38 46  1  0  0  0  0
 39 40  2  0  0  0  0
 39 45  1  0  0  0  0
 40 41  1  0  0  0  0
 40 44  1  0  0  0  0
 41 42  2  0  0  0  0
 41 43  1  0  0  0  0
M  CHG  1  15   1
M  END
>  <MODEL>
       1

$$$$
