tmp_first_model_18_39.pdb
 OpenBabel08282502533D

 40 44  0  0  1  0  0  0  0  0999 V2000
   -7.2400    0.9290  -25.5960 C   0  0  0  0  0  0  0  0  0  0  0  0
   -6.5130   -0.3950  -25.4090 C   0  0  0  0  0  0  0  0  0  0  0  0
   -5.3030   -0.5110  -25.5530 O   0  0  0  0  0  0  0  0  0  0  0  0
   -7.2740   -1.4750  -25.0820 N   0  0  0  0  0  0  0  0  0  0  0  0
   -6.6390   -2.7660  -24.7370 C   0  0  0  0  0  0  0  0  0  0  0  0
   -7.8110   -3.4850  -24.0460 C   0  0  2  0  0  0  0  0  0  0  0  0
   -9.0040   -2.9600  -24.8620 C   0  0  0  0  0  0  0  0  0  0  0  0
   -8.6620   -1.4870  -24.5550 C   0  0  1  0  0  0  0  0  0  0  0  0
   -8.5650   -1.5550  -23.0860 C   0  0  0  0  0  0  0  0  0  0  0  0
   -8.1660   -0.6130  -22.0830 C   0  0  0  0  0  0  0  0  0  0  0  0
   -8.3490    0.5780  -21.9890 O   0  5  0  0  0  0  0  0  0  0  0  0
   -7.4020   -1.3910  -21.1790 N   0  0  0  0  0  0  0  0  0  0  0  0
   -6.5820   -0.8250  -20.1690 C   0  0  0  0  0  0  0  0  0  0  0  0
   -6.8910   -1.0590  -18.8550 C   0  0  0  0  0  0  0  0  0  0  0  0
   -6.1990   -0.5480  -17.8080 N   0  0  0  0  0  0  0  0  0  0  0  0
   -5.1700    0.2160  -18.0790 C   0  0  0  0  0  0  0  0  0  0  0  0
   -4.7310    0.5310  -19.3970 C   0  0  0  0  0  0  0  0  0  0  0  0
   -3.5960    1.3550  -19.6310 C   0  0  0  0  0  0  0  0  0  0  0  0
   -3.1850    1.6260  -20.9070 C   0  0  0  0  0  0  0  0  0  0  0  0
   -3.8830    1.0710  -22.0050 C   0  0  0  0  0  0  0  0  0  0  0  0
   -4.9770    0.2670  -21.8050 C   0  0  0  0  0  0  0  0  0  0  0  0
   -5.4470   -0.0100  -20.4880 C   0  0  0  0  0  0  0  0  0  0  0  0
   -5.4780   -0.1600  -22.6720 H   0  0  0  0  0  0  0  0  0  0  0  0
   -3.5600    1.2850  -23.0200 H   0  0  0  0  0  0  0  0  0  0  0  0
   -2.3250    2.2670  -21.0860 H   0  0  0  0  0  0  0  0  0  0  0  0
   -3.0770    1.7670  -18.7700 H   0  0  0  0  0  0  0  0  0  0  0  0
   -4.6270    0.6220  -17.2260 H   0  0  0  0  0  0  0  0  0  0  0  0
   -7.7410   -1.6850  -18.6000 H   0  0  0  0  0  0  0  0  0  0  0  0
   -7.2460   -2.7070  -21.6370 C   0  0  0  0  0  0  0  0  0  0  0  0
   -6.5160   -3.5520  -21.1780 O   0  0  0  0  0  0  0  0  0  0  0  0
   -8.0630   -2.7880  -22.7610 N   0  0  0  0  0  0  0  0  0  0  0  0
   -9.2830   -0.6920  -24.9780 H   0  0  0  0  0  0  0  0  0  0  0  0
   -9.9660   -3.2770  -24.4630 H   0  0  0  0  0  0  0  0  0  0  0  0
   -8.9260   -3.1960  -25.9270 H   0  0  0  0  0  0  0  0  0  0  0  0
   -7.7000   -4.5530  -23.9050 H   0  0  0  0  0  0  0  0  0  0  0  0
   -5.7890   -2.6260  -24.0590 H   0  0  0  0  0  0  0  0  0  0  0  0
   -6.2950   -3.2670  -25.6430 H   0  0  0  0  0  0  0  0  0  0  0  0
   -6.4880    1.6580  -25.9020 H   0  0  0  0  0  0  0  0  0  0  0  0
   -7.7270    1.2560  -24.6690 H   0  0  0  0  0  0  0  0  0  0  0  0
   -8.0190    0.8640  -26.3650 H   0  0  0  0  0  0  0  0  0  0  0  0
  1  2  1  0  0  0  0
  1 38  1  0  0  0  0
  1 39  1  0  0  0  0
  1 40  1  0  0  0  0
  2  3  2  0  0  0  0
  2  4  1  0  0  0  0
  4  5  1  0  0  0  0
  4  8  1  0  0  0  0
  5  6  1  0  0  0  0
  5 36  1  0  0  0  0
  5 37  1  0  0  0  0
  6  7  1  0  0  0  0
  6 31  1  0  0  0  0
  6 35  1  1  0  0  0
  7  8  1  0  0  0  0
  7 33  1  0  0  0  0
  7 34  1  0  0  0  0
  8  9  1  0  0  0  0
  8 32  1  6  0  0  0
  9 10  2  0  0  0  0
  9 31  1  0  0  0  0
 10 11  1  0  0  0  0
 10 12  1  0  0  0  0
 12 13  1  0  0  0  0
 12 29  1  0  0  0  0
 13 14  2  0  0  0  0
 13 22  1  0  0  0  0
 14 15  1  0  0  0  0
 14 28  1  0  0  0  0
 15 16  2  0  0  0  0
 16 17  1  0  0  0  0
 16 27  1  0  0  0  0
 17 18  2  0  0  0  0
 17 22  1  0  0  0  0
 18 19  1  0  0  0  0
 18 26  1  0  0  0  0
 19 20  2  0  0  0  0
 19 25  1  0  0  0  0
 20 21  1  0  0  0  0
 20 24  1  0  0  0  0
 21 22  2  0  0  0  0
 21 23  1  0  0  0  0
 29 30  2  0  0  0  0
 29 31  1  0  0  0  0
M  CHG  1  11  -1
M  END
>  <MODEL>
       1

$$$$
