tmp_first_model_17_40.pdb
 OpenBabel08282502223D

 40 42  0  0  0  0  0  0  0  0999 V2000
  -12.9160   -1.7140  -25.1840 C   0  0  0  0  0  0  0  0  0  0  0  0
  -11.9780   -1.5820  -23.9810 C   0  0  0  0  0  0  0  0  0  0  0  0
  -11.6380   -0.1170  -23.7310 C   0  0  0  0  0  0  0  0  0  0  0  0
  -10.6830    0.0270  -22.5600 C   0  0  0  0  0  0  0  0  0  0  0  0
   -9.4830   -0.8220  -22.6530 N   0  0  0  0  0  0  0  0  0  0  0  0
   -8.4680   -0.4030  -21.8020 C   0  0  0  0  0  0  0  0  0  0  0  0
   -8.4000    0.7590  -21.4460 O   0  0  0  0  0  0  0  0  0  0  0  0
   -7.4530   -1.4340  -21.2760 C   0  0  0  0  0  0  0  0  0  0  0  0
   -6.5920   -0.8490  -20.1860 C   0  0  0  0  0  0  0  0  0  0  0  0
   -6.9080   -1.0570  -18.8670 C   0  0  0  0  0  0  0  0  0  0  0  0
   -6.2350   -0.5480  -17.7990 N   0  0  0  0  0  0  0  0  0  0  0  0
   -5.1980    0.2060  -18.0660 C   0  0  0  0  0  0  0  0  0  0  0  0
   -4.7600    0.5260  -19.3800 C   0  0  0  0  0  0  0  0  0  0  0  0
   -3.6340    1.3520  -19.6140 C   0  0  0  0  0  0  0  0  0  0  0  0
   -3.2470    1.6550  -20.8890 C   0  0  0  0  0  0  0  0  0  0  0  0
   -3.9670    1.1370  -21.9880 C   0  0  0  0  0  0  0  0  0  0  0  0
   -5.0600    0.3310  -21.7900 C   0  0  0  0  0  0  0  0  0  0  0  0
   -5.4830   -0.0030  -20.4760 C   0  0  0  0  0  0  0  0  0  0  0  0
   -5.6180   -0.0390  -22.6440 H   0  0  0  0  0  0  0  0  0  0  0  0
   -3.6460    1.3790  -22.9960 H   0  0  0  0  0  0  0  0  0  0  0  0
   -2.3830    2.2880  -21.0730 H   0  0  0  0  0  0  0  0  0  0  0  0
   -3.0890    1.7490  -18.7600 H   0  0  0  0  0  0  0  0  0  0  0  0
   -4.6410    0.6190  -17.2230 H   0  0  0  0  0  0  0  0  0  0  0  0
   -7.7600   -1.6810  -18.6060 H   0  0  0  0  0  0  0  0  0  0  0  0
   -8.0170   -2.2930  -20.8820 H   0  0  0  0  0  0  0  0  0  0  0  0
   -6.8430   -1.8020  -22.1130 H   0  0  0  0  0  0  0  0  0  0  0  0
   -9.7900   -2.2390  -22.8830 C   0  0  0  0  0  0  0  0  0  0  0  0
  -10.6700   -2.3680  -24.1250 C   0  0  0  0  0  0  0  0  0  0  0  0
  -10.8590   -3.4230  -24.3480 H   0  0  0  0  0  0  0  0  0  0  0  0
  -10.1040   -1.9960  -24.9850 H   0  0  0  0  0  0  0  0  0  0  0  0
  -10.3130   -2.6800  -22.0110 H   0  0  0  0  0  0  0  0  0  0  0  0
   -8.8690   -2.8180  -23.0220 H   0  0  0  0  0  0  0  0  0  0  0  0
  -11.2270   -0.2430  -21.6480 H   0  0  0  0  0  0  0  0  0  0  0  0
  -10.3580    1.0570  -22.4370 H   0  0  0  0  0  0  0  0  0  0  0  0
  -11.2260    0.3110  -24.6540 H   0  0  0  0  0  0  0  0  0  0  0  0
  -12.5550    0.4530  -23.5270 H   0  0  0  0  0  0  0  0  0  0  0  0
  -12.5010   -1.9430  -23.0790 H   0  0  0  0  0  0  0  0  0  0  0  0
  -12.4710   -1.2550  -26.0770 H   0  0  0  0  0  0  0  0  0  0  0  0
  -13.8580   -1.1870  -24.9910 H   0  0  0  0  0  0  0  0  0  0  0  0
  -13.1590   -2.7560  -25.4300 H   0  0  0  0  0  0  0  0  0  0  0  0
  1  2  1  0  0  0  0
  1 38  1  0  0  0  0
  1 39  1  0  0  0  0
  1 40  1  0  0  0  0
  2  3  1  0  0  0  0
  2 28  1  0  0  0  0
  2 37  1  0  0  0  0
  3  4  1  0  0  0  0
  3 35  1  0  0  0  0
  3 36  1  0  0  0  0
  4  5  1  0  0  0  0
  4 33  1  0  0  0  0
  4 34  1  0  0  0  0
  5  6  1  0  0  0  0
  5 27  1  0  0  0  0
  6  7  2  0  0  0  0
  6  8  1  0  0  0  0
  8  9  1  0  0  0  0
  8 25  1  0  0  0  0
  8 26  1  0  0  0  0
  9 10  2  0  0  0  0
  9 18  1  0  0  0  0
 10 11  1  0  0  0  0
 10 24  1  0  0  0  0
 11 12  2  0  0  0  0
 12 13  1  0  0  0  0
 12 23  1  0  0  0  0
 13 14  2  0  0  0  0
 13 18  1  0  0  0  0
 14 15  1  0  0  0  0
 14 22  1  0  0  0  0
 15 16  2  0  0  0  0
 15 21  1  0  0  0  0
 16 17  1  0  0  0  0
 16 20  1  0  0  0  0
 17 18  2  0  0  0  0
 17 19  1  0  0  0  0
 27 28  1  0  0  0  0
 27 31  1  0  0  0  0
 27 32  1  0  0  0  0
 28 29  1  0  0  0  0
 28 30  1  0  0  0  0
M  END
>  <MODEL>
       1

$$$$
