tmp_first_model_4_25.pdb
 OpenBabel08272518513D

 70 75  0  0  1  0  0  0  0  0999 V2000
   -8.1740   -7.0600  -23.9250 O   0  0  0  0  0  0  0  0  0  0  0  0
   -8.0720   -6.3080  -22.9720 C   0  0  0  0  0  0  0  0  0  0  0  0
   -9.1670   -5.3240  -22.5630 C   0  0  0  0  0  0  0  0  0  0  0  0
   -8.7710   -3.9080  -22.8510 N   0  3  1  0  0  0  0  0  0  0  0  0
   -8.4190   -3.7320  -24.3310 C   0  0  0  0  0  0  0  0  0  0  0  0
   -8.1330   -2.2950  -24.6860 C   0  0  0  0  0  0  0  0  0  0  0  0
   -7.3410   -1.9930  -25.7940 C   0  0  0  0  0  0  0  0  0  0  0  0
   -7.0610   -0.6800  -26.1490 C   0  0  0  0  0  0  0  0  0  0  0  0
   -7.5760    0.3470  -25.3650 C   0  0  0  0  0  0  0  0  0  0  0  0
   -7.2220    2.0020  -25.7710 Cl  0  0  0  0  0  0  0  0  0  0  0  0
   -8.3560    0.0710  -24.2530 C   0  0  0  0  0  0  0  0  0  0  0  0
   -8.6530   -1.2540  -23.9220 C   0  0  0  0  0  0  0  0  0  0  0  0
   -9.4340   -1.4940  -22.6530 C   0  0  2  0  0  0  0  0  0  0  0  0
   -8.6400   -0.9910  -21.4500 C   0  0  0  0  0  0  0  0  0  0  0  0
   -9.0660   -0.1370  -20.6970 O   0  0  0  0  0  0  0  0  0  0  0  0
   -7.4140   -1.5930  -21.2670 N   0  0  0  0  0  0  0  0  0  0  0  0
   -6.5060   -1.1470  -20.2740 C   0  0  0  0  0  0  0  0  0  0  0  0
   -6.7300   -1.4610  -18.9570 C   0  0  0  0  0  0  0  0  0  0  0  0
   -5.8410   -1.2390  -17.9590 N   0  0  0  0  0  0  0  0  0  0  0  0
   -4.7220   -0.6300  -18.2570 C   0  0  0  0  0  0  0  0  0  0  0  0
   -4.4110   -0.1490  -19.5600 C   0  0  0  0  0  0  0  0  0  0  0  0
   -3.2300    0.5970  -19.8070 C   0  0  0  0  0  0  0  0  0  0  0  0
   -2.9910    1.1360  -21.0410 C   0  0  0  0  0  0  0  0  0  0  0  0
   -3.9270    0.9390  -22.0830 C   0  0  0  0  0  0  0  0  0  0  0  0
   -5.0520    0.1700  -21.8860 C   0  0  0  0  0  0  0  0  0  0  0  0
   -5.3280   -0.3910  -20.6070 C   0  0  0  0  0  0  0  0  0  0  0  0
   -5.7320   -0.0200  -22.7120 H   0  0  0  0  0  0  0  0  0  0  0  0
   -3.7670    1.4230  -23.0450 H   0  0  0  0  0  0  0  0  0  0  0  0
   -2.0930    1.7210  -21.2240 H   0  0  0  0  0  0  0  0  0  0  0  0
   -2.5510    0.7670  -18.9780 H   0  0  0  0  0  0  0  0  0  0  0  0
   -3.9980   -0.4750  -17.4550 H   0  0  0  0  0  0  0  0  0  0  0  0
   -7.6580   -1.9430  -18.6600 H   0  0  0  0  0  0  0  0  0  0  0  0
   -6.9980   -2.0470  -22.0680 H   0  0  0  0  0  0  0  0  0  0  0  0
   -9.8670   -2.9500  -22.4540 C   0  0  0  0  0  0  0  0  0  0  0  0
  -10.1320   -3.1220  -21.4070 H   0  0  0  0  0  0  0  0  0  0  0  0
  -10.7350   -3.1890  -23.0780 H   0  0  0  0  0  0  0  0  0  0  0  0
  -10.3320   -0.8830  -22.6530 H   0  0  0  0  0  0  0  0  0  0  0  0
   -8.7400    0.8760  -23.6330 H   0  0  0  0  0  0  0  0  0  0  0  0
   -6.4430   -0.4490  -27.0100 H   0  0  0  0  0  0  0  0  0  0  0  0
   -6.9430   -2.8020  -26.3970 H   0  0  0  0  0  0  0  0  0  0  0  0
   -9.2610   -4.1150  -24.9150 H   0  0  0  0  0  0  0  0  0  0  0  0
   -7.5580   -4.3600  -24.5640 H   0  0  0  0  0  0  0  0  0  0  0  0
   -7.9320   -3.7030  -22.2750 H   0  0  0  0  0  0  0  0  0  0  0  0
  -10.0710   -5.5880  -23.1140 H   0  0  0  0  0  0  0  0  0  0  0  0
   -9.3760   -5.4110  -21.4920 H   0  0  0  0  0  0  0  0  0  0  0  0
   -6.9540   -6.2400  -22.1840 N   0  0  0  0  0  0  0  0  0  0  0  0
   -5.7550   -6.9210  -22.4660 C   0  0  0  0  0  0  0  0  0  0  0  0
   -4.9790   -7.4070  -21.4200 C   0  0  0  0  0  0  0  0  0  0  0  0
   -3.7760   -8.0200  -21.7070 C   0  0  0  0  0  0  0  0  0  0  0  0
   -3.2980   -8.1230  -23.0090 C   0  0  0  0  0  0  0  0  0  0  0  0
   -2.0600   -8.7670  -23.2450 N   0  0  0  0  0  0  0  0  0  0  0  0
   -1.0700   -8.7800  -22.1700 C   0  0  0  0  0  0  0  0  0  0  0  0
    0.2800   -9.1520  -22.7470 C   0  0  0  0  0  0  0  0  0  0  0  0
    0.1960  -10.4290  -23.3340 O   0  0  0  0  0  0  0  0  0  0  0  0
   -0.6710  -10.4400  -24.4380 C   0  0  0  0  0  0  0  0  0  0  0  0
   -1.9760   -9.6720  -24.2760 C   0  0  0  0  0  0  0  0  0  0  0  0
   -2.8840   -9.8770  -25.0680 O   0  0  0  0  0  0  0  0  0  0  0  0
   -0.9490  -11.4770  -24.6170 H   0  0  0  0  0  0  0  0  0  0  0  0
   -0.1780  -10.0710  -25.3500 H   0  0  0  0  0  0  0  0  0  0  0  0
    1.0320   -9.2100  -21.9590 H   0  0  0  0  0  0  0  0  0  0  0  0
    0.6100   -8.4000  -23.4770 H   0  0  0  0  0  0  0  0  0  0  0  0
   -1.0310   -7.7860  -21.7180 H   0  0  0  0  0  0  0  0  0  0  0  0
   -1.3420   -9.5180  -21.3990 H   0  0  0  0  0  0  0  0  0  0  0  0
   -4.0760   -7.6260  -24.0520 C   0  0  0  0  0  0  0  0  0  0  0  0
   -5.3120   -7.0690  -23.7800 C   0  0  0  0  0  0  0  0  0  0  0  0
   -5.9520   -6.7660  -24.5980 H   0  0  0  0  0  0  0  0  0  0  0  0
   -3.7360   -7.6950  -25.0770 H   0  0  0  0  0  0  0  0  0  0  0  0
   -3.2220   -8.5000  -20.9050 H   0  0  0  0  0  0  0  0  0  0  0  0
   -5.3040   -7.3110  -20.3870 H   0  0  0  0  0  0  0  0  0  0  0  0
   -6.9980   -5.7160  -21.3220 H   0  0  0  0  0  0  0  0  0  0  0  0
  1  2  2  0  0  0  0
  2  3  1  0  0  0  0
  2 46  1  0  0  0  0
  3  4  1  0  0  0  0
  3 44  1  0  0  0  0
  3 45  1  0  0  0  0
  4  5  1  0  0  0  0
  4 34  1  0  0  0  0
  4 43  1  1  0  0  0
  5  6  1  0  0  0  0
  5 41  1  0  0  0  0
  5 42  1  0  0  0  0
  6  7  2  0  0  0  0
  6 12  1  0  0  0  0
  7  8  1  0  0  0  0
  7 40  1  0  0  0  0
  8  9  2  0  0  0  0
  8 39  1  0  0  0  0
  9 10  1  0  0  0  0
  9 11  1  0  0  0  0
 11 12  2  0  0  0  0
 11 38  1  0  0  0  0
 12 13  1  0  0  0  0
 13 14  1  0  0  0  0
 13 34  1  0  0  0  0
 13 37  1  6  0  0  0
 14 15  2  0  0  0  0
 14 16  1  0  0  0  0
 16 17  1  0  0  0  0
 16 33  1  0  0  0  0
 17 18  2  0  0  0  0
 17 26  1  0  0  0  0
 18 19  1  0  0  0  0
 18 32  1  0  0  0  0
 19 20  2  0  0  0  0
 20 21  1  0  0  0  0
 20 31  1  0  0  0  0
 21 22  2  0  0  0  0
 21 26  1  0  0  0  0
 22 23  1  0  0  0  0
 22 30  1  0  0  0  0
 23 24  2  0  0  0  0
 23 29  1  0  0  0  0
 24 25  1  0  0  0  0
 24 28  1  0  0  0  0
 25 26  2  0  0  0  0
 25 27  1  0  0  0  0
 34 35  1  0  0  0  0
 34 36  1  0  0  0  0
 46 47  1  0  0  0  0
 46 70  1  0  0  0  0
 47 48  2  0  0  0  0
 47 65  1  0  0  0  0
 48 49  1  0  0  0  0
 48 69  1  0  0  0  0
 49 50  2  0  0  0  0
 49 68  1  0  0  0  0
 50 51  1  0  0  0  0
 50 64  1  0  0  0  0
 51 52  1  0  0  0  0
 51 56  1  0  0  0  0
 52 53  1  0  0  0  0
 52 62  1  0  0  0  0
 52 63  1  0  0  0  0
 53 54  1  0  0  0  0
 53 60  1  0  0  0  0
 53 61  1  0  0  0  0
 54 55  1  0  0  0  0
 55 56  1  0  0  0  0
 55 58  1  0  0  0  0
 55 59  1  0  0  0  0
 56 57  2  0  0  0  0
 64 65  2  0  0  0  0
 64 67  1  0  0  0  0
 65 66  1  0  0  0  0
M  CHG  1   4   1
M  END
>  <MODEL>
       1

$$$$
