tmp_first_model_6_37.pdb
 OpenBabel08272519583D

 56 60  0  0  1  0  0  0  0  0999 V2000
   -7.3100    3.4470  -21.8900 C   0  0  0  0  0  0  0  0  0  0  0  0
   -8.1440    2.9740  -22.9810 N   0  0  0  0  0  0  0  0  0  0  0  0
   -7.5740    2.2590  -23.9790 C   0  0  0  0  0  0  0  0  0  0  0  0
   -6.3600    2.1260  -24.0820 O   0  0  0  0  0  0  0  0  0  0  0  0
   -8.5250    1.6360  -25.0080 C   0  0  0  0  0  0  0  0  0  0  0  0
   -9.2740    0.5000  -24.5010 N   0  0  0  0  0  0  0  0  0  0  0  0
   -8.5720   -0.7560  -24.3040 C   0  0  0  0  0  0  0  0  0  0  0  0
   -8.9880   -1.4540  -22.9840 C   0  0  2  0  0  0  0  0  0  0  0  0
   -8.4390   -0.6650  -21.7640 C   0  0  0  0  0  0  0  0  0  0  0  0
   -8.8360    0.4020  -21.3410 O   0  0  0  0  0  0  0  0  0  0  0  0
   -7.4060   -1.3760  -21.2010 N   0  0  0  0  0  0  0  0  0  0  0  0
   -6.6070   -0.8040  -20.1720 C   0  0  0  0  0  0  0  0  0  0  0  0
   -6.9080   -1.0480  -18.8580 C   0  0  0  0  0  0  0  0  0  0  0  0
   -6.2030   -0.5590  -17.8070 N   0  0  0  0  0  0  0  0  0  0  0  0
   -5.1700    0.2040  -18.0730 C   0  0  0  0  0  0  0  0  0  0  0  0
   -4.7400    0.5430  -19.3880 C   0  0  0  0  0  0  0  0  0  0  0  0
   -3.6110    1.3760  -19.6300 C   0  0  0  0  0  0  0  0  0  0  0  0
   -3.2310    1.6810  -20.9090 C   0  0  0  0  0  0  0  0  0  0  0  0
   -3.9710    1.1780  -22.0010 C   0  0  0  0  0  0  0  0  0  0  0  0
   -5.0610    0.3650  -21.7930 C   0  0  0  0  0  0  0  0  0  0  0  0
   -5.4840    0.0290  -20.4790 C   0  0  0  0  0  0  0  0  0  0  0  0
   -5.5840   -0.0560  -22.6480 H   0  0  0  0  0  0  0  0  0  0  0  0
   -3.6660    1.3970  -23.0190 H   0  0  0  0  0  0  0  0  0  0  0  0
   -2.3590    2.3030  -21.0910 H   0  0  0  0  0  0  0  0  0  0  0  0
   -3.0670    1.7650  -18.7720 H   0  0  0  0  0  0  0  0  0  0  0  0
   -4.6210    0.6090  -17.2220 H   0  0  0  0  0  0  0  0  0  0  0  0
   -7.7620   -1.6710  -18.6040 H   0  0  0  0  0  0  0  0  0  0  0  0
   -7.0840   -2.6110  -21.8860 C   0  0  0  0  0  0  0  0  0  0  0  0
   -8.2900   -2.8500  -22.8230 C   0  0  2  0  0  0  0  0  0  0  0  0
   -7.8860   -3.5900  -24.1050 C   0  0  0  0  0  0  0  0  0  0  0  0
   -7.1150   -3.0390  -24.6560 H   0  0  0  0  0  0  0  0  0  0  0  0
   -7.4700   -4.5750  -23.8650 H   0  0  0  0  0  0  0  0  0  0  0  0
   -8.7360   -3.7450  -24.7790 H   0  0  0  0  0  0  0  0  0  0  0  0
   -9.0060   -3.4790  -22.2880 H   0  0  0  0  0  0  0  0  0  0  0  0
   -6.1480   -2.5130  -22.4580 H   0  0  0  0  0  0  0  0  0  0  0  0
   -6.9430   -3.4260  -21.1640 H   0  0  0  0  0  0  0  0  0  0  0  0
  -10.5100   -1.4660  -22.9140 C   0  0  0  0  0  0  0  0  0  0  0  0
  -11.1700   -2.3050  -22.0120 C   0  0  0  0  0  0  0  0  0  0  0  0
  -12.5520   -2.3100  -21.9180 C   0  0  0  0  0  0  0  0  0  0  0  0
  -13.3130   -1.4470  -22.7110 C   0  0  0  0  0  0  0  0  0  0  0  0
  -12.6770   -0.5580  -23.5560 C   0  0  0  0  0  0  0  0  0  0  0  0
  -11.2830   -0.5420  -23.6300 C   0  0  0  0  0  0  0  0  0  0  0  0
  -10.6380    0.5730  -24.4000 C   0  0  0  0  0  0  0  0  0  0  0  0
  -11.3000    1.4980  -24.8550 O   0  0  0  0  0  0  0  0  0  0  0  0
  -13.2140    0.1730  -24.1520 H   0  0  0  0  0  0  0  0  0  0  0  0
  -14.3960   -1.4460  -22.6410 H   0  0  0  0  0  0  0  0  0  0  0  0
  -13.0390   -2.9770  -21.2130 H   0  0  0  0  0  0  0  0  0  0  0  0
  -10.5970   -2.9490  -21.3500 H   0  0  0  0  0  0  0  0  0  0  0  0
   -8.7690   -1.4420  -25.1430 H   0  0  0  0  0  0  0  0  0  0  0  0
   -7.5020   -0.5260  -24.2740 H   0  0  0  0  0  0  0  0  0  0  0  0
   -7.8900    1.3370  -25.8510 H   0  0  0  0  0  0  0  0  0  0  0  0
   -9.2820    2.3450  -25.3510 H   0  0  0  0  0  0  0  0  0  0  0  0
   -9.1410    2.9170  -22.8510 H   0  0  0  0  0  0  0  0  0  0  0  0
   -6.7480    2.6110  -21.4470 H   0  0  0  0  0  0  0  0  0  0  0  0
   -6.5850    4.1860  -22.2500 H   0  0  0  0  0  0  0  0  0  0  0  0
   -7.9580    3.9150  -21.1470 H   0  0  0  0  0  0  0  0  0  0  0  0
  1  2  1  0  0  0  0
  1 54  1  0  0  0  0
  1 55  1  0  0  0  0
  1 56  1  0  0  0  0
  2  3  1  0  0  0  0
  2 53  1  0  0  0  0
  3  4  2  0  0  0  0
  3  5  1  0  0  0  0
  5  6  1  0  0  0  0
  5 51  1  0  0  0  0
  5 52  1  0  0  0  0
  6  7  1  0  0  0  0
  6 43  1  0  0  0  0
  7  8  1  0  0  0  0
  7 49  1  0  0  0  0
  7 50  1  0  0  0  0
  8  9  1  1  0  0  0
  8 29  1  0  0  0  0
  8 37  1  0  0  0  0
  9 10  2  0  0  0  0
  9 11  1  0  0  0  0
 11 12  1  0  0  0  0
 11 28  1  0  0  0  0
 12 13  2  0  0  0  0
 12 21  1  0  0  0  0
 13 14  1  0  0  0  0
 13 27  1  0  0  0  0
 14 15  2  0  0  0  0
 15 16  1  0  0  0  0
 15 26  1  0  0  0  0
 16 17  2  0  0  0  0
 16 21  1  0  0  0  0
 17 18  1  0  0  0  0
 17 25  1  0  0  0  0
 18 19  2  0  0  0  0
 18 24  1  0  0  0  0
 19 20  1  0  0  0  0
 19 23  1  0  0  0  0
 20 21  2  0  0  0  0
 20 22  1  0  0  0  0
 28 29  1  0  0  0  0
 28 35  1  0  0  0  0
 28 36  1  0  0  0  0
 29 30  1  0  0  0  0
 29 34  1  1  0  0  0
 30 31  1  0  0  0  0
 30 32  1  0  0  0  0
 30 33  1  0  0  0  0
 37 38  2  0  0  0  0
 37 42  1  0  0  0  0
 38 39  1  0  0  0  0
 38 48  1  0  0  0  0
 39 40  2  0  0  0  0
 39 47  1  0  0  0  0
 40 41  1  0  0  0  0
 40 46  1  0  0  0  0
 41 42  2  0  0  0  0
 41 45  1  0  0  0  0
 42 43  1  0  0  0  0
 43 44  2  0  0  0  0
M  END
>  <MODEL>
       1

$$$$
