tmp_first_model_8_58.pdb
 OpenBabel08272521063D

 42 45  0  0  1  0  0  0  0  0999 V2000
  -12.0280   -4.1040  -22.9120 C   0  0  0  0  0  0  0  0  0  0  0  0
  -10.6170   -4.4270  -22.9250 N   0  0  0  0  0  0  0  0  0  0  0  0
   -9.7700   -3.9770  -21.8440 C   0  0  0  0  0  0  0  0  0  0  0  0
   -8.6140   -3.1240  -22.4000 C   0  0  1  0  0  0  0  0  0  0  0  0
   -7.6290   -2.6940  -21.3170 C   0  0  0  0  0  0  0  0  0  0  0  0
   -7.0330   -3.4840  -20.6140 O   0  0  0  0  0  0  0  0  0  0  0  0
   -7.4110   -1.3350  -21.2130 N   0  0  0  0  0  0  0  0  0  0  0  0
   -6.6060   -0.8050  -20.1840 C   0  0  0  0  0  0  0  0  0  0  0  0
   -6.9030   -1.0630  -18.8720 C   0  0  0  0  0  0  0  0  0  0  0  0
   -6.2130   -0.5660  -17.8190 N   0  0  0  0  0  0  0  0  0  0  0  0
   -5.1830    0.2060  -18.0790 C   0  0  0  0  0  0  0  0  0  0  0  0
   -4.7530    0.5380  -19.3930 C   0  0  0  0  0  0  0  0  0  0  0  0
   -3.6210    1.3600  -19.6260 C   0  0  0  0  0  0  0  0  0  0  0  0
   -3.2350    1.6560  -20.9050 C   0  0  0  0  0  0  0  0  0  0  0  0
   -3.9630    1.1440  -22.0030 C   0  0  0  0  0  0  0  0  0  0  0  0
   -5.0430    0.3230  -21.8060 C   0  0  0  0  0  0  0  0  0  0  0  0
   -5.4780    0.0200  -20.4900 C   0  0  0  0  0  0  0  0  0  0  0  0
   -5.5560   -0.1090  -22.6610 H   0  0  0  0  0  0  0  0  0  0  0  0
   -3.6330    1.3730  -23.0130 H   0  0  0  0  0  0  0  0  0  0  0  0
   -2.3640    2.2780  -21.0890 H   0  0  0  0  0  0  0  0  0  0  0  0
   -3.0820    1.7540  -18.7690 H   0  0  0  0  0  0  0  0  0  0  0  0
   -4.6330    0.6060  -17.2280 H   0  0  0  0  0  0  0  0  0  0  0  0
   -7.7490   -1.7020  -18.6260 H   0  0  0  0  0  0  0  0  0  0  0  0
   -7.7130   -0.7140  -21.9520 H   0  0  0  0  0  0  0  0  0  0  0  0
   -7.9100   -3.9410  -23.4600 C   0  0  0  0  0  0  0  0  0  0  0  0
   -6.5630   -3.7240  -23.7250 C   0  0  0  0  0  0  0  0  0  0  0  0
   -5.9410   -4.4500  -24.7240 C   0  0  0  0  0  0  0  0  0  0  0  0
   -4.2760   -4.1220  -25.0880 Cl  0  0  0  0  0  0  0  0  0  0  0  0
   -6.6230   -5.4220  -25.4510 C   0  0  0  0  0  0  0  0  0  0  0  0
   -7.9620   -5.6470  -25.1770 C   0  0  0  0  0  0  0  0  0  0  0  0
   -8.6120   -4.8970  -24.1950 C   0  0  0  0  0  0  0  0  0  0  0  0
  -10.0930   -5.0670  -24.0150 C   0  0  0  0  0  0  0  0  0  0  0  0
  -10.7810   -5.6850  -24.8110 O   0  0  0  0  0  0  0  0  0  0  0  0
   -8.5400   -6.3930  -25.7170 H   0  0  0  0  0  0  0  0  0  0  0  0
   -6.1150   -5.9710  -26.2370 H   0  0  0  0  0  0  0  0  0  0  0  0
   -6.0100   -2.9920  -23.1460 H   0  0  0  0  0  0  0  0  0  0  0  0
   -9.0400   -2.2160  -22.8490 H   0  0  0  0  0  0  0  0  0  0  0  0
  -10.3960   -3.4030  -21.1590 H   0  0  0  0  0  0  0  0  0  0  0  0
   -9.3670   -4.8530  -21.3190 H   0  0  0  0  0  0  0  0  0  0  0  0
  -12.4640   -4.3200  -21.9250 H   0  0  0  0  0  0  0  0  0  0  0  0
  -12.4900   -4.7070  -23.6950 H   0  0  0  0  0  0  0  0  0  0  0  0
  -12.1540   -3.0380  -23.1470 H   0  0  0  0  0  0  0  0  0  0  0  0
  1  2  1  0  0  0  0
  1 40  1  0  0  0  0
  1 41  1  0  0  0  0
  1 42  1  0  0  0  0
  2  3  1  0  0  0  0
  2 32  1  0  0  0  0
  3  4  1  0  0  0  0
  3 38  1  0  0  0  0
  3 39  1  0  0  0  0
  4  5  1  0  0  0  0
  4 25  1  0  0  0  0
  4 37  1  6  0  0  0
  5  6  2  0  0  0  0
  5  7  1  0  0  0  0
  7  8  1  0  0  0  0
  7 24  1  0  0  0  0
  8  9  2  0  0  0  0
  8 17  1  0  0  0  0
  9 10  1  0  0  0  0
  9 23  1  0  0  0  0
 10 11  2  0  0  0  0
 11 12  1  0  0  0  0
 11 22  1  0  0  0  0
 12 13  2  0  0  0  0
 12 17  1  0  0  0  0
 13 14  1  0  0  0  0
 13 21  1  0  0  0  0
 14 15  2  0  0  0  0
 14 20  1  0  0  0  0
 15 16  1  0  0  0  0
 15 19  1  0  0  0  0
 16 17  2  0  0  0  0
 16 18  1  0  0  0  0
 25 26  2  0  0  0  0
 25 31  1  0  0  0  0
 26 27  1  0  0  0  0
 26 36  1  0  0  0  0
 27 28  1  0  0  0  0
 27 29  2  0  0  0  0
 29 30  1  0  0  0  0
 29 35  1  0  0  0  0
 30 31  2  0  0  0  0
 30 34  1  0  0  0  0
 31 32  1  0  0  0  0
 32 33  2  0  0  0  0
M  END
>  <MODEL>
       1

$$$$
