tmp_first_model_1_39.pdb
 OpenBabel08272517043D

 40 44  0  0  1  0  0  0  0  0999 V2000
   -7.2400    0.9300  -25.5970 C   0  0  0  0  0  0  0  0  0  0  0  0
   -6.5130   -0.3930  -25.4060 C   0  0  0  0  0  0  0  0  0  0  0  0
   -5.3020   -0.5090  -25.5400 O   0  0  0  0  0  0  0  0  0  0  0  0
   -7.2750   -1.4750  -25.0820 N   0  0  0  0  0  0  0  0  0  0  0  0
   -6.6410   -2.7660  -24.7370 C   0  0  0  0  0  0  0  0  0  0  0  0
   -7.8120   -3.4870  -24.0470 C   0  0  2  0  0  0  0  0  0  0  0  0
   -9.0050   -2.9600  -24.8620 C   0  0  0  0  0  0  0  0  0  0  0  0
   -8.6630   -1.4870  -24.5550 C   0  0  1  0  0  0  0  0  0  0  0  0
   -8.5650   -1.5570  -23.0860 C   0  0  0  0  0  0  0  0  0  0  0  0
   -8.1640   -0.6140  -22.0850 C   0  0  0  0  0  0  0  0  0  0  0  0
   -8.3430    0.5780  -21.9890 O   0  5  0  0  0  0  0  0  0  0  0  0
   -7.3990   -1.3920  -21.1830 N   0  0  0  0  0  0  0  0  0  0  0  0
   -6.5810   -0.8240  -20.1730 C   0  0  0  0  0  0  0  0  0  0  0  0
   -6.8900   -1.0630  -18.8610 C   0  0  0  0  0  0  0  0  0  0  0  0
   -6.1920   -0.5610  -17.8150 N   0  0  0  0  0  0  0  0  0  0  0  0
   -5.1680    0.2090  -18.0830 C   0  0  0  0  0  0  0  0  0  0  0  0
   -4.7290    0.5290  -19.3990 C   0  0  0  0  0  0  0  0  0  0  0  0
   -3.5950    1.3550  -19.6310 C   0  0  0  0  0  0  0  0  0  0  0  0
   -3.1830    1.6230  -20.9070 C   0  0  0  0  0  0  0  0  0  0  0  0
   -3.8810    1.0690  -22.0060 C   0  0  0  0  0  0  0  0  0  0  0  0
   -4.9770    0.2680  -21.8070 C   0  0  0  0  0  0  0  0  0  0  0  0
   -5.4470   -0.0090  -20.4910 C   0  0  0  0  0  0  0  0  0  0  0  0
   -5.4880   -0.1510  -22.6720 H   0  0  0  0  0  0  0  0  0  0  0  0
   -3.5550    1.2850  -23.0200 H   0  0  0  0  0  0  0  0  0  0  0  0
   -2.3240    2.2650  -21.0880 H   0  0  0  0  0  0  0  0  0  0  0  0
   -3.0750    1.7680  -18.7720 H   0  0  0  0  0  0  0  0  0  0  0  0
   -4.6280    0.6160  -17.2270 H   0  0  0  0  0  0  0  0  0  0  0  0
   -7.7430   -1.6850  -18.6070 H   0  0  0  0  0  0  0  0  0  0  0  0
   -7.2530   -2.7110  -21.6310 C   0  0  0  0  0  0  0  0  0  0  0  0
   -6.5350   -3.5590  -21.1580 O   0  0  0  0  0  0  0  0  0  0  0  0
   -8.0630   -2.7900  -22.7610 N   0  0  0  0  0  0  0  0  0  0  0  0
   -9.2840   -0.6920  -24.9760 H   0  0  0  0  0  0  0  0  0  0  0  0
   -9.9670   -3.2770  -24.4630 H   0  0  0  0  0  0  0  0  0  0  0  0
   -8.9260   -3.1960  -25.9280 H   0  0  0  0  0  0  0  0  0  0  0  0
   -7.7020   -4.5550  -23.9060 H   0  0  0  0  0  0  0  0  0  0  0  0
   -5.7910   -2.6290  -24.0600 H   0  0  0  0  0  0  0  0  0  0  0  0
   -6.2970   -3.2670  -25.6440 H   0  0  0  0  0  0  0  0  0  0  0  0
   -6.4890    1.6590  -25.9030 H   0  0  0  0  0  0  0  0  0  0  0  0
   -7.7270    1.2580  -24.6710 H   0  0  0  0  0  0  0  0  0  0  0  0
   -8.0200    0.8660  -26.3660 H   0  0  0  0  0  0  0  0  0  0  0  0
  1  2  1  0  0  0  0
  1 38  1  0  0  0  0
  1 39  1  0  0  0  0
  1 40  1  0  0  0  0
  2  3  2  0  0  0  0
  2  4  1  0  0  0  0
  4  5  1  0  0  0  0
  4  8  1  0  0  0  0
  5  6  1  0  0  0  0
  5 36  1  0  0  0  0
  5 37  1  0  0  0  0
  6  7  1  0  0  0  0
  6 31  1  0  0  0  0
  6 35  1  1  0  0  0
  7  8  1  0  0  0  0
  7 33  1  0  0  0  0
  7 34  1  0  0  0  0
  8  9  1  0  0  0  0
  8 32  1  6  0  0  0
  9 10  2  0  0  0  0
  9 31  1  0  0  0  0
 10 11  1  0  0  0  0
 10 12  1  0  0  0  0
 12 13  1  0  0  0  0
 12 29  1  0  0  0  0
 13 14  2  0  0  0  0
 13 22  1  0  0  0  0
 14 15  1  0  0  0  0
 14 28  1  0  0  0  0
 15 16  2  0  0  0  0
 16 17  1  0  0  0  0
 16 27  1  0  0  0  0
 17 18  2  0  0  0  0
 17 22  1  0  0  0  0
 18 19  1  0  0  0  0
 18 26  1  0  0  0  0
 19 20  2  0  0  0  0
 19 25  1  0  0  0  0
 20 21  1  0  0  0  0
 20 24  1  0  0  0  0
 21 22  2  0  0  0  0
 21 23  1  0  0  0  0
 29 30  2  0  0  0  0
 29 31  1  0  0  0  0
M  CHG  1  11  -1
M  END
>  <MODEL>
       1

$$$$
