tmp_first_model_15_59.pdb
 OpenBabel08282501153D

 60 65  0  0  1  0  0  0  0  0999 V2000
  -14.3590   -1.5460  -23.7170 C   0  0  0  0  0  0  0  0  0  0  0  0
  -13.7360   -2.7530  -23.2370 N   0  0  0  0  0  0  0  0  0  0  0  0
  -13.3410   -2.7830  -21.9440 C   0  0  0  0  0  0  0  0  0  0  0  0
  -13.6770   -1.9310  -21.1380 O   0  0  0  0  0  0  0  0  0  0  0  0
  -12.4590   -3.9720  -21.5860 C   0  0  0  0  0  0  0  0  0  0  0  0
  -11.1310   -3.9540  -22.1940 N   0  0  0  0  0  0  0  0  0  0  0  0
  -10.0030   -3.4300  -21.4290 C   0  0  0  0  0  0  0  0  0  0  0  0
   -8.8070   -2.9620  -22.2890 C   0  0  2  0  0  0  0  0  0  0  0  0
   -7.5740   -2.7160  -21.3940 C   0  0  0  0  0  0  0  0  0  0  0  0
   -6.8100   -3.5390  -20.9330 O   0  0  0  0  0  0  0  0  0  0  0  0
   -7.4130   -1.3530  -21.2240 N   0  0  0  0  0  0  0  0  0  0  0  0
   -6.5980   -0.8340  -20.1850 C   0  0  0  0  0  0  0  0  0  0  0  0
   -6.9050   -1.0770  -18.8680 C   0  0  0  0  0  0  0  0  0  0  0  0
   -6.2210   -0.5620  -17.8140 N   0  0  0  0  0  0  0  0  0  0  0  0
   -5.1920    0.2060  -18.0810 C   0  0  0  0  0  0  0  0  0  0  0  0
   -4.7470    0.5160  -19.3990 C   0  0  0  0  0  0  0  0  0  0  0  0
   -3.6180    1.3430  -19.6350 C   0  0  0  0  0  0  0  0  0  0  0  0
   -3.2140    1.6120  -20.9140 C   0  0  0  0  0  0  0  0  0  0  0  0
   -3.9150    1.0680  -22.0150 C   0  0  0  0  0  0  0  0  0  0  0  0
   -5.0150    0.2680  -21.8130 C   0  0  0  0  0  0  0  0  0  0  0  0
   -5.4630   -0.0170  -20.4940 C   0  0  0  0  0  0  0  0  0  0  0  0
   -5.5480   -0.1550  -22.6600 H   0  0  0  0  0  0  0  0  0  0  0  0
   -3.5840    1.2930  -23.0260 H   0  0  0  0  0  0  0  0  0  0  0  0
   -2.3520    2.2510  -21.0940 H   0  0  0  0  0  0  0  0  0  0  0  0
   -3.0960    1.7620  -18.7780 H   0  0  0  0  0  0  0  0  0  0  0  0
   -4.6450    0.6240  -17.2340 H   0  0  0  0  0  0  0  0  0  0  0  0
   -7.7480   -1.7180  -18.6150 H   0  0  0  0  0  0  0  0  0  0  0  0
   -8.4000   -0.5570  -21.9310 C   0  0  0  0  0  0  0  0  0  0  0  0
   -9.0350   -1.5510  -22.9050 C   0  0  2  0  0  0  0  0  0  0  0  0
  -10.4910   -1.2170  -23.2510 C   0  0  0  0  0  0  0  0  0  0  0  0
  -10.5680    0.0400  -24.0250 C   0  0  0  0  0  0  0  0  0  0  0  0
  -10.7550    1.2410  -23.4920 N   0  0  0  0  0  0  0  0  0  0  0  0
  -10.6900    2.0790  -24.5230 N   0  0  0  0  0  0  0  0  0  0  0  0
  -10.4720    1.4020  -25.6200 N   0  5  0  0  0  0  0  0  0  0  0  0
  -10.3860    0.1070  -25.3360 N   0  0  0  0  0  0  0  0  0  0  0  0
  -11.0960   -1.1010  -22.3490 H   0  0  0  0  0  0  0  0  0  0  0  0
  -10.9060   -2.0210  -23.8590 H   0  0  0  0  0  0  0  0  0  0  0  0
   -8.4600   -1.5290  -23.8400 H   0  0  0  0  0  0  0  0  0  0  0  0
   -9.1480   -0.1380  -21.2450 H   0  0  0  0  0  0  0  0  0  0  0  0
   -7.9490    0.2870  -22.4620 H   0  0  0  0  0  0  0  0  0  0  0  0
   -8.5420   -4.0030  -23.3480 C   0  0  0  0  0  0  0  0  0  0  0  0
   -7.2680   -4.1180  -23.9070 C   0  0  0  0  0  0  0  0  0  0  0  0
   -7.0330   -5.0520  -24.8990 C   0  0  0  0  0  0  0  0  0  0  0  0
   -5.4580   -5.1170  -25.6470 Cl  0  0  0  0  0  0  0  0  0  0  0  0
   -8.0490   -5.8970  -25.3510 C   0  0  0  0  0  0  0  0  0  0  0  0
   -9.3280   -5.7480  -24.8390 C   0  0  0  0  0  0  0  0  0  0  0  0
   -9.5810   -4.7830  -23.8620 C   0  0  0  0  0  0  0  0  0  0  0  0
  -10.9860   -4.5460  -23.4110 C   0  0  0  0  0  0  0  0  0  0  0  0
  -11.9580   -4.8950  -24.0830 O   0  0  0  0  0  0  0  0  0  0  0  0
  -10.1380   -6.3900  -25.1800 H   0  0  0  0  0  0  0  0  0  0  0  0
   -7.8370   -6.6260  -26.1270 H   0  0  0  0  0  0  0  0  0  0  0  0
   -6.4700   -3.4680  -23.5680 H   0  0  0  0  0  0  0  0  0  0  0  0
  -10.3630   -2.5800  -20.8470 H   0  0  0  0  0  0  0  0  0  0  0  0
   -9.6460   -4.1910  -20.7420 H   0  0  0  0  0  0  0  0  0  0  0  0
  -12.3950   -4.0190  -20.4990 H   0  0  0  0  0  0  0  0  0  0  0  0
  -12.9820   -4.8500  -21.9670 H   0  0  0  0  0  0  0  0  0  0  0  0
  -13.4480   -3.5050  -23.8460 H   0  0  0  0  0  0  0  0  0  0  0  0
  -14.6670   -1.6540  -24.7590 H   0  0  0  0  0  0  0  0  0  0  0  0
  -15.2170   -1.3270  -23.0830 H   0  0  0  0  0  0  0  0  0  0  0  0
  -13.6540   -0.7120  -23.6230 H   0  0  0  0  0  0  0  0  0  0  0  0
  1  2  1  0  0  0  0
  1 58  1  0  0  0  0
  1 59  1  0  0  0  0
  1 60  1  0  0  0  0
  2  3  1  0  0  0  0
  2 57  1  0  0  0  0
  3  4  2  0  0  0  0
  3  5  1  0  0  0  0
  5  6  1  0  0  0  0
  5 55  1  0  0  0  0
  5 56  1  0  0  0  0
  6  7  1  0  0  0  0
  6 48  1  0  0  0  0
  7  8  1  0  0  0  0
  7 53  1  0  0  0  0
  7 54  1  0  0  0  0
  8  9  1  1  0  0  0
  8 29  1  0  0  0  0
  8 41  1  0  0  0  0
  9 10  2  0  0  0  0
  9 11  1  0  0  0  0
 11 12  1  0  0  0  0
 11 28  1  0  0  0  0
 12 13  2  0  0  0  0
 12 21  1  0  0  0  0
 13 14  1  0  0  0  0
 13 27  1  0  0  0  0
 14 15  2  0  0  0  0
 15 16  1  0  0  0  0
 15 26  1  0  0  0  0
 16 17  2  0  0  0  0
 16 21  1  0  0  0  0
 17 18  1  0  0  0  0
 17 25  1  0  0  0  0
 18 19  2  0  0  0  0
 18 24  1  0  0  0  0
 19 20  1  0  0  0  0
 19 23  1  0  0  0  0
 20 21  2  0  0  0  0
 20 22  1  0  0  0  0
 28 29  1  0  0  0  0
 28 39  1  0  0  0  0
 28 40  1  0  0  0  0
 29 30  1  0  0  0  0
 29 38  1  6  0  0  0
 30 31  1  0  0  0  0
 30 36  1  0  0  0  0
 30 37  1  0  0  0  0
 31 32  1  0  0  0  0
 31 35  2  0  0  0  0
 32 33  2  0  0  0  0
 33 34  1  0  0  0  0
 34 35  1  0  0  0  0
 41 42  2  0  0  0  0
 41 47  1  0  0  0  0
 42 43  1  0  0  0  0
 42 52  1  0  0  0  0
 43 44  1  0  0  0  0
 43 45  2  0  0  0  0
 45 46  1  0  0  0  0
 45 51  1  0  0  0  0
 46 47  2  0  0  0  0
 46 50  1  0  0  0  0
 47 48  1  0  0  0  0
 48 49  2  0  0  0  0
M  CHG  1  34  -1
M  END
>  <MODEL>
       1

$$$$
