tmp_first_model_19_13.pdb
 OpenBabel08282503233D

 69 74  0  0  1  0  0  0  0  0999 V2000
   -7.4710    3.3810  -21.8440 C   0  0  0  0  0  0  0  0  0  0  0  0
   -8.4870    2.9050  -22.7700 N   0  0  0  0  0  0  0  0  0  0  0  0
   -8.0460    2.1480  -23.8170 C   0  0  0  0  0  0  0  0  0  0  0  0
   -6.8620    1.9320  -24.0140 O   0  0  0  0  0  0  0  0  0  0  0  0
   -9.1200    1.5720  -24.7350 C   0  0  0  0  0  0  0  0  0  0  0  0
   -9.7170    0.3990  -24.1280 N   0  0  0  0  0  0  0  0  0  0  0  0
   -8.9360   -0.8270  -24.0690 C   0  0  0  0  0  0  0  0  0  0  0  0
   -9.2040   -1.6050  -22.7600 C   0  0  2  0  0  0  0  0  0  0  0  0
   -8.6270   -0.8110  -21.5590 C   0  0  0  0  0  0  0  0  0  0  0  0
   -9.1070    0.1680  -21.0230 O   0  0  0  0  0  0  0  0  0  0  0  0
   -7.4290   -1.3860  -21.2020 N   0  0  0  0  0  0  0  0  0  0  0  0
   -6.6220   -0.8170  -20.1880 C   0  0  0  0  0  0  0  0  0  0  0  0
   -6.9350   -1.0510  -18.8730 C   0  0  0  0  0  0  0  0  0  0  0  0
   -6.2260   -0.5760  -17.8230 N   0  0  0  0  0  0  0  0  0  0  0  0
   -5.1890    0.1800  -18.0900 C   0  0  0  0  0  0  0  0  0  0  0  0
   -4.7560    0.5070  -19.4070 C   0  0  0  0  0  0  0  0  0  0  0  0
   -3.6280    1.3360  -19.6430 C   0  0  0  0  0  0  0  0  0  0  0  0
   -3.2460    1.6440  -20.9180 C   0  0  0  0  0  0  0  0  0  0  0  0
   -3.9720    1.1400  -22.0190 C   0  0  0  0  0  0  0  0  0  0  0  0
   -5.0730    0.3400  -21.8210 C   0  0  0  0  0  0  0  0  0  0  0  0
   -5.4900   -0.0040  -20.5050 C   0  0  0  0  0  0  0  0  0  0  0  0
   -5.6400   -0.0050  -22.6810 H   0  0  0  0  0  0  0  0  0  0  0  0
   -3.6610    1.3910  -23.0290 H   0  0  0  0  0  0  0  0  0  0  0  0
   -2.3870    2.2860  -21.0910 H   0  0  0  0  0  0  0  0  0  0  0  0
   -3.0940    1.7300  -18.7810 H   0  0  0  0  0  0  0  0  0  0  0  0
   -4.6250    0.5750  -17.2440 H   0  0  0  0  0  0  0  0  0  0  0  0
   -7.8010   -1.6610  -18.6330 H   0  0  0  0  0  0  0  0  0  0  0  0
   -7.0770   -2.5570  -21.9790 C   0  0  0  0  0  0  0  0  0  0  0  0
   -8.3850   -2.9310  -22.6950 C   0  0  2  0  0  0  0  0  0  0  0  0
   -8.0940   -3.7020  -23.9890 C   0  0  0  0  0  0  0  0  0  0  0  0
   -9.2870   -4.2890  -24.5510 N   0  0  0  0  0  0  0  0  0  0  0  0
   -9.2850   -4.9610  -25.7430 C   0  0  0  0  0  0  0  0  0  0  0  0
  -10.4420   -5.6180  -26.2060 C   0  0  0  0  0  0  0  0  0  0  0  0
  -10.4210   -6.0320  -27.5180 C   0  0  0  0  0  0  0  0  0  0  0  0
   -9.3210   -5.9910  -28.2850 N   0  0  0  0  0  0  0  0  0  0  0  0
   -8.2130   -5.5560  -27.6780 C   0  0  0  0  0  0  0  0  0  0  0  0
   -6.9190   -5.7910  -28.4370 C   0  0  0  0  0  0  0  0  0  0  0  0
   -7.1290   -5.7450  -29.5130 H   0  0  0  0  0  0  0  0  0  0  0  0
   -6.5580   -6.8120  -28.2200 H   0  0  0  0  0  0  0  0  0  0  0  0
   -6.1270   -5.0780  -28.1720 H   0  0  0  0  0  0  0  0  0  0  0  0
   -8.1460   -5.0010  -26.4560 N   0  0  0  0  0  0  0  0  0  0  0  0
  -11.3290   -6.4240  -27.9820 H   0  0  0  0  0  0  0  0  0  0  0  0
  -11.3030   -5.8110  -25.5690 H   0  0  0  0  0  0  0  0  0  0  0  0
  -10.1730   -3.9810  -24.1680 H   0  0  0  0  0  0  0  0  0  0  0  0
   -7.3840   -4.5050  -23.7650 H   0  0  0  0  0  0  0  0  0  0  0  0
   -7.5890   -3.0600  -24.7250 H   0  0  0  0  0  0  0  0  0  0  0  0
   -8.9380   -3.6160  -22.0440 H   0  0  0  0  0  0  0  0  0  0  0  0
   -6.2760   -2.3380  -22.7050 H   0  0  0  0  0  0  0  0  0  0  0  0
   -6.7240   -3.3660  -21.3320 H   0  0  0  0  0  0  0  0  0  0  0  0
  -10.7080   -1.7530  -22.6190 C   0  0  0  0  0  0  0  0  0  0  0  0
  -11.2700   -2.7630  -21.8340 C   0  0  0  0  0  0  0  0  0  0  0  0
  -12.6420   -2.8600  -21.6990 C   0  0  0  0  0  0  0  0  0  0  0  0
  -13.2840   -4.0870  -20.6490 Cl  0  0  0  0  0  0  0  0  0  0  0  0
  -13.5130   -1.9780  -22.3330 C   0  0  0  0  0  0  0  0  0  0  0  0
  -12.9640   -0.9280  -23.0420 C   0  0  0  0  0  0  0  0  0  0  0  0
  -11.5830   -0.8050  -23.1730 C   0  0  0  0  0  0  0  0  0  0  0  0
  -11.0620    0.4030  -23.8870 C   0  0  0  0  0  0  0  0  0  0  0  0
  -11.7860    1.3340  -24.2160 O   0  0  0  0  0  0  0  0  0  0  0  0
  -13.5760   -0.1600  -23.4980 H   0  0  0  0  0  0  0  0  0  0  0  0
  -14.5840   -2.1140  -22.2460 H   0  0  0  0  0  0  0  0  0  0  0  0
  -10.6610   -3.4560  -21.2660 H   0  0  0  0  0  0  0  0  0  0  0  0
   -7.8770   -0.5670  -24.1530 H   0  0  0  0  0  0  0  0  0  0  0  0
   -9.1890   -1.4760  -24.9190 H   0  0  0  0  0  0  0  0  0  0  0  0
   -8.6540    1.3030  -25.6910 H   0  0  0  0  0  0  0  0  0  0  0  0
   -9.9270    2.2860  -24.9200 H   0  0  0  0  0  0  0  0  0  0  0  0
   -9.4020    2.6910  -22.3880 H   0  0  0  0  0  0  0  0  0  0  0  0
   -7.0870    2.5580  -21.2140 H   0  0  0  0  0  0  0  0  0  0  0  0
   -6.6460    3.7820  -22.4370 H   0  0  0  0  0  0  0  0  0  0  0  0
   -7.8800    4.1960  -21.2410 H   0  0  0  0  0  0  0  0  0  0  0  0
  1  2  1  0  0  0  0
  1 67  1  0  0  0  0
  1 68  1  0  0  0  0
  1 69  1  0  0  0  0
  2  3  1  0  0  0  0
  2 66  1  0  0  0  0
  3  4  2  0  0  0  0
  3  5  1  0  0  0  0
  5  6  1  0  0  0  0
  5 64  1  0  0  0  0
  5 65  1  0  0  0  0
  6  7  1  0  0  0  0
  6 57  1  0  0  0  0
  7  8  1  0  0  0  0
  7 62  1  0  0  0  0
  7 63  1  0  0  0  0
  8  9  1  1  0  0  0
  8 29  1  0  0  0  0
  8 50  1  0  0  0  0
  9 10  2  0  0  0  0
  9 11  1  0  0  0  0
 11 12  1  0  0  0  0
 11 28  1  0  0  0  0
 12 13  2  0  0  0  0
 12 21  1  0  0  0  0
 13 14  1  0  0  0  0
 13 27  1  0  0  0  0
 14 15  2  0  0  0  0
 15 16  1  0  0  0  0
 15 26  1  0  0  0  0
 16 17  2  0  0  0  0
 16 21  1  0  0  0  0
 17 18  1  0  0  0  0
 17 25  1  0  0  0  0
 18 19  2  0  0  0  0
 18 24  1  0  0  0  0
 19 20  1  0  0  0  0
 19 23  1  0  0  0  0
 20 21  2  0  0  0  0
 20 22  1  0  0  0  0
 28 29  1  0  0  0  0
 28 48  1  0  0  0  0
 28 49  1  0  0  0  0
 29 30  1  0  0  0  0
 29 47  1  1  0  0  0
 30 31  1  0  0  0  0
 30 45  1  0  0  0  0
 30 46  1  0  0  0  0
 31 32  1  0  0  0  0
 31 44  1  0  0  0  0
 32 33  2  0  0  0  0
 32 41  1  0  0  0  0
 33 34  1  0  0  0  0
 33 43  1  0  0  0  0
 34 35  2  0  0  0  0
 34 42  1  0  0  0  0
 35 36  1  0  0  0  0
 36 37  1  0  0  0  0
 36 41  2  0  0  0  0
 37 38  1  0  0  0  0
 37 39  1  0  0  0  0
 37 40  1  0  0  0  0
 50 51  2  0  0  0  0
 50 56  1  0  0  0  0
 51 52  1  0  0  0  0
 51 61  1  0  0  0  0
 52 53  1  0  0  0  0
 52 54  2  0  0  0  0
 54 55  1  0  0  0  0
 54 60  1  0  0  0  0
 55 56  2  0  0  0  0
 55 59  1  0  0  0  0
 56 57  1  0  0  0  0
 57 58  2  0  0  0  0
M  END
>  <MODEL>
       1

$$$$
