tmp_first_model_20_31.pdb
 OpenBabel08282503553D

 66 71  0  0  1  0  0  0  0  0999 V2000
   -7.6650    3.0680  -22.4730 C   0  0  0  0  0  0  0  0  0  0  0  0
   -8.5450    2.5730  -23.5060 N   0  0  0  0  0  0  0  0  0  0  0  0
   -8.0070    1.9400  -24.5780 C   0  0  0  0  0  0  0  0  0  0  0  0
   -6.8100    1.9260  -24.8180 O   0  0  0  0  0  0  0  0  0  0  0  0
   -9.0400    1.1960  -25.4210 C   0  0  0  0  0  0  0  0  0  0  0  0
   -9.6780    0.1530  -24.6360 N   0  0  0  0  0  0  0  0  0  0  0  0
   -8.8120   -0.9380  -24.2340 C   0  0  0  0  0  0  0  0  0  0  0  0
   -9.2060   -1.5980  -22.8760 C   0  0  2  0  0  0  0  0  0  0  0  0
   -8.6750   -0.7210  -21.7100 C   0  0  0  0  0  0  0  0  0  0  0  0
   -9.2070    0.2740  -21.2510 O   0  0  0  0  0  0  0  0  0  0  0  0
   -7.4740   -1.2470  -21.2850 N   0  0  0  0  0  0  0  0  0  0  0  0
   -6.7140   -0.6930  -20.2200 C   0  0  0  0  0  0  0  0  0  0  0  0
   -7.0320   -0.9620  -18.9120 C   0  0  0  0  0  0  0  0  0  0  0  0
   -6.3090   -0.5360  -17.8440 N   0  0  0  0  0  0  0  0  0  0  0  0
   -5.2310    0.1710  -18.0830 C   0  0  0  0  0  0  0  0  0  0  0  0
   -4.7800    0.5230  -19.3890 C   0  0  0  0  0  0  0  0  0  0  0  0
   -3.6080    1.2960  -19.6140 C   0  0  0  0  0  0  0  0  0  0  0  0
   -3.2240    1.6190  -20.8870 C   0  0  0  0  0  0  0  0  0  0  0  0
   -3.9920    1.1960  -21.9940 C   0  0  0  0  0  0  0  0  0  0  0  0
   -5.1320    0.4530  -21.8020 C   0  0  0  0  0  0  0  0  0  0  0  0
   -5.5480    0.0860  -20.4950 C   0  0  0  0  0  0  0  0  0  0  0  0
   -5.7550    0.1900  -22.6540 H   0  0  0  0  0  0  0  0  0  0  0  0
   -3.6920    1.4680  -23.0010 H   0  0  0  0  0  0  0  0  0  0  0  0
   -2.3330    2.2170  -21.0570 H   0  0  0  0  0  0  0  0  0  0  0  0
   -3.0290    1.6300  -18.7570 H   0  0  0  0  0  0  0  0  0  0  0  0
   -4.6540    0.5050  -17.2180 H   0  0  0  0  0  0  0  0  0  0  0  0
   -7.9070   -1.5660  -18.6820 H   0  0  0  0  0  0  0  0  0  0  0  0
   -7.0760   -2.4600  -21.9820 C   0  0  0  0  0  0  0  0  0  0  0  0
   -8.3900   -2.8980  -22.6500 C   0  0  2  0  0  0  0  0  0  0  0  0
   -8.2370   -3.7990  -23.8850 C   0  0  0  0  0  0  0  0  0  0  0  0
   -7.7750   -5.1300  -23.5670 N   0  0  0  0  0  0  0  0  0  0  0  0
   -6.4820   -5.5350  -23.4670 C   0  0  0  0  0  0  0  0  0  0  0  0
   -5.4120   -4.9400  -24.1670 C   0  0  0  0  0  0  0  0  0  0  0  0
   -4.1790   -5.5470  -24.0270 C   0  0  0  0  0  0  0  0  0  0  0  0
   -3.9710   -6.6030  -23.2330 N   0  0  0  0  0  0  0  0  0  0  0  0
   -5.0460   -7.0670  -22.6120 C   0  0  0  0  0  0  0  0  0  0  0  0
   -6.2900   -6.6140  -22.6880 N   0  0  0  0  0  0  0  0  0  0  0  0
   -4.8980   -7.9380  -21.9740 H   0  0  0  0  0  0  0  0  0  0  0  0
   -3.3080   -5.1880  -24.5780 H   0  0  0  0  0  0  0  0  0  0  0  0
   -5.5470   -4.0790  -24.8130 H   0  0  0  0  0  0  0  0  0  0  0  0
   -8.3930   -5.6700  -22.9820 H   0  0  0  0  0  0  0  0  0  0  0  0
   -7.5520   -3.3430  -24.6060 H   0  0  0  0  0  0  0  0  0  0  0  0
   -9.2130   -3.8790  -24.3830 H   0  0  0  0  0  0  0  0  0  0  0  0
   -8.9330   -3.4700  -21.8930 H   0  0  0  0  0  0  0  0  0  0  0  0
   -6.2790   -2.2740  -22.7200 H   0  0  0  0  0  0  0  0  0  0  0  0
   -6.6890   -3.1950  -21.2680 H   0  0  0  0  0  0  0  0  0  0  0  0
  -10.7190   -1.7530  -22.7900 C   0  0  0  0  0  0  0  0  0  0  0  0
  -11.3370   -2.7120  -21.9670 C   0  0  0  0  0  0  0  0  0  0  0  0
  -12.7150   -2.7390  -21.8260 C   0  0  0  0  0  0  0  0  0  0  0  0
  -13.4530   -3.9240  -20.7810 Cl  0  0  0  0  0  0  0  0  0  0  0  0
  -13.5340   -1.8230  -22.4830 C   0  0  0  0  0  0  0  0  0  0  0  0
  -12.9390   -0.8630  -23.2760 C   0  0  0  0  0  0  0  0  0  0  0  0
  -11.5520   -0.8240  -23.4310 C   0  0  0  0  0  0  0  0  0  0  0  0
  -10.9800    0.2860  -24.2600 C   0  0  0  0  0  0  0  0  0  0  0  0
  -11.6530    1.2720  -24.5580 O   0  0  0  0  0  0  0  0  0  0  0  0
  -13.5350   -0.1050  -23.7750 H   0  0  0  0  0  0  0  0  0  0  0  0
  -14.6100   -1.8650  -22.3450 H   0  0  0  0  0  0  0  0  0  0  0  0
  -10.7670   -3.4380  -21.3980 H   0  0  0  0  0  0  0  0  0  0  0  0
   -7.8010   -0.5210  -24.1470 H   0  0  0  0  0  0  0  0  0  0  0  0
   -8.7870   -1.6790  -25.0410 H   0  0  0  0  0  0  0  0  0  0  0  0
   -9.8340    1.8660  -25.7480 H   0  0  0  0  0  0  0  0  0  0  0  0
   -8.5320    0.7900  -26.2960 H   0  0  0  0  0  0  0  0  0  0  0  0
   -9.4830    2.3240  -23.2340 H   0  0  0  0  0  0  0  0  0  0  0  0
   -7.0880    2.2560  -22.0040 H   0  0  0  0  0  0  0  0  0  0  0  0
   -8.2440    3.5940  -21.7140 H   0  0  0  0  0  0  0  0  0  0  0  0
   -6.9550    3.7770  -22.9000 H   0  0  0  0  0  0  0  0  0  0  0  0
  1  2  1  0  0  0  0
  1 64  1  0  0  0  0
  1 65  1  0  0  0  0
  1 66  1  0  0  0  0
  2  3  1  0  0  0  0
  2 63  1  0  0  0  0
  3  4  2  0  0  0  0
  3  5  1  0  0  0  0
  5  6  1  0  0  0  0
  5 61  1  0  0  0  0
  5 62  1  0  0  0  0
  6  7  1  0  0  0  0
  6 54  1  0  0  0  0
  7  8  1  0  0  0  0
  7 59  1  0  0  0  0
  7 60  1  0  0  0  0
  8  9  1  1  0  0  0
  8 29  1  0  0  0  0
  8 47  1  0  0  0  0
  9 10  2  0  0  0  0
  9 11  1  0  0  0  0
 11 12  1  0  0  0  0
 11 28  1  0  0  0  0
 12 13  2  0  0  0  0
 12 21  1  0  0  0  0
 13 14  1  0  0  0  0
 13 27  1  0  0  0  0
 14 15  2  0  0  0  0
 15 16  1  0  0  0  0
 15 26  1  0  0  0  0
 16 17  2  0  0  0  0
 16 21  1  0  0  0  0
 17 18  1  0  0  0  0
 17 25  1  0  0  0  0
 18 19  2  0  0  0  0
 18 24  1  0  0  0  0
 19 20  1  0  0  0  0
 19 23  1  0  0  0  0
 20 21  2  0  0  0  0
 20 22  1  0  0  0  0
 28 29  1  0  0  0  0
 28 45  1  0  0  0  0
 28 46  1  0  0  0  0
 29 30  1  0  0  0  0
 29 44  1  1  0  0  0
 30 31  1  0  0  0  0
 30 42  1  0  0  0  0
 30 43  1  0  0  0  0
 31 32  1  0  0  0  0
 31 41  1  0  0  0  0
 32 33  2  0  0  0  0
 32 37  1  0  0  0  0
 33 34  1  0  0  0  0
 33 40  1  0  0  0  0
 34 35  2  0  0  0  0
 34 39  1  0  0  0  0
 35 36  1  0  0  0  0
 36 37  2  0  0  0  0
 36 38  1  0  0  0  0
 47 48  2  0  0  0  0
 47 53  1  0  0  0  0
 48 49  1  0  0  0  0
 48 58  1  0  0  0  0
 49 50  1  0  0  0  0
 49 51  2  0  0  0  0
 51 52  1  0  0  0  0
 51 57  1  0  0  0  0
 52 53  2  0  0  0  0
 52 56  1  0  0  0  0
 53 54  1  0  0  0  0
 54 55  2  0  0  0  0
M  END
>  <MODEL>
       1

$$$$
