tmp_first_model_17_19.pdb
 OpenBabel08282502223D

 42 45  0  0  1  0  0  0  0  0999 V2000
   -8.4630    0.5870  -21.5840 O   0  0  0  0  0  0  0  0  0  0  0  0
   -8.2330   -0.5460  -21.9530 C   0  0  0  0  0  0  0  0  0  0  0  0
   -8.7640   -1.1110  -23.2780 C   0  0  1  0  0  0  0  0  0  0  0  0
   -7.7640   -0.8690  -24.4020 C   0  0  0  0  0  0  0  0  0  0  0  0
   -6.9980   -1.8790  -24.9770 C   0  0  0  0  0  0  0  0  0  0  0  0
   -6.0600   -1.5940  -25.9600 C   0  0  0  0  0  0  0  0  0  0  0  0
   -5.8760   -0.2910  -26.4020 C   0  0  0  0  0  0  0  0  0  0  0  0
   -4.6880    0.0230  -27.6190 Cl  0  0  0  0  0  0  0  0  0  0  0  0
   -6.6530    0.7290  -25.8510 C   0  0  0  0  0  0  0  0  0  0  0  0
   -6.4550    2.3700  -26.3660 Cl  0  0  0  0  0  0  0  0  0  0  0  0
   -7.5880    0.4340  -24.8670 C   0  0  0  0  0  0  0  0  0  0  0  0
   -8.1720    1.2490  -24.4520 H   0  0  0  0  0  0  0  0  0  0  0  0
   -5.4640   -2.3900  -26.3880 H   0  0  0  0  0  0  0  0  0  0  0  0
   -7.1180   -2.9100  -24.6670 H   0  0  0  0  0  0  0  0  0  0  0  0
   -9.2390   -2.5550  -23.1270 C   0  0  0  0  0  0  0  0  0  0  0  0
   -8.4050   -3.4270  -22.1830 C   0  0  2  0  0  0  0  0  0  0  0  0
   -9.2390   -3.8710  -21.1390 O   0  0  0  0  0  0  0  0  0  0  0  0
   -9.4360   -3.1120  -20.5710 H   0  0  0  0  0  0  0  0  0  0  0  0
   -7.1390   -2.7390  -21.6750 C   0  0  0  0  0  0  0  0  0  0  0  0
   -7.4270   -1.3900  -21.2110 N   0  0  0  0  0  0  0  0  0  0  0  0
   -6.6090   -0.8090  -20.1830 C   0  0  0  0  0  0  0  0  0  0  0  0
   -6.8890   -1.0480  -18.8630 C   0  0  0  0  0  0  0  0  0  0  0  0
   -6.1940   -0.5440  -17.8100 N   0  0  0  0  0  0  0  0  0  0  0  0
   -5.1610    0.2190  -18.0720 C   0  0  0  0  0  0  0  0  0  0  0  0
   -4.7280    0.5310  -19.3920 C   0  0  0  0  0  0  0  0  0  0  0  0
   -3.5980    1.3610  -19.6310 C   0  0  0  0  0  0  0  0  0  0  0  0
   -3.2080    1.6410  -20.9130 C   0  0  0  0  0  0  0  0  0  0  0  0
   -3.9200    1.0950  -22.0070 C   0  0  0  0  0  0  0  0  0  0  0  0
   -5.0100    0.2870  -21.7990 C   0  0  0  0  0  0  0  0  0  0  0  0
   -5.4600   -0.0010  -20.4830 C   0  0  0  0  0  0  0  0  0  0  0  0
   -5.5440   -0.1420  -22.6430 H   0  0  0  0  0  0  0  0  0  0  0  0
   -3.5900    1.3090  -23.0170 H   0  0  0  0  0  0  0  0  0  0  0  0
   -2.3420    2.2690  -21.1050 H   0  0  0  0  0  0  0  0  0  0  0  0
   -3.0540    1.7750  -18.7850 H   0  0  0  0  0  0  0  0  0  0  0  0
   -4.6070    0.6230  -17.2210 H   0  0  0  0  0  0  0  0  0  0  0  0
   -7.7340   -1.6750  -18.5940 H   0  0  0  0  0  0  0  0  0  0  0  0
   -6.3490   -2.7560  -22.4410 H   0  0  0  0  0  0  0  0  0  0  0  0
   -6.7570   -3.2960  -20.8180 H   0  0  0  0  0  0  0  0  0  0  0  0
   -8.1080   -4.3490  -22.6840 H   0  0  0  0  0  0  0  0  0  0  0  0
  -10.2490   -2.5550  -22.6980 H   0  0  0  0  0  0  0  0  0  0  0  0
   -9.3420   -3.0390  -24.1030 H   0  0  0  0  0  0  0  0  0  0  0  0
   -9.6400   -0.4990  -23.4970 H   0  0  0  0  0  0  0  0  0  0  0  0
  1  2  2  0  0  0  0
  2  3  1  0  0  0  0
  2 20  1  0  0  0  0
  3  4  1  0  0  0  0
  3 15  1  0  0  0  0
  3 42  1  6  0  0  0
  4  5  2  0  0  0  0
  4 11  1  0  0  0  0
  5  6  1  0  0  0  0
  5 14  1  0  0  0  0
  6  7  2  0  0  0  0
  6 13  1  0  0  0  0
  7  8  1  0  0  0  0
  7  9  1  0  0  0  0
  9 10  1  0  0  0  0
  9 11  2  0  0  0  0
 11 12  1  0  0  0  0
 15 16  1  0  0  0  0
 15 40  1  0  0  0  0
 15 41  1  0  0  0  0
 16 17  1  0  0  0  0
 16 19  1  0  0  0  0
 16 39  1  6  0  0  0
 17 18  1  0  0  0  0
 19 20  1  0  0  0  0
 19 37  1  0  0  0  0
 19 38  1  0  0  0  0
 20 21  1  0  0  0  0
 21 22  2  0  0  0  0
 21 30  1  0  0  0  0
 22 23  1  0  0  0  0
 22 36  1  0  0  0  0
 23 24  2  0  0  0  0
 24 25  1  0  0  0  0
 24 35  1  0  0  0  0
 25 26  2  0  0  0  0
 25 30  1  0  0  0  0
 26 27  1  0  0  0  0
 26 34  1  0  0  0  0
 27 28  2  0  0  0  0
 27 33  1  0  0  0  0
 28 29  1  0  0  0  0
 28 32  1  0  0  0  0
 29 30  2  0  0  0  0
 29 31  1  0  0  0  0
M  END
>  <MODEL>
       1

$$$$
