tmp_first_model_19_27.pdb
 OpenBabel08282503233D

 58 62  0  0  1  0  0  0  0  0999 V2000
   -7.0480    3.5740  -22.0990 C   0  0  0  0  0  0  0  0  0  0  0  0
   -7.2890    2.5310  -23.1010 N   0  3  0  0  0  0  0  0  0  0  0  0
   -8.4450    2.8260  -23.9970 C   0  0  0  0  0  0  0  0  0  0  0  0
   -8.7210    1.6660  -24.9550 C   0  0  0  0  0  0  0  0  0  0  0  0
   -9.3780    0.5270  -24.3210 N   0  0  0  0  0  0  0  0  0  0  0  0
   -8.6750   -0.7350  -24.1910 C   0  0  0  0  0  0  0  0  0  0  0  0
   -9.0690   -1.4890  -22.8980 C   0  0  2  0  0  0  0  0  0  0  0  0
   -8.5320   -0.7320  -21.6600 C   0  0  0  0  0  0  0  0  0  0  0  0
   -8.9670    0.2990  -21.1810 O   0  0  0  0  0  0  0  0  0  0  0  0
   -7.4160   -1.3850  -21.1930 N   0  0  0  0  0  0  0  0  0  0  0  0
   -6.6060   -0.8060  -20.1760 C   0  0  0  0  0  0  0  0  0  0  0  0
   -6.9090   -1.0430  -18.8620 C   0  0  0  0  0  0  0  0  0  0  0  0
   -6.1970   -0.5600  -17.8150 N   0  0  0  0  0  0  0  0  0  0  0  0
   -5.1680    0.2040  -18.0870 C   0  0  0  0  0  0  0  0  0  0  0  0
   -4.7370    0.5330  -19.4030 C   0  0  0  0  0  0  0  0  0  0  0  0
   -3.6090    1.3630  -19.6460 C   0  0  0  0  0  0  0  0  0  0  0  0
   -3.2240    1.6650  -20.9240 C   0  0  0  0  0  0  0  0  0  0  0  0
   -3.9460    1.1400  -22.0180 C   0  0  0  0  0  0  0  0  0  0  0  0
   -5.0380    0.3280  -21.8110 C   0  0  0  0  0  0  0  0  0  0  0  0
   -5.4740    0.0090  -20.4940 C   0  0  0  0  0  0  0  0  0  0  0  0
   -5.5690   -0.0820  -22.6660 H   0  0  0  0  0  0  0  0  0  0  0  0
   -3.6430    1.3850  -23.0330 H   0  0  0  0  0  0  0  0  0  0  0  0
   -2.3720    2.3170  -21.0990 H   0  0  0  0  0  0  0  0  0  0  0  0
   -3.0800    1.7690  -18.7870 H   0  0  0  0  0  0  0  0  0  0  0  0
   -4.6240    0.6120  -17.2340 H   0  0  0  0  0  0  0  0  0  0  0  0
   -7.7620   -1.6670  -18.6050 H   0  0  0  0  0  0  0  0  0  0  0  0
   -7.0560   -2.5680  -21.9500 C   0  0  0  0  0  0  0  0  0  0  0  0
   -8.3140   -2.8550  -22.8010 C   0  0  2  0  0  0  0  0  0  0  0  0
   -7.9720   -3.5640  -24.1210 C   0  0  0  0  0  0  0  0  0  0  0  0
   -7.5150   -4.5460  -23.9350 H   0  0  0  0  0  0  0  0  0  0  0  0
   -8.8590   -3.7220  -24.7480 H   0  0  0  0  0  0  0  0  0  0  0  0
   -7.2500   -2.9800  -24.7100 H   0  0  0  0  0  0  0  0  0  0  0  0
   -8.9600   -3.5140  -22.2150 H   0  0  0  0  0  0  0  0  0  0  0  0
   -6.8030   -3.3940  -21.2730 H   0  0  0  0  0  0  0  0  0  0  0  0
   -6.1730   -2.3880  -22.5860 H   0  0  0  0  0  0  0  0  0  0  0  0
  -10.5840   -1.5590  -22.8310 C   0  0  0  0  0  0  0  0  0  0  0  0
  -11.2280   -2.5130  -22.0330 C   0  0  0  0  0  0  0  0  0  0  0  0
  -12.6050   -2.5160  -21.9570 C   0  0  0  0  0  0  0  0  0  0  0  0
  -13.2120   -3.4390  -21.1930 F   0  0  0  0  0  0  0  0  0  0  0  0
  -13.3910   -1.5900  -22.6330 C   0  0  0  0  0  0  0  0  0  0  0  0
  -12.7590   -0.6080  -23.3670 C   0  0  0  0  0  0  0  0  0  0  0  0
  -11.3660   -0.5690  -23.4480 C   0  0  0  0  0  0  0  0  0  0  0  0
  -10.7310    0.5970  -24.1520 C   0  0  0  0  0  0  0  0  0  0  0  0
  -11.3830    1.5620  -24.5370 O   0  0  0  0  0  0  0  0  0  0  0  0
  -13.3160    0.1670  -23.8810 H   0  0  0  0  0  0  0  0  0  0  0  0
  -14.4680   -1.6480  -22.5500 H   0  0  0  0  0  0  0  0  0  0  0  0
  -10.6900   -3.2410  -21.4360 H   0  0  0  0  0  0  0  0  0  0  0  0
   -8.8800   -1.3870  -25.0550 H   0  0  0  0  0  0  0  0  0  0  0  0
   -7.6020   -0.5130  -24.1570 H   0  0  0  0  0  0  0  0  0  0  0  0
   -7.7780    1.3090  -25.3860 H   0  0  0  0  0  0  0  0  0  0  0  0
   -9.3730    2.0140  -25.7600 H   0  0  0  0  0  0  0  0  0  0  0  0
   -9.3310    3.0120  -23.3790 H   0  0  0  0  0  0  0  0  0  0  0  0
   -8.2390    3.7370  -24.5710 H   0  0  0  0  0  0  0  0  0  0  0  0
   -6.4230    2.4050  -23.6780 H   0  0  0  0  0  0  0  0  0  0  0  0
   -7.5020    1.6390  -22.6010 H   0  0  0  0  0  0  0  0  0  0  0  0
   -6.1790    3.2990  -21.4980 H   0  0  0  0  0  0  0  0  0  0  0  0
   -7.9260    3.6770  -21.4530 H   0  0  0  0  0  0  0  0  0  0  0  0
   -6.8740    4.5490  -22.5700 H   0  0  0  0  0  0  0  0  0  0  0  0
  1  2  1  0  0  0  0
  1 56  1  0  0  0  0
  1 57  1  0  0  0  0
  1 58  1  0  0  0  0
  2  3  1  0  0  0  0
  2 54  1  0  0  0  0
  2 55  1  0  0  0  0
  3  4  1  0  0  0  0
  3 52  1  0  0  0  0
  3 53  1  0  0  0  0
  4  5  1  0  0  0  0
  4 50  1  0  0  0  0
  4 51  1  0  0  0  0
  5  6  1  0  0  0  0
  5 43  1  0  0  0  0
  6  7  1  0  0  0  0
  6 48  1  0  0  0  0
  6 49  1  0  0  0  0
  7  8  1  1  0  0  0
  7 28  1  0  0  0  0
  7 36  1  0  0  0  0
  8  9  2  0  0  0  0
  8 10  1  0  0  0  0
 10 11  1  0  0  0  0
 10 27  1  0  0  0  0
 11 12  2  0  0  0  0
 11 20  1  0  0  0  0
 12 13  1  0  0  0  0
 12 26  1  0  0  0  0
 13 14  2  0  0  0  0
 14 15  1  0  0  0  0
 14 25  1  0  0  0  0
 15 16  2  0  0  0  0
 15 20  1  0  0  0  0
 16 17  1  0  0  0  0
 16 24  1  0  0  0  0
 17 18  2  0  0  0  0
 17 23  1  0  0  0  0
 18 19  1  0  0  0  0
 18 22  1  0  0  0  0
 19 20  2  0  0  0  0
 19 21  1  0  0  0  0
 27 28  1  0  0  0  0
 27 34  1  0  0  0  0
 27 35  1  0  0  0  0
 28 29  1  0  0  0  0
 28 33  1  1  0  0  0
 29 30  1  0  0  0  0
 29 31  1  0  0  0  0
 29 32  1  0  0  0  0
 36 37  2  0  0  0  0
 36 42  1  0  0  0  0
 37 38  1  0  0  0  0
 37 47  1  0  0  0  0
 38 39  1  0  0  0  0
 38 40  2  0  0  0  0
 40 41  1  0  0  0  0
 40 46  1  0  0  0  0
 41 42  2  0  0  0  0
 41 45  1  0  0  0  0
 42 43  1  0  0  0  0
 43 44  2  0  0  0  0
M  CHG  1   2   1
M  END
>  <MODEL>
       1

$$$$
