tmp_first_model_14_64.pdb
 OpenBabel08282500413D

 55 60  0  0  1  0  0  0  0  0999 V2000
  -10.4810   -1.0900  -23.3090 C   0  0  0  0  0  0  0  0  0  0  0  0
   -9.0340   -1.4290  -22.9720 C   0  0  1  0  0  0  0  0  0  0  0  0
   -8.4370   -0.4820  -21.9160 C   0  0  0  0  0  0  0  0  0  0  0  0
   -7.4340   -1.2970  -21.2600 N   0  0  0  0  0  0  0  0  0  0  0  0
   -6.6020   -0.8100  -20.2230 C   0  0  0  0  0  0  0  0  0  0  0  0
   -6.9210   -1.0370  -18.9080 C   0  0  0  0  0  0  0  0  0  0  0  0
   -6.2540   -0.4920  -17.8620 N   0  0  0  0  0  0  0  0  0  0  0  0
   -5.2190    0.2630  -18.1240 C   0  0  0  0  0  0  0  0  0  0  0  0
   -4.7590    0.5510  -19.4380 C   0  0  0  0  0  0  0  0  0  0  0  0
   -3.6150    1.3570  -19.6650 C   0  0  0  0  0  0  0  0  0  0  0  0
   -3.2070    1.6190  -20.9420 C   0  0  0  0  0  0  0  0  0  0  0  0
   -3.9130    1.0820  -22.0410 C   0  0  0  0  0  0  0  0  0  0  0  0
   -5.0190    0.2890  -21.8460 C   0  0  0  0  0  0  0  0  0  0  0  0
   -5.4710    0.0090  -20.5290 C   0  0  0  0  0  0  0  0  0  0  0  0
   -5.5470   -0.1370  -22.6930 H   0  0  0  0  0  0  0  0  0  0  0  0
   -3.5740    1.2940  -23.0500 H   0  0  0  0  0  0  0  0  0  0  0  0
   -2.3380    2.2460  -21.1210 H   0  0  0  0  0  0  0  0  0  0  0  0
   -3.0820    1.7600  -18.8080 H   0  0  0  0  0  0  0  0  0  0  0  0
   -4.6800    0.6790  -17.2740 H   0  0  0  0  0  0  0  0  0  0  0  0
   -7.7680   -1.6670  -18.6480 H   0  0  0  0  0  0  0  0  0  0  0  0
   -7.5570   -2.6440  -21.5160 C   0  0  0  0  0  0  0  0  0  0  0  0
   -6.7660   -3.4800  -21.1440 O   0  0  0  0  0  0  0  0  0  0  0  0
   -8.7970   -2.8730  -22.3950 C   0  0  1  0  0  0  0  0  0  0  0  0
   -9.9880   -3.3290  -21.5160 C   0  0  0  0  0  0  0  0  0  0  0  0
  -11.1210   -3.7910  -22.3150 N   0  0  0  0  0  0  0  0  0  0  0  0
  -12.4890   -3.6710  -21.8320 C   0  0  0  0  0  0  0  0  0  0  0  0
  -13.3290   -2.6280  -22.5140 C   0  0  0  0  0  0  0  0  0  0  0  0
  -13.7340   -1.4540  -21.9460 N   0  0  0  0  0  0  0  0  0  0  0  0
  -14.5810   -0.9730  -22.8370 C   0  0  0  0  0  0  0  0  0  0  0  0
  -14.6530   -1.8020  -23.8880 N   0  0  0  0  0  0  0  0  0  0  0  0
  -13.8540   -2.8700  -23.7000 N   0  0  0  0  0  0  0  0  0  0  0  0
  -15.2660   -1.7710  -24.6830 H   0  0  0  0  0  0  0  0  0  0  0  0
  -15.1910   -0.0850  -22.7540 H   0  0  0  0  0  0  0  0  0  0  0  0
  -12.9740   -4.6150  -22.0870 H   0  0  0  0  0  0  0  0  0  0  0  0
  -12.4840   -3.5260  -20.7530 H   0  0  0  0  0  0  0  0  0  0  0  0
  -10.9470   -4.6050  -23.4010 C   0  0  0  0  0  0  0  0  0  0  0  0
  -11.8880   -5.1420  -23.9690 O   0  0  0  0  0  0  0  0  0  0  0  0
   -9.5490   -4.7750  -23.8820 C   0  0  0  0  0  0  0  0  0  0  0  0
   -9.3120   -5.7620  -24.8380 C   0  0  0  0  0  0  0  0  0  0  0  0
   -8.0530   -5.9180  -25.3850 C   0  0  0  0  0  0  0  0  0  0  0  0
   -7.0490   -5.0540  -24.9650 C   0  0  0  0  0  0  0  0  0  0  0  0
   -5.8220   -5.1880  -25.4950 F   0  0  0  0  0  0  0  0  0  0  0  0
   -7.2520   -4.0920  -23.9950 C   0  0  0  0  0  0  0  0  0  0  0  0
   -8.5250   -3.9380  -23.4330 C   0  0  0  0  0  0  0  0  0  0  0  0
   -6.4060   -3.5110  -23.6540 H   0  0  0  0  0  0  0  0  0  0  0  0
   -7.8420   -6.6890  -26.1180 H   0  0  0  0  0  0  0  0  0  0  0  0
  -10.1450   -6.3900  -25.1430 H   0  0  0  0  0  0  0  0  0  0  0  0
  -10.2940   -2.4580  -20.9280 H   0  0  0  0  0  0  0  0  0  0  0  0
   -9.6610   -4.1260  -20.8380 H   0  0  0  0  0  0  0  0  0  0  0  0
   -9.2030   -0.1330  -21.2020 H   0  0  0  0  0  0  0  0  0  0  0  0
   -7.9750    0.4030  -22.3650 H   0  0  0  0  0  0  0  0  0  0  0  0
   -8.4170   -1.3760  -23.8800 H   0  0  0  0  0  0  0  0  0  0  0  0
  -10.5630   -0.1280  -23.8240 H   0  0  0  0  0  0  0  0  0  0  0  0
  -11.0780   -1.0340  -22.3930 H   0  0  0  0  0  0  0  0  0  0  0  0
  -10.9230   -1.8690  -23.9350 H   0  0  0  0  0  0  0  0  0  0  0  0
  1  2  1  0  0  0  0
  1 53  1  0  0  0  0
  1 54  1  0  0  0  0
  1 55  1  0  0  0  0
  2  3  1  0  0  0  0
  2 23  1  0  0  0  0
  2 52  1  6  0  0  0
  3  4  1  0  0  0  0
  3 50  1  0  0  0  0
  3 51  1  0  0  0  0
  4  5  1  0  0  0  0
  4 21  1  0  0  0  0
  5  6  2  0  0  0  0
  5 14  1  0  0  0  0
  6  7  1  0  0  0  0
  6 20  1  0  0  0  0
  7  8  2  0  0  0  0
  8  9  1  0  0  0  0
  8 19  1  0  0  0  0
  9 10  2  0  0  0  0
  9 14  1  0  0  0  0
 10 11  1  0  0  0  0
 10 18  1  0  0  0  0
 11 12  2  0  0  0  0
 11 17  1  0  0  0  0
 12 13  1  0  0  0  0
 12 16  1  0  0  0  0
 13 14  2  0  0  0  0
 13 15  1  0  0  0  0
 21 22  2  0  0  0  0
 23 21  1  1  0  0  0
 23 24  1  0  0  0  0
 23 44  1  0  0  0  0
 24 25  1  0  0  0  0
 24 48  1  0  0  0  0
 24 49  1  0  0  0  0
 25 26  1  0  0  0  0
 25 36  1  0  0  0  0
 26 27  1  0  0  0  0
 26 34  1  0  0  0  0
 26 35  1  0  0  0  0
 27 28  1  0  0  0  0
 27 31  2  0  0  0  0
 28 29  2  0  0  0  0
 29 30  1  0  0  0  0
 29 33  1  0  0  0  0
 30 31  1  0  0  0  0
 30 32  1  0  0  0  0
 36 37  2  0  0  0  0
 36 38  1  0  0  0  0
 38 39  2  0  0  0  0
 38 44  1  0  0  0  0
 39 40  1  0  0  0  0
 39 47  1  0  0  0  0
 40 41  2  0  0  0  0
 40 46  1  0  0  0  0
 41 42  1  0  0  0  0
 41 43  1  0  0  0  0
 43 44  2  0  0  0  0
 43 45  1  0  0  0  0
M  END
>  <MODEL>
       1

$$$$
