tmp_first_model_7_71.pdb
 OpenBabel08272520323D

 50 54  0  0  1  0  0  0  0  0999 V2000
  -10.4330   -1.1600  -23.2590 C   0  0  0  0  0  0  0  0  0  0  0  0
   -8.9810   -1.4930  -22.9290 C   0  0  1  0  0  0  0  0  0  0  0  0
   -8.3570   -0.5320  -21.9080 C   0  0  0  0  0  0  0  0  0  0  0  0
   -7.3580   -1.3420  -21.2340 N   0  0  0  0  0  0  0  0  0  0  0  0
   -6.5630   -0.8460  -20.1830 C   0  0  0  0  0  0  0  0  0  0  0  0
   -6.8840   -1.0950  -18.8740 C   0  0  0  0  0  0  0  0  0  0  0  0
   -6.2100   -0.5690  -17.8230 N   0  0  0  0  0  0  0  0  0  0  0  0
   -5.1850    0.2020  -18.0860 C   0  0  0  0  0  0  0  0  0  0  0  0
   -4.7340    0.5070  -19.4030 C   0  0  0  0  0  0  0  0  0  0  0  0
   -3.6100    1.3350  -19.6430 C   0  0  0  0  0  0  0  0  0  0  0  0
   -3.2190    1.6180  -20.9210 C   0  0  0  0  0  0  0  0  0  0  0  0
   -3.9280    1.0890  -22.0220 C   0  0  0  0  0  0  0  0  0  0  0  0
   -5.0140    0.2730  -21.8190 C   0  0  0  0  0  0  0  0  0  0  0  0
   -5.4440   -0.0260  -20.4980 C   0  0  0  0  0  0  0  0  0  0  0  0
   -5.5490   -0.1510  -22.6650 H   0  0  0  0  0  0  0  0  0  0  0  0
   -3.6180    1.3390  -23.0320 H   0  0  0  0  0  0  0  0  0  0  0  0
   -2.3670    2.2640  -21.0970 H   0  0  0  0  0  0  0  0  0  0  0  0
   -3.0940    1.7530  -18.7830 H   0  0  0  0  0  0  0  0  0  0  0  0
   -4.6470    0.6360  -17.2400 H   0  0  0  0  0  0  0  0  0  0  0  0
   -7.7240   -1.7380  -18.6230 H   0  0  0  0  0  0  0  0  0  0  0  0
   -7.5510   -2.6920  -21.3790 C   0  0  0  0  0  0  0  0  0  0  0  0
   -6.8600   -3.5470  -20.8540 O   0  0  0  0  0  0  0  0  0  0  0  0
   -8.7580   -2.9070  -22.2900 C   0  0  1  0  0  0  0  0  0  0  0  0
   -9.9500   -3.2980  -21.3990 C   0  0  0  0  0  0  0  0  0  0  0  0
  -11.0850   -3.7340  -22.1830 N   0  0  0  0  0  0  0  0  0  0  0  0
  -12.4530   -3.5550  -21.7410 C   0  0  0  0  0  0  0  0  0  0  0  0
  -13.3390   -2.7630  -22.6280 C   0  0  0  0  0  0  0  0  0  0  0  0
  -14.1340   -2.2020  -23.2550 N   0  0  0  0  0  0  0  0  0  0  0  0
  -12.4870   -3.1010  -20.7500 H   0  0  0  0  0  0  0  0  0  0  0  0
  -12.9130   -4.5420  -21.7150 H   0  0  0  0  0  0  0  0  0  0  0  0
  -10.9080   -4.6600  -23.1740 C   0  0  0  0  0  0  0  0  0  0  0  0
  -11.8570   -5.2830  -23.6110 O   0  0  0  0  0  0  0  0  0  0  0  0
   -9.5350   -4.8300  -23.7230 C   0  0  0  0  0  0  0  0  0  0  0  0
   -9.3220   -5.7850  -24.7150 C   0  0  0  0  0  0  0  0  0  0  0  0
   -8.0840   -5.9090  -25.3110 C   0  0  0  0  0  0  0  0  0  0  0  0
   -7.0750   -5.0570  -24.8880 C   0  0  0  0  0  0  0  0  0  0  0  0
   -5.8820   -5.1450  -25.4870 F   0  0  0  0  0  0  0  0  0  0  0  0
   -7.2520   -4.1140  -23.9010 C   0  0  0  0  0  0  0  0  0  0  0  0
   -8.5050   -3.9900  -23.3040 C   0  0  0  0  0  0  0  0  0  0  0  0
   -6.4270   -3.4830  -23.5950 H   0  0  0  0  0  0  0  0  0  0  0  0
   -7.8820   -6.6310  -26.0910 H   0  0  0  0  0  0  0  0  0  0  0  0
  -10.1520   -6.4160  -25.0030 H   0  0  0  0  0  0  0  0  0  0  0  0
   -9.6280   -4.0820  -20.7180 H   0  0  0  0  0  0  0  0  0  0  0  0
  -10.2320   -2.4270  -20.8040 H   0  0  0  0  0  0  0  0  0  0  0  0
   -9.1140   -0.1800  -21.1930 H   0  0  0  0  0  0  0  0  0  0  0  0
   -7.9030    0.3430  -22.3770 H   0  0  0  0  0  0  0  0  0  0  0  0
   -8.3850   -1.4690  -23.8520 H   0  0  0  0  0  0  0  0  0  0  0  0
  -10.5230   -0.1830  -23.7340 H   0  0  0  0  0  0  0  0  0  0  0  0
  -11.0320   -1.1460  -22.3440 H   0  0  0  0  0  0  0  0  0  0  0  0
  -10.8650   -1.9220  -23.9140 H   0  0  0  0  0  0  0  0  0  0  0  0
  1  2  1  0  0  0  0
  1 48  1  0  0  0  0
  1 49  1  0  0  0  0
  1 50  1  0  0  0  0
  2  3  1  0  0  0  0
  2 23  1  0  0  0  0
  2 47  1  6  0  0  0
  3  4  1  0  0  0  0
  3 45  1  0  0  0  0
  3 46  1  0  0  0  0
  4  5  1  0  0  0  0
  4 21  1  0  0  0  0
  5  6  2  0  0  0  0
  5 14  1  0  0  0  0
  6  7  1  0  0  0  0
  6 20  1  0  0  0  0
  7  8  2  0  0  0  0
  8  9  1  0  0  0  0
  8 19  1  0  0  0  0
  9 10  2  0  0  0  0
  9 14  1  0  0  0  0
 10 11  1  0  0  0  0
 10 18  1  0  0  0  0
 11 12  2  0  0  0  0
 11 17  1  0  0  0  0
 12 13  1  0  0  0  0
 12 16  1  0  0  0  0
 13 14  2  0  0  0  0
 13 15  1  0  0  0  0
 21 22  2  0  0  0  0
 23 21  1  1  0  0  0
 23 24  1  0  0  0  0
 23 39  1  0  0  0  0
 24 25  1  0  0  0  0
 24 43  1  0  0  0  0
 24 44  1  0  0  0  0
 25 26  1  0  0  0  0
 25 31  1  0  0  0  0
 26 27  1  0  0  0  0
 26 29  1  0  0  0  0
 26 30  1  0  0  0  0
 27 28  3  0  0  0  0
 31 32  2  0  0  0  0
 31 33  1  0  0  0  0
 33 34  2  0  0  0  0
 33 39  1  0  0  0  0
 34 35  1  0  0  0  0
 34 42  1  0  0  0  0
 35 36  2  0  0  0  0
 35 41  1  0  0  0  0
 36 37  1  0  0  0  0
 36 38  1  0  0  0  0
 38 39  2  0  0  0  0
 38 40  1  0  0  0  0
M  END
>  <MODEL>
       1

$$$$
