tmp_first_model_4_78.pdb
 OpenBabel08272518513D

 56 60  0  0  1  0  0  0  0  0999 V2000
   -7.2750    3.4170  -21.9250 C   0  0  0  0  0  0  0  0  0  0  0  0
   -8.1430    2.9740  -23.0080 N   0  0  0  0  0  0  0  0  0  0  0  0
   -7.5810    2.2400  -24.0110 C   0  0  0  0  0  0  0  0  0  0  0  0
   -6.3760    2.0530  -24.1000 O   0  0  0  0  0  0  0  0  0  0  0  0
   -8.5530    1.6480  -25.0350 C   0  0  0  0  0  0  0  0  0  0  0  0
   -9.2710    0.5210  -24.4680 N   0  0  0  0  0  0  0  0  0  0  0  0
   -8.5560   -0.7290  -24.2650 C   0  0  0  0  0  0  0  0  0  0  0  0
   -8.9910   -1.4380  -22.9580 C   0  0  2  0  0  0  0  0  0  0  0  0
   -8.4490   -0.6750  -21.7220 C   0  0  0  0  0  0  0  0  0  0  0  0
   -8.8450    0.3830  -21.2780 O   0  0  0  0  0  0  0  0  0  0  0  0
   -7.4100   -1.4030  -21.1960 N   0  0  0  0  0  0  0  0  0  0  0  0
   -6.5290   -0.9360  -20.1940 C   0  0  0  0  0  0  0  0  0  0  0  0
   -6.7720   -1.2480  -18.8870 C   0  0  0  0  0  0  0  0  0  0  0  0
   -5.9110   -0.9970  -17.8700 N   0  0  0  0  0  0  0  0  0  0  0  0
   -4.7860   -0.3930  -18.1670 C   0  0  0  0  0  0  0  0  0  0  0  0
   -4.4380    0.0360  -19.4790 C   0  0  0  0  0  0  0  0  0  0  0  0
   -3.2730    0.7950  -19.7390 C   0  0  0  0  0  0  0  0  0  0  0  0
   -3.0530    1.3210  -20.9840 C   0  0  0  0  0  0  0  0  0  0  0  0
   -3.9340    1.0230  -22.0510 C   0  0  0  0  0  0  0  0  0  0  0  0
   -5.0370    0.2380  -21.8380 C   0  0  0  0  0  0  0  0  0  0  0  0
   -5.3300   -0.2470  -20.5360 C   0  0  0  0  0  0  0  0  0  0  0  0
   -5.6950   -0.0050  -22.6690 H   0  0  0  0  0  0  0  0  0  0  0  0
   -3.7660    1.4570  -23.0320 H   0  0  0  0  0  0  0  0  0  0  0  0
   -2.2050    1.9760  -21.1550 H   0  0  0  0  0  0  0  0  0  0  0  0
   -2.6180    1.0090  -18.8990 H   0  0  0  0  0  0  0  0  0  0  0  0
   -4.0840   -0.1910  -17.3560 H   0  0  0  0  0  0  0  0  0  0  0  0
   -7.7050   -1.7520  -18.6380 H   0  0  0  0  0  0  0  0  0  0  0  0
   -7.0830   -2.6060  -21.9170 C   0  0  0  0  0  0  0  0  0  0  0  0
   -8.3040   -2.8350  -22.8190 C   0  0  2  0  0  0  0  0  0  0  0  0
   -7.9130   -3.5670  -24.0990 C   0  0  0  0  0  0  0  0  0  0  0  0
   -7.4900   -4.5450  -23.8440 H   0  0  0  0  0  0  0  0  0  0  0  0
   -7.1450   -3.0080  -24.6470 H   0  0  0  0  0  0  0  0  0  0  0  0
   -8.7680   -3.7250  -24.7640 H   0  0  0  0  0  0  0  0  0  0  0  0
   -8.9990   -3.4790  -22.2760 H   0  0  0  0  0  0  0  0  0  0  0  0
   -6.1510   -2.4970  -22.5010 H   0  0  0  0  0  0  0  0  0  0  0  0
   -6.9320   -3.4230  -21.2060 H   0  0  0  0  0  0  0  0  0  0  0  0
  -10.5060   -1.4540  -22.9030 C   0  0  0  0  0  0  0  0  0  0  0  0
  -11.1650   -2.3110  -22.0170 C   0  0  0  0  0  0  0  0  0  0  0  0
  -12.5440   -2.3070  -21.9410 C   0  0  0  0  0  0  0  0  0  0  0  0
  -13.3250   -3.3840  -20.8260 Cl  0  0  0  0  0  0  0  0  0  0  0  0
  -13.3210   -1.4480  -22.7170 C   0  0  0  0  0  0  0  0  0  0  0  0
  -12.6720   -0.5600  -23.5490 C   0  0  0  0  0  0  0  0  0  0  0  0
  -11.2800   -0.5360  -23.6210 C   0  0  0  0  0  0  0  0  0  0  0  0
  -10.6390    0.5610  -24.4180 C   0  0  0  0  0  0  0  0  0  0  0  0
  -11.2950    1.4440  -24.9480 O   0  0  0  0  0  0  0  0  0  0  0  0
  -13.2210    0.1590  -24.1420 H   0  0  0  0  0  0  0  0  0  0  0  0
  -14.4030   -1.4600  -22.6370 H   0  0  0  0  0  0  0  0  0  0  0  0
  -10.6130   -2.9730  -21.3590 H   0  0  0  0  0  0  0  0  0  0  0  0
   -7.4800   -0.5240  -24.2450 H   0  0  0  0  0  0  0  0  0  0  0  0
   -8.7490   -1.4070  -25.1070 H   0  0  0  0  0  0  0  0  0  0  0  0
   -7.9740    1.3300  -25.9100 H   0  0  0  0  0  0  0  0  0  0  0  0
   -9.2960    2.3840  -25.3580 H   0  0  0  0  0  0  0  0  0  0  0  0
   -9.1190    2.8240  -22.7820 H   0  0  0  0  0  0  0  0  0  0  0  0
   -7.8760    3.8880  -21.1440 H   0  0  0  0  0  0  0  0  0  0  0  0
   -6.7130    2.5690  -21.5070 H   0  0  0  0  0  0  0  0  0  0  0  0
   -6.5630    4.1610  -22.2960 H   0  0  0  0  0  0  0  0  0  0  0  0
  1  2  1  0  0  0  0
  1 54  1  0  0  0  0
  1 55  1  0  0  0  0
  1 56  1  0  0  0  0
  2  3  1  0  0  0  0
  2 53  1  0  0  0  0
  3  4  2  0  0  0  0
  3  5  1  0  0  0  0
  5  6  1  0  0  0  0
  5 51  1  0  0  0  0
  5 52  1  0  0  0  0
  6  7  1  0  0  0  0
  6 44  1  0  0  0  0
  7  8  1  0  0  0  0
  7 49  1  0  0  0  0
  7 50  1  0  0  0  0
  8  9  1  1  0  0  0
  8 29  1  0  0  0  0
  8 37  1  0  0  0  0
  9 10  2  0  0  0  0
  9 11  1  0  0  0  0
 11 12  1  0  0  0  0
 11 28  1  0  0  0  0
 12 13  2  0  0  0  0
 12 21  1  0  0  0  0
 13 14  1  0  0  0  0
 13 27  1  0  0  0  0
 14 15  2  0  0  0  0
 15 16  1  0  0  0  0
 15 26  1  0  0  0  0
 16 17  2  0  0  0  0
 16 21  1  0  0  0  0
 17 18  1  0  0  0  0
 17 25  1  0  0  0  0
 18 19  2  0  0  0  0
 18 24  1  0  0  0  0
 19 20  1  0  0  0  0
 19 23  1  0  0  0  0
 20 21  2  0  0  0  0
 20 22  1  0  0  0  0
 28 29  1  0  0  0  0
 28 35  1  0  0  0  0
 28 36  1  0  0  0  0
 29 30  1  0  0  0  0
 29 34  1  1  0  0  0
 30 31  1  0  0  0  0
 30 32  1  0  0  0  0
 30 33  1  0  0  0  0
 37 38  2  0  0  0  0
 37 43  1  0  0  0  0
 38 39  1  0  0  0  0
 38 48  1  0  0  0  0
 39 40  1  0  0  0  0
 39 41  2  0  0  0  0
 41 42  1  0  0  0  0
 41 47  1  0  0  0  0
 42 43  2  0  0  0  0
 42 46  1  0  0  0  0
 43 44  1  0  0  0  0
 44 45  2  0  0  0  0
M  END
>  <MODEL>
       1

$$$$
