tmp_first_model_2_68.pdb
 OpenBabel08272517383D

 65 70  0  0  1  0  0  0  0  0999 V2000
   -5.6350   -3.2150  -21.3100 O   0  0  0  0  0  0  0  0  0  0  0  0
   -6.6070   -2.7480  -21.8810 C   0  0  0  0  0  0  0  0  0  0  0  0
   -7.3300   -1.5270  -21.3020 C   0  0  0  0  0  0  0  0  0  0  0  0
   -6.5600   -0.8610  -20.2030 C   0  0  0  0  0  0  0  0  0  0  0  0
   -6.8910   -1.0710  -18.8910 C   0  0  0  0  0  0  0  0  0  0  0  0
   -6.2350   -0.5520  -17.8170 N   0  0  0  0  0  0  0  0  0  0  0  0
   -5.1970    0.2070  -18.0750 C   0  0  0  0  0  0  0  0  0  0  0  0
   -4.7280    0.5020  -19.3850 C   0  0  0  0  0  0  0  0  0  0  0  0
   -3.6030    1.3370  -19.6120 C   0  0  0  0  0  0  0  0  0  0  0  0
   -3.1910    1.6160  -20.8880 C   0  0  0  0  0  0  0  0  0  0  0  0
   -3.8880    1.0780  -21.9920 C   0  0  0  0  0  0  0  0  0  0  0  0
   -4.9820    0.2700  -21.7980 C   0  0  0  0  0  0  0  0  0  0  0  0
   -5.4300   -0.0420  -20.4850 C   0  0  0  0  0  0  0  0  0  0  0  0
   -5.5180   -0.1250  -22.6550 H   0  0  0  0  0  0  0  0  0  0  0  0
   -3.5650    1.3170  -23.0020 H   0  0  0  0  0  0  0  0  0  0  0  0
   -2.3350    2.2610  -21.0610 H   0  0  0  0  0  0  0  0  0  0  0  0
   -3.0920    1.7610  -18.7510 H   0  0  0  0  0  0  0  0  0  0  0  0
   -4.6650    0.6330  -17.2220 H   0  0  0  0  0  0  0  0  0  0  0  0
   -7.7460   -1.7000  -18.6490 H   0  0  0  0  0  0  0  0  0  0  0  0
   -8.2950   -1.8870  -20.9180 H   0  0  0  0  0  0  0  0  0  0  0  0
   -7.5640   -0.8200  -22.1030 H   0  0  0  0  0  0  0  0  0  0  0  0
   -7.1490   -3.2940  -23.0400 N   0  0  0  0  0  0  0  0  0  0  0  0
   -7.8540   -2.4790  -24.0270 C   0  0  0  0  0  0  0  0  0  0  0  0
   -9.3150   -2.1800  -23.7330 C   0  0  0  0  0  0  0  0  0  0  0  0
   -9.9190   -1.0620  -24.3170 C   0  0  0  0  0  0  0  0  0  0  0  0
  -11.2510   -0.7560  -24.0500 C   0  0  0  0  0  0  0  0  0  0  0  0
  -12.0080   -1.5610  -23.2050 C   0  0  0  0  0  0  0  0  0  0  0  0
  -11.4060   -2.6750  -22.6370 C   0  0  0  0  0  0  0  0  0  0  0  0
  -12.3390   -3.7010  -21.5790 Cl  0  0  0  0  0  0  0  0  0  0  0  0
  -10.0770   -2.9910  -22.8890 C   0  0  0  0  0  0  0  0  0  0  0  0
   -9.6430   -3.8570  -22.4040 H   0  0  0  0  0  0  0  0  0  0  0  0
  -13.0450   -1.3310  -22.9830 H   0  0  0  0  0  0  0  0  0  0  0  0
  -11.7050    0.1250  -24.4980 H   0  0  0  0  0  0  0  0  0  0  0  0
   -9.3450   -0.4170  -24.9780 H   0  0  0  0  0  0  0  0  0  0  0  0
   -7.7740   -2.9720  -24.9990 H   0  0  0  0  0  0  0  0  0  0  0  0
   -7.3130   -1.5310  -24.1530 H   0  0  0  0  0  0  0  0  0  0  0  0
   -6.8220   -4.6830  -23.3750 C   0  0  2  0  0  0  0  0  0  0  0  0
   -7.7350   -5.3520  -24.4250 C   0  0  0  0  0  0  0  0  0  0  0  0
   -7.4920   -6.8660  -24.2130 C   0  0  0  0  0  0  0  0  0  0  0  0
   -6.4800   -6.8780  -23.0700 C   0  0  2  0  0  0  0  0  0  0  0  0
   -6.9020   -5.6910  -22.2160 C   0  0  0  0  0  0  0  0  0  0  0  0
   -6.2120   -5.4470  -21.4060 H   0  0  0  0  0  0  0  0  0  0  0  0
   -7.9200   -5.7690  -21.8150 H   0  0  0  0  0  0  0  0  0  0  0  0
   -5.1410   -6.4110  -23.6910 N   0  3  2  0  0  0  0  0  0  0  0  0
   -3.9410   -6.7690  -22.8580 C   0  0  0  0  0  0  0  0  0  0  0  0
   -3.0950   -7.9440  -23.3650 C   0  0  0  0  0  0  0  0  0  0  0  0
   -3.7910   -9.0510  -24.1650 C   0  0  0  0  0  0  0  0  0  0  0  0
   -3.5080   -8.3650  -25.3970 O   0  0  0  0  0  0  0  0  0  0  0  0
   -2.4340   -7.6730  -24.7260 C   0  0  0  0  0  0  0  0  0  0  0  0
   -2.3940   -6.6260  -25.0360 H   0  0  0  0  0  0  0  0  0  0  0  0
   -1.4520   -8.1720  -24.8430 H   0  0  0  0  0  0  0  0  0  0  0  0
   -3.2080   -9.9830  -24.0680 H   0  0  0  0  0  0  0  0  0  0  0  0
   -4.8620   -9.2470  -24.0400 H   0  0  0  0  0  0  0  0  0  0  0  0
   -2.4590   -8.2960  -22.5500 H   0  0  0  0  0  0  0  0  0  0  0  0
   -3.2780   -5.8990  -22.8190 H   0  0  0  0  0  0  0  0  0  0  0  0
   -4.2760   -6.9460  -21.8320 H   0  0  0  0  0  0  0  0  0  0  0  0
   -5.3840   -4.9080  -23.8770 C   0  0  0  0  0  0  0  0  0  0  0  0
   -4.7010   -4.3390  -23.2570 H   0  0  0  0  0  0  0  0  0  0  0  0
   -5.2370   -4.6430  -24.9270 H   0  0  0  0  0  0  0  0  0  0  0  0
   -5.0150   -6.8520  -24.6160 H   0  0  0  0  0  0  0  0  0  0  0  0
   -6.3370   -7.8270  -22.5550 H   0  0  0  0  0  0  0  0  0  0  0  0
   -8.4140   -7.3900  -23.9500 H   0  0  0  0  0  0  0  0  0  0  0  0
   -7.0610   -7.3570  -25.0930 H   0  0  0  0  0  0  0  0  0  0  0  0
   -7.4690   -5.0410  -25.4390 H   0  0  0  0  0  0  0  0  0  0  0  0
   -8.7780   -5.0770  -24.2420 H   0  0  0  0  0  0  0  0  0  0  0  0
  1  2  2  0  0  0  0
  2  3  1  0  0  0  0
  2 22  1  0  0  0  0
  3  4  1  0  0  0  0
  3 20  1  0  0  0  0
  3 21  1  0  0  0  0
  4  5  2  0  0  0  0
  4 13  1  0  0  0  0
  5  6  1  0  0  0  0
  5 19  1  0  0  0  0
  6  7  2  0  0  0  0
  7  8  1  0  0  0  0
  7 18  1  0  0  0  0
  8  9  2  0  0  0  0
  8 13  1  0  0  0  0
  9 10  1  0  0  0  0
  9 17  1  0  0  0  0
 10 11  2  0  0  0  0
 10 16  1  0  0  0  0
 11 12  1  0  0  0  0
 11 15  1  0  0  0  0
 12 13  2  0  0  0  0
 12 14  1  0  0  0  0
 22 23  1  0  0  0  0
 23 24  1  0  0  0  0
 23 35  1  0  0  0  0
 23 36  1  0  0  0  0
 24 25  2  0  0  0  0
 24 30  1  0  0  0  0
 25 26  1  0  0  0  0
 25 34  1  0  0  0  0
 26 27  2  0  0  0  0
 26 33  1  0  0  0  0
 27 28  1  0  0  0  0
 27 32  1  0  0  0  0
 28 29  1  0  0  0  0
 28 30  2  0  0  0  0
 30 31  1  0  0  0  0
 37 22  1  1  0  0  0
 37 38  1  0  0  0  0
 37 41  1  0  0  0  0
 37 57  1  0  0  0  0
 38 39  1  0  0  0  0
 38 64  1  0  0  0  0
 38 65  1  0  0  0  0
 39 40  1  0  0  0  0
 39 62  1  0  0  0  0
 39 63  1  0  0  0  0
 40 41  1  0  0  0  0
 40 44  1  0  0  0  0
 40 61  1  1  0  0  0
 41 42  1  0  0  0  0
 41 43  1  0  0  0  0
 44 45  1  0  0  0  0
 44 57  1  0  0  0  0
 44 60  1  6  0  0  0
 45 46  1  0  0  0  0
 45 55  1  0  0  0  0
 45 56  1  0  0  0  0
 46 47  1  0  0  0  0
 46 49  1  0  0  0  0
 46 54  1  0  0  0  0
 47 48  1  0  0  0  0
 47 52  1  0  0  0  0
 47 53  1  0  0  0  0
 48 49  1  0  0  0  0
 49 50  1  0  0  0  0
 49 51  1  0  0  0  0
 57 58  1  0  0  0  0
 57 59  1  0  0  0  0
M  CHG  1  44   1
M  END
>  <MODEL>
       1

$$$$
