tmp_first_model_20_52.pdb
 OpenBabel08282503553D

 57 60  0  0  0  0  0  0  0  0999 V2000
   -2.7770   -4.2480  -29.8330 C   0  0  0  0  0  0  0  0  0  0  0  0
   -2.7450   -3.2910  -28.6420 C   0  0  0  0  0  0  0  0  0  0  0  0
   -3.8760   -3.5840  -27.6570 C   0  0  0  0  0  0  0  0  0  0  0  0
   -4.9620   -3.0460  -27.7670 O   0  0  0  0  0  0  0  0  0  0  0  0
   -3.6300   -4.5060  -26.6580 N   0  0  0  0  0  0  0  0  0  0  0  0
   -4.5030   -4.7710  -25.5680 C   0  0  0  0  0  0  0  0  0  0  0  0
   -4.5890   -6.0660  -25.0430 C   0  0  0  0  0  0  0  0  0  0  0  0
   -5.4520   -6.3200  -23.9820 C   0  0  0  0  0  0  0  0  0  0  0  0
   -6.2030   -5.3060  -23.3950 C   0  0  0  0  0  0  0  0  0  0  0  0
   -6.0760   -4.0040  -23.8840 C   0  0  0  0  0  0  0  0  0  0  0  0
   -6.8350   -2.9220  -23.3080 N   0  0  0  0  0  0  0  0  0  0  0  0
   -7.8250   -2.2400  -24.1360 C   0  0  0  0  0  0  0  0  0  0  0  0
   -9.2590   -2.5000  -23.7240 C   0  0  0  0  0  0  0  0  0  0  0  0
  -10.1230   -1.4560  -23.3920 C   0  0  0  0  0  0  0  0  0  0  0  0
  -11.4310   -1.7100  -22.9860 C   0  0  0  0  0  0  0  0  0  0  0  0
  -11.8930   -3.0190  -22.9190 C   0  0  0  0  0  0  0  0  0  0  0  0
  -11.0420   -4.0620  -23.2680 C   0  0  0  0  0  0  0  0  0  0  0  0
   -9.7360   -3.8090  -23.6690 C   0  0  0  0  0  0  0  0  0  0  0  0
   -9.0790   -4.6320  -23.9430 H   0  0  0  0  0  0  0  0  0  0  0  0
  -11.4060   -5.0800  -23.2330 H   0  0  0  0  0  0  0  0  0  0  0  0
  -12.9110   -3.2270  -22.6030 H   0  0  0  0  0  0  0  0  0  0  0  0
  -12.0860   -0.8850  -22.7200 H   0  0  0  0  0  0  0  0  0  0  0  0
   -9.7730   -0.4270  -23.4440 H   0  0  0  0  0  0  0  0  0  0  0  0
   -7.6280   -1.1610  -24.1580 H   0  0  0  0  0  0  0  0  0  0  0  0
   -7.6680   -2.6020  -25.1550 H   0  0  0  0  0  0  0  0  0  0  0  0
   -6.6610   -2.6540  -21.9540 C   0  0  0  0  0  0  0  0  0  0  0  0
   -5.9150   -3.3350  -21.2800 O   0  0  0  0  0  0  0  0  0  0  0  0
   -7.3910   -1.4610  -21.2900 C   0  0  0  0  0  0  0  0  0  0  0  0
   -6.5740   -0.8300  -20.1800 C   0  0  0  0  0  0  0  0  0  0  0  0
   -6.8740   -1.0460  -18.8600 C   0  0  0  0  0  0  0  0  0  0  0  0
   -6.1940   -0.5370  -17.7940 N   0  0  0  0  0  0  0  0  0  0  0  0
   -5.1580    0.2200  -18.0640 C   0  0  0  0  0  0  0  0  0  0  0  0
   -4.7190    0.5330  -19.3770 C   0  0  0  0  0  0  0  0  0  0  0  0
   -3.5930    1.3570  -19.6220 C   0  0  0  0  0  0  0  0  0  0  0  0
   -3.1930    1.6360  -20.9000 C   0  0  0  0  0  0  0  0  0  0  0  0
   -3.9070    1.0950  -21.9930 C   0  0  0  0  0  0  0  0  0  0  0  0
   -5.0030    0.2950  -21.7850 C   0  0  0  0  0  0  0  0  0  0  0  0
   -5.4460   -0.0070  -20.4730 C   0  0  0  0  0  0  0  0  0  0  0  0
   -5.5380   -0.1070  -22.6410 H   0  0  0  0  0  0  0  0  0  0  0  0
   -3.5900    1.3260  -23.0060 H   0  0  0  0  0  0  0  0  0  0  0  0
   -2.3330    2.2750  -21.0900 H   0  0  0  0  0  0  0  0  0  0  0  0
   -3.0510    1.7690  -18.7720 H   0  0  0  0  0  0  0  0  0  0  0  0
   -4.6010    0.6270  -17.2160 H   0  0  0  0  0  0  0  0  0  0  0  0
   -7.7230   -1.6720  -18.5870 H   0  0  0  0  0  0  0  0  0  0  0  0
   -7.6860   -0.6960  -22.0170 H   0  0  0  0  0  0  0  0  0  0  0  0
   -8.3240   -1.8490  -20.8590 H   0  0  0  0  0  0  0  0  0  0  0  0
   -5.2530   -3.7480  -24.9820 C   0  0  0  0  0  0  0  0  0  0  0  0
   -5.1670   -2.7370  -25.3600 H   0  0  0  0  0  0  0  0  0  0  0  0
   -6.8640   -5.5200  -22.5570 H   0  0  0  0  0  0  0  0  0  0  0  0
   -5.5210   -7.3270  -23.5810 H   0  0  0  0  0  0  0  0  0  0  0  0
   -4.0080   -6.8830  -25.4680 H   0  0  0  0  0  0  0  0  0  0  0  0
   -2.8200   -5.1030  -26.7470 H   0  0  0  0  0  0  0  0  0  0  0  0
   -1.7610   -3.3120  -28.1570 H   0  0  0  0  0  0  0  0  0  0  0  0
   -2.9100   -2.2710  -28.9990 H   0  0  0  0  0  0  0  0  0  0  0  0
   -2.6270   -5.2790  -29.5010 H   0  0  0  0  0  0  0  0  0  0  0  0
   -1.9920   -4.0080  -30.5590 H   0  0  0  0  0  0  0  0  0  0  0  0
   -3.7390   -4.1970  -30.3550 H   0  0  0  0  0  0  0  0  0  0  0  0
  1  2  1  0  0  0  0
  1 55  1  0  0  0  0
  1 56  1  0  0  0  0
  1 57  1  0  0  0  0
  2  3  1  0  0  0  0
  2 53  1  0  0  0  0
  2 54  1  0  0  0  0
  3  4  2  0  0  0  0
  3  5  1  0  0  0  0
  5  6  1  0  0  0  0
  5 52  1  0  0  0  0
  6  7  2  0  0  0  0
  6 47  1  0  0  0  0
  7  8  1  0  0  0  0
  7 51  1  0  0  0  0
  8  9  2  0  0  0  0
  8 50  1  0  0  0  0
  9 10  1  0  0  0  0
  9 49  1  0  0  0  0
 10 11  1  0  0  0  0
 10 47  2  0  0  0  0
 11 12  1  0  0  0  0
 11 26  1  0  0  0  0
 12 13  1  0  0  0  0
 12 24  1  0  0  0  0
 12 25  1  0  0  0  0
 13 14  2  0  0  0  0
 13 18  1  0  0  0  0
 14 15  1  0  0  0  0
 14 23  1  0  0  0  0
 15 16  2  0  0  0  0
 15 22  1  0  0  0  0
 16 17  1  0  0  0  0
 16 21  1  0  0  0  0
 17 18  2  0  0  0  0
 17 20  1  0  0  0  0
 18 19  1  0  0  0  0
 26 27  2  0  0  0  0
 26 28  1  0  0  0  0
 28 29  1  0  0  0  0
 28 45  1  0  0  0  0
 28 46  1  0  0  0  0
 29 30  2  0  0  0  0
 29 38  1  0  0  0  0
 30 31  1  0  0  0  0
 30 44  1  0  0  0  0
 31 32  2  0  0  0  0
 32 33  1  0  0  0  0
 32 43  1  0  0  0  0
 33 34  2  0  0  0  0
 33 38  1  0  0  0  0
 34 35  1  0  0  0  0
 34 42  1  0  0  0  0
 35 36  2  0  0  0  0
 35 41  1  0  0  0  0
 36 37  1  0  0  0  0
 36 40  1  0  0  0  0
 37 38  2  0  0  0  0
 37 39  1  0  0  0  0
 47 48  1  0  0  0  0
M  END
>  <MODEL>
       1

$$$$
