tmp_first_model_14_12.pdb
 OpenBabel08282500413D

 76 82  0  0  1  0  0  0  0  0999 V2000
  -11.2170    1.6510  -23.5180 O   0  0  0  0  0  0  0  0  0  0  0  0
  -10.6830    0.5540  -23.6300 C   0  0  0  0  0  0  0  0  0  0  0  0
  -11.3670   -0.7180  -23.2130 C   0  0  0  0  0  0  0  0  0  0  0  0
  -12.7580   -0.7370  -23.2080 C   0  0  0  0  0  0  0  0  0  0  0  0
  -13.4250   -1.8360  -22.7090 C   0  0  0  0  0  0  0  0  0  0  0  0
  -12.6970   -2.9090  -22.2020 C   0  0  0  0  0  0  0  0  0  0  0  0
  -13.5980   -4.1780  -21.4190 Cl  0  0  0  0  0  0  0  0  0  0  0  0
  -11.3110   -2.9290  -22.2430 C   0  0  0  0  0  0  0  0  0  0  0  0
  -10.6210   -1.8250  -22.7720 C   0  0  0  0  0  0  0  0  0  0  0  0
   -9.1090   -1.7010  -22.8190 C   0  0  1  0  0  0  0  0  0  0  0  0
   -8.7760   -0.8980  -24.1100 C   0  0  0  0  0  0  0  0  0  0  0  0
   -9.4340    0.3950  -24.1380 N   0  0  0  0  0  0  0  0  0  0  0  0
   -8.6700    1.5750  -24.4940 C   0  0  0  0  0  0  0  0  0  0  0  0
   -8.0720    2.2350  -23.2520 C   0  0  0  0  0  0  0  0  0  0  0  0
   -7.2480    3.4300  -23.5330 N   0  3  0  0  0  0  0  0  0  0  0  0
   -6.0630    3.1490  -24.4400 C   0  0  0  0  0  0  0  0  0  0  0  0
   -5.0400    4.2780  -24.2850 C   0  0  0  0  0  0  0  0  0  0  0  0
   -5.7280    5.4600  -23.9350 O   0  0  0  0  0  0  0  0  0  0  0  0
   -6.0770    5.4020  -22.5680 C   0  0  0  0  0  0  0  0  0  0  0  0
   -6.8270    4.0960  -22.2510 C   0  0  0  0  0  0  0  0  0  0  0  0
   -7.7190    4.2840  -21.6470 H   0  0  0  0  0  0  0  0  0  0  0  0
   -6.1900    3.3960  -21.6970 H   0  0  0  0  0  0  0  0  0  0  0  0
   -5.1630    5.4670  -21.9600 H   0  0  0  0  0  0  0  0  0  0  0  0
   -6.6810    6.2890  -22.3640 H   0  0  0  0  0  0  0  0  0  0  0  0
   -4.2960    4.0360  -23.5080 H   0  0  0  0  0  0  0  0  0  0  0  0
   -4.5020    4.4720  -25.2180 H   0  0  0  0  0  0  0  0  0  0  0  0
   -6.4220    3.1210  -25.4700 H   0  0  0  0  0  0  0  0  0  0  0  0
   -5.6360    2.1750  -24.1860 H   0  0  0  0  0  0  0  0  0  0  0  0
   -7.8410    4.1230  -24.0260 H   0  0  0  0  0  0  0  0  0  0  0  0
   -7.4580    1.4950  -22.7270 H   0  0  0  0  0  0  0  0  0  0  0  0
   -8.8810    2.5040  -22.5660 H   0  0  0  0  0  0  0  0  0  0  0  0
   -9.3420    2.2560  -25.0220 H   0  0  0  0  0  0  0  0  0  0  0  0
   -7.8910    1.2440  -25.1910 H   0  0  0  0  0  0  0  0  0  0  0  0
   -9.1100   -1.4920  -24.9680 H   0  0  0  0  0  0  0  0  0  0  0  0
   -7.6970   -0.7240  -24.1780 H   0  0  0  0  0  0  0  0  0  0  0  0
   -8.5990   -0.9240  -21.5850 C   0  0  0  0  0  0  0  0  0  0  0  0
   -9.1570    0.0000  -21.0170 O   0  0  0  0  0  0  0  0  0  0  0  0
   -7.3780   -1.4340  -21.2190 N   0  0  0  0  0  0  0  0  0  0  0  0
   -6.5990   -0.8270  -20.1980 C   0  0  0  0  0  0  0  0  0  0  0  0
   -6.9250   -1.0280  -18.8810 C   0  0  0  0  0  0  0  0  0  0  0  0
   -6.2390   -0.5030  -17.8380 N   0  0  0  0  0  0  0  0  0  0  0  0
   -5.1860    0.2300  -18.1010 C   0  0  0  0  0  0  0  0  0  0  0  0
   -4.7400    0.5270  -19.4190 C   0  0  0  0  0  0  0  0  0  0  0  0
   -3.6090    1.3540  -19.6480 C   0  0  0  0  0  0  0  0  0  0  0  0
   -3.2070    1.6410  -20.9250 C   0  0  0  0  0  0  0  0  0  0  0  0
   -3.9210    1.1180  -22.0240 C   0  0  0  0  0  0  0  0  0  0  0  0
   -5.0220    0.3130  -21.8270 C   0  0  0  0  0  0  0  0  0  0  0  0
   -5.4620   -0.0110  -20.5110 C   0  0  0  0  0  0  0  0  0  0  0  0
   -5.5640   -0.0760  -22.6830 H   0  0  0  0  0  0  0  0  0  0  0  0
   -3.5970    1.3520  -23.0350 H   0  0  0  0  0  0  0  0  0  0  0  0
   -2.3500    2.2870  -21.0940 H   0  0  0  0  0  0  0  0  0  0  0  0
   -3.0850    1.7610  -18.7890 H   0  0  0  0  0  0  0  0  0  0  0  0
   -4.6230    0.6280  -17.2550 H   0  0  0  0  0  0  0  0  0  0  0  0
   -7.7810   -1.6490  -18.6220 H   0  0  0  0  0  0  0  0  0  0  0  0
   -6.9740   -2.5960  -21.9920 C   0  0  0  0  0  0  0  0  0  0  0  0
   -8.2780   -3.0080  -22.7010 C   0  0  2  0  0  0  0  0  0  0  0  0
   -8.0850   -3.8850  -23.9470 C   0  0  0  0  0  0  0  0  0  0  0  0
   -7.1760   -3.3460  -24.9400 N   0  0  0  0  0  0  0  0  0  0  0  0
   -7.4460   -3.3310  -26.2790 C   0  0  0  0  0  0  0  0  0  0  0  0
   -6.4020   -2.9680  -27.0490 N   0  0  0  0  0  0  0  0  0  0  0  0
   -6.6640   -2.8370  -28.3340 C   0  0  0  0  0  0  0  0  0  0  0  0
   -7.9020   -3.1140  -28.8890 C   0  0  0  0  0  0  0  0  0  0  0  0
   -8.8870   -3.5340  -28.0170 C   0  0  0  0  0  0  0  0  0  0  0  0
   -8.6820   -3.6300  -26.6990 N   0  0  0  0  0  0  0  0  0  0  0  0
   -9.8830   -3.7970  -28.3720 H   0  0  0  0  0  0  0  0  0  0  0  0
   -8.0500   -2.9980  -29.9470 H   0  0  0  0  0  0  0  0  0  0  0  0
   -5.8240   -2.4840  -28.9270 H   0  0  0  0  0  0  0  0  0  0  0  0
   -6.1890   -3.2840  -24.7380 H   0  0  0  0  0  0  0  0  0  0  0  0
   -7.7560   -4.8840  -23.6250 H   0  0  0  0  0  0  0  0  0  0  0  0
   -9.0470   -4.0120  -24.4430 H   0  0  0  0  0  0  0  0  0  0  0  0
   -8.8310   -3.6240  -21.9850 H   0  0  0  0  0  0  0  0  0  0  0  0
   -6.1690   -2.3300  -22.6900 H   0  0  0  0  0  0  0  0  0  0  0  0
   -6.6010   -3.3860  -21.3320 H   0  0  0  0  0  0  0  0  0  0  0  0
  -10.7870   -3.7790  -21.8210 H   0  0  0  0  0  0  0  0  0  0  0  0
  -14.5050   -1.8610  -22.6420 H   0  0  0  0  0  0  0  0  0  0  0  0
  -13.2890    0.1220  -23.6080 H   0  0  0  0  0  0  0  0  0  0  0  0
  1  2  2  0  0  0  0
  2  3  1  0  0  0  0
  2 12  1  0  0  0  0
  3  4  2  0  0  0  0
  3  9  1  0  0  0  0
  4  5  1  0  0  0  0
  4 76  1  0  0  0  0
  5  6  2  0  0  0  0
  5 75  1  0  0  0  0
  6  7  1  0  0  0  0
  6  8  1  0  0  0  0
  8  9  2  0  0  0  0
  8 74  1  0  0  0  0
 10  9  1  1  0  0  0
 10 11  1  0  0  0  0
 10 36  1  0  0  0  0
 10 56  1  0  0  0  0
 11 12  1  0  0  0  0
 11 34  1  0  0  0  0
 11 35  1  0  0  0  0
 12 13  1  0  0  0  0
 13 14  1  0  0  0  0
 13 32  1  0  0  0  0
 13 33  1  0  0  0  0
 14 15  1  0  0  0  0
 14 30  1  0  0  0  0
 14 31  1  0  0  0  0
 15 16  1  0  0  0  0
 15 20  1  0  0  0  0
 15 29  1  0  0  0  0
 16 17  1  0  0  0  0
 16 27  1  0  0  0  0
 16 28  1  0  0  0  0
 17 18  1  0  0  0  0
 17 25  1  0  0  0  0
 17 26  1  0  0  0  0
 18 19  1  0  0  0  0
 19 20  1  0  0  0  0
 19 23  1  0  0  0  0
 19 24  1  0  0  0  0
 20 21  1  0  0  0  0
 20 22  1  0  0  0  0
 36 37  2  0  0  0  0
 36 38  1  0  0  0  0
 38 39  1  0  0  0  0
 38 55  1  0  0  0  0
 39 40  2  0  0  0  0
 39 48  1  0  0  0  0
 40 41  1  0  0  0  0
 40 54  1  0  0  0  0
 41 42  2  0  0  0  0
 42 43  1  0  0  0  0
 42 53  1  0  0  0  0
 43 44  2  0  0  0  0
 43 48  1  0  0  0  0
 44 45  1  0  0  0  0
 44 52  1  0  0  0  0
 45 46  2  0  0  0  0
 45 51  1  0  0  0  0
 46 47  1  0  0  0  0
 46 50  1  0  0  0  0
 47 48  2  0  0  0  0
 47 49  1  0  0  0  0
 55 56  1  0  0  0  0
 55 72  1  0  0  0  0
 55 73  1  0  0  0  0
 56 57  1  0  0  0  0
 56 71  1  1  0  0  0
 57 58  1  0  0  0  0
 57 69  1  0  0  0  0
 57 70  1  0  0  0  0
 58 59  1  0  0  0  0
 58 68  1  0  0  0  0
 59 60  2  0  0  0  0
 59 64  1  0  0  0  0
 60 61  1  0  0  0  0
 61 62  2  0  0  0  0
 61 67  1  0  0  0  0
 62 63  1  0  0  0  0
 62 66  1  0  0  0  0
 63 64  2  0  0  0  0
 63 65  1  0  0  0  0
M  CHG  1  15   1
M  END
>  <MODEL>
       1

$$$$
