tmp_first_model_7_9.pdb
 OpenBabel08272520323D

 41 43  0  0  1  0  0  0  0  0999 V2000
  -13.1740   -2.9110  -22.7510 C   0  0  0  0  0  0  0  0  0  0  0  0
  -11.9770   -2.0550  -23.1740 C   0  0  1  0  0  0  0  0  0  0  0  0
  -12.1510   -0.6450  -22.6480 C   0  0  0  0  0  0  0  0  0  0  0  0
  -11.2980    0.3650  -22.8330 C   0  0  0  0  0  0  0  0  0  0  0  0
   -9.9720    0.2360  -23.5680 C   0  0  0  0  0  0  0  0  0  0  0  0
   -9.0790   -0.7780  -23.0110 N   0  0  0  0  0  0  0  0  0  0  0  0
   -8.3620   -0.3910  -21.9020 C   0  0  0  0  0  0  0  0  0  0  0  0
   -8.4690    0.7340  -21.4440 O   0  0  0  0  0  0  0  0  0  0  0  0
   -7.4210   -1.4280  -21.2730 C   0  0  0  0  0  0  0  0  0  0  0  0
   -6.5740   -0.8330  -20.1840 C   0  0  0  0  0  0  0  0  0  0  0  0
   -6.8840   -1.0390  -18.8660 C   0  0  0  0  0  0  0  0  0  0  0  0
   -6.1960   -0.5360  -17.8090 N   0  0  0  0  0  0  0  0  0  0  0  0
   -5.1610    0.2180  -18.0750 C   0  0  0  0  0  0  0  0  0  0  0  0
   -4.7230    0.5290  -19.3900 C   0  0  0  0  0  0  0  0  0  0  0  0
   -3.5970    1.3560  -19.6260 C   0  0  0  0  0  0  0  0  0  0  0  0
   -3.2110    1.6510  -20.9050 C   0  0  0  0  0  0  0  0  0  0  0  0
   -3.9380    1.1320  -21.9980 C   0  0  0  0  0  0  0  0  0  0  0  0
   -5.0300    0.3240  -21.7960 C   0  0  0  0  0  0  0  0  0  0  0  0
   -5.4540    0.0010  -20.4780 C   0  0  0  0  0  0  0  0  0  0  0  0
   -5.5860   -0.0700  -22.6400 H   0  0  0  0  0  0  0  0  0  0  0  0
   -3.6320    1.3810  -23.0100 H   0  0  0  0  0  0  0  0  0  0  0  0
   -2.3600    2.3030  -21.0800 H   0  0  0  0  0  0  0  0  0  0  0  0
   -3.0730    1.7650  -18.7660 H   0  0  0  0  0  0  0  0  0  0  0  0
   -4.6120    0.6210  -17.2230 H   0  0  0  0  0  0  0  0  0  0  0  0
   -7.7350   -1.6600  -18.5880 H   0  0  0  0  0  0  0  0  0  0  0  0
   -6.8080   -1.8970  -22.0550 H   0  0  0  0  0  0  0  0  0  0  0  0
   -8.0500   -2.2280  -20.8580 H   0  0  0  0  0  0  0  0  0  0  0  0
   -9.3820   -2.1570  -23.3760 C   0  0  0  0  0  0  0  0  0  0  0  0
  -10.6580   -2.7170  -22.7240 C   0  0  0  0  0  0  0  0  0  0  0  0
  -10.5850   -2.6560  -21.6270 H   0  0  0  0  0  0  0  0  0  0  0  0
  -10.7280   -3.7780  -22.9870 H   0  0  0  0  0  0  0  0  0  0  0  0
   -8.5180   -2.7880  -23.1380 H   0  0  0  0  0  0  0  0  0  0  0  0
   -9.5000   -2.1790  -24.4720 H   0  0  0  0  0  0  0  0  0  0  0  0
  -10.1070   -0.0640  -24.6150 H   0  0  0  0  0  0  0  0  0  0  0  0
   -9.4430    1.1950  -23.5420 H   0  0  0  0  0  0  0  0  0  0  0  0
  -11.5300    1.3450  -22.4080 H   0  0  0  0  0  0  0  0  0  0  0  0
  -13.0420   -0.4740  -22.0360 H   0  0  0  0  0  0  0  0  0  0  0  0
  -11.9390   -2.0160  -24.2760 H   0  0  0  0  0  0  0  0  0  0  0  0
  -13.0480   -3.9580  -23.0530 H   0  0  0  0  0  0  0  0  0  0  0  0
  -13.3060   -2.8750  -21.6630 H   0  0  0  0  0  0  0  0  0  0  0  0
  -14.0880   -2.5270  -23.2100 H   0  0  0  0  0  0  0  0  0  0  0  0
  1  2  1  0  0  0  0
  1 39  1  0  0  0  0
  1 40  1  0  0  0  0
  1 41  1  0  0  0  0
  2  3  1  0  0  0  0
  2 29  1  0  0  0  0
  2 38  1  6  0  0  0
  3  4  2  0  0  0  0
  3 37  1  0  0  0  0
  4  5  1  0  0  0  0
  4 36  1  0  0  0  0
  5  6  1  0  0  0  0
  5 34  1  0  0  0  0
  5 35  1  0  0  0  0
  6  7  1  0  0  0  0
  6 28  1  0  0  0  0
  7  8  2  0  0  0  0
  7  9  1  0  0  0  0
  9 10  1  0  0  0  0
  9 26  1  0  0  0  0
  9 27  1  0  0  0  0
 10 11  2  0  0  0  0
 10 19  1  0  0  0  0
 11 12  1  0  0  0  0
 11 25  1  0  0  0  0
 12 13  2  0  0  0  0
 13 14  1  0  0  0  0
 13 24  1  0  0  0  0
 14 15  2  0  0  0  0
 14 19  1  0  0  0  0
 15 16  1  0  0  0  0
 15 23  1  0  0  0  0
 16 17  2  0  0  0  0
 16 22  1  0  0  0  0
 17 18  1  0  0  0  0
 17 21  1  0  0  0  0
 18 19  2  0  0  0  0
 18 20  1  0  0  0  0
 28 29  1  0  0  0  0
 28 32  1  0  0  0  0
 28 33  1  0  0  0  0
 29 30  1  0  0  0  0
 29 31  1  0  0  0  0
M  END
>  <MODEL>
       1

$$$$
