tmp_first_model_3_6.pdb
 OpenBabel08272518143D

 43 45  0  0  0  0  0  0  0  0999 V2000
   -9.0670   -7.9900  -25.1230 C   0  0  0  0  0  0  0  0  0  0  0  0
   -9.3440   -6.4910  -25.2260 C   0  0  0  0  0  0  0  0  0  0  0  0
   -8.9640   -5.6910  -23.9710 C   0  0  0  0  0  0  0  0  0  0  0  0
   -7.5100   -5.8870  -23.5160 C   0  0  0  0  0  0  0  0  0  0  0  0
   -7.2950   -5.0680  -22.2540 C   0  0  0  0  0  0  0  0  0  0  0  0
   -7.5410   -3.6470  -22.4900 N   0  0  0  0  0  0  0  0  0  0  0  0
   -6.7490   -2.7810  -21.7670 C   0  0  0  0  0  0  0  0  0  0  0  0
   -5.5930   -3.0630  -21.4870 O   0  0  0  0  0  0  0  0  0  0  0  0
   -7.3950   -1.4820  -21.2790 C   0  0  0  0  0  0  0  0  0  0  0  0
   -6.5870   -0.8370  -20.1910 C   0  0  0  0  0  0  0  0  0  0  0  0
   -6.9050   -1.0550  -18.8730 C   0  0  0  0  0  0  0  0  0  0  0  0
   -6.2320   -0.5430  -17.8060 N   0  0  0  0  0  0  0  0  0  0  0  0
   -5.1920    0.2060  -18.0730 C   0  0  0  0  0  0  0  0  0  0  0  0
   -4.7360    0.5030  -19.3860 C   0  0  0  0  0  0  0  0  0  0  0  0
   -3.6120    1.3340  -19.6200 C   0  0  0  0  0  0  0  0  0  0  0  0
   -3.2090    1.6110  -20.8960 C   0  0  0  0  0  0  0  0  0  0  0  0
   -3.9080    1.0660  -21.9950 C   0  0  0  0  0  0  0  0  0  0  0  0
   -4.9950    0.2520  -21.7960 C   0  0  0  0  0  0  0  0  0  0  0  0
   -5.4440   -0.0420  -20.4800 C   0  0  0  0  0  0  0  0  0  0  0  0
   -5.5190   -0.1690  -22.6470 H   0  0  0  0  0  0  0  0  0  0  0  0
   -3.5890    1.3060  -23.0040 H   0  0  0  0  0  0  0  0  0  0  0  0
   -2.3560    2.2580  -21.0730 H   0  0  0  0  0  0  0  0  0  0  0  0
   -3.0980    1.7600  -18.7620 H   0  0  0  0  0  0  0  0  0  0  0  0
   -4.6440    0.6260  -17.2260 H   0  0  0  0  0  0  0  0  0  0  0  0
   -7.7630   -1.6730  -18.6130 H   0  0  0  0  0  0  0  0  0  0  0  0
   -7.5500   -0.8050  -22.1310 H   0  0  0  0  0  0  0  0  0  0  0  0
   -8.3870   -1.7460  -20.8900 H   0  0  0  0  0  0  0  0  0  0  0  0
   -8.9380   -3.4090  -22.8600 C   0  0  0  0  0  0  0  0  0  0  0  0
   -9.2620   -4.1920  -24.1400 C   0  0  0  0  0  0  0  0  0  0  0  0
   -8.6760   -3.7910  -24.9810 H   0  0  0  0  0  0  0  0  0  0  0  0
  -10.3170   -4.0370  -24.3970 H   0  0  0  0  0  0  0  0  0  0  0  0
   -9.6050   -3.7680  -22.0490 H   0  0  0  0  0  0  0  0  0  0  0  0
   -9.1500   -2.3440  -23.0020 H   0  0  0  0  0  0  0  0  0  0  0  0
   -8.0360   -5.4210  -21.5110 H   0  0  0  0  0  0  0  0  0  0  0  0
   -6.2970   -5.1740  -21.8220 H   0  0  0  0  0  0  0  0  0  0  0  0
   -6.8080   -5.6050  -24.3160 H   0  0  0  0  0  0  0  0  0  0  0  0
   -7.3220   -6.9380  -23.2640 H   0  0  0  0  0  0  0  0  0  0  0  0
   -9.5710   -6.0360  -23.1230 H   0  0  0  0  0  0  0  0  0  0  0  0
  -10.4110   -6.3180  -25.4210 H   0  0  0  0  0  0  0  0  0  0  0  0
   -8.7860   -6.0790  -26.0850 H   0  0  0  0  0  0  0  0  0  0  0  0
   -9.5890   -8.4660  -24.2810 H   0  0  0  0  0  0  0  0  0  0  0  0
   -7.9940   -8.1450  -24.9750 H   0  0  0  0  0  0  0  0  0  0  0  0
   -9.3740   -8.5110  -26.0390 H   0  0  0  0  0  0  0  0  0  0  0  0
  1  2  1  0  0  0  0
  1 41  1  0  0  0  0
  1 42  1  0  0  0  0
  1 43  1  0  0  0  0
  2  3  1  0  0  0  0
  2 39  1  0  0  0  0
  2 40  1  0  0  0  0
  3  4  1  0  0  0  0
  3 29  1  0  0  0  0
  3 38  1  0  0  0  0
  4  5  1  0  0  0  0
  4 36  1  0  0  0  0
  4 37  1  0  0  0  0
  5  6  1  0  0  0  0
  5 34  1  0  0  0  0
  5 35  1  0  0  0  0
  6  7  1  0  0  0  0
  6 28  1  0  0  0  0
  7  8  2  0  0  0  0
  7  9  1  0  0  0  0
  9 10  1  0  0  0  0
  9 26  1  0  0  0  0
  9 27  1  0  0  0  0
 10 11  2  0  0  0  0
 10 19  1  0  0  0  0
 11 12  1  0  0  0  0
 11 25  1  0  0  0  0
 12 13  2  0  0  0  0
 13 14  1  0  0  0  0
 13 24  1  0  0  0  0
 14 15  2  0  0  0  0
 14 19  1  0  0  0  0
 15 16  1  0  0  0  0
 15 23  1  0  0  0  0
 16 17  2  0  0  0  0
 16 22  1  0  0  0  0
 17 18  1  0  0  0  0
 17 21  1  0  0  0  0
 18 19  2  0  0  0  0
 18 20  1  0  0  0  0
 28 29  1  0  0  0  0
 28 32  1  0  0  0  0
 28 33  1  0  0  0  0
 29 30  1  0  0  0  0
 29 31  1  0  0  0  0
M  END
>  <MODEL>
       1

$$$$
