tmp_first_model_14_80.pdb
 OpenBabel08282500413D

 60 65  0  0  1  0  0  0  0  0999 V2000
   -7.1290    0.7900  -26.6840 C   0  0  0  0  0  0  0  0  0  0  0  0
   -8.3480    0.0860  -26.3520 N   0  0  0  0  0  0  0  0  0  0  0  0
   -8.3200   -1.2700  -26.2780 C   0  0  0  0  0  0  0  0  0  0  0  0
   -7.2860   -1.8930  -26.4790 O   0  0  0  0  0  0  0  0  0  0  0  0
   -9.6260   -1.9450  -25.9530 C   0  0  0  0  0  0  0  0  0  0  0  0
   -9.9400   -2.0200  -24.5550 N   0  0  0  0  0  0  0  0  0  0  0  0
   -9.4290   -1.4260  -23.3570 C   0  0  0  0  0  0  0  0  0  0  0  0
   -9.2470   -2.3940  -22.2260 C   0  0  2  0  0  0  0  0  0  0  0  0
   -8.9060   -1.5250  -21.0490 C   0  0  0  0  0  0  0  0  0  0  0  0
   -9.3130   -0.3180  -21.0100 O   0  0  0  0  0  0  0  0  0  0  0  0
   -7.3240   -1.4300  -21.2190 N   0  0  0  0  0  0  0  0  0  0  0  0
   -6.5750   -0.7890  -20.2180 C   0  0  0  0  0  0  0  0  0  0  0  0
   -6.9140   -0.9450  -18.8960 C   0  0  0  0  0  0  0  0  0  0  0  0
   -6.2300   -0.4350  -17.8460 N   0  0  0  0  0  0  0  0  0  0  0  0
   -5.1540    0.2700  -18.0970 C   0  0  0  0  0  0  0  0  0  0  0  0
   -4.6930    0.5680  -19.4110 C   0  0  0  0  0  0  0  0  0  0  0  0
   -3.5480    1.3790  -19.6570 C   0  0  0  0  0  0  0  0  0  0  0  0
   -3.1650    1.6710  -20.9380 C   0  0  0  0  0  0  0  0  0  0  0  0
   -3.9040    1.1550  -22.0240 C   0  0  0  0  0  0  0  0  0  0  0  0
   -5.0070    0.3660  -21.8170 C   0  0  0  0  0  0  0  0  0  0  0  0
   -5.4230    0.0390  -20.5030 C   0  0  0  0  0  0  0  0  0  0  0  0
   -5.5890   -0.0150  -22.6490 H   0  0  0  0  0  0  0  0  0  0  0  0
   -3.6170    1.4060  -23.0370 H   0  0  0  0  0  0  0  0  0  0  0  0
   -2.3170    2.3250  -21.1260 H   0  0  0  0  0  0  0  0  0  0  0  0
   -3.0080    1.7890  -18.8100 H   0  0  0  0  0  0  0  0  0  0  0  0
   -4.6250    0.6760  -17.2350 H   0  0  0  0  0  0  0  0  0  0  0  0
   -7.7700   -1.5550  -18.6330 H   0  0  0  0  0  0  0  0  0  0  0  0
   -6.6810   -2.4730  -22.0020 C   0  0  0  0  0  0  0  0  0  0  0  0
   -7.8600   -3.3410  -22.4550 C   0  0  2  0  0  0  0  0  0  0  0  0
   -7.9580   -3.9810  -23.8380 C   0  0  0  0  0  0  0  0  0  0  0  0
   -9.0140   -4.2990  -23.9790 H   0  0  0  0  0  0  0  0  0  0  0  0
   -7.3410   -4.8820  -23.8990 H   0  0  0  0  0  0  0  0  0  0  0  0
   -7.7470   -3.2360  -24.6220 H   0  0  0  0  0  0  0  0  0  0  0  0
   -7.7690   -4.1650  -21.6930 H   0  0  0  0  0  0  0  0  0  0  0  0
   -6.0650   -2.1000  -22.8550 H   0  0  0  0  0  0  0  0  0  0  0  0
   -5.9760   -3.0350  -21.3380 H   0  0  0  0  0  0  0  0  0  0  0  0
  -10.4640   -3.4440  -21.8520 C   0  0  0  0  0  0  0  0  0  0  0  0
  -10.4640   -3.4440  -21.8520 C   0  0  0  0  0  0  0  0  0  0  0  0
  -12.8110   -3.0410  -21.0380 C   0  0  0  0  0  0  0  0  0  0  0  0
  -13.6070   -4.1150  -23.4410 Cl  0  0  0  0  0  0  0  0  0  0  0  0
  -12.9940   -3.0300  -20.9240 C   0  0  0  0  0  0  0  0  0  0  0  0
  -12.8180   -2.7440  -22.4680 C   0  0  0  0  0  0  0  0  0  0  0  0
  -11.3490   -2.5960  -22.8600 C   0  0  0  0  0  0  0  0  0  0  0  0
  -11.0440   -2.7020  -24.2160 C   0  0  0  0  0  0  0  0  0  0  0  0
  -11.5570   -3.3850  -25.0640 O   0  0  0  0  0  0  0  0  0  0  0  0
  -12.9820   -1.7020  -22.7180 H   0  0  0  0  0  0  0  0  0  0  0  0
  -13.9380   -3.7160  -21.0380 H   0  0  0  0  0  0  0  0  0  0  0  0
   -9.0640   -2.1110  -20.0840 H   0  0  0  0  0  0  0  0  0  0  0  0
   -8.4780   -0.9290  -23.6180 H   0  0  0  0  0  0  0  0  0  0  0  0
  -10.1090   -0.6370  -23.0270 H   0  0  0  0  0  0  0  0  0  0  0  0
   -9.9500   -3.0320  -26.9520 C   0  0  0  0  0  0  0  0  0  0  0  0
  -10.7000   -1.7370  -26.9950 C   0  0  0  0  0  0  0  0  0  0  0  0
  -11.7350   -1.7180  -26.6710 H   0  0  0  0  0  0  0  0  0  0  0  0
  -10.4690   -1.0960  -27.8390 H   0  0  0  0  0  0  0  0  0  0  0  0
  -10.5000   -3.9140  -26.6630 H   0  0  0  0  0  0  0  0  0  0  0  0
   -9.1790   -3.2060  -27.6870 H   0  0  0  0  0  0  0  0  0  0  0  0
   -9.2480    0.5340  -26.4790 H   0  0  0  0  0  0  0  0  0  0  0  0
   -6.7690    0.5310  -27.6860 H   0  0  0  0  0  0  0  0  0  0  0  0
   -7.3100    1.8650  -26.6140 H   0  0  0  0  0  0  0  0  0  0  0  0
   -6.3400    0.5090  -25.9800 H   0  0  0  0  0  0  0  0  0  0  0  0
  1  2  1  0  0  0  0
  1 58  1  0  0  0  0
  1 59  1  0  0  0  0
  1 60  1  0  0  0  0
  2  3  1  0  0  0  0
  2 57  1  0  0  0  0
  3  4  2  0  0  0  0
  3  5  1  0  0  0  0
  5  6  1  0  0  0  0
  5 51  1  0  0  0  0
  5 52  1  0  0  0  0
  6  7  1  0  0  0  0
  6 44  1  0  0  0  0
  7  8  1  0  0  0  0
  7 49  1  0  0  0  0
  7 50  1  0  0  0  0
  8  9  1  1  0  0  0
  8 29  1  0  0  0  0
  8 37  1  0  0  0  0
  9 10  2  0  0  0  0
  9 11  1  0  0  0  0
 11 12  1  0  0  0  0
 11 28  1  0  0  0  0
 12 13  2  0  0  0  0
 12 21  1  0  0  0  0
 13 14  1  0  0  0  0
 13 27  1  0  0  0  0
 14 15  2  0  0  0  0
 15 16  1  0  0  0  0
 15 26  1  0  0  0  0
 16 17  2  0  0  0  0
 16 21  1  0  0  0  0
 17 18  1  0  0  0  0
 17 25  1  0  0  0  0
 18 19  2  0  0  0  0
 18 24  1  0  0  0  0
 19 20  1  0  0  0  0
 19 23  1  0  0  0  0
 20 21  2  0  0  0  0
 20 22  1  0  0  0  0
 28 29  1  0  0  0  0
 28 35  1  0  0  0  0
 28 36  1  0  0  0  0
 29 30  1  0  0  0  0
 29 34  1  1  0  0  0
 30 31  1  0  0  0  0
 30 32  1  0  0  0  0
 30 33  1  0  0  0  0
 37 38  2  0  0  0  0
 37 43  1  0  0  0  0
 38 39  1  0  0  0  0
 38 48  1  0  0  0  0
 39 40  1  0  0  0  0
 39 41  2  0  0  0  0
 41 42  1  0  0  0  0
 41 47  1  0  0  0  0
 42 43  2  0  0  0  0
 42 46  1  0  0  0  0
 43 44  1  0  0  0  0
 44 45  2  0  0  0  0
 51 52  1  0  0  0  0
 51 55  1  0  0  0  0
 51 56  1  0  0  0  0
 52 53  1  0  0  0  0
 52 54  1  0  0  0  0
M  END
>  <MODEL>
       1

$$$$
