tmp_first_model_12_23.pdb
 OpenBabel08272523333D

 68 73  0  0  1  0  0  0  0  0999 V2000
   -7.3730    3.4730  -21.9200 C   0  0  0  0  0  0  0  0  0  0  0  0
   -8.3120    2.9950  -22.9210 N   0  0  0  0  0  0  0  0  0  0  0  0
   -7.8080    2.2440  -23.9390 C   0  0  0  0  0  0  0  0  0  0  0  0
   -6.6140    2.0220  -24.0590 O   0  0  0  0  0  0  0  0  0  0  0  0
   -8.8270    1.6600  -24.9160 C   0  0  0  0  0  0  0  0  0  0  0  0
   -9.4920    0.5320  -24.2870 N   0  0  0  0  0  0  0  0  0  0  0  0
   -8.7420   -0.7130  -24.1530 C   0  0  0  0  0  0  0  0  0  0  0  0
   -9.1310   -1.4760  -22.8610 C   0  0  2  0  0  0  0  0  0  0  0  0
   -8.5680   -0.7120  -21.6370 C   0  0  0  0  0  0  0  0  0  0  0  0
   -9.0050    0.3050  -21.1330 O   0  0  0  0  0  0  0  0  0  0  0  0
   -7.4360   -1.3620  -21.2060 N   0  0  0  0  0  0  0  0  0  0  0  0
   -6.6370   -0.7910  -20.1820 C   0  0  0  0  0  0  0  0  0  0  0  0
   -6.9400   -1.0520  -18.8710 C   0  0  0  0  0  0  0  0  0  0  0  0
   -6.2450   -0.5740  -17.8120 N   0  0  0  0  0  0  0  0  0  0  0  0
   -5.2090    0.1880  -18.0700 C   0  0  0  0  0  0  0  0  0  0  0  0
   -4.7990    0.5590  -19.3820 C   0  0  0  0  0  0  0  0  0  0  0  0
   -3.6720    1.3900  -19.6100 C   0  0  0  0  0  0  0  0  0  0  0  0
   -3.3370    1.7740  -20.8790 C   0  0  0  0  0  0  0  0  0  0  0  0
   -4.1260    1.3690  -21.9770 C   0  0  0  0  0  0  0  0  0  0  0  0
   -5.2080    0.5400  -21.7880 C   0  0  0  0  0  0  0  0  0  0  0  0
   -5.5590    0.0950  -20.4830 C   0  0  0  0  0  0  0  0  0  0  0  0
   -5.8120    0.2520  -22.6440 H   0  0  0  0  0  0  0  0  0  0  0  0
   -3.8810    1.7180  -22.9780 H   0  0  0  0  0  0  0  0  0  0  0  0
   -2.4590    2.3920  -21.0470 H   0  0  0  0  0  0  0  0  0  0  0  0
   -3.0960    1.7210  -18.7490 H   0  0  0  0  0  0  0  0  0  0  0  0
   -4.6360    0.5590  -17.2180 H   0  0  0  0  0  0  0  0  0  0  0  0
   -7.7980   -1.6810  -18.6460 H   0  0  0  0  0  0  0  0  0  0  0  0
   -7.1060   -2.5510  -21.9690 C   0  0  0  0  0  0  0  0  0  0  0  0
   -8.3950   -2.8460  -22.7460 C   0  0  2  0  0  0  0  0  0  0  0  0
   -8.1040   -3.6040  -24.0410 C   0  0  0  0  0  0  0  0  0  0  0  0
   -9.3110   -3.9920  -24.7180 N   0  0  0  0  0  0  0  0  0  0  0  0
   -9.3020   -4.6020  -25.9550 C   0  0  0  0  0  0  0  0  0  0  0  0
  -10.5230   -4.8910  -26.5810 C   0  0  0  0  0  0  0  0  0  0  0  0
  -10.5640   -5.5030  -27.8250 C   0  0  0  0  0  0  0  0  0  0  0  0
   -9.3890   -5.8450  -28.4890 C   0  0  0  0  0  0  0  0  0  0  0  0
   -8.1720   -5.5740  -27.8730 C   0  0  0  0  0  0  0  0  0  0  0  0
   -8.1170   -4.9650  -26.6220 C   0  0  0  0  0  0  0  0  0  0  0  0
   -7.1450   -4.7810  -26.1730 H   0  0  0  0  0  0  0  0  0  0  0  0
   -7.2460   -5.8480  -28.3790 H   0  0  0  0  0  0  0  0  0  0  0  0
   -9.4250   -6.3240  -29.4650 H   0  0  0  0  0  0  0  0  0  0  0  0
  -11.5260   -5.7240  -28.2830 H   0  0  0  0  0  0  0  0  0  0  0  0
  -11.4460   -4.6370  -26.0700 H   0  0  0  0  0  0  0  0  0  0  0  0
  -10.2110   -3.6910  -24.3730 H   0  0  0  0  0  0  0  0  0  0  0  0
   -7.5200   -4.5040  -23.7980 H   0  0  0  0  0  0  0  0  0  0  0  0
   -7.4700   -2.9840  -24.7000 H   0  0  0  0  0  0  0  0  0  0  0  0
   -9.0110   -3.4990  -22.1200 H   0  0  0  0  0  0  0  0  0  0  0  0
   -6.8340   -3.3820  -21.3120 H   0  0  0  0  0  0  0  0  0  0  0  0
   -6.2630   -2.3780  -22.6570 H   0  0  0  0  0  0  0  0  0  0  0  0
  -10.6430   -1.5430  -22.7710 C   0  0  0  0  0  0  0  0  0  0  0  0
  -11.2690   -2.4750  -21.9370 C   0  0  0  0  0  0  0  0  0  0  0  0
  -12.6430   -2.4760  -21.7850 C   0  0  0  0  0  0  0  0  0  0  0  0
  -13.3580   -3.6030  -20.6710 Cl  0  0  0  0  0  0  0  0  0  0  0  0
  -13.4500   -1.5620  -22.4590 C   0  0  0  0  0  0  0  0  0  0  0  0
  -12.8400   -0.6150  -23.2570 C   0  0  0  0  0  0  0  0  0  0  0  0
  -11.4540   -0.5830  -23.3960 C   0  0  0  0  0  0  0  0  0  0  0  0
  -10.8550    0.5560  -24.1660 C   0  0  0  0  0  0  0  0  0  0  0  0
  -11.5450    1.4590  -24.6230 O   0  0  0  0  0  0  0  0  0  0  0  0
  -13.4150    0.1440  -23.7750 H   0  0  0  0  0  0  0  0  0  0  0  0
  -14.5270   -1.5840  -22.3380 H   0  0  0  0  0  0  0  0  0  0  0  0
  -10.7060   -3.1940  -21.3540 H   0  0  0  0  0  0  0  0  0  0  0  0
   -7.6700   -0.4850  -24.1420 H   0  0  0  0  0  0  0  0  0  0  0  0
   -8.9360   -1.3540  -25.0240 H   0  0  0  0  0  0  0  0  0  0  0  0
   -8.3230    1.3340  -25.8330 H   0  0  0  0  0  0  0  0  0  0  0  0
   -9.5930    2.3920  -25.1890 H   0  0  0  0  0  0  0  0  0  0  0  0
   -9.2510    2.7780  -22.6090 H   0  0  0  0  0  0  0  0  0  0  0  0
   -6.9060    2.6190  -21.4090 H   0  0  0  0  0  0  0  0  0  0  0  0
   -7.8860    4.1300  -21.2160 H   0  0  0  0  0  0  0  0  0  0  0  0
   -6.5930    4.0600  -22.4120 H   0  0  0  0  0  0  0  0  0  0  0  0
  1  2  1  0  0  0  0
  1 66  1  0  0  0  0
  1 67  1  0  0  0  0
  1 68  1  0  0  0  0
  2  3  1  0  0  0  0
  2 65  1  0  0  0  0
  3  4  2  0  0  0  0
  3  5  1  0  0  0  0
  5  6  1  0  0  0  0
  5 63  1  0  0  0  0
  5 64  1  0  0  0  0
  6  7  1  0  0  0  0
  6 56  1  0  0  0  0
  7  8  1  0  0  0  0
  7 61  1  0  0  0  0
  7 62  1  0  0  0  0
  8  9  1  1  0  0  0
  8 29  1  0  0  0  0
  8 49  1  0  0  0  0
  9 10  2  0  0  0  0
  9 11  1  0  0  0  0
 11 12  1  0  0  0  0
 11 28  1  0  0  0  0
 12 13  2  0  0  0  0
 12 21  1  0  0  0  0
 13 14  1  0  0  0  0
 13 27  1  0  0  0  0
 14 15  2  0  0  0  0
 15 16  1  0  0  0  0
 15 26  1  0  0  0  0
 16 17  2  0  0  0  0
 16 21  1  0  0  0  0
 17 18  1  0  0  0  0
 17 25  1  0  0  0  0
 18 19  2  0  0  0  0
 18 24  1  0  0  0  0
 19 20  1  0  0  0  0
 19 23  1  0  0  0  0
 20 21  2  0  0  0  0
 20 22  1  0  0  0  0
 28 29  1  0  0  0  0
 28 47  1  0  0  0  0
 28 48  1  0  0  0  0
 29 30  1  0  0  0  0
 29 46  1  1  0  0  0
 30 31  1  0  0  0  0
 30 44  1  0  0  0  0
 30 45  1  0  0  0  0
 31 32  1  0  0  0  0
 31 43  1  0  0  0  0
 32 33  2  0  0  0  0
 32 37  1  0  0  0  0
 33 34  1  0  0  0  0
 33 42  1  0  0  0  0
 34 35  2  0  0  0  0
 34 41  1  0  0  0  0
 35 36  1  0  0  0  0
 35 40  1  0  0  0  0
 36 37  2  0  0  0  0
 36 39  1  0  0  0  0
 37 38  1  0  0  0  0
 49 50  2  0  0  0  0
 49 55  1  0  0  0  0
 50 51  1  0  0  0  0
 50 60  1  0  0  0  0
 51 52  1  0  0  0  0
 51 53  2  0  0  0  0
 53 54  1  0  0  0  0
 53 59  1  0  0  0  0
 54 55  2  0  0  0  0
 54 58  1  0  0  0  0
 55 56  1  0  0  0  0
 56 57  2  0  0  0  0
M  END
>  <MODEL>
       1

$$$$
