tmp_first_model_7_85.pdb
 OpenBabel08272520323D

 57 62  0  0  1  0  0  0  0  0999 V2000
   -9.1390   -8.7470  -23.3500 C   0  0  0  0  0  0  0  0  0  0  0  0
   -8.3610   -7.5790  -23.0050 N   0  0  0  0  0  0  0  0  0  0  0  0
   -7.3100   -7.2080  -23.7960 C   0  0  0  0  0  0  0  0  0  0  0  0
   -7.0960   -7.6700  -24.8980 O   0  0  0  0  0  0  0  0  0  0  0  0
   -6.4260   -6.1030  -23.2210 C   0  0  0  0  0  0  0  0  0  0  0  0
   -6.8180   -4.8360  -23.7790 N   0  0  0  0  0  0  0  0  0  0  0  0
   -8.0300   -4.2160  -23.2830 C   0  0  0  0  0  0  0  0  0  0  0  0
   -7.8470   -2.6990  -23.1480 C   0  0  2  0  0  0  0  0  0  0  0  0
   -6.8330   -2.4190  -22.0220 C   0  0  0  0  0  0  0  0  0  0  0  0
   -5.7540   -2.9470  -21.8520 O   0  0  0  0  0  0  0  0  0  0  0  0
   -7.3470   -1.4350  -21.2130 N   0  0  0  0  0  0  0  0  0  0  0  0
   -6.5740   -0.8430  -20.1960 C   0  0  0  0  0  0  0  0  0  0  0  0
   -6.9090   -1.0490  -18.8830 C   0  0  0  0  0  0  0  0  0  0  0  0
   -6.2220   -0.5440  -17.8330 N   0  0  0  0  0  0  0  0  0  0  0  0
   -5.1790    0.2020  -18.1050 C   0  0  0  0  0  0  0  0  0  0  0  0
   -4.7350    0.5040  -19.4240 C   0  0  0  0  0  0  0  0  0  0  0  0
   -3.6110    1.3390  -19.6460 C   0  0  0  0  0  0  0  0  0  0  0  0
   -3.2260    1.6600  -20.9170 C   0  0  0  0  0  0  0  0  0  0  0  0
   -3.9510    1.1640  -22.0250 C   0  0  0  0  0  0  0  0  0  0  0  0
   -5.0390    0.3450  -21.8430 C   0  0  0  0  0  0  0  0  0  0  0  0
   -5.4510   -0.0180  -20.5220 C   0  0  0  0  0  0  0  0  0  0  0  0
   -5.5910   -0.0140  -22.7130 H   0  0  0  0  0  0  0  0  0  0  0  0
   -3.6460    1.4470  -23.0290 H   0  0  0  0  0  0  0  0  0  0  0  0
   -2.3740    2.3150  -21.0810 H   0  0  0  0  0  0  0  0  0  0  0  0
   -3.0910    1.7380  -18.7800 H   0  0  0  0  0  0  0  0  0  0  0  0
   -4.6290    0.6180  -17.2600 H   0  0  0  0  0  0  0  0  0  0  0  0
   -7.7640   -1.6810  -18.6420 H   0  0  0  0  0  0  0  0  0  0  0  0
   -8.7200   -1.0940  -21.4840 C   0  0  0  0  0  0  0  0  0  0  0  0
   -9.1050   -1.9760  -22.6570 C   0  0  0  0  0  0  0  0  0  0  0  0
  -10.4530   -2.6420  -22.5910 C   0  0  0  0  0  0  0  0  0  0  0  0
  -10.1950   -1.5540  -23.5960 C   0  0  0  0  0  0  0  0  0  0  0  0
  -10.0920   -1.8570  -24.6340 H   0  0  0  0  0  0  0  0  0  0  0  0
  -10.6520   -0.5750  -23.4560 H   0  0  0  0  0  0  0  0  0  0  0  0
  -10.5340   -3.6660  -22.9400 H   0  0  0  0  0  0  0  0  0  0  0  0
  -11.0770   -2.4190  -21.7280 H   0  0  0  0  0  0  0  0  0  0  0  0
   -9.3480   -1.3330  -20.6320 H   0  0  0  0  0  0  0  0  0  0  0  0
   -8.8220   -0.0280  -21.7090 H   0  0  0  0  0  0  0  0  0  0  0  0
   -7.2950   -2.1890  -24.4710 C   0  0  0  0  0  0  0  0  0  0  0  0
   -7.4360   -0.8460  -24.8230 C   0  0  0  0  0  0  0  0  0  0  0  0
   -6.9060   -0.3920  -26.0180 C   0  0  0  0  0  0  0  0  0  0  0  0
   -7.0860    1.2880  -26.4310 Cl  0  0  0  0  0  0  0  0  0  0  0  0
   -6.2250   -1.2400  -26.8930 C   0  0  0  0  0  0  0  0  0  0  0  0
   -6.0500   -2.5590  -26.5300 C   0  0  0  0  0  0  0  0  0  0  0  0
   -6.5550   -3.0170  -25.3200 C   0  0  0  0  0  0  0  0  0  0  0  0
   -6.2080   -4.4100  -24.9200 C   0  0  0  0  0  0  0  0  0  0  0  0
   -5.4070   -5.0940  -25.5420 O   0  0  0  0  0  0  0  0  0  0  0  0
   -5.5100   -3.2760  -27.1420 H   0  0  0  0  0  0  0  0  0  0  0  0
   -5.8200   -0.8550  -27.8210 H   0  0  0  0  0  0  0  0  0  0  0  0
   -7.9830   -0.1690  -24.1740 H   0  0  0  0  0  0  0  0  0  0  0  0
   -8.2680   -4.6130  -22.2950 H   0  0  0  0  0  0  0  0  0  0  0  0
   -8.8700   -4.4240  -23.9590 H   0  0  0  0  0  0  0  0  0  0  0  0
   -5.3720   -6.2540  -23.4800 H   0  0  0  0  0  0  0  0  0  0  0  0
   -6.5250   -6.0110  -22.1370 H   0  0  0  0  0  0  0  0  0  0  0  0
   -8.5510   -7.0740  -22.1530 H   0  0  0  0  0  0  0  0  0  0  0  0
  -10.0690   -8.7790  -22.7830 H   0  0  0  0  0  0  0  0  0  0  0  0
   -9.3540   -8.6940  -24.4260 H   0  0  0  0  0  0  0  0  0  0  0  0
   -8.5730   -9.6500  -23.0880 H   0  0  0  0  0  0  0  0  0  0  0  0
  1  2  1  0  0  0  0
  1 55  1  0  0  0  0
  1 56  1  0  0  0  0
  1 57  1  0  0  0  0
  2  3  1  0  0  0  0
  2 54  1  0  0  0  0
  3  4  2  0  0  0  0
  3  5  1  0  0  0  0
  5  6  1  0  0  0  0
  5 52  1  0  0  0  0
  5 53  1  0  0  0  0
  6  7  1  0  0  0  0
  6 45  1  0  0  0  0
  7  8  1  0  0  0  0
  7 50  1  0  0  0  0
  7 51  1  0  0  0  0
  8  9  1  1  0  0  0
  8 29  1  0  0  0  0
  8 38  1  0  0  0  0
  9 10  2  0  0  0  0
  9 11  1  0  0  0  0
 11 12  1  0  0  0  0
 11 28  1  0  0  0  0
 12 13  2  0  0  0  0
 12 21  1  0  0  0  0
 13 14  1  0  0  0  0
 13 27  1  0  0  0  0
 14 15  2  0  0  0  0
 15 16  1  0  0  0  0
 15 26  1  0  0  0  0
 16 17  2  0  0  0  0
 16 21  1  0  0  0  0
 17 18  1  0  0  0  0
 17 25  1  0  0  0  0
 18 19  2  0  0  0  0
 18 24  1  0  0  0  0
 19 20  1  0  0  0  0
 19 23  1  0  0  0  0
 20 21  2  0  0  0  0
 20 22  1  0  0  0  0
 28 29  1  0  0  0  0
 28 36  1  0  0  0  0
 28 37  1  0  0  0  0
 29 30  1  0  0  0  0
 29 31  1  0  0  0  0
 30 31  1  0  0  0  0
 30 34  1  0  0  0  0
 30 35  1  0  0  0  0
 31 32  1  0  0  0  0
 31 33  1  0  0  0  0
 38 39  2  0  0  0  0
 38 44  1  0  0  0  0
 39 40  1  0  0  0  0
 39 49  1  0  0  0  0
 40 41  1  0  0  0  0
 40 42  2  0  0  0  0
 42 43  1  0  0  0  0
 42 48  1  0  0  0  0
 43 44  2  0  0  0  0
 43 47  1  0  0  0  0
 44 45  1  0  0  0  0
 45 46  2  0  0  0  0
M  END
>  <MODEL>
       1

$$$$
