tmp_first_model_5_24.pdb
 OpenBabel08272519233D

 65 70  0  0  1  0  0  0  0  0999 V2000
   -5.9510   -7.4350  -25.5400 O   0  0  0  0  0  0  0  0  0  0  0  0
   -5.9160   -7.1060  -24.3610 C   0  0  0  0  0  0  0  0  0  0  0  0
   -7.1020   -6.5010  -23.6100 C   0  0  0  0  0  0  0  0  0  0  0  0
   -7.1170   -5.0310  -23.7880 N   0  3  1  0  0  0  0  0  0  0  0  0
   -7.2650   -4.7210  -25.2650 C   0  0  0  0  0  0  0  0  0  0  0  0
   -7.2180   -3.2450  -25.5380 C   0  0  0  0  0  0  0  0  0  0  0  0
   -6.8410   -2.7610  -26.7910 C   0  0  0  0  0  0  0  0  0  0  0  0
   -6.7750   -1.4000  -27.0530 C   0  0  0  0  0  0  0  0  0  0  0  0
   -7.0890   -0.5170  -26.0250 C   0  0  0  0  0  0  0  0  0  0  0  0
   -6.9830    1.1980  -26.3140 Cl  0  0  0  0  0  0  0  0  0  0  0  0
   -7.4890   -0.9770  -24.7790 C   0  0  0  0  0  0  0  0  0  0  0  0
   -7.5960   -2.3530  -24.5400 C   0  0  0  0  0  0  0  0  0  0  0  0
   -8.0230   -2.8460  -23.1730 C   0  0  2  0  0  0  0  0  0  0  0  0
   -9.2170   -2.0850  -22.5860 C   0  0  0  0  0  0  0  0  0  0  0  0
   -8.6680   -1.1810  -21.4760 C   0  0  0  0  0  0  0  0  0  0  0  0
   -7.2940   -1.6160  -21.3050 N   0  0  0  0  0  0  0  0  0  0  0  0
   -6.4750   -1.0860  -20.2870 C   0  0  0  0  0  0  0  0  0  0  0  0
   -6.8250   -1.1830  -18.9660 C   0  0  0  0  0  0  0  0  0  0  0  0
   -6.0160   -0.8520  -17.9310 N   0  0  0  0  0  0  0  0  0  0  0  0
   -4.8410   -0.3560  -18.2440 C   0  0  0  0  0  0  0  0  0  0  0  0
   -4.4280   -0.0550  -19.5700 C   0  0  0  0  0  0  0  0  0  0  0  0
   -3.2670    0.7180  -19.8330 C   0  0  0  0  0  0  0  0  0  0  0  0
   -3.1510    1.4100  -21.0050 C   0  0  0  0  0  0  0  0  0  0  0  0
   -4.0640    1.1670  -22.0610 C   0  0  0  0  0  0  0  0  0  0  0  0
   -5.0600    0.2410  -21.9040 C   0  0  0  0  0  0  0  0  0  0  0  0
   -5.3150   -0.3310  -20.6260 C   0  0  0  0  0  0  0  0  0  0  0  0
   -5.6740   -0.0400  -22.7520 H   0  0  0  0  0  0  0  0  0  0  0  0
   -3.9040    1.6450  -23.0230 H   0  0  0  0  0  0  0  0  0  0  0  0
   -2.3000    2.0610  -21.1710 H   0  0  0  0  0  0  0  0  0  0  0  0
   -2.5660    0.8580  -19.0160 H   0  0  0  0  0  0  0  0  0  0  0  0
   -4.1890   -0.0570  -17.4270 H   0  0  0  0  0  0  0  0  0  0  0  0
   -7.8020   -1.5720  -18.6870 H   0  0  0  0  0  0  0  0  0  0  0  0
   -6.8860   -2.5690  -22.1980 C   0  0  0  0  0  0  0  0  0  0  0  0
   -5.8260   -3.1770  -22.2170 O   0  0  0  0  0  0  0  0  0  0  0  0
   -9.2090   -1.3430  -20.5500 H   0  0  0  0  0  0  0  0  0  0  0  0
   -8.7190   -0.1110  -21.7230 H   0  0  0  0  0  0  0  0  0  0  0  0
   -9.9200   -2.8030  -22.1530 H   0  0  0  0  0  0  0  0  0  0  0  0
   -9.7630   -1.5290  -23.3510 H   0  0  0  0  0  0  0  0  0  0  0  0
   -8.2440   -4.3610  -23.0840 C   0  0  0  0  0  0  0  0  0  0  0  0
   -8.2470   -4.6450  -22.0270 H   0  0  0  0  0  0  0  0  0  0  0  0
   -9.2080   -4.6600  -23.5150 H   0  0  0  0  0  0  0  0  0  0  0  0
   -7.7130   -0.2540  -23.9980 H   0  0  0  0  0  0  0  0  0  0  0  0
   -6.4800   -1.0260  -28.0300 H   0  0  0  0  0  0  0  0  0  0  0  0
   -6.5870   -3.4600  -27.5840 H   0  0  0  0  0  0  0  0  0  0  0  0
   -6.4970   -5.2560  -25.8150 H   0  0  0  0  0  0  0  0  0  0  0  0
   -8.2300   -5.1350  -25.5870 H   0  0  0  0  0  0  0  0  0  0  0  0
   -6.2470   -4.5890  -23.4020 H   0  0  0  0  0  0  0  0  0  0  0  0
   -7.0670   -6.7680  -22.5490 H   0  0  0  0  0  0  0  0  0  0  0  0
   -8.0210   -6.9220  -24.0300 H   0  0  0  0  0  0  0  0  0  0  0  0
   -4.7830   -7.2030  -23.6280 N   0  0  0  0  0  0  0  0  0  0  0  0
   -3.6360   -7.8700  -24.1940 C   0  0  0  0  0  0  0  0  0  0  0  0
   -2.3930   -7.5500  -23.3960 C   0  0  1  0  0  0  0  0  0  0  0  0
   -1.0930   -8.0250  -24.0830 C   0  0  0  0  0  0  0  0  0  0  0  0
   -0.6170   -6.5680  -24.1850 C   0  0  1  0  0  0  0  0  0  0  0  0
   -0.4930   -6.1250  -25.4940 F   0  0  0  0  0  0  0  0  0  0  0  0
   -1.9050   -6.0790  -23.5030 C   0  0  0  0  0  0  0  0  0  0  0  0
   -1.7710   -5.5580  -22.5490 H   0  0  0  0  0  0  0  0  0  0  0  0
   -2.5010   -5.4570  -24.1800 H   0  0  0  0  0  0  0  0  0  0  0  0
    0.3250   -6.3320  -23.6810 H   0  0  0  0  0  0  0  0  0  0  0  0
   -1.2490   -8.4750  -25.0690 H   0  0  0  0  0  0  0  0  0  0  0  0
   -0.4630   -8.6930  -23.4920 H   0  0  0  0  0  0  0  0  0  0  0  0
   -2.5010   -7.9040  -22.3590 H   0  0  0  0  0  0  0  0  0  0  0  0
   -3.5520   -7.5150  -25.2280 H   0  0  0  0  0  0  0  0  0  0  0  0
   -3.7970   -8.9550  -24.2430 H   0  0  0  0  0  0  0  0  0  0  0  0
   -4.7930   -6.9720  -22.6490 H   0  0  0  0  0  0  0  0  0  0  0  0
  1  2  2  0  0  0  0
  2  3  1  0  0  0  0
  2 50  1  0  0  0  0
  3  4  1  0  0  0  0
  3 48  1  0  0  0  0
  3 49  1  0  0  0  0
  4  5  1  0  0  0  0
  4 39  1  0  0  0  0
  4 47  1  1  0  0  0
  5  6  1  0  0  0  0
  5 45  1  0  0  0  0
  5 46  1  0  0  0  0
  6  7  2  0  0  0  0
  6 12  1  0  0  0  0
  7  8  1  0  0  0  0
  7 44  1  0  0  0  0
  8  9  2  0  0  0  0
  8 43  1  0  0  0  0
  9 10  1  0  0  0  0
  9 11  1  0  0  0  0
 11 12  2  0  0  0  0
 11 42  1  0  0  0  0
 13 12  1  6  0  0  0
 13 14  1  0  0  0  0
 13 33  1  0  0  0  0
 13 39  1  0  0  0  0
 14 15  1  0  0  0  0
 14 37  1  0  0  0  0
 14 38  1  0  0  0  0
 15 16  1  0  0  0  0
 15 35  1  0  0  0  0
 15 36  1  0  0  0  0
 16 17  1  0  0  0  0
 16 33  1  0  0  0  0
 17 18  2  0  0  0  0
 17 26  1  0  0  0  0
 18 19  1  0  0  0  0
 18 32  1  0  0  0  0
 19 20  2  0  0  0  0
 20 21  1  0  0  0  0
 20 31  1  0  0  0  0
 21 22  2  0  0  0  0
 21 26  1  0  0  0  0
 22 23  1  0  0  0  0
 22 30  1  0  0  0  0
 23 24  2  0  0  0  0
 23 29  1  0  0  0  0
 24 25  1  0  0  0  0
 24 28  1  0  0  0  0
 25 26  2  0  0  0  0
 25 27  1  0  0  0  0
 33 34  2  0  0  0  0
 39 40  1  0  0  0  0
 39 41  1  0  0  0  0
 50 51  1  0  0  0  0
 50 65  1  0  0  0  0
 51 52  1  0  0  0  0
 51 63  1  0  0  0  0
 51 64  1  0  0  0  0
 52 53  1  0  0  0  0
 52 56  1  0  0  0  0
 52 62  1  1  0  0  0
 53 54  1  0  0  0  0
 53 60  1  0  0  0  0
 53 61  1  0  0  0  0
 54 55  1  0  0  0  0
 54 56  1  0  0  0  0
 54 59  1  1  0  0  0
 56 57  1  0  0  0  0
 56 58  1  0  0  0  0
M  CHG  1   4   1
M  END
>  <MODEL>
       1

$$$$
