tmp_first_model_20_49.pdb
 OpenBabel08282503553D

 67 72  0  0  1  0  0  0  0  0999 V2000
   -7.7260    3.2230  -22.4690 C   0  0  0  0  0  0  0  0  0  0  0  0
   -8.5080    2.6940  -23.5660 N   0  0  0  0  0  0  0  0  0  0  0  0
   -7.9060    2.0170  -24.5750 C   0  0  0  0  0  0  0  0  0  0  0  0
   -6.7010    1.9940  -24.7510 O   0  0  0  0  0  0  0  0  0  0  0  0
   -8.8950    1.2450  -25.4650 C   0  0  0  0  0  0  0  0  0  0  0  0
   -9.5520    0.1940  -24.6980 N   0  0  0  0  0  0  0  0  0  0  0  0
   -8.7120   -0.9240  -24.3030 C   0  0  0  0  0  0  0  0  0  0  0  0
   -9.1280   -1.5910  -22.9550 C   0  0  2  0  0  0  0  0  0  0  0  0
   -8.5890   -0.7270  -21.7800 C   0  0  0  0  0  0  0  0  0  0  0  0
   -9.0580    0.3190  -21.3820 O   0  0  0  0  0  0  0  0  0  0  0  0
   -7.4610   -1.3320  -21.2660 N   0  0  0  0  0  0  0  0  0  0  0  0
   -6.6880   -0.7520  -20.2190 C   0  0  0  0  0  0  0  0  0  0  0  0
   -7.0030   -0.9990  -18.9070 C   0  0  0  0  0  0  0  0  0  0  0  0
   -6.2920   -0.5480  -17.8410 N   0  0  0  0  0  0  0  0  0  0  0  0
   -5.2220    0.1690  -18.0830 C   0  0  0  0  0  0  0  0  0  0  0  0
   -4.7740    0.5070  -19.3920 C   0  0  0  0  0  0  0  0  0  0  0  0
   -3.6110    1.2950  -19.6150 C   0  0  0  0  0  0  0  0  0  0  0  0
   -3.2290    1.6200  -20.8880 C   0  0  0  0  0  0  0  0  0  0  0  0
   -3.9950    1.1880  -21.9930 C   0  0  0  0  0  0  0  0  0  0  0  0
   -5.1280    0.4370  -21.8040 C   0  0  0  0  0  0  0  0  0  0  0  0
   -5.5360    0.0530  -20.4970 C   0  0  0  0  0  0  0  0  0  0  0  0
   -5.7430    0.1620  -22.6570 H   0  0  0  0  0  0  0  0  0  0  0  0
   -3.6910    1.4610  -22.9990 H   0  0  0  0  0  0  0  0  0  0  0  0
   -2.3450    2.2290  -21.0590 H   0  0  0  0  0  0  0  0  0  0  0  0
   -3.0380    1.6390  -18.7580 H   0  0  0  0  0  0  0  0  0  0  0  0
   -4.6550    0.5300  -17.2210 H   0  0  0  0  0  0  0  0  0  0  0  0
   -7.8720   -1.6060  -18.6670 H   0  0  0  0  0  0  0  0  0  0  0  0
   -7.0660   -2.5330  -21.9770 C   0  0  0  0  0  0  0  0  0  0  0  0
   -8.3500   -2.9180  -22.7320 C   0  0  2  0  0  0  0  0  0  0  0  0
   -8.0920   -3.7710  -23.9820 C   0  0  0  0  0  0  0  0  0  0  0  0
   -7.6290   -5.0980  -23.6530 N   0  0  0  0  0  0  0  0  0  0  0  0
   -6.2970   -5.3950  -23.5760 C   0  0  0  0  0  0  0  0  0  0  0  0
   -5.2330   -4.6610  -24.0110 C   0  0  0  0  0  0  0  0  0  0  0  0
   -3.9930   -5.2220  -23.8410 N   0  0  0  0  0  0  0  0  0  0  0  0
   -4.0720   -6.3870  -23.2820 C   0  0  0  0  0  0  0  0  0  0  0  0
   -2.8920   -7.2620  -22.9960 C   0  0  0  0  0  0  0  0  0  0  0  0
   -3.0600   -7.8630  -22.1000 H   0  0  0  0  0  0  0  0  0  0  0  0
   -2.7200   -7.9530  -23.8310 H   0  0  0  0  0  0  0  0  0  0  0  0
   -1.9970   -6.6420  -22.8750 H   0  0  0  0  0  0  0  0  0  0  0  0
   -5.7050   -6.8960  -22.9020 S   0  0  0  0  0  0  0  0  0  0  0  0
   -5.3130   -3.6870  -24.4800 H   0  0  0  0  0  0  0  0  0  0  0  0
   -8.2960   -5.8470  -23.5640 H   0  0  0  0  0  0  0  0  0  0  0  0
   -9.0100   -3.8510  -24.5760 H   0  0  0  0  0  0  0  0  0  0  0  0
   -7.3260   -3.2900  -24.6050 H   0  0  0  0  0  0  0  0  0  0  0  0
   -8.9450   -3.5230  -22.0450 H   0  0  0  0  0  0  0  0  0  0  0  0
   -6.2170   -2.3550  -22.6590 H   0  0  0  0  0  0  0  0  0  0  0  0
   -6.7410   -3.3150  -21.2850 H   0  0  0  0  0  0  0  0  0  0  0  0
  -10.6450   -1.6960  -22.8660 C   0  0  0  0  0  0  0  0  0  0  0  0
  -11.2780   -2.6010  -21.9990 C   0  0  0  0  0  0  0  0  0  0  0  0
  -12.6560   -2.6170  -21.8770 C   0  0  0  0  0  0  0  0  0  0  0  0
  -13.4120   -3.7710  -20.8180 Cl  0  0  0  0  0  0  0  0  0  0  0  0
  -13.4630   -1.7210  -22.5730 C   0  0  0  0  0  0  0  0  0  0  0  0
  -12.8480   -0.7860  -23.3780 C   0  0  0  0  0  0  0  0  0  0  0  0
  -11.4590   -0.7640  -23.5220 C   0  0  0  0  0  0  0  0  0  0  0  0
  -10.8630    0.3400  -24.3450 C   0  0  0  0  0  0  0  0  0  0  0  0
  -11.5160    1.3250  -24.6620 O   0  0  0  0  0  0  0  0  0  0  0  0
  -13.4320   -0.0340  -23.8930 H   0  0  0  0  0  0  0  0  0  0  0  0
  -14.5420   -1.7550  -22.4540 H   0  0  0  0  0  0  0  0  0  0  0  0
  -10.7160   -3.2900  -21.3800 H   0  0  0  0  0  0  0  0  0  0  0  0
   -7.6970   -0.5280  -24.1980 H   0  0  0  0  0  0  0  0  0  0  0  0
   -8.6820   -1.6530  -25.1220 H   0  0  0  0  0  0  0  0  0  0  0  0
   -9.6830    1.8940  -25.8590 H   0  0  0  0  0  0  0  0  0  0  0  0
   -8.3380    0.8330  -26.3110 H   0  0  0  0  0  0  0  0  0  0  0  0
   -9.4690    2.4700  -23.3680 H   0  0  0  0  0  0  0  0  0  0  0  0
   -7.3990    2.4230  -21.7860 H   0  0  0  0  0  0  0  0  0  0  0  0
   -6.8420    3.7120  -22.8800 H   0  0  0  0  0  0  0  0  0  0  0  0
   -8.3160    3.9620  -21.9240 H   0  0  0  0  0  0  0  0  0  0  0  0
  1  2  1  0  0  0  0
  1 65  1  0  0  0  0
  1 66  1  0  0  0  0
  1 67  1  0  0  0  0
  2  3  1  0  0  0  0
  2 64  1  0  0  0  0
  3  4  2  0  0  0  0
  3  5  1  0  0  0  0
  5  6  1  0  0  0  0
  5 62  1  0  0  0  0
  5 63  1  0  0  0  0
  6  7  1  0  0  0  0
  6 55  1  0  0  0  0
  7  8  1  0  0  0  0
  7 60  1  0  0  0  0
  7 61  1  0  0  0  0
  8  9  1  1  0  0  0
  8 29  1  0  0  0  0
  8 48  1  0  0  0  0
  9 10  2  0  0  0  0
  9 11  1  0  0  0  0
 11 12  1  0  0  0  0
 11 28  1  0  0  0  0
 12 13  2  0  0  0  0
 12 21  1  0  0  0  0
 13 14  1  0  0  0  0
 13 27  1  0  0  0  0
 14 15  2  0  0  0  0
 15 16  1  0  0  0  0
 15 26  1  0  0  0  0
 16 17  2  0  0  0  0
 16 21  1  0  0  0  0
 17 18  1  0  0  0  0
 17 25  1  0  0  0  0
 18 19  2  0  0  0  0
 18 24  1  0  0  0  0
 19 20  1  0  0  0  0
 19 23  1  0  0  0  0
 20 21  2  0  0  0  0
 20 22  1  0  0  0  0
 28 29  1  0  0  0  0
 28 46  1  0  0  0  0
 28 47  1  0  0  0  0
 29 30  1  0  0  0  0
 29 45  1  1  0  0  0
 30 31  1  0  0  0  0
 30 43  1  0  0  0  0
 30 44  1  0  0  0  0
 31 32  1  0  0  0  0
 31 42  1  0  0  0  0
 32 33  2  0  0  0  0
 32 40  1  0  0  0  0
 33 34  1  0  0  0  0
 33 41  1  0  0  0  0
 34 35  2  0  0  0  0
 35 36  1  0  0  0  0
 35 40  1  0  0  0  0
 36 37  1  0  0  0  0
 36 38  1  0  0  0  0
 36 39  1  0  0  0  0
 48 49  2  0  0  0  0
 48 54  1  0  0  0  0
 49 50  1  0  0  0  0
 49 59  1  0  0  0  0
 50 51  1  0  0  0  0
 50 52  2  0  0  0  0
 52 53  1  0  0  0  0
 52 58  1  0  0  0  0
 53 54  2  0  0  0  0
 53 57  1  0  0  0  0
 54 55  1  0  0  0  0
 55 56  2  0  0  0  0
M  END
>  <MODEL>
       1

$$$$
