tmp_first_model_15_63.pdb
 OpenBabel08282501153D

 57 61  0  0  1  0  0  0  0  0999 V2000
  -14.5500   -1.6390  -23.6810 C   0  0  0  0  0  0  0  0  0  0  0  0
  -13.6190   -2.6750  -23.2950 N   0  0  0  0  0  0  0  0  0  0  0  0
  -13.3280   -2.9050  -21.9890 C   0  0  0  0  0  0  0  0  0  0  0  0
  -13.8800   -2.3280  -21.0580 O   0  0  0  0  0  0  0  0  0  0  0  0
  -12.3120   -4.0300  -21.7780 C   0  0  0  0  0  0  0  0  0  0  0  0
  -11.0230   -3.8530  -22.4290 N   0  0  0  0  0  0  0  0  0  0  0  0
   -9.9020   -3.3490  -21.6400 C   0  0  0  0  0  0  0  0  0  0  0  0
   -8.7210   -2.8220  -22.4920 C   0  0  2  0  0  0  0  0  0  0  0  0
   -7.5450   -2.6450  -21.5230 C   0  0  0  0  0  0  0  0  0  0  0  0
   -6.8520   -3.5220  -21.0460 O   0  0  0  0  0  0  0  0  0  0  0  0
   -7.3840   -1.3030  -21.2670 N   0  0  0  0  0  0  0  0  0  0  0  0
   -6.5830   -0.8460  -20.2000 C   0  0  0  0  0  0  0  0  0  0  0  0
   -6.9090   -1.1290  -18.9000 C   0  0  0  0  0  0  0  0  0  0  0  0
   -6.2600   -0.6010  -17.8310 N   0  0  0  0  0  0  0  0  0  0  0  0
   -5.2480    0.2010  -18.0710 C   0  0  0  0  0  0  0  0  0  0  0  0
   -4.7800    0.5340  -19.3770 C   0  0  0  0  0  0  0  0  0  0  0  0
   -3.6520    1.3670  -19.6060 C   0  0  0  0  0  0  0  0  0  0  0  0
   -3.2350    1.6290  -20.8840 C   0  0  0  0  0  0  0  0  0  0  0  0
   -3.9210    1.0830  -21.9930 C   0  0  0  0  0  0  0  0  0  0  0  0
   -5.0170    0.2810  -21.7990 C   0  0  0  0  0  0  0  0  0  0  0  0
   -5.4660   -0.0060  -20.4820 C   0  0  0  0  0  0  0  0  0  0  0  0
   -5.5460   -0.1550  -22.6410 H   0  0  0  0  0  0  0  0  0  0  0  0
   -3.5790    1.2970  -23.0020 H   0  0  0  0  0  0  0  0  0  0  0  0
   -2.3660    2.2580  -21.0570 H   0  0  0  0  0  0  0  0  0  0  0  0
   -3.1340    1.7830  -18.7470 H   0  0  0  0  0  0  0  0  0  0  0  0
   -4.7370    0.6310  -17.2080 H   0  0  0  0  0  0  0  0  0  0  0  0
   -7.7370   -1.7990  -18.6700 H   0  0  0  0  0  0  0  0  0  0  0  0
   -8.3800   -0.4530  -21.8970 C   0  0  0  0  0  0  0  0  0  0  0  0
   -8.9160   -1.3510  -23.0190 C   0  0  2  0  0  0  0  0  0  0  0  0
  -10.3230   -0.9930  -23.4960 C   0  0  0  0  0  0  0  0  0  0  0  0
  -11.2310   -0.8890  -22.4110 O   0  0  0  0  0  0  0  0  0  0  0  0
  -11.4330    0.0390  -22.2620 H   0  0  0  0  0  0  0  0  0  0  0  0
  -10.6680   -1.7950  -24.1560 H   0  0  0  0  0  0  0  0  0  0  0  0
  -10.3190   -0.0680  -24.0910 H   0  0  0  0  0  0  0  0  0  0  0  0
   -8.2340   -1.2510  -23.8740 H   0  0  0  0  0  0  0  0  0  0  0  0
   -9.1620   -0.1730  -21.1760 H   0  0  0  0  0  0  0  0  0  0  0  0
   -7.9260    0.4820  -22.2480 H   0  0  0  0  0  0  0  0  0  0  0  0
   -8.4190   -3.8440  -23.5670 C   0  0  0  0  0  0  0  0  0  0  0  0
   -7.1230   -4.0190  -24.0700 C   0  0  0  0  0  0  0  0  0  0  0  0
   -6.8900   -4.9800  -25.0390 C   0  0  0  0  0  0  0  0  0  0  0  0
   -5.2750   -5.1940  -25.6550 Cl  0  0  0  0  0  0  0  0  0  0  0  0
   -7.9140   -5.7870  -25.5370 C   0  0  0  0  0  0  0  0  0  0  0  0
   -9.2020   -5.5730  -25.0850 C   0  0  0  0  0  0  0  0  0  0  0  0
   -9.4520   -4.6200  -24.1050 C   0  0  0  0  0  0  0  0  0  0  0  0
  -10.8550   -4.4680  -23.6320 C   0  0  0  0  0  0  0  0  0  0  0  0
  -11.8210   -4.8490  -24.2950 O   0  0  0  0  0  0  0  0  0  0  0  0
  -10.0520   -6.1170  -25.4860 H   0  0  0  0  0  0  0  0  0  0  0  0
   -7.6940   -6.5820  -26.2420 H   0  0  0  0  0  0  0  0  0  0  0  0
   -6.2930   -3.4500  -23.6620 H   0  0  0  0  0  0  0  0  0  0  0  0
   -9.5050   -4.1360  -20.9940 H   0  0  0  0  0  0  0  0  0  0  0  0
  -10.2570   -2.5430  -20.9990 H   0  0  0  0  0  0  0  0  0  0  0  0
  -12.7680   -4.9180  -22.2220 H   0  0  0  0  0  0  0  0  0  0  0  0
  -12.1810   -4.1940  -20.7090 H   0  0  0  0  0  0  0  0  0  0  0  0
  -13.2020   -3.2580  -24.0120 H   0  0  0  0  0  0  0  0  0  0  0  0
  -14.1080   -0.6360  -23.6070 H   0  0  0  0  0  0  0  0  0  0  0  0
  -15.4270   -1.6630  -23.0320 H   0  0  0  0  0  0  0  0  0  0  0  0
  -14.8600   -1.8220  -24.7130 H   0  0  0  0  0  0  0  0  0  0  0  0
  1  2  1  0  0  0  0
  1 55  1  0  0  0  0
  1 56  1  0  0  0  0
  1 57  1  0  0  0  0
  2  3  1  0  0  0  0
  2 54  1  0  0  0  0
  3  4  2  0  0  0  0
  3  5  1  0  0  0  0
  5  6  1  0  0  0  0
  5 52  1  0  0  0  0
  5 53  1  0  0  0  0
  6  7  1  0  0  0  0
  6 45  1  0  0  0  0
  7  8  1  0  0  0  0
  7 50  1  0  0  0  0
  7 51  1  0  0  0  0
  8  9  1  1  0  0  0
  8 29  1  0  0  0  0
  8 38  1  0  0  0  0
  9 10  2  0  0  0  0
  9 11  1  0  0  0  0
 11 12  1  0  0  0  0
 11 28  1  0  0  0  0
 12 13  2  0  0  0  0
 12 21  1  0  0  0  0
 13 14  1  0  0  0  0
 13 27  1  0  0  0  0
 14 15  2  0  0  0  0
 15 16  1  0  0  0  0
 15 26  1  0  0  0  0
 16 17  2  0  0  0  0
 16 21  1  0  0  0  0
 17 18  1  0  0  0  0
 17 25  1  0  0  0  0
 18 19  2  0  0  0  0
 18 24  1  0  0  0  0
 19 20  1  0  0  0  0
 19 23  1  0  0  0  0
 20 21  2  0  0  0  0
 20 22  1  0  0  0  0
 28 29  1  0  0  0  0
 28 36  1  0  0  0  0
 28 37  1  0  0  0  0
 29 30  1  0  0  0  0
 29 35  1  6  0  0  0
 30 31  1  0  0  0  0
 30 33  1  0  0  0  0
 30 34  1  0  0  0  0
 31 32  1  0  0  0  0
 38 39  2  0  0  0  0
 38 44  1  0  0  0  0
 39 40  1  0  0  0  0
 39 49  1  0  0  0  0
 40 41  1  0  0  0  0
 40 42  2  0  0  0  0
 42 43  1  0  0  0  0
 42 48  1  0  0  0  0
 43 44  2  0  0  0  0
 43 47  1  0  0  0  0
 44 45  1  0  0  0  0
 45 46  2  0  0  0  0
M  END
>  <MODEL>
       1

$$$$
