tmp_first_model_1_30.pdb
 OpenBabel08272517043D

 58 63  0  0  1  0  0  0  0  0999 V2000
   -7.0230   -4.7770  -23.1940 C   0  0  0  0  0  0  0  0  0  0  0  0
   -7.2580   -3.5270  -22.3530 C   0  0  1  0  0  0  0  0  0  0  0  0
   -6.2130   -3.2400  -21.2580 C   0  0  0  0  0  0  0  0  0  0  0  0
   -6.3950   -1.8170  -21.0110 N   0  0  0  0  0  0  0  0  0  0  0  0
   -5.8760   -1.0910  -19.9170 C   0  0  0  0  0  0  0  0  0  0  0  0
   -6.3000   -1.3570  -18.6390 C   0  0  0  0  0  0  0  0  0  0  0  0
   -5.8760   -0.6990  -17.5330 N   0  0  0  0  0  0  0  0  0  0  0  0
   -4.9700    0.2360  -17.6990 C   0  0  0  0  0  0  0  0  0  0  0  0
   -4.4030    0.5770  -18.9580 C   0  0  0  0  0  0  0  0  0  0  0  0
   -3.3690    1.5430  -19.0720 C   0  0  0  0  0  0  0  0  0  0  0  0
   -2.9010    1.9140  -20.3010 C   0  0  0  0  0  0  0  0  0  0  0  0
   -3.4280    1.3250  -21.4730 C   0  0  0  0  0  0  0  0  0  0  0  0
   -4.3870    0.3500  -21.3840 C   0  0  0  0  0  0  0  0  0  0  0  0
   -4.8950   -0.0620  -20.1170 C   0  0  0  0  0  0  0  0  0  0  0  0
   -4.7830   -0.0980  -22.2920 H   0  0  0  0  0  0  0  0  0  0  0  0
   -3.0740    1.6510  -22.4480 H   0  0  0  0  0  0  0  0  0  0  0  0
   -2.1280    2.6710  -20.3870 H   0  0  0  0  0  0  0  0  0  0  0  0
   -2.9720    1.9820  -18.1610 H   0  0  0  0  0  0  0  0  0  0  0  0
   -4.6390    0.7790  -16.8150 H   0  0  0  0  0  0  0  0  0  0  0  0
   -7.0510   -2.1270  -18.4680 H   0  0  0  0  0  0  0  0  0  0  0  0
   -7.1200   -1.1850  -21.9960 C   0  0  0  0  0  0  0  0  0  0  0  0
   -7.5180   -0.0440  -21.9370 O   0  0  0  0  0  0  0  0  0  0  0  0
   -7.3290   -2.1930  -23.1510 C   0  0  1  0  0  0  0  0  0  0  0  0
   -6.1690   -2.1150  -24.1850 C   0  0  0  0  0  0  0  0  0  0  0  0
   -6.2020   -0.9090  -24.9970 N   0  0  0  0  0  0  0  0  0  0  0  0
   -4.9540   -0.4430  -25.6050 C   0  0  0  0  0  0  0  0  0  0  0  0
   -4.8020   -0.8330  -27.0590 C   0  0  0  0  0  0  0  0  0  0  0  0
   -5.0880    0.0670  -28.0330 C   0  0  0  0  0  0  0  0  0  0  0  0
   -5.0530   -0.3100  -29.4230 C   0  0  0  0  0  0  0  0  0  0  0  0
   -5.3360    0.3590  -30.3960 O   0  0  0  0  0  0  0  0  0  0  0  0
   -4.6350   -1.6490  -29.5830 N   0  0  0  0  0  0  0  0  0  0  0  0
   -4.3270   -2.4750  -28.5500 C   0  0  0  0  0  0  0  0  0  0  0  0
   -4.3980   -2.1300  -27.3040 N   0  0  0  0  0  0  0  0  0  0  0  0
   -4.0030   -3.4820  -28.8170 H   0  0  0  0  0  0  0  0  0  0  0  0
   -4.5650   -1.9630  -30.5460 H   0  0  0  0  0  0  0  0  0  0  0  0
   -5.4180    1.0660  -27.7860 H   0  0  0  0  0  0  0  0  0  0  0  0
   -4.1300   -0.8810  -25.0390 H   0  0  0  0  0  0  0  0  0  0  0  0
   -4.9110    0.6470  -25.5010 H   0  0  0  0  0  0  0  0  0  0  0  0
   -7.3630   -0.3020  -25.3760 C   0  0  0  0  0  0  0  0  0  0  0  0
   -7.3820    0.6790  -26.1140 O   0  0  0  0  0  0  0  0  0  0  0  0
   -8.6340   -0.9030  -24.8700 C   0  0  0  0  0  0  0  0  0  0  0  0
   -9.8370   -0.4290  -25.3920 C   0  0  0  0  0  0  0  0  0  0  0  0
  -11.0480   -0.8460  -24.8820 C   0  0  0  0  0  0  0  0  0  0  0  0
  -11.0270   -1.7580  -23.8260 C   0  0  0  0  0  0  0  0  0  0  0  0
  -12.1810   -2.1630  -23.2690 F   0  0  0  0  0  0  0  0  0  0  0  0
   -9.8500   -2.2470  -23.3000 C   0  0  0  0  0  0  0  0  0  0  0  0
   -8.6240   -1.8450  -23.8340 C   0  0  0  0  0  0  0  0  0  0  0  0
   -9.9080   -2.9200  -22.4530 H   0  0  0  0  0  0  0  0  0  0  0  0
  -11.9780   -0.4870  -25.3090 H   0  0  0  0  0  0  0  0  0  0  0  0
   -9.8040    0.3020  -26.1920 H   0  0  0  0  0  0  0  0  0  0  0  0
   -6.1690   -2.9910  -24.8470 H   0  0  0  0  0  0  0  0  0  0  0  0
   -5.2170   -2.1420  -23.6450 H   0  0  0  0  0  0  0  0  0  0  0  0
   -5.1990   -3.4550  -21.6240 H   0  0  0  0  0  0  0  0  0  0  0  0
   -6.3650   -3.7970  -20.3300 H   0  0  0  0  0  0  0  0  0  0  0  0
   -8.2120   -3.6240  -21.8320 H   0  0  0  0  0  0  0  0  0  0  0  0
   -7.0140   -5.6870  -22.5860 H   0  0  0  0  0  0  0  0  0  0  0  0
   -7.8120   -4.8860  -23.9470 H   0  0  0  0  0  0  0  0  0  0  0  0
   -6.0640   -4.7270  -23.7200 H   0  0  0  0  0  0  0  0  0  0  0  0
  1  2  1  0  0  0  0
  1 56  1  0  0  0  0
  1 57  1  0  0  0  0
  1 58  1  0  0  0  0
  2  3  1  0  0  0  0
  2 23  1  0  0  0  0
  2 55  1  1  0  0  0
  3  4  1  0  0  0  0
  3 53  1  0  0  0  0
  3 54  1  0  0  0  0
  4  5  1  0  0  0  0
  4 21  1  0  0  0  0
  5  6  2  0  0  0  0
  5 14  1  0  0  0  0
  6  7  1  0  0  0  0
  6 20  1  0  0  0  0
  7  8  2  0  0  0  0
  8  9  1  0  0  0  0
  8 19  1  0  0  0  0
  9 10  2  0  0  0  0
  9 14  1  0  0  0  0
 10 11  1  0  0  0  0
 10 18  1  0  0  0  0
 11 12  2  0  0  0  0
 11 17  1  0  0  0  0
 12 13  1  0  0  0  0
 12 16  1  0  0  0  0
 13 14  2  0  0  0  0
 13 15  1  0  0  0  0
 21 22  2  0  0  0  0
 23 21  1  1  0  0  0
 23 24  1  0  0  0  0
 23 47  1  0  0  0  0
 24 25  1  0  0  0  0
 24 51  1  0  0  0  0
 24 52  1  0  0  0  0
 25 26  1  0  0  0  0
 25 39  1  0  0  0  0
 26 27  1  0  0  0  0
 26 37  1  0  0  0  0
 26 38  1  0  0  0  0
 27 28  2  0  0  0  0
 27 33  1  0  0  0  0
 28 29  1  0  0  0  0
 28 36  1  0  0  0  0
 29 30  2  0  0  0  0
 29 31  1  0  0  0  0
 31 32  1  0  0  0  0
 31 35  1  0  0  0  0
 32 33  2  0  0  0  0
 32 34  1  0  0  0  0
 39 40  2  0  0  0  0
 39 41  1  0  0  0  0
 41 42  2  0  0  0  0
 41 47  1  0  0  0  0
 42 43  1  0  0  0  0
 42 50  1  0  0  0  0
 43 44  2  0  0  0  0
 43 49  1  0  0  0  0
 44 45  1  0  0  0  0
 44 46  1  0  0  0  0
 46 47  2  0  0  0  0
 46 48  1  0  0  0  0
M  END
>  <MODEL>
       1

$$$$
