tmp_first_model_14_19.pdb
 OpenBabel08282500413D

 42 45  0  0  1  0  0  0  0  0999 V2000
   -9.1370   -0.0550  -20.7420 O   0  0  0  0  0  0  0  0  0  0  0  0
   -8.6480   -0.9150  -21.4510 C   0  0  0  0  0  0  0  0  0  0  0  0
   -9.3610   -1.5280  -22.6630 C   0  0  1  0  0  0  0  0  0  0  0  0
  -10.4530   -0.5800  -23.1020 C   0  0  0  0  0  0  0  0  0  0  0  0
  -10.1370    0.7530  -23.3400 C   0  0  0  0  0  0  0  0  0  0  0  0
  -11.1300    1.6830  -23.5820 C   0  0  0  0  0  0  0  0  0  0  0  0
  -12.4520    1.2600  -23.7100 C   0  0  0  0  0  0  0  0  0  0  0  0
  -13.6720    2.4540  -23.9840 Cl  0  0  0  0  0  0  0  0  0  0  0  0
  -12.7570   -0.0990  -23.6410 C   0  0  0  0  0  0  0  0  0  0  0  0
  -14.3250   -0.6930  -24.0680 Cl  0  0  0  0  0  0  0  0  0  0  0  0
  -11.7590   -1.0080  -23.3010 C   0  0  0  0  0  0  0  0  0  0  0  0
  -12.0180   -2.0590  -23.2560 H   0  0  0  0  0  0  0  0  0  0  0  0
  -10.8770    2.7220  -23.7660 H   0  0  0  0  0  0  0  0  0  0  0  0
   -9.1000    1.0670  -23.3100 H   0  0  0  0  0  0  0  0  0  0  0  0
   -8.3350   -1.7930  -23.7770 C   0  0  0  0  0  0  0  0  0  0  0  0
   -7.2290   -2.7590  -23.3430 C   0  0  2  0  0  0  0  0  0  0  0  0
   -7.5330   -4.1120  -23.6550 O   0  0  0  0  0  0  0  0  0  0  0  0
   -8.3960   -4.3230  -23.2700 H   0  0  0  0  0  0  0  0  0  0  0  0
   -6.9210   -2.6340  -21.8390 C   0  0  0  0  0  0  0  0  0  0  0  0
   -7.3630   -1.3750  -21.2580 N   0  0  0  0  0  0  0  0  0  0  0  0
   -6.6000   -0.8050  -20.2030 C   0  0  0  0  0  0  0  0  0  0  0  0
   -6.9180   -1.0360  -18.8910 C   0  0  0  0  0  0  0  0  0  0  0  0
   -6.2260   -0.5250  -17.8460 N   0  0  0  0  0  0  0  0  0  0  0  0
   -5.1760    0.2150  -18.0980 C   0  0  0  0  0  0  0  0  0  0  0  0
   -4.7240    0.5250  -19.4100 C   0  0  0  0  0  0  0  0  0  0  0  0
   -3.5950    1.3510  -19.6450 C   0  0  0  0  0  0  0  0  0  0  0  0
   -3.2080    1.6380  -20.9270 C   0  0  0  0  0  0  0  0  0  0  0  0
   -3.9280    1.1050  -22.0220 C   0  0  0  0  0  0  0  0  0  0  0  0
   -5.0200    0.3020  -21.8150 C   0  0  0  0  0  0  0  0  0  0  0  0
   -5.4490   -0.0050  -20.4990 C   0  0  0  0  0  0  0  0  0  0  0  0
   -5.5840   -0.0950  -22.6530 H   0  0  0  0  0  0  0  0  0  0  0  0
   -3.6230    1.3510  -23.0350 H   0  0  0  0  0  0  0  0  0  0  0  0
   -2.3590    2.2910  -21.1100 H   0  0  0  0  0  0  0  0  0  0  0  0
   -3.0670    1.7650  -18.7900 H   0  0  0  0  0  0  0  0  0  0  0  0
   -4.6290    0.6120  -17.2430 H   0  0  0  0  0  0  0  0  0  0  0  0
   -7.7690   -1.6580  -18.6200 H   0  0  0  0  0  0  0  0  0  0  0  0
   -7.4010   -3.4960  -21.3430 H   0  0  0  0  0  0  0  0  0  0  0  0
   -5.8440   -2.6930  -21.6600 H   0  0  0  0  0  0  0  0  0  0  0  0
   -6.3250   -2.5490  -23.9290 H   0  0  0  0  0  0  0  0  0  0  0  0
   -7.8970   -0.8290  -24.0730 H   0  0  0  0  0  0  0  0  0  0  0  0
   -8.8230   -2.2110  -24.6650 H   0  0  0  0  0  0  0  0  0  0  0  0
   -9.8100   -2.4850  -22.3530 H   0  0  0  0  0  0  0  0  0  0  0  0
  1  2  2  0  0  0  0
  2  3  1  0  0  0  0
  2 20  1  0  0  0  0
  3  4  1  0  0  0  0
  3 15  1  0  0  0  0
  3 42  1  1  0  0  0
  4  5  2  0  0  0  0
  4 11  1  0  0  0  0
  5  6  1  0  0  0  0
  5 14  1  0  0  0  0
  6  7  2  0  0  0  0
  6 13  1  0  0  0  0
  7  8  1  0  0  0  0
  7  9  1  0  0  0  0
  9 10  1  0  0  0  0
  9 11  2  0  0  0  0
 11 12  1  0  0  0  0
 15 16  1  0  0  0  0
 15 40  1  0  0  0  0
 15 41  1  0  0  0  0
 16 17  1  0  0  0  0
 16 19  1  0  0  0  0
 16 39  1  6  0  0  0
 17 18  1  0  0  0  0
 19 20  1  0  0  0  0
 19 37  1  0  0  0  0
 19 38  1  0  0  0  0
 20 21  1  0  0  0  0
 21 22  2  0  0  0  0
 21 30  1  0  0  0  0
 22 23  1  0  0  0  0
 22 36  1  0  0  0  0
 23 24  2  0  0  0  0
 24 25  1  0  0  0  0
 24 35  1  0  0  0  0
 25 26  2  0  0  0  0
 25 30  1  0  0  0  0
 26 27  1  0  0  0  0
 26 34  1  0  0  0  0
 27 28  2  0  0  0  0
 27 33  1  0  0  0  0
 28 29  1  0  0  0  0
 28 32  1  0  0  0  0
 29 30  2  0  0  0  0
 29 31  1  0  0  0  0
M  END
>  <MODEL>
       1

$$$$
