tmp_first_model_12_89.pdb
 OpenBabel08272523333D

 43 45  0  0  0  0  0  0  0  0999 V2000
   -6.1810   -4.3990  -27.1680 C   0  0  0  0  0  0  0  0  0  0  0  0
   -6.0120   -3.3630  -26.0550 C   0  0  0  0  0  0  0  0  0  0  0  0
   -5.3430   -2.1240  -26.6530 C   0  0  0  0  0  0  0  0  0  0  0  0
   -4.3660   -2.3750  -27.0750 H   0  0  0  0  0  0  0  0  0  0  0  0
   -5.9560   -1.7160  -27.4610 H   0  0  0  0  0  0  0  0  0  0  0  0
   -5.1860   -1.3220  -25.9310 H   0  0  0  0  0  0  0  0  0  0  0  0
   -5.1610   -3.9890  -24.9440 C   0  0  0  0  0  0  0  0  0  0  0  0
   -5.0950   -3.1380  -23.6940 C   0  0  0  0  0  0  0  0  0  0  0  0
   -6.4120   -2.7410  -23.2240 N   0  0  0  0  0  0  0  0  0  0  0  0
   -6.5080   -2.6350  -21.8510 C   0  0  0  0  0  0  0  0  0  0  0  0
   -5.8860   -3.3810  -21.1150 O   0  0  0  0  0  0  0  0  0  0  0  0
   -7.3640   -1.5010  -21.2770 C   0  0  0  0  0  0  0  0  0  0  0  0
   -6.6250   -0.7740  -20.1800 C   0  0  0  0  0  0  0  0  0  0  0  0
   -6.8960   -1.0470  -18.8670 C   0  0  0  0  0  0  0  0  0  0  0  0
   -6.2060   -0.5740  -17.7940 N   0  0  0  0  0  0  0  0  0  0  0  0
   -5.2000    0.2280  -18.0530 C   0  0  0  0  0  0  0  0  0  0  0  0
   -4.8030    0.6080  -19.3650 C   0  0  0  0  0  0  0  0  0  0  0  0
   -3.6550    1.4110  -19.5830 C   0  0  0  0  0  0  0  0  0  0  0  0
   -3.2840    1.7630  -20.8560 C   0  0  0  0  0  0  0  0  0  0  0  0
   -4.0750    1.3530  -21.9600 C   0  0  0  0  0  0  0  0  0  0  0  0
   -5.1590    0.5290  -21.7740 C   0  0  0  0  0  0  0  0  0  0  0  0
   -5.5400    0.1120  -20.4670 C   0  0  0  0  0  0  0  0  0  0  0  0
   -5.7230    0.1870  -22.6410 H   0  0  0  0  0  0  0  0  0  0  0  0
   -3.8000    1.6750  -22.9610 H   0  0  0  0  0  0  0  0  0  0  0  0
   -2.3970    2.3650  -21.0280 H   0  0  0  0  0  0  0  0  0  0  0  0
   -3.0650    1.7120  -18.7200 H   0  0  0  0  0  0  0  0  0  0  0  0
   -4.6260    0.5990  -17.2030 H   0  0  0  0  0  0  0  0  0  0  0  0
   -7.7270   -1.7070  -18.6210 H   0  0  0  0  0  0  0  0  0  0  0  0
   -8.2790   -1.9560  -20.8740 H   0  0  0  0  0  0  0  0  0  0  0  0
   -7.6470   -0.8220  -22.0860 H   0  0  0  0  0  0  0  0  0  0  0  0
   -7.3090   -2.1450  -24.2050 C   0  0  0  0  0  0  0  0  0  0  0  0
   -7.3850   -3.0210  -25.4600 C   0  0  0  0  0  0  0  0  0  0  0  0
   -8.0120   -2.5440  -26.2220 H   0  0  0  0  0  0  0  0  0  0  0  0
   -7.8710   -3.9620  -25.1900 H   0  0  0  0  0  0  0  0  0  0  0  0
   -6.9890   -1.1300  -24.4840 H   0  0  0  0  0  0  0  0  0  0  0  0
   -8.3030   -2.0480  -23.7630 H   0  0  0  0  0  0  0  0  0  0  0  0
   -4.6610   -3.6770  -22.8560 H   0  0  0  0  0  0  0  0  0  0  0  0
   -4.4750   -2.2440  -23.8640 H   0  0  0  0  0  0  0  0  0  0  0  0
   -4.1450   -4.1810  -25.3100 H   0  0  0  0  0  0  0  0  0  0  0  0
   -5.5990   -4.9600  -24.6940 H   0  0  0  0  0  0  0  0  0  0  0  0
   -5.2100   -4.6770  -27.5950 H   0  0  0  0  0  0  0  0  0  0  0  0
   -6.6450   -5.3140  -26.7880 H   0  0  0  0  0  0  0  0  0  0  0  0
   -6.8100   -4.0180  -27.9790 H   0  0  0  0  0  0  0  0  0  0  0  0
  1  2  1  0  0  0  0
  1 41  1  0  0  0  0
  1 42  1  0  0  0  0
  1 43  1  0  0  0  0
  2  3  1  0  0  0  0
  2  7  1  0  0  0  0
  2 32  1  0  0  0  0
  3  4  1  0  0  0  0
  3  5  1  0  0  0  0
  3  6  1  0  0  0  0
  7  8  1  0  0  0  0
  7 39  1  0  0  0  0
  7 40  1  0  0  0  0
  8  9  1  0  0  0  0
  8 37  1  0  0  0  0
  8 38  1  0  0  0  0
  9 10  1  0  0  0  0
  9 31  1  0  0  0  0
 10 11  2  0  0  0  0
 10 12  1  0  0  0  0
 12 13  1  0  0  0  0
 12 29  1  0  0  0  0
 12 30  1  0  0  0  0
 13 14  2  0  0  0  0
 13 22  1  0  0  0  0
 14 15  1  0  0  0  0
 14 28  1  0  0  0  0
 15 16  2  0  0  0  0
 16 17  1  0  0  0  0
 16 27  1  0  0  0  0
 17 18  2  0  0  0  0
 17 22  1  0  0  0  0
 18 19  1  0  0  0  0
 18 26  1  0  0  0  0
 19 20  2  0  0  0  0
 19 25  1  0  0  0  0
 20 21  1  0  0  0  0
 20 24  1  0  0  0  0
 21 22  2  0  0  0  0
 21 23  1  0  0  0  0
 31 32  1  0  0  0  0
 31 35  1  0  0  0  0
 31 36  1  0  0  0  0
 32 33  1  0  0  0  0
 32 34  1  0  0  0  0
M  END
>  <MODEL>
       1

$$$$
