tmp_first_model_1_58.pdb
 OpenBabel08272517043D

 42 45  0  0  1  0  0  0  0  0999 V2000
   -7.2910   -5.4910  -21.7430 C   0  0  0  0  0  0  0  0  0  0  0  0
   -7.9090   -4.3910  -22.4710 N   0  0  0  0  0  0  0  0  0  0  0  0
   -9.1640   -3.8140  -22.0060 C   0  0  0  0  0  0  0  0  0  0  0  0
   -9.3210   -2.3240  -22.3530 C   0  0  1  0  0  0  0  0  0  0  0  0
   -8.5830   -1.3810  -21.4030 C   0  0  0  0  0  0  0  0  0  0  0  0
   -9.1460   -0.4660  -20.8310 O   0  0  0  0  0  0  0  0  0  0  0  0
   -7.2370   -1.5900  -21.2530 N   0  0  0  0  0  0  0  0  0  0  0  0
   -6.5380   -0.9320  -20.2200 C   0  0  0  0  0  0  0  0  0  0  0  0
   -6.9280   -1.0930  -18.9160 C   0  0  0  0  0  0  0  0  0  0  0  0
   -6.2660   -0.5800  -17.8540 N   0  0  0  0  0  0  0  0  0  0  0  0
   -5.2180    0.1660  -18.1060 C   0  0  0  0  0  0  0  0  0  0  0  0
   -4.7410    0.4630  -19.4140 C   0  0  0  0  0  0  0  0  0  0  0  0
   -3.6260    1.3130  -19.6400 C   0  0  0  0  0  0  0  0  0  0  0  0
   -3.2370    1.6080  -20.9180 C   0  0  0  0  0  0  0  0  0  0  0  0
   -3.9410    1.0810  -22.0260 C   0  0  0  0  0  0  0  0  0  0  0  0
   -5.0220    0.2530  -21.8350 C   0  0  0  0  0  0  0  0  0  0  0  0
   -5.4280   -0.0880  -20.5180 C   0  0  0  0  0  0  0  0  0  0  0  0
   -5.5910   -0.1260  -22.6810 H   0  0  0  0  0  0  0  0  0  0  0  0
   -3.6280    1.3440  -23.0340 H   0  0  0  0  0  0  0  0  0  0  0  0
   -2.3910    2.2690  -21.0920 H   0  0  0  0  0  0  0  0  0  0  0  0
   -3.1180    1.7360  -18.7760 H   0  0  0  0  0  0  0  0  0  0  0  0
   -4.6920    0.5840  -17.2470 H   0  0  0  0  0  0  0  0  0  0  0  0
   -7.8150   -1.6790  -18.6880 H   0  0  0  0  0  0  0  0  0  0  0  0
   -6.7710   -2.3340  -21.7530 H   0  0  0  0  0  0  0  0  0  0  0  0
   -8.8770   -2.0470  -23.7580 C   0  0  0  0  0  0  0  0  0  0  0  0
   -9.1890   -0.8170  -24.3520 C   0  0  0  0  0  0  0  0  0  0  0  0
   -8.6450   -0.5280  -25.5940 C   0  0  0  0  0  0  0  0  0  0  0  0
   -8.8330    1.0620  -26.2580 Cl  0  0  0  0  0  0  0  0  0  0  0  0
   -7.8800   -1.4510  -26.3080 C   0  0  0  0  0  0  0  0  0  0  0  0
   -7.6110   -2.6730  -25.7250 C   0  0  0  0  0  0  0  0  0  0  0  0
   -8.0340   -2.9340  -24.4220 C   0  0  0  0  0  0  0  0  0  0  0  0
   -7.4390   -4.1280  -23.7320 C   0  0  0  0  0  0  0  0  0  0  0  0
   -6.5460   -4.7740  -24.2560 O   0  0  0  0  0  0  0  0  0  0  0  0
   -7.0680   -3.4510  -26.2490 H   0  0  0  0  0  0  0  0  0  0  0  0
   -7.4590   -1.1820  -27.2740 H   0  0  0  0  0  0  0  0  0  0  0  0
   -9.8150   -0.0690  -23.8660 H   0  0  0  0  0  0  0  0  0  0  0  0
  -10.3690   -2.0490  -22.2010 H   0  0  0  0  0  0  0  0  0  0  0  0
  -10.0250   -4.3710  -22.4060 H   0  0  0  0  0  0  0  0  0  0  0  0
   -9.2070   -3.9030  -20.9240 H   0  0  0  0  0  0  0  0  0  0  0  0
   -8.0480   -6.1900  -21.3770 H   0  0  0  0  0  0  0  0  0  0  0  0
   -6.6360   -6.0140  -22.4420 H   0  0  0  0  0  0  0  0  0  0  0  0
   -6.6800   -5.1490  -20.8980 H   0  0  0  0  0  0  0  0  0  0  0  0
  1  2  1  0  0  0  0
  1 40  1  0  0  0  0
  1 41  1  0  0  0  0
  1 42  1  0  0  0  0
  2  3  1  0  0  0  0
  2 32  1  0  0  0  0
  3  4  1  0  0  0  0
  3 38  1  0  0  0  0
  3 39  1  0  0  0  0
  4  5  1  0  0  0  0
  4 25  1  0  0  0  0
  4 37  1  1  0  0  0
  5  6  2  0  0  0  0
  5  7  1  0  0  0  0
  7  8  1  0  0  0  0
  7 24  1  0  0  0  0
  8  9  2  0  0  0  0
  8 17  1  0  0  0  0
  9 10  1  0  0  0  0
  9 23  1  0  0  0  0
 10 11  2  0  0  0  0
 11 12  1  0  0  0  0
 11 22  1  0  0  0  0
 12 13  2  0  0  0  0
 12 17  1  0  0  0  0
 13 14  1  0  0  0  0
 13 21  1  0  0  0  0
 14 15  2  0  0  0  0
 14 20  1  0  0  0  0
 15 16  1  0  0  0  0
 15 19  1  0  0  0  0
 16 17  2  0  0  0  0
 16 18  1  0  0  0  0
 25 26  2  0  0  0  0
 25 31  1  0  0  0  0
 26 27  1  0  0  0  0
 26 36  1  0  0  0  0
 27 28  1  0  0  0  0
 27 29  2  0  0  0  0
 29 30  1  0  0  0  0
 29 35  1  0  0  0  0
 30 31  2  0  0  0  0
 30 34  1  0  0  0  0
 31 32  1  0  0  0  0
 32 33  2  0  0  0  0
M  END
>  <MODEL>
       1

$$$$
