tmp_first_model_10_4.pdb
 OpenBabel08272522163D

 59 64  0  0  1  0  0  0  0  0999 V2000
   -8.2740   -4.1370  -23.4970 C   0  0  0  0  0  0  0  0  0  0  0  0
   -8.5150   -2.9910  -22.5290 C   0  0  1  0  0  0  0  0  0  0  0  0
   -7.3790   -2.8000  -21.5150 C   0  0  0  0  0  0  0  0  0  0  0  0
   -7.4470   -1.3830  -21.2000 N   0  0  0  0  0  0  0  0  0  0  0  0
   -6.6640   -0.7860  -20.1840 C   0  0  0  0  0  0  0  0  0  0  0  0
   -6.9190   -1.0980  -18.8720 C   0  0  0  0  0  0  0  0  0  0  0  0
   -6.2300   -0.6110  -17.8140 N   0  0  0  0  0  0  0  0  0  0  0  0
   -5.2150    0.1760  -18.0760 C   0  0  0  0  0  0  0  0  0  0  0  0
   -4.8340    0.5740  -19.3880 C   0  0  0  0  0  0  0  0  0  0  0  0
   -3.7250    1.4390  -19.6040 C   0  0  0  0  0  0  0  0  0  0  0  0
   -3.4440    1.8990  -20.8560 C   0  0  0  0  0  0  0  0  0  0  0  0
   -4.2270    1.4900  -21.9580 C   0  0  0  0  0  0  0  0  0  0  0  0
   -5.2320    0.5700  -21.7930 C   0  0  0  0  0  0  0  0  0  0  0  0
   -5.5910    0.1130  -20.4890 C   0  0  0  0  0  0  0  0  0  0  0  0
   -5.7800    0.2290  -22.6660 H   0  0  0  0  0  0  0  0  0  0  0  0
   -4.0250    1.9080  -22.9400 H   0  0  0  0  0  0  0  0  0  0  0  0
   -2.6480    2.6260  -21.0070 H   0  0  0  0  0  0  0  0  0  0  0  0
   -3.1210    1.7220  -18.7420 H   0  0  0  0  0  0  0  0  0  0  0  0
   -4.6490    0.5570  -17.2270 H   0  0  0  0  0  0  0  0  0  0  0  0
   -7.7470   -1.7640  -18.6370 H   0  0  0  0  0  0  0  0  0  0  0  0
   -8.1700   -0.6420  -22.1120 C   0  0  0  0  0  0  0  0  0  0  0  0
   -8.2930    0.5650  -22.0740 O   0  0  0  0  0  0  0  0  0  0  0  0
   -8.7400   -1.5810  -23.1900 C   0  0  1  0  0  0  0  0  0  0  0  0
   -7.9410   -1.2910  -24.4880 C   0  0  0  0  0  0  0  0  0  0  0  0
   -8.5660   -1.8510  -25.6900 N   0  0  0  0  0  0  0  0  0  0  0  0
   -7.7070   -2.0650  -26.8410 C   0  0  0  0  0  0  0  0  0  0  0  0
   -6.9380   -3.3340  -26.6870 C   0  0  0  0  0  0  0  0  0  0  0  0
   -5.7230   -3.3920  -26.1900 N   0  0  0  0  0  0  0  0  0  0  0  0
   -5.3810   -4.7210  -26.2370 C   0  0  0  0  0  0  0  0  0  0  0  0
   -6.4210   -5.4590  -26.7210 C   0  0  0  0  0  0  0  0  0  0  0  0
   -7.4320   -4.5660  -27.0110 N   0  0  0  0  0  0  0  0  0  0  0  0
   -8.7760   -4.8850  -27.4730 C   0  0  0  0  0  0  0  0  0  0  0  0
   -9.0300   -4.2830  -28.3520 H   0  0  0  0  0  0  0  0  0  0  0  0
   -9.5160   -4.7090  -26.6830 H   0  0  0  0  0  0  0  0  0  0  0  0
   -8.8130   -5.9430  -27.7540 H   0  0  0  0  0  0  0  0  0  0  0  0
   -6.5300   -6.5200  -26.8880 H   0  0  0  0  0  0  0  0  0  0  0  0
   -4.3950   -5.0610  -25.9430 H   0  0  0  0  0  0  0  0  0  0  0  0
   -8.3420   -2.0760  -27.7280 H   0  0  0  0  0  0  0  0  0  0  0  0
   -7.0020   -1.2330  -26.9230 H   0  0  0  0  0  0  0  0  0  0  0  0
   -9.9120   -1.7830  -25.9230 C   0  0  0  0  0  0  0  0  0  0  0  0
  -10.4120   -2.0060  -27.0210 O   0  0  0  0  0  0  0  0  0  0  0  0
  -10.7550   -1.4350  -24.7530 C   0  0  0  0  0  0  0  0  0  0  0  0
  -12.1190   -1.2710  -24.9800 C   0  0  0  0  0  0  0  0  0  0  0  0
  -12.9740   -0.9740  -23.9400 C   0  0  0  0  0  0  0  0  0  0  0  0
  -12.4240   -0.8700  -22.6680 C   0  0  0  0  0  0  0  0  0  0  0  0
  -13.2580   -0.6300  -21.6510 F   0  0  0  0  0  0  0  0  0  0  0  0
  -11.0740   -1.0320  -22.4170 C   0  0  0  0  0  0  0  0  0  0  0  0
  -10.2060   -1.3120  -23.4740 C   0  0  0  0  0  0  0  0  0  0  0  0
  -10.6840   -0.9480  -21.4120 H   0  0  0  0  0  0  0  0  0  0  0  0
  -14.0390   -0.8310  -24.0930 H   0  0  0  0  0  0  0  0  0  0  0  0
  -12.4790   -1.4000  -25.9940 H   0  0  0  0  0  0  0  0  0  0  0  0
   -6.9170   -1.6820  -24.4050 H   0  0  0  0  0  0  0  0  0  0  0  0
   -7.8620   -0.1960  -24.5930 H   0  0  0  0  0  0  0  0  0  0  0  0
   -6.3960   -3.0680  -21.9350 H   0  0  0  0  0  0  0  0  0  0  0  0
   -7.5260   -3.4030  -20.6140 H   0  0  0  0  0  0  0  0  0  0  0  0
   -9.4290   -3.1910  -21.9470 H   0  0  0  0  0  0  0  0  0  0  0  0
   -7.3330   -3.9780  -24.0340 H   0  0  0  0  0  0  0  0  0  0  0  0
   -8.2130   -5.0860  -22.9560 H   0  0  0  0  0  0  0  0  0  0  0  0
   -9.0910   -4.1950  -24.2230 H   0  0  0  0  0  0  0  0  0  0  0  0
  1  2  1  0  0  0  0
  1 57  1  0  0  0  0
  1 58  1  0  0  0  0
  1 59  1  0  0  0  0
  2  3  1  0  0  0  0
  2 23  1  0  0  0  0
  2 56  1  1  0  0  0
  3  4  1  0  0  0  0
  3 54  1  0  0  0  0
  3 55  1  0  0  0  0
  4  5  1  0  0  0  0
  4 21  1  0  0  0  0
  5  6  2  0  0  0  0
  5 14  1  0  0  0  0
  6  7  1  0  0  0  0
  6 20  1  0  0  0  0
  7  8  2  0  0  0  0
  8  9  1  0  0  0  0
  8 19  1  0  0  0  0
  9 10  2  0  0  0  0
  9 14  1  0  0  0  0
 10 11  1  0  0  0  0
 10 18  1  0  0  0  0
 11 12  2  0  0  0  0
 11 17  1  0  0  0  0
 12 13  1  0  0  0  0
 12 16  1  0  0  0  0
 13 14  2  0  0  0  0
 13 15  1  0  0  0  0
 21 22  2  0  0  0  0
 23 21  1  1  0  0  0
 23 24  1  0  0  0  0
 23 48  1  0  0  0  0
 24 25  1  0  0  0  0
 24 52  1  0  0  0  0
 24 53  1  0  0  0  0
 25 26  1  0  0  0  0
 25 40  1  0  0  0  0
 26 27  1  0  0  0  0
 26 38  1  0  0  0  0
 26 39  1  0  0  0  0
 27 28  2  0  0  0  0
 27 31  1  0  0  0  0
 28 29  1  0  0  0  0
 29 30  2  0  0  0  0
 29 37  1  0  0  0  0
 30 31  1  0  0  0  0
 30 36  1  0  0  0  0
 31 32  1  0  0  0  0
 32 33  1  0  0  0  0
 32 34  1  0  0  0  0
 32 35  1  0  0  0  0
 40 41  2  0  0  0  0
 40 42  1  0  0  0  0
 42 43  2  0  0  0  0
 42 48  1  0  0  0  0
 43 44  1  0  0  0  0
 43 51  1  0  0  0  0
 44 45  2  0  0  0  0
 44 50  1  0  0  0  0
 45 46  1  0  0  0  0
 45 47  1  0  0  0  0
 47 48  2  0  0  0  0
 47 49  1  0  0  0  0
M  END
>  <MODEL>
       1

$$$$
