tmp_first_model_11_63.pdb
 OpenBabel08272522543D

 57 61  0  0  1  0  0  0  0  0999 V2000
   -7.3350    3.4270  -21.8520 C   0  0  0  0  0  0  0  0  0  0  0  0
   -8.1790    2.9580  -22.9370 N   0  0  0  0  0  0  0  0  0  0  0  0
   -7.6090    2.2520  -23.9430 C   0  0  0  0  0  0  0  0  0  0  0  0
   -6.3960    2.1230  -24.0470 O   0  0  0  0  0  0  0  0  0  0  0  0
   -8.5610    1.6320  -24.9720 C   0  0  0  0  0  0  0  0  0  0  0  0
   -9.3010    0.4890  -24.4680 N   0  0  0  0  0  0  0  0  0  0  0  0
   -8.5980   -0.7670  -24.2830 C   0  0  0  0  0  0  0  0  0  0  0  0
   -9.0100   -1.4750  -22.9630 C   0  0  2  0  0  0  0  0  0  0  0  0
   -8.4590   -0.6890  -21.7470 C   0  0  0  0  0  0  0  0  0  0  0  0
   -8.8690    0.3680  -21.3140 O   0  0  0  0  0  0  0  0  0  0  0  0
   -7.4030   -1.3850  -21.2070 N   0  0  0  0  0  0  0  0  0  0  0  0
   -6.6050   -0.8120  -20.1770 C   0  0  0  0  0  0  0  0  0  0  0  0
   -6.9120   -1.0420  -18.8610 C   0  0  0  0  0  0  0  0  0  0  0  0
   -6.2100   -0.5470  -17.8100 N   0  0  0  0  0  0  0  0  0  0  0  0
   -5.1710    0.2070  -18.0790 C   0  0  0  0  0  0  0  0  0  0  0  0
   -4.7320    0.5270  -19.3950 C   0  0  0  0  0  0  0  0  0  0  0  0
   -3.6030    1.3580  -19.6410 C   0  0  0  0  0  0  0  0  0  0  0  0
   -3.2140    1.6470  -20.9200 C   0  0  0  0  0  0  0  0  0  0  0  0
   -3.9350    1.1180  -22.0140 C   0  0  0  0  0  0  0  0  0  0  0  0
   -5.0300    0.3150  -21.8020 C   0  0  0  0  0  0  0  0  0  0  0  0
   -5.4670    0.0010  -20.4870 C   0  0  0  0  0  0  0  0  0  0  0  0
   -5.5840   -0.0750  -22.6520 H   0  0  0  0  0  0  0  0  0  0  0  0
   -3.6420    1.3640  -23.0290 H   0  0  0  0  0  0  0  0  0  0  0  0
   -2.3620    2.2980  -21.0980 H   0  0  0  0  0  0  0  0  0  0  0  0
   -3.0760    1.7740  -18.7850 H   0  0  0  0  0  0  0  0  0  0  0  0
   -4.6210    0.6120  -17.2280 H   0  0  0  0  0  0  0  0  0  0  0  0
   -7.7640   -1.6660  -18.6030 H   0  0  0  0  0  0  0  0  0  0  0  0
   -7.0770   -2.6170  -21.9020 C   0  0  0  0  0  0  0  0  0  0  0  0
   -8.3060   -2.8620  -22.8090 C   0  0  2  0  0  0  0  0  0  0  0  0
   -7.9390   -3.5860  -24.1060 C   0  0  0  0  0  0  0  0  0  0  0  0
   -7.4350   -4.8600  -23.7550 O   0  0  0  0  0  0  0  0  0  0  0  0
   -7.1980   -5.3270  -24.5660 H   0  0  0  0  0  0  0  0  0  0  0  0
   -7.1770   -3.0050  -24.6510 H   0  0  0  0  0  0  0  0  0  0  0  0
   -8.8230   -3.6810  -24.7560 H   0  0  0  0  0  0  0  0  0  0  0  0
   -8.9940   -3.5240  -22.2790 H   0  0  0  0  0  0  0  0  0  0  0  0
   -6.9100   -3.4290  -21.1860 H   0  0  0  0  0  0  0  0  0  0  0  0
   -6.1520   -2.5040  -22.4890 H   0  0  0  0  0  0  0  0  0  0  0  0
  -10.5290   -1.4880  -22.8910 C   0  0  0  0  0  0  0  0  0  0  0  0
  -11.1770   -2.3310  -21.9800 C   0  0  0  0  0  0  0  0  0  0  0  0
  -12.5570   -2.3290  -21.8960 C   0  0  0  0  0  0  0  0  0  0  0  0
  -13.3550   -3.3840  -20.7670 Cl  0  0  0  0  0  0  0  0  0  0  0  0
  -13.3320   -1.4850  -22.6910 C   0  0  0  0  0  0  0  0  0  0  0  0
  -12.6970   -0.5960  -23.5360 C   0  0  0  0  0  0  0  0  0  0  0  0
  -11.3050   -0.5680  -23.6110 C   0  0  0  0  0  0  0  0  0  0  0  0
  -10.6670    0.5420  -24.3920 C   0  0  0  0  0  0  0  0  0  0  0  0
  -11.3310    1.4430  -24.8890 O   0  0  0  0  0  0  0  0  0  0  0  0
  -13.2480    0.1300  -24.1250 H   0  0  0  0  0  0  0  0  0  0  0  0
  -14.4120   -1.5040  -22.6010 H   0  0  0  0  0  0  0  0  0  0  0  0
  -10.6170   -2.9710  -21.3080 H   0  0  0  0  0  0  0  0  0  0  0  0
   -7.5290   -0.5330  -24.2570 H   0  0  0  0  0  0  0  0  0  0  0  0
   -8.8000   -1.4420  -25.1310 H   0  0  0  0  0  0  0  0  0  0  0  0
   -7.9250    1.3440  -25.8180 H   0  0  0  0  0  0  0  0  0  0  0  0
   -9.3200    2.3410  -25.3110 H   0  0  0  0  0  0  0  0  0  0  0  0
   -9.1770    2.9040  -22.8050 H   0  0  0  0  0  0  0  0  0  0  0  0
   -6.6250    4.1790  -22.2120 H   0  0  0  0  0  0  0  0  0  0  0  0
   -7.9750    3.8810  -21.0940 H   0  0  0  0  0  0  0  0  0  0  0  0
   -6.7590    2.5900  -21.4300 H   0  0  0  0  0  0  0  0  0  0  0  0
  1  2  1  0  0  0  0
  1 55  1  0  0  0  0
  1 56  1  0  0  0  0
  1 57  1  0  0  0  0
  2  3  1  0  0  0  0
  2 54  1  0  0  0  0
  3  4  2  0  0  0  0
  3  5  1  0  0  0  0
  5  6  1  0  0  0  0
  5 52  1  0  0  0  0
  5 53  1  0  0  0  0
  6  7  1  0  0  0  0
  6 45  1  0  0  0  0
  7  8  1  0  0  0  0
  7 50  1  0  0  0  0
  7 51  1  0  0  0  0
  8  9  1  1  0  0  0
  8 29  1  0  0  0  0
  8 38  1  0  0  0  0
  9 10  2  0  0  0  0
  9 11  1  0  0  0  0
 11 12  1  0  0  0  0
 11 28  1  0  0  0  0
 12 13  2  0  0  0  0
 12 21  1  0  0  0  0
 13 14  1  0  0  0  0
 13 27  1  0  0  0  0
 14 15  2  0  0  0  0
 15 16  1  0  0  0  0
 15 26  1  0  0  0  0
 16 17  2  0  0  0  0
 16 21  1  0  0  0  0
 17 18  1  0  0  0  0
 17 25  1  0  0  0  0
 18 19  2  0  0  0  0
 18 24  1  0  0  0  0
 19 20  1  0  0  0  0
 19 23  1  0  0  0  0
 20 21  2  0  0  0  0
 20 22  1  0  0  0  0
 28 29  1  0  0  0  0
 28 36  1  0  0  0  0
 28 37  1  0  0  0  0
 29 30  1  0  0  0  0
 29 35  1  1  0  0  0
 30 31  1  0  0  0  0
 30 33  1  0  0  0  0
 30 34  1  0  0  0  0
 31 32  1  0  0  0  0
 38 39  2  0  0  0  0
 38 44  1  0  0  0  0
 39 40  1  0  0  0  0
 39 49  1  0  0  0  0
 40 41  1  0  0  0  0
 40 42  2  0  0  0  0
 42 43  1  0  0  0  0
 42 48  1  0  0  0  0
 43 44  2  0  0  0  0
 43 47  1  0  0  0  0
 44 45  1  0  0  0  0
 45 46  2  0  0  0  0
M  END
>  <MODEL>
       1

$$$$
