tmp_first_model_11_15.pdb
 OpenBabel08272522543D

 63 68  0  0  1  0  0  0  0  0999 V2000
   -7.4100    3.3690  -21.8250 C   0  0  0  0  0  0  0  0  0  0  0  0
   -8.3800    2.8970  -22.8030 N   0  0  0  0  0  0  0  0  0  0  0  0
   -7.8760    2.1780  -23.8520 C   0  0  0  0  0  0  0  0  0  0  0  0
   -6.6760    2.0030  -24.0110 O   0  0  0  0  0  0  0  0  0  0  0  0
   -8.8830    1.5880  -24.8380 C   0  0  0  0  0  0  0  0  0  0  0  0
   -9.5100    0.4070  -24.2810 N   0  0  0  0  0  0  0  0  0  0  0  0
   -8.7330   -0.8150  -24.1440 C   0  0  0  0  0  0  0  0  0  0  0  0
   -9.0820   -1.5710  -22.8370 C   0  0  2  0  0  0  0  0  0  0  0  0
   -8.5520   -0.7830  -21.6170 C   0  0  0  0  0  0  0  0  0  0  0  0
   -9.0400    0.2060  -21.1070 O   0  0  0  0  0  0  0  0  0  0  0  0
   -7.3900   -1.3860  -21.1940 N   0  0  0  0  0  0  0  0  0  0  0  0
   -6.5990   -0.8170  -20.1720 C   0  0  0  0  0  0  0  0  0  0  0  0
   -6.9240   -1.0410  -18.8600 C   0  0  0  0  0  0  0  0  0  0  0  0
   -6.2310   -0.5480  -17.8070 N   0  0  0  0  0  0  0  0  0  0  0  0
   -5.1860    0.2000  -18.0770 C   0  0  0  0  0  0  0  0  0  0  0  0
   -4.7440    0.5170  -19.3940 C   0  0  0  0  0  0  0  0  0  0  0  0
   -3.6200    1.3510  -19.6370 C   0  0  0  0  0  0  0  0  0  0  0  0
   -3.2420    1.6540  -20.9160 C   0  0  0  0  0  0  0  0  0  0  0  0
   -3.9660    1.1440  -22.0160 C   0  0  0  0  0  0  0  0  0  0  0  0
   -5.0570    0.3330  -21.8100 C   0  0  0  0  0  0  0  0  0  0  0  0
   -5.4680   -0.0050  -20.4890 C   0  0  0  0  0  0  0  0  0  0  0  0
   -5.6250   -0.0220  -22.6650 H   0  0  0  0  0  0  0  0  0  0  0  0
   -3.6700    1.4030  -23.0280 H   0  0  0  0  0  0  0  0  0  0  0  0
   -2.3870    2.2990  -21.0910 H   0  0  0  0  0  0  0  0  0  0  0  0
   -3.0880    1.7570  -18.7820 H   0  0  0  0  0  0  0  0  0  0  0  0
   -4.6250    0.5990  -17.2310 H   0  0  0  0  0  0  0  0  0  0  0  0
   -7.7910   -1.6540  -18.6260 H   0  0  0  0  0  0  0  0  0  0  0  0
   -7.0170   -2.5690  -21.9340 C   0  0  0  0  0  0  0  0  0  0  0  0
   -8.2980   -2.9080  -22.7110 C   0  0  2  0  0  0  0  0  0  0  0  0
   -8.0020   -3.6540  -24.0190 C   0  0  0  0  0  0  0  0  0  0  0  0
   -7.4360   -4.9710  -23.7850 N   0  0  0  0  0  0  0  0  0  0  0  0
   -8.0940   -6.1190  -23.5120 C   0  0  0  0  0  0  0  0  0  0  0  0
   -7.1400   -7.0830  -23.2860 C   0  0  0  0  0  0  0  0  0  0  0  0
   -5.9140   -6.4090  -23.4560 C   0  0  0  0  0  0  0  0  0  0  0  0
   -6.1060   -5.1270  -23.7460 N   0  0  0  0  0  0  0  0  0  0  0  0
   -4.9030   -6.7990  -23.3940 H   0  0  0  0  0  0  0  0  0  0  0  0
   -7.3000   -8.1210  -23.0380 H   0  0  0  0  0  0  0  0  0  0  0  0
   -9.1740   -6.1670  -23.5270 H   0  0  0  0  0  0  0  0  0  0  0  0
   -7.2610   -3.1100  -24.6130 H   0  0  0  0  0  0  0  0  0  0  0  0
   -8.9100   -3.7750  -24.6170 H   0  0  0  0  0  0  0  0  0  0  0  0
   -8.8980   -3.5750  -22.0880 H   0  0  0  0  0  0  0  0  0  0  0  0
   -6.1680   -2.3840  -22.6140 H   0  0  0  0  0  0  0  0  0  0  0  0
   -6.7190   -3.3680  -21.2490 H   0  0  0  0  0  0  0  0  0  0  0  0
  -10.5920   -1.6830  -22.7570 C   0  0  0  0  0  0  0  0  0  0  0  0
  -11.1990   -2.6010  -21.8960 C   0  0  0  0  0  0  0  0  0  0  0  0
  -12.5750   -2.6100  -21.7550 C   0  0  0  0  0  0  0  0  0  0  0  0
  -13.2970   -3.6480  -20.5700 Cl  0  0  0  0  0  0  0  0  0  0  0  0
  -13.4070   -1.7780  -22.5030 C   0  0  0  0  0  0  0  0  0  0  0  0
  -12.8120   -0.8580  -23.3350 C   0  0  0  0  0  0  0  0  0  0  0  0
  -11.4260   -0.7720  -23.4170 C   0  0  0  0  0  0  0  0  0  0  0  0
  -10.8680    0.3980  -24.1550 C   0  0  0  0  0  0  0  0  0  0  0  0
  -11.5790    1.2970  -24.5830 O   0  0  0  0  0  0  0  0  0  0  0  0
  -13.3900   -0.1390  -23.9030 H   0  0  0  0  0  0  0  0  0  0  0  0
  -14.4860   -1.8350  -22.3940 H   0  0  0  0  0  0  0  0  0  0  0  0
  -10.6110   -3.3000  -21.3110 H   0  0  0  0  0  0  0  0  0  0  0  0
   -8.9420   -1.4780  -24.9940 H   0  0  0  0  0  0  0  0  0  0  0  0
   -7.6680   -0.5580  -24.1710 H   0  0  0  0  0  0  0  0  0  0  0  0
   -9.6880    2.2900  -25.0850 H   0  0  0  0  0  0  0  0  0  0  0  0
   -8.3270    1.3310  -25.7480 H   0  0  0  0  0  0  0  0  0  0  0  0
   -9.3220    2.7310  -22.4650 H   0  0  0  0  0  0  0  0  0  0  0  0
   -6.7870    2.5270  -21.4790 H   0  0  0  0  0  0  0  0  0  0  0  0
   -7.9360    3.8320  -20.9870 H   0  0  0  0  0  0  0  0  0  0  0  0
   -6.7600    4.1260  -22.2770 H   0  0  0  0  0  0  0  0  0  0  0  0
  1  2  1  0  0  0  0
  1 61  1  0  0  0  0
  1 62  1  0  0  0  0
  1 63  1  0  0  0  0
  2  3  1  0  0  0  0
  2 60  1  0  0  0  0
  3  4  2  0  0  0  0
  3  5  1  0  0  0  0
  5  6  1  0  0  0  0
  5 58  1  0  0  0  0
  5 59  1  0  0  0  0
  6  7  1  0  0  0  0
  6 51  1  0  0  0  0
  7  8  1  0  0  0  0
  7 56  1  0  0  0  0
  7 57  1  0  0  0  0
  8  9  1  1  0  0  0
  8 29  1  0  0  0  0
  8 44  1  0  0  0  0
  9 10  2  0  0  0  0
  9 11  1  0  0  0  0
 11 12  1  0  0  0  0
 11 28  1  0  0  0  0
 12 13  2  0  0  0  0
 12 21  1  0  0  0  0
 13 14  1  0  0  0  0
 13 27  1  0  0  0  0
 14 15  2  0  0  0  0
 15 16  1  0  0  0  0
 15 26  1  0  0  0  0
 16 17  2  0  0  0  0
 16 21  1  0  0  0  0
 17 18  1  0  0  0  0
 17 25  1  0  0  0  0
 18 19  2  0  0  0  0
 18 24  1  0  0  0  0
 19 20  1  0  0  0  0
 19 23  1  0  0  0  0
 20 21  2  0  0  0  0
 20 22  1  0  0  0  0
 28 29  1  0  0  0  0
 28 42  1  0  0  0  0
 28 43  1  0  0  0  0
 29 30  1  0  0  0  0
 29 41  1  1  0  0  0
 30 31  1  0  0  0  0
 30 39  1  0  0  0  0
 30 40  1  0  0  0  0
 31 32  1  0  0  0  0
 31 35  1  0  0  0  0
 32 33  2  0  0  0  0
 32 38  1  0  0  0  0
 33 34  1  0  0  0  0
 33 37  1  0  0  0  0
 34 35  2  0  0  0  0
 34 36  1  0  0  0  0
 44 45  2  0  0  0  0
 44 50  1  0  0  0  0
 45 46  1  0  0  0  0
 45 55  1  0  0  0  0
 46 47  1  0  0  0  0
 46 48  2  0  0  0  0
 48 49  1  0  0  0  0
 48 54  1  0  0  0  0
 49 50  2  0  0  0  0
 49 53  1  0  0  0  0
 50 51  1  0  0  0  0
 51 52  2  0  0  0  0
M  END
>  <MODEL>
       1

$$$$
