tmp_first_model_13_52.pdb
 OpenBabel08282500103D

 57 60  0  0  0  0  0  0  0  0999 V2000
  -14.0150   -1.2320  -24.1860 C   0  0  0  0  0  0  0  0  0  0  0  0
  -13.0780   -2.4470  -24.0890 C   0  0  0  0  0  0  0  0  0  0  0  0
  -11.6090   -2.0390  -23.9230 C   0  0  0  0  0  0  0  0  0  0  0  0
  -11.1340   -1.8490  -22.8210 O   0  0  0  0  0  0  0  0  0  0  0  0
  -10.8780   -1.8660  -25.0810 N   0  0  0  0  0  0  0  0  0  0  0  0
   -9.4720   -1.6610  -25.0980 C   0  0  0  0  0  0  0  0  0  0  0  0
   -8.9080   -0.8500  -26.0880 C   0  0  0  0  0  0  0  0  0  0  0  0
   -7.5340   -0.6490  -26.1070 C   0  0  0  0  0  0  0  0  0  0  0  0
   -6.7050   -1.2600  -25.1750 C   0  0  0  0  0  0  0  0  0  0  0  0
   -7.2680   -2.0740  -24.1950 C   0  0  0  0  0  0  0  0  0  0  0  0
   -6.4150   -2.6990  -23.2360 N   0  0  0  0  0  0  0  0  0  0  0  0
   -5.4290   -3.6740  -23.7160 C   0  0  0  0  0  0  0  0  0  0  0  0
   -6.0350   -5.0200  -24.0660 C   0  0  0  0  0  0  0  0  0  0  0  0
   -6.6580   -5.1940  -25.3010 C   0  0  0  0  0  0  0  0  0  0  0  0
   -7.2920   -6.3910  -25.6030 C   0  0  0  0  0  0  0  0  0  0  0  0
   -7.3120   -7.4240  -24.6760 C   0  0  0  0  0  0  0  0  0  0  0  0
   -6.6440   -7.2870  -23.4610 C   0  0  0  0  0  0  0  0  0  0  0  0
   -6.0100   -6.0830  -23.1590 C   0  0  0  0  0  0  0  0  0  0  0  0
   -5.5270   -5.9420  -22.1930 H   0  0  0  0  0  0  0  0  0  0  0  0
   -6.6270   -8.1000  -22.7370 H   0  0  0  0  0  0  0  0  0  0  0  0
   -7.8940   -8.3040  -24.9330 H   0  0  0  0  0  0  0  0  0  0  0  0
   -7.8000   -6.5320  -26.5540 H   0  0  0  0  0  0  0  0  0  0  0  0
   -6.6850   -4.3730  -26.0160 H   0  0  0  0  0  0  0  0  0  0  0  0
   -4.6740   -3.7870  -22.9350 H   0  0  0  0  0  0  0  0  0  0  0  0
   -4.9520   -3.2450  -24.6020 H   0  0  0  0  0  0  0  0  0  0  0  0
   -6.6500   -2.6790  -21.8730 C   0  0  0  0  0  0  0  0  0  0  0  0
   -6.2430   -3.5800  -21.1570 O   0  0  0  0  0  0  0  0  0  0  0  0
   -7.3840   -1.4680  -21.2760 C   0  0  0  0  0  0  0  0  0  0  0  0
   -6.5740   -0.8210  -20.1770 C   0  0  0  0  0  0  0  0  0  0  0  0
   -6.8710   -1.0440  -18.8590 C   0  0  0  0  0  0  0  0  0  0  0  0
   -6.1820   -0.5360  -17.8040 N   0  0  0  0  0  0  0  0  0  0  0  0
   -5.1530    0.2240  -18.0680 C   0  0  0  0  0  0  0  0  0  0  0  0
   -4.7190    0.5390  -19.3840 C   0  0  0  0  0  0  0  0  0  0  0  0
   -3.5890    1.3600  -19.6230 C   0  0  0  0  0  0  0  0  0  0  0  0
   -3.1910    1.6360  -20.9010 C   0  0  0  0  0  0  0  0  0  0  0  0
   -3.9070    1.0970  -21.9940 C   0  0  0  0  0  0  0  0  0  0  0  0
   -5.0050    0.3000  -21.7900 C   0  0  0  0  0  0  0  0  0  0  0  0
   -5.4450    0.0000  -20.4730 C   0  0  0  0  0  0  0  0  0  0  0  0
   -5.5380   -0.1080  -22.6490 H   0  0  0  0  0  0  0  0  0  0  0  0
   -3.5910    1.3210  -23.0080 H   0  0  0  0  0  0  0  0  0  0  0  0
   -2.3330    2.2770  -21.0850 H   0  0  0  0  0  0  0  0  0  0  0  0
   -3.0590    1.7690  -18.7660 H   0  0  0  0  0  0  0  0  0  0  0  0
   -4.6040    0.6290  -17.2160 H   0  0  0  0  0  0  0  0  0  0  0  0
   -7.7200   -1.6690  -18.5790 H   0  0  0  0  0  0  0  0  0  0  0  0
   -7.6390   -0.7500  -22.0640 H   0  0  0  0  0  0  0  0  0  0  0  0
   -8.3300   -1.8400  -20.8580 H   0  0  0  0  0  0  0  0  0  0  0  0
   -8.6470   -2.2900  -24.1650 C   0  0  0  0  0  0  0  0  0  0  0  0
   -9.0820   -2.9630  -23.4310 H   0  0  0  0  0  0  0  0  0  0  0  0
   -5.6290   -1.1020  -25.1870 H   0  0  0  0  0  0  0  0  0  0  0  0
   -7.0960   -0.0090  -26.8640 H   0  0  0  0  0  0  0  0  0  0  0  0
   -9.5380   -0.3650  -26.8300 H   0  0  0  0  0  0  0  0  0  0  0  0
  -11.3570   -1.8290  -25.9730 H   0  0  0  0  0  0  0  0  0  0  0  0
  -13.3200   -3.0130  -23.1840 H   0  0  0  0  0  0  0  0  0  0  0  0
  -13.2210   -3.1190  -24.9490 H   0  0  0  0  0  0  0  0  0  0  0  0
  -15.0670   -1.5370  -24.2700 H   0  0  0  0  0  0  0  0  0  0  0  0
  -13.9060   -0.5710  -23.3180 H   0  0  0  0  0  0  0  0  0  0  0  0
  -13.7890   -0.6380  -25.0640 H   0  0  0  0  0  0  0  0  0  0  0  0
  1  2  1  0  0  0  0
  1 55  1  0  0  0  0
  1 56  1  0  0  0  0
  1 57  1  0  0  0  0
  2  3  1  0  0  0  0
  2 53  1  0  0  0  0
  2 54  1  0  0  0  0
  3  4  2  0  0  0  0
  3  5  1  0  0  0  0
  5  6  1  0  0  0  0
  5 52  1  0  0  0  0
  6  7  2  0  0  0  0
  6 47  1  0  0  0  0
  7  8  1  0  0  0  0
  7 51  1  0  0  0  0
  8  9  2  0  0  0  0
  8 50  1  0  0  0  0
  9 10  1  0  0  0  0
  9 49  1  0  0  0  0
 10 11  1  0  0  0  0
 10 47  2  0  0  0  0
 11 12  1  0  0  0  0
 11 26  1  0  0  0  0
 12 13  1  0  0  0  0
 12 24  1  0  0  0  0
 12 25  1  0  0  0  0
 13 14  2  0  0  0  0
 13 18  1  0  0  0  0
 14 15  1  0  0  0  0
 14 23  1  0  0  0  0
 15 16  2  0  0  0  0
 15 22  1  0  0  0  0
 16 17  1  0  0  0  0
 16 21  1  0  0  0  0
 17 18  2  0  0  0  0
 17 20  1  0  0  0  0
 18 19  1  0  0  0  0
 26 27  2  0  0  0  0
 26 28  1  0  0  0  0
 28 29  1  0  0  0  0
 28 45  1  0  0  0  0
 28 46  1  0  0  0  0
 29 30  2  0  0  0  0
 29 38  1  0  0  0  0
 30 31  1  0  0  0  0
 30 44  1  0  0  0  0
 31 32  2  0  0  0  0
 32 33  1  0  0  0  0
 32 43  1  0  0  0  0
 33 34  2  0  0  0  0
 33 38  1  0  0  0  0
 34 35  1  0  0  0  0
 34 42  1  0  0  0  0
 35 36  2  0  0  0  0
 35 41  1  0  0  0  0
 36 37  1  0  0  0  0
 36 40  1  0  0  0  0
 37 38  2  0  0  0  0
 37 39  1  0  0  0  0
 47 48  1  0  0  0  0
M  END
>  <MODEL>
       1

$$$$
