tmp_first_model_10_70.pdb
 OpenBabel08272522163D

 52 54  0  0  0  0  0  0  0  0999 V2000
  -14.1800   -4.1190  -24.8310 C   0  0  0  0  0  0  0  0  0  0  0  0
  -14.1240   -4.0150  -25.0610 C   0  0  0  0  0  0  0  0  0  0  0  0
  -15.2510   -3.3010  -25.5840 C   0  0  0  0  0  0  0  0  0  0  0  0
  -15.9540   -3.8530  -26.2580 H   0  0  0  0  0  0  0  0  0  0  0  0
  -15.8610   -2.5910  -24.9780 H   0  0  0  0  0  0  0  0  0  0  0  0
  -14.6510   -2.7220  -26.2830 H   0  0  0  0  0  0  0  0  0  0  0  0
  -13.5940   -3.3740  -23.7570 C   0  0  0  0  0  0  0  0  0  0  0  0
  -11.8100   -1.3210  -24.0620 C   0  0  0  0  0  0  0  0  0  0  0  0
  -12.3750   -0.7430  -25.3270 C   0  0  0  0  0  0  0  0  0  0  0  0
  -12.1940   -1.3610  -26.2120 H   0  0  0  0  0  0  0  0  0  0  0  0
  -11.9000    0.2290  -25.5230 H   0  0  0  0  0  0  0  0  0  0  0  0
  -13.4500   -0.5530  -25.2340 H   0  0  0  0  0  0  0  0  0  0  0  0
  -11.8960   -0.4620  -22.8260 C   0  0  0  0  0  0  0  0  0  0  0  0
  -10.5520    0.2300  -22.6690 C   0  0  0  0  0  0  0  0  0  0  0  0
   -9.5360   -0.7710  -22.3520 N   0  0  0  0  0  0  0  0  0  0  0  0
   -8.5640   -0.3990  -21.4660 C   0  0  0  0  0  0  0  0  0  0  0  0
   -8.5480    0.7180  -20.9710 O   0  0  0  0  0  0  0  0  0  0  0  0
   -7.4590   -1.4090  -21.1060 C   0  0  0  0  0  0  0  0  0  0  0  0
   -6.5560   -0.8570  -20.0360 C   0  0  0  0  0  0  0  0  0  0  0  0
   -6.7470   -1.1990  -18.7230 C   0  0  0  0  0  0  0  0  0  0  0  0
   -6.0620   -0.6910  -17.6650 N   0  0  0  0  0  0  0  0  0  0  0  0
   -5.1360    0.1990  -17.9320 C   0  0  0  0  0  0  0  0  0  0  0  0
   -4.8160    0.6430  -19.2430 C   0  0  0  0  0  0  0  0  0  0  0  0
   -3.7990    1.6040  -19.4810 C   0  0  0  0  0  0  0  0  0  0  0  0
   -3.5500    2.0540  -20.7480 C   0  0  0  0  0  0  0  0  0  0  0  0
   -4.3030    1.5590  -21.8340 C   0  0  0  0  0  0  0  0  0  0  0  0
   -5.2700    0.6020  -21.6350 C   0  0  0  0  0  0  0  0  0  0  0  0
   -5.5560    0.1180  -20.3290 C   0  0  0  0  0  0  0  0  0  0  0  0
   -5.8360    0.2260  -22.4810 H   0  0  0  0  0  0  0  0  0  0  0  0
   -4.1140    1.9370  -22.8350 H   0  0  0  0  0  0  0  0  0  0  0  0
   -2.7860    2.8060  -20.9240 H   0  0  0  0  0  0  0  0  0  0  0  0
   -3.2400    1.9850  -18.6290 H   0  0  0  0  0  0  0  0  0  0  0  0
   -4.5880    0.6170  -17.0860 H   0  0  0  0  0  0  0  0  0  0  0  0
   -7.5060   -1.9350  -18.4580 H   0  0  0  0  0  0  0  0  0  0  0  0
   -6.8890   -1.6570  -22.0130 H   0  0  0  0  0  0  0  0  0  0  0  0
   -7.9200   -2.3420  -20.7550 H   0  0  0  0  0  0  0  0  0  0  0  0
   -9.7350   -2.1320  -22.8580 C   0  0  0  0  0  0  0  0  0  0  0  0
  -10.5340   -2.1180  -24.1640 C   0  0  0  0  0  0  0  0  0  0  0  0
  -10.7740   -3.1470  -24.4520 H   0  0  0  0  0  0  0  0  0  0  0  0
   -9.9060   -1.6980  -24.9610 H   0  0  0  0  0  0  0  0  0  0  0  0
   -8.7590   -2.5950  -23.0340 H   0  0  0  0  0  0  0  0  0  0  0  0
  -10.2670   -2.7540  -22.1230 H   0  0  0  0  0  0  0  0  0  0  0  0
  -10.5480    0.9780  -21.8770 H   0  0  0  0  0  0  0  0  0  0  0  0
  -10.2890    0.7510  -23.6010 H   0  0  0  0  0  0  0  0  0  0  0  0
  -12.0780   -1.0580  -21.9220 H   0  0  0  0  0  0  0  0  0  0  0  0
  -12.7080    0.2700  -22.8960 H   0  0  0  0  0  0  0  0  0  0  0  0
  -14.3410   -2.9320  -23.0320 H   0  0  0  0  0  0  0  0  0  0  0  0
  -12.7830   -2.5410  -23.8140 H   0  0  0  0  0  0  0  0  0  0  0  0
  -14.6860   -4.8120  -23.9300 H   0  0  0  0  0  0  0  0  0  0  0  0
  -13.5010   -3.5840  -26.0420 H   0  0  0  0  0  0  0  0  0  0  0  0
  -13.0730   -4.0940  -23.0860 H   0  0  0  0  0  0  0  0  0  0  0  0
  -13.5520   -5.4190  -25.3620 H   0  0  0  0  0  0  0  0  0  0  0  0
  1  2  1  0  0  0  0
  1 50  1  0  0  0  0
  1 51  1  0  0  0  0
  1 52  1  0  0  0  0
  2  3  1  0  0  0  0
  2  7  1  0  0  0  0
  2 49  1  0  0  0  0
  3  4  1  0  0  0  0
  3  5  1  0  0  0  0
  3  6  1  0  0  0  0
  7  8  1  0  0  0  0
  7 47  1  0  0  0  0
  7 48  1  0  0  0  0
  8  9  1  0  0  0  0
  8 13  1  0  0  0  0
  8 38  1  0  0  0  0
  9 10  1  0  0  0  0
  9 11  1  0  0  0  0
  9 12  1  0  0  0  0
 13 14  1  0  0  0  0
 13 45  1  0  0  0  0
 13 46  1  0  0  0  0
 14 15  1  0  0  0  0
 14 43  1  0  0  0  0
 14 44  1  0  0  0  0
 15 16  1  0  0  0  0
 15 37  1  0  0  0  0
 16 17  2  0  0  0  0
 16 18  1  0  0  0  0
 18 19  1  0  0  0  0
 18 35  1  0  0  0  0
 18 36  1  0  0  0  0
 19 20  2  0  0  0  0
 19 28  1  0  0  0  0
 20 21  1  0  0  0  0
 20 34  1  0  0  0  0
 21 22  2  0  0  0  0
 22 23  1  0  0  0  0
 22 33  1  0  0  0  0
 23 24  2  0  0  0  0
 23 28  1  0  0  0  0
 24 25  1  0  0  0  0
 24 32  1  0  0  0  0
 25 26  2  0  0  0  0
 25 31  1  0  0  0  0
 26 27  1  0  0  0  0
 26 30  1  0  0  0  0
 27 28  2  0  0  0  0
 27 29  1  0  0  0  0
 37 38  1  0  0  0  0
 37 41  1  0  0  0  0
 37 42  1  0  0  0  0
 38 39  1  0  0  0  0
 38 40  1  0  0  0  0
M  END
>  <MODEL>
       1

$$$$
