tmp_first_model_9_32.pdb
 OpenBabel08272521403D

 57 62  0  0  1  0  0  0  0  0999 V2000
  -10.1170   -0.9340  -23.7100 C   0  0  0  0  0  0  0  0  0  0  0  0
   -8.7700   -1.3360  -23.1280 C   0  0  1  0  0  0  0  0  0  0  0  0
   -8.2700   -0.4340  -21.9950 C   0  0  0  0  0  0  0  0  0  0  0  0
   -7.2850   -1.2760  -21.3280 N   0  0  0  0  0  0  0  0  0  0  0  0
   -6.4880   -0.8040  -20.2560 C   0  0  0  0  0  0  0  0  0  0  0  0
   -6.7940   -1.1240  -18.9560 C   0  0  0  0  0  0  0  0  0  0  0  0
   -6.1540   -0.6040  -17.8790 N   0  0  0  0  0  0  0  0  0  0  0  0
   -5.1760    0.2390  -18.0940 C   0  0  0  0  0  0  0  0  0  0  0  0
   -4.7300    0.6250  -19.3880 C   0  0  0  0  0  0  0  0  0  0  0  0
   -3.6360    1.5100  -19.5700 C   0  0  0  0  0  0  0  0  0  0  0  0
   -3.2110    1.8320  -20.8290 C   0  0  0  0  0  0  0  0  0  0  0  0
   -3.8660    1.2900  -21.9590 C   0  0  0  0  0  0  0  0  0  0  0  0
   -4.9360    0.4430  -21.8070 C   0  0  0  0  0  0  0  0  0  0  0  0
   -5.3990    0.0900  -20.5110 C   0  0  0  0  0  0  0  0  0  0  0  0
   -5.4280    0.0180  -22.6770 H   0  0  0  0  0  0  0  0  0  0  0  0
   -3.5160    1.5390  -22.9570 H   0  0  0  0  0  0  0  0  0  0  0  0
   -2.3730    2.5090  -20.9700 H   0  0  0  0  0  0  0  0  0  0  0  0
   -3.1610    1.9290  -18.6870 H   0  0  0  0  0  0  0  0  0  0  0  0
   -4.6690    0.6560  -17.2210 H   0  0  0  0  0  0  0  0  0  0  0  0
   -7.6010   -1.8190  -18.7280 H   0  0  0  0  0  0  0  0  0  0  0  0
   -7.5270   -2.6230  -21.5350 C   0  0  0  0  0  0  0  0  0  0  0  0
   -6.8780   -3.5210  -21.0420 O   0  0  0  0  0  0  0  0  0  0  0  0
   -8.7170   -2.7760  -22.5060 C   0  0  1  0  0  0  0  0  0  0  0  0
   -9.9600   -3.1290  -21.6560 C   0  0  0  0  0  0  0  0  0  0  0  0
  -11.0730   -3.6650  -22.4300 N   0  0  0  0  0  0  0  0  0  0  0  0
  -12.4080   -3.6360  -21.8280 C   0  0  0  0  0  0  0  0  0  0  0  0
  -13.3700   -2.8180  -22.6100 C   0  0  0  0  0  0  0  0  0  0  0  0
  -13.9870   -3.3150  -23.6680 N   0  0  0  0  0  0  0  0  0  0  0  0
  -13.6590   -1.5090  -22.4220 N   0  0  0  0  0  0  0  0  0  0  0  0
  -14.4400   -1.1670  -23.4200 N   0  0  0  0  0  0  0  0  0  0  0  0
  -14.5970   -2.2510  -24.1450 N   0  0  0  0  0  0  0  0  0  0  0  0
  -15.2300   -2.3230  -25.4390 C   0  0  0  0  0  0  0  0  0  0  0  0
  -16.1930   -2.8230  -25.3530 H   0  0  0  0  0  0  0  0  0  0  0  0
  -15.3040   -1.3250  -25.8450 H   0  0  0  0  0  0  0  0  0  0  0  0
  -14.5840   -2.8990  -26.0940 H   0  0  0  0  0  0  0  0  0  0  0  0
  -12.3100   -3.2340  -20.8210 H   0  0  0  0  0  0  0  0  0  0  0  0
  -12.8060   -4.6530  -21.8380 H   0  0  0  0  0  0  0  0  0  0  0  0
  -10.8860   -4.5740  -23.4390 C   0  0  0  0  0  0  0  0  0  0  0  0
  -11.8010   -5.2650  -23.8590 O   0  0  0  0  0  0  0  0  0  0  0  0
   -9.5190   -4.6560  -24.0200 C   0  0  0  0  0  0  0  0  0  0  0  0
   -9.3120   -5.5670  -25.0610 C   0  0  0  0  0  0  0  0  0  0  0  0
   -8.0540   -5.7120  -25.6150 C   0  0  0  0  0  0  0  0  0  0  0  0
   -7.0180   -4.9510  -25.0850 C   0  0  0  0  0  0  0  0  0  0  0  0
   -5.7820   -5.1090  -25.5860 F   0  0  0  0  0  0  0  0  0  0  0  0
   -7.1990   -4.0460  -24.0590 C   0  0  0  0  0  0  0  0  0  0  0  0
   -8.4810   -3.8580  -23.5330 C   0  0  0  0  0  0  0  0  0  0  0  0
   -6.3470   -3.5130  -23.6530 H   0  0  0  0  0  0  0  0  0  0  0  0
   -7.8580   -6.4140  -26.4180 H   0  0  0  0  0  0  0  0  0  0  0  0
  -10.1470   -6.1670  -25.4140 H   0  0  0  0  0  0  0  0  0  0  0  0
  -10.3070   -2.2270  -21.1430 H   0  0  0  0  0  0  0  0  0  0  0  0
   -9.6620   -3.8350  -20.8720 H   0  0  0  0  0  0  0  0  0  0  0  0
   -9.1000   -0.1710  -21.3180 H   0  0  0  0  0  0  0  0  0  0  0  0
   -7.8230    0.5020  -22.3410 H   0  0  0  0  0  0  0  0  0  0  0  0
   -8.0070   -1.3300  -23.9210 H   0  0  0  0  0  0  0  0  0  0  0  0
  -10.8830   -0.9130  -22.9290 H   0  0  0  0  0  0  0  0  0  0  0  0
  -10.0900    0.0560  -24.1790 H   0  0  0  0  0  0  0  0  0  0  0  0
  -10.4370   -1.6610  -24.4630 H   0  0  0  0  0  0  0  0  0  0  0  0
  1  2  1  0  0  0  0
  1 55  1  0  0  0  0
  1 56  1  0  0  0  0
  1 57  1  0  0  0  0
  2  3  1  0  0  0  0
  2 23  1  0  0  0  0
  2 54  1  6  0  0  0
  3  4  1  0  0  0  0
  3 52  1  0  0  0  0
  3 53  1  0  0  0  0
  4  5  1  0  0  0  0
  4 21  1  0  0  0  0
  5  6  2  0  0  0  0
  5 14  1  0  0  0  0
  6  7  1  0  0  0  0
  6 20  1  0  0  0  0
  7  8  2  0  0  0  0
  8  9  1  0  0  0  0
  8 19  1  0  0  0  0
  9 10  2  0  0  0  0
  9 14  1  0  0  0  0
 10 11  1  0  0  0  0
 10 18  1  0  0  0  0
 11 12  2  0  0  0  0
 11 17  1  0  0  0  0
 12 13  1  0  0  0  0
 12 16  1  0  0  0  0
 13 14  2  0  0  0  0
 13 15  1  0  0  0  0
 21 22  2  0  0  0  0
 23 21  1  1  0  0  0
 23 24  1  0  0  0  0
 23 46  1  0  0  0  0
 24 25  1  0  0  0  0
 24 50  1  0  0  0  0
 24 51  1  0  0  0  0
 25 26  1  0  0  0  0
 25 38  1  0  0  0  0
 26 27  1  0  0  0  0
 26 36  1  0  0  0  0
 26 37  1  0  0  0  0
 27 28  2  0  0  0  0
 27 31  1  0  0  0  0
 28 29  1  0  0  0  0
 29 30  2  0  0  0  0
 30 31  1  0  0  0  0
 31 32  1  0  0  0  0
 32 33  1  0  0  0  0
 32 34  1  0  0  0  0
 32 35  1  0  0  0  0
 38 39  2  0  0  0  0
 38 40  1  0  0  0  0
 40 41  2  0  0  0  0
 40 46  1  0  0  0  0
 41 42  1  0  0  0  0
 41 49  1  0  0  0  0
 42 43  2  0  0  0  0
 42 48  1  0  0  0  0
 43 44  1  0  0  0  0
 43 45  1  0  0  0  0
 45 46  2  0  0  0  0
 45 47  1  0  0  0  0
M  END
>  <MODEL>
       1

$$$$
