tmp_first_model_11_4.pdb
 OpenBabel08272522543D

 59 64  0  0  1  0  0  0  0  0999 V2000
   -7.7440   -3.5540  -24.1750 C   0  0  0  0  0  0  0  0  0  0  0  0
   -8.1820   -2.9110  -22.8500 C   0  0  1  0  0  0  0  0  0  0  0  0
   -6.9790   -2.6040  -21.9290 C   0  0  0  0  0  0  0  0  0  0  0  0
   -7.3870   -1.4230  -21.1920 N   0  0  0  0  0  0  0  0  0  0  0  0
   -6.6000   -0.8160  -20.1750 C   0  0  0  0  0  0  0  0  0  0  0  0
   -6.9060   -1.0430  -18.8600 C   0  0  0  0  0  0  0  0  0  0  0  0
   -6.2030   -0.5460  -17.8100 N   0  0  0  0  0  0  0  0  0  0  0  0
   -5.1660    0.2080  -18.0820 C   0  0  0  0  0  0  0  0  0  0  0  0
   -4.7310    0.5270  -19.3990 C   0  0  0  0  0  0  0  0  0  0  0  0
   -3.6030    1.3580  -19.6410 C   0  0  0  0  0  0  0  0  0  0  0  0
   -3.2210    1.6580  -20.9190 C   0  0  0  0  0  0  0  0  0  0  0  0
   -3.9500    1.1380  -22.0140 C   0  0  0  0  0  0  0  0  0  0  0  0
   -5.0420    0.3300  -21.8080 C   0  0  0  0  0  0  0  0  0  0  0  0
   -5.4660    0.0030  -20.4890 C   0  0  0  0  0  0  0  0  0  0  0  0
   -5.6000   -0.0610  -22.6550 H   0  0  0  0  0  0  0  0  0  0  0  0
   -3.6440    1.3910  -23.0250 H   0  0  0  0  0  0  0  0  0  0  0  0
   -2.3710    2.3110  -21.0970 H   0  0  0  0  0  0  0  0  0  0  0  0
   -3.0730    1.7690  -18.7850 H   0  0  0  0  0  0  0  0  0  0  0  0
   -4.6170    0.6130  -17.2300 H   0  0  0  0  0  0  0  0  0  0  0  0
   -7.7550   -1.6710  -18.6010 H   0  0  0  0  0  0  0  0  0  0  0  0
   -8.5030   -0.7960  -21.6960 C   0  0  0  0  0  0  0  0  0  0  0  0
   -8.9740    0.2290  -21.2390 O   0  0  0  0  0  0  0  0  0  0  0  0
   -9.0000   -1.5790  -22.9360 C   0  0  1  0  0  0  0  0  0  0  0  0
   -8.6540   -0.7710  -24.2110 C   0  0  0  0  0  0  0  0  0  0  0  0
   -9.4570    0.4250  -24.3020 N   0  0  0  0  0  0  0  0  0  0  0  0
   -8.8030    1.6900  -24.5460 C   0  0  0  0  0  0  0  0  0  0  0  0
   -8.2330    1.8110  -25.9370 C   0  0  0  0  0  0  0  0  0  0  0  0
   -8.9600    1.6680  -27.0220 N   0  0  0  0  0  0  0  0  0  0  0  0
   -8.0990    1.8620  -28.0730 C   0  0  0  0  0  0  0  0  0  0  0  0
   -6.8410    2.1350  -27.6100 C   0  0  0  0  0  0  0  0  0  0  0  0
   -6.9330    2.1140  -26.2340 N   0  0  0  0  0  0  0  0  0  0  0  0
   -5.8440    2.3430  -25.3030 C   0  0  0  0  0  0  0  0  0  0  0  0
   -5.6080    1.4350  -24.7310 H   0  0  0  0  0  0  0  0  0  0  0  0
   -4.9610    2.6340  -25.8780 H   0  0  0  0  0  0  0  0  0  0  0  0
   -6.0940    3.1500  -24.6020 H   0  0  0  0  0  0  0  0  0  0  0  0
   -5.9010    2.3150  -28.1120 H   0  0  0  0  0  0  0  0  0  0  0  0
   -8.4560    1.7670  -29.0920 H   0  0  0  0  0  0  0  0  0  0  0  0
   -8.0420    1.8390  -23.7630 H   0  0  0  0  0  0  0  0  0  0  0  0
   -9.5860    2.4440  -24.4230 H   0  0  0  0  0  0  0  0  0  0  0  0
  -10.8220    0.3430  -24.2790 C   0  0  0  0  0  0  0  0  0  0  0  0
  -11.5440    1.2070  -24.7580 O   0  0  0  0  0  0  0  0  0  0  0  0
  -11.3670   -0.8610  -23.5680 C   0  0  0  0  0  0  0  0  0  0  0  0
  -12.7530   -1.0210  -23.5120 C   0  0  0  0  0  0  0  0  0  0  0  0
  -13.3140   -1.9900  -22.7040 C   0  0  0  0  0  0  0  0  0  0  0  0
  -12.4600   -2.7760  -21.9400 C   0  0  0  0  0  0  0  0  0  0  0  0
  -13.0010   -3.6780  -21.1060 F   0  0  0  0  0  0  0  0  0  0  0  0
  -11.0870   -2.6620  -22.0030 C   0  0  0  0  0  0  0  0  0  0  0  0
  -10.5110   -1.7320  -22.8750 C   0  0  0  0  0  0  0  0  0  0  0  0
  -10.4950   -3.2820  -21.3390 H   0  0  0  0  0  0  0  0  0  0  0  0
  -14.3850   -2.1340  -22.6170 H   0  0  0  0  0  0  0  0  0  0  0  0
  -13.3700   -0.3390  -24.0860 H   0  0  0  0  0  0  0  0  0  0  0  0
   -8.8140   -1.3930  -25.1070 H   0  0  0  0  0  0  0  0  0  0  0  0
   -7.6080   -0.4590  -24.1800 H   0  0  0  0  0  0  0  0  0  0  0  0
   -6.0640   -2.4180  -22.5140 H   0  0  0  0  0  0  0  0  0  0  0  0
   -6.7570   -3.4270  -21.2370 H   0  0  0  0  0  0  0  0  0  0  0  0
   -8.8250   -3.6260  -22.3310 H   0  0  0  0  0  0  0  0  0  0  0  0
   -7.2370   -4.5100  -23.9940 H   0  0  0  0  0  0  0  0  0  0  0  0
   -7.0400   -2.9110  -24.7190 H   0  0  0  0  0  0  0  0  0  0  0  0
   -8.5940   -3.7500  -24.8390 H   0  0  0  0  0  0  0  0  0  0  0  0
  1  2  1  0  0  0  0
  1 57  1  0  0  0  0
  1 58  1  0  0  0  0
  1 59  1  0  0  0  0
  2  3  1  0  0  0  0
  2 23  1  0  0  0  0
  2 56  1  1  0  0  0
  3  4  1  0  0  0  0
  3 54  1  0  0  0  0
  3 55  1  0  0  0  0
  4  5  1  0  0  0  0
  4 21  1  0  0  0  0
  5  6  2  0  0  0  0
  5 14  1  0  0  0  0
  6  7  1  0  0  0  0
  6 20  1  0  0  0  0
  7  8  2  0  0  0  0
  8  9  1  0  0  0  0
  8 19  1  0  0  0  0
  9 10  2  0  0  0  0
  9 14  1  0  0  0  0
 10 11  1  0  0  0  0
 10 18  1  0  0  0  0
 11 12  2  0  0  0  0
 11 17  1  0  0  0  0
 12 13  1  0  0  0  0
 12 16  1  0  0  0  0
 13 14  2  0  0  0  0
 13 15  1  0  0  0  0
 21 22  2  0  0  0  0
 23 21  1  1  0  0  0
 23 24  1  0  0  0  0
 23 48  1  0  0  0  0
 24 25  1  0  0  0  0
 24 52  1  0  0  0  0
 24 53  1  0  0  0  0
 25 26  1  0  0  0  0
 25 40  1  0  0  0  0
 26 27  1  0  0  0  0
 26 38  1  0  0  0  0
 26 39  1  0  0  0  0
 27 28  2  0  0  0  0
 27 31  1  0  0  0  0
 28 29  1  0  0  0  0
 29 30  2  0  0  0  0
 29 37  1  0  0  0  0
 30 31  1  0  0  0  0
 30 36  1  0  0  0  0
 31 32  1  0  0  0  0
 32 33  1  0  0  0  0
 32 34  1  0  0  0  0
 32 35  1  0  0  0  0
 40 41  2  0  0  0  0
 40 42  1  0  0  0  0
 42 43  2  0  0  0  0
 42 48  1  0  0  0  0
 43 44  1  0  0  0  0
 43 51  1  0  0  0  0
 44 45  2  0  0  0  0
 44 50  1  0  0  0  0
 45 46  1  0  0  0  0
 45 47  1  0  0  0  0
 47 48  2  0  0  0  0
 47 49  1  0  0  0  0
M  END
>  <MODEL>
       1

$$$$
