tmp_first_model_1_9.pdb
 OpenBabel08272517043D

 41 43  0  0  1  0  0  0  0  0999 V2000
  -10.1660   -5.9870  -24.5250 C   0  0  0  0  0  0  0  0  0  0  0  0
   -9.1460   -4.8570  -24.4060 C   0  0  1  0  0  0  0  0  0  0  0  0
   -9.8260   -3.5720  -23.9800 C   0  0  0  0  0  0  0  0  0  0  0  0
   -9.2210   -2.3900  -23.8920 C   0  0  0  0  0  0  0  0  0  0  0  0
   -7.7440   -2.2180  -24.1390 C   0  0  0  0  0  0  0  0  0  0  0  0
   -6.8960   -3.0080  -23.2540 N   0  0  0  0  0  0  0  0  0  0  0  0
   -6.6760   -2.6770  -21.9270 C   0  0  0  0  0  0  0  0  0  0  0  0
   -5.9370   -3.3550  -21.2360 O   0  0  0  0  0  0  0  0  0  0  0  0
   -7.3910   -1.4590  -21.2870 C   0  0  0  0  0  0  0  0  0  0  0  0
   -6.5740   -0.8290  -20.1820 C   0  0  0  0  0  0  0  0  0  0  0  0
   -6.8710   -1.0480  -18.8630 C   0  0  0  0  0  0  0  0  0  0  0  0
   -6.1840   -0.5480  -17.7990 N   0  0  0  0  0  0  0  0  0  0  0  0
   -5.1580    0.2210  -18.0640 C   0  0  0  0  0  0  0  0  0  0  0  0
   -4.7210    0.5350  -19.3780 C   0  0  0  0  0  0  0  0  0  0  0  0
   -3.5930    1.3600  -19.6210 C   0  0  0  0  0  0  0  0  0  0  0  0
   -3.1940    1.6370  -20.9000 C   0  0  0  0  0  0  0  0  0  0  0  0
   -3.9080    1.0960  -21.9930 C   0  0  0  0  0  0  0  0  0  0  0  0
   -5.0030    0.2960  -21.7860 C   0  0  0  0  0  0  0  0  0  0  0  0
   -5.4440   -0.0060  -20.4720 C   0  0  0  0  0  0  0  0  0  0  0  0
   -5.5360   -0.1110  -22.6400 H   0  0  0  0  0  0  0  0  0  0  0  0
   -3.5860    1.3210  -23.0050 H   0  0  0  0  0  0  0  0  0  0  0  0
   -2.3340    2.2750  -21.0900 H   0  0  0  0  0  0  0  0  0  0  0  0
   -3.0550    1.7740  -18.7710 H   0  0  0  0  0  0  0  0  0  0  0  0
   -4.6030    0.6290  -17.2150 H   0  0  0  0  0  0  0  0  0  0  0  0
   -7.7220   -1.6710  -18.5890 H   0  0  0  0  0  0  0  0  0  0  0  0
   -8.3290   -1.8330  -20.8490 H   0  0  0  0  0  0  0  0  0  0  0  0
   -7.6830   -0.7020  -22.0220 H   0  0  0  0  0  0  0  0  0  0  0  0
   -6.7210   -4.4140  -23.6290 C   0  0  0  0  0  0  0  0  0  0  0  0
   -7.9840   -5.2680  -23.4770 C   0  0  0  0  0  0  0  0  0  0  0  0
   -8.3200   -5.2200  -22.4360 H   0  0  0  0  0  0  0  0  0  0  0  0
   -7.7270   -6.3220  -23.6680 H   0  0  0  0  0  0  0  0  0  0  0  0
   -6.4110   -4.4410  -24.6790 H   0  0  0  0  0  0  0  0  0  0  0  0
   -5.9040   -4.8220  -23.0330 H   0  0  0  0  0  0  0  0  0  0  0  0
   -7.4480   -1.1680  -24.0910 H   0  0  0  0  0  0  0  0  0  0  0  0
   -7.5070   -2.5380  -25.1600 H   0  0  0  0  0  0  0  0  0  0  0  0
   -9.7910   -1.5050  -23.6030 H   0  0  0  0  0  0  0  0  0  0  0  0
  -10.8810   -3.6360  -23.7140 H   0  0  0  0  0  0  0  0  0  0  0  0
   -8.7160   -4.6990  -25.4050 H   0  0  0  0  0  0  0  0  0  0  0  0
  -10.5960   -6.2030  -23.5440 H   0  0  0  0  0  0  0  0  0  0  0  0
   -9.7110   -6.9100  -24.9060 H   0  0  0  0  0  0  0  0  0  0  0  0
  -10.9880   -5.7130  -25.1970 H   0  0  0  0  0  0  0  0  0  0  0  0
  1  2  1  0  0  0  0
  1 39  1  0  0  0  0
  1 40  1  0  0  0  0
  1 41  1  0  0  0  0
  2  3  1  0  0  0  0
  2 29  1  0  0  0  0
  2 38  1  6  0  0  0
  3  4  2  0  0  0  0
  3 37  1  0  0  0  0
  4  5  1  0  0  0  0
  4 36  1  0  0  0  0
  5  6  1  0  0  0  0
  5 34  1  0  0  0  0
  5 35  1  0  0  0  0
  6  7  1  0  0  0  0
  6 28  1  0  0  0  0
  7  8  2  0  0  0  0
  7  9  1  0  0  0  0
  9 10  1  0  0  0  0
  9 26  1  0  0  0  0
  9 27  1  0  0  0  0
 10 11  2  0  0  0  0
 10 19  1  0  0  0  0
 11 12  1  0  0  0  0
 11 25  1  0  0  0  0
 12 13  2  0  0  0  0
 13 14  1  0  0  0  0
 13 24  1  0  0  0  0
 14 15  2  0  0  0  0
 14 19  1  0  0  0  0
 15 16  1  0  0  0  0
 15 23  1  0  0  0  0
 16 17  2  0  0  0  0
 16 22  1  0  0  0  0
 17 18  1  0  0  0  0
 17 21  1  0  0  0  0
 18 19  2  0  0  0  0
 18 20  1  0  0  0  0
 28 29  1  0  0  0  0
 28 32  1  0  0  0  0
 28 33  1  0  0  0  0
 29 30  1  0  0  0  0
 29 31  1  0  0  0  0
M  END
>  <MODEL>
       1

$$$$
