tmp_first_model_3_44.pdb
 OpenBabel08272518143D

 60 64  0  0  1  0  0  0  0  0999 V2000
   -8.1160    0.0340  -29.7890 C   0  0  0  0  0  0  0  0  0  0  0  0
   -8.1880   -1.1130  -28.9080 N   0  0  0  0  0  0  0  0  0  0  0  0
   -7.4290   -1.1070  -27.7770 C   0  0  0  0  0  0  0  0  0  0  0  0
   -6.6450   -0.2100  -27.5060 O   0  0  0  0  0  0  0  0  0  0  0  0
   -7.6400   -2.3210  -26.8600 C   0  0  0  0  0  0  0  0  0  0  0  0
   -8.4750   -1.9630  -25.7230 N   0  0  0  0  0  0  0  0  0  0  0  0
   -7.8800   -1.3060  -24.5540 C   0  0  0  0  0  0  0  0  0  0  0  0
   -8.6990   -1.5620  -23.2540 C   0  0  2  0  0  0  0  0  0  0  0  0
   -8.1280   -0.6380  -22.1630 C   0  0  0  0  0  0  0  0  0  0  0  0
   -8.2420    0.5700  -22.1160 O   0  0  0  0  0  0  0  0  0  0  0  0
   -7.4240   -1.3890  -21.2360 N   0  0  0  0  0  0  0  0  0  0  0  0
   -6.6220   -0.8130  -20.2150 C   0  0  0  0  0  0  0  0  0  0  0  0
   -6.9170   -1.0650  -18.8970 C   0  0  0  0  0  0  0  0  0  0  0  0
   -6.2390   -0.5590  -17.8380 N   0  0  0  0  0  0  0  0  0  0  0  0
   -5.2060    0.2070  -18.0990 C   0  0  0  0  0  0  0  0  0  0  0  0
   -4.7600    0.5150  -19.4130 C   0  0  0  0  0  0  0  0  0  0  0  0
   -3.6230    1.3390  -19.6270 C   0  0  0  0  0  0  0  0  0  0  0  0
   -3.1960    1.6090  -20.8970 C   0  0  0  0  0  0  0  0  0  0  0  0
   -3.8820    1.0650  -22.0050 C   0  0  0  0  0  0  0  0  0  0  0  0
   -4.9840    0.2720  -21.8220 C   0  0  0  0  0  0  0  0  0  0  0  0
   -5.4690   -0.0130  -20.5140 C   0  0  0  0  0  0  0  0  0  0  0  0
   -5.5060   -0.1280  -22.6850 H   0  0  0  0  0  0  0  0  0  0  0  0
   -3.5330    1.2840  -23.0090 H   0  0  0  0  0  0  0  0  0  0  0  0
   -2.3300    2.2420  -21.0600 H   0  0  0  0  0  0  0  0  0  0  0  0
   -3.1130    1.7530  -18.7610 H   0  0  0  0  0  0  0  0  0  0  0  0
   -4.6560    0.6140  -17.2510 H   0  0  0  0  0  0  0  0  0  0  0  0
   -7.7670   -1.6960  -18.6490 H   0  0  0  0  0  0  0  0  0  0  0  0
   -7.3880   -2.8120  -21.5350 C   0  0  0  0  0  0  0  0  0  0  0  0
   -8.5210   -2.9630  -22.5570 C   0  0  2  0  0  0  0  0  0  0  0  0
   -8.3920   -4.1740  -23.4620 C   0  0  0  0  0  0  0  0  0  0  0  0
   -7.1340   -4.1580  -24.1020 O   0  0  0  0  0  0  0  0  0  0  0  0
   -6.9570   -5.2670  -24.9430 C   0  0  0  0  0  0  0  0  0  0  0  0
   -6.9940   -6.2100  -24.3770 H   0  0  0  0  0  0  0  0  0  0  0  0
   -5.9730   -5.1830  -25.4110 H   0  0  0  0  0  0  0  0  0  0  0  0
   -7.7290   -5.3030  -25.7280 H   0  0  0  0  0  0  0  0  0  0  0  0
   -8.5020   -5.0980  -22.8670 H   0  0  0  0  0  0  0  0  0  0  0  0
   -9.2020   -4.1570  -24.2050 H   0  0  0  0  0  0  0  0  0  0  0  0
   -9.4440   -3.1060  -21.9760 H   0  0  0  0  0  0  0  0  0  0  0  0
   -7.5660   -3.3990  -20.6250 H   0  0  0  0  0  0  0  0  0  0  0  0
   -6.4140   -3.1210  -21.9410 H   0  0  0  0  0  0  0  0  0  0  0  0
  -10.1610   -1.2730  -23.5860 C   0  0  0  0  0  0  0  0  0  0  0  0
  -11.0960   -1.0430  -22.5760 C   0  0  0  0  0  0  0  0  0  0  0  0
  -12.4490   -0.9600  -22.8810 C   0  0  0  0  0  0  0  0  0  0  0  0
  -13.6420   -1.1160  -21.6320 Cl  0  0  0  0  0  0  0  0  0  0  0  0
  -12.9050   -0.9050  -24.1930 C   0  0  0  0  0  0  0  0  0  0  0  0
  -11.9870   -1.1130  -25.1920 C   0  0  0  0  0  0  0  0  0  0  0  0
  -10.6530   -1.3590  -24.8900 C   0  0  0  0  0  0  0  0  0  0  0  0
   -9.7990   -1.8280  -26.0020 C   0  0  0  0  0  0  0  0  0  0  0  0
  -10.2660   -2.0990  -27.1140 O   0  0  0  0  0  0  0  0  0  0  0  0
  -12.2980   -1.1990  -26.2220 H   0  0  0  0  0  0  0  0  0  0  0  0
  -13.9550   -0.7490  -24.4120 H   0  0  0  0  0  0  0  0  0  0  0  0
  -10.7600   -0.9320  -21.5570 H   0  0  0  0  0  0  0  0  0  0  0  0
   -6.8590   -1.6820  -24.4480 H   0  0  0  0  0  0  0  0  0  0  0  0
   -7.8360   -0.2120  -24.7050 H   0  0  0  0  0  0  0  0  0  0  0  0
   -6.6840   -2.7050  -26.4920 H   0  0  0  0  0  0  0  0  0  0  0  0
   -8.1360   -3.1250  -27.4140 H   0  0  0  0  0  0  0  0  0  0  0  0
   -9.0350   -1.6680  -28.9020 H   0  0  0  0  0  0  0  0  0  0  0  0
   -8.3820    0.9660  -29.2730 H   0  0  0  0  0  0  0  0  0  0  0  0
   -8.7980   -0.1150  -30.6290 H   0  0  0  0  0  0  0  0  0  0  0  0
   -7.0960    0.1280  -30.1740 H   0  0  0  0  0  0  0  0  0  0  0  0
  1  2  1  0  0  0  0
  1 58  1  0  0  0  0
  1 59  1  0  0  0  0
  1 60  1  0  0  0  0
  2  3  1  0  0  0  0
  2 57  1  0  0  0  0
  3  4  2  0  0  0  0
  3  5  1  0  0  0  0
  5  6  1  0  0  0  0
  5 55  1  0  0  0  0
  5 56  1  0  0  0  0
  6  7  1  0  0  0  0
  6 48  1  0  0  0  0
  7  8  1  0  0  0  0
  7 53  1  0  0  0  0
  7 54  1  0  0  0  0
  8  9  1  1  0  0  0
  8 29  1  0  0  0  0
  8 41  1  0  0  0  0
  9 10  2  0  0  0  0
  9 11  1  0  0  0  0
 11 12  1  0  0  0  0
 11 28  1  0  0  0  0
 12 13  2  0  0  0  0
 12 21  1  0  0  0  0
 13 14  1  0  0  0  0
 13 27  1  0  0  0  0
 14 15  2  0  0  0  0
 15 16  1  0  0  0  0
 15 26  1  0  0  0  0
 16 17  2  0  0  0  0
 16 21  1  0  0  0  0
 17 18  1  0  0  0  0
 17 25  1  0  0  0  0
 18 19  2  0  0  0  0
 18 24  1  0  0  0  0
 19 20  1  0  0  0  0
 19 23  1  0  0  0  0
 20 21  2  0  0  0  0
 20 22  1  0  0  0  0
 28 29  1  0  0  0  0
 28 39  1  0  0  0  0
 28 40  1  0  0  0  0
 29 30  1  0  0  0  0
 29 38  1  1  0  0  0
 30 31  1  0  0  0  0
 30 36  1  0  0  0  0
 30 37  1  0  0  0  0
 31 32  1  0  0  0  0
 32 33  1  0  0  0  0
 32 34  1  0  0  0  0
 32 35  1  0  0  0  0
 41 42  2  0  0  0  0
 41 47  1  0  0  0  0
 42 43  1  0  0  0  0
 42 52  1  0  0  0  0
 43 44  1  0  0  0  0
 43 45  2  0  0  0  0
 45 46  1  0  0  0  0
 45 51  1  0  0  0  0
 46 47  2  0  0  0  0
 46 50  1  0  0  0  0
 47 48  1  0  0  0  0
 48 49  2  0  0  0  0
M  END
>  <MODEL>
       1

$$$$
