tmp_first_model_6_16.pdb
 OpenBabel08272519583D

 61 66  0  0  1  0  0  0  0  0999 V2000
   -6.8600    3.4080  -23.2570 C   0  0  0  0  0  0  0  0  0  0  0  0
   -7.5690    2.6160  -24.2370 N   0  0  0  0  0  0  0  0  0  0  0  0
   -6.9580    1.5830  -24.8470 C   0  0  0  0  0  0  0  0  0  0  0  0
   -5.7640    1.3290  -24.7240 O   0  0  0  0  0  0  0  0  0  0  0  0
   -7.8960    0.7200  -25.7040 C   0  0  0  0  0  0  0  0  0  0  0  0
   -8.8820    0.0370  -24.8710 N   0  0  0  0  0  0  0  0  0  0  0  0
   -8.5600   -1.2830  -24.3400 C   0  0  0  0  0  0  0  0  0  0  0  0
   -9.0970   -1.4680  -22.8880 C   0  0  2  0  0  0  0  0  0  0  0  0
   -8.3140   -0.5230  -21.9400 C   0  0  0  0  0  0  0  0  0  0  0  0
   -8.4250    0.6830  -21.8280 O   0  0  0  0  0  0  0  0  0  0  0  0
   -7.4470   -1.2870  -21.1990 N   0  0  0  0  0  0  0  0  0  0  0  0
   -6.6360   -0.7490  -20.1800 C   0  0  0  0  0  0  0  0  0  0  0  0
   -6.9090   -1.0610  -18.8740 C   0  0  0  0  0  0  0  0  0  0  0  0
   -6.2160   -0.5900  -17.8130 N   0  0  0  0  0  0  0  0  0  0  0  0
   -5.1970    0.1960  -18.0690 C   0  0  0  0  0  0  0  0  0  0  0  0
   -4.7800    0.5610  -19.3800 C   0  0  0  0  0  0  0  0  0  0  0  0
   -3.6450    1.3850  -19.5990 C   0  0  0  0  0  0  0  0  0  0  0  0
   -3.2640    1.7190  -20.8700 C   0  0  0  0  0  0  0  0  0  0  0  0
   -4.0030    1.2530  -21.9790 C   0  0  0  0  0  0  0  0  0  0  0  0
   -5.0940    0.4400  -21.7960 C   0  0  0  0  0  0  0  0  0  0  0  0
   -5.5190    0.0820  -20.4850 C   0  0  0  0  0  0  0  0  0  0  0  0
   -5.6250    0.0740  -22.6700 H   0  0  0  0  0  0  0  0  0  0  0  0
   -3.7130    1.5250  -22.9900 H   0  0  0  0  0  0  0  0  0  0  0  0
   -2.3900    2.3410  -21.0340 H   0  0  0  0  0  0  0  0  0  0  0  0
   -3.0960    1.7410  -18.7330 H   0  0  0  0  0  0  0  0  0  0  0  0
   -4.6380    0.5810  -17.2160 H   0  0  0  0  0  0  0  0  0  0  0  0
   -7.7500   -1.7160  -18.6460 H   0  0  0  0  0  0  0  0  0  0  0  0
   -7.4450   -2.6870  -21.5350 C   0  0  0  0  0  0  0  0  0  0  0  0
   -8.7420   -2.8720  -22.3230 C   0  0  2  0  0  0  0  0  0  0  0  0
   -8.6190   -4.0000  -23.3560 C   0  0  0  0  0  0  0  0  0  0  0  0
   -8.3720   -5.2890  -22.7310 N   0  0  0  0  0  0  0  0  0  0  0  0
   -7.1630   -5.7660  -22.4800 N   0  0  0  0  0  0  0  0  0  0  0  0
   -7.4570   -6.9220  -21.9030 C   0  0  0  0  0  0  0  0  0  0  0  0
   -8.7830   -7.1240  -21.8020 N   0  0  0  0  0  0  0  0  0  0  0  0
   -9.3460   -6.0740  -22.3330 N   0  0  0  0  0  0  0  0  0  0  0  0
   -6.7260   -7.6390  -21.5600 H   0  0  0  0  0  0  0  0  0  0  0  0
   -9.5290   -4.0890  -23.9570 H   0  0  0  0  0  0  0  0  0  0  0  0
   -7.7680   -3.8180  -24.0130 H   0  0  0  0  0  0  0  0  0  0  0  0
   -9.5170   -3.1700  -21.6150 H   0  0  0  0  0  0  0  0  0  0  0  0
   -7.4270   -3.2860  -20.6290 H   0  0  0  0  0  0  0  0  0  0  0  0
   -6.5650   -2.9660  -22.1310 H   0  0  0  0  0  0  0  0  0  0  0  0
  -10.5750   -1.1240  -22.9040 C   0  0  0  0  0  0  0  0  0  0  0  0
  -11.5140   -1.7340  -22.0710 C   0  0  0  0  0  0  0  0  0  0  0  0
  -12.8500   -1.4030  -22.1810 C   0  0  0  0  0  0  0  0  0  0  0  0
  -14.0180   -2.2470  -21.2090 Cl  0  0  0  0  0  0  0  0  0  0  0  0
  -13.2990   -0.4210  -23.0590 C   0  0  0  0  0  0  0  0  0  0  0  0
  -12.3690    0.2520  -23.8210 C   0  0  0  0  0  0  0  0  0  0  0  0
  -11.0230   -0.0950  -23.7400 C   0  0  0  0  0  0  0  0  0  0  0  0
  -10.0290    0.6890  -24.5310 C   0  0  0  0  0  0  0  0  0  0  0  0
  -10.2490    1.8530  -24.8640 O   0  0  0  0  0  0  0  0  0  0  0  0
  -12.6710    1.0360  -24.5060 H   0  0  0  0  0  0  0  0  0  0  0  0
  -14.3580   -0.2120  -23.1460 H   0  0  0  0  0  0  0  0  0  0  0  0
  -11.2130   -2.4690  -21.3390 H   0  0  0  0  0  0  0  0  0  0  0  0
   -9.0040   -2.0510  -24.9870 H   0  0  0  0  0  0  0  0  0  0  0  0
   -7.4700   -1.4170  -24.3480 H   0  0  0  0  0  0  0  0  0  0  0  0
   -7.3070   -0.0120  -26.2610 H   0  0  0  0  0  0  0  0  0  0  0  0
   -8.4100    1.3310  -26.4510 H   0  0  0  0  0  0  0  0  0  0  0  0
   -8.5780    2.6970  -24.3330 H   0  0  0  0  0  0  0  0  0  0  0  0
   -7.5490    4.1440  -22.8370 H   0  0  0  0  0  0  0  0  0  0  0  0
   -6.4790    2.7710  -22.4430 H   0  0  0  0  0  0  0  0  0  0  0  0
   -6.0200    3.9220  -23.7370 H   0  0  0  0  0  0  0  0  0  0  0  0
  1  2  1  0  0  0  0
  1 59  1  0  0  0  0
  1 60  1  0  0  0  0
  1 61  1  0  0  0  0
  2  3  1  0  0  0  0
  2 58  1  0  0  0  0
  3  4  2  0  0  0  0
  3  5  1  0  0  0  0
  5  6  1  0  0  0  0
  5 56  1  0  0  0  0
  5 57  1  0  0  0  0
  6  7  1  0  0  0  0
  6 49  1  0  0  0  0
  7  8  1  0  0  0  0
  7 54  1  0  0  0  0
  7 55  1  0  0  0  0
  8  9  1  1  0  0  0
  8 29  1  0  0  0  0
  8 42  1  0  0  0  0
  9 10  2  0  0  0  0
  9 11  1  0  0  0  0
 11 12  1  0  0  0  0
 11 28  1  0  0  0  0
 12 13  2  0  0  0  0
 12 21  1  0  0  0  0
 13 14  1  0  0  0  0
 13 27  1  0  0  0  0
 14 15  2  0  0  0  0
 15 16  1  0  0  0  0
 15 26  1  0  0  0  0
 16 17  2  0  0  0  0
 16 21  1  0  0  0  0
 17 18  1  0  0  0  0
 17 25  1  0  0  0  0
 18 19  2  0  0  0  0
 18 24  1  0  0  0  0
 19 20  1  0  0  0  0
 19 23  1  0  0  0  0
 20 21  2  0  0  0  0
 20 22  1  0  0  0  0
 28 29  1  0  0  0  0
 28 40  1  0  0  0  0
 28 41  1  0  0  0  0
 29 30  1  0  0  0  0
 29 39  1  1  0  0  0
 30 31  1  0  0  0  0
 30 37  1  0  0  0  0
 30 38  1  0  0  0  0
 31 32  1  0  0  0  0
 31 35  1  0  0  0  0
 32 33  2  0  0  0  0
 33 34  1  0  0  0  0
 33 36  1  0  0  0  0
 34 35  2  0  0  0  0
 42 43  2  0  0  0  0
 42 48  1  0  0  0  0
 43 44  1  0  0  0  0
 43 53  1  0  0  0  0
 44 45  1  0  0  0  0
 44 46  2  0  0  0  0
 46 47  1  0  0  0  0
 46 52  1  0  0  0  0
 47 48  2  0  0  0  0
 47 51  1  0  0  0  0
 48 49  1  0  0  0  0
 49 50  2  0  0  0  0
M  END
>  <MODEL>
       1

$$$$
