tmp_first_model_6_15.pdb
 OpenBabel08272519583D

 63 68  0  0  1  0  0  0  0  0999 V2000
   -7.0590    3.4000  -22.4480 C   0  0  0  0  0  0  0  0  0  0  0  0
   -8.0990    2.6440  -23.1070 N   0  0  0  0  0  0  0  0  0  0  0  0
   -7.8740    1.9540  -24.2500 C   0  0  0  0  0  0  0  0  0  0  0  0
   -6.7640    1.7610  -24.7290 O   0  0  0  0  0  0  0  0  0  0  0  0
   -9.1370    1.4800  -24.9500 C   0  0  0  0  0  0  0  0  0  0  0  0
   -9.7320    0.3090  -24.3370 N   0  0  0  0  0  0  0  0  0  0  0  0
   -8.9380   -0.8940  -24.1610 C   0  0  0  0  0  0  0  0  0  0  0  0
   -9.2720   -1.5980  -22.8170 C   0  0  2  0  0  0  0  0  0  0  0  0
   -8.7370   -0.7120  -21.6450 C   0  0  0  0  0  0  0  0  0  0  0  0
   -9.2590    0.2750  -21.1800 O   0  0  0  0  0  0  0  0  0  0  0  0
   -7.5350   -1.2430  -21.2260 N   0  0  0  0  0  0  0  0  0  0  0  0
   -6.7600   -0.6830  -20.1750 C   0  0  0  0  0  0  0  0  0  0  0  0
   -7.0260   -1.0220  -18.8730 C   0  0  0  0  0  0  0  0  0  0  0  0
   -6.2890   -0.6190  -17.8090 N   0  0  0  0  0  0  0  0  0  0  0  0
   -5.2500    0.1480  -18.0390 C   0  0  0  0  0  0  0  0  0  0  0  0
   -4.8540    0.5730  -19.3400 C   0  0  0  0  0  0  0  0  0  0  0  0
   -3.7150    1.3980  -19.5570 C   0  0  0  0  0  0  0  0  0  0  0  0
   -3.3810    1.8030  -20.8200 C   0  0  0  0  0  0  0  0  0  0  0  0
   -4.1740    1.4170  -21.9240 C   0  0  0  0  0  0  0  0  0  0  0  0
   -5.2840    0.6230  -21.7440 C   0  0  0  0  0  0  0  0  0  0  0  0
   -5.6420    0.1660  -20.4460 C   0  0  0  0  0  0  0  0  0  0  0  0
   -5.9180    0.3940  -22.5980 H   0  0  0  0  0  0  0  0  0  0  0  0
   -3.9240    1.7600  -22.9230 H   0  0  0  0  0  0  0  0  0  0  0  0
   -2.5110    2.4350  -20.9800 H   0  0  0  0  0  0  0  0  0  0  0  0
   -3.1210    1.7010  -18.6980 H   0  0  0  0  0  0  0  0  0  0  0  0
   -4.6630    0.4740  -17.1750 H   0  0  0  0  0  0  0  0  0  0  0  0
   -7.8730   -1.6660  -18.6480 H   0  0  0  0  0  0  0  0  0  0  0  0
   -7.0950   -2.3680  -22.0240 C   0  0  0  0  0  0  0  0  0  0  0  0
   -8.4110   -2.8900  -22.6230 C   0  0  2  0  0  0  0  0  0  0  0  0
   -8.1950   -3.7560  -23.8770 C   0  0  0  0  0  0  0  0  0  0  0  0
   -7.4580   -4.9800  -23.6160 N   0  0  0  0  0  0  0  0  0  0  0  0
   -6.1220   -5.1690  -23.7200 C   0  0  0  0  0  0  0  0  0  0  0  0
   -5.8740   -6.4840  -23.3970 C   0  0  0  0  0  0  0  0  0  0  0  0
   -7.1500   -7.0060  -23.1010 C   0  0  0  0  0  0  0  0  0  0  0  0
   -8.0990   -6.0890  -23.2310 N   0  0  0  0  0  0  0  0  0  0  0  0
   -7.4240   -8.0100  -22.7920 H   0  0  0  0  0  0  0  0  0  0  0  0
   -4.9200   -6.9960  -23.3900 H   0  0  0  0  0  0  0  0  0  0  0  0
   -5.4660   -4.3560  -24.0040 H   0  0  0  0  0  0  0  0  0  0  0  0
   -7.6200   -3.1940  -24.6210 H   0  0  0  0  0  0  0  0  0  0  0  0
   -9.1550   -4.0540  -24.3110 H   0  0  0  0  0  0  0  0  0  0  0  0
   -8.8870   -3.5130  -21.8610 H   0  0  0  0  0  0  0  0  0  0  0  0
   -6.5770   -3.1050  -21.4070 H   0  0  0  0  0  0  0  0  0  0  0  0
   -6.3990   -2.0470  -22.8180 H   0  0  0  0  0  0  0  0  0  0  0  0
  -10.7930   -1.7420  -22.7380 C   0  0  0  0  0  0  0  0  0  0  0  0
  -11.4040   -2.6330  -21.8420 C   0  0  0  0  0  0  0  0  0  0  0  0
  -12.7650   -2.5440  -21.5940 C   0  0  0  0  0  0  0  0  0  0  0  0
  -13.5210   -3.3810  -20.2780 Cl  0  0  0  0  0  0  0  0  0  0  0  0
  -13.5930   -1.6860  -22.3090 C   0  0  0  0  0  0  0  0  0  0  0  0
  -13.0270   -0.8510  -23.2420 C   0  0  0  0  0  0  0  0  0  0  0  0
  -11.6400   -0.8380  -23.4060 C   0  0  0  0  0  0  0  0  0  0  0  0
  -11.0930    0.2750  -24.2350 C   0  0  0  0  0  0  0  0  0  0  0  0
  -11.8260    1.1100  -24.7480 O   0  0  0  0  0  0  0  0  0  0  0  0
  -13.6280   -0.1460  -23.8100 H   0  0  0  0  0  0  0  0  0  0  0  0
  -14.6500   -1.6790  -22.0770 H   0  0  0  0  0  0  0  0  0  0  0  0
  -10.8300   -3.3930  -21.3280 H   0  0  0  0  0  0  0  0  0  0  0  0
   -7.8870   -0.5900  -24.1930 H   0  0  0  0  0  0  0  0  0  0  0  0
   -9.1180   -1.5970  -24.9870 H   0  0  0  0  0  0  0  0  0  0  0  0
   -9.9040    2.2600  -24.8960 H   0  0  0  0  0  0  0  0  0  0  0  0
   -8.8630    1.3100  -25.9950 H   0  0  0  0  0  0  0  0  0  0  0  0
   -9.0090    2.5580  -22.6770 H   0  0  0  0  0  0  0  0  0  0  0  0
   -7.4190    4.3880  -22.1490 H   0  0  0  0  0  0  0  0  0  0  0  0
   -6.2250    3.5260  -23.1400 H   0  0  0  0  0  0  0  0  0  0  0  0
   -6.6870    2.8600  -21.5770 H   0  0  0  0  0  0  0  0  0  0  0  0
  1  2  1  0  0  0  0
  1 61  1  0  0  0  0
  1 62  1  0  0  0  0
  1 63  1  0  0  0  0
  2  3  1  0  0  0  0
  2 60  1  0  0  0  0
  3  4  2  0  0  0  0
  3  5  1  0  0  0  0
  5  6  1  0  0  0  0
  5 58  1  0  0  0  0
  5 59  1  0  0  0  0
  6  7  1  0  0  0  0
  6 51  1  0  0  0  0
  7  8  1  0  0  0  0
  7 56  1  0  0  0  0
  7 57  1  0  0  0  0
  8  9  1  1  0  0  0
  8 29  1  0  0  0  0
  8 44  1  0  0  0  0
  9 10  2  0  0  0  0
  9 11  1  0  0  0  0
 11 12  1  0  0  0  0
 11 28  1  0  0  0  0
 12 13  2  0  0  0  0
 12 21  1  0  0  0  0
 13 14  1  0  0  0  0
 13 27  1  0  0  0  0
 14 15  2  0  0  0  0
 15 16  1  0  0  0  0
 15 26  1  0  0  0  0
 16 17  2  0  0  0  0
 16 21  1  0  0  0  0
 17 18  1  0  0  0  0
 17 25  1  0  0  0  0
 18 19  2  0  0  0  0
 18 24  1  0  0  0  0
 19 20  1  0  0  0  0
 19 23  1  0  0  0  0
 20 21  2  0  0  0  0
 20 22  1  0  0  0  0
 28 29  1  0  0  0  0
 28 42  1  0  0  0  0
 28 43  1  0  0  0  0
 29 30  1  0  0  0  0
 29 41  1  1  0  0  0
 30 31  1  0  0  0  0
 30 39  1  0  0  0  0
 30 40  1  0  0  0  0
 31 32  1  0  0  0  0
 31 35  1  0  0  0  0
 32 33  2  0  0  0  0
 32 38  1  0  0  0  0
 33 34  1  0  0  0  0
 33 37  1  0  0  0  0
 34 35  2  0  0  0  0
 34 36  1  0  0  0  0
 44 45  2  0  0  0  0
 44 50  1  0  0  0  0
 45 46  1  0  0  0  0
 45 55  1  0  0  0  0
 46 47  1  0  0  0  0
 46 48  2  0  0  0  0
 48 49  1  0  0  0  0
 48 54  1  0  0  0  0
 49 50  2  0  0  0  0
 49 53  1  0  0  0  0
 50 51  1  0  0  0  0
 51 52  2  0  0  0  0
M  END
>  <MODEL>
       1

$$$$
