tmp_first_model_20_45.pdb
 OpenBabel08282503553D

 66 71  0  0  1  0  0  0  0  0999 V2000
   -7.6990    3.1460  -22.4760 C   0  0  0  0  0  0  0  0  0  0  0  0
   -8.5810    2.6550  -23.5110 N   0  0  0  0  0  0  0  0  0  0  0  0
   -8.0310    2.0010  -24.5580 C   0  0  0  0  0  0  0  0  0  0  0  0
   -6.8260    1.9520  -24.7570 O   0  0  0  0  0  0  0  0  0  0  0  0
   -9.0350    1.2520  -25.4380 C   0  0  0  0  0  0  0  0  0  0  0  0
   -9.6630    0.1880  -24.6670 N   0  0  0  0  0  0  0  0  0  0  0  0
   -8.7800   -0.8890  -24.2660 C   0  0  0  0  0  0  0  0  0  0  0  0
   -9.1600   -1.5890  -22.9230 C   0  0  2  0  0  0  0  0  0  0  0  0
   -8.6540   -0.7440  -21.7200 C   0  0  0  0  0  0  0  0  0  0  0  0
   -9.1900    0.2510  -21.2710 O   0  0  0  0  0  0  0  0  0  0  0  0
   -7.4860   -1.3000  -21.2420 N   0  0  0  0  0  0  0  0  0  0  0  0
   -6.7100   -0.7260  -20.1960 C   0  0  0  0  0  0  0  0  0  0  0  0
   -7.0180   -0.9760  -18.8830 C   0  0  0  0  0  0  0  0  0  0  0  0
   -6.2930   -0.5330  -17.8220 N   0  0  0  0  0  0  0  0  0  0  0  0
   -5.2200    0.1760  -18.0740 C   0  0  0  0  0  0  0  0  0  0  0  0
   -4.7780    0.5130  -19.3860 C   0  0  0  0  0  0  0  0  0  0  0  0
   -3.6130    1.2940  -19.6170 C   0  0  0  0  0  0  0  0  0  0  0  0
   -3.2320    1.6100  -20.8920 C   0  0  0  0  0  0  0  0  0  0  0  0
   -3.9980    1.1720  -21.9950 C   0  0  0  0  0  0  0  0  0  0  0  0
   -5.1360    0.4270  -21.7950 C   0  0  0  0  0  0  0  0  0  0  0  0
   -5.5480    0.0610  -20.4850 C   0  0  0  0  0  0  0  0  0  0  0  0
   -5.7540    0.1510  -22.6460 H   0  0  0  0  0  0  0  0  0  0  0  0
   -3.6940    1.4310  -23.0060 H   0  0  0  0  0  0  0  0  0  0  0  0
   -2.3500    2.2200  -21.0680 H   0  0  0  0  0  0  0  0  0  0  0  0
   -3.0410    1.6450  -18.7620 H   0  0  0  0  0  0  0  0  0  0  0  0
   -4.6400    0.5280  -17.2190 H   0  0  0  0  0  0  0  0  0  0  0  0
   -7.8890   -1.5780  -18.6380 H   0  0  0  0  0  0  0  0  0  0  0  0
   -7.0460   -2.4640  -21.9870 C   0  0  0  0  0  0  0  0  0  0  0  0
   -8.3170   -2.8900  -22.7480 C   0  0  2  0  0  0  0  0  0  0  0  0
   -8.0230   -3.6820  -24.0370 C   0  0  0  0  0  0  0  0  0  0  0  0
   -7.4580   -5.0550  -23.7940 C   0  0  0  0  0  0  0  0  0  0  0  0
   -6.0820   -5.2640  -23.6850 C   0  0  0  0  0  0  0  0  0  0  0  0
   -5.5800   -6.5320  -23.4100 C   0  0  0  0  0  0  0  0  0  0  0  0
   -6.4520   -7.6020  -23.2280 C   0  0  0  0  0  0  0  0  0  0  0  0
   -7.8240   -7.4100  -23.3640 C   0  0  0  0  0  0  0  0  0  0  0  0
   -8.3180   -6.1430  -23.6600 C   0  0  0  0  0  0  0  0  0  0  0  0
   -9.3850   -5.9810  -23.8050 H   0  0  0  0  0  0  0  0  0  0  0  0
   -8.5070   -8.2480  -23.2440 H   0  0  0  0  0  0  0  0  0  0  0  0
   -6.0580   -8.5870  -22.9910 H   0  0  0  0  0  0  0  0  0  0  0  0
   -4.5060   -6.6880  -23.3430 H   0  0  0  0  0  0  0  0  0  0  0  0
   -5.4000   -4.4250  -23.8250 H   0  0  0  0  0  0  0  0  0  0  0  0
   -8.9570   -3.7730  -24.6080 H   0  0  0  0  0  0  0  0  0  0  0  0
   -7.3160   -3.1190  -24.6610 H   0  0  0  0  0  0  0  0  0  0  0  0
   -8.8830   -3.5410  -22.0760 H   0  0  0  0  0  0  0  0  0  0  0  0
   -6.6890   -3.2430  -21.3050 H   0  0  0  0  0  0  0  0  0  0  0  0
   -6.2070   -2.2230  -22.6640 H   0  0  0  0  0  0  0  0  0  0  0  0
  -10.6750   -1.7370  -22.8330 C   0  0  0  0  0  0  0  0  0  0  0  0
  -11.2830   -2.6840  -21.9950 C   0  0  0  0  0  0  0  0  0  0  0  0
  -12.6620   -2.7060  -21.8460 C   0  0  0  0  0  0  0  0  0  0  0  0
  -13.3970   -3.8810  -20.7930 Cl  0  0  0  0  0  0  0  0  0  0  0  0
  -13.4930   -1.7930  -22.4910 C   0  0  0  0  0  0  0  0  0  0  0  0
  -12.9030   -0.8330  -23.2830 C   0  0  0  0  0  0  0  0  0  0  0  0
  -11.5170   -0.7980  -23.4500 C   0  0  0  0  0  0  0  0  0  0  0  0
  -10.9570    0.3260  -24.2670 C   0  0  0  0  0  0  0  0  0  0  0  0
  -11.6240    1.3160  -24.5450 O   0  0  0  0  0  0  0  0  0  0  0  0
  -13.4950   -0.0720  -23.7780 H   0  0  0  0  0  0  0  0  0  0  0  0
  -14.5710   -1.8300  -22.3490 H   0  0  0  0  0  0  0  0  0  0  0  0
  -10.7020   -3.3970  -21.4190 H   0  0  0  0  0  0  0  0  0  0  0  0
   -7.7880   -0.4410  -24.1600 H   0  0  0  0  0  0  0  0  0  0  0  0
   -8.7210   -1.6110  -25.0890 H   0  0  0  0  0  0  0  0  0  0  0  0
   -8.4910    0.8600  -26.3030 H   0  0  0  0  0  0  0  0  0  0  0  0
   -9.8460    1.9050  -25.7650 H   0  0  0  0  0  0  0  0  0  0  0  0
   -9.5040    2.3590  -23.2100 H   0  0  0  0  0  0  0  0  0  0  0  0
   -8.2720    3.7480  -21.7680 H   0  0  0  0  0  0  0  0  0  0  0  0
   -6.9040    3.7410  -22.9380 H   0  0  0  0  0  0  0  0  0  0  0  0
   -7.2240    2.3000  -21.9610 H   0  0  0  0  0  0  0  0  0  0  0  0
  1  2  1  0  0  0  0
  1 64  1  0  0  0  0
  1 65  1  0  0  0  0
  1 66  1  0  0  0  0
  2  3  1  0  0  0  0
  2 63  1  0  0  0  0
  3  4  2  0  0  0  0
  3  5  1  0  0  0  0
  5  6  1  0  0  0  0
  5 61  1  0  0  0  0
  5 62  1  0  0  0  0
  6  7  1  0  0  0  0
  6 54  1  0  0  0  0
  7  8  1  0  0  0  0
  7 59  1  0  0  0  0
  7 60  1  0  0  0  0
  8  9  1  1  0  0  0
  8 29  1  0  0  0  0
  8 47  1  0  0  0  0
  9 10  2  0  0  0  0
  9 11  1  0  0  0  0
 11 12  1  0  0  0  0
 11 28  1  0  0  0  0
 12 13  2  0  0  0  0
 12 21  1  0  0  0  0
 13 14  1  0  0  0  0
 13 27  1  0  0  0  0
 14 15  2  0  0  0  0
 15 16  1  0  0  0  0
 15 26  1  0  0  0  0
 16 17  2  0  0  0  0
 16 21  1  0  0  0  0
 17 18  1  0  0  0  0
 17 25  1  0  0  0  0
 18 19  2  0  0  0  0
 18 24  1  0  0  0  0
 19 20  1  0  0  0  0
 19 23  1  0  0  0  0
 20 21  2  0  0  0  0
 20 22  1  0  0  0  0
 28 29  1  0  0  0  0
 28 45  1  0  0  0  0
 28 46  1  0  0  0  0
 29 30  1  0  0  0  0
 29 44  1  1  0  0  0
 30 31  1  0  0  0  0
 30 42  1  0  0  0  0
 30 43  1  0  0  0  0
 31 32  2  0  0  0  0
 31 36  1  0  0  0  0
 32 33  1  0  0  0  0
 32 41  1  0  0  0  0
 33 34  2  0  0  0  0
 33 40  1  0  0  0  0
 34 35  1  0  0  0  0
 34 39  1  0  0  0  0
 35 36  2  0  0  0  0
 35 38  1  0  0  0  0
 36 37  1  0  0  0  0
 47 48  2  0  0  0  0
 47 53  1  0  0  0  0
 48 49  1  0  0  0  0
 48 58  1  0  0  0  0
 49 50  1  0  0  0  0
 49 51  2  0  0  0  0
 51 52  1  0  0  0  0
 51 57  1  0  0  0  0
 52 53  2  0  0  0  0
 52 56  1  0  0  0  0
 53 54  1  0  0  0  0
 54 55  2  0  0  0  0
M  END
>  <MODEL>
       1

$$$$
