tmp_first_model_20_62.pdb
 OpenBabel08282503553D

 44 47  0  0  0  0  0  0  0  0999 V2000
   -5.6890   -3.1640  -21.4100 O   0  0  0  0  0  0  0  0  0  0  0  0
   -6.7100   -2.7140  -21.9090 C   0  0  0  0  0  0  0  0  0  0  0  0
   -7.4000   -1.4740  -21.2800 C   0  0  0  0  0  0  0  0  0  0  0  0
   -6.5750   -0.8340  -20.1830 C   0  0  0  0  0  0  0  0  0  0  0  0
   -6.8740   -1.0470  -18.8640 C   0  0  0  0  0  0  0  0  0  0  0  0
   -6.1950   -0.5380  -17.8000 N   0  0  0  0  0  0  0  0  0  0  0  0
   -5.1590    0.2180  -18.0660 C   0  0  0  0  0  0  0  0  0  0  0  0
   -4.7210    0.5290  -19.3800 C   0  0  0  0  0  0  0  0  0  0  0  0
   -3.5930    1.3560  -19.6220 C   0  0  0  0  0  0  0  0  0  0  0  0
   -3.1930    1.6320  -20.9010 C   0  0  0  0  0  0  0  0  0  0  0  0
   -3.9040    1.0890  -21.9930 C   0  0  0  0  0  0  0  0  0  0  0  0
   -4.9990    0.2870  -21.7870 C   0  0  0  0  0  0  0  0  0  0  0  0
   -5.4430   -0.0130  -20.4730 C   0  0  0  0  0  0  0  0  0  0  0  0
   -5.5380   -0.1190  -22.6370 H   0  0  0  0  0  0  0  0  0  0  0  0
   -3.5840    1.3190  -23.0060 H   0  0  0  0  0  0  0  0  0  0  0  0
   -2.3330    2.2730  -21.0890 H   0  0  0  0  0  0  0  0  0  0  0  0
   -3.0540    1.7690  -18.7720 H   0  0  0  0  0  0  0  0  0  0  0  0
   -4.6040    0.6260  -17.2170 H   0  0  0  0  0  0  0  0  0  0  0  0
   -7.7230   -1.6730  -18.5870 H   0  0  0  0  0  0  0  0  0  0  0  0
   -8.3610   -1.8000  -20.8500 H   0  0  0  0  0  0  0  0  0  0  0  0
   -7.6550   -0.7260  -22.0450 H   0  0  0  0  0  0  0  0  0  0  0  0
   -7.2940   -3.2990  -23.0140 N   0  0  0  0  0  0  0  0  0  0  0  0
   -6.7580   -4.5600  -23.5240 C   0  0  0  0  0  0  0  0  0  0  0  0
   -7.8760   -5.5560  -23.8360 C   0  0  0  0  0  0  0  0  0  0  0  0
   -9.0380   -4.9490  -24.6610 C   0  0  0  0  0  0  0  0  0  0  0  0
   -9.3790   -5.8450  -25.8600 C   0  0  0  0  0  0  0  0  0  0  0  0
   -8.3770   -6.0650  -26.9630 C   0  0  0  0  0  0  0  0  0  0  0  0
   -9.6640   -5.3350  -27.2460 C   0  0  0  0  0  0  0  0  0  0  0  0
  -10.4110   -5.8440  -27.8570 H   0  0  0  0  0  0  0  0  0  0  0  0
   -9.6140   -4.2670  -27.4390 H   0  0  0  0  0  0  0  0  0  0  0  0
   -8.2460   -7.0650  -27.3810 H   0  0  0  0  0  0  0  0  0  0  0  0
   -7.4650   -5.4710  -26.9280 H   0  0  0  0  0  0  0  0  0  0  0  0
   -9.9370   -6.7420  -25.5860 H   0  0  0  0  0  0  0  0  0  0  0  0
   -8.7430   -3.4930  -25.0210 C   0  0  0  0  0  0  0  0  0  0  0  0
   -8.3580   -2.6700  -23.7950 C   0  0  0  0  0  0  0  0  0  0  0  0
   -8.0460   -1.6730  -24.1290 H   0  0  0  0  0  0  0  0  0  0  0  0
   -9.2420   -2.5280  -23.1610 H   0  0  0  0  0  0  0  0  0  0  0  0
   -9.6320   -3.0410  -25.4670 H   0  0  0  0  0  0  0  0  0  0  0  0
   -7.9620   -3.4200  -25.7870 H   0  0  0  0  0  0  0  0  0  0  0  0
   -9.9240   -4.9390  -24.0140 H   0  0  0  0  0  0  0  0  0  0  0  0
   -7.4440   -6.4130  -24.3630 H   0  0  0  0  0  0  0  0  0  0  0  0
   -8.2700   -5.9500  -22.8960 H   0  0  0  0  0  0  0  0  0  0  0  0
   -6.0860   -4.9690  -22.7710 H   0  0  0  0  0  0  0  0  0  0  0  0
   -6.1490   -4.3790  -24.4220 H   0  0  0  0  0  0  0  0  0  0  0  0
  1  2  2  0  0  0  0
  2  3  1  0  0  0  0
  2 22  1  0  0  0  0
  3  4  1  0  0  0  0
  3 20  1  0  0  0  0
  3 21  1  0  0  0  0
  4  5  2  0  0  0  0
  4 13  1  0  0  0  0
  5  6  1  0  0  0  0
  5 19  1  0  0  0  0
  6  7  2  0  0  0  0
  7  8  1  0  0  0  0
  7 18  1  0  0  0  0
  8  9  2  0  0  0  0
  8 13  1  0  0  0  0
  9 10  1  0  0  0  0
  9 17  1  0  0  0  0
 10 11  2  0  0  0  0
 10 16  1  0  0  0  0
 11 12  1  0  0  0  0
 11 15  1  0  0  0  0
 12 13  2  0  0  0  0
 12 14  1  0  0  0  0
 22 23  1  0  0  0  0
 22 35  1  0  0  0  0
 23 24  1  0  0  0  0
 23 43  1  0  0  0  0
 23 44  1  0  0  0  0
 24 25  1  0  0  0  0
 24 41  1  0  0  0  0
 24 42  1  0  0  0  0
 25 26  1  0  0  0  0
 25 34  1  0  0  0  0
 25 40  1  0  0  0  0
 26 27  1  0  0  0  0
 26 28  1  0  0  0  0
 26 33  1  0  0  0  0
 27 28  1  0  0  0  0
 27 31  1  0  0  0  0
 27 32  1  0  0  0  0
 28 29  1  0  0  0  0
 28 30  1  0  0  0  0
 34 35  1  0  0  0  0
 34 38  1  0  0  0  0
 34 39  1  0  0  0  0
 35 36  1  0  0  0  0
 35 37  1  0  0  0  0
M  END
>  <MODEL>
       1

$$$$
