tmp_first_model_9_28.pdb
 OpenBabel08272521403D

 64 68  0  0  1  0  0  0  0  0999 V2000
   -7.4040    3.3490  -21.7920 C   0  0  0  0  0  0  0  0  0  0  0  0
   -8.3560    2.9050  -22.7980 N   0  0  0  0  0  0  0  0  0  0  0  0
   -7.8400    2.1920  -23.8390 C   0  0  0  0  0  0  0  0  0  0  0  0
   -6.6310    2.0390  -23.9890 O   0  0  0  0  0  0  0  0  0  0  0  0
   -8.8320    1.5910  -24.8300 C   0  0  0  0  0  0  0  0  0  0  0  0
   -9.4870    0.4210  -24.2820 N   0  0  0  0  0  0  0  0  0  0  0  0
   -8.7290   -0.8110  -24.1490 C   0  0  0  0  0  0  0  0  0  0  0  0
   -9.0900   -1.5610  -22.8480 C   0  0  2  0  0  0  0  0  0  0  0  0
   -8.5550   -0.7820  -21.6250 C   0  0  0  0  0  0  0  0  0  0  0  0
   -9.0370    0.2080  -21.1130 O   0  0  0  0  0  0  0  0  0  0  0  0
   -7.4010   -1.3970  -21.1980 N   0  0  0  0  0  0  0  0  0  0  0  0
   -6.6020   -0.8220  -20.1800 C   0  0  0  0  0  0  0  0  0  0  0  0
   -6.9170   -1.0470  -18.8650 C   0  0  0  0  0  0  0  0  0  0  0  0
   -6.2170   -0.5520  -17.8180 N   0  0  0  0  0  0  0  0  0  0  0  0
   -5.1810    0.2040  -18.0840 C   0  0  0  0  0  0  0  0  0  0  0  0
   -4.7430    0.5230  -19.4010 C   0  0  0  0  0  0  0  0  0  0  0  0
   -3.6210    1.3590  -19.6420 C   0  0  0  0  0  0  0  0  0  0  0  0
   -3.2360    1.6570  -20.9190 C   0  0  0  0  0  0  0  0  0  0  0  0
   -3.9570    1.1410  -22.0180 C   0  0  0  0  0  0  0  0  0  0  0  0
   -5.0490    0.3290  -21.8130 C   0  0  0  0  0  0  0  0  0  0  0  0
   -5.4690   -0.0070  -20.4960 C   0  0  0  0  0  0  0  0  0  0  0  0
   -5.6060   -0.0350  -22.6730 H   0  0  0  0  0  0  0  0  0  0  0  0
   -3.6550    1.3840  -23.0320 H   0  0  0  0  0  0  0  0  0  0  0  0
   -2.3800    2.2990  -21.0960 H   0  0  0  0  0  0  0  0  0  0  0  0
   -3.0930    1.7650  -18.7830 H   0  0  0  0  0  0  0  0  0  0  0  0
   -4.6190    0.6030  -17.2380 H   0  0  0  0  0  0  0  0  0  0  0  0
   -7.7820   -1.6590  -18.6220 H   0  0  0  0  0  0  0  0  0  0  0  0
   -7.0380   -2.5850  -21.9370 C   0  0  0  0  0  0  0  0  0  0  0  0
   -8.3200   -2.9110  -22.7270 C   0  0  2  0  0  0  0  0  0  0  0  0
   -8.0520   -3.6890  -24.0190 C   0  0  0  0  0  0  0  0  0  0  0  0
   -7.4660   -5.3430  -23.6620 S   0  0  0  0  0  0  0  0  0  0  0  0
   -6.1080   -5.2720  -23.1400 O   0  0  0  0  0  0  0  0  0  0  0  0
   -8.4960   -6.0460  -22.9020 O   0  0  0  0  0  0  0  0  0  0  0  0
   -7.3010   -5.9750  -25.2000 N   0  0  0  0  0  0  0  0  0  0  0  0
   -8.4860   -6.3660  -25.9590 C   0  0  0  0  0  0  0  0  0  0  0  0
   -9.0110   -5.4800  -26.3260 H   0  0  0  0  0  0  0  0  0  0  0  0
   -9.1810   -6.9830  -25.3830 H   0  0  0  0  0  0  0  0  0  0  0  0
   -8.1550   -6.9260  -26.8380 H   0  0  0  0  0  0  0  0  0  0  0  0
   -6.5970   -6.7000  -25.1430 H   0  0  0  0  0  0  0  0  0  0  0  0
   -8.9620   -3.7950  -24.6180 H   0  0  0  0  0  0  0  0  0  0  0  0
   -7.2880   -3.2220  -24.6460 H   0  0  0  0  0  0  0  0  0  0  0  0
   -8.9250   -3.5750  -22.1120 H   0  0  0  0  0  0  0  0  0  0  0  0
   -6.1840   -2.3990  -22.6050 H   0  0  0  0  0  0  0  0  0  0  0  0
   -6.7570   -3.3930  -21.2570 H   0  0  0  0  0  0  0  0  0  0  0  0
  -10.6010   -1.6470  -22.7630 C   0  0  0  0  0  0  0  0  0  0  0  0
  -11.2130   -2.5740  -21.9170 C   0  0  0  0  0  0  0  0  0  0  0  0
  -12.5910   -2.6020  -21.8040 C   0  0  0  0  0  0  0  0  0  0  0  0
  -13.3160   -3.7460  -20.7160 Cl  0  0  0  0  0  0  0  0  0  0  0  0
  -13.4130   -1.7270  -22.5130 C   0  0  0  0  0  0  0  0  0  0  0  0
  -12.8120   -0.7780  -23.3140 C   0  0  0  0  0  0  0  0  0  0  0  0
  -11.4250   -0.7170  -23.4110 C   0  0  0  0  0  0  0  0  0  0  0  0
  -10.8490    0.4310  -24.1730 C   0  0  0  0  0  0  0  0  0  0  0  0
  -11.5440    1.3250  -24.6320 O   0  0  0  0  0  0  0  0  0  0  0  0
  -13.3900   -0.0450  -23.8630 H   0  0  0  0  0  0  0  0  0  0  0  0
  -14.4920   -1.7830  -22.4100 H   0  0  0  0  0  0  0  0  0  0  0  0
  -10.6240   -3.2680  -21.3280 H   0  0  0  0  0  0  0  0  0  0  0  0
   -7.6620   -0.5660  -24.1680 H   0  0  0  0  0  0  0  0  0  0  0  0
   -8.9440   -1.4690  -25.0010 H   0  0  0  0  0  0  0  0  0  0  0  0
   -9.6260    2.2970  -25.1020 H   0  0  0  0  0  0  0  0  0  0  0  0
   -8.2530    1.3210  -25.7180 H   0  0  0  0  0  0  0  0  0  0  0  0
   -9.3120    2.7540  -22.4880 H   0  0  0  0  0  0  0  0  0  0  0  0
   -6.7760    2.5040  -21.4750 H   0  0  0  0  0  0  0  0  0  0  0  0
   -6.7470    4.1200  -22.2070 H   0  0  0  0  0  0  0  0  0  0  0  0
   -7.9350    3.7750  -20.9400 H   0  0  0  0  0  0  0  0  0  0  0  0
  1  2  1  0  0  0  0
  1 62  1  0  0  0  0
  1 63  1  0  0  0  0
  1 64  1  0  0  0  0
  2  3  1  0  0  0  0
  2 61  1  0  0  0  0
  3  4  2  0  0  0  0
  3  5  1  0  0  0  0
  5  6  1  0  0  0  0
  5 59  1  0  0  0  0
  5 60  1  0  0  0  0
  6  7  1  0  0  0  0
  6 52  1  0  0  0  0
  7  8  1  0  0  0  0
  7 57  1  0  0  0  0
  7 58  1  0  0  0  0
  8  9  1  1  0  0  0
  8 29  1  0  0  0  0
  8 45  1  0  0  0  0
  9 10  2  0  0  0  0
  9 11  1  0  0  0  0
 11 12  1  0  0  0  0
 11 28  1  0  0  0  0
 12 13  2  0  0  0  0
 12 21  1  0  0  0  0
 13 14  1  0  0  0  0
 13 27  1  0  0  0  0
 14 15  2  0  0  0  0
 15 16  1  0  0  0  0
 15 26  1  0  0  0  0
 16 17  2  0  0  0  0
 16 21  1  0  0  0  0
 17 18  1  0  0  0  0
 17 25  1  0  0  0  0
 18 19  2  0  0  0  0
 18 24  1  0  0  0  0
 19 20  1  0  0  0  0
 19 23  1  0  0  0  0
 20 21  2  0  0  0  0
 20 22  1  0  0  0  0
 28 29  1  0  0  0  0
 28 43  1  0  0  0  0
 28 44  1  0  0  0  0
 29 30  1  0  0  0  0
 29 42  1  1  0  0  0
 30 31  1  0  0  0  0
 30 40  1  0  0  0  0
 30 41  1  0  0  0  0
 31 32  2  0  0  0  0
 31 33  2  0  0  0  0
 31 34  1  0  0  0  0
 34 35  1  0  0  0  0
 34 39  1  0  0  0  0
 35 36  1  0  0  0  0
 35 37  1  0  0  0  0
 35 38  1  0  0  0  0
 45 46  2  0  0  0  0
 45 51  1  0  0  0  0
 46 47  1  0  0  0  0
 46 56  1  0  0  0  0
 47 48  1  0  0  0  0
 47 49  2  0  0  0  0
 49 50  1  0  0  0  0
 49 55  1  0  0  0  0
 50 51  2  0  0  0  0
 50 54  1  0  0  0  0
 51 52  1  0  0  0  0
 52 53  2  0  0  0  0
M  END
>  <MODEL>
       1

$$$$
