tmp_first_model_11_36.pdb
 OpenBabel08272522543D

 47 50  0  0  1  0  0  0  0  0999 V2000
   -6.0950   -3.4660  -21.2120 O   0  0  0  0  0  0  0  0  0  0  0  0
   -6.6480   -2.6580  -21.9370 C   0  0  0  0  0  0  0  0  0  0  0  0
   -7.3880   -1.4600  -21.2910 C   0  0  0  0  0  0  0  0  0  0  0  0
   -6.5780   -0.8250  -20.1800 C   0  0  0  0  0  0  0  0  0  0  0  0
   -6.8730   -1.0460  -18.8590 C   0  0  0  0  0  0  0  0  0  0  0  0
   -6.1900   -0.5390  -17.7940 N   0  0  0  0  0  0  0  0  0  0  0  0
   -5.1580    0.2230  -18.0640 C   0  0  0  0  0  0  0  0  0  0  0  0
   -4.7210    0.5320  -19.3800 C   0  0  0  0  0  0  0  0  0  0  0  0
   -3.5910    1.3540  -19.6230 C   0  0  0  0  0  0  0  0  0  0  0  0
   -3.1930    1.6350  -20.9020 C   0  0  0  0  0  0  0  0  0  0  0  0
   -3.9090    1.0960  -21.9940 C   0  0  0  0  0  0  0  0  0  0  0  0
   -5.0060    0.2960  -21.7880 C   0  0  0  0  0  0  0  0  0  0  0  0
   -5.4470   -0.0040  -20.4720 C   0  0  0  0  0  0  0  0  0  0  0  0
   -5.5410   -0.1100  -22.6420 H   0  0  0  0  0  0  0  0  0  0  0  0
   -3.5900    1.3260  -23.0060 H   0  0  0  0  0  0  0  0  0  0  0  0
   -2.3340    2.2760  -21.0870 H   0  0  0  0  0  0  0  0  0  0  0  0
   -3.0580    1.7730  -18.7720 H   0  0  0  0  0  0  0  0  0  0  0  0
   -4.6030    0.6280  -17.2160 H   0  0  0  0  0  0  0  0  0  0  0  0
   -7.7210   -1.6700  -18.5840 H   0  0  0  0  0  0  0  0  0  0  0  0
   -8.3130   -1.8620  -20.8610 H   0  0  0  0  0  0  0  0  0  0  0  0
   -7.6900   -0.7080  -22.0270 H   0  0  0  0  0  0  0  0  0  0  0  0
   -6.6100   -2.7860  -23.3140 N   0  0  0  0  0  0  0  0  0  0  0  0
   -5.5550   -3.6040  -23.9110 C   0  0  0  0  0  0  0  0  0  0  0  0
   -6.0970   -4.6260  -24.9080 C   0  0  0  0  0  0  0  0  0  0  0  0
   -7.0950   -4.0160  -25.9090 C   0  0  0  0  0  0  0  0  0  0  0  0
   -7.2800   -2.5170  -25.6780 C   0  0  0  0  0  0  0  0  0  0  0  0
   -7.5710   -2.1510  -24.2130 C   0  0  1  0  0  0  0  0  0  0  0  0
   -9.0170   -2.4570  -23.8370 C   0  0  0  0  0  0  0  0  0  0  0  0
   -9.4040   -3.7230  -23.4010 C   0  0  0  0  0  0  0  0  0  0  0  0
  -10.7330   -3.9930  -23.0930 C   0  0  0  0  0  0  0  0  0  0  0  0
  -11.7020   -3.0050  -23.2270 C   0  0  0  0  0  0  0  0  0  0  0  0
  -11.3330   -1.7450  -23.6880 C   0  0  0  0  0  0  0  0  0  0  0  0
  -10.0010   -1.4780  -23.9960 C   0  0  0  0  0  0  0  0  0  0  0  0
   -9.7310   -0.4900  -24.3640 H   0  0  0  0  0  0  0  0  0  0  0  0
  -12.0840   -0.9670  -23.7980 H   0  0  0  0  0  0  0  0  0  0  0  0
  -12.7360   -3.2200  -22.9730 H   0  0  0  0  0  0  0  0  0  0  0  0
  -11.0070   -4.9820  -22.7410 H   0  0  0  0  0  0  0  0  0  0  0  0
   -8.6610   -4.5080  -23.2920 H   0  0  0  0  0  0  0  0  0  0  0  0
   -7.4420   -1.0630  -24.1370 H   0  0  0  0  0  0  0  0  0  0  0  0
   -6.4030   -1.9660  -26.0310 H   0  0  0  0  0  0  0  0  0  0  0  0
   -8.1070   -2.1550  -26.2920 H   0  0  0  0  0  0  0  0  0  0  0  0
   -8.0670   -4.5170  -25.8210 H   0  0  0  0  0  0  0  0  0  0  0  0
   -6.7640   -4.1830  -26.9390 H   0  0  0  0  0  0  0  0  0  0  0  0
   -5.2520   -5.0750  -25.4390 H   0  0  0  0  0  0  0  0  0  0  0  0
   -6.5700   -5.4450  -24.3600 H   0  0  0  0  0  0  0  0  0  0  0  0
   -4.8290   -2.9460  -24.4100 H   0  0  0  0  0  0  0  0  0  0  0  0
   -5.0280   -4.1010  -23.1000 H   0  0  0  0  0  0  0  0  0  0  0  0
  1  2  2  0  0  0  0
  2  3  1  0  0  0  0
  2 22  1  0  0  0  0
  3  4  1  0  0  0  0
  3 20  1  0  0  0  0
  3 21  1  0  0  0  0
  4  5  2  0  0  0  0
  4 13  1  0  0  0  0
  5  6  1  0  0  0  0
  5 19  1  0  0  0  0
  6  7  2  0  0  0  0
  7  8  1  0  0  0  0
  7 18  1  0  0  0  0
  8  9  2  0  0  0  0
  8 13  1  0  0  0  0
  9 10  1  0  0  0  0
  9 17  1  0  0  0  0
 10 11  2  0  0  0  0
 10 16  1  0  0  0  0
 11 12  1  0  0  0  0
 11 15  1  0  0  0  0
 12 13  2  0  0  0  0
 12 14  1  0  0  0  0
 22 23  1  0  0  0  0
 22 27  1  0  0  0  0
 23 24  1  0  0  0  0
 23 46  1  0  0  0  0
 23 47  1  0  0  0  0
 24 25  1  0  0  0  0
 24 44  1  0  0  0  0
 24 45  1  0  0  0  0
 25 26  1  0  0  0  0
 25 42  1  0  0  0  0
 25 43  1  0  0  0  0
 26 27  1  0  0  0  0
 26 40  1  0  0  0  0
 26 41  1  0  0  0  0
 27 28  1  0  0  0  0
 27 39  1  1  0  0  0
 28 29  2  0  0  0  0
 28 33  1  0  0  0  0
 29 30  1  0  0  0  0
 29 38  1  0  0  0  0
 30 31  2  0  0  0  0
 30 37  1  0  0  0  0
 31 32  1  0  0  0  0
 31 36  1  0  0  0  0
 32 33  2  0  0  0  0
 32 35  1  0  0  0  0
 33 34  1  0  0  0  0
M  END
>  <MODEL>
       1

$$$$
