tmp_first_model_9_36.pdb
 OpenBabel08272521403D

 47 50  0  0  1  0  0  0  0  0999 V2000
   -8.6870    0.6160  -21.3600 O   0  0  0  0  0  0  0  0  0  0  0  0
   -8.3370   -0.3830  -21.9600 C   0  0  0  0  0  0  0  0  0  0  0  0
   -7.4340   -1.4320  -21.2730 C   0  0  0  0  0  0  0  0  0  0  0  0
   -6.5780   -0.8310  -20.1810 C   0  0  0  0  0  0  0  0  0  0  0  0
   -6.8770   -1.0390  -18.8610 C   0  0  0  0  0  0  0  0  0  0  0  0
   -6.1880   -0.5350  -17.8030 N   0  0  0  0  0  0  0  0  0  0  0  0
   -5.1550    0.2240  -18.0670 C   0  0  0  0  0  0  0  0  0  0  0  0
   -4.7220    0.5340  -19.3830 C   0  0  0  0  0  0  0  0  0  0  0  0
   -3.5960    1.3640  -19.6230 C   0  0  0  0  0  0  0  0  0  0  0  0
   -3.2060    1.6570  -20.9010 C   0  0  0  0  0  0  0  0  0  0  0  0
   -3.9320    1.1300  -21.9920 C   0  0  0  0  0  0  0  0  0  0  0  0
   -5.0230    0.3220  -21.7870 C   0  0  0  0  0  0  0  0  0  0  0  0
   -5.4520   -0.0010  -20.4740 C   0  0  0  0  0  0  0  0  0  0  0  0
   -5.5630   -0.0730  -22.6430 H   0  0  0  0  0  0  0  0  0  0  0  0
   -3.6180    1.3620  -23.0050 H   0  0  0  0  0  0  0  0  0  0  0  0
   -2.3500    2.3000  -21.0870 H   0  0  0  0  0  0  0  0  0  0  0  0
   -3.0610    1.7750  -18.7700 H   0  0  0  0  0  0  0  0  0  0  0  0
   -4.6030    0.6270  -17.2160 H   0  0  0  0  0  0  0  0  0  0  0  0
   -7.7280   -1.6580  -18.5830 H   0  0  0  0  0  0  0  0  0  0  0  0
   -8.0860   -2.1980  -20.8320 H   0  0  0  0  0  0  0  0  0  0  0  0
   -6.8070   -1.9520  -22.0110 H   0  0  0  0  0  0  0  0  0  0  0  0
   -8.6810   -0.6050  -23.2870 N   0  0  0  0  0  0  0  0  0  0  0  0
   -9.1590    0.5340  -24.0700 C   0  0  0  0  0  0  0  0  0  0  0  0
  -10.6770    0.5440  -24.2200 C   0  0  0  0  0  0  0  0  0  0  0  0
  -11.1720   -0.7910  -24.7660 C   0  0  0  0  0  0  0  0  0  0  0  0
  -10.6200   -1.9450  -23.9320 C   0  0  0  0  0  0  0  0  0  0  0  0
   -9.0820   -1.9140  -23.8220 C   0  0  1  0  0  0  0  0  0  0  0  0
   -8.3320   -2.2540  -25.1140 C   0  0  0  0  0  0  0  0  0  0  0  0
   -6.9750   -1.9270  -25.2100 C   0  0  0  0  0  0  0  0  0  0  0  0
   -6.2260   -2.2420  -26.3380 C   0  0  0  0  0  0  0  0  0  0  0  0
   -6.8160   -2.9050  -27.4070 C   0  0  0  0  0  0  0  0  0  0  0  0
   -8.1570   -3.2570  -27.3200 C   0  0  0  0  0  0  0  0  0  0  0  0
   -8.9060   -2.9410  -26.1870 C   0  0  0  0  0  0  0  0  0  0  0  0
   -9.9460   -3.2520  -26.1590 H   0  0  0  0  0  0  0  0  0  0  0  0
   -8.6290   -3.7880  -28.1420 H   0  0  0  0  0  0  0  0  0  0  0  0
   -6.2350   -3.1500  -28.2930 H   0  0  0  0  0  0  0  0  0  0  0  0
   -5.1770   -1.9650  -26.3800 H   0  0  0  0  0  0  0  0  0  0  0  0
   -6.4800   -1.4150  -24.3910 H   0  0  0  0  0  0  0  0  0  0  0  0
   -8.7910   -2.6570  -23.0740 H   0  0  0  0  0  0  0  0  0  0  0  0
  -10.9600   -2.9120  -24.3150 H   0  0  0  0  0  0  0  0  0  0  0  0
  -11.0260   -1.8740  -22.9170 H   0  0  0  0  0  0  0  0  0  0  0  0
  -10.8490   -0.9070  -25.8060 H   0  0  0  0  0  0  0  0  0  0  0  0
  -12.2680   -0.8160  -24.7720 H   0  0  0  0  0  0  0  0  0  0  0  0
  -10.9890    1.3650  -24.8780 H   0  0  0  0  0  0  0  0  0  0  0  0
  -11.1160    0.7410  -23.2370 H   0  0  0  0  0  0  0  0  0  0  0  0
   -8.8050    1.4510  -23.5990 H   0  0  0  0  0  0  0  0  0  0  0  0
   -8.7010    0.4720  -25.0640 H   0  0  0  0  0  0  0  0  0  0  0  0
  1  2  2  0  0  0  0
  2  3  1  0  0  0  0
  2 22  1  0  0  0  0
  3  4  1  0  0  0  0
  3 20  1  0  0  0  0
  3 21  1  0  0  0  0
  4  5  2  0  0  0  0
  4 13  1  0  0  0  0
  5  6  1  0  0  0  0
  5 19  1  0  0  0  0
  6  7  2  0  0  0  0
  7  8  1  0  0  0  0
  7 18  1  0  0  0  0
  8  9  2  0  0  0  0
  8 13  1  0  0  0  0
  9 10  1  0  0  0  0
  9 17  1  0  0  0  0
 10 11  2  0  0  0  0
 10 16  1  0  0  0  0
 11 12  1  0  0  0  0
 11 15  1  0  0  0  0
 12 13  2  0  0  0  0
 12 14  1  0  0  0  0
 22 23  1  0  0  0  0
 22 27  1  0  0  0  0
 23 24  1  0  0  0  0
 23 46  1  0  0  0  0
 23 47  1  0  0  0  0
 24 25  1  0  0  0  0
 24 44  1  0  0  0  0
 24 45  1  0  0  0  0
 25 26  1  0  0  0  0
 25 42  1  0  0  0  0
 25 43  1  0  0  0  0
 26 27  1  0  0  0  0
 26 40  1  0  0  0  0
 26 41  1  0  0  0  0
 27 28  1  0  0  0  0
 27 39  1  1  0  0  0
 28 29  2  0  0  0  0
 28 33  1  0  0  0  0
 29 30  1  0  0  0  0
 29 38  1  0  0  0  0
 30 31  2  0  0  0  0
 30 37  1  0  0  0  0
 31 32  1  0  0  0  0
 31 36  1  0  0  0  0
 32 33  2  0  0  0  0
 32 35  1  0  0  0  0
 33 34  1  0  0  0  0
M  END
>  <MODEL>
       1

$$$$
