tmp_first_model_18_9.pdb
 OpenBabel08282502533D

 41 43  0  0  1  0  0  0  0  0999 V2000
   -6.3940    1.4650  -26.8790 C   0  0  0  0  0  0  0  0  0  0  0  0
   -7.2190    0.6130  -25.9150 C   0  0  1  0  0  0  0  0  0  0  0  0
   -6.4240   -0.5940  -25.4570 C   0  0  0  0  0  0  0  0  0  0  0  0
   -6.9020   -1.5690  -24.6880 C   0  0  0  0  0  0  0  0  0  0  0  0
   -8.3040   -1.5600  -24.1260 C   0  0  0  0  0  0  0  0  0  0  0  0
   -8.6170   -0.4070  -23.2910 N   0  0  0  0  0  0  0  0  0  0  0  0
   -8.3420   -0.3490  -21.9370 C   0  0  0  0  0  0  0  0  0  0  0  0
   -8.8150    0.5220  -21.2300 O   0  0  0  0  0  0  0  0  0  0  0  0
   -7.4270   -1.4140  -21.2840 C   0  0  0  0  0  0  0  0  0  0  0  0
   -6.5770   -0.8270  -20.1760 C   0  0  0  0  0  0  0  0  0  0  0  0
   -6.8780   -1.0390  -18.8560 C   0  0  0  0  0  0  0  0  0  0  0  0
   -6.1910   -0.5370  -17.7920 N   0  0  0  0  0  0  0  0  0  0  0  0
   -5.1570    0.2230  -18.0620 C   0  0  0  0  0  0  0  0  0  0  0  0
   -4.7230    0.5370  -19.3780 C   0  0  0  0  0  0  0  0  0  0  0  0
   -3.6000    1.3690  -19.6210 C   0  0  0  0  0  0  0  0  0  0  0  0
   -3.2110    1.6600  -20.9000 C   0  0  0  0  0  0  0  0  0  0  0  0
   -3.9320    1.1260  -21.9930 C   0  0  0  0  0  0  0  0  0  0  0  0
   -5.0220    0.3180  -21.7870 C   0  0  0  0  0  0  0  0  0  0  0  0
   -5.4500   -0.0010  -20.4710 C   0  0  0  0  0  0  0  0  0  0  0  0
   -5.5550   -0.0820  -22.6480 H   0  0  0  0  0  0  0  0  0  0  0  0
   -3.6180    1.3610  -23.0060 H   0  0  0  0  0  0  0  0  0  0  0  0
   -2.3550    2.3040  -21.0890 H   0  0  0  0  0  0  0  0  0  0  0  0
   -3.0590    1.7790  -18.7710 H   0  0  0  0  0  0  0  0  0  0  0  0
   -4.6010    0.6300  -17.2140 H   0  0  0  0  0  0  0  0  0  0  0  0
   -7.7310   -1.6610  -18.5850 H   0  0  0  0  0  0  0  0  0  0  0  0
   -6.7950   -1.9300  -22.0160 H   0  0  0  0  0  0  0  0  0  0  0  0
   -8.0910   -2.1710  -20.8460 H   0  0  0  0  0  0  0  0  0  0  0  0
   -8.9280    0.8420  -23.9900 C   0  0  0  0  0  0  0  0  0  0  0  0
   -7.7460    1.4640  -24.7440 C   0  0  0  0  0  0  0  0  0  0  0  0
   -6.9300    1.6440  -24.0340 H   0  0  0  0  0  0  0  0  0  0  0  0
   -8.0460    2.4520  -25.1220 H   0  0  0  0  0  0  0  0  0  0  0  0
   -9.7210    0.6320  -24.7160 H   0  0  0  0  0  0  0  0  0  0  0  0
   -9.3300    1.5430  -23.2560 H   0  0  0  0  0  0  0  0  0  0  0  0
   -9.0240   -1.5570  -24.9540 H   0  0  0  0  0  0  0  0  0  0  0  0
   -8.5070   -2.4710  -23.5590 H   0  0  0  0  0  0  0  0  0  0  0  0
   -6.2630   -2.4190  -24.4380 H   0  0  0  0  0  0  0  0  0  0  0  0
   -5.3820   -0.6450  -25.7730 H   0  0  0  0  0  0  0  0  0  0  0  0
   -8.0980    0.2460  -26.4640 H   0  0  0  0  0  0  0  0  0  0  0  0
   -5.5200    1.8880  -26.3670 H   0  0  0  0  0  0  0  0  0  0  0  0
   -6.9800    2.2990  -27.2840 H   0  0  0  0  0  0  0  0  0  0  0  0
   -6.0330    0.8660  -27.7240 H   0  0  0  0  0  0  0  0  0  0  0  0
  1  2  1  0  0  0  0
  1 39  1  0  0  0  0
  1 40  1  0  0  0  0
  1 41  1  0  0  0  0
  2  3  1  0  0  0  0
  2 29  1  0  0  0  0
  2 38  1  6  0  0  0
  3  4  2  0  0  0  0
  3 37  1  0  0  0  0
  4  5  1  0  0  0  0
  4 36  1  0  0  0  0
  5  6  1  0  0  0  0
  5 34  1  0  0  0  0
  5 35  1  0  0  0  0
  6  7  1  0  0  0  0
  6 28  1  0  0  0  0
  7  8  2  0  0  0  0
  7  9  1  0  0  0  0
  9 10  1  0  0  0  0
  9 26  1  0  0  0  0
  9 27  1  0  0  0  0
 10 11  2  0  0  0  0
 10 19  1  0  0  0  0
 11 12  1  0  0  0  0
 11 25  1  0  0  0  0
 12 13  2  0  0  0  0
 13 14  1  0  0  0  0
 13 24  1  0  0  0  0
 14 15  2  0  0  0  0
 14 19  1  0  0  0  0
 15 16  1  0  0  0  0
 15 23  1  0  0  0  0
 16 17  2  0  0  0  0
 16 22  1  0  0  0  0
 17 18  1  0  0  0  0
 17 21  1  0  0  0  0
 18 19  2  0  0  0  0
 18 20  1  0  0  0  0
 28 29  1  0  0  0  0
 28 32  1  0  0  0  0
 28 33  1  0  0  0  0
 29 30  1  0  0  0  0
 29 31  1  0  0  0  0
M  END
>  <MODEL>
       1

$$$$
