tmp_first_model_19_82.pdb
 OpenBabel08282503233D

 54 57  0  0  1  0  0  0  0  0999 V2000
  -10.6790    0.2990  -25.2090 C   0  0  0  0  0  0  0  0  0  0  0  0
   -9.7450   -0.5970  -24.6880 O   0  0  0  0  0  0  0  0  0  0  0  0
   -8.4690   -0.5250  -25.1490 C   0  0  0  0  0  0  0  0  0  0  0  0
   -7.9650    0.4930  -25.9660 C   0  0  0  0  0  0  0  0  0  0  0  0
   -6.5970    0.5300  -26.2410 C   0  0  0  0  0  0  0  0  0  0  0  0
   -5.7620   -0.4530  -25.7270 C   0  0  0  0  0  0  0  0  0  0  0  0
   -6.2960   -1.4790  -24.9460 C   0  0  0  0  0  0  0  0  0  0  0  0
   -7.6490   -1.5580  -24.6670 C   0  0  0  0  0  0  0  0  0  0  0  0
   -8.2990   -2.6680  -23.8330 C   0  0  1  0  0  0  0  0  0  0  0  0
   -9.1440   -3.6460  -24.6810 C   0  0  0  0  0  0  0  0  0  0  0  0
   -8.4070   -4.8560  -25.2700 C   0  0  1  0  0  0  0  0  0  0  0  0
   -7.5050   -4.5310  -26.4670 C   0  0  0  0  0  0  0  0  0  0  0  0
   -6.6820   -3.8630  -26.1910 H   0  0  0  0  0  0  0  0  0  0  0  0
   -7.0690   -5.4470  -26.8880 H   0  0  0  0  0  0  0  0  0  0  0  0
   -8.0770   -4.0370  -27.2620 H   0  0  0  0  0  0  0  0  0  0  0  0
   -7.6740   -5.5500  -24.1190 C   0  0  0  0  0  0  0  0  0  0  0  0
   -6.7170   -4.6060  -23.4030 C   0  0  0  0  0  0  0  0  0  0  0  0
   -7.3660   -3.3730  -22.9590 N   0  0  0  0  0  0  0  0  0  0  0  0
   -6.7490   -2.7540  -21.8890 C   0  0  0  0  0  0  0  0  0  0  0  0
   -5.7330   -3.2210  -21.4050 O   0  0  0  0  0  0  0  0  0  0  0  0
   -7.3980   -1.4820  -21.2970 C   0  0  0  0  0  0  0  0  0  0  0  0
   -6.5720   -0.8490  -20.2020 C   0  0  0  0  0  0  0  0  0  0  0  0
   -6.8740   -1.0640  -18.8830 C   0  0  0  0  0  0  0  0  0  0  0  0
   -6.1930   -0.5580  -17.8190 N   0  0  0  0  0  0  0  0  0  0  0  0
   -5.1640    0.2090  -18.0790 C   0  0  0  0  0  0  0  0  0  0  0  0
   -4.7220    0.5160  -19.3920 C   0  0  0  0  0  0  0  0  0  0  0  0
   -3.5940    1.3420  -19.6290 C   0  0  0  0  0  0  0  0  0  0  0  0
   -3.1950    1.6210  -20.9050 C   0  0  0  0  0  0  0  0  0  0  0  0
   -3.9060    1.0840  -22.0010 C   0  0  0  0  0  0  0  0  0  0  0  0
   -5.0010    0.2800  -21.8010 C   0  0  0  0  0  0  0  0  0  0  0  0
   -5.4410   -0.0260  -20.4870 C   0  0  0  0  0  0  0  0  0  0  0  0
   -5.5460   -0.1230  -22.6520 H   0  0  0  0  0  0  0  0  0  0  0  0
   -3.5890    1.3210  -23.0140 H   0  0  0  0  0  0  0  0  0  0  0  0
   -2.3410    2.2680  -21.0820 H   0  0  0  0  0  0  0  0  0  0  0  0
   -3.0740    1.7580  -18.7680 H   0  0  0  0  0  0  0  0  0  0  0  0
   -4.6240    0.6240  -17.2230 H   0  0  0  0  0  0  0  0  0  0  0  0
   -7.7280   -1.6790  -18.6000 H   0  0  0  0  0  0  0  0  0  0  0  0
   -7.6190   -0.7660  -22.1000 H   0  0  0  0  0  0  0  0  0  0  0  0
   -8.3710   -1.7820  -20.8840 H   0  0  0  0  0  0  0  0  0  0  0  0
   -6.3190   -5.0660  -22.5000 H   0  0  0  0  0  0  0  0  0  0  0  0
   -5.8470   -4.3910  -24.0450 H   0  0  0  0  0  0  0  0  0  0  0  0
   -8.4150   -5.9200  -23.3970 H   0  0  0  0  0  0  0  0  0  0  0  0
   -7.1070   -6.4150  -24.4930 H   0  0  0  0  0  0  0  0  0  0  0  0
   -9.1820   -5.5480  -25.6330 H   0  0  0  0  0  0  0  0  0  0  0  0
   -9.6150   -3.0670  -25.4820 H   0  0  0  0  0  0  0  0  0  0  0  0
   -9.9450   -4.0260  -24.0330 H   0  0  0  0  0  0  0  0  0  0  0  0
   -9.0210   -2.1630  -23.1840 H   0  0  0  0  0  0  0  0  0  0  0  0
   -5.6540   -2.2620  -24.5510 H   0  0  0  0  0  0  0  0  0  0  0  0
   -4.6950   -0.4540  -25.9270 H   0  0  0  0  0  0  0  0  0  0  0  0
   -6.1740    1.3360  -26.8410 H   0  0  0  0  0  0  0  0  0  0  0  0
   -8.6080    1.2740  -26.3660 H   0  0  0  0  0  0  0  0  0  0  0  0
  -11.6370    0.0120  -24.7710 H   0  0  0  0  0  0  0  0  0  0  0  0
  -10.6930    0.1990  -26.2960 H   0  0  0  0  0  0  0  0  0  0  0  0
  -10.4290    1.3280  -24.9250 H   0  0  0  0  0  0  0  0  0  0  0  0
  1  2  1  0  0  0  0
  1 52  1  0  0  0  0
  1 53  1  0  0  0  0
  1 54  1  0  0  0  0
  2  3  1  0  0  0  0
  3  4  2  0  0  0  0
  3  8  1  0  0  0  0
  4  5  1  0  0  0  0
  4 51  1  0  0  0  0
  5  6  2  0  0  0  0
  5 50  1  0  0  0  0
  6  7  1  0  0  0  0
  6 49  1  0  0  0  0
  7  8  2  0  0  0  0
  7 48  1  0  0  0  0
  8  9  1  0  0  0  0
  9 10  1  0  0  0  0
  9 18  1  0  0  0  0
  9 47  1  1  0  0  0
 10 11  1  0  0  0  0
 10 45  1  0  0  0  0
 10 46  1  0  0  0  0
 11 12  1  0  0  0  0
 11 16  1  0  0  0  0
 11 44  1  6  0  0  0
 12 13  1  0  0  0  0
 12 14  1  0  0  0  0
 12 15  1  0  0  0  0
 16 17  1  0  0  0  0
 16 42  1  0  0  0  0
 16 43  1  0  0  0  0
 17 18  1  0  0  0  0
 17 40  1  0  0  0  0
 17 41  1  0  0  0  0
 18 19  1  0  0  0  0
 19 20  2  0  0  0  0
 19 21  1  0  0  0  0
 21 22  1  0  0  0  0
 21 38  1  0  0  0  0
 21 39  1  0  0  0  0
 22 23  2  0  0  0  0
 22 31  1  0  0  0  0
 23 24  1  0  0  0  0
 23 37  1  0  0  0  0
 24 25  2  0  0  0  0
 25 26  1  0  0  0  0
 25 36  1  0  0  0  0
 26 27  2  0  0  0  0
 26 31  1  0  0  0  0
 27 28  1  0  0  0  0
 27 35  1  0  0  0  0
 28 29  2  0  0  0  0
 28 34  1  0  0  0  0
 29 30  1  0  0  0  0
 29 33  1  0  0  0  0
 30 31  2  0  0  0  0
 30 32  1  0  0  0  0
M  END
>  <MODEL>
       1

$$$$
