tmp_first_model_10_87.pdb
 OpenBabel08272522163D

 59 64  0  0  1  0  0  0  0  0999 V2000
   -8.2670   -4.1260  -23.4870 C   0  0  0  0  0  0  0  0  0  0  0  0
   -8.5160   -2.9790  -22.5250 C   0  0  1  0  0  0  0  0  0  0  0  0
   -7.3810   -2.7900  -21.5110 C   0  0  0  0  0  0  0  0  0  0  0  0
   -7.4460   -1.3750  -21.1960 N   0  0  0  0  0  0  0  0  0  0  0  0
   -6.6630   -0.7810  -20.1800 C   0  0  0  0  0  0  0  0  0  0  0  0
   -6.9170   -1.0960  -18.8690 C   0  0  0  0  0  0  0  0  0  0  0  0
   -6.2270   -0.6110  -17.8110 N   0  0  0  0  0  0  0  0  0  0  0  0
   -5.2140    0.1800  -18.0730 C   0  0  0  0  0  0  0  0  0  0  0  0
   -4.8310    0.5770  -19.3860 C   0  0  0  0  0  0  0  0  0  0  0  0
   -3.7200    1.4350  -19.6030 C   0  0  0  0  0  0  0  0  0  0  0  0
   -3.4330    1.8920  -20.8590 C   0  0  0  0  0  0  0  0  0  0  0  0
   -4.2160    1.4790  -21.9610 C   0  0  0  0  0  0  0  0  0  0  0  0
   -5.2230    0.5630  -21.7940 C   0  0  0  0  0  0  0  0  0  0  0  0
   -5.5870    0.1130  -20.4870 C   0  0  0  0  0  0  0  0  0  0  0  0
   -5.7740    0.2220  -22.6660 H   0  0  0  0  0  0  0  0  0  0  0  0
   -4.0120    1.8950  -22.9430 H   0  0  0  0  0  0  0  0  0  0  0  0
   -2.6390    2.6160  -21.0100 H   0  0  0  0  0  0  0  0  0  0  0  0
   -3.1170    1.7220  -18.7430 H   0  0  0  0  0  0  0  0  0  0  0  0
   -4.6460    0.5590  -17.2240 H   0  0  0  0  0  0  0  0  0  0  0  0
   -7.7460   -1.7610  -18.6360 H   0  0  0  0  0  0  0  0  0  0  0  0
   -8.1720   -0.6320  -22.1030 C   0  0  0  0  0  0  0  0  0  0  0  0
   -8.2960    0.5740  -22.0590 O   0  0  0  0  0  0  0  0  0  0  0  0
   -8.7350   -1.5690  -23.1870 C   0  0  1  0  0  0  0  0  0  0  0  0
   -7.9290   -1.2710  -24.4790 C   0  0  0  0  0  0  0  0  0  0  0  0
   -8.5300   -1.8430  -25.6840 N   0  0  0  0  0  0  0  0  0  0  0  0
   -7.6530   -2.0090  -26.8350 C   0  0  0  0  0  0  0  0  0  0  0  0
   -6.7930   -3.2250  -26.7160 C   0  0  0  0  0  0  0  0  0  0  0  0
   -5.4960   -3.3930  -26.2740 C   0  0  0  0  0  0  0  0  0  0  0  0
   -5.2660   -4.7800  -26.3630 C   0  0  0  0  0  0  0  0  0  0  0  0
   -6.3300   -5.4240  -26.8210 N   0  0  0  0  0  0  0  0  0  0  0  0
   -7.2540   -4.4690  -27.0360 N   0  0  0  0  0  0  0  0  0  0  0  0
   -8.5730   -4.8810  -27.4980 C   0  0  0  0  0  0  0  0  0  0  0  0
   -8.8540   -4.3650  -28.4250 H   0  0  0  0  0  0  0  0  0  0  0  0
   -8.5000   -5.9550  -27.6890 H   0  0  0  0  0  0  0  0  0  0  0  0
   -9.3420   -4.7080  -26.7330 H   0  0  0  0  0  0  0  0  0  0  0  0
   -4.3750   -5.3440  -26.1060 H   0  0  0  0  0  0  0  0  0  0  0  0
   -4.8040   -2.6270  -25.9340 H   0  0  0  0  0  0  0  0  0  0  0  0
   -8.2950   -2.0930  -27.7120 H   0  0  0  0  0  0  0  0  0  0  0  0
   -7.0440   -1.1060  -26.9630 H   0  0  0  0  0  0  0  0  0  0  0  0
   -9.8770   -1.7870  -25.9260 C   0  0  0  0  0  0  0  0  0  0  0  0
  -10.3680   -2.0300  -27.0260 O   0  0  0  0  0  0  0  0  0  0  0  0
  -10.7340   -1.4360  -24.7650 C   0  0  0  0  0  0  0  0  0  0  0  0
  -12.1000   -1.2810  -24.9960 C   0  0  0  0  0  0  0  0  0  0  0  0
  -12.9620   -0.9800  -23.9620 C   0  0  0  0  0  0  0  0  0  0  0  0
  -12.4190   -0.8640  -22.6880 C   0  0  0  0  0  0  0  0  0  0  0  0
  -13.2590   -0.6180  -21.6770 F   0  0  0  0  0  0  0  0  0  0  0  0
  -11.0700   -1.0200  -22.4290 C   0  0  0  0  0  0  0  0  0  0  0  0
  -10.1980   -1.3040  -23.4810 C   0  0  0  0  0  0  0  0  0  0  0  0
  -10.6830   -0.9340  -21.4220 H   0  0  0  0  0  0  0  0  0  0  0  0
  -14.0280   -0.8440  -24.1180 H   0  0  0  0  0  0  0  0  0  0  0  0
  -12.4590   -1.4170  -26.0100 H   0  0  0  0  0  0  0  0  0  0  0  0
   -6.9000   -1.6410  -24.3800 H   0  0  0  0  0  0  0  0  0  0  0  0
   -7.8640   -0.1750  -24.5760 H   0  0  0  0  0  0  0  0  0  0  0  0
   -6.4010   -3.0600  -21.9360 H   0  0  0  0  0  0  0  0  0  0  0  0
   -7.5250   -3.3940  -20.6100 H   0  0  0  0  0  0  0  0  0  0  0  0
   -9.4310   -3.1770  -21.9450 H   0  0  0  0  0  0  0  0  0  0  0  0
   -7.3150   -3.9670  -24.0010 H   0  0  0  0  0  0  0  0  0  0  0  0
   -8.2140   -5.0730  -22.9420 H   0  0  0  0  0  0  0  0  0  0  0  0
   -9.0670   -4.1830  -24.2300 H   0  0  0  0  0  0  0  0  0  0  0  0
  1  2  1  0  0  0  0
  1 57  1  0  0  0  0
  1 58  1  0  0  0  0
  1 59  1  0  0  0  0
  2  3  1  0  0  0  0
  2 23  1  0  0  0  0
  2 56  1  1  0  0  0
  3  4  1  0  0  0  0
  3 54  1  0  0  0  0
  3 55  1  0  0  0  0
  4  5  1  0  0  0  0
  4 21  1  0  0  0  0
  5  6  2  0  0  0  0
  5 14  1  0  0  0  0
  6  7  1  0  0  0  0
  6 20  1  0  0  0  0
  7  8  2  0  0  0  0
  8  9  1  0  0  0  0
  8 19  1  0  0  0  0
  9 10  2  0  0  0  0
  9 14  1  0  0  0  0
 10 11  1  0  0  0  0
 10 18  1  0  0  0  0
 11 12  2  0  0  0  0
 11 17  1  0  0  0  0
 12 13  1  0  0  0  0
 12 16  1  0  0  0  0
 13 14  2  0  0  0  0
 13 15  1  0  0  0  0
 21 22  2  0  0  0  0
 23 21  1  1  0  0  0
 23 24  1  0  0  0  0
 23 48  1  0  0  0  0
 24 25  1  0  0  0  0
 24 52  1  0  0  0  0
 24 53  1  0  0  0  0
 25 26  1  0  0  0  0
 25 40  1  0  0  0  0
 26 27  1  0  0  0  0
 26 38  1  0  0  0  0
 26 39  1  0  0  0  0
 27 28  2  0  0  0  0
 27 31  1  0  0  0  0
 28 29  1  0  0  0  0
 28 37  1  0  0  0  0
 29 30  2  0  0  0  0
 29 36  1  0  0  0  0
 30 31  1  0  0  0  0
 31 32  1  0  0  0  0
 32 33  1  0  0  0  0
 32 34  1  0  0  0  0
 32 35  1  0  0  0  0
 40 41  2  0  0  0  0
 40 42  1  0  0  0  0
 42 43  2  0  0  0  0
 42 48  1  0  0  0  0
 43 44  1  0  0  0  0
 43 51  1  0  0  0  0
 44 45  2  0  0  0  0
 44 50  1  0  0  0  0
 45 46  1  0  0  0  0
 45 47  1  0  0  0  0
 47 48  2  0  0  0  0
 47 49  1  0  0  0  0
M  END
>  <MODEL>
       1

$$$$
