tmp_first_model_8_63.pdb
 OpenBabel08272521063D

 57 61  0  0  1  0  0  0  0  0999 V2000
   -7.3360    3.4260  -21.8490 C   0  0  0  0  0  0  0  0  0  0  0  0
   -8.1790    2.9570  -22.9360 N   0  0  0  0  0  0  0  0  0  0  0  0
   -7.6090    2.2530  -23.9410 C   0  0  0  0  0  0  0  0  0  0  0  0
   -6.3950    2.1250  -24.0470 O   0  0  0  0  0  0  0  0  0  0  0  0
   -8.5570    1.6300  -24.9710 C   0  0  0  0  0  0  0  0  0  0  0  0
   -9.2950    0.4870  -24.4670 N   0  0  0  0  0  0  0  0  0  0  0  0
   -8.5960   -0.7700  -24.2840 C   0  0  0  0  0  0  0  0  0  0  0  0
   -9.0100   -1.4770  -22.9640 C   0  0  2  0  0  0  0  0  0  0  0  0
   -8.4600   -0.6900  -21.7470 C   0  0  0  0  0  0  0  0  0  0  0  0
   -8.8690    0.3670  -21.3100 O   0  0  0  0  0  0  0  0  0  0  0  0
   -7.4030   -1.3870  -21.2070 N   0  0  0  0  0  0  0  0  0  0  0  0
   -6.6060   -0.8140  -20.1770 C   0  0  0  0  0  0  0  0  0  0  0  0
   -6.9100   -1.0480  -18.8620 C   0  0  0  0  0  0  0  0  0  0  0  0
   -6.2050   -0.5590  -17.8120 N   0  0  0  0  0  0  0  0  0  0  0  0
   -5.1700    0.2020  -18.0780 C   0  0  0  0  0  0  0  0  0  0  0  0
   -4.7370    0.5320  -19.3920 C   0  0  0  0  0  0  0  0  0  0  0  0
   -3.6120    1.3700  -19.6350 C   0  0  0  0  0  0  0  0  0  0  0  0
   -3.2330    1.6710  -20.9140 C   0  0  0  0  0  0  0  0  0  0  0  0
   -3.9680    1.1560  -22.0060 C   0  0  0  0  0  0  0  0  0  0  0  0
   -5.0490    0.3350  -21.7990 C   0  0  0  0  0  0  0  0  0  0  0  0
   -5.4760    0.0090  -20.4840 C   0  0  0  0  0  0  0  0  0  0  0  0
   -5.5870   -0.0700  -22.6510 H   0  0  0  0  0  0  0  0  0  0  0  0
   -3.6650    1.3900  -23.0210 H   0  0  0  0  0  0  0  0  0  0  0  0
   -2.3680    2.3000  -21.1000 H   0  0  0  0  0  0  0  0  0  0  0  0
   -3.0730    1.7710  -18.7790 H   0  0  0  0  0  0  0  0  0  0  0  0
   -4.6220    0.6090  -17.2260 H   0  0  0  0  0  0  0  0  0  0  0  0
   -7.7650   -1.6690  -18.6040 H   0  0  0  0  0  0  0  0  0  0  0  0
   -7.0770   -2.6170  -21.9020 C   0  0  0  0  0  0  0  0  0  0  0  0
   -8.3070   -2.8630  -22.8090 C   0  0  2  0  0  0  0  0  0  0  0  0
   -7.9380   -3.5860  -24.1060 C   0  0  0  0  0  0  0  0  0  0  0  0
   -7.4250   -4.8570  -23.7570 O   0  0  0  0  0  0  0  0  0  0  0  0
   -7.2080   -5.3290  -24.5710 H   0  0  0  0  0  0  0  0  0  0  0  0
   -7.1790   -3.0010  -24.6520 H   0  0  0  0  0  0  0  0  0  0  0  0
   -8.8230   -3.6830  -24.7550 H   0  0  0  0  0  0  0  0  0  0  0  0
   -8.9950   -3.5250  -22.2780 H   0  0  0  0  0  0  0  0  0  0  0  0
   -6.9110   -3.4290  -21.1860 H   0  0  0  0  0  0  0  0  0  0  0  0
   -6.1520   -2.5040  -22.4890 H   0  0  0  0  0  0  0  0  0  0  0  0
  -10.5290   -1.4890  -22.8930 C   0  0  0  0  0  0  0  0  0  0  0  0
  -11.1790   -2.3340  -21.9850 C   0  0  0  0  0  0  0  0  0  0  0  0
  -12.5580   -2.3310  -21.9000 C   0  0  0  0  0  0  0  0  0  0  0  0
  -13.3550   -3.3900  -20.7740 Cl  0  0  0  0  0  0  0  0  0  0  0  0
  -13.3320   -1.4760  -22.6860 C   0  0  0  0  0  0  0  0  0  0  0  0
  -12.6960   -0.5820  -23.5240 C   0  0  0  0  0  0  0  0  0  0  0  0
  -11.3030   -0.5590  -23.6030 C   0  0  0  0  0  0  0  0  0  0  0  0
  -10.6590    0.5600  -24.3660 C   0  0  0  0  0  0  0  0  0  0  0  0
  -11.3070    1.4920  -24.8210 O   0  0  0  0  0  0  0  0  0  0  0  0
  -13.2470    0.1430  -24.1140 H   0  0  0  0  0  0  0  0  0  0  0  0
  -14.4120   -1.4960  -22.6010 H   0  0  0  0  0  0  0  0  0  0  0  0
  -10.6170   -2.9730  -21.3130 H   0  0  0  0  0  0  0  0  0  0  0  0
   -7.5270   -0.5360  -24.2560 H   0  0  0  0  0  0  0  0  0  0  0  0
   -8.8000   -1.4460  -25.1320 H   0  0  0  0  0  0  0  0  0  0  0  0
   -7.9220    1.3440  -25.8170 H   0  0  0  0  0  0  0  0  0  0  0  0
   -9.3230    2.3340  -25.3090 H   0  0  0  0  0  0  0  0  0  0  0  0
   -9.1780    2.9020  -22.8060 H   0  0  0  0  0  0  0  0  0  0  0  0
   -6.6250    4.1790  -22.2090 H   0  0  0  0  0  0  0  0  0  0  0  0
   -7.9750    3.8780  -21.0900 H   0  0  0  0  0  0  0  0  0  0  0  0
   -6.7580    2.5890  -21.4280 H   0  0  0  0  0  0  0  0  0  0  0  0
  1  2  1  0  0  0  0
  1 55  1  0  0  0  0
  1 56  1  0  0  0  0
  1 57  1  0  0  0  0
  2  3  1  0  0  0  0
  2 54  1  0  0  0  0
  3  4  2  0  0  0  0
  3  5  1  0  0  0  0
  5  6  1  0  0  0  0
  5 52  1  0  0  0  0
  5 53  1  0  0  0  0
  6  7  1  0  0  0  0
  6 45  1  0  0  0  0
  7  8  1  0  0  0  0
  7 50  1  0  0  0  0
  7 51  1  0  0  0  0
  8  9  1  1  0  0  0
  8 29  1  0  0  0  0
  8 38  1  0  0  0  0
  9 10  2  0  0  0  0
  9 11  1  0  0  0  0
 11 12  1  0  0  0  0
 11 28  1  0  0  0  0
 12 13  2  0  0  0  0
 12 21  1  0  0  0  0
 13 14  1  0  0  0  0
 13 27  1  0  0  0  0
 14 15  2  0  0  0  0
 15 16  1  0  0  0  0
 15 26  1  0  0  0  0
 16 17  2  0  0  0  0
 16 21  1  0  0  0  0
 17 18  1  0  0  0  0
 17 25  1  0  0  0  0
 18 19  2  0  0  0  0
 18 24  1  0  0  0  0
 19 20  1  0  0  0  0
 19 23  1  0  0  0  0
 20 21  2  0  0  0  0
 20 22  1  0  0  0  0
 28 29  1  0  0  0  0
 28 36  1  0  0  0  0
 28 37  1  0  0  0  0
 29 30  1  0  0  0  0
 29 35  1  1  0  0  0
 30 31  1  0  0  0  0
 30 33  1  0  0  0  0
 30 34  1  0  0  0  0
 31 32  1  0  0  0  0
 38 39  2  0  0  0  0
 38 44  1  0  0  0  0
 39 40  1  0  0  0  0
 39 49  1  0  0  0  0
 40 41  1  0  0  0  0
 40 42  2  0  0  0  0
 42 43  1  0  0  0  0
 42 48  1  0  0  0  0
 43 44  2  0  0  0  0
 43 47  1  0  0  0  0
 44 45  1  0  0  0  0
 45 46  2  0  0  0  0
M  END
>  <MODEL>
       1

$$$$
