tmp_first_model_3_72.pdb
 OpenBabel08272518143D

 41 44  0  0  0  0  0  0  0  0999 V2000
   -8.7460    0.7400  -21.4070 O   0  0  0  0  0  0  0  0  0  0  0  0
   -8.4840   -0.3110  -21.9660 C   0  0  0  0  0  0  0  0  0  0  0  0
   -7.5670   -1.3600  -21.3160 C   0  0  0  0  0  0  0  0  0  0  0  0
   -6.7260   -0.8020  -20.2160 C   0  0  0  0  0  0  0  0  0  0  0  0
   -7.0590   -1.0270  -18.9030 C   0  0  0  0  0  0  0  0  0  0  0  0
   -6.3760   -0.5510  -17.8310 N   0  0  0  0  0  0  0  0  0  0  0  0
   -5.3210    0.1830  -18.0840 C   0  0  0  0  0  0  0  0  0  0  0  0
   -4.8560    0.4990  -19.3940 C   0  0  0  0  0  0  0  0  0  0  0  0
   -3.7050    1.3010  -19.6130 C   0  0  0  0  0  0  0  0  0  0  0  0
   -3.2870    1.5850  -20.8850 C   0  0  0  0  0  0  0  0  0  0  0  0
   -4.0000    1.0810  -21.9990 C   0  0  0  0  0  0  0  0  0  0  0  0
   -5.1200    0.3050  -21.8140 C   0  0  0  0  0  0  0  0  0  0  0  0
   -5.5780   -0.0040  -20.4990 C   0  0  0  0  0  0  0  0  0  0  0  0
   -5.6630   -0.0720  -22.6790 H   0  0  0  0  0  0  0  0  0  0  0  0
   -3.6610    1.3180  -23.0050 H   0  0  0  0  0  0  0  0  0  0  0  0
   -2.4130    2.2100  -21.0480 H   0  0  0  0  0  0  0  0  0  0  0  0
   -3.1790    1.6960  -18.7470 H   0  0  0  0  0  0  0  0  0  0  0  0
   -4.7730    0.5720  -17.2250 H   0  0  0  0  0  0  0  0  0  0  0  0
   -7.9290   -1.6340  -18.6540 H   0  0  0  0  0  0  0  0  0  0  0  0
   -6.9250   -1.8120  -22.0810 H   0  0  0  0  0  0  0  0  0  0  0  0
   -8.1850   -2.1800  -20.9260 H   0  0  0  0  0  0  0  0  0  0  0  0
   -8.9440   -0.6290  -23.2310 N   0  0  0  0  0  0  0  0  0  0  0  0
   -9.6220    0.4240  -23.9820 C   0  0  0  0  0  0  0  0  0  0  0  0
  -11.0810    0.6850  -23.6030 C   0  0  0  0  0  0  0  0  0  0  0  0
  -12.0170   -0.5160  -23.7860 C   0  0  0  0  0  0  0  0  0  0  0  0
  -11.6910   -1.7300  -22.9490 C   0  0  0  0  0  0  0  0  0  0  0  0
  -12.9260   -2.4470  -21.9920 S   0  0  0  0  0  0  0  0  0  0  0  0
  -11.9100   -3.7340  -21.5120 C   0  0  0  0  0  0  0  0  0  0  0  0
  -10.6730   -3.6230  -22.0650 C   0  0  0  0  0  0  0  0  0  0  0  0
  -10.5400   -2.4590  -22.8770 C   0  0  0  0  0  0  0  0  0  0  0  0
   -9.2680   -2.0150  -23.5390 C   0  0  0  0  0  0  0  0  0  0  0  0
   -8.4470   -2.6490  -23.1970 H   0  0  0  0  0  0  0  0  0  0  0  0
   -9.3340   -2.1220  -24.6280 H   0  0  0  0  0  0  0  0  0  0  0  0
   -9.8930   -4.3670  -21.9440 H   0  0  0  0  0  0  0  0  0  0  0  0
  -12.2680   -4.4530  -20.7980 H   0  0  0  0  0  0  0  0  0  0  0  0
  -13.0280   -0.1790  -23.5430 H   0  0  0  0  0  0  0  0  0  0  0  0
  -12.0520   -0.8140  -24.8480 H   0  0  0  0  0  0  0  0  0  0  0  0
  -11.4550    1.5030  -24.2380 H   0  0  0  0  0  0  0  0  0  0  0  0
  -11.1250    1.0480  -22.5670 H   0  0  0  0  0  0  0  0  0  0  0  0
   -9.5580    0.1780  -25.0520 H   0  0  0  0  0  0  0  0  0  0  0  0
   -9.0460    1.3380  -23.8270 H   0  0  0  0  0  0  0  0  0  0  0  0
  1  2  2  0  0  0  0
  2  3  1  0  0  0  0
  2 22  1  0  0  0  0
  3  4  1  0  0  0  0
  3 20  1  0  0  0  0
  3 21  1  0  0  0  0
  4  5  2  0  0  0  0
  4 13  1  0  0  0  0
  5  6  1  0  0  0  0
  5 19  1  0  0  0  0
  6  7  2  0  0  0  0
  7  8  1  0  0  0  0
  7 18  1  0  0  0  0
  8  9  2  0  0  0  0
  8 13  1  0  0  0  0
  9 10  1  0  0  0  0
  9 17  1  0  0  0  0
 10 11  2  0  0  0  0
 10 16  1  0  0  0  0
 11 12  1  0  0  0  0
 11 15  1  0  0  0  0
 12 13  2  0  0  0  0
 12 14  1  0  0  0  0
 22 23  1  0  0  0  0
 22 31  1  0  0  0  0
 23 24  1  0  0  0  0
 23 40  1  0  0  0  0
 23 41  1  0  0  0  0
 24 25  1  0  0  0  0
 24 38  1  0  0  0  0
 24 39  1  0  0  0  0
 25 26  1  0  0  0  0
 25 36  1  0  0  0  0
 25 37  1  0  0  0  0
 26 27  1  0  0  0  0
 26 30  2  0  0  0  0
 27 28  1  0  0  0  0
 28 29  2  0  0  0  0
 28 35  1  0  0  0  0
 29 30  1  0  0  0  0
 29 34  1  0  0  0  0
 30 31  1  0  0  0  0
 31 32  1  0  0  0  0
 31 33  1  0  0  0  0
M  END
>  <MODEL>
       1

$$$$
