tmp_first_model_12_58.pdb
 OpenBabel08272523333D

 42 45  0  0  1  0  0  0  0  0999 V2000
  -10.8190   -3.7890  -21.7200 C   0  0  0  0  0  0  0  0  0  0  0  0
   -9.8400   -3.2180  -22.6370 N   0  0  0  0  0  0  0  0  0  0  0  0
  -10.0010   -1.8810  -23.1870 C   0  0  0  0  0  0  0  0  0  0  0  0
   -8.6460   -1.2000  -23.4800 C   0  0  1  0  0  0  0  0  0  0  0  0
   -8.1210   -0.5300  -22.1900 C   0  0  0  0  0  0  0  0  0  0  0  0
   -8.3610    0.6380  -21.9470 O   0  0  0  0  0  0  0  0  0  0  0  0
   -7.3890   -1.3050  -21.3290 N   0  0  0  0  0  0  0  0  0  0  0  0
   -6.6590   -0.7400  -20.2510 C   0  0  0  0  0  0  0  0  0  0  0  0
   -6.9460   -1.0970  -18.9580 C   0  0  0  0  0  0  0  0  0  0  0  0
   -6.2810   -0.6380  -17.8660 N   0  0  0  0  0  0  0  0  0  0  0  0
   -5.2770    0.1830  -18.0660 C   0  0  0  0  0  0  0  0  0  0  0  0
   -4.8440    0.6020  -19.3570 C   0  0  0  0  0  0  0  0  0  0  0  0
   -3.7130    1.4420  -19.5330 C   0  0  0  0  0  0  0  0  0  0  0  0
   -3.3610    1.8870  -20.7800 C   0  0  0  0  0  0  0  0  0  0  0  0
   -4.1320    1.5140  -21.9030 C   0  0  0  0  0  0  0  0  0  0  0  0
   -5.2140    0.6860  -21.7630 C   0  0  0  0  0  0  0  0  0  0  0  0
   -5.5810    0.1760  -20.4830 C   0  0  0  0  0  0  0  0  0  0  0  0
   -5.7860    0.4000  -22.6390 H   0  0  0  0  0  0  0  0  0  0  0  0
   -3.8530    1.8810  -22.8870 H   0  0  0  0  0  0  0  0  0  0  0  0
   -2.4870    2.5160  -20.9140 H   0  0  0  0  0  0  0  0  0  0  0  0
   -3.1520    1.7310  -18.6500 H   0  0  0  0  0  0  0  0  0  0  0  0
   -4.7290    0.5500  -17.1950 H   0  0  0  0  0  0  0  0  0  0  0  0
   -7.7640   -1.7850  -18.7390 H   0  0  0  0  0  0  0  0  0  0  0  0
   -7.4500   -2.3140  -21.3860 H   0  0  0  0  0  0  0  0  0  0  0  0
   -7.7120   -2.1480  -24.2000 C   0  0  0  0  0  0  0  0  0  0  0  0
   -6.7300   -1.6960  -25.0940 C   0  0  0  0  0  0  0  0  0  0  0  0
   -5.9020   -2.6060  -25.7320 C   0  0  0  0  0  0  0  0  0  0  0  0
   -4.6980   -2.0480  -26.8620 Cl  0  0  0  0  0  0  0  0  0  0  0  0
   -6.0170   -3.9730  -25.5020 C   0  0  0  0  0  0  0  0  0  0  0  0
   -6.9740   -4.4210  -24.6140 C   0  0  0  0  0  0  0  0  0  0  0  0
   -7.8190   -3.5180  -23.9720 C   0  0  0  0  0  0  0  0  0  0  0  0
   -8.8360   -4.0620  -23.0170 C   0  0  0  0  0  0  0  0  0  0  0  0
   -8.7590   -5.2070  -22.5820 O   0  0  0  0  0  0  0  0  0  0  0  0
   -7.1030   -5.4810  -24.4290 H   0  0  0  0  0  0  0  0  0  0  0  0
   -5.3530   -4.6620  -26.0050 H   0  0  0  0  0  0  0  0  0  0  0  0
   -6.6160   -0.6420  -25.3260 H   0  0  0  0  0  0  0  0  0  0  0  0
   -8.8280   -0.3310  -24.1150 H   0  0  0  0  0  0  0  0  0  0  0  0
  -10.5300   -1.2630  -22.4510 H   0  0  0  0  0  0  0  0  0  0  0  0
  -10.6050   -1.9150  -24.1060 H   0  0  0  0  0  0  0  0  0  0  0  0
  -11.3630   -4.6160  -22.1850 H   0  0  0  0  0  0  0  0  0  0  0  0
  -10.2850   -4.2030  -20.8620 H   0  0  0  0  0  0  0  0  0  0  0  0
  -11.5340   -3.0320  -21.3850 H   0  0  0  0  0  0  0  0  0  0  0  0
  1  2  1  0  0  0  0
  1 40  1  0  0  0  0
  1 41  1  0  0  0  0
  1 42  1  0  0  0  0
  2  3  1  0  0  0  0
  2 32  1  0  0  0  0
  3  4  1  0  0  0  0
  3 38  1  0  0  0  0
  3 39  1  0  0  0  0
  4  5  1  0  0  0  0
  4 25  1  0  0  0  0
  4 37  1  6  0  0  0
  5  6  2  0  0  0  0
  5  7  1  0  0  0  0
  7  8  1  0  0  0  0
  7 24  1  0  0  0  0
  8  9  2  0  0  0  0
  8 17  1  0  0  0  0
  9 10  1  0  0  0  0
  9 23  1  0  0  0  0
 10 11  2  0  0  0  0
 11 12  1  0  0  0  0
 11 22  1  0  0  0  0
 12 13  2  0  0  0  0
 12 17  1  0  0  0  0
 13 14  1  0  0  0  0
 13 21  1  0  0  0  0
 14 15  2  0  0  0  0
 14 20  1  0  0  0  0
 15 16  1  0  0  0  0
 15 19  1  0  0  0  0
 16 17  2  0  0  0  0
 16 18  1  0  0  0  0
 25 26  2  0  0  0  0
 25 31  1  0  0  0  0
 26 27  1  0  0  0  0
 26 36  1  0  0  0  0
 27 28  1  0  0  0  0
 27 29  2  0  0  0  0
 29 30  1  0  0  0  0
 29 35  1  0  0  0  0
 30 31  2  0  0  0  0
 30 34  1  0  0  0  0
 31 32  1  0  0  0  0
 32 33  2  0  0  0  0
M  END
>  <MODEL>
       1

$$$$
