tmp_first_model_6_83.pdb
 OpenBabel08272519583D

 46 50  0  0  1  0  0  0  0  0999 V2000
   -3.6220   -1.0700  -25.3520 N   0  0  0  0  0  0  0  0  0  0  0  0
   -4.5230   -2.0090  -26.3680 S   0  0  0  0  0  0  0  0  0  0  0  0
   -4.3110   -3.3690  -25.9120 O   0  0  0  0  0  0  0  0  0  0  0  0
   -4.1940   -1.5690  -27.7090 O   0  0  0  0  0  0  0  0  0  0  0  0
   -6.2270   -1.5850  -26.0850 C   0  0  0  0  0  0  0  0  0  0  0  0
   -6.9760   -0.9870  -27.0990 C   0  0  0  0  0  0  0  0  0  0  0  0
   -8.2860   -0.6290  -26.8450 C   0  0  0  0  0  0  0  0  0  0  0  0
   -8.8400   -0.8500  -25.5800 C   0  0  0  0  0  0  0  0  0  0  0  0
   -8.0960   -1.4550  -24.5660 C   0  0  0  0  0  0  0  0  0  0  0  0
   -6.7780   -1.8140  -24.8330 C   0  0  0  0  0  0  0  0  0  0  0  0
   -6.1780   -2.2870  -24.0590 H   0  0  0  0  0  0  0  0  0  0  0  0
   -8.6920   -1.6760  -23.1870 C   0  0  1  0  0  0  0  0  0  0  0  0
  -10.2230   -1.5920  -23.2490 C   0  0  0  0  0  0  0  0  0  0  0  0
  -10.6610   -0.4090  -24.0950 C   0  0  0  0  0  0  0  0  0  0  0  0
  -10.1330   -0.4880  -25.4170 O   0  0  0  0  0  0  0  0  0  0  0  0
  -10.3560    0.5340  -23.6220 H   0  0  0  0  0  0  0  0  0  0  0  0
  -11.7460   -0.4170  -24.2410 H   0  0  0  0  0  0  0  0  0  0  0  0
  -10.5980   -1.5140  -22.2270 H   0  0  0  0  0  0  0  0  0  0  0  0
  -10.6110   -2.5230  -23.6850 H   0  0  0  0  0  0  0  0  0  0  0  0
   -8.2730   -2.9110  -22.5660 N   0  0  0  0  0  0  0  0  0  0  0  0
   -7.4160   -2.7610  -21.5240 C   0  0  0  0  0  0  0  0  0  0  0  0
   -6.7400   -3.6030  -20.9810 O   0  0  0  0  0  0  0  0  0  0  0  0
   -7.4170   -1.3810  -21.2210 N   0  0  0  0  0  0  0  0  0  0  0  0
   -6.6030   -0.8170  -20.1970 C   0  0  0  0  0  0  0  0  0  0  0  0
   -6.9040   -1.0720  -18.8840 C   0  0  0  0  0  0  0  0  0  0  0  0
   -6.2140   -0.5610  -17.8350 N   0  0  0  0  0  0  0  0  0  0  0  0
   -5.1840    0.2030  -18.0980 C   0  0  0  0  0  0  0  0  0  0  0  0
   -4.7380    0.5260  -19.4070 C   0  0  0  0  0  0  0  0  0  0  0  0
   -3.6040    1.3540  -19.6310 C   0  0  0  0  0  0  0  0  0  0  0  0
   -3.2050    1.6460  -20.9040 C   0  0  0  0  0  0  0  0  0  0  0  0
   -3.9310    1.1310  -22.0000 C   0  0  0  0  0  0  0  0  0  0  0  0
   -5.0190    0.3160  -21.8120 C   0  0  0  0  0  0  0  0  0  0  0  0
   -5.4660    0.0040  -20.4990 C   0  0  0  0  0  0  0  0  0  0  0  0
   -5.5200   -0.1420  -22.6650 H   0  0  0  0  0  0  0  0  0  0  0  0
   -3.5740    1.3100  -23.0090 H   0  0  0  0  0  0  0  0  0  0  0  0
   -2.3230    2.2530  -21.0800 H   0  0  0  0  0  0  0  0  0  0  0  0
   -3.0760    1.7480  -18.7680 H   0  0  0  0  0  0  0  0  0  0  0  0
   -4.6420    0.6070  -17.2450 H   0  0  0  0  0  0  0  0  0  0  0  0
   -7.7530   -1.6970  -18.6230 H   0  0  0  0  0  0  0  0  0  0  0  0
   -8.1130   -0.6510  -22.1870 C   0  0  0  0  0  0  0  0  0  0  0  0
   -8.2220    0.5470  -22.2300 O   0  0  0  0  0  0  0  0  0  0  0  0
   -8.4290   -3.8140  -22.9840 H   0  0  0  0  0  0  0  0  0  0  0  0
   -8.9080   -0.1820  -27.6120 H   0  0  0  0  0  0  0  0  0  0  0  0
   -6.5220   -0.8160  -28.0710 H   0  0  0  0  0  0  0  0  0  0  0  0
   -3.7500   -0.0830  -25.5440 H   0  0  0  0  0  0  0  0  0  0  0  0
   -3.7100   -1.3520  -24.3800 H   0  0  0  0  0  0  0  0  0  0  0  0
  1  2  1  0  0  0  0
  1 45  1  0  0  0  0
  1 46  1  0  0  0  0
  2  3  2  0  0  0  0
  2  4  2  0  0  0  0
  2  5  1  0  0  0  0
  5  6  2  0  0  0  0
  5 10  1  0  0  0  0
  6  7  1  0  0  0  0
  6 44  1  0  0  0  0
  7  8  2  0  0  0  0
  7 43  1  0  0  0  0
  8  9  1  0  0  0  0
  8 15  1  0  0  0  0
  9 10  2  0  0  0  0
 10 11  1  0  0  0  0
 12  9  1  6  0  0  0
 12 13  1  0  0  0  0
 12 20  1  0  0  0  0
 12 40  1  0  0  0  0
 13 14  1  0  0  0  0
 13 18  1  0  0  0  0
 13 19  1  0  0  0  0
 14 15  1  0  0  0  0
 14 16  1  0  0  0  0
 14 17  1  0  0  0  0
 20 21  1  0  0  0  0
 20 42  1  0  0  0  0
 21 22  2  0  0  0  0
 21 23  1  0  0  0  0
 23 24  1  0  0  0  0
 23 40  1  0  0  0  0
 24 25  2  0  0  0  0
 24 33  1  0  0  0  0
 25 26  1  0  0  0  0
 25 39  1  0  0  0  0
 26 27  2  0  0  0  0
 27 28  1  0  0  0  0
 27 38  1  0  0  0  0
 28 29  2  0  0  0  0
 28 33  1  0  0  0  0
 29 30  1  0  0  0  0
 29 37  1  0  0  0  0
 30 31  2  0  0  0  0
 30 36  1  0  0  0  0
 31 32  1  0  0  0  0
 31 35  1  0  0  0  0
 32 33  2  0  0  0  0
 32 34  1  0  0  0  0
 40 41  2  0  0  0  0
M  END
>  <MODEL>
       1

$$$$
