tmp_first_model_14_92.pdb
 OpenBabel08282500413D

 60 65  0  0  1  0  0  0  0  0999 V2000
   -8.0090   -6.3800  -23.6470 C   0  0  0  0  0  0  0  0  0  0  0  0
   -8.2350   -5.2630  -22.8280 O   0  0  0  0  0  0  0  0  0  0  0  0
   -8.2700   -4.0650  -23.5660 C   0  0  0  0  0  0  0  0  0  0  0  0
   -8.4790   -2.9290  -22.5820 C   0  0  1  0  0  0  0  0  0  0  0  0
   -7.3210   -2.7350  -21.6020 C   0  0  0  0  0  0  0  0  0  0  0  0
   -7.4020   -1.3270  -21.2840 N   0  0  0  0  0  0  0  0  0  0  0  0
   -6.6190   -0.7450  -20.2620 C   0  0  0  0  0  0  0  0  0  0  0  0
   -6.9380   -0.9980  -18.9540 C   0  0  0  0  0  0  0  0  0  0  0  0
   -6.2700   -0.4920  -17.8930 N   0  0  0  0  0  0  0  0  0  0  0  0
   -5.2210    0.2530  -18.1400 C   0  0  0  0  0  0  0  0  0  0  0  0
   -4.7520    0.5530  -19.4490 C   0  0  0  0  0  0  0  0  0  0  0  0
   -3.6020    1.3580  -19.6560 C   0  0  0  0  0  0  0  0  0  0  0  0
   -3.1620    1.6240  -20.9220 C   0  0  0  0  0  0  0  0  0  0  0  0
   -3.8450    1.0890  -22.0390 C   0  0  0  0  0  0  0  0  0  0  0  0
   -4.9630    0.3090  -21.8670 C   0  0  0  0  0  0  0  0  0  0  0  0
   -5.4580    0.0370  -20.5580 C   0  0  0  0  0  0  0  0  0  0  0  0
   -5.4770   -0.0990  -22.7340 H   0  0  0  0  0  0  0  0  0  0  0  0
   -3.4850    1.3060  -23.0400 H   0  0  0  0  0  0  0  0  0  0  0  0
   -2.2890    2.2530  -21.0790 H   0  0  0  0  0  0  0  0  0  0  0  0
   -3.0900    1.7570  -18.7840 H   0  0  0  0  0  0  0  0  0  0  0  0
   -4.6850    0.6590  -17.2810 H   0  0  0  0  0  0  0  0  0  0  0  0
   -7.7920   -1.6340  -18.7230 H   0  0  0  0  0  0  0  0  0  0  0  0
   -8.2190   -0.5900  -22.1170 C   0  0  0  0  0  0  0  0  0  0  0  0
   -8.4000    0.6010  -22.0170 O   0  0  0  0  0  0  0  0  0  0  0  0
   -8.7450   -1.5300  -23.2130 C   0  0  1  0  0  0  0  0  0  0  0  0
   -7.8820   -1.2160  -24.4780 C   0  0  0  0  0  0  0  0  0  0  0  0
   -8.4270   -1.7610  -25.7210 N   0  0  0  0  0  0  0  0  0  0  0  0
   -7.5770   -2.1890  -26.8390 C   0  0  0  0  0  0  0  0  0  0  0  0
   -7.4050   -3.6840  -26.9470 C   0  0  0  0  0  0  0  0  0  0  0  0
   -6.2330   -4.4410  -26.7340 C   0  0  0  0  0  0  0  0  0  0  0  0
   -6.4180   -5.7370  -26.9780 N   0  0  0  0  0  0  0  0  0  0  0  0
   -7.7050   -5.8120  -27.3340 N   0  0  0  0  0  0  0  0  0  0  0  0
   -8.3470   -4.6180  -27.3330 C   0  0  0  0  0  0  0  0  0  0  0  0
   -9.3890   -4.5270  -27.6180 H   0  0  0  0  0  0  0  0  0  0  0  0
   -8.0870   -6.7110  -27.5650 H   0  0  0  0  0  0  0  0  0  0  0  0
   -5.2570   -4.1010  -26.4070 H   0  0  0  0  0  0  0  0  0  0  0  0
   -6.6010   -1.7060  -26.7470 H   0  0  0  0  0  0  0  0  0  0  0  0
   -8.0670   -1.8200  -27.7480 H   0  0  0  0  0  0  0  0  0  0  0  0
   -9.7680   -1.8140  -25.9730 C   0  0  0  0  0  0  0  0  0  0  0  0
  -10.2200   -2.1390  -27.0660 O   0  0  0  0  0  0  0  0  0  0  0  0
  -10.6780   -1.4920  -24.8390 C   0  0  0  0  0  0  0  0  0  0  0  0
  -12.0310   -1.4150  -25.1530 C   0  0  0  0  0  0  0  0  0  0  0  0
  -12.9710   -1.2900  -24.1530 C   0  0  0  0  0  0  0  0  0  0  0  0
  -12.5310   -1.2720  -22.8320 C   0  0  0  0  0  0  0  0  0  0  0  0
  -13.7620   -1.3960  -21.6030 Cl  0  0  0  0  0  0  0  0  0  0  0  0
  -11.1840   -1.2520  -22.5050 C   0  0  0  0  0  0  0  0  0  0  0  0
  -10.2200   -1.3610  -23.5250 C   0  0  0  0  0  0  0  0  0  0  0  0
  -10.9160   -1.1580  -21.4590 H   0  0  0  0  0  0  0  0  0  0  0  0
  -14.0350   -1.2680  -24.3460 H   0  0  0  0  0  0  0  0  0  0  0  0
  -12.2910   -1.5200  -26.2030 H   0  0  0  0  0  0  0  0  0  0  0  0
   -6.8660   -1.6050  -24.3250 H   0  0  0  0  0  0  0  0  0  0  0  0
   -7.7850   -0.1230  -24.5480 H   0  0  0  0  0  0  0  0  0  0  0  0
   -7.4400   -3.3210  -20.6940 H   0  0  0  0  0  0  0  0  0  0  0  0
   -6.3470   -3.0020  -22.0370 H   0  0  0  0  0  0  0  0  0  0  0  0
   -9.3660   -3.1780  -21.9870 H   0  0  0  0  0  0  0  0  0  0  0  0
   -7.3300   -3.9210  -24.1240 H   0  0  0  0  0  0  0  0  0  0  0  0
   -9.0960   -4.0770  -24.2960 H   0  0  0  0  0  0  0  0  0  0  0  0
   -7.9970   -7.2680  -23.0080 H   0  0  0  0  0  0  0  0  0  0  0  0
   -7.0460   -6.3030  -24.1730 H   0  0  0  0  0  0  0  0  0  0  0  0
   -8.8100   -6.4990  -24.3940 H   0  0  0  0  0  0  0  0  0  0  0  0
  1  2  1  0  0  0  0
  1 58  1  0  0  0  0
  1 59  1  0  0  0  0
  1 60  1  0  0  0  0
  2  3  1  0  0  0  0
  3  4  1  0  0  0  0
  3 56  1  0  0  0  0
  3 57  1  0  0  0  0
  4  5  1  0  0  0  0
  4 25  1  0  0  0  0
  4 55  1  1  0  0  0
  5  6  1  0  0  0  0
  5 53  1  0  0  0  0
  5 54  1  0  0  0  0
  6  7  1  0  0  0  0
  6 23  1  0  0  0  0
  7  8  2  0  0  0  0
  7 16  1  0  0  0  0
  8  9  1  0  0  0  0
  8 22  1  0  0  0  0
  9 10  2  0  0  0  0
 10 11  1  0  0  0  0
 10 21  1  0  0  0  0
 11 12  2  0  0  0  0
 11 16  1  0  0  0  0
 12 13  1  0  0  0  0
 12 20  1  0  0  0  0
 13 14  2  0  0  0  0
 13 19  1  0  0  0  0
 14 15  1  0  0  0  0
 14 18  1  0  0  0  0
 15 16  2  0  0  0  0
 15 17  1  0  0  0  0
 23 24  2  0  0  0  0
 25 23  1  1  0  0  0
 25 26  1  0  0  0  0
 25 47  1  0  0  0  0
 26 27  1  0  0  0  0
 26 51  1  0  0  0  0
 26 52  1  0  0  0  0
 27 28  1  0  0  0  0
 27 39  1  0  0  0  0
 28 29  1  0  0  0  0
 28 37  1  0  0  0  0
 28 38  1  0  0  0  0
 29 30  1  0  0  0  0
 29 33  2  0  0  0  0
 30 31  2  0  0  0  0
 30 36  1  0  0  0  0
 31 32  1  0  0  0  0
 32 33  1  0  0  0  0
 32 35  1  0  0  0  0
 33 34  1  0  0  0  0
 39 40  2  0  0  0  0
 39 41  1  0  0  0  0
 41 42  2  0  0  0  0
 41 47  1  0  0  0  0
 42 43  1  0  0  0  0
 42 50  1  0  0  0  0
 43 44  2  0  0  0  0
 43 49  1  0  0  0  0
 44 45  1  0  0  0  0
 44 46  1  0  0  0  0
 46 47  2  0  0  0  0
 46 48  1  0  0  0  0
M  END
>  <MODEL>
       1

$$$$
