tmp_first_model_19_44.pdb
 OpenBabel08282503233D

 60 64  0  0  1  0  0  0  0  0999 V2000
   -7.4360    3.3910  -21.7810 C   0  0  0  0  0  0  0  0  0  0  0  0
   -8.2720    2.8990  -22.8540 N   0  0  0  0  0  0  0  0  0  0  0  0
   -7.7000    2.2210  -23.8710 C   0  0  0  0  0  0  0  0  0  0  0  0
   -6.4840    2.1210  -23.9980 O   0  0  0  0  0  0  0  0  0  0  0  0
   -8.6570    1.6030  -24.8940 C   0  0  0  0  0  0  0  0  0  0  0  0
   -9.3840    0.4530  -24.3930 N   0  0  0  0  0  0  0  0  0  0  0  0
   -8.6740   -0.8030  -24.2280 C   0  0  0  0  0  0  0  0  0  0  0  0
   -9.0610   -1.5170  -22.9080 C   0  0  2  0  0  0  0  0  0  0  0  0
   -8.5130   -0.7280  -21.6890 C   0  0  0  0  0  0  0  0  0  0  0  0
   -8.9570    0.2990  -21.2140 O   0  0  0  0  0  0  0  0  0  0  0  0
   -7.4050   -1.3820  -21.2050 N   0  0  0  0  0  0  0  0  0  0  0  0
   -6.6060   -0.8090  -20.1800 C   0  0  0  0  0  0  0  0  0  0  0  0
   -6.9110   -1.0440  -18.8640 C   0  0  0  0  0  0  0  0  0  0  0  0
   -6.2040   -0.5600  -17.8160 N   0  0  0  0  0  0  0  0  0  0  0  0
   -5.1690    0.2020  -18.0810 C   0  0  0  0  0  0  0  0  0  0  0  0
   -4.7310    0.5250  -19.3980 C   0  0  0  0  0  0  0  0  0  0  0  0
   -3.6010    1.3560  -19.6430 C   0  0  0  0  0  0  0  0  0  0  0  0
   -3.2160    1.6500  -20.9220 C   0  0  0  0  0  0  0  0  0  0  0  0
   -3.9400    1.1260  -22.0160 C   0  0  0  0  0  0  0  0  0  0  0  0
   -5.0350    0.3210  -21.8050 C   0  0  0  0  0  0  0  0  0  0  0  0
   -5.4670    0.0030  -20.4880 C   0  0  0  0  0  0  0  0  0  0  0  0
   -5.5950   -0.0630  -22.6520 H   0  0  0  0  0  0  0  0  0  0  0  0
   -3.6500    1.3740  -23.0310 H   0  0  0  0  0  0  0  0  0  0  0  0
   -2.3660    2.3030  -21.0980 H   0  0  0  0  0  0  0  0  0  0  0  0
   -3.0740    1.7670  -18.7860 H   0  0  0  0  0  0  0  0  0  0  0  0
   -4.6250    0.6090  -17.2290 H   0  0  0  0  0  0  0  0  0  0  0  0
   -7.7660   -1.6660  -18.6080 H   0  0  0  0  0  0  0  0  0  0  0  0
   -7.0710   -2.5980  -21.9200 C   0  0  0  0  0  0  0  0  0  0  0  0
   -8.3310   -2.8890  -22.7580 C   0  0  2  0  0  0  0  0  0  0  0  0
   -7.9810   -3.6560  -24.0300 C   0  0  0  0  0  0  0  0  0  0  0  0
   -9.1480   -3.9440  -24.7570 O   0  0  0  0  0  0  0  0  0  0  0  0
   -8.8660   -4.5840  -25.9780 C   0  0  0  0  0  0  0  0  0  0  0  0
   -8.2710   -3.9450  -26.6500 H   0  0  0  0  0  0  0  0  0  0  0  0
   -8.3100   -5.5210  -25.8230 H   0  0  0  0  0  0  0  0  0  0  0  0
   -9.8200   -4.8110  -26.4560 H   0  0  0  0  0  0  0  0  0  0  0  0
   -7.2810   -3.0660  -24.6460 H   0  0  0  0  0  0  0  0  0  0  0  0
   -7.4620   -4.5970  -23.7760 H   0  0  0  0  0  0  0  0  0  0  0  0
   -9.0060   -3.5210  -22.1830 H   0  0  0  0  0  0  0  0  0  0  0  0
   -6.1910   -2.4460  -22.5660 H   0  0  0  0  0  0  0  0  0  0  0  0
   -6.8290   -3.4070  -21.2200 H   0  0  0  0  0  0  0  0  0  0  0  0
  -10.5780   -1.5600  -22.8390 C   0  0  0  0  0  0  0  0  0  0  0  0
  -11.2140   -2.4420  -21.9570 C   0  0  0  0  0  0  0  0  0  0  0  0
  -12.5930   -2.4570  -21.8640 C   0  0  0  0  0  0  0  0  0  0  0  0
  -13.3680   -3.5540  -20.7600 Cl  0  0  0  0  0  0  0  0  0  0  0  0
  -13.3800   -1.5930  -22.6250 C   0  0  0  0  0  0  0  0  0  0  0  0
  -12.7590   -0.6700  -23.4430 C   0  0  0  0  0  0  0  0  0  0  0  0
  -11.3690   -0.6250  -23.5250 C   0  0  0  0  0  0  0  0  0  0  0  0
  -10.7440    0.5180  -24.2660 C   0  0  0  0  0  0  0  0  0  0  0  0
  -11.4020    1.4630  -24.6860 O   0  0  0  0  0  0  0  0  0  0  0  0
  -13.3200    0.0610  -24.0170 H   0  0  0  0  0  0  0  0  0  0  0  0
  -14.4590   -1.6350  -22.5440 H   0  0  0  0  0  0  0  0  0  0  0  0
  -10.6410   -3.0960  -21.3100 H   0  0  0  0  0  0  0  0  0  0  0  0
   -8.8870   -1.4840  -25.0660 H   0  0  0  0  0  0  0  0  0  0  0  0
   -7.6060   -0.5630  -24.2110 H   0  0  0  0  0  0  0  0  0  0  0  0
   -9.4350    2.3070  -25.2040 H   0  0  0  0  0  0  0  0  0  0  0  0
   -8.0290    1.3320  -25.7500 H   0  0  0  0  0  0  0  0  0  0  0  0
   -9.2670    2.8140  -22.7000 H   0  0  0  0  0  0  0  0  0  0  0  0
   -6.6930    4.1040  -22.1580 H   0  0  0  0  0  0  0  0  0  0  0  0
   -6.9040    2.5610  -21.2870 H   0  0  0  0  0  0  0  0  0  0  0  0
   -8.0850    3.9140  -21.0840 H   0  0  0  0  0  0  0  0  0  0  0  0
  1  2  1  0  0  0  0
  1 58  1  0  0  0  0
  1 59  1  0  0  0  0
  1 60  1  0  0  0  0
  2  3  1  0  0  0  0
  2 57  1  0  0  0  0
  3  4  2  0  0  0  0
  3  5  1  0  0  0  0
  5  6  1  0  0  0  0
  5 55  1  0  0  0  0
  5 56  1  0  0  0  0
  6  7  1  0  0  0  0
  6 48  1  0  0  0  0
  7  8  1  0  0  0  0
  7 53  1  0  0  0  0
  7 54  1  0  0  0  0
  8  9  1  1  0  0  0
  8 29  1  0  0  0  0
  8 41  1  0  0  0  0
  9 10  2  0  0  0  0
  9 11  1  0  0  0  0
 11 12  1  0  0  0  0
 11 28  1  0  0  0  0
 12 13  2  0  0  0  0
 12 21  1  0  0  0  0
 13 14  1  0  0  0  0
 13 27  1  0  0  0  0
 14 15  2  0  0  0  0
 15 16  1  0  0  0  0
 15 26  1  0  0  0  0
 16 17  2  0  0  0  0
 16 21  1  0  0  0  0
 17 18  1  0  0  0  0
 17 25  1  0  0  0  0
 18 19  2  0  0  0  0
 18 24  1  0  0  0  0
 19 20  1  0  0  0  0
 19 23  1  0  0  0  0
 20 21  2  0  0  0  0
 20 22  1  0  0  0  0
 28 29  1  0  0  0  0
 28 39  1  0  0  0  0
 28 40  1  0  0  0  0
 29 30  1  0  0  0  0
 29 38  1  1  0  0  0
 30 31  1  0  0  0  0
 30 36  1  0  0  0  0
 30 37  1  0  0  0  0
 31 32  1  0  0  0  0
 32 33  1  0  0  0  0
 32 34  1  0  0  0  0
 32 35  1  0  0  0  0
 41 42  2  0  0  0  0
 41 47  1  0  0  0  0
 42 43  1  0  0  0  0
 42 52  1  0  0  0  0
 43 44  1  0  0  0  0
 43 45  2  0  0  0  0
 45 46  1  0  0  0  0
 45 51  1  0  0  0  0
 46 47  2  0  0  0  0
 46 50  1  0  0  0  0
 47 48  1  0  0  0  0
 48 49  2  0  0  0  0
M  END
>  <MODEL>
       1

$$$$
