tmp_first_model_5_76.pdb
 OpenBabel08272519233D

 66 71  0  0  1  0  0  0  0  0999 V2000
   -8.0120   -3.6140  -24.0570 C   0  0  0  0  0  0  0  0  0  0  0  0
   -8.3450   -2.7820  -22.8280 C   0  0  1  0  0  0  0  0  0  0  0  0
   -7.1670   -2.6340  -21.8690 C   0  0  0  0  0  0  0  0  0  0  0  0
   -7.4610   -1.3970  -21.1840 N   0  0  0  0  0  0  0  0  0  0  0  0
   -6.5630   -0.9320  -20.2040 C   0  0  0  0  0  0  0  0  0  0  0  0
   -6.8330   -1.1320  -18.8820 C   0  0  0  0  0  0  0  0  0  0  0  0
   -5.9640   -0.8700  -17.8780 N   0  0  0  0  0  0  0  0  0  0  0  0
   -4.7980   -0.3650  -18.2160 C   0  0  0  0  0  0  0  0  0  0  0  0
   -4.4280   -0.0420  -19.5530 C   0  0  0  0  0  0  0  0  0  0  0  0
   -3.2560    0.7090  -19.8290 C   0  0  0  0  0  0  0  0  0  0  0  0
   -3.1540    1.3910  -21.0080 C   0  0  0  0  0  0  0  0  0  0  0  0
   -4.0640    1.1260  -22.0630 C   0  0  0  0  0  0  0  0  0  0  0  0
   -5.0800    0.2240  -21.8800 C   0  0  0  0  0  0  0  0  0  0  0  0
   -5.3550   -0.2840  -20.5800 C   0  0  0  0  0  0  0  0  0  0  0  0
   -5.6640   -0.1190  -22.7280 H   0  0  0  0  0  0  0  0  0  0  0  0
   -3.9070    1.5960  -23.0300 H   0  0  0  0  0  0  0  0  0  0  0  0
   -2.3050    2.0390  -21.1800 H   0  0  0  0  0  0  0  0  0  0  0  0
   -2.5240    0.8010  -19.0360 H   0  0  0  0  0  0  0  0  0  0  0  0
   -4.1070   -0.0990  -17.4130 H   0  0  0  0  0  0  0  0  0  0  0  0
   -7.8100   -1.5210  -18.6070 H   0  0  0  0  0  0  0  0  0  0  0  0
   -8.3480   -0.5750  -21.8380 C   0  0  0  0  0  0  0  0  0  0  0  0
   -8.6300    0.5620  -21.4970 O   0  0  0  0  0  0  0  0  0  0  0  0
   -8.8800   -1.3370  -23.0720 C   0  0  1  0  0  0  0  0  0  0  0  0
   -8.3120   -0.7210  -24.3780 C   0  0  0  0  0  0  0  0  0  0  0  0
   -8.8900    0.5780  -24.6710 N   0  0  0  0  0  0  0  0  0  0  0  0
   -8.0250    1.6160  -25.2080 C   0  0  0  0  0  0  0  0  0  0  0  0
   -7.3150    2.3820  -24.1010 C   0  0  0  0  0  0  0  0  0  0  0  0
   -8.2500    3.2110  -23.2850 N   0  3  0  0  0  0  0  0  0  0  0  0
   -8.8450    4.3470  -24.0960 C   0  0  0  0  0  0  0  0  0  0  0  0
   -9.2060    5.5320  -23.2170 C   0  0  0  0  0  0  0  0  0  0  0  0
   -8.0930    6.0840  -22.5340 O   0  0  0  0  0  0  0  0  0  0  0  0
   -7.0710    5.1550  -22.2060 C   0  0  0  0  0  0  0  0  0  0  0  0
   -7.5850    3.7330  -22.0330 C   0  0  0  0  0  0  0  0  0  0  0  0
   -6.7700    3.0530  -21.7680 H   0  0  0  0  0  0  0  0  0  0  0  0
   -8.3050    3.6990  -21.2190 H   0  0  0  0  0  0  0  0  0  0  0  0
   -6.6260    5.4950  -21.2650 H   0  0  0  0  0  0  0  0  0  0  0  0
   -6.2840    5.1780  -22.9770 H   0  0  0  0  0  0  0  0  0  0  0  0
   -9.6140    6.3340  -23.8420 H   0  0  0  0  0  0  0  0  0  0  0  0
   -9.9870    5.2400  -22.4980 H   0  0  0  0  0  0  0  0  0  0  0  0
   -9.7300    3.9780  -24.6160 H   0  0  0  0  0  0  0  0  0  0  0  0
   -8.1080    4.6610  -24.8440 H   0  0  0  0  0  0  0  0  0  0  0  0
   -9.0170    2.5930  -22.9660 H   0  0  0  0  0  0  0  0  0  0  0  0
   -6.8310    1.6690  -23.4300 H   0  0  0  0  0  0  0  0  0  0  0  0
   -6.5320    3.0200  -24.5270 H   0  0  0  0  0  0  0  0  0  0  0  0
   -8.6400    2.2730  -25.8250 H   0  0  0  0  0  0  0  0  0  0  0  0
   -7.2820    1.1470  -25.8630 H   0  0  0  0  0  0  0  0  0  0  0  0
  -10.2360    0.7760  -24.6180 C   0  0  0  0  0  0  0  0  0  0  0  0
  -10.7810    1.8000  -25.0200 O   0  0  0  0  0  0  0  0  0  0  0  0
  -11.0230   -0.3300  -23.9920 C   0  0  0  0  0  0  0  0  0  0  0  0
  -12.3950   -0.4000  -24.2230 C   0  0  0  0  0  0  0  0  0  0  0  0
  -13.1630   -1.3650  -23.6010 C   0  0  0  0  0  0  0  0  0  0  0  0
  -12.5550   -2.1510  -22.6180 C   0  0  0  0  0  0  0  0  0  0  0  0
  -13.5240   -3.2520  -21.6680 Cl  0  0  0  0  0  0  0  0  0  0  0  0
  -11.1970   -2.0820  -22.3710 C   0  0  0  0  0  0  0  0  0  0  0  0
  -10.3890   -1.2530  -23.1560 C   0  0  0  0  0  0  0  0  0  0  0  0
  -10.7760   -2.6670  -21.5610 H   0  0  0  0  0  0  0  0  0  0  0  0
  -14.2270   -1.4590  -23.7930 H   0  0  0  0  0  0  0  0  0  0  0  0
  -12.8510    0.3250  -24.8800 H   0  0  0  0  0  0  0  0  0  0  0  0
   -7.2260   -0.6190  -24.3070 H   0  0  0  0  0  0  0  0  0  0  0  0
   -8.5050   -1.4080  -25.2130 H   0  0  0  0  0  0  0  0  0  0  0  0
   -7.1150   -3.4540  -21.1470 H   0  0  0  0  0  0  0  0  0  0  0  0
   -6.2030   -2.6040  -22.3990 H   0  0  0  0  0  0  0  0  0  0  0  0
   -9.1260   -3.3040  -22.2740 H   0  0  0  0  0  0  0  0  0  0  0  0
   -7.7080   -4.6190  -23.7490 H   0  0  0  0  0  0  0  0  0  0  0  0
   -8.8710   -3.7050  -24.7300 H   0  0  0  0  0  0  0  0  0  0  0  0
   -7.1780   -3.1730  -24.6140 H   0  0  0  0  0  0  0  0  0  0  0  0
  1  2  1  0  0  0  0
  1 64  1  0  0  0  0
  1 65  1  0  0  0  0
  1 66  1  0  0  0  0
  2  3  1  0  0  0  0
  2 23  1  0  0  0  0
  2 63  1  1  0  0  0
  3  4  1  0  0  0  0
  3 61  1  0  0  0  0
  3 62  1  0  0  0  0
  4  5  1  0  0  0  0
  4 21  1  0  0  0  0
  5  6  2  0  0  0  0
  5 14  1  0  0  0  0
  6  7  1  0  0  0  0
  6 20  1  0  0  0  0
  7  8  2  0  0  0  0
  8  9  1  0  0  0  0
  8 19  1  0  0  0  0
  9 10  2  0  0  0  0
  9 14  1  0  0  0  0
 10 11  1  0  0  0  0
 10 18  1  0  0  0  0
 11 12  2  0  0  0  0
 11 17  1  0  0  0  0
 12 13  1  0  0  0  0
 12 16  1  0  0  0  0
 13 14  2  0  0  0  0
 13 15  1  0  0  0  0
 21 22  2  0  0  0  0
 23 21  1  1  0  0  0
 23 24  1  0  0  0  0
 23 55  1  0  0  0  0
 24 25  1  0  0  0  0
 24 59  1  0  0  0  0
 24 60  1  0  0  0  0
 25 26  1  0  0  0  0
 25 47  1  0  0  0  0
 26 27  1  0  0  0  0
 26 45  1  0  0  0  0
 26 46  1  0  0  0  0
 27 28  1  0  0  0  0
 27 43  1  0  0  0  0
 27 44  1  0  0  0  0
 28 29  1  0  0  0  0
 28 33  1  0  0  0  0
 28 42  1  0  0  0  0
 29 30  1  0  0  0  0
 29 40  1  0  0  0  0
 29 41  1  0  0  0  0
 30 31  1  0  0  0  0
 30 38  1  0  0  0  0
 30 39  1  0  0  0  0
 31 32  1  0  0  0  0
 32 33  1  0  0  0  0
 32 36  1  0  0  0  0
 32 37  1  0  0  0  0
 33 34  1  0  0  0  0
 33 35  1  0  0  0  0
 47 48  2  0  0  0  0
 47 49  1  0  0  0  0
 49 50  2  0  0  0  0
 49 55  1  0  0  0  0
 50 51  1  0  0  0  0
 50 58  1  0  0  0  0
 51 52  2  0  0  0  0
 51 57  1  0  0  0  0
 52 53  1  0  0  0  0
 52 54  1  0  0  0  0
 54 55  2  0  0  0  0
 54 56  1  0  0  0  0
M  CHG  1  28   1
M  END
>  <MODEL>
       1

$$$$
