tmp_first_model_6_90.pdb
 OpenBabel08272519583D

 64 68  0  0  1  0  0  0  0  0999 V2000
   -6.8820    3.3950  -23.2090 C   0  0  0  0  0  0  0  0  0  0  0  0
   -7.5460    2.6070  -24.2240 N   0  0  0  0  0  0  0  0  0  0  0  0
   -6.9260    1.5810  -24.8380 C   0  0  0  0  0  0  0  0  0  0  0  0
   -5.7280    1.3420  -24.7280 O   0  0  0  0  0  0  0  0  0  0  0  0
   -7.8580    0.7150  -25.7010 C   0  0  0  0  0  0  0  0  0  0  0  0
   -8.8530    0.0250  -24.8890 N   0  0  0  0  0  0  0  0  0  0  0  0
   -8.5410   -1.2920  -24.3520 C   0  0  0  0  0  0  0  0  0  0  0  0
   -9.0910   -1.4960  -22.9060 C   0  0  2  0  0  0  0  0  0  0  0  0
   -8.3520   -0.5490  -21.9170 C   0  0  0  0  0  0  0  0  0  0  0  0
   -8.5220    0.6410  -21.7480 O   0  0  0  0  0  0  0  0  0  0  0  0
   -7.4320   -1.2980  -21.2190 N   0  0  0  0  0  0  0  0  0  0  0  0
   -6.6400   -0.7560  -20.1850 C   0  0  0  0  0  0  0  0  0  0  0  0
   -6.9200   -1.0750  -18.8810 C   0  0  0  0  0  0  0  0  0  0  0  0
   -6.2290   -0.6090  -17.8160 N   0  0  0  0  0  0  0  0  0  0  0  0
   -5.2120    0.1840  -18.0590 C   0  0  0  0  0  0  0  0  0  0  0  0
   -4.7950    0.5680  -19.3650 C   0  0  0  0  0  0  0  0  0  0  0  0
   -3.6620    1.3970  -19.5800 C   0  0  0  0  0  0  0  0  0  0  0  0
   -3.2880    1.7540  -20.8470 C   0  0  0  0  0  0  0  0  0  0  0  0
   -4.0360    1.3070  -21.9580 C   0  0  0  0  0  0  0  0  0  0  0  0
   -5.1290    0.4950  -21.7780 C   0  0  0  0  0  0  0  0  0  0  0  0
   -5.5360    0.1000  -20.4730 C   0  0  0  0  0  0  0  0  0  0  0  0
   -5.6840    0.1700  -22.6520 H   0  0  0  0  0  0  0  0  0  0  0  0
   -3.7670    1.5990  -22.9690 H   0  0  0  0  0  0  0  0  0  0  0  0
   -2.4210    2.3880  -21.0070 H   0  0  0  0  0  0  0  0  0  0  0  0
   -3.1070    1.7400  -18.7120 H   0  0  0  0  0  0  0  0  0  0  0  0
   -4.6570    0.5610  -17.1990 H   0  0  0  0  0  0  0  0  0  0  0  0
   -7.7610   -1.7320  -18.6550 H   0  0  0  0  0  0  0  0  0  0  0  0
   -7.3700   -2.6850  -21.5950 C   0  0  0  0  0  0  0  0  0  0  0  0
   -8.6970   -2.8890  -22.3440 C   0  0  2  0  0  0  0  0  0  0  0  0
   -8.6280   -4.0240  -23.3700 C   0  0  0  0  0  0  0  0  0  0  0  0
   -8.4940   -5.5970  -22.5530 S   0  0  0  0  0  0  0  0  0  0  0  0
   -9.6440   -5.7090  -21.6690 O   0  0  0  0  0  0  0  0  0  0  0  0
   -7.1490   -5.7570  -22.0230 O   0  0  0  0  0  0  0  0  0  0  0  0
   -8.5900   -6.6600  -23.8280 N   0  0  0  0  0  0  0  0  0  0  0  0
   -9.8760   -6.9470  -24.4530 C   0  0  0  0  0  0  0  0  0  0  0  0
   -9.7550   -7.8520  -25.0530 H   0  0  0  0  0  0  0  0  0  0  0  0
  -10.6890   -7.0960  -23.7360 H   0  0  0  0  0  0  0  0  0  0  0  0
  -10.1470   -6.1370  -25.1350 H   0  0  0  0  0  0  0  0  0  0  0  0
   -8.0370   -7.4750  -23.5900 H   0  0  0  0  0  0  0  0  0  0  0  0
   -7.7470   -3.9380  -24.0130 H   0  0  0  0  0  0  0  0  0  0  0  0
   -9.5320   -4.0530  -23.9880 H   0  0  0  0  0  0  0  0  0  0  0  0
   -9.4460   -3.1500  -21.5920 H   0  0  0  0  0  0  0  0  0  0  0  0
   -7.2910   -3.3200  -20.7140 H   0  0  0  0  0  0  0  0  0  0  0  0
   -6.4940   -2.9030  -22.2260 H   0  0  0  0  0  0  0  0  0  0  0  0
  -10.5830   -1.1930  -22.9560 C   0  0  0  0  0  0  0  0  0  0  0  0
  -11.5510   -1.8530  -22.1780 C   0  0  0  0  0  0  0  0  0  0  0  0
  -12.8770   -1.4730  -22.3010 C   0  0  0  0  0  0  0  0  0  0  0  0
  -13.8070   -2.0790  -21.5400 F   0  0  0  0  0  0  0  0  0  0  0  0
  -13.3080   -0.4870  -23.1760 C   0  0  0  0  0  0  0  0  0  0  0  0
  -12.3480    0.2200  -23.8780 C   0  0  0  0  0  0  0  0  0  0  0  0
  -11.0010   -0.1300  -23.7710 C   0  0  0  0  0  0  0  0  0  0  0  0
  -10.0080    0.6610  -24.5650 C   0  0  0  0  0  0  0  0  0  0  0  0
  -10.2330    1.8330  -24.8880 O   0  0  0  0  0  0  0  0  0  0  0  0
  -12.6280    1.0510  -24.5120 H   0  0  0  0  0  0  0  0  0  0  0  0
  -14.3700   -0.2870  -23.2750 H   0  0  0  0  0  0  0  0  0  0  0  0
  -11.2930   -2.6250  -21.4600 H   0  0  0  0  0  0  0  0  0  0  0  0
   -8.9870   -2.0490  -25.0110 H   0  0  0  0  0  0  0  0  0  0  0  0
   -7.4520   -1.4100  -24.3530 H   0  0  0  0  0  0  0  0  0  0  0  0
   -7.2410   -0.0100  -26.2390 H   0  0  0  0  0  0  0  0  0  0  0  0
   -8.3840    1.3450  -26.4260 H   0  0  0  0  0  0  0  0  0  0  0  0
   -8.5450    2.6930  -24.3630 H   0  0  0  0  0  0  0  0  0  0  0  0
   -6.5220    2.7600  -22.3880 H   0  0  0  0  0  0  0  0  0  0  0  0
   -6.0240    3.9240  -23.6320 H   0  0  0  0  0  0  0  0  0  0  0  0
   -7.5950    4.1160  -22.8050 H   0  0  0  0  0  0  0  0  0  0  0  0
  1  2  1  0  0  0  0
  1 62  1  0  0  0  0
  1 63  1  0  0  0  0
  1 64  1  0  0  0  0
  2  3  1  0  0  0  0
  2 61  1  0  0  0  0
  3  4  2  0  0  0  0
  3  5  1  0  0  0  0
  5  6  1  0  0  0  0
  5 59  1  0  0  0  0
  5 60  1  0  0  0  0
  6  7  1  0  0  0  0
  6 52  1  0  0  0  0
  7  8  1  0  0  0  0
  7 57  1  0  0  0  0
  7 58  1  0  0  0  0
  8  9  1  1  0  0  0
  8 29  1  0  0  0  0
  8 45  1  0  0  0  0
  9 10  2  0  0  0  0
  9 11  1  0  0  0  0
 11 12  1  0  0  0  0
 11 28  1  0  0  0  0
 12 13  2  0  0  0  0
 12 21  1  0  0  0  0
 13 14  1  0  0  0  0
 13 27  1  0  0  0  0
 14 15  2  0  0  0  0
 15 16  1  0  0  0  0
 15 26  1  0  0  0  0
 16 17  2  0  0  0  0
 16 21  1  0  0  0  0
 17 18  1  0  0  0  0
 17 25  1  0  0  0  0
 18 19  2  0  0  0  0
 18 24  1  0  0  0  0
 19 20  1  0  0  0  0
 19 23  1  0  0  0  0
 20 21  2  0  0  0  0
 20 22  1  0  0  0  0
 28 29  1  0  0  0  0
 28 43  1  0  0  0  0
 28 44  1  0  0  0  0
 29 30  1  0  0  0  0
 29 42  1  1  0  0  0
 30 31  1  0  0  0  0
 30 40  1  0  0  0  0
 30 41  1  0  0  0  0
 31 32  2  0  0  0  0
 31 33  2  0  0  0  0
 31 34  1  0  0  0  0
 34 35  1  0  0  0  0
 34 39  1  0  0  0  0
 35 36  1  0  0  0  0
 35 37  1  0  0  0  0
 35 38  1  0  0  0  0
 45 46  2  0  0  0  0
 45 51  1  0  0  0  0
 46 47  1  0  0  0  0
 46 56  1  0  0  0  0
 47 48  1  0  0  0  0
 47 49  2  0  0  0  0
 49 50  1  0  0  0  0
 49 55  1  0  0  0  0
 50 51  2  0  0  0  0
 50 54  1  0  0  0  0
 51 52  1  0  0  0  0
 52 53  2  0  0  0  0
M  END
>  <MODEL>
       1

$$$$
