tmp_first_model_12_56.pdb
 OpenBabel08272523333D

 57 62  0  0  1  0  0  0  0  0999 V2000
   -7.4650   -3.4730  -23.8030 C   0  0  0  0  0  0  0  0  0  0  0  0
   -8.3700   -2.9040  -22.7040 C   0  0  1  0  0  0  0  0  0  0  0  0
   -7.6390   -2.7390  -21.3540 C   0  0  0  0  0  0  0  0  0  0  0  0
   -7.3950   -1.3150  -21.2490 N   0  0  0  0  0  0  0  0  0  0  0  0
   -6.6260   -0.7440  -20.2080 C   0  0  0  0  0  0  0  0  0  0  0  0
   -6.8950   -1.0660  -18.9020 C   0  0  0  0  0  0  0  0  0  0  0  0
   -6.2130   -0.5880  -17.8330 N   0  0  0  0  0  0  0  0  0  0  0  0
   -5.1970    0.2040  -18.0750 C   0  0  0  0  0  0  0  0  0  0  0  0
   -4.7850    0.5880  -19.3820 C   0  0  0  0  0  0  0  0  0  0  0  0
   -3.6410    1.4060  -19.5830 C   0  0  0  0  0  0  0  0  0  0  0  0
   -3.2640    1.7700  -20.8450 C   0  0  0  0  0  0  0  0  0  0  0  0
   -4.0340    1.3650  -21.9560 C   0  0  0  0  0  0  0  0  0  0  0  0
   -5.1420    0.5700  -21.7920 C   0  0  0  0  0  0  0  0  0  0  0  0
   -5.5360    0.1400  -20.4930 C   0  0  0  0  0  0  0  0  0  0  0  0
   -5.7220    0.2820  -22.6630 H   0  0  0  0  0  0  0  0  0  0  0  0
   -3.7420    1.6820  -22.9570 H   0  0  0  0  0  0  0  0  0  0  0  0
   -2.3810    2.3810  -21.0060 H   0  0  0  0  0  0  0  0  0  0  0  0
   -3.0770    1.7260  -18.7110 H   0  0  0  0  0  0  0  0  0  0  0  0
   -4.6390    0.5840  -17.2170 H   0  0  0  0  0  0  0  0  0  0  0  0
   -7.7260   -1.7280  -18.6640 H   0  0  0  0  0  0  0  0  0  0  0  0
   -8.2640   -0.5660  -22.0150 C   0  0  0  0  0  0  0  0  0  0  0  0
   -8.3980    0.6330  -21.9230 O   0  0  0  0  0  0  0  0  0  0  0  0
   -9.0130   -1.5100  -22.9860 C   0  0  1  0  0  0  0  0  0  0  0  0
   -8.8210   -1.0290  -24.4490 C   0  0  0  0  0  0  0  0  0  0  0  0
   -9.4780    0.2420  -24.7000 N   0  0  0  0  0  0  0  0  0  0  0  0
   -8.7850    1.2960  -25.4250 C   0  0  0  0  0  0  0  0  0  0  0  0
   -8.2180    2.3320  -24.4880 C   0  0  0  0  0  0  0  0  0  0  0  0
   -6.9200    2.2430  -24.1960 N   0  0  0  0  0  0  0  0  0  0  0  0
   -6.4510    3.2020  -23.3980 C   0  0  0  0  0  0  0  0  0  0  0  0
   -7.2420    4.2050  -22.8720 C   0  0  0  0  0  0  0  0  0  0  0  0
   -8.5830    4.1720  -23.2220 C   0  0  0  0  0  0  0  0  0  0  0  0
   -9.0800    3.2440  -24.0300 N   0  0  0  0  0  0  0  0  0  0  0  0
   -9.2810    4.9200  -22.8560 H   0  0  0  0  0  0  0  0  0  0  0  0
   -6.8330    4.9700  -22.2250 H   0  0  0  0  0  0  0  0  0  0  0  0
   -5.3930    3.1610  -23.1720 H   0  0  0  0  0  0  0  0  0  0  0  0
   -9.5330    1.7650  -26.0710 H   0  0  0  0  0  0  0  0  0  0  0  0
   -7.9840    0.8470  -26.0230 H   0  0  0  0  0  0  0  0  0  0  0  0
  -10.7650    0.4810  -24.3080 C   0  0  0  0  0  0  0  0  0  0  0  0
  -11.4330    1.3950  -24.7780 O   0  0  0  0  0  0  0  0  0  0  0  0
  -11.3060   -0.4720  -23.2870 C   0  0  0  0  0  0  0  0  0  0  0  0
  -12.6700   -0.3840  -23.0130 C   0  0  0  0  0  0  0  0  0  0  0  0
  -13.3070   -1.3420  -22.2450 C   0  0  0  0  0  0  0  0  0  0  0  0
  -12.5170   -2.3600  -21.7300 C   0  0  0  0  0  0  0  0  0  0  0  0
  -13.0920   -3.3100  -20.9760 F   0  0  0  0  0  0  0  0  0  0  0  0
  -11.1500   -2.4230  -21.9070 C   0  0  0  0  0  0  0  0  0  0  0  0
  -10.5120   -1.4730  -22.7160 C   0  0  0  0  0  0  0  0  0  0  0  0
  -10.6200   -3.2350  -21.4210 H   0  0  0  0  0  0  0  0  0  0  0  0
  -14.3770   -1.3170  -22.0570 H   0  0  0  0  0  0  0  0  0  0  0  0
  -13.2330    0.4110  -23.4800 H   0  0  0  0  0  0  0  0  0  0  0  0
   -9.2070   -1.8160  -25.1200 H   0  0  0  0  0  0  0  0  0  0  0  0
   -7.7570   -0.8910  -24.6480 H   0  0  0  0  0  0  0  0  0  0  0  0
   -6.6920   -3.2850  -21.3070 H   0  0  0  0  0  0  0  0  0  0  0  0
   -8.2720   -3.0850  -20.5260 H   0  0  0  0  0  0  0  0  0  0  0  0
   -9.1620   -3.6490  -22.5970 H   0  0  0  0  0  0  0  0  0  0  0  0
   -6.5970   -2.8380  -24.0130 H   0  0  0  0  0  0  0  0  0  0  0  0
   -8.0310   -3.6080  -24.7310 H   0  0  0  0  0  0  0  0  0  0  0  0
   -7.1030   -4.4660  -23.5110 H   0  0  0  0  0  0  0  0  0  0  0  0
  1  2  1  0  0  0  0
  1 55  1  0  0  0  0
  1 56  1  0  0  0  0
  1 57  1  0  0  0  0
  2  3  1  0  0  0  0
  2 23  1  0  0  0  0
  2 54  1  1  0  0  0
  3  4  1  0  0  0  0
  3 52  1  0  0  0  0
  3 53  1  0  0  0  0
  4  5  1  0  0  0  0
  4 21  1  0  0  0  0
  5  6  2  0  0  0  0
  5 14  1  0  0  0  0
  6  7  1  0  0  0  0
  6 20  1  0  0  0  0
  7  8  2  0  0  0  0
  8  9  1  0  0  0  0
  8 19  1  0  0  0  0
  9 10  2  0  0  0  0
  9 14  1  0  0  0  0
 10 11  1  0  0  0  0
 10 18  1  0  0  0  0
 11 12  2  0  0  0  0
 11 17  1  0  0  0  0
 12 13  1  0  0  0  0
 12 16  1  0  0  0  0
 13 14  2  0  0  0  0
 13 15  1  0  0  0  0
 21 22  2  0  0  0  0
 23 21  1  1  0  0  0
 23 24  1  0  0  0  0
 23 46  1  0  0  0  0
 24 25  1  0  0  0  0
 24 50  1  0  0  0  0
 24 51  1  0  0  0  0
 25 26  1  0  0  0  0
 25 38  1  0  0  0  0
 26 27  1  0  0  0  0
 26 36  1  0  0  0  0
 26 37  1  0  0  0  0
 27 28  2  0  0  0  0
 27 32  1  0  0  0  0
 28 29  1  0  0  0  0
 29 30  2  0  0  0  0
 29 35  1  0  0  0  0
 30 31  1  0  0  0  0
 30 34  1  0  0  0  0
 31 32  2  0  0  0  0
 31 33  1  0  0  0  0
 38 39  2  0  0  0  0
 38 40  1  0  0  0  0
 40 41  2  0  0  0  0
 40 46  1  0  0  0  0
 41 42  1  0  0  0  0
 41 49  1  0  0  0  0
 42 43  2  0  0  0  0
 42 48  1  0  0  0  0
 43 44  1  0  0  0  0
 43 45  1  0  0  0  0
 45 46  2  0  0  0  0
 45 47  1  0  0  0  0
M  END
>  <MODEL>
       1

$$$$
