tmp_first_model_1_21.pdb
 OpenBabel08272517043D

 63 68  0  0  1  0  0  0  0  0999 V2000
  -10.2140   -2.9790  -22.0710 C   0  0  0  0  0  0  0  0  0  0  0  0
   -9.1370   -2.0390  -22.6360 C   0  0  1  0  0  0  0  0  0  0  0  0
   -8.6780   -1.0450  -21.5520 C   0  0  0  0  0  0  0  0  0  0  0  0
   -7.3430   -1.4690  -21.2080 N   0  0  0  0  0  0  0  0  0  0  0  0
   -6.5720   -0.8580  -20.1960 C   0  0  0  0  0  0  0  0  0  0  0  0
   -6.9140   -1.0620  -18.8850 C   0  0  0  0  0  0  0  0  0  0  0  0
   -6.2280   -0.5630  -17.8300 N   0  0  0  0  0  0  0  0  0  0  0  0
   -5.1900    0.1950  -18.0970 C   0  0  0  0  0  0  0  0  0  0  0  0
   -4.7470    0.5070  -19.4140 C   0  0  0  0  0  0  0  0  0  0  0  0
   -3.6250    1.3480  -19.6370 C   0  0  0  0  0  0  0  0  0  0  0  0
   -3.2320    1.6580  -20.9090 C   0  0  0  0  0  0  0  0  0  0  0  0
   -3.9460    1.1490  -22.0190 C   0  0  0  0  0  0  0  0  0  0  0  0
   -5.0360    0.3350  -21.8350 C   0  0  0  0  0  0  0  0  0  0  0  0
   -5.4540   -0.0230  -20.5150 C   0  0  0  0  0  0  0  0  0  0  0  0
   -5.5830   -0.0350  -22.7050 H   0  0  0  0  0  0  0  0  0  0  0  0
   -3.6270    1.4100  -23.0250 H   0  0  0  0  0  0  0  0  0  0  0  0
   -2.3730    2.3030  -21.0800 H   0  0  0  0  0  0  0  0  0  0  0  0
   -3.1020    1.7450  -18.7720 H   0  0  0  0  0  0  0  0  0  0  0  0
   -4.6430    0.6090  -17.2500 H   0  0  0  0  0  0  0  0  0  0  0  0
   -7.7730   -1.6900  -18.6470 H   0  0  0  0  0  0  0  0  0  0  0  0
   -6.8130   -2.4270  -22.0360 C   0  0  0  0  0  0  0  0  0  0  0  0
   -5.7190   -2.9220  -21.8920 O   0  0  0  0  0  0  0  0  0  0  0  0
   -7.8320   -2.7160  -23.1520 C   0  0  1  0  0  0  0  0  0  0  0  0
   -7.9920   -4.2290  -23.3660 C   0  0  0  0  0  0  0  0  0  0  0  0
   -6.8230   -4.8210  -23.9880 N   0  0  0  0  0  0  0  0  0  0  0  0
   -6.4420   -6.1580  -23.5780 C   0  0  0  0  0  0  0  0  0  0  0  0
   -7.4320   -7.1850  -24.1290 C   0  0  0  0  0  0  0  0  0  0  0  0
   -8.3530   -7.6120  -23.4540 O   0  0  0  0  0  0  0  0  0  0  0  0
   -7.2300   -7.5020  -25.4430 N   0  0  0  0  0  0  0  0  0  0  0  0
   -8.3830   -7.8550  -26.2630 C   0  0  0  0  0  0  0  0  0  0  0  0
   -9.4020   -6.7490  -26.3840 C   0  0  0  0  0  0  0  0  0  0  0  0
   -9.0140   -5.5620  -27.2040 C   0  0  0  0  0  0  0  0  0  0  0  0
  -10.0730   -6.5110  -27.6970 C   0  0  0  0  0  0  0  0  0  0  0  0
  -11.1080   -6.1810  -27.7070 H   0  0  0  0  0  0  0  0  0  0  0  0
   -9.8160   -7.1920  -28.5010 H   0  0  0  0  0  0  0  0  0  0  0  0
   -8.0430   -5.6230  -27.6870 H   0  0  0  0  0  0  0  0  0  0  0  0
   -9.2940   -4.5700  -26.8610 H   0  0  0  0  0  0  0  0  0  0  0  0
  -10.0080   -6.5810  -25.5020 H   0  0  0  0  0  0  0  0  0  0  0  0
   -8.0120   -8.0940  -27.2630 H   0  0  0  0  0  0  0  0  0  0  0  0
   -8.8500   -8.7440  -25.8450 H   0  0  0  0  0  0  0  0  0  0  0  0
   -6.4700   -7.0170  -25.9050 H   0  0  0  0  0  0  0  0  0  0  0  0
   -5.4360   -6.3290  -23.9660 H   0  0  0  0  0  0  0  0  0  0  0  0
   -6.4600   -6.2130  -22.4840 H   0  0  0  0  0  0  0  0  0  0  0  0
   -6.2720   -4.2970  -25.1170 C   0  0  0  0  0  0  0  0  0  0  0  0
   -5.5390   -4.9490  -25.8600 O   0  0  0  0  0  0  0  0  0  0  0  0
   -6.6000   -2.8630  -25.3740 C   0  0  0  0  0  0  0  0  0  0  0  0
   -6.1250   -2.3090  -26.5600 C   0  0  0  0  0  0  0  0  0  0  0  0
   -6.3640   -0.9790  -26.8520 C   0  0  0  0  0  0  0  0  0  0  0  0
   -7.0690   -0.2200  -25.9240 C   0  0  0  0  0  0  0  0  0  0  0  0
   -7.2940    1.0800  -26.1920 F   0  0  0  0  0  0  0  0  0  0  0  0
   -7.5500   -0.7460  -24.7400 C   0  0  0  0  0  0  0  0  0  0  0  0
   -7.3360   -2.1020  -24.4560 C   0  0  0  0  0  0  0  0  0  0  0  0
   -8.1010   -0.0890  -24.0710 H   0  0  0  0  0  0  0  0  0  0  0  0
   -6.0080   -0.5050  -27.7590 H   0  0  0  0  0  0  0  0  0  0  0  0
   -5.5670   -2.9630  -27.2230 H   0  0  0  0  0  0  0  0  0  0  0  0
   -8.1400   -4.7380  -22.4130 H   0  0  0  0  0  0  0  0  0  0  0  0
   -8.8770   -4.3920  -23.9970 H   0  0  0  0  0  0  0  0  0  0  0  0
   -8.6800   -0.0020  -21.8950 H   0  0  0  0  0  0  0  0  0  0  0  0
   -9.3310   -1.0950  -20.6840 H   0  0  0  0  0  0  0  0  0  0  0  0
   -9.6080   -1.5110  -23.4700 H   0  0  0  0  0  0  0  0  0  0  0  0
  -10.6030   -3.6610  -22.8330 H   0  0  0  0  0  0  0  0  0  0  0  0
   -9.8300   -3.5740  -21.2340 H   0  0  0  0  0  0  0  0  0  0  0  0
  -11.0650   -2.3930  -21.7000 H   0  0  0  0  0  0  0  0  0  0  0  0
  1  2  1  0  0  0  0
  1 61  1  0  0  0  0
  1 62  1  0  0  0  0
  1 63  1  0  0  0  0
  2  3  1  0  0  0  0
  2 23  1  0  0  0  0
  2 60  1  6  0  0  0
  3  4  1  0  0  0  0
  3 58  1  0  0  0  0
  3 59  1  0  0  0  0
  4  5  1  0  0  0  0
  4 21  1  0  0  0  0
  5  6  2  0  0  0  0
  5 14  1  0  0  0  0
  6  7  1  0  0  0  0
  6 20  1  0  0  0  0
  7  8  2  0  0  0  0
  8  9  1  0  0  0  0
  8 19  1  0  0  0  0
  9 10  2  0  0  0  0
  9 14  1  0  0  0  0
 10 11  1  0  0  0  0
 10 18  1  0  0  0  0
 11 12  2  0  0  0  0
 11 17  1  0  0  0  0
 12 13  1  0  0  0  0
 12 16  1  0  0  0  0
 13 14  2  0  0  0  0
 13 15  1  0  0  0  0
 21 22  2  0  0  0  0
 23 21  1  1  0  0  0
 23 24  1  0  0  0  0
 23 52  1  0  0  0  0
 24 25  1  0  0  0  0
 24 56  1  0  0  0  0
 24 57  1  0  0  0  0
 25 26  1  0  0  0  0
 25 44  1  0  0  0  0
 26 27  1  0  0  0  0
 26 42  1  0  0  0  0
 26 43  1  0  0  0  0
 27 28  2  0  0  0  0
 27 29  1  0  0  0  0
 29 30  1  0  0  0  0
 29 41  1  0  0  0  0
 30 31  1  0  0  0  0
 30 39  1  0  0  0  0
 30 40  1  0  0  0  0
 31 32  1  0  0  0  0
 31 33  1  0  0  0  0
 31 38  1  0  0  0  0
 32 33  1  0  0  0  0
 32 36  1  0  0  0  0
 32 37  1  0  0  0  0
 33 34  1  0  0  0  0
 33 35  1  0  0  0  0
 44 45  2  0  0  0  0
 44 46  1  0  0  0  0
 46 47  2  0  0  0  0
 46 52  1  0  0  0  0
 47 48  1  0  0  0  0
 47 55  1  0  0  0  0
 48 49  2  0  0  0  0
 48 54  1  0  0  0  0
 49 50  1  0  0  0  0
 49 51  1  0  0  0  0
 51 52  2  0  0  0  0
 51 53  1  0  0  0  0
M  END
>  <MODEL>
       1

$$$$
