tmp_first_model_2_47.pdb
 OpenBabel08272517383D

 58 63  0  0  1  0  0  0  0  0999 V2000
   -8.5040    0.7130  -21.4020 O   0  0  0  0  0  0  0  0  0  0  0  0
   -8.4550   -0.4140  -21.8500 C   0  0  0  0  0  0  0  0  0  0  0  0
   -7.4440   -1.4290  -21.2620 C   0  0  0  0  0  0  0  0  0  0  0  0
   -6.5780   -0.8310  -20.1790 C   0  0  0  0  0  0  0  0  0  0  0  0
   -6.8770   -1.0390  -18.8590 C   0  0  0  0  0  0  0  0  0  0  0  0
   -6.1940   -0.5350  -17.7950 N   0  0  0  0  0  0  0  0  0  0  0  0
   -5.1580    0.2220  -18.0630 C   0  0  0  0  0  0  0  0  0  0  0  0
   -4.7250    0.5360  -19.3800 C   0  0  0  0  0  0  0  0  0  0  0  0
   -3.6000    1.3690  -19.6210 C   0  0  0  0  0  0  0  0  0  0  0  0
   -3.2140    1.6630  -20.9000 C   0  0  0  0  0  0  0  0  0  0  0  0
   -3.9360    1.1350  -21.9930 C   0  0  0  0  0  0  0  0  0  0  0  0
   -5.0270    0.3270  -21.7870 C   0  0  0  0  0  0  0  0  0  0  0  0
   -5.4540    0.0020  -20.4710 C   0  0  0  0  0  0  0  0  0  0  0  0
   -5.5770   -0.0600  -22.6400 H   0  0  0  0  0  0  0  0  0  0  0  0
   -3.6240    1.3790  -23.0050 H   0  0  0  0  0  0  0  0  0  0  0  0
   -2.3570    2.3070  -21.0860 H   0  0  0  0  0  0  0  0  0  0  0  0
   -3.0590    1.7780  -18.7700 H   0  0  0  0  0  0  0  0  0  0  0  0
   -4.6000    0.6290  -17.2160 H   0  0  0  0  0  0  0  0  0  0  0  0
   -7.7310   -1.6600  -18.5860 H   0  0  0  0  0  0  0  0  0  0  0  0
   -6.8290   -1.8590  -22.0640 H   0  0  0  0  0  0  0  0  0  0  0  0
   -8.0190   -2.2630  -20.8340 H   0  0  0  0  0  0  0  0  0  0  0  0
   -9.3030   -0.8280  -22.8740 N   0  0  0  0  0  0  0  0  0  0  0  0
   -9.2700   -2.1310  -23.5270 C   0  0  0  0  0  0  0  0  0  0  0  0
   -8.5420   -2.1600  -24.8620 C   0  0  0  0  0  0  0  0  0  0  0  0
   -7.4410   -1.3430  -25.1030 C   0  0  0  0  0  0  0  0  0  0  0  0
   -6.7660   -1.4060  -26.3150 C   0  0  0  0  0  0  0  0  0  0  0  0
   -7.1730   -2.2820  -27.3140 C   0  0  0  0  0  0  0  0  0  0  0  0
   -8.2690   -3.1000  -27.0690 C   0  0  0  0  0  0  0  0  0  0  0  0
   -8.7950   -4.2090  -28.3080 Cl  0  0  0  0  0  0  0  0  0  0  0  0
   -8.9510   -3.0510  -25.8570 C   0  0  0  0  0  0  0  0  0  0  0  0
   -9.7950   -3.7150  -25.6960 H   0  0  0  0  0  0  0  0  0  0  0  0
   -6.6490   -2.3310  -28.2640 H   0  0  0  0  0  0  0  0  0  0  0  0
   -5.9100   -0.7620  -26.4850 H   0  0  0  0  0  0  0  0  0  0  0  0
   -7.0950   -0.6500  -24.3390 H   0  0  0  0  0  0  0  0  0  0  0  0
  -10.3030   -2.4530  -23.6850 H   0  0  0  0  0  0  0  0  0  0  0  0
   -8.8310   -2.8630  -22.8430 H   0  0  0  0  0  0  0  0  0  0  0  0
  -10.2380    0.1520  -23.3980 C   0  0  2  0  0  0  0  0  0  0  0  0
  -11.3910    0.6110  -22.4850 C   0  0  0  0  0  0  0  0  0  0  0  0
  -12.0730    1.5920  -23.4110 N   0  3  1  0  0  0  0  0  0  0  0  0
  -12.2530    2.9520  -22.8860 C   0  0  0  0  0  0  0  0  0  0  0  0
  -13.5240    3.2850  -22.1770 C   0  0  0  0  0  0  0  0  0  0  0  0
  -13.2590    3.8360  -23.5490 C   0  0  0  0  0  0  0  0  0  0  0  0
  -13.0460    4.8960  -23.6420 H   0  0  0  0  0  0  0  0  0  0  0  0
  -13.8100    3.3980  -24.3770 H   0  0  0  0  0  0  0  0  0  0  0  0
  -13.4790    3.9710  -21.3400 H   0  0  0  0  0  0  0  0  0  0  0  0
  -14.2410    2.4750  -22.0830 H   0  0  0  0  0  0  0  0  0  0  0  0
  -11.3460    3.4140  -22.5210 H   0  0  0  0  0  0  0  0  0  0  0  0
  -11.1660    1.4900  -24.6090 C   0  0  2  0  0  0  0  0  0  0  0  0
  -11.0160   -0.0310  -24.7260 C   0  0  0  0  0  0  0  0  0  0  0  0
  -10.4050   -0.3290  -25.5720 H   0  0  0  0  0  0  0  0  0  0  0  0
  -11.9470   -0.6090  -24.6710 H   0  0  0  0  0  0  0  0  0  0  0  0
   -9.7720    1.5160  -23.9700 C   0  0  0  0  0  0  0  0  0  0  0  0
   -8.9700    1.4220  -24.6980 H   0  0  0  0  0  0  0  0  0  0  0  0
   -9.5640    2.2930  -23.2280 H   0  0  0  0  0  0  0  0  0  0  0  0
  -11.4540    2.1260  -25.4400 H   0  0  0  0  0  0  0  0  0  0  0  0
  -13.0170    1.2480  -23.6590 H   0  0  0  0  0  0  0  0  0  0  0  0
  -11.0360    1.1520  -21.6150 H   0  0  0  0  0  0  0  0  0  0  0  0
  -12.0840   -0.1820  -22.2000 H   0  0  0  0  0  0  0  0  0  0  0  0
  1  2  2  0  0  0  0
  2  3  1  0  0  0  0
  2 22  1  0  0  0  0
  3  4  1  0  0  0  0
  3 20  1  0  0  0  0
  3 21  1  0  0  0  0
  4  5  2  0  0  0  0
  4 13  1  0  0  0  0
  5  6  1  0  0  0  0
  5 19  1  0  0  0  0
  6  7  2  0  0  0  0
  7  8  1  0  0  0  0
  7 18  1  0  0  0  0
  8  9  2  0  0  0  0
  8 13  1  0  0  0  0
  9 10  1  0  0  0  0
  9 17  1  0  0  0  0
 10 11  2  0  0  0  0
 10 16  1  0  0  0  0
 11 12  1  0  0  0  0
 11 15  1  0  0  0  0
 12 13  2  0  0  0  0
 12 14  1  0  0  0  0
 22 23  1  0  0  0  0
 23 24  1  0  0  0  0
 23 35  1  0  0  0  0
 23 36  1  0  0  0  0
 24 25  2  0  0  0  0
 24 30  1  0  0  0  0
 25 26  1  0  0  0  0
 25 34  1  0  0  0  0
 26 27  2  0  0  0  0
 26 33  1  0  0  0  0
 27 28  1  0  0  0  0
 27 32  1  0  0  0  0
 28 29  1  0  0  0  0
 28 30  2  0  0  0  0
 30 31  1  0  0  0  0
 37 22  1  1  0  0  0
 37 38  1  0  0  0  0
 37 49  1  0  0  0  0
 37 52  1  0  0  0  0
 38 39  1  0  0  0  0
 38 57  1  0  0  0  0
 38 58  1  0  0  0  0
 39 40  1  0  0  0  0
 39 48  1  0  0  0  0
 39 56  1  6  0  0  0
 40 41  1  0  0  0  0
 40 42  1  0  0  0  0
 40 47  1  0  0  0  0
 41 42  1  0  0  0  0
 41 45  1  0  0  0  0
 41 46  1  0  0  0  0
 42 43  1  0  0  0  0
 42 44  1  0  0  0  0
 48 49  1  0  0  0  0
 48 52  1  0  0  0  0
 48 55  1  6  0  0  0
 49 50  1  0  0  0  0
 49 51  1  0  0  0  0
 52 53  1  0  0  0  0
 52 54  1  0  0  0  0
M  CHG  1  39   1
M  END
>  <MODEL>
       1

$$$$
