tmp_first_model_1_67.pdb
 OpenBabel08272517043D

 58 63  0  0  1  0  0  0  0  0999 V2000
   -5.8670  -10.0570  -23.0320 C   0  0  0  0  0  0  0  0  0  0  0  0
   -7.1040   -9.4140  -22.7660 C   0  0  0  0  0  0  0  0  0  0  0  0
   -7.3860   -8.1630  -22.3540 C   0  0  0  0  0  0  0  0  0  0  0  0
   -8.8080   -7.9950  -22.9140 C   0  0  0  0  0  0  0  0  0  0  0  0
   -9.2080   -6.5690  -22.7440 C   0  0  0  0  0  0  0  0  0  0  0  0
   -8.7750   -5.3550  -23.3470 N   0  0  0  0  0  0  0  0  0  0  0  0
   -7.8180   -4.6810  -22.5200 C   0  0  0  0  0  0  0  0  0  0  0  0
   -7.9960   -3.1880  -22.7130 C   0  0  2  0  0  0  0  0  0  0  0  0
   -6.8680   -2.5040  -21.9780 C   0  0  0  0  0  0  0  0  0  0  0  0
   -5.6850   -2.8430  -22.0650 O   0  0  0  0  0  0  0  0  0  0  0  0
   -7.3360   -1.4710  -21.2110 N   0  0  0  0  0  0  0  0  0  0  0  0
   -6.5710   -0.8470  -20.1800 C   0  0  0  0  0  0  0  0  0  0  0  0
   -6.8830   -1.0450  -18.8550 C   0  0  0  0  0  0  0  0  0  0  0  0
   -6.1890   -0.5430  -17.8030 N   0  0  0  0  0  0  0  0  0  0  0  0
   -5.1550    0.2230  -18.0630 C   0  0  0  0  0  0  0  0  0  0  0  0
   -4.7240    0.5350  -19.3850 C   0  0  0  0  0  0  0  0  0  0  0  0
   -3.5960    1.3690  -19.6260 C   0  0  0  0  0  0  0  0  0  0  0  0
   -3.2150    1.6560  -20.9100 C   0  0  0  0  0  0  0  0  0  0  0  0
   -3.9380    1.1300  -22.0020 C   0  0  0  0  0  0  0  0  0  0  0  0
   -5.0290    0.3260  -21.7930 C   0  0  0  0  0  0  0  0  0  0  0  0
   -5.4480   -0.0040  -20.4750 C   0  0  0  0  0  0  0  0  0  0  0  0
   -5.5820   -0.0750  -22.6350 H   0  0  0  0  0  0  0  0  0  0  0  0
   -3.6310    1.3670  -23.0150 H   0  0  0  0  0  0  0  0  0  0  0  0
   -2.3580    2.2950  -21.1020 H   0  0  0  0  0  0  0  0  0  0  0  0
   -3.0470    1.7800  -18.7820 H   0  0  0  0  0  0  0  0  0  0  0  0
   -4.5970    0.6310  -17.2170 H   0  0  0  0  0  0  0  0  0  0  0  0
   -7.7240   -1.6840  -18.5940 H   0  0  0  0  0  0  0  0  0  0  0  0
   -8.7530   -1.2740  -21.4170 C   0  0  0  0  0  0  0  0  0  0  0  0
   -9.2570   -2.5590  -22.0950 C   0  0  2  0  0  0  0  0  0  0  0  0
  -10.0470   -3.4090  -21.1560 C   0  0  0  0  0  0  0  0  0  0  0  0
  -10.4390   -4.3570  -21.5230 H   0  0  0  0  0  0  0  0  0  0  0  0
  -10.9000   -2.7620  -20.9500 H   0  0  0  0  0  0  0  0  0  0  0  0
   -9.4850   -3.5780  -20.2470 H   0  0  0  0  0  0  0  0  0  0  0  0
  -10.0080   -2.2970  -22.8350 H   0  0  0  0  0  0  0  0  0  0  0  0
   -9.2020   -1.0930  -20.4630 H   0  0  0  0  0  0  0  0  0  0  0  0
   -8.9850   -0.3850  -22.0110 H   0  0  0  0  0  0  0  0  0  0  0  0
   -8.0120   -2.9260  -24.2110 C   0  0  0  0  0  0  0  0  0  0  0  0
   -7.6140   -1.6790  -24.6960 C   0  0  0  0  0  0  0  0  0  0  0  0
   -7.6860   -1.4180  -26.0520 C   0  0  0  0  0  0  0  0  0  0  0  0
   -7.2780   -0.2240  -26.5120 F   0  0  0  0  0  0  0  0  0  0  0  0
   -8.1740   -2.3470  -26.9600 C   0  0  0  0  0  0  0  0  0  0  0  0
   -8.6160   -3.5600  -26.4800 C   0  0  0  0  0  0  0  0  0  0  0  0
   -8.5480   -3.8450  -25.1250 C   0  0  0  0  0  0  0  0  0  0  0  0
   -9.0700   -5.1230  -24.6600 C   0  0  0  0  0  0  0  0  0  0  0  0
   -9.7100   -5.9540  -25.3270 O   0  0  0  0  0  0  0  0  0  0  0  0
   -9.0230   -4.2970  -27.1620 H   0  0  0  0  0  0  0  0  0  0  0  0
   -8.2190   -2.1120  -28.0160 H   0  0  0  0  0  0  0  0  0  0  0  0
   -7.2560   -0.9050  -24.0260 H   0  0  0  0  0  0  0  0  0  0  0  0
   -7.9260   -4.9920  -21.4600 H   0  0  0  0  0  0  0  0  0  0  0  0
   -6.8390   -5.0440  -22.8180 H   0  0  0  0  0  0  0  0  0  0  0  0
   -9.2130   -6.4040  -21.7170 H   0  0  0  0  0  0  0  0  0  0  0  0
  -10.1890   -6.6780  -23.2060 H   0  0  0  0  0  0  0  0  0  0  0  0
   -8.8160   -8.8250  -24.0800 O   0  0  0  0  0  0  0  0  0  0  0  0
   -8.8080   -7.9950  -22.9140 N   0  0  0  0  0  0  0  0  0  0  0  0
   -6.8490   -7.7020  -21.4570 H   0  0  0  0  0  0  0  0  0  0  0  0
   -4.9890   -9.6040  -23.5190 H   0  0  0  0  0  0  0  0  0  0  0  0
   -5.9100  -10.0570  -21.9390 H   0  0  0  0  0  0  0  0  0  0  0  0
   -5.8930  -11.1230  -23.2120 H   0  0  0  0  0  0  0  0  0  0  0  0
  1  2  1  0  0  0  0
  1 56  1  0  0  0  0
  1 57  1  0  0  0  0
  1 58  1  0  0  0  0
  2  3  1  0  0  0  0
  2 54  2  0  0  0  0
  3  4  2  0  0  0  0
  3 55  1  0  0  0  0
  4  5  1  0  0  0  0
  4 53  1  0  0  0  0
  5  6  1  0  0  0  0
  5 51  1  0  0  0  0
  5 52  1  0  0  0  0
  6  7  1  0  0  0  0
  6 44  1  0  0  0  0
  7  8  1  0  0  0  0
  7 49  1  0  0  0  0
  7 50  1  0  0  0  0
  8  9  1  1  0  0  0
  8 29  1  0  0  0  0
  8 37  1  0  0  0  0
  9 10  2  0  0  0  0
  9 11  1  0  0  0  0
 11 12  1  0  0  0  0
 11 28  1  0  0  0  0
 12 13  2  0  0  0  0
 12 21  1  0  0  0  0
 13 14  1  0  0  0  0
 13 27  1  0  0  0  0
 14 15  2  0  0  0  0
 15 16  1  0  0  0  0
 15 26  1  0  0  0  0
 16 17  2  0  0  0  0
 16 21  1  0  0  0  0
 17 18  1  0  0  0  0
 17 25  1  0  0  0  0
 18 19  2  0  0  0  0
 18 24  1  0  0  0  0
 19 20  1  0  0  0  0
 19 23  1  0  0  0  0
 20 21  2  0  0  0  0
 20 22  1  0  0  0  0
 28 29  1  0  0  0  0
 28 35  1  0  0  0  0
 28 36  1  0  0  0  0
 29 30  1  0  0  0  0
 29 34  1  6  0  0  0
 30 31  1  0  0  0  0
 30 32  1  0  0  0  0
 30 33  1  0  0  0  0
 37 38  2  0  0  0  0
 37 43  1  0  0  0  0
 38 39  1  0  0  0  0
 38 48  1  0  0  0  0
 39 40  1  0  0  0  0
 39 41  2  0  0  0  0
 41 42  1  0  0  0  0
 41 47  1  0  0  0  0
 42 43  2  0  0  0  0
 42 46  1  0  0  0  0
 43 44  1  0  0  0  0
 44 45  2  0  0  0  0
 53 54  1  0  0  0  0
M  END
>  <MODEL>
       1

$$$$
