tmp_first_model_11_72.pdb
 OpenBabel08272522543D

 41 44  0  0  0  0  0  0  0  0999 V2000
   -5.4990   -3.0000  -21.4610 O   0  0  0  0  0  0  0  0  0  0  0  0
   -6.5650   -2.6030  -21.9040 C   0  0  0  0  0  0  0  0  0  0  0  0
   -7.3530   -1.4640  -21.2430 C   0  0  0  0  0  0  0  0  0  0  0  0
   -6.5780   -0.8240  -20.1430 C   0  0  0  0  0  0  0  0  0  0  0  0
   -6.8950   -1.0480  -18.8310 C   0  0  0  0  0  0  0  0  0  0  0  0
   -6.2180   -0.5410  -17.7680 N   0  0  0  0  0  0  0  0  0  0  0  0
   -5.1780    0.2140  -18.0420 C   0  0  0  0  0  0  0  0  0  0  0  0
   -4.7300    0.5170  -19.3580 C   0  0  0  0  0  0  0  0  0  0  0  0
   -3.5990    1.3360  -19.6030 C   0  0  0  0  0  0  0  0  0  0  0  0
   -3.2010    1.6140  -20.8850 C   0  0  0  0  0  0  0  0  0  0  0  0
   -3.9130    1.0770  -21.9810 C   0  0  0  0  0  0  0  0  0  0  0  0
   -5.0100    0.2810  -21.7730 C   0  0  0  0  0  0  0  0  0  0  0  0
   -5.4480   -0.0160  -20.4490 C   0  0  0  0  0  0  0  0  0  0  0  0
   -5.5420   -0.1380  -22.6250 H   0  0  0  0  0  0  0  0  0  0  0  0
   -3.5930    1.3080  -22.9950 H   0  0  0  0  0  0  0  0  0  0  0  0
   -2.3440    2.2560  -21.0660 H   0  0  0  0  0  0  0  0  0  0  0  0
   -3.0700    1.7530  -18.7510 H   0  0  0  0  0  0  0  0  0  0  0  0
   -4.6290    0.6250  -17.1950 H   0  0  0  0  0  0  0  0  0  0  0  0
   -7.7460   -1.6790  -18.5710 H   0  0  0  0  0  0  0  0  0  0  0  0
   -7.6130   -0.7180  -22.0070 H   0  0  0  0  0  0  0  0  0  0  0  0
   -8.2950   -1.8710  -20.8520 H   0  0  0  0  0  0  0  0  0  0  0  0
   -7.1020   -3.0980  -23.0660 N   0  0  0  0  0  0  0  0  0  0  0  0
   -8.5330   -3.0390  -23.3650 C   0  0  0  0  0  0  0  0  0  0  0  0
   -9.3440   -4.2380  -22.8480 C   0  0  0  0  0  0  0  0  0  0  0  0
   -8.9170   -5.5390  -23.5570 C   0  0  0  0  0  0  0  0  0  0  0  0
   -7.6310   -6.1150  -23.0150 C   0  0  0  0  0  0  0  0  0  0  0  0
   -7.4470   -7.7040  -22.3600 S   0  0  0  0  0  0  0  0  0  0  0  0
   -5.7720   -7.4690  -22.0540 C   0  0  0  0  0  0  0  0  0  0  0  0
   -5.3660   -6.2290  -22.4480 C   0  0  0  0  0  0  0  0  0  0  0  0
   -6.4320   -5.4800  -23.0500 C   0  0  0  0  0  0  0  0  0  0  0  0
   -6.3160   -4.1330  -23.7360 C   0  0  0  0  0  0  0  0  0  0  0  0
   -5.2710   -3.8090  -23.8030 H   0  0  0  0  0  0  0  0  0  0  0  0
   -6.7140   -4.1980  -24.7570 H   0  0  0  0  0  0  0  0  0  0  0  0
   -4.3640   -5.8260  -22.3080 H   0  0  0  0  0  0  0  0  0  0  0  0
   -5.2010   -8.3100  -21.6680 H   0  0  0  0  0  0  0  0  0  0  0  0
   -8.7510   -5.2860  -24.6170 H   0  0  0  0  0  0  0  0  0  0  0  0
   -9.7090   -6.2860  -23.5710 H   0  0  0  0  0  0  0  0  0  0  0  0
  -10.4000   -4.0370  -23.0600 H   0  0  0  0  0  0  0  0  0  0  0  0
   -9.2640   -4.3120  -21.7520 H   0  0  0  0  0  0  0  0  0  0  0  0
   -8.6290   -2.9840  -24.4590 H   0  0  0  0  0  0  0  0  0  0  0  0
   -8.9370   -2.1010  -22.9720 H   0  0  0  0  0  0  0  0  0  0  0  0
  1  2  2  0  0  0  0
  2  3  1  0  0  0  0
  2 22  1  0  0  0  0
  3  4  1  0  0  0  0
  3 20  1  0  0  0  0
  3 21  1  0  0  0  0
  4  5  2  0  0  0  0
  4 13  1  0  0  0  0
  5  6  1  0  0  0  0
  5 19  1  0  0  0  0
  6  7  2  0  0  0  0
  7  8  1  0  0  0  0
  7 18  1  0  0  0  0
  8  9  2  0  0  0  0
  8 13  1  0  0  0  0
  9 10  1  0  0  0  0
  9 17  1  0  0  0  0
 10 11  2  0  0  0  0
 10 16  1  0  0  0  0
 11 12  1  0  0  0  0
 11 15  1  0  0  0  0
 12 13  2  0  0  0  0
 12 14  1  0  0  0  0
 22 23  1  0  0  0  0
 22 31  1  0  0  0  0
 23 24  1  0  0  0  0
 23 40  1  0  0  0  0
 23 41  1  0  0  0  0
 24 25  1  0  0  0  0
 24 38  1  0  0  0  0
 24 39  1  0  0  0  0
 25 26  1  0  0  0  0
 25 36  1  0  0  0  0
 25 37  1  0  0  0  0
 26 27  1  0  0  0  0
 26 30  2  0  0  0  0
 27 28  1  0  0  0  0
 28 29  2  0  0  0  0
 28 35  1  0  0  0  0
 29 30  1  0  0  0  0
 29 34  1  0  0  0  0
 30 31  1  0  0  0  0
 31 32  1  0  0  0  0
 31 33  1  0  0  0  0
M  END
>  <MODEL>
       1

$$$$
