tmp_first_model_13_10.pdb
 OpenBabel08282500103D

 57 62  0  0  1  0  0  0  0  0999 V2000
  -10.4440   -1.1610  -23.2800 C   0  0  0  0  0  0  0  0  0  0  0  0
   -9.0010   -1.4950  -22.9380 C   0  0  1  0  0  0  0  0  0  0  0  0
   -8.3850   -0.5380  -21.9090 C   0  0  0  0  0  0  0  0  0  0  0  0
   -7.3940   -1.3580  -21.2340 N   0  0  0  0  0  0  0  0  0  0  0  0
   -6.5790   -0.8510  -20.1930 C   0  0  0  0  0  0  0  0  0  0  0  0
   -6.8860   -1.0900  -18.8780 C   0  0  0  0  0  0  0  0  0  0  0  0
   -6.2090   -0.5610  -17.8290 N   0  0  0  0  0  0  0  0  0  0  0  0
   -5.1870    0.2150  -18.0890 C   0  0  0  0  0  0  0  0  0  0  0  0
   -4.7440    0.5240  -19.4070 C   0  0  0  0  0  0  0  0  0  0  0  0
   -3.6170    1.3500  -19.6440 C   0  0  0  0  0  0  0  0  0  0  0  0
   -3.2150    1.6150  -20.9250 C   0  0  0  0  0  0  0  0  0  0  0  0
   -3.9160    1.0680  -22.0200 C   0  0  0  0  0  0  0  0  0  0  0  0
   -5.0120    0.2650  -21.8180 C   0  0  0  0  0  0  0  0  0  0  0  0
   -5.4570   -0.0180  -20.4990 C   0  0  0  0  0  0  0  0  0  0  0  0
   -5.5330   -0.1670  -22.6650 H   0  0  0  0  0  0  0  0  0  0  0  0
   -3.5870    1.2840  -23.0320 H   0  0  0  0  0  0  0  0  0  0  0  0
   -2.3610    2.2590  -21.1060 H   0  0  0  0  0  0  0  0  0  0  0  0
   -3.0910    1.7640  -18.7900 H   0  0  0  0  0  0  0  0  0  0  0  0
   -4.6450    0.6380  -17.2400 H   0  0  0  0  0  0  0  0  0  0  0  0
   -7.7290   -1.7310  -18.6260 H   0  0  0  0  0  0  0  0  0  0  0  0
   -7.5650   -2.7110  -21.4390 C   0  0  0  0  0  0  0  0  0  0  0  0
   -6.8270   -3.5700  -21.0000 O   0  0  0  0  0  0  0  0  0  0  0  0
   -8.7850   -2.9280  -22.3420 C   0  0  1  0  0  0  0  0  0  0  0  0
   -9.9780   -3.3980  -21.4780 C   0  0  0  0  0  0  0  0  0  0  0  0
  -11.1000   -3.8930  -22.2640 N   0  0  0  0  0  0  0  0  0  0  0  0
  -12.4500   -3.9140  -21.6890 C   0  0  0  0  0  0  0  0  0  0  0  0
  -13.3530   -2.7750  -22.0820 C   0  0  0  0  0  0  0  0  0  0  0  0
  -13.9530   -1.7370  -21.4420 C   0  0  0  0  0  0  0  0  0  0  0  0
  -14.6540   -1.0270  -22.3980 N   0  3  0  0  0  0  0  0  0  0  0  0
  -14.5340   -1.6480  -23.5750 C   0  0  0  0  0  0  0  0  0  0  0  0
  -13.7550   -2.7190  -23.4080 N   0  0  0  0  0  0  0  0  0  0  0  0
  -13.4670   -3.4130  -24.0970 H   0  0  0  0  0  0  0  0  0  0  0  0
  -15.0030   -1.3470  -24.4910 H   0  0  0  0  0  0  0  0  0  0  0  0
  -15.1510   -0.1640  -22.2270 H   0  0  0  0  0  0  0  0  0  0  0  0
  -13.9860   -1.4220  -20.4080 H   0  0  0  0  0  0  0  0  0  0  0  0
  -12.9110   -4.7670  -22.1820 H   0  0  0  0  0  0  0  0  0  0  0  0
  -12.4180   -4.1080  -20.6100 H   0  0  0  0  0  0  0  0  0  0  0  0
  -10.9310   -4.5870  -23.4290 C   0  0  0  0  0  0  0  0  0  0  0  0
  -11.8920   -4.9950  -24.0800 O   0  0  0  0  0  0  0  0  0  0  0  0
   -9.5260   -4.7900  -23.8850 C   0  0  0  0  0  0  0  0  0  0  0  0
   -9.2600   -5.7560  -24.8570 C   0  0  0  0  0  0  0  0  0  0  0  0
   -8.0010   -5.8880  -25.4080 C   0  0  0  0  0  0  0  0  0  0  0  0
   -7.0120   -5.0280  -24.9480 C   0  0  0  0  0  0  0  0  0  0  0  0
   -5.7990   -5.0930  -25.5180 F   0  0  0  0  0  0  0  0  0  0  0  0
   -7.2300   -4.0960  -23.9520 C   0  0  0  0  0  0  0  0  0  0  0  0
   -8.5040   -3.9740  -23.3930 C   0  0  0  0  0  0  0  0  0  0  0  0
   -6.4080   -3.4720  -23.6190 H   0  0  0  0  0  0  0  0  0  0  0  0
   -7.7740   -6.6120  -26.1900 H   0  0  0  0  0  0  0  0  0  0  0  0
  -10.0590   -6.4080  -25.1790 H   0  0  0  0  0  0  0  0  0  0  0  0
   -9.6580   -4.1910  -20.8000 H   0  0  0  0  0  0  0  0  0  0  0  0
  -10.3210   -2.5540  -20.8740 H   0  0  0  0  0  0  0  0  0  0  0  0
   -7.9220    0.3350  -22.3820 H   0  0  0  0  0  0  0  0  0  0  0  0
   -9.1410   -0.1660  -21.2000 H   0  0  0  0  0  0  0  0  0  0  0  0
   -8.3930   -1.4510  -23.8520 H   0  0  0  0  0  0  0  0  0  0  0  0
  -11.0530   -1.1500  -22.3700 H   0  0  0  0  0  0  0  0  0  0  0  0
  -10.8500   -1.9270  -23.9440 H   0  0  0  0  0  0  0  0  0  0  0  0
  -10.5240   -0.1860  -23.7660 H   0  0  0  0  0  0  0  0  0  0  0  0
  1  2  1  0  0  0  0
  1 55  1  0  0  0  0
  1 56  1  0  0  0  0
  1 57  1  0  0  0  0
  2  3  1  0  0  0  0
  2 23  1  0  0  0  0
  2 54  1  6  0  0  0
  3  4  1  0  0  0  0
  3 52  1  0  0  0  0
  3 53  1  0  0  0  0
  4  5  1  0  0  0  0
  4 21  1  0  0  0  0
  5  6  2  0  0  0  0
  5 14  1  0  0  0  0
  6  7  1  0  0  0  0
  6 20  1  0  0  0  0
  7  8  2  0  0  0  0
  8  9  1  0  0  0  0
  8 19  1  0  0  0  0
  9 10  2  0  0  0  0
  9 14  1  0  0  0  0
 10 11  1  0  0  0  0
 10 18  1  0  0  0  0
 11 12  2  0  0  0  0
 11 17  1  0  0  0  0
 12 13  1  0  0  0  0
 12 16  1  0  0  0  0
 13 14  2  0  0  0  0
 13 15  1  0  0  0  0
 21 22  2  0  0  0  0
 23 21  1  1  0  0  0
 23 24  1  0  0  0  0
 23 46  1  0  0  0  0
 24 25  1  0  0  0  0
 24 50  1  0  0  0  0
 24 51  1  0  0  0  0
 25 26  1  0  0  0  0
 25 38  1  0  0  0  0
 26 27  1  0  0  0  0
 26 36  1  0  0  0  0
 26 37  1  0  0  0  0
 27 28  2  0  0  0  0
 27 31  1  0  0  0  0
 28 29  1  0  0  0  0
 28 35  1  0  0  0  0
 29 30  2  0  0  0  0
 29 34  1  0  0  0  0
 30 31  1  0  0  0  0
 30 33  1  0  0  0  0
 31 32  1  0  0  0  0
 38 39  2  0  0  0  0
 38 40  1  0  0  0  0
 40 41  2  0  0  0  0
 40 46  1  0  0  0  0
 41 42  1  0  0  0  0
 41 49  1  0  0  0  0
 42 43  2  0  0  0  0
 42 48  1  0  0  0  0
 43 44  1  0  0  0  0
 43 45  1  0  0  0  0
 45 46  2  0  0  0  0
 45 47  1  0  0  0  0
M  CHG  1  29   1
M  END
>  <MODEL>
       1

$$$$
