tmp_first_model_19_39.pdb
 OpenBabel08282503233D

 40 44  0  0  1  0  0  0  0  0999 V2000
   -7.2320    0.9540  -25.6030 C   0  0  0  0  0  0  0  0  0  0  0  0
   -6.5000   -0.3690  -25.4070 C   0  0  0  0  0  0  0  0  0  0  0  0
   -5.2970   -0.4680  -25.5810 O   0  0  0  0  0  0  0  0  0  0  0  0
   -7.2540   -1.4510  -25.0420 N   0  0  0  0  0  0  0  0  0  0  0  0
   -6.6460   -2.7650  -24.7200 C   0  0  0  0  0  0  0  0  0  0  0  0
   -7.8230   -3.4990  -24.0350 C   0  0  2  0  0  0  0  0  0  0  0  0
   -8.9950   -2.9690  -24.8670 C   0  0  0  0  0  0  0  0  0  0  0  0
   -8.6590   -1.5020  -24.5580 C   0  0  1  0  0  0  0  0  0  0  0  0
   -8.5980   -1.5850  -23.0820 C   0  0  0  0  0  0  0  0  0  0  0  0
   -8.1600   -0.6180  -22.1230 C   0  0  0  0  0  0  0  0  0  0  0  0
   -8.3100    0.5820  -22.0810 O   0  5  0  0  0  0  0  0  0  0  0  0
   -7.4070   -1.3990  -21.1910 N   0  0  0  0  0  0  0  0  0  0  0  0
   -6.5890   -0.8200  -20.1770 C   0  0  0  0  0  0  0  0  0  0  0  0
   -6.8830   -1.0550  -18.8610 C   0  0  0  0  0  0  0  0  0  0  0  0
   -6.1870   -0.5490  -17.8120 N   0  0  0  0  0  0  0  0  0  0  0  0
   -5.1610    0.2230  -18.0710 C   0  0  0  0  0  0  0  0  0  0  0  0
   -4.7210    0.5320  -19.3900 C   0  0  0  0  0  0  0  0  0  0  0  0
   -3.5850    1.3540  -19.6320 C   0  0  0  0  0  0  0  0  0  0  0  0
   -3.1880    1.6240  -20.9110 C   0  0  0  0  0  0  0  0  0  0  0  0
   -3.8930    1.0750  -22.0050 C   0  0  0  0  0  0  0  0  0  0  0  0
   -4.9850    0.2730  -21.7960 C   0  0  0  0  0  0  0  0  0  0  0  0
   -5.4440   -0.0080  -20.4810 C   0  0  0  0  0  0  0  0  0  0  0  0
   -5.5120   -0.1540  -22.6450 H   0  0  0  0  0  0  0  0  0  0  0  0
   -3.5720    1.2860  -23.0210 H   0  0  0  0  0  0  0  0  0  0  0  0
   -2.3290    2.2620  -21.1000 H   0  0  0  0  0  0  0  0  0  0  0  0
   -3.0530    1.7740  -18.7820 H   0  0  0  0  0  0  0  0  0  0  0  0
   -4.6080    0.6250  -17.2180 H   0  0  0  0  0  0  0  0  0  0  0  0
   -7.7370   -1.6750  -18.6010 H   0  0  0  0  0  0  0  0  0  0  0  0
   -7.2470   -2.7310  -21.6340 C   0  0  0  0  0  0  0  0  0  0  0  0
   -6.5160   -3.5730  -21.1680 O   0  0  0  0  0  0  0  0  0  0  0  0
   -8.0970   -2.8210  -22.7430 N   0  0  0  0  0  0  0  0  0  0  0  0
   -9.2960   -0.7220  -24.9740 H   0  0  0  0  0  0  0  0  0  0  0  0
   -9.9610   -3.2810  -24.4800 H   0  0  0  0  0  0  0  0  0  0  0  0
   -8.9170   -3.2080  -25.9300 H   0  0  0  0  0  0  0  0  0  0  0  0
   -7.7300   -4.5730  -23.9240 H   0  0  0  0  0  0  0  0  0  0  0  0
   -5.7870   -2.6790  -24.0510 H   0  0  0  0  0  0  0  0  0  0  0  0
   -6.3250   -3.2730  -25.6340 H   0  0  0  0  0  0  0  0  0  0  0  0
   -6.4990    1.6970  -25.9130 H   0  0  0  0  0  0  0  0  0  0  0  0
   -7.7130    1.2970  -24.6830 H   0  0  0  0  0  0  0  0  0  0  0  0
   -7.9970    0.8940  -26.3820 H   0  0  0  0  0  0  0  0  0  0  0  0
  1  2  1  0  0  0  0
  1 38  1  0  0  0  0
  1 39  1  0  0  0  0
  1 40  1  0  0  0  0
  2  3  2  0  0  0  0
  2  4  1  0  0  0  0
  4  5  1  0  0  0  0
  4  8  1  0  0  0  0
  5  6  1  0  0  0  0
  5 36  1  0  0  0  0
  5 37  1  0  0  0  0
  6  7  1  0  0  0  0
  6 31  1  0  0  0  0
  6 35  1  1  0  0  0
  7  8  1  0  0  0  0
  7 33  1  0  0  0  0
  7 34  1  0  0  0  0
  8  9  1  0  0  0  0
  8 32  1  6  0  0  0
  9 10  2  0  0  0  0
  9 31  1  0  0  0  0
 10 11  1  0  0  0  0
 10 12  1  0  0  0  0
 12 13  1  0  0  0  0
 12 29  1  0  0  0  0
 13 14  2  0  0  0  0
 13 22  1  0  0  0  0
 14 15  1  0  0  0  0
 14 28  1  0  0  0  0
 15 16  2  0  0  0  0
 16 17  1  0  0  0  0
 16 27  1  0  0  0  0
 17 18  2  0  0  0  0
 17 22  1  0  0  0  0
 18 19  1  0  0  0  0
 18 26  1  0  0  0  0
 19 20  2  0  0  0  0
 19 25  1  0  0  0  0
 20 21  1  0  0  0  0
 20 24  1  0  0  0  0
 21 22  2  0  0  0  0
 21 23  1  0  0  0  0
 29 30  2  0  0  0  0
 29 31  1  0  0  0  0
M  CHG  1  11  -1
M  END
>  <MODEL>
       1

$$$$
