tmp_first_model_17_11.pdb
 OpenBabel08282502223D

 48 52  0  0  0  0  0  0  0  0999 V2000
   -9.6070   -4.0200  -22.4780 C   0  0  0  0  0  0  0  0  0  0  0  0
   -8.9000   -2.7890  -22.1740 N   0  0  0  0  0  0  0  0  0  0  0  0
   -7.8730   -2.7150  -21.2730 C   0  0  0  0  0  0  0  0  0  0  0  0
   -7.3260   -3.6230  -20.6860 O   0  0  0  0  0  0  0  0  0  0  0  0
   -7.5020   -1.3600  -21.1860 N   0  0  0  0  0  0  0  0  0  0  0  0
   -6.6200   -0.8350  -20.1920 C   0  0  0  0  0  0  0  0  0  0  0  0
   -6.9080   -1.0710  -18.8700 C   0  0  0  0  0  0  0  0  0  0  0  0
   -6.2170   -0.5510  -17.8270 N   0  0  0  0  0  0  0  0  0  0  0  0
   -5.1830    0.2040  -18.0990 C   0  0  0  0  0  0  0  0  0  0  0  0
   -4.7420    0.5090  -19.4150 C   0  0  0  0  0  0  0  0  0  0  0  0
   -3.6150    1.3480  -19.6350 C   0  0  0  0  0  0  0  0  0  0  0  0
   -3.2070    1.6330  -20.9080 C   0  0  0  0  0  0  0  0  0  0  0  0
   -3.9050    1.0770  -22.0020 C   0  0  0  0  0  0  0  0  0  0  0  0
   -4.9930    0.2590  -21.8120 C   0  0  0  0  0  0  0  0  0  0  0  0
   -5.4650   -0.0340  -20.5030 C   0  0  0  0  0  0  0  0  0  0  0  0
   -5.5150   -0.1520  -22.6680 H   0  0  0  0  0  0  0  0  0  0  0  0
   -3.5650    1.2940  -23.0090 H   0  0  0  0  0  0  0  0  0  0  0  0
   -2.3420    2.2660  -21.0870 H   0  0  0  0  0  0  0  0  0  0  0  0
   -3.0910    1.7570  -18.7760 H   0  0  0  0  0  0  0  0  0  0  0  0
   -4.6370    0.6090  -17.2500 H   0  0  0  0  0  0  0  0  0  0  0  0
   -7.7530   -1.6960  -18.5940 H   0  0  0  0  0  0  0  0  0  0  0  0
   -8.2260   -0.5870  -22.0950 C   0  0  0  0  0  0  0  0  0  0  0  0
   -8.1060    0.6010  -22.2400 O   0  0  0  0  0  0  0  0  0  0  0  0
   -9.1690   -1.5280  -22.8220 C   0  0  0  0  0  0  0  0  0  0  0  0
   -9.1180   -1.4690  -24.3760 C   0  0  0  0  0  0  0  0  0  0  0  0
  -10.5090   -0.9680  -24.3830 N   0  0  0  0  0  0  0  0  0  0  0  0
  -10.8650    0.4450  -25.2010 S   0  0  0  0  0  0  0  0  0  0  0  0
  -12.2310    0.7680  -24.8450 O   0  0  0  0  0  0  0  0  0  0  0  0
  -10.4490    0.2380  -26.5710 O   0  0  0  0  0  0  0  0  0  0  0  0
   -9.8240    1.7440  -24.5530 C   0  0  0  0  0  0  0  0  0  0  0  0
  -10.2940    2.5480  -23.5210 C   0  0  0  0  0  0  0  0  0  0  0  0
   -9.5000    3.5980  -23.0780 C   0  0  0  0  0  0  0  0  0  0  0  0
   -8.2270    3.7980  -23.5970 C   0  0  0  0  0  0  0  0  0  0  0  0
   -7.7700    2.9910  -24.6320 C   0  0  0  0  0  0  0  0  0  0  0  0
   -8.5760    1.9740  -25.1310 C   0  0  0  0  0  0  0  0  0  0  0  0
   -8.2450    1.3590  -25.9640 H   0  0  0  0  0  0  0  0  0  0  0  0
   -6.7960    3.1740  -25.0730 H   0  0  0  0  0  0  0  0  0  0  0  0
   -7.6060    4.5900  -23.1880 H   0  0  0  0  0  0  0  0  0  0  0  0
   -9.8880    4.3000  -22.3530 H   0  0  0  0  0  0  0  0  0  0  0  0
  -11.2670    2.3520  -23.0760 H   0  0  0  0  0  0  0  0  0  0  0  0
  -10.6280   -1.0100  -22.9060 C   0  0  0  0  0  0  0  0  0  0  0  0
  -10.7920   -0.0350  -22.4300 H   0  0  0  0  0  0  0  0  0  0  0  0
  -11.3990   -1.7040  -22.5630 H   0  0  0  0  0  0  0  0  0  0  0  0
   -9.0330   -2.4360  -24.8780 H   0  0  0  0  0  0  0  0  0  0  0  0
   -8.3770   -0.7860  -24.8100 H   0  0  0  0  0  0  0  0  0  0  0  0
  -10.1330   -4.3940  -21.5900 H   0  0  0  0  0  0  0  0  0  0  0  0
  -10.3360   -3.8000  -23.2650 H   0  0  0  0  0  0  0  0  0  0  0  0
   -8.9070   -4.7900  -22.8300 H   0  0  0  0  0  0  0  0  0  0  0  0
  1  2  1  0  0  0  0
  1 46  1  0  0  0  0
  1 47  1  0  0  0  0
  1 48  1  0  0  0  0
  2  3  1  0  0  0  0
  2 24  1  0  0  0  0
  3  4  2  0  0  0  0
  3  5  1  0  0  0  0
  5  6  1  0  0  0  0
  5 22  1  0  0  0  0
  6  7  2  0  0  0  0
  6 15  1  0  0  0  0
  7  8  1  0  0  0  0
  7 21  1  0  0  0  0
  8  9  2  0  0  0  0
  9 10  1  0  0  0  0
  9 20  1  0  0  0  0
 10 11  2  0  0  0  0
 10 15  1  0  0  0  0
 11 12  1  0  0  0  0
 11 19  1  0  0  0  0
 12 13  2  0  0  0  0
 12 18  1  0  0  0  0
 13 14  1  0  0  0  0
 13 17  1  0  0  0  0
 14 15  2  0  0  0  0
 14 16  1  0  0  0  0
 22 23  2  0  0  0  0
 22 24  1  0  0  0  0
 24 25  1  0  0  0  0
 24 41  1  0  0  0  0
 25 26  1  0  0  0  0
 25 44  1  0  0  0  0
 25 45  1  0  0  0  0
 26 27  1  0  0  0  0
 26 41  1  0  0  0  0
 27 28  2  0  0  0  0
 27 29  2  0  0  0  0
 27 30  1  0  0  0  0
 30 31  2  0  0  0  0
 30 35  1  0  0  0  0
 31 32  1  0  0  0  0
 31 40  1  0  0  0  0
 32 33  2  0  0  0  0
 32 39  1  0  0  0  0
 33 34  1  0  0  0  0
 33 38  1  0  0  0  0
 34 35  2  0  0  0  0
 34 37  1  0  0  0  0
 35 36  1  0  0  0  0
 41 42  1  0  0  0  0
 41 43  1  0  0  0  0
M  END
>  <MODEL>
       1

$$$$
