tmp_first_model_14_75.pdb
 OpenBabel08282500413D

 66 71  0  0  1  0  0  0  0  0999 V2000
   -7.4770    3.2630  -21.7470 C   0  0  0  0  0  0  0  0  0  0  0  0
   -8.5410    2.7950  -22.6180 N   0  0  0  0  0  0  0  0  0  0  0  0
   -8.1830    2.0100  -23.6700 C   0  0  0  0  0  0  0  0  0  0  0  0
   -7.0220    1.7230  -23.9220 O   0  0  0  0  0  0  0  0  0  0  0  0
   -9.3320    1.5170  -24.5380 C   0  0  0  0  0  0  0  0  0  0  0  0
   -9.9060    0.3150  -23.9750 N   0  0  0  0  0  0  0  0  0  0  0  0
   -9.1240   -0.9060  -24.0000 C   0  0  0  0  0  0  0  0  0  0  0  0
   -9.2880   -1.6960  -22.6740 C   0  0  2  0  0  0  0  0  0  0  0  0
   -8.6650   -0.8570  -21.5280 C   0  0  0  0  0  0  0  0  0  0  0  0
   -9.1490    0.1280  -21.0080 O   0  0  0  0  0  0  0  0  0  0  0  0
   -7.4330   -1.3920  -21.2150 N   0  0  0  0  0  0  0  0  0  0  0  0
   -6.6190   -0.8160  -20.2040 C   0  0  0  0  0  0  0  0  0  0  0  0
   -6.9410   -1.0160  -18.8840 C   0  0  0  0  0  0  0  0  0  0  0  0
   -6.2470   -0.5030  -17.8430 N   0  0  0  0  0  0  0  0  0  0  0  0
   -5.1920    0.2250  -18.1090 C   0  0  0  0  0  0  0  0  0  0  0  0
   -4.7460    0.5200  -19.4250 C   0  0  0  0  0  0  0  0  0  0  0  0
   -3.6190    1.3530  -19.6580 C   0  0  0  0  0  0  0  0  0  0  0  0
   -3.2350    1.6560  -20.9340 C   0  0  0  0  0  0  0  0  0  0  0  0
   -3.9550    1.1380  -22.0310 C   0  0  0  0  0  0  0  0  0  0  0  0
   -5.0510    0.3280  -21.8320 C   0  0  0  0  0  0  0  0  0  0  0  0
   -5.4760   -0.0100  -20.5190 C   0  0  0  0  0  0  0  0  0  0  0  0
   -5.6200   -0.0090  -22.6920 H   0  0  0  0  0  0  0  0  0  0  0  0
   -3.6470    1.3910  -23.0410 H   0  0  0  0  0  0  0  0  0  0  0  0
   -2.3820    2.3050  -21.1090 H   0  0  0  0  0  0  0  0  0  0  0  0
   -3.0880    1.7520  -18.7980 H   0  0  0  0  0  0  0  0  0  0  0  0
   -4.6260    0.6250  -17.2650 H   0  0  0  0  0  0  0  0  0  0  0  0
   -7.8020   -1.6280  -18.6270 H   0  0  0  0  0  0  0  0  0  0  0  0
   -7.1000   -2.5800  -21.9840 C   0  0  0  0  0  0  0  0  0  0  0  0
   -8.4350   -2.9890  -22.6300 C   0  0  2  0  0  0  0  0  0  0  0  0
   -8.2420   -3.7560  -23.9390 C   0  0  0  0  0  0  0  0  0  0  0  0
   -9.4900   -4.2260  -24.4860 N   0  0  0  0  0  0  0  0  0  0  0  0
   -9.5880   -4.8860  -25.6800 C   0  0  0  0  0  0  0  0  0  0  0  0
   -8.4580   -5.2100  -26.4770 C   0  0  0  0  0  0  0  0  0  0  0  0
   -8.5700   -5.8380  -27.6360 N   0  0  0  0  0  0  0  0  0  0  0  0
   -9.8060   -6.1690  -28.0260 C   0  0  0  0  0  0  0  0  0  0  0  0
  -10.9110   -5.8590  -27.2460 C   0  0  0  0  0  0  0  0  0  0  0  0
  -10.8160   -5.2220  -26.0800 N   0  0  0  0  0  0  0  0  0  0  0  0
  -11.9180   -6.1260  -27.5630 H   0  0  0  0  0  0  0  0  0  0  0  0
   -9.9130   -6.6880  -28.9750 H   0  0  0  0  0  0  0  0  0  0  0  0
   -7.4490   -4.9500  -26.1630 H   0  0  0  0  0  0  0  0  0  0  0  0
  -10.3710   -4.0260  -24.0290 H   0  0  0  0  0  0  0  0  0  0  0  0
   -7.5880   -4.6160  -23.7490 H   0  0  0  0  0  0  0  0  0  0  0  0
   -7.7220   -3.1230  -24.6760 H   0  0  0  0  0  0  0  0  0  0  0  0
   -8.9330   -3.6670  -21.9320 H   0  0  0  0  0  0  0  0  0  0  0  0
   -6.3330   -2.3630  -22.7440 H   0  0  0  0  0  0  0  0  0  0  0  0
   -6.7150   -3.3690  -21.3330 H   0  0  0  0  0  0  0  0  0  0  0  0
  -10.7770   -1.9030  -22.4450 C   0  0  0  0  0  0  0  0  0  0  0  0
  -11.2900   -2.9720  -21.7000 C   0  0  0  0  0  0  0  0  0  0  0  0
  -12.6430   -3.0360  -21.4200 C   0  0  0  0  0  0  0  0  0  0  0  0
  -13.2470   -4.2270  -20.3190 Cl  0  0  0  0  0  0  0  0  0  0  0  0
  -13.5420   -2.0920  -21.8980 C   0  0  0  0  0  0  0  0  0  0  0  0
  -13.0520   -1.0430  -22.6460 C   0  0  0  0  0  0  0  0  0  0  0  0
  -11.6810   -0.9180  -22.8700 C   0  0  0  0  0  0  0  0  0  0  0  0
  -11.1770    0.3520  -23.4840 C   0  0  0  0  0  0  0  0  0  0  0  0
  -11.8640    1.3670  -23.5190 O   0  0  0  0  0  0  0  0  0  0  0  0
  -13.7230   -0.2800  -23.0210 H   0  0  0  0  0  0  0  0  0  0  0  0
  -14.5810   -2.1580  -21.5970 H   0  0  0  0  0  0  0  0  0  0  0  0
  -10.6620   -3.7260  -21.2410 H   0  0  0  0  0  0  0  0  0  0  0  0
   -8.0780   -0.6250  -24.1600 H   0  0  0  0  0  0  0  0  0  0  0  0
   -9.4570   -1.5260  -24.8420 H   0  0  0  0  0  0  0  0  0  0  0  0
  -10.1130    2.2760  -24.5390 H   0  0  0  0  0  0  0  0  0  0  0  0
   -8.9380    1.3390  -25.5500 H   0  0  0  0  0  0  0  0  0  0  0  0
   -9.4820    2.7550  -22.2400 H   0  0  0  0  0  0  0  0  0  0  0  0
   -7.9020    3.7560  -20.8710 H   0  0  0  0  0  0  0  0  0  0  0  0
   -6.8450    2.4140  -21.4490 H   0  0  0  0  0  0  0  0  0  0  0  0
   -6.8520    3.9880  -22.2760 H   0  0  0  0  0  0  0  0  0  0  0  0
  1  2  1  0  0  0  0
  1 64  1  0  0  0  0
  1 65  1  0  0  0  0
  1 66  1  0  0  0  0
  2  3  1  0  0  0  0
  2 63  1  0  0  0  0
  3  4  2  0  0  0  0
  3  5  1  0  0  0  0
  5  6  1  0  0  0  0
  5 61  1  0  0  0  0
  5 62  1  0  0  0  0
  6  7  1  0  0  0  0
  6 54  1  0  0  0  0
  7  8  1  0  0  0  0
  7 59  1  0  0  0  0
  7 60  1  0  0  0  0
  8  9  1  1  0  0  0
  8 29  1  0  0  0  0
  8 47  1  0  0  0  0
  9 10  2  0  0  0  0
  9 11  1  0  0  0  0
 11 12  1  0  0  0  0
 11 28  1  0  0  0  0
 12 13  2  0  0  0  0
 12 21  1  0  0  0  0
 13 14  1  0  0  0  0
 13 27  1  0  0  0  0
 14 15  2  0  0  0  0
 15 16  1  0  0  0  0
 15 26  1  0  0  0  0
 16 17  2  0  0  0  0
 16 21  1  0  0  0  0
 17 18  1  0  0  0  0
 17 25  1  0  0  0  0
 18 19  2  0  0  0  0
 18 24  1  0  0  0  0
 19 20  1  0  0  0  0
 19 23  1  0  0  0  0
 20 21  2  0  0  0  0
 20 22  1  0  0  0  0
 28 29  1  0  0  0  0
 28 45  1  0  0  0  0
 28 46  1  0  0  0  0
 29 30  1  0  0  0  0
 29 44  1  1  0  0  0
 30 31  1  0  0  0  0
 30 42  1  0  0  0  0
 30 43  1  0  0  0  0
 31 32  1  0  0  0  0
 31 41  1  0  0  0  0
 32 33  2  0  0  0  0
 32 37  1  0  0  0  0
 33 34  1  0  0  0  0
 33 40  1  0  0  0  0
 34 35  2  0  0  0  0
 35 36  1  0  0  0  0
 35 39  1  0  0  0  0
 36 37  2  0  0  0  0
 36 38  1  0  0  0  0
 47 48  2  0  0  0  0
 47 53  1  0  0  0  0
 48 49  1  0  0  0  0
 48 58  1  0  0  0  0
 49 50  1  0  0  0  0
 49 51  2  0  0  0  0
 51 52  1  0  0  0  0
 51 57  1  0  0  0  0
 52 53  2  0  0  0  0
 52 56  1  0  0  0  0
 53 54  1  0  0  0  0
 54 55  2  0  0  0  0
M  END
>  <MODEL>
       1

$$$$
