tmp_first_model_12_2.pdb
 OpenBabel08272523333D

 60 65  0  0  1  0  0  0  0  0999 V2000
   -5.1950   -1.4950  -30.4850 C   0  0  0  0  0  0  0  0  0  0  0  0
   -5.6790   -0.8810  -29.2060 C   0  0  0  0  0  0  0  0  0  0  0  0
   -5.1610   -1.2830  -27.9710 C   0  0  0  0  0  0  0  0  0  0  0  0
   -5.6160   -0.7890  -26.8220 N   0  0  0  0  0  0  0  0  0  0  0  0
   -6.5810    0.1350  -26.9060 C   0  0  0  0  0  0  0  0  0  0  0  0
   -7.1070    0.7140  -25.6230 C   0  0  0  0  0  0  0  0  0  0  0  0
   -8.2230   -0.0190  -25.0660 N   0  0  0  0  0  0  0  0  0  0  0  0
   -7.9770   -1.3140  -24.4690 C   0  0  0  0  0  0  0  0  0  0  0  0
   -8.7550   -1.4780  -23.1500 C   0  0  2  0  0  0  0  0  0  0  0  0
   -8.1430   -0.5640  -22.0740 C   0  0  0  0  0  0  0  0  0  0  0  0
   -8.2580    0.6400  -21.9800 O   0  0  0  0  0  0  0  0  0  0  0  0
   -7.4020   -1.3300  -21.2140 N   0  0  0  0  0  0  0  0  0  0  0  0
   -6.6250   -0.7610  -20.1840 C   0  0  0  0  0  0  0  0  0  0  0  0
   -6.9010   -1.0660  -18.8750 C   0  0  0  0  0  0  0  0  0  0  0  0
   -6.2080   -0.5900  -17.8120 N   0  0  0  0  0  0  0  0  0  0  0  0
   -5.2030    0.2150  -18.0690 C   0  0  0  0  0  0  0  0  0  0  0  0
   -4.7970    0.5920  -19.3810 C   0  0  0  0  0  0  0  0  0  0  0  0
   -3.6480    1.3960  -19.5990 C   0  0  0  0  0  0  0  0  0  0  0  0
   -3.2620    1.7330  -20.8680 C   0  0  0  0  0  0  0  0  0  0  0  0
   -4.0210    1.2990  -21.9800 C   0  0  0  0  0  0  0  0  0  0  0  0
   -5.1100    0.4850  -21.7980 C   0  0  0  0  0  0  0  0  0  0  0  0
   -5.5250    0.1030  -20.4860 C   0  0  0  0  0  0  0  0  0  0  0  0
   -5.6450    0.1090  -22.6680 H   0  0  0  0  0  0  0  0  0  0  0  0
   -3.7060    1.5790  -22.9830 H   0  0  0  0  0  0  0  0  0  0  0  0
   -2.3760    2.3390  -21.0310 H   0  0  0  0  0  0  0  0  0  0  0  0
   -3.0810    1.7220  -18.7320 H   0  0  0  0  0  0  0  0  0  0  0  0
   -4.6280    0.5890  -17.2200 H   0  0  0  0  0  0  0  0  0  0  0  0
   -7.7450   -1.7180  -18.6410 H   0  0  0  0  0  0  0  0  0  0  0  0
   -7.4110   -2.7390  -21.5280 C   0  0  0  0  0  0  0  0  0  0  0  0
   -8.5530   -2.8980  -22.5450 C   0  0  2  0  0  0  0  0  0  0  0  0
   -8.3060   -4.0450  -23.5300 C   0  0  0  0  0  0  0  0  0  0  0  0
   -9.1020   -4.1310  -24.2790 H   0  0  0  0  0  0  0  0  0  0  0  0
   -8.2450   -5.0080  -23.0090 H   0  0  0  0  0  0  0  0  0  0  0  0
   -7.3590   -3.9090  -24.0680 H   0  0  0  0  0  0  0  0  0  0  0  0
   -9.4600   -3.1450  -21.9880 H   0  0  0  0  0  0  0  0  0  0  0  0
   -6.4470   -3.0610  -21.9490 H   0  0  0  0  0  0  0  0  0  0  0  0
   -7.5840   -3.3030  -20.6160 H   0  0  0  0  0  0  0  0  0  0  0  0
  -10.1900   -1.0730  -23.3870 C   0  0  0  0  0  0  0  0  0  0  0  0
  -11.1910   -1.4700  -22.4940 C   0  0  0  0  0  0  0  0  0  0  0  0
  -12.4910   -1.0680  -22.7210 C   0  0  0  0  0  0  0  0  0  0  0  0
  -13.4490   -1.4780  -21.8720 F   0  0  0  0  0  0  0  0  0  0  0  0
  -12.8540   -0.2380  -23.7790 C   0  0  0  0  0  0  0  0  0  0  0  0
  -11.8500    0.2250  -24.6060 C   0  0  0  0  0  0  0  0  0  0  0  0
  -10.5340   -0.1890  -24.4190 C   0  0  0  0  0  0  0  0  0  0  0  0
   -9.4960    0.4100  -25.3110 C   0  0  0  0  0  0  0  0  0  0  0  0
   -9.7610    1.2500  -26.1620 O   0  0  0  0  0  0  0  0  0  0  0  0
  -12.0350    0.9400  -25.3990 H   0  0  0  0  0  0  0  0  0  0  0  0
  -13.8990    0.0250  -23.9120 H   0  0  0  0  0  0  0  0  0  0  0  0
  -10.9740   -2.0700  -21.6130 H   0  0  0  0  0  0  0  0  0  0  0  0
   -6.9020   -1.4300  -24.2960 H   0  0  0  0  0  0  0  0  0  0  0  0
   -8.2870   -2.1050  -25.1640 H   0  0  0  0  0  0  0  0  0  0  0  0
   -7.4520    1.7400  -25.7670 H   0  0  0  0  0  0  0  0  0  0  0  0
   -6.3000    0.6960  -24.8820 H   0  0  0  0  0  0  0  0  0  0  0  0
   -7.0820    0.5490  -28.1330 C   0  0  0  0  0  0  0  0  0  0  0  0
   -6.6370    0.0450  -29.2870 N   0  0  0  0  0  0  0  0  0  0  0  0
   -7.8610    1.3120  -28.1730 H   0  0  0  0  0  0  0  0  0  0  0  0
   -4.3560   -2.0190  -27.9140 H   0  0  0  0  0  0  0  0  0  0  0  0
   -5.5010   -2.5440  -30.5540 H   0  0  0  0  0  0  0  0  0  0  0  0
   -4.1040   -1.4720  -30.5530 H   0  0  0  0  0  0  0  0  0  0  0  0
   -5.6140   -0.9590  -31.3350 H   0  0  0  0  0  0  0  0  0  0  0  0
  1  2  1  0  0  0  0
  1 58  1  0  0  0  0
  1 59  1  0  0  0  0
  1 60  1  0  0  0  0
  2  3  2  0  0  0  0
  2 55  1  0  0  0  0
  3  4  1  0  0  0  0
  3 57  1  0  0  0  0
  4  5  2  0  0  0  0
  5  6  1  0  0  0  0
  5 54  1  0  0  0  0
  6  7  1  0  0  0  0
  6 52  1  0  0  0  0
  6 53  1  0  0  0  0
  7  8  1  0  0  0  0
  7 45  1  0  0  0  0
  8  9  1  0  0  0  0
  8 50  1  0  0  0  0
  8 51  1  0  0  0  0
  9 10  1  1  0  0  0
  9 30  1  0  0  0  0
  9 38  1  0  0  0  0
 10 11  2  0  0  0  0
 10 12  1  0  0  0  0
 12 13  1  0  0  0  0
 12 29  1  0  0  0  0
 13 14  2  0  0  0  0
 13 22  1  0  0  0  0
 14 15  1  0  0  0  0
 14 28  1  0  0  0  0
 15 16  2  0  0  0  0
 16 17  1  0  0  0  0
 16 27  1  0  0  0  0
 17 18  2  0  0  0  0
 17 22  1  0  0  0  0
 18 19  1  0  0  0  0
 18 26  1  0  0  0  0
 19 20  2  0  0  0  0
 19 25  1  0  0  0  0
 20 21  1  0  0  0  0
 20 24  1  0  0  0  0
 21 22  2  0  0  0  0
 21 23  1  0  0  0  0
 29 30  1  0  0  0  0
 29 36  1  0  0  0  0
 29 37  1  0  0  0  0
 30 31  1  0  0  0  0
 30 35  1  1  0  0  0
 31 32  1  0  0  0  0
 31 33  1  0  0  0  0
 31 34  1  0  0  0  0
 38 39  2  0  0  0  0
 38 44  1  0  0  0  0
 39 40  1  0  0  0  0
 39 49  1  0  0  0  0
 40 41  1  0  0  0  0
 40 42  2  0  0  0  0
 42 43  1  0  0  0  0
 42 48  1  0  0  0  0
 43 44  2  0  0  0  0
 43 47  1  0  0  0  0
 44 45  1  0  0  0  0
 45 46  2  0  0  0  0
 54 55  2  0  0  0  0
 54 56  1  0  0  0  0
M  END
>  <MODEL>
       1

$$$$
