tmp_first_model_2_23.pdb
 OpenBabel08272517383D

 68 73  0  0  1  0  0  0  0  0999 V2000
  -14.3570   -1.3140  -23.6450 C   0  0  0  0  0  0  0  0  0  0  0  0
  -13.7380   -2.5430  -23.1950 N   0  0  0  0  0  0  0  0  0  0  0  0
  -13.4410   -2.6770  -21.8800 C   0  0  0  0  0  0  0  0  0  0  0  0
  -13.8740   -1.9360  -21.0100 O   0  0  0  0  0  0  0  0  0  0  0  0
  -12.5590   -3.8740  -21.5610 C   0  0  0  0  0  0  0  0  0  0  0  0
  -11.2340   -3.8290  -22.1650 N   0  0  0  0  0  0  0  0  0  0  0  0
  -10.1060   -3.2880  -21.4170 C   0  0  0  0  0  0  0  0  0  0  0  0
   -8.8810   -2.8920  -22.2860 C   0  0  2  0  0  0  0  0  0  0  0  0
   -7.6750   -2.7080  -21.3510 C   0  0  0  0  0  0  0  0  0  0  0  0
   -7.0410   -3.5870  -20.8020 O   0  0  0  0  0  0  0  0  0  0  0  0
   -7.4020   -1.3590  -21.2280 N   0  0  0  0  0  0  0  0  0  0  0  0
   -6.5860   -0.8630  -20.1840 C   0  0  0  0  0  0  0  0  0  0  0  0
   -6.9010   -1.1030  -18.8690 C   0  0  0  0  0  0  0  0  0  0  0  0
   -6.2320   -0.5690  -17.8140 N   0  0  0  0  0  0  0  0  0  0  0  0
   -5.2070    0.2050  -18.0800 C   0  0  0  0  0  0  0  0  0  0  0  0
   -4.7570    0.5090  -19.3970 C   0  0  0  0  0  0  0  0  0  0  0  0
   -3.6330    1.3390  -19.6330 C   0  0  0  0  0  0  0  0  0  0  0  0
   -3.2280    1.6070  -20.9110 C   0  0  0  0  0  0  0  0  0  0  0  0
   -3.9250    1.0600  -22.0120 C   0  0  0  0  0  0  0  0  0  0  0  0
   -5.0190    0.2550  -21.8110 C   0  0  0  0  0  0  0  0  0  0  0  0
   -5.4640   -0.0340  -20.4930 C   0  0  0  0  0  0  0  0  0  0  0  0
   -5.5470   -0.1690  -22.6600 H   0  0  0  0  0  0  0  0  0  0  0  0
   -3.5970    1.2890  -23.0210 H   0  0  0  0  0  0  0  0  0  0  0  0
   -2.3700    2.2480  -21.0900 H   0  0  0  0  0  0  0  0  0  0  0  0
   -3.1150    1.7600  -18.7750 H   0  0  0  0  0  0  0  0  0  0  0  0
   -4.6680    0.6390  -17.2340 H   0  0  0  0  0  0  0  0  0  0  0  0
   -7.7400   -1.7470  -18.6160 H   0  0  0  0  0  0  0  0  0  0  0  0
   -8.3670   -0.5120  -21.9180 C   0  0  0  0  0  0  0  0  0  0  0  0
   -9.0040   -1.4740  -22.9300 C   0  0  2  0  0  0  0  0  0  0  0  0
  -10.4420   -1.1330  -23.3550 C   0  0  0  0  0  0  0  0  0  0  0  0
  -10.5880    0.0270  -24.2020 N   0  0  0  0  0  0  0  0  0  0  0  0
  -10.6150    1.2990  -23.6250 C   0  0  0  0  0  0  0  0  0  0  0  0
  -11.4550    1.6080  -22.5470 C   0  0  0  0  0  0  0  0  0  0  0  0
  -11.5450    2.9210  -22.0940 C   0  0  0  0  0  0  0  0  0  0  0  0
  -10.7920    3.9360  -22.6800 C   0  0  0  0  0  0  0  0  0  0  0  0
   -9.9210    3.6170  -23.7140 C   0  0  0  0  0  0  0  0  0  0  0  0
   -9.8420    2.3180  -24.1880 C   0  0  0  0  0  0  0  0  0  0  0  0
   -9.1710    2.0720  -25.0060 H   0  0  0  0  0  0  0  0  0  0  0  0
   -9.2870    4.3810  -24.1530 H   0  0  0  0  0  0  0  0  0  0  0  0
  -10.8580    4.9560  -22.3070 H   0  0  0  0  0  0  0  0  0  0  0  0
  -12.1810    3.1550  -21.2400 H   0  0  0  0  0  0  0  0  0  0  0  0
  -12.0630    0.8350  -22.0800 H   0  0  0  0  0  0  0  0  0  0  0  0
   -9.9870   -0.0190  -25.0140 H   0  0  0  0  0  0  0  0  0  0  0  0
  -11.0490   -0.9890  -22.4560 H   0  0  0  0  0  0  0  0  0  0  0  0
  -10.8490   -1.9930  -23.8970 H   0  0  0  0  0  0  0  0  0  0  0  0
   -8.3630   -1.4840  -23.8270 H   0  0  0  0  0  0  0  0  0  0  0  0
   -7.8680    0.3400  -22.3910 H   0  0  0  0  0  0  0  0  0  0  0  0
   -9.1080   -0.1130  -21.2070 H   0  0  0  0  0  0  0  0  0  0  0  0
   -8.6430   -3.9640  -23.3200 C   0  0  0  0  0  0  0  0  0  0  0  0
   -7.3720   -4.1530  -23.8660 C   0  0  0  0  0  0  0  0  0  0  0  0
   -7.1770   -5.1190  -24.8350 C   0  0  0  0  0  0  0  0  0  0  0  0
   -5.6160   -5.2740  -25.5690 Cl  0  0  0  0  0  0  0  0  0  0  0  0
   -8.2120   -5.9440  -25.2720 C   0  0  0  0  0  0  0  0  0  0  0  0
   -9.4720   -5.7440  -24.7420 C   0  0  0  0  0  0  0  0  0  0  0  0
   -9.7020   -4.7290  -23.8150 C   0  0  0  0  0  0  0  0  0  0  0  0
  -11.0960   -4.4480  -23.3650 C   0  0  0  0  0  0  0  0  0  0  0  0
  -12.0830   -4.7330  -24.0400 O   0  0  0  0  0  0  0  0  0  0  0  0
  -10.2940   -6.3900  -25.0280 H   0  0  0  0  0  0  0  0  0  0  0  0
   -8.0270   -6.7160  -26.0140 H   0  0  0  0  0  0  0  0  0  0  0  0
   -6.5360   -3.5530  -23.5230 H   0  0  0  0  0  0  0  0  0  0  0  0
   -9.7940   -4.0410  -20.6950 H   0  0  0  0  0  0  0  0  0  0  0  0
  -10.4360   -2.3960  -20.8700 H   0  0  0  0  0  0  0  0  0  0  0  0
  -12.4970   -3.9810  -20.4820 H   0  0  0  0  0  0  0  0  0  0  0  0
  -13.0610   -4.7490  -21.9780 H   0  0  0  0  0  0  0  0  0  0  0  0
  -13.4120   -3.2620  -23.8390 H   0  0  0  0  0  0  0  0  0  0  0  0
  -13.6510   -0.4680  -23.5980 H   0  0  0  0  0  0  0  0  0  0  0  0
  -15.2230   -1.0870  -23.0130 H   0  0  0  0  0  0  0  0  0  0  0  0
  -14.6860   -1.4280  -24.6790 H   0  0  0  0  0  0  0  0  0  0  0  0
  1  2  1  0  0  0  0
  1 66  1  0  0  0  0
  1 67  1  0  0  0  0
  1 68  1  0  0  0  0
  2  3  1  0  0  0  0
  2 65  1  0  0  0  0
  3  4  2  0  0  0  0
  3  5  1  0  0  0  0
  5  6  1  0  0  0  0
  5 63  1  0  0  0  0
  5 64  1  0  0  0  0
  6  7  1  0  0  0  0
  6 56  1  0  0  0  0
  7  8  1  0  0  0  0
  7 61  1  0  0  0  0
  7 62  1  0  0  0  0
  8  9  1  1  0  0  0
  8 29  1  0  0  0  0
  8 49  1  0  0  0  0
  9 10  2  0  0  0  0
  9 11  1  0  0  0  0
 11 12  1  0  0  0  0
 11 28  1  0  0  0  0
 12 13  2  0  0  0  0
 12 21  1  0  0  0  0
 13 14  1  0  0  0  0
 13 27  1  0  0  0  0
 14 15  2  0  0  0  0
 15 16  1  0  0  0  0
 15 26  1  0  0  0  0
 16 17  2  0  0  0  0
 16 21  1  0  0  0  0
 17 18  1  0  0  0  0
 17 25  1  0  0  0  0
 18 19  2  0  0  0  0
 18 24  1  0  0  0  0
 19 20  1  0  0  0  0
 19 23  1  0  0  0  0
 20 21  2  0  0  0  0
 20 22  1  0  0  0  0
 28 29  1  0  0  0  0
 28 47  1  0  0  0  0
 28 48  1  0  0  0  0
 29 30  1  0  0  0  0
 29 46  1  6  0  0  0
 30 31  1  0  0  0  0
 30 44  1  0  0  0  0
 30 45  1  0  0  0  0
 31 32  1  0  0  0  0
 31 43  1  0  0  0  0
 32 33  2  0  0  0  0
 32 37  1  0  0  0  0
 33 34  1  0  0  0  0
 33 42  1  0  0  0  0
 34 35  2  0  0  0  0
 34 41  1  0  0  0  0
 35 36  1  0  0  0  0
 35 40  1  0  0  0  0
 36 37  2  0  0  0  0
 36 39  1  0  0  0  0
 37 38  1  0  0  0  0
 49 50  2  0  0  0  0
 49 55  1  0  0  0  0
 50 51  1  0  0  0  0
 50 60  1  0  0  0  0
 51 52  1  0  0  0  0
 51 53  2  0  0  0  0
 53 54  1  0  0  0  0
 53 59  1  0  0  0  0
 54 55  2  0  0  0  0
 54 58  1  0  0  0  0
 55 56  1  0  0  0  0
 56 57  2  0  0  0  0
M  END
>  <MODEL>
       1

$$$$
