tmp_first_model_16_19.pdb
 OpenBabel08282501503D

 42 45  0  0  1  0  0  0  0  0999 V2000
   -9.1310   -0.0240  -20.7460 O   0  0  0  0  0  0  0  0  0  0  0  0
   -8.6610   -0.8830  -21.4670 C   0  0  0  0  0  0  0  0  0  0  0  0
   -9.3730   -1.5030  -22.6790 C   0  0  1  0  0  0  0  0  0  0  0  0
  -10.4360   -0.5590  -23.1950 C   0  0  0  0  0  0  0  0  0  0  0  0
  -10.0920    0.7540  -23.5080 C   0  0  0  0  0  0  0  0  0  0  0  0
  -11.0560    1.6460  -23.9430 C   0  0  0  0  0  0  0  0  0  0  0  0
  -12.3860    1.2550  -24.0400 C   0  0  0  0  0  0  0  0  0  0  0  0
  -13.5620    2.4850  -24.2970 Cl  0  0  0  0  0  0  0  0  0  0  0  0
  -12.7230   -0.0810  -23.8320 C   0  0  0  0  0  0  0  0  0  0  0  0
  -14.3260   -0.6710  -24.1100 Cl  0  0  0  0  0  0  0  0  0  0  0  0
  -11.7450   -0.9760  -23.4010 C   0  0  0  0  0  0  0  0  0  0  0  0
  -12.0420   -2.0020  -23.1990 H   0  0  0  0  0  0  0  0  0  0  0  0
  -10.7880    2.6670  -24.1930 H   0  0  0  0  0  0  0  0  0  0  0  0
   -9.0710    1.0950  -23.3320 H   0  0  0  0  0  0  0  0  0  0  0  0
   -8.3330   -1.7910  -23.7750 C   0  0  0  0  0  0  0  0  0  0  0  0
   -7.2330   -2.7620  -23.3410 C   0  0  2  0  0  0  0  0  0  0  0  0
   -7.5340   -4.1160  -23.6550 O   0  0  0  0  0  0  0  0  0  0  0  0
   -8.3960   -4.3310  -23.2700 H   0  0  0  0  0  0  0  0  0  0  0  0
   -6.9340   -2.6300  -21.8410 C   0  0  0  0  0  0  0  0  0  0  0  0
   -7.3820   -1.3610  -21.2830 N   0  0  0  0  0  0  0  0  0  0  0  0
   -6.6260   -0.8110  -20.2160 C   0  0  0  0  0  0  0  0  0  0  0  0
   -6.9460   -1.0930  -18.9140 C   0  0  0  0  0  0  0  0  0  0  0  0
   -6.1810   -0.7220  -17.8600 N   0  0  0  0  0  0  0  0  0  0  0  0
   -5.1120    0.0010  -18.0970 C   0  0  0  0  0  0  0  0  0  0  0  0
   -4.7130    0.4420  -19.3960 C   0  0  0  0  0  0  0  0  0  0  0  0
   -3.6100    1.3100  -19.6280 C   0  0  0  0  0  0  0  0  0  0  0  0
   -3.2310    1.6290  -20.9050 C   0  0  0  0  0  0  0  0  0  0  0  0
   -3.9430    1.1040  -22.0120 C   0  0  0  0  0  0  0  0  0  0  0  0
   -5.0350    0.3020  -21.8100 C   0  0  0  0  0  0  0  0  0  0  0  0
   -5.4640   -0.0250  -20.4980 C   0  0  0  0  0  0  0  0  0  0  0  0
   -5.5900   -0.0930  -22.6560 H   0  0  0  0  0  0  0  0  0  0  0  0
   -3.6200    1.3500  -23.0190 H   0  0  0  0  0  0  0  0  0  0  0  0
   -2.3750    2.2740  -21.0860 H   0  0  0  0  0  0  0  0  0  0  0  0
   -3.0890    1.7320  -18.7710 H   0  0  0  0  0  0  0  0  0  0  0  0
   -4.5020    0.2640  -17.2310 H   0  0  0  0  0  0  0  0  0  0  0  0
   -7.8370   -1.6680  -18.6610 H   0  0  0  0  0  0  0  0  0  0  0  0
   -7.4120   -3.4930  -21.3420 H   0  0  0  0  0  0  0  0  0  0  0  0
   -5.8590   -2.6750  -21.6530 H   0  0  0  0  0  0  0  0  0  0  0  0
   -6.3290   -2.5520  -23.9280 H   0  0  0  0  0  0  0  0  0  0  0  0
   -7.8890   -0.8320  -24.0750 H   0  0  0  0  0  0  0  0  0  0  0  0
   -8.8240   -2.2100  -24.6600 H   0  0  0  0  0  0  0  0  0  0  0  0
   -9.8320   -2.4500  -22.3530 H   0  0  0  0  0  0  0  0  0  0  0  0
  1  2  2  0  0  0  0
  2  3  1  0  0  0  0
  2 20  1  0  0  0  0
  3  4  1  0  0  0  0
  3 15  1  0  0  0  0
  3 42  1  1  0  0  0
  4  5  2  0  0  0  0
  4 11  1  0  0  0  0
  5  6  1  0  0  0  0
  5 14  1  0  0  0  0
  6  7  2  0  0  0  0
  6 13  1  0  0  0  0
  7  8  1  0  0  0  0
  7  9  1  0  0  0  0
  9 10  1  0  0  0  0
  9 11  2  0  0  0  0
 11 12  1  0  0  0  0
 15 16  1  0  0  0  0
 15 40  1  0  0  0  0
 15 41  1  0  0  0  0
 16 17  1  0  0  0  0
 16 19  1  0  0  0  0
 16 39  1  6  0  0  0
 17 18  1  0  0  0  0
 19 20  1  0  0  0  0
 19 37  1  0  0  0  0
 19 38  1  0  0  0  0
 20 21  1  0  0  0  0
 21 22  2  0  0  0  0
 21 30  1  0  0  0  0
 22 23  1  0  0  0  0
 22 36  1  0  0  0  0
 23 24  2  0  0  0  0
 24 25  1  0  0  0  0
 24 35  1  0  0  0  0
 25 26  2  0  0  0  0
 25 30  1  0  0  0  0
 26 27  1  0  0  0  0
 26 34  1  0  0  0  0
 27 28  2  0  0  0  0
 27 33  1  0  0  0  0
 28 29  1  0  0  0  0
 28 32  1  0  0  0  0
 29 30  2  0  0  0  0
 29 31  1  0  0  0  0
M  END
>  <MODEL>
       1

$$$$
