tmp_first_model_16_12.pdb
 OpenBabel08282501503D

 76 82  0  0  1  0  0  0  0  0999 V2000
  -11.3540    1.5550  -24.1130 O   0  0  0  0  0  0  0  0  0  0  0  0
  -10.7280    0.5240  -23.8920 C   0  0  0  0  0  0  0  0  0  0  0  0
  -11.3750   -0.6940  -23.3060 C   0  0  0  0  0  0  0  0  0  0  0  0
  -12.7600   -0.6660  -23.2690 C   0  0  0  0  0  0  0  0  0  0  0  0
  -13.4620   -1.7190  -22.7390 C   0  0  0  0  0  0  0  0  0  0  0  0
  -12.7400   -2.8000  -22.2380 C   0  0  0  0  0  0  0  0  0  0  0  0
  -13.7040   -4.0610  -21.5460 Cl  0  0  0  0  0  0  0  0  0  0  0  0
  -11.3500   -2.8580  -22.2610 C   0  0  0  0  0  0  0  0  0  0  0  0
  -10.6350   -1.7850  -22.8160 C   0  0  0  0  0  0  0  0  0  0  0  0
   -9.1230   -1.6850  -22.8260 C   0  0  1  0  0  0  0  0  0  0  0  0
   -8.7570   -0.8970  -24.1090 C   0  0  0  0  0  0  0  0  0  0  0  0
   -9.4060    0.3950  -24.1650 N   0  0  0  0  0  0  0  0  0  0  0  0
   -8.6480    1.5800  -24.5130 C   0  0  0  0  0  0  0  0  0  0  0  0
   -8.0730    2.2340  -23.2590 C   0  0  0  0  0  0  0  0  0  0  0  0
   -7.2500    3.4340  -23.5250 N   0  3  0  0  0  0  0  0  0  0  0  0
   -6.0600    3.1630  -24.4270 C   0  0  0  0  0  0  0  0  0  0  0  0
   -5.0260    4.2820  -24.2490 C   0  0  0  0  0  0  0  0  0  0  0  0
   -5.6780    5.4720  -23.8630 O   0  0  0  0  0  0  0  0  0  0  0  0
   -6.0990    5.4010  -22.5150 C   0  0  0  0  0  0  0  0  0  0  0  0
   -6.8430    4.0830  -22.2350 C   0  0  0  0  0  0  0  0  0  0  0  0
   -7.7390    4.2540  -21.6300 H   0  0  0  0  0  0  0  0  0  0  0  0
   -6.2040    3.3780  -21.6890 H   0  0  0  0  0  0  0  0  0  0  0  0
   -5.2350    5.4850  -21.8330 H   0  0  0  0  0  0  0  0  0  0  0  0
   -6.7350    6.2770  -22.3600 H   0  0  0  0  0  0  0  0  0  0  0  0
   -4.2670    3.9930  -23.5010 H   0  0  0  0  0  0  0  0  0  0  0  0
   -4.5090    4.4960  -25.1900 H   0  0  0  0  0  0  0  0  0  0  0  0
   -6.4160    3.1390  -25.4590 H   0  0  0  0  0  0  0  0  0  0  0  0
   -5.6380    2.1840  -24.1840 H   0  0  0  0  0  0  0  0  0  0  0  0
   -7.8450    4.1240  -24.0200 H   0  0  0  0  0  0  0  0  0  0  0  0
   -7.4600    1.5000  -22.7260 H   0  0  0  0  0  0  0  0  0  0  0  0
   -8.8890    2.5000  -22.5790 H   0  0  0  0  0  0  0  0  0  0  0  0
   -9.3360    2.2510  -25.0320 H   0  0  0  0  0  0  0  0  0  0  0  0
   -7.8500    1.2760  -25.2020 H   0  0  0  0  0  0  0  0  0  0  0  0
   -9.0790   -1.4980  -24.9640 H   0  0  0  0  0  0  0  0  0  0  0  0
   -7.6780   -0.7360  -24.1630 H   0  0  0  0  0  0  0  0  0  0  0  0
   -8.6170   -0.9100  -21.5900 C   0  0  0  0  0  0  0  0  0  0  0  0
   -9.1610    0.0180  -21.0210 O   0  0  0  0  0  0  0  0  0  0  0  0
   -7.3920   -1.4210  -21.2420 N   0  0  0  0  0  0  0  0  0  0  0  0
   -6.6140   -0.8510  -20.2080 C   0  0  0  0  0  0  0  0  0  0  0  0
   -6.9340   -1.1100  -18.9010 C   0  0  0  0  0  0  0  0  0  0  0  0
   -6.1730   -0.7360  -17.8440 N   0  0  0  0  0  0  0  0  0  0  0  0
   -5.1100   -0.0110  -18.1000 C   0  0  0  0  0  0  0  0  0  0  0  0
   -4.7230    0.4210  -19.4020 C   0  0  0  0  0  0  0  0  0  0  0  0
   -3.6220    1.2920  -19.6200 C   0  0  0  0  0  0  0  0  0  0  0  0
   -3.2350    1.6190  -20.8890 C   0  0  0  0  0  0  0  0  0  0  0  0
   -3.9420    1.1140  -22.0030 C   0  0  0  0  0  0  0  0  0  0  0  0
   -5.0410    0.3080  -21.8200 C   0  0  0  0  0  0  0  0  0  0  0  0
   -5.4700   -0.0490  -20.5090 C   0  0  0  0  0  0  0  0  0  0  0  0
   -5.5790   -0.0670  -22.6860 H   0  0  0  0  0  0  0  0  0  0  0  0
   -3.6000    1.3540  -23.0060 H   0  0  0  0  0  0  0  0  0  0  0  0
   -2.3760    2.2650  -21.0520 H   0  0  0  0  0  0  0  0  0  0  0  0
   -3.1080    1.7020  -18.7550 H   0  0  0  0  0  0  0  0  0  0  0  0
   -4.4830    0.2720  -17.2530 H   0  0  0  0  0  0  0  0  0  0  0  0
   -7.8450   -1.6590  -18.6730 H   0  0  0  0  0  0  0  0  0  0  0  0
   -6.9910   -2.5870  -22.0030 C   0  0  0  0  0  0  0  0  0  0  0  0
   -8.2990   -2.9990  -22.6990 C   0  0  2  0  0  0  0  0  0  0  0  0
   -8.0960   -3.8780  -23.9370 C   0  0  0  0  0  0  0  0  0  0  0  0
   -7.1820   -3.3340  -24.9240 N   0  0  0  0  0  0  0  0  0  0  0  0
   -7.4470   -3.3230  -26.2620 C   0  0  0  0  0  0  0  0  0  0  0  0
   -6.4010   -2.9670  -27.0310 N   0  0  0  0  0  0  0  0  0  0  0  0
   -6.6540   -2.8530  -28.3200 C   0  0  0  0  0  0  0  0  0  0  0  0
   -7.8890   -3.1510  -28.8790 C   0  0  0  0  0  0  0  0  0  0  0  0
   -8.8820   -3.5470  -28.0040 C   0  0  0  0  0  0  0  0  0  0  0  0
   -8.6830   -3.6150  -26.6840 N   0  0  0  0  0  0  0  0  0  0  0  0
   -9.8780   -3.8120  -28.3590 H   0  0  0  0  0  0  0  0  0  0  0  0
   -8.0290   -3.0700  -29.9380 H   0  0  0  0  0  0  0  0  0  0  0  0
   -5.8140   -2.4980  -28.9090 H   0  0  0  0  0  0  0  0  0  0  0  0
   -6.1940   -3.2900  -24.7280 H   0  0  0  0  0  0  0  0  0  0  0  0
   -7.7620   -4.8750  -23.6190 H   0  0  0  0  0  0  0  0  0  0  0  0
   -9.0470   -4.0040  -24.4490 H   0  0  0  0  0  0  0  0  0  0  0  0
   -8.8450   -3.6190  -21.9800 H   0  0  0  0  0  0  0  0  0  0  0  0
   -6.1820   -2.3320  -22.7030 H   0  0  0  0  0  0  0  0  0  0  0  0
   -6.6130   -3.3720  -21.3400 H   0  0  0  0  0  0  0  0  0  0  0  0
  -10.8370   -3.7210  -21.8420 H   0  0  0  0  0  0  0  0  0  0  0  0
  -14.5470   -1.7170  -22.6860 H   0  0  0  0  0  0  0  0  0  0  0  0
  -13.2450    0.2160  -23.6610 H   0  0  0  0  0  0  0  0  0  0  0  0
  1  2  2  0  0  0  0
  2  3  1  0  0  0  0
  2 12  1  0  0  0  0
  3  4  2  0  0  0  0
  3  9  1  0  0  0  0
  4  5  1  0  0  0  0
  4 76  1  0  0  0  0
  5  6  2  0  0  0  0
  5 75  1  0  0  0  0
  6  7  1  0  0  0  0
  6  8  1  0  0  0  0
  8  9  2  0  0  0  0
  8 74  1  0  0  0  0
 10  9  1  1  0  0  0
 10 11  1  0  0  0  0
 10 36  1  0  0  0  0
 10 56  1  0  0  0  0
 11 12  1  0  0  0  0
 11 34  1  0  0  0  0
 11 35  1  0  0  0  0
 12 13  1  0  0  0  0
 13 14  1  0  0  0  0
 13 32  1  0  0  0  0
 13 33  1  0  0  0  0
 14 15  1  0  0  0  0
 14 30  1  0  0  0  0
 14 31  1  0  0  0  0
 15 16  1  0  0  0  0
 15 20  1  0  0  0  0
 15 29  1  0  0  0  0
 16 17  1  0  0  0  0
 16 27  1  0  0  0  0
 16 28  1  0  0  0  0
 17 18  1  0  0  0  0
 17 25  1  0  0  0  0
 17 26  1  0  0  0  0
 18 19  1  0  0  0  0
 19 20  1  0  0  0  0
 19 23  1  0  0  0  0
 19 24  1  0  0  0  0
 20 21  1  0  0  0  0
 20 22  1  0  0  0  0
 36 37  2  0  0  0  0
 36 38  1  0  0  0  0
 38 39  1  0  0  0  0
 38 55  1  0  0  0  0
 39 40  2  0  0  0  0
 39 48  1  0  0  0  0
 40 41  1  0  0  0  0
 40 54  1  0  0  0  0
 41 42  2  0  0  0  0
 42 43  1  0  0  0  0
 42 53  1  0  0  0  0
 43 44  2  0  0  0  0
 43 48  1  0  0  0  0
 44 45  1  0  0  0  0
 44 52  1  0  0  0  0
 45 46  2  0  0  0  0
 45 51  1  0  0  0  0
 46 47  1  0  0  0  0
 46 50  1  0  0  0  0
 47 48  2  0  0  0  0
 47 49  1  0  0  0  0
 55 56  1  0  0  0  0
 55 72  1  0  0  0  0
 55 73  1  0  0  0  0
 56 57  1  0  0  0  0
 56 71  1  1  0  0  0
 57 58  1  0  0  0  0
 57 69  1  0  0  0  0
 57 70  1  0  0  0  0
 58 59  1  0  0  0  0
 58 68  1  0  0  0  0
 59 60  2  0  0  0  0
 59 64  1  0  0  0  0
 60 61  1  0  0  0  0
 61 62  2  0  0  0  0
 61 67  1  0  0  0  0
 62 63  1  0  0  0  0
 62 66  1  0  0  0  0
 63 64  2  0  0  0  0
 63 65  1  0  0  0  0
M  CHG  1  15   1
M  END
>  <MODEL>
       1

$$$$
