tmp_first_model_16_4.pdb
 OpenBabel08282501503D

 59 64  0  0  1  0  0  0  0  0999 V2000
   -7.5280   -3.3870  -23.9120 C   0  0  0  0  0  0  0  0  0  0  0  0
   -8.4170   -2.9300  -22.7460 C   0  0  1  0  0  0  0  0  0  0  0  0
   -7.5770   -2.7850  -21.4630 C   0  0  0  0  0  0  0  0  0  0  0  0
   -7.4320   -1.3570  -21.2920 N   0  0  0  0  0  0  0  0  0  0  0  0
   -6.6360   -0.8380  -20.2370 C   0  0  0  0  0  0  0  0  0  0  0  0
   -6.9270   -1.1490  -18.9330 C   0  0  0  0  0  0  0  0  0  0  0  0
   -6.1860   -0.7700  -17.8650 N   0  0  0  0  0  0  0  0  0  0  0  0
   -5.1260   -0.0350  -18.0980 C   0  0  0  0  0  0  0  0  0  0  0  0
   -4.7170    0.3830  -19.3970 C   0  0  0  0  0  0  0  0  0  0  0  0
   -3.5950    1.2320  -19.5950 C   0  0  0  0  0  0  0  0  0  0  0  0
   -3.1860    1.5490  -20.8590 C   0  0  0  0  0  0  0  0  0  0  0  0
   -3.8710    1.0300  -21.9810 C   0  0  0  0  0  0  0  0  0  0  0  0
   -4.9820    0.2400  -21.8160 C   0  0  0  0  0  0  0  0  0  0  0  0
   -5.4570   -0.0700  -20.5130 C   0  0  0  0  0  0  0  0  0  0  0  0
   -5.5040   -0.1660  -22.6770 H   0  0  0  0  0  0  0  0  0  0  0  0
   -3.5080    1.2620  -22.9790 H   0  0  0  0  0  0  0  0  0  0  0  0
   -2.3250    2.1930  -21.0150 H   0  0  0  0  0  0  0  0  0  0  0  0
   -3.0820    1.6200  -18.7190 H   0  0  0  0  0  0  0  0  0  0  0  0
   -4.5210    0.2540  -17.2380 H   0  0  0  0  0  0  0  0  0  0  0  0
   -7.8150   -1.7330  -18.6890 H   0  0  0  0  0  0  0  0  0  0  0  0
   -8.4090   -0.6250  -21.9390 C   0  0  0  0  0  0  0  0  0  0  0  0
   -8.6280    0.5520  -21.7640 O   0  0  0  0  0  0  0  0  0  0  0  0
   -9.1730   -1.5690  -22.9060 C   0  0  1  0  0  0  0  0  0  0  0  0
   -9.0910   -1.0200  -24.3520 C   0  0  0  0  0  0  0  0  0  0  0  0
   -9.8710    0.1970  -24.5340 N   0  0  0  0  0  0  0  0  0  0  0  0
   -9.3220    1.2540  -25.3760 C   0  0  0  0  0  0  0  0  0  0  0  0
   -8.2660    2.0560  -24.6550 C   0  0  0  0  0  0  0  0  0  0  0  0
   -6.9710    1.8920  -24.8380 N   0  0  0  0  0  0  0  0  0  0  0  0
   -6.3700    2.8260  -24.0310 C   0  0  0  0  0  0  0  0  0  0  0  0
   -7.3100    3.5350  -23.3400 C   0  0  0  0  0  0  0  0  0  0  0  0
   -8.5300    3.0370  -23.7450 N   0  0  0  0  0  0  0  0  0  0  0  0
   -9.8280    3.4610  -23.2410 C   0  0  0  0  0  0  0  0  0  0  0  0
  -10.5380    3.5940  -24.0610 H   0  0  0  0  0  0  0  0  0  0  0  0
  -10.2260    2.7390  -22.5200 H   0  0  0  0  0  0  0  0  0  0  0  0
   -9.7070    4.4220  -22.7350 H   0  0  0  0  0  0  0  0  0  0  0  0
   -7.2390    4.3160  -22.5950 H   0  0  0  0  0  0  0  0  0  0  0  0
   -5.2950    2.9320  -24.0080 H   0  0  0  0  0  0  0  0  0  0  0  0
  -10.1520    1.8870  -25.7120 H   0  0  0  0  0  0  0  0  0  0  0  0
   -8.8370    0.8270  -26.2650 H   0  0  0  0  0  0  0  0  0  0  0  0
  -11.1420    0.3350  -24.0480 C   0  0  0  0  0  0  0  0  0  0  0  0
  -11.9060    1.2120  -24.4310 O   0  0  0  0  0  0  0  0  0  0  0  0
  -11.5500   -0.6620  -23.0050 C   0  0  0  0  0  0  0  0  0  0  0  0
  -12.8880   -0.6490  -22.5990 C   0  0  0  0  0  0  0  0  0  0  0  0
  -13.3790   -1.6490  -21.7830 C   0  0  0  0  0  0  0  0  0  0  0  0
  -12.5000   -2.6360  -21.3590 C   0  0  0  0  0  0  0  0  0  0  0  0
  -12.9730   -3.5940  -20.5430 F   0  0  0  0  0  0  0  0  0  0  0  0
  -11.1590   -2.6430  -21.6910 C   0  0  0  0  0  0  0  0  0  0  0  0
  -10.6560   -1.6340  -22.5280 C   0  0  0  0  0  0  0  0  0  0  0  0
  -10.5350   -3.4330  -21.2800 H   0  0  0  0  0  0  0  0  0  0  0  0
  -14.4140   -1.7040  -21.4600 H   0  0  0  0  0  0  0  0  0  0  0  0
  -13.5300    0.1460  -22.9570 H   0  0  0  0  0  0  0  0  0  0  0  0
   -9.4580   -1.8000  -25.0340 H   0  0  0  0  0  0  0  0  0  0  0  0
   -8.0570   -0.7760  -24.6170 H   0  0  0  0  0  0  0  0  0  0  0  0
   -6.5850   -3.2500  -21.5400 H   0  0  0  0  0  0  0  0  0  0  0  0
   -8.0780   -3.2300  -20.5930 H   0  0  0  0  0  0  0  0  0  0  0  0
   -9.1420   -3.7320  -22.6140 H   0  0  0  0  0  0  0  0  0  0  0  0
   -6.7220   -2.6730  -24.1080 H   0  0  0  0  0  0  0  0  0  0  0  0
   -8.1040   -3.5190  -24.8310 H   0  0  0  0  0  0  0  0  0  0  0  0
   -7.0710   -4.3590  -23.6820 H   0  0  0  0  0  0  0  0  0  0  0  0
  1  2  1  0  0  0  0
  1 57  1  0  0  0  0
  1 58  1  0  0  0  0
  1 59  1  0  0  0  0
  2  3  1  0  0  0  0
  2 23  1  0  0  0  0
  2 56  1  1  0  0  0
  3  4  1  0  0  0  0
  3 54  1  0  0  0  0
  3 55  1  0  0  0  0
  4  5  1  0  0  0  0
  4 21  1  0  0  0  0
  5  6  2  0  0  0  0
  5 14  1  0  0  0  0
  6  7  1  0  0  0  0
  6 20  1  0  0  0  0
  7  8  2  0  0  0  0
  8  9  1  0  0  0  0
  8 19  1  0  0  0  0
  9 10  2  0  0  0  0
  9 14  1  0  0  0  0
 10 11  1  0  0  0  0
 10 18  1  0  0  0  0
 11 12  2  0  0  0  0
 11 17  1  0  0  0  0
 12 13  1  0  0  0  0
 12 16  1  0  0  0  0
 13 14  2  0  0  0  0
 13 15  1  0  0  0  0
 21 22  2  0  0  0  0
 23 21  1  1  0  0  0
 23 24  1  0  0  0  0
 23 48  1  0  0  0  0
 24 25  1  0  0  0  0
 24 52  1  0  0  0  0
 24 53  1  0  0  0  0
 25 26  1  0  0  0  0
 25 40  1  0  0  0  0
 26 27  1  0  0  0  0
 26 38  1  0  0  0  0
 26 39  1  0  0  0  0
 27 28  2  0  0  0  0
 27 31  1  0  0  0  0
 28 29  1  0  0  0  0
 29 30  2  0  0  0  0
 29 37  1  0  0  0  0
 30 31  1  0  0  0  0
 30 36  1  0  0  0  0
 31 32  1  0  0  0  0
 32 33  1  0  0  0  0
 32 34  1  0  0  0  0
 32 35  1  0  0  0  0
 40 41  2  0  0  0  0
 40 42  1  0  0  0  0
 42 43  2  0  0  0  0
 42 48  1  0  0  0  0
 43 44  1  0  0  0  0
 43 51  1  0  0  0  0
 44 45  2  0  0  0  0
 44 50  1  0  0  0  0
 45 46  1  0  0  0  0
 45 47  1  0  0  0  0
 47 48  2  0  0  0  0
 47 49  1  0  0  0  0
M  END
>  <MODEL>
       1

$$$$
