tmp_first_model_12_4.pdb
 OpenBabel08272523333D

 59 64  0  0  1  0  0  0  0  0999 V2000
  -10.0930   -2.6530  -22.3210 C   0  0  0  0  0  0  0  0  0  0  0  0
   -8.9570   -1.7940  -22.8940 C   0  0  1  0  0  0  0  0  0  0  0  0
   -8.5760   -0.6980  -21.8700 C   0  0  0  0  0  0  0  0  0  0  0  0
   -7.4360   -1.2770  -21.1840 N   0  0  0  0  0  0  0  0  0  0  0  0
   -6.7150   -0.6800  -20.1190 C   0  0  0  0  0  0  0  0  0  0  0  0
   -6.9390   -1.0680  -18.8260 C   0  0  0  0  0  0  0  0  0  0  0  0
   -6.2220   -0.6180  -17.7650 N   0  0  0  0  0  0  0  0  0  0  0  0
   -5.2330    0.2100  -18.0060 C   0  0  0  0  0  0  0  0  0  0  0  0
   -4.8830    0.6710  -19.3080 C   0  0  0  0  0  0  0  0  0  0  0  0
   -3.7980    1.5580  -19.5350 C   0  0  0  0  0  0  0  0  0  0  0  0
   -3.5350    2.0210  -20.7940 C   0  0  0  0  0  0  0  0  0  0  0  0
   -4.3330    1.6180  -21.8890 C   0  0  0  0  0  0  0  0  0  0  0  0
   -5.3660    0.7350  -21.7050 C   0  0  0  0  0  0  0  0  0  0  0  0
   -5.6630    0.2400  -20.4000 C   0  0  0  0  0  0  0  0  0  0  0  0
   -5.9560    0.4040  -22.5560 H   0  0  0  0  0  0  0  0  0  0  0  0
   -4.1230    2.0030  -22.8830 H   0  0  0  0  0  0  0  0  0  0  0  0
   -2.7050    2.6990  -20.9660 H   0  0  0  0  0  0  0  0  0  0  0  0
   -3.1930    1.8680  -18.6860 H   0  0  0  0  0  0  0  0  0  0  0  0
   -4.6560    0.5580  -17.1470 H   0  0  0  0  0  0  0  0  0  0  0  0
   -7.7240   -1.7890  -18.6030 H   0  0  0  0  0  0  0  0  0  0  0  0
   -6.8050   -2.2720  -21.8980 C   0  0  0  0  0  0  0  0  0  0  0  0
   -5.8020   -2.8410  -21.5220 O   0  0  0  0  0  0  0  0  0  0  0  0
   -7.6040   -2.5430  -23.1880 C   0  0  1  0  0  0  0  0  0  0  0  0
   -7.7440   -4.0720  -23.3510 C   0  0  0  0  0  0  0  0  0  0  0  0
   -6.5090   -4.6990  -23.8330 N   0  0  0  0  0  0  0  0  0  0  0  0
   -6.0290   -5.8890  -23.1330 C   0  0  0  0  0  0  0  0  0  0  0  0
   -7.1090   -6.9250  -23.0870 C   0  0  0  0  0  0  0  0  0  0  0  0
   -7.6860   -7.3590  -21.9930 N   0  0  0  0  0  0  0  0  0  0  0  0
   -8.7840   -8.0520  -22.4310 C   0  0  0  0  0  0  0  0  0  0  0  0
   -8.8370   -8.0610  -23.7980 C   0  0  0  0  0  0  0  0  0  0  0  0
   -7.7300   -7.3630  -24.2160 N   0  0  0  0  0  0  0  0  0  0  0  0
   -7.3010   -7.1540  -25.5850 C   0  0  0  0  0  0  0  0  0  0  0  0
   -7.6710   -7.9690  -26.2060 H   0  0  0  0  0  0  0  0  0  0  0  0
   -7.6840   -6.2090  -25.9910 H   0  0  0  0  0  0  0  0  0  0  0  0
   -6.2110   -7.1580  -25.6070 H   0  0  0  0  0  0  0  0  0  0  0  0
   -9.5580   -8.4490  -24.4980 H   0  0  0  0  0  0  0  0  0  0  0  0
   -9.5110   -8.4460  -21.7380 H   0  0  0  0  0  0  0  0  0  0  0  0
   -5.1290   -6.2500  -23.6410 H   0  0  0  0  0  0  0  0  0  0  0  0
   -5.7740   -5.6170  -22.1030 H   0  0  0  0  0  0  0  0  0  0  0  0
   -5.8720   -4.2450  -24.9460 C   0  0  0  0  0  0  0  0  0  0  0  0
   -5.0760   -4.9110  -25.6000 O   0  0  0  0  0  0  0  0  0  0  0  0
   -6.1890   -2.8310  -25.3130 C   0  0  0  0  0  0  0  0  0  0  0  0
   -5.6830   -2.3660  -26.5280 C   0  0  0  0  0  0  0  0  0  0  0  0
   -5.8170   -1.0410  -26.8920 C   0  0  0  0  0  0  0  0  0  0  0  0
   -6.4800   -0.2000  -26.0070 C   0  0  0  0  0  0  0  0  0  0  0  0
   -6.5950    1.1010  -26.3290 F   0  0  0  0  0  0  0  0  0  0  0  0
   -7.0460   -0.6510  -24.8250 C   0  0  0  0  0  0  0  0  0  0  0  0
   -6.9240   -2.0000  -24.4530 C   0  0  0  0  0  0  0  0  0  0  0  0
   -7.6160    0.0590  -24.2380 H   0  0  0  0  0  0  0  0  0  0  0  0
   -5.4220   -0.6520  -27.8260 H   0  0  0  0  0  0  0  0  0  0  0  0
   -5.1740   -3.0770  -27.1720 H   0  0  0  0  0  0  0  0  0  0  0  0
   -7.9890   -4.5230  -22.3910 H   0  0  0  0  0  0  0  0  0  0  0  0
   -8.5720   -4.2670  -24.0450 H   0  0  0  0  0  0  0  0  0  0  0  0
   -9.3810   -0.4860  -21.1620 H   0  0  0  0  0  0  0  0  0  0  0  0
   -8.3280    0.2520  -22.3660 H   0  0  0  0  0  0  0  0  0  0  0  0
   -9.3240   -1.3570  -23.8310 H   0  0  0  0  0  0  0  0  0  0  0  0
  -10.9490   -2.0070  -22.0910 H   0  0  0  0  0  0  0  0  0  0  0  0
   -9.7980   -3.1580  -21.3930 H   0  0  0  0  0  0  0  0  0  0  0  0
  -10.4370   -3.4070  -23.0360 H   0  0  0  0  0  0  0  0  0  0  0  0
  1  2  1  0  0  0  0
  1 57  1  0  0  0  0
  1 58  1  0  0  0  0
  1 59  1  0  0  0  0
  2  3  1  0  0  0  0
  2 23  1  0  0  0  0
  2 56  1  6  0  0  0
  3  4  1  0  0  0  0
  3 54  1  0  0  0  0
  3 55  1  0  0  0  0
  4  5  1  0  0  0  0
  4 21  1  0  0  0  0
  5  6  2  0  0  0  0
  5 14  1  0  0  0  0
  6  7  1  0  0  0  0
  6 20  1  0  0  0  0
  7  8  2  0  0  0  0
  8  9  1  0  0  0  0
  8 19  1  0  0  0  0
  9 10  2  0  0  0  0
  9 14  1  0  0  0  0
 10 11  1  0  0  0  0
 10 18  1  0  0  0  0
 11 12  2  0  0  0  0
 11 17  1  0  0  0  0
 12 13  1  0  0  0  0
 12 16  1  0  0  0  0
 13 14  2  0  0  0  0
 13 15  1  0  0  0  0
 21 22  2  0  0  0  0
 23 21  1  1  0  0  0
 23 24  1  0  0  0  0
 23 48  1  0  0  0  0
 24 25  1  0  0  0  0
 24 52  1  0  0  0  0
 24 53  1  0  0  0  0
 25 26  1  0  0  0  0
 25 40  1  0  0  0  0
 26 27  1  0  0  0  0
 26 38  1  0  0  0  0
 26 39  1  0  0  0  0
 27 28  2  0  0  0  0
 27 31  1  0  0  0  0
 28 29  1  0  0  0  0
 29 30  2  0  0  0  0
 29 37  1  0  0  0  0
 30 31  1  0  0  0  0
 30 36  1  0  0  0  0
 31 32  1  0  0  0  0
 32 33  1  0  0  0  0
 32 34  1  0  0  0  0
 32 35  1  0  0  0  0
 40 41  2  0  0  0  0
 40 42  1  0  0  0  0
 42 43  2  0  0  0  0
 42 48  1  0  0  0  0
 43 44  1  0  0  0  0
 43 51  1  0  0  0  0
 44 45  2  0  0  0  0
 44 50  1  0  0  0  0
 45 46  1  0  0  0  0
 45 47  1  0  0  0  0
 47 48  2  0  0  0  0
 47 49  1  0  0  0  0
M  END
>  <MODEL>
       1

$$$$
