tmp_first_model_18_67.pdb
 OpenBabel08282502533D

 58 63  0  0  1  0  0  0  0  0999 V2000
   -6.4700   -0.2750  -30.5970 C   0  0  0  0  0  0  0  0  0  0  0  0
   -6.4130   -0.2510  -29.1030 C   0  0  0  0  0  0  0  0  0  0  0  0
   -7.1270    0.6140  -28.2270 C   0  0  0  0  0  0  0  0  0  0  0  0
   -6.7220    0.2290  -26.9950 C   0  0  0  0  0  0  0  0  0  0  0  0
   -7.1010    0.6720  -25.6140 C   0  0  0  0  0  0  0  0  0  0  0  0
   -8.1960   -0.0920  -25.0590 N   0  0  0  0  0  0  0  0  0  0  0  0
   -7.9440   -1.3940  -24.4740 C   0  0  0  0  0  0  0  0  0  0  0  0
   -8.7760   -1.5660  -23.1760 C   0  0  2  0  0  0  0  0  0  0  0  0
   -8.2400   -0.5910  -22.0920 C   0  0  0  0  0  0  0  0  0  0  0  0
   -8.4240    0.5990  -22.0080 O   0  0  0  0  0  0  0  0  0  0  0  0
   -7.4520   -1.3310  -21.2260 N   0  0  0  0  0  0  0  0  0  0  0  0
   -6.6430   -0.7720  -20.2110 C   0  0  0  0  0  0  0  0  0  0  0  0
   -6.9250   -1.0570  -18.8970 C   0  0  0  0  0  0  0  0  0  0  0  0
   -6.2390   -0.5740  -17.8340 N   0  0  0  0  0  0  0  0  0  0  0  0
   -5.2130    0.2020  -18.0960 C   0  0  0  0  0  0  0  0  0  0  0  0
   -4.7720    0.5270  -19.4110 C   0  0  0  0  0  0  0  0  0  0  0  0
   -3.6320    1.3450  -19.6230 C   0  0  0  0  0  0  0  0  0  0  0  0
   -3.1980    1.6100  -20.8920 C   0  0  0  0  0  0  0  0  0  0  0  0
   -3.8720    1.0620  -22.0050 C   0  0  0  0  0  0  0  0  0  0  0  0
   -4.9850    0.2760  -21.8270 C   0  0  0  0  0  0  0  0  0  0  0  0
   -5.4810    0.0090  -20.5160 C   0  0  0  0  0  0  0  0  0  0  0  0
   -5.4840   -0.1420  -22.6970 H   0  0  0  0  0  0  0  0  0  0  0  0
   -3.5030    1.2650  -23.0060 H   0  0  0  0  0  0  0  0  0  0  0  0
   -2.3300    2.2410  -21.0500 H   0  0  0  0  0  0  0  0  0  0  0  0
   -3.1250    1.7510  -18.7530 H   0  0  0  0  0  0  0  0  0  0  0  0
   -4.6610    0.6040  -17.2470 H   0  0  0  0  0  0  0  0  0  0  0  0
   -7.7710   -1.7030  -18.6690 H   0  0  0  0  0  0  0  0  0  0  0  0
   -7.3690   -2.7390  -21.5460 C   0  0  0  0  0  0  0  0  0  0  0  0
   -8.5320   -2.9510  -22.5170 C   0  0  2  0  0  0  0  0  0  0  0  0
   -8.3390   -4.1020  -23.4930 C   0  0  0  0  0  0  0  0  0  0  0  0
   -8.2890   -5.0600  -22.9670 H   0  0  0  0  0  0  0  0  0  0  0  0
   -7.4110   -3.9700  -24.0610 H   0  0  0  0  0  0  0  0  0  0  0  0
   -9.1700   -4.1380  -24.2070 H   0  0  0  0  0  0  0  0  0  0  0  0
   -9.4010   -3.1690  -21.8920 H   0  0  0  0  0  0  0  0  0  0  0  0
   -7.4810   -3.3160  -20.6290 H   0  0  0  0  0  0  0  0  0  0  0  0
   -6.3940   -3.0090  -21.9850 H   0  0  0  0  0  0  0  0  0  0  0  0
  -10.2190   -1.2860  -23.5420 C   0  0  0  0  0  0  0  0  0  0  0  0
  -11.2760   -1.8290  -22.8040 C   0  0  0  0  0  0  0  0  0  0  0  0
  -12.5650   -1.4310  -23.0860 C   0  0  0  0  0  0  0  0  0  0  0  0
  -13.5620   -1.9040  -22.3190 F   0  0  0  0  0  0  0  0  0  0  0  0
  -12.8940   -0.5960  -24.1500 C   0  0  0  0  0  0  0  0  0  0  0  0
  -11.8570   -0.1230  -24.9220 C   0  0  0  0  0  0  0  0  0  0  0  0
  -10.5340   -0.4130  -24.5960 C   0  0  0  0  0  0  0  0  0  0  0  0
   -9.4700    0.2950  -25.3590 C   0  0  0  0  0  0  0  0  0  0  0  0
   -9.7170    1.1820  -26.1680 O   0  0  0  0  0  0  0  0  0  0  0  0
  -12.0300    0.4820  -25.8020 H   0  0  0  0  0  0  0  0  0  0  0  0
  -13.9270   -0.3030  -24.3210 H   0  0  0  0  0  0  0  0  0  0  0  0
  -11.1280   -2.5300  -21.9930 H   0  0  0  0  0  0  0  0  0  0  0  0
   -8.2010   -2.1950  -25.1850 H   0  0  0  0  0  0  0  0  0  0  0  0
   -6.8700   -1.4860  -24.2770 H   0  0  0  0  0  0  0  0  0  0  0  0
   -6.2390    0.5830  -24.9470 H   0  0  0  0  0  0  0  0  0  0  0  0
   -7.4080    1.7190  -25.6400 H   0  0  0  0  0  0  0  0  0  0  0  0
   -5.8510   -0.7820  -27.0990 O   0  0  0  0  0  0  0  0  0  0  0  0
   -5.6560   -1.0880  -28.4310 N   0  0  0  0  0  0  0  0  0  0  0  0
   -7.8620    1.3730  -28.4730 H   0  0  0  0  0  0  0  0  0  0  0  0
   -7.4900   -0.0510  -30.9250 H   0  0  0  0  0  0  0  0  0  0  0  0
   -6.1710   -1.2580  -30.9740 H   0  0  0  0  0  0  0  0  0  0  0  0
   -5.8130    0.4890  -31.0320 H   0  0  0  0  0  0  0  0  0  0  0  0
  1  2  1  0  0  0  0
  1 56  1  0  0  0  0
  1 57  1  0  0  0  0
  1 58  1  0  0  0  0
  2  3  1  0  0  0  0
  2 54  2  0  0  0  0
  3  4  2  0  0  0  0
  3 55  1  0  0  0  0
  4  5  1  0  0  0  0
  4 53  1  0  0  0  0
  5  6  1  0  0  0  0
  5 51  1  0  0  0  0
  5 52  1  0  0  0  0
  6  7  1  0  0  0  0
  6 44  1  0  0  0  0
  7  8  1  0  0  0  0
  7 49  1  0  0  0  0
  7 50  1  0  0  0  0
  8  9  1  1  0  0  0
  8 29  1  0  0  0  0
  8 37  1  0  0  0  0
  9 10  2  0  0  0  0
  9 11  1  0  0  0  0
 11 12  1  0  0  0  0
 11 28  1  0  0  0  0
 12 13  2  0  0  0  0
 12 21  1  0  0  0  0
 13 14  1  0  0  0  0
 13 27  1  0  0  0  0
 14 15  2  0  0  0  0
 15 16  1  0  0  0  0
 15 26  1  0  0  0  0
 16 17  2  0  0  0  0
 16 21  1  0  0  0  0
 17 18  1  0  0  0  0
 17 25  1  0  0  0  0
 18 19  2  0  0  0  0
 18 24  1  0  0  0  0
 19 20  1  0  0  0  0
 19 23  1  0  0  0  0
 20 21  2  0  0  0  0
 20 22  1  0  0  0  0
 28 29  1  0  0  0  0
 28 35  1  0  0  0  0
 28 36  1  0  0  0  0
 29 30  1  0  0  0  0
 29 34  1  1  0  0  0
 30 31  1  0  0  0  0
 30 32  1  0  0  0  0
 30 33  1  0  0  0  0
 37 38  2  0  0  0  0
 37 43  1  0  0  0  0
 38 39  1  0  0  0  0
 38 48  1  0  0  0  0
 39 40  1  0  0  0  0
 39 41  2  0  0  0  0
 41 42  1  0  0  0  0
 41 47  1  0  0  0  0
 42 43  2  0  0  0  0
 42 46  1  0  0  0  0
 43 44  1  0  0  0  0
 44 45  2  0  0  0  0
 53 54  1  0  0  0  0
M  END
>  <MODEL>
       1

$$$$
