tmp_first_model_15_96.pdb
 OpenBabel08282501153D

 66 70  0  0  1  0  0  0  0  0999 V2000
   -7.4890    3.3000  -21.9000 C   0  0  0  0  0  0  0  0  0  0  0  0
   -8.5160    2.8310  -22.8180 N   0  0  0  0  0  0  0  0  0  0  0  0
   -8.0640    2.0750  -23.8650 C   0  0  0  0  0  0  0  0  0  0  0  0
   -6.8710    1.8810  -24.0560 O   0  0  0  0  0  0  0  0  0  0  0  0
   -9.1040    1.4640  -24.8010 C   0  0  0  0  0  0  0  0  0  0  0  0
   -9.6580    0.2600  -24.2140 N   0  0  0  0  0  0  0  0  0  0  0  0
   -8.8170   -0.9200  -24.0960 C   0  0  0  0  0  0  0  0  0  0  0  0
   -9.0960   -1.6980  -22.7870 C   0  0  2  0  0  0  0  0  0  0  0  0
   -8.5800   -0.8910  -21.5750 C   0  0  0  0  0  0  0  0  0  0  0  0
   -9.1090    0.0690  -21.0480 O   0  0  0  0  0  0  0  0  0  0  0  0
   -7.3740   -1.4280  -21.1900 N   0  0  0  0  0  0  0  0  0  0  0  0
   -6.6000   -0.8280  -20.1710 C   0  0  0  0  0  0  0  0  0  0  0  0
   -6.9270   -1.0460  -18.8570 C   0  0  0  0  0  0  0  0  0  0  0  0
   -6.2370   -0.5490  -17.8040 N   0  0  0  0  0  0  0  0  0  0  0  0
   -5.1940    0.2030  -18.0730 C   0  0  0  0  0  0  0  0  0  0  0  0
   -4.7520    0.5180  -19.3910 C   0  0  0  0  0  0  0  0  0  0  0  0
   -3.6310    1.3560  -19.6280 C   0  0  0  0  0  0  0  0  0  0  0  0
   -3.2440    1.6530  -20.9070 C   0  0  0  0  0  0  0  0  0  0  0  0
   -3.9630    1.1390  -22.0070 C   0  0  0  0  0  0  0  0  0  0  0  0
   -5.0600    0.3330  -21.8080 C   0  0  0  0  0  0  0  0  0  0  0  0
   -5.4740   -0.0070  -20.4880 C   0  0  0  0  0  0  0  0  0  0  0  0
   -5.6260   -0.0140  -22.6670 H   0  0  0  0  0  0  0  0  0  0  0  0
   -3.6530    1.3860  -23.0180 H   0  0  0  0  0  0  0  0  0  0  0  0
   -2.3870    2.2950  -21.0840 H   0  0  0  0  0  0  0  0  0  0  0  0
   -3.1020    1.7610  -18.7710 H   0  0  0  0  0  0  0  0  0  0  0  0
   -4.6340    0.6030  -17.2280 H   0  0  0  0  0  0  0  0  0  0  0  0
   -7.7930   -1.6610  -18.6210 H   0  0  0  0  0  0  0  0  0  0  0  0
   -6.9580   -2.5910  -21.9500 C   0  0  0  0  0  0  0  0  0  0  0  0
   -8.2340   -2.9950  -22.7100 C   0  0  2  0  0  0  0  0  0  0  0  0
   -7.9370   -3.6850  -24.0370 C   0  0  0  0  0  0  0  0  0  0  0  0
   -7.2270   -4.8840  -23.7930 O   0  0  0  0  0  0  0  0  0  0  0  0
   -7.0490   -5.6960  -24.9520 C   0  0  0  0  0  0  0  0  0  0  0  0
   -5.6740   -6.3450  -24.8710 C   0  0  0  0  0  0  0  0  0  0  0  0
   -5.4930   -6.9610  -25.7600 H   0  0  0  0  0  0  0  0  0  0  0  0
   -4.8840   -5.5910  -24.8090 H   0  0  0  0  0  0  0  0  0  0  0  0
   -5.6120   -6.9890  -23.9870 H   0  0  0  0  0  0  0  0  0  0  0  0
   -8.1510   -6.7500  -25.0440 C   0  0  0  0  0  0  0  0  0  0  0  0
   -8.1270   -7.3970  -24.1600 H   0  0  0  0  0  0  0  0  0  0  0  0
   -9.1460   -6.2950  -25.1080 H   0  0  0  0  0  0  0  0  0  0  0  0
   -8.0030   -7.3740  -25.9350 H   0  0  0  0  0  0  0  0  0  0  0  0
   -7.0850   -5.0660  -25.8590 H   0  0  0  0  0  0  0  0  0  0  0  0
   -8.8820   -3.8790  -24.5730 H   0  0  0  0  0  0  0  0  0  0  0  0
   -7.3270   -3.0220  -24.6750 H   0  0  0  0  0  0  0  0  0  0  0  0
   -8.7670   -3.7200  -22.0930 H   0  0  0  0  0  0  0  0  0  0  0  0
   -6.1330   -2.3510  -22.6380 H   0  0  0  0  0  0  0  0  0  0  0  0
   -6.6110   -3.3810  -21.2790 H   0  0  0  0  0  0  0  0  0  0  0  0
  -10.5940   -1.8900  -22.6840 C   0  0  0  0  0  0  0  0  0  0  0  0
  -11.1310   -2.8730  -21.8510 C   0  0  0  0  0  0  0  0  0  0  0  0
  -12.5020   -2.9820  -21.7070 C   0  0  0  0  0  0  0  0  0  0  0  0
  -13.1370   -4.1640  -20.6070 Cl  0  0  0  0  0  0  0  0  0  0  0  0
  -13.3930   -2.1580  -22.3900 C   0  0  0  0  0  0  0  0  0  0  0  0
  -12.8680   -1.1670  -23.1880 C   0  0  0  0  0  0  0  0  0  0  0  0
  -11.4910   -1.0110  -23.3060 C   0  0  0  0  0  0  0  0  0  0  0  0
  -11.0100    0.1790  -24.0660 C   0  0  0  0  0  0  0  0  0  0  0  0
  -11.7730    1.0380  -24.4980 O   0  0  0  0  0  0  0  0  0  0  0  0
  -13.4990   -0.4670  -23.7200 H   0  0  0  0  0  0  0  0  0  0  0  0
  -14.4640   -2.2850  -22.2670 H   0  0  0  0  0  0  0  0  0  0  0  0
  -10.4930   -3.5470  -21.2910 H   0  0  0  0  0  0  0  0  0  0  0  0
   -9.0070   -1.5910  -24.9430 H   0  0  0  0  0  0  0  0  0  0  0  0
   -7.7700   -0.6080  -24.1440 H   0  0  0  0  0  0  0  0  0  0  0  0
   -8.5950    1.2220  -25.7420 H   0  0  0  0  0  0  0  0  0  0  0  0
   -9.9440    2.1380  -25.0090 H   0  0  0  0  0  0  0  0  0  0  0  0
   -9.4290    2.6250  -22.4230 H   0  0  0  0  0  0  0  0  0  0  0  0
   -6.7430    3.8410  -22.4850 H   0  0  0  0  0  0  0  0  0  0  0  0
   -7.9140    3.9980  -21.1750 H   0  0  0  0  0  0  0  0  0  0  0  0
   -6.9960    2.4470  -21.4010 H   0  0  0  0  0  0  0  0  0  0  0  0
  1  2  1  0  0  0  0
  1 64  1  0  0  0  0
  1 65  1  0  0  0  0
  1 66  1  0  0  0  0
  2  3  1  0  0  0  0
  2 63  1  0  0  0  0
  3  4  2  0  0  0  0
  3  5  1  0  0  0  0
  5  6  1  0  0  0  0
  5 61  1  0  0  0  0
  5 62  1  0  0  0  0
  6  7  1  0  0  0  0
  6 54  1  0  0  0  0
  7  8  1  0  0  0  0
  7 59  1  0  0  0  0
  7 60  1  0  0  0  0
  8  9  1  1  0  0  0
  8 29  1  0  0  0  0
  8 47  1  0  0  0  0
  9 10  2  0  0  0  0
  9 11  1  0  0  0  0
 11 12  1  0  0  0  0
 11 28  1  0  0  0  0
 12 13  2  0  0  0  0
 12 21  1  0  0  0  0
 13 14  1  0  0  0  0
 13 27  1  0  0  0  0
 14 15  2  0  0  0  0
 15 16  1  0  0  0  0
 15 26  1  0  0  0  0
 16 17  2  0  0  0  0
 16 21  1  0  0  0  0
 17 18  1  0  0  0  0
 17 25  1  0  0  0  0
 18 19  2  0  0  0  0
 18 24  1  0  0  0  0
 19 20  1  0  0  0  0
 19 23  1  0  0  0  0
 20 21  2  0  0  0  0
 20 22  1  0  0  0  0
 28 29  1  0  0  0  0
 28 45  1  0  0  0  0
 28 46  1  0  0  0  0
 29 30  1  0  0  0  0
 29 44  1  1  0  0  0
 30 31  1  0  0  0  0
 30 42  1  0  0  0  0
 30 43  1  0  0  0  0
 31 32  1  0  0  0  0
 32 33  1  0  0  0  0
 32 37  1  0  0  0  0
 32 41  1  0  0  0  0
 33 34  1  0  0  0  0
 33 35  1  0  0  0  0
 33 36  1  0  0  0  0
 37 38  1  0  0  0  0
 37 39  1  0  0  0  0
 37 40  1  0  0  0  0
 47 48  2  0  0  0  0
 47 53  1  0  0  0  0
 48 49  1  0  0  0  0
 48 58  1  0  0  0  0
 49 50  1  0  0  0  0
 49 51  2  0  0  0  0
 51 52  1  0  0  0  0
 51 57  1  0  0  0  0
 52 53  2  0  0  0  0
 52 56  1  0  0  0  0
 53 54  1  0  0  0  0
 54 55  2  0  0  0  0
M  END
>  <MODEL>
       1

$$$$
