tmp_first_model_15_2.pdb
 OpenBabel08282501153D

 60 65  0  0  1  0  0  0  0  0999 V2000
   -6.0750   -7.6250  -26.6190 C   0  0  0  0  0  0  0  0  0  0  0  0
   -6.5170   -6.1910  -26.7110 C   0  0  0  0  0  0  0  0  0  0  0  0
   -5.6640   -5.1410  -26.3730 C   0  0  0  0  0  0  0  0  0  0  0  0
   -6.0360   -3.8620  -26.4050 N   0  0  0  0  0  0  0  0  0  0  0  0
   -7.2910   -3.6090  -26.7820 C   0  0  0  0  0  0  0  0  0  0  0  0
   -7.7530   -2.1740  -26.8050 C   0  0  0  0  0  0  0  0  0  0  0  0
   -8.6120   -1.8240  -25.6810 N   0  0  0  0  0  0  0  0  0  0  0  0
   -7.9740   -1.2730  -24.4950 C   0  0  0  0  0  0  0  0  0  0  0  0
   -8.7480   -1.5390  -23.1860 C   0  0  2  0  0  0  0  0  0  0  0  0
   -8.1390   -0.6060  -22.1110 C   0  0  0  0  0  0  0  0  0  0  0  0
   -8.2290    0.6030  -22.0500 O   0  0  0  0  0  0  0  0  0  0  0  0
   -7.4160   -1.3660  -21.2170 N   0  0  0  0  0  0  0  0  0  0  0  0
   -6.6150   -0.7960  -20.1910 C   0  0  0  0  0  0  0  0  0  0  0  0
   -6.9000   -1.0530  -18.8730 C   0  0  0  0  0  0  0  0  0  0  0  0
   -6.2040   -0.5580  -17.8190 N   0  0  0  0  0  0  0  0  0  0  0  0
   -5.1730    0.2090  -18.0840 C   0  0  0  0  0  0  0  0  0  0  0  0
   -4.7350    0.5270  -19.4000 C   0  0  0  0  0  0  0  0  0  0  0  0
   -3.5980    1.3500  -19.6340 C   0  0  0  0  0  0  0  0  0  0  0  0
   -3.1840    1.6170  -20.9080 C   0  0  0  0  0  0  0  0  0  0  0  0
   -3.8820    1.0650  -22.0080 C   0  0  0  0  0  0  0  0  0  0  0  0
   -4.9820    0.2720  -21.8060 C   0  0  0  0  0  0  0  0  0  0  0  0
   -5.4600    0.0000  -20.4940 C   0  0  0  0  0  0  0  0  0  0  0  0
   -5.5100   -0.1430  -22.6580 H   0  0  0  0  0  0  0  0  0  0  0  0
   -3.5530    1.2840  -23.0190 H   0  0  0  0  0  0  0  0  0  0  0  0
   -2.3250    2.2590  -21.0860 H   0  0  0  0  0  0  0  0  0  0  0  0
   -3.0790    1.7670  -18.7740 H   0  0  0  0  0  0  0  0  0  0  0  0
   -4.6270    0.6160  -17.2320 H   0  0  0  0  0  0  0  0  0  0  0  0
   -7.7460   -1.6860  -18.6090 H   0  0  0  0  0  0  0  0  0  0  0  0
   -7.4010   -2.7820  -21.5280 C   0  0  0  0  0  0  0  0  0  0  0  0
   -8.5330   -2.9600  -22.5530 C   0  0  2  0  0  0  0  0  0  0  0  0
   -8.2930   -4.1140  -23.5260 C   0  0  0  0  0  0  0  0  0  0  0  0
   -9.0840   -4.1620  -24.2820 H   0  0  0  0  0  0  0  0  0  0  0  0
   -8.2680   -5.0690  -22.9920 H   0  0  0  0  0  0  0  0  0  0  0  0
   -7.3400   -4.0020  -24.0550 H   0  0  0  0  0  0  0  0  0  0  0  0
   -9.4590   -3.1610  -21.9930 H   0  0  0  0  0  0  0  0  0  0  0  0
   -6.4300   -3.0970  -21.9410 H   0  0  0  0  0  0  0  0  0  0  0  0
   -7.5670   -3.3500  -20.6160 H   0  0  0  0  0  0  0  0  0  0  0  0
  -10.2180   -1.2610  -23.4370 C   0  0  0  0  0  0  0  0  0  0  0  0
  -11.0380   -0.9500  -22.3470 C   0  0  0  0  0  0  0  0  0  0  0  0
  -12.3890   -0.7400  -22.5610 C   0  0  0  0  0  0  0  0  0  0  0  0
  -13.2200   -0.3840  -21.5740 F   0  0  0  0  0  0  0  0  0  0  0  0
  -12.9650   -0.8910  -23.8110 C   0  0  0  0  0  0  0  0  0  0  0  0
  -12.1640   -1.2410  -24.8760 C   0  0  0  0  0  0  0  0  0  0  0  0
  -10.7910   -1.4220  -24.7030 C   0  0  0  0  0  0  0  0  0  0  0  0
   -9.9650   -1.8360  -25.8780 C   0  0  0  0  0  0  0  0  0  0  0  0
  -10.4600   -2.1740  -26.9460 O   0  0  0  0  0  0  0  0  0  0  0  0
  -12.5890   -1.3750  -25.8600 H   0  0  0  0  0  0  0  0  0  0  0  0
  -14.0340   -0.7330  -23.8900 H   0  0  0  0  0  0  0  0  0  0  0  0
  -10.5870   -0.8850  -21.3650 H   0  0  0  0  0  0  0  0  0  0  0  0
   -6.9770   -1.7270  -24.4430 H   0  0  0  0  0  0  0  0  0  0  0  0
   -7.8720   -0.1790  -24.5770 H   0  0  0  0  0  0  0  0  0  0  0  0
   -8.3250   -1.9810  -27.7170 H   0  0  0  0  0  0  0  0  0  0  0  0
   -6.8610   -1.5430  -26.7760 H   0  0  0  0  0  0  0  0  0  0  0  0
   -8.1350   -4.6510  -27.1430 C   0  0  0  0  0  0  0  0  0  0  0  0
   -7.7640   -5.9320  -27.1070 N   0  0  0  0  0  0  0  0  0  0  0  0
   -9.1440   -4.4340  -27.4810 H   0  0  0  0  0  0  0  0  0  0  0  0
   -4.6500   -5.3550  -26.0450 H   0  0  0  0  0  0  0  0  0  0  0  0
   -5.1350   -7.7880  -27.1600 H   0  0  0  0  0  0  0  0  0  0  0  0
   -5.8980   -7.8960  -25.5720 H   0  0  0  0  0  0  0  0  0  0  0  0
   -6.8560   -8.2640  -27.0360 H   0  0  0  0  0  0  0  0  0  0  0  0
  1  2  1  0  0  0  0
  1 58  1  0  0  0  0
  1 59  1  0  0  0  0
  1 60  1  0  0  0  0
  2  3  2  0  0  0  0
  2 55  1  0  0  0  0
  3  4  1  0  0  0  0
  3 57  1  0  0  0  0
  4  5  2  0  0  0  0
  5  6  1  0  0  0  0
  5 54  1  0  0  0  0
  6  7  1  0  0  0  0
  6 52  1  0  0  0  0
  6 53  1  0  0  0  0
  7  8  1  0  0  0  0
  7 45  1  0  0  0  0
  8  9  1  0  0  0  0
  8 50  1  0  0  0  0
  8 51  1  0  0  0  0
  9 10  1  1  0  0  0
  9 30  1  0  0  0  0
  9 38  1  0  0  0  0
 10 11  2  0  0  0  0
 10 12  1  0  0  0  0
 12 13  1  0  0  0  0
 12 29  1  0  0  0  0
 13 14  2  0  0  0  0
 13 22  1  0  0  0  0
 14 15  1  0  0  0  0
 14 28  1  0  0  0  0
 15 16  2  0  0  0  0
 16 17  1  0  0  0  0
 16 27  1  0  0  0  0
 17 18  2  0  0  0  0
 17 22  1  0  0  0  0
 18 19  1  0  0  0  0
 18 26  1  0  0  0  0
 19 20  2  0  0  0  0
 19 25  1  0  0  0  0
 20 21  1  0  0  0  0
 20 24  1  0  0  0  0
 21 22  2  0  0  0  0
 21 23  1  0  0  0  0
 29 30  1  0  0  0  0
 29 36  1  0  0  0  0
 29 37  1  0  0  0  0
 30 31  1  0  0  0  0
 30 35  1  1  0  0  0
 31 32  1  0  0  0  0
 31 33  1  0  0  0  0
 31 34  1  0  0  0  0
 38 39  2  0  0  0  0
 38 44  1  0  0  0  0
 39 40  1  0  0  0  0
 39 49  1  0  0  0  0
 40 41  1  0  0  0  0
 40 42  2  0  0  0  0
 42 43  1  0  0  0  0
 42 48  1  0  0  0  0
 43 44  2  0  0  0  0
 43 47  1  0  0  0  0
 44 45  1  0  0  0  0
 45 46  2  0  0  0  0
 54 55  2  0  0  0  0
 54 56  1  0  0  0  0
M  END
>  <MODEL>
       1

$$$$
