tmp_first_model_5_29.pdb
 OpenBabel08272519233D

 55 60  0  0  1  0  0  0  0  0999 V2000
  -10.3010   -1.0980  -23.5280 C   0  0  0  0  0  0  0  0  0  0  0  0
   -8.9120   -1.4960  -23.0430 C   0  0  1  0  0  0  0  0  0  0  0  0
   -8.4200   -0.6590  -21.8540 C   0  0  0  0  0  0  0  0  0  0  0  0
   -7.3620   -1.4850  -21.2890 N   0  0  0  0  0  0  0  0  0  0  0  0
   -6.4410   -1.1000  -20.2860 C   0  0  0  0  0  0  0  0  0  0  0  0
   -6.5930   -1.5670  -19.0020 C   0  0  0  0  0  0  0  0  0  0  0  0
   -5.7070   -1.3470  -18.0020 N   0  0  0  0  0  0  0  0  0  0  0  0
   -4.6260   -0.6630  -18.2970 C   0  0  0  0  0  0  0  0  0  0  0  0
   -4.3670   -0.0870  -19.5740 C   0  0  0  0  0  0  0  0  0  0  0  0
   -3.2270    0.7310  -19.8100 C   0  0  0  0  0  0  0  0  0  0  0  0
   -3.1450    1.4830  -20.9480 C   0  0  0  0  0  0  0  0  0  0  0  0
   -4.1090    1.3290  -21.9740 C   0  0  0  0  0  0  0  0  0  0  0  0
   -5.1580    0.4580  -21.8170 C   0  0  0  0  0  0  0  0  0  0  0  0
   -5.3360   -0.2420  -20.5900 C   0  0  0  0  0  0  0  0  0  0  0  0
   -5.8530    0.3010  -22.6360 H   0  0  0  0  0  0  0  0  0  0  0  0
   -3.9940    1.8790  -22.9040 H   0  0  0  0  0  0  0  0  0  0  0  0
   -2.3020    2.1500  -21.1050 H   0  0  0  0  0  0  0  0  0  0  0  0
   -2.4790    0.8080  -19.0270 H   0  0  0  0  0  0  0  0  0  0  0  0
   -3.9020   -0.5130  -17.4960 H   0  0  0  0  0  0  0  0  0  0  0  0
   -7.4650   -2.1610  -18.7350 H   0  0  0  0  0  0  0  0  0  0  0  0
   -7.5310   -2.8220  -21.5830 C   0  0  0  0  0  0  0  0  0  0  0  0
   -6.8650   -3.7180  -21.1020 O   0  0  0  0  0  0  0  0  0  0  0  0
   -8.7130   -2.9680  -22.5590 C   0  0  1  0  0  0  0  0  0  0  0  0
   -9.8530   -3.5300  -21.7130 C   0  0  0  0  0  0  0  0  0  0  0  0
  -11.0470   -3.8500  -22.4980 N   0  0  0  0  0  0  0  0  0  0  0  0
  -12.2260   -4.0290  -21.7660 C   0  0  0  0  0  0  0  0  0  0  0  0
  -13.3870   -2.9120  -21.6560 C   0  0  0  0  0  0  0  0  0  0  0  0
  -14.5280   -3.7990  -21.7910 C   0  0  0  0  0  0  0  0  0  0  0  0
  -15.3420   -1.3070  -22.8240 N   0  0  0  0  0  0  0  0  0  0  0  0
  -14.5920   -1.7680  -23.6790 N   0  0  0  0  0  0  0  0  0  0  0  0
  -13.3960   -2.9460  -21.6590 N   0  0  0  0  0  0  0  0  0  0  0  0
  -14.9670   -1.4350  -24.5820 H   0  0  0  0  0  0  0  0  0  0  0  0
  -15.1640   -1.5670  -21.8360 H   0  0  0  0  0  0  0  0  0  0  0  0
  -12.1920   -4.1740  -20.7210 H   0  0  0  0  0  0  0  0  0  0  0  0
  -13.1140   -4.4230  -22.1780 H   0  0  0  0  0  0  0  0  0  0  0  0
  -10.9100   -4.5760  -23.6860 C   0  0  0  0  0  0  0  0  0  0  0  0
  -11.8910   -4.9890  -24.2770 O   0  0  0  0  0  0  0  0  0  0  0  0
   -9.4990   -4.7660  -24.1620 C   0  0  0  0  0  0  0  0  0  0  0  0
   -9.2100   -5.7590  -25.1010 C   0  0  0  0  0  0  0  0  0  0  0  0
   -7.9200   -5.9370  -25.5760 C   0  0  0  0  0  0  0  0  0  0  0  0
   -6.9240   -5.0870  -25.1100 C   0  0  0  0  0  0  0  0  0  0  0  0
   -5.6700   -5.2450  -25.5650 F   0  0  0  0  0  0  0  0  0  0  0  0
   -7.1730   -4.1080  -24.1720 C   0  0  0  0  0  0  0  0  0  0  0  0
   -8.4630   -3.9650  -23.6600 C   0  0  0  0  0  0  0  0  0  0  0  0
   -6.3600   -3.4960  -23.7950 H   0  0  0  0  0  0  0  0  0  0  0  0
   -7.6640   -6.7190  -26.2860 H   0  0  0  0  0  0  0  0  0  0  0  0
  -10.0150   -6.4060  -25.4330 H   0  0  0  0  0  0  0  0  0  0  0  0
   -9.4690   -4.4340  -21.2300 H   0  0  0  0  0  0  0  0  0  0  0  0
  -10.1160   -2.8060  -20.9380 H   0  0  0  0  0  0  0  0  0  0  0  0
   -8.0500    0.3240  -22.1540 H   0  0  0  0  0  0  0  0  0  0  0  0
   -9.2380   -0.5090  -21.1310 H   0  0  0  0  0  0  0  0  0  0  0  0
   -8.1940   -1.3670  -23.8650 H   0  0  0  0  0  0  0  0  0  0  0  0
  -10.3790   -0.0120  -23.6400 H   0  0  0  0  0  0  0  0  0  0  0  0
  -10.5350   -1.5550  -24.4950 H   0  0  0  0  0  0  0  0  0  0  0  0
  -11.0710   -1.3990  -22.8100 H   0  0  0  0  0  0  0  0  0  0  0  0
  1  2  1  0  0  0  0
  1 53  1  0  0  0  0
  1 54  1  0  0  0  0
  1 55  1  0  0  0  0
  2  3  1  0  0  0  0
  2 23  1  0  0  0  0
  2 52  1  6  0  0  0
  3  4  1  0  0  0  0
  3 50  1  0  0  0  0
  3 51  1  0  0  0  0
  4  5  1  0  0  0  0
  4 21  1  0  0  0  0
  5  6  2  0  0  0  0
  5 14  1  0  0  0  0
  6  7  1  0  0  0  0
  6 20  1  0  0  0  0
  7  8  2  0  0  0  0
  8  9  1  0  0  0  0
  8 19  1  0  0  0  0
  9 10  2  0  0  0  0
  9 14  1  0  0  0  0
 10 11  1  0  0  0  0
 10 18  1  0  0  0  0
 11 12  2  0  0  0  0
 11 17  1  0  0  0  0
 12 13  1  0  0  0  0
 12 16  1  0  0  0  0
 13 14  2  0  0  0  0
 13 15  1  0  0  0  0
 21 22  2  0  0  0  0
 23 21  1  1  0  0  0
 23 24  1  0  0  0  0
 23 44  1  0  0  0  0
 24 25  1  0  0  0  0
 24 48  1  0  0  0  0
 24 49  1  0  0  0  0
 25 26  1  0  0  0  0
 25 36  1  0  0  0  0
 26 27  1  0  0  0  0
 26 34  1  0  0  0  0
 26 35  1  0  0  0  0
 27 28  1  0  0  0  0
 27 31  2  0  0  0  0
 28 29  2  0  0  0  0
 28 33  1  0  0  0  0
 29 30  1  0  0  0  0
 30 31  1  0  0  0  0
 30 32  1  0  0  0  0
 36 37  2  0  0  0  0
 36 38  1  0  0  0  0
 38 39  2  0  0  0  0
 38 44  1  0  0  0  0
 39 40  1  0  0  0  0
 39 47  1  0  0  0  0
 40 41  2  0  0  0  0
 40 46  1  0  0  0  0
 41 42  1  0  0  0  0
 41 43  1  0  0  0  0
 43 44  2  0  0  0  0
 43 45  1  0  0  0  0
M  END
>  <MODEL>
       1

$$$$
