tmp_first_model_4_30.pdb
 OpenBabel08272518513D

 58 63  0  0  1  0  0  0  0  0999 V2000
   -8.2900   -4.1140  -23.5260 C   0  0  0  0  0  0  0  0  0  0  0  0
   -8.5280   -2.9680  -22.5580 C   0  0  1  0  0  0  0  0  0  0  0  0
   -7.3740   -2.7850  -21.5730 C   0  0  0  0  0  0  0  0  0  0  0  0
   -7.4220   -1.3860  -21.2290 N   0  0  0  0  0  0  0  0  0  0  0  0
   -6.5250   -0.9220  -20.2370 C   0  0  0  0  0  0  0  0  0  0  0  0
   -6.7580   -1.2620  -18.9300 C   0  0  0  0  0  0  0  0  0  0  0  0
   -5.9220   -0.9960  -17.8980 N   0  0  0  0  0  0  0  0  0  0  0  0
   -4.8010   -0.3790  -18.1740 C   0  0  0  0  0  0  0  0  0  0  0  0
   -4.4420    0.0440  -19.4850 C   0  0  0  0  0  0  0  0  0  0  0  0
   -3.2690    0.7990  -19.7190 C   0  0  0  0  0  0  0  0  0  0  0  0
   -3.0080    1.2950  -20.9680 C   0  0  0  0  0  0  0  0  0  0  0  0
   -3.8480    0.9700  -22.0570 C   0  0  0  0  0  0  0  0  0  0  0  0
   -4.9680    0.2020  -21.8640 C   0  0  0  0  0  0  0  0  0  0  0  0
   -5.3100   -0.2440  -20.5610 C   0  0  0  0  0  0  0  0  0  0  0  0
   -5.5950   -0.0620  -22.7090 H   0  0  0  0  0  0  0  0  0  0  0  0
   -3.6290    1.3660  -23.0420 H   0  0  0  0  0  0  0  0  0  0  0  0
   -2.1590    1.9540  -21.1270 H   0  0  0  0  0  0  0  0  0  0  0  0
   -2.6370    1.0220  -18.8640 H   0  0  0  0  0  0  0  0  0  0  0  0
   -4.1070   -0.1770  -17.3550 H   0  0  0  0  0  0  0  0  0  0  0  0
   -7.6820   -1.7830  -18.6840 H   0  0  0  0  0  0  0  0  0  0  0  0
   -8.1520   -0.6190  -22.1120 C   0  0  0  0  0  0  0  0  0  0  0  0
   -8.2640    0.5870  -22.0520 O   0  0  0  0  0  0  0  0  0  0  0  0
   -8.7460   -1.5480  -23.1930 C   0  0  1  0  0  0  0  0  0  0  0  0
   -7.9470   -1.2690  -24.4900 C   0  0  0  0  0  0  0  0  0  0  0  0
   -8.5770   -1.8040  -25.6900 N   0  0  0  0  0  0  0  0  0  0  0  0
   -7.7340   -2.1530  -26.8210 C   0  0  0  0  0  0  0  0  0  0  0  0
   -7.3180   -3.5980  -26.7810 C   0  0  0  0  0  0  0  0  0  0  0  0
   -8.1710   -4.6020  -27.1370 C   0  0  0  0  0  0  0  0  0  0  0  0
   -7.7530   -5.9840  -27.0990 C   0  0  0  0  0  0  0  0  0  0  0  0
   -8.4110   -6.9680  -27.3710 O   0  0  0  0  0  0  0  0  0  0  0  0
   -6.4110   -6.1130  -26.6970 N   0  0  0  0  0  0  0  0  0  0  0  0
   -5.6320   -5.0500  -26.3500 C   0  0  0  0  0  0  0  0  0  0  0  0
   -6.0300   -3.8250  -26.3480 N   0  0  0  0  0  0  0  0  0  0  0  0
   -4.6040   -5.2790  -26.0690 H   0  0  0  0  0  0  0  0  0  0  0  0
   -6.0530   -7.0570  -26.6550 H   0  0  0  0  0  0  0  0  0  0  0  0
   -9.1790   -4.4020  -27.4650 H   0  0  0  0  0  0  0  0  0  0  0  0
   -8.3110   -1.9330  -27.7240 H   0  0  0  0  0  0  0  0  0  0  0  0
   -6.8360   -1.5320  -26.7990 H   0  0  0  0  0  0  0  0  0  0  0  0
   -9.9260   -1.8010  -25.8950 C   0  0  0  0  0  0  0  0  0  0  0  0
  -10.4310   -2.1290  -26.9650 O   0  0  0  0  0  0  0  0  0  0  0  0
  -10.7600   -1.3930  -24.7350 C   0  0  0  0  0  0  0  0  0  0  0  0
  -12.1200   -1.1970  -24.9570 C   0  0  0  0  0  0  0  0  0  0  0  0
  -12.9700   -0.8990  -23.9150 C   0  0  0  0  0  0  0  0  0  0  0  0
  -12.4130   -0.8020  -22.6470 C   0  0  0  0  0  0  0  0  0  0  0  0
  -13.2480   -0.5380  -21.6360 F   0  0  0  0  0  0  0  0  0  0  0  0
  -11.0650   -0.9820  -22.3950 C   0  0  0  0  0  0  0  0  0  0  0  0
  -10.2080   -1.2670  -23.4590 C   0  0  0  0  0  0  0  0  0  0  0  0
  -10.6690   -0.9150  -21.3890 H   0  0  0  0  0  0  0  0  0  0  0  0
  -14.0390   -0.7550  -24.0500 H   0  0  0  0  0  0  0  0  0  0  0  0
  -12.4830   -1.2980  -25.9700 H   0  0  0  0  0  0  0  0  0  0  0  0
   -7.8220   -0.1810  -24.5860 H   0  0  0  0  0  0  0  0  0  0  0  0
   -6.9400   -1.6980  -24.4030 H   0  0  0  0  0  0  0  0  0  0  0  0
   -7.4970   -3.3560  -20.6600 H   0  0  0  0  0  0  0  0  0  0  0  0
   -6.3980   -3.0590  -22.0060 H   0  0  0  0  0  0  0  0  0  0  0  0
   -9.4370   -3.1790  -21.9730 H   0  0  0  0  0  0  0  0  0  0  0  0
   -8.2410   -5.0610  -22.9800 H   0  0  0  0  0  0  0  0  0  0  0  0
   -9.0940   -4.1660  -24.2660 H   0  0  0  0  0  0  0  0  0  0  0  0
   -7.3430   -3.9770  -24.0580 H   0  0  0  0  0  0  0  0  0  0  0  0
  1  2  1  0  0  0  0
  1 56  1  0  0  0  0
  1 57  1  0  0  0  0
  1 58  1  0  0  0  0
  2  3  1  0  0  0  0
  2 23  1  0  0  0  0
  2 55  1  1  0  0  0
  3  4  1  0  0  0  0
  3 53  1  0  0  0  0
  3 54  1  0  0  0  0
  4  5  1  0  0  0  0
  4 21  1  0  0  0  0
  5  6  2  0  0  0  0
  5 14  1  0  0  0  0
  6  7  1  0  0  0  0
  6 20  1  0  0  0  0
  7  8  2  0  0  0  0
  8  9  1  0  0  0  0
  8 19  1  0  0  0  0
  9 10  2  0  0  0  0
  9 14  1  0  0  0  0
 10 11  1  0  0  0  0
 10 18  1  0  0  0  0
 11 12  2  0  0  0  0
 11 17  1  0  0  0  0
 12 13  1  0  0  0  0
 12 16  1  0  0  0  0
 13 14  2  0  0  0  0
 13 15  1  0  0  0  0
 21 22  2  0  0  0  0
 23 21  1  1  0  0  0
 23 24  1  0  0  0  0
 23 47  1  0  0  0  0
 24 25  1  0  0  0  0
 24 51  1  0  0  0  0
 24 52  1  0  0  0  0
 25 26  1  0  0  0  0
 25 39  1  0  0  0  0
 26 27  1  0  0  0  0
 26 37  1  0  0  0  0
 26 38  1  0  0  0  0
 27 28  2  0  0  0  0
 27 33  1  0  0  0  0
 28 29  1  0  0  0  0
 28 36  1  0  0  0  0
 29 30  2  0  0  0  0
 29 31  1  0  0  0  0
 31 32  1  0  0  0  0
 31 35  1  0  0  0  0
 32 33  2  0  0  0  0
 32 34  1  0  0  0  0
 39 40  2  0  0  0  0
 39 41  1  0  0  0  0
 41 42  2  0  0  0  0
 41 47  1  0  0  0  0
 42 43  1  0  0  0  0
 42 50  1  0  0  0  0
 43 44  2  0  0  0  0
 43 49  1  0  0  0  0
 44 45  1  0  0  0  0
 44 46  1  0  0  0  0
 46 47  2  0  0  0  0
 46 48  1  0  0  0  0
M  END
>  <MODEL>
       1

$$$$
