tmp_first_model_16_58.pdb
 OpenBabel08282501503D

 42 45  0  0  1  0  0  0  0  0999 V2000
   -7.2310   -5.3430  -21.6860 C   0  0  0  0  0  0  0  0  0  0  0  0
   -8.0080   -4.3540  -22.4170 N   0  0  0  0  0  0  0  0  0  0  0  0
   -9.2780   -3.7980  -21.9520 C   0  0  0  0  0  0  0  0  0  0  0  0
   -9.4390   -2.2950  -22.2610 C   0  0  1  0  0  0  0  0  0  0  0  0
   -8.6910   -1.2720  -21.4000 C   0  0  0  0  0  0  0  0  0  0  0  0
   -9.2740   -0.3180  -20.9200 O   0  0  0  0  0  0  0  0  0  0  0  0
   -7.3390   -1.4700  -21.2510 N   0  0  0  0  0  0  0  0  0  0  0  0
   -6.5950   -0.8730  -20.2070 C   0  0  0  0  0  0  0  0  0  0  0  0
   -6.9290   -1.1070  -18.8970 C   0  0  0  0  0  0  0  0  0  0  0  0
   -6.1760   -0.7290  -17.8350 N   0  0  0  0  0  0  0  0  0  0  0  0
   -5.1050   -0.0140  -18.0930 C   0  0  0  0  0  0  0  0  0  0  0  0
   -4.7130    0.4070  -19.3980 C   0  0  0  0  0  0  0  0  0  0  0  0
   -3.6190    1.2850  -19.6210 C   0  0  0  0  0  0  0  0  0  0  0  0
   -3.2510    1.6210  -20.8960 C   0  0  0  0  0  0  0  0  0  0  0  0
   -3.9630    1.1140  -22.0060 C   0  0  0  0  0  0  0  0  0  0  0  0
   -5.0500    0.2970  -21.8190 C   0  0  0  0  0  0  0  0  0  0  0  0
   -5.4540   -0.0630  -20.5040 C   0  0  0  0  0  0  0  0  0  0  0  0
   -5.6140   -0.0570  -22.6800 H   0  0  0  0  0  0  0  0  0  0  0  0
   -3.6430    1.3780  -23.0100 H   0  0  0  0  0  0  0  0  0  0  0  0
   -2.4000    2.2730  -21.0660 H   0  0  0  0  0  0  0  0  0  0  0  0
   -3.1060    1.7000  -18.7590 H   0  0  0  0  0  0  0  0  0  0  0  0
   -4.4830    0.2750  -17.2470 H   0  0  0  0  0  0  0  0  0  0  0  0
   -7.8330   -1.6730  -18.6700 H   0  0  0  0  0  0  0  0  0  0  0  0
   -6.8370   -2.0360  -21.9280 H   0  0  0  0  0  0  0  0  0  0  0  0
   -9.0580   -2.0510  -23.6890 C   0  0  0  0  0  0  0  0  0  0  0  0
   -9.5380   -0.9140  -24.3350 C   0  0  0  0  0  0  0  0  0  0  0  0
   -9.1060   -0.6350  -25.6210 C   0  0  0  0  0  0  0  0  0  0  0  0
   -9.7120    0.7780  -26.4400 Cl  0  0  0  0  0  0  0  0  0  0  0  0
   -8.1710   -1.4450  -26.2660 C   0  0  0  0  0  0  0  0  0  0  0  0
   -7.6790   -2.5580  -25.6120 C   0  0  0  0  0  0  0  0  0  0  0  0
   -8.1260   -2.8590  -24.3290 C   0  0  0  0  0  0  0  0  0  0  0  0
   -7.5050   -4.0330  -23.6480 C   0  0  0  0  0  0  0  0  0  0  0  0
   -6.5610   -4.6330  -24.1430 O   0  0  0  0  0  0  0  0  0  0  0  0
   -6.9310   -3.2130  -26.0480 H   0  0  0  0  0  0  0  0  0  0  0  0
   -7.8180   -1.1850  -27.2560 H   0  0  0  0  0  0  0  0  0  0  0  0
  -10.2380   -0.2550  -23.8310 H   0  0  0  0  0  0  0  0  0  0  0  0
  -10.4820   -2.0090  -22.0910 H   0  0  0  0  0  0  0  0  0  0  0  0
  -10.1070   -4.2980  -22.4800 H   0  0  0  0  0  0  0  0  0  0  0  0
   -9.3970   -3.9740  -20.8810 H   0  0  0  0  0  0  0  0  0  0  0  0
   -7.8220   -5.8600  -20.9350 H   0  0  0  0  0  0  0  0  0  0  0  0
   -6.8510   -6.0710  -22.4040 H   0  0  0  0  0  0  0  0  0  0  0  0
   -6.3620   -4.8810  -21.2060 H   0  0  0  0  0  0  0  0  0  0  0  0
  1  2  1  0  0  0  0
  1 40  1  0  0  0  0
  1 41  1  0  0  0  0
  1 42  1  0  0  0  0
  2  3  1  0  0  0  0
  2 32  1  0  0  0  0
  3  4  1  0  0  0  0
  3 38  1  0  0  0  0
  3 39  1  0  0  0  0
  4  5  1  0  0  0  0
  4 25  1  0  0  0  0
  4 37  1  1  0  0  0
  5  6  2  0  0  0  0
  5  7  1  0  0  0  0
  7  8  1  0  0  0  0
  7 24  1  0  0  0  0
  8  9  2  0  0  0  0
  8 17  1  0  0  0  0
  9 10  1  0  0  0  0
  9 23  1  0  0  0  0
 10 11  2  0  0  0  0
 11 12  1  0  0  0  0
 11 22  1  0  0  0  0
 12 13  2  0  0  0  0
 12 17  1  0  0  0  0
 13 14  1  0  0  0  0
 13 21  1  0  0  0  0
 14 15  2  0  0  0  0
 14 20  1  0  0  0  0
 15 16  1  0  0  0  0
 15 19  1  0  0  0  0
 16 17  2  0  0  0  0
 16 18  1  0  0  0  0
 25 26  2  0  0  0  0
 25 31  1  0  0  0  0
 26 27  1  0  0  0  0
 26 36  1  0  0  0  0
 27 28  1  0  0  0  0
 27 29  2  0  0  0  0
 29 30  1  0  0  0  0
 29 35  1  0  0  0  0
 30 31  2  0  0  0  0
 30 34  1  0  0  0  0
 31 32  1  0  0  0  0
 32 33  2  0  0  0  0
M  END
>  <MODEL>
       1

$$$$
