tmp_first_model_6_47.pdb
 OpenBabel08272519583D

 58 63  0  0  1  0  0  0  0  0999 V2000
   -8.9660    0.4550  -21.0630 O   0  0  0  0  0  0  0  0  0  0  0  0
   -8.3070   -0.2370  -21.8210 C   0  0  0  0  0  0  0  0  0  0  0  0
   -7.4630   -1.3750  -21.2610 C   0  0  0  0  0  0  0  0  0  0  0  0
   -6.5870   -0.8290  -20.1590 C   0  0  0  0  0  0  0  0  0  0  0  0
   -6.8830   -1.0610  -18.8440 C   0  0  0  0  0  0  0  0  0  0  0  0
   -6.1970   -0.5670  -17.7810 N   0  0  0  0  0  0  0  0  0  0  0  0
   -5.1760    0.2110  -18.0490 C   0  0  0  0  0  0  0  0  0  0  0  0
   -4.7540    0.5520  -19.3630 C   0  0  0  0  0  0  0  0  0  0  0  0
   -3.6340    1.3920  -19.5940 C   0  0  0  0  0  0  0  0  0  0  0  0
   -3.2600    1.7190  -20.8690 C   0  0  0  0  0  0  0  0  0  0  0  0
   -4.0060    1.2330  -21.9650 C   0  0  0  0  0  0  0  0  0  0  0  0
   -5.0920    0.4140  -21.7670 C   0  0  0  0  0  0  0  0  0  0  0  0
   -5.4900    0.0350  -20.4560 C   0  0  0  0  0  0  0  0  0  0  0  0
   -5.6400    0.0440  -22.6300 H   0  0  0  0  0  0  0  0  0  0  0  0
   -3.6980    1.4850  -22.9770 H   0  0  0  0  0  0  0  0  0  0  0  0
   -2.3970    2.3520  -21.0470 H   0  0  0  0  0  0  0  0  0  0  0  0
   -3.0860    1.7680  -18.7340 H   0  0  0  0  0  0  0  0  0  0  0  0
   -4.6220    0.6140  -17.2010 H   0  0  0  0  0  0  0  0  0  0  0  0
   -7.7350   -1.6920  -18.5880 H   0  0  0  0  0  0  0  0  0  0  0  0
   -6.8730   -1.8390  -22.0560 H   0  0  0  0  0  0  0  0  0  0  0  0
   -8.1500   -2.1340  -20.8640 H   0  0  0  0  0  0  0  0  0  0  0  0
   -8.2400    0.0130  -23.1870 N   0  0  0  0  0  0  0  0  0  0  0  0
   -8.1260   -1.0480  -24.1970 C   0  0  0  0  0  0  0  0  0  0  0  0
   -9.2150   -2.0910  -24.0090 C   0  0  0  0  0  0  0  0  0  0  0  0
   -8.9400   -3.4300  -23.7340 C   0  0  0  0  0  0  0  0  0  0  0  0
   -9.9540   -4.2980  -23.3460 C   0  0  0  0  0  0  0  0  0  0  0  0
  -11.2650   -3.8580  -23.2080 C   0  0  0  0  0  0  0  0  0  0  0  0
  -11.5480   -2.5340  -23.5490 C   0  0  0  0  0  0  0  0  0  0  0  0
  -13.1930   -1.9590  -23.5740 Cl  0  0  0  0  0  0  0  0  0  0  0  0
  -10.5480   -1.6710  -23.9710 C   0  0  0  0  0  0  0  0  0  0  0  0
  -10.8300   -0.6610  -24.2490 H   0  0  0  0  0  0  0  0  0  0  0  0
  -12.0360   -4.5440  -22.8820 H   0  0  0  0  0  0  0  0  0  0  0  0
   -9.7010   -5.3370  -23.1590 H   0  0  0  0  0  0  0  0  0  0  0  0
   -7.9120   -3.7870  -23.7700 H   0  0  0  0  0  0  0  0  0  0  0  0
   -7.1340   -1.5110  -24.1530 H   0  0  0  0  0  0  0  0  0  0  0  0
   -8.1770   -0.5590  -25.1710 H   0  0  0  0  0  0  0  0  0  0  0  0
   -8.4820    1.3830  -23.5530 C   0  0  2  0  0  0  0  0  0  0  0  0
   -7.4360    2.4160  -23.0880 C   0  0  0  0  0  0  0  0  0  0  0  0
   -8.0730    3.6680  -23.6420 N   0  3  1  0  0  0  0  0  0  0  0  0
   -7.2210    4.4820  -24.5140 C   0  0  0  0  0  0  0  0  0  0  0  0
   -6.3770    5.5380  -23.8800 C   0  0  0  0  0  0  0  0  0  0  0  0
   -7.5870    5.9190  -24.6970 C   0  0  0  0  0  0  0  0  0  0  0  0
   -8.4730    6.2600  -24.1670 H   0  0  0  0  0  0  0  0  0  0  0  0
   -7.4380    6.3650  -25.6740 H   0  0  0  0  0  0  0  0  0  0  0  0
   -6.4480    5.6060  -22.7980 H   0  0  0  0  0  0  0  0  0  0  0  0
   -5.3910    5.7260  -24.2900 H   0  0  0  0  0  0  0  0  0  0  0  0
   -6.8140    3.9500  -25.3640 H   0  0  0  0  0  0  0  0  0  0  0  0
   -9.2910    3.0650  -24.3170 C   0  0  2  0  0  0  0  0  0  0  0  0
   -9.7930    2.1400  -23.2100 C   0  0  0  0  0  0  0  0  0  0  0  0
   -9.8430    2.5710  -22.2090 H   0  0  0  0  0  0  0  0  0  0  0  0
  -10.6950    1.5810  -23.4570 H   0  0  0  0  0  0  0  0  0  0  0  0
   -8.7180    1.8200  -25.0060 C   0  0  0  0  0  0  0  0  0  0  0  0
   -7.8420    1.9300  -25.6570 H   0  0  0  0  0  0  0  0  0  0  0  0
   -9.4940    1.2190  -25.4710 H   0  0  0  0  0  0  0  0  0  0  0  0
   -9.9100    3.7910  -24.8240 H   0  0  0  0  0  0  0  0  0  0  0  0
   -8.3950    4.2640  -22.8530 H   0  0  0  0  0  0  0  0  0  0  0  0
   -6.4490    2.2830  -23.5310 H   0  0  0  0  0  0  0  0  0  0  0  0
   -7.3540    2.4650  -22.0000 H   0  0  0  0  0  0  0  0  0  0  0  0
  1  2  2  0  0  0  0
  2  3  1  0  0  0  0
  2 22  1  0  0  0  0
  3  4  1  0  0  0  0
  3 20  1  0  0  0  0
  3 21  1  0  0  0  0
  4  5  2  0  0  0  0
  4 13  1  0  0  0  0
  5  6  1  0  0  0  0
  5 19  1  0  0  0  0
  6  7  2  0  0  0  0
  7  8  1  0  0  0  0
  7 18  1  0  0  0  0
  8  9  2  0  0  0  0
  8 13  1  0  0  0  0
  9 10  1  0  0  0  0
  9 17  1  0  0  0  0
 10 11  2  0  0  0  0
 10 16  1  0  0  0  0
 11 12  1  0  0  0  0
 11 15  1  0  0  0  0
 12 13  2  0  0  0  0
 12 14  1  0  0  0  0
 22 23  1  0  0  0  0
 23 24  1  0  0  0  0
 23 35  1  0  0  0  0
 23 36  1  0  0  0  0
 24 25  2  0  0  0  0
 24 30  1  0  0  0  0
 25 26  1  0  0  0  0
 25 34  1  0  0  0  0
 26 27  2  0  0  0  0
 26 33  1  0  0  0  0
 27 28  1  0  0  0  0
 27 32  1  0  0  0  0
 28 29  1  0  0  0  0
 28 30  2  0  0  0  0
 30 31  1  0  0  0  0
 37 22  1  1  0  0  0
 37 38  1  0  0  0  0
 37 49  1  0  0  0  0
 37 52  1  0  0  0  0
 38 39  1  0  0  0  0
 38 57  1  0  0  0  0
 38 58  1  0  0  0  0
 39 40  1  0  0  0  0
 39 48  1  0  0  0  0
 39 56  1  1  0  0  0
 40 41  1  0  0  0  0
 40 42  1  0  0  0  0
 40 47  1  0  0  0  0
 41 42  1  0  0  0  0
 41 45  1  0  0  0  0
 41 46  1  0  0  0  0
 42 43  1  0  0  0  0
 42 44  1  0  0  0  0
 48 49  1  0  0  0  0
 48 52  1  0  0  0  0
 48 55  1  6  0  0  0
 49 50  1  0  0  0  0
 49 51  1  0  0  0  0
 52 53  1  0  0  0  0
 52 54  1  0  0  0  0
M  CHG  1  39   1
M  END
>  <MODEL>
       1

$$$$
