tmp_first_model_20_64.pdb
 OpenBabel08282503553D

 55 60  0  0  1  0  0  0  0  0999 V2000
  -10.4400   -1.0120  -23.3340 C   0  0  0  0  0  0  0  0  0  0  0  0
   -9.0080   -1.3780  -22.9640 C   0  0  1  0  0  0  0  0  0  0  0  0
   -8.4050   -0.4540  -21.8930 C   0  0  0  0  0  0  0  0  0  0  0  0
   -7.4270   -1.2990  -21.2350 N   0  0  0  0  0  0  0  0  0  0  0  0
   -6.6020   -0.8350  -20.1860 C   0  0  0  0  0  0  0  0  0  0  0  0
   -6.9150   -1.1010  -18.8770 C   0  0  0  0  0  0  0  0  0  0  0  0
   -6.2430   -0.5840  -17.8180 N   0  0  0  0  0  0  0  0  0  0  0  0
   -5.2140    0.1900  -18.0750 C   0  0  0  0  0  0  0  0  0  0  0  0
   -4.7590    0.5090  -19.3890 C   0  0  0  0  0  0  0  0  0  0  0  0
   -3.6220    1.3270  -19.6230 C   0  0  0  0  0  0  0  0  0  0  0  0
   -3.2240    1.6020  -20.9060 C   0  0  0  0  0  0  0  0  0  0  0  0
   -3.9320    1.0700  -22.0070 C   0  0  0  0  0  0  0  0  0  0  0  0
   -5.0310    0.2730  -21.8070 C   0  0  0  0  0  0  0  0  0  0  0  0
   -5.4710   -0.0160  -20.4850 C   0  0  0  0  0  0  0  0  0  0  0  0
   -5.5730   -0.1470  -22.6480 H   0  0  0  0  0  0  0  0  0  0  0  0
   -3.6080    1.2990  -23.0190 H   0  0  0  0  0  0  0  0  0  0  0  0
   -2.3590    2.2340  -21.0870 H   0  0  0  0  0  0  0  0  0  0  0  0
   -3.0800    1.7220  -18.7690 H   0  0  0  0  0  0  0  0  0  0  0  0
   -4.6810    0.6100  -17.2210 H   0  0  0  0  0  0  0  0  0  0  0  0
   -7.7550   -1.7500  -18.6360 H   0  0  0  0  0  0  0  0  0  0  0  0
   -7.6060   -2.6430  -21.4680 C   0  0  0  0  0  0  0  0  0  0  0  0
   -6.8750   -3.5070  -21.0310 O   0  0  0  0  0  0  0  0  0  0  0  0
   -8.8260   -2.8240  -22.3840 C   0  0  1  0  0  0  0  0  0  0  0  0
  -10.0350   -3.2440  -21.5150 C   0  0  0  0  0  0  0  0  0  0  0  0
  -11.1860   -3.6860  -22.3050 N   0  0  0  0  0  0  0  0  0  0  0  0
  -12.5460   -3.6360  -21.7680 C   0  0  0  0  0  0  0  0  0  0  0  0
  -13.4520   -2.5700  -22.3310 C   0  0  0  0  0  0  0  0  0  0  0  0
  -13.5110   -1.2660  -21.9100 N   0  0  0  0  0  0  0  0  0  0  0  0
  -14.4870   -0.7600  -22.6490 C   0  0  0  0  0  0  0  0  0  0  0  0
  -14.9690   -1.7030  -23.4680 N   0  0  0  0  0  0  0  0  0  0  0  0
  -14.3420   -2.8760  -23.2510 N   0  0  0  0  0  0  0  0  0  0  0  0
  -15.7600   -1.6720  -24.0930 H   0  0  0  0  0  0  0  0  0  0  0  0
  -14.8820    0.2500  -22.6240 H   0  0  0  0  0  0  0  0  0  0  0  0
  -13.0240   -4.5730  -22.0580 H   0  0  0  0  0  0  0  0  0  0  0  0
  -12.5190   -3.5610  -20.6780 H   0  0  0  0  0  0  0  0  0  0  0  0
  -11.0130   -4.4860  -23.4100 C   0  0  0  0  0  0  0  0  0  0  0  0
  -11.9440   -5.0170  -23.9980 O   0  0  0  0  0  0  0  0  0  0  0  0
   -9.6160   -4.6810  -23.8890 C   0  0  0  0  0  0  0  0  0  0  0  0
   -9.3990   -5.6620  -24.8560 C   0  0  0  0  0  0  0  0  0  0  0  0
   -8.1300   -5.8730  -25.3620 C   0  0  0  0  0  0  0  0  0  0  0  0
   -7.0950   -5.0650  -24.9070 C   0  0  0  0  0  0  0  0  0  0  0  0
   -5.8610   -5.2370  -25.4100 F   0  0  0  0  0  0  0  0  0  0  0  0
   -7.2890   -4.0830  -23.9580 C   0  0  0  0  0  0  0  0  0  0  0  0
   -8.5690   -3.8910  -23.4210 C   0  0  0  0  0  0  0  0  0  0  0  0
   -6.4420   -3.5090  -23.6040 H   0  0  0  0  0  0  0  0  0  0  0  0
   -7.9260   -6.6520  -26.0870 H   0  0  0  0  0  0  0  0  0  0  0  0
  -10.2510   -6.2430  -25.1990 H   0  0  0  0  0  0  0  0  0  0  0  0
  -10.3090   -2.3890  -20.8840 H   0  0  0  0  0  0  0  0  0  0  0  0
   -9.6990   -4.0430  -20.8520 H   0  0  0  0  0  0  0  0  0  0  0  0
   -9.1700   -0.1060  -21.1820 H   0  0  0  0  0  0  0  0  0  0  0  0
   -7.9370    0.4430  -22.3120 H   0  0  0  0  0  0  0  0  0  0  0  0
   -8.3710   -1.3300  -23.8580 H   0  0  0  0  0  0  0  0  0  0  0  0
  -10.5050   -0.0500  -23.8480 H   0  0  0  0  0  0  0  0  0  0  0  0
  -11.0660   -0.9420  -22.4380 H   0  0  0  0  0  0  0  0  0  0  0  0
  -10.8750   -1.7820  -23.9770 H   0  0  0  0  0  0  0  0  0  0  0  0
  1  2  1  0  0  0  0
  1 53  1  0  0  0  0
  1 54  1  0  0  0  0
  1 55  1  0  0  0  0
  2  3  1  0  0  0  0
  2 23  1  0  0  0  0
  2 52  1  6  0  0  0
  3  4  1  0  0  0  0
  3 50  1  0  0  0  0
  3 51  1  0  0  0  0
  4  5  1  0  0  0  0
  4 21  1  0  0  0  0
  5  6  2  0  0  0  0
  5 14  1  0  0  0  0
  6  7  1  0  0  0  0
  6 20  1  0  0  0  0
  7  8  2  0  0  0  0
  8  9  1  0  0  0  0
  8 19  1  0  0  0  0
  9 10  2  0  0  0  0
  9 14  1  0  0  0  0
 10 11  1  0  0  0  0
 10 18  1  0  0  0  0
 11 12  2  0  0  0  0
 11 17  1  0  0  0  0
 12 13  1  0  0  0  0
 12 16  1  0  0  0  0
 13 14  2  0  0  0  0
 13 15  1  0  0  0  0
 21 22  2  0  0  0  0
 23 21  1  1  0  0  0
 23 24  1  0  0  0  0
 23 44  1  0  0  0  0
 24 25  1  0  0  0  0
 24 48  1  0  0  0  0
 24 49  1  0  0  0  0
 25 26  1  0  0  0  0
 25 36  1  0  0  0  0
 26 27  1  0  0  0  0
 26 34  1  0  0  0  0
 26 35  1  0  0  0  0
 27 28  1  0  0  0  0
 27 31  2  0  0  0  0
 28 29  2  0  0  0  0
 29 30  1  0  0  0  0
 29 33  1  0  0  0  0
 30 31  1  0  0  0  0
 30 32  1  0  0  0  0
 36 37  2  0  0  0  0
 36 38  1  0  0  0  0
 38 39  2  0  0  0  0
 38 44  1  0  0  0  0
 39 40  1  0  0  0  0
 39 47  1  0  0  0  0
 40 41  2  0  0  0  0
 40 46  1  0  0  0  0
 41 42  1  0  0  0  0
 41 43  1  0  0  0  0
 43 44  2  0  0  0  0
 43 45  1  0  0  0  0
M  END
>  <MODEL>
       1

$$$$
