tmp_first_model_8_93.pdb
 OpenBabel08272521063D

 62 67  0  0  1  0  0  0  0  0999 V2000
  -12.6660    4.2020  -22.8520 C   0  0  0  0  0  0  0  0  0  0  0  0
  -11.6130    2.4520  -21.5650 C   0  0  0  0  0  0  0  0  0  0  0  0
  -11.7590    3.1600  -22.8310 N   0  0  0  0  0  0  0  0  0  0  0  0
  -13.6840    4.3130  -23.6210 N   0  0  0  0  0  0  0  0  0  0  0  0
  -14.0580    3.1510  -24.2970 C   0  0  0  0  0  0  0  0  0  0  0  0
  -13.2540    2.0810  -24.4130 C   0  0  0  0  0  0  0  0  0  0  0  0
  -11.8360    2.3160  -24.0380 C   0  0  0  0  0  0  0  0  0  0  0  0
  -10.8260    1.1530  -24.0420 C   0  0  0  0  0  0  0  0  0  0  0  0
  -11.1340   -0.2020  -23.5790 N   0  0  0  0  0  0  0  0  0  0  0  0
  -10.0300   -1.1460  -23.8280 C   0  0  0  0  0  0  0  0  0  0  0  0
   -9.6700   -2.0340  -22.5930 C   0  0  2  0  0  0  0  0  0  0  0  0
   -9.0820   -1.0710  -21.5390 C   0  0  0  0  0  0  0  0  0  0  0  0
   -9.6730   -0.1970  -20.9370 O   0  0  0  0  0  0  0  0  0  0  0  0
   -7.7100   -1.2320  -21.4760 N   0  0  0  0  0  0  0  0  0  0  0  0
   -6.9610   -0.7220  -20.3890 C   0  0  0  0  0  0  0  0  0  0  0  0
   -7.3460   -1.0070  -19.0980 C   0  0  0  0  0  0  0  0  0  0  0  0
   -6.6620   -0.6280  -17.9920 N   0  0  0  0  0  0  0  0  0  0  0  0
   -5.5750    0.0850  -18.1600 C   0  0  0  0  0  0  0  0  0  0  0  0
   -5.0790    0.4810  -19.4310 C   0  0  0  0  0  0  0  0  0  0  0  0
   -3.9100    1.2770  -19.5600 C   0  0  0  0  0  0  0  0  0  0  0  0
   -3.4840    1.6800  -20.7950 C   0  0  0  0  0  0  0  0  0  0  0  0
   -4.2100    1.3160  -21.9510 C   0  0  0  0  0  0  0  0  0  0  0  0
   -5.3400    0.5420  -21.8520 C   0  0  0  0  0  0  0  0  0  0  0  0
   -5.7920    0.0860  -20.5860 C   0  0  0  0  0  0  0  0  0  0  0  0
   -5.9080    0.2950  -22.7420 H   0  0  0  0  0  0  0  0  0  0  0  0
   -3.8700    1.6530  -22.9250 H   0  0  0  0  0  0  0  0  0  0  0  0
   -2.5930    2.2950  -20.8970 H   0  0  0  0  0  0  0  0  0  0  0  0
   -3.3790    1.5700  -18.6570 H   0  0  0  0  0  0  0  0  0  0  0  0
   -5.0330    0.3910  -17.2630 H   0  0  0  0  0  0  0  0  0  0  0  0
   -8.2480   -1.5860  -18.9100 H   0  0  0  0  0  0  0  0  0  0  0  0
   -7.2250   -2.0980  -22.5410 C   0  0  0  0  0  0  0  0  0  0  0  0
   -8.4600   -2.9780  -22.8330 C   0  0  2  0  0  0  0  0  0  0  0  0
   -8.4150   -3.7110  -24.1660 C   0  0  0  0  0  0  0  0  0  0  0  0
   -8.3920   -3.0140  -25.0100 H   0  0  0  0  0  0  0  0  0  0  0  0
   -7.5240   -4.3460  -24.2240 H   0  0  0  0  0  0  0  0  0  0  0  0
   -9.2950   -4.3510  -24.2820 H   0  0  0  0  0  0  0  0  0  0  0  0
   -8.4290   -3.7230  -22.0340 H   0  0  0  0  0  0  0  0  0  0  0  0
   -6.9400   -1.5200  -23.4330 H   0  0  0  0  0  0  0  0  0  0  0  0
   -6.3550   -2.6770  -22.2140 H   0  0  0  0  0  0  0  0  0  0  0  0
  -11.0400   -2.7250  -22.1140 C   0  0  0  0  0  0  0  0  0  0  0  0
  -11.0170   -3.7750  -21.4010 C   0  0  0  0  0  0  0  0  0  0  0  0
  -13.4440   -3.6750  -21.4090 C   0  0  0  0  0  0  0  0  0  0  0  0
  -11.7070   -5.0210  -19.6710 F   0  0  0  0  0  0  0  0  0  0  0  0
  -13.6420   -3.7990  -21.3810 C   0  0  0  0  0  0  0  0  0  0  0  0
  -13.4170   -2.3740  -21.7310 C   0  0  0  0  0  0  0  0  0  0  0  0
  -12.2050   -1.8910  -22.2650 C   0  0  0  0  0  0  0  0  0  0  0  0
  -12.2630   -0.6000  -22.8960 C   0  0  0  0  0  0  0  0  0  0  0  0
  -13.2970    0.0660  -22.8100 O   0  0  0  0  0  0  0  0  0  0  0  0
  -14.0620   -1.6850  -21.2700 H   0  0  0  0  0  0  0  0  0  0  0  0
  -14.5240   -3.5060  -20.7510 H   0  0  0  0  0  0  0  0  0  0  0  0
  -11.3360   -4.5470  -20.4940 H   0  0  0  0  0  0  0  0  0  0  0  0
   -9.1490   -0.5490  -24.0800 H   0  0  0  0  0  0  0  0  0  0  0  0
  -10.2610   -1.7900  -24.6850 H   0  0  0  0  0  0  0  0  0  0  0  0
  -10.4650    1.0430  -25.0710 H   0  0  0  0  0  0  0  0  0  0  0  0
   -9.9570    1.5270  -23.4780 H   0  0  0  0  0  0  0  0  0  0  0  0
  -13.6080    1.1270  -24.7640 H   0  0  0  0  0  0  0  0  0  0  0  0
  -15.0480    3.1680  -24.7440 H   0  0  0  0  0  0  0  0  0  0  0  0
  -10.5910    2.0780  -21.4420 H   0  0  0  0  0  0  0  0  0  0  0  0
  -11.8570    3.1180  -20.7360 H   0  0  0  0  0  0  0  0  0  0  0  0
  -12.4750    4.9740  -22.1070 H   0  0  0  0  0  0  0  0  0  0  0  0
  -11.4220    2.9830  -24.8100 H   0  0  0  0  0  0  0  0  0  0  0  0
  -12.2710    1.5920  -21.5640 H   0  0  0  0  0  0  0  0  0  0  0  0
  1  2  1  0  0  0  0
  1 60  1  0  0  0  0
  1 61  1  0  0  0  0
  1 62  1  0  0  0  0
  2  3  1  0  0  0  0
  2 58  1  0  0  0  0
  2 59  1  0  0  0  0
  3  4  1  0  0  0  0
  3  7  1  0  0  0  0
  4  5  2  0  0  0  0
  5  6  1  0  0  0  0
  5 57  1  0  0  0  0
  6  7  2  0  0  0  0
  6 56  1  0  0  0  0
  7  8  1  0  0  0  0
  8  9  1  0  0  0  0
  8 54  1  0  0  0  0
  8 55  1  0  0  0  0
  9 10  1  0  0  0  0
  9 47  1  0  0  0  0
 10 11  1  0  0  0  0
 10 52  1  0  0  0  0
 10 53  1  0  0  0  0
 11 12  1  1  0  0  0
 11 32  1  0  0  0  0
 11 40  1  0  0  0  0
 12 13  2  0  0  0  0
 12 14  1  0  0  0  0
 14 15  1  0  0  0  0
 14 31  1  0  0  0  0
 15 16  2  0  0  0  0
 15 24  1  0  0  0  0
 16 17  1  0  0  0  0
 16 30  1  0  0  0  0
 17 18  2  0  0  0  0
 18 19  1  0  0  0  0
 18 29  1  0  0  0  0
 19 20  2  0  0  0  0
 19 24  1  0  0  0  0
 20 21  1  0  0  0  0
 20 28  1  0  0  0  0
 21 22  2  0  0  0  0
 21 27  1  0  0  0  0
 22 23  1  0  0  0  0
 22 26  1  0  0  0  0
 23 24  2  0  0  0  0
 23 25  1  0  0  0  0
 31 32  1  0  0  0  0
 31 38  1  0  0  0  0
 31 39  1  0  0  0  0
 32 33  1  0  0  0  0
 32 37  1  1  0  0  0
 33 34  1  0  0  0  0
 33 35  1  0  0  0  0
 33 36  1  0  0  0  0
 40 41  2  0  0  0  0
 40 46  1  0  0  0  0
 41 42  1  0  0  0  0
 41 51  1  0  0  0  0
 42 43  1  0  0  0  0
 42 44  2  0  0  0  0
 44 45  1  0  0  0  0
 44 50  1  0  0  0  0
 45 46  2  0  0  0  0
 45 49  1  0  0  0  0
 46 47  1  0  0  0  0
 47 48  2  0  0  0  0
M  END
>  <MODEL>
       1

$$$$
