tmp_first_model_19_90.pdb
 OpenBabel08282503233D

 64 68  0  0  1  0  0  0  0  0999 V2000
   -7.4830    2.9820  -21.9860 C   0  0  0  0  0  0  0  0  0  0  0  0
   -8.5880    2.5040  -22.7960 N   0  0  0  0  0  0  0  0  0  0  0  0
   -8.3160    1.7850  -23.9170 C   0  0  0  0  0  0  0  0  0  0  0  0
   -7.1720    1.5520  -24.2850 O   0  0  0  0  0  0  0  0  0  0  0  0
   -9.5320    1.2440  -24.6720 C   0  0  0  0  0  0  0  0  0  0  0  0
  -10.0160    0.0540  -23.9990 N   0  0  0  0  0  0  0  0  0  0  0  0
   -9.1440   -1.1100  -23.9620 C   0  0  0  0  0  0  0  0  0  0  0  0
   -9.2600   -1.8580  -22.6090 C   0  0  2  0  0  0  0  0  0  0  0  0
   -8.6770   -0.9680  -21.4820 C   0  0  0  0  0  0  0  0  0  0  0  0
   -9.2090   -0.0160  -20.9460 O   0  0  0  0  0  0  0  0  0  0  0  0
   -7.4040   -1.4170  -21.1960 N   0  0  0  0  0  0  0  0  0  0  0  0
   -6.6190   -0.8320  -20.1770 C   0  0  0  0  0  0  0  0  0  0  0  0
   -6.9390   -1.0540  -18.8610 C   0  0  0  0  0  0  0  0  0  0  0  0
   -6.2300   -0.5710  -17.8170 N   0  0  0  0  0  0  0  0  0  0  0  0
   -5.1880    0.1770  -18.0900 C   0  0  0  0  0  0  0  0  0  0  0  0
   -4.7480    0.4870  -19.4070 C   0  0  0  0  0  0  0  0  0  0  0  0
   -3.6280    1.3230  -19.6480 C   0  0  0  0  0  0  0  0  0  0  0  0
   -3.2520    1.6330  -20.9260 C   0  0  0  0  0  0  0  0  0  0  0  0
   -3.9830    1.1270  -22.0240 C   0  0  0  0  0  0  0  0  0  0  0  0
   -5.0770    0.3180  -21.8190 C   0  0  0  0  0  0  0  0  0  0  0  0
   -5.4810   -0.0320  -20.5000 C   0  0  0  0  0  0  0  0  0  0  0  0
   -5.6710    0.0020  -22.6730 H   0  0  0  0  0  0  0  0  0  0  0  0
   -3.6870    1.3910  -23.0350 H   0  0  0  0  0  0  0  0  0  0  0  0
   -2.4000    2.2840  -21.1020 H   0  0  0  0  0  0  0  0  0  0  0  0
   -3.0970    1.7280  -18.7910 H   0  0  0  0  0  0  0  0  0  0  0  0
   -4.6320    0.5840  -17.2450 H   0  0  0  0  0  0  0  0  0  0  0  0
   -7.8030   -1.6660  -18.6150 H   0  0  0  0  0  0  0  0  0  0  0  0
   -6.9790   -2.5580  -21.9780 C   0  0  0  0  0  0  0  0  0  0  0  0
   -8.3120   -3.0880  -22.5300 C   0  0  2  0  0  0  0  0  0  0  0  0
   -8.1830   -3.9000  -23.8150 C   0  0  0  0  0  0  0  0  0  0  0  0
   -7.3660   -5.4500  -23.5150 S   0  0  0  0  0  0  0  0  0  0  0  0
   -8.1690   -6.2290  -22.5820 O   0  0  0  0  0  0  0  0  0  0  0  0
   -5.9640   -5.2050  -23.2050 O   0  0  0  0  0  0  0  0  0  0  0  0
   -7.3820   -6.1030  -25.0460 N   0  0  0  0  0  0  0  0  0  0  0  0
   -8.6160   -6.6480  -25.6060 C   0  0  0  0  0  0  0  0  0  0  0  0
   -9.2780   -5.8400  -25.9390 H   0  0  0  0  0  0  0  0  0  0  0  0
   -9.1560   -7.3090  -24.9150 H   0  0  0  0  0  0  0  0  0  0  0  0
   -8.3390   -7.2090  -26.5010 H   0  0  0  0  0  0  0  0  0  0  0  0
   -6.5610   -6.6870  -25.1520 H   0  0  0  0  0  0  0  0  0  0  0  0
   -7.5980   -3.3770  -24.5790 H   0  0  0  0  0  0  0  0  0  0  0  0
   -9.1760   -4.1230  -24.2200 H   0  0  0  0  0  0  0  0  0  0  0  0
   -8.7080   -3.7560  -21.7590 H   0  0  0  0  0  0  0  0  0  0  0  0
   -6.4770   -3.3060  -21.3610 H   0  0  0  0  0  0  0  0  0  0  0  0
   -6.2830   -2.2710  -22.7810 H   0  0  0  0  0  0  0  0  0  0  0  0
  -10.7360   -2.1500  -22.3980 C   0  0  0  0  0  0  0  0  0  0  0  0
  -11.1840   -3.2680  -21.6850 C   0  0  0  0  0  0  0  0  0  0  0  0
  -12.5310   -3.4290  -21.4330 C   0  0  0  0  0  0  0  0  0  0  0  0
  -12.9270   -4.4680  -20.6800 F   0  0  0  0  0  0  0  0  0  0  0  0
  -13.4960   -2.5540  -21.9100 C   0  0  0  0  0  0  0  0  0  0  0  0
  -13.0630   -1.4470  -22.6090 C   0  0  0  0  0  0  0  0  0  0  0  0
  -11.7050   -1.2400  -22.8500 C   0  0  0  0  0  0  0  0  0  0  0  0
  -11.3220   -0.0040  -23.6040 C   0  0  0  0  0  0  0  0  0  0  0  0
  -12.1310    0.8820  -23.8460 O   0  0  0  0  0  0  0  0  0  0  0  0
  -13.7660   -0.7160  -22.9900 H   0  0  0  0  0  0  0  0  0  0  0  0
  -14.5460   -2.7600  -21.7360 H   0  0  0  0  0  0  0  0  0  0  0  0
  -10.5120   -4.0140  -21.2820 H   0  0  0  0  0  0  0  0  0  0  0  0
   -9.4050   -1.7920  -24.7840 H   0  0  0  0  0  0  0  0  0  0  0  0
   -8.1200   -0.7620  -24.1200 H   0  0  0  0  0  0  0  0  0  0  0  0
  -10.3570    1.9590  -24.6850 H   0  0  0  0  0  0  0  0  0  0  0  0
   -9.2530    1.0100  -25.7090 H   0  0  0  0  0  0  0  0  0  0  0  0
   -9.4640    2.3310  -22.3230 H   0  0  0  0  0  0  0  0  0  0  0  0
   -7.8370    3.7370  -21.2850 H   0  0  0  0  0  0  0  0  0  0  0  0
   -7.0160    2.1630  -21.4180 H   0  0  0  0  0  0  0  0  0  0  0  0
   -6.7480    3.4580  -22.6440 H   0  0  0  0  0  0  0  0  0  0  0  0
  1  2  1  0  0  0  0
  1 62  1  0  0  0  0
  1 63  1  0  0  0  0
  1 64  1  0  0  0  0
  2  3  1  0  0  0  0
  2 61  1  0  0  0  0
  3  4  2  0  0  0  0
  3  5  1  0  0  0  0
  5  6  1  0  0  0  0
  5 59  1  0  0  0  0
  5 60  1  0  0  0  0
  6  7  1  0  0  0  0
  6 52  1  0  0  0  0
  7  8  1  0  0  0  0
  7 57  1  0  0  0  0
  7 58  1  0  0  0  0
  8  9  1  1  0  0  0
  8 29  1  0  0  0  0
  8 45  1  0  0  0  0
  9 10  2  0  0  0  0
  9 11  1  0  0  0  0
 11 12  1  0  0  0  0
 11 28  1  0  0  0  0
 12 13  2  0  0  0  0
 12 21  1  0  0  0  0
 13 14  1  0  0  0  0
 13 27  1  0  0  0  0
 14 15  2  0  0  0  0
 15 16  1  0  0  0  0
 15 26  1  0  0  0  0
 16 17  2  0  0  0  0
 16 21  1  0  0  0  0
 17 18  1  0  0  0  0
 17 25  1  0  0  0  0
 18 19  2  0  0  0  0
 18 24  1  0  0  0  0
 19 20  1  0  0  0  0
 19 23  1  0  0  0  0
 20 21  2  0  0  0  0
 20 22  1  0  0  0  0
 28 29  1  0  0  0  0
 28 43  1  0  0  0  0
 28 44  1  0  0  0  0
 29 30  1  0  0  0  0
 29 42  1  1  0  0  0
 30 31  1  0  0  0  0
 30 40  1  0  0  0  0
 30 41  1  0  0  0  0
 31 32  2  0  0  0  0
 31 33  2  0  0  0  0
 31 34  1  0  0  0  0
 34 35  1  0  0  0  0
 34 39  1  0  0  0  0
 35 36  1  0  0  0  0
 35 37  1  0  0  0  0
 35 38  1  0  0  0  0
 45 46  2  0  0  0  0
 45 51  1  0  0  0  0
 46 47  1  0  0  0  0
 46 56  1  0  0  0  0
 47 48  1  0  0  0  0
 47 49  2  0  0  0  0
 49 50  1  0  0  0  0
 49 55  1  0  0  0  0
 50 51  2  0  0  0  0
 50 54  1  0  0  0  0
 51 52  1  0  0  0  0
 52 53  2  0  0  0  0
M  END
>  <MODEL>
       1

$$$$
