tmp_first_model_16_80.pdb
 OpenBabel08282501503D

 60 65  0  0  1  0  0  0  0  0999 V2000
   -8.4990    2.1990  -28.9310 C   0  0  0  0  0  0  0  0  0  0  0  0
   -8.7200    2.2310  -27.4990 N   0  0  0  0  0  0  0  0  0  0  0  0
   -7.9080    1.5340  -26.6660 C   0  0  0  0  0  0  0  0  0  0  0  0
   -6.9310    0.9180  -27.0650 O   0  0  0  0  0  0  0  0  0  0  0  0
   -8.2780    1.5980  -25.1890 C   0  0  0  0  0  0  0  0  0  0  0  0
   -9.0430    0.5030  -24.6630 N   0  0  0  0  0  0  0  0  0  0  0  0
   -8.3760   -0.7570  -24.3830 C   0  0  0  0  0  0  0  0  0  0  0  0
   -8.8870   -1.4120  -23.0740 C   0  0  2  0  0  0  0  0  0  0  0  0
   -8.3710   -0.6270  -21.8500 C   0  0  0  0  0  0  0  0  0  0  0  0
   -8.7130    0.4740  -21.4780 O   0  0  0  0  0  0  0  0  0  0  0  0
   -7.4160   -1.3810  -21.2170 N   0  0  0  0  0  0  0  0  0  0  0  0
   -6.6170   -0.8300  -20.1870 C   0  0  0  0  0  0  0  0  0  0  0  0
   -6.9260   -1.1040  -18.8850 C   0  0  0  0  0  0  0  0  0  0  0  0
   -6.1630   -0.7260  -17.8300 N   0  0  0  0  0  0  0  0  0  0  0  0
   -5.1010   -0.0010  -18.0880 C   0  0  0  0  0  0  0  0  0  0  0  0
   -4.7190    0.4350  -19.3940 C   0  0  0  0  0  0  0  0  0  0  0  0
   -3.6170    1.3050  -19.6250 C   0  0  0  0  0  0  0  0  0  0  0  0
   -3.2360    1.6250  -20.8990 C   0  0  0  0  0  0  0  0  0  0  0  0
   -3.9390    1.0980  -22.0070 C   0  0  0  0  0  0  0  0  0  0  0  0
   -5.0260    0.2840  -21.8100 C   0  0  0  0  0  0  0  0  0  0  0  0
   -5.4690   -0.0360  -20.4930 C   0  0  0  0  0  0  0  0  0  0  0  0
   -5.5420   -0.1280  -22.6720 H   0  0  0  0  0  0  0  0  0  0  0  0
   -3.6120    1.3400  -23.0150 H   0  0  0  0  0  0  0  0  0  0  0  0
   -2.3810    2.2750  -21.0730 H   0  0  0  0  0  0  0  0  0  0  0  0
   -3.0980    1.7240  -18.7660 H   0  0  0  0  0  0  0  0  0  0  0  0
   -4.4750    0.2770  -17.2380 H   0  0  0  0  0  0  0  0  0  0  0  0
   -7.8320   -1.6690  -18.6590 H   0  0  0  0  0  0  0  0  0  0  0  0
   -7.1060   -2.6370  -21.8580 C   0  0  0  0  0  0  0  0  0  0  0  0
   -8.2710   -2.8370  -22.8440 C   0  0  2  0  0  0  0  0  0  0  0  0
   -7.8370   -3.6280  -24.0810 C   0  0  0  0  0  0  0  0  0  0  0  0
   -8.6570   -3.7750  -24.7950 H   0  0  0  0  0  0  0  0  0  0  0  0
   -7.0190   -3.1170  -24.6030 H   0  0  0  0  0  0  0  0  0  0  0  0
   -7.4660   -4.6210  -23.7970 H   0  0  0  0  0  0  0  0  0  0  0  0
   -9.0400   -3.4190  -22.3330 H   0  0  0  0  0  0  0  0  0  0  0  0
   -7.0300   -3.4350  -21.1100 H   0  0  0  0  0  0  0  0  0  0  0  0
   -6.1410   -2.5830  -22.3840 H   0  0  0  0  0  0  0  0  0  0  0  0
  -10.4060   -1.3680  -23.0750 C   0  0  0  0  0  0  0  0  0  0  0  0
  -11.1250   -2.1580  -22.1640 C   0  0  0  0  0  0  0  0  0  0  0  0
  -12.5070   -2.1170  -22.1520 C   0  0  0  0  0  0  0  0  0  0  0  0
  -13.3820   -3.1200  -21.0230 Cl  0  0  0  0  0  0  0  0  0  0  0  0
  -13.2130   -1.2800  -23.0190 C   0  0  0  0  0  0  0  0  0  0  0  0
  -12.5110   -0.4460  -23.8690 C   0  0  0  0  0  0  0  0  0  0  0  0
  -11.1160   -0.4610  -23.8780 C   0  0  0  0  0  0  0  0  0  0  0  0
  -10.4140    0.5660  -24.7140 C   0  0  0  0  0  0  0  0  0  0  0  0
  -11.0050    1.4310  -25.3470 O   0  0  0  0  0  0  0  0  0  0  0  0
  -13.0150    0.2560  -24.5280 H   0  0  0  0  0  0  0  0  0  0  0  0
  -14.2960   -1.2750  -22.9870 H   0  0  0  0  0  0  0  0  0  0  0  0
  -10.6230   -2.7960  -21.4420 H   0  0  0  0  0  0  0  0  0  0  0  0
   -8.5640   -1.4550  -25.2090 H   0  0  0  0  0  0  0  0  0  0  0  0
   -7.3040   -0.5560  -24.3210 H   0  0  0  0  0  0  0  0  0  0  0  0
   -8.4360    2.9430  -24.5470 C   0  0  0  0  0  0  0  0  0  0  0  0
   -7.1930    2.1450  -24.3030 C   0  0  0  0  0  0  0  0  0  0  0  0
   -6.2760    2.4200  -24.8150 H   0  0  0  0  0  0  0  0  0  0  0  0
   -7.0970    1.6590  -23.3380 H   0  0  0  0  0  0  0  0  0  0  0  0
   -8.4120    3.8090  -25.2000 H   0  0  0  0  0  0  0  0  0  0  0  0
   -9.1590    2.9980  -23.7420 H   0  0  0  0  0  0  0  0  0  0  0  0
   -9.6080    2.5340  -27.1320 H   0  0  0  0  0  0  0  0  0  0  0  0
   -9.2820    2.7700  -29.4340 H   0  0  0  0  0  0  0  0  0  0  0  0
   -8.4960    1.1730  -29.3080 H   0  0  0  0  0  0  0  0  0  0  0  0
   -7.5280    2.6340  -29.1760 H   0  0  0  0  0  0  0  0  0  0  0  0
  1  2  1  0  0  0  0
  1 58  1  0  0  0  0
  1 59  1  0  0  0  0
  1 60  1  0  0  0  0
  2  3  1  0  0  0  0
  2 57  1  0  0  0  0
  3  4  2  0  0  0  0
  3  5  1  0  0  0  0
  5  6  1  0  0  0  0
  5 51  1  0  0  0  0
  5 52  1  0  0  0  0
  6  7  1  0  0  0  0
  6 44  1  0  0  0  0
  7  8  1  0  0  0  0
  7 49  1  0  0  0  0
  7 50  1  0  0  0  0
  8  9  1  1  0  0  0
  8 29  1  0  0  0  0
  8 37  1  0  0  0  0
  9 10  2  0  0  0  0
  9 11  1  0  0  0  0
 11 12  1  0  0  0  0
 11 28  1  0  0  0  0
 12 13  2  0  0  0  0
 12 21  1  0  0  0  0
 13 14  1  0  0  0  0
 13 27  1  0  0  0  0
 14 15  2  0  0  0  0
 15 16  1  0  0  0  0
 15 26  1  0  0  0  0
 16 17  2  0  0  0  0
 16 21  1  0  0  0  0
 17 18  1  0  0  0  0
 17 25  1  0  0  0  0
 18 19  2  0  0  0  0
 18 24  1  0  0  0  0
 19 20  1  0  0  0  0
 19 23  1  0  0  0  0
 20 21  2  0  0  0  0
 20 22  1  0  0  0  0
 28 29  1  0  0  0  0
 28 35  1  0  0  0  0
 28 36  1  0  0  0  0
 29 30  1  0  0  0  0
 29 34  1  1  0  0  0
 30 31  1  0  0  0  0
 30 32  1  0  0  0  0
 30 33  1  0  0  0  0
 37 38  2  0  0  0  0
 37 43  1  0  0  0  0
 38 39  1  0  0  0  0
 38 48  1  0  0  0  0
 39 40  1  0  0  0  0
 39 41  2  0  0  0  0
 41 42  1  0  0  0  0
 41 47  1  0  0  0  0
 42 43  2  0  0  0  0
 42 46  1  0  0  0  0
 43 44  1  0  0  0  0
 44 45  2  0  0  0  0
 51 52  1  0  0  0  0
 51 55  1  0  0  0  0
 51 56  1  0  0  0  0
 52 53  1  0  0  0  0
 52 54  1  0  0  0  0
M  END
>  <MODEL>
       1

$$$$
