tmp_first_model_9_92.pdb
 OpenBabel08272521403D

 60 65  0  0  1  0  0  0  0  0999 V2000
   -6.7840   -3.4340  -26.0920 C   0  0  0  0  0  0  0  0  0  0  0  0
   -7.0230   -2.8830  -24.8220 O   0  0  0  0  0  0  0  0  0  0  0  0
   -7.9960   -3.5900  -24.0830 C   0  0  0  0  0  0  0  0  0  0  0  0
   -8.3010   -2.8790  -22.7660 C   0  0  1  0  0  0  0  0  0  0  0  0
   -7.0300   -2.5420  -21.9730 C   0  0  0  0  0  0  0  0  0  0  0  0
   -7.3850   -1.3410  -21.2410 N   0  0  0  0  0  0  0  0  0  0  0  0
   -6.5980   -0.7990  -20.1970 C   0  0  0  0  0  0  0  0  0  0  0  0
   -6.9200   -1.0340  -18.8830 C   0  0  0  0  0  0  0  0  0  0  0  0
   -6.2170   -0.5500  -17.8320 N   0  0  0  0  0  0  0  0  0  0  0  0
   -5.1820    0.2100  -18.0920 C   0  0  0  0  0  0  0  0  0  0  0  0
   -4.7410    0.5380  -19.4070 C   0  0  0  0  0  0  0  0  0  0  0  0
   -3.6240    1.3810  -19.6420 C   0  0  0  0  0  0  0  0  0  0  0  0
   -3.2320    1.6680  -20.9200 C   0  0  0  0  0  0  0  0  0  0  0  0
   -3.9230    1.1160  -22.0200 C   0  0  0  0  0  0  0  0  0  0  0  0
   -4.9950    0.2780  -21.8140 C   0  0  0  0  0  0  0  0  0  0  0  0
   -5.4490   -0.0070  -20.5000 C   0  0  0  0  0  0  0  0  0  0  0  0
   -5.5060   -0.1630  -22.6660 H   0  0  0  0  0  0  0  0  0  0  0  0
   -3.5900    1.3470  -23.0270 H   0  0  0  0  0  0  0  0  0  0  0  0
   -2.3770    2.3100  -21.0980 H   0  0  0  0  0  0  0  0  0  0  0  0
   -3.1020    1.7920  -18.7830 H   0  0  0  0  0  0  0  0  0  0  0  0
   -4.6260    0.6070  -17.2420 H   0  0  0  0  0  0  0  0  0  0  0  0
   -7.7840   -1.6480  -18.6420 H   0  0  0  0  0  0  0  0  0  0  0  0
   -8.6080   -0.8040  -21.5760 C   0  0  0  0  0  0  0  0  0  0  0  0
   -9.1520    0.1010  -20.9770 O   0  0  0  0  0  0  0  0  0  0  0  0
   -9.1500   -1.5690  -22.8080 C   0  0  1  0  0  0  0  0  0  0  0  0
   -8.8960   -0.7880  -24.1210 C   0  0  0  0  0  0  0  0  0  0  0  0
   -9.7450    0.3830  -24.2380 N   0  0  0  0  0  0  0  0  0  0  0  0
   -9.1540    1.6150  -24.7470 C   0  0  0  0  0  0  0  0  0  0  0  0
   -8.3500    2.3800  -23.7220 C   0  0  0  0  0  0  0  0  0  0  0  0
   -8.8720    3.2950  -22.7740 C   0  0  0  0  0  0  0  0  0  0  0  0
   -7.9370    3.7670  -21.9520 N   0  0  0  0  0  0  0  0  0  0  0  0
   -6.8140    3.1750  -22.3710 N   0  0  0  0  0  0  0  0  0  0  0  0
   -7.0030    2.3440  -23.4210 C   0  0  0  0  0  0  0  0  0  0  0  0
   -6.1480    1.8040  -23.8110 H   0  0  0  0  0  0  0  0  0  0  0  0
   -5.9290    3.3380  -21.9120 H   0  0  0  0  0  0  0  0  0  0  0  0
   -9.9000    3.6330  -22.6600 H   0  0  0  0  0  0  0  0  0  0  0  0
   -8.5440    1.3550  -25.6200 H   0  0  0  0  0  0  0  0  0  0  0  0
   -9.9850    2.2280  -25.1100 H   0  0  0  0  0  0  0  0  0  0  0  0
  -11.0970    0.3140  -24.0370 C   0  0  0  0  0  0  0  0  0  0  0  0
  -11.8700    1.1660  -24.4560 O   0  0  0  0  0  0  0  0  0  0  0  0
  -11.5640   -0.8610  -23.2370 C   0  0  0  0  0  0  0  0  0  0  0  0
  -12.9360   -0.9960  -23.0290 C   0  0  0  0  0  0  0  0  0  0  0  0
  -13.4270   -1.9850  -22.2040 C   0  0  0  0  0  0  0  0  0  0  0  0
  -12.5140   -2.8290  -21.5800 C   0  0  0  0  0  0  0  0  0  0  0  0
  -13.1100   -4.0230  -20.4770 Cl  0  0  0  0  0  0  0  0  0  0  0  0
  -11.1540   -2.7230  -21.7890 C   0  0  0  0  0  0  0  0  0  0  0  0
  -10.6490   -1.7490  -22.6540 C   0  0  0  0  0  0  0  0  0  0  0  0
  -10.4950   -3.3870  -21.2430 H   0  0  0  0  0  0  0  0  0  0  0  0
  -14.4880   -2.0940  -22.0110 H   0  0  0  0  0  0  0  0  0  0  0  0
  -13.5950   -0.2860  -23.5130 H   0  0  0  0  0  0  0  0  0  0  0  0
   -9.0720   -1.4760  -24.9570 H   0  0  0  0  0  0  0  0  0  0  0  0
   -7.8540   -0.4650  -24.1750 H   0  0  0  0  0  0  0  0  0  0  0  0
   -6.1780   -2.3720  -22.6420 H   0  0  0  0  0  0  0  0  0  0  0  0
   -6.7670   -3.3490  -21.2800 H   0  0  0  0  0  0  0  0  0  0  0  0
   -8.8770   -3.5990  -22.1820 H   0  0  0  0  0  0  0  0  0  0  0  0
   -7.6260   -4.6030  -23.8630 H   0  0  0  0  0  0  0  0  0  0  0  0
   -8.9210   -3.7000  -24.6730 H   0  0  0  0  0  0  0  0  0  0  0  0
   -6.0200   -2.8240  -26.5800 H   0  0  0  0  0  0  0  0  0  0  0  0
   -6.4160   -4.4690  -26.0230 H   0  0  0  0  0  0  0  0  0  0  0  0
   -7.6920   -3.4240  -26.7150 H   0  0  0  0  0  0  0  0  0  0  0  0
  1  2  1  0  0  0  0
  1 58  1  0  0  0  0
  1 59  1  0  0  0  0
  1 60  1  0  0  0  0
  2  3  1  0  0  0  0
  3  4  1  0  0  0  0
  3 56  1  0  0  0  0
  3 57  1  0  0  0  0
  4  5  1  0  0  0  0
  4 25  1  0  0  0  0
  4 55  1  1  0  0  0
  5  6  1  0  0  0  0
  5 53  1  0  0  0  0
  5 54  1  0  0  0  0
  6  7  1  0  0  0  0
  6 23  1  0  0  0  0
  7  8  2  0  0  0  0
  7 16  1  0  0  0  0
  8  9  1  0  0  0  0
  8 22  1  0  0  0  0
  9 10  2  0  0  0  0
 10 11  1  0  0  0  0
 10 21  1  0  0  0  0
 11 12  2  0  0  0  0
 11 16  1  0  0  0  0
 12 13  1  0  0  0  0
 12 20  1  0  0  0  0
 13 14  2  0  0  0  0
 13 19  1  0  0  0  0
 14 15  1  0  0  0  0
 14 18  1  0  0  0  0
 15 16  2  0  0  0  0
 15 17  1  0  0  0  0
 23 24  2  0  0  0  0
 25 23  1  1  0  0  0
 25 26  1  0  0  0  0
 25 47  1  0  0  0  0
 26 27  1  0  0  0  0
 26 51  1  0  0  0  0
 26 52  1  0  0  0  0
 27 28  1  0  0  0  0
 27 39  1  0  0  0  0
 28 29  1  0  0  0  0
 28 37  1  0  0  0  0
 28 38  1  0  0  0  0
 29 30  1  0  0  0  0
 29 33  2  0  0  0  0
 30 31  2  0  0  0  0
 30 36  1  0  0  0  0
 31 32  1  0  0  0  0
 32 33  1  0  0  0  0
 32 35  1  0  0  0  0
 33 34  1  0  0  0  0
 39 40  2  0  0  0  0
 39 41  1  0  0  0  0
 41 42  2  0  0  0  0
 41 47  1  0  0  0  0
 42 43  1  0  0  0  0
 42 50  1  0  0  0  0
 43 44  2  0  0  0  0
 43 49  1  0  0  0  0
 44 45  1  0  0  0  0
 44 46  1  0  0  0  0
 46 47  2  0  0  0  0
 46 48  1  0  0  0  0
M  END
>  <MODEL>
       1

$$$$
