tmp_first_model_16_7.pdb
 OpenBabel08282501503D

 44 47  0  0  0  0  0  0  0  0999 V2000
   -9.6930   -6.0170  -25.9630 C   0  0  0  0  0  0  0  0  0  0  0  0
  -10.9970   -6.0650  -25.1890 C   0  0  0  0  0  0  0  0  0  0  0  0
  -11.2600   -4.5680  -24.2280 S   0  0  0  0  0  0  0  0  0  0  0  0
  -12.5140   -4.6820  -23.5110 O   0  0  0  0  0  0  0  0  0  0  0  0
  -11.0410   -3.4640  -25.1600 O   0  0  0  0  0  0  0  0  0  0  0  0
  -10.0380   -4.5590  -23.0420 N   0  0  0  0  0  0  0  0  0  0  0  0
   -8.7580   -3.9150  -23.4110 C   0  0  0  0  0  0  0  0  0  0  0  0
   -8.9400   -2.8300  -22.3340 C   0  0  0  0  0  0  0  0  0  0  0  0
  -10.1850   -3.6210  -21.8630 C   0  0  0  0  0  0  0  0  0  0  0  0
  -10.0280   -4.1540  -20.9230 H   0  0  0  0  0  0  0  0  0  0  0  0
  -11.1150   -3.0500  -21.8210 H   0  0  0  0  0  0  0  0  0  0  0  0
   -7.7640   -2.7200  -21.3870 C   0  0  0  0  0  0  0  0  0  0  0  0
   -7.1120   -3.6150  -20.9030 O   0  0  0  0  0  0  0  0  0  0  0  0
   -7.5070   -1.3620  -21.2410 N   0  0  0  0  0  0  0  0  0  0  0  0
   -6.6500   -0.8570  -20.2380 C   0  0  0  0  0  0  0  0  0  0  0  0
   -6.9310   -1.1740  -18.9360 C   0  0  0  0  0  0  0  0  0  0  0  0
   -6.1640   -0.8300  -17.8790 N   0  0  0  0  0  0  0  0  0  0  0  0
   -5.1100   -0.0930  -18.1300 C   0  0  0  0  0  0  0  0  0  0  0  0
   -4.7500    0.3600  -19.4290 C   0  0  0  0  0  0  0  0  0  0  0  0
   -3.6460    1.2250  -19.6170 C   0  0  0  0  0  0  0  0  0  0  0  0
   -3.2490    1.5580  -20.8780 C   0  0  0  0  0  0  0  0  0  0  0  0
   -3.9320    1.0490  -22.0030 C   0  0  0  0  0  0  0  0  0  0  0  0
   -5.0410    0.2550  -21.8490 C   0  0  0  0  0  0  0  0  0  0  0  0
   -5.4990   -0.0750  -20.5420 C   0  0  0  0  0  0  0  0  0  0  0  0
   -5.5670   -0.1190  -22.7220 H   0  0  0  0  0  0  0  0  0  0  0  0
   -3.5720    1.2950  -22.9950 H   0  0  0  0  0  0  0  0  0  0  0  0
   -2.3970    2.2120  -21.0200 H   0  0  0  0  0  0  0  0  0  0  0  0
   -3.1460    1.6060  -18.7310 H   0  0  0  0  0  0  0  0  0  0  0  0
   -4.4690    0.1830  -17.2900 H   0  0  0  0  0  0  0  0  0  0  0  0
   -7.8370   -1.7280  -18.7070 H   0  0  0  0  0  0  0  0  0  0  0  0
   -8.3170   -0.5790  -22.0790 C   0  0  0  0  0  0  0  0  0  0  0  0
   -8.2800    0.6200  -22.2130 O   0  0  0  0  0  0  0  0  0  0  0  0
   -9.1430   -1.4550  -22.7300 N   0  0  0  0  0  0  0  0  0  0  0  0
  -10.0790   -0.9910  -23.7330 C   0  0  0  0  0  0  0  0  0  0  0  0
   -9.8160   -1.3820  -24.7180 H   0  0  0  0  0  0  0  0  0  0  0  0
  -11.1010   -1.2920  -23.4850 H   0  0  0  0  0  0  0  0  0  0  0  0
  -10.0180    0.0970  -23.7380 H   0  0  0  0  0  0  0  0  0  0  0  0
   -7.9220   -4.5750  -23.1650 H   0  0  0  0  0  0  0  0  0  0  0  0
   -8.7010   -3.5370  -24.4300 H   0  0  0  0  0  0  0  0  0  0  0  0
  -11.8810   -6.0800  -25.8320 H   0  0  0  0  0  0  0  0  0  0  0  0
  -11.0530   -6.9310  -24.5420 H   0  0  0  0  0  0  0  0  0  0  0  0
   -8.8340   -6.0250  -25.2800 H   0  0  0  0  0  0  0  0  0  0  0  0
   -9.6700   -5.1160  -26.5810 H   0  0  0  0  0  0  0  0  0  0  0  0
   -9.6200   -6.9020  -26.5970 H   0  0  0  0  0  0  0  0  0  0  0  0
  1  2  1  0  0  0  0
  1 42  1  0  0  0  0
  1 43  1  0  0  0  0
  1 44  1  0  0  0  0
  2  3  1  0  0  0  0
  2 40  1  0  0  0  0
  2 41  1  0  0  0  0
  3  4  2  0  0  0  0
  3  5  2  0  0  0  0
  3  6  1  0  0  0  0
  6  7  1  0  0  0  0
  6  9  1  0  0  0  0
  7  8  1  0  0  0  0
  7 38  1  0  0  0  0
  7 39  1  0  0  0  0
  8  9  1  0  0  0  0
  8 12  1  0  0  0  0
  8 33  1  0  0  0  0
  9 10  1  0  0  0  0
  9 11  1  0  0  0  0
 12 13  2  0  0  0  0
 12 14  1  0  0  0  0
 14 15  1  0  0  0  0
 14 31  1  0  0  0  0
 15 16  2  0  0  0  0
 15 24  1  0  0  0  0
 16 17  1  0  0  0  0
 16 30  1  0  0  0  0
 17 18  2  0  0  0  0
 18 19  1  0  0  0  0
 18 29  1  0  0  0  0
 19 20  2  0  0  0  0
 19 24  1  0  0  0  0
 20 21  1  0  0  0  0
 20 28  1  0  0  0  0
 21 22  2  0  0  0  0
 21 27  1  0  0  0  0
 22 23  1  0  0  0  0
 22 26  1  0  0  0  0
 23 24  2  0  0  0  0
 23 25  1  0  0  0  0
 31 32  2  0  0  0  0
 31 33  1  0  0  0  0
 33 34  1  0  0  0  0
 34 35  1  0  0  0  0
 34 36  1  0  0  0  0
 34 37  1  0  0  0  0
M  END
>  <MODEL>
       1

$$$$
