tmp_first_model_16_10.pdb
 OpenBabel08282501503D

 57 62  0  0  1  0  0  0  0  0999 V2000
  -10.4080   -0.9780  -23.4620 C   0  0  0  0  0  0  0  0  0  0  0  0
   -9.0070   -1.4000  -23.0240 C   0  0  1  0  0  0  0  0  0  0  0  0
   -8.3920   -0.5130  -21.9290 C   0  0  0  0  0  0  0  0  0  0  0  0
   -7.4220   -1.3910  -21.2880 N   0  0  0  0  0  0  0  0  0  0  0  0
   -6.5680   -0.9840  -20.2340 C   0  0  0  0  0  0  0  0  0  0  0  0
   -6.8410   -1.3440  -18.9390 C   0  0  0  0  0  0  0  0  0  0  0  0
   -6.1110   -0.9400  -17.8700 N   0  0  0  0  0  0  0  0  0  0  0  0
   -5.0790   -0.1650  -18.0930 C   0  0  0  0  0  0  0  0  0  0  0  0
   -4.6830    0.2850  -19.3850 C   0  0  0  0  0  0  0  0  0  0  0  0
   -3.5790    1.1600  -19.5810 C   0  0  0  0  0  0  0  0  0  0  0  0
   -3.2290    1.5610  -20.8400 C   0  0  0  0  0  0  0  0  0  0  0  0
   -3.9450    1.0880  -21.9640 C   0  0  0  0  0  0  0  0  0  0  0  0
   -5.0180    0.2440  -21.7990 C   0  0  0  0  0  0  0  0  0  0  0  0
   -5.4340   -0.1520  -20.5010 C   0  0  0  0  0  0  0  0  0  0  0  0
   -5.5570   -0.1350  -22.6610 H   0  0  0  0  0  0  0  0  0  0  0  0
   -3.6410    1.3970  -22.9600 H   0  0  0  0  0  0  0  0  0  0  0  0
   -2.3920    2.2400  -20.9930 H   0  0  0  0  0  0  0  0  0  0  0  0
   -3.0350    1.5080  -18.7050 H   0  0  0  0  0  0  0  0  0  0  0  0
   -4.4920    0.1370  -17.2230 H   0  0  0  0  0  0  0  0  0  0  0  0
   -7.6860   -1.9910  -18.7100 H   0  0  0  0  0  0  0  0  0  0  0  0
   -7.7140   -2.7240  -21.4650 C   0  0  0  0  0  0  0  0  0  0  0  0
   -7.1260   -3.6280  -20.9030 O   0  0  0  0  0  0  0  0  0  0  0  0
   -8.8740   -2.8560  -22.4620 C   0  0  1  0  0  0  0  0  0  0  0  0
  -10.0970   -3.3110  -21.6420 C   0  0  0  0  0  0  0  0  0  0  0  0
  -11.2210   -3.7780  -22.4480 N   0  0  0  0  0  0  0  0  0  0  0  0
  -12.5700   -3.7390  -21.8820 C   0  0  0  0  0  0  0  0  0  0  0  0
  -13.4190   -2.5890  -22.3220 C   0  0  0  0  0  0  0  0  0  0  0  0
  -14.0800   -1.6480  -21.6130 C   0  0  0  0  0  0  0  0  0  0  0  0
  -14.8310   -0.9150  -22.5000 N   0  3  0  0  0  0  0  0  0  0  0  0
  -14.6200   -1.4030  -23.7300 C   0  0  0  0  0  0  0  0  0  0  0  0
  -13.7670   -2.4250  -23.6460 N   0  0  0  0  0  0  0  0  0  0  0  0
  -13.3940   -3.0420  -24.3780 H   0  0  0  0  0  0  0  0  0  0  0  0
  -15.0590   -1.0260  -24.6270 H   0  0  0  0  0  0  0  0  0  0  0  0
  -15.4680   -0.1800  -22.2060 H   0  0  0  0  0  0  0  0  0  0  0  0
  -14.0390   -1.3870  -20.5680 H   0  0  0  0  0  0  0  0  0  0  0  0
  -13.0910   -4.6390  -22.2260 H   0  0  0  0  0  0  0  0  0  0  0  0
  -12.5060   -3.7620  -20.7870 H   0  0  0  0  0  0  0  0  0  0  0  0
  -11.0510   -4.4040  -23.6470 C   0  0  0  0  0  0  0  0  0  0  0  0
  -12.0140   -4.6940  -24.3640 O   0  0  0  0  0  0  0  0  0  0  0  0
   -9.6340   -4.6640  -24.0530 C   0  0  0  0  0  0  0  0  0  0  0  0
   -9.3660   -5.6750  -24.9720 C   0  0  0  0  0  0  0  0  0  0  0  0
   -8.0730   -5.9040  -25.4120 C   0  0  0  0  0  0  0  0  0  0  0  0
   -7.0610   -5.0800  -24.9350 C   0  0  0  0  0  0  0  0  0  0  0  0
   -5.8120   -5.2620  -25.3950 F   0  0  0  0  0  0  0  0  0  0  0  0
   -7.2910   -4.0910  -24.0010 C   0  0  0  0  0  0  0  0  0  0  0  0
   -8.5910   -3.8960  -23.5190 C   0  0  0  0  0  0  0  0  0  0  0  0
   -6.4510   -3.5170  -23.6230 H   0  0  0  0  0  0  0  0  0  0  0  0
   -7.8260   -6.7060  -26.0980 H   0  0  0  0  0  0  0  0  0  0  0  0
  -10.1950   -6.2800  -25.3230 H   0  0  0  0  0  0  0  0  0  0  0  0
   -9.7540   -4.1060  -20.9720 H   0  0  0  0  0  0  0  0  0  0  0  0
  -10.4220   -2.4560  -21.0380 H   0  0  0  0  0  0  0  0  0  0  0  0
   -7.9010    0.3740  -22.3350 H   0  0  0  0  0  0  0  0  0  0  0  0
   -9.1500   -0.1750  -21.2040 H   0  0  0  0  0  0  0  0  0  0  0  0
   -8.3360   -1.3660  -23.8930 H   0  0  0  0  0  0  0  0  0  0  0  0
  -11.1200   -0.9950  -22.6280 H   0  0  0  0  0  0  0  0  0  0  0  0
  -10.7870   -1.6560  -24.2330 H   0  0  0  0  0  0  0  0  0  0  0  0
  -10.4100    0.0360  -23.8710 H   0  0  0  0  0  0  0  0  0  0  0  0
  1  2  1  0  0  0  0
  1 55  1  0  0  0  0
  1 56  1  0  0  0  0
  1 57  1  0  0  0  0
  2  3  1  0  0  0  0
  2 23  1  0  0  0  0
  2 54  1  6  0  0  0
  3  4  1  0  0  0  0
  3 52  1  0  0  0  0
  3 53  1  0  0  0  0
  4  5  1  0  0  0  0
  4 21  1  0  0  0  0
  5  6  2  0  0  0  0
  5 14  1  0  0  0  0
  6  7  1  0  0  0  0
  6 20  1  0  0  0  0
  7  8  2  0  0  0  0
  8  9  1  0  0  0  0
  8 19  1  0  0  0  0
  9 10  2  0  0  0  0
  9 14  1  0  0  0  0
 10 11  1  0  0  0  0
 10 18  1  0  0  0  0
 11 12  2  0  0  0  0
 11 17  1  0  0  0  0
 12 13  1  0  0  0  0
 12 16  1  0  0  0  0
 13 14  2  0  0  0  0
 13 15  1  0  0  0  0
 21 22  2  0  0  0  0
 23 21  1  1  0  0  0
 23 24  1  0  0  0  0
 23 46  1  0  0  0  0
 24 25  1  0  0  0  0
 24 50  1  0  0  0  0
 24 51  1  0  0  0  0
 25 26  1  0  0  0  0
 25 38  1  0  0  0  0
 26 27  1  0  0  0  0
 26 36  1  0  0  0  0
 26 37  1  0  0  0  0
 27 28  2  0  0  0  0
 27 31  1  0  0  0  0
 28 29  1  0  0  0  0
 28 35  1  0  0  0  0
 29 30  2  0  0  0  0
 29 34  1  0  0  0  0
 30 31  1  0  0  0  0
 30 33  1  0  0  0  0
 31 32  1  0  0  0  0
 38 39  2  0  0  0  0
 38 40  1  0  0  0  0
 40 41  2  0  0  0  0
 40 46  1  0  0  0  0
 41 42  1  0  0  0  0
 41 49  1  0  0  0  0
 42 43  2  0  0  0  0
 42 48  1  0  0  0  0
 43 44  1  0  0  0  0
 43 45  1  0  0  0  0
 45 46  2  0  0  0  0
 45 47  1  0  0  0  0
M  CHG  1  29   1
M  END
>  <MODEL>
       1

$$$$
