tmp_first_model_11_30.pdb
 OpenBabel08272522543D

 58 63  0  0  1  0  0  0  0  0999 V2000
   -8.1240   -4.1460  -23.7850 C   0  0  0  0  0  0  0  0  0  0  0  0
   -8.3480   -3.1650  -22.6550 C   0  0  1  0  0  0  0  0  0  0  0  0
   -7.0590   -2.4530  -22.2450 C   0  0  0  0  0  0  0  0  0  0  0  0
   -7.5660   -1.3930  -21.3990 N   0  0  0  0  0  0  0  0  0  0  0  0
   -6.8550   -0.8400  -20.3110 C   0  0  0  0  0  0  0  0  0  0  0  0
   -7.2440   -1.0480  -19.0070 C   0  0  0  0  0  0  0  0  0  0  0  0
   -6.5490   -0.5990  -17.9340 N   0  0  0  0  0  0  0  0  0  0  0  0
   -5.4570    0.0900  -18.1650 C   0  0  0  0  0  0  0  0  0  0  0  0
   -4.9590    0.3970  -19.4620 C   0  0  0  0  0  0  0  0  0  0  0  0
   -3.7940    1.1850  -19.6690 C   0  0  0  0  0  0  0  0  0  0  0  0
   -3.3740    1.4900  -20.9340 C   0  0  0  0  0  0  0  0  0  0  0  0
   -4.0830    1.0040  -22.0580 C   0  0  0  0  0  0  0  0  0  0  0  0
   -5.1840    0.2000  -21.8750 C   0  0  0  0  0  0  0  0  0  0  0  0
   -5.6660   -0.0980  -20.5740 C   0  0  0  0  0  0  0  0  0  0  0  0
   -5.7310   -0.1630  -22.7370 H   0  0  0  0  0  0  0  0  0  0  0  0
   -3.7990    1.3110  -23.0610 H   0  0  0  0  0  0  0  0  0  0  0  0
   -2.4940    2.1100  -21.0810 H   0  0  0  0  0  0  0  0  0  0  0  0
   -3.2650    1.5510  -18.7920 H   0  0  0  0  0  0  0  0  0  0  0  0
   -4.9010    0.4540  -17.3010 H   0  0  0  0  0  0  0  0  0  0  0  0
   -8.1450   -1.6160  -18.7840 H   0  0  0  0  0  0  0  0  0  0  0  0
   -8.8880   -1.0950  -21.6600 C   0  0  0  0  0  0  0  0  0  0  0  0
   -9.5240   -0.2360  -21.0910 O   0  0  0  0  0  0  0  0  0  0  0  0
   -9.4040   -2.0320  -22.7950 C   0  0  1  0  0  0  0  0  0  0  0  0
   -9.3080   -1.3020  -24.1640 C   0  0  0  0  0  0  0  0  0  0  0  0
  -10.3800   -0.3430  -24.3930 N   0  0  0  0  0  0  0  0  0  0  0  0
  -10.0820    0.8450  -25.1760 C   0  0  0  0  0  0  0  0  0  0  0  0
   -8.9610    1.6130  -24.5170 C   0  0  0  0  0  0  0  0  0  0  0  0
   -7.8220    1.9830  -25.1650 C   0  0  0  0  0  0  0  0  0  0  0  0
   -6.6410    2.3300  -24.4030 C   0  0  0  0  0  0  0  0  0  0  0  0
   -5.5030    2.4940  -24.8170 O   0  0  0  0  0  0  0  0  0  0  0  0
   -6.9240    2.4470  -23.0340 N   0  0  0  0  0  0  0  0  0  0  0  0
   -8.1440    2.1930  -22.4910 C   0  0  0  0  0  0  0  0  0  0  0  0
   -9.1750    1.8270  -23.1850 N   0  0  0  0  0  0  0  0  0  0  0  0
   -8.2240    2.2770  -21.4150 H   0  0  0  0  0  0  0  0  0  0  0  0
   -6.1360    2.6460  -22.4280 H   0  0  0  0  0  0  0  0  0  0  0  0
   -7.7330    1.9290  -26.2400 H   0  0  0  0  0  0  0  0  0  0  0  0
  -11.0050    1.4230  -25.1610 H   0  0  0  0  0  0  0  0  0  0  0  0
   -9.8450    0.5840  -26.2140 H   0  0  0  0  0  0  0  0  0  0  0  0
  -11.6760   -0.5640  -24.0310 C   0  0  0  0  0  0  0  0  0  0  0  0
  -12.6100    0.1240  -24.4160 O   0  0  0  0  0  0  0  0  0  0  0  0
  -11.9040   -1.6630  -23.0610 C   0  0  0  0  0  0  0  0  0  0  0  0
  -13.2260   -1.8220  -22.6490 C   0  0  0  0  0  0  0  0  0  0  0  0
  -13.5440   -2.7010  -21.6440 C   0  0  0  0  0  0  0  0  0  0  0  0
  -12.5050   -3.4470  -21.1130 C   0  0  0  0  0  0  0  0  0  0  0  0
  -12.7930   -4.2010  -20.0410 F   0  0  0  0  0  0  0  0  0  0  0  0
  -11.2020   -3.3790  -21.5780 C   0  0  0  0  0  0  0  0  0  0  0  0
  -10.8510   -2.4190  -22.5340 C   0  0  0  0  0  0  0  0  0  0  0  0
  -10.4630   -4.0040  -21.0980 H   0  0  0  0  0  0  0  0  0  0  0  0
  -14.5470   -2.7940  -21.2480 H   0  0  0  0  0  0  0  0  0  0  0  0
  -13.9610   -1.1590  -23.0910 H   0  0  0  0  0  0  0  0  0  0  0  0
   -9.3020   -2.0370  -24.9790 H   0  0  0  0  0  0  0  0  0  0  0  0
   -8.3590   -0.7630  -24.1990 H   0  0  0  0  0  0  0  0  0  0  0  0
   -6.3650   -3.1130  -21.7150 H   0  0  0  0  0  0  0  0  0  0  0  0
   -6.5190   -2.0670  -23.1230 H   0  0  0  0  0  0  0  0  0  0  0  0
   -8.6480   -3.7270  -21.7690 H   0  0  0  0  0  0  0  0  0  0  0  0
   -9.0350   -4.6920  -24.0300 H   0  0  0  0  0  0  0  0  0  0  0  0
   -7.7610   -3.6490  -24.6910 H   0  0  0  0  0  0  0  0  0  0  0  0
   -7.3620   -4.8740  -23.4850 H   0  0  0  0  0  0  0  0  0  0  0  0
  1  2  1  0  0  0  0
  1 56  1  0  0  0  0
  1 57  1  0  0  0  0
  1 58  1  0  0  0  0
  2  3  1  0  0  0  0
  2 23  1  0  0  0  0
  2 55  1  1  0  0  0
  3  4  1  0  0  0  0
  3 53  1  0  0  0  0
  3 54  1  0  0  0  0
  4  5  1  0  0  0  0
  4 21  1  0  0  0  0
  5  6  2  0  0  0  0
  5 14  1  0  0  0  0
  6  7  1  0  0  0  0
  6 20  1  0  0  0  0
  7  8  2  0  0  0  0
  8  9  1  0  0  0  0
  8 19  1  0  0  0  0
  9 10  2  0  0  0  0
  9 14  1  0  0  0  0
 10 11  1  0  0  0  0
 10 18  1  0  0  0  0
 11 12  2  0  0  0  0
 11 17  1  0  0  0  0
 12 13  1  0  0  0  0
 12 16  1  0  0  0  0
 13 14  2  0  0  0  0
 13 15  1  0  0  0  0
 21 22  2  0  0  0  0
 23 21  1  1  0  0  0
 23 24  1  0  0  0  0
 23 47  1  0  0  0  0
 24 25  1  0  0  0  0
 24 51  1  0  0  0  0
 24 52  1  0  0  0  0
 25 26  1  0  0  0  0
 25 39  1  0  0  0  0
 26 27  1  0  0  0  0
 26 37  1  0  0  0  0
 26 38  1  0  0  0  0
 27 28  2  0  0  0  0
 27 33  1  0  0  0  0
 28 29  1  0  0  0  0
 28 36  1  0  0  0  0
 29 30  2  0  0  0  0
 29 31  1  0  0  0  0
 31 32  1  0  0  0  0
 31 35  1  0  0  0  0
 32 33  2  0  0  0  0
 32 34  1  0  0  0  0
 39 40  2  0  0  0  0
 39 41  1  0  0  0  0
 41 42  2  0  0  0  0
 41 47  1  0  0  0  0
 42 43  1  0  0  0  0
 42 50  1  0  0  0  0
 43 44  2  0  0  0  0
 43 49  1  0  0  0  0
 44 45  1  0  0  0  0
 44 46  1  0  0  0  0
 46 47  2  0  0  0  0
 46 48  1  0  0  0  0
M  END
>  <MODEL>
       1

$$$$
