tmp_first_model_17_49.pdb
 OpenBabel08282502223D

 67 72  0  0  1  0  0  0  0  0999 V2000
   -7.4090    3.3650  -21.7640 C   0  0  0  0  0  0  0  0  0  0  0  0
   -8.2740    2.9050  -22.8370 N   0  0  0  0  0  0  0  0  0  0  0  0
   -7.6980    2.2240  -23.8560 C   0  0  0  0  0  0  0  0  0  0  0  0
   -6.4810    2.1370  -23.9780 O   0  0  0  0  0  0  0  0  0  0  0  0
   -8.6430    1.5960  -24.8850 C   0  0  0  0  0  0  0  0  0  0  0  0
   -9.3690    0.4390  -24.3980 N   0  0  0  0  0  0  0  0  0  0  0  0
   -8.6420   -0.8080  -24.2450 C   0  0  0  0  0  0  0  0  0  0  0  0
   -9.0250   -1.5260  -22.9320 C   0  0  2  0  0  0  0  0  0  0  0  0
   -8.4960   -0.7370  -21.7030 C   0  0  0  0  0  0  0  0  0  0  0  0
   -8.9510    0.2860  -21.2310 O   0  0  0  0  0  0  0  0  0  0  0  0
   -7.3890   -1.3920  -21.2070 N   0  0  0  0  0  0  0  0  0  0  0  0
   -6.6000   -0.8150  -20.1750 C   0  0  0  0  0  0  0  0  0  0  0  0
   -6.9110   -1.0430  -18.8580 C   0  0  0  0  0  0  0  0  0  0  0  0
   -6.2100   -0.5460  -17.8090 N   0  0  0  0  0  0  0  0  0  0  0  0
   -5.1700    0.2070  -18.0760 C   0  0  0  0  0  0  0  0  0  0  0  0
   -4.7320    0.5300  -19.3910 C   0  0  0  0  0  0  0  0  0  0  0  0
   -3.6080    1.3670  -19.6360 C   0  0  0  0  0  0  0  0  0  0  0  0
   -3.2270    1.6630  -20.9160 C   0  0  0  0  0  0  0  0  0  0  0  0
   -3.9490    1.1360  -22.0100 C   0  0  0  0  0  0  0  0  0  0  0  0
   -5.0390    0.3250  -21.7990 C   0  0  0  0  0  0  0  0  0  0  0  0
   -5.4650    0.0030  -20.4820 C   0  0  0  0  0  0  0  0  0  0  0  0
   -5.5950   -0.0620  -22.6480 H   0  0  0  0  0  0  0  0  0  0  0  0
   -3.6470    1.3750  -23.0230 H   0  0  0  0  0  0  0  0  0  0  0  0
   -2.3660    2.3010  -21.0990 H   0  0  0  0  0  0  0  0  0  0  0  0
   -3.0690    1.7710  -18.7830 H   0  0  0  0  0  0  0  0  0  0  0  0
   -4.6200    0.6100  -17.2250 H   0  0  0  0  0  0  0  0  0  0  0  0
   -7.7620   -1.6690  -18.6020 H   0  0  0  0  0  0  0  0  0  0  0  0
   -7.0390   -2.5990  -21.9280 C   0  0  0  0  0  0  0  0  0  0  0  0
   -8.2910   -2.8960  -22.7710 C   0  0  2  0  0  0  0  0  0  0  0  0
   -7.9600   -3.6800  -24.0580 C   0  0  0  0  0  0  0  0  0  0  0  0
   -7.4530   -5.0060  -23.7830 N   0  0  0  0  0  0  0  0  0  0  0  0
   -6.1220   -5.3100  -23.6650 C   0  0  0  0  0  0  0  0  0  0  0  0
   -5.0180   -4.5870  -24.0120 C   0  0  0  0  0  0  0  0  0  0  0  0
   -3.7940   -5.1890  -23.7910 N   0  0  0  0  0  0  0  0  0  0  0  0
   -3.9340   -6.3770  -23.2940 C   0  0  0  0  0  0  0  0  0  0  0  0
   -2.7940   -7.2980  -22.9860 C   0  0  0  0  0  0  0  0  0  0  0  0
   -3.0210   -7.9310  -22.1250 H   0  0  0  0  0  0  0  0  0  0  0  0
   -2.5860   -7.9500  -23.8440 H   0  0  0  0  0  0  0  0  0  0  0  0
   -1.8990   -6.7040  -22.7920 H   0  0  0  0  0  0  0  0  0  0  0  0
   -5.6020   -6.8630  -23.0350 S   0  0  0  0  0  0  0  0  0  0  0  0
   -5.0540   -3.6010  -24.4600 H   0  0  0  0  0  0  0  0  0  0  0  0
   -8.1100   -5.7180  -23.5010 H   0  0  0  0  0  0  0  0  0  0  0  0
   -8.8670   -3.7910  -24.6650 H   0  0  0  0  0  0  0  0  0  0  0  0
   -7.2160   -3.1290  -24.6520 H   0  0  0  0  0  0  0  0  0  0  0  0
   -8.9550   -3.5300  -22.1760 H   0  0  0  0  0  0  0  0  0  0  0  0
   -6.1550   -2.4490  -22.5700 H   0  0  0  0  0  0  0  0  0  0  0  0
   -6.7900   -3.4190  -21.2460 H   0  0  0  0  0  0  0  0  0  0  0  0
  -10.5380   -1.5840  -22.8730 C   0  0  0  0  0  0  0  0  0  0  0  0
  -11.1510   -2.4590  -21.9810 C   0  0  0  0  0  0  0  0  0  0  0  0
  -12.5210   -2.4760  -21.8330 C   0  0  0  0  0  0  0  0  0  0  0  0
  -13.1450   -3.4850  -20.5600 Cl  0  0  0  0  0  0  0  0  0  0  0  0
  -13.3470   -1.6550  -22.6050 C   0  0  0  0  0  0  0  0  0  0  0  0
  -12.7420   -0.7380  -23.4440 C   0  0  0  0  0  0  0  0  0  0  0  0
  -11.3520   -0.6670  -23.5480 C   0  0  0  0  0  0  0  0  0  0  0  0
  -10.7390    0.4740  -24.3020 C   0  0  0  0  0  0  0  0  0  0  0  0
  -11.4120    1.3850  -24.7560 O   0  0  0  0  0  0  0  0  0  0  0  0
  -13.3160   -0.0150  -24.0110 H   0  0  0  0  0  0  0  0  0  0  0  0
  -14.4280   -1.7070  -22.5270 H   0  0  0  0  0  0  0  0  0  0  0  0
  -10.5770   -3.1100  -21.3340 H   0  0  0  0  0  0  0  0  0  0  0  0
   -7.5760   -0.5610  -24.2290 H   0  0  0  0  0  0  0  0  0  0  0  0
   -8.8520   -1.4800  -25.0940 H   0  0  0  0  0  0  0  0  0  0  0  0
   -9.4070    2.3040  -25.2080 H   0  0  0  0  0  0  0  0  0  0  0  0
   -8.0060    1.3300  -25.7360 H   0  0  0  0  0  0  0  0  0  0  0  0
   -9.2730    2.8170  -22.6870 H   0  0  0  0  0  0  0  0  0  0  0  0
   -6.8010    2.5260  -21.3910 H   0  0  0  0  0  0  0  0  0  0  0  0
   -6.7290    4.1450  -22.1270 H   0  0  0  0  0  0  0  0  0  0  0  0
   -8.0210    3.7840  -20.9680 H   0  0  0  0  0  0  0  0  0  0  0  0
  1  2  1  0  0  0  0
  1 65  1  0  0  0  0
  1 66  1  0  0  0  0
  1 67  1  0  0  0  0
  2  3  1  0  0  0  0
  2 64  1  0  0  0  0
  3  4  2  0  0  0  0
  3  5  1  0  0  0  0
  5  6  1  0  0  0  0
  5 62  1  0  0  0  0
  5 63  1  0  0  0  0
  6  7  1  0  0  0  0
  6 55  1  0  0  0  0
  7  8  1  0  0  0  0
  7 60  1  0  0  0  0
  7 61  1  0  0  0  0
  8  9  1  1  0  0  0
  8 29  1  0  0  0  0
  8 48  1  0  0  0  0
  9 10  2  0  0  0  0
  9 11  1  0  0  0  0
 11 12  1  0  0  0  0
 11 28  1  0  0  0  0
 12 13  2  0  0  0  0
 12 21  1  0  0  0  0
 13 14  1  0  0  0  0
 13 27  1  0  0  0  0
 14 15  2  0  0  0  0
 15 16  1  0  0  0  0
 15 26  1  0  0  0  0
 16 17  2  0  0  0  0
 16 21  1  0  0  0  0
 17 18  1  0  0  0  0
 17 25  1  0  0  0  0
 18 19  2  0  0  0  0
 18 24  1  0  0  0  0
 19 20  1  0  0  0  0
 19 23  1  0  0  0  0
 20 21  2  0  0  0  0
 20 22  1  0  0  0  0
 28 29  1  0  0  0  0
 28 46  1  0  0  0  0
 28 47  1  0  0  0  0
 29 30  1  0  0  0  0
 29 45  1  1  0  0  0
 30 31  1  0  0  0  0
 30 43  1  0  0  0  0
 30 44  1  0  0  0  0
 31 32  1  0  0  0  0
 31 42  1  0  0  0  0
 32 33  2  0  0  0  0
 32 40  1  0  0  0  0
 33 34  1  0  0  0  0
 33 41  1  0  0  0  0
 34 35  2  0  0  0  0
 35 36  1  0  0  0  0
 35 40  1  0  0  0  0
 36 37  1  0  0  0  0
 36 38  1  0  0  0  0
 36 39  1  0  0  0  0
 48 49  2  0  0  0  0
 48 54  1  0  0  0  0
 49 50  1  0  0  0  0
 49 59  1  0  0  0  0
 50 51  1  0  0  0  0
 50 52  2  0  0  0  0
 52 53  1  0  0  0  0
 52 58  1  0  0  0  0
 53 54  2  0  0  0  0
 53 57  1  0  0  0  0
 54 55  1  0  0  0  0
 55 56  2  0  0  0  0
M  END
>  <MODEL>
       1

$$$$
