tmp_first_model_3_62.pdb
 OpenBabel08272518143D

 44 47  0  0  0  0  0  0  0  0999 V2000
   -5.6900   -3.1630  -21.4080 O   0  0  0  0  0  0  0  0  0  0  0  0
   -6.7100   -2.7150  -21.9080 C   0  0  0  0  0  0  0  0  0  0  0  0
   -7.4010   -1.4740  -21.2800 C   0  0  0  0  0  0  0  0  0  0  0  0
   -6.5760   -0.8330  -20.1840 C   0  0  0  0  0  0  0  0  0  0  0  0
   -6.8730   -1.0470  -18.8650 C   0  0  0  0  0  0  0  0  0  0  0  0
   -6.1940   -0.5390  -17.8010 N   0  0  0  0  0  0  0  0  0  0  0  0
   -5.1590    0.2210  -18.0670 C   0  0  0  0  0  0  0  0  0  0  0  0
   -4.7210    0.5290  -19.3810 C   0  0  0  0  0  0  0  0  0  0  0  0
   -3.5930    1.3550  -19.6230 C   0  0  0  0  0  0  0  0  0  0  0  0
   -3.1930    1.6320  -20.9020 C   0  0  0  0  0  0  0  0  0  0  0  0
   -3.9040    1.0900  -21.9930 C   0  0  0  0  0  0  0  0  0  0  0  0
   -5.0000    0.2880  -21.7880 C   0  0  0  0  0  0  0  0  0  0  0  0
   -5.4440   -0.0130  -20.4730 C   0  0  0  0  0  0  0  0  0  0  0  0
   -5.5370   -0.1230  -22.6360 H   0  0  0  0  0  0  0  0  0  0  0  0
   -3.5820    1.3180  -23.0070 H   0  0  0  0  0  0  0  0  0  0  0  0
   -2.3320    2.2730  -21.0860 H   0  0  0  0  0  0  0  0  0  0  0  0
   -3.0600    1.7730  -18.7720 H   0  0  0  0  0  0  0  0  0  0  0  0
   -4.6050    0.6280  -17.2170 H   0  0  0  0  0  0  0  0  0  0  0  0
   -7.7230   -1.6730  -18.5880 H   0  0  0  0  0  0  0  0  0  0  0  0
   -8.3620   -1.8000  -20.8500 H   0  0  0  0  0  0  0  0  0  0  0  0
   -7.6560   -0.7270  -22.0460 H   0  0  0  0  0  0  0  0  0  0  0  0
   -7.2920   -3.2970  -23.0150 N   0  0  0  0  0  0  0  0  0  0  0  0
   -6.7590   -4.5610  -23.5230 C   0  0  0  0  0  0  0  0  0  0  0  0
   -7.8770   -5.5560  -23.8350 C   0  0  0  0  0  0  0  0  0  0  0  0
   -9.0380   -4.9490  -24.6630 C   0  0  0  0  0  0  0  0  0  0  0  0
   -9.3770   -5.8470  -25.8620 C   0  0  0  0  0  0  0  0  0  0  0  0
   -8.3740   -6.0670  -26.9640 C   0  0  0  0  0  0  0  0  0  0  0  0
   -9.6590   -5.3380  -27.2510 C   0  0  0  0  0  0  0  0  0  0  0  0
  -10.4090   -5.8450  -27.8580 H   0  0  0  0  0  0  0  0  0  0  0  0
   -9.6120   -4.2680  -27.4410 H   0  0  0  0  0  0  0  0  0  0  0  0
   -8.2430   -7.0680  -27.3810 H   0  0  0  0  0  0  0  0  0  0  0  0
   -7.4630   -5.4720  -26.9270 H   0  0  0  0  0  0  0  0  0  0  0  0
   -9.9360   -6.7420  -25.5860 H   0  0  0  0  0  0  0  0  0  0  0  0
   -8.7430   -3.4930  -25.0210 C   0  0  0  0  0  0  0  0  0  0  0  0
   -8.3580   -2.6700  -23.7950 C   0  0  0  0  0  0  0  0  0  0  0  0
   -8.0470   -1.6730  -24.1290 H   0  0  0  0  0  0  0  0  0  0  0  0
   -9.2430   -2.5290  -23.1610 H   0  0  0  0  0  0  0  0  0  0  0  0
   -9.6320   -3.0400  -25.4670 H   0  0  0  0  0  0  0  0  0  0  0  0
   -7.9620   -3.4200  -25.7870 H   0  0  0  0  0  0  0  0  0  0  0  0
   -9.9240   -4.9400  -24.0150 H   0  0  0  0  0  0  0  0  0  0  0  0
   -7.4440   -6.4130  -24.3610 H   0  0  0  0  0  0  0  0  0  0  0  0
   -8.2750   -5.9520  -22.8960 H   0  0  0  0  0  0  0  0  0  0  0  0
   -6.0860   -4.9690  -22.7700 H   0  0  0  0  0  0  0  0  0  0  0  0
   -6.1490   -4.3800  -24.4210 H   0  0  0  0  0  0  0  0  0  0  0  0
  1  2  2  0  0  0  0
  2  3  1  0  0  0  0
  2 22  1  0  0  0  0
  3  4  1  0  0  0  0
  3 20  1  0  0  0  0
  3 21  1  0  0  0  0
  4  5  2  0  0  0  0
  4 13  1  0  0  0  0
  5  6  1  0  0  0  0
  5 19  1  0  0  0  0
  6  7  2  0  0  0  0
  7  8  1  0  0  0  0
  7 18  1  0  0  0  0
  8  9  2  0  0  0  0
  8 13  1  0  0  0  0
  9 10  1  0  0  0  0
  9 17  1  0  0  0  0
 10 11  2  0  0  0  0
 10 16  1  0  0  0  0
 11 12  1  0  0  0  0
 11 15  1  0  0  0  0
 12 13  2  0  0  0  0
 12 14  1  0  0  0  0
 22 23  1  0  0  0  0
 22 35  1  0  0  0  0
 23 24  1  0  0  0  0
 23 43  1  0  0  0  0
 23 44  1  0  0  0  0
 24 25  1  0  0  0  0
 24 41  1  0  0  0  0
 24 42  1  0  0  0  0
 25 26  1  0  0  0  0
 25 34  1  0  0  0  0
 25 40  1  0  0  0  0
 26 27  1  0  0  0  0
 26 28  1  0  0  0  0
 26 33  1  0  0  0  0
 27 28  1  0  0  0  0
 27 31  1  0  0  0  0
 27 32  1  0  0  0  0
 28 29  1  0  0  0  0
 28 30  1  0  0  0  0
 34 35  1  0  0  0  0
 34 38  1  0  0  0  0
 34 39  1  0  0  0  0
 35 36  1  0  0  0  0
 35 37  1  0  0  0  0
M  END
>  <MODEL>
       1

$$$$
