tmp_first_model_4_59.pdb
 OpenBabel08272518513D

 60 65  0  0  1  0  0  0  0  0999 V2000
   -8.0040   -6.0090  -26.8030 C   0  0  0  0  0  0  0  0  0  0  0  0
   -8.2550   -4.5930  -27.0130 N   0  0  0  0  0  0  0  0  0  0  0  0
   -7.2870   -3.6940  -26.7100 C   0  0  0  0  0  0  0  0  0  0  0  0
   -6.1950   -4.0380  -26.2870 O   0  0  0  0  0  0  0  0  0  0  0  0
   -7.6860   -2.2150  -26.8340 C   0  0  0  0  0  0  0  0  0  0  0  0
   -8.5310   -1.8060  -25.7170 N   0  0  0  0  0  0  0  0  0  0  0  0
   -7.9440   -1.2570  -24.4940 C   0  0  0  0  0  0  0  0  0  0  0  0
   -8.7790   -1.5490  -23.2060 C   0  0  2  0  0  0  0  0  0  0  0  0
   -8.2020   -0.6200  -22.1130 C   0  0  0  0  0  0  0  0  0  0  0  0
   -8.3300    0.5850  -22.0510 O   0  0  0  0  0  0  0  0  0  0  0  0
   -7.4280   -1.3780  -21.2500 N   0  0  0  0  0  0  0  0  0  0  0  0
   -6.5430   -0.8950  -20.2470 C   0  0  0  0  0  0  0  0  0  0  0  0
   -6.7470   -1.2770  -18.9410 C   0  0  0  0  0  0  0  0  0  0  0  0
   -5.8780   -1.0580  -17.9270 N   0  0  0  0  0  0  0  0  0  0  0  0
   -4.7600   -0.4390  -18.2070 C   0  0  0  0  0  0  0  0  0  0  0  0
   -4.4190    0.0270  -19.5060 C   0  0  0  0  0  0  0  0  0  0  0  0
   -3.2140    0.7430  -19.7390 C   0  0  0  0  0  0  0  0  0  0  0  0
   -2.9330    1.2350  -20.9830 C   0  0  0  0  0  0  0  0  0  0  0  0
   -3.8120    0.9760  -22.0600 C   0  0  0  0  0  0  0  0  0  0  0  0
   -4.9560    0.2400  -21.8670 C   0  0  0  0  0  0  0  0  0  0  0  0
   -5.3260   -0.1990  -20.5660 C   0  0  0  0  0  0  0  0  0  0  0  0
   -5.5840   -0.0280  -22.7120 H   0  0  0  0  0  0  0  0  0  0  0  0
   -3.5800    1.3620  -23.0490 H   0  0  0  0  0  0  0  0  0  0  0  0
   -2.0460    1.8410  -21.1470 H   0  0  0  0  0  0  0  0  0  0  0  0
   -2.5770    0.9580  -18.8840 H   0  0  0  0  0  0  0  0  0  0  0  0
   -4.0640   -0.2640  -17.3850 H   0  0  0  0  0  0  0  0  0  0  0  0
   -7.6520   -1.8220  -18.6730 H   0  0  0  0  0  0  0  0  0  0  0  0
   -7.3950   -2.7870  -21.5830 C   0  0  0  0  0  0  0  0  0  0  0  0
   -8.5420   -2.9660  -22.5760 C   0  0  2  0  0  0  0  0  0  0  0  0
   -8.2810   -4.0990  -23.5740 C   0  0  0  0  0  0  0  0  0  0  0  0
   -8.1080   -5.4600  -22.9780 C   0  0  0  0  0  0  0  0  0  0  0  0
   -7.2090   -5.7670  -22.0480 N   0  0  0  0  0  0  0  0  0  0  0  0
   -7.3040   -7.0830  -21.9010 N   0  0  0  0  0  0  0  0  0  0  0  0
   -8.2290   -7.5520  -22.6910 N   0  5  0  0  0  0  0  0  0  0  0  0
   -8.7440   -6.5500  -23.4000 N   0  0  0  0  0  0  0  0  0  0  0  0
   -9.1080   -4.1670  -24.2790 H   0  0  0  0  0  0  0  0  0  0  0  0
   -7.3540   -3.8960  -24.1270 H   0  0  0  0  0  0  0  0  0  0  0  0
   -9.4490   -3.2020  -22.0020 H   0  0  0  0  0  0  0  0  0  0  0  0
   -7.5210   -3.3810  -20.6850 H   0  0  0  0  0  0  0  0  0  0  0  0
   -6.4340   -3.0970  -22.0170 H   0  0  0  0  0  0  0  0  0  0  0  0
  -10.2540   -1.3040  -23.5020 C   0  0  0  0  0  0  0  0  0  0  0  0
  -11.1880   -1.1240  -22.4630 C   0  0  0  0  0  0  0  0  0  0  0  0
  -12.5380   -0.9810  -22.7640 C   0  0  0  0  0  0  0  0  0  0  0  0
  -13.7580   -0.8930  -21.5230 Cl  0  0  0  0  0  0  0  0  0  0  0  0
  -12.9890   -0.9520  -24.0820 C   0  0  0  0  0  0  0  0  0  0  0  0
  -12.0830   -1.1450  -25.1040 C   0  0  0  0  0  0  0  0  0  0  0  0
  -10.7410   -1.3830  -24.8140 C   0  0  0  0  0  0  0  0  0  0  0  0
   -9.8760   -1.8240  -25.9440 C   0  0  0  0  0  0  0  0  0  0  0  0
  -10.3530   -2.2210  -27.0040 O   0  0  0  0  0  0  0  0  0  0  0  0
  -12.3980   -1.1470  -26.1450 H   0  0  0  0  0  0  0  0  0  0  0  0
  -14.0480   -0.8210  -24.2760 H   0  0  0  0  0  0  0  0  0  0  0  0
  -10.8750   -1.1060  -21.4250 H   0  0  0  0  0  0  0  0  0  0  0  0
   -7.8530   -0.1660  -24.5790 H   0  0  0  0  0  0  0  0  0  0  0  0
   -6.9270   -1.6620  -24.3820 H   0  0  0  0  0  0  0  0  0  0  0  0
   -6.7800   -1.6060  -26.8640 H   0  0  0  0  0  0  0  0  0  0  0  0
   -8.2660   -2.0540  -27.7480 H   0  0  0  0  0  0  0  0  0  0  0  0
   -9.1730   -4.2620  -27.2690 H   0  0  0  0  0  0  0  0  0  0  0  0
   -7.7500   -6.2080  -25.7530 H   0  0  0  0  0  0  0  0  0  0  0  0
   -7.1640   -6.3450  -27.4190 H   0  0  0  0  0  0  0  0  0  0  0  0
   -8.9020   -6.5720  -27.0720 H   0  0  0  0  0  0  0  0  0  0  0  0
  1  2  1  0  0  0  0
  1 58  1  0  0  0  0
  1 59  1  0  0  0  0
  1 60  1  0  0  0  0
  2  3  1  0  0  0  0
  2 57  1  0  0  0  0
  3  4  2  0  0  0  0
  3  5  1  0  0  0  0
  5  6  1  0  0  0  0
  5 55  1  0  0  0  0
  5 56  1  0  0  0  0
  6  7  1  0  0  0  0
  6 48  1  0  0  0  0
  7  8  1  0  0  0  0
  7 53  1  0  0  0  0
  7 54  1  0  0  0  0
  8  9  1  1  0  0  0
  8 29  1  0  0  0  0
  8 41  1  0  0  0  0
  9 10  2  0  0  0  0
  9 11  1  0  0  0  0
 11 12  1  0  0  0  0
 11 28  1  0  0  0  0
 12 13  2  0  0  0  0
 12 21  1  0  0  0  0
 13 14  1  0  0  0  0
 13 27  1  0  0  0  0
 14 15  2  0  0  0  0
 15 16  1  0  0  0  0
 15 26  1  0  0  0  0
 16 17  2  0  0  0  0
 16 21  1  0  0  0  0
 17 18  1  0  0  0  0
 17 25  1  0  0  0  0
 18 19  2  0  0  0  0
 18 24  1  0  0  0  0
 19 20  1  0  0  0  0
 19 23  1  0  0  0  0
 20 21  2  0  0  0  0
 20 22  1  0  0  0  0
 28 29  1  0  0  0  0
 28 39  1  0  0  0  0
 28 40  1  0  0  0  0
 29 30  1  0  0  0  0
 29 38  1  1  0  0  0
 30 31  1  0  0  0  0
 30 36  1  0  0  0  0
 30 37  1  0  0  0  0
 31 32  1  0  0  0  0
 31 35  2  0  0  0  0
 32 33  2  0  0  0  0
 33 34  1  0  0  0  0
 34 35  1  0  0  0  0
 41 42  2  0  0  0  0
 41 47  1  0  0  0  0
 42 43  1  0  0  0  0
 42 52  1  0  0  0  0
 43 44  1  0  0  0  0
 43 45  2  0  0  0  0
 45 46  1  0  0  0  0
 45 51  1  0  0  0  0
 46 47  2  0  0  0  0
 46 50  1  0  0  0  0
 47 48  1  0  0  0  0
 48 49  2  0  0  0  0
M  CHG  1  34  -1
M  END
>  <MODEL>
       1

$$$$
