tmp_first_model_18_36.pdb
 OpenBabel08282502533D

 47 50  0  0  1  0  0  0  0  0999 V2000
   -6.0900   -3.4680  -21.2140 O   0  0  0  0  0  0  0  0  0  0  0  0
   -6.6450   -2.6590  -21.9360 C   0  0  0  0  0  0  0  0  0  0  0  0
   -7.3870   -1.4610  -21.2910 C   0  0  0  0  0  0  0  0  0  0  0  0
   -6.5770   -0.8240  -20.1790 C   0  0  0  0  0  0  0  0  0  0  0  0
   -6.8720   -1.0460  -18.8580 C   0  0  0  0  0  0  0  0  0  0  0  0
   -6.1880   -0.5420  -17.7930 N   0  0  0  0  0  0  0  0  0  0  0  0
   -5.1590    0.2240  -18.0620 C   0  0  0  0  0  0  0  0  0  0  0  0
   -4.7230    0.5360  -19.3790 C   0  0  0  0  0  0  0  0  0  0  0  0
   -3.5930    1.3590  -19.6210 C   0  0  0  0  0  0  0  0  0  0  0  0
   -3.1940    1.6370  -20.9000 C   0  0  0  0  0  0  0  0  0  0  0  0
   -3.9100    1.0970  -21.9930 C   0  0  0  0  0  0  0  0  0  0  0  0
   -5.0060    0.2970  -21.7870 C   0  0  0  0  0  0  0  0  0  0  0  0
   -5.4480   -0.0030  -20.4710 C   0  0  0  0  0  0  0  0  0  0  0  0
   -5.5360   -0.1130  -22.6420 H   0  0  0  0  0  0  0  0  0  0  0  0
   -3.5890    1.3210  -23.0050 H   0  0  0  0  0  0  0  0  0  0  0  0
   -2.3330    2.2740  -21.0880 H   0  0  0  0  0  0  0  0  0  0  0  0
   -3.0570    1.7710  -18.7690 H   0  0  0  0  0  0  0  0  0  0  0  0
   -4.6030    0.6300  -17.2140 H   0  0  0  0  0  0  0  0  0  0  0  0
   -7.7210   -1.6700  -18.5840 H   0  0  0  0  0  0  0  0  0  0  0  0
   -8.3120   -1.8620  -20.8610 H   0  0  0  0  0  0  0  0  0  0  0  0
   -7.6900   -0.7090  -22.0270 H   0  0  0  0  0  0  0  0  0  0  0  0
   -6.6120   -2.7890  -23.3140 N   0  0  0  0  0  0  0  0  0  0  0  0
   -5.5560   -3.6030  -23.9110 C   0  0  0  0  0  0  0  0  0  0  0  0
   -6.0960   -4.6260  -24.9080 C   0  0  0  0  0  0  0  0  0  0  0  0
   -7.0950   -4.0160  -25.9090 C   0  0  0  0  0  0  0  0  0  0  0  0
   -7.2800   -2.5180  -25.6780 C   0  0  0  0  0  0  0  0  0  0  0  0
   -7.5700   -2.1510  -24.2120 C   0  0  1  0  0  0  0  0  0  0  0  0
   -9.0160   -2.4560  -23.8370 C   0  0  0  0  0  0  0  0  0  0  0  0
   -9.4030   -3.7220  -23.4010 C   0  0  0  0  0  0  0  0  0  0  0  0
  -10.7330   -3.9870  -23.0940 C   0  0  0  0  0  0  0  0  0  0  0  0
  -11.7020   -3.0010  -23.2280 C   0  0  0  0  0  0  0  0  0  0  0  0
  -11.3330   -1.7420  -23.6870 C   0  0  0  0  0  0  0  0  0  0  0  0
  -10.0000   -1.4770  -23.9940 C   0  0  0  0  0  0  0  0  0  0  0  0
   -9.7330   -0.4900  -24.3640 H   0  0  0  0  0  0  0  0  0  0  0  0
  -12.0850   -0.9660  -23.7990 H   0  0  0  0  0  0  0  0  0  0  0  0
  -12.7360   -3.2180  -22.9740 H   0  0  0  0  0  0  0  0  0  0  0  0
  -11.0160   -4.9690  -22.7390 H   0  0  0  0  0  0  0  0  0  0  0  0
   -8.6600   -4.5080  -23.2910 H   0  0  0  0  0  0  0  0  0  0  0  0
   -7.4410   -1.0640  -24.1370 H   0  0  0  0  0  0  0  0  0  0  0  0
   -6.4030   -1.9660  -26.0310 H   0  0  0  0  0  0  0  0  0  0  0  0
   -8.1070   -2.1550  -26.2910 H   0  0  0  0  0  0  0  0  0  0  0  0
   -8.0670   -4.5160  -25.8210 H   0  0  0  0  0  0  0  0  0  0  0  0
   -6.7640   -4.1820  -26.9400 H   0  0  0  0  0  0  0  0  0  0  0  0
   -5.2520   -5.0750  -25.4390 H   0  0  0  0  0  0  0  0  0  0  0  0
   -6.5700   -5.4440  -24.3600 H   0  0  0  0  0  0  0  0  0  0  0  0
   -4.8320   -2.9430  -24.4110 H   0  0  0  0  0  0  0  0  0  0  0  0
   -5.0280   -4.0980  -23.1000 H   0  0  0  0  0  0  0  0  0  0  0  0
  1  2  2  0  0  0  0
  2  3  1  0  0  0  0
  2 22  1  0  0  0  0
  3  4  1  0  0  0  0
  3 20  1  0  0  0  0
  3 21  1  0  0  0  0
  4  5  2  0  0  0  0
  4 13  1  0  0  0  0
  5  6  1  0  0  0  0
  5 19  1  0  0  0  0
  6  7  2  0  0  0  0
  7  8  1  0  0  0  0
  7 18  1  0  0  0  0
  8  9  2  0  0  0  0
  8 13  1  0  0  0  0
  9 10  1  0  0  0  0
  9 17  1  0  0  0  0
 10 11  2  0  0  0  0
 10 16  1  0  0  0  0
 11 12  1  0  0  0  0
 11 15  1  0  0  0  0
 12 13  2  0  0  0  0
 12 14  1  0  0  0  0
 22 23  1  0  0  0  0
 22 27  1  0  0  0  0
 23 24  1  0  0  0  0
 23 46  1  0  0  0  0
 23 47  1  0  0  0  0
 24 25  1  0  0  0  0
 24 44  1  0  0  0  0
 24 45  1  0  0  0  0
 25 26  1  0  0  0  0
 25 42  1  0  0  0  0
 25 43  1  0  0  0  0
 26 27  1  0  0  0  0
 26 40  1  0  0  0  0
 26 41  1  0  0  0  0
 27 28  1  0  0  0  0
 27 39  1  1  0  0  0
 28 29  2  0  0  0  0
 28 33  1  0  0  0  0
 29 30  1  0  0  0  0
 29 38  1  0  0  0  0
 30 31  2  0  0  0  0
 30 37  1  0  0  0  0
 31 32  1  0  0  0  0
 31 36  1  0  0  0  0
 32 33  2  0  0  0  0
 32 35  1  0  0  0  0
 33 34  1  0  0  0  0
M  END
>  <MODEL>
       1

$$$$
