tmp_first_model_18_77.pdb
 OpenBabel08282502533D

 55 60  0  0  1  0  0  0  0  0999 V2000
  -10.2070   -1.0310  -23.6670 C   0  0  0  0  0  0  0  0  0  0  0  0
   -8.8520   -1.3490  -23.0430 C   0  0  1  0  0  0  0  0  0  0  0  0
   -8.3950   -0.4140  -21.9080 C   0  0  0  0  0  0  0  0  0  0  0  0
   -7.3950   -1.2130  -21.2190 N   0  0  0  0  0  0  0  0  0  0  0  0
   -6.5900   -0.7440  -20.1550 C   0  0  0  0  0  0  0  0  0  0  0  0
   -6.8830   -1.0470  -18.8530 C   0  0  0  0  0  0  0  0  0  0  0  0
   -6.2130   -0.5380  -17.7860 N   0  0  0  0  0  0  0  0  0  0  0  0
   -5.2010    0.2640  -18.0280 C   0  0  0  0  0  0  0  0  0  0  0  0
   -4.7470    0.6000  -19.3390 C   0  0  0  0  0  0  0  0  0  0  0  0
   -3.6110    1.4140  -19.5850 C   0  0  0  0  0  0  0  0  0  0  0  0
   -3.1930    1.6530  -20.8670 C   0  0  0  0  0  0  0  0  0  0  0  0
   -3.8840    1.0970  -21.9660 C   0  0  0  0  0  0  0  0  0  0  0  0
   -4.9950    0.3220  -21.7590 C   0  0  0  0  0  0  0  0  0  0  0  0
   -5.4530    0.0690  -20.4400 C   0  0  0  0  0  0  0  0  0  0  0  0
   -5.5170   -0.1300  -22.5950 H   0  0  0  0  0  0  0  0  0  0  0  0
   -3.5380    1.2800  -22.9790 H   0  0  0  0  0  0  0  0  0  0  0  0
   -2.3240    2.2760  -21.0560 H   0  0  0  0  0  0  0  0  0  0  0  0
   -3.0820    1.8430  -18.7400 H   0  0  0  0  0  0  0  0  0  0  0  0
   -4.6700    0.6670  -17.1620 H   0  0  0  0  0  0  0  0  0  0  0  0
   -7.7050   -1.7250  -18.6220 H   0  0  0  0  0  0  0  0  0  0  0  0
   -7.5070   -2.5620  -21.4750 C   0  0  0  0  0  0  0  0  0  0  0  0
   -6.7830   -3.4080  -20.9970 O   0  0  0  0  0  0  0  0  0  0  0  0
   -8.6910   -2.7800  -22.4250 C   0  0  1  0  0  0  0  0  0  0  0  0
   -9.9110   -3.1990  -21.5430 C   0  0  0  0  0  0  0  0  0  0  0  0
  -11.0530   -3.6640  -22.3150 N   0  0  0  0  0  0  0  0  0  0  0  0
  -12.4100   -3.6380  -21.7650 C   0  0  0  0  0  0  0  0  0  0  0  0
  -13.2870   -2.5100  -22.2230 C   0  0  0  0  0  0  0  0  0  0  0  0
  -14.0590   -1.6830  -21.4800 C   0  0  0  0  0  0  0  0  0  0  0  0
  -14.7690   -0.8840  -22.3300 O   0  0  0  0  0  0  0  0  0  0  0  0
  -14.3700   -1.2640  -23.5570 C   0  0  0  0  0  0  0  0  0  0  0  0
  -13.5150   -2.2330  -23.5650 N   0  0  0  0  0  0  0  0  0  0  0  0
  -14.8120   -0.7470  -24.4000 H   0  0  0  0  0  0  0  0  0  0  0  0
  -14.2100   -1.5250  -20.4190 H   0  0  0  0  0  0  0  0  0  0  0  0
  -12.8850   -4.5670  -22.0920 H   0  0  0  0  0  0  0  0  0  0  0  0
  -12.3950   -3.6380  -20.6730 H   0  0  0  0  0  0  0  0  0  0  0  0
  -10.8360   -4.5280  -23.3500 C   0  0  0  0  0  0  0  0  0  0  0  0
  -11.7290   -5.1880  -23.8350 O   0  0  0  0  0  0  0  0  0  0  0  0
   -9.4530   -4.6630  -23.8810 C   0  0  0  0  0  0  0  0  0  0  0  0
   -9.2640   -5.6530  -24.8400 C   0  0  0  0  0  0  0  0  0  0  0  0
   -8.0240   -5.8710  -25.3950 C   0  0  0  0  0  0  0  0  0  0  0  0
   -6.9780   -5.0600  -24.9680 C   0  0  0  0  0  0  0  0  0  0  0  0
   -5.7650   -5.2780  -25.5020 F   0  0  0  0  0  0  0  0  0  0  0  0
   -7.1360   -4.0720  -24.0120 C   0  0  0  0  0  0  0  0  0  0  0  0
   -8.4050   -3.8590  -23.4460 C   0  0  0  0  0  0  0  0  0  0  0  0
   -6.2660   -3.5040  -23.7030 H   0  0  0  0  0  0  0  0  0  0  0  0
   -7.8550   -6.6500  -26.1300 H   0  0  0  0  0  0  0  0  0  0  0  0
  -10.1340   -6.2370  -25.1170 H   0  0  0  0  0  0  0  0  0  0  0  0
  -10.2590   -2.3400  -20.9670 H   0  0  0  0  0  0  0  0  0  0  0  0
   -9.5680   -3.9780  -20.8450 H   0  0  0  0  0  0  0  0  0  0  0  0
   -9.2220   -0.1730  -21.2240 H   0  0  0  0  0  0  0  0  0  0  0  0
   -7.9630    0.5260  -22.2700 H   0  0  0  0  0  0  0  0  0  0  0  0
   -8.1010   -1.2830  -23.8450 H   0  0  0  0  0  0  0  0  0  0  0  0
  -11.0320   -1.1130  -22.9520 H   0  0  0  0  0  0  0  0  0  0  0  0
  -10.4100   -1.7230  -24.4910 H   0  0  0  0  0  0  0  0  0  0  0  0
  -10.2170   -0.0210  -24.0860 H   0  0  0  0  0  0  0  0  0  0  0  0
  1  2  1  0  0  0  0
  1 53  1  0  0  0  0
  1 54  1  0  0  0  0
  1 55  1  0  0  0  0
  2  3  1  0  0  0  0
  2 23  1  0  0  0  0
  2 52  1  6  0  0  0
  3  4  1  0  0  0  0
  3 50  1  0  0  0  0
  3 51  1  0  0  0  0
  4  5  1  0  0  0  0
  4 21  1  0  0  0  0
  5  6  2  0  0  0  0
  5 14  1  0  0  0  0
  6  7  1  0  0  0  0
  6 20  1  0  0  0  0
  7  8  2  0  0  0  0
  8  9  1  0  0  0  0
  8 19  1  0  0  0  0
  9 10  2  0  0  0  0
  9 14  1  0  0  0  0
 10 11  1  0  0  0  0
 10 18  1  0  0  0  0
 11 12  2  0  0  0  0
 11 17  1  0  0  0  0
 12 13  1  0  0  0  0
 12 16  1  0  0  0  0
 13 14  2  0  0  0  0
 13 15  1  0  0  0  0
 21 22  2  0  0  0  0
 23 21  1  1  0  0  0
 23 24  1  0  0  0  0
 23 44  1  0  0  0  0
 24 25  1  0  0  0  0
 24 48  1  0  0  0  0
 24 49  1  0  0  0  0
 25 26  1  0  0  0  0
 25 36  1  0  0  0  0
 26 27  1  0  0  0  0
 26 34  1  0  0  0  0
 26 35  1  0  0  0  0
 27 28  2  0  0  0  0
 27 31  1  0  0  0  0
 28 29  1  0  0  0  0
 28 33  1  0  0  0  0
 29 30  1  0  0  0  0
 30 31  2  0  0  0  0
 30 32  1  0  0  0  0
 36 37  2  0  0  0  0
 36 38  1  0  0  0  0
 38 39  2  0  0  0  0
 38 44  1  0  0  0  0
 39 40  1  0  0  0  0
 39 47  1  0  0  0  0
 40 41  2  0  0  0  0
 40 46  1  0  0  0  0
 41 42  1  0  0  0  0
 41 43  1  0  0  0  0
 43 44  2  0  0  0  0
 43 45  1  0  0  0  0
M  END
>  <MODEL>
       1

$$$$
