tmp_first_model_6_63.pdb
 OpenBabel08272519583D

 57 61  0  0  1  0  0  0  0  0999 V2000
   -7.3400    3.4280  -21.8550 C   0  0  0  0  0  0  0  0  0  0  0  0
   -8.1810    2.9570  -22.9410 N   0  0  0  0  0  0  0  0  0  0  0  0
   -7.6060    2.2550  -23.9450 C   0  0  0  0  0  0  0  0  0  0  0  0
   -6.3930    2.1360  -24.0510 O   0  0  0  0  0  0  0  0  0  0  0  0
   -8.5630    1.6330  -24.9740 C   0  0  0  0  0  0  0  0  0  0  0  0
   -9.3050    0.4910  -24.4740 N   0  0  0  0  0  0  0  0  0  0  0  0
   -8.6020   -0.7670  -24.2900 C   0  0  0  0  0  0  0  0  0  0  0  0
   -9.0120   -1.4770  -22.9700 C   0  0  2  0  0  0  0  0  0  0  0  0
   -8.4610   -0.6880  -21.7510 C   0  0  0  0  0  0  0  0  0  0  0  0
   -8.8700    0.3660  -21.3180 O   0  0  0  0  0  0  0  0  0  0  0  0
   -7.4050   -1.3860  -21.2070 N   0  0  0  0  0  0  0  0  0  0  0  0
   -6.6080   -0.8090  -20.1770 C   0  0  0  0  0  0  0  0  0  0  0  0
   -6.9080   -1.0470  -18.8620 C   0  0  0  0  0  0  0  0  0  0  0  0
   -6.2020   -0.5580  -17.8110 N   0  0  0  0  0  0  0  0  0  0  0  0
   -5.1680    0.2050  -18.0750 C   0  0  0  0  0  0  0  0  0  0  0  0
   -4.7360    0.5390  -19.3890 C   0  0  0  0  0  0  0  0  0  0  0  0
   -3.6080    1.3730  -19.6310 C   0  0  0  0  0  0  0  0  0  0  0  0
   -3.2310    1.6810  -20.9100 C   0  0  0  0  0  0  0  0  0  0  0  0
   -3.9710    1.1760  -22.0020 C   0  0  0  0  0  0  0  0  0  0  0  0
   -5.0600    0.3620  -21.7930 C   0  0  0  0  0  0  0  0  0  0  0  0
   -5.4810    0.0230  -20.4800 C   0  0  0  0  0  0  0  0  0  0  0  0
   -5.5840   -0.0600  -22.6450 H   0  0  0  0  0  0  0  0  0  0  0  0
   -3.6640    1.3900  -23.0190 H   0  0  0  0  0  0  0  0  0  0  0  0
   -2.3600    2.3040  -21.0940 H   0  0  0  0  0  0  0  0  0  0  0  0
   -3.0670    1.7680  -18.7750 H   0  0  0  0  0  0  0  0  0  0  0  0
   -4.6220    0.6100  -17.2230 H   0  0  0  0  0  0  0  0  0  0  0  0
   -7.7600   -1.6700  -18.6020 H   0  0  0  0  0  0  0  0  0  0  0  0
   -7.0770   -2.6150  -21.9030 C   0  0  0  0  0  0  0  0  0  0  0  0
   -8.3070   -2.8620  -22.8110 C   0  0  2  0  0  0  0  0  0  0  0  0
   -7.9360   -3.5870  -24.1070 C   0  0  0  0  0  0  0  0  0  0  0  0
   -7.4260   -4.8610  -23.7600 O   0  0  0  0  0  0  0  0  0  0  0  0
   -7.2020   -5.3290  -24.5760 H   0  0  0  0  0  0  0  0  0  0  0  0
   -7.1770   -3.0040  -24.6540 H   0  0  0  0  0  0  0  0  0  0  0  0
   -8.8210   -3.6820  -24.7570 H   0  0  0  0  0  0  0  0  0  0  0  0
   -8.9930   -3.5260  -22.2810 H   0  0  0  0  0  0  0  0  0  0  0  0
   -6.9100   -3.4280  -21.1870 H   0  0  0  0  0  0  0  0  0  0  0  0
   -6.1490   -2.5040  -22.4880 H   0  0  0  0  0  0  0  0  0  0  0  0
  -10.5340   -1.4950  -22.9040 C   0  0  0  0  0  0  0  0  0  0  0  0
  -11.1880   -2.3210  -21.9800 C   0  0  0  0  0  0  0  0  0  0  0  0
  -12.5660   -2.2740  -21.8690 C   0  0  0  0  0  0  0  0  0  0  0  0
  -13.3940   -3.1360  -20.6050 Cl  0  0  0  0  0  0  0  0  0  0  0  0
  -13.3340   -1.4580  -22.6970 C   0  0  0  0  0  0  0  0  0  0  0  0
  -12.6980   -0.5830  -23.5510 C   0  0  0  0  0  0  0  0  0  0  0  0
  -11.3040   -0.5660  -23.6200 C   0  0  0  0  0  0  0  0  0  0  0  0
  -10.6690    0.5550  -24.3840 C   0  0  0  0  0  0  0  0  0  0  0  0
  -11.3350    1.4720  -24.8430 O   0  0  0  0  0  0  0  0  0  0  0  0
  -13.2460    0.1500  -24.1350 H   0  0  0  0  0  0  0  0  0  0  0  0
  -14.4120   -1.4810  -22.6050 H   0  0  0  0  0  0  0  0  0  0  0  0
  -10.6260   -2.9610  -21.3090 H   0  0  0  0  0  0  0  0  0  0  0  0
   -7.5330   -0.5300  -24.2610 H   0  0  0  0  0  0  0  0  0  0  0  0
   -8.7990   -1.4420  -25.1380 H   0  0  0  0  0  0  0  0  0  0  0  0
   -7.9280    1.3450  -25.8200 H   0  0  0  0  0  0  0  0  0  0  0  0
   -9.3220    2.3420  -25.3210 H   0  0  0  0  0  0  0  0  0  0  0  0
   -9.1830    2.9040  -22.8110 H   0  0  0  0  0  0  0  0  0  0  0  0
   -6.6230    4.1790  -22.2140 H   0  0  0  0  0  0  0  0  0  0  0  0
   -7.9860    3.8920  -21.1070 H   0  0  0  0  0  0  0  0  0  0  0  0
   -6.7660    2.5900  -21.4220 H   0  0  0  0  0  0  0  0  0  0  0  0
  1  2  1  0  0  0  0
  1 55  1  0  0  0  0
  1 56  1  0  0  0  0
  1 57  1  0  0  0  0
  2  3  1  0  0  0  0
  2 54  1  0  0  0  0
  3  4  2  0  0  0  0
  3  5  1  0  0  0  0
  5  6  1  0  0  0  0
  5 52  1  0  0  0  0
  5 53  1  0  0  0  0
  6  7  1  0  0  0  0
  6 45  1  0  0  0  0
  7  8  1  0  0  0  0
  7 50  1  0  0  0  0
  7 51  1  0  0  0  0
  8  9  1  1  0  0  0
  8 29  1  0  0  0  0
  8 38  1  0  0  0  0
  9 10  2  0  0  0  0
  9 11  1  0  0  0  0
 11 12  1  0  0  0  0
 11 28  1  0  0  0  0
 12 13  2  0  0  0  0
 12 21  1  0  0  0  0
 13 14  1  0  0  0  0
 13 27  1  0  0  0  0
 14 15  2  0  0  0  0
 15 16  1  0  0  0  0
 15 26  1  0  0  0  0
 16 17  2  0  0  0  0
 16 21  1  0  0  0  0
 17 18  1  0  0  0  0
 17 25  1  0  0  0  0
 18 19  2  0  0  0  0
 18 24  1  0  0  0  0
 19 20  1  0  0  0  0
 19 23  1  0  0  0  0
 20 21  2  0  0  0  0
 20 22  1  0  0  0  0
 28 29  1  0  0  0  0
 28 36  1  0  0  0  0
 28 37  1  0  0  0  0
 29 30  1  0  0  0  0
 29 35  1  1  0  0  0
 30 31  1  0  0  0  0
 30 33  1  0  0  0  0
 30 34  1  0  0  0  0
 31 32  1  0  0  0  0
 38 39  2  0  0  0  0
 38 44  1  0  0  0  0
 39 40  1  0  0  0  0
 39 49  1  0  0  0  0
 40 41  1  0  0  0  0
 40 42  2  0  0  0  0
 42 43  1  0  0  0  0
 42 48  1  0  0  0  0
 43 44  2  0  0  0  0
 43 47  1  0  0  0  0
 44 45  1  0  0  0  0
 45 46  2  0  0  0  0
M  END
>  <MODEL>
       1

$$$$
