tmp_first_model_10_24.pdb
 OpenBabel08272522163D

 65 70  0  0  1  0  0  0  0  0999 V2000
   -4.7790   -7.1730  -23.6100 O   0  0  0  0  0  0  0  0  0  0  0  0
   -5.8320   -7.0360  -24.2120 C   0  0  0  0  0  0  0  0  0  0  0  0
   -7.0810   -6.4210  -23.5660 C   0  0  0  0  0  0  0  0  0  0  0  0
   -7.1570   -4.9640  -23.8080 N   0  3  1  0  0  0  0  0  0  0  0  0
   -7.2900   -4.6400  -25.2750 C   0  0  0  0  0  0  0  0  0  0  0  0
   -7.2420   -3.1640  -25.5220 C   0  0  0  0  0  0  0  0  0  0  0  0
   -6.8710   -2.6750  -26.7720 C   0  0  0  0  0  0  0  0  0  0  0  0
   -6.8130   -1.3130  -27.0160 C   0  0  0  0  0  0  0  0  0  0  0  0
   -7.1180   -0.4360  -25.9810 C   0  0  0  0  0  0  0  0  0  0  0  0
   -7.0090    1.2790  -26.2670 Cl  0  0  0  0  0  0  0  0  0  0  0  0
   -7.5130   -0.9050  -24.7380 C   0  0  0  0  0  0  0  0  0  0  0  0
   -7.6160   -2.2830  -24.5120 C   0  0  0  0  0  0  0  0  0  0  0  0
   -8.0670   -2.8010  -23.1580 C   0  0  2  0  0  0  0  0  0  0  0  0
   -9.2490   -2.0320  -22.5600 C   0  0  0  0  0  0  0  0  0  0  0  0
   -8.6680   -1.1370  -21.4610 C   0  0  0  0  0  0  0  0  0  0  0  0
   -7.2860   -1.5520  -21.3160 N   0  0  0  0  0  0  0  0  0  0  0  0
   -6.5140   -0.9700  -20.2790 C   0  0  0  0  0  0  0  0  0  0  0  0
   -6.8790   -1.1900  -18.9750 C   0  0  0  0  0  0  0  0  0  0  0  0
   -6.2420   -0.6800  -17.8960 N   0  0  0  0  0  0  0  0  0  0  0  0
   -5.2380    0.1370  -18.1210 C   0  0  0  0  0  0  0  0  0  0  0  0
   -4.8130    0.5270  -19.4230 C   0  0  0  0  0  0  0  0  0  0  0  0
   -3.7750    1.4780  -19.6100 C   0  0  0  0  0  0  0  0  0  0  0  0
   -3.5410    2.0110  -20.8500 C   0  0  0  0  0  0  0  0  0  0  0  0
   -4.3020    1.5780  -21.9610 C   0  0  0  0  0  0  0  0  0  0  0  0
   -5.2500    0.5950  -21.8220 C   0  0  0  0  0  0  0  0  0  0  0  0
   -5.5130    0.0220  -20.5440 C   0  0  0  0  0  0  0  0  0  0  0  0
   -5.8270    0.2720  -22.6850 H   0  0  0  0  0  0  0  0  0  0  0  0
   -4.1310    2.0240  -22.9370 H   0  0  0  0  0  0  0  0  0  0  0  0
   -2.7760    2.7700  -20.9870 H   0  0  0  0  0  0  0  0  0  0  0  0
   -3.2040    1.7990  -18.7430 H   0  0  0  0  0  0  0  0  0  0  0  0
   -4.7230    0.5500  -17.2540 H   0  0  0  0  0  0  0  0  0  0  0  0
   -7.7390   -1.8220  -18.7540 H   0  0  0  0  0  0  0  0  0  0  0  0
   -6.9240   -2.5650  -22.1630 C   0  0  0  0  0  0  0  0  0  0  0  0
   -5.9070   -3.2390  -22.1380 O   0  0  0  0  0  0  0  0  0  0  0  0
   -8.7270   -0.0680  -21.6950 H   0  0  0  0  0  0  0  0  0  0  0  0
   -9.1900   -1.3000  -20.5270 H   0  0  0  0  0  0  0  0  0  0  0  0
   -9.7850   -1.4580  -23.3170 H   0  0  0  0  0  0  0  0  0  0  0  0
   -9.9710   -2.7360  -22.1290 H   0  0  0  0  0  0  0  0  0  0  0  0
   -8.3150   -4.3130  -23.1350 C   0  0  0  0  0  0  0  0  0  0  0  0
   -9.2520   -4.5880  -23.6400 H   0  0  0  0  0  0  0  0  0  0  0  0
   -8.3820   -4.6510  -22.0960 H   0  0  0  0  0  0  0  0  0  0  0  0
   -7.7500   -0.1870  -23.9590 H   0  0  0  0  0  0  0  0  0  0  0  0
   -6.5300   -0.9260  -27.9870 H   0  0  0  0  0  0  0  0  0  0  0  0
   -6.6290   -3.3760  -27.5700 H   0  0  0  0  0  0  0  0  0  0  0  0
   -8.2530   -5.0500  -25.6150 H   0  0  0  0  0  0  0  0  0  0  0  0
   -6.5020   -5.1370  -25.8330 H   0  0  0  0  0  0  0  0  0  0  0  0
   -6.3040   -4.5080  -23.4000 H   0  0  0  0  0  0  0  0  0  0  0  0
   -7.0290   -6.6200  -22.4950 H   0  0  0  0  0  0  0  0  0  0  0  0
   -7.9900   -6.8970  -23.9580 H   0  0  0  0  0  0  0  0  0  0  0  0
   -5.9900   -7.3690  -25.5330 N   0  0  0  0  0  0  0  0  0  0  0  0
   -4.9790   -8.1060  -26.2700 C   0  0  0  0  0  0  0  0  0  0  0  0
   -3.9900   -7.1800  -26.9520 C   0  0  1  0  0  0  0  0  0  0  0  0
   -3.0090   -7.8840  -27.9230 C   0  0  0  0  0  0  0  0  0  0  0  0
   -3.5540   -7.0170  -29.0800 C   0  0  1  0  0  0  0  0  0  0  0  0
   -4.1500   -7.7500  -30.0980 F   0  0  0  0  0  0  0  0  0  0  0  0
   -4.5780   -6.3620  -28.1330 C   0  0  0  0  0  0  0  0  0  0  0  0
   -5.5960   -6.6630  -28.4050 H   0  0  0  0  0  0  0  0  0  0  0  0
   -4.5720   -5.2670  -28.0320 H   0  0  0  0  0  0  0  0  0  0  0  0
   -2.8290   -6.3450  -29.5490 H   0  0  0  0  0  0  0  0  0  0  0  0
   -1.9430   -7.7780  -27.6860 H   0  0  0  0  0  0  0  0  0  0  0  0
   -3.2200   -8.9500  -28.0670 H   0  0  0  0  0  0  0  0  0  0  0  0
   -3.4940   -6.5690  -26.1930 H   0  0  0  0  0  0  0  0  0  0  0  0
   -5.4730   -8.7110  -27.0420 H   0  0  0  0  0  0  0  0  0  0  0  0
   -4.4510   -8.7950  -25.6050 H   0  0  0  0  0  0  0  0  0  0  0  0
   -6.9090   -7.3380  -25.9440 H   0  0  0  0  0  0  0  0  0  0  0  0
  1  2  2  0  0  0  0
  2  3  1  0  0  0  0
  2 50  1  0  0  0  0
  3  4  1  0  0  0  0
  3 48  1  0  0  0  0
  3 49  1  0  0  0  0
  4  5  1  0  0  0  0
  4 39  1  0  0  0  0
  4 47  1  1  0  0  0
  5  6  1  0  0  0  0
  5 45  1  0  0  0  0
  5 46  1  0  0  0  0
  6  7  2  0  0  0  0
  6 12  1  0  0  0  0
  7  8  1  0  0  0  0
  7 44  1  0  0  0  0
  8  9  2  0  0  0  0
  8 43  1  0  0  0  0
  9 10  1  0  0  0  0
  9 11  1  0  0  0  0
 11 12  2  0  0  0  0
 11 42  1  0  0  0  0
 13 12  1  6  0  0  0
 13 14  1  0  0  0  0
 13 33  1  0  0  0  0
 13 39  1  0  0  0  0
 14 15  1  0  0  0  0
 14 37  1  0  0  0  0
 14 38  1  0  0  0  0
 15 16  1  0  0  0  0
 15 35  1  0  0  0  0
 15 36  1  0  0  0  0
 16 17  1  0  0  0  0
 16 33  1  0  0  0  0
 17 18  2  0  0  0  0
 17 26  1  0  0  0  0
 18 19  1  0  0  0  0
 18 32  1  0  0  0  0
 19 20  2  0  0  0  0
 20 21  1  0  0  0  0
 20 31  1  0  0  0  0
 21 22  2  0  0  0  0
 21 26  1  0  0  0  0
 22 23  1  0  0  0  0
 22 30  1  0  0  0  0
 23 24  2  0  0  0  0
 23 29  1  0  0  0  0
 24 25  1  0  0  0  0
 24 28  1  0  0  0  0
 25 26  2  0  0  0  0
 25 27  1  0  0  0  0
 33 34  2  0  0  0  0
 39 40  1  0  0  0  0
 39 41  1  0  0  0  0
 50 51  1  0  0  0  0
 50 65  1  0  0  0  0
 51 52  1  0  0  0  0
 51 63  1  0  0  0  0
 51 64  1  0  0  0  0
 52 53  1  0  0  0  0
 52 56  1  0  0  0  0
 52 62  1  1  0  0  0
 53 54  1  0  0  0  0
 53 60  1  0  0  0  0
 53 61  1  0  0  0  0
 54 55  1  0  0  0  0
 54 56  1  0  0  0  0
 54 59  1  6  0  0  0
 56 57  1  0  0  0  0
 56 58  1  0  0  0  0
M  CHG  1   4   1
M  END
>  <MODEL>
       1

$$$$
