tmp_first_model_19_56.pdb
 OpenBabel08282503233D

 57 62  0  0  1  0  0  0  0  0999 V2000
   -7.4620   -3.5090  -23.8140 C   0  0  0  0  0  0  0  0  0  0  0  0
   -8.3530   -2.9150  -22.7190 C   0  0  1  0  0  0  0  0  0  0  0  0
   -7.6240   -2.7550  -21.3710 C   0  0  0  0  0  0  0  0  0  0  0  0
   -7.3600   -1.3400  -21.2710 N   0  0  0  0  0  0  0  0  0  0  0  0
   -6.5860   -0.7940  -20.2260 C   0  0  0  0  0  0  0  0  0  0  0  0
   -6.8900   -1.0680  -18.9170 C   0  0  0  0  0  0  0  0  0  0  0  0
   -6.2100   -0.5800  -17.8530 N   0  0  0  0  0  0  0  0  0  0  0  0
   -5.1820    0.1980  -18.1010 C   0  0  0  0  0  0  0  0  0  0  0  0
   -4.7300    0.5190  -19.4130 C   0  0  0  0  0  0  0  0  0  0  0  0
   -3.5870    1.3330  -19.6310 C   0  0  0  0  0  0  0  0  0  0  0  0
   -3.1550    1.5960  -20.9010 C   0  0  0  0  0  0  0  0  0  0  0  0
   -3.8440    1.0630  -22.0130 C   0  0  0  0  0  0  0  0  0  0  0  0
   -4.9700    0.3000  -21.8340 C   0  0  0  0  0  0  0  0  0  0  0  0
   -5.4430    0.0100  -20.5210 C   0  0  0  0  0  0  0  0  0  0  0  0
   -5.5130   -0.0730  -22.6960 H   0  0  0  0  0  0  0  0  0  0  0  0
   -3.4890    1.2760  -23.0190 H   0  0  0  0  0  0  0  0  0  0  0  0
   -2.2900    2.2300  -21.0700 H   0  0  0  0  0  0  0  0  0  0  0  0
   -3.0750    1.7430  -18.7650 H   0  0  0  0  0  0  0  0  0  0  0  0
   -4.6400    0.6020  -17.2450 H   0  0  0  0  0  0  0  0  0  0  0  0
   -7.7470   -1.6950  -18.6710 H   0  0  0  0  0  0  0  0  0  0  0  0
   -8.2060   -0.5730  -22.0430 C   0  0  0  0  0  0  0  0  0  0  0  0
   -8.3150    0.6280  -21.9580 O   0  0  0  0  0  0  0  0  0  0  0  0
   -8.9700   -1.5120  -23.0100 C   0  0  1  0  0  0  0  0  0  0  0  0
   -8.7930   -1.0460  -24.4820 C   0  0  0  0  0  0  0  0  0  0  0  0
   -9.4310    0.2340  -24.7350 N   0  0  0  0  0  0  0  0  0  0  0  0
   -8.7350    1.2920  -25.4460 C   0  0  0  0  0  0  0  0  0  0  0  0
   -8.1660    2.3190  -24.5000 C   0  0  0  0  0  0  0  0  0  0  0  0
   -9.0350    3.2270  -24.0380 N   0  0  0  0  0  0  0  0  0  0  0  0
   -8.5470    4.1500  -23.2230 C   0  0  0  0  0  0  0  0  0  0  0  0
   -7.2000    4.2050  -22.8900 C   0  0  0  0  0  0  0  0  0  0  0  0
   -6.4020    3.2150  -23.4280 C   0  0  0  0  0  0  0  0  0  0  0  0
   -6.8680    2.2460  -24.2180 N   0  0  0  0  0  0  0  0  0  0  0  0
   -5.3340    3.1870  -23.2320 H   0  0  0  0  0  0  0  0  0  0  0  0
   -6.8010    4.9780  -22.2420 H   0  0  0  0  0  0  0  0  0  0  0  0
   -9.2570    4.8770  -22.8370 H   0  0  0  0  0  0  0  0  0  0  0  0
   -9.4850    1.7810  -26.0720 H   0  0  0  0  0  0  0  0  0  0  0  0
   -7.9410    0.8530  -26.0570 H   0  0  0  0  0  0  0  0  0  0  0  0
  -10.6810    0.5230  -24.2840 C   0  0  0  0  0  0  0  0  0  0  0  0
  -11.3200    1.4860  -24.7000 O   0  0  0  0  0  0  0  0  0  0  0  0
  -11.2340   -0.4210  -23.2770 C   0  0  0  0  0  0  0  0  0  0  0  0
  -12.5950   -0.3190  -23.0150 C   0  0  0  0  0  0  0  0  0  0  0  0
  -13.2450   -1.2580  -22.2460 C   0  0  0  0  0  0  0  0  0  0  0  0
  -12.4690   -2.2720  -21.6890 C   0  0  0  0  0  0  0  0  0  0  0  0
  -13.0580   -3.1700  -20.8840 F   0  0  0  0  0  0  0  0  0  0  0  0
  -11.1030   -2.3590  -21.8750 C   0  0  0  0  0  0  0  0  0  0  0  0
  -10.4620   -1.4440  -22.7170 C   0  0  0  0  0  0  0  0  0  0  0  0
  -10.5750   -3.1520  -21.3520 H   0  0  0  0  0  0  0  0  0  0  0  0
  -14.3180   -1.2150  -22.1050 H   0  0  0  0  0  0  0  0  0  0  0  0
  -13.1370    0.4920  -23.4840 H   0  0  0  0  0  0  0  0  0  0  0  0
   -9.2110   -1.8260  -25.1390 H   0  0  0  0  0  0  0  0  0  0  0  0
   -7.7340   -0.9280  -24.7140 H   0  0  0  0  0  0  0  0  0  0  0  0
   -8.2640   -3.0790  -20.5430 H   0  0  0  0  0  0  0  0  0  0  0  0
   -6.6840   -3.3120  -21.3120 H   0  0  0  0  0  0  0  0  0  0  0  0
   -9.1600   -3.6420  -22.6080 H   0  0  0  0  0  0  0  0  0  0  0  0
   -7.1050   -4.4990  -23.5110 H   0  0  0  0  0  0  0  0  0  0  0  0
   -8.0360   -3.6480  -24.7350 H   0  0  0  0  0  0  0  0  0  0  0  0
   -6.5920   -2.8830  -24.0380 H   0  0  0  0  0  0  0  0  0  0  0  0
  1  2  1  0  0  0  0
  1 55  1  0  0  0  0
  1 56  1  0  0  0  0
  1 57  1  0  0  0  0
  2  3  1  0  0  0  0
  2 23  1  0  0  0  0
  2 54  1  1  0  0  0
  3  4  1  0  0  0  0
  3 52  1  0  0  0  0
  3 53  1  0  0  0  0
  4  5  1  0  0  0  0
  4 21  1  0  0  0  0
  5  6  2  0  0  0  0
  5 14  1  0  0  0  0
  6  7  1  0  0  0  0
  6 20  1  0  0  0  0
  7  8  2  0  0  0  0
  8  9  1  0  0  0  0
  8 19  1  0  0  0  0
  9 10  2  0  0  0  0
  9 14  1  0  0  0  0
 10 11  1  0  0  0  0
 10 18  1  0  0  0  0
 11 12  2  0  0  0  0
 11 17  1  0  0  0  0
 12 13  1  0  0  0  0
 12 16  1  0  0  0  0
 13 14  2  0  0  0  0
 13 15  1  0  0  0  0
 21 22  2  0  0  0  0
 23 21  1  1  0  0  0
 23 24  1  0  0  0  0
 23 46  1  0  0  0  0
 24 25  1  0  0  0  0
 24 50  1  0  0  0  0
 24 51  1  0  0  0  0
 25 26  1  0  0  0  0
 25 38  1  0  0  0  0
 26 27  1  0  0  0  0
 26 36  1  0  0  0  0
 26 37  1  0  0  0  0
 27 28  2  0  0  0  0
 27 32  1  0  0  0  0
 28 29  1  0  0  0  0
 29 30  2  0  0  0  0
 29 35  1  0  0  0  0
 30 31  1  0  0  0  0
 30 34  1  0  0  0  0
 31 32  2  0  0  0  0
 31 33  1  0  0  0  0
 38 39  2  0  0  0  0
 38 40  1  0  0  0  0
 40 41  2  0  0  0  0
 40 46  1  0  0  0  0
 41 42  1  0  0  0  0
 41 49  1  0  0  0  0
 42 43  2  0  0  0  0
 42 48  1  0  0  0  0
 43 44  1  0  0  0  0
 43 45  1  0  0  0  0
 45 46  2  0  0  0  0
 45 47  1  0  0  0  0
M  END
>  <MODEL>
       1

$$$$
