tmp_first_model_10_58.pdb
 OpenBabel08272522163D

 42 45  0  0  1  0  0  0  0  0999 V2000
   -7.3450   -5.2430  -21.5600 C   0  0  0  0  0  0  0  0  0  0  0  0
   -8.0250   -4.2290  -22.3580 N   0  0  0  0  0  0  0  0  0  0  0  0
   -9.2920   -3.6490  -21.9330 C   0  0  0  0  0  0  0  0  0  0  0  0
   -9.4160   -2.1650  -22.2850 C   0  0  1  0  0  0  0  0  0  0  0  0
   -8.6830   -1.1810  -21.3760 C   0  0  0  0  0  0  0  0  0  0  0  0
   -9.2430   -0.2110  -20.8910 O   0  0  0  0  0  0  0  0  0  0  0  0
   -7.3480   -1.4200  -21.1980 N   0  0  0  0  0  0  0  0  0  0  0  0
   -6.6200   -0.8160  -20.1590 C   0  0  0  0  0  0  0  0  0  0  0  0
   -6.9300   -1.0700  -18.8500 C   0  0  0  0  0  0  0  0  0  0  0  0
   -6.2370   -0.5800  -17.7960 N   0  0  0  0  0  0  0  0  0  0  0  0
   -5.1980    0.1740  -18.0610 C   0  0  0  0  0  0  0  0  0  0  0  0
   -4.7890    0.5290  -19.3790 C   0  0  0  0  0  0  0  0  0  0  0  0
   -3.7120    1.4170  -19.6150 C   0  0  0  0  0  0  0  0  0  0  0  0
   -3.4690    1.8840  -20.8770 C   0  0  0  0  0  0  0  0  0  0  0  0
   -4.2600    1.4580  -21.9700 C   0  0  0  0  0  0  0  0  0  0  0  0
   -5.2760    0.5530  -21.7800 C   0  0  0  0  0  0  0  0  0  0  0  0
   -5.5540    0.0710  -20.4710 C   0  0  0  0  0  0  0  0  0  0  0  0
   -5.8740    0.2140  -22.6250 H   0  0  0  0  0  0  0  0  0  0  0  0
   -4.0970    1.9050  -22.9470 H   0  0  0  0  0  0  0  0  0  0  0  0
   -2.6850    2.6190  -21.0430 H   0  0  0  0  0  0  0  0  0  0  0  0
   -3.1210    1.7430  -18.7660 H   0  0  0  0  0  0  0  0  0  0  0  0
   -4.6490    0.5700  -17.2070 H   0  0  0  0  0  0  0  0  0  0  0  0
   -7.7770   -1.7110  -18.6180 H   0  0  0  0  0  0  0  0  0  0  0  0
   -6.8760   -2.1410  -21.7260 H   0  0  0  0  0  0  0  0  0  0  0  0
   -9.0070   -1.9600  -23.7160 C   0  0  0  0  0  0  0  0  0  0  0  0
   -9.5120   -0.8630  -24.4040 C   0  0  0  0  0  0  0  0  0  0  0  0
   -9.0780   -0.6140  -25.6950 C   0  0  0  0  0  0  0  0  0  0  0  0
   -9.6950    0.7780  -26.5270 Cl  0  0  0  0  0  0  0  0  0  0  0  0
   -8.1510   -1.4450  -26.3240 C   0  0  0  0  0  0  0  0  0  0  0  0
   -7.6690   -2.5470  -25.6400 C   0  0  0  0  0  0  0  0  0  0  0  0
   -8.1000   -2.8070  -24.3390 C   0  0  0  0  0  0  0  0  0  0  0  0
   -7.5210   -3.9760  -23.6040 C   0  0  0  0  0  0  0  0  0  0  0  0
   -6.6130   -4.6470  -24.0810 O   0  0  0  0  0  0  0  0  0  0  0  0
   -6.9450   -3.2170  -26.0900 H   0  0  0  0  0  0  0  0  0  0  0  0
   -7.8000   -1.2210  -27.3250 H   0  0  0  0  0  0  0  0  0  0  0  0
  -10.2190   -0.2080  -23.9070 H   0  0  0  0  0  0  0  0  0  0  0  0
  -10.4560   -1.8690  -22.1520 H   0  0  0  0  0  0  0  0  0  0  0  0
  -10.1440   -4.1440  -22.4200 H   0  0  0  0  0  0  0  0  0  0  0  0
   -9.3960   -3.8010  -20.8560 H   0  0  0  0  0  0  0  0  0  0  0  0
   -7.9750   -5.5160  -20.7140 H   0  0  0  0  0  0  0  0  0  0  0  0
   -7.1620   -6.1510  -22.1460 H   0  0  0  0  0  0  0  0  0  0  0  0
   -6.3830   -4.8670  -21.1860 H   0  0  0  0  0  0  0  0  0  0  0  0
  1  2  1  0  0  0  0
  1 40  1  0  0  0  0
  1 41  1  0  0  0  0
  1 42  1  0  0  0  0
  2  3  1  0  0  0  0
  2 32  1  0  0  0  0
  3  4  1  0  0  0  0
  3 38  1  0  0  0  0
  3 39  1  0  0  0  0
  4  5  1  0  0  0  0
  4 25  1  0  0  0  0
  4 37  1  1  0  0  0
  5  6  2  0  0  0  0
  5  7  1  0  0  0  0
  7  8  1  0  0  0  0
  7 24  1  0  0  0  0
  8  9  2  0  0  0  0
  8 17  1  0  0  0  0
  9 10  1  0  0  0  0
  9 23  1  0  0  0  0
 10 11  2  0  0  0  0
 11 12  1  0  0  0  0
 11 22  1  0  0  0  0
 12 13  2  0  0  0  0
 12 17  1  0  0  0  0
 13 14  1  0  0  0  0
 13 21  1  0  0  0  0
 14 15  2  0  0  0  0
 14 20  1  0  0  0  0
 15 16  1  0  0  0  0
 15 19  1  0  0  0  0
 16 17  2  0  0  0  0
 16 18  1  0  0  0  0
 25 26  2  0  0  0  0
 25 31  1  0  0  0  0
 26 27  1  0  0  0  0
 26 36  1  0  0  0  0
 27 28  1  0  0  0  0
 27 29  2  0  0  0  0
 29 30  1  0  0  0  0
 29 35  1  0  0  0  0
 30 31  2  0  0  0  0
 30 34  1  0  0  0  0
 31 32  1  0  0  0  0
 32 33  2  0  0  0  0
M  END
>  <MODEL>
       1

$$$$
