tmp_first_model_6_67.pdb
 OpenBabel08272519583D

 58 63  0  0  1  0  0  0  0  0999 V2000
   -5.6120    4.1690  -22.2280 C   0  0  0  0  0  0  0  0  0  0  0  0
   -6.6870    3.5600  -23.0720 C   0  0  0  0  0  0  0  0  0  0  0  0
   -6.6080    2.4340  -23.9440 C   0  0  0  0  0  0  0  0  0  0  0  0
   -7.8750    2.2920  -24.4110 C   0  0  0  0  0  0  0  0  0  0  0  0
   -8.5990    1.3900  -25.3620 C   0  0  0  0  0  0  0  0  0  0  0  0
   -9.3450    0.3290  -24.7010 N   0  0  0  0  0  0  0  0  0  0  0  0
   -8.7470   -0.9750  -24.4790 C   0  0  0  0  0  0  0  0  0  0  0  0
   -8.9750   -1.4610  -23.0240 C   0  0  2  0  0  0  0  0  0  0  0  0
   -8.2460   -0.5380  -22.0120 C   0  0  0  0  0  0  0  0  0  0  0  0
   -8.4170    0.6490  -21.8490 O   0  0  0  0  0  0  0  0  0  0  0  0
   -7.3730   -1.3110  -21.2700 N   0  0  0  0  0  0  0  0  0  0  0  0
   -6.6080   -0.7690  -20.2130 C   0  0  0  0  0  0  0  0  0  0  0  0
   -6.8950   -1.0760  -18.9070 C   0  0  0  0  0  0  0  0  0  0  0  0
   -6.2210   -0.5950  -17.8360 N   0  0  0  0  0  0  0  0  0  0  0  0
   -5.2020    0.1970  -18.0750 C   0  0  0  0  0  0  0  0  0  0  0  0
   -4.7720    0.5710  -19.3800 C   0  0  0  0  0  0  0  0  0  0  0  0
   -3.6360    1.3980  -19.5880 C   0  0  0  0  0  0  0  0  0  0  0  0
   -3.2360    1.7180  -20.8580 C   0  0  0  0  0  0  0  0  0  0  0  0
   -3.9640    1.2490  -21.9700 C   0  0  0  0  0  0  0  0  0  0  0  0
   -5.0620    0.4420  -21.7950 C   0  0  0  0  0  0  0  0  0  0  0  0
   -5.4980    0.0880  -20.4890 C   0  0  0  0  0  0  0  0  0  0  0  0
   -5.5940    0.0430  -22.6510 H   0  0  0  0  0  0  0  0  0  0  0  0
   -3.6300    1.5110  -22.9720 H   0  0  0  0  0  0  0  0  0  0  0  0
   -2.3600    2.3420  -21.0140 H   0  0  0  0  0  0  0  0  0  0  0  0
   -3.0960    1.7590  -18.7190 H   0  0  0  0  0  0  0  0  0  0  0  0
   -4.6600    0.5840  -17.2130 H   0  0  0  0  0  0  0  0  0  0  0  0
   -7.7330   -1.7320  -18.6760 H   0  0  0  0  0  0  0  0  0  0  0  0
   -7.6620   -2.7270  -21.3740 C   0  0  0  0  0  0  0  0  0  0  0  0
   -8.3570   -2.8700  -22.7440 C   0  0  2  0  0  0  0  0  0  0  0  0
   -7.4300   -3.4400  -23.8240 C   0  0  0  0  0  0  0  0  0  0  0  0
   -7.0880   -4.4350  -23.5210 H   0  0  0  0  0  0  0  0  0  0  0  0
   -6.5510   -2.8120  -24.0100 H   0  0  0  0  0  0  0  0  0  0  0  0
   -7.9750   -3.5570  -24.7660 H   0  0  0  0  0  0  0  0  0  0  0  0
   -9.1690   -3.5960  -22.6690 H   0  0  0  0  0  0  0  0  0  0  0  0
   -8.3410   -3.0400  -20.5670 H   0  0  0  0  0  0  0  0  0  0  0  0
   -6.7350   -3.3050  -21.2970 H   0  0  0  0  0  0  0  0  0  0  0  0
  -10.4810   -1.3930  -22.7750 C   0  0  0  0  0  0  0  0  0  0  0  0
  -11.1410   -2.3250  -21.9620 C   0  0  0  0  0  0  0  0  0  0  0  0
  -12.5050   -2.2340  -21.7950 C   0  0  0  0  0  0  0  0  0  0  0  0
  -13.1240   -3.1720  -21.0580 F   0  0  0  0  0  0  0  0  0  0  0  0
  -13.2660   -1.2050  -22.3370 C   0  0  0  0  0  0  0  0  0  0  0  0
  -12.6080   -0.2480  -23.0880 C   0  0  0  0  0  0  0  0  0  0  0  0
  -11.2400   -0.3630  -23.3490 C   0  0  0  0  0  0  0  0  0  0  0  0
  -10.6190    0.6180  -24.2980 C   0  0  0  0  0  0  0  0  0  0  0  0
  -11.2360    1.5920  -24.7070 O   0  0  0  0  0  0  0  0  0  0  0  0
  -13.1410    0.5950  -23.5150 H   0  0  0  0  0  0  0  0  0  0  0  0
  -14.3380   -1.1870  -22.1810 H   0  0  0  0  0  0  0  0  0  0  0  0
  -10.6350   -3.1490  -21.4730 H   0  0  0  0  0  0  0  0  0  0  0  0
   -7.6800   -0.8920  -24.6930 H   0  0  0  0  0  0  0  0  0  0  0  0
   -9.1820   -1.7290  -25.1580 H   0  0  0  0  0  0  0  0  0  0  0  0
   -9.3220    2.0430  -25.8490 H   0  0  0  0  0  0  0  0  0  0  0  0
   -7.9200    0.9460  -26.0950 H   0  0  0  0  0  0  0  0  0  0  0  0
   -8.6510    3.2450  -23.8790 O   0  0  0  0  0  0  0  0  0  0  0  0
   -7.9080    4.0420  -23.0500 N   0  0  0  0  0  0  0  0  0  0  0  0
   -5.7500    1.8100  -24.1210 H   0  0  0  0  0  0  0  0  0  0  0  0
   -5.5230    3.6230  -21.2800 H   0  0  0  0  0  0  0  0  0  0  0  0
   -4.6420    4.0880  -22.7280 H   0  0  0  0  0  0  0  0  0  0  0  0
   -5.8310    5.2200  -22.0240 H   0  0  0  0  0  0  0  0  0  0  0  0
  1  2  1  0  0  0  0
  1 56  1  0  0  0  0
  1 57  1  0  0  0  0
  1 58  1  0  0  0  0
  2  3  1  0  0  0  0
  2 54  2  0  0  0  0
  3  4  2  0  0  0  0
  3 55  1  0  0  0  0
  4  5  1  0  0  0  0
  4 53  1  0  0  0  0
  5  6  1  0  0  0  0
  5 51  1  0  0  0  0
  5 52  1  0  0  0  0
  6  7  1  0  0  0  0
  6 44  1  0  0  0  0
  7  8  1  0  0  0  0
  7 49  1  0  0  0  0
  7 50  1  0  0  0  0
  8  9  1  1  0  0  0
  8 29  1  0  0  0  0
  8 37  1  0  0  0  0
  9 10  2  0  0  0  0
  9 11  1  0  0  0  0
 11 12  1  0  0  0  0
 11 28  1  0  0  0  0
 12 13  2  0  0  0  0
 12 21  1  0  0  0  0
 13 14  1  0  0  0  0
 13 27  1  0  0  0  0
 14 15  2  0  0  0  0
 15 16  1  0  0  0  0
 15 26  1  0  0  0  0
 16 17  2  0  0  0  0
 16 21  1  0  0  0  0
 17 18  1  0  0  0  0
 17 25  1  0  0  0  0
 18 19  2  0  0  0  0
 18 24  1  0  0  0  0
 19 20  1  0  0  0  0
 19 23  1  0  0  0  0
 20 21  2  0  0  0  0
 20 22  1  0  0  0  0
 28 29  1  0  0  0  0
 28 35  1  0  0  0  0
 28 36  1  0  0  0  0
 29 30  1  0  0  0  0
 29 34  1  1  0  0  0
 30 31  1  0  0  0  0
 30 32  1  0  0  0  0
 30 33  1  0  0  0  0
 37 38  2  0  0  0  0
 37 43  1  0  0  0  0
 38 39  1  0  0  0  0
 38 48  1  0  0  0  0
 39 40  1  0  0  0  0
 39 41  2  0  0  0  0
 41 42  1  0  0  0  0
 41 47  1  0  0  0  0
 42 43  2  0  0  0  0
 42 46  1  0  0  0  0
 43 44  1  0  0  0  0
 44 45  2  0  0  0  0
 53 54  1  0  0  0  0
M  END
>  <MODEL>
       1

$$$$
