tmp_first_model_14_74.pdb
 OpenBabel08282500413D

 43 47  0  0  1  0  0  0  0  0999 V2000
   -9.4270   -0.4500  -20.9910 O   0  0  0  0  0  0  0  0  0  0  0  0
   -8.7460   -1.3630  -21.3820 C   0  0  0  0  0  0  0  0  0  0  0  0
   -9.1380   -2.4530  -22.1120 N   0  0  0  0  0  0  0  0  0  0  0  0
   -8.0410   -3.1480  -22.7390 C   0  0  1  0  0  0  0  0  0  0  0  0
   -8.1060   -4.6900  -22.7150 C   0  0  0  0  0  0  0  0  0  0  0  0
   -8.2250   -4.7220  -24.2730 C   0  0  2  0  0  0  0  0  0  0  0  0
   -7.1750   -5.5200  -24.9820 C   0  0  0  0  0  0  0  0  0  0  0  0
   -5.8190   -5.2750  -24.7370 C   0  0  0  0  0  0  0  0  0  0  0  0
   -4.8270   -6.0070  -25.3790 C   0  0  0  0  0  0  0  0  0  0  0  0
   -5.1760   -7.0050  -26.2870 C   0  0  0  0  0  0  0  0  0  0  0  0
   -6.5150   -7.2570  -26.5500 C   0  0  0  0  0  0  0  0  0  0  0  0
   -7.4960   -6.5270  -25.8920 C   0  0  0  0  0  0  0  0  0  0  0  0
   -9.1650   -6.9160  -26.2470 Cl  0  0  0  0  0  0  0  0  0  0  0  0
   -6.8150   -8.0000  -27.2780 H   0  0  0  0  0  0  0  0  0  0  0  0
   -4.4100   -7.5840  -26.7960 H   0  0  0  0  0  0  0  0  0  0  0  0
   -3.7820   -5.7930  -25.1730 H   0  0  0  0  0  0  0  0  0  0  0  0
   -5.5480   -4.4930  -24.0250 H   0  0  0  0  0  0  0  0  0  0  0  0
   -8.0360   -3.1700  -24.2970 C   0  0  0  0  0  0  0  0  0  0  0  0
   -8.8570   -2.6030  -24.7510 H   0  0  0  0  0  0  0  0  0  0  0  0
   -7.0980   -2.8280  -24.7560 H   0  0  0  0  0  0  0  0  0  0  0  0
   -9.2250   -5.0190  -24.6020 H   0  0  0  0  0  0  0  0  0  0  0  0
   -8.9690   -5.0690  -22.1620 H   0  0  0  0  0  0  0  0  0  0  0  0
   -7.1940   -5.1510  -22.3160 H   0  0  0  0  0  0  0  0  0  0  0  0
   -6.8400   -2.5170  -22.0540 C   0  0  0  0  0  0  0  0  0  0  0  0
   -5.6790   -2.8080  -22.2300 O   0  0  0  0  0  0  0  0  0  0  0  0
   -7.3400   -1.5150  -21.2110 N   0  0  0  0  0  0  0  0  0  0  0  0
   -6.5830   -0.8560  -20.1940 C   0  0  0  0  0  0  0  0  0  0  0  0
   -6.9130   -1.0470  -18.8760 C   0  0  0  0  0  0  0  0  0  0  0  0
   -6.2270   -0.5130  -17.8400 N   0  0  0  0  0  0  0  0  0  0  0  0
   -5.1800    0.2200  -18.1070 C   0  0  0  0  0  0  0  0  0  0  0  0
   -4.7410    0.5250  -19.4200 C   0  0  0  0  0  0  0  0  0  0  0  0
   -3.6100    1.3550  -19.6440 C   0  0  0  0  0  0  0  0  0  0  0  0
   -3.2220    1.6600  -20.9170 C   0  0  0  0  0  0  0  0  0  0  0  0
   -3.9540    1.1460  -22.0120 C   0  0  0  0  0  0  0  0  0  0  0  0
   -5.0480    0.3380  -21.8200 C   0  0  0  0  0  0  0  0  0  0  0  0
   -5.4660   -0.0120  -20.5060 C   0  0  0  0  0  0  0  0  0  0  0  0
   -5.5990   -0.0500  -22.6700 H   0  0  0  0  0  0  0  0  0  0  0  0
   -3.6470    1.3990  -23.0200 H   0  0  0  0  0  0  0  0  0  0  0  0
   -2.3660    2.3090  -21.0940 H   0  0  0  0  0  0  0  0  0  0  0  0
   -3.0810    1.7540  -18.7830 H   0  0  0  0  0  0  0  0  0  0  0  0
   -4.6270    0.6130  -17.2560 H   0  0  0  0  0  0  0  0  0  0  0  0
   -7.7530   -1.6780  -18.5990 H   0  0  0  0  0  0  0  0  0  0  0  0
  -10.1010   -2.6040  -22.3680 H   0  0  0  0  0  0  0  0  0  0  0  0
  1  2  2  0  0  0  0
  2  3  1  0  0  0  0
  2 26  1  0  0  0  0
  3  4  1  0  0  0  0
  3 43  1  0  0  0  0
  4  5  1  0  0  0  0
  4 18  1  0  0  0  0
  4 24  1  1  0  0  0
  5  6  1  0  0  0  0
  5 22  1  0  0  0  0
  5 23  1  0  0  0  0
  6  7  1  0  0  0  0
  6 18  1  0  0  0  0
  6 21  1  6  0  0  0
  7  8  2  0  0  0  0
  7 12  1  0  0  0  0
  8  9  1  0  0  0  0
  8 17  1  0  0  0  0
  9 10  2  0  0  0  0
  9 16  1  0  0  0  0
 10 11  1  0  0  0  0
 10 15  1  0  0  0  0
 11 12  2  0  0  0  0
 11 14  1  0  0  0  0
 12 13  1  0  0  0  0
 18 19  1  0  0  0  0
 18 20  1  0  0  0  0
 24 25  2  0  0  0  0
 24 26  1  0  0  0  0
 26 27  1  0  0  0  0
 27 28  2  0  0  0  0
 27 36  1  0  0  0  0
 28 29  1  0  0  0  0
 28 42  1  0  0  0  0
 29 30  2  0  0  0  0
 30 31  1  0  0  0  0
 30 41  1  0  0  0  0
 31 32  2  0  0  0  0
 31 36  1  0  0  0  0
 32 33  1  0  0  0  0
 32 40  1  0  0  0  0
 33 34  2  0  0  0  0
 33 39  1  0  0  0  0
 34 35  1  0  0  0  0
 34 38  1  0  0  0  0
 35 36  2  0  0  0  0
 35 37  1  0  0  0  0
M  END
>  <MODEL>
       1

$$$$
