tmp_first_model_5_55.pdb
 OpenBabel08272519233D

 61 66  0  0  1  0  0  0  0  0999 V2000
   -7.0020   -5.4840  -25.0590 C   0  0  0  0  0  0  0  0  0  0  0  0
   -7.3370   -4.8120  -23.8750 O   0  0  0  0  0  0  0  0  0  0  0  0
   -7.9890   -3.5950  -24.1230 C   0  0  0  0  0  0  0  0  0  0  0  0
   -8.2620   -2.9460  -22.7800 C   0  0  1  0  0  0  0  0  0  0  0  0
   -6.9720   -2.6200  -22.0140 C   0  0  0  0  0  0  0  0  0  0  0  0
   -7.3660   -1.4760  -21.2180 N   0  0  0  0  0  0  0  0  0  0  0  0
   -6.5330   -0.9510  -20.2080 C   0  0  0  0  0  0  0  0  0  0  0  0
   -6.8300   -1.1390  -18.8820 C   0  0  0  0  0  0  0  0  0  0  0  0
   -5.9730   -0.8490  -17.8670 N   0  0  0  0  0  0  0  0  0  0  0  0
   -4.8050   -0.3470  -18.2000 C   0  0  0  0  0  0  0  0  0  0  0  0
   -4.4190   -0.0240  -19.5360 C   0  0  0  0  0  0  0  0  0  0  0  0
   -3.2520    0.7390  -19.8210 C   0  0  0  0  0  0  0  0  0  0  0  0
   -3.1440    1.4120  -21.0050 C   0  0  0  0  0  0  0  0  0  0  0  0
   -4.0530    1.1430  -22.0560 C   0  0  0  0  0  0  0  0  0  0  0  0
   -5.0600    0.2310  -21.8710 C   0  0  0  0  0  0  0  0  0  0  0  0
   -5.3380   -0.2650  -20.5710 C   0  0  0  0  0  0  0  0  0  0  0  0
   -5.7120   -0.0580  -22.6870 H   0  0  0  0  0  0  0  0  0  0  0  0
   -3.9150    1.6220  -23.0200 H   0  0  0  0  0  0  0  0  0  0  0  0
   -2.3030    2.0730  -21.1870 H   0  0  0  0  0  0  0  0  0  0  0  0
   -2.5280    0.8740  -19.0280 H   0  0  0  0  0  0  0  0  0  0  0  0
   -4.1180   -0.0960  -17.3910 H   0  0  0  0  0  0  0  0  0  0  0  0
   -7.8030   -1.5340  -18.5950 H   0  0  0  0  0  0  0  0  0  0  0  0
   -8.5510   -0.8790  -21.5870 C   0  0  0  0  0  0  0  0  0  0  0  0
   -9.0320    0.0840  -21.0260 O   0  0  0  0  0  0  0  0  0  0  0  0
   -9.0980   -1.6340  -22.8180 C   0  0  1  0  0  0  0  0  0  0  0  0
   -8.8150   -0.8190  -24.1050 C   0  0  0  0  0  0  0  0  0  0  0  0
   -9.6580    0.3590  -24.1810 N   0  0  0  0  0  0  0  0  0  0  0  0
   -9.0580    1.6020  -24.6450 C   0  0  0  0  0  0  0  0  0  0  0  0
   -8.2160    2.2670  -23.6050 C   0  0  0  0  0  0  0  0  0  0  0  0
   -6.8700    2.3430  -23.4680 C   0  0  0  0  0  0  0  0  0  0  0  0
   -6.6030    3.0530  -22.3150 N   0  3  0  0  0  0  0  0  0  0  0  0
   -7.7640    3.4060  -21.7610 C   0  0  0  0  0  0  0  0  0  0  0  0
   -8.7630    2.9400  -22.5260 N   0  0  0  0  0  0  0  0  0  0  0  0
   -9.7430    2.9100  -22.2550 H   0  0  0  0  0  0  0  0  0  0  0  0
   -7.8960    4.0320  -20.8990 H   0  0  0  0  0  0  0  0  0  0  0  0
   -5.6930    3.0890  -21.8640 H   0  0  0  0  0  0  0  0  0  0  0  0
   -6.0520    1.9440  -24.0510 H   0  0  0  0  0  0  0  0  0  0  0  0
   -9.8800    2.2500  -24.9630 H   0  0  0  0  0  0  0  0  0  0  0  0
   -8.4470    1.3960  -25.5330 H   0  0  0  0  0  0  0  0  0  0  0  0
  -11.0190    0.2310  -24.0980 C   0  0  0  0  0  0  0  0  0  0  0  0
  -11.7980    1.0900  -24.4920 O   0  0  0  0  0  0  0  0  0  0  0  0
  -11.4870   -1.0480  -23.4620 C   0  0  0  0  0  0  0  0  0  0  0  0
  -12.8320   -1.4050  -23.5490 C   0  0  0  0  0  0  0  0  0  0  0  0
  -13.3460   -2.4160  -22.7580 C   0  0  0  0  0  0  0  0  0  0  0  0
  -12.4910   -3.0320  -21.8440 C   0  0  0  0  0  0  0  0  0  0  0  0
  -13.1600   -4.0630  -20.6180 Cl  0  0  0  0  0  0  0  0  0  0  0  0
  -11.1280   -2.8020  -21.8630 C   0  0  0  0  0  0  0  0  0  0  0  0
  -10.5940   -1.8370  -22.7240 C   0  0  0  0  0  0  0  0  0  0  0  0
  -10.4890   -3.3930  -21.2150 H   0  0  0  0  0  0  0  0  0  0  0  0
  -14.3990   -2.6820  -22.7820 H   0  0  0  0  0  0  0  0  0  0  0  0
  -13.4800   -0.8340  -24.2040 H   0  0  0  0  0  0  0  0  0  0  0  0
   -8.9960   -1.4540  -24.9850 H   0  0  0  0  0  0  0  0  0  0  0  0
   -7.7660   -0.5080  -24.1280 H   0  0  0  0  0  0  0  0  0  0  0  0
   -6.1300   -2.3910  -22.6870 H   0  0  0  0  0  0  0  0  0  0  0  0
   -6.6510   -3.4500  -21.3750 H   0  0  0  0  0  0  0  0  0  0  0  0
   -8.8070   -3.6800  -22.1820 H   0  0  0  0  0  0  0  0  0  0  0  0
   -8.9350   -3.7530  -24.6710 H   0  0  0  0  0  0  0  0  0  0  0  0
   -7.3520   -2.9390  -24.7460 H   0  0  0  0  0  0  0  0  0  0  0  0
   -6.5360   -6.4300  -24.7770 H   0  0  0  0  0  0  0  0  0  0  0  0
   -7.8940   -5.6900  -25.6710 H   0  0  0  0  0  0  0  0  0  0  0  0
   -6.2930   -4.9010  -25.6680 H   0  0  0  0  0  0  0  0  0  0  0  0
  1  2  1  0  0  0  0
  1 59  1  0  0  0  0
  1 60  1  0  0  0  0
  1 61  1  0  0  0  0
  2  3  1  0  0  0  0
  3  4  1  0  0  0  0
  3 57  1  0  0  0  0
  3 58  1  0  0  0  0
  4  5  1  0  0  0  0
  4 25  1  0  0  0  0
  4 56  1  1  0  0  0
  5  6  1  0  0  0  0
  5 54  1  0  0  0  0
  5 55  1  0  0  0  0
  6  7  1  0  0  0  0
  6 23  1  0  0  0  0
  7  8  2  0  0  0  0
  7 16  1  0  0  0  0
  8  9  1  0  0  0  0
  8 22  1  0  0  0  0
  9 10  2  0  0  0  0
 10 11  1  0  0  0  0
 10 21  1  0  0  0  0
 11 12  2  0  0  0  0
 11 16  1  0  0  0  0
 12 13  1  0  0  0  0
 12 20  1  0  0  0  0
 13 14  2  0  0  0  0
 13 19  1  0  0  0  0
 14 15  1  0  0  0  0
 14 18  1  0  0  0  0
 15 16  2  0  0  0  0
 15 17  1  0  0  0  0
 23 24  2  0  0  0  0
 25 23  1  1  0  0  0
 25 26  1  0  0  0  0
 25 48  1  0  0  0  0
 26 27  1  0  0  0  0
 26 52  1  0  0  0  0
 26 53  1  0  0  0  0
 27 28  1  0  0  0  0
 27 40  1  0  0  0  0
 28 29  1  0  0  0  0
 28 38  1  0  0  0  0
 28 39  1  0  0  0  0
 29 30  2  0  0  0  0
 29 33  1  0  0  0  0
 30 31  1  0  0  0  0
 30 37  1  0  0  0  0
 31 32  2  0  0  0  0
 31 36  1  0  0  0  0
 32 33  1  0  0  0  0
 32 35  1  0  0  0  0
 33 34  1  0  0  0  0
 40 41  2  0  0  0  0
 40 42  1  0  0  0  0
 42 43  2  0  0  0  0
 42 48  1  0  0  0  0
 43 44  1  0  0  0  0
 43 51  1  0  0  0  0
 44 45  2  0  0  0  0
 44 50  1  0  0  0  0
 45 46  1  0  0  0  0
 45 47  1  0  0  0  0
 47 48  2  0  0  0  0
 47 49  1  0  0  0  0
M  CHG  1  31   1
M  END
>  <MODEL>
       1

$$$$
