tmp_first_model_19_45.pdb
 OpenBabel08282503233D

 66 71  0  0  1  0  0  0  0  0999 V2000
   -7.4590    3.3740  -21.7990 C   0  0  0  0  0  0  0  0  0  0  0  0
   -8.3270    2.8830  -22.8500 N   0  0  0  0  0  0  0  0  0  0  0  0
   -7.7700    2.1830  -23.8750 C   0  0  0  0  0  0  0  0  0  0  0  0
   -6.5640    2.0560  -24.0070 O   0  0  0  0  0  0  0  0  0  0  0  0
   -8.7480    1.5750  -24.8750 C   0  0  0  0  0  0  0  0  0  0  0  0
   -9.4390    0.4280  -24.3350 N   0  0  0  0  0  0  0  0  0  0  0  0
   -8.7010   -0.8070  -24.1710 C   0  0  0  0  0  0  0  0  0  0  0  0
   -9.0740   -1.5310  -22.8610 C   0  0  2  0  0  0  0  0  0  0  0  0
   -8.5370   -0.7520  -21.6420 C   0  0  0  0  0  0  0  0  0  0  0  0
   -9.0110    0.2420  -21.1370 O   0  0  0  0  0  0  0  0  0  0  0  0
   -7.3960   -1.3800  -21.2010 N   0  0  0  0  0  0  0  0  0  0  0  0
   -6.5980   -0.8140  -20.1800 C   0  0  0  0  0  0  0  0  0  0  0  0
   -6.9170   -1.0500  -18.8670 C   0  0  0  0  0  0  0  0  0  0  0  0
   -6.2160   -0.5640  -17.8160 N   0  0  0  0  0  0  0  0  0  0  0  0
   -5.1810    0.1990  -18.0810 C   0  0  0  0  0  0  0  0  0  0  0  0
   -4.7390    0.5170  -19.3960 C   0  0  0  0  0  0  0  0  0  0  0  0
   -3.6120    1.3460  -19.6410 C   0  0  0  0  0  0  0  0  0  0  0  0
   -3.2290    1.6470  -20.9200 C   0  0  0  0  0  0  0  0  0  0  0  0
   -3.9550    1.1350  -22.0210 C   0  0  0  0  0  0  0  0  0  0  0  0
   -5.0500    0.3300  -21.8130 C   0  0  0  0  0  0  0  0  0  0  0  0
   -5.4660   -0.0010  -20.4940 C   0  0  0  0  0  0  0  0  0  0  0  0
   -5.6100   -0.0400  -22.6670 H   0  0  0  0  0  0  0  0  0  0  0  0
   -3.6580    1.3880  -23.0350 H   0  0  0  0  0  0  0  0  0  0  0  0
   -2.3720    2.2940  -21.0960 H   0  0  0  0  0  0  0  0  0  0  0  0
   -3.0780    1.7510  -18.7860 H   0  0  0  0  0  0  0  0  0  0  0  0
   -4.6230    0.5990  -17.2340 H   0  0  0  0  0  0  0  0  0  0  0  0
   -7.7840   -1.6640  -18.6260 H   0  0  0  0  0  0  0  0  0  0  0  0
   -7.0480   -2.5740  -21.9360 C   0  0  0  0  0  0  0  0  0  0  0  0
   -8.3190   -2.8900  -22.7350 C   0  0  2  0  0  0  0  0  0  0  0  0
   -8.0170   -3.6670  -24.0330 C   0  0  0  0  0  0  0  0  0  0  0  0
   -7.4460   -5.0460  -23.7830 C   0  0  0  0  0  0  0  0  0  0  0  0
   -6.0720   -5.2980  -23.7660 C   0  0  0  0  0  0  0  0  0  0  0  0
   -5.5880   -6.5740  -23.4870 C   0  0  0  0  0  0  0  0  0  0  0  0
   -6.4710   -7.6140  -23.2140 C   0  0  0  0  0  0  0  0  0  0  0  0
   -7.8410   -7.3770  -23.2340 C   0  0  0  0  0  0  0  0  0  0  0  0
   -8.3170   -6.1040  -23.5250 C   0  0  0  0  0  0  0  0  0  0  0  0
   -9.3830   -5.9080  -23.5780 H   0  0  0  0  0  0  0  0  0  0  0  0
   -8.5400   -8.1840  -23.0330 H   0  0  0  0  0  0  0  0  0  0  0  0
   -6.0890   -8.6060  -22.9880 H   0  0  0  0  0  0  0  0  0  0  0  0
   -4.5180   -6.7630  -23.4920 H   0  0  0  0  0  0  0  0  0  0  0  0
   -5.3710   -4.4940  -23.9840 H   0  0  0  0  0  0  0  0  0  0  0  0
   -8.9440   -3.7620  -24.6150 H   0  0  0  0  0  0  0  0  0  0  0  0
   -7.3170   -3.0850  -24.6470 H   0  0  0  0  0  0  0  0  0  0  0  0
   -8.9500   -3.5330  -22.1180 H   0  0  0  0  0  0  0  0  0  0  0  0
   -6.7750   -3.3880  -21.2560 H   0  0  0  0  0  0  0  0  0  0  0  0
   -6.1950   -2.3950  -22.6070 H   0  0  0  0  0  0  0  0  0  0  0  0
  -10.5850   -1.6090  -22.7860 C   0  0  0  0  0  0  0  0  0  0  0  0
  -11.2090   -2.5350  -21.9450 C   0  0  0  0  0  0  0  0  0  0  0  0
  -12.5890   -2.5640  -21.8530 C   0  0  0  0  0  0  0  0  0  0  0  0
  -13.3320   -3.7000  -20.7600 Cl  0  0  0  0  0  0  0  0  0  0  0  0
  -13.3940   -1.6910  -22.5880 C   0  0  0  0  0  0  0  0  0  0  0  0
  -12.7840   -0.7380  -23.3810 C   0  0  0  0  0  0  0  0  0  0  0  0
  -11.3940   -0.6740  -23.4470 C   0  0  0  0  0  0  0  0  0  0  0  0
  -10.7940    0.4840  -24.1750 C   0  0  0  0  0  0  0  0  0  0  0  0
  -11.4710    1.4270  -24.5680 O   0  0  0  0  0  0  0  0  0  0  0  0
  -13.3570   -0.0080  -23.9450 H   0  0  0  0  0  0  0  0  0  0  0  0
  -14.4720   -1.7550  -22.5020 H   0  0  0  0  0  0  0  0  0  0  0  0
  -10.6250   -3.2230  -21.3420 H   0  0  0  0  0  0  0  0  0  0  0  0
   -7.6350   -0.5660  -24.1860 H   0  0  0  0  0  0  0  0  0  0  0  0
   -8.9230   -1.4760  -25.0100 H   0  0  0  0  0  0  0  0  0  0  0  0
   -8.1600    1.2940  -25.7530 H   0  0  0  0  0  0  0  0  0  0  0  0
   -9.5270    2.2900  -25.1450 H   0  0  0  0  0  0  0  0  0  0  0  0
   -9.2940    2.7190  -22.6160 H   0  0  0  0  0  0  0  0  0  0  0  0
   -8.0180    3.9810  -21.0840 H   0  0  0  0  0  0  0  0  0  0  0  0
   -6.6830    3.9990  -22.2370 H   0  0  0  0  0  0  0  0  0  0  0  0
   -6.9580    2.5460  -21.2820 H   0  0  0  0  0  0  0  0  0  0  0  0
  1  2  1  0  0  0  0
  1 64  1  0  0  0  0
  1 65  1  0  0  0  0
  1 66  1  0  0  0  0
  2  3  1  0  0  0  0
  2 63  1  0  0  0  0
  3  4  2  0  0  0  0
  3  5  1  0  0  0  0
  5  6  1  0  0  0  0
  5 61  1  0  0  0  0
  5 62  1  0  0  0  0
  6  7  1  0  0  0  0
  6 54  1  0  0  0  0
  7  8  1  0  0  0  0
  7 59  1  0  0  0  0
  7 60  1  0  0  0  0
  8  9  1  1  0  0  0
  8 29  1  0  0  0  0
  8 47  1  0  0  0  0
  9 10  2  0  0  0  0
  9 11  1  0  0  0  0
 11 12  1  0  0  0  0
 11 28  1  0  0  0  0
 12 13  2  0  0  0  0
 12 21  1  0  0  0  0
 13 14  1  0  0  0  0
 13 27  1  0  0  0  0
 14 15  2  0  0  0  0
 15 16  1  0  0  0  0
 15 26  1  0  0  0  0
 16 17  2  0  0  0  0
 16 21  1  0  0  0  0
 17 18  1  0  0  0  0
 17 25  1  0  0  0  0
 18 19  2  0  0  0  0
 18 24  1  0  0  0  0
 19 20  1  0  0  0  0
 19 23  1  0  0  0  0
 20 21  2  0  0  0  0
 20 22  1  0  0  0  0
 28 29  1  0  0  0  0
 28 45  1  0  0  0  0
 28 46  1  0  0  0  0
 29 30  1  0  0  0  0
 29 44  1  1  0  0  0
 30 31  1  0  0  0  0
 30 42  1  0  0  0  0
 30 43  1  0  0  0  0
 31 32  2  0  0  0  0
 31 36  1  0  0  0  0
 32 33  1  0  0  0  0
 32 41  1  0  0  0  0
 33 34  2  0  0  0  0
 33 40  1  0  0  0  0
 34 35  1  0  0  0  0
 34 39  1  0  0  0  0
 35 36  2  0  0  0  0
 35 38  1  0  0  0  0
 36 37  1  0  0  0  0
 47 48  2  0  0  0  0
 47 53  1  0  0  0  0
 48 49  1  0  0  0  0
 48 58  1  0  0  0  0
 49 50  1  0  0  0  0
 49 51  2  0  0  0  0
 51 52  1  0  0  0  0
 51 57  1  0  0  0  0
 52 53  2  0  0  0  0
 52 56  1  0  0  0  0
 53 54  1  0  0  0  0
 54 55  2  0  0  0  0
M  END
>  <MODEL>
       1

$$$$
