tmp_first_model_17_75.pdb
 OpenBabel08282502223D

 66 71  0  0  1  0  0  0  0  0999 V2000
   -7.4540    3.2610  -21.8100 C   0  0  0  0  0  0  0  0  0  0  0  0
   -8.5370    2.8220  -22.6750 N   0  0  0  0  0  0  0  0  0  0  0  0
   -8.1800    2.0710  -23.7540 C   0  0  0  0  0  0  0  0  0  0  0  0
   -7.0150    1.8020  -24.0040 O   0  0  0  0  0  0  0  0  0  0  0  0
   -9.2870    1.5460  -24.6550 C   0  0  0  0  0  0  0  0  0  0  0  0
   -9.8340    0.3290  -24.0910 N   0  0  0  0  0  0  0  0  0  0  0  0
   -9.0330   -0.8880  -24.0510 C   0  0  0  0  0  0  0  0  0  0  0  0
   -9.2580   -1.6630  -22.7240 C   0  0  2  0  0  0  0  0  0  0  0  0
   -8.6560   -0.8460  -21.5490 C   0  0  0  0  0  0  0  0  0  0  0  0
   -9.1340    0.1410  -21.0230 O   0  0  0  0  0  0  0  0  0  0  0  0
   -7.4440   -1.4050  -21.2000 N   0  0  0  0  0  0  0  0  0  0  0  0
   -6.6340   -0.8310  -20.1840 C   0  0  0  0  0  0  0  0  0  0  0  0
   -6.9490   -1.0480  -18.8640 C   0  0  0  0  0  0  0  0  0  0  0  0
   -6.2450   -0.5600  -17.8140 N   0  0  0  0  0  0  0  0  0  0  0  0
   -5.2000    0.1840  -18.0840 C   0  0  0  0  0  0  0  0  0  0  0  0
   -4.7700    0.5080  -19.4020 C   0  0  0  0  0  0  0  0  0  0  0  0
   -3.6500    1.3490  -19.6330 C   0  0  0  0  0  0  0  0  0  0  0  0
   -3.2680    1.6580  -20.9090 C   0  0  0  0  0  0  0  0  0  0  0  0
   -3.9870    1.1460  -22.0090 C   0  0  0  0  0  0  0  0  0  0  0  0
   -5.0820    0.3330  -21.8140 C   0  0  0  0  0  0  0  0  0  0  0  0
   -5.5010   -0.0140  -20.4980 C   0  0  0  0  0  0  0  0  0  0  0  0
   -5.6550    0.0010  -22.6730 H   0  0  0  0  0  0  0  0  0  0  0  0
   -3.6710    1.3960  -23.0170 H   0  0  0  0  0  0  0  0  0  0  0  0
   -2.4050    2.2950  -21.0850 H   0  0  0  0  0  0  0  0  0  0  0  0
   -3.1110    1.7390  -18.7740 H   0  0  0  0  0  0  0  0  0  0  0  0
   -4.6320    0.5810  -17.2410 H   0  0  0  0  0  0  0  0  0  0  0  0
   -7.8120   -1.6600  -18.6180 H   0  0  0  0  0  0  0  0  0  0  0  0
   -7.0950   -2.5750  -21.9850 C   0  0  0  0  0  0  0  0  0  0  0  0
   -8.4270   -2.9730  -22.6380 C   0  0  2  0  0  0  0  0  0  0  0  0
   -8.2270   -3.7620  -23.9290 C   0  0  0  0  0  0  0  0  0  0  0  0
   -9.4710   -4.2760  -24.4420 N   0  0  0  0  0  0  0  0  0  0  0  0
   -9.5700   -4.9520  -25.6260 C   0  0  0  0  0  0  0  0  0  0  0  0
   -8.4490   -5.2110  -26.4570 C   0  0  0  0  0  0  0  0  0  0  0  0
   -8.5640   -5.8100  -27.6310 N   0  0  0  0  0  0  0  0  0  0  0  0
   -9.7950   -6.1740  -28.0030 C   0  0  0  0  0  0  0  0  0  0  0  0
  -10.8850   -5.9570  -27.1730 C   0  0  0  0  0  0  0  0  0  0  0  0
  -10.7860   -5.3690  -25.9820 N   0  0  0  0  0  0  0  0  0  0  0  0
  -11.8850   -6.2540  -27.4810 H   0  0  0  0  0  0  0  0  0  0  0  0
   -9.9020   -6.6430  -28.9770 H   0  0  0  0  0  0  0  0  0  0  0  0
   -7.4450   -4.9190  -26.1620 H   0  0  0  0  0  0  0  0  0  0  0  0
  -10.3580   -4.0330  -24.0130 H   0  0  0  0  0  0  0  0  0  0  0  0
   -7.5480   -4.6050  -23.7350 H   0  0  0  0  0  0  0  0  0  0  0  0
   -7.7370   -3.1250  -24.6870 H   0  0  0  0  0  0  0  0  0  0  0  0
   -8.9440   -3.6270  -21.9280 H   0  0  0  0  0  0  0  0  0  0  0  0
   -6.3280   -2.3460  -22.7410 H   0  0  0  0  0  0  0  0  0  0  0  0
   -6.7050   -3.3750  -21.3490 H   0  0  0  0  0  0  0  0  0  0  0  0
  -10.7600   -1.8420  -22.5510 C   0  0  0  0  0  0  0  0  0  0  0  0
  -11.3100   -2.8540  -21.7530 C   0  0  0  0  0  0  0  0  0  0  0  0
  -12.6510   -2.8110  -21.4170 C   0  0  0  0  0  0  0  0  0  0  0  0
  -13.2630   -3.8910  -20.2190 Cl  0  0  0  0  0  0  0  0  0  0  0  0
  -13.5230   -1.8540  -21.9240 C   0  0  0  0  0  0  0  0  0  0  0  0
  -13.0080   -0.8910  -22.7560 C   0  0  0  0  0  0  0  0  0  0  0  0
  -11.6490   -0.8790  -23.0520 C   0  0  0  0  0  0  0  0  0  0  0  0
  -11.1720    0.2990  -23.8300 C   0  0  0  0  0  0  0  0  0  0  0  0
  -11.9330    1.1950  -24.1740 O   0  0  0  0  0  0  0  0  0  0  0  0
  -13.6070   -0.0830  -23.1570 H   0  0  0  0  0  0  0  0  0  0  0  0
  -14.5630   -1.8620  -21.6250 H   0  0  0  0  0  0  0  0  0  0  0  0
  -10.7290   -3.6680  -21.3310 H   0  0  0  0  0  0  0  0  0  0  0  0
   -7.9790   -0.6150  -24.1710 H   0  0  0  0  0  0  0  0  0  0  0  0
   -9.3220   -1.5370  -24.8920 H   0  0  0  0  0  0  0  0  0  0  0  0
  -10.1140    2.2500  -24.7350 H   0  0  0  0  0  0  0  0  0  0  0  0
   -8.8830    1.3640  -25.6610 H   0  0  0  0  0  0  0  0  0  0  0  0
   -9.4540    2.7130  -22.2550 H   0  0  0  0  0  0  0  0  0  0  0  0
   -7.8770    3.7620  -20.9410 H   0  0  0  0  0  0  0  0  0  0  0  0
   -6.8530    2.3900  -21.5170 H   0  0  0  0  0  0  0  0  0  0  0  0
   -6.8180    3.9740  -22.3430 H   0  0  0  0  0  0  0  0  0  0  0  0
  1  2  1  0  0  0  0
  1 64  1  0  0  0  0
  1 65  1  0  0  0  0
  1 66  1  0  0  0  0
  2  3  1  0  0  0  0
  2 63  1  0  0  0  0
  3  4  2  0  0  0  0
  3  5  1  0  0  0  0
  5  6  1  0  0  0  0
  5 61  1  0  0  0  0
  5 62  1  0  0  0  0
  6  7  1  0  0  0  0
  6 54  1  0  0  0  0
  7  8  1  0  0  0  0
  7 59  1  0  0  0  0
  7 60  1  0  0  0  0
  8  9  1  1  0  0  0
  8 29  1  0  0  0  0
  8 47  1  0  0  0  0
  9 10  2  0  0  0  0
  9 11  1  0  0  0  0
 11 12  1  0  0  0  0
 11 28  1  0  0  0  0
 12 13  2  0  0  0  0
 12 21  1  0  0  0  0
 13 14  1  0  0  0  0
 13 27  1  0  0  0  0
 14 15  2  0  0  0  0
 15 16  1  0  0  0  0
 15 26  1  0  0  0  0
 16 17  2  0  0  0  0
 16 21  1  0  0  0  0
 17 18  1  0  0  0  0
 17 25  1  0  0  0  0
 18 19  2  0  0  0  0
 18 24  1  0  0  0  0
 19 20  1  0  0  0  0
 19 23  1  0  0  0  0
 20 21  2  0  0  0  0
 20 22  1  0  0  0  0
 28 29  1  0  0  0  0
 28 45  1  0  0  0  0
 28 46  1  0  0  0  0
 29 30  1  0  0  0  0
 29 44  1  1  0  0  0
 30 31  1  0  0  0  0
 30 42  1  0  0  0  0
 30 43  1  0  0  0  0
 31 32  1  0  0  0  0
 31 41  1  0  0  0  0
 32 33  2  0  0  0  0
 32 37  1  0  0  0  0
 33 34  1  0  0  0  0
 33 40  1  0  0  0  0
 34 35  2  0  0  0  0
 35 36  1  0  0  0  0
 35 39  1  0  0  0  0
 36 37  2  0  0  0  0
 36 38  1  0  0  0  0
 47 48  2  0  0  0  0
 47 53  1  0  0  0  0
 48 49  1  0  0  0  0
 48 58  1  0  0  0  0
 49 50  1  0  0  0  0
 49 51  2  0  0  0  0
 51 52  1  0  0  0  0
 51 57  1  0  0  0  0
 52 53  2  0  0  0  0
 52 56  1  0  0  0  0
 53 54  1  0  0  0  0
 54 55  2  0  0  0  0
M  END
>  <MODEL>
       1

$$$$
