tmp_first_model_12_96.pdb
 OpenBabel08272523333D

 66 70  0  0  1  0  0  0  0  0999 V2000
   -7.4070    3.4020  -21.9180 C   0  0  0  0  0  0  0  0  0  0  0  0
   -8.3490    2.9180  -22.9170 N   0  0  0  0  0  0  0  0  0  0  0  0
   -7.8260    2.1700  -23.9340 C   0  0  0  0  0  0  0  0  0  0  0  0
   -6.6280    1.9730  -24.0640 O   0  0  0  0  0  0  0  0  0  0  0  0
   -8.8420    1.5710  -24.9070 C   0  0  0  0  0  0  0  0  0  0  0  0
   -9.4980    0.4320  -24.2930 N   0  0  0  0  0  0  0  0  0  0  0  0
   -8.7470   -0.8050  -24.1390 C   0  0  0  0  0  0  0  0  0  0  0  0
   -9.1070   -1.5300  -22.8210 C   0  0  2  0  0  0  0  0  0  0  0  0
   -8.5570   -0.7400  -21.6100 C   0  0  0  0  0  0  0  0  0  0  0  0
   -9.0170    0.2690  -21.1060 O   0  0  0  0  0  0  0  0  0  0  0  0
   -7.4080   -1.3620  -21.1830 N   0  0  0  0  0  0  0  0  0  0  0  0
   -6.6210   -0.7810  -20.1610 C   0  0  0  0  0  0  0  0  0  0  0  0
   -6.9250   -1.0410  -18.8520 C   0  0  0  0  0  0  0  0  0  0  0  0
   -6.2260   -0.5630  -17.7940 N   0  0  0  0  0  0  0  0  0  0  0  0
   -5.1970    0.2070  -18.0580 C   0  0  0  0  0  0  0  0  0  0  0  0
   -4.7850    0.5730  -19.3710 C   0  0  0  0  0  0  0  0  0  0  0  0
   -3.6540    1.3970  -19.6090 C   0  0  0  0  0  0  0  0  0  0  0  0
   -3.3190    1.7680  -20.8800 C   0  0  0  0  0  0  0  0  0  0  0  0
   -4.1040    1.3510  -21.9780 C   0  0  0  0  0  0  0  0  0  0  0  0
   -5.1860    0.5230  -21.7810 C   0  0  0  0  0  0  0  0  0  0  0  0
   -5.5380    0.0950  -20.4710 C   0  0  0  0  0  0  0  0  0  0  0  0
   -5.7800    0.2140  -22.6370 H   0  0  0  0  0  0  0  0  0  0  0  0
   -3.8550    1.6840  -22.9810 H   0  0  0  0  0  0  0  0  0  0  0  0
   -2.4420    2.3840  -21.0530 H   0  0  0  0  0  0  0  0  0  0  0  0
   -3.0800    1.7330  -18.7490 H   0  0  0  0  0  0  0  0  0  0  0  0
   -4.6220    0.5750  -17.2080 H   0  0  0  0  0  0  0  0  0  0  0  0
   -7.7800   -1.6720  -18.6240 H   0  0  0  0  0  0  0  0  0  0  0  0
   -7.0590   -2.5620  -21.9190 C   0  0  0  0  0  0  0  0  0  0  0  0
   -8.3500   -2.8830  -22.6900 C   0  0  2  0  0  0  0  0  0  0  0  0
   -8.0800   -3.6690  -23.9750 C   0  0  0  0  0  0  0  0  0  0  0  0
   -7.5290   -4.9350  -23.6760 O   0  0  0  0  0  0  0  0  0  0  0  0
   -8.4630   -6.0130  -23.5900 C   0  0  0  0  0  0  0  0  0  0  0  0
   -7.9510   -6.9510  -22.5090 C   0  0  0  0  0  0  0  0  0  0  0  0
   -7.8290   -6.4110  -21.5690 H   0  0  0  0  0  0  0  0  0  0  0  0
   -6.9770   -7.3510  -22.8070 H   0  0  0  0  0  0  0  0  0  0  0  0
   -8.6470   -7.7820  -22.3470 H   0  0  0  0  0  0  0  0  0  0  0  0
   -8.5760   -6.7310  -24.9350 C   0  0  0  0  0  0  0  0  0  0  0  0
   -8.9190   -6.0540  -25.7270 H   0  0  0  0  0  0  0  0  0  0  0  0
   -9.2860   -7.5650  -24.8590 H   0  0  0  0  0  0  0  0  0  0  0  0
   -7.5960   -7.1280  -25.2250 H   0  0  0  0  0  0  0  0  0  0  0  0
   -9.4610   -5.6260  -23.3060 H   0  0  0  0  0  0  0  0  0  0  0  0
   -8.9960   -3.7570  -24.5840 H   0  0  0  0  0  0  0  0  0  0  0  0
   -7.3280   -3.1410  -24.5790 H   0  0  0  0  0  0  0  0  0  0  0  0
   -8.9500   -3.5300  -22.0460 H   0  0  0  0  0  0  0  0  0  0  0  0
   -6.7770   -3.3710  -21.2380 H   0  0  0  0  0  0  0  0  0  0  0  0
   -6.2140   -2.3920  -22.6030 H   0  0  0  0  0  0  0  0  0  0  0  0
  -10.6150   -1.6150  -22.7370 C   0  0  0  0  0  0  0  0  0  0  0  0
  -11.2260   -2.5540  -21.9040 C   0  0  0  0  0  0  0  0  0  0  0  0
  -12.5980   -2.5740  -21.7700 C   0  0  0  0  0  0  0  0  0  0  0  0
  -13.3030   -3.7000  -20.6560 Cl  0  0  0  0  0  0  0  0  0  0  0  0
  -13.4220   -1.6900  -22.4610 C   0  0  0  0  0  0  0  0  0  0  0  0
  -12.8240   -0.7430  -23.2630 C   0  0  0  0  0  0  0  0  0  0  0  0
  -11.4380   -0.6850  -23.3830 C   0  0  0  0  0  0  0  0  0  0  0  0
  -10.8600    0.4450  -24.1760 C   0  0  0  0  0  0  0  0  0  0  0  0
  -11.5530    1.3300  -24.6530 O   0  0  0  0  0  0  0  0  0  0  0  0
  -13.4050   -0.0130  -23.8100 H   0  0  0  0  0  0  0  0  0  0  0  0
  -14.5000   -1.7460  -22.3550 H   0  0  0  0  0  0  0  0  0  0  0  0
  -10.6520   -3.2730  -21.3330 H   0  0  0  0  0  0  0  0  0  0  0  0
   -8.9680   -1.4830  -24.9750 H   0  0  0  0  0  0  0  0  0  0  0  0
   -7.6760   -0.5730  -24.1700 H   0  0  0  0  0  0  0  0  0  0  0  0
   -9.6200    2.2910  -25.1830 H   0  0  0  0  0  0  0  0  0  0  0  0
   -8.3190    1.2560  -25.8180 H   0  0  0  0  0  0  0  0  0  0  0  0
   -9.2880    2.6960  -22.6020 H   0  0  0  0  0  0  0  0  0  0  0  0
   -6.6430    4.0100  -22.4140 H   0  0  0  0  0  0  0  0  0  0  0  0
   -6.9160    2.5560  -21.4060 H   0  0  0  0  0  0  0  0  0  0  0  0
   -7.9240    4.0470  -21.2030 H   0  0  0  0  0  0  0  0  0  0  0  0
  1  2  1  0  0  0  0
  1 64  1  0  0  0  0
  1 65  1  0  0  0  0
  1 66  1  0  0  0  0
  2  3  1  0  0  0  0
  2 63  1  0  0  0  0
  3  4  2  0  0  0  0
  3  5  1  0  0  0  0
  5  6  1  0  0  0  0
  5 61  1  0  0  0  0
  5 62  1  0  0  0  0
  6  7  1  0  0  0  0
  6 54  1  0  0  0  0
  7  8  1  0  0  0  0
  7 59  1  0  0  0  0
  7 60  1  0  0  0  0
  8  9  1  1  0  0  0
  8 29  1  0  0  0  0
  8 47  1  0  0  0  0
  9 10  2  0  0  0  0
  9 11  1  0  0  0  0
 11 12  1  0  0  0  0
 11 28  1  0  0  0  0
 12 13  2  0  0  0  0
 12 21  1  0  0  0  0
 13 14  1  0  0  0  0
 13 27  1  0  0  0  0
 14 15  2  0  0  0  0
 15 16  1  0  0  0  0
 15 26  1  0  0  0  0
 16 17  2  0  0  0  0
 16 21  1  0  0  0  0
 17 18  1  0  0  0  0
 17 25  1  0  0  0  0
 18 19  2  0  0  0  0
 18 24  1  0  0  0  0
 19 20  1  0  0  0  0
 19 23  1  0  0  0  0
 20 21  2  0  0  0  0
 20 22  1  0  0  0  0
 28 29  1  0  0  0  0
 28 45  1  0  0  0  0
 28 46  1  0  0  0  0
 29 30  1  0  0  0  0
 29 44  1  1  0  0  0
 30 31  1  0  0  0  0
 30 42  1  0  0  0  0
 30 43  1  0  0  0  0
 31 32  1  0  0  0  0
 32 33  1  0  0  0  0
 32 37  1  0  0  0  0
 32 41  1  0  0  0  0
 33 34  1  0  0  0  0
 33 35  1  0  0  0  0
 33 36  1  0  0  0  0
 37 38  1  0  0  0  0
 37 39  1  0  0  0  0
 37 40  1  0  0  0  0
 47 48  2  0  0  0  0
 47 53  1  0  0  0  0
 48 49  1  0  0  0  0
 48 58  1  0  0  0  0
 49 50  1  0  0  0  0
 49 51  2  0  0  0  0
 51 52  1  0  0  0  0
 51 57  1  0  0  0  0
 52 53  2  0  0  0  0
 52 56  1  0  0  0  0
 53 54  1  0  0  0  0
 54 55  2  0  0  0  0
M  END
>  <MODEL>
       1

$$$$
