tmp_first_model_11_6.pdb
 OpenBabel08272522543D

 43 45  0  0  0  0  0  0  0  0999 V2000
  -14.3350   -2.6680  -22.7390 C   0  0  0  0  0  0  0  0  0  0  0  0
  -12.9150   -3.1570  -23.0460 C   0  0  0  0  0  0  0  0  0  0  0  0
  -12.0410   -2.0940  -23.7420 C   0  0  0  0  0  0  0  0  0  0  0  0
  -11.9980   -0.7790  -22.9320 C   0  0  0  0  0  0  0  0  0  0  0  0
  -10.6340   -0.1050  -22.9130 C   0  0  0  0  0  0  0  0  0  0  0  0
   -9.5870   -1.0240  -22.4630 N   0  0  0  0  0  0  0  0  0  0  0  0
   -8.5740   -0.4840  -21.7180 C   0  0  0  0  0  0  0  0  0  0  0  0
   -8.5320    0.6990  -21.4360 O   0  0  0  0  0  0  0  0  0  0  0  0
   -7.4750   -1.4480  -21.2530 C   0  0  0  0  0  0  0  0  0  0  0  0
   -6.6100   -0.8490  -20.1850 C   0  0  0  0  0  0  0  0  0  0  0  0
   -6.9240   -1.0540  -18.8690 C   0  0  0  0  0  0  0  0  0  0  0  0
   -6.2510   -0.5470  -17.8030 N   0  0  0  0  0  0  0  0  0  0  0  0
   -5.2110    0.2060  -18.0740 C   0  0  0  0  0  0  0  0  0  0  0  0
   -4.7700    0.5160  -19.3890 C   0  0  0  0  0  0  0  0  0  0  0  0
   -3.6360    1.3330  -19.6230 C   0  0  0  0  0  0  0  0  0  0  0  0
   -3.2420    1.6220  -20.9000 C   0  0  0  0  0  0  0  0  0  0  0  0
   -3.9700    1.1120  -21.9950 C   0  0  0  0  0  0  0  0  0  0  0  0
   -5.0760    0.3250  -21.7960 C   0  0  0  0  0  0  0  0  0  0  0  0
   -5.4970   -0.0090  -20.4820 C   0  0  0  0  0  0  0  0  0  0  0  0
   -5.6360   -0.0410  -22.6500 H   0  0  0  0  0  0  0  0  0  0  0  0
   -3.6480    1.3520  -23.0030 H   0  0  0  0  0  0  0  0  0  0  0  0
   -2.3810    2.2590  -21.0760 H   0  0  0  0  0  0  0  0  0  0  0  0
   -3.1000    1.7350  -18.7680 H   0  0  0  0  0  0  0  0  0  0  0  0
   -4.6610    0.6100  -17.2260 H   0  0  0  0  0  0  0  0  0  0  0  0
   -7.7820   -1.6740  -18.6140 H   0  0  0  0  0  0  0  0  0  0  0  0
   -6.8650   -1.7570  -22.1140 H   0  0  0  0  0  0  0  0  0  0  0  0
   -7.9580   -2.3500  -20.8590 H   0  0  0  0  0  0  0  0  0  0  0  0
   -9.6590   -2.4360  -22.8580 C   0  0  0  0  0  0  0  0  0  0  0  0
  -10.6080   -2.5670  -24.0450 C   0  0  0  0  0  0  0  0  0  0  0  0
  -10.1940   -1.9650  -24.8650 H   0  0  0  0  0  0  0  0  0  0  0  0
  -10.6150   -3.5940  -24.4180 H   0  0  0  0  0  0  0  0  0  0  0  0
   -8.6660   -2.7860  -23.1790 H   0  0  0  0  0  0  0  0  0  0  0  0
   -9.9750   -3.0770  -22.0140 H   0  0  0  0  0  0  0  0  0  0  0  0
  -10.3880    0.3170  -23.9010 H   0  0  0  0  0  0  0  0  0  0  0  0
  -10.6540    0.7280  -22.2100 H   0  0  0  0  0  0  0  0  0  0  0  0
  -12.7150   -0.0510  -23.3300 H   0  0  0  0  0  0  0  0  0  0  0  0
  -12.2930   -0.9650  -21.8920 H   0  0  0  0  0  0  0  0  0  0  0  0
  -12.5040   -1.8850  -24.7160 H   0  0  0  0  0  0  0  0  0  0  0  0
  -12.4250   -3.4710  -22.1110 H   0  0  0  0  0  0  0  0  0  0  0  0
  -12.9820   -4.0480  -23.6890 H   0  0  0  0  0  0  0  0  0  0  0  0
  -14.9400   -3.4810  -22.3340 H   0  0  0  0  0  0  0  0  0  0  0  0
  -14.3450   -1.8730  -21.9850 H   0  0  0  0  0  0  0  0  0  0  0  0
  -14.8460   -2.3000  -23.6390 H   0  0  0  0  0  0  0  0  0  0  0  0
  1  2  1  0  0  0  0
  1 41  1  0  0  0  0
  1 42  1  0  0  0  0
  1 43  1  0  0  0  0
  2  3  1  0  0  0  0
  2 39  1  0  0  0  0
  2 40  1  0  0  0  0
  3  4  1  0  0  0  0
  3 29  1  0  0  0  0
  3 38  1  0  0  0  0
  4  5  1  0  0  0  0
  4 36  1  0  0  0  0
  4 37  1  0  0  0  0
  5  6  1  0  0  0  0
  5 34  1  0  0  0  0
  5 35  1  0  0  0  0
  6  7  1  0  0  0  0
  6 28  1  0  0  0  0
  7  8  2  0  0  0  0
  7  9  1  0  0  0  0
  9 10  1  0  0  0  0
  9 26  1  0  0  0  0
  9 27  1  0  0  0  0
 10 11  2  0  0  0  0
 10 19  1  0  0  0  0
 11 12  1  0  0  0  0
 11 25  1  0  0  0  0
 12 13  2  0  0  0  0
 13 14  1  0  0  0  0
 13 24  1  0  0  0  0
 14 15  2  0  0  0  0
 14 19  1  0  0  0  0
 15 16  1  0  0  0  0
 15 23  1  0  0  0  0
 16 17  2  0  0  0  0
 16 22  1  0  0  0  0
 17 18  1  0  0  0  0
 17 21  1  0  0  0  0
 18 19  2  0  0  0  0
 18 20  1  0  0  0  0
 28 29  1  0  0  0  0
 28 32  1  0  0  0  0
 28 33  1  0  0  0  0
 29 30  1  0  0  0  0
 29 31  1  0  0  0  0
M  END
>  <MODEL>
       1

$$$$
