tmp_first_model_6_36.pdb
 OpenBabel08272519583D

 47 50  0  0  1  0  0  0  0  0999 V2000
   -6.0880   -3.4680  -21.2160 O   0  0  0  0  0  0  0  0  0  0  0  0
   -6.6440   -2.6590  -21.9370 C   0  0  0  0  0  0  0  0  0  0  0  0
   -7.3860   -1.4620  -21.2930 C   0  0  0  0  0  0  0  0  0  0  0  0
   -6.5780   -0.8250  -20.1810 C   0  0  0  0  0  0  0  0  0  0  0  0
   -6.8720   -1.0490  -18.8610 C   0  0  0  0  0  0  0  0  0  0  0  0
   -6.1860   -0.5470  -17.7970 N   0  0  0  0  0  0  0  0  0  0  0  0
   -5.1580    0.2210  -18.0630 C   0  0  0  0  0  0  0  0  0  0  0  0
   -4.7230    0.5370  -19.3770 C   0  0  0  0  0  0  0  0  0  0  0  0
   -3.5940    1.3610  -19.6170 C   0  0  0  0  0  0  0  0  0  0  0  0
   -3.2040    1.6570  -20.8950 C   0  0  0  0  0  0  0  0  0  0  0  0
   -3.9470    1.1530  -21.9840 C   0  0  0  0  0  0  0  0  0  0  0  0
   -5.0330    0.3360  -21.7810 C   0  0  0  0  0  0  0  0  0  0  0  0
   -5.4540    0.0060  -20.4690 C   0  0  0  0  0  0  0  0  0  0  0  0
   -5.5370   -0.1030  -22.6370 H   0  0  0  0  0  0  0  0  0  0  0  0
   -3.6020    1.3370  -22.9960 H   0  0  0  0  0  0  0  0  0  0  0  0
   -2.3310    2.2760  -21.0850 H   0  0  0  0  0  0  0  0  0  0  0  0
   -3.0550    1.7680  -18.7650 H   0  0  0  0  0  0  0  0  0  0  0  0
   -4.6050    0.6280  -17.2130 H   0  0  0  0  0  0  0  0  0  0  0  0
   -7.7210   -1.6710  -18.5840 H   0  0  0  0  0  0  0  0  0  0  0  0
   -8.3110   -1.8630  -20.8620 H   0  0  0  0  0  0  0  0  0  0  0  0
   -7.6900   -0.7100  -22.0300 H   0  0  0  0  0  0  0  0  0  0  0  0
   -6.6110   -2.7870  -23.3150 N   0  0  0  0  0  0  0  0  0  0  0  0
   -5.5570   -3.6020  -23.9110 C   0  0  0  0  0  0  0  0  0  0  0  0
   -6.0970   -4.6260  -24.9080 C   0  0  0  0  0  0  0  0  0  0  0  0
   -7.0960   -4.0160  -25.9090 C   0  0  0  0  0  0  0  0  0  0  0  0
   -7.2790   -2.5180  -25.6770 C   0  0  0  0  0  0  0  0  0  0  0  0
   -7.5720   -2.1510  -24.2120 C   0  0  1  0  0  0  0  0  0  0  0  0
   -9.0180   -2.4570  -23.8370 C   0  0  0  0  0  0  0  0  0  0  0  0
   -9.4050   -3.7230  -23.3980 C   0  0  0  0  0  0  0  0  0  0  0  0
  -10.7330   -3.9920  -23.0810 C   0  0  0  0  0  0  0  0  0  0  0  0
  -11.7010   -3.0000  -23.2080 C   0  0  0  0  0  0  0  0  0  0  0  0
  -11.3330   -1.7440  -23.6810 C   0  0  0  0  0  0  0  0  0  0  0  0
  -10.0020   -1.4780  -23.9960 C   0  0  0  0  0  0  0  0  0  0  0  0
   -9.7310   -0.4910  -24.3650 H   0  0  0  0  0  0  0  0  0  0  0  0
  -12.0830   -0.9670  -23.7990 H   0  0  0  0  0  0  0  0  0  0  0  0
  -12.7380   -3.2180  -22.9690 H   0  0  0  0  0  0  0  0  0  0  0  0
  -11.0050   -4.9840  -22.7350 H   0  0  0  0  0  0  0  0  0  0  0  0
   -8.6610   -4.5080  -23.2920 H   0  0  0  0  0  0  0  0  0  0  0  0
   -7.4420   -1.0640  -24.1360 H   0  0  0  0  0  0  0  0  0  0  0  0
   -6.4020   -1.9660  -26.0300 H   0  0  0  0  0  0  0  0  0  0  0  0
   -8.1050   -2.1550  -26.2890 H   0  0  0  0  0  0  0  0  0  0  0  0
   -8.0670   -4.5160  -25.8210 H   0  0  0  0  0  0  0  0  0  0  0  0
   -6.7650   -4.1820  -26.9400 H   0  0  0  0  0  0  0  0  0  0  0  0
   -5.2520   -5.0740  -25.4380 H   0  0  0  0  0  0  0  0  0  0  0  0
   -6.5700   -5.4450  -24.3600 H   0  0  0  0  0  0  0  0  0  0  0  0
   -4.8320   -2.9440  -24.4100 H   0  0  0  0  0  0  0  0  0  0  0  0
   -5.0320   -4.0970  -23.0990 H   0  0  0  0  0  0  0  0  0  0  0  0
  1  2  2  0  0  0  0
  2  3  1  0  0  0  0
  2 22  1  0  0  0  0
  3  4  1  0  0  0  0
  3 20  1  0  0  0  0
  3 21  1  0  0  0  0
  4  5  2  0  0  0  0
  4 13  1  0  0  0  0
  5  6  1  0  0  0  0
  5 19  1  0  0  0  0
  6  7  2  0  0  0  0
  7  8  1  0  0  0  0
  7 18  1  0  0  0  0
  8  9  2  0  0  0  0
  8 13  1  0  0  0  0
  9 10  1  0  0  0  0
  9 17  1  0  0  0  0
 10 11  2  0  0  0  0
 10 16  1  0  0  0  0
 11 12  1  0  0  0  0
 11 15  1  0  0  0  0
 12 13  2  0  0  0  0
 12 14  1  0  0  0  0
 22 23  1  0  0  0  0
 22 27  1  0  0  0  0
 23 24  1  0  0  0  0
 23 46  1  0  0  0  0
 23 47  1  0  0  0  0
 24 25  1  0  0  0  0
 24 44  1  0  0  0  0
 24 45  1  0  0  0  0
 25 26  1  0  0  0  0
 25 42  1  0  0  0  0
 25 43  1  0  0  0  0
 26 27  1  0  0  0  0
 26 40  1  0  0  0  0
 26 41  1  0  0  0  0
 27 28  1  0  0  0  0
 27 39  1  1  0  0  0
 28 29  2  0  0  0  0
 28 33  1  0  0  0  0
 29 30  1  0  0  0  0
 29 38  1  0  0  0  0
 30 31  2  0  0  0  0
 30 37  1  0  0  0  0
 31 32  1  0  0  0  0
 31 36  1  0  0  0  0
 32 33  2  0  0  0  0
 32 35  1  0  0  0  0
 33 34  1  0  0  0  0
M  END
>  <MODEL>
       1

$$$$
