tmp_first_model_3_2.pdb
 OpenBabel08272518143D

 60 65  0  0  1  0  0  0  0  0999 V2000
  -10.4490    0.0460  -29.9930 C   0  0  0  0  0  0  0  0  0  0  0  0
  -10.3570    0.1530  -28.4990 C   0  0  0  0  0  0  0  0  0  0  0  0
   -9.1590    0.4470  -27.8690 C   0  0  0  0  0  0  0  0  0  0  0  0
   -9.0610    0.6500  -26.5560 N   0  0  0  0  0  0  0  0  0  0  0  0
  -10.1970    0.5260  -25.8550 C   0  0  0  0  0  0  0  0  0  0  0  0
  -10.1640    0.7290  -24.3730 C   0  0  0  0  0  0  0  0  0  0  0  0
  -10.3700   -0.5100  -23.6670 N   0  0  0  0  0  0  0  0  0  0  0  0
   -9.3290   -1.5210  -23.7630 C   0  0  0  0  0  0  0  0  0  0  0  0
   -9.1660   -2.2520  -22.4200 C   0  0  2  0  0  0  0  0  0  0  0  0
   -8.6330   -1.2310  -21.3830 C   0  0  0  0  0  0  0  0  0  0  0  0
   -9.2330   -0.3140  -20.8630 O   0  0  0  0  0  0  0  0  0  0  0  0
   -7.2970   -1.5040  -21.1790 N   0  0  0  0  0  0  0  0  0  0  0  0
   -6.5740   -0.8490  -20.1570 C   0  0  0  0  0  0  0  0  0  0  0  0
   -6.9300   -1.0240  -18.8410 C   0  0  0  0  0  0  0  0  0  0  0  0
   -6.2450   -0.5090  -17.7910 N   0  0  0  0  0  0  0  0  0  0  0  0
   -5.1900    0.2230  -18.0570 C   0  0  0  0  0  0  0  0  0  0  0  0
   -4.7340    0.5150  -19.3730 C   0  0  0  0  0  0  0  0  0  0  0  0
   -3.6030    1.3380  -19.6090 C   0  0  0  0  0  0  0  0  0  0  0  0
   -3.2150    1.6350  -20.8850 C   0  0  0  0  0  0  0  0  0  0  0  0
   -3.9380    1.1260  -21.9860 C   0  0  0  0  0  0  0  0  0  0  0  0
   -5.0330    0.3200  -21.7850 C   0  0  0  0  0  0  0  0  0  0  0  0
   -5.4500   -0.0180  -20.4680 C   0  0  0  0  0  0  0  0  0  0  0  0
   -5.6010   -0.0480  -22.6350 H   0  0  0  0  0  0  0  0  0  0  0  0
   -3.6360    1.3900  -22.9950 H   0  0  0  0  0  0  0  0  0  0  0  0
   -2.3600    2.2830  -21.0610 H   0  0  0  0  0  0  0  0  0  0  0  0
   -3.0750    1.7430  -18.7500 H   0  0  0  0  0  0  0  0  0  0  0  0
   -4.6410    0.6330  -17.2070 H   0  0  0  0  0  0  0  0  0  0  0  0
   -7.7950   -1.6270  -18.5730 H   0  0  0  0  0  0  0  0  0  0  0  0
   -6.8000   -2.5770  -22.0220 C   0  0  0  0  0  0  0  0  0  0  0  0
   -8.0610   -3.3480  -22.4320 C   0  0  2  0  0  0  0  0  0  0  0  0
   -7.8970   -4.0970  -23.7580 C   0  0  0  0  0  0  0  0  0  0  0  0
   -7.6150   -3.3930  -24.5480 H   0  0  0  0  0  0  0  0  0  0  0  0
   -8.8130   -4.6050  -24.0850 H   0  0  0  0  0  0  0  0  0  0  0  0
   -7.1070   -4.8490  -23.6810 H   0  0  0  0  0  0  0  0  0  0  0  0
   -8.2530   -4.0780  -21.6270 H   0  0  0  0  0  0  0  0  0  0  0  0
   -6.3150   -2.1990  -22.9320 H   0  0  0  0  0  0  0  0  0  0  0  0
   -6.0920   -3.1960  -21.4730 H   0  0  0  0  0  0  0  0  0  0  0  0
  -10.5860   -2.7800  -22.1010 C   0  0  0  0  0  0  0  0  0  0  0  0
  -11.0050   -3.8280  -21.3970 C   0  0  0  0  0  0  0  0  0  0  0  0
  -13.0510   -2.9910  -20.6680 C   0  0  0  0  0  0  0  0  0  0  0  0
  -13.2500   -4.4510  -20.2380 F   0  0  0  0  0  0  0  0  0  0  0  0
  -13.1160   -3.1090  -20.6650 C   0  0  0  0  0  0  0  0  0  0  0  0
  -12.9680   -2.3150  -21.8800 C   0  0  0  0  0  0  0  0  0  0  0  0
  -11.7290   -1.9900  -22.4720 C   0  0  0  0  0  0  0  0  0  0  0  0
  -11.6650   -0.8450  -23.3140 C   0  0  0  0  0  0  0  0  0  0  0  0
  -12.6420   -0.2040  -23.6710 O   0  0  0  0  0  0  0  0  0  0  0  0
  -13.8720   -1.9310  -21.7300 H   0  0  0  0  0  0  0  0  0  0  0  0
  -14.0060   -2.5850  -19.8520 H   0  0  0  0  0  0  0  0  0  0  0  0
  -10.4250   -4.5510  -20.8280 H   0  0  0  0  0  0  0  0  0  0  0  0
   -9.5860   -2.2610  -24.5310 H   0  0  0  0  0  0  0  0  0  0  0  0
   -8.4100   -1.0170  -24.0770 H   0  0  0  0  0  0  0  0  0  0  0  0
   -9.1990    1.1590  -24.0680 H   0  0  0  0  0  0  0  0  0  0  0  0
  -10.9690    1.4000  -24.0450 H   0  0  0  0  0  0  0  0  0  0  0  0
  -11.3800    0.1240  -26.4670 C   0  0  0  0  0  0  0  0  0  0  0  0
  -11.4560   -0.0750  -27.7880 N   0  0  0  0  0  0  0  0  0  0  0  0
  -12.2720   -0.0260  -25.8710 H   0  0  0  0  0  0  0  0  0  0  0  0
   -8.2420    0.5150  -28.4500 H   0  0  0  0  0  0  0  0  0  0  0  0
   -9.6630    0.6530  -30.4480 H   0  0  0  0  0  0  0  0  0  0  0  0
  -10.3100   -0.9920  -30.3040 H   0  0  0  0  0  0  0  0  0  0  0  0
  -11.4270    0.3880  -30.3360 H   0  0  0  0  0  0  0  0  0  0  0  0
  1  2  1  0  0  0  0
  1 58  1  0  0  0  0
  1 59  1  0  0  0  0
  1 60  1  0  0  0  0
  2  3  2  0  0  0  0
  2 55  1  0  0  0  0
  3  4  1  0  0  0  0
  3 57  1  0  0  0  0
  4  5  2  0  0  0  0
  5  6  1  0  0  0  0
  5 54  1  0  0  0  0
  6  7  1  0  0  0  0
  6 52  1  0  0  0  0
  6 53  1  0  0  0  0
  7  8  1  0  0  0  0
  7 45  1  0  0  0  0
  8  9  1  0  0  0  0
  8 50  1  0  0  0  0
  8 51  1  0  0  0  0
  9 10  1  1  0  0  0
  9 30  1  0  0  0  0
  9 38  1  0  0  0  0
 10 11  2  0  0  0  0
 10 12  1  0  0  0  0
 12 13  1  0  0  0  0
 12 29  1  0  0  0  0
 13 14  2  0  0  0  0
 13 22  1  0  0  0  0
 14 15  1  0  0  0  0
 14 28  1  0  0  0  0
 15 16  2  0  0  0  0
 16 17  1  0  0  0  0
 16 27  1  0  0  0  0
 17 18  2  0  0  0  0
 17 22  1  0  0  0  0
 18 19  1  0  0  0  0
 18 26  1  0  0  0  0
 19 20  2  0  0  0  0
 19 25  1  0  0  0  0
 20 21  1  0  0  0  0
 20 24  1  0  0  0  0
 21 22  2  0  0  0  0
 21 23  1  0  0  0  0
 29 30  1  0  0  0  0
 29 36  1  0  0  0  0
 29 37  1  0  0  0  0
 30 31  1  0  0  0  0
 30 35  1  1  0  0  0
 31 32  1  0  0  0  0
 31 33  1  0  0  0  0
 31 34  1  0  0  0  0
 38 39  2  0  0  0  0
 38 44  1  0  0  0  0
 39 40  1  0  0  0  0
 39 49  1  0  0  0  0
 40 41  1  0  0  0  0
 40 42  2  0  0  0  0
 42 43  1  0  0  0  0
 42 48  1  0  0  0  0
 43 44  2  0  0  0  0
 43 47  1  0  0  0  0
 44 45  1  0  0  0  0
 45 46  2  0  0  0  0
 54 55  2  0  0  0  0
 54 56  1  0  0  0  0
M  END
>  <MODEL>
       1

$$$$
