tmp_first_model_13_53.pdb
 OpenBabel08282500103D

 59 63  0  0  1  0  0  0  0  0999 V2000
  -13.9630   -1.0610  -24.5310 C   0  0  0  0  0  0  0  0  0  0  0  0
  -14.8550   -2.0960  -23.8480 C   0  0  0  0  0  0  0  0  0  0  0  0
  -14.0670   -3.1230  -23.1920 N   0  0  0  0  0  0  0  0  0  0  0  0
  -13.2900   -2.7830  -22.1190 C   0  0  0  0  0  0  0  0  0  0  0  0
  -13.3300   -1.7000  -21.5600 O   0  0  0  0  0  0  0  0  0  0  0  0
  -12.4110   -3.9360  -21.6670 C   0  0  0  0  0  0  0  0  0  0  0  0
  -11.0920   -3.8820  -22.2640 N   0  0  0  0  0  0  0  0  0  0  0  0
   -9.9730   -3.3770  -21.4790 C   0  0  0  0  0  0  0  0  0  0  0  0
   -8.7850   -2.9150  -22.3540 C   0  0  2  0  0  0  0  0  0  0  0  0
   -7.5610   -2.7010  -21.4500 C   0  0  0  0  0  0  0  0  0  0  0  0
   -6.8290   -3.5600  -21.0020 O   0  0  0  0  0  0  0  0  0  0  0  0
   -7.3990   -1.3490  -21.2380 N   0  0  0  0  0  0  0  0  0  0  0  0
   -6.5780   -0.8560  -20.1970 C   0  0  0  0  0  0  0  0  0  0  0  0
   -6.8870   -1.0990  -18.8830 C   0  0  0  0  0  0  0  0  0  0  0  0
   -6.2130   -0.5660  -17.8350 N   0  0  0  0  0  0  0  0  0  0  0  0
   -5.1940    0.2110  -18.0970 C   0  0  0  0  0  0  0  0  0  0  0  0
   -4.7470    0.5220  -19.4130 C   0  0  0  0  0  0  0  0  0  0  0  0
   -3.6190    1.3480  -19.6470 C   0  0  0  0  0  0  0  0  0  0  0  0
   -3.2160    1.6140  -20.9260 C   0  0  0  0  0  0  0  0  0  0  0  0
   -3.9190    1.0660  -22.0240 C   0  0  0  0  0  0  0  0  0  0  0  0
   -5.0140    0.2630  -21.8220 C   0  0  0  0  0  0  0  0  0  0  0  0
   -5.4580   -0.0220  -20.5050 C   0  0  0  0  0  0  0  0  0  0  0  0
   -5.5360   -0.1720  -22.6680 H   0  0  0  0  0  0  0  0  0  0  0  0
   -3.5880    1.2820  -23.0350 H   0  0  0  0  0  0  0  0  0  0  0  0
   -2.3610    2.2570  -21.1060 H   0  0  0  0  0  0  0  0  0  0  0  0
   -3.0950    1.7610  -18.7890 H   0  0  0  0  0  0  0  0  0  0  0  0
   -4.6550    0.6310  -17.2470 H   0  0  0  0  0  0  0  0  0  0  0  0
   -7.7280   -1.7370  -18.6260 H   0  0  0  0  0  0  0  0  0  0  0  0
   -8.3950   -0.5260  -21.9040 C   0  0  0  0  0  0  0  0  0  0  0  0
   -9.0070   -1.4750  -22.9440 C   0  0  2  0  0  0  0  0  0  0  0  0
  -10.4500   -1.1250  -23.2800 C   0  0  0  0  0  0  0  0  0  0  0  0
  -10.5310   -0.1590  -23.7870 H   0  0  0  0  0  0  0  0  0  0  0  0
  -11.0610   -1.0890  -22.3690 H   0  0  0  0  0  0  0  0  0  0  0  0
  -10.8800   -1.8910  -23.9320 H   0  0  0  0  0  0  0  0  0  0  0  0
   -8.3960   -1.4360  -23.8570 H   0  0  0  0  0  0  0  0  0  0  0  0
   -7.9320    0.3540  -22.3640 H   0  0  0  0  0  0  0  0  0  0  0  0
   -9.1530   -0.1630  -21.1910 H   0  0  0  0  0  0  0  0  0  0  0  0
   -8.5200   -3.9650  -23.4030 C   0  0  0  0  0  0  0  0  0  0  0  0
   -7.2480   -4.0910  -23.9620 C   0  0  0  0  0  0  0  0  0  0  0  0
   -7.0210   -5.0300  -24.9500 C   0  0  0  0  0  0  0  0  0  0  0  0
   -5.4480   -5.1270  -25.6810 Cl  0  0  0  0  0  0  0  0  0  0  0  0
   -8.0280   -5.8810  -25.4020 C   0  0  0  0  0  0  0  0  0  0  0  0
   -9.2900   -5.7470  -24.8580 C   0  0  0  0  0  0  0  0  0  0  0  0
   -9.5450   -4.7810  -23.8890 C   0  0  0  0  0  0  0  0  0  0  0  0
  -10.9420   -4.5930  -23.4180 C   0  0  0  0  0  0  0  0  0  0  0  0
  -11.9100   -5.0410  -24.0350 O   0  0  0  0  0  0  0  0  0  0  0  0
  -10.1060   -6.3860  -25.1720 H   0  0  0  0  0  0  0  0  0  0  0  0
   -7.8250   -6.6210  -26.1690 H   0  0  0  0  0  0  0  0  0  0  0  0
   -6.4270   -3.4740  -23.6150 H   0  0  0  0  0  0  0  0  0  0  0  0
   -9.6490   -4.1690  -20.7940 H   0  0  0  0  0  0  0  0  0  0  0  0
  -10.3130   -2.5020  -20.9090 H   0  0  0  0  0  0  0  0  0  0  0  0
  -12.9030   -4.8010  -22.0960 H   0  0  0  0  0  0  0  0  0  0  0  0
  -12.3550   -4.0140  -20.5790 H   0  0  0  0  0  0  0  0  0  0  0  0
  -13.6930   -3.8660  -23.7810 H   0  0  0  0  0  0  0  0  0  0  0  0
  -15.4700   -1.6190  -23.0730 H   0  0  0  0  0  0  0  0  0  0  0  0
  -15.5100   -2.6150  -24.5550 H   0  0  0  0  0  0  0  0  0  0  0  0
  -14.5520   -0.3080  -25.0580 H   0  0  0  0  0  0  0  0  0  0  0  0
  -13.2860   -1.5470  -25.2520 H   0  0  0  0  0  0  0  0  0  0  0  0
  -13.3710   -0.5610  -23.7550 H   0  0  0  0  0  0  0  0  0  0  0  0
  1  2  1  0  0  0  0
  1 57  1  0  0  0  0
  1 58  1  0  0  0  0
  1 59  1  0  0  0  0
  2  3  1  0  0  0  0
  2 55  1  0  0  0  0
  2 56  1  0  0  0  0
  3  4  1  0  0  0  0
  3 54  1  0  0  0  0
  4  5  2  0  0  0  0
  4  6  1  0  0  0  0
  6  7  1  0  0  0  0
  6 52  1  0  0  0  0
  6 53  1  0  0  0  0
  7  8  1  0  0  0  0
  7 45  1  0  0  0  0
  8  9  1  0  0  0  0
  8 50  1  0  0  0  0
  8 51  1  0  0  0  0
  9 10  1  1  0  0  0
  9 30  1  0  0  0  0
  9 38  1  0  0  0  0
 10 11  2  0  0  0  0
 10 12  1  0  0  0  0
 12 13  1  0  0  0  0
 12 29  1  0  0  0  0
 13 14  2  0  0  0  0
 13 22  1  0  0  0  0
 14 15  1  0  0  0  0
 14 28  1  0  0  0  0
 15 16  2  0  0  0  0
 16 17  1  0  0  0  0
 16 27  1  0  0  0  0
 17 18  2  0  0  0  0
 17 22  1  0  0  0  0
 18 19  1  0  0  0  0
 18 26  1  0  0  0  0
 19 20  2  0  0  0  0
 19 25  1  0  0  0  0
 20 21  1  0  0  0  0
 20 24  1  0  0  0  0
 21 22  2  0  0  0  0
 21 23  1  0  0  0  0
 29 30  1  0  0  0  0
 29 36  1  0  0  0  0
 29 37  1  0  0  0  0
 30 31  1  0  0  0  0
 30 35  1  6  0  0  0
 31 32  1  0  0  0  0
 31 33  1  0  0  0  0
 31 34  1  0  0  0  0
 38 39  2  0  0  0  0
 38 44  1  0  0  0  0
 39 40  1  0  0  0  0
 39 49  1  0  0  0  0
 40 41  1  0  0  0  0
 40 42  2  0  0  0  0
 42 43  1  0  0  0  0
 42 48  1  0  0  0  0
 43 44  2  0  0  0  0
 43 47  1  0  0  0  0
 44 45  1  0  0  0  0
 45 46  2  0  0  0  0
M  END
>  <MODEL>
       1

$$$$
