tmp_first_model_4_9.pdb
 OpenBabel08272518513D

 41 43  0  0  1  0  0  0  0  0999 V2000
  -13.1420   -2.9300  -22.7640 C   0  0  0  0  0  0  0  0  0  0  0  0
  -11.9640   -2.0450  -23.1700 C   0  0  1  0  0  0  0  0  0  0  0  0
  -12.1530   -0.6480  -22.6230 C   0  0  0  0  0  0  0  0  0  0  0  0
  -11.3060    0.3630  -22.8230 C   0  0  0  0  0  0  0  0  0  0  0  0
  -10.0030    0.2170  -23.5770 C   0  0  0  0  0  0  0  0  0  0  0  0
   -9.0910   -0.7720  -23.0070 N   0  0  0  0  0  0  0  0  0  0  0  0
   -8.3740   -0.3700  -21.8960 C   0  0  0  0  0  0  0  0  0  0  0  0
   -8.4780    0.7570  -21.4450 O   0  0  0  0  0  0  0  0  0  0  0  0
   -7.4410   -1.4340  -21.3000 C   0  0  0  0  0  0  0  0  0  0  0  0
   -6.4970   -0.9940  -20.2220 C   0  0  0  0  0  0  0  0  0  0  0  0
   -6.7560   -1.2630  -18.9070 C   0  0  0  0  0  0  0  0  0  0  0  0
   -5.9270   -0.9890  -17.8700 N   0  0  0  0  0  0  0  0  0  0  0  0
   -4.8110   -0.3620  -18.1480 C   0  0  0  0  0  0  0  0  0  0  0  0
   -4.4350    0.0380  -19.4620 C   0  0  0  0  0  0  0  0  0  0  0  0
   -3.2840    0.8330  -19.7140 C   0  0  0  0  0  0  0  0  0  0  0  0
   -3.0620    1.3570  -20.9580 C   0  0  0  0  0  0  0  0  0  0  0  0
   -3.9170    1.0210  -22.0330 C   0  0  0  0  0  0  0  0  0  0  0  0
   -4.9940    0.1980  -21.8370 C   0  0  0  0  0  0  0  0  0  0  0  0
   -5.3080   -0.2740  -20.5330 C   0  0  0  0  0  0  0  0  0  0  0  0
   -5.6880    0.0000  -22.6520 H   0  0  0  0  0  0  0  0  0  0  0  0
   -3.7370    1.4420  -23.0220 H   0  0  0  0  0  0  0  0  0  0  0  0
   -2.2800    2.0910  -21.1140 H   0  0  0  0  0  0  0  0  0  0  0  0
   -2.6270    1.0720  -18.8790 H   0  0  0  0  0  0  0  0  0  0  0  0
   -4.1750   -0.1060  -17.3030 H   0  0  0  0  0  0  0  0  0  0  0  0
   -7.7140   -1.7000  -18.6290 H   0  0  0  0  0  0  0  0  0  0  0  0
   -6.8590   -1.8890  -22.1100 H   0  0  0  0  0  0  0  0  0  0  0  0
   -8.1050   -2.2100  -20.8980 H   0  0  0  0  0  0  0  0  0  0  0  0
   -9.3750   -2.1540  -23.3640 C   0  0  0  0  0  0  0  0  0  0  0  0
  -10.6490   -2.7160  -22.7290 C   0  0  0  0  0  0  0  0  0  0  0  0
  -10.5820   -2.6640  -21.6340 H   0  0  0  0  0  0  0  0  0  0  0  0
  -10.7170   -3.7760  -23.0000 H   0  0  0  0  0  0  0  0  0  0  0  0
   -8.5140   -2.7830  -23.1240 H   0  0  0  0  0  0  0  0  0  0  0  0
   -9.4750   -2.1960  -24.4570 H   0  0  0  0  0  0  0  0  0  0  0  0
  -10.1890   -0.0980  -24.6140 H   0  0  0  0  0  0  0  0  0  0  0  0
   -9.4690    1.1690  -23.5890 H   0  0  0  0  0  0  0  0  0  0  0  0
  -11.5270    1.3460  -22.4110 H   0  0  0  0  0  0  0  0  0  0  0  0
  -13.0580   -0.4620  -22.0430 H   0  0  0  0  0  0  0  0  0  0  0  0
  -11.9360   -1.9740  -24.2700 H   0  0  0  0  0  0  0  0  0  0  0  0
  -12.9810   -3.9750  -23.0470 H   0  0  0  0  0  0  0  0  0  0  0  0
  -13.2740   -2.8880  -21.6770 H   0  0  0  0  0  0  0  0  0  0  0  0
  -14.0760   -2.6060  -23.2290 H   0  0  0  0  0  0  0  0  0  0  0  0
  1  2  1  0  0  0  0
  1 39  1  0  0  0  0
  1 40  1  0  0  0  0
  1 41  1  0  0  0  0
  2  3  1  0  0  0  0
  2 29  1  0  0  0  0
  2 38  1  6  0  0  0
  3  4  2  0  0  0  0
  3 37  1  0  0  0  0
  4  5  1  0  0  0  0
  4 36  1  0  0  0  0
  5  6  1  0  0  0  0
  5 34  1  0  0  0  0
  5 35  1  0  0  0  0
  6  7  1  0  0  0  0
  6 28  1  0  0  0  0
  7  8  2  0  0  0  0
  7  9  1  0  0  0  0
  9 10  1  0  0  0  0
  9 26  1  0  0  0  0
  9 27  1  0  0  0  0
 10 11  2  0  0  0  0
 10 19  1  0  0  0  0
 11 12  1  0  0  0  0
 11 25  1  0  0  0  0
 12 13  2  0  0  0  0
 13 14  1  0  0  0  0
 13 24  1  0  0  0  0
 14 15  2  0  0  0  0
 14 19  1  0  0  0  0
 15 16  1  0  0  0  0
 15 23  1  0  0  0  0
 16 17  2  0  0  0  0
 16 22  1  0  0  0  0
 17 18  1  0  0  0  0
 17 21  1  0  0  0  0
 18 19  2  0  0  0  0
 18 20  1  0  0  0  0
 28 29  1  0  0  0  0
 28 32  1  0  0  0  0
 28 33  1  0  0  0  0
 29 30  1  0  0  0  0
 29 31  1  0  0  0  0
M  END
>  <MODEL>
       1

$$$$
