tmp_first_model_4_47.pdb
 OpenBabel08272518513D

 58 63  0  0  1  0  0  0  0  0999 V2000
   -8.5740    0.7320  -21.3610 O   0  0  0  0  0  0  0  0  0  0  0  0
   -8.4830   -0.3890  -21.8310 C   0  0  0  0  0  0  0  0  0  0  0  0
   -7.4820   -1.4310  -21.3010 C   0  0  0  0  0  0  0  0  0  0  0  0
   -6.5100   -0.9940  -20.2340 C   0  0  0  0  0  0  0  0  0  0  0  0
   -6.7550   -1.2620  -18.9160 C   0  0  0  0  0  0  0  0  0  0  0  0
   -5.9280   -0.9830  -17.8770 N   0  0  0  0  0  0  0  0  0  0  0  0
   -4.8100   -0.3620  -18.1590 C   0  0  0  0  0  0  0  0  0  0  0  0
   -4.4480    0.0440  -19.4720 C   0  0  0  0  0  0  0  0  0  0  0  0
   -3.2890    0.8210  -19.7200 C   0  0  0  0  0  0  0  0  0  0  0  0
   -3.0650    1.3550  -20.9610 C   0  0  0  0  0  0  0  0  0  0  0  0
   -3.9240    1.0240  -22.0360 C   0  0  0  0  0  0  0  0  0  0  0  0
   -5.0060    0.2060  -21.8390 C   0  0  0  0  0  0  0  0  0  0  0  0
   -5.3180   -0.2770  -20.5430 C   0  0  0  0  0  0  0  0  0  0  0  0
   -5.7020    0.0170  -22.6580 H   0  0  0  0  0  0  0  0  0  0  0  0
   -3.7440    1.4540  -23.0160 H   0  0  0  0  0  0  0  0  0  0  0  0
   -2.2510    2.0540  -21.1240 H   0  0  0  0  0  0  0  0  0  0  0  0
   -2.6270    1.0470  -18.8870 H   0  0  0  0  0  0  0  0  0  0  0  0
   -4.1470   -0.1180  -17.3280 H   0  0  0  0  0  0  0  0  0  0  0  0
   -7.7040   -1.7160  -18.6320 H   0  0  0  0  0  0  0  0  0  0  0  0
   -6.9350   -1.8300  -22.1640 H   0  0  0  0  0  0  0  0  0  0  0  0
   -8.0840   -2.2500  -20.8860 H   0  0  0  0  0  0  0  0  0  0  0  0
   -9.3060   -0.8110  -22.8730 N   0  0  0  0  0  0  0  0  0  0  0  0
   -9.2640   -2.1250  -23.5140 C   0  0  0  0  0  0  0  0  0  0  0  0
   -8.5210   -2.1640  -24.8430 C   0  0  0  0  0  0  0  0  0  0  0  0
   -7.4240   -1.3400  -25.0960 C   0  0  0  0  0  0  0  0  0  0  0  0
   -6.7600   -1.4000  -26.3170 C   0  0  0  0  0  0  0  0  0  0  0  0
   -7.1780   -2.2800  -27.3100 C   0  0  0  0  0  0  0  0  0  0  0  0
   -8.2730   -3.0970  -27.0580 C   0  0  0  0  0  0  0  0  0  0  0  0
   -8.8200   -4.1990  -28.2960 Cl  0  0  0  0  0  0  0  0  0  0  0  0
   -8.9400   -3.0510  -25.8380 C   0  0  0  0  0  0  0  0  0  0  0  0
   -9.7990   -3.7020  -25.6810 H   0  0  0  0  0  0  0  0  0  0  0  0
   -6.6660   -2.3420  -28.2650 H   0  0  0  0  0  0  0  0  0  0  0  0
   -5.9070   -0.7510  -26.4960 H   0  0  0  0  0  0  0  0  0  0  0  0
   -7.0760   -0.6290  -24.3470 H   0  0  0  0  0  0  0  0  0  0  0  0
  -10.2890   -2.4710  -23.6790 H   0  0  0  0  0  0  0  0  0  0  0  0
   -8.8350   -2.8470  -22.8160 H   0  0  0  0  0  0  0  0  0  0  0  0
  -10.2300    0.1660  -23.4080 C   0  0  2  0  0  0  0  0  0  0  0  0
  -11.3610    0.6550  -22.4950 C   0  0  0  0  0  0  0  0  0  0  0  0
  -12.0610    1.6090  -23.4340 N   0  3  1  0  0  0  0  0  0  0  0  0
  -12.2630    2.9670  -22.9150 C   0  0  0  0  0  0  0  0  0  0  0  0
  -13.5540    3.3020  -22.2460 C   0  0  0  0  0  0  0  0  0  0  0  0
  -13.2370    3.8700  -23.5990 C   0  0  0  0  0  0  0  0  0  0  0  0
  -13.0030    4.9220  -23.6960 H   0  0  0  0  0  0  0  0  0  0  0  0
  -13.7810    3.4330  -24.4300 H   0  0  0  0  0  0  0  0  0  0  0  0
  -13.5200    3.9280  -21.3650 H   0  0  0  0  0  0  0  0  0  0  0  0
  -14.3060    2.5220  -22.2280 H   0  0  0  0  0  0  0  0  0  0  0  0
  -11.3710    3.4300  -22.5130 H   0  0  0  0  0  0  0  0  0  0  0  0
  -11.1380    1.5010  -24.6370 C   0  0  2  0  0  0  0  0  0  0  0  0
  -11.0030   -0.0260  -24.7350 C   0  0  0  0  0  0  0  0  0  0  0  0
  -10.3690   -0.3740  -25.5450 H   0  0  0  0  0  0  0  0  0  0  0  0
  -11.9380   -0.5990  -24.6790 H   0  0  0  0  0  0  0  0  0  0  0  0
   -9.7430    1.5160  -23.9920 C   0  0  0  0  0  0  0  0  0  0  0  0
   -8.9310    1.3890  -24.7030 H   0  0  0  0  0  0  0  0  0  0  0  0
   -9.5050    2.2880  -23.2550 H   0  0  0  0  0  0  0  0  0  0  0  0
  -11.4170    2.1500  -25.4590 H   0  0  0  0  0  0  0  0  0  0  0  0
  -12.9960    1.2260  -23.6770 H   0  0  0  0  0  0  0  0  0  0  0  0
  -10.9790    1.2040  -21.6400 H   0  0  0  0  0  0  0  0  0  0  0  0
  -12.0420   -0.1290  -22.1650 H   0  0  0  0  0  0  0  0  0  0  0  0
  1  2  2  0  0  0  0
  2  3  1  0  0  0  0
  2 22  1  0  0  0  0
  3  4  1  0  0  0  0
  3 20  1  0  0  0  0
  3 21  1  0  0  0  0
  4  5  2  0  0  0  0
  4 13  1  0  0  0  0
  5  6  1  0  0  0  0
  5 19  1  0  0  0  0
  6  7  2  0  0  0  0
  7  8  1  0  0  0  0
  7 18  1  0  0  0  0
  8  9  2  0  0  0  0
  8 13  1  0  0  0  0
  9 10  1  0  0  0  0
  9 17  1  0  0  0  0
 10 11  2  0  0  0  0
 10 16  1  0  0  0  0
 11 12  1  0  0  0  0
 11 15  1  0  0  0  0
 12 13  2  0  0  0  0
 12 14  1  0  0  0  0
 22 23  1  0  0  0  0
 23 24  1  0  0  0  0
 23 35  1  0  0  0  0
 23 36  1  0  0  0  0
 24 25  2  0  0  0  0
 24 30  1  0  0  0  0
 25 26  1  0  0  0  0
 25 34  1  0  0  0  0
 26 27  2  0  0  0  0
 26 33  1  0  0  0  0
 27 28  1  0  0  0  0
 27 32  1  0  0  0  0
 28 29  1  0  0  0  0
 28 30  2  0  0  0  0
 30 31  1  0  0  0  0
 37 22  1  1  0  0  0
 37 38  1  0  0  0  0
 37 49  1  0  0  0  0
 37 52  1  0  0  0  0
 38 39  1  0  0  0  0
 38 57  1  0  0  0  0
 38 58  1  0  0  0  0
 39 40  1  0  0  0  0
 39 48  1  0  0  0  0
 39 56  1  6  0  0  0
 40 41  1  0  0  0  0
 40 42  1  0  0  0  0
 40 47  1  0  0  0  0
 41 42  1  0  0  0  0
 41 45  1  0  0  0  0
 41 46  1  0  0  0  0
 42 43  1  0  0  0  0
 42 44  1  0  0  0  0
 48 49  1  0  0  0  0
 48 52  1  0  0  0  0
 48 55  1  6  0  0  0
 49 50  1  0  0  0  0
 49 51  1  0  0  0  0
 52 53  1  0  0  0  0
 52 54  1  0  0  0  0
M  CHG  1  39   1
M  END
>  <MODEL>
       1

$$$$
