tmp_first_model_4_81.pdb
 OpenBabel08272518513D

 36 38  0  0  0  0  0  0  0  0999 V2000
   -8.5330    0.7470  -21.4230 O   0  0  0  0  0  0  0  0  0  0  0  0
   -8.3930   -0.3670  -21.8940 C   0  0  0  0  0  0  0  0  0  0  0  0
   -7.4550   -1.4290  -21.3020 C   0  0  0  0  0  0  0  0  0  0  0  0
   -6.4990   -0.9960  -20.2260 C   0  0  0  0  0  0  0  0  0  0  0  0
   -6.7560   -1.2650  -18.9120 C   0  0  0  0  0  0  0  0  0  0  0  0
   -5.9260   -0.9930  -17.8730 N   0  0  0  0  0  0  0  0  0  0  0  0
   -4.8100   -0.3690  -18.1540 C   0  0  0  0  0  0  0  0  0  0  0  0
   -4.4380    0.0340  -19.4650 C   0  0  0  0  0  0  0  0  0  0  0  0
   -3.2840    0.8260  -19.7130 C   0  0  0  0  0  0  0  0  0  0  0  0
   -3.0600    1.3510  -20.9600 C   0  0  0  0  0  0  0  0  0  0  0  0
   -3.9170    1.0180  -22.0330 C   0  0  0  0  0  0  0  0  0  0  0  0
   -4.9940    0.1940  -21.8410 C   0  0  0  0  0  0  0  0  0  0  0  0
   -5.3110   -0.2770  -20.5360 C   0  0  0  0  0  0  0  0  0  0  0  0
   -5.6890    0.0010  -22.6540 H   0  0  0  0  0  0  0  0  0  0  0  0
   -3.7400    1.4430  -23.0200 H   0  0  0  0  0  0  0  0  0  0  0  0
   -2.2740    2.0810  -21.1150 H   0  0  0  0  0  0  0  0  0  0  0  0
   -2.6220    1.0540  -18.8820 H   0  0  0  0  0  0  0  0  0  0  0  0
   -4.1630   -0.1250  -17.3110 H   0  0  0  0  0  0  0  0  0  0  0  0
   -7.7130   -1.7040  -18.6350 H   0  0  0  0  0  0  0  0  0  0  0  0
   -6.8810   -1.8800  -22.1200 H   0  0  0  0  0  0  0  0  0  0  0  0
   -8.1110   -2.2070  -20.8980 H   0  0  0  0  0  0  0  0  0  0  0  0
   -9.0580   -0.7640  -23.0470 N   0  0  0  0  0  0  0  0  0  0  0  0
   -9.9870    0.1870  -23.6300 C   0  0  0  0  0  0  0  0  0  0  0  0
  -11.3680    0.1830  -23.0260 C   0  0  0  0  0  0  0  0  0  0  0  0
  -12.0130   -0.8010  -22.3920 C   0  0  0  0  0  0  0  0  0  0  0  0
  -11.5690   -2.1810  -22.1250 C   0  0  0  0  0  0  0  0  0  0  0  0
  -10.4490   -2.7770  -22.5420 C   0  0  0  0  0  0  0  0  0  0  0  0
   -9.3520   -2.1530  -23.3740 C   0  0  0  0  0  0  0  0  0  0  0  0
   -8.4430   -2.7600  -23.3030 H   0  0  0  0  0  0  0  0  0  0  0  0
   -9.6320   -2.1660  -24.4370 H   0  0  0  0  0  0  0  0  0  0  0  0
  -10.3030   -3.8240  -22.2790 H   0  0  0  0  0  0  0  0  0  0  0  0
  -12.2800   -2.7730  -21.5500 H   0  0  0  0  0  0  0  0  0  0  0  0
  -13.0150   -0.5820  -22.0210 H   0  0  0  0  0  0  0  0  0  0  0  0
  -11.8760    1.1420  -23.1130 H   0  0  0  0  0  0  0  0  0  0  0  0
  -10.0430   -0.0190  -24.7100 H   0  0  0  0  0  0  0  0  0  0  0  0
   -9.5520    1.1820  -23.5170 H   0  0  0  0  0  0  0  0  0  0  0  0
  1  2  2  0  0  0  0
  2  3  1  0  0  0  0
  2 22  1  0  0  0  0
  3  4  1  0  0  0  0
  3 20  1  0  0  0  0
  3 21  1  0  0  0  0
  4  5  2  0  0  0  0
  4 13  1  0  0  0  0
  5  6  1  0  0  0  0
  5 19  1  0  0  0  0
  6  7  2  0  0  0  0
  7  8  1  0  0  0  0
  7 18  1  0  0  0  0
  8  9  2  0  0  0  0
  8 13  1  0  0  0  0
  9 10  1  0  0  0  0
  9 17  1  0  0  0  0
 10 11  2  0  0  0  0
 10 16  1  0  0  0  0
 11 12  1  0  0  0  0
 11 15  1  0  0  0  0
 12 13  2  0  0  0  0
 12 14  1  0  0  0  0
 22 23  1  0  0  0  0
 22 28  1  0  0  0  0
 23 24  1  0  0  0  0
 23 35  1  0  0  0  0
 23 36  1  0  0  0  0
 24 25  2  0  0  0  0
 24 34  1  0  0  0  0
 25 26  1  0  0  0  0
 25 33  1  0  0  0  0
 26 27  2  0  0  0  0
 26 32  1  0  0  0  0
 27 28  1  0  0  0  0
 27 31  1  0  0  0  0
 28 29  1  0  0  0  0
 28 30  1  0  0  0  0
M  END
>  <MODEL>
       1

$$$$
