tmp_first_model_13_70.pdb
 OpenBabel08282500103D

 52 54  0  0  0  0  0  0  0  0999 V2000
   -5.6960    2.0500  -27.4780 C   0  0  0  0  0  0  0  0  0  0  0  0
   -6.5930    2.0650  -26.2400 C   0  0  0  0  0  0  0  0  0  0  0  0
   -6.0200    3.0280  -25.2000 C   0  0  0  0  0  0  0  0  0  0  0  0
   -5.8800    4.0310  -25.6160 H   0  0  0  0  0  0  0  0  0  0  0  0
   -6.6810    3.1180  -24.3300 H   0  0  0  0  0  0  0  0  0  0  0  0
   -5.0420    2.6910  -24.8380 H   0  0  0  0  0  0  0  0  0  0  0  0
   -6.7970    0.6560  -25.6500 C   0  0  0  0  0  0  0  0  0  0  0  0
   -8.1360   -0.0760  -25.9430 C   0  0  0  0  0  0  0  0  0  0  0  0
   -8.3260   -0.2020  -27.4590 C   0  0  0  0  0  0  0  0  0  0  0  0
   -7.4860   -0.7290  -27.9280 H   0  0  0  0  0  0  0  0  0  0  0  0
   -9.2350   -0.7630  -27.7010 H   0  0  0  0  0  0  0  0  0  0  0  0
   -8.4150    0.7730  -27.9500 H   0  0  0  0  0  0  0  0  0  0  0  0
   -9.3350    0.6690  -25.3360 C   0  0  0  0  0  0  0  0  0  0  0  0
   -9.2640    0.8010  -23.8120 C   0  0  0  0  0  0  0  0  0  0  0  0
   -8.7410   -0.4170  -23.1890 N   0  0  0  0  0  0  0  0  0  0  0  0
   -8.4190   -0.3580  -21.8550 C   0  0  0  0  0  0  0  0  0  0  0  0
   -8.8620    0.5200  -21.1340 O   0  0  0  0  0  0  0  0  0  0  0  0
   -7.4420   -1.4080  -21.2780 C   0  0  0  0  0  0  0  0  0  0  0  0
   -6.5780   -0.8300  -20.1790 C   0  0  0  0  0  0  0  0  0  0  0  0
   -6.8770   -1.0390  -18.8580 C   0  0  0  0  0  0  0  0  0  0  0  0
   -6.1850   -0.5350  -17.8010 N   0  0  0  0  0  0  0  0  0  0  0  0
   -5.1530    0.2230  -18.0660 C   0  0  0  0  0  0  0  0  0  0  0  0
   -4.7200    0.5370  -19.3820 C   0  0  0  0  0  0  0  0  0  0  0  0
   -3.5980    1.3720  -19.6230 C   0  0  0  0  0  0  0  0  0  0  0  0
   -3.2110    1.6640  -20.9020 C   0  0  0  0  0  0  0  0  0  0  0  0
   -3.9340    1.1300  -21.9930 C   0  0  0  0  0  0  0  0  0  0  0  0
   -5.0220    0.3170  -21.7840 C   0  0  0  0  0  0  0  0  0  0  0  0
   -5.4510   -0.0020  -20.4710 C   0  0  0  0  0  0  0  0  0  0  0  0
   -5.5590   -0.0880  -22.6360 H   0  0  0  0  0  0  0  0  0  0  0  0
   -3.6180    1.3650  -23.0050 H   0  0  0  0  0  0  0  0  0  0  0  0
   -2.3590    2.3120  -21.0890 H   0  0  0  0  0  0  0  0  0  0  0  0
   -3.0580    1.7820  -18.7720 H   0  0  0  0  0  0  0  0  0  0  0  0
   -4.6000    0.6280  -17.2150 H   0  0  0  0  0  0  0  0  0  0  0  0
   -7.7290   -1.6600  -18.5820 H   0  0  0  0  0  0  0  0  0  0  0  0
   -8.0440   -2.2260  -20.8590 H   0  0  0  0  0  0  0  0  0  0  0  0
   -6.8140   -1.8460  -22.0650 H   0  0  0  0  0  0  0  0  0  0  0  0
   -8.8430   -1.6260  -23.9900 C   0  0  0  0  0  0  0  0  0  0  0  0
   -8.0960   -1.4980  -25.3230 C   0  0  0  0  0  0  0  0  0  0  0  0
   -7.0560   -1.8090  -25.1900 H   0  0  0  0  0  0  0  0  0  0  0  0
   -8.5320   -2.2260  -26.0170 H   0  0  0  0  0  0  0  0  0  0  0  0
   -9.8990   -1.8540  -24.1880 H   0  0  0  0  0  0  0  0  0  0  0  0
   -8.4630   -2.4710  -23.4170 H   0  0  0  0  0  0  0  0  0  0  0  0
  -10.2510    1.0600  -23.4100 H   0  0  0  0  0  0  0  0  0  0  0  0
   -8.6100    1.6390  -23.5470 H   0  0  0  0  0  0  0  0  0  0  0  0
   -9.4270    1.6640  -25.7820 H   0  0  0  0  0  0  0  0  0  0  0  0
  -10.2610    0.1550  -25.6230 H   0  0  0  0  0  0  0  0  0  0  0  0
   -6.6620    0.6900  -24.5620 H   0  0  0  0  0  0  0  0  0  0  0  0
   -5.9790    0.0150  -26.0020 H   0  0  0  0  0  0  0  0  0  0  0  0
   -7.5620    2.4730  -26.5470 H   0  0  0  0  0  0  0  0  0  0  0  0
   -5.6120    3.0480  -27.9220 H   0  0  0  0  0  0  0  0  0  0  0  0
   -6.0660    1.3700  -28.2520 H   0  0  0  0  0  0  0  0  0  0  0  0
   -4.6800    1.7300  -27.2200 H   0  0  0  0  0  0  0  0  0  0  0  0
  1  2  1  0  0  0  0
  1 50  1  0  0  0  0
  1 51  1  0  0  0  0
  1 52  1  0  0  0  0
  2  3  1  0  0  0  0
  2  7  1  0  0  0  0
  2 49  1  0  0  0  0
  3  4  1  0  0  0  0
  3  5  1  0  0  0  0
  3  6  1  0  0  0  0
  7  8  1  0  0  0  0
  7 47  1  0  0  0  0
  7 48  1  0  0  0  0
  8  9  1  0  0  0  0
  8 13  1  0  0  0  0
  8 38  1  0  0  0  0
  9 10  1  0  0  0  0
  9 11  1  0  0  0  0
  9 12  1  0  0  0  0
 13 14  1  0  0  0  0
 13 45  1  0  0  0  0
 13 46  1  0  0  0  0
 14 15  1  0  0  0  0
 14 43  1  0  0  0  0
 14 44  1  0  0  0  0
 15 16  1  0  0  0  0
 15 37  1  0  0  0  0
 16 17  2  0  0  0  0
 16 18  1  0  0  0  0
 18 19  1  0  0  0  0
 18 35  1  0  0  0  0
 18 36  1  0  0  0  0
 19 20  2  0  0  0  0
 19 28  1  0  0  0  0
 20 21  1  0  0  0  0
 20 34  1  0  0  0  0
 21 22  2  0  0  0  0
 22 23  1  0  0  0  0
 22 33  1  0  0  0  0
 23 24  2  0  0  0  0
 23 28  1  0  0  0  0
 24 25  1  0  0  0  0
 24 32  1  0  0  0  0
 25 26  2  0  0  0  0
 25 31  1  0  0  0  0
 26 27  1  0  0  0  0
 26 30  1  0  0  0  0
 27 28  2  0  0  0  0
 27 29  1  0  0  0  0
 37 38  1  0  0  0  0
 37 41  1  0  0  0  0
 37 42  1  0  0  0  0
 38 39  1  0  0  0  0
 38 40  1  0  0  0  0
M  END
>  <MODEL>
       1

$$$$
