tmp_first_model_12_66.pdb
 OpenBabel08272523333D

 44 47  0  0  1  0  0  0  0  0999 V2000
   -6.7970   -2.9180  -25.6330 C   0  0  0  0  0  0  0  0  0  0  0  0
   -7.7550   -2.1120  -24.7590 C   0  0  0  0  0  0  0  0  0  0  0  0
   -8.4600   -2.9160  -23.6320 C   0  0  1  0  0  0  0  0  0  0  0  0
   -9.3810   -3.9750  -24.2110 C   0  0  0  0  0  0  0  0  0  0  0  0
  -10.4090   -3.7740  -25.1970 C   0  0  0  0  0  0  0  0  0  0  0  0
  -10.9840   -4.9350  -25.6100 C   0  0  0  0  0  0  0  0  0  0  0  0
  -10.3290   -6.2940  -24.7870 S   0  0  0  0  0  0  0  0  0  0  0  0
   -9.2510   -5.2870  -23.8850 C   0  0  0  0  0  0  0  0  0  0  0  0
   -8.2630   -5.8300  -22.8970 C   0  0  0  0  0  0  0  0  0  0  0  0
   -7.0630   -4.8940  -22.8630 C   0  0  0  0  0  0  0  0  0  0  0  0
   -7.5170   -3.5140  -22.6630 N   0  0  0  0  0  0  0  0  0  0  0  0
   -6.7460   -2.7570  -21.8090 C   0  0  0  0  0  0  0  0  0  0  0  0
   -5.6380   -3.1100  -21.4490 O   0  0  0  0  0  0  0  0  0  0  0  0
   -7.3970   -1.4760  -21.2720 C   0  0  0  0  0  0  0  0  0  0  0  0
   -6.6040   -0.8060  -20.1860 C   0  0  0  0  0  0  0  0  0  0  0  0
   -6.8870   -1.0610  -18.8680 C   0  0  0  0  0  0  0  0  0  0  0  0
   -6.2030   -0.5790  -17.7990 N   0  0  0  0  0  0  0  0  0  0  0  0
   -5.1870    0.2130  -18.0550 C   0  0  0  0  0  0  0  0  0  0  0  0
   -4.7750    0.5740  -19.3710 C   0  0  0  0  0  0  0  0  0  0  0  0
   -3.6420    1.3950  -19.5940 C   0  0  0  0  0  0  0  0  0  0  0  0
   -3.2650    1.7230  -20.8700 C   0  0  0  0  0  0  0  0  0  0  0  0
   -4.0320    1.2790  -21.9740 C   0  0  0  0  0  0  0  0  0  0  0  0
   -5.1100    0.4440  -21.7780 C   0  0  0  0  0  0  0  0  0  0  0  0
   -5.5040    0.0590  -20.4690 C   0  0  0  0  0  0  0  0  0  0  0  0
   -5.6580    0.0580  -22.6360 H   0  0  0  0  0  0  0  0  0  0  0  0
   -3.7400    1.5690  -22.9810 H   0  0  0  0  0  0  0  0  0  0  0  0
   -2.3850    2.3330  -21.0470 H   0  0  0  0  0  0  0  0  0  0  0  0
   -3.0630    1.7270  -18.7320 H   0  0  0  0  0  0  0  0  0  0  0  0
   -4.6240    0.6050  -17.2080 H   0  0  0  0  0  0  0  0  0  0  0  0
   -7.7320   -1.7030  -18.6160 H   0  0  0  0  0  0  0  0  0  0  0  0
   -8.3790   -1.7690  -20.8760 H   0  0  0  0  0  0  0  0  0  0  0  0
   -7.5840   -0.7960  -22.1100 H   0  0  0  0  0  0  0  0  0  0  0  0
   -6.4960   -4.9680  -23.8010 H   0  0  0  0  0  0  0  0  0  0  0  0
   -6.3800   -5.1330  -22.0410 H   0  0  0  0  0  0  0  0  0  0  0  0
   -8.7300   -5.8800  -21.9040 H   0  0  0  0  0  0  0  0  0  0  0  0
   -7.9630   -6.8460  -23.1710 H   0  0  0  0  0  0  0  0  0  0  0  0
  -11.7480   -5.0900  -26.3640 H   0  0  0  0  0  0  0  0  0  0  0  0
  -10.7030   -2.7940  -25.5610 H   0  0  0  0  0  0  0  0  0  0  0  0
   -9.0700   -2.1860  -23.0690 H   0  0  0  0  0  0  0  0  0  0  0  0
   -7.2310   -1.2450  -24.3420 H   0  0  0  0  0  0  0  0  0  0  0  0
   -8.5640   -1.7160  -25.3820 H   0  0  0  0  0  0  0  0  0  0  0  0
   -5.9130   -3.2640  -25.0860 H   0  0  0  0  0  0  0  0  0  0  0  0
   -7.2980   -3.7900  -26.0650 H   0  0  0  0  0  0  0  0  0  0  0  0
   -6.4290   -2.3050  -26.4630 H   0  0  0  0  0  0  0  0  0  0  0  0
  1  2  1  0  0  0  0
  1 42  1  0  0  0  0
  1 43  1  0  0  0  0
  1 44  1  0  0  0  0
  2  3  1  0  0  0  0
  2 40  1  0  0  0  0
  2 41  1  0  0  0  0
  3  4  1  0  0  0  0
  3 11  1  0  0  0  0
  3 39  1  1  0  0  0
  4  5  1  0  0  0  0
  4  8  2  0  0  0  0
  5  6  2  0  0  0  0
  5 38  1  0  0  0  0
  6  7  1  0  0  0  0
  6 37  1  0  0  0  0
  7  8  1  0  0  0  0
  8  9  1  0  0  0  0
  9 10  1  0  0  0  0
  9 35  1  0  0  0  0
  9 36  1  0  0  0  0
 10 11  1  0  0  0  0
 10 33  1  0  0  0  0
 10 34  1  0  0  0  0
 11 12  1  0  0  0  0
 12 13  2  0  0  0  0
 12 14  1  0  0  0  0
 14 15  1  0  0  0  0
 14 31  1  0  0  0  0
 14 32  1  0  0  0  0
 15 16  2  0  0  0  0
 15 24  1  0  0  0  0
 16 17  1  0  0  0  0
 16 30  1  0  0  0  0
 17 18  2  0  0  0  0
 18 19  1  0  0  0  0
 18 29  1  0  0  0  0
 19 20  2  0  0  0  0
 19 24  1  0  0  0  0
 20 21  1  0  0  0  0
 20 28  1  0  0  0  0
 21 22  2  0  0  0  0
 21 27  1  0  0  0  0
 22 23  1  0  0  0  0
 22 26  1  0  0  0  0
 23 24  2  0  0  0  0
 23 25  1  0  0  0  0
M  END
>  <MODEL>
       1

$$$$
