tmp_first_model_6_43.pdb
 OpenBabel08272519583D

 67 72  0  0  1  0  0  0  0  0999 V2000
   -7.3820    3.4030  -21.8230 C   0  0  0  0  0  0  0  0  0  0  0  0
   -8.2550    2.9550  -22.8900 N   0  0  0  0  0  0  0  0  0  0  0  0
   -7.6970    2.2480  -23.9060 C   0  0  0  0  0  0  0  0  0  0  0  0
   -6.4880    2.1130  -24.0160 O   0  0  0  0  0  0  0  0  0  0  0  0
   -8.6520    1.6340  -24.9270 C   0  0  0  0  0  0  0  0  0  0  0  0
   -9.3520    0.4840  -24.3980 N   0  0  0  0  0  0  0  0  0  0  0  0
   -8.6270   -0.7590  -24.2300 C   0  0  0  0  0  0  0  0  0  0  0  0
   -9.0280   -1.4970  -22.9310 C   0  0  2  0  0  0  0  0  0  0  0  0
   -8.5000   -0.7250  -21.6990 C   0  0  0  0  0  0  0  0  0  0  0  0
   -8.9560    0.2950  -21.2250 O   0  0  0  0  0  0  0  0  0  0  0  0
   -7.4000   -1.3840  -21.2030 N   0  0  0  0  0  0  0  0  0  0  0  0
   -6.6070   -0.8090  -20.1770 C   0  0  0  0  0  0  0  0  0  0  0  0
   -6.9150   -1.0530  -18.8630 C   0  0  0  0  0  0  0  0  0  0  0  0
   -6.2170   -0.5660  -17.8090 N   0  0  0  0  0  0  0  0  0  0  0  0
   -5.1850    0.2040  -18.0690 C   0  0  0  0  0  0  0  0  0  0  0  0
   -4.7560    0.5440  -19.3840 C   0  0  0  0  0  0  0  0  0  0  0  0
   -3.6270    1.3760  -19.6220 C   0  0  0  0  0  0  0  0  0  0  0  0
   -3.2490    1.6900  -20.9010 C   0  0  0  0  0  0  0  0  0  0  0  0
   -3.9930    1.2040  -22.0000 C   0  0  0  0  0  0  0  0  0  0  0  0
   -5.0790    0.3830  -21.7960 C   0  0  0  0  0  0  0  0  0  0  0  0
   -5.4880    0.0290  -20.4810 C   0  0  0  0  0  0  0  0  0  0  0  0
   -5.6200   -0.0070  -22.6540 H   0  0  0  0  0  0  0  0  0  0  0  0
   -3.6950    1.4470  -23.0150 H   0  0  0  0  0  0  0  0  0  0  0  0
   -2.3790    2.3150  -21.0800 H   0  0  0  0  0  0  0  0  0  0  0  0
   -3.0740    1.7510  -18.7660 H   0  0  0  0  0  0  0  0  0  0  0  0
   -4.6220    0.5960  -17.2210 H   0  0  0  0  0  0  0  0  0  0  0  0
   -7.7770   -1.6720  -18.6210 H   0  0  0  0  0  0  0  0  0  0  0  0
   -7.0420   -2.5810  -21.9320 C   0  0  0  0  0  0  0  0  0  0  0  0
   -8.2910   -2.8640  -22.7870 C   0  0  2  0  0  0  0  0  0  0  0  0
   -7.9320   -3.6300  -24.0740 C   0  0  0  0  0  0  0  0  0  0  0  0
   -7.3860   -4.9320  -23.7720 N   0  0  0  0  0  0  0  0  0  0  0  0
   -6.0630   -5.2770  -23.7950 C   0  0  0  0  0  0  0  0  0  0  0  0
   -4.8130   -4.2320  -24.4150 S   0  0  0  0  0  0  0  0  0  0  0  0
   -3.6560   -5.4620  -23.9960 C   0  0  0  0  0  0  0  0  0  0  0  0
   -4.1460   -6.5340  -23.4680 N   0  0  0  0  0  0  0  0  0  0  0  0
   -5.5210   -6.4530  -23.3570 C   0  0  0  0  0  0  0  0  0  0  0  0
   -6.3090   -7.5960  -22.7870 C   0  0  0  0  0  0  0  0  0  0  0  0
   -7.0250   -8.0220  -23.5030 H   0  0  0  0  0  0  0  0  0  0  0  0
   -6.8730   -7.3110  -21.8880 H   0  0  0  0  0  0  0  0  0  0  0  0
   -5.6160   -8.3890  -22.5050 H   0  0  0  0  0  0  0  0  0  0  0  0
   -2.6000   -5.3060  -24.1810 H   0  0  0  0  0  0  0  0  0  0  0  0
   -8.0350   -5.6550  -23.5040 H   0  0  0  0  0  0  0  0  0  0  0  0
   -8.8190   -3.7560  -24.7080 H   0  0  0  0  0  0  0  0  0  0  0  0
   -7.1910   -3.0680  -24.6490 H   0  0  0  0  0  0  0  0  0  0  0  0
   -8.9530   -3.5150  -22.2110 H   0  0  0  0  0  0  0  0  0  0  0  0
   -6.1530   -2.4170  -22.5580 H   0  0  0  0  0  0  0  0  0  0  0  0
   -6.8090   -3.4040  -21.2480 H   0  0  0  0  0  0  0  0  0  0  0  0
  -10.5460   -1.5410  -22.8700 C   0  0  0  0  0  0  0  0  0  0  0  0
  -11.2010   -2.3720  -21.9540 C   0  0  0  0  0  0  0  0  0  0  0  0
  -12.5820   -2.3200  -21.8340 C   0  0  0  0  0  0  0  0  0  0  0  0
  -13.3540   -3.1910  -20.5410 Cl  0  0  0  0  0  0  0  0  0  0  0  0
  -13.3710   -1.5160  -22.6620 C   0  0  0  0  0  0  0  0  0  0  0  0
  -12.7250   -0.6570  -23.5270 C   0  0  0  0  0  0  0  0  0  0  0  0
  -11.3320   -0.6290  -23.5870 C   0  0  0  0  0  0  0  0  0  0  0  0
  -10.7140    0.5220  -24.3180 C   0  0  0  0  0  0  0  0  0  0  0  0
  -11.3860    1.4460  -24.7520 O   0  0  0  0  0  0  0  0  0  0  0  0
  -13.2640    0.0600  -24.1370 H   0  0  0  0  0  0  0  0  0  0  0  0
  -14.4580   -1.5490  -22.6020 H   0  0  0  0  0  0  0  0  0  0  0  0
  -10.6410   -3.0590  -21.3260 H   0  0  0  0  0  0  0  0  0  0  0  0
   -7.5580   -0.5280  -24.2200 H   0  0  0  0  0  0  0  0  0  0  0  0
   -8.8350   -1.4150  -25.0840 H   0  0  0  0  0  0  0  0  0  0  0  0
   -8.0390    1.3560  -25.7920 H   0  0  0  0  0  0  0  0  0  0  0  0
   -9.4220    2.3510  -25.2200 H   0  0  0  0  0  0  0  0  0  0  0  0
   -9.2270    2.8130  -22.6640 H   0  0  0  0  0  0  0  0  0  0  0  0
   -6.7990    2.5650  -21.4300 H   0  0  0  0  0  0  0  0  0  0  0  0
   -6.6780    4.1420  -22.2030 H   0  0  0  0  0  0  0  0  0  0  0  0
   -7.9640    3.8530  -21.0190 H   0  0  0  0  0  0  0  0  0  0  0  0
  1  2  1  0  0  0  0
  1 65  1  0  0  0  0
  1 66  1  0  0  0  0
  1 67  1  0  0  0  0
  2  3  1  0  0  0  0
  2 64  1  0  0  0  0
  3  4  2  0  0  0  0
  3  5  1  0  0  0  0
  5  6  1  0  0  0  0
  5 62  1  0  0  0  0
  5 63  1  0  0  0  0
  6  7  1  0  0  0  0
  6 55  1  0  0  0  0
  7  8  1  0  0  0  0
  7 60  1  0  0  0  0
  7 61  1  0  0  0  0
  8  9  1  1  0  0  0
  8 29  1  0  0  0  0
  8 48  1  0  0  0  0
  9 10  2  0  0  0  0
  9 11  1  0  0  0  0
 11 12  1  0  0  0  0
 11 28  1  0  0  0  0
 12 13  2  0  0  0  0
 12 21  1  0  0  0  0
 13 14  1  0  0  0  0
 13 27  1  0  0  0  0
 14 15  2  0  0  0  0
 15 16  1  0  0  0  0
 15 26  1  0  0  0  0
 16 17  2  0  0  0  0
 16 21  1  0  0  0  0
 17 18  1  0  0  0  0
 17 25  1  0  0  0  0
 18 19  2  0  0  0  0
 18 24  1  0  0  0  0
 19 20  1  0  0  0  0
 19 23  1  0  0  0  0
 20 21  2  0  0  0  0
 20 22  1  0  0  0  0
 28 29  1  0  0  0  0
 28 46  1  0  0  0  0
 28 47  1  0  0  0  0
 29 30  1  0  0  0  0
 29 45  1  1  0  0  0
 30 31  1  0  0  0  0
 30 43  1  0  0  0  0
 30 44  1  0  0  0  0
 31 32  1  0  0  0  0
 31 42  1  0  0  0  0
 32 33  1  0  0  0  0
 32 36  2  0  0  0  0
 33 34  1  0  0  0  0
 34 35  2  0  0  0  0
 34 41  1  0  0  0  0
 35 36  1  0  0  0  0
 36 37  1  0  0  0  0
 37 38  1  0  0  0  0
 37 39  1  0  0  0  0
 37 40  1  0  0  0  0
 48 49  2  0  0  0  0
 48 54  1  0  0  0  0
 49 50  1  0  0  0  0
 49 59  1  0  0  0  0
 50 51  1  0  0  0  0
 50 52  2  0  0  0  0
 52 53  1  0  0  0  0
 52 58  1  0  0  0  0
 53 54  2  0  0  0  0
 53 57  1  0  0  0  0
 54 55  1  0  0  0  0
 55 56  2  0  0  0  0
M  END
>  <MODEL>
       1

$$$$
