tmp_first_model_2_8.pdb
 OpenBabel08272517383D

 60 64  0  0  1  0  0  0  0  0999 V2000
  -14.9080   -2.0510  -24.0460 C   0  0  0  0  0  0  0  0  0  0  0  0
  -14.0140   -2.9980  -23.4290 N   0  0  0  0  0  0  0  0  0  0  0  0
  -13.2930   -2.6370  -22.3370 C   0  0  0  0  0  0  0  0  0  0  0  0
  -13.2730   -1.4960  -21.8950 O   0  0  0  0  0  0  0  0  0  0  0  0
  -12.4990   -3.7650  -21.6880 C   0  0  0  0  0  0  0  0  0  0  0  0
  -11.1400   -3.8330  -22.2180 N   0  0  0  0  0  0  0  0  0  0  0  0
  -10.0070   -3.2680  -21.4970 C   0  0  0  0  0  0  0  0  0  0  0  0
   -8.8080   -2.8340  -22.3890 C   0  0  2  0  0  0  0  0  0  0  0  0
   -7.6260   -2.6600  -21.4260 C   0  0  0  0  0  0  0  0  0  0  0  0
   -6.9950   -3.5360  -20.8680 O   0  0  0  0  0  0  0  0  0  0  0  0
   -7.4040   -1.3140  -21.2410 N   0  0  0  0  0  0  0  0  0  0  0  0
   -6.5940   -0.8550  -20.1800 C   0  0  0  0  0  0  0  0  0  0  0  0
   -6.9010   -1.1450  -18.8760 C   0  0  0  0  0  0  0  0  0  0  0  0
   -6.2520   -0.6060  -17.8120 N   0  0  0  0  0  0  0  0  0  0  0  0
   -5.2500    0.2030  -18.0620 C   0  0  0  0  0  0  0  0  0  0  0  0
   -4.7850    0.5270  -19.3710 C   0  0  0  0  0  0  0  0  0  0  0  0
   -3.6620    1.3620  -19.6110 C   0  0  0  0  0  0  0  0  0  0  0  0
   -3.2510    1.6180  -20.8920 C   0  0  0  0  0  0  0  0  0  0  0  0
   -3.9370    1.0590  -21.9940 C   0  0  0  0  0  0  0  0  0  0  0  0
   -5.0260    0.2520  -21.7880 C   0  0  0  0  0  0  0  0  0  0  0  0
   -5.4760   -0.0210  -20.4710 C   0  0  0  0  0  0  0  0  0  0  0  0
   -5.5510   -0.1980  -22.6250 H   0  0  0  0  0  0  0  0  0  0  0  0
   -3.5990    1.2710  -23.0050 H   0  0  0  0  0  0  0  0  0  0  0  0
   -2.3880    2.2520  -21.0730 H   0  0  0  0  0  0  0  0  0  0  0  0
   -3.1360    1.7830  -18.7580 H   0  0  0  0  0  0  0  0  0  0  0  0
   -4.7430    0.6380  -17.1990 H   0  0  0  0  0  0  0  0  0  0  0  0
   -7.7150   -1.8310  -18.6460 H   0  0  0  0  0  0  0  0  0  0  0  0
   -8.3980   -0.4620  -21.8810 C   0  0  0  0  0  0  0  0  0  0  0  0
   -8.9650   -1.3840  -22.9720 C   0  0  2  0  0  0  0  0  0  0  0  0
  -10.3860   -1.0450  -23.3930 C   0  0  0  0  0  0  0  0  0  0  0  0
  -10.5000    0.2210  -24.0030 O   0  0  0  0  0  0  0  0  0  0  0  0
  -11.8690    0.4400  -24.2780 C   0  0  0  0  0  0  0  0  0  0  0  0
  -12.4800    0.2890  -23.3740 H   0  0  0  0  0  0  0  0  0  0  0  0
  -12.2180   -0.2760  -25.0400 H   0  0  0  0  0  0  0  0  0  0  0  0
  -12.0070    1.4580  -24.6530 H   0  0  0  0  0  0  0  0  0  0  0  0
  -10.7390   -1.8170  -24.0920 H   0  0  0  0  0  0  0  0  0  0  0  0
  -11.0530   -1.0590  -22.5200 H   0  0  0  0  0  0  0  0  0  0  0  0
   -8.3070   -1.3220  -23.8480 H   0  0  0  0  0  0  0  0  0  0  0  0
   -9.1620   -0.1440  -21.1500 H   0  0  0  0  0  0  0  0  0  0  0  0
   -7.9300    0.4390  -22.2880 H   0  0  0  0  0  0  0  0  0  0  0  0
   -8.5560   -3.9040  -23.4280 C   0  0  0  0  0  0  0  0  0  0  0  0
   -7.2810   -4.1150  -23.9730 C   0  0  0  0  0  0  0  0  0  0  0  0
   -7.0930   -5.0990  -24.9300 C   0  0  0  0  0  0  0  0  0  0  0  0
   -5.5090   -5.3470  -25.6030 Cl  0  0  0  0  0  0  0  0  0  0  0  0
   -8.1420   -5.8980  -25.3850 C   0  0  0  0  0  0  0  0  0  0  0  0
   -9.4030   -5.6650  -24.8680 C   0  0  0  0  0  0  0  0  0  0  0  0
   -9.6140   -4.6860  -23.9020 C   0  0  0  0  0  0  0  0  0  0  0  0
  -11.0020   -4.4900  -23.3950 C   0  0  0  0  0  0  0  0  0  0  0  0
  -11.9940   -4.8710  -24.0160 O   0  0  0  0  0  0  0  0  0  0  0  0
  -10.2550   -6.2420  -25.2030 H   0  0  0  0  0  0  0  0  0  0  0  0
   -7.9660   -6.6870  -26.1130 H   0  0  0  0  0  0  0  0  0  0  0  0
   -6.4320   -3.5230  -23.6420 H   0  0  0  0  0  0  0  0  0  0  0  0
   -9.6260   -4.0000  -20.7860 H   0  0  0  0  0  0  0  0  0  0  0  0
  -10.3570   -2.4020  -20.9230 H   0  0  0  0  0  0  0  0  0  0  0  0
  -13.0240   -4.6930  -21.9140 H   0  0  0  0  0  0  0  0  0  0  0  0
  -12.4860   -3.6430  -20.6070 H   0  0  0  0  0  0  0  0  0  0  0  0
  -13.7050   -3.8120  -23.9400 H   0  0  0  0  0  0  0  0  0  0  0  0
  -15.3470   -1.4460  -23.2520 H   0  0  0  0  0  0  0  0  0  0  0  0
  -15.6900   -2.5860  -24.5910 H   0  0  0  0  0  0  0  0  0  0  0  0
  -14.3940   -1.3710  -24.7360 H   0  0  0  0  0  0  0  0  0  0  0  0
  1  2  1  0  0  0  0
  1 58  1  0  0  0  0
  1 59  1  0  0  0  0
  1 60  1  0  0  0  0
  2  3  1  0  0  0  0
  2 57  1  0  0  0  0
  3  4  2  0  0  0  0
  3  5  1  0  0  0  0
  5  6  1  0  0  0  0
  5 55  1  0  0  0  0
  5 56  1  0  0  0  0
  6  7  1  0  0  0  0
  6 48  1  0  0  0  0
  7  8  1  0  0  0  0
  7 53  1  0  0  0  0
  7 54  1  0  0  0  0
  8  9  1  1  0  0  0
  8 29  1  0  0  0  0
  8 41  1  0  0  0  0
  9 10  2  0  0  0  0
  9 11  1  0  0  0  0
 11 12  1  0  0  0  0
 11 28  1  0  0  0  0
 12 13  2  0  0  0  0
 12 21  1  0  0  0  0
 13 14  1  0  0  0  0
 13 27  1  0  0  0  0
 14 15  2  0  0  0  0
 15 16  1  0  0  0  0
 15 26  1  0  0  0  0
 16 17  2  0  0  0  0
 16 21  1  0  0  0  0
 17 18  1  0  0  0  0
 17 25  1  0  0  0  0
 18 19  2  0  0  0  0
 18 24  1  0  0  0  0
 19 20  1  0  0  0  0
 19 23  1  0  0  0  0
 20 21  2  0  0  0  0
 20 22  1  0  0  0  0
 28 29  1  0  0  0  0
 28 39  1  0  0  0  0
 28 40  1  0  0  0  0
 29 30  1  0  0  0  0
 29 38  1  6  0  0  0
 30 31  1  0  0  0  0
 30 36  1  0  0  0  0
 30 37  1  0  0  0  0
 31 32  1  0  0  0  0
 32 33  1  0  0  0  0
 32 34  1  0  0  0  0
 32 35  1  0  0  0  0
 41 42  2  0  0  0  0
 41 47  1  0  0  0  0
 42 43  1  0  0  0  0
 42 52  1  0  0  0  0
 43 44  1  0  0  0  0
 43 45  2  0  0  0  0
 45 46  1  0  0  0  0
 45 51  1  0  0  0  0
 46 47  2  0  0  0  0
 46 50  1  0  0  0  0
 47 48  1  0  0  0  0
 48 49  2  0  0  0  0
M  END
>  <MODEL>
       1

$$$$
