tmp_first_model_14_50.pdb
 OpenBabel08282500413D

 66 70  0  0  1  0  0  0  0  0999 V2000
   -7.5090    3.0700  -21.8560 C   0  0  0  0  0  0  0  0  0  0  0  0
   -8.6630    2.5400  -22.5580 N   0  0  0  0  0  0  0  0  0  0  0  0
   -8.4300    1.7120  -23.6160 C   0  0  0  0  0  0  0  0  0  0  0  0
   -7.2970    1.3860  -23.9580 O   0  0  0  0  0  0  0  0  0  0  0  0
   -9.6560    1.2180  -24.3660 C   0  0  0  0  0  0  0  0  0  0  0  0
  -10.1080   -0.0460  -23.8380 N   0  0  0  0  0  0  0  0  0  0  0  0
   -9.2410   -1.2110  -23.8710 C   0  0  0  0  0  0  0  0  0  0  0  0
   -9.3110   -1.9620  -22.5180 C   0  0  2  0  0  0  0  0  0  0  0  0
   -8.7090   -1.0190  -21.4380 C   0  0  0  0  0  0  0  0  0  0  0  0
   -9.2390   -0.0410  -20.9470 O   0  0  0  0  0  0  0  0  0  0  0  0
   -7.4150   -1.4280  -21.1770 N   0  0  0  0  0  0  0  0  0  0  0  0
   -6.6210   -0.8160  -20.1790 C   0  0  0  0  0  0  0  0  0  0  0  0
   -6.9490   -0.9980  -18.8580 C   0  0  0  0  0  0  0  0  0  0  0  0
   -6.2530   -0.4780  -17.8240 N   0  0  0  0  0  0  0  0  0  0  0  0
   -5.1930    0.2360  -18.1050 C   0  0  0  0  0  0  0  0  0  0  0  0
   -4.7470    0.5160  -19.4250 C   0  0  0  0  0  0  0  0  0  0  0  0
   -3.6200    1.3450  -19.6650 C   0  0  0  0  0  0  0  0  0  0  0  0
   -3.2460    1.6490  -20.9440 C   0  0  0  0  0  0  0  0  0  0  0  0
   -3.9790    1.1400  -22.0370 C   0  0  0  0  0  0  0  0  0  0  0  0
   -5.0750    0.3310  -21.8310 C   0  0  0  0  0  0  0  0  0  0  0  0
   -5.4810   -0.0170  -20.5120 C   0  0  0  0  0  0  0  0  0  0  0  0
   -5.6700    0.0270  -22.6860 H   0  0  0  0  0  0  0  0  0  0  0  0
   -3.6860    1.4040  -23.0490 H   0  0  0  0  0  0  0  0  0  0  0  0
   -2.3950    2.3010  -21.1230 H   0  0  0  0  0  0  0  0  0  0  0  0
   -3.0860    1.7460  -18.8080 H   0  0  0  0  0  0  0  0  0  0  0  0
   -4.6300    0.6450  -17.2650 H   0  0  0  0  0  0  0  0  0  0  0  0
   -7.8120   -1.6090  -18.6040 H   0  0  0  0  0  0  0  0  0  0  0  0
   -6.9920   -2.5640  -21.9730 C   0  0  0  0  0  0  0  0  0  0  0  0
   -8.3310   -3.1620  -22.4400 C   0  0  2  0  0  0  0  0  0  0  0  0
   -8.2060   -4.0030  -23.7100 C   0  0  0  0  0  0  0  0  0  0  0  0
   -7.4320   -5.1530  -23.4650 O   0  0  0  0  0  0  0  0  0  0  0  0
   -6.1560   -5.2210  -24.0880 C   0  0  0  0  0  0  0  0  0  0  0  0
   -6.2650   -5.7360  -25.5180 C   0  0  0  0  0  0  0  0  0  0  0  0
   -6.8720   -5.0750  -26.1450 H   0  0  0  0  0  0  0  0  0  0  0  0
   -5.2700   -5.8100  -25.9690 H   0  0  0  0  0  0  0  0  0  0  0  0
   -6.7240   -6.7290  -25.5270 H   0  0  0  0  0  0  0  0  0  0  0  0
   -5.3280   -6.1350  -23.2040 C   0  0  0  0  0  0  0  0  0  0  0  0
   -5.7840   -7.1300  -23.1900 H   0  0  0  0  0  0  0  0  0  0  0  0
   -5.3210   -5.7470  -22.1810 H   0  0  0  0  0  0  0  0  0  0  0  0
   -4.2960   -6.2220  -23.5580 H   0  0  0  0  0  0  0  0  0  0  0  0
   -5.7050   -4.2150  -24.1050 H   0  0  0  0  0  0  0  0  0  0  0  0
   -7.7650   -3.3910  -24.5150 H   0  0  0  0  0  0  0  0  0  0  0  0
   -9.2050   -4.3210  -24.0400 H   0  0  0  0  0  0  0  0  0  0  0  0
   -8.6590   -3.8250  -21.6350 H   0  0  0  0  0  0  0  0  0  0  0  0
   -6.3770   -2.2500  -22.8330 H   0  0  0  0  0  0  0  0  0  0  0  0
   -6.4000   -3.2660  -21.3740 H   0  0  0  0  0  0  0  0  0  0  0  0
  -10.7830   -2.2790  -22.2900 C   0  0  0  0  0  0  0  0  0  0  0  0
  -11.2300   -3.3970  -21.5770 C   0  0  0  0  0  0  0  0  0  0  0  0
  -12.5570   -3.4700  -21.1850 C   0  0  0  0  0  0  0  0  0  0  0  0
  -12.9300   -4.3970  -20.2880 F   0  0  0  0  0  0  0  0  0  0  0  0
  -13.5310   -2.5840  -21.6180 C   0  0  0  0  0  0  0  0  0  0  0  0
  -13.1160   -1.5420  -22.4140 C   0  0  0  0  0  0  0  0  0  0  0  0
  -11.7680   -1.3740  -22.7170 C   0  0  0  0  0  0  0  0  0  0  0  0
  -11.4140   -0.1380  -23.4640 C   0  0  0  0  0  0  0  0  0  0  0  0
  -12.2390    0.7370  -23.6950 O   0  0  0  0  0  0  0  0  0  0  0  0
  -13.8170   -0.8150  -22.8000 H   0  0  0  0  0  0  0  0  0  0  0  0
  -14.5630   -2.7180  -21.3110 H   0  0  0  0  0  0  0  0  0  0  0  0
  -10.5670   -4.1930  -21.2630 H   0  0  0  0  0  0  0  0  0  0  0  0
   -9.5640   -1.8860  -24.6750 H   0  0  0  0  0  0  0  0  0  0  0  0
   -8.2220   -0.8770  -24.0790 H   0  0  0  0  0  0  0  0  0  0  0  0
  -10.4850    1.9170  -24.2380 H   0  0  0  0  0  0  0  0  0  0  0  0
   -9.4190    1.1230  -25.4330 H   0  0  0  0  0  0  0  0  0  0  0  0
   -9.5150    2.4440  -22.0110 H   0  0  0  0  0  0  0  0  0  0  0  0
   -6.8920    2.2650  -21.4410 H   0  0  0  0  0  0  0  0  0  0  0  0
   -7.8390    3.7380  -21.0580 H   0  0  0  0  0  0  0  0  0  0  0  0
   -6.8930    3.6700  -22.5290 H   0  0  0  0  0  0  0  0  0  0  0  0
  1  2  1  0  0  0  0
  1 64  1  0  0  0  0
  1 65  1  0  0  0  0
  1 66  1  0  0  0  0
  2  3  1  0  0  0  0
  2 63  1  0  0  0  0
  3  4  2  0  0  0  0
  3  5  1  0  0  0  0
  5  6  1  0  0  0  0
  5 61  1  0  0  0  0
  5 62  1  0  0  0  0
  6  7  1  0  0  0  0
  6 54  1  0  0  0  0
  7  8  1  0  0  0  0
  7 59  1  0  0  0  0
  7 60  1  0  0  0  0
  8  9  1  1  0  0  0
  8 29  1  0  0  0  0
  8 47  1  0  0  0  0
  9 10  2  0  0  0  0
  9 11  1  0  0  0  0
 11 12  1  0  0  0  0
 11 28  1  0  0  0  0
 12 13  2  0  0  0  0
 12 21  1  0  0  0  0
 13 14  1  0  0  0  0
 13 27  1  0  0  0  0
 14 15  2  0  0  0  0
 15 16  1  0  0  0  0
 15 26  1  0  0  0  0
 16 17  2  0  0  0  0
 16 21  1  0  0  0  0
 17 18  1  0  0  0  0
 17 25  1  0  0  0  0
 18 19  2  0  0  0  0
 18 24  1  0  0  0  0
 19 20  1  0  0  0  0
 19 23  1  0  0  0  0
 20 21  2  0  0  0  0
 20 22  1  0  0  0  0
 28 29  1  0  0  0  0
 28 45  1  0  0  0  0
 28 46  1  0  0  0  0
 29 30  1  0  0  0  0
 29 44  1  1  0  0  0
 30 31  1  0  0  0  0
 30 42  1  0  0  0  0
 30 43  1  0  0  0  0
 31 32  1  0  0  0  0
 32 33  1  0  0  0  0
 32 37  1  0  0  0  0
 32 41  1  0  0  0  0
 33 34  1  0  0  0  0
 33 35  1  0  0  0  0
 33 36  1  0  0  0  0
 37 38  1  0  0  0  0
 37 39  1  0  0  0  0
 37 40  1  0  0  0  0
 47 48  2  0  0  0  0
 47 53  1  0  0  0  0
 48 49  1  0  0  0  0
 48 58  1  0  0  0  0
 49 50  1  0  0  0  0
 49 51  2  0  0  0  0
 51 52  1  0  0  0  0
 51 57  1  0  0  0  0
 52 53  2  0  0  0  0
 52 56  1  0  0  0  0
 53 54  1  0  0  0  0
 54 55  2  0  0  0  0
M  END
>  <MODEL>
       1

$$$$
