tmp_first_model_2_25.pdb
 OpenBabel08272517383D

 70 75  0  0  1  0  0  0  0  0999 V2000
   -7.7520   -6.3220  -24.3130 O   0  0  0  0  0  0  0  0  0  0  0  0
   -7.7690   -5.9270  -23.1590 C   0  0  0  0  0  0  0  0  0  0  0  0
   -8.9030   -5.0610  -22.6290 C   0  0  0  0  0  0  0  0  0  0  0  0
   -8.6430   -3.6430  -22.9670 N   0  3  1  0  0  0  0  0  0  0  0  0
   -8.3720   -3.4730  -24.4610 C   0  0  0  0  0  0  0  0  0  0  0  0
   -8.0880   -2.0440  -24.8020 C   0  0  0  0  0  0  0  0  0  0  0  0
   -7.3000   -1.7350  -25.9120 C   0  0  0  0  0  0  0  0  0  0  0  0
   -7.0040   -0.4190  -26.2340 C   0  0  0  0  0  0  0  0  0  0  0  0
   -7.5000    0.5980  -25.4240 C   0  0  0  0  0  0  0  0  0  0  0  0
   -7.1360    2.2550  -25.8160 Cl  0  0  0  0  0  0  0  0  0  0  0  0
   -8.2830    0.3090  -24.3150 C   0  0  0  0  0  0  0  0  0  0  0  0
   -8.5970   -1.0190  -24.0090 C   0  0  0  0  0  0  0  0  0  0  0  0
   -9.4110   -1.2920  -22.7620 C   0  0  2  0  0  0  0  0  0  0  0  0
   -8.6740   -0.8100  -21.5170 C   0  0  0  0  0  0  0  0  0  0  0  0
   -9.1500    0.0180  -20.7650 O   0  0  0  0  0  0  0  0  0  0  0  0
   -7.4490   -1.4150  -21.2660 N   0  0  0  0  0  0  0  0  0  0  0  0
   -6.6330   -0.8960  -20.2250 C   0  0  0  0  0  0  0  0  0  0  0  0
   -6.9680   -1.1150  -18.9160 C   0  0  0  0  0  0  0  0  0  0  0  0
   -6.2790   -0.6200  -17.8560 N   0  0  0  0  0  0  0  0  0  0  0  0
   -5.2380    0.1350  -18.1120 C   0  0  0  0  0  0  0  0  0  0  0  0
   -4.7840    0.4510  -19.4230 C   0  0  0  0  0  0  0  0  0  0  0  0
   -3.6670    1.2980  -19.6430 C   0  0  0  0  0  0  0  0  0  0  0  0
   -3.2790    1.6120  -20.9160 C   0  0  0  0  0  0  0  0  0  0  0  0
   -3.9880    1.0900  -22.0260 C   0  0  0  0  0  0  0  0  0  0  0  0
   -5.0680    0.2630  -21.8380 C   0  0  0  0  0  0  0  0  0  0  0  0
   -5.4920   -0.0790  -20.5250 C   0  0  0  0  0  0  0  0  0  0  0  0
   -5.6210   -0.1090  -22.6990 H   0  0  0  0  0  0  0  0  0  0  0  0
   -3.6810    1.3610  -23.0340 H   0  0  0  0  0  0  0  0  0  0  0  0
   -2.4340    2.2760  -21.0850 H   0  0  0  0  0  0  0  0  0  0  0  0
   -3.1560    1.7040  -18.7730 H   0  0  0  0  0  0  0  0  0  0  0  0
   -4.6980    0.5530  -17.2620 H   0  0  0  0  0  0  0  0  0  0  0  0
   -7.8330   -1.7300  -18.6720 H   0  0  0  0  0  0  0  0  0  0  0  0
   -6.9610   -1.8260  -22.0460 H   0  0  0  0  0  0  0  0  0  0  0  0
   -9.7900   -2.7640  -22.5710 C   0  0  0  0  0  0  0  0  0  0  0  0
  -10.0520   -2.9430  -21.5240 H   0  0  0  0  0  0  0  0  0  0  0  0
  -10.6530   -3.0410  -23.1890 H   0  0  0  0  0  0  0  0  0  0  0  0
  -10.3250   -0.6950  -22.7750 H   0  0  0  0  0  0  0  0  0  0  0  0
   -8.6640    1.1100  -23.6870 H   0  0  0  0  0  0  0  0  0  0  0  0
   -6.3970   -0.1760  -27.0990 H   0  0  0  0  0  0  0  0  0  0  0  0
   -6.9170   -2.5460  -26.5290 H   0  0  0  0  0  0  0  0  0  0  0  0
   -9.2520   -3.8480  -24.9930 H   0  0  0  0  0  0  0  0  0  0  0  0
   -7.5430   -4.1170  -24.7340 H   0  0  0  0  0  0  0  0  0  0  0  0
   -7.8030   -3.3960  -22.4110 H   0  0  0  0  0  0  0  0  0  0  0  0
   -9.8340   -5.3810  -23.1050 H   0  0  0  0  0  0  0  0  0  0  0  0
   -8.9980   -5.1500  -21.5440 H   0  0  0  0  0  0  0  0  0  0  0  0
   -6.7650   -6.1540  -22.2650 N   0  0  0  0  0  0  0  0  0  0  0  0
   -5.5710   -6.8330  -22.5570 C   0  0  0  0  0  0  0  0  0  0  0  0
   -4.8500   -7.3560  -21.4910 C   0  0  0  0  0  0  0  0  0  0  0  0
   -3.6790   -8.0340  -21.7430 C   0  0  0  0  0  0  0  0  0  0  0  0
   -3.1770   -8.1630  -23.0310 C   0  0  0  0  0  0  0  0  0  0  0  0
   -1.9570   -8.8480  -23.2280 N   0  0  0  0  0  0  0  0  0  0  0  0
   -0.9640   -8.8290  -22.1580 C   0  0  0  0  0  0  0  0  0  0  0  0
    0.3910   -9.1810  -22.7370 C   0  0  0  0  0  0  0  0  0  0  0  0
    0.3190  -10.4530  -23.3370 O   0  0  0  0  0  0  0  0  0  0  0  0
   -0.5490  -10.4650  -24.4440 C   0  0  0  0  0  0  0  0  0  0  0  0
   -1.8790   -9.7420  -24.2650 C   0  0  0  0  0  0  0  0  0  0  0  0
   -2.7970   -9.9500  -25.0400 O   0  0  0  0  0  0  0  0  0  0  0  0
   -0.7780  -11.5120  -24.6480 H   0  0  0  0  0  0  0  0  0  0  0  0
   -0.0710  -10.0320  -25.3360 H   0  0  0  0  0  0  0  0  0  0  0  0
    1.1560   -9.2120  -21.9550 H   0  0  0  0  0  0  0  0  0  0  0  0
    0.6850   -8.4200  -23.4710 H   0  0  0  0  0  0  0  0  0  0  0  0
   -0.9400   -7.8210  -21.7350 H   0  0  0  0  0  0  0  0  0  0  0  0
   -1.2310   -9.5430  -21.3630 H   0  0  0  0  0  0  0  0  0  0  0  0
   -3.8850   -7.6120  -24.0970 C   0  0  0  0  0  0  0  0  0  0  0  0
   -5.0880   -6.9720  -23.8620 C   0  0  0  0  0  0  0  0  0  0  0  0
   -5.6690   -6.5960  -24.6930 H   0  0  0  0  0  0  0  0  0  0  0  0
   -3.5220   -7.7140  -25.1140 H   0  0  0  0  0  0  0  0  0  0  0  0
   -3.1590   -8.5190  -20.9220 H   0  0  0  0  0  0  0  0  0  0  0  0
   -5.1930   -7.2200  -20.4690 H   0  0  0  0  0  0  0  0  0  0  0  0
   -6.8570   -5.7930  -21.3260 H   0  0  0  0  0  0  0  0  0  0  0  0
  1  2  2  0  0  0  0
  2  3  1  0  0  0  0
  2 46  1  0  0  0  0
  3  4  1  0  0  0  0
  3 44  1  0  0  0  0
  3 45  1  0  0  0  0
  4  5  1  0  0  0  0
  4 34  1  0  0  0  0
  4 43  1  1  0  0  0
  5  6  1  0  0  0  0
  5 41  1  0  0  0  0
  5 42  1  0  0  0  0
  6  7  2  0  0  0  0
  6 12  1  0  0  0  0
  7  8  1  0  0  0  0
  7 40  1  0  0  0  0
  8  9  2  0  0  0  0
  8 39  1  0  0  0  0
  9 10  1  0  0  0  0
  9 11  1  0  0  0  0
 11 12  2  0  0  0  0
 11 38  1  0  0  0  0
 12 13  1  0  0  0  0
 13 14  1  0  0  0  0
 13 34  1  0  0  0  0
 13 37  1  6  0  0  0
 14 15  2  0  0  0  0
 14 16  1  0  0  0  0
 16 17  1  0  0  0  0
 16 33  1  0  0  0  0
 17 18  2  0  0  0  0
 17 26  1  0  0  0  0
 18 19  1  0  0  0  0
 18 32  1  0  0  0  0
 19 20  2  0  0  0  0
 20 21  1  0  0  0  0
 20 31  1  0  0  0  0
 21 22  2  0  0  0  0
 21 26  1  0  0  0  0
 22 23  1  0  0  0  0
 22 30  1  0  0  0  0
 23 24  2  0  0  0  0
 23 29  1  0  0  0  0
 24 25  1  0  0  0  0
 24 28  1  0  0  0  0
 25 26  2  0  0  0  0
 25 27  1  0  0  0  0
 34 35  1  0  0  0  0
 34 36  1  0  0  0  0
 46 47  1  0  0  0  0
 46 70  1  0  0  0  0
 47 48  2  0  0  0  0
 47 65  1  0  0  0  0
 48 49  1  0  0  0  0
 48 69  1  0  0  0  0
 49 50  2  0  0  0  0
 49 68  1  0  0  0  0
 50 51  1  0  0  0  0
 50 64  1  0  0  0  0
 51 52  1  0  0  0  0
 51 56  1  0  0  0  0
 52 53  1  0  0  0  0
 52 62  1  0  0  0  0
 52 63  1  0  0  0  0
 53 54  1  0  0  0  0
 53 60  1  0  0  0  0
 53 61  1  0  0  0  0
 54 55  1  0  0  0  0
 55 56  1  0  0  0  0
 55 58  1  0  0  0  0
 55 59  1  0  0  0  0
 56 57  2  0  0  0  0
 64 65  2  0  0  0  0
 64 67  1  0  0  0  0
 65 66  1  0  0  0  0
M  CHG  1   4   1
M  END
>  <MODEL>
       1

$$$$
