tmp_first_model_20_92.pdb
 OpenBabel08282503553D

 60 65  0  0  1  0  0  0  0  0999 V2000
  -10.4640   -1.2880  -25.6490 C   0  0  0  0  0  0  0  0  0  0  0  0
  -10.9040   -1.7410  -24.4010 O   0  0  0  0  0  0  0  0  0  0  0  0
  -10.4220   -0.9760  -23.3210 C   0  0  0  0  0  0  0  0  0  0  0  0
   -9.0020   -1.3780  -22.9280 C   0  0  1  0  0  0  0  0  0  0  0  0
   -8.3870   -0.4560  -21.8710 C   0  0  0  0  0  0  0  0  0  0  0  0
   -7.4080   -1.3080  -21.2200 N   0  0  0  0  0  0  0  0  0  0  0  0
   -6.5830   -0.8400  -20.1710 C   0  0  0  0  0  0  0  0  0  0  0  0
   -6.8970   -1.1000  -18.8610 C   0  0  0  0  0  0  0  0  0  0  0  0
   -6.2300   -0.5710  -17.8030 N   0  0  0  0  0  0  0  0  0  0  0  0
   -5.2000    0.1980  -18.0660 C   0  0  0  0  0  0  0  0  0  0  0  0
   -4.7430    0.5140  -19.3790 C   0  0  0  0  0  0  0  0  0  0  0  0
   -3.6110    1.3360  -19.6200 C   0  0  0  0  0  0  0  0  0  0  0  0
   -3.2120    1.6080  -20.9000 C   0  0  0  0  0  0  0  0  0  0  0  0
   -3.9210    1.0740  -22.0010 C   0  0  0  0  0  0  0  0  0  0  0  0
   -5.0190    0.2760  -21.7960 C   0  0  0  0  0  0  0  0  0  0  0  0
   -5.4550   -0.0180  -20.4760 C   0  0  0  0  0  0  0  0  0  0  0  0
   -5.5600   -0.1440  -22.6390 H   0  0  0  0  0  0  0  0  0  0  0  0
   -3.5980    1.3060  -23.0120 H   0  0  0  0  0  0  0  0  0  0  0  0
   -2.3500    2.2450  -21.0830 H   0  0  0  0  0  0  0  0  0  0  0  0
   -3.0720    1.7360  -18.7660 H   0  0  0  0  0  0  0  0  0  0  0  0
   -4.6650    0.6170  -17.2120 H   0  0  0  0  0  0  0  0  0  0  0  0
   -7.7430   -1.7420  -18.6190 H   0  0  0  0  0  0  0  0  0  0  0  0
   -7.6160   -2.6520  -21.4350 C   0  0  0  0  0  0  0  0  0  0  0  0
   -6.9040   -3.5240  -20.9770 O   0  0  0  0  0  0  0  0  0  0  0  0
   -8.8470   -2.8230  -22.3490 C   0  0  1  0  0  0  0  0  0  0  0  0
  -10.0520   -3.2420  -21.4760 C   0  0  0  0  0  0  0  0  0  0  0  0
  -11.2150   -3.6910  -22.2310 N   0  0  0  0  0  0  0  0  0  0  0  0
  -12.5650   -3.6120  -21.6620 C   0  0  0  0  0  0  0  0  0  0  0  0
  -13.5540   -2.6600  -22.2830 C   0  0  0  0  0  0  0  0  0  0  0  0
  -13.9450   -1.3170  -22.0540 C   0  0  0  0  0  0  0  0  0  0  0  0
  -14.9060   -0.9240  -22.8910 N   0  0  0  0  0  0  0  0  0  0  0  0
  -15.1480   -2.0150  -23.6240 N   0  0  0  0  0  0  0  0  0  0  0  0
  -14.4210   -3.0810  -23.2650 C   0  0  0  0  0  0  0  0  0  0  0  0
  -14.5530   -4.0580  -23.7090 H   0  0  0  0  0  0  0  0  0  0  0  0
  -15.8890   -2.0060  -24.3130 H   0  0  0  0  0  0  0  0  0  0  0  0
  -13.5960   -0.5970  -21.3260 H   0  0  0  0  0  0  0  0  0  0  0  0
  -12.4990   -3.4440  -20.5890 H   0  0  0  0  0  0  0  0  0  0  0  0
  -13.0250   -4.5850  -21.8120 H   0  0  0  0  0  0  0  0  0  0  0  0
  -11.0650   -4.4680  -23.3520 C   0  0  0  0  0  0  0  0  0  0  0  0
  -12.0090   -4.9900  -23.9280 O   0  0  0  0  0  0  0  0  0  0  0  0
   -9.6710   -4.6730  -23.8580 C   0  0  0  0  0  0  0  0  0  0  0  0
   -9.4370   -5.6820  -24.7920 C   0  0  0  0  0  0  0  0  0  0  0  0
   -8.1600   -5.9120  -25.2760 C   0  0  0  0  0  0  0  0  0  0  0  0
   -7.1240   -5.0770  -24.8560 C   0  0  0  0  0  0  0  0  0  0  0  0
   -5.5420   -5.2680  -25.5440 Cl  0  0  0  0  0  0  0  0  0  0  0  0
   -7.3400   -4.0800  -23.9260 C   0  0  0  0  0  0  0  0  0  0  0  0
   -8.6190   -3.8840  -23.3950 C   0  0  0  0  0  0  0  0  0  0  0  0
   -6.5140   -3.4500  -23.6130 H   0  0  0  0  0  0  0  0  0  0  0  0
   -7.9720   -6.7000  -26.0020 H   0  0  0  0  0  0  0  0  0  0  0  0
  -10.2730   -6.2940  -25.1200 H   0  0  0  0  0  0  0  0  0  0  0  0
   -9.6900   -4.0350  -20.8150 H   0  0  0  0  0  0  0  0  0  0  0  0
  -10.3250   -2.3700  -20.8720 H   0  0  0  0  0  0  0  0  0  0  0  0
   -9.1380   -0.0990  -21.1510 H   0  0  0  0  0  0  0  0  0  0  0  0
   -7.9020    0.4300  -22.2960 H   0  0  0  0  0  0  0  0  0  0  0  0
   -8.3630   -1.3520  -23.8170 H   0  0  0  0  0  0  0  0  0  0  0  0
  -11.0810   -1.1590  -22.4730 H   0  0  0  0  0  0  0  0  0  0  0  0
  -10.4910    0.1000  -23.5380 H   0  0  0  0  0  0  0  0  0  0  0  0
  -10.6430   -2.1130  -26.3400 H   0  0  0  0  0  0  0  0  0  0  0  0
  -11.0340   -0.4020  -25.9570 H   0  0  0  0  0  0  0  0  0  0  0  0
   -9.3910   -1.0380  -25.6740 H   0  0  0  0  0  0  0  0  0  0  0  0
  1  2  1  0  0  0  0
  1 58  1  0  0  0  0
  1 59  1  0  0  0  0
  1 60  1  0  0  0  0
  2  3  1  0  0  0  0
  3  4  1  0  0  0  0
  3 56  1  0  0  0  0
  3 57  1  0  0  0  0
  4  5  1  0  0  0  0
  4 25  1  0  0  0  0
  4 55  1  6  0  0  0
  5  6  1  0  0  0  0
  5 53  1  0  0  0  0
  5 54  1  0  0  0  0
  6  7  1  0  0  0  0
  6 23  1  0  0  0  0
  7  8  2  0  0  0  0
  7 16  1  0  0  0  0
  8  9  1  0  0  0  0
  8 22  1  0  0  0  0
  9 10  2  0  0  0  0
 10 11  1  0  0  0  0
 10 21  1  0  0  0  0
 11 12  2  0  0  0  0
 11 16  1  0  0  0  0
 12 13  1  0  0  0  0
 12 20  1  0  0  0  0
 13 14  2  0  0  0  0
 13 19  1  0  0  0  0
 14 15  1  0  0  0  0
 14 18  1  0  0  0  0
 15 16  2  0  0  0  0
 15 17  1  0  0  0  0
 23 24  2  0  0  0  0
 25 23  1  1  0  0  0
 25 26  1  0  0  0  0
 25 47  1  0  0  0  0
 26 27  1  0  0  0  0
 26 51  1  0  0  0  0
 26 52  1  0  0  0  0
 27 28  1  0  0  0  0
 27 39  1  0  0  0  0
 28 29  1  0  0  0  0
 28 37  1  0  0  0  0
 28 38  1  0  0  0  0
 29 30  1  0  0  0  0
 29 33  2  0  0  0  0
 30 31  2  0  0  0  0
 30 36  1  0  0  0  0
 31 32  1  0  0  0  0
 32 33  1  0  0  0  0
 32 35  1  0  0  0  0
 33 34  1  0  0  0  0
 39 40  2  0  0  0  0
 39 41  1  0  0  0  0
 41 42  2  0  0  0  0
 41 47  1  0  0  0  0
 42 43  1  0  0  0  0
 42 50  1  0  0  0  0
 43 44  2  0  0  0  0
 43 49  1  0  0  0  0
 44 45  1  0  0  0  0
 44 46  1  0  0  0  0
 46 47  2  0  0  0  0
 46 48  1  0  0  0  0
M  END
>  <MODEL>
       1

$$$$
