tmp_first_model_9_30.pdb
 OpenBabel08272521403D

 58 63  0  0  1  0  0  0  0  0999 V2000
  -10.4380   -1.0280  -23.3570 C   0  0  0  0  0  0  0  0  0  0  0  0
   -9.0040   -1.3940  -22.9820 C   0  0  1  0  0  0  0  0  0  0  0  0
   -8.4000   -0.4780  -21.9020 C   0  0  0  0  0  0  0  0  0  0  0  0
   -7.4120   -1.3230  -21.2580 N   0  0  0  0  0  0  0  0  0  0  0  0
   -6.5870   -0.8510  -20.2100 C   0  0  0  0  0  0  0  0  0  0  0  0
   -6.8900   -1.1280  -18.9000 C   0  0  0  0  0  0  0  0  0  0  0  0
   -6.2210   -0.5990  -17.8460 N   0  0  0  0  0  0  0  0  0  0  0  0
   -5.2160    0.2040  -18.0950 C   0  0  0  0  0  0  0  0  0  0  0  0
   -4.7670    0.5340  -19.4070 C   0  0  0  0  0  0  0  0  0  0  0  0
   -3.6430    1.3720  -19.6380 C   0  0  0  0  0  0  0  0  0  0  0  0
   -3.2350    1.6410  -20.9160 C   0  0  0  0  0  0  0  0  0  0  0  0
   -3.9310    1.0920  -22.0170 C   0  0  0  0  0  0  0  0  0  0  0  0
   -5.0220    0.2810  -21.8200 C   0  0  0  0  0  0  0  0  0  0  0  0
   -5.4680   -0.0100  -20.5040 C   0  0  0  0  0  0  0  0  0  0  0  0
   -5.5450   -0.1600  -22.6620 H   0  0  0  0  0  0  0  0  0  0  0  0
   -3.5930    1.3020  -23.0280 H   0  0  0  0  0  0  0  0  0  0  0  0
   -2.3710    2.2750  -21.0930 H   0  0  0  0  0  0  0  0  0  0  0  0
   -3.1230    1.7860  -18.7780 H   0  0  0  0  0  0  0  0  0  0  0  0
   -4.6930    0.6310  -17.2370 H   0  0  0  0  0  0  0  0  0  0  0  0
   -7.7140   -1.7930  -18.6490 H   0  0  0  0  0  0  0  0  0  0  0  0
   -7.6110   -2.6680  -21.4760 C   0  0  0  0  0  0  0  0  0  0  0  0
   -6.9090   -3.5380  -21.0030 O   0  0  0  0  0  0  0  0  0  0  0  0
   -8.8110   -2.8510  -22.4270 C   0  0  1  0  0  0  0  0  0  0  0  0
  -10.0370   -3.2980  -21.5890 C   0  0  0  0  0  0  0  0  0  0  0  0
  -11.1570   -3.7910  -22.3920 N   0  0  0  0  0  0  0  0  0  0  0  0
  -12.5310   -3.7830  -21.8680 C   0  0  0  0  0  0  0  0  0  0  0  0
  -13.4770   -2.8550  -22.6040 C   0  0  0  0  0  0  0  0  0  0  0  0
  -13.9450   -1.6770  -22.0940 C   0  0  0  0  0  0  0  0  0  0  0  0
  -14.7920   -0.8290  -22.9130 C   0  0  0  0  0  0  0  0  0  0  0  0
  -15.3940    0.1770  -22.5960 O   0  0  0  0  0  0  0  0  0  0  0  0
  -14.8890   -1.2900  -24.2350 N   0  0  0  0  0  0  0  0  0  0  0  0
  -14.5330   -2.5380  -24.6050 C   0  0  0  0  0  0  0  0  0  0  0  0
  -13.8840   -3.3390  -23.8300 N   0  0  0  0  0  0  0  0  0  0  0  0
  -14.7920   -2.8490  -25.6100 H   0  0  0  0  0  0  0  0  0  0  0  0
  -15.5010   -0.7520  -24.8260 H   0  0  0  0  0  0  0  0  0  0  0  0
  -13.7520   -1.3450  -21.0810 H   0  0  0  0  0  0  0  0  0  0  0  0
  -12.9350   -4.7730  -22.0730 H   0  0  0  0  0  0  0  0  0  0  0  0
  -12.5130   -3.5890  -20.7880 H   0  0  0  0  0  0  0  0  0  0  0  0
  -10.9180   -4.6640  -23.4240 C   0  0  0  0  0  0  0  0  0  0  0  0
  -11.8030   -5.3270  -23.9410 O   0  0  0  0  0  0  0  0  0  0  0  0
   -9.5170   -4.7550  -23.9240 C   0  0  0  0  0  0  0  0  0  0  0  0
   -9.2610   -5.7410  -24.8740 C   0  0  0  0  0  0  0  0  0  0  0  0
   -8.0020   -5.8930  -25.4160 C   0  0  0  0  0  0  0  0  0  0  0  0
   -7.0030   -5.0280  -24.9780 C   0  0  0  0  0  0  0  0  0  0  0  0
   -5.7710   -5.1670  -25.4930 F   0  0  0  0  0  0  0  0  0  0  0  0
   -7.2180   -4.0560  -24.0190 C   0  0  0  0  0  0  0  0  0  0  0  0
   -8.5050   -3.9040  -23.4730 C   0  0  0  0  0  0  0  0  0  0  0  0
   -6.3650   -3.4780  -23.6720 H   0  0  0  0  0  0  0  0  0  0  0  0
   -7.7790   -6.6660  -26.1450 H   0  0  0  0  0  0  0  0  0  0  0  0
  -10.0800   -6.3910  -25.1630 H   0  0  0  0  0  0  0  0  0  0  0  0
   -9.7040   -4.0570  -20.8790 H   0  0  0  0  0  0  0  0  0  0  0  0
  -10.3600   -2.4440  -20.9910 H   0  0  0  0  0  0  0  0  0  0  0  0
   -9.1590   -0.1400  -21.1810 H   0  0  0  0  0  0  0  0  0  0  0  0
   -7.9360    0.4260  -22.3100 H   0  0  0  0  0  0  0  0  0  0  0  0
   -8.3690   -1.3310  -23.8730 H   0  0  0  0  0  0  0  0  0  0  0  0
  -11.0810   -1.0070  -22.4720 H   0  0  0  0  0  0  0  0  0  0  0  0
  -10.8540   -1.7690  -24.0430 H   0  0  0  0  0  0  0  0  0  0  0  0
  -10.5020   -0.0410  -23.8220 H   0  0  0  0  0  0  0  0  0  0  0  0
  1  2  1  0  0  0  0
  1 56  1  0  0  0  0
  1 57  1  0  0  0  0
  1 58  1  0  0  0  0
  2  3  1  0  0  0  0
  2 23  1  0  0  0  0
  2 55  1  6  0  0  0
  3  4  1  0  0  0  0
  3 53  1  0  0  0  0
  3 54  1  0  0  0  0
  4  5  1  0  0  0  0
  4 21  1  0  0  0  0
  5  6  2  0  0  0  0
  5 14  1  0  0  0  0
  6  7  1  0  0  0  0
  6 20  1  0  0  0  0
  7  8  2  0  0  0  0
  8  9  1  0  0  0  0
  8 19  1  0  0  0  0
  9 10  2  0  0  0  0
  9 14  1  0  0  0  0
 10 11  1  0  0  0  0
 10 18  1  0  0  0  0
 11 12  2  0  0  0  0
 11 17  1  0  0  0  0
 12 13  1  0  0  0  0
 12 16  1  0  0  0  0
 13 14  2  0  0  0  0
 13 15  1  0  0  0  0
 21 22  2  0  0  0  0
 23 21  1  1  0  0  0
 23 24  1  0  0  0  0
 23 47  1  0  0  0  0
 24 25  1  0  0  0  0
 24 51  1  0  0  0  0
 24 52  1  0  0  0  0
 25 26  1  0  0  0  0
 25 39  1  0  0  0  0
 26 27  1  0  0  0  0
 26 37  1  0  0  0  0
 26 38  1  0  0  0  0
 27 28  2  0  0  0  0
 27 33  1  0  0  0  0
 28 29  1  0  0  0  0
 28 36  1  0  0  0  0
 29 30  2  0  0  0  0
 29 31  1  0  0  0  0
 31 32  1  0  0  0  0
 31 35  1  0  0  0  0
 32 33  2  0  0  0  0
 32 34  1  0  0  0  0
 39 40  2  0  0  0  0
 39 41  1  0  0  0  0
 41 42  2  0  0  0  0
 41 47  1  0  0  0  0
 42 43  1  0  0  0  0
 42 50  1  0  0  0  0
 43 44  2  0  0  0  0
 43 49  1  0  0  0  0
 44 45  1  0  0  0  0
 44 46  1  0  0  0  0
 46 47  2  0  0  0  0
 46 48  1  0  0  0  0
M  END
>  <MODEL>
       1

$$$$
