tmp_first_model_4_63.pdb
 OpenBabel08272518513D

 57 61  0  0  1  0  0  0  0  0999 V2000
   -7.2970    3.4040  -21.9020 C   0  0  0  0  0  0  0  0  0  0  0  0
   -8.1720    2.9600  -22.9770 N   0  0  0  0  0  0  0  0  0  0  0  0
   -7.6110    2.2330  -23.9870 C   0  0  0  0  0  0  0  0  0  0  0  0
   -6.4050    2.0560  -24.0820 O   0  0  0  0  0  0  0  0  0  0  0  0
   -8.5830    1.6390  -25.0070 C   0  0  0  0  0  0  0  0  0  0  0  0
   -9.2990    0.5130  -24.4370 N   0  0  0  0  0  0  0  0  0  0  0  0
   -8.5830   -0.7380  -24.2460 C   0  0  0  0  0  0  0  0  0  0  0  0
   -9.0120   -1.4530  -22.9410 C   0  0  2  0  0  0  0  0  0  0  0  0
   -8.4640   -0.6950  -21.7060 C   0  0  0  0  0  0  0  0  0  0  0  0
   -8.8680    0.3490  -21.2430 O   0  0  0  0  0  0  0  0  0  0  0  0
   -7.4010   -1.4140  -21.2100 N   0  0  0  0  0  0  0  0  0  0  0  0
   -6.5260   -0.9460  -20.2020 C   0  0  0  0  0  0  0  0  0  0  0  0
   -6.7760   -1.2520  -18.8960 C   0  0  0  0  0  0  0  0  0  0  0  0
   -5.9190   -0.9970  -17.8760 N   0  0  0  0  0  0  0  0  0  0  0  0
   -4.7940   -0.3930  -18.1690 C   0  0  0  0  0  0  0  0  0  0  0  0
   -4.4410    0.0340  -19.4810 C   0  0  0  0  0  0  0  0  0  0  0  0
   -3.2760    0.7970  -19.7390 C   0  0  0  0  0  0  0  0  0  0  0  0
   -3.0570    1.3250  -20.9840 C   0  0  0  0  0  0  0  0  0  0  0  0
   -3.9360    1.0250  -22.0530 C   0  0  0  0  0  0  0  0  0  0  0  0
   -5.0370    0.2370  -21.8420 C   0  0  0  0  0  0  0  0  0  0  0  0
   -5.3280   -0.2520  -20.5410 C   0  0  0  0  0  0  0  0  0  0  0  0
   -5.6980   -0.0010  -22.6710 H   0  0  0  0  0  0  0  0  0  0  0  0
   -3.7680    1.4610  -23.0330 H   0  0  0  0  0  0  0  0  0  0  0  0
   -2.2120    1.9840  -21.1530 H   0  0  0  0  0  0  0  0  0  0  0  0
   -2.6220    1.0120  -18.9000 H   0  0  0  0  0  0  0  0  0  0  0  0
   -4.0960   -0.1880  -17.3550 H   0  0  0  0  0  0  0  0  0  0  0  0
   -7.7110   -1.7510  -18.6480 H   0  0  0  0  0  0  0  0  0  0  0  0
   -7.0760   -2.6130  -21.9400 C   0  0  0  0  0  0  0  0  0  0  0  0
   -8.3200   -2.8400  -22.8100 C   0  0  2  0  0  0  0  0  0  0  0  0
   -7.9660   -3.5670  -24.0960 C   0  0  0  0  0  0  0  0  0  0  0  0
   -7.4570   -4.8310  -23.7140 O   0  0  0  0  0  0  0  0  0  0  0  0
   -7.2060   -5.3030  -24.5150 H   0  0  0  0  0  0  0  0  0  0  0  0
   -7.2030   -2.9910  -24.6430 H   0  0  0  0  0  0  0  0  0  0  0  0
   -8.8480   -3.6640  -24.7470 H   0  0  0  0  0  0  0  0  0  0  0  0
   -8.9900   -3.5050  -22.2630 H   0  0  0  0  0  0  0  0  0  0  0  0
   -6.9050   -3.4330  -21.2380 H   0  0  0  0  0  0  0  0  0  0  0  0
   -6.1600   -2.4940  -22.5460 H   0  0  0  0  0  0  0  0  0  0  0  0
  -10.5260   -1.4770  -22.8850 C   0  0  0  0  0  0  0  0  0  0  0  0
  -11.1820   -2.3430  -22.0050 C   0  0  0  0  0  0  0  0  0  0  0  0
  -12.5610   -2.3390  -21.9260 C   0  0  0  0  0  0  0  0  0  0  0  0
  -13.3410   -3.4190  -20.8120 Cl  0  0  0  0  0  0  0  0  0  0  0  0
  -13.3400   -1.4770  -22.6960 C   0  0  0  0  0  0  0  0  0  0  0  0
  -12.6940   -0.5830  -23.5240 C   0  0  0  0  0  0  0  0  0  0  0  0
  -11.3030   -0.5560  -23.5970 C   0  0  0  0  0  0  0  0  0  0  0  0
  -10.6670    0.5480  -24.3880 C   0  0  0  0  0  0  0  0  0  0  0  0
  -11.3250    1.4320  -24.9130 O   0  0  0  0  0  0  0  0  0  0  0  0
  -13.2440    0.1400  -24.1120 H   0  0  0  0  0  0  0  0  0  0  0  0
  -14.4220   -1.4910  -22.6140 H   0  0  0  0  0  0  0  0  0  0  0  0
  -10.6270   -3.0100  -21.3550 H   0  0  0  0  0  0  0  0  0  0  0  0
   -7.5070   -0.5330  -24.2280 H   0  0  0  0  0  0  0  0  0  0  0  0
   -8.7830   -1.4050  -25.0950 H   0  0  0  0  0  0  0  0  0  0  0  0
   -8.0030    1.3180  -25.8800 H   0  0  0  0  0  0  0  0  0  0  0  0
   -9.3290    2.3710  -25.3310 H   0  0  0  0  0  0  0  0  0  0  0  0
   -9.1450    2.8030  -22.7440 H   0  0  0  0  0  0  0  0  0  0  0  0
   -6.5940    4.1530  -22.2780 H   0  0  0  0  0  0  0  0  0  0  0  0
   -7.8910    3.8670  -21.1120 H   0  0  0  0  0  0  0  0  0  0  0  0
   -6.7230    2.5560  -21.4970 H   0  0  0  0  0  0  0  0  0  0  0  0
  1  2  1  0  0  0  0
  1 55  1  0  0  0  0
  1 56  1  0  0  0  0
  1 57  1  0  0  0  0
  2  3  1  0  0  0  0
  2 54  1  0  0  0  0
  3  4  2  0  0  0  0
  3  5  1  0  0  0  0
  5  6  1  0  0  0  0
  5 52  1  0  0  0  0
  5 53  1  0  0  0  0
  6  7  1  0  0  0  0
  6 45  1  0  0  0  0
  7  8  1  0  0  0  0
  7 50  1  0  0  0  0
  7 51  1  0  0  0  0
  8  9  1  1  0  0  0
  8 29  1  0  0  0  0
  8 38  1  0  0  0  0
  9 10  2  0  0  0  0
  9 11  1  0  0  0  0
 11 12  1  0  0  0  0
 11 28  1  0  0  0  0
 12 13  2  0  0  0  0
 12 21  1  0  0  0  0
 13 14  1  0  0  0  0
 13 27  1  0  0  0  0
 14 15  2  0  0  0  0
 15 16  1  0  0  0  0
 15 26  1  0  0  0  0
 16 17  2  0  0  0  0
 16 21  1  0  0  0  0
 17 18  1  0  0  0  0
 17 25  1  0  0  0  0
 18 19  2  0  0  0  0
 18 24  1  0  0  0  0
 19 20  1  0  0  0  0
 19 23  1  0  0  0  0
 20 21  2  0  0  0  0
 20 22  1  0  0  0  0
 28 29  1  0  0  0  0
 28 36  1  0  0  0  0
 28 37  1  0  0  0  0
 29 30  1  0  0  0  0
 29 35  1  1  0  0  0
 30 31  1  0  0  0  0
 30 33  1  0  0  0  0
 30 34  1  0  0  0  0
 31 32  1  0  0  0  0
 38 39  2  0  0  0  0
 38 44  1  0  0  0  0
 39 40  1  0  0  0  0
 39 49  1  0  0  0  0
 40 41  1  0  0  0  0
 40 42  2  0  0  0  0
 42 43  1  0  0  0  0
 42 48  1  0  0  0  0
 43 44  2  0  0  0  0
 43 47  1  0  0  0  0
 44 45  1  0  0  0  0
 45 46  2  0  0  0  0
M  END
>  <MODEL>
       1

$$$$
