tmp_first_model_4_84.pdb
 OpenBabel08272518513D

 63 68  0  0  1  0  0  0  0  0999 V2000
   -8.4300   -4.1350  -23.4830 C   0  0  0  0  0  0  0  0  0  0  0  0
   -8.6060   -2.9570  -22.5390 C   0  0  1  0  0  0  0  0  0  0  0  0
   -7.4160   -2.7900  -21.5950 C   0  0  0  0  0  0  0  0  0  0  0  0
   -7.4320   -1.3840  -21.2620 N   0  0  0  0  0  0  0  0  0  0  0  0
   -6.5420   -0.9190  -20.2570 C   0  0  0  0  0  0  0  0  0  0  0  0
   -6.7490   -1.2990  -18.9520 C   0  0  0  0  0  0  0  0  0  0  0  0
   -5.8740   -1.0920  -17.9410 N   0  0  0  0  0  0  0  0  0  0  0  0
   -4.7510   -0.4760  -18.2180 C   0  0  0  0  0  0  0  0  0  0  0  0
   -4.4140   -0.0070  -19.5160 C   0  0  0  0  0  0  0  0  0  0  0  0
   -3.2120    0.7120  -19.7470 C   0  0  0  0  0  0  0  0  0  0  0  0
   -2.9490    1.2280  -20.9850 C   0  0  0  0  0  0  0  0  0  0  0  0
   -3.8280    0.9760  -22.0620 C   0  0  0  0  0  0  0  0  0  0  0  0
   -4.9600    0.2230  -21.8740 C   0  0  0  0  0  0  0  0  0  0  0  0
   -5.3240   -0.2280  -20.5740 C   0  0  0  0  0  0  0  0  0  0  0  0
   -5.5980   -0.0260  -22.7160 H   0  0  0  0  0  0  0  0  0  0  0  0
   -3.6000    1.3740  -23.0470 H   0  0  0  0  0  0  0  0  0  0  0  0
   -2.0700    1.8440  -21.1400 H   0  0  0  0  0  0  0  0  0  0  0  0
   -2.5750    0.9170  -18.8910 H   0  0  0  0  0  0  0  0  0  0  0  0
   -4.0460   -0.3240  -17.4010 H   0  0  0  0  0  0  0  0  0  0  0  0
   -7.6650   -1.8300  -18.6850 H   0  0  0  0  0  0  0  0  0  0  0  0
   -8.1920   -0.6170  -22.1250 C   0  0  0  0  0  0  0  0  0  0  0  0
   -8.2970    0.5900  -22.0730 O   0  0  0  0  0  0  0  0  0  0  0  0
   -8.8220   -1.5470  -23.1910 C   0  0  1  0  0  0  0  0  0  0  0  0
   -8.0330   -1.2980  -24.5060 C   0  0  0  0  0  0  0  0  0  0  0  0
   -8.6910   -1.8490  -25.6910 N   0  0  0  0  0  0  0  0  0  0  0  0
   -7.8970   -2.2300  -26.8520 C   0  0  0  0  0  0  0  0  0  0  0  0
   -7.9480   -3.7430  -27.0580 C   0  0  0  0  0  0  0  0  0  0  0  0
   -7.1720   -4.4960  -26.4940 O   0  0  0  0  0  0  0  0  0  0  0  0
   -8.9160   -4.1690  -27.9250 N   0  0  0  0  0  0  0  0  0  0  0  0
   -9.1290   -5.5930  -28.0620 C   0  0  0  0  0  0  0  0  0  0  0  0
   -9.7330   -6.1930  -26.8150 C   0  0  0  0  0  0  0  0  0  0  0  0
  -10.7770   -5.4210  -26.3410 F   0  0  0  0  0  0  0  0  0  0  0  0
   -8.9390   -6.8820  -25.7630 C   0  0  0  0  0  0  0  0  0  0  0  0
   -9.8680   -7.6650  -26.6590 C   0  0  0  0  0  0  0  0  0  0  0  0
  -10.7900   -8.0370  -26.2330 H   0  0  0  0  0  0  0  0  0  0  0  0
   -9.4310   -8.3030  -27.4220 H   0  0  0  0  0  0  0  0  0  0  0  0
   -7.8720   -6.9730  -25.9360 H   0  0  0  0  0  0  0  0  0  0  0  0
   -9.2470   -6.7200  -24.7350 H   0  0  0  0  0  0  0  0  0  0  0  0
   -9.7880   -5.7520  -28.9230 H   0  0  0  0  0  0  0  0  0  0  0  0
   -8.1690   -6.0800  -28.2690 H   0  0  0  0  0  0  0  0  0  0  0  0
   -9.7390   -3.5760  -27.9610 H   0  0  0  0  0  0  0  0  0  0  0  0
   -8.2960   -1.7310  -27.7400 H   0  0  0  0  0  0  0  0  0  0  0  0
   -6.8640   -1.9090  -26.6990 H   0  0  0  0  0  0  0  0  0  0  0  0
  -10.0330   -1.7300  -25.8990 C   0  0  0  0  0  0  0  0  0  0  0  0
  -10.5490   -1.9600  -26.9940 O   0  0  0  0  0  0  0  0  0  0  0  0
  -10.8530   -1.3370  -24.7260 C   0  0  0  0  0  0  0  0  0  0  0  0
  -12.2130   -1.1100  -24.9400 C   0  0  0  0  0  0  0  0  0  0  0  0
  -13.0470   -0.8390  -23.8750 C   0  0  0  0  0  0  0  0  0  0  0  0
  -12.5080   -0.8050  -22.5970 C   0  0  0  0  0  0  0  0  0  0  0  0
  -13.3540   -0.5780  -21.5780 F   0  0  0  0  0  0  0  0  0  0  0  0
  -11.1560   -1.0100  -22.3650 C   0  0  0  0  0  0  0  0  0  0  0  0
  -10.2960   -1.2590  -23.4440 C   0  0  0  0  0  0  0  0  0  0  0  0
  -10.7650   -0.9830  -21.3570 H   0  0  0  0  0  0  0  0  0  0  0  0
  -14.1090   -0.6730  -24.0080 H   0  0  0  0  0  0  0  0  0  0  0  0
  -12.5960   -1.1690  -25.9540 H   0  0  0  0  0  0  0  0  0  0  0  0
   -7.9240   -0.2100  -24.6180 H   0  0  0  0  0  0  0  0  0  0  0  0
   -7.0280   -1.7400  -24.4300 H   0  0  0  0  0  0  0  0  0  0  0  0
   -6.4670   -3.0910  -22.0660 H   0  0  0  0  0  0  0  0  0  0  0  0
   -7.5070   -3.3720  -20.6800 H   0  0  0  0  0  0  0  0  0  0  0  0
   -9.4930   -3.1340  -21.9140 H   0  0  0  0  0  0  0  0  0  0  0  0
   -8.3570   -5.0710  -22.9140 H   0  0  0  0  0  0  0  0  0  0  0  0
   -7.5140   -4.0260  -24.0750 H   0  0  0  0  0  0  0  0  0  0  0  0
   -9.2740   -4.2210  -24.1750 H   0  0  0  0  0  0  0  0  0  0  0  0
  1  2  1  0  0  0  0
  1 61  1  0  0  0  0
  1 62  1  0  0  0  0
  1 63  1  0  0  0  0
  2  3  1  0  0  0  0
  2 23  1  0  0  0  0
  2 60  1  1  0  0  0
  3  4  1  0  0  0  0
  3 58  1  0  0  0  0
  3 59  1  0  0  0  0
  4  5  1  0  0  0  0
  4 21  1  0  0  0  0
  5  6  2  0  0  0  0
  5 14  1  0  0  0  0
  6  7  1  0  0  0  0
  6 20  1  0  0  0  0
  7  8  2  0  0  0  0
  8  9  1  0  0  0  0
  8 19  1  0  0  0  0
  9 10  2  0  0  0  0
  9 14  1  0  0  0  0
 10 11  1  0  0  0  0
 10 18  1  0  0  0  0
 11 12  2  0  0  0  0
 11 17  1  0  0  0  0
 12 13  1  0  0  0  0
 12 16  1  0  0  0  0
 13 14  2  0  0  0  0
 13 15  1  0  0  0  0
 21 22  2  0  0  0  0
 23 21  1  1  0  0  0
 23 24  1  0  0  0  0
 23 52  1  0  0  0  0
 24 25  1  0  0  0  0
 24 56  1  0  0  0  0
 24 57  1  0  0  0  0
 25 26  1  0  0  0  0
 25 44  1  0  0  0  0
 26 27  1  0  0  0  0
 26 42  1  0  0  0  0
 26 43  1  0  0  0  0
 27 28  2  0  0  0  0
 27 29  1  0  0  0  0
 29 30  1  0  0  0  0
 29 41  1  0  0  0  0
 30 31  1  0  0  0  0
 30 39  1  0  0  0  0
 30 40  1  0  0  0  0
 31 32  1  0  0  0  0
 31 33  1  0  0  0  0
 31 34  1  0  0  0  0
 33 34  1  0  0  0  0
 33 37  1  0  0  0  0
 33 38  1  0  0  0  0
 34 35  1  0  0  0  0
 34 36  1  0  0  0  0
 44 45  2  0  0  0  0
 44 46  1  0  0  0  0
 46 47  2  0  0  0  0
 46 52  1  0  0  0  0
 47 48  1  0  0  0  0
 47 55  1  0  0  0  0
 48 49  2  0  0  0  0
 48 54  1  0  0  0  0
 49 50  1  0  0  0  0
 49 51  1  0  0  0  0
 51 52  2  0  0  0  0
 51 53  1  0  0  0  0
M  END
>  <MODEL>
       1

$$$$
