tmp_first_model_6_6.pdb
 OpenBabel08272519583D

 43 45  0  0  0  0  0  0  0  0999 V2000
  -10.4010   -6.8010  -25.6540 C   0  0  0  0  0  0  0  0  0  0  0  0
   -9.2240   -6.8730  -24.6900 C   0  0  0  0  0  0  0  0  0  0  0  0
   -9.3330   -5.9160  -23.4930 C   0  0  0  0  0  0  0  0  0  0  0  0
   -9.3610   -4.4510  -23.9340 C   0  0  0  0  0  0  0  0  0  0  0  0
   -8.9560   -3.4600  -22.8510 C   0  0  0  0  0  0  0  0  0  0  0  0
   -7.6150   -3.7380  -22.3550 N   0  0  0  0  0  0  0  0  0  0  0  0
   -6.7920   -2.7970  -21.7890 C   0  0  0  0  0  0  0  0  0  0  0  0
   -5.5920   -2.9890  -21.6780 O   0  0  0  0  0  0  0  0  0  0  0  0
   -7.4230   -1.4870  -21.2550 C   0  0  0  0  0  0  0  0  0  0  0  0
   -6.5820   -0.8290  -20.1810 C   0  0  0  0  0  0  0  0  0  0  0  0
   -6.8730   -1.0440  -18.8600 C   0  0  0  0  0  0  0  0  0  0  0  0
   -6.1860   -0.5450  -17.7990 N   0  0  0  0  0  0  0  0  0  0  0  0
   -5.1570    0.2220  -18.0630 C   0  0  0  0  0  0  0  0  0  0  0  0
   -4.7220    0.5340  -19.3790 C   0  0  0  0  0  0  0  0  0  0  0  0
   -3.5920    1.3610  -19.6160 C   0  0  0  0  0  0  0  0  0  0  0  0
   -3.1960    1.6490  -20.8950 C   0  0  0  0  0  0  0  0  0  0  0  0
   -3.9310    1.1370  -21.9850 C   0  0  0  0  0  0  0  0  0  0  0  0
   -5.0180    0.3190  -21.7810 C   0  0  0  0  0  0  0  0  0  0  0  0
   -5.4500   -0.0050  -20.4710 C   0  0  0  0  0  0  0  0  0  0  0  0
   -5.5150   -0.1320  -22.6330 H   0  0  0  0  0  0  0  0  0  0  0  0
   -3.5800    1.3180  -22.9970 H   0  0  0  0  0  0  0  0  0  0  0  0
   -2.3250    2.2720  -21.0830 H   0  0  0  0  0  0  0  0  0  0  0  0
   -3.0520    1.7730  -18.7660 H   0  0  0  0  0  0  0  0  0  0  0  0
   -4.6010    0.6280  -17.2150 H   0  0  0  0  0  0  0  0  0  0  0  0
   -7.7200   -1.6700  -18.5840 H   0  0  0  0  0  0  0  0  0  0  0  0
   -8.4250   -1.6910  -20.8480 H   0  0  0  0  0  0  0  0  0  0  0  0
   -7.5690   -0.7860  -22.0890 H   0  0  0  0  0  0  0  0  0  0  0  0
   -7.1000   -5.0950  -22.5600 C   0  0  0  0  0  0  0  0  0  0  0  0
   -8.2170   -6.1290  -22.4620 C   0  0  0  0  0  0  0  0  0  0  0  0
   -8.6360   -6.0960  -21.4520 H   0  0  0  0  0  0  0  0  0  0  0  0
   -7.8030   -7.1370  -22.5700 H   0  0  0  0  0  0  0  0  0  0  0  0
   -6.3440   -5.2960  -21.8010 H   0  0  0  0  0  0  0  0  0  0  0  0
   -6.5870   -5.1790  -23.5270 H   0  0  0  0  0  0  0  0  0  0  0  0
   -9.6940   -3.4810  -22.0380 H   0  0  0  0  0  0  0  0  0  0  0  0
   -8.9860   -2.4480  -23.2690 H   0  0  0  0  0  0  0  0  0  0  0  0
  -10.3710   -4.2060  -24.2400 H   0  0  0  0  0  0  0  0  0  0  0  0
   -8.7390   -4.2960  -24.8240 H   0  0  0  0  0  0  0  0  0  0  0  0
  -10.2880   -6.1370  -22.9950 H   0  0  0  0  0  0  0  0  0  0  0  0
   -8.2920   -6.6710  -25.2310 H   0  0  0  0  0  0  0  0  0  0  0  0
   -9.1360   -7.9000  -24.3170 H   0  0  0  0  0  0  0  0  0  0  0  0
  -10.3280   -7.5700  -26.4300 H   0  0  0  0  0  0  0  0  0  0  0  0
  -10.4630   -5.8300  -26.1540 H   0  0  0  0  0  0  0  0  0  0  0  0
  -11.3460   -6.9560  -25.1230 H   0  0  0  0  0  0  0  0  0  0  0  0
  1  2  1  0  0  0  0
  1 41  1  0  0  0  0
  1 42  1  0  0  0  0
  1 43  1  0  0  0  0
  2  3  1  0  0  0  0
  2 39  1  0  0  0  0
  2 40  1  0  0  0  0
  3  4  1  0  0  0  0
  3 29  1  0  0  0  0
  3 38  1  0  0  0  0
  4  5  1  0  0  0  0
  4 36  1  0  0  0  0
  4 37  1  0  0  0  0
  5  6  1  0  0  0  0
  5 34  1  0  0  0  0
  5 35  1  0  0  0  0
  6  7  1  0  0  0  0
  6 28  1  0  0  0  0
  7  8  2  0  0  0  0
  7  9  1  0  0  0  0
  9 10  1  0  0  0  0
  9 26  1  0  0  0  0
  9 27  1  0  0  0  0
 10 11  2  0  0  0  0
 10 19  1  0  0  0  0
 11 12  1  0  0  0  0
 11 25  1  0  0  0  0
 12 13  2  0  0  0  0
 13 14  1  0  0  0  0
 13 24  1  0  0  0  0
 14 15  2  0  0  0  0
 14 19  1  0  0  0  0
 15 16  1  0  0  0  0
 15 23  1  0  0  0  0
 16 17  2  0  0  0  0
 16 22  1  0  0  0  0
 17 18  1  0  0  0  0
 17 21  1  0  0  0  0
 18 19  2  0  0  0  0
 18 20  1  0  0  0  0
 28 29  1  0  0  0  0
 28 32  1  0  0  0  0
 28 33  1  0  0  0  0
 29 30  1  0  0  0  0
 29 31  1  0  0  0  0
M  END
>  <MODEL>
       1

$$$$
