tmp_first_model_16_59.pdb
 OpenBabel08282501503D

 60 65  0  0  1  0  0  0  0  0999 V2000
   -7.4080    3.3800  -21.8170 C   0  0  0  0  0  0  0  0  0  0  0  0
   -8.2650    2.8910  -22.8870 N   0  0  0  0  0  0  0  0  0  0  0  0
   -7.6820    2.2030  -23.9070 C   0  0  0  0  0  0  0  0  0  0  0  0
   -6.4710    2.0910  -24.0280 O   0  0  0  0  0  0  0  0  0  0  0  0
   -8.6520    1.5820  -24.9150 C   0  0  0  0  0  0  0  0  0  0  0  0
   -9.3740    0.4660  -24.3460 N   0  0  0  0  0  0  0  0  0  0  0  0
   -8.6650   -0.7890  -24.1870 C   0  0  0  0  0  0  0  0  0  0  0  0
   -9.0680   -1.5160  -22.8880 C   0  0  2  0  0  0  0  0  0  0  0  0
   -8.5370   -0.7400  -21.6640 C   0  0  0  0  0  0  0  0  0  0  0  0
   -9.0070    0.2570  -21.1550 O   0  0  0  0  0  0  0  0  0  0  0  0
   -7.4000   -1.3740  -21.2340 N   0  0  0  0  0  0  0  0  0  0  0  0
   -6.6070   -0.8410  -20.1990 C   0  0  0  0  0  0  0  0  0  0  0  0
   -6.9270   -1.1180  -18.9000 C   0  0  0  0  0  0  0  0  0  0  0  0
   -6.1580   -0.7740  -17.8430 N   0  0  0  0  0  0  0  0  0  0  0  0
   -5.0920   -0.0530  -18.0940 C   0  0  0  0  0  0  0  0  0  0  0  0
   -4.7110    0.3990  -19.3910 C   0  0  0  0  0  0  0  0  0  0  0  0
   -3.6150    1.2740  -19.6120 C   0  0  0  0  0  0  0  0  0  0  0  0
   -3.2540    1.6240  -20.8830 C   0  0  0  0  0  0  0  0  0  0  0  0
   -3.9750    1.1370  -21.9970 C   0  0  0  0  0  0  0  0  0  0  0  0
   -5.0670    0.3290  -21.8090 C   0  0  0  0  0  0  0  0  0  0  0  0
   -5.4680   -0.0440  -20.4970 C   0  0  0  0  0  0  0  0  0  0  0  0
   -5.6380   -0.0190  -22.6670 H   0  0  0  0  0  0  0  0  0  0  0  0
   -3.6700    1.4040  -23.0030 H   0  0  0  0  0  0  0  0  0  0  0  0
   -2.4010    2.2750  -21.0480 H   0  0  0  0  0  0  0  0  0  0  0  0
   -3.0890    1.6720  -18.7480 H   0  0  0  0  0  0  0  0  0  0  0  0
   -4.4600    0.2160  -17.2480 H   0  0  0  0  0  0  0  0  0  0  0  0
   -7.8530   -1.6460  -18.6860 H   0  0  0  0  0  0  0  0  0  0  0  0
   -7.0430   -2.5650  -21.9690 C   0  0  0  0  0  0  0  0  0  0  0  0
   -8.3290   -2.8810  -22.7480 C   0  0  2  0  0  0  0  0  0  0  0  0
   -8.1110   -3.7680  -23.9940 C   0  0  0  0  0  0  0  0  0  0  0  0
   -6.9000   -3.4730  -24.8430 C   0  0  0  0  0  0  0  0  0  0  0  0
   -5.6700   -3.8740  -24.5410 N   0  0  0  0  0  0  0  0  0  0  0  0
   -4.9000   -3.4130  -25.5270 N   0  0  0  0  0  0  0  0  0  0  0  0
   -5.6400   -2.7710  -26.3890 N   0  5  0  0  0  0  0  0  0  0  0  0
   -6.9090   -2.8050  -25.9890 N   0  0  0  0  0  0  0  0  0  0  0  0
   -7.9990   -4.8040  -23.6620 H   0  0  0  0  0  0  0  0  0  0  0  0
   -8.9980   -3.7340  -24.6310 H   0  0  0  0  0  0  0  0  0  0  0  0
   -8.9610   -3.4730  -22.0850 H   0  0  0  0  0  0  0  0  0  0  0  0
   -6.7740   -3.3680  -21.2750 H   0  0  0  0  0  0  0  0  0  0  0  0
   -6.1880   -2.4000  -22.6380 H   0  0  0  0  0  0  0  0  0  0  0  0
  -10.5790   -1.5650  -22.8340 C   0  0  0  0  0  0  0  0  0  0  0  0
  -11.2380   -2.4840  -22.0130 C   0  0  0  0  0  0  0  0  0  0  0  0
  -12.6170   -2.4640  -21.9270 C   0  0  0  0  0  0  0  0  0  0  0  0
  -13.4030   -3.5760  -20.8490 Cl  0  0  0  0  0  0  0  0  0  0  0  0
  -13.3960   -1.5610  -22.6490 C   0  0  0  0  0  0  0  0  0  0  0  0
  -12.7480   -0.6250  -23.4240 C   0  0  0  0  0  0  0  0  0  0  0  0
  -11.3580   -0.6020  -23.4890 C   0  0  0  0  0  0  0  0  0  0  0  0
  -10.7310    0.5340  -24.2330 C   0  0  0  0  0  0  0  0  0  0  0  0
  -11.3860    1.4640  -24.6790 O   0  0  0  0  0  0  0  0  0  0  0  0
  -13.2890    0.1300  -23.9800 H   0  0  0  0  0  0  0  0  0  0  0  0
  -14.4790   -1.5910  -22.5700 H   0  0  0  0  0  0  0  0  0  0  0  0
  -10.6860   -3.2070  -21.4200 H   0  0  0  0  0  0  0  0  0  0  0  0
   -8.8770   -1.4500  -25.0350 H   0  0  0  0  0  0  0  0  0  0  0  0
   -7.5900   -0.5880  -24.1910 H   0  0  0  0  0  0  0  0  0  0  0  0
   -9.4030    2.3100  -25.2440 H   0  0  0  0  0  0  0  0  0  0  0  0
   -8.0580    1.2480  -25.7690 H   0  0  0  0  0  0  0  0  0  0  0  0
   -9.2320    2.6950  -22.6530 H   0  0  0  0  0  0  0  0  0  0  0  0
   -6.6330    4.0220  -22.2430 H   0  0  0  0  0  0  0  0  0  0  0  0
   -7.9900    3.9920  -21.1270 H   0  0  0  0  0  0  0  0  0  0  0  0
   -6.9120    2.5510  -21.2810 H   0  0  0  0  0  0  0  0  0  0  0  0
  1  2  1  0  0  0  0
  1 58  1  0  0  0  0
  1 59  1  0  0  0  0
  1 60  1  0  0  0  0
  2  3  1  0  0  0  0
  2 57  1  0  0  0  0
  3  4  2  0  0  0  0
  3  5  1  0  0  0  0
  5  6  1  0  0  0  0
  5 55  1  0  0  0  0
  5 56  1  0  0  0  0
  6  7  1  0  0  0  0
  6 48  1  0  0  0  0
  7  8  1  0  0  0  0
  7 53  1  0  0  0  0
  7 54  1  0  0  0  0
  8  9  1  1  0  0  0
  8 29  1  0  0  0  0
  8 41  1  0  0  0  0
  9 10  2  0  0  0  0
  9 11  1  0  0  0  0
 11 12  1  0  0  0  0
 11 28  1  0  0  0  0
 12 13  2  0  0  0  0
 12 21  1  0  0  0  0
 13 14  1  0  0  0  0
 13 27  1  0  0  0  0
 14 15  2  0  0  0  0
 15 16  1  0  0  0  0
 15 26  1  0  0  0  0
 16 17  2  0  0  0  0
 16 21  1  0  0  0  0
 17 18  1  0  0  0  0
 17 25  1  0  0  0  0
 18 19  2  0  0  0  0
 18 24  1  0  0  0  0
 19 20  1  0  0  0  0
 19 23  1  0  0  0  0
 20 21  2  0  0  0  0
 20 22  1  0  0  0  0
 28 29  1  0  0  0  0
 28 39  1  0  0  0  0
 28 40  1  0  0  0  0
 29 30  1  0  0  0  0
 29 38  1  1  0  0  0
 30 31  1  0  0  0  0
 30 36  1  0  0  0  0
 30 37  1  0  0  0  0
 31 32  1  0  0  0  0
 31 35  2  0  0  0  0
 32 33  2  0  0  0  0
 33 34  1  0  0  0  0
 34 35  1  0  0  0  0
 41 42  2  0  0  0  0
 41 47  1  0  0  0  0
 42 43  1  0  0  0  0
 42 52  1  0  0  0  0
 43 44  1  0  0  0  0
 43 45  2  0  0  0  0
 45 46  1  0  0  0  0
 45 51  1  0  0  0  0
 46 47  2  0  0  0  0
 46 50  1  0  0  0  0
 47 48  1  0  0  0  0
 48 49  2  0  0  0  0
M  CHG  1  34  -1
M  END
>  <MODEL>
       1

$$$$
