tmp_first_model_13_91.pdb
 OpenBabel08282500103D

 66 71  0  0  1  0  0  0  0  0999 V2000
   -7.4660    3.1430  -21.7950 C   0  0  0  0  0  0  0  0  0  0  0  0
   -8.5410    2.7530  -22.6870 N   0  0  0  0  0  0  0  0  0  0  0  0
   -8.1960    2.0350  -23.7880 C   0  0  0  0  0  0  0  0  0  0  0  0
   -7.0270    1.7930  -24.0550 O   0  0  0  0  0  0  0  0  0  0  0  0
   -9.3300    1.5100  -24.6660 C   0  0  0  0  0  0  0  0  0  0  0  0
   -9.8930    0.3050  -24.0760 N   0  0  0  0  0  0  0  0  0  0  0  0
   -9.0840   -0.9100  -24.0460 C   0  0  0  0  0  0  0  0  0  0  0  0
   -9.2900   -1.6990  -22.7260 C   0  0  2  0  0  0  0  0  0  0  0  0
   -8.6740   -0.8730  -21.5550 C   0  0  0  0  0  0  0  0  0  0  0  0
   -9.1560    0.1080  -21.0250 O   0  0  0  0  0  0  0  0  0  0  0  0
   -7.4500   -1.4140  -21.2250 N   0  0  0  0  0  0  0  0  0  0  0  0
   -6.6330   -0.8370  -20.2100 C   0  0  0  0  0  0  0  0  0  0  0  0
   -6.9410   -1.0540  -18.8890 C   0  0  0  0  0  0  0  0  0  0  0  0
   -6.2310   -0.5650  -17.8450 N   0  0  0  0  0  0  0  0  0  0  0  0
   -5.1880    0.1810  -18.1090 C   0  0  0  0  0  0  0  0  0  0  0  0
   -4.7550    0.4970  -19.4250 C   0  0  0  0  0  0  0  0  0  0  0  0
   -3.6360    1.3400  -19.6540 C   0  0  0  0  0  0  0  0  0  0  0  0
   -3.2480    1.6450  -20.9300 C   0  0  0  0  0  0  0  0  0  0  0  0
   -3.9640    1.1230  -22.0280 C   0  0  0  0  0  0  0  0  0  0  0  0
   -5.0600    0.3120  -21.8330 C   0  0  0  0  0  0  0  0  0  0  0  0
   -5.4860   -0.0320  -20.5200 C   0  0  0  0  0  0  0  0  0  0  0  0
   -5.6360   -0.0180  -22.6910 H   0  0  0  0  0  0  0  0  0  0  0  0
   -3.6580    1.3760  -23.0380 H   0  0  0  0  0  0  0  0  0  0  0  0
   -2.3960    2.2960  -21.1030 H   0  0  0  0  0  0  0  0  0  0  0  0
   -3.1080    1.7410  -18.7930 H   0  0  0  0  0  0  0  0  0  0  0  0
   -4.6260    0.5800  -17.2620 H   0  0  0  0  0  0  0  0  0  0  0  0
   -7.8050   -1.6610  -18.6330 H   0  0  0  0  0  0  0  0  0  0  0  0
   -7.1050   -2.5880  -22.0110 C   0  0  0  0  0  0  0  0  0  0  0  0
   -8.4370   -3.0020  -22.6650 C   0  0  2  0  0  0  0  0  0  0  0  0
   -8.2140   -3.8130  -23.9510 C   0  0  0  0  0  0  0  0  0  0  0  0
   -9.4250   -4.4620  -24.4060 N   0  0  0  0  0  0  0  0  0  0  0  0
   -9.4890   -5.3500  -25.4510 C   0  0  0  0  0  0  0  0  0  0  0  0
   -8.3370   -5.9020  -26.0770 C   0  0  0  0  0  0  0  0  0  0  0  0
   -8.4150   -6.7700  -27.0720 N   0  0  0  0  0  0  0  0  0  0  0  0
   -9.6440   -7.1290  -27.4600 C   0  0  0  0  0  0  0  0  0  0  0  0
  -10.7650   -6.6090  -26.8320 C   0  0  0  0  0  0  0  0  0  0  0  0
  -10.7150   -5.7030  -25.8540 N   0  0  0  0  0  0  0  0  0  0  0  0
  -11.7470   -6.9010  -27.1580 H   0  0  0  0  0  0  0  0  0  0  0  0
   -9.7030   -7.8560  -28.2600 H   0  0  0  0  0  0  0  0  0  0  0  0
   -7.3310   -5.6190  -25.7640 H   0  0  0  0  0  0  0  0  0  0  0  0
  -10.3150   -4.0260  -24.2050 H   0  0  0  0  0  0  0  0  0  0  0  0
   -7.4770   -4.5950  -23.7300 H   0  0  0  0  0  0  0  0  0  0  0  0
   -7.7800   -3.1760  -24.7390 H   0  0  0  0  0  0  0  0  0  0  0  0
   -8.9310   -3.6700  -21.9550 H   0  0  0  0  0  0  0  0  0  0  0  0
   -6.3410   -2.3540  -22.7680 H   0  0  0  0  0  0  0  0  0  0  0  0
   -6.7090   -3.3840  -21.3710 H   0  0  0  0  0  0  0  0  0  0  0  0
  -10.7910   -1.8830  -22.5270 C   0  0  0  0  0  0  0  0  0  0  0  0
  -11.3230   -2.9210  -21.7480 C   0  0  0  0  0  0  0  0  0  0  0  0
  -12.6740   -2.9430  -21.4370 C   0  0  0  0  0  0  0  0  0  0  0  0
  -13.3050   -4.1260  -20.3340 Cl  0  0  0  0  0  0  0  0  0  0  0  0
  -13.5590   -1.9880  -21.9260 C   0  0  0  0  0  0  0  0  0  0  0  0
  -13.0530   -0.9750  -22.7090 C   0  0  0  0  0  0  0  0  0  0  0  0
  -11.6910   -0.9140  -23.0010 C   0  0  0  0  0  0  0  0  0  0  0  0
  -11.2300    0.2750  -23.7910 C   0  0  0  0  0  0  0  0  0  0  0  0
  -12.0010    1.1590  -24.1310 O   0  0  0  0  0  0  0  0  0  0  0  0
  -13.6920   -0.1840  -23.0810 H   0  0  0  0  0  0  0  0  0  0  0  0
  -14.6080   -2.0360  -21.6570 H   0  0  0  0  0  0  0  0  0  0  0  0
  -10.6970   -3.7000  -21.3290 H   0  0  0  0  0  0  0  0  0  0  0  0
   -8.0330   -0.6270  -24.1610 H   0  0  0  0  0  0  0  0  0  0  0  0
   -9.3590   -1.5500  -24.8970 H   0  0  0  0  0  0  0  0  0  0  0  0
  -10.1390    2.2390  -24.7820 H   0  0  0  0  0  0  0  0  0  0  0  0
   -8.9200    1.2950  -25.6600 H   0  0  0  0  0  0  0  0  0  0  0  0
   -9.4700    2.6800  -22.2930 H   0  0  0  0  0  0  0  0  0  0  0  0
   -7.8980    3.5280  -20.8790 H   0  0  0  0  0  0  0  0  0  0  0  0
   -6.8370    2.2780  -21.5630 H   0  0  0  0  0  0  0  0  0  0  0  0
   -6.8470    3.9210  -22.2500 H   0  0  0  0  0  0  0  0  0  0  0  0
  1  2  1  0  0  0  0
  1 64  1  0  0  0  0
  1 65  1  0  0  0  0
  1 66  1  0  0  0  0
  2  3  1  0  0  0  0
  2 63  1  0  0  0  0
  3  4  2  0  0  0  0
  3  5  1  0  0  0  0
  5  6  1  0  0  0  0
  5 61  1  0  0  0  0
  5 62  1  0  0  0  0
  6  7  1  0  0  0  0
  6 54  1  0  0  0  0
  7  8  1  0  0  0  0
  7 59  1  0  0  0  0
  7 60  1  0  0  0  0
  8  9  1  1  0  0  0
  8 29  1  0  0  0  0
  8 47  1  0  0  0  0
  9 10  2  0  0  0  0
  9 11  1  0  0  0  0
 11 12  1  0  0  0  0
 11 28  1  0  0  0  0
 12 13  2  0  0  0  0
 12 21  1  0  0  0  0
 13 14  1  0  0  0  0
 13 27  1  0  0  0  0
 14 15  2  0  0  0  0
 15 16  1  0  0  0  0
 15 26  1  0  0  0  0
 16 17  2  0  0  0  0
 16 21  1  0  0  0  0
 17 18  1  0  0  0  0
 17 25  1  0  0  0  0
 18 19  2  0  0  0  0
 18 24  1  0  0  0  0
 19 20  1  0  0  0  0
 19 23  1  0  0  0  0
 20 21  2  0  0  0  0
 20 22  1  0  0  0  0
 28 29  1  0  0  0  0
 28 45  1  0  0  0  0
 28 46  1  0  0  0  0
 29 30  1  0  0  0  0
 29 44  1  1  0  0  0
 30 31  1  0  0  0  0
 30 42  1  0  0  0  0
 30 43  1  0  0  0  0
 31 32  1  0  0  0  0
 31 41  1  0  0  0  0
 32 33  2  0  0  0  0
 32 37  1  0  0  0  0
 33 34  1  0  0  0  0
 33 40  1  0  0  0  0
 34 35  2  0  0  0  0
 35 36  1  0  0  0  0
 35 39  1  0  0  0  0
 36 37  2  0  0  0  0
 36 38  1  0  0  0  0
 47 48  2  0  0  0  0
 47 53  1  0  0  0  0
 48 49  1  0  0  0  0
 48 58  1  0  0  0  0
 49 50  1  0  0  0  0
 49 51  2  0  0  0  0
 51 52  1  0  0  0  0
 51 57  1  0  0  0  0
 52 53  2  0  0  0  0
 52 56  1  0  0  0  0
 53 54  1  0  0  0  0
 54 55  2  0  0  0  0
M  END
>  <MODEL>
       1

$$$$
