tmp_first_model_18_82.pdb
 OpenBabel08282502533D

 54 57  0  0  1  0  0  0  0  0999 V2000
  -10.7230    0.3780  -25.4250 C   0  0  0  0  0  0  0  0  0  0  0  0
   -9.8350   -0.6020  -24.9300 O   0  0  0  0  0  0  0  0  0  0  0  0
   -8.5010   -0.5210  -25.2210 C   0  0  0  0  0  0  0  0  0  0  0  0
   -7.9450    0.5080  -25.9870 C   0  0  0  0  0  0  0  0  0  0  0  0
   -6.5730    0.5260  -26.2380 C   0  0  0  0  0  0  0  0  0  0  0  0
   -5.7480   -0.4660  -25.7290 C   0  0  0  0  0  0  0  0  0  0  0  0
   -6.3150   -1.4740  -24.9540 C   0  0  0  0  0  0  0  0  0  0  0  0
   -7.6790   -1.5430  -24.6900 C   0  0  0  0  0  0  0  0  0  0  0  0
   -8.2980   -2.6710  -23.8510 C   0  0  1  0  0  0  0  0  0  0  0  0
   -9.1400   -3.6540  -24.6920 C   0  0  0  0  0  0  0  0  0  0  0  0
   -8.4100   -4.8650  -25.2730 C   0  0  1  0  0  0  0  0  0  0  0  0
   -7.5080   -4.5380  -26.4630 C   0  0  0  0  0  0  0  0  0  0  0  0
   -6.6830   -3.8750  -26.1900 H   0  0  0  0  0  0  0  0  0  0  0  0
   -7.0750   -5.4490  -26.8900 H   0  0  0  0  0  0  0  0  0  0  0  0
   -8.0720   -4.0330  -27.2540 H   0  0  0  0  0  0  0  0  0  0  0  0
   -7.6720   -5.5500  -24.1300 C   0  0  0  0  0  0  0  0  0  0  0  0
   -6.7090   -4.6180  -23.4100 C   0  0  0  0  0  0  0  0  0  0  0  0
   -7.3490   -3.3690  -22.9690 N   0  0  0  0  0  0  0  0  0  0  0  0
   -6.7430   -2.7420  -21.8870 C   0  0  0  0  0  0  0  0  0  0  0  0
   -5.7310   -3.1980  -21.3860 O   0  0  0  0  0  0  0  0  0  0  0  0
   -7.4010   -1.4730  -21.2820 C   0  0  0  0  0  0  0  0  0  0  0  0
   -6.5770   -0.8350  -20.1840 C   0  0  0  0  0  0  0  0  0  0  0  0
   -6.8710   -1.0490  -18.8630 C   0  0  0  0  0  0  0  0  0  0  0  0
   -6.1900   -0.5430  -17.7970 N   0  0  0  0  0  0  0  0  0  0  0  0
   -5.1600    0.2230  -18.0640 C   0  0  0  0  0  0  0  0  0  0  0  0
   -4.7220    0.5310  -19.3800 C   0  0  0  0  0  0  0  0  0  0  0  0
   -3.5950    1.3570  -19.6220 C   0  0  0  0  0  0  0  0  0  0  0  0
   -3.1940    1.6340  -20.9000 C   0  0  0  0  0  0  0  0  0  0  0  0
   -3.9080    1.0910  -21.9930 C   0  0  0  0  0  0  0  0  0  0  0  0
   -5.0040    0.2880  -21.7890 C   0  0  0  0  0  0  0  0  0  0  0  0
   -5.4450   -0.0140  -20.4760 C   0  0  0  0  0  0  0  0  0  0  0  0
   -5.5360   -0.1240  -22.6460 H   0  0  0  0  0  0  0  0  0  0  0  0
   -3.5850    1.3150  -23.0060 H   0  0  0  0  0  0  0  0  0  0  0  0
   -2.3320    2.2730  -21.0880 H   0  0  0  0  0  0  0  0  0  0  0  0
   -3.0580    1.7720  -18.7700 H   0  0  0  0  0  0  0  0  0  0  0  0
   -4.6050    0.6300  -17.2140 H   0  0  0  0  0  0  0  0  0  0  0  0
   -7.7200   -1.6720  -18.5850 H   0  0  0  0  0  0  0  0  0  0  0  0
   -7.6260   -0.7390  -22.0670 H   0  0  0  0  0  0  0  0  0  0  0  0
   -8.3720   -1.7760  -20.8620 H   0  0  0  0  0  0  0  0  0  0  0  0
   -6.3140   -5.1120  -22.5200 H   0  0  0  0  0  0  0  0  0  0  0  0
   -5.8290   -4.4350  -24.0460 H   0  0  0  0  0  0  0  0  0  0  0  0
   -8.4010   -5.9330  -23.4100 H   0  0  0  0  0  0  0  0  0  0  0  0
   -7.1270   -6.4210  -24.5080 H   0  0  0  0  0  0  0  0  0  0  0  0
   -9.1800   -5.5590  -25.6450 H   0  0  0  0  0  0  0  0  0  0  0  0
   -9.6150   -3.0910  -25.4970 H   0  0  0  0  0  0  0  0  0  0  0  0
   -9.9590   -4.0200  -24.0610 H   0  0  0  0  0  0  0  0  0  0  0  0
   -9.0160   -2.1790  -23.1900 H   0  0  0  0  0  0  0  0  0  0  0  0
   -5.6640   -2.2470  -24.5650 H   0  0  0  0  0  0  0  0  0  0  0  0
   -4.6750   -0.4620  -25.9130 H   0  0  0  0  0  0  0  0  0  0  0  0
   -6.1410    1.3280  -26.8280 H   0  0  0  0  0  0  0  0  0  0  0  0
   -8.5690    1.3020  -26.3910 H   0  0  0  0  0  0  0  0  0  0  0  0
  -11.7020    0.1090  -25.0300 H   0  0  0  0  0  0  0  0  0  0  0  0
  -10.7990    0.4130  -26.5170 H   0  0  0  0  0  0  0  0  0  0  0  0
  -10.4660    1.3970  -25.1130 H   0  0  0  0  0  0  0  0  0  0  0  0
  1  2  1  0  0  0  0
  1 52  1  0  0  0  0
  1 53  1  0  0  0  0
  1 54  1  0  0  0  0
  2  3  1  0  0  0  0
  3  4  2  0  0  0  0
  3  8  1  0  0  0  0
  4  5  1  0  0  0  0
  4 51  1  0  0  0  0
  5  6  2  0  0  0  0
  5 50  1  0  0  0  0
  6  7  1  0  0  0  0
  6 49  1  0  0  0  0
  7  8  2  0  0  0  0
  7 48  1  0  0  0  0
  8  9  1  0  0  0  0
  9 10  1  0  0  0  0
  9 18  1  0  0  0  0
  9 47  1  1  0  0  0
 10 11  1  0  0  0  0
 10 45  1  0  0  0  0
 10 46  1  0  0  0  0
 11 12  1  0  0  0  0
 11 16  1  0  0  0  0
 11 44  1  6  0  0  0
 12 13  1  0  0  0  0
 12 14  1  0  0  0  0
 12 15  1  0  0  0  0
 16 17  1  0  0  0  0
 16 42  1  0  0  0  0
 16 43  1  0  0  0  0
 17 18  1  0  0  0  0
 17 40  1  0  0  0  0
 17 41  1  0  0  0  0
 18 19  1  0  0  0  0
 19 20  2  0  0  0  0
 19 21  1  0  0  0  0
 21 22  1  0  0  0  0
 21 38  1  0  0  0  0
 21 39  1  0  0  0  0
 22 23  2  0  0  0  0
 22 31  1  0  0  0  0
 23 24  1  0  0  0  0
 23 37  1  0  0  0  0
 24 25  2  0  0  0  0
 25 26  1  0  0  0  0
 25 36  1  0  0  0  0
 26 27  2  0  0  0  0
 26 31  1  0  0  0  0
 27 28  1  0  0  0  0
 27 35  1  0  0  0  0
 28 29  2  0  0  0  0
 28 34  1  0  0  0  0
 29 30  1  0  0  0  0
 29 33  1  0  0  0  0
 30 31  2  0  0  0  0
 30 32  1  0  0  0  0
M  END
>  <MODEL>
       1

$$$$
