tmp_first_model_2_54.pdb
 OpenBabel08272517383D

 40 43  0  0  0  0  0  0  0  0999 V2000
   -9.4250   -3.8820  -22.7470 C   0  0  0  0  0  0  0  0  0  0  0  0
   -8.6590   -2.7120  -22.3610 N   0  0  0  0  0  0  0  0  0  0  0  0
   -8.6970   -1.4590  -22.9030 C   0  0  0  0  0  0  0  0  0  0  0  0
   -9.5700   -1.0720  -24.0450 C   0  0  0  0  0  0  0  0  0  0  0  0
  -10.9940   -0.8420  -23.5840 C   0  0  0  0  0  0  0  0  0  0  0  0
  -11.2940    0.2930  -22.8350 C   0  0  0  0  0  0  0  0  0  0  0  0
  -12.5900    0.5180  -22.3880 C   0  0  0  0  0  0  0  0  0  0  0  0
  -13.5970   -0.4020  -22.6670 C   0  0  0  0  0  0  0  0  0  0  0  0
  -13.3010   -1.5490  -23.3950 C   0  0  0  0  0  0  0  0  0  0  0  0
  -12.0020   -1.7640  -23.8480 C   0  0  0  0  0  0  0  0  0  0  0  0
  -11.7660   -2.6640  -24.4110 H   0  0  0  0  0  0  0  0  0  0  0  0
  -14.0800   -2.2730  -23.6130 H   0  0  0  0  0  0  0  0  0  0  0  0
  -14.6100   -0.2280  -22.3170 H   0  0  0  0  0  0  0  0  0  0  0  0
  -12.8140    1.4100  -21.8100 H   0  0  0  0  0  0  0  0  0  0  0  0
  -10.5010    1.0020  -22.6120 H   0  0  0  0  0  0  0  0  0  0  0  0
   -9.1370   -0.1590  -24.4700 H   0  0  0  0  0  0  0  0  0  0  0  0
   -9.5430   -1.8380  -24.8290 H   0  0  0  0  0  0  0  0  0  0  0  0
   -7.9630   -0.6120  -22.2400 N   0  0  0  0  0  0  0  0  0  0  0  0
   -7.4290   -1.3300  -21.2130 N   0  0  0  0  0  0  0  0  0  0  0  0
   -6.6130   -0.7910  -20.1920 C   0  0  0  0  0  0  0  0  0  0  0  0
   -6.9030   -1.0470  -18.8720 C   0  0  0  0  0  0  0  0  0  0  0  0
   -6.2080   -0.5430  -17.8280 N   0  0  0  0  0  0  0  0  0  0  0  0
   -5.1720    0.2180  -18.0880 C   0  0  0  0  0  0  0  0  0  0  0  0
   -4.7320    0.5240  -19.4030 C   0  0  0  0  0  0  0  0  0  0  0  0
   -3.5980    1.3500  -19.6270 C   0  0  0  0  0  0  0  0  0  0  0  0
   -3.1850    1.6200  -20.9040 C   0  0  0  0  0  0  0  0  0  0  0  0
   -3.8810    1.0620  -22.0000 C   0  0  0  0  0  0  0  0  0  0  0  0
   -4.9810    0.2600  -21.8090 C   0  0  0  0  0  0  0  0  0  0  0  0
   -5.4570   -0.0070  -20.4980 C   0  0  0  0  0  0  0  0  0  0  0  0
   -5.5300   -0.1540  -22.6460 H   0  0  0  0  0  0  0  0  0  0  0  0
   -3.5530    1.2830  -23.0120 H   0  0  0  0  0  0  0  0  0  0  0  0
   -2.3240    2.2620  -21.0870 H   0  0  0  0  0  0  0  0  0  0  0  0
   -3.0760    1.7670  -18.7690 H   0  0  0  0  0  0  0  0  0  0  0  0
   -4.6210    0.6170  -17.2340 H   0  0  0  0  0  0  0  0  0  0  0  0
   -7.7380   -1.6810  -18.5890 H   0  0  0  0  0  0  0  0  0  0  0  0
   -7.7480   -2.6670  -21.3030 C   0  0  0  0  0  0  0  0  0  0  0  0
   -7.2740   -3.5620  -20.6480 O   0  0  0  0  0  0  0  0  0  0  0  0
   -9.4760   -3.9970  -23.8350 H   0  0  0  0  0  0  0  0  0  0  0  0
  -10.4450   -3.8710  -22.3470 H   0  0  0  0  0  0  0  0  0  0  0  0
   -8.9160   -4.7520  -22.3430 H   0  0  0  0  0  0  0  0  0  0  0  0
  1  2  1  0  0  0  0
  1 38  1  0  0  0  0
  1 39  1  0  0  0  0
  1 40  1  0  0  0  0
  2  3  1  0  0  0  0
  2 36  1  0  0  0  0
  3  4  1  0  0  0  0
  3 18  2  0  0  0  0
  4  5  1  0  0  0  0
  4 16  1  0  0  0  0
  4 17  1  0  0  0  0
  5  6  2  0  0  0  0
  5 10  1  0  0  0  0
  6  7  1  0  0  0  0
  6 15  1  0  0  0  0
  7  8  2  0  0  0  0
  7 14  1  0  0  0  0
  8  9  1  0  0  0  0
  8 13  1  0  0  0  0
  9 10  2  0  0  0  0
  9 12  1  0  0  0  0
 10 11  1  0  0  0  0
 18 19  1  0  0  0  0
 19 20  1  0  0  0  0
 19 36  1  0  0  0  0
 20 21  2  0  0  0  0
 20 29  1  0  0  0  0
 21 22  1  0  0  0  0
 21 35  1  0  0  0  0
 22 23  2  0  0  0  0
 23 24  1  0  0  0  0
 23 34  1  0  0  0  0
 24 25  2  0  0  0  0
 24 29  1  0  0  0  0
 25 26  1  0  0  0  0
 25 33  1  0  0  0  0
 26 27  2  0  0  0  0
 26 32  1  0  0  0  0
 27 28  1  0  0  0  0
 27 31  1  0  0  0  0
 28 29  2  0  0  0  0
 28 30  1  0  0  0  0
 36 37  2  0  0  0  0
M  END
>  <MODEL>
       1

$$$$
