tmp_first_model_7_62.pdb
 OpenBabel08272520323D

 44 47  0  0  0  0  0  0  0  0999 V2000
   -5.5880   -2.9790  -21.6730 O   0  0  0  0  0  0  0  0  0  0  0  0
   -6.7900   -2.8010  -21.7690 C   0  0  0  0  0  0  0  0  0  0  0  0
   -7.4220   -1.4820  -21.2560 C   0  0  0  0  0  0  0  0  0  0  0  0
   -6.5810   -0.8250  -20.1810 C   0  0  0  0  0  0  0  0  0  0  0  0
   -6.8730   -1.0420  -18.8610 C   0  0  0  0  0  0  0  0  0  0  0  0
   -6.1820   -0.5410  -17.8050 N   0  0  0  0  0  0  0  0  0  0  0  0
   -5.1540    0.2230  -18.0700 C   0  0  0  0  0  0  0  0  0  0  0  0
   -4.7180    0.5310  -19.3830 C   0  0  0  0  0  0  0  0  0  0  0  0
   -3.5880    1.3540  -19.6220 C   0  0  0  0  0  0  0  0  0  0  0  0
   -3.1880    1.6320  -20.8990 C   0  0  0  0  0  0  0  0  0  0  0  0
   -3.9030    1.0930  -21.9910 C   0  0  0  0  0  0  0  0  0  0  0  0
   -4.9970    0.2890  -21.7860 C   0  0  0  0  0  0  0  0  0  0  0  0
   -5.4440   -0.0110  -20.4750 C   0  0  0  0  0  0  0  0  0  0  0  0
   -5.5200   -0.1390  -22.6360 H   0  0  0  0  0  0  0  0  0  0  0  0
   -3.5780    1.3190  -23.0040 H   0  0  0  0  0  0  0  0  0  0  0  0
   -2.3280    2.2740  -21.0820 H   0  0  0  0  0  0  0  0  0  0  0  0
   -3.0590    1.7740  -18.7690 H   0  0  0  0  0  0  0  0  0  0  0  0
   -4.6030    0.6280  -17.2170 H   0  0  0  0  0  0  0  0  0  0  0  0
   -7.7200   -1.6690  -18.5820 H   0  0  0  0  0  0  0  0  0  0  0  0
   -7.5650   -0.7930  -22.1000 H   0  0  0  0  0  0  0  0  0  0  0  0
   -8.4240   -1.6890  -20.8500 H   0  0  0  0  0  0  0  0  0  0  0  0
   -7.6230   -3.7670  -22.3090 N   0  0  0  0  0  0  0  0  0  0  0  0
   -7.2650   -5.1760  -22.1420 C   0  0  0  0  0  0  0  0  0  0  0  0
   -7.5320   -5.9910  -23.3980 C   0  0  0  0  0  0  0  0  0  0  0  0
   -8.9710   -5.8170  -23.8820 C   0  0  0  0  0  0  0  0  0  0  0  0
   -9.2340   -6.6950  -25.1070 C   0  0  0  0  0  0  0  0  0  0  0  0
   -8.4870   -6.4590  -26.3930 C   0  0  0  0  0  0  0  0  0  0  0  0
   -9.9730   -6.2350  -26.3350 C   0  0  0  0  0  0  0  0  0  0  0  0
  -10.6140   -6.9380  -26.8650 H   0  0  0  0  0  0  0  0  0  0  0  0
  -10.3330   -5.2100  -26.3810 H   0  0  0  0  0  0  0  0  0  0  0  0
   -7.8550   -5.5740  -26.4440 H   0  0  0  0  0  0  0  0  0  0  0  0
   -8.1120   -7.3070  -26.9650 H   0  0  0  0  0  0  0  0  0  0  0  0
   -9.3720   -7.7510  -24.8710 H   0  0  0  0  0  0  0  0  0  0  0  0
   -9.2640   -4.3310  -24.0720 C   0  0  0  0  0  0  0  0  0  0  0  0
   -8.9710   -3.5280  -22.8080 C   0  0  0  0  0  0  0  0  0  0  0  0
   -9.7220   -3.7770  -22.0410 H   0  0  0  0  0  0  0  0  0  0  0  0
   -9.0770   -2.4650  -23.0290 H   0  0  0  0  0  0  0  0  0  0  0  0
  -10.3130   -4.1850  -24.3440 H   0  0  0  0  0  0  0  0  0  0  0  0
   -8.6720   -3.9340  -24.9030 H   0  0  0  0  0  0  0  0  0  0  0  0
   -9.6180   -6.1640  -23.0740 H   0  0  0  0  0  0  0  0  0  0  0  0
   -6.8440   -5.6850  -24.1920 H   0  0  0  0  0  0  0  0  0  0  0  0
   -7.3280   -7.0500  -23.1990 H   0  0  0  0  0  0  0  0  0  0  0  0
   -7.8420   -5.6140  -21.3120 H   0  0  0  0  0  0  0  0  0  0  0  0
   -6.2120   -5.2240  -21.8640 H   0  0  0  0  0  0  0  0  0  0  0  0
  1  2  2  0  0  0  0
  2  3  1  0  0  0  0
  2 22  1  0  0  0  0
  3  4  1  0  0  0  0
  3 20  1  0  0  0  0
  3 21  1  0  0  0  0
  4  5  2  0  0  0  0
  4 13  1  0  0  0  0
  5  6  1  0  0  0  0
  5 19  1  0  0  0  0
  6  7  2  0  0  0  0
  7  8  1  0  0  0  0
  7 18  1  0  0  0  0
  8  9  2  0  0  0  0
  8 13  1  0  0  0  0
  9 10  1  0  0  0  0
  9 17  1  0  0  0  0
 10 11  2  0  0  0  0
 10 16  1  0  0  0  0
 11 12  1  0  0  0  0
 11 15  1  0  0  0  0
 12 13  2  0  0  0  0
 12 14  1  0  0  0  0
 22 23  1  0  0  0  0
 22 35  1  0  0  0  0
 23 24  1  0  0  0  0
 23 43  1  0  0  0  0
 23 44  1  0  0  0  0
 24 25  1  0  0  0  0
 24 41  1  0  0  0  0
 24 42  1  0  0  0  0
 25 26  1  0  0  0  0
 25 34  1  0  0  0  0
 25 40  1  0  0  0  0
 26 27  1  0  0  0  0
 26 28  1  0  0  0  0
 26 33  1  0  0  0  0
 27 28  1  0  0  0  0
 27 31  1  0  0  0  0
 27 32  1  0  0  0  0
 28 29  1  0  0  0  0
 28 30  1  0  0  0  0
 34 35  1  0  0  0  0
 34 38  1  0  0  0  0
 34 39  1  0  0  0  0
 35 36  1  0  0  0  0
 35 37  1  0  0  0  0
M  END
>  <MODEL>
       1

$$$$
