tmp_first_model_8_72.pdb
 OpenBabel08272521063D

 41 44  0  0  0  0  0  0  0  0999 V2000
   -8.6690    0.7090  -21.2710 O   0  0  0  0  0  0  0  0  0  0  0  0
   -8.6460   -0.4360  -21.6980 C   0  0  0  0  0  0  0  0  0  0  0  0
   -7.5280   -1.4040  -21.2880 C   0  0  0  0  0  0  0  0  0  0  0  0
   -6.6560   -0.8400  -20.2020 C   0  0  0  0  0  0  0  0  0  0  0  0
   -6.9500   -1.0860  -18.8900 C   0  0  0  0  0  0  0  0  0  0  0  0
   -6.2660   -0.6050  -17.8180 N   0  0  0  0  0  0  0  0  0  0  0  0
   -5.2400    0.1730  -18.0740 C   0  0  0  0  0  0  0  0  0  0  0  0
   -4.8170    0.5240  -19.3830 C   0  0  0  0  0  0  0  0  0  0  0  0
   -3.6940    1.3600  -19.6060 C   0  0  0  0  0  0  0  0  0  0  0  0
   -3.3260    1.6950  -20.8790 C   0  0  0  0  0  0  0  0  0  0  0  0
   -4.0710    1.2220  -21.9780 C   0  0  0  0  0  0  0  0  0  0  0  0
   -5.1580    0.4060  -21.7900 C   0  0  0  0  0  0  0  0  0  0  0  0
   -5.5560    0.0250  -20.4820 C   0  0  0  0  0  0  0  0  0  0  0  0
   -5.7140    0.0470  -22.6490 H   0  0  0  0  0  0  0  0  0  0  0  0
   -3.7650    1.5000  -22.9830 H   0  0  0  0  0  0  0  0  0  0  0  0
   -2.4610    2.3300  -21.0480 H   0  0  0  0  0  0  0  0  0  0  0  0
   -3.1390    1.7260  -18.7450 H   0  0  0  0  0  0  0  0  0  0  0  0
   -4.6890    0.5590  -17.2160 H   0  0  0  0  0  0  0  0  0  0  0  0
   -7.7980   -1.7260  -18.6410 H   0  0  0  0  0  0  0  0  0  0  0  0
   -7.9880   -2.3410  -20.9390 H   0  0  0  0  0  0  0  0  0  0  0  0
   -6.9250   -1.6570  -22.1700 H   0  0  0  0  0  0  0  0  0  0  0  0
   -9.6210   -0.9330  -22.5320 N   0  0  0  0  0  0  0  0  0  0  0  0
   -9.5770   -2.2400  -23.1990 C   0  0  0  0  0  0  0  0  0  0  0  0
  -10.3140   -3.3390  -22.4180 C   0  0  0  0  0  0  0  0  0  0  0  0
  -11.5470   -2.7650  -21.6920 C   0  0  0  0  0  0  0  0  0  0  0  0
  -12.4350   -1.8270  -22.4920 C   0  0  0  0  0  0  0  0  0  0  0  0
  -14.1470   -2.0850  -22.6620 S   0  0  0  0  0  0  0  0  0  0  0  0
  -14.3580   -0.5560  -23.4280 C   0  0  0  0  0  0  0  0  0  0  0  0
  -13.1870    0.1200  -23.5360 C   0  0  0  0  0  0  0  0  0  0  0  0
  -12.0680   -0.6060  -22.9910 C   0  0  0  0  0  0  0  0  0  0  0  0
  -10.6770   -0.0030  -22.9220 C   0  0  0  0  0  0  0  0  0  0  0  0
  -10.4100    0.4600  -23.8870 H   0  0  0  0  0  0  0  0  0  0  0  0
  -10.6780    0.8170  -22.1930 H   0  0  0  0  0  0  0  0  0  0  0  0
  -13.1510    1.1130  -23.9800 H   0  0  0  0  0  0  0  0  0  0  0  0
  -15.3450   -0.1830  -23.6790 H   0  0  0  0  0  0  0  0  0  0  0  0
  -12.1440   -3.5460  -21.2110 H   0  0  0  0  0  0  0  0  0  0  0  0
  -11.1290   -2.1370  -20.8940 H   0  0  0  0  0  0  0  0  0  0  0  0
   -9.6610   -3.7880  -21.6600 H   0  0  0  0  0  0  0  0  0  0  0  0
  -10.5690   -4.1590  -23.1030 H   0  0  0  0  0  0  0  0  0  0  0  0
  -10.1130   -2.1250  -24.1480 H   0  0  0  0  0  0  0  0  0  0  0  0
   -8.5410   -2.5440  -23.4200 H   0  0  0  0  0  0  0  0  0  0  0  0
  1  2  2  0  0  0  0
  2  3  1  0  0  0  0
  2 22  1  0  0  0  0
  3  4  1  0  0  0  0
  3 20  1  0  0  0  0
  3 21  1  0  0  0  0
  4  5  2  0  0  0  0
  4 13  1  0  0  0  0
  5  6  1  0  0  0  0
  5 19  1  0  0  0  0
  6  7  2  0  0  0  0
  7  8  1  0  0  0  0
  7 18  1  0  0  0  0
  8  9  2  0  0  0  0
  8 13  1  0  0  0  0
  9 10  1  0  0  0  0
  9 17  1  0  0  0  0
 10 11  2  0  0  0  0
 10 16  1  0  0  0  0
 11 12  1  0  0  0  0
 11 15  1  0  0  0  0
 12 13  2  0  0  0  0
 12 14  1  0  0  0  0
 22 23  1  0  0  0  0
 22 31  1  0  0  0  0
 23 24  1  0  0  0  0
 23 40  1  0  0  0  0
 23 41  1  0  0  0  0
 24 25  1  0  0  0  0
 24 38  1  0  0  0  0
 24 39  1  0  0  0  0
 25 26  1  0  0  0  0
 25 36  1  0  0  0  0
 25 37  1  0  0  0  0
 26 27  1  0  0  0  0
 26 30  2  0  0  0  0
 27 28  1  0  0  0  0
 28 29  2  0  0  0  0
 28 35  1  0  0  0  0
 29 30  1  0  0  0  0
 29 34  1  0  0  0  0
 30 31  1  0  0  0  0
 31 32  1  0  0  0  0
 31 33  1  0  0  0  0
M  END
>  <MODEL>
       1

$$$$
