tmp_first_model_2_32.pdb
 OpenBabel08272517383D

 57 62  0  0  1  0  0  0  0  0999 V2000
  -10.1760   -0.7510  -23.6100 C   0  0  0  0  0  0  0  0  0  0  0  0
   -8.8680   -1.2630  -23.0220 C   0  0  1  0  0  0  0  0  0  0  0  0
   -8.3350   -0.3720  -21.8960 C   0  0  0  0  0  0  0  0  0  0  0  0
   -7.3830   -1.2400  -21.2220 N   0  0  0  0  0  0  0  0  0  0  0  0
   -6.5640   -0.7910  -20.1610 C   0  0  0  0  0  0  0  0  0  0  0  0
   -6.8760   -1.0900  -18.8580 C   0  0  0  0  0  0  0  0  0  0  0  0
   -6.2300   -0.5700  -17.7830 N   0  0  0  0  0  0  0  0  0  0  0  0
   -5.2300    0.2450  -18.0160 C   0  0  0  0  0  0  0  0  0  0  0  0
   -4.7730    0.5970  -19.3170 C   0  0  0  0  0  0  0  0  0  0  0  0
   -3.6620    1.4560  -19.5100 C   0  0  0  0  0  0  0  0  0  0  0  0
   -3.2110    1.7310  -20.7710 C   0  0  0  0  0  0  0  0  0  0  0  0
   -3.8630    1.1740  -21.8940 C   0  0  0  0  0  0  0  0  0  0  0  0
   -4.9610    0.3630  -21.7350 C   0  0  0  0  0  0  0  0  0  0  0  0
   -5.4440    0.0570  -20.4340 C   0  0  0  0  0  0  0  0  0  0  0  0
   -5.4610   -0.0590  -22.6010 H   0  0  0  0  0  0  0  0  0  0  0  0
   -3.4920    1.3920  -22.8910 H   0  0  0  0  0  0  0  0  0  0  0  0
   -2.3520    2.3790  -20.9180 H   0  0  0  0  0  0  0  0  0  0  0  0
   -3.1890    1.8860  -18.6320 H   0  0  0  0  0  0  0  0  0  0  0  0
   -4.7090    0.6610  -17.1530 H   0  0  0  0  0  0  0  0  0  0  0  0
   -7.6990   -1.7640  -18.6260 H   0  0  0  0  0  0  0  0  0  0  0  0
   -7.6600   -2.5780  -21.4210 C   0  0  0  0  0  0  0  0  0  0  0  0
   -7.0430   -3.4860  -20.9070 O   0  0  0  0  0  0  0  0  0  0  0  0
   -8.8540   -2.6950  -22.3930 C   0  0  1  0  0  0  0  0  0  0  0  0
  -10.0940   -3.0180  -21.5260 C   0  0  0  0  0  0  0  0  0  0  0  0
  -11.2350   -3.5380  -22.2670 N   0  0  0  0  0  0  0  0  0  0  0  0
  -12.5720   -3.4970  -21.6570 C   0  0  0  0  0  0  0  0  0  0  0  0
  -13.5650   -2.8540  -22.5700 C   0  0  0  0  0  0  0  0  0  0  0  0
  -14.4290   -3.4650  -23.3600 N   0  0  0  0  0  0  0  0  0  0  0  0
  -13.5510   -1.5160  -22.7800 N   0  0  0  0  0  0  0  0  0  0  0  0
  -14.3580   -1.2920  -23.7770 N   0  0  0  0  0  0  0  0  0  0  0  0
  -14.8450   -2.4620  -24.1240 N   0  0  0  0  0  0  0  0  0  0  0  0
  -15.3950   -2.7080  -25.4380 C   0  0  0  0  0  0  0  0  0  0  0  0
  -16.4010   -3.1060  -25.3470 H   0  0  0  0  0  0  0  0  0  0  0  0
  -15.3790   -1.7740  -25.9990 H   0  0  0  0  0  0  0  0  0  0  0  0
  -14.7460   -3.4190  -25.9430 H   0  0  0  0  0  0  0  0  0  0  0  0
  -12.5150   -2.9140  -20.7350 H   0  0  0  0  0  0  0  0  0  0  0  0
  -12.9100   -4.5000  -21.4080 H   0  0  0  0  0  0  0  0  0  0  0  0
  -11.0800   -4.4000  -23.3160 C   0  0  0  0  0  0  0  0  0  0  0  0
  -12.0310   -4.9760  -23.8220 O   0  0  0  0  0  0  0  0  0  0  0  0
   -9.6960   -4.6020  -23.8200 C   0  0  0  0  0  0  0  0  0  0  0  0
   -9.4940   -5.6110  -24.7590 C   0  0  0  0  0  0  0  0  0  0  0  0
   -8.2460   -5.8480  -25.2940 C   0  0  0  0  0  0  0  0  0  0  0  0
   -7.1990   -5.0430  -24.8660 C   0  0  0  0  0  0  0  0  0  0  0  0
   -5.9750   -5.2780  -25.3660 F   0  0  0  0  0  0  0  0  0  0  0  0
   -7.3690   -4.0310  -23.9420 C   0  0  0  0  0  0  0  0  0  0  0  0
   -8.6380   -3.8010  -23.3950 C   0  0  0  0  0  0  0  0  0  0  0  0
   -6.4980   -3.4720  -23.6200 H   0  0  0  0  0  0  0  0  0  0  0  0
   -8.0650   -6.6490  -26.0030 H   0  0  0  0  0  0  0  0  0  0  0  0
  -10.3380   -6.2260  -25.0380 H   0  0  0  0  0  0  0  0  0  0  0  0
  -10.4190   -2.1090  -21.0100 H   0  0  0  0  0  0  0  0  0  0  0  0
   -9.7670   -3.7440  -20.7730 H   0  0  0  0  0  0  0  0  0  0  0  0
   -9.1560   -0.0780  -21.2200 H   0  0  0  0  0  0  0  0  0  0  0  0
   -7.8540    0.5410  -22.2560 H   0  0  0  0  0  0  0  0  0  0  0  0
   -8.1100   -1.3000  -23.8180 H   0  0  0  0  0  0  0  0  0  0  0  0
  -10.9610   -0.6720  -22.8500 H   0  0  0  0  0  0  0  0  0  0  0  0
  -10.0280    0.2500  -24.0320 H   0  0  0  0  0  0  0  0  0  0  0  0
  -10.5460   -1.4030  -24.4070 H   0  0  0  0  0  0  0  0  0  0  0  0
  1  2  1  0  0  0  0
  1 55  1  0  0  0  0
  1 56  1  0  0  0  0
  1 57  1  0  0  0  0
  2  3  1  0  0  0  0
  2 23  1  0  0  0  0
  2 54  1  6  0  0  0
  3  4  1  0  0  0  0
  3 52  1  0  0  0  0
  3 53  1  0  0  0  0
  4  5  1  0  0  0  0
  4 21  1  0  0  0  0
  5  6  2  0  0  0  0
  5 14  1  0  0  0  0
  6  7  1  0  0  0  0
  6 20  1  0  0  0  0
  7  8  2  0  0  0  0
  8  9  1  0  0  0  0
  8 19  1  0  0  0  0
  9 10  2  0  0  0  0
  9 14  1  0  0  0  0
 10 11  1  0  0  0  0
 10 18  1  0  0  0  0
 11 12  2  0  0  0  0
 11 17  1  0  0  0  0
 12 13  1  0  0  0  0
 12 16  1  0  0  0  0
 13 14  2  0  0  0  0
 13 15  1  0  0  0  0
 21 22  2  0  0  0  0
 23 21  1  1  0  0  0
 23 24  1  0  0  0  0
 23 46  1  0  0  0  0
 24 25  1  0  0  0  0
 24 50  1  0  0  0  0
 24 51  1  0  0  0  0
 25 26  1  0  0  0  0
 25 38  1  0  0  0  0
 26 27  1  0  0  0  0
 26 36  1  0  0  0  0
 26 37  1  0  0  0  0
 27 28  2  0  0  0  0
 27 31  1  0  0  0  0
 28 29  1  0  0  0  0
 29 30  2  0  0  0  0
 30 31  1  0  0  0  0
 31 32  1  0  0  0  0
 32 33  1  0  0  0  0
 32 34  1  0  0  0  0
 32 35  1  0  0  0  0
 38 39  2  0  0  0  0
 38 40  1  0  0  0  0
 40 41  2  0  0  0  0
 40 46  1  0  0  0  0
 41 42  1  0  0  0  0
 41 49  1  0  0  0  0
 42 43  2  0  0  0  0
 42 48  1  0  0  0  0
 43 44  1  0  0  0  0
 43 45  1  0  0  0  0
 45 46  2  0  0  0  0
 45 47  1  0  0  0  0
M  END
>  <MODEL>
       1

$$$$
