tmp_first_model_20_68.pdb
 OpenBabel08282503553D

 65 70  0  0  1  0  0  0  0  0999 V2000
   -8.6550    0.6040  -21.3340 O   0  0  0  0  0  0  0  0  0  0  0  0
   -8.3270   -0.3820  -21.9680 C   0  0  0  0  0  0  0  0  0  0  0  0
   -7.4250   -1.4330  -21.2730 C   0  0  0  0  0  0  0  0  0  0  0  0
   -6.5770   -0.8320  -20.1760 C   0  0  0  0  0  0  0  0  0  0  0  0
   -6.8780   -1.0380  -18.8520 C   0  0  0  0  0  0  0  0  0  0  0  0
   -6.1950   -0.5330  -17.7890 N   0  0  0  0  0  0  0  0  0  0  0  0
   -5.1550    0.2210  -18.0610 C   0  0  0  0  0  0  0  0  0  0  0  0
   -4.7230    0.5350  -19.3800 C   0  0  0  0  0  0  0  0  0  0  0  0
   -3.5980    1.3680  -19.6220 C   0  0  0  0  0  0  0  0  0  0  0  0
   -3.2090    1.6590  -20.9030 C   0  0  0  0  0  0  0  0  0  0  0  0
   -3.9290    1.1270  -21.9970 C   0  0  0  0  0  0  0  0  0  0  0  0
   -5.0190    0.3160  -21.7860 C   0  0  0  0  0  0  0  0  0  0  0  0
   -5.4520    0.0000  -20.4690 C   0  0  0  0  0  0  0  0  0  0  0  0
   -5.5610   -0.0790  -22.6410 H   0  0  0  0  0  0  0  0  0  0  0  0
   -3.6200    1.3660  -23.0090 H   0  0  0  0  0  0  0  0  0  0  0  0
   -2.3540    2.3030  -21.0910 H   0  0  0  0  0  0  0  0  0  0  0  0
   -3.0520    1.7770  -18.7760 H   0  0  0  0  0  0  0  0  0  0  0  0
   -4.5980    0.6280  -17.2170 H   0  0  0  0  0  0  0  0  0  0  0  0
   -7.7310   -1.6620  -18.5860 H   0  0  0  0  0  0  0  0  0  0  0  0
   -8.0910   -2.1870  -20.8360 H   0  0  0  0  0  0  0  0  0  0  0  0
   -6.7880   -1.9590  -21.9910 H   0  0  0  0  0  0  0  0  0  0  0  0
   -8.7270   -0.6040  -23.2880 N   0  0  0  0  0  0  0  0  0  0  0  0
   -9.0040   -1.9460  -23.7770 C   0  0  0  0  0  0  0  0  0  0  0  0
   -7.8020   -2.7000  -24.3070 C   0  0  0  0  0  0  0  0  0  0  0  0
   -7.8660   -4.0880  -24.4130 C   0  0  0  0  0  0  0  0  0  0  0  0
   -6.7760   -4.8080  -24.8890 C   0  0  0  0  0  0  0  0  0  0  0  0
   -5.6060   -4.1620  -25.2670 C   0  0  0  0  0  0  0  0  0  0  0  0
   -5.5530   -2.7800  -25.1660 C   0  0  0  0  0  0  0  0  0  0  0  0
   -4.1030   -1.9390  -25.6460 Cl  0  0  0  0  0  0  0  0  0  0  0  0
   -6.6340   -2.0450  -24.6960 C   0  0  0  0  0  0  0  0  0  0  0  0
   -6.5480   -0.9650  -24.6280 H   0  0  0  0  0  0  0  0  0  0  0  0
   -4.7530   -4.7220  -25.6370 H   0  0  0  0  0  0  0  0  0  0  0  0
   -6.8400   -5.8890  -24.9680 H   0  0  0  0  0  0  0  0  0  0  0  0
   -8.7750   -4.6130  -24.1250 H   0  0  0  0  0  0  0  0  0  0  0  0
   -9.4650   -2.5180  -22.9640 H   0  0  0  0  0  0  0  0  0  0  0  0
   -9.7710   -1.8900  -24.5560 H   0  0  0  0  0  0  0  0  0  0  0  0
   -9.0860    0.5550  -24.1280 C   0  0  2  0  0  0  0  0  0  0  0  0
   -9.1310    0.3350  -25.6700 C   0  0  0  0  0  0  0  0  0  0  0  0
   -9.0290    1.7660  -26.2610 C   0  0  0  0  0  0  0  0  0  0  0  0
   -8.9660    2.6320  -25.0080 C   0  0  2  0  0  0  0  0  0  0  0  0
   -8.1460    1.7760  -24.0550 C   0  0  0  0  0  0  0  0  0  0  0  0
   -8.0650    2.1990  -23.0520 H   0  0  0  0  0  0  0  0  0  0  0  0
   -7.1510    1.5610  -24.4560 H   0  0  0  0  0  0  0  0  0  0  0  0
  -10.3620    2.5850  -24.3690 N   0  3  2  0  0  0  0  0  0  0  0  0
  -10.6220    3.6610  -23.3660 C   0  0  0  0  0  0  0  0  0  0  0  0
  -10.6840    5.0510  -23.9720 C   0  0  0  0  0  0  0  0  0  0  0  0
   -9.4000    5.8940  -23.9620 C   0  0  0  0  0  0  0  0  0  0  0  0
   -9.9620    6.8520  -23.0570 O   0  0  0  0  0  0  0  0  0  0  0  0
  -11.2000    6.1270  -23.0210 C   0  0  0  0  0  0  0  0  0  0  0  0
  -11.4380    5.7720  -22.0130 H   0  0  0  0  0  0  0  0  0  0  0  0
  -12.0490    6.6930  -23.4160 H   0  0  0  0  0  0  0  0  0  0  0  0
   -8.5320    5.3850  -23.5220 H   0  0  0  0  0  0  0  0  0  0  0  0
   -9.1310    6.3450  -24.9260 H   0  0  0  0  0  0  0  0  0  0  0  0
  -11.1930    5.0290  -24.9380 H   0  0  0  0  0  0  0  0  0  0  0  0
   -9.8300    3.6410  -22.6060 H   0  0  0  0  0  0  0  0  0  0  0  0
  -11.5560    3.4490  -22.8270 H   0  0  0  0  0  0  0  0  0  0  0  0
  -10.4430    1.1910  -23.7710 C   0  0  0  0  0  0  0  0  0  0  0  0
  -11.3090    0.6680  -24.1890 H   0  0  0  0  0  0  0  0  0  0  0  0
  -10.5620    1.2760  -22.6910 H   0  0  0  0  0  0  0  0  0  0  0  0
  -11.0910    2.7020  -25.0930 H   0  0  0  0  0  0  0  0  0  0  0  0
   -8.6390    3.6630  -25.1540 H   0  0  0  0  0  0  0  0  0  0  0  0
   -8.1090    1.9010  -26.8390 H   0  0  0  0  0  0  0  0  0  0  0  0
   -9.8740    2.0350  -26.9070 H   0  0  0  0  0  0  0  0  0  0  0  0
   -8.2850   -0.2640  -26.0070 H   0  0  0  0  0  0  0  0  0  0  0  0
  -10.0440   -0.1620  -26.0070 H   0  0  0  0  0  0  0  0  0  0  0  0
  1  2  2  0  0  0  0
  2  3  1  0  0  0  0
  2 22  1  0  0  0  0
  3  4  1  0  0  0  0
  3 20  1  0  0  0  0
  3 21  1  0  0  0  0
  4  5  2  0  0  0  0
  4 13  1  0  0  0  0
  5  6  1  0  0  0  0
  5 19  1  0  0  0  0
  6  7  2  0  0  0  0
  7  8  1  0  0  0  0
  7 18  1  0  0  0  0
  8  9  2  0  0  0  0
  8 13  1  0  0  0  0
  9 10  1  0  0  0  0
  9 17  1  0  0  0  0
 10 11  2  0  0  0  0
 10 16  1  0  0  0  0
 11 12  1  0  0  0  0
 11 15  1  0  0  0  0
 12 13  2  0  0  0  0
 12 14  1  0  0  0  0
 22 23  1  0  0  0  0
 23 24  1  0  0  0  0
 23 35  1  0  0  0  0
 23 36  1  0  0  0  0
 24 25  2  0  0  0  0
 24 30  1  0  0  0  0
 25 26  1  0  0  0  0
 25 34  1  0  0  0  0
 26 27  2  0  0  0  0
 26 33  1  0  0  0  0
 27 28  1  0  0  0  0
 27 32  1  0  0  0  0
 28 29  1  0  0  0  0
 28 30  2  0  0  0  0
 30 31  1  0  0  0  0
 37 22  1  1  0  0  0
 37 38  1  0  0  0  0
 37 41  1  0  0  0  0
 37 57  1  0  0  0  0
 38 39  1  0  0  0  0
 38 64  1  0  0  0  0
 38 65  1  0  0  0  0
 39 40  1  0  0  0  0
 39 62  1  0  0  0  0
 39 63  1  0  0  0  0
 40 41  1  0  0  0  0
 40 44  1  0  0  0  0
 40 61  1  6  0  0  0
 41 42  1  0  0  0  0
 41 43  1  0  0  0  0
 44 45  1  0  0  0  0
 44 57  1  0  0  0  0
 44 60  1  6  0  0  0
 45 46  1  0  0  0  0
 45 55  1  0  0  0  0
 45 56  1  0  0  0  0
 46 47  1  0  0  0  0
 46 49  1  0  0  0  0
 46 54  1  0  0  0  0
 47 48  1  0  0  0  0
 47 52  1  0  0  0  0
 47 53  1  0  0  0  0
 48 49  1  0  0  0  0
 49 50  1  0  0  0  0
 49 51  1  0  0  0  0
 57 58  1  0  0  0  0
 57 59  1  0  0  0  0
M  CHG  1  44   1
M  END
>  <MODEL>
       1

$$$$
