tmp_first_model_12_85.pdb
 OpenBabel08272523333D

 57 62  0  0  1  0  0  0  0  0999 V2000
   -6.7690    3.5710  -23.2260 C   0  0  0  0  0  0  0  0  0  0  0  0
   -7.6520    2.9320  -24.1850 N   0  0  0  0  0  0  0  0  0  0  0  0
   -7.2220    1.8130  -24.8230 C   0  0  0  0  0  0  0  0  0  0  0  0
   -6.0720    1.4000  -24.7390 O   0  0  0  0  0  0  0  0  0  0  0  0
   -8.2800    1.0990  -25.6660 C   0  0  0  0  0  0  0  0  0  0  0  0
   -9.1370    0.2710  -24.8470 N   0  0  0  0  0  0  0  0  0  0  0  0
   -8.6890   -1.0670  -24.4910 C   0  0  0  0  0  0  0  0  0  0  0  0
   -9.0140   -1.4270  -23.0190 C   0  0  2  0  0  0  0  0  0  0  0  0
   -8.1820   -0.5270  -22.0780 C   0  0  0  0  0  0  0  0  0  0  0  0
   -8.2030    0.6880  -22.0530 O   0  0  0  0  0  0  0  0  0  0  0  0
   -7.4290   -1.3140  -21.2270 N   0  0  0  0  0  0  0  0  0  0  0  0
   -6.6320   -0.7710  -20.1910 C   0  0  0  0  0  0  0  0  0  0  0  0
   -6.9060   -1.0700  -18.8780 C   0  0  0  0  0  0  0  0  0  0  0  0
   -6.2120   -0.5870  -17.8200 N   0  0  0  0  0  0  0  0  0  0  0  0
   -5.1990    0.2070  -18.0770 C   0  0  0  0  0  0  0  0  0  0  0  0
   -4.7860    0.5750  -19.3880 C   0  0  0  0  0  0  0  0  0  0  0  0
   -3.6450    1.3930  -19.6090 C   0  0  0  0  0  0  0  0  0  0  0  0
   -3.2720    1.7420  -20.8780 C   0  0  0  0  0  0  0  0  0  0  0  0
   -4.0400    1.3050  -21.9810 C   0  0  0  0  0  0  0  0  0  0  0  0
   -5.1220    0.4790  -21.7970 C   0  0  0  0  0  0  0  0  0  0  0  0
   -5.5280    0.0910  -20.4870 C   0  0  0  0  0  0  0  0  0  0  0  0
   -5.6530    0.1060  -22.6660 H   0  0  0  0  0  0  0  0  0  0  0  0
   -3.7650    1.6010  -22.9910 H   0  0  0  0  0  0  0  0  0  0  0  0
   -2.3870    2.3510  -21.0420 H   0  0  0  0  0  0  0  0  0  0  0  0
   -3.0860    1.7380  -18.7440 H   0  0  0  0  0  0  0  0  0  0  0  0
   -4.6390    0.5860  -17.2240 H   0  0  0  0  0  0  0  0  0  0  0  0
   -7.7510   -1.7120  -18.6360 H   0  0  0  0  0  0  0  0  0  0  0  0
   -7.7060   -2.7320  -21.3540 C   0  0  0  0  0  0  0  0  0  0  0  0
   -8.5530   -2.8390  -22.6170 C   0  0  0  0  0  0  0  0  0  0  0  0
   -9.4420   -4.0380  -22.8040 C   0  0  0  0  0  0  0  0  0  0  0  0
   -8.1980   -3.9000  -23.6250 C   0  0  0  0  0  0  0  0  0  0  0  0
   -8.2990   -3.6660  -24.6810 H   0  0  0  0  0  0  0  0  0  0  0  0
   -7.3590   -4.5520  -23.3980 H   0  0  0  0  0  0  0  0  0  0  0  0
   -9.4780   -4.7980  -22.0190 H   0  0  0  0  0  0  0  0  0  0  0  0
  -10.3940   -3.8690  -23.3020 H   0  0  0  0  0  0  0  0  0  0  0  0
   -6.7730   -3.2980  -21.4460 H   0  0  0  0  0  0  0  0  0  0  0  0
   -8.2630   -3.1090  -20.4870 H   0  0  0  0  0  0  0  0  0  0  0  0
  -10.5090   -1.1520  -22.8550 C   0  0  0  0  0  0  0  0  0  0  0  0
  -11.3250   -1.9270  -22.0410 C   0  0  0  0  0  0  0  0  0  0  0  0
  -12.6890   -1.7010  -21.9710 C   0  0  0  0  0  0  0  0  0  0  0  0
  -13.6190   -2.7760  -20.9800 Cl  0  0  0  0  0  0  0  0  0  0  0  0
  -13.2970   -0.6120  -22.5860 C   0  0  0  0  0  0  0  0  0  0  0  0
  -12.4690    0.2160  -23.3270 C   0  0  0  0  0  0  0  0  0  0  0  0
  -11.1230   -0.0780  -23.5130 C   0  0  0  0  0  0  0  0  0  0  0  0
  -10.3550    0.7660  -24.4830 C   0  0  0  0  0  0  0  0  0  0  0  0
  -10.7750    1.8380  -24.9110 O   0  0  0  0  0  0  0  0  0  0  0  0
  -12.8200    1.1250  -23.7880 H   0  0  0  0  0  0  0  0  0  0  0  0
  -14.3630   -0.4320  -22.4680 H   0  0  0  0  0  0  0  0  0  0  0  0
  -10.8960   -2.6970  -21.4220 H   0  0  0  0  0  0  0  0  0  0  0  0
   -9.1980   -1.7920  -25.1370 H   0  0  0  0  0  0  0  0  0  0  0  0
   -7.6080   -1.1350  -24.6430 H   0  0  0  0  0  0  0  0  0  0  0  0
   -8.9310    1.8220  -26.1610 H   0  0  0  0  0  0  0  0  0  0  0  0
   -7.7690    0.4760  -26.4050 H   0  0  0  0  0  0  0  0  0  0  0  0
   -8.6470    3.0810  -24.0880 H   0  0  0  0  0  0  0  0  0  0  0  0
   -7.2820    4.4050  -22.7420 H   0  0  0  0  0  0  0  0  0  0  0  0
   -6.4460    2.8510  -22.4620 H   0  0  0  0  0  0  0  0  0  0  0  0
   -5.8790    3.9490  -23.7380 H   0  0  0  0  0  0  0  0  0  0  0  0
  1  2  1  0  0  0  0
  1 55  1  0  0  0  0
  1 56  1  0  0  0  0
  1 57  1  0  0  0  0
  2  3  1  0  0  0  0
  2 54  1  0  0  0  0
  3  4  2  0  0  0  0
  3  5  1  0  0  0  0
  5  6  1  0  0  0  0
  5 52  1  0  0  0  0
  5 53  1  0  0  0  0
  6  7  1  0  0  0  0
  6 45  1  0  0  0  0
  7  8  1  0  0  0  0
  7 50  1  0  0  0  0
  7 51  1  0  0  0  0
  8  9  1  1  0  0  0
  8 29  1  0  0  0  0
  8 38  1  0  0  0  0
  9 10  2  0  0  0  0
  9 11  1  0  0  0  0
 11 12  1  0  0  0  0
 11 28  1  0  0  0  0
 12 13  2  0  0  0  0
 12 21  1  0  0  0  0
 13 14  1  0  0  0  0
 13 27  1  0  0  0  0
 14 15  2  0  0  0  0
 15 16  1  0  0  0  0
 15 26  1  0  0  0  0
 16 17  2  0  0  0  0
 16 21  1  0  0  0  0
 17 18  1  0  0  0  0
 17 25  1  0  0  0  0
 18 19  2  0  0  0  0
 18 24  1  0  0  0  0
 19 20  1  0  0  0  0
 19 23  1  0  0  0  0
 20 21  2  0  0  0  0
 20 22  1  0  0  0  0
 28 29  1  0  0  0  0
 28 36  1  0  0  0  0
 28 37  1  0  0  0  0
 29 30  1  0  0  0  0
 29 31  1  0  0  0  0
 30 31  1  0  0  0  0
 30 34  1  0  0  0  0
 30 35  1  0  0  0  0
 31 32  1  0  0  0  0
 31 33  1  0  0  0  0
 38 39  2  0  0  0  0
 38 44  1  0  0  0  0
 39 40  1  0  0  0  0
 39 49  1  0  0  0  0
 40 41  1  0  0  0  0
 40 42  2  0  0  0  0
 42 43  1  0  0  0  0
 42 48  1  0  0  0  0
 43 44  2  0  0  0  0
 43 47  1  0  0  0  0
 44 45  1  0  0  0  0
 45 46  2  0  0  0  0
M  END
>  <MODEL>
       1

$$$$
