tmp_first_model_10_92.pdb
 OpenBabel08272522163D

 60 65  0  0  1  0  0  0  0  0999 V2000
   -7.4660   -6.2940  -23.8230 C   0  0  0  0  0  0  0  0  0  0  0  0
   -7.9090   -5.2850  -22.9470 O   0  0  0  0  0  0  0  0  0  0  0  0
   -8.1580   -4.0790  -23.6250 C   0  0  0  0  0  0  0  0  0  0  0  0
   -8.4700   -3.0020  -22.5980 C   0  0  1  0  0  0  0  0  0  0  0  0
   -7.3670   -2.8110  -21.5480 C   0  0  0  0  0  0  0  0  0  0  0  0
   -7.4620   -1.3980  -21.2150 N   0  0  0  0  0  0  0  0  0  0  0  0
   -6.6780   -0.7960  -20.1990 C   0  0  0  0  0  0  0  0  0  0  0  0
   -6.9320   -1.1110  -18.8890 C   0  0  0  0  0  0  0  0  0  0  0  0
   -6.2360   -0.6380  -17.8280 N   0  0  0  0  0  0  0  0  0  0  0  0
   -5.2260    0.1600  -18.0830 C   0  0  0  0  0  0  0  0  0  0  0  0
   -4.8430    0.5600  -19.3940 C   0  0  0  0  0  0  0  0  0  0  0  0
   -3.7530    1.4480  -19.5970 C   0  0  0  0  0  0  0  0  0  0  0  0
   -3.4860    1.9470  -20.8410 C   0  0  0  0  0  0  0  0  0  0  0  0
   -4.2590    1.5260  -21.9500 C   0  0  0  0  0  0  0  0  0  0  0  0
   -5.2730    0.6160  -21.7910 C   0  0  0  0  0  0  0  0  0  0  0  0
   -5.6060    0.1120  -20.4960 C   0  0  0  0  0  0  0  0  0  0  0  0
   -5.8300    0.2840  -22.6630 H   0  0  0  0  0  0  0  0  0  0  0  0
   -4.0400    1.9240  -22.9380 H   0  0  0  0  0  0  0  0  0  0  0  0
   -2.6830    2.6650  -20.9910 H   0  0  0  0  0  0  0  0  0  0  0  0
   -3.1630    1.7430  -18.7330 H   0  0  0  0  0  0  0  0  0  0  0  0
   -4.6640    0.5490  -17.2320 H   0  0  0  0  0  0  0  0  0  0  0  0
   -7.7500   -1.7900  -18.6480 H   0  0  0  0  0  0  0  0  0  0  0  0
   -8.2420   -0.6660  -22.0830 C   0  0  0  0  0  0  0  0  0  0  0  0
   -8.4080    0.5390  -22.0080 O   0  0  0  0  0  0  0  0  0  0  0  0
   -8.7500   -1.5870  -23.1980 C   0  0  1  0  0  0  0  0  0  0  0  0
   -7.8960   -1.2310  -24.4570 C   0  0  0  0  0  0  0  0  0  0  0  0
   -8.4310   -1.7630  -25.7080 N   0  0  0  0  0  0  0  0  0  0  0  0
   -7.5800   -2.1850  -26.8290 C   0  0  0  0  0  0  0  0  0  0  0  0
   -7.4050   -3.6800  -26.9450 C   0  0  0  0  0  0  0  0  0  0  0  0
   -6.2520   -4.4510  -26.6850 C   0  0  0  0  0  0  0  0  0  0  0  0
   -6.4590   -5.7530  -26.8760 N   0  0  0  0  0  0  0  0  0  0  0  0
   -7.7260   -5.8120  -27.2860 N   0  0  0  0  0  0  0  0  0  0  0  0
   -8.3470   -4.6100  -27.3340 C   0  0  0  0  0  0  0  0  0  0  0  0
   -9.3750   -4.5120  -27.6650 H   0  0  0  0  0  0  0  0  0  0  0  0
   -8.1060   -6.7070  -27.5340 H   0  0  0  0  0  0  0  0  0  0  0  0
   -5.2760   -4.1150  -26.3590 H   0  0  0  0  0  0  0  0  0  0  0  0
   -6.6050   -1.6990  -26.7390 H   0  0  0  0  0  0  0  0  0  0  0  0
   -8.0760   -1.8170  -27.7370 H   0  0  0  0  0  0  0  0  0  0  0  0
   -9.7730   -1.7830  -25.9690 C   0  0  0  0  0  0  0  0  0  0  0  0
  -10.2230   -2.0840  -27.0690 O   0  0  0  0  0  0  0  0  0  0  0  0
  -10.6790   -1.4420  -24.8360 C   0  0  0  0  0  0  0  0  0  0  0  0
  -12.0270   -1.2580  -25.1520 C   0  0  0  0  0  0  0  0  0  0  0  0
  -12.9670   -1.1570  -24.1450 C   0  0  0  0  0  0  0  0  0  0  0  0
  -12.5350   -1.2240  -22.8200 C   0  0  0  0  0  0  0  0  0  0  0  0
  -13.7540   -1.3260  -21.5840 Cl  0  0  0  0  0  0  0  0  0  0  0  0
  -11.1850   -1.2690  -22.4940 C   0  0  0  0  0  0  0  0  0  0  0  0
  -10.2210   -1.3830  -23.5150 C   0  0  0  0  0  0  0  0  0  0  0  0
  -10.9150   -1.2090  -21.4450 H   0  0  0  0  0  0  0  0  0  0  0  0
  -14.0260   -1.0510  -24.3710 H   0  0  0  0  0  0  0  0  0  0  0  0
  -12.3030   -1.2210  -26.2050 H   0  0  0  0  0  0  0  0  0  0  0  0
   -6.8710   -1.5930  -24.3150 H   0  0  0  0  0  0  0  0  0  0  0  0
   -7.8310   -0.1350  -24.5070 H   0  0  0  0  0  0  0  0  0  0  0  0
   -7.5350   -3.4310  -20.6630 H   0  0  0  0  0  0  0  0  0  0  0  0
   -6.3680   -3.0550  -21.9300 H   0  0  0  0  0  0  0  0  0  0  0  0
   -9.3780   -3.3110  -22.0640 H   0  0  0  0  0  0  0  0  0  0  0  0
   -7.2810   -3.8040  -24.2300 H   0  0  0  0  0  0  0  0  0  0  0  0
   -9.0160   -4.1940  -24.3070 H   0  0  0  0  0  0  0  0  0  0  0  0
   -7.5070   -7.2380  -23.2730 H   0  0  0  0  0  0  0  0  0  0  0  0
   -6.4400   -6.1160  -24.1760 H   0  0  0  0  0  0  0  0  0  0  0  0
   -8.1070   -6.3740  -24.7090 H   0  0  0  0  0  0  0  0  0  0  0  0
  1  2  1  0  0  0  0
  1 58  1  0  0  0  0
  1 59  1  0  0  0  0
  1 60  1  0  0  0  0
  2  3  1  0  0  0  0
  3  4  1  0  0  0  0
  3 56  1  0  0  0  0
  3 57  1  0  0  0  0
  4  5  1  0  0  0  0
  4 25  1  0  0  0  0
  4 55  1  1  0  0  0
  5  6  1  0  0  0  0
  5 53  1  0  0  0  0
  5 54  1  0  0  0  0
  6  7  1  0  0  0  0
  6 23  1  0  0  0  0
  7  8  2  0  0  0  0
  7 16  1  0  0  0  0
  8  9  1  0  0  0  0
  8 22  1  0  0  0  0
  9 10  2  0  0  0  0
 10 11  1  0  0  0  0
 10 21  1  0  0  0  0
 11 12  2  0  0  0  0
 11 16  1  0  0  0  0
 12 13  1  0  0  0  0
 12 20  1  0  0  0  0
 13 14  2  0  0  0  0
 13 19  1  0  0  0  0
 14 15  1  0  0  0  0
 14 18  1  0  0  0  0
 15 16  2  0  0  0  0
 15 17  1  0  0  0  0
 23 24  2  0  0  0  0
 25 23  1  1  0  0  0
 25 26  1  0  0  0  0
 25 47  1  0  0  0  0
 26 27  1  0  0  0  0
 26 51  1  0  0  0  0
 26 52  1  0  0  0  0
 27 28  1  0  0  0  0
 27 39  1  0  0  0  0
 28 29  1  0  0  0  0
 28 37  1  0  0  0  0
 28 38  1  0  0  0  0
 29 30  1  0  0  0  0
 29 33  2  0  0  0  0
 30 31  2  0  0  0  0
 30 36  1  0  0  0  0
 31 32  1  0  0  0  0
 32 33  1  0  0  0  0
 32 35  1  0  0  0  0
 33 34  1  0  0  0  0
 39 40  2  0  0  0  0
 39 41  1  0  0  0  0
 41 42  2  0  0  0  0
 41 47  1  0  0  0  0
 42 43  1  0  0  0  0
 42 50  1  0  0  0  0
 43 44  2  0  0  0  0
 43 49  1  0  0  0  0
 44 45  1  0  0  0  0
 44 46  1  0  0  0  0
 46 47  2  0  0  0  0
 46 48  1  0  0  0  0
M  END
>  <MODEL>
       1

$$$$
