tmp_first_model_9_38.pdb
 OpenBabel08272521403D

 46 48  0  0  1  0  0  0  0  0999 V2000
   -8.1580   -4.6950  -26.5430 C   0  0  0  0  0  0  0  0  0  0  0  0
   -8.6540   -4.9600  -25.1190 C   0  0  1  0  0  0  0  0  0  0  0  0
   -7.5890   -5.5250  -24.1820 C   0  0  0  0  0  0  0  0  0  0  0  0
   -6.6150   -4.5190  -23.5540 C   0  0  1  0  0  0  0  0  0  0  0  0
   -5.4120   -4.1600  -24.4400 C   0  0  0  0  0  0  0  0  0  0  0  0
   -4.6070   -3.7380  -23.8290 H   0  0  0  0  0  0  0  0  0  0  0  0
   -5.6630   -3.4320  -25.2140 H   0  0  0  0  0  0  0  0  0  0  0  0
   -5.0160   -5.0550  -24.9380 H   0  0  0  0  0  0  0  0  0  0  0  0
   -7.3240   -3.3380  -23.0140 N   0  0  0  0  0  0  0  0  0  0  0  0
   -6.7230   -2.7040  -21.9370 C   0  0  0  0  0  0  0  0  0  0  0  0
   -5.6780   -3.1210  -21.4630 O   0  0  0  0  0  0  0  0  0  0  0  0
   -7.4070   -1.4710  -21.2810 C   0  0  0  0  0  0  0  0  0  0  0  0
   -6.5780   -0.8350  -20.1860 C   0  0  0  0  0  0  0  0  0  0  0  0
   -6.8720   -1.0480  -18.8650 C   0  0  0  0  0  0  0  0  0  0  0  0
   -6.1850   -0.5420  -17.8050 N   0  0  0  0  0  0  0  0  0  0  0  0
   -5.1560    0.2240  -18.0680 C   0  0  0  0  0  0  0  0  0  0  0  0
   -4.7200    0.5310  -19.3830 C   0  0  0  0  0  0  0  0  0  0  0  0
   -3.5920    1.3570  -19.6240 C   0  0  0  0  0  0  0  0  0  0  0  0
   -3.1920    1.6360  -20.9020 C   0  0  0  0  0  0  0  0  0  0  0  0
   -3.9080    1.0960  -21.9930 C   0  0  0  0  0  0  0  0  0  0  0  0
   -5.0010    0.2910  -21.7860 C   0  0  0  0  0  0  0  0  0  0  0  0
   -5.4450   -0.0130  -20.4740 C   0  0  0  0  0  0  0  0  0  0  0  0
   -5.5310   -0.1230  -22.6380 H   0  0  0  0  0  0  0  0  0  0  0  0
   -3.5820    1.3140  -23.0050 H   0  0  0  0  0  0  0  0  0  0  0  0
   -2.3310    2.2730  -21.0880 H   0  0  0  0  0  0  0  0  0  0  0  0
   -3.0590    1.7740  -18.7710 H   0  0  0  0  0  0  0  0  0  0  0  0
   -4.6030    0.6290  -17.2160 H   0  0  0  0  0  0  0  0  0  0  0  0
   -7.7200   -1.6710  -18.5850 H   0  0  0  0  0  0  0  0  0  0  0  0
   -7.6710   -0.7130  -22.0320 H   0  0  0  0  0  0  0  0  0  0  0  0
   -8.3590   -1.8080  -20.8480 H   0  0  0  0  0  0  0  0  0  0  0  0
   -8.4100   -2.7190  -23.7940 C   0  0  1  0  0  0  0  0  0  0  0  0
   -7.9390   -1.6590  -24.8010 C   0  0  0  0  0  0  0  0  0  0  0  0
   -7.4430   -2.0880  -25.6750 H   0  0  0  0  0  0  0  0  0  0  0  0
   -8.7980   -1.0840  -25.1700 H   0  0  0  0  0  0  0  0  0  0  0  0
   -7.2440   -0.9500  -24.3420 H   0  0  0  0  0  0  0  0  0  0  0  0
   -9.3300   -3.7770  -24.4250 C   0  0  0  0  0  0  0  0  0  0  0  0
   -9.9790   -4.1700  -23.6360 H   0  0  0  0  0  0  0  0  0  0  0  0
   -9.9960   -3.2780  -25.1360 H   0  0  0  0  0  0  0  0  0  0  0  0
   -9.0330   -2.1950  -23.0630 H   0  0  0  0  0  0  0  0  0  0  0  0
   -6.1940   -5.0190  -22.6800 H   0  0  0  0  0  0  0  0  0  0  0  0
   -8.0930   -6.0560  -23.3660 H   0  0  0  0  0  0  0  0  0  0  0  0
   -7.0110   -6.2880  -24.7150 H   0  0  0  0  0  0  0  0  0  0  0  0
   -9.4280   -5.7360  -25.2240 H   0  0  0  0  0  0  0  0  0  0  0  0
   -7.9240   -5.6400  -27.0470 H   0  0  0  0  0  0  0  0  0  0  0  0
   -8.9310   -4.1940  -27.1380 H   0  0  0  0  0  0  0  0  0  0  0  0
   -7.2550   -4.0810  -26.5820 H   0  0  0  0  0  0  0  0  0  0  0  0
  1  2  1  0  0  0  0
  1 44  1  0  0  0  0
  1 45  1  0  0  0  0
  1 46  1  0  0  0  0
  2  3  1  0  0  0  0
  2 36  1  0  0  0  0
  2 43  1  6  0  0  0
  3  4  1  0  0  0  0
  3 41  1  0  0  0  0
  3 42  1  0  0  0  0
  4  5  1  0  0  0  0
  4  9  1  0  0  0  0
  4 40  1  1  0  0  0
  5  6  1  0  0  0  0
  5  7  1  0  0  0  0
  5  8  1  0  0  0  0
  9 10  1  0  0  0  0
  9 31  1  0  0  0  0
 10 11  2  0  0  0  0
 10 12  1  0  0  0  0
 12 13  1  0  0  0  0
 12 29  1  0  0  0  0
 12 30  1  0  0  0  0
 13 14  2  0  0  0  0
 13 22  1  0  0  0  0
 14 15  1  0  0  0  0
 14 28  1  0  0  0  0
 15 16  2  0  0  0  0
 16 17  1  0  0  0  0
 16 27  1  0  0  0  0
 17 18  2  0  0  0  0
 17 22  1  0  0  0  0
 18 19  1  0  0  0  0
 18 26  1  0  0  0  0
 19 20  2  0  0  0  0
 19 25  1  0  0  0  0
 20 21  1  0  0  0  0
 20 24  1  0  0  0  0
 21 22  2  0  0  0  0
 21 23  1  0  0  0  0
 31 32  1  0  0  0  0
 31 36  1  0  0  0  0
 31 39  1  1  0  0  0
 32 33  1  0  0  0  0
 32 34  1  0  0  0  0
 32 35  1  0  0  0  0
 36 37  1  0  0  0  0
 36 38  1  0  0  0  0
M  END
>  <MODEL>
       1

$$$$
