tmp_first_model_3_81.pdb
 OpenBabel08272518143D

 36 38  0  0  0  0  0  0  0  0999 V2000
   -8.5020    0.7120  -21.4640 O   0  0  0  0  0  0  0  0  0  0  0  0
   -8.3860   -0.4020  -21.9330 C   0  0  0  0  0  0  0  0  0  0  0  0
   -7.4390   -1.4330  -21.2750 C   0  0  0  0  0  0  0  0  0  0  0  0
   -6.5820   -0.8280  -20.1840 C   0  0  0  0  0  0  0  0  0  0  0  0
   -6.8800   -1.0390  -18.8620 C   0  0  0  0  0  0  0  0  0  0  0  0
   -6.1970   -0.5340  -17.7980 N   0  0  0  0  0  0  0  0  0  0  0  0
   -5.1580    0.2220  -18.0650 C   0  0  0  0  0  0  0  0  0  0  0  0
   -4.7250    0.5330  -19.3820 C   0  0  0  0  0  0  0  0  0  0  0  0
   -3.5980    1.3630  -19.6220 C   0  0  0  0  0  0  0  0  0  0  0  0
   -3.2090    1.6570  -20.9020 C   0  0  0  0  0  0  0  0  0  0  0  0
   -3.9330    1.1300  -21.9940 C   0  0  0  0  0  0  0  0  0  0  0  0
   -5.0270    0.3230  -21.7880 C   0  0  0  0  0  0  0  0  0  0  0  0
   -5.4550    0.0010  -20.4730 C   0  0  0  0  0  0  0  0  0  0  0  0
   -5.5780   -0.0670  -22.6370 H   0  0  0  0  0  0  0  0  0  0  0  0
   -3.6230    1.3730  -23.0050 H   0  0  0  0  0  0  0  0  0  0  0  0
   -2.3530    2.3020  -21.0860 H   0  0  0  0  0  0  0  0  0  0  0  0
   -3.0600    1.7760  -18.7710 H   0  0  0  0  0  0  0  0  0  0  0  0
   -4.6020    0.6270  -17.2170 H   0  0  0  0  0  0  0  0  0  0  0  0
   -7.7290   -1.6590  -18.5850 H   0  0  0  0  0  0  0  0  0  0  0  0
   -8.0410   -2.2450  -20.8450 H   0  0  0  0  0  0  0  0  0  0  0  0
   -6.8030   -1.9000  -22.0400 H   0  0  0  0  0  0  0  0  0  0  0  0
   -9.0610   -0.7710  -23.0900 N   0  0  0  0  0  0  0  0  0  0  0  0
   -9.3680   -2.1600  -23.4040 C   0  0  0  0  0  0  0  0  0  0  0  0
  -10.4470   -2.7810  -22.5510 C   0  0  0  0  0  0  0  0  0  0  0  0
  -11.5710   -2.1750  -22.1560 C   0  0  0  0  0  0  0  0  0  0  0  0
  -12.0210   -0.7920  -22.4170 C   0  0  0  0  0  0  0  0  0  0  0  0
  -11.3800    0.2150  -23.0200 C   0  0  0  0  0  0  0  0  0  0  0  0
  -10.0070    0.1960  -23.6420 C   0  0  0  0  0  0  0  0  0  0  0  0
   -9.5590    1.1920  -23.5950 H   0  0  0  0  0  0  0  0  0  0  0  0
  -10.1140   -0.0410  -24.7080 H   0  0  0  0  0  0  0  0  0  0  0  0
  -11.8930    1.1790  -23.0820 H   0  0  0  0  0  0  0  0  0  0  0  0
  -13.0200   -0.5810  -22.0390 H   0  0  0  0  0  0  0  0  0  0  0  0
  -12.2790   -2.7640  -21.5750 H   0  0  0  0  0  0  0  0  0  0  0  0
  -10.2840   -3.8160  -22.2460 H   0  0  0  0  0  0  0  0  0  0  0  0
   -9.6850   -2.1760  -24.4540 H   0  0  0  0  0  0  0  0  0  0  0  0
   -8.4510   -2.7540  -23.3600 H   0  0  0  0  0  0  0  0  0  0  0  0
  1  2  2  0  0  0  0
  2  3  1  0  0  0  0
  2 22  1  0  0  0  0
  3  4  1  0  0  0  0
  3 20  1  0  0  0  0
  3 21  1  0  0  0  0
  4  5  2  0  0  0  0
  4 13  1  0  0  0  0
  5  6  1  0  0  0  0
  5 19  1  0  0  0  0
  6  7  2  0  0  0  0
  7  8  1  0  0  0  0
  7 18  1  0  0  0  0
  8  9  2  0  0  0  0
  8 13  1  0  0  0  0
  9 10  1  0  0  0  0
  9 17  1  0  0  0  0
 10 11  2  0  0  0  0
 10 16  1  0  0  0  0
 11 12  1  0  0  0  0
 11 15  1  0  0  0  0
 12 13  2  0  0  0  0
 12 14  1  0  0  0  0
 22 23  1  0  0  0  0
 22 28  1  0  0  0  0
 23 24  1  0  0  0  0
 23 35  1  0  0  0  0
 23 36  1  0  0  0  0
 24 25  2  0  0  0  0
 24 34  1  0  0  0  0
 25 26  1  0  0  0  0
 25 33  1  0  0  0  0
 26 27  2  0  0  0  0
 26 32  1  0  0  0  0
 27 28  1  0  0  0  0
 27 31  1  0  0  0  0
 28 29  1  0  0  0  0
 28 30  1  0  0  0  0
M  END
>  <MODEL>
       1

$$$$
