tmp_first_model_17_84.pdb
 OpenBabel08282502223D

 63 68  0  0  1  0  0  0  0  0999 V2000
   -8.3640   -4.0990  -23.4870 C   0  0  0  0  0  0  0  0  0  0  0  0
   -8.5870   -2.9350  -22.5170 C   0  0  1  0  0  0  0  0  0  0  0  0
   -7.4520   -2.7960  -21.4860 C   0  0  0  0  0  0  0  0  0  0  0  0
   -7.4200   -1.3800  -21.1810 N   0  0  0  0  0  0  0  0  0  0  0  0
   -6.6070   -0.8150  -20.1720 C   0  0  0  0  0  0  0  0  0  0  0  0
   -6.8990   -1.0630  -18.8550 C   0  0  0  0  0  0  0  0  0  0  0  0
   -6.2110   -0.5550  -17.8050 N   0  0  0  0  0  0  0  0  0  0  0  0
   -5.1800    0.2080  -18.0800 C   0  0  0  0  0  0  0  0  0  0  0  0
   -4.7460    0.5230  -19.3990 C   0  0  0  0  0  0  0  0  0  0  0  0
   -3.6150    1.3520  -19.6310 C   0  0  0  0  0  0  0  0  0  0  0  0
   -3.2030    1.6270  -20.9050 C   0  0  0  0  0  0  0  0  0  0  0  0
   -3.8980    1.0770  -22.0070 C   0  0  0  0  0  0  0  0  0  0  0  0
   -4.9910    0.2730  -21.8100 C   0  0  0  0  0  0  0  0  0  0  0  0
   -5.4650   -0.0080  -20.4930 C   0  0  0  0  0  0  0  0  0  0  0  0
   -5.5090   -0.1490  -22.6680 H   0  0  0  0  0  0  0  0  0  0  0  0
   -3.5500    1.2920  -23.0140 H   0  0  0  0  0  0  0  0  0  0  0  0
   -2.3380    2.2600  -21.0830 H   0  0  0  0  0  0  0  0  0  0  0  0
   -3.0860    1.7580  -18.7710 H   0  0  0  0  0  0  0  0  0  0  0  0
   -4.6250    0.6150  -17.2340 H   0  0  0  0  0  0  0  0  0  0  0  0
   -7.7560   -1.6910  -18.6060 H   0  0  0  0  0  0  0  0  0  0  0  0
   -8.1160   -0.6000  -22.0710 C   0  0  0  0  0  0  0  0  0  0  0  0
   -8.1930    0.6090  -22.0040 O   0  0  0  0  0  0  0  0  0  0  0  0
   -8.7450   -1.5130  -23.1450 C   0  0  1  0  0  0  0  0  0  0  0  0
   -7.9470   -1.3830  -24.4600 C   0  0  0  0  0  0  0  0  0  0  0  0
   -8.1630   -0.0920  -25.0720 N   0  0  0  0  0  0  0  0  0  0  0  0
   -7.0570    0.6210  -25.6660 C   0  0  0  0  0  0  0  0  0  0  0  0
   -6.5710    0.0240  -26.9860 C   0  0  0  0  0  0  0  0  0  0  0  0
   -5.6950   -0.8240  -27.0030 O   0  0  0  0  0  0  0  0  0  0  0  0
   -7.1580    0.4820  -28.1200 N   0  0  0  0  0  0  0  0  0  0  0  0
   -6.7850   -0.1230  -29.3830 C   0  0  0  0  0  0  0  0  0  0  0  0
   -7.5810    0.3950  -30.5400 C   0  0  0  0  0  0  0  0  0  0  0  0
   -7.3470    1.7310  -30.7620 F   0  0  0  0  0  0  0  0  0  0  0  0
   -8.9580   -0.0920  -30.8170 C   0  0  0  0  0  0  0  0  0  0  0  0
   -7.8220   -0.4310  -31.7550 C   0  0  0  0  0  0  0  0  0  0  0  0
   -7.8030    0.0840  -32.7070 H   0  0  0  0  0  0  0  0  0  0  0  0
   -7.4140   -1.4340  -31.7880 H   0  0  0  0  0  0  0  0  0  0  0  0
   -9.3750   -0.8470  -30.1630 H   0  0  0  0  0  0  0  0  0  0  0  0
   -9.6780    0.6360  -31.1640 H   0  0  0  0  0  0  0  0  0  0  0  0
   -6.9180   -1.2070  -29.3140 H   0  0  0  0  0  0  0  0  0  0  0  0
   -5.7200    0.0410  -29.5680 H   0  0  0  0  0  0  0  0  0  0  0  0
   -7.9260    1.1310  -28.0480 H   0  0  0  0  0  0  0  0  0  0  0  0
   -6.2110    0.5980  -24.9680 H   0  0  0  0  0  0  0  0  0  0  0  0
   -7.4080    1.6420  -25.8040 H   0  0  0  0  0  0  0  0  0  0  0  0
   -9.4270    0.2890  -25.4150 C   0  0  0  0  0  0  0  0  0  0  0  0
   -9.6330    1.0120  -26.3830 O   0  0  0  0  0  0  0  0  0  0  0  0
  -10.4980   -0.2230  -24.4970 C   0  0  0  0  0  0  0  0  0  0  0  0
  -11.8160    0.1840  -24.7130 C   0  0  0  0  0  0  0  0  0  0  0  0
  -12.8170   -0.2190  -23.8460 C   0  0  0  0  0  0  0  0  0  0  0  0
  -12.4790   -1.0200  -22.7630 C   0  0  0  0  0  0  0  0  0  0  0  0
  -13.4490   -1.4330  -21.9320 F   0  0  0  0  0  0  0  0  0  0  0  0
  -11.1840   -1.4200  -22.5190 C   0  0  0  0  0  0  0  0  0  0  0  0
  -10.1720   -1.0640  -23.4170 C   0  0  0  0  0  0  0  0  0  0  0  0
  -10.9870   -1.9970  -21.6200 H   0  0  0  0  0  0  0  0  0  0  0  0
  -13.8500    0.0780  -23.9700 H   0  0  0  0  0  0  0  0  0  0  0  0
  -12.0200    0.8150  -25.5730 H   0  0  0  0  0  0  0  0  0  0  0  0
   -8.2950   -2.1610  -25.1530 H   0  0  0  0  0  0  0  0  0  0  0  0
   -6.8740   -1.5170  -24.2880 H   0  0  0  0  0  0  0  0  0  0  0  0
   -6.4930   -3.1190  -21.9120 H   0  0  0  0  0  0  0  0  0  0  0  0
   -7.6290   -3.3770  -20.5760 H   0  0  0  0  0  0  0  0  0  0  0  0
   -9.5080   -3.1320  -21.9660 H   0  0  0  0  0  0  0  0  0  0  0  0
   -9.1590   -4.1750  -24.2380 H   0  0  0  0  0  0  0  0  0  0  0  0
   -7.4130   -3.9870  -24.0190 H   0  0  0  0  0  0  0  0  0  0  0  0
   -8.3240   -5.0540  -22.9530 H   0  0  0  0  0  0  0  0  0  0  0  0
  1  2  1  0  0  0  0
  1 61  1  0  0  0  0
  1 62  1  0  0  0  0
  1 63  1  0  0  0  0
  2  3  1  0  0  0  0
  2 23  1  0  0  0  0
  2 60  1  1  0  0  0
  3  4  1  0  0  0  0
  3 58  1  0  0  0  0
  3 59  1  0  0  0  0
  4  5  1  0  0  0  0
  4 21  1  0  0  0  0
  5  6  2  0  0  0  0
  5 14  1  0  0  0  0
  6  7  1  0  0  0  0
  6 20  1  0  0  0  0
  7  8  2  0  0  0  0
  8  9  1  0  0  0  0
  8 19  1  0  0  0  0
  9 10  2  0  0  0  0
  9 14  1  0  0  0  0
 10 11  1  0  0  0  0
 10 18  1  0  0  0  0
 11 12  2  0  0  0  0
 11 17  1  0  0  0  0
 12 13  1  0  0  0  0
 12 16  1  0  0  0  0
 13 14  2  0  0  0  0
 13 15  1  0  0  0  0
 21 22  2  0  0  0  0
 23 21  1  1  0  0  0
 23 24  1  0  0  0  0
 23 52  1  0  0  0  0
 24 25  1  0  0  0  0
 24 56  1  0  0  0  0
 24 57  1  0  0  0  0
 25 26  1  0  0  0  0
 25 44  1  0  0  0  0
 26 27  1  0  0  0  0
 26 42  1  0  0  0  0
 26 43  1  0  0  0  0
 27 28  2  0  0  0  0
 27 29  1  0  0  0  0
 29 30  1  0  0  0  0
 29 41  1  0  0  0  0
 30 31  1  0  0  0  0
 30 39  1  0  0  0  0
 30 40  1  0  0  0  0
 31 32  1  0  0  0  0
 31 33  1  0  0  0  0
 31 34  1  0  0  0  0
 33 34  1  0  0  0  0
 33 37  1  0  0  0  0
 33 38  1  0  0  0  0
 34 35  1  0  0  0  0
 34 36  1  0  0  0  0
 44 45  2  0  0  0  0
 44 46  1  0  0  0  0
 46 47  2  0  0  0  0
 46 52  1  0  0  0  0
 47 48  1  0  0  0  0
 47 55  1  0  0  0  0
 48 49  2  0  0  0  0
 48 54  1  0  0  0  0
 49 50  1  0  0  0  0
 49 51  1  0  0  0  0
 51 52  2  0  0  0  0
 51 53  1  0  0  0  0
M  END
>  <MODEL>
       1

$$$$
