tmp_first_model_1_86.pdb
 OpenBabel08272517043D

 43 45  0  0  1  0  0  0  0  0999 V2000
   -8.5470   -5.5640  -25.7820 C   0  0  0  0  0  0  0  0  0  0  0  0
   -9.0640   -5.4500  -24.3450 C   0  0  1  0  0  0  0  0  0  0  0  0
   -8.0270   -5.8770  -23.3090 C   0  0  0  0  0  0  0  0  0  0  0  0
   -6.9380   -4.8320  -23.0940 C   0  0  0  0  0  0  0  0  0  0  0  0
   -7.5140   -3.5410  -22.7120 N   0  0  0  0  0  0  0  0  0  0  0  0
   -6.7560   -2.7460  -21.8650 C   0  0  0  0  0  0  0  0  0  0  0  0
   -5.6220   -3.0590  -21.5490 O   0  0  0  0  0  0  0  0  0  0  0  0
   -7.4130   -1.4740  -21.2710 C   0  0  0  0  0  0  0  0  0  0  0  0
   -6.5800   -0.8300  -20.1860 C   0  0  0  0  0  0  0  0  0  0  0  0
   -6.8740   -1.0470  -18.8670 C   0  0  0  0  0  0  0  0  0  0  0  0
   -6.1850   -0.5520  -17.8040 N   0  0  0  0  0  0  0  0  0  0  0  0
   -5.1590    0.2200  -18.0670 C   0  0  0  0  0  0  0  0  0  0  0  0
   -4.7220    0.5310  -19.3810 C   0  0  0  0  0  0  0  0  0  0  0  0
   -3.5940    1.3570  -19.6210 C   0  0  0  0  0  0  0  0  0  0  0  0
   -3.1900    1.6330  -20.9000 C   0  0  0  0  0  0  0  0  0  0  0  0
   -3.9010    1.0890  -21.9930 C   0  0  0  0  0  0  0  0  0  0  0  0
   -4.9970    0.2880  -21.7860 C   0  0  0  0  0  0  0  0  0  0  0  0
   -5.4440   -0.0130  -20.4740 C   0  0  0  0  0  0  0  0  0  0  0  0
   -5.5270   -0.1290  -22.6360 H   0  0  0  0  0  0  0  0  0  0  0  0
   -3.5740    1.3100  -23.0050 H   0  0  0  0  0  0  0  0  0  0  0  0
   -2.3300    2.2700  -21.0870 H   0  0  0  0  0  0  0  0  0  0  0  0
   -3.0590    1.7730  -18.7700 H   0  0  0  0  0  0  0  0  0  0  0  0
   -4.6070    0.6270  -17.2160 H   0  0  0  0  0  0  0  0  0  0  0  0
   -7.7210   -1.6700  -18.5880 H   0  0  0  0  0  0  0  0  0  0  0  0
   -7.6220   -0.7470  -22.0690 H   0  0  0  0  0  0  0  0  0  0  0  0
   -8.3920   -1.7500  -20.8550 H   0  0  0  0  0  0  0  0  0  0  0  0
   -8.5400   -2.9960  -23.6130 C   0  0  1  0  0  0  0  0  0  0  0  0
   -7.9410   -2.2910  -24.8400 C   0  0  0  0  0  0  0  0  0  0  0  0
   -8.7280   -1.9760  -25.5350 H   0  0  0  0  0  0  0  0  0  0  0  0
   -7.2480   -2.9310  -25.3930 H   0  0  0  0  0  0  0  0  0  0  0  0
   -7.3900   -1.3890  -24.5500 H   0  0  0  0  0  0  0  0  0  0  0  0
   -9.5910   -4.0640  -23.9670 C   0  0  0  0  0  0  0  0  0  0  0  0
  -10.2120   -3.6820  -24.7840 H   0  0  0  0  0  0  0  0  0  0  0  0
  -10.2620   -4.1720  -23.1080 H   0  0  0  0  0  0  0  0  0  0  0  0
   -9.0800   -2.2360  -23.0440 H   0  0  0  0  0  0  0  0  0  0  0  0
   -6.3000   -4.7550  -23.9890 H   0  0  0  0  0  0  0  0  0  0  0  0
   -6.2740   -5.1450  -22.2910 H   0  0  0  0  0  0  0  0  0  0  0  0
   -7.5750   -6.8270  -23.6120 H   0  0  0  0  0  0  0  0  0  0  0  0
   -8.5220   -6.0610  -22.3510 H   0  0  0  0  0  0  0  0  0  0  0  0
   -9.9160   -6.1420  -24.2740 H   0  0  0  0  0  0  0  0  0  0  0  0
   -7.6000   -5.0390  -25.9390 H   0  0  0  0  0  0  0  0  0  0  0  0
   -8.3800   -6.6140  -26.0490 H   0  0  0  0  0  0  0  0  0  0  0  0
   -9.2680   -5.1520  -26.4960 H   0  0  0  0  0  0  0  0  0  0  0  0
  1  2  1  0  0  0  0
  1 41  1  0  0  0  0
  1 42  1  0  0  0  0
  1 43  1  0  0  0  0
  2  3  1  0  0  0  0
  2 32  1  0  0  0  0
  2 40  1  1  0  0  0
  3  4  1  0  0  0  0
  3 38  1  0  0  0  0
  3 39  1  0  0  0  0
  4  5  1  0  0  0  0
  4 36  1  0  0  0  0
  4 37  1  0  0  0  0
  5  6  1  0  0  0  0
  5 27  1  0  0  0  0
  6  7  2  0  0  0  0
  6  8  1  0  0  0  0
  8  9  1  0  0  0  0
  8 25  1  0  0  0  0
  8 26  1  0  0  0  0
  9 10  2  0  0  0  0
  9 18  1  0  0  0  0
 10 11  1  0  0  0  0
 10 24  1  0  0  0  0
 11 12  2  0  0  0  0
 12 13  1  0  0  0  0
 12 23  1  0  0  0  0
 13 14  2  0  0  0  0
 13 18  1  0  0  0  0
 14 15  1  0  0  0  0
 14 22  1  0  0  0  0
 15 16  2  0  0  0  0
 15 21  1  0  0  0  0
 16 17  1  0  0  0  0
 16 20  1  0  0  0  0
 17 18  2  0  0  0  0
 17 19  1  0  0  0  0
 27 28  1  0  0  0  0
 27 32  1  0  0  0  0
 27 35  1  1  0  0  0
 28 29  1  0  0  0  0
 28 30  1  0  0  0  0
 28 31  1  0  0  0  0
 32 33  1  0  0  0  0
 32 34  1  0  0  0  0
M  END
>  <MODEL>
       1

$$$$
