tmp_first_model_15_7.pdb
 OpenBabel08282501153D

 44 47  0  0  0  0  0  0  0  0999 V2000
  -14.2840   -3.1340  -22.1090 C   0  0  0  0  0  0  0  0  0  0  0  0
  -13.3890   -4.1470  -22.8050 C   0  0  0  0  0  0  0  0  0  0  0  0
  -12.1400   -3.5000  -23.9240 S   0  0  0  0  0  0  0  0  0  0  0  0
  -11.4330   -4.6550  -24.4640 O   0  0  0  0  0  0  0  0  0  0  0  0
  -12.7730   -2.5400  -24.8040 O   0  0  0  0  0  0  0  0  0  0  0  0
  -11.0720   -2.6420  -22.9490 N   0  0  0  0  0  0  0  0  0  0  0  0
  -10.0120   -1.8010  -23.5940 C   0  0  0  0  0  0  0  0  0  0  0  0
   -8.9980   -2.3650  -22.5830 C   0  0  0  0  0  0  0  0  0  0  0  0
  -10.0760   -3.3830  -22.1550 C   0  0  0  0  0  0  0  0  0  0  0  0
   -9.8590   -4.3900  -22.5230 H   0  0  0  0  0  0  0  0  0  0  0  0
  -10.3070   -3.4310  -21.0950 H   0  0  0  0  0  0  0  0  0  0  0  0
   -8.6100   -1.3610  -21.5240 C   0  0  0  0  0  0  0  0  0  0  0  0
   -9.2950   -0.5040  -21.0200 O   0  0  0  0  0  0  0  0  0  0  0  0
   -7.2610   -1.5720  -21.2770 N   0  0  0  0  0  0  0  0  0  0  0  0
   -6.5570   -0.9250  -20.2330 C   0  0  0  0  0  0  0  0  0  0  0  0
   -6.9600   -1.1040  -18.9380 C   0  0  0  0  0  0  0  0  0  0  0  0
   -6.3150   -0.5820  -17.8670 N   0  0  0  0  0  0  0  0  0  0  0  0
   -5.2610    0.1660  -18.1040 C   0  0  0  0  0  0  0  0  0  0  0  0
   -4.7740    0.4710  -19.4090 C   0  0  0  0  0  0  0  0  0  0  0  0
   -3.6590    1.3200  -19.6240 C   0  0  0  0  0  0  0  0  0  0  0  0
   -3.2650    1.6340  -20.8970 C   0  0  0  0  0  0  0  0  0  0  0  0
   -3.9690    1.1270  -22.0110 C   0  0  0  0  0  0  0  0  0  0  0  0
   -5.0470    0.3000  -21.8320 C   0  0  0  0  0  0  0  0  0  0  0  0
   -5.4540   -0.0670  -20.5190 C   0  0  0  0  0  0  0  0  0  0  0  0
   -5.6080   -0.0680  -22.6870 H   0  0  0  0  0  0  0  0  0  0  0  0
   -3.6630    1.4040  -23.0160 H   0  0  0  0  0  0  0  0  0  0  0  0
   -2.4190    2.2940  -21.0610 H   0  0  0  0  0  0  0  0  0  0  0  0
   -3.1500    1.7290  -18.7570 H   0  0  0  0  0  0  0  0  0  0  0  0
   -4.7450    0.5860  -17.2400 H   0  0  0  0  0  0  0  0  0  0  0  0
   -7.8430   -1.7040  -18.7210 H   0  0  0  0  0  0  0  0  0  0  0  0
   -6.7290   -2.5740  -22.1040 C   0  0  0  0  0  0  0  0  0  0  0  0
   -5.6180   -3.0560  -22.0120 O   0  0  0  0  0  0  0  0  0  0  0  0
   -7.7150   -2.8990  -23.0040 N   0  0  0  0  0  0  0  0  0  0  0  0
   -7.5960   -4.0870  -23.8350 C   0  0  0  0  0  0  0  0  0  0  0  0
   -6.8970   -3.9140  -24.6580 H   0  0  0  0  0  0  0  0  0  0  0  0
   -7.2270   -4.9280  -23.2350 H   0  0  0  0  0  0  0  0  0  0  0  0
   -8.5720   -4.3480  -24.2590 H   0  0  0  0  0  0  0  0  0  0  0  0
  -10.2120   -0.7340  -23.4630 H   0  0  0  0  0  0  0  0  0  0  0  0
   -9.7660   -2.0380  -24.6370 H   0  0  0  0  0  0  0  0  0  0  0  0
  -12.8470   -4.7420  -22.0700 H   0  0  0  0  0  0  0  0  0  0  0  0
  -13.9710   -4.8270  -23.4420 H   0  0  0  0  0  0  0  0  0  0  0  0
  -13.7030   -2.3790  -21.5680 H   0  0  0  0  0  0  0  0  0  0  0  0
  -14.9280   -3.6780  -21.4050 H   0  0  0  0  0  0  0  0  0  0  0  0
  -14.9400   -2.6240  -22.8160 H   0  0  0  0  0  0  0  0  0  0  0  0
  1  2  1  0  0  0  0
  1 42  1  0  0  0  0
  1 43  1  0  0  0  0
  1 44  1  0  0  0  0
  2  3  1  0  0  0  0
  2 40  1  0  0  0  0
  2 41  1  0  0  0  0
  3  4  2  0  0  0  0
  3  5  2  0  0  0  0
  3  6  1  0  0  0  0
  6  7  1  0  0  0  0
  6  9  1  0  0  0  0
  7  8  1  0  0  0  0
  7 38  1  0  0  0  0
  7 39  1  0  0  0  0
  8  9  1  0  0  0  0
  8 12  1  0  0  0  0
  8 33  1  0  0  0  0
  9 10  1  0  0  0  0
  9 11  1  0  0  0  0
 12 13  2  0  0  0  0
 12 14  1  0  0  0  0
 14 15  1  0  0  0  0
 14 31  1  0  0  0  0
 15 16  2  0  0  0  0
 15 24  1  0  0  0  0
 16 17  1  0  0  0  0
 16 30  1  0  0  0  0
 17 18  2  0  0  0  0
 18 19  1  0  0  0  0
 18 29  1  0  0  0  0
 19 20  2  0  0  0  0
 19 24  1  0  0  0  0
 20 21  1  0  0  0  0
 20 28  1  0  0  0  0
 21 22  2  0  0  0  0
 21 27  1  0  0  0  0
 22 23  1  0  0  0  0
 22 26  1  0  0  0  0
 23 24  2  0  0  0  0
 23 25  1  0  0  0  0
 31 32  2  0  0  0  0
 31 33  1  0  0  0  0
 33 34  1  0  0  0  0
 34 35  1  0  0  0  0
 34 36  1  0  0  0  0
 34 37  1  0  0  0  0
M  END
>  <MODEL>
       1

$$$$
