tmp_first_model_12_88.pdb
 OpenBabel08272523333D

 40 42  0  0  0  0  0  0  0  0999 V2000
   -5.4480   -1.6660  -23.5930 O   0  0  0  0  0  0  0  0  0  0  0  0
   -5.7780   -2.2450  -22.5670 C   0  0  0  0  0  0  0  0  0  0  0  0
   -6.8780   -1.6750  -21.6470 C   0  0  0  0  0  0  0  0  0  0  0  0
   -6.3370   -0.9600  -20.4270 C   0  0  0  0  0  0  0  0  0  0  0  0
   -6.7130   -1.3170  -19.1550 C   0  0  0  0  0  0  0  0  0  0  0  0
   -6.2290   -0.7680  -18.0110 N   0  0  0  0  0  0  0  0  0  0  0  0
   -5.3130    0.1630  -18.1370 C   0  0  0  0  0  0  0  0  0  0  0  0
   -4.8490    0.6460  -19.3870 C   0  0  0  0  0  0  0  0  0  0  0  0
   -3.8330    1.6290  -19.4760 C   0  0  0  0  0  0  0  0  0  0  0  0
   -3.4530    2.1270  -20.6940 C   0  0  0  0  0  0  0  0  0  0  0  0
   -4.0950    1.6760  -21.8670 C   0  0  0  0  0  0  0  0  0  0  0  0
   -5.0720    0.7130  -21.8110 C   0  0  0  0  0  0  0  0  0  0  0  0
   -5.4260    0.1260  -20.5650 C   0  0  0  0  0  0  0  0  0  0  0  0
   -5.5320    0.3500  -22.7220 H   0  0  0  0  0  0  0  0  0  0  0  0
   -3.8080    2.0900  -22.8280 H   0  0  0  0  0  0  0  0  0  0  0  0
   -2.6870    2.8940  -20.7620 H   0  0  0  0  0  0  0  0  0  0  0  0
   -3.3820    1.9800  -18.5540 H   0  0  0  0  0  0  0  0  0  0  0  0
   -4.8960    0.5870  -17.2220 H   0  0  0  0  0  0  0  0  0  0  0  0
   -7.4620   -2.0960  -19.0000 H   0  0  0  0  0  0  0  0  0  0  0  0
   -7.4870   -0.9930  -22.2550 H   0  0  0  0  0  0  0  0  0  0  0  0
   -7.5590   -2.4760  -21.3370 H   0  0  0  0  0  0  0  0  0  0  0  0
   -5.1630   -3.4010  -22.1830 N   0  0  0  0  0  0  0  0  0  0  0  0
   -4.1510   -3.9810  -23.0560 C   0  0  0  0  0  0  0  0  0  0  0  0
   -4.4910   -5.4350  -23.3760 C   0  0  0  0  0  0  0  0  0  0  0  0
   -4.5680   -6.1790  -22.0490 C   0  0  0  0  0  0  0  0  0  0  0  0
   -4.6140   -7.6860  -22.2040 C   0  0  0  0  0  0  0  0  0  0  0  0
   -4.8960   -8.2670  -21.0000 F   0  0  0  0  0  0  0  0  0  0  0  0
   -3.3610   -8.0960  -22.5850 F   0  0  0  0  0  0  0  0  0  0  0  0
   -5.3310   -8.0600  -22.9470 H   0  0  0  0  0  0  0  0  0  0  0  0
   -5.6600   -5.5670  -21.1780 C   0  0  0  0  0  0  0  0  0  0  0  0
   -5.3430   -4.0940  -20.9240 C   0  0  0  0  0  0  0  0  0  0  0  0
   -4.4260   -4.0150  -20.3250 H   0  0  0  0  0  0  0  0  0  0  0  0
   -6.1110   -3.5920  -20.3440 H   0  0  0  0  0  0  0  0  0  0  0  0
   -5.7150   -6.0700  -20.2130 H   0  0  0  0  0  0  0  0  0  0  0  0
   -6.6300   -5.6830  -21.6860 H   0  0  0  0  0  0  0  0  0  0  0  0
   -3.6060   -6.0270  -21.5660 H   0  0  0  0  0  0  0  0  0  0  0  0
   -5.4540   -5.4940  -23.9040 H   0  0  0  0  0  0  0  0  0  0  0  0
   -3.7180   -5.8740  -24.0180 H   0  0  0  0  0  0  0  0  0  0  0  0
   -3.1900   -3.9550  -22.5200 H   0  0  0  0  0  0  0  0  0  0  0  0
   -4.0880   -3.3480  -23.9390 H   0  0  0  0  0  0  0  0  0  0  0  0
  1  2  2  0  0  0  0
  2  3  1  0  0  0  0
  2 22  1  0  0  0  0
  3  4  1  0  0  0  0
  3 20  1  0  0  0  0
  3 21  1  0  0  0  0
  4  5  2  0  0  0  0
  4 13  1  0  0  0  0
  5  6  1  0  0  0  0
  5 19  1  0  0  0  0
  6  7  2  0  0  0  0
  7  8  1  0  0  0  0
  7 18  1  0  0  0  0
  8  9  2  0  0  0  0
  8 13  1  0  0  0  0
  9 10  1  0  0  0  0
  9 17  1  0  0  0  0
 10 11  2  0  0  0  0
 10 16  1  0  0  0  0
 11 12  1  0  0  0  0
 11 15  1  0  0  0  0
 12 13  2  0  0  0  0
 12 14  1  0  0  0  0
 22 23  1  0  0  0  0
 22 31  1  0  0  0  0
 23 24  1  0  0  0  0
 23 39  1  0  0  0  0
 23 40  1  0  0  0  0
 24 25  1  0  0  0  0
 24 37  1  0  0  0  0
 24 38  1  0  0  0  0
 25 26  1  0  0  0  0
 25 30  1  0  0  0  0
 25 36  1  0  0  0  0
 26 27  1  0  0  0  0
 26 28  1  0  0  0  0
 26 29  1  0  0  0  0
 30 31  1  0  0  0  0
 30 34  1  0  0  0  0
 30 35  1  0  0  0  0
 31 32  1  0  0  0  0
 31 33  1  0  0  0  0
M  END
>  <MODEL>
       1

$$$$
