tmp_first_model_9_24.pdb
 OpenBabel08272521403D

 65 70  0  0  1  0  0  0  0  0999 V2000
  -12.7950   -2.2320  -22.7550 O   0  0  0  0  0  0  0  0  0  0  0  0
  -12.5300   -3.3900  -23.0340 C   0  0  0  0  0  0  0  0  0  0  0  0
  -11.2750   -3.8370  -23.7700 C   0  0  0  0  0  0  0  0  0  0  0  0
  -10.4970   -4.7230  -22.8060 N   0  3  1  0  0  0  0  0  0  0  0  0
   -9.5850   -5.6720  -23.5070 C   0  0  0  0  0  0  0  0  0  0  0  0
   -8.4870   -4.9170  -24.2160 C   0  0  0  0  0  0  0  0  0  0  0  0
   -7.9150   -5.4530  -25.3660 C   0  0  0  0  0  0  0  0  0  0  0  0
   -6.9190   -4.7820  -26.0600 C   0  0  0  0  0  0  0  0  0  0  0  0
   -6.4930   -3.5500  -25.5800 C   0  0  0  0  0  0  0  0  0  0  0  0
   -5.2340   -2.6950  -26.4240 Cl  0  0  0  0  0  0  0  0  0  0  0  0
   -7.0500   -2.9970  -24.4370 C   0  0  0  0  0  0  0  0  0  0  0  0
   -8.0620   -3.6680  -23.7430 C   0  0  0  0  0  0  0  0  0  0  0  0
   -8.6290   -3.0030  -22.4940 C   0  0  2  0  0  0  0  0  0  0  0  0
   -9.2090   -1.5790  -22.7440 C   0  0  0  0  0  0  0  0  0  0  0  0
   -8.3710   -0.5690  -21.9360 C   0  0  0  0  0  0  0  0  0  0  0  0
   -7.4040   -1.3970  -21.2380 N   0  0  0  0  0  0  0  0  0  0  0  0
   -6.5890   -0.8890  -20.1940 C   0  0  0  0  0  0  0  0  0  0  0  0
   -6.8920   -1.1510  -18.8820 C   0  0  0  0  0  0  0  0  0  0  0  0
   -6.2290   -0.6120  -17.8290 N   0  0  0  0  0  0  0  0  0  0  0  0
   -5.2340    0.2000  -18.0830 C   0  0  0  0  0  0  0  0  0  0  0  0
   -4.7940    0.5320  -19.3960 C   0  0  0  0  0  0  0  0  0  0  0  0
   -3.6900    1.3930  -19.6240 C   0  0  0  0  0  0  0  0  0  0  0  0
   -3.2810    1.6690  -20.9000 C   0  0  0  0  0  0  0  0  0  0  0  0
   -3.9600    1.1030  -22.0020 C   0  0  0  0  0  0  0  0  0  0  0  0
   -5.0380    0.2750  -21.8070 C   0  0  0  0  0  0  0  0  0  0  0  0
   -5.4870   -0.0280  -20.4930 C   0  0  0  0  0  0  0  0  0  0  0  0
   -5.5480   -0.1610  -22.6620 H   0  0  0  0  0  0  0  0  0  0  0  0
   -3.6240    1.3190  -23.0120 H   0  0  0  0  0  0  0  0  0  0  0  0
   -2.4360    2.3280  -21.0750 H   0  0  0  0  0  0  0  0  0  0  0  0
   -3.1880    1.8280  -18.7640 H   0  0  0  0  0  0  0  0  0  0  0  0
   -4.7120    0.6320  -17.2280 H   0  0  0  0  0  0  0  0  0  0  0  0
   -7.7170   -1.8130  -18.6290 H   0  0  0  0  0  0  0  0  0  0  0  0
   -7.4890   -2.7420  -21.5020 C   0  0  0  0  0  0  0  0  0  0  0  0
   -6.7510   -3.5870  -21.0350 O   0  0  0  0  0  0  0  0  0  0  0  0
   -7.8720    0.1680  -22.5780 H   0  0  0  0  0  0  0  0  0  0  0  0
   -8.9760   -0.0080  -21.2130 H   0  0  0  0  0  0  0  0  0  0  0  0
  -10.2590   -1.5380  -22.4290 H   0  0  0  0  0  0  0  0  0  0  0  0
   -9.1890   -1.3300  -23.8090 H   0  0  0  0  0  0  0  0  0  0  0  0
   -9.6500   -3.9240  -21.8060 C   0  0  0  0  0  0  0  0  0  0  0  0
  -10.3230   -3.3540  -21.1640 H   0  0  0  0  0  0  0  0  0  0  0  0
   -9.1170   -4.6510  -21.1930 H   0  0  0  0  0  0  0  0  0  0  0  0
   -6.6930   -2.0340  -24.0810 H   0  0  0  0  0  0  0  0  0  0  0  0
   -6.4800   -5.2060  -26.9570 H   0  0  0  0  0  0  0  0  0  0  0  0
   -8.2710   -6.4150  -25.7300 H   0  0  0  0  0  0  0  0  0  0  0  0
  -10.1590   -6.2740  -24.2180 H   0  0  0  0  0  0  0  0  0  0  0  0
   -9.1730   -6.3640  -22.7670 H   0  0  0  0  0  0  0  0  0  0  0  0
  -11.1900   -5.2550  -22.2490 H   0  0  0  0  0  0  0  0  0  0  0  0
  -10.6760   -2.9920  -24.0820 H   0  0  0  0  0  0  0  0  0  0  0  0
  -11.5250   -4.4290  -24.6560 H   0  0  0  0  0  0  0  0  0  0  0  0
  -13.2890   -4.4480  -22.6310 N   0  0  0  0  0  0  0  0  0  0  0  0
  -14.4650   -4.1440  -21.7480 C   0  0  0  0  0  0  0  0  0  0  0  0
  -15.1940   -5.2330  -21.2320 C   0  0  1  0  0  0  0  0  0  0  0  0
  -15.5310   -5.4230  -19.7570 C   0  0  0  0  0  0  0  0  0  0  0  0
  -16.8530   -5.5990  -18.9690 C   0  0  1  0  0  0  0  0  0  0  0  0
  -17.8980   -5.5360  -17.2940 F   0  0  0  0  0  0  0  0  0  0  0  0
  -16.7770   -5.3900  -19.1910 C   0  0  0  0  0  0  0  0  0  0  0  0
  -17.1470   -4.4370  -18.6310 H   0  0  0  0  0  0  0  0  0  0  0  0
  -17.8800   -5.3970  -19.6960 H   0  0  0  0  0  0  0  0  0  0  0  0
  -17.0000   -6.8860  -18.1850 H   0  0  0  0  0  0  0  0  0  0  0  0
  -14.8760   -4.6240  -19.3220 H   0  0  0  0  0  0  0  0  0  0  0  0
  -15.0400   -6.4260  -19.6460 H   0  0  0  0  0  0  0  0  0  0  0  0
  -15.6630   -5.9480  -21.9020 H   0  0  0  0  0  0  0  0  0  0  0  0
  -15.0340   -3.3790  -22.3650 H   0  0  0  0  0  0  0  0  0  0  0  0
  -14.0690   -3.5310  -20.8820 H   0  0  0  0  0  0  0  0  0  0  0  0
  -13.0450   -5.3740  -22.9530 H   0  0  0  0  0  0  0  0  0  0  0  0
  1  2  2  0  0  0  0
  2  3  1  0  0  0  0
  2 50  1  0  0  0  0
  3  4  1  0  0  0  0
  3 48  1  0  0  0  0
  3 49  1  0  0  0  0
  4  5  1  0  0  0  0
  4 39  1  0  0  0  0
  4 47  1  1  0  0  0
  5  6  1  0  0  0  0
  5 45  1  0  0  0  0
  5 46  1  0  0  0  0
  6  7  2  0  0  0  0
  6 12  1  0  0  0  0
  7  8  1  0  0  0  0
  7 44  1  0  0  0  0
  8  9  2  0  0  0  0
  8 43  1  0  0  0  0
  9 10  1  0  0  0  0
  9 11  1  0  0  0  0
 11 12  2  0  0  0  0
 11 42  1  0  0  0  0
 13 12  1  6  0  0  0
 13 14  1  0  0  0  0
 13 33  1  0  0  0  0
 13 39  1  0  0  0  0
 14 15  1  0  0  0  0
 14 37  1  0  0  0  0
 14 38  1  0  0  0  0
 15 16  1  0  0  0  0
 15 35  1  0  0  0  0
 15 36  1  0  0  0  0
 16 17  1  0  0  0  0
 16 33  1  0  0  0  0
 17 18  2  0  0  0  0
 17 26  1  0  0  0  0
 18 19  1  0  0  0  0
 18 32  1  0  0  0  0
 19 20  2  0  0  0  0
 20 21  1  0  0  0  0
 20 31  1  0  0  0  0
 21 22  2  0  0  0  0
 21 26  1  0  0  0  0
 22 23  1  0  0  0  0
 22 30  1  0  0  0  0
 23 24  2  0  0  0  0
 23 29  1  0  0  0  0
 24 25  1  0  0  0  0
 24 28  1  0  0  0  0
 25 26  2  0  0  0  0
 25 27  1  0  0  0  0
 33 34  2  0  0  0  0
 39 40  1  0  0  0  0
 39 41  1  0  0  0  0
 50 51  1  0  0  0  0
 50 65  1  0  0  0  0
 51 52  1  0  0  0  0
 51 63  1  0  0  0  0
 51 64  1  0  0  0  0
 52 53  1  0  0  0  0
 52 56  1  0  0  0  0
 52 62  1  6  0  0  0
 53 54  1  0  0  0  0
 53 60  1  0  0  0  0
 53 61  1  0  0  0  0
 54 55  1  0  0  0  0
 54 56  1  0  0  0  0
 54 59  1  6  0  0  0
 56 57  1  0  0  0  0
 56 58  1  0  0  0  0
M  CHG  1   4   1
M  END
>  <MODEL>
       1

$$$$
