tmp_first_model_1_82.pdb
 OpenBabel08272517043D

 54 57  0  0  1  0  0  0  0  0999 V2000
   -9.3970    1.4540  -24.5490 C   0  0  0  0  0  0  0  0  0  0  0  0
   -8.8720    0.1560  -24.4010 O   0  0  0  0  0  0  0  0  0  0  0  0
   -7.6020   -0.0660  -24.8280 C   0  0  0  0  0  0  0  0  0  0  0  0
   -6.7940    0.9300  -25.3830 C   0  0  0  0  0  0  0  0  0  0  0  0
   -5.4900    0.6240  -25.7610 C   0  0  0  0  0  0  0  0  0  0  0  0
   -5.0050   -0.6670  -25.6030 C   0  0  0  0  0  0  0  0  0  0  0  0
   -5.8230   -1.6480  -25.0490 C   0  0  0  0  0  0  0  0  0  0  0  0
   -7.1160   -1.3690  -24.6390 C   0  0  0  0  0  0  0  0  0  0  0  0
   -8.0000   -2.4610  -24.0370 C   0  0  1  0  0  0  0  0  0  0  0  0
   -8.5390   -3.3680  -25.1540 C   0  0  0  0  0  0  0  0  0  0  0  0
   -9.2450   -4.6010  -24.5870 C   0  0  1  0  0  0  0  0  0  0  0  0
   -9.8860   -5.4480  -25.6940 C   0  0  0  0  0  0  0  0  0  0  0  0
  -10.6210   -4.8680  -26.2630 H   0  0  0  0  0  0  0  0  0  0  0  0
   -9.1280   -5.8120  -26.4010 H   0  0  0  0  0  0  0  0  0  0  0  0
  -10.3980   -6.3230  -25.2770 H   0  0  0  0  0  0  0  0  0  0  0  0
   -8.2700   -5.4350  -23.7250 C   0  0  0  0  0  0  0  0  0  0  0  0
   -6.9990   -4.6600  -23.3520 C   0  0  0  0  0  0  0  0  0  0  0  0
   -7.3040   -3.2670  -23.0300 N   0  0  0  0  0  0  0  0  0  0  0  0
   -6.7430   -2.7370  -21.8890 C   0  0  0  0  0  0  0  0  0  0  0  0
   -5.8160   -3.2910  -21.3180 O   0  0  0  0  0  0  0  0  0  0  0  0
   -7.3910   -1.4680  -21.2920 C   0  0  0  0  0  0  0  0  0  0  0  0
   -6.5720   -0.8380  -20.1960 C   0  0  0  0  0  0  0  0  0  0  0  0
   -6.8710   -1.0590  -18.8790 C   0  0  0  0  0  0  0  0  0  0  0  0
   -6.1880   -0.5580  -17.8140 N   0  0  0  0  0  0  0  0  0  0  0  0
   -5.1610    0.2120  -18.0770 C   0  0  0  0  0  0  0  0  0  0  0  0
   -4.7230    0.5260  -19.3920 C   0  0  0  0  0  0  0  0  0  0  0  0
   -3.5970    1.3570  -19.6250 C   0  0  0  0  0  0  0  0  0  0  0  0
   -3.1990    1.6300  -20.9020 C   0  0  0  0  0  0  0  0  0  0  0  0
   -3.9070    1.0890  -21.9970 C   0  0  0  0  0  0  0  0  0  0  0  0
   -5.0010    0.2840  -21.8070 C   0  0  0  0  0  0  0  0  0  0  0  0
   -5.4400   -0.0150  -20.4870 C   0  0  0  0  0  0  0  0  0  0  0  0
   -5.5270   -0.1200  -22.6720 H   0  0  0  0  0  0  0  0  0  0  0  0
   -3.5840    1.3180  -23.0100 H   0  0  0  0  0  0  0  0  0  0  0  0
   -2.3420    2.2720  -21.0870 H   0  0  0  0  0  0  0  0  0  0  0  0
   -3.0720    1.7690  -18.7660 H   0  0  0  0  0  0  0  0  0  0  0  0
   -4.6180    0.6240  -17.2230 H   0  0  0  0  0  0  0  0  0  0  0  0
   -7.7260   -1.6770  -18.6010 H   0  0  0  0  0  0  0  0  0  0  0  0
   -7.6370   -0.7390  -22.0720 H   0  0  0  0  0  0  0  0  0  0  0  0
   -8.3570   -1.7820  -20.8700 H   0  0  0  0  0  0  0  0  0  0  0  0
   -6.2710   -4.7190  -24.1770 H   0  0  0  0  0  0  0  0  0  0  0  0
   -6.5190   -5.0840  -22.4710 H   0  0  0  0  0  0  0  0  0  0  0  0
   -7.9730   -6.3440  -24.2670 H   0  0  0  0  0  0  0  0  0  0  0  0
   -8.7880   -5.7620  -22.8150 H   0  0  0  0  0  0  0  0  0  0  0  0
  -10.0500   -4.2410  -23.9280 H   0  0  0  0  0  0  0  0  0  0  0  0
   -9.2410   -2.7680  -25.7450 H   0  0  0  0  0  0  0  0  0  0  0  0
   -7.7200   -3.6690  -25.8300 H   0  0  0  0  0  0  0  0  0  0  0  0
   -8.8560   -1.9730  -23.5570 H   0  0  0  0  0  0  0  0  0  0  0  0
   -5.4430   -2.6620  -24.9390 H   0  0  0  0  0  0  0  0  0  0  0  0
   -3.9960   -0.9280  -25.9030 H   0  0  0  0  0  0  0  0  0  0  0  0
   -4.8490    1.4010  -26.1750 H   0  0  0  0  0  0  0  0  0  0  0  0
   -7.1600    1.9430  -25.5020 H   0  0  0  0  0  0  0  0  0  0  0  0
   -9.3060    1.8000  -25.5880 H   0  0  0  0  0  0  0  0  0  0  0  0
   -8.8890    2.1700  -23.8880 H   0  0  0  0  0  0  0  0  0  0  0  0
  -10.4450    1.3590  -24.2620 H   0  0  0  0  0  0  0  0  0  0  0  0
  1  2  1  0  0  0  0
  1 52  1  0  0  0  0
  1 53  1  0  0  0  0
  1 54  1  0  0  0  0
  2  3  1  0  0  0  0
  3  4  2  0  0  0  0
  3  8  1  0  0  0  0
  4  5  1  0  0  0  0
  4 51  1  0  0  0  0
  5  6  2  0  0  0  0
  5 50  1  0  0  0  0
  6  7  1  0  0  0  0
  6 49  1  0  0  0  0
  7  8  2  0  0  0  0
  7 48  1  0  0  0  0
  8  9  1  0  0  0  0
  9 10  1  0  0  0  0
  9 18  1  0  0  0  0
  9 47  1  1  0  0  0
 10 11  1  0  0  0  0
 10 45  1  0  0  0  0
 10 46  1  0  0  0  0
 11 12  1  0  0  0  0
 11 16  1  0  0  0  0
 11 44  1  1  0  0  0
 12 13  1  0  0  0  0
 12 14  1  0  0  0  0
 12 15  1  0  0  0  0
 16 17  1  0  0  0  0
 16 42  1  0  0  0  0
 16 43  1  0  0  0  0
 17 18  1  0  0  0  0
 17 40  1  0  0  0  0
 17 41  1  0  0  0  0
 18 19  1  0  0  0  0
 19 20  2  0  0  0  0
 19 21  1  0  0  0  0
 21 22  1  0  0  0  0
 21 38  1  0  0  0  0
 21 39  1  0  0  0  0
 22 23  2  0  0  0  0
 22 31  1  0  0  0  0
 23 24  1  0  0  0  0
 23 37  1  0  0  0  0
 24 25  2  0  0  0  0
 25 26  1  0  0  0  0
 25 36  1  0  0  0  0
 26 27  2  0  0  0  0
 26 31  1  0  0  0  0
 27 28  1  0  0  0  0
 27 35  1  0  0  0  0
 28 29  2  0  0  0  0
 28 34  1  0  0  0  0
 29 30  1  0  0  0  0
 29 33  1  0  0  0  0
 30 31  2  0  0  0  0
 30 32  1  0  0  0  0
M  END
>  <MODEL>
       1

$$$$
