tmp_first_model_17_64.pdb
 OpenBabel08282502223D

 55 60  0  0  1  0  0  0  0  0999 V2000
  -10.3570   -0.9940  -23.3750 C   0  0  0  0  0  0  0  0  0  0  0  0
   -8.9330   -1.4160  -23.0110 C   0  0  1  0  0  0  0  0  0  0  0  0
   -8.3460   -0.5230  -21.9060 C   0  0  0  0  0  0  0  0  0  0  0  0
   -7.3710   -1.3800  -21.2560 N   0  0  0  0  0  0  0  0  0  0  0  0
   -6.5800   -0.8980  -20.1850 C   0  0  0  0  0  0  0  0  0  0  0  0
   -6.9030   -1.1590  -18.8770 C   0  0  0  0  0  0  0  0  0  0  0  0
   -6.2600   -0.6090  -17.8140 N   0  0  0  0  0  0  0  0  0  0  0  0
   -5.2530    0.1950  -18.0630 C   0  0  0  0  0  0  0  0  0  0  0  0
   -4.7900    0.5210  -19.3720 C   0  0  0  0  0  0  0  0  0  0  0  0
   -3.6740    1.3700  -19.6050 C   0  0  0  0  0  0  0  0  0  0  0  0
   -3.2800    1.6550  -20.8840 C   0  0  0  0  0  0  0  0  0  0  0  0
   -3.9730    1.1100  -21.9880 C   0  0  0  0  0  0  0  0  0  0  0  0
   -5.0470    0.2780  -21.7870 C   0  0  0  0  0  0  0  0  0  0  0  0
   -5.4810   -0.0310  -20.4710 C   0  0  0  0  0  0  0  0  0  0  0  0
   -5.5700   -0.1640  -22.6280 H   0  0  0  0  0  0  0  0  0  0  0  0
   -3.6430    1.3390  -22.9970 H   0  0  0  0  0  0  0  0  0  0  0  0
   -2.4180    2.2920  -21.0640 H   0  0  0  0  0  0  0  0  0  0  0  0
   -3.1390    1.7770  -18.7510 H   0  0  0  0  0  0  0  0  0  0  0  0
   -4.7440    0.6260  -17.2010 H   0  0  0  0  0  0  0  0  0  0  0  0
   -7.7260   -1.8310  -18.6400 H   0  0  0  0  0  0  0  0  0  0  0  0
   -7.6280   -2.7220  -21.4350 C   0  0  0  0  0  0  0  0  0  0  0  0
   -7.0400   -3.6100  -20.8460 O   0  0  0  0  0  0  0  0  0  0  0  0
   -8.7580   -2.8840  -22.4700 C   0  0  1  0  0  0  0  0  0  0  0  0
  -10.0090   -3.3550  -21.6900 C   0  0  0  0  0  0  0  0  0  0  0  0
  -11.0930   -3.7880  -22.5670 N   0  0  0  0  0  0  0  0  0  0  0  0
  -12.4760   -3.5770  -22.1870 C   0  0  0  0  0  0  0  0  0  0  0  0
  -13.2010   -2.4590  -22.8700 C   0  0  0  0  0  0  0  0  0  0  0  0
  -13.7100   -2.5170  -24.1370 N   0  0  0  0  0  0  0  0  0  0  0  0
  -14.4410   -1.4240  -24.2020 C   0  0  0  0  0  0  0  0  0  0  0  0
  -14.3580   -0.7440  -23.0500 N   0  0  0  0  0  0  0  0  0  0  0  0
  -13.5520   -1.3880  -22.1900 N   0  0  0  0  0  0  0  0  0  0  0  0
  -14.9210    0.0100  -22.6950 H   0  0  0  0  0  0  0  0  0  0  0  0
  -15.0290   -1.0730  -25.0350 H   0  0  0  0  0  0  0  0  0  0  0  0
  -12.5390   -3.3980  -21.1140 H   0  0  0  0  0  0  0  0  0  0  0  0
  -13.0240   -4.4840  -22.4400 H   0  0  0  0  0  0  0  0  0  0  0  0
  -10.8550   -4.6410  -23.6140 C   0  0  0  0  0  0  0  0  0  0  0  0
  -11.7430   -5.2420  -24.2010 O   0  0  0  0  0  0  0  0  0  0  0  0
   -9.4250   -4.7730  -24.0320 C   0  0  0  0  0  0  0  0  0  0  0  0
   -9.1340   -5.7570  -24.9780 C   0  0  0  0  0  0  0  0  0  0  0  0
   -7.8510   -5.9210  -25.4630 C   0  0  0  0  0  0  0  0  0  0  0  0
   -6.8710   -5.0660  -24.9780 C   0  0  0  0  0  0  0  0  0  0  0  0
   -5.6240   -5.1930  -25.4600 F   0  0  0  0  0  0  0  0  0  0  0  0
   -7.1230   -4.0980  -24.0230 C   0  0  0  0  0  0  0  0  0  0  0  0
   -8.4250   -3.9320  -23.5240 C   0  0  0  0  0  0  0  0  0  0  0  0
   -6.2920   -3.5110  -23.6510 H   0  0  0  0  0  0  0  0  0  0  0  0
   -7.5940   -6.6940  -26.1800 H   0  0  0  0  0  0  0  0  0  0  0  0
   -9.9390   -6.4000  -25.3210 H   0  0  0  0  0  0  0  0  0  0  0  0
   -9.7070   -4.1790  -21.0330 H   0  0  0  0  0  0  0  0  0  0  0  0
  -10.3510   -2.5170  -21.0700 H   0  0  0  0  0  0  0  0  0  0  0  0
   -7.8690    0.3800  -22.2980 H   0  0  0  0  0  0  0  0  0  0  0  0
   -9.1200   -0.2010  -21.1860 H   0  0  0  0  0  0  0  0  0  0  0  0
   -8.2860   -1.3480  -23.8970 H   0  0  0  0  0  0  0  0  0  0  0  0
  -10.9890   -0.9070  -22.4840 H   0  0  0  0  0  0  0  0  0  0  0  0
  -10.3610   -0.0200  -23.8720 H   0  0  0  0  0  0  0  0  0  0  0  0
  -10.8380   -1.7220  -24.0320 H   0  0  0  0  0  0  0  0  0  0  0  0
  1  2  1  0  0  0  0
  1 53  1  0  0  0  0
  1 54  1  0  0  0  0
  1 55  1  0  0  0  0
  2  3  1  0  0  0  0
  2 23  1  0  0  0  0
  2 52  1  6  0  0  0
  3  4  1  0  0  0  0
  3 50  1  0  0  0  0
  3 51  1  0  0  0  0
  4  5  1  0  0  0  0
  4 21  1  0  0  0  0
  5  6  2  0  0  0  0
  5 14  1  0  0  0  0
  6  7  1  0  0  0  0
  6 20  1  0  0  0  0
  7  8  2  0  0  0  0
  8  9  1  0  0  0  0
  8 19  1  0  0  0  0
  9 10  2  0  0  0  0
  9 14  1  0  0  0  0
 10 11  1  0  0  0  0
 10 18  1  0  0  0  0
 11 12  2  0  0  0  0
 11 17  1  0  0  0  0
 12 13  1  0  0  0  0
 12 16  1  0  0  0  0
 13 14  2  0  0  0  0
 13 15  1  0  0  0  0
 21 22  2  0  0  0  0
 23 21  1  1  0  0  0
 23 24  1  0  0  0  0
 23 44  1  0  0  0  0
 24 25  1  0  0  0  0
 24 48  1  0  0  0  0
 24 49  1  0  0  0  0
 25 26  1  0  0  0  0
 25 36  1  0  0  0  0
 26 27  1  0  0  0  0
 26 34  1  0  0  0  0
 26 35  1  0  0  0  0
 27 28  1  0  0  0  0
 27 31  2  0  0  0  0
 28 29  2  0  0  0  0
 29 30  1  0  0  0  0
 29 33  1  0  0  0  0
 30 31  1  0  0  0  0
 30 32  1  0  0  0  0
 36 37  2  0  0  0  0
 36 38  1  0  0  0  0
 38 39  2  0  0  0  0
 38 44  1  0  0  0  0
 39 40  1  0  0  0  0
 39 47  1  0  0  0  0
 40 41  2  0  0  0  0
 40 46  1  0  0  0  0
 41 42  1  0  0  0  0
 41 43  1  0  0  0  0
 43 44  2  0  0  0  0
 43 45  1  0  0  0  0
M  END
>  <MODEL>
       1

$$$$
