tmp_first_model_4_72.pdb
 OpenBabel08272518513D

 41 44  0  0  0  0  0  0  0  0999 V2000
   -5.5840   -3.1360  -21.5080 O   0  0  0  0  0  0  0  0  0  0  0  0
   -6.6230   -2.6690  -21.9520 C   0  0  0  0  0  0  0  0  0  0  0  0
   -7.3500   -1.5010  -21.2650 C   0  0  0  0  0  0  0  0  0  0  0  0
   -6.4890   -0.9770  -20.1760 C   0  0  0  0  0  0  0  0  0  0  0  0
   -6.7260   -1.2940  -18.8680 C   0  0  0  0  0  0  0  0  0  0  0  0
   -5.8640   -1.0570  -17.8490 N   0  0  0  0  0  0  0  0  0  0  0  0
   -4.7330   -0.4620  -18.1540 C   0  0  0  0  0  0  0  0  0  0  0  0
   -4.3980   -0.0100  -19.4600 C   0  0  0  0  0  0  0  0  0  0  0  0
   -3.2290    0.7400  -19.7210 C   0  0  0  0  0  0  0  0  0  0  0  0
   -3.0000    1.2600  -20.9680 C   0  0  0  0  0  0  0  0  0  0  0  0
   -3.8860    0.9690  -22.0310 C   0  0  0  0  0  0  0  0  0  0  0  0
   -4.9980    0.1950  -21.8140 C   0  0  0  0  0  0  0  0  0  0  0  0
   -5.3000   -0.2750  -20.5090 C   0  0  0  0  0  0  0  0  0  0  0  0
   -5.6370   -0.0790  -22.6480 H   0  0  0  0  0  0  0  0  0  0  0  0
   -3.7050    1.3920  -23.0140 H   0  0  0  0  0  0  0  0  0  0  0  0
   -2.1540    1.9180  -21.1410 H   0  0  0  0  0  0  0  0  0  0  0  0
   -2.5620    0.9360  -18.8870 H   0  0  0  0  0  0  0  0  0  0  0  0
   -4.0150   -0.2910  -17.3520 H   0  0  0  0  0  0  0  0  0  0  0  0
   -7.6500   -1.8170  -18.6130 H   0  0  0  0  0  0  0  0  0  0  0  0
   -7.5530   -0.7080  -21.9950 H   0  0  0  0  0  0  0  0  0  0  0  0
   -8.3110   -1.8610  -20.8690 H   0  0  0  0  0  0  0  0  0  0  0  0
   -7.1760   -3.1420  -23.1130 N   0  0  0  0  0  0  0  0  0  0  0  0
   -8.5840   -2.9470  -23.4430 C   0  0  0  0  0  0  0  0  0  0  0  0
   -9.4940   -3.9900  -22.7980 C   0  0  0  0  0  0  0  0  0  0  0  0
   -9.1910   -5.3940  -23.3490 C   0  0  0  0  0  0  0  0  0  0  0  0
   -7.9570   -6.0410  -22.7710 C   0  0  0  0  0  0  0  0  0  0  0  0
   -7.9440   -7.5500  -21.9180 S   0  0  0  0  0  0  0  0  0  0  0  0
   -6.2230   -7.5340  -21.7980 C   0  0  0  0  0  0  0  0  0  0  0  0
   -5.6920   -6.4310  -22.3890 C   0  0  0  0  0  0  0  0  0  0  0  0
   -6.6890   -5.5710  -22.9490 C   0  0  0  0  0  0  0  0  0  0  0  0
   -6.4700   -4.2790  -23.7040 C   0  0  0  0  0  0  0  0  0  0  0  0
   -5.4100   -4.0190  -23.7470 H   0  0  0  0  0  0  0  0  0  0  0  0
   -6.8220   -4.3840  -24.7370 H   0  0  0  0  0  0  0  0  0  0  0  0
   -4.6260   -6.2260  -22.4320 H   0  0  0  0  0  0  0  0  0  0  0  0
   -5.6690   -8.3380  -21.3310 H   0  0  0  0  0  0  0  0  0  0  0  0
   -9.0260   -5.2960  -24.4310 H   0  0  0  0  0  0  0  0  0  0  0  0
  -10.0480   -6.0500  -23.2680 H   0  0  0  0  0  0  0  0  0  0  0  0
  -10.5390   -3.7260  -22.9970 H   0  0  0  0  0  0  0  0  0  0  0  0
   -9.3760   -3.9590  -21.7060 H   0  0  0  0  0  0  0  0  0  0  0  0
   -8.6830   -2.9970  -24.5380 H   0  0  0  0  0  0  0  0  0  0  0  0
   -8.8890   -1.9400  -23.1430 H   0  0  0  0  0  0  0  0  0  0  0  0
  1  2  2  0  0  0  0
  2  3  1  0  0  0  0
  2 22  1  0  0  0  0
  3  4  1  0  0  0  0
  3 20  1  0  0  0  0
  3 21  1  0  0  0  0
  4  5  2  0  0  0  0
  4 13  1  0  0  0  0
  5  6  1  0  0  0  0
  5 19  1  0  0  0  0
  6  7  2  0  0  0  0
  7  8  1  0  0  0  0
  7 18  1  0  0  0  0
  8  9  2  0  0  0  0
  8 13  1  0  0  0  0
  9 10  1  0  0  0  0
  9 17  1  0  0  0  0
 10 11  2  0  0  0  0
 10 16  1  0  0  0  0
 11 12  1  0  0  0  0
 11 15  1  0  0  0  0
 12 13  2  0  0  0  0
 12 14  1  0  0  0  0
 22 23  1  0  0  0  0
 22 31  1  0  0  0  0
 23 24  1  0  0  0  0
 23 40  1  0  0  0  0
 23 41  1  0  0  0  0
 24 25  1  0  0  0  0
 24 38  1  0  0  0  0
 24 39  1  0  0  0  0
 25 26  1  0  0  0  0
 25 36  1  0  0  0  0
 25 37  1  0  0  0  0
 26 27  1  0  0  0  0
 26 30  2  0  0  0  0
 27 28  1  0  0  0  0
 28 29  2  0  0  0  0
 28 35  1  0  0  0  0
 29 30  1  0  0  0  0
 29 34  1  0  0  0  0
 30 31  1  0  0  0  0
 31 32  1  0  0  0  0
 31 33  1  0  0  0  0
M  END
>  <MODEL>
       1

$$$$
