tmp_first_model_16_90.pdb
 OpenBabel08282501503D

 64 68  0  0  1  0  0  0  0  0999 V2000
   -7.4770    3.2630  -21.7910 C   0  0  0  0  0  0  0  0  0  0  0  0
   -8.4930    2.7820  -22.7190 N   0  0  0  0  0  0  0  0  0  0  0  0
   -8.0530    2.0800  -23.8050 C   0  0  0  0  0  0  0  0  0  0  0  0
   -6.8630    1.9190  -24.0410 O   0  0  0  0  0  0  0  0  0  0  0  0
   -9.1200    1.4960  -24.7290 C   0  0  0  0  0  0  0  0  0  0  0  0
   -9.7110    0.3070  -24.1480 N   0  0  0  0  0  0  0  0  0  0  0  0
   -8.9090   -0.9060  -24.0730 C   0  0  0  0  0  0  0  0  0  0  0  0
   -9.1860   -1.6740  -22.7590 C   0  0  2  0  0  0  0  0  0  0  0  0
   -8.6370   -0.8660  -21.5630 C   0  0  0  0  0  0  0  0  0  0  0  0
   -9.1660    0.0750  -21.0040 O   0  0  0  0  0  0  0  0  0  0  0  0
   -7.4080   -1.3840  -21.2400 N   0  0  0  0  0  0  0  0  0  0  0  0
   -6.6190   -0.8490  -20.2020 C   0  0  0  0  0  0  0  0  0  0  0  0
   -6.9300   -1.1270  -18.8990 C   0  0  0  0  0  0  0  0  0  0  0  0
   -6.1530   -0.7850  -17.8450 N   0  0  0  0  0  0  0  0  0  0  0  0
   -5.0840   -0.0670  -18.0960 C   0  0  0  0  0  0  0  0  0  0  0  0
   -4.7110    0.3860  -19.3940 C   0  0  0  0  0  0  0  0  0  0  0  0
   -3.6200    1.2690  -19.6090 C   0  0  0  0  0  0  0  0  0  0  0  0
   -3.2620    1.6260  -20.8790 C   0  0  0  0  0  0  0  0  0  0  0  0
   -3.9800    1.1350  -21.9910 C   0  0  0  0  0  0  0  0  0  0  0  0
   -5.0730    0.3250  -21.8100 C   0  0  0  0  0  0  0  0  0  0  0  0
   -5.4720   -0.0570  -20.5010 C   0  0  0  0  0  0  0  0  0  0  0  0
   -5.6480   -0.0060  -22.6710 H   0  0  0  0  0  0  0  0  0  0  0  0
   -3.6680    1.4050  -22.9960 H   0  0  0  0  0  0  0  0  0  0  0  0
   -2.4160    2.2860  -21.0410 H   0  0  0  0  0  0  0  0  0  0  0  0
   -3.0970    1.6620  -18.7400 H   0  0  0  0  0  0  0  0  0  0  0  0
   -4.4490    0.2010  -17.2490 H   0  0  0  0  0  0  0  0  0  0  0  0
   -7.8490   -1.6610  -18.6690 H   0  0  0  0  0  0  0  0  0  0  0  0
   -7.0230   -2.5630  -21.9780 C   0  0  0  0  0  0  0  0  0  0  0  0
   -8.3350   -2.9750  -22.6670 C   0  0  2  0  0  0  0  0  0  0  0  0
   -8.1190   -3.7420  -23.9710 C   0  0  0  0  0  0  0  0  0  0  0  0
   -7.4210   -5.3560  -23.6470 S   0  0  0  0  0  0  0  0  0  0  0  0
   -6.0420   -5.2130  -23.2090 O   0  0  0  0  0  0  0  0  0  0  0  0
   -8.3510   -6.0920  -22.8030 O   0  0  0  0  0  0  0  0  0  0  0  0
   -7.3320   -5.9970  -25.1930 N   0  0  0  0  0  0  0  0  0  0  0  0
   -8.5560   -6.4550  -25.8520 C   0  0  0  0  0  0  0  0  0  0  0  0
   -9.1450   -5.5990  -26.1970 H   0  0  0  0  0  0  0  0  0  0  0  0
   -8.2580   -7.0120  -26.7440 H   0  0  0  0  0  0  0  0  0  0  0  0
   -9.1730   -7.0990  -25.2160 H   0  0  0  0  0  0  0  0  0  0  0  0
   -6.5870   -6.6830  -25.1860 H   0  0  0  0  0  0  0  0  0  0  0  0
   -7.4280   -3.2340  -24.6500 H   0  0  0  0  0  0  0  0  0  0  0  0
   -9.0650   -3.8970  -24.4950 H   0  0  0  0  0  0  0  0  0  0  0  0
   -8.8460   -3.6640  -21.9930 H   0  0  0  0  0  0  0  0  0  0  0  0
   -6.6590   -3.3390  -21.2990 H   0  0  0  0  0  0  0  0  0  0  0  0
   -6.2190   -2.3490  -22.7000 H   0  0  0  0  0  0  0  0  0  0  0  0
  -10.6860   -1.8370  -22.6210 C   0  0  0  0  0  0  0  0  0  0  0  0
  -11.2310   -2.8260  -21.8000 C   0  0  0  0  0  0  0  0  0  0  0  0
  -12.5960   -2.8680  -21.6010 C   0  0  0  0  0  0  0  0  0  0  0  0
  -13.0970   -3.7790  -20.7550 F   0  0  0  0  0  0  0  0  0  0  0  0
  -13.4820   -1.9970  -22.2210 C   0  0  0  0  0  0  0  0  0  0  0  0
  -12.9480   -1.0100  -23.0180 C   0  0  0  0  0  0  0  0  0  0  0  0
  -11.5690   -0.9060  -23.1880 C   0  0  0  0  0  0  0  0  0  0  0  0
  -11.0630    0.2810  -23.9420 C   0  0  0  0  0  0  0  0  0  0  0  0
  -11.8050    1.1760  -24.3250 O   0  0  0  0  0  0  0  0  0  0  0  0
  -13.5720   -0.2770  -23.5120 H   0  0  0  0  0  0  0  0  0  0  0  0
  -14.5490   -2.0930  -22.0530 H   0  0  0  0  0  0  0  0  0  0  0  0
  -10.6170   -3.5580  -21.2900 H   0  0  0  0  0  0  0  0  0  0  0  0
   -7.8510   -0.6280  -24.1400 H   0  0  0  0  0  0  0  0  0  0  0  0
   -9.1430   -1.5610  -24.9230 H   0  0  0  0  0  0  0  0  0  0  0  0
   -9.9310    2.2100  -24.9060 H   0  0  0  0  0  0  0  0  0  0  0  0
   -8.6390    1.2500  -25.6860 H   0  0  0  0  0  0  0  0  0  0  0  0
   -9.4170    2.5920  -22.3560 H   0  0  0  0  0  0  0  0  0  0  0  0
   -6.6760    3.7200  -22.3780 H   0  0  0  0  0  0  0  0  0  0  0  0
   -7.0560    2.4390  -21.1820 H   0  0  0  0  0  0  0  0  0  0  0  0
   -7.9140    4.0400  -21.1600 H   0  0  0  0  0  0  0  0  0  0  0  0
  1  2  1  0  0  0  0
  1 62  1  0  0  0  0
  1 63  1  0  0  0  0
  1 64  1  0  0  0  0
  2  3  1  0  0  0  0
  2 61  1  0  0  0  0
  3  4  2  0  0  0  0
  3  5  1  0  0  0  0
  5  6  1  0  0  0  0
  5 59  1  0  0  0  0
  5 60  1  0  0  0  0
  6  7  1  0  0  0  0
  6 52  1  0  0  0  0
  7  8  1  0  0  0  0
  7 57  1  0  0  0  0
  7 58  1  0  0  0  0
  8  9  1  1  0  0  0
  8 29  1  0  0  0  0
  8 45  1  0  0  0  0
  9 10  2  0  0  0  0
  9 11  1  0  0  0  0
 11 12  1  0  0  0  0
 11 28  1  0  0  0  0
 12 13  2  0  0  0  0
 12 21  1  0  0  0  0
 13 14  1  0  0  0  0
 13 27  1  0  0  0  0
 14 15  2  0  0  0  0
 15 16  1  0  0  0  0
 15 26  1  0  0  0  0
 16 17  2  0  0  0  0
 16 21  1  0  0  0  0
 17 18  1  0  0  0  0
 17 25  1  0  0  0  0
 18 19  2  0  0  0  0
 18 24  1  0  0  0  0
 19 20  1  0  0  0  0
 19 23  1  0  0  0  0
 20 21  2  0  0  0  0
 20 22  1  0  0  0  0
 28 29  1  0  0  0  0
 28 43  1  0  0  0  0
 28 44  1  0  0  0  0
 29 30  1  0  0  0  0
 29 42  1  1  0  0  0
 30 31  1  0  0  0  0
 30 40  1  0  0  0  0
 30 41  1  0  0  0  0
 31 32  2  0  0  0  0
 31 33  2  0  0  0  0
 31 34  1  0  0  0  0
 34 35  1  0  0  0  0
 34 39  1  0  0  0  0
 35 36  1  0  0  0  0
 35 37  1  0  0  0  0
 35 38  1  0  0  0  0
 45 46  2  0  0  0  0
 45 51  1  0  0  0  0
 46 47  1  0  0  0  0
 46 56  1  0  0  0  0
 47 48  1  0  0  0  0
 47 49  2  0  0  0  0
 49 50  1  0  0  0  0
 49 55  1  0  0  0  0
 50 51  2  0  0  0  0
 50 54  1  0  0  0  0
 51 52  1  0  0  0  0
 52 53  2  0  0  0  0
M  END
>  <MODEL>
       1

$$$$
