tmp_first_model_7_1.pdb
 OpenBabel08272520323D

 68 73  0  0  1  0  0  0  0  0999 V2000
   -7.5010    3.2540  -21.9710 C   0  0  0  0  0  0  0  0  0  0  0  0
   -8.6240    2.7370  -22.7290 N   0  0  0  0  0  0  0  0  0  0  0  0
   -8.3430    1.9260  -23.7820 C   0  0  0  0  0  0  0  0  0  0  0  0
   -7.1920    1.6440  -24.0900 O   0  0  0  0  0  0  0  0  0  0  0  0
   -9.5360    1.3630  -24.5560 C   0  0  0  0  0  0  0  0  0  0  0  0
  -10.0190    0.1660  -23.9020 N   0  0  0  0  0  0  0  0  0  0  0  0
   -9.2010   -1.0380  -23.9280 C   0  0  0  0  0  0  0  0  0  0  0  0
   -9.3040   -1.8130  -22.5840 C   0  0  2  0  0  0  0  0  0  0  0  0
   -8.6890   -0.9240  -21.4750 C   0  0  0  0  0  0  0  0  0  0  0  0
   -9.1890    0.0570  -20.9570 O   0  0  0  0  0  0  0  0  0  0  0  0
   -7.4280   -1.3930  -21.1840 N   0  0  0  0  0  0  0  0  0  0  0  0
   -6.6360   -0.8020  -20.1720 C   0  0  0  0  0  0  0  0  0  0  0  0
   -6.9370   -1.0330  -18.8510 C   0  0  0  0  0  0  0  0  0  0  0  0
   -6.2130   -0.5560  -17.8130 N   0  0  0  0  0  0  0  0  0  0  0  0
   -5.1710    0.1870  -18.0890 C   0  0  0  0  0  0  0  0  0  0  0  0
   -4.7490    0.5090  -19.4090 C   0  0  0  0  0  0  0  0  0  0  0  0
   -3.6230    1.3400  -19.6540 C   0  0  0  0  0  0  0  0  0  0  0  0
   -3.2610    1.6560  -20.9340 C   0  0  0  0  0  0  0  0  0  0  0  0
   -4.0100    1.1660  -22.0260 C   0  0  0  0  0  0  0  0  0  0  0  0
   -5.1090    0.3630  -21.8170 C   0  0  0  0  0  0  0  0  0  0  0  0
   -5.5020    0.0060  -20.4970 C   0  0  0  0  0  0  0  0  0  0  0  0
   -5.7050    0.0420  -22.6650 H   0  0  0  0  0  0  0  0  0  0  0  0
   -3.7250    1.4330  -23.0400 H   0  0  0  0  0  0  0  0  0  0  0  0
   -2.4070    2.3040  -21.1140 H   0  0  0  0  0  0  0  0  0  0  0  0
   -3.0830    1.7350  -18.7980 H   0  0  0  0  0  0  0  0  0  0  0  0
   -4.6000    0.5800  -17.2470 H   0  0  0  0  0  0  0  0  0  0  0  0
   -7.7980   -1.6460  -18.5950 H   0  0  0  0  0  0  0  0  0  0  0  0
   -7.0260   -2.5420  -21.9710 C   0  0  0  0  0  0  0  0  0  0  0  0
   -8.3730   -3.0480  -22.5280 C   0  0  2  0  0  0  0  0  0  0  0  0
   -8.2750   -3.8300  -23.8290 C   0  0  0  0  0  0  0  0  0  0  0  0
   -7.7620   -5.1690  -23.6130 N   0  0  0  0  0  0  0  0  0  0  0  0
   -7.3070   -5.8470  -24.7530 C   0  0  0  0  0  0  0  0  0  0  0  0
   -7.5970   -5.6190  -26.1220 C   0  0  0  0  0  0  0  0  0  0  0  0
   -6.9390   -6.4750  -26.9040 N   0  0  0  0  0  0  0  0  0  0  0  0
   -6.2680   -7.2700  -26.0680 N   0  0  0  0  0  0  0  0  0  0  0  0
   -5.3320   -8.2610  -26.5470 C   0  0  0  0  0  0  0  0  0  0  0  0
   -4.3130   -7.8560  -26.5870 H   0  0  0  0  0  0  0  0  0  0  0  0
   -5.3360   -9.0890  -25.8410 H   0  0  0  0  0  0  0  0  0  0  0  0
   -5.6540   -8.6230  -27.5250 H   0  0  0  0  0  0  0  0  0  0  0  0
   -6.4580   -6.9340  -24.7690 C   0  0  0  0  0  0  0  0  0  0  0  0
   -6.0290   -7.5200  -23.9690 H   0  0  0  0  0  0  0  0  0  0  0  0
   -8.2690   -4.8800  -26.5590 H   0  0  0  0  0  0  0  0  0  0  0  0
   -7.0700   -5.2210  -22.8740 H   0  0  0  0  0  0  0  0  0  0  0  0
   -7.6530   -3.2760  -24.5510 H   0  0  0  0  0  0  0  0  0  0  0  0
   -9.2680   -3.9130  -24.2850 H   0  0  0  0  0  0  0  0  0  0  0  0
   -8.7670   -3.7240  -21.7660 H   0  0  0  0  0  0  0  0  0  0  0  0
   -6.3230   -2.2500  -22.7700 H   0  0  0  0  0  0  0  0  0  0  0  0
   -6.5190   -3.2800  -21.3400 H   0  0  0  0  0  0  0  0  0  0  0  0
  -10.7830   -2.0820  -22.3490 C   0  0  0  0  0  0  0  0  0  0  0  0
  -11.2810   -3.2040  -21.6690 C   0  0  0  0  0  0  0  0  0  0  0  0
  -12.6270   -3.2510  -21.3380 C   0  0  0  0  0  0  0  0  0  0  0  0
  -13.2200   -4.3870  -20.1710 Cl  0  0  0  0  0  0  0  0  0  0  0  0
  -13.5480   -2.3240  -21.8170 C   0  0  0  0  0  0  0  0  0  0  0  0
  -13.0680   -1.2350  -22.5070 C   0  0  0  0  0  0  0  0  0  0  0  0
  -11.7010   -1.0840  -22.7120 C   0  0  0  0  0  0  0  0  0  0  0  0
  -11.2290    0.2160  -23.2820 C   0  0  0  0  0  0  0  0  0  0  0  0
  -11.8810    1.2500  -23.2000 O   0  0  0  0  0  0  0  0  0  0  0  0
  -13.7370   -0.4680  -22.8740 H   0  0  0  0  0  0  0  0  0  0  0  0
  -14.6050   -2.4600  -21.6170 H   0  0  0  0  0  0  0  0  0  0  0  0
  -10.6460   -4.0230  -21.3460 H   0  0  0  0  0  0  0  0  0  0  0  0
   -8.1640   -0.7470  -24.1170 H   0  0  0  0  0  0  0  0  0  0  0  0
   -9.5260   -1.6740  -24.7600 H   0  0  0  0  0  0  0  0  0  0  0  0
   -9.2310    1.1400  -25.5870 H   0  0  0  0  0  0  0  0  0  0  0  0
  -10.3660    2.0710  -24.5930 H   0  0  0  0  0  0  0  0  0  0  0  0
   -9.5150    2.6470  -22.2580 H   0  0  0  0  0  0  0  0  0  0  0  0
   -6.9790    2.4430  -21.4480 H   0  0  0  0  0  0  0  0  0  0  0  0
   -6.7850    3.7130  -22.6570 H   0  0  0  0  0  0  0  0  0  0  0  0
   -7.8470    4.0090  -21.2650 H   0  0  0  0  0  0  0  0  0  0  0  0
  1  2  1  0  0  0  0
  1 66  1  0  0  0  0
  1 67  1  0  0  0  0
  1 68  1  0  0  0  0
  2  3  1  0  0  0  0
  2 65  1  0  0  0  0
  3  4  2  0  0  0  0
  3  5  1  0  0  0  0
  5  6  1  0  0  0  0
  5 63  1  0  0  0  0
  5 64  1  0  0  0  0
  6  7  1  0  0  0  0
  6 56  1  0  0  0  0
  7  8  1  0  0  0  0
  7 61  1  0  0  0  0
  7 62  1  0  0  0  0
  8  9  1  1  0  0  0
  8 29  1  0  0  0  0
  8 49  1  0  0  0  0
  9 10  2  0  0  0  0
  9 11  1  0  0  0  0
 11 12  1  0  0  0  0
 11 28  1  0  0  0  0
 12 13  2  0  0  0  0
 12 21  1  0  0  0  0
 13 14  1  0  0  0  0
 13 27  1  0  0  0  0
 14 15  2  0  0  0  0
 15 16  1  0  0  0  0
 15 26  1  0  0  0  0
 16 17  2  0  0  0  0
 16 21  1  0  0  0  0
 17 18  1  0  0  0  0
 17 25  1  0  0  0  0
 18 19  2  0  0  0  0
 18 24  1  0  0  0  0
 19 20  1  0  0  0  0
 19 23  1  0  0  0  0
 20 21  2  0  0  0  0
 20 22  1  0  0  0  0
 28 29  1  0  0  0  0
 28 47  1  0  0  0  0
 28 48  1  0  0  0  0
 29 30  1  0  0  0  0
 29 46  1  1  0  0  0
 30 31  1  0  0  0  0
 30 44  1  0  0  0  0
 30 45  1  0  0  0  0
 31 32  1  0  0  0  0
 31 43  1  0  0  0  0
 32 33  1  0  0  0  0
 32 40  2  0  0  0  0
 33 34  2  0  0  0  0
 33 42  1  0  0  0  0
 34 35  1  0  0  0  0
 35 36  1  0  0  0  0
 35 40  1  0  0  0  0
 36 37  1  0  0  0  0
 36 38  1  0  0  0  0
 36 39  1  0  0  0  0
 40 41  1  0  0  0  0
 49 50  2  0  0  0  0
 49 55  1  0  0  0  0
 50 51  1  0  0  0  0
 50 60  1  0  0  0  0
 51 52  1  0  0  0  0
 51 53  2  0  0  0  0
 53 54  1  0  0  0  0
 53 59  1  0  0  0  0
 54 55  2  0  0  0  0
 54 58  1  0  0  0  0
 55 56  1  0  0  0  0
 56 57  2  0  0  0  0
M  END
>  <MODEL>
       1

$$$$
