tmp_first_model_14_26.pdb
 OpenBabel08282500413D

 55 60  0  0  1  0  0  0  0  0999 V2000
  -10.4950   -1.1570  -23.2680 C   0  0  0  0  0  0  0  0  0  0  0  0
   -9.0430   -1.4830  -22.9440 C   0  0  1  0  0  0  0  0  0  0  0  0
   -8.4310   -0.5140  -21.9170 C   0  0  0  0  0  0  0  0  0  0  0  0
   -7.4310   -1.3200  -21.2430 N   0  0  0  0  0  0  0  0  0  0  0  0
   -6.5990   -0.8160  -20.2140 C   0  0  0  0  0  0  0  0  0  0  0  0
   -6.9120   -1.0430  -18.8980 C   0  0  0  0  0  0  0  0  0  0  0  0
   -6.2450   -0.4970  -17.8520 N   0  0  0  0  0  0  0  0  0  0  0  0
   -5.2070    0.2540  -18.1110 C   0  0  0  0  0  0  0  0  0  0  0  0
   -4.7500    0.5420  -19.4270 C   0  0  0  0  0  0  0  0  0  0  0  0
   -3.6100    1.3510  -19.6590 C   0  0  0  0  0  0  0  0  0  0  0  0
   -3.2040    1.6150  -20.9360 C   0  0  0  0  0  0  0  0  0  0  0  0
   -3.9100    1.0780  -22.0340 C   0  0  0  0  0  0  0  0  0  0  0  0
   -5.0160    0.2870  -21.8360 C   0  0  0  0  0  0  0  0  0  0  0  0
   -5.4670    0.0040  -20.5200 C   0  0  0  0  0  0  0  0  0  0  0  0
   -5.5400   -0.1400  -22.6850 H   0  0  0  0  0  0  0  0  0  0  0  0
   -3.5760    1.2980  -23.0420 H   0  0  0  0  0  0  0  0  0  0  0  0
   -2.3430    2.2530  -21.1150 H   0  0  0  0  0  0  0  0  0  0  0  0
   -3.0810    1.7580  -18.8030 H   0  0  0  0  0  0  0  0  0  0  0  0
   -4.6570    0.6640  -17.2610 H   0  0  0  0  0  0  0  0  0  0  0  0
   -7.7570   -1.6750  -18.6400 H   0  0  0  0  0  0  0  0  0  0  0  0
   -7.5410   -2.6700  -21.4990 C   0  0  0  0  0  0  0  0  0  0  0  0
   -6.7320   -3.4980  -21.1380 O   0  0  0  0  0  0  0  0  0  0  0  0
   -8.7910   -2.9130  -22.3570 C   0  0  1  0  0  0  0  0  0  0  0  0
   -9.9650   -3.3880  -21.4740 C   0  0  0  0  0  0  0  0  0  0  0  0
  -11.0930   -3.8740  -22.2540 N   0  0  0  0  0  0  0  0  0  0  0  0
  -12.4500   -3.8180  -21.7240 C   0  0  0  0  0  0  0  0  0  0  0  0
  -13.3120   -2.6970  -22.2370 C   0  0  0  0  0  0  0  0  0  0  0  0
  -13.9920   -2.7350  -23.4630 C   0  0  0  0  0  0  0  0  0  0  0  0
  -14.7370   -1.6370  -23.5820 N   0  0  0  0  0  0  0  0  0  0  0  0
  -14.4650   -0.9810  -22.4740 N   0  0  0  0  0  0  0  0  0  0  0  0
  -13.6270   -1.5590  -21.6250 N   0  0  0  0  0  0  0  0  0  0  0  0
  -14.9480   -0.1250  -22.2260 H   0  0  0  0  0  0  0  0  0  0  0  0
  -13.9710   -3.5250  -24.1960 H   0  0  0  0  0  0  0  0  0  0  0  0
  -12.4470   -3.8550  -20.6330 H   0  0  0  0  0  0  0  0  0  0  0  0
  -12.9290   -4.7120  -22.1280 H   0  0  0  0  0  0  0  0  0  0  0  0
  -10.9460   -4.5710  -23.4200 C   0  0  0  0  0  0  0  0  0  0  0  0
  -11.9100   -4.9800  -24.0610 O   0  0  0  0  0  0  0  0  0  0  0  0
   -9.5490   -4.7780  -23.8800 C   0  0  0  0  0  0  0  0  0  0  0  0
   -9.2980   -5.7560  -24.8380 C   0  0  0  0  0  0  0  0  0  0  0  0
   -8.0410   -5.9020  -25.3910 C   0  0  0  0  0  0  0  0  0  0  0  0
   -7.0470   -5.0400  -24.9450 C   0  0  0  0  0  0  0  0  0  0  0  0
   -5.8320   -5.1260  -25.5050 F   0  0  0  0  0  0  0  0  0  0  0  0
   -7.2510   -4.0950  -23.9610 C   0  0  0  0  0  0  0  0  0  0  0  0
   -8.5230   -3.9620  -23.4010 C   0  0  0  0  0  0  0  0  0  0  0  0
   -6.4190   -3.4860  -23.6250 H   0  0  0  0  0  0  0  0  0  0  0  0
   -7.8150   -6.6480  -26.1490 H   0  0  0  0  0  0  0  0  0  0  0  0
  -10.1130   -6.3960  -25.1470 H   0  0  0  0  0  0  0  0  0  0  0  0
  -10.3060   -2.5310  -20.8890 H   0  0  0  0  0  0  0  0  0  0  0  0
   -9.6310   -4.1810  -20.8000 H   0  0  0  0  0  0  0  0  0  0  0  0
   -9.1920   -0.1450  -21.2070 H   0  0  0  0  0  0  0  0  0  0  0  0
   -7.9680    0.3510  -22.4070 H   0  0  0  0  0  0  0  0  0  0  0  0
   -8.4370   -1.4410  -23.8610 H   0  0  0  0  0  0  0  0  0  0  0  0
  -10.5730   -0.1980  -23.7870 H   0  0  0  0  0  0  0  0  0  0  0  0
  -10.9430   -1.9440  -23.8840 H   0  0  0  0  0  0  0  0  0  0  0  0
  -11.0800   -1.1000  -22.3440 H   0  0  0  0  0  0  0  0  0  0  0  0
  1  2  1  0  0  0  0
  1 53  1  0  0  0  0
  1 54  1  0  0  0  0
  1 55  1  0  0  0  0
  2  3  1  0  0  0  0
  2 23  1  0  0  0  0
  2 52  1  6  0  0  0
  3  4  1  0  0  0  0
  3 50  1  0  0  0  0
  3 51  1  0  0  0  0
  4  5  1  0  0  0  0
  4 21  1  0  0  0  0
  5  6  2  0  0  0  0
  5 14  1  0  0  0  0
  6  7  1  0  0  0  0
  6 20  1  0  0  0  0
  7  8  2  0  0  0  0
  8  9  1  0  0  0  0
  8 19  1  0  0  0  0
  9 10  2  0  0  0  0
  9 14  1  0  0  0  0
 10 11  1  0  0  0  0
 10 18  1  0  0  0  0
 11 12  2  0  0  0  0
 11 17  1  0  0  0  0
 12 13  1  0  0  0  0
 12 16  1  0  0  0  0
 13 14  2  0  0  0  0
 13 15  1  0  0  0  0
 21 22  2  0  0  0  0
 23 21  1  1  0  0  0
 23 24  1  0  0  0  0
 23 44  1  0  0  0  0
 24 25  1  0  0  0  0
 24 48  1  0  0  0  0
 24 49  1  0  0  0  0
 25 26  1  0  0  0  0
 25 36  1  0  0  0  0
 26 27  1  0  0  0  0
 26 34  1  0  0  0  0
 26 35  1  0  0  0  0
 27 28  1  0  0  0  0
 27 31  2  0  0  0  0
 28 29  2  0  0  0  0
 28 33  1  0  0  0  0
 29 30  1  0  0  0  0
 30 31  1  0  0  0  0
 30 32  1  0  0  0  0
 36 37  2  0  0  0  0
 36 38  1  0  0  0  0
 38 39  2  0  0  0  0
 38 44  1  0  0  0  0
 39 40  1  0  0  0  0
 39 47  1  0  0  0  0
 40 41  2  0  0  0  0
 40 46  1  0  0  0  0
 41 42  1  0  0  0  0
 41 43  1  0  0  0  0
 43 44  2  0  0  0  0
 43 45  1  0  0  0  0
M  END
>  <MODEL>
       1

$$$$
