tmp_first_model_2_62.pdb
 OpenBabel08272517383D

 44 47  0  0  0  0  0  0  0  0999 V2000
   -8.3860    0.7470  -21.6440 O   0  0  0  0  0  0  0  0  0  0  0  0
   -8.5200   -0.4570  -21.8020 C   0  0  0  0  0  0  0  0  0  0  0  0
   -7.4610   -1.4390  -21.2640 C   0  0  0  0  0  0  0  0  0  0  0  0
   -6.5910   -0.8280  -20.1820 C   0  0  0  0  0  0  0  0  0  0  0  0
   -6.8860   -1.0400  -18.8620 C   0  0  0  0  0  0  0  0  0  0  0  0
   -6.2020   -0.5350  -17.8000 N   0  0  0  0  0  0  0  0  0  0  0  0
   -5.1650    0.2220  -18.0690 C   0  0  0  0  0  0  0  0  0  0  0  0
   -4.7310    0.5320  -19.3850 C   0  0  0  0  0  0  0  0  0  0  0  0
   -3.6030    1.3630  -19.6210 C   0  0  0  0  0  0  0  0  0  0  0  0
   -3.2150    1.6550  -20.9000 C   0  0  0  0  0  0  0  0  0  0  0  0
   -3.9390    1.1320  -21.9930 C   0  0  0  0  0  0  0  0  0  0  0  0
   -5.0340    0.3300  -21.7910 C   0  0  0  0  0  0  0  0  0  0  0  0
   -5.4620    0.0020  -20.4750 C   0  0  0  0  0  0  0  0  0  0  0  0
   -5.5970   -0.0460  -22.6390 H   0  0  0  0  0  0  0  0  0  0  0  0
   -3.6260    1.3770  -23.0060 H   0  0  0  0  0  0  0  0  0  0  0  0
   -2.3580    2.3010  -21.0780 H   0  0  0  0  0  0  0  0  0  0  0  0
   -3.0730    1.7650  -18.7610 H   0  0  0  0  0  0  0  0  0  0  0  0
   -4.6120    0.6250  -17.2190 H   0  0  0  0  0  0  0  0  0  0  0  0
   -7.7350   -1.6680  -18.5830 H   0  0  0  0  0  0  0  0  0  0  0  0
   -7.9690   -2.3210  -20.8500 H   0  0  0  0  0  0  0  0  0  0  0  0
   -6.8450   -1.8010  -22.1010 H   0  0  0  0  0  0  0  0  0  0  0  0
   -9.6340   -0.9600  -22.4210 N   0  0  0  0  0  0  0  0  0  0  0  0
   -9.8240   -2.3270  -22.8730 C   0  0  0  0  0  0  0  0  0  0  0  0
  -10.6140   -2.3470  -24.1900 C   0  0  0  0  0  0  0  0  0  0  0  0
  -11.9560   -1.5580  -24.1330 C   0  0  0  0  0  0  0  0  0  0  0  0
  -13.1430   -2.4840  -24.4480 C   0  0  0  0  0  0  0  0  0  0  0  0
  -13.5160   -3.6220  -23.5310 C   0  0  0  0  0  0  0  0  0  0  0  0
  -14.4610   -2.4580  -23.7210 C   0  0  0  0  0  0  0  0  0  0  0  0
  -14.6080   -1.7430  -22.9080 H   0  0  0  0  0  0  0  0  0  0  0  0
  -15.3670   -2.6240  -24.3070 H   0  0  0  0  0  0  0  0  0  0  0  0
  -12.9760   -3.7140  -22.5870 H   0  0  0  0  0  0  0  0  0  0  0  0
  -13.7700   -4.5890  -23.9670 H   0  0  0  0  0  0  0  0  0  0  0  0
  -13.2150   -2.7040  -25.5190 H   0  0  0  0  0  0  0  0  0  0  0  0
  -12.0600   -0.7730  -22.8160 C   0  0  0  0  0  0  0  0  0  0  0  0
  -10.7480   -0.0280  -22.5810 C   0  0  0  0  0  0  0  0  0  0  0  0
  -10.5490    0.6500  -23.4170 H   0  0  0  0  0  0  0  0  0  0  0  0
  -10.7370    0.6090  -21.6930 H   0  0  0  0  0  0  0  0  0  0  0  0
  -12.8890   -0.0580  -22.8790 H   0  0  0  0  0  0  0  0  0  0  0  0
  -12.2990   -1.4720  -22.0030 H   0  0  0  0  0  0  0  0  0  0  0  0
  -11.9310   -0.8120  -24.9390 H   0  0  0  0  0  0  0  0  0  0  0  0
  -10.8150   -3.3910  -24.4630 H   0  0  0  0  0  0  0  0  0  0  0  0
   -9.9800   -1.9130  -24.9750 H   0  0  0  0  0  0  0  0  0  0  0  0
  -10.3450   -2.9270  -22.1080 H   0  0  0  0  0  0  0  0  0  0  0  0
   -8.8460   -2.7850  -23.0350 H   0  0  0  0  0  0  0  0  0  0  0  0
  1  2  2  0  0  0  0
  2  3  1  0  0  0  0
  2 22  1  0  0  0  0
  3  4  1  0  0  0  0
  3 20  1  0  0  0  0
  3 21  1  0  0  0  0
  4  5  2  0  0  0  0
  4 13  1  0  0  0  0
  5  6  1  0  0  0  0
  5 19  1  0  0  0  0
  6  7  2  0  0  0  0
  7  8  1  0  0  0  0
  7 18  1  0  0  0  0
  8  9  2  0  0  0  0
  8 13  1  0  0  0  0
  9 10  1  0  0  0  0
  9 17  1  0  0  0  0
 10 11  2  0  0  0  0
 10 16  1  0  0  0  0
 11 12  1  0  0  0  0
 11 15  1  0  0  0  0
 12 13  2  0  0  0  0
 12 14  1  0  0  0  0
 22 23  1  0  0  0  0
 22 35  1  0  0  0  0
 23 24  1  0  0  0  0
 23 43  1  0  0  0  0
 23 44  1  0  0  0  0
 24 25  1  0  0  0  0
 24 41  1  0  0  0  0
 24 42  1  0  0  0  0
 25 26  1  0  0  0  0
 25 34  1  0  0  0  0
 25 40  1  0  0  0  0
 26 27  1  0  0  0  0
 26 28  1  0  0  0  0
 26 33  1  0  0  0  0
 27 28  1  0  0  0  0
 27 31  1  0  0  0  0
 27 32  1  0  0  0  0
 28 29  1  0  0  0  0
 28 30  1  0  0  0  0
 34 35  1  0  0  0  0
 34 38  1  0  0  0  0
 34 39  1  0  0  0  0
 35 36  1  0  0  0  0
 35 37  1  0  0  0  0
M  END
>  <MODEL>
       1

$$$$
