tmp_first_model_19_91.pdb
 OpenBabel08282503233D

 66 71  0  0  1  0  0  0  0  0999 V2000
   -7.5230    3.3130  -21.8650 C   0  0  0  0  0  0  0  0  0  0  0  0
   -8.5770    2.8350  -22.7460 N   0  0  0  0  0  0  0  0  0  0  0  0
   -8.2020    2.0550  -23.8020 C   0  0  0  0  0  0  0  0  0  0  0  0
   -7.0290    1.8060  -24.0440 O   0  0  0  0  0  0  0  0  0  0  0  0
   -9.3310    1.4950  -24.6680 C   0  0  0  0  0  0  0  0  0  0  0  0
   -9.8850    0.3060  -24.0500 N   0  0  0  0  0  0  0  0  0  0  0  0
   -9.0690   -0.9000  -24.0290 C   0  0  0  0  0  0  0  0  0  0  0  0
   -9.2580   -1.6740  -22.7040 C   0  0  2  0  0  0  0  0  0  0  0  0
   -8.6440   -0.8490  -21.5440 C   0  0  0  0  0  0  0  0  0  0  0  0
   -9.1170    0.1370  -21.0090 O   0  0  0  0  0  0  0  0  0  0  0  0
   -7.4260   -1.3990  -21.2120 N   0  0  0  0  0  0  0  0  0  0  0  0
   -6.6170   -0.8310  -20.1950 C   0  0  0  0  0  0  0  0  0  0  0  0
   -6.9300   -1.0580  -18.8780 C   0  0  0  0  0  0  0  0  0  0  0  0
   -6.2240   -0.5780  -17.8270 N   0  0  0  0  0  0  0  0  0  0  0  0
   -5.1870    0.1790  -18.0940 C   0  0  0  0  0  0  0  0  0  0  0  0
   -4.7530    0.5020  -19.4110 C   0  0  0  0  0  0  0  0  0  0  0  0
   -3.6270    1.3340  -19.6440 C   0  0  0  0  0  0  0  0  0  0  0  0
   -3.2440    1.6410  -20.9210 C   0  0  0  0  0  0  0  0  0  0  0  0
   -3.9700    1.1380  -22.0220 C   0  0  0  0  0  0  0  0  0  0  0  0
   -5.0730    0.3390  -21.8240 C   0  0  0  0  0  0  0  0  0  0  0  0
   -5.4850   -0.0120  -20.5080 C   0  0  0  0  0  0  0  0  0  0  0  0
   -5.6470    0.0040  -22.6830 H   0  0  0  0  0  0  0  0  0  0  0  0
   -3.6570    1.3870  -23.0320 H   0  0  0  0  0  0  0  0  0  0  0  0
   -2.3850    2.2810  -21.0940 H   0  0  0  0  0  0  0  0  0  0  0  0
   -3.0930    1.7290  -18.7840 H   0  0  0  0  0  0  0  0  0  0  0  0
   -4.6250    0.5780  -17.2490 H   0  0  0  0  0  0  0  0  0  0  0  0
   -7.7970   -1.6670  -18.6350 H   0  0  0  0  0  0  0  0  0  0  0  0
   -7.0780   -2.5730  -21.9890 C   0  0  0  0  0  0  0  0  0  0  0  0
   -8.4080   -2.9730  -22.6410 C   0  0  2  0  0  0  0  0  0  0  0  0
   -8.2000   -3.7720  -23.9250 C   0  0  0  0  0  0  0  0  0  0  0  0
   -9.4170   -4.3950  -24.3860 N   0  0  0  0  0  0  0  0  0  0  0  0
   -9.4940   -5.0610  -25.5840 C   0  0  0  0  0  0  0  0  0  0  0  0
   -8.3850   -5.2410  -26.4500 C   0  0  0  0  0  0  0  0  0  0  0  0
   -8.5090   -5.8110  -27.6380 N   0  0  0  0  0  0  0  0  0  0  0  0
   -9.7330   -6.2160  -27.9930 C   0  0  0  0  0  0  0  0  0  0  0  0
  -10.8000   -6.1080  -27.1140 C   0  0  0  0  0  0  0  0  0  0  0  0
  -10.6890   -5.5560  -25.9070 N   0  0  0  0  0  0  0  0  0  0  0  0
  -11.7910   -6.4630  -27.3890 H   0  0  0  0  0  0  0  0  0  0  0  0
   -9.8600   -6.6220  -28.9940 H   0  0  0  0  0  0  0  0  0  0  0  0
   -7.3870   -4.9000  -26.1790 H   0  0  0  0  0  0  0  0  0  0  0  0
  -10.3160   -4.0780  -24.0370 H   0  0  0  0  0  0  0  0  0  0  0  0
   -7.4660   -4.5650  -23.7300 H   0  0  0  0  0  0  0  0  0  0  0  0
   -7.7670   -3.1240  -24.7070 H   0  0  0  0  0  0  0  0  0  0  0  0
   -8.9070   -3.6410  -21.9380 H   0  0  0  0  0  0  0  0  0  0  0  0
   -6.3110   -2.3470  -22.7490 H   0  0  0  0  0  0  0  0  0  0  0  0
   -6.6950   -3.3730  -21.3450 H   0  0  0  0  0  0  0  0  0  0  0  0
  -10.7460   -1.8870  -22.5160 C   0  0  0  0  0  0  0  0  0  0  0  0
  -11.2400   -2.9530  -21.7580 C   0  0  0  0  0  0  0  0  0  0  0  0
  -12.6000   -3.1250  -21.5980 C   0  0  0  0  0  0  0  0  0  0  0  0
  -13.1590   -4.4490  -20.6290 Cl  0  0  0  0  0  0  0  0  0  0  0  0
  -13.5200   -2.2380  -22.1460 C   0  0  0  0  0  0  0  0  0  0  0  0
  -13.0410   -1.1420  -22.8380 C   0  0  0  0  0  0  0  0  0  0  0  0
  -11.6720   -0.9640  -23.0260 C   0  0  0  0  0  0  0  0  0  0  0  0
  -11.2190    0.2660  -23.7500 C   0  0  0  0  0  0  0  0  0  0  0  0
  -11.9910    1.1690  -24.0490 O   0  0  0  0  0  0  0  0  0  0  0  0
  -13.7150   -0.3820  -23.2200 H   0  0  0  0  0  0  0  0  0  0  0  0
  -14.5840   -2.4380  -22.0670 H   0  0  0  0  0  0  0  0  0  0  0  0
  -10.6020   -3.6500  -21.2330 H   0  0  0  0  0  0  0  0  0  0  0  0
   -8.0200   -0.6120  -24.1690 H   0  0  0  0  0  0  0  0  0  0  0  0
   -9.3640   -1.5530  -24.8620 H   0  0  0  0  0  0  0  0  0  0  0  0
  -10.1360    2.2250  -24.7940 H   0  0  0  0  0  0  0  0  0  0  0  0
   -8.9130    1.2510  -25.6540 H   0  0  0  0  0  0  0  0  0  0  0  0
   -9.4880    2.6760  -22.3290 H   0  0  0  0  0  0  0  0  0  0  0  0
   -7.9000    4.1260  -21.2370 H   0  0  0  0  0  0  0  0  0  0  0  0
   -7.1120    2.4980  -21.2450 H   0  0  0  0  0  0  0  0  0  0  0  0
   -6.7210    3.7050  -22.4960 H   0  0  0  0  0  0  0  0  0  0  0  0
  1  2  1  0  0  0  0
  1 64  1  0  0  0  0
  1 65  1  0  0  0  0
  1 66  1  0  0  0  0
  2  3  1  0  0  0  0
  2 63  1  0  0  0  0
  3  4  2  0  0  0  0
  3  5  1  0  0  0  0
  5  6  1  0  0  0  0
  5 61  1  0  0  0  0
  5 62  1  0  0  0  0
  6  7  1  0  0  0  0
  6 54  1  0  0  0  0
  7  8  1  0  0  0  0
  7 59  1  0  0  0  0
  7 60  1  0  0  0  0
  8  9  1  1  0  0  0
  8 29  1  0  0  0  0
  8 47  1  0  0  0  0
  9 10  2  0  0  0  0
  9 11  1  0  0  0  0
 11 12  1  0  0  0  0
 11 28  1  0  0  0  0
 12 13  2  0  0  0  0
 12 21  1  0  0  0  0
 13 14  1  0  0  0  0
 13 27  1  0  0  0  0
 14 15  2  0  0  0  0
 15 16  1  0  0  0  0
 15 26  1  0  0  0  0
 16 17  2  0  0  0  0
 16 21  1  0  0  0  0
 17 18  1  0  0  0  0
 17 25  1  0  0  0  0
 18 19  2  0  0  0  0
 18 24  1  0  0  0  0
 19 20  1  0  0  0  0
 19 23  1  0  0  0  0
 20 21  2  0  0  0  0
 20 22  1  0  0  0  0
 28 29  1  0  0  0  0
 28 45  1  0  0  0  0
 28 46  1  0  0  0  0
 29 30  1  0  0  0  0
 29 44  1  1  0  0  0
 30 31  1  0  0  0  0
 30 42  1  0  0  0  0
 30 43  1  0  0  0  0
 31 32  1  0  0  0  0
 31 41  1  0  0  0  0
 32 33  2  0  0  0  0
 32 37  1  0  0  0  0
 33 34  1  0  0  0  0
 33 40  1  0  0  0  0
 34 35  2  0  0  0  0
 35 36  1  0  0  0  0
 35 39  1  0  0  0  0
 36 37  2  0  0  0  0
 36 38  1  0  0  0  0
 47 48  2  0  0  0  0
 47 53  1  0  0  0  0
 48 49  1  0  0  0  0
 48 58  1  0  0  0  0
 49 50  1  0  0  0  0
 49 51  2  0  0  0  0
 51 52  1  0  0  0  0
 51 57  1  0  0  0  0
 52 53  2  0  0  0  0
 52 56  1  0  0  0  0
 53 54  1  0  0  0  0
 54 55  2  0  0  0  0
M  END
>  <MODEL>
       1

$$$$
