tmp_first_model_19_53.pdb
 OpenBabel08282503233D

 59 63  0  0  1  0  0  0  0  0999 V2000
   -7.7370    4.3970  -22.3470 C   0  0  0  0  0  0  0  0  0  0  0  0
   -6.8320    3.4630  -23.1220 C   0  0  0  0  0  0  0  0  0  0  0  0
   -7.6230    2.7250  -24.0960 N   0  0  0  0  0  0  0  0  0  0  0  0
   -7.0080    1.7290  -24.7850 C   0  0  0  0  0  0  0  0  0  0  0  0
   -5.8070    1.5180  -24.7040 O   0  0  0  0  0  0  0  0  0  0  0  0
   -7.9060    0.8960  -25.7000 C   0  0  0  0  0  0  0  0  0  0  0  0
   -8.8570    0.1090  -24.9480 N   0  0  0  0  0  0  0  0  0  0  0  0
   -8.4440   -1.1780  -24.4240 C   0  0  0  0  0  0  0  0  0  0  0  0
   -8.9660   -1.4320  -22.9950 C   0  0  2  0  0  0  0  0  0  0  0  0
   -8.2350   -0.5270  -21.9770 C   0  0  0  0  0  0  0  0  0  0  0  0
   -8.3290    0.6760  -21.8640 O   0  0  0  0  0  0  0  0  0  0  0  0
   -7.4200   -1.3200  -21.2110 N   0  0  0  0  0  0  0  0  0  0  0  0
   -6.6040   -0.7960  -20.1890 C   0  0  0  0  0  0  0  0  0  0  0  0
   -6.8970   -1.0700  -18.8780 C   0  0  0  0  0  0  0  0  0  0  0  0
   -6.2050   -0.5790  -17.8240 N   0  0  0  0  0  0  0  0  0  0  0  0
   -5.1810    0.1990  -18.0890 C   0  0  0  0  0  0  0  0  0  0  0  0
   -4.7420    0.5140  -19.4060 C   0  0  0  0  0  0  0  0  0  0  0  0
   -3.6060    1.3340  -19.6420 C   0  0  0  0  0  0  0  0  0  0  0  0
   -3.1970    1.6120  -20.9170 C   0  0  0  0  0  0  0  0  0  0  0  0
   -3.9010    1.0810  -22.0230 C   0  0  0  0  0  0  0  0  0  0  0  0
   -4.9990    0.2820  -21.8230 C   0  0  0  0  0  0  0  0  0  0  0  0
   -5.4600   -0.0070  -20.5040 C   0  0  0  0  0  0  0  0  0  0  0  0
   -5.5240   -0.1180  -22.6850 H   0  0  0  0  0  0  0  0  0  0  0  0
   -3.5970    1.3240  -23.0370 H   0  0  0  0  0  0  0  0  0  0  0  0
   -2.3320    2.2460  -21.0860 H   0  0  0  0  0  0  0  0  0  0  0  0
   -3.0860    1.7450  -18.7820 H   0  0  0  0  0  0  0  0  0  0  0  0
   -4.6270    0.6080  -17.2430 H   0  0  0  0  0  0  0  0  0  0  0  0
   -7.7540   -1.6960  -18.6340 H   0  0  0  0  0  0  0  0  0  0  0  0
   -7.4230   -2.7160  -21.5620 C   0  0  0  0  0  0  0  0  0  0  0  0
   -8.6270   -2.8700  -22.4950 C   0  0  2  0  0  0  0  0  0  0  0  0
   -8.4150   -3.9570  -23.5450 C   0  0  0  0  0  0  0  0  0  0  0  0
   -8.2460   -4.9230  -23.0570 H   0  0  0  0  0  0  0  0  0  0  0  0
   -7.5400   -3.7410  -24.1670 H   0  0  0  0  0  0  0  0  0  0  0  0
   -9.2830   -4.0690  -24.2030 H   0  0  0  0  0  0  0  0  0  0  0  0
   -9.4700   -3.1880  -21.8880 H   0  0  0  0  0  0  0  0  0  0  0  0
   -6.4870   -3.0150  -22.0540 H   0  0  0  0  0  0  0  0  0  0  0  0
   -7.5200   -3.3130  -20.6560 H   0  0  0  0  0  0  0  0  0  0  0  0
  -10.4450   -1.1250  -22.9950 C   0  0  0  0  0  0  0  0  0  0  0  0
  -11.2760   -1.7350  -22.0610 C   0  0  0  0  0  0  0  0  0  0  0  0
  -12.6380   -1.5390  -22.1220 C   0  0  0  0  0  0  0  0  0  0  0  0
  -13.6170   -2.5340  -21.0970 Cl  0  0  0  0  0  0  0  0  0  0  0  0
  -13.2070   -0.5850  -22.9620 C   0  0  0  0  0  0  0  0  0  0  0  0
  -12.3670    0.1200  -23.8050 C   0  0  0  0  0  0  0  0  0  0  0  0
  -11.0050   -0.1790  -23.8640 C   0  0  0  0  0  0  0  0  0  0  0  0
  -10.1230    0.5880  -24.7970 C   0  0  0  0  0  0  0  0  0  0  0  0
  -10.4940    1.6130  -25.3640 O   0  0  0  0  0  0  0  0  0  0  0  0
  -12.7430    0.9260  -24.4240 H   0  0  0  0  0  0  0  0  0  0  0  0
  -14.2720   -0.3810  -22.9090 H   0  0  0  0  0  0  0  0  0  0  0  0
  -10.8630   -2.3180  -21.2450 H   0  0  0  0  0  0  0  0  0  0  0  0
   -7.3530   -1.2160  -24.4390 H   0  0  0  0  0  0  0  0  0  0  0  0
   -8.8230   -1.9750  -25.0730 H   0  0  0  0  0  0  0  0  0  0  0  0
   -7.2560    0.2380  -26.2800 H   0  0  0  0  0  0  0  0  0  0  0  0
   -8.4820    1.5450  -26.3690 H   0  0  0  0  0  0  0  0  0  0  0  0
   -8.6290    2.7210  -23.9670 H   0  0  0  0  0  0  0  0  0  0  0  0
   -6.3460    2.7530  -22.4340 H   0  0  0  0  0  0  0  0  0  0  0  0
   -6.0330    3.9850  -23.6570 H   0  0  0  0  0  0  0  0  0  0  0  0
   -8.4800    3.7790  -21.8450 H   0  0  0  0  0  0  0  0  0  0  0  0
   -8.2580    5.1110  -22.9950 H   0  0  0  0  0  0  0  0  0  0  0  0
   -7.1890    4.9530  -21.5810 H   0  0  0  0  0  0  0  0  0  0  0  0
  1  2  1  0  0  0  0
  1 57  1  0  0  0  0
  1 58  1  0  0  0  0
  1 59  1  0  0  0  0
  2  3  1  0  0  0  0
  2 55  1  0  0  0  0
  2 56  1  0  0  0  0
  3  4  1  0  0  0  0
  3 54  1  0  0  0  0
  4  5  2  0  0  0  0
  4  6  1  0  0  0  0
  6  7  1  0  0  0  0
  6 52  1  0  0  0  0
  6 53  1  0  0  0  0
  7  8  1  0  0  0  0
  7 45  1  0  0  0  0
  8  9  1  0  0  0  0
  8 50  1  0  0  0  0
  8 51  1  0  0  0  0
  9 10  1  1  0  0  0
  9 30  1  0  0  0  0
  9 38  1  0  0  0  0
 10 11  2  0  0  0  0
 10 12  1  0  0  0  0
 12 13  1  0  0  0  0
 12 29  1  0  0  0  0
 13 14  2  0  0  0  0
 13 22  1  0  0  0  0
 14 15  1  0  0  0  0
 14 28  1  0  0  0  0
 15 16  2  0  0  0  0
 16 17  1  0  0  0  0
 16 27  1  0  0  0  0
 17 18  2  0  0  0  0
 17 22  1  0  0  0  0
 18 19  1  0  0  0  0
 18 26  1  0  0  0  0
 19 20  2  0  0  0  0
 19 25  1  0  0  0  0
 20 21  1  0  0  0  0
 20 24  1  0  0  0  0
 21 22  2  0  0  0  0
 21 23  1  0  0  0  0
 29 30  1  0  0  0  0
 29 36  1  0  0  0  0
 29 37  1  0  0  0  0
 30 31  1  0  0  0  0
 30 35  1  1  0  0  0
 31 32  1  0  0  0  0
 31 33  1  0  0  0  0
 31 34  1  0  0  0  0
 38 39  2  0  0  0  0
 38 44  1  0  0  0  0
 39 40  1  0  0  0  0
 39 49  1  0  0  0  0
 40 41  1  0  0  0  0
 40 42  2  0  0  0  0
 42 43  1  0  0  0  0
 42 48  1  0  0  0  0
 43 44  2  0  0  0  0
 43 47  1  0  0  0  0
 44 45  1  0  0  0  0
 45 46  2  0  0  0  0
M  END
>  <MODEL>
       1

$$$$
