tmp_first_model_15_56.pdb
 OpenBabel08282501153D

 57 62  0  0  1  0  0  0  0  0999 V2000
  -10.3690   -0.7890  -23.5090 C   0  0  0  0  0  0  0  0  0  0  0  0
   -8.9820   -1.2480  -23.0730 C   0  0  1  0  0  0  0  0  0  0  0  0
   -8.4310   -0.3970  -21.9030 C   0  0  0  0  0  0  0  0  0  0  0  0
   -7.4430   -1.2680  -21.2940 N   0  0  0  0  0  0  0  0  0  0  0  0
   -6.6290   -0.8450  -20.2120 C   0  0  0  0  0  0  0  0  0  0  0  0
   -6.9300   -1.1580  -18.9110 C   0  0  0  0  0  0  0  0  0  0  0  0
   -6.2790   -0.6410  -17.8350 N   0  0  0  0  0  0  0  0  0  0  0  0
   -5.2800    0.1800  -18.0660 C   0  0  0  0  0  0  0  0  0  0  0  0
   -4.8140    0.5220  -19.3700 C   0  0  0  0  0  0  0  0  0  0  0  0
   -3.6900    1.3600  -19.5940 C   0  0  0  0  0  0  0  0  0  0  0  0
   -3.2670    1.6220  -20.8690 C   0  0  0  0  0  0  0  0  0  0  0  0
   -3.9410    1.0690  -21.9780 C   0  0  0  0  0  0  0  0  0  0  0  0
   -5.0380    0.2680  -21.7910 C   0  0  0  0  0  0  0  0  0  0  0  0
   -5.5010   -0.0120  -20.4800 C   0  0  0  0  0  0  0  0  0  0  0  0
   -5.5520   -0.1690  -22.6390 H   0  0  0  0  0  0  0  0  0  0  0  0
   -3.5920    1.2840  -22.9820 H   0  0  0  0  0  0  0  0  0  0  0  0
   -2.4080    2.2630  -21.0380 H   0  0  0  0  0  0  0  0  0  0  0  0
   -3.1840    1.7950  -18.7380 H   0  0  0  0  0  0  0  0  0  0  0  0
   -4.7740    0.6060  -17.1980 H   0  0  0  0  0  0  0  0  0  0  0  0
   -7.7380   -1.8500  -18.6820 H   0  0  0  0  0  0  0  0  0  0  0  0
   -7.6610   -2.6000  -21.5690 C   0  0  0  0  0  0  0  0  0  0  0  0
   -7.0190   -3.5070  -21.0860 O   0  0  0  0  0  0  0  0  0  0  0  0
   -8.8290   -2.7440  -22.5710 C   0  0  1  0  0  0  0  0  0  0  0  0
  -10.0440   -3.2360  -21.7260 C   0  0  0  0  0  0  0  0  0  0  0  0
  -11.1210   -3.8480  -22.4940 N   0  0  0  0  0  0  0  0  0  0  0  0
  -12.4960   -3.7380  -22.0240 C   0  0  0  0  0  0  0  0  0  0  0  0
  -13.1690   -2.5080  -22.5620 C   0  0  0  0  0  0  0  0  0  0  0  0
  -13.5360   -2.5580  -23.8480 N   0  0  0  0  0  0  0  0  0  0  0  0
  -14.2390   -1.5240  -24.2910 C   0  0  0  0  0  0  0  0  0  0  0  0
  -14.4720   -0.4140  -23.4960 C   0  0  0  0  0  0  0  0  0  0  0  0
  -13.9280   -0.4210  -22.2300 C   0  0  0  0  0  0  0  0  0  0  0  0
  -13.2890   -1.4790  -21.7320 N   0  0  0  0  0  0  0  0  0  0  0  0
  -13.9930    0.4670  -21.6090 H   0  0  0  0  0  0  0  0  0  0  0  0
  -14.9840    0.4680  -23.8280 H   0  0  0  0  0  0  0  0  0  0  0  0
  -14.6290   -1.5930  -25.3050 H   0  0  0  0  0  0  0  0  0  0  0  0
  -13.0220   -4.6140  -22.4060 H   0  0  0  0  0  0  0  0  0  0  0  0
  -12.5310   -3.7200  -20.9360 H   0  0  0  0  0  0  0  0  0  0  0  0
  -10.9350   -4.5190  -23.6660 C   0  0  0  0  0  0  0  0  0  0  0  0
  -11.8620   -5.0380  -24.2770 O   0  0  0  0  0  0  0  0  0  0  0  0
   -9.5380   -4.6030  -24.1580 C   0  0  0  0  0  0  0  0  0  0  0  0
   -9.2870   -5.5590  -25.1410 C   0  0  0  0  0  0  0  0  0  0  0  0
   -7.9980   -5.8250  -25.5580 C   0  0  0  0  0  0  0  0  0  0  0  0
   -6.9780   -5.0790  -24.9820 C   0  0  0  0  0  0  0  0  0  0  0  0
   -5.7100   -5.3580  -25.3240 F   0  0  0  0  0  0  0  0  0  0  0  0
   -7.2130   -4.0680  -24.0680 C   0  0  0  0  0  0  0  0  0  0  0  0
   -8.5180   -3.8100  -23.6200 C   0  0  0  0  0  0  0  0  0  0  0  0
   -6.3690   -3.5150  -23.6730 H   0  0  0  0  0  0  0  0  0  0  0  0
   -7.7710   -6.5920  -26.2910 H   0  0  0  0  0  0  0  0  0  0  0  0
  -10.1290   -6.1030  -25.5540 H   0  0  0  0  0  0  0  0  0  0  0  0
   -9.6470   -3.9400  -20.9820 H   0  0  0  0  0  0  0  0  0  0  0  0
  -10.4800   -2.3860  -21.1910 H   0  0  0  0  0  0  0  0  0  0  0  0
   -7.9670    0.5430  -22.2230 H   0  0  0  0  0  0  0  0  0  0  0  0
   -9.2260   -0.1420  -21.1760 H   0  0  0  0  0  0  0  0  0  0  0  0
   -8.2990   -1.1310  -23.9270 H   0  0  0  0  0  0  0  0  0  0  0  0
  -10.3250    0.2060  -23.9670 H   0  0  0  0  0  0  0  0  0  0  0  0
  -11.0460   -0.7270  -22.6520 H   0  0  0  0  0  0  0  0  0  0  0  0
  -10.8170   -1.4730  -24.2360 H   0  0  0  0  0  0  0  0  0  0  0  0
  1  2  1  0  0  0  0
  1 55  1  0  0  0  0
  1 56  1  0  0  0  0
  1 57  1  0  0  0  0
  2  3  1  0  0  0  0
  2 23  1  0  0  0  0
  2 54  1  6  0  0  0
  3  4  1  0  0  0  0
  3 52  1  0  0  0  0
  3 53  1  0  0  0  0
  4  5  1  0  0  0  0
  4 21  1  0  0  0  0
  5  6  2  0  0  0  0
  5 14  1  0  0  0  0
  6  7  1  0  0  0  0
  6 20  1  0  0  0  0
  7  8  2  0  0  0  0
  8  9  1  0  0  0  0
  8 19  1  0  0  0  0
  9 10  2  0  0  0  0
  9 14  1  0  0  0  0
 10 11  1  0  0  0  0
 10 18  1  0  0  0  0
 11 12  2  0  0  0  0
 11 17  1  0  0  0  0
 12 13  1  0  0  0  0
 12 16  1  0  0  0  0
 13 14  2  0  0  0  0
 13 15  1  0  0  0  0
 21 22  2  0  0  0  0
 23 21  1  1  0  0  0
 23 24  1  0  0  0  0
 23 46  1  0  0  0  0
 24 25  1  0  0  0  0
 24 50  1  0  0  0  0
 24 51  1  0  0  0  0
 25 26  1  0  0  0  0
 25 38  1  0  0  0  0
 26 27  1  0  0  0  0
 26 36  1  0  0  0  0
 26 37  1  0  0  0  0
 27 28  2  0  0  0  0
 27 32  1  0  0  0  0
 28 29  1  0  0  0  0
 29 30  2  0  0  0  0
 29 35  1  0  0  0  0
 30 31  1  0  0  0  0
 30 34  1  0  0  0  0
 31 32  2  0  0  0  0
 31 33  1  0  0  0  0
 38 39  2  0  0  0  0
 38 40  1  0  0  0  0
 40 41  2  0  0  0  0
 40 46  1  0  0  0  0
 41 42  1  0  0  0  0
 41 49  1  0  0  0  0
 42 43  2  0  0  0  0
 42 48  1  0  0  0  0
 43 44  1  0  0  0  0
 43 45  1  0  0  0  0
 45 46  2  0  0  0  0
 45 47  1  0  0  0  0
M  END
>  <MODEL>
       1

$$$$
