tmp_first_model_11_50.pdb
 OpenBabel08272522543D

 66 70  0  0  1  0  0  0  0  0999 V2000
   -7.4430    3.3510  -21.8180 C   0  0  0  0  0  0  0  0  0  0  0  0
   -8.3560    2.8830  -22.8450 N   0  0  0  0  0  0  0  0  0  0  0  0
   -7.8400    2.1590  -23.8650 C   0  0  0  0  0  0  0  0  0  0  0  0
   -6.6310    2.0140  -24.0140 O   0  0  0  0  0  0  0  0  0  0  0  0
   -8.8450    1.5420  -24.8460 C   0  0  0  0  0  0  0  0  0  0  0  0
   -9.5410    0.3820  -24.3190 N   0  0  0  0  0  0  0  0  0  0  0  0
   -8.8090   -0.8640  -24.1770 C   0  0  0  0  0  0  0  0  0  0  0  0
   -9.1280   -1.5700  -22.8330 C   0  0  2  0  0  0  0  0  0  0  0  0
   -8.5420   -0.7500  -21.6510 C   0  0  0  0  0  0  0  0  0  0  0  0
   -8.9820    0.2780  -21.1830 O   0  0  0  0  0  0  0  0  0  0  0  0
   -7.4060   -1.3840  -21.1990 N   0  0  0  0  0  0  0  0  0  0  0  0
   -6.6070   -0.8080  -20.1730 C   0  0  0  0  0  0  0  0  0  0  0  0
   -6.9110   -1.0390  -18.8560 C   0  0  0  0  0  0  0  0  0  0  0  0
   -6.2060   -0.5450  -17.8070 N   0  0  0  0  0  0  0  0  0  0  0  0
   -5.1680    0.2080  -18.0780 C   0  0  0  0  0  0  0  0  0  0  0  0
   -4.7280    0.5260  -19.3930 C   0  0  0  0  0  0  0  0  0  0  0  0
   -3.5990    1.3550  -19.6420 C   0  0  0  0  0  0  0  0  0  0  0  0
   -3.2140    1.6460  -20.9210 C   0  0  0  0  0  0  0  0  0  0  0  0
   -3.9380    1.1190  -22.0150 C   0  0  0  0  0  0  0  0  0  0  0  0
   -5.0330    0.3140  -21.8000 C   0  0  0  0  0  0  0  0  0  0  0  0
   -5.4650   -0.0010  -20.4850 C   0  0  0  0  0  0  0  0  0  0  0  0
   -5.5930   -0.0700  -22.6480 H   0  0  0  0  0  0  0  0  0  0  0  0
   -3.6440    1.3620  -23.0300 H   0  0  0  0  0  0  0  0  0  0  0  0
   -2.3620    2.2960  -21.1020 H   0  0  0  0  0  0  0  0  0  0  0  0
   -3.0710    1.7710  -18.7880 H   0  0  0  0  0  0  0  0  0  0  0  0
   -4.6180    0.6130  -17.2270 H   0  0  0  0  0  0  0  0  0  0  0  0
   -7.7600   -1.6660  -18.5950 H   0  0  0  0  0  0  0  0  0  0  0  0
   -7.0770   -2.6080  -21.9090 C   0  0  0  0  0  0  0  0  0  0  0  0
   -8.3670   -2.9290  -22.6970 C   0  0  2  0  0  0  0  0  0  0  0  0
   -8.0850   -3.6770  -23.9990 C   0  0  0  0  0  0  0  0  0  0  0  0
   -7.4730   -4.9200  -23.7040 O   0  0  0  0  0  0  0  0  0  0  0  0
   -7.3040   -5.7630  -24.8480 C   0  0  0  0  0  0  0  0  0  0  0  0
   -8.4380   -6.7870  -24.9210 C   0  0  0  0  0  0  0  0  0  0  0  0
   -8.4380   -7.4090  -24.0190 H   0  0  0  0  0  0  0  0  0  0  0  0
   -8.3140   -7.4390  -25.7940 H   0  0  0  0  0  0  0  0  0  0  0  0
   -9.4140   -6.2950  -25.0010 H   0  0  0  0  0  0  0  0  0  0  0  0
   -5.9400   -6.4420  -24.7560 C   0  0  0  0  0  0  0  0  0  0  0  0
   -5.8870   -7.0660  -23.8590 H   0  0  0  0  0  0  0  0  0  0  0  0
   -5.7720   -7.0800  -25.6330 H   0  0  0  0  0  0  0  0  0  0  0  0
   -5.1410   -5.6970  -24.7120 H   0  0  0  0  0  0  0  0  0  0  0  0
   -7.3290   -5.1340  -25.7560 H   0  0  0  0  0  0  0  0  0  0  0  0
   -9.0190   -3.8320  -24.5640 H   0  0  0  0  0  0  0  0  0  0  0  0
   -7.4120   -3.0850  -24.6440 H   0  0  0  0  0  0  0  0  0  0  0  0
   -8.9780   -3.5940  -22.0840 H   0  0  0  0  0  0  0  0  0  0  0  0
   -6.8030   -3.4000  -21.2030 H   0  0  0  0  0  0  0  0  0  0  0  0
   -6.2160   -2.4620  -22.5800 H   0  0  0  0  0  0  0  0  0  0  0  0
  -10.6400   -1.6340  -22.7010 C   0  0  0  0  0  0  0  0  0  0  0  0
  -11.2300   -2.5220  -21.7980 C   0  0  0  0  0  0  0  0  0  0  0  0
  -12.6000   -2.5390  -21.6480 C   0  0  0  0  0  0  0  0  0  0  0  0
  -13.1530   -3.3910  -20.7710 F   0  0  0  0  0  0  0  0  0  0  0  0
  -13.4390   -1.6980  -22.3700 C   0  0  0  0  0  0  0  0  0  0  0  0
  -12.8580   -0.7910  -23.2320 C   0  0  0  0  0  0  0  0  0  0  0  0
  -11.4720   -0.7210  -23.3680 C   0  0  0  0  0  0  0  0  0  0  0  0
  -10.9000    0.4170  -24.1600 C   0  0  0  0  0  0  0  0  0  0  0  0
  -11.6010    1.3180  -24.5980 O   0  0  0  0  0  0  0  0  0  0  0  0
  -13.4510   -0.0660  -23.7800 H   0  0  0  0  0  0  0  0  0  0  0  0
  -14.5100   -1.7450  -22.2090 H   0  0  0  0  0  0  0  0  0  0  0  0
  -10.6340   -3.1970  -21.1970 H   0  0  0  0  0  0  0  0  0  0  0  0
   -9.0490   -1.5470  -25.0080 H   0  0  0  0  0  0  0  0  0  0  0  0
   -7.7460   -0.6110  -24.2180 H   0  0  0  0  0  0  0  0  0  0  0  0
   -8.2540    1.2750  -25.7290 H   0  0  0  0  0  0  0  0  0  0  0  0
   -9.6290    2.2470  -25.1390 H   0  0  0  0  0  0  0  0  0  0  0  0
   -9.3520    2.8470  -22.6650 H   0  0  0  0  0  0  0  0  0  0  0  0
   -8.0220    3.8310  -21.0290 H   0  0  0  0  0  0  0  0  0  0  0  0
   -6.8540    2.5060  -21.4260 H   0  0  0  0  0  0  0  0  0  0  0  0
   -6.7450    4.0920  -22.2250 H   0  0  0  0  0  0  0  0  0  0  0  0
  1  2  1  0  0  0  0
  1 64  1  0  0  0  0
  1 65  1  0  0  0  0
  1 66  1  0  0  0  0
  2  3  1  0  0  0  0
  2 63  1  0  0  0  0
  3  4  2  0  0  0  0
  3  5  1  0  0  0  0
  5  6  1  0  0  0  0
  5 61  1  0  0  0  0
  5 62  1  0  0  0  0
  6  7  1  0  0  0  0
  6 54  1  0  0  0  0
  7  8  1  0  0  0  0
  7 59  1  0  0  0  0
  7 60  1  0  0  0  0
  8  9  1  1  0  0  0
  8 29  1  0  0  0  0
  8 47  1  0  0  0  0
  9 10  2  0  0  0  0
  9 11  1  0  0  0  0
 11 12  1  0  0  0  0
 11 28  1  0  0  0  0
 12 13  2  0  0  0  0
 12 21  1  0  0  0  0
 13 14  1  0  0  0  0
 13 27  1  0  0  0  0
 14 15  2  0  0  0  0
 15 16  1  0  0  0  0
 15 26  1  0  0  0  0
 16 17  2  0  0  0  0
 16 21  1  0  0  0  0
 17 18  1  0  0  0  0
 17 25  1  0  0  0  0
 18 19  2  0  0  0  0
 18 24  1  0  0  0  0
 19 20  1  0  0  0  0
 19 23  1  0  0  0  0
 20 21  2  0  0  0  0
 20 22  1  0  0  0  0
 28 29  1  0  0  0  0
 28 45  1  0  0  0  0
 28 46  1  0  0  0  0
 29 30  1  0  0  0  0
 29 44  1  1  0  0  0
 30 31  1  0  0  0  0
 30 42  1  0  0  0  0
 30 43  1  0  0  0  0
 31 32  1  0  0  0  0
 32 33  1  0  0  0  0
 32 37  1  0  0  0  0
 32 41  1  0  0  0  0
 33 34  1  0  0  0  0
 33 35  1  0  0  0  0
 33 36  1  0  0  0  0
 37 38  1  0  0  0  0
 37 39  1  0  0  0  0
 37 40  1  0  0  0  0
 47 48  2  0  0  0  0
 47 53  1  0  0  0  0
 48 49  1  0  0  0  0
 48 58  1  0  0  0  0
 49 50  1  0  0  0  0
 49 51  2  0  0  0  0
 51 52  1  0  0  0  0
 51 57  1  0  0  0  0
 52 53  2  0  0  0  0
 52 56  1  0  0  0  0
 53 54  1  0  0  0  0
 54 55  2  0  0  0  0
M  END
>  <MODEL>
       1

$$$$
