tmp_first_model_15_15.pdb
 OpenBabel08282501153D

 63 68  0  0  1  0  0  0  0  0999 V2000
   -7.6020    3.2360  -21.8600 C   0  0  0  0  0  0  0  0  0  0  0  0
   -8.6960    2.7800  -22.6980 N   0  0  0  0  0  0  0  0  0  0  0  0
   -8.3250    1.9860  -23.7460 C   0  0  0  0  0  0  0  0  0  0  0  0
   -7.1480    1.7550  -23.9890 O   0  0  0  0  0  0  0  0  0  0  0  0
   -9.4210    1.3880  -24.6200 C   0  0  0  0  0  0  0  0  0  0  0  0
   -9.9290    0.1660  -24.0260 N   0  0  0  0  0  0  0  0  0  0  0  0
   -9.0750   -1.0140  -23.9790 C   0  0  0  0  0  0  0  0  0  0  0  0
   -9.2430   -1.7780  -22.6400 C   0  0  2  0  0  0  0  0  0  0  0  0
   -8.6580   -0.9210  -21.4920 C   0  0  0  0  0  0  0  0  0  0  0  0
   -9.1830    0.0380  -20.9630 O   0  0  0  0  0  0  0  0  0  0  0  0
   -7.4020   -1.4020  -21.1860 N   0  0  0  0  0  0  0  0  0  0  0  0
   -6.6110   -0.8190  -20.1690 C   0  0  0  0  0  0  0  0  0  0  0  0
   -6.9240   -1.0460  -18.8500 C   0  0  0  0  0  0  0  0  0  0  0  0
   -6.2260   -0.5530  -17.8010 N   0  0  0  0  0  0  0  0  0  0  0  0
   -5.1870    0.2020  -18.0720 C   0  0  0  0  0  0  0  0  0  0  0  0
   -4.7540    0.5220  -19.3920 C   0  0  0  0  0  0  0  0  0  0  0  0
   -3.6320    1.3600  -19.6320 C   0  0  0  0  0  0  0  0  0  0  0  0
   -3.2530    1.6580  -20.9130 C   0  0  0  0  0  0  0  0  0  0  0  0
   -3.9760    1.1470  -22.0100 C   0  0  0  0  0  0  0  0  0  0  0  0
   -5.0740    0.3420  -21.8070 C   0  0  0  0  0  0  0  0  0  0  0  0
   -5.4820   -0.0010  -20.4860 C   0  0  0  0  0  0  0  0  0  0  0  0
   -5.6450   -0.0040  -22.6640 H   0  0  0  0  0  0  0  0  0  0  0  0
   -3.6660    1.3920  -23.0220 H   0  0  0  0  0  0  0  0  0  0  0  0
   -2.3950    2.2990  -21.0910 H   0  0  0  0  0  0  0  0  0  0  0  0
   -3.0970    1.7620  -18.7760 H   0  0  0  0  0  0  0  0  0  0  0  0
   -4.6200    0.6030  -17.2300 H   0  0  0  0  0  0  0  0  0  0  0  0
   -7.7850   -1.6640  -18.6090 H   0  0  0  0  0  0  0  0  0  0  0  0
   -7.0080   -2.5630  -21.9590 C   0  0  0  0  0  0  0  0  0  0  0  0
   -8.3370   -3.0370  -22.5650 C   0  0  2  0  0  0  0  0  0  0  0  0
   -8.1440   -3.8080  -23.8740 C   0  0  0  0  0  0  0  0  0  0  0  0
   -7.4170   -5.0450  -23.6680 N   0  0  0  0  0  0  0  0  0  0  0  0
   -6.0830   -5.2370  -23.7780 C   0  0  0  0  0  0  0  0  0  0  0  0
   -5.8370   -6.5490  -23.4440 C   0  0  0  0  0  0  0  0  0  0  0  0
   -7.1100   -7.0700  -23.1390 C   0  0  0  0  0  0  0  0  0  0  0  0
   -8.0600   -6.1480  -23.2630 N   0  0  0  0  0  0  0  0  0  0  0  0
   -7.3690   -8.0800  -22.8400 H   0  0  0  0  0  0  0  0  0  0  0  0
   -4.8850   -7.0580  -23.4250 H   0  0  0  0  0  0  0  0  0  0  0  0
   -5.4180   -4.4430  -24.0930 H   0  0  0  0  0  0  0  0  0  0  0  0
   -7.5840   -3.1980  -24.5930 H   0  0  0  0  0  0  0  0  0  0  0  0
   -9.1060   -4.0720  -24.3190 H   0  0  0  0  0  0  0  0  0  0  0  0
   -8.7780   -3.7290  -21.8450 H   0  0  0  0  0  0  0  0  0  0  0  0
   -6.5580   -3.3270  -21.3180 H   0  0  0  0  0  0  0  0  0  0  0  0
   -6.2820   -2.3070  -22.7480 H   0  0  0  0  0  0  0  0  0  0  0  0
  -10.7340   -2.0150  -22.4500 C   0  0  0  0  0  0  0  0  0  0  0  0
  -11.2170   -3.0680  -21.6700 C   0  0  0  0  0  0  0  0  0  0  0  0
  -12.5710   -3.1750  -21.4050 C   0  0  0  0  0  0  0  0  0  0  0  0
  -13.1170   -4.4010  -20.3070 Cl  0  0  0  0  0  0  0  0  0  0  0  0
  -13.5070   -2.2980  -21.9420 C   0  0  0  0  0  0  0  0  0  0  0  0
  -13.0470   -1.2670  -22.7310 C   0  0  0  0  0  0  0  0  0  0  0  0
  -11.6800   -1.1140  -22.9620 C   0  0  0  0  0  0  0  0  0  0  0  0
  -11.2620    0.0940  -23.7350 C   0  0  0  0  0  0  0  0  0  0  0  0
  -12.0550    0.9650  -24.0640 O   0  0  0  0  0  0  0  0  0  0  0  0
  -13.7230   -0.5390  -23.1620 H   0  0  0  0  0  0  0  0  0  0  0  0
  -14.5600   -2.4170  -21.7100 H   0  0  0  0  0  0  0  0  0  0  0  0
  -10.5570   -3.7980  -21.2180 H   0  0  0  0  0  0  0  0  0  0  0  0
   -8.0360   -0.6970  -24.1200 H   0  0  0  0  0  0  0  0  0  0  0  0
   -9.3360   -1.6930  -24.8020 H   0  0  0  0  0  0  0  0  0  0  0  0
  -10.2710    2.0620  -24.7740 H   0  0  0  0  0  0  0  0  0  0  0  0
   -8.9690    1.1580  -25.5900 H   0  0  0  0  0  0  0  0  0  0  0  0
   -9.5810    2.6250  -22.2190 H   0  0  0  0  0  0  0  0  0  0  0  0
   -7.9510    4.0120  -21.1700 H   0  0  0  0  0  0  0  0  0  0  0  0
   -6.8580    3.6760  -22.5250 H   0  0  0  0  0  0  0  0  0  0  0  0
   -7.1180    2.3910  -21.3340 H   0  0  0  0  0  0  0  0  0  0  0  0
  1  2  1  0  0  0  0
  1 61  1  0  0  0  0
  1 62  1  0  0  0  0
  1 63  1  0  0  0  0
  2  3  1  0  0  0  0
  2 60  1  0  0  0  0
  3  4  2  0  0  0  0
  3  5  1  0  0  0  0
  5  6  1  0  0  0  0
  5 58  1  0  0  0  0
  5 59  1  0  0  0  0
  6  7  1  0  0  0  0
  6 51  1  0  0  0  0
  7  8  1  0  0  0  0
  7 56  1  0  0  0  0
  7 57  1  0  0  0  0
  8  9  1  1  0  0  0
  8 29  1  0  0  0  0
  8 44  1  0  0  0  0
  9 10  2  0  0  0  0
  9 11  1  0  0  0  0
 11 12  1  0  0  0  0
 11 28  1  0  0  0  0
 12 13  2  0  0  0  0
 12 21  1  0  0  0  0
 13 14  1  0  0  0  0
 13 27  1  0  0  0  0
 14 15  2  0  0  0  0
 15 16  1  0  0  0  0
 15 26  1  0  0  0  0
 16 17  2  0  0  0  0
 16 21  1  0  0  0  0
 17 18  1  0  0  0  0
 17 25  1  0  0  0  0
 18 19  2  0  0  0  0
 18 24  1  0  0  0  0
 19 20  1  0  0  0  0
 19 23  1  0  0  0  0
 20 21  2  0  0  0  0
 20 22  1  0  0  0  0
 28 29  1  0  0  0  0
 28 42  1  0  0  0  0
 28 43  1  0  0  0  0
 29 30  1  0  0  0  0
 29 41  1  1  0  0  0
 30 31  1  0  0  0  0
 30 39  1  0  0  0  0
 30 40  1  0  0  0  0
 31 32  1  0  0  0  0
 31 35  1  0  0  0  0
 32 33  2  0  0  0  0
 32 38  1  0  0  0  0
 33 34  1  0  0  0  0
 33 37  1  0  0  0  0
 34 35  2  0  0  0  0
 34 36  1  0  0  0  0
 44 45  2  0  0  0  0
 44 50  1  0  0  0  0
 45 46  1  0  0  0  0
 45 55  1  0  0  0  0
 46 47  1  0  0  0  0
 46 48  2  0  0  0  0
 48 49  1  0  0  0  0
 48 54  1  0  0  0  0
 49 50  2  0  0  0  0
 49 53  1  0  0  0  0
 50 51  1  0  0  0  0
 51 52  2  0  0  0  0
M  END
>  <MODEL>
       1

$$$$
