tmp_first_model_17_59.pdb
 OpenBabel08282502223D

 60 65  0  0  1  0  0  0  0  0999 V2000
  -14.3330   -1.2470  -24.4620 C   0  0  0  0  0  0  0  0  0  0  0  0
  -13.6080   -2.4120  -24.0000 N   0  0  0  0  0  0  0  0  0  0  0  0
  -13.1260   -2.4390  -22.7320 C   0  0  0  0  0  0  0  0  0  0  0  0
  -13.1200   -1.4450  -22.0150 O   0  0  0  0  0  0  0  0  0  0  0  0
  -12.5220   -3.7760  -22.3040 C   0  0  0  0  0  0  0  0  0  0  0  0
  -11.1430   -3.9010  -22.7470 N   0  0  0  0  0  0  0  0  0  0  0  0
  -10.0920   -3.5420  -21.8020 C   0  0  0  0  0  0  0  0  0  0  0  0
   -8.8000   -3.0660  -22.4810 C   0  0  2  0  0  0  0  0  0  0  0  0
   -7.6900   -2.9450  -21.4020 C   0  0  0  0  0  0  0  0  0  0  0  0
   -7.1340   -3.8610  -20.8330 O   0  0  0  0  0  0  0  0  0  0  0  0
   -7.3520   -1.6110  -21.2310 N   0  0  0  0  0  0  0  0  0  0  0  0
   -6.5780   -1.1090  -20.1570 C   0  0  0  0  0  0  0  0  0  0  0  0
   -6.9080   -1.3550  -18.8440 C   0  0  0  0  0  0  0  0  0  0  0  0
   -6.3080   -0.7510  -17.7840 N   0  0  0  0  0  0  0  0  0  0  0  0
   -5.3410    0.1000  -18.0340 C   0  0  0  0  0  0  0  0  0  0  0  0
   -4.8800    0.4220  -19.3420 C   0  0  0  0  0  0  0  0  0  0  0  0
   -3.8160    1.3350  -19.5590 C   0  0  0  0  0  0  0  0  0  0  0  0
   -3.4210    1.6490  -20.8320 C   0  0  0  0  0  0  0  0  0  0  0  0
   -4.0770    1.0640  -21.9380 C   0  0  0  0  0  0  0  0  0  0  0  0
   -5.1010    0.1700  -21.7520 C   0  0  0  0  0  0  0  0  0  0  0  0
   -5.5240   -0.1800  -20.4410 C   0  0  0  0  0  0  0  0  0  0  0  0
   -5.6040   -0.2760  -22.6040 H   0  0  0  0  0  0  0  0  0  0  0  0
   -3.7690    1.3260  -22.9440 H   0  0  0  0  0  0  0  0  0  0  0  0
   -2.6030    2.3440  -20.9980 H   0  0  0  0  0  0  0  0  0  0  0  0
   -3.3370    1.7800  -18.6930 H   0  0  0  0  0  0  0  0  0  0  0  0
   -4.8610    0.5930  -17.1870 H   0  0  0  0  0  0  0  0  0  0  0  0
   -7.7050   -2.0500  -18.5860 H   0  0  0  0  0  0  0  0  0  0  0  0
   -8.2820   -0.7300  -21.8980 C   0  0  0  0  0  0  0  0  0  0  0  0
   -8.8340   -1.6000  -23.0220 C   0  0  2  0  0  0  0  0  0  0  0  0
  -10.1450   -0.9890  -23.5270 C   0  0  0  0  0  0  0  0  0  0  0  0
   -9.8230    0.3360  -24.1450 C   0  0  0  0  0  0  0  0  0  0  0  0
  -10.1350    1.5330  -23.6620 N   0  0  0  0  0  0  0  0  0  0  0  0
   -9.5150    2.3950  -24.4670 N   0  0  0  0  0  0  0  0  0  0  0  0
   -8.8690    1.7390  -25.3950 N   0  5  0  0  0  0  0  0  0  0  0  0
   -9.0520    0.4360  -25.2190 N   0  0  0  0  0  0  0  0  0  0  0  0
  -10.8590   -0.8250  -22.7150 H   0  0  0  0  0  0  0  0  0  0  0  0
  -10.6020   -1.6430  -24.2670 H   0  0  0  0  0  0  0  0  0  0  0  0
   -8.1140   -1.5960  -23.8500 H   0  0  0  0  0  0  0  0  0  0  0  0
   -9.0950   -0.4270  -21.2180 H   0  0  0  0  0  0  0  0  0  0  0  0
   -7.8100    0.1930  -22.2540 H   0  0  0  0  0  0  0  0  0  0  0  0
   -8.4620   -4.0990  -23.5450 C   0  0  0  0  0  0  0  0  0  0  0  0
   -7.1340   -4.2860  -23.9240 C   0  0  0  0  0  0  0  0  0  0  0  0
   -6.8110   -5.1850  -24.9230 C   0  0  0  0  0  0  0  0  0  0  0  0
   -5.1350   -5.4260  -25.3170 Cl  0  0  0  0  0  0  0  0  0  0  0  0
   -7.7920   -5.9310  -25.5700 C   0  0  0  0  0  0  0  0  0  0  0  0
   -9.1140   -5.7520  -25.2010 C   0  0  0  0  0  0  0  0  0  0  0  0
   -9.4540   -4.8360  -24.2060 C   0  0  0  0  0  0  0  0  0  0  0  0
  -10.8980   -4.6410  -23.8710 C   0  0  0  0  0  0  0  0  0  0  0  0
  -11.8080   -5.0850  -24.5670 O   0  0  0  0  0  0  0  0  0  0  0  0
   -9.9070   -6.3150  -25.6800 H   0  0  0  0  0  0  0  0  0  0  0  0
   -7.5090   -6.6340  -26.3430 H   0  0  0  0  0  0  0  0  0  0  0  0
   -6.3540   -3.7580  -23.3950 H   0  0  0  0  0  0  0  0  0  0  0  0
  -10.4720   -2.7540  -21.1480 H   0  0  0  0  0  0  0  0  0  0  0  0
   -9.8390   -4.4150  -21.1910 H   0  0  0  0  0  0  0  0  0  0  0  0
  -12.5560   -3.8520  -21.2140 H   0  0  0  0  0  0  0  0  0  0  0  0
  -13.0960   -4.5970  -22.7410 H   0  0  0  0  0  0  0  0  0  0  0  0
  -13.5600   -3.2600  -24.5520 H   0  0  0  0  0  0  0  0  0  0  0  0
  -14.6430   -1.3950  -25.4960 H   0  0  0  0  0  0  0  0  0  0  0  0
  -15.2140   -1.0550  -23.8430 H   0  0  0  0  0  0  0  0  0  0  0  0
  -13.7110   -0.3500  -24.3950 H   0  0  0  0  0  0  0  0  0  0  0  0
  1  2  1  0  0  0  0
  1 58  1  0  0  0  0
  1 59  1  0  0  0  0
  1 60  1  0  0  0  0
  2  3  1  0  0  0  0
  2 57  1  0  0  0  0
  3  4  2  0  0  0  0
  3  5  1  0  0  0  0
  5  6  1  0  0  0  0
  5 55  1  0  0  0  0
  5 56  1  0  0  0  0
  6  7  1  0  0  0  0
  6 48  1  0  0  0  0
  7  8  1  0  0  0  0
  7 53  1  0  0  0  0
  7 54  1  0  0  0  0
  8  9  1  1  0  0  0
  8 29  1  0  0  0  0
  8 41  1  0  0  0  0
  9 10  2  0  0  0  0
  9 11  1  0  0  0  0
 11 12  1  0  0  0  0
 11 28  1  0  0  0  0
 12 13  2  0  0  0  0
 12 21  1  0  0  0  0
 13 14  1  0  0  0  0
 13 27  1  0  0  0  0
 14 15  2  0  0  0  0
 15 16  1  0  0  0  0
 15 26  1  0  0  0  0
 16 17  2  0  0  0  0
 16 21  1  0  0  0  0
 17 18  1  0  0  0  0
 17 25  1  0  0  0  0
 18 19  2  0  0  0  0
 18 24  1  0  0  0  0
 19 20  1  0  0  0  0
 19 23  1  0  0  0  0
 20 21  2  0  0  0  0
 20 22  1  0  0  0  0
 28 29  1  0  0  0  0
 28 39  1  0  0  0  0
 28 40  1  0  0  0  0
 29 30  1  0  0  0  0
 29 38  1  6  0  0  0
 30 31  1  0  0  0  0
 30 36  1  0  0  0  0
 30 37  1  0  0  0  0
 31 32  1  0  0  0  0
 31 35  2  0  0  0  0
 32 33  2  0  0  0  0
 33 34  1  0  0  0  0
 34 35  1  0  0  0  0
 41 42  2  0  0  0  0
 41 47  1  0  0  0  0
 42 43  1  0  0  0  0
 42 52  1  0  0  0  0
 43 44  1  0  0  0  0
 43 45  2  0  0  0  0
 45 46  1  0  0  0  0
 45 51  1  0  0  0  0
 46 47  2  0  0  0  0
 46 50  1  0  0  0  0
 47 48  1  0  0  0  0
 48 49  2  0  0  0  0
M  CHG  1  34  -1
M  END
>  <MODEL>
       1

$$$$
