tmp_first_model_1_3.pdb
 OpenBabel08272517043D

 66 70  0  0  1  0  0  0  0  0999 V2000
   -8.2580   -5.5090  -27.8190 C   0  0  0  0  0  0  0  0  0  0  0  0
   -8.4050   -4.0860  -27.5890 N   0  0  0  0  0  0  0  0  0  0  0  0
   -7.5620   -3.4210  -26.7510 C   0  0  0  0  0  0  0  0  0  0  0  0
   -6.5450   -3.9170  -26.2840 O   0  0  0  0  0  0  0  0  0  0  0  0
   -7.9590   -1.9620  -26.4660 C   0  0  0  0  0  0  0  0  0  0  0  0
   -8.4930   -1.7390  -25.1340 N   0  0  0  0  0  0  0  0  0  0  0  0
   -7.5540   -1.4840  -24.0530 C   0  0  0  0  0  0  0  0  0  0  0  0
   -8.2510   -2.0770  -22.7840 C   0  0  2  0  0  0  0  0  0  0  0  0
   -7.9870   -1.1650  -21.5820 C   0  0  0  0  0  0  0  0  0  0  0  0
   -8.6120   -0.1960  -21.2150 O   0  0  0  0  0  0  0  0  0  0  0  0
   -6.8340   -1.6530  -20.9890 N   0  0  0  0  0  0  0  0  0  0  0  0
   -6.1810   -0.9450  -19.9530 C   0  0  0  0  0  0  0  0  0  0  0  0
   -6.5890   -1.1300  -18.6600 C   0  0  0  0  0  0  0  0  0  0  0  0
   -6.0070   -0.5480  -17.5840 N   0  0  0  0  0  0  0  0  0  0  0  0
   -5.0090    0.2710  -17.8080 C   0  0  0  0  0  0  0  0  0  0  0  0
   -4.4930    0.5670  -19.1040 C   0  0  0  0  0  0  0  0  0  0  0  0
   -3.4230    1.4760  -19.3010 C   0  0  0  0  0  0  0  0  0  0  0  0
   -2.9560    1.7330  -20.5600 C   0  0  0  0  0  0  0  0  0  0  0  0
   -3.5320    1.0960  -21.6810 C   0  0  0  0  0  0  0  0  0  0  0  0
   -4.5770    0.2200  -21.5200 C   0  0  0  0  0  0  0  0  0  0  0  0
   -5.0850   -0.0650  -20.2220 C   0  0  0  0  0  0  0  0  0  0  0  0
   -5.0300   -0.2530  -22.3880 H   0  0  0  0  0  0  0  0  0  0  0  0
   -3.1530    1.3090  -22.6750 H   0  0  0  0  0  0  0  0  0  0  0  0
   -2.1440    2.4380  -20.7110 H   0  0  0  0  0  0  0  0  0  0  0  0
   -3.0010    1.9690  -18.4300 H   0  0  0  0  0  0  0  0  0  0  0  0
   -4.5510    0.7460  -16.9410 H   0  0  0  0  0  0  0  0  0  0  0  0
   -7.4270   -1.7940  -18.4560 H   0  0  0  0  0  0  0  0  0  0  0  0
   -6.3640   -2.9160  -21.5480 C   0  0  0  0  0  0  0  0  0  0  0  0
   -7.6250   -3.4080  -22.2590 C   0  0  2  0  0  0  0  0  0  0  0  0
   -7.5090   -4.5010  -23.3040 C   0  0  0  0  0  0  0  0  0  0  0  0
   -7.3580   -5.7360  -22.6400 O   0  0  0  0  0  0  0  0  0  0  0  0
   -7.1920   -6.8330  -23.5220 C   0  0  0  0  0  0  0  0  0  0  0  0
   -6.5600   -7.9360  -22.6880 C   0  0  0  0  0  0  0  0  0  0  0  0
   -5.7430   -7.5210  -22.0920 H   0  0  0  0  0  0  0  0  0  0  0  0
   -6.1560   -8.7380  -23.3090 H   0  0  0  0  0  0  0  0  0  0  0  0
   -7.3050   -8.3580  -22.0070 H   0  0  0  0  0  0  0  0  0  0  0  0
   -8.5210   -7.2700  -24.1460 C   0  0  0  0  0  0  0  0  0  0  0  0
   -8.3650   -8.1070  -24.8340 H   0  0  0  0  0  0  0  0  0  0  0  0
   -8.9980   -6.4600  -24.7110 H   0  0  0  0  0  0  0  0  0  0  0  0
   -9.2210   -7.5830  -23.3640 H   0  0  0  0  0  0  0  0  0  0  0  0
   -6.5020   -6.5290  -24.3300 H   0  0  0  0  0  0  0  0  0  0  0  0
   -8.4180   -4.5140  -23.9270 H   0  0  0  0  0  0  0  0  0  0  0  0
   -6.6640   -4.3140  -23.9870 H   0  0  0  0  0  0  0  0  0  0  0  0
   -8.2730   -3.8120  -21.4680 H   0  0  0  0  0  0  0  0  0  0  0  0
   -5.5340   -2.7680  -22.2610 H   0  0  0  0  0  0  0  0  0  0  0  0
   -6.0230   -3.5860  -20.7550 H   0  0  0  0  0  0  0  0  0  0  0  0
   -9.6610   -2.2320  -23.2080 C   0  0  0  0  0  0  0  0  0  0  0  0
  -10.6220   -2.5680  -22.2760 C   0  0  0  0  0  0  0  0  0  0  0  0
  -12.0520   -2.4970  -22.3490 C   0  0  0  0  0  0  0  0  0  0  0  0
  -12.7630   -3.3490  -20.8920 Cl  0  0  0  0  0  0  0  0  0  0  0  0
  -12.9870   -1.9210  -23.0450 C   0  0  0  0  0  0  0  0  0  0  0  0
  -11.5570   -1.3710  -24.0450 C   0  0  0  0  0  0  0  0  0  0  0  0
  -11.4690   -1.1560  -23.9150 C   0  0  0  0  0  0  0  0  0  0  0  0
   -9.7010   -2.3850  -24.6820 C   0  0  0  0  0  0  0  0  0  0  0  0
  -10.1910   -3.2750  -25.3970 O   0  0  0  0  0  0  0  0  0  0  0  0
  -10.9220   -1.1730  -24.9830 H   0  0  0  0  0  0  0  0  0  0  0  0
  -14.0890   -1.9500  -22.9830 H   0  0  0  0  0  0  0  0  0  0  0  0
  -10.2570   -2.9920  -21.3430 H   0  0  0  0  0  0  0  0  0  0  0  0
   -6.5820   -1.9580  -24.2720 H   0  0  0  0  0  0  0  0  0  0  0  0
   -7.3640   -0.4080  -23.9130 H   0  0  0  0  0  0  0  0  0  0  0  0
   -8.6370   -1.5950  -27.2480 H   0  0  0  0  0  0  0  0  0  0  0  0
   -7.0440   -1.3660  -26.5320 H   0  0  0  0  0  0  0  0  0  0  0  0
   -9.3440   -3.7210  -27.6460 H   0  0  0  0  0  0  0  0  0  0  0  0
   -8.5460   -6.1100  -26.9440 H   0  0  0  0  0  0  0  0  0  0  0  0
   -8.8830   -5.7950  -28.6710 H   0  0  0  0  0  0  0  0  0  0  0  0
   -7.2160   -5.7300  -28.0550 H   0  0  0  0  0  0  0  0  0  0  0  0
  1  2  1  0  0  0  0
  1 64  1  0  0  0  0
  1 65  1  0  0  0  0
  1 66  1  0  0  0  0
  2  3  1  0  0  0  0
  2 63  1  0  0  0  0
  3  4  2  0  0  0  0
  3  5  1  0  0  0  0
  5  6  1  0  0  0  0
  5 61  1  0  0  0  0
  5 62  1  0  0  0  0
  6  7  1  0  0  0  0
  6 54  1  0  0  0  0
  7  8  1  0  0  0  0
  7 59  1  0  0  0  0
  7 60  1  0  0  0  0
  8  9  1  1  0  0  0
  8 29  1  0  0  0  0
  8 47  1  0  0  0  0
  9 10  2  0  0  0  0
  9 11  1  0  0  0  0
 11 12  1  0  0  0  0
 11 28  1  0  0  0  0
 12 13  2  0  0  0  0
 12 21  1  0  0  0  0
 13 14  1  0  0  0  0
 13 27  1  0  0  0  0
 14 15  2  0  0  0  0
 15 16  1  0  0  0  0
 15 26  1  0  0  0  0
 16 17  2  0  0  0  0
 16 21  1  0  0  0  0
 17 18  1  0  0  0  0
 17 25  1  0  0  0  0
 18 19  2  0  0  0  0
 18 24  1  0  0  0  0
 19 20  1  0  0  0  0
 19 23  1  0  0  0  0
 20 21  2  0  0  0  0
 20 22  1  0  0  0  0
 28 29  1  0  0  0  0
 28 45  1  0  0  0  0
 28 46  1  0  0  0  0
 29 30  1  0  0  0  0
 29 44  1  1  0  0  0
 30 31  1  0  0  0  0
 30 42  1  0  0  0  0
 30 43  1  0  0  0  0
 31 32  1  0  0  0  0
 32 33  1  0  0  0  0
 32 37  1  0  0  0  0
 32 41  1  0  0  0  0
 33 34  1  0  0  0  0
 33 35  1  0  0  0  0
 33 36  1  0  0  0  0
 37 38  1  0  0  0  0
 37 39  1  0  0  0  0
 37 40  1  0  0  0  0
 47 48  2  0  0  0  0
 47 53  1  0  0  0  0
 48 49  1  0  0  0  0
 48 58  1  0  0  0  0
 49 50  1  0  0  0  0
 49 51  2  0  0  0  0
 51 52  1  0  0  0  0
 51 57  1  0  0  0  0
 52 53  2  0  0  0  0
 52 56  1  0  0  0  0
 53 54  1  0  0  0  0
 54 55  2  0  0  0  0
M  END
>  <MODEL>
       1

$$$$
