tmp_first_model_19_78.pdb
 OpenBabel08282503233D

 56 60  0  0  1  0  0  0  0  0999 V2000
   -7.3220    3.4510  -21.8810 C   0  0  0  0  0  0  0  0  0  0  0  0
   -8.1420    2.9630  -22.9750 N   0  0  0  0  0  0  0  0  0  0  0  0
   -7.5690    2.2550  -23.9760 C   0  0  0  0  0  0  0  0  0  0  0  0
   -6.3550    2.1240  -24.0790 O   0  0  0  0  0  0  0  0  0  0  0  0
   -8.5220    1.6370  -25.0060 C   0  0  0  0  0  0  0  0  0  0  0  0
   -9.2640    0.4970  -24.5010 N   0  0  0  0  0  0  0  0  0  0  0  0
   -8.5690   -0.7610  -24.3080 C   0  0  0  0  0  0  0  0  0  0  0  0
   -8.9890   -1.4580  -22.9870 C   0  0  2  0  0  0  0  0  0  0  0  0
   -8.4430   -0.6670  -21.7690 C   0  0  0  0  0  0  0  0  0  0  0  0
   -8.8360    0.4030  -21.3520 O   0  0  0  0  0  0  0  0  0  0  0  0
   -7.4090   -1.3760  -21.2040 N   0  0  0  0  0  0  0  0  0  0  0  0
   -6.6060   -0.8050  -20.1780 C   0  0  0  0  0  0  0  0  0  0  0  0
   -6.9070   -1.0440  -18.8640 C   0  0  0  0  0  0  0  0  0  0  0  0
   -6.2000   -0.5590  -17.8150 N   0  0  0  0  0  0  0  0  0  0  0  0
   -5.1680    0.2060  -18.0800 C   0  0  0  0  0  0  0  0  0  0  0  0
   -4.7300    0.5290  -19.3960 C   0  0  0  0  0  0  0  0  0  0  0  0
   -3.5990    1.3570  -19.6420 C   0  0  0  0  0  0  0  0  0  0  0  0
   -3.2100    1.6450  -20.9210 C   0  0  0  0  0  0  0  0  0  0  0  0
   -3.9320    1.1160  -22.0150 C   0  0  0  0  0  0  0  0  0  0  0  0
   -5.0280    0.3140  -21.8030 C   0  0  0  0  0  0  0  0  0  0  0  0
   -5.4670    0.0060  -20.4870 C   0  0  0  0  0  0  0  0  0  0  0  0
   -5.5800   -0.0800  -22.6520 H   0  0  0  0  0  0  0  0  0  0  0  0
   -3.6380    1.3590  -23.0310 H   0  0  0  0  0  0  0  0  0  0  0  0
   -2.3580    2.2960  -21.1000 H   0  0  0  0  0  0  0  0  0  0  0  0
   -3.0700    1.7700  -18.7860 H   0  0  0  0  0  0  0  0  0  0  0  0
   -4.6220    0.6130  -17.2270 H   0  0  0  0  0  0  0  0  0  0  0  0
   -7.7590   -1.6680  -18.6070 H   0  0  0  0  0  0  0  0  0  0  0  0
   -7.0890   -2.6140  -21.8850 C   0  0  0  0  0  0  0  0  0  0  0  0
   -8.2920   -2.8520  -22.8250 C   0  0  2  0  0  0  0  0  0  0  0  0
   -7.8810   -3.5870  -24.1080 C   0  0  0  0  0  0  0  0  0  0  0  0
   -7.4630   -4.5720  -23.8710 H   0  0  0  0  0  0  0  0  0  0  0  0
   -7.1110   -3.0310  -24.6570 H   0  0  0  0  0  0  0  0  0  0  0  0
   -8.7290   -3.7400  -24.7850 H   0  0  0  0  0  0  0  0  0  0  0  0
   -9.0100   -3.4850  -22.2980 H   0  0  0  0  0  0  0  0  0  0  0  0
   -6.1500   -2.5220  -22.4530 H   0  0  0  0  0  0  0  0  0  0  0  0
   -6.9530   -3.4280  -21.1610 H   0  0  0  0  0  0  0  0  0  0  0  0
  -10.5090   -1.4680  -22.9150 C   0  0  0  0  0  0  0  0  0  0  0  0
  -11.1610   -2.3070  -22.0020 C   0  0  0  0  0  0  0  0  0  0  0  0
  -12.5410   -2.3030  -21.9170 C   0  0  0  0  0  0  0  0  0  0  0  0
  -13.3390   -3.3530  -20.7820 Cl  0  0  0  0  0  0  0  0  0  0  0  0
  -13.3120   -1.4510  -22.7080 C   0  0  0  0  0  0  0  0  0  0  0  0
  -12.6730   -0.5630  -23.5510 C   0  0  0  0  0  0  0  0  0  0  0  0
  -11.2800   -0.5390  -23.6290 C   0  0  0  0  0  0  0  0  0  0  0  0
  -10.6270    0.5770  -24.3930 C   0  0  0  0  0  0  0  0  0  0  0  0
  -11.2640    1.5200  -24.8430 O   0  0  0  0  0  0  0  0  0  0  0  0
  -13.2290    0.1550  -24.1440 H   0  0  0  0  0  0  0  0  0  0  0  0
  -14.3930   -1.4700  -22.6230 H   0  0  0  0  0  0  0  0  0  0  0  0
  -10.6040   -2.9420  -21.3220 H   0  0  0  0  0  0  0  0  0  0  0  0
   -7.4990   -0.5360  -24.2770 H   0  0  0  0  0  0  0  0  0  0  0  0
   -8.7700   -1.4460  -25.1480 H   0  0  0  0  0  0  0  0  0  0  0  0
   -7.8920    1.3500  -25.8540 H   0  0  0  0  0  0  0  0  0  0  0  0
   -9.2830    2.3480  -25.3420 H   0  0  0  0  0  0  0  0  0  0  0  0
   -9.1430    2.9270  -22.8520 H   0  0  0  0  0  0  0  0  0  0  0  0
   -7.9900    3.9570  -21.1850 H   0  0  0  0  0  0  0  0  0  0  0  0
   -6.7870    2.6250  -21.3840 H   0  0  0  0  0  0  0  0  0  0  0  0
   -6.5800    4.1710  -22.2450 H   0  0  0  0  0  0  0  0  0  0  0  0
  1  2  1  0  0  0  0
  1 54  1  0  0  0  0
  1 55  1  0  0  0  0
  1 56  1  0  0  0  0
  2  3  1  0  0  0  0
  2 53  1  0  0  0  0
  3  4  2  0  0  0  0
  3  5  1  0  0  0  0
  5  6  1  0  0  0  0
  5 51  1  0  0  0  0
  5 52  1  0  0  0  0
  6  7  1  0  0  0  0
  6 44  1  0  0  0  0
  7  8  1  0  0  0  0
  7 49  1  0  0  0  0
  7 50  1  0  0  0  0
  8  9  1  1  0  0  0
  8 29  1  0  0  0  0
  8 37  1  0  0  0  0
  9 10  2  0  0  0  0
  9 11  1  0  0  0  0
 11 12  1  0  0  0  0
 11 28  1  0  0  0  0
 12 13  2  0  0  0  0
 12 21  1  0  0  0  0
 13 14  1  0  0  0  0
 13 27  1  0  0  0  0
 14 15  2  0  0  0  0
 15 16  1  0  0  0  0
 15 26  1  0  0  0  0
 16 17  2  0  0  0  0
 16 21  1  0  0  0  0
 17 18  1  0  0  0  0
 17 25  1  0  0  0  0
 18 19  2  0  0  0  0
 18 24  1  0  0  0  0
 19 20  1  0  0  0  0
 19 23  1  0  0  0  0
 20 21  2  0  0  0  0
 20 22  1  0  0  0  0
 28 29  1  0  0  0  0
 28 35  1  0  0  0  0
 28 36  1  0  0  0  0
 29 30  1  0  0  0  0
 29 34  1  1  0  0  0
 30 31  1  0  0  0  0
 30 32  1  0  0  0  0
 30 33  1  0  0  0  0
 37 38  2  0  0  0  0
 37 43  1  0  0  0  0
 38 39  1  0  0  0  0
 38 48  1  0  0  0  0
 39 40  1  0  0  0  0
 39 41  2  0  0  0  0
 41 42  1  0  0  0  0
 41 47  1  0  0  0  0
 42 43  2  0  0  0  0
 42 46  1  0  0  0  0
 43 44  1  0  0  0  0
 44 45  2  0  0  0  0
M  END
>  <MODEL>
       1

$$$$
