tmp_first_model_20_77.pdb
 OpenBabel08282503553D

 55 60  0  0  1  0  0  0  0  0999 V2000
  -10.4670   -1.0990  -23.2920 C   0  0  0  0  0  0  0  0  0  0  0  0
   -9.0240   -1.4490  -22.9390 C   0  0  1  0  0  0  0  0  0  0  0  0
   -8.4050   -0.5030  -21.8980 C   0  0  0  0  0  0  0  0  0  0  0  0
   -7.4150   -1.3340  -21.2310 N   0  0  0  0  0  0  0  0  0  0  0  0
   -6.5930   -0.8480  -20.1860 C   0  0  0  0  0  0  0  0  0  0  0  0
   -6.9070   -1.0940  -18.8730 C   0  0  0  0  0  0  0  0  0  0  0  0
   -6.2350   -0.5690  -17.8170 N   0  0  0  0  0  0  0  0  0  0  0  0
   -5.2060    0.1990  -18.0820 C   0  0  0  0  0  0  0  0  0  0  0  0
   -4.7520    0.5100  -19.3950 C   0  0  0  0  0  0  0  0  0  0  0  0
   -3.6170    1.3300  -19.6290 C   0  0  0  0  0  0  0  0  0  0  0  0
   -3.2200    1.6040  -20.9090 C   0  0  0  0  0  0  0  0  0  0  0  0
   -3.9290    1.0700  -22.0100 C   0  0  0  0  0  0  0  0  0  0  0  0
   -5.0270    0.2700  -21.8090 C   0  0  0  0  0  0  0  0  0  0  0  0
   -5.4670   -0.0220  -20.4900 C   0  0  0  0  0  0  0  0  0  0  0  0
   -5.5670   -0.1480  -22.6520 H   0  0  0  0  0  0  0  0  0  0  0  0
   -3.6040    1.2990  -23.0210 H   0  0  0  0  0  0  0  0  0  0  0  0
   -2.3590    2.2410  -21.0920 H   0  0  0  0  0  0  0  0  0  0  0  0
   -3.0800    1.7310  -18.7740 H   0  0  0  0  0  0  0  0  0  0  0  0
   -4.6660    0.6130  -17.2300 H   0  0  0  0  0  0  0  0  0  0  0  0
   -7.7530   -1.7310  -18.6230 H   0  0  0  0  0  0  0  0  0  0  0  0
   -7.6010   -2.6860  -21.4310 C   0  0  0  0  0  0  0  0  0  0  0  0
   -6.8770   -3.5490  -20.9810 O   0  0  0  0  0  0  0  0  0  0  0  0
   -8.8250   -2.8860  -22.3400 C   0  0  1  0  0  0  0  0  0  0  0  0
  -10.0300   -3.3300  -21.4760 C   0  0  0  0  0  0  0  0  0  0  0  0
  -11.1870   -3.7510  -22.2710 N   0  0  0  0  0  0  0  0  0  0  0  0
  -12.5340   -3.7220  -21.6850 C   0  0  0  0  0  0  0  0  0  0  0  0
  -13.4460   -2.6300  -22.1740 C   0  0  0  0  0  0  0  0  0  0  0  0
  -13.8770   -1.4250  -21.7210 C   0  0  0  0  0  0  0  0  0  0  0  0
  -14.7800   -0.9230  -22.6240 O   0  0  0  0  0  0  0  0  0  0  0  0
  -14.8420   -1.8610  -23.5800 C   0  0  0  0  0  0  0  0  0  0  0  0
  -14.1160   -2.8900  -23.3580 N   0  0  0  0  0  0  0  0  0  0  0  0
  -15.4500   -1.6980  -24.4550 H   0  0  0  0  0  0  0  0  0  0  0  0
  -13.7040   -0.7880  -20.8710 H   0  0  0  0  0  0  0  0  0  0  0  0
  -13.0410   -4.6160  -22.0490 H   0  0  0  0  0  0  0  0  0  0  0  0
  -12.4720   -3.7720  -20.5920 H   0  0  0  0  0  0  0  0  0  0  0  0
  -11.0070   -4.5510  -23.3780 C   0  0  0  0  0  0  0  0  0  0  0  0
  -11.9370   -5.0770  -23.9710 O   0  0  0  0  0  0  0  0  0  0  0  0
   -9.5960   -4.7410  -23.8530 C   0  0  0  0  0  0  0  0  0  0  0  0
   -9.3480   -5.6990  -24.8360 C   0  0  0  0  0  0  0  0  0  0  0  0
   -8.0760   -5.8610  -25.3570 C   0  0  0  0  0  0  0  0  0  0  0  0
   -7.0600   -5.0230  -24.9140 C   0  0  0  0  0  0  0  0  0  0  0  0
   -5.8290   -5.1540  -25.4380 F   0  0  0  0  0  0  0  0  0  0  0  0
   -7.2760   -4.0740  -23.9380 C   0  0  0  0  0  0  0  0  0  0  0  0
   -8.5550   -3.9380  -23.3840 C   0  0  0  0  0  0  0  0  0  0  0  0
   -6.4370   -3.4840  -23.5900 H   0  0  0  0  0  0  0  0  0  0  0  0
   -7.8580   -6.6220  -26.0950 H   0  0  0  0  0  0  0  0  0  0  0  0
  -10.1780   -6.3090  -25.1780 H   0  0  0  0  0  0  0  0  0  0  0  0
  -10.3010   -2.4640  -20.8630 H   0  0  0  0  0  0  0  0  0  0  0  0
   -9.7130   -4.1570  -20.8280 H   0  0  0  0  0  0  0  0  0  0  0  0
   -9.1600   -0.1310  -21.1870 H   0  0  0  0  0  0  0  0  0  0  0  0
   -7.9370    0.3730  -22.3590 H   0  0  0  0  0  0  0  0  0  0  0  0
   -8.4050   -1.4200  -23.8470 H   0  0  0  0  0  0  0  0  0  0  0  0
  -11.0730   -1.0680  -22.3810 H   0  0  0  0  0  0  0  0  0  0  0  0
  -10.8950   -1.8660  -23.9450 H   0  0  0  0  0  0  0  0  0  0  0  0
  -10.5480   -0.1290  -23.7880 H   0  0  0  0  0  0  0  0  0  0  0  0
  1  2  1  0  0  0  0
  1 53  1  0  0  0  0
  1 54  1  0  0  0  0
  1 55  1  0  0  0  0
  2  3  1  0  0  0  0
  2 23  1  0  0  0  0
  2 52  1  6  0  0  0
  3  4  1  0  0  0  0
  3 50  1  0  0  0  0
  3 51  1  0  0  0  0
  4  5  1  0  0  0  0
  4 21  1  0  0  0  0
  5  6  2  0  0  0  0
  5 14  1  0  0  0  0
  6  7  1  0  0  0  0
  6 20  1  0  0  0  0
  7  8  2  0  0  0  0
  8  9  1  0  0  0  0
  8 19  1  0  0  0  0
  9 10  2  0  0  0  0
  9 14  1  0  0  0  0
 10 11  1  0  0  0  0
 10 18  1  0  0  0  0
 11 12  2  0  0  0  0
 11 17  1  0  0  0  0
 12 13  1  0  0  0  0
 12 16  1  0  0  0  0
 13 14  2  0  0  0  0
 13 15  1  0  0  0  0
 21 22  2  0  0  0  0
 23 21  1  1  0  0  0
 23 24  1  0  0  0  0
 23 44  1  0  0  0  0
 24 25  1  0  0  0  0
 24 48  1  0  0  0  0
 24 49  1  0  0  0  0
 25 26  1  0  0  0  0
 25 36  1  0  0  0  0
 26 27  1  0  0  0  0
 26 34  1  0  0  0  0
 26 35  1  0  0  0  0
 27 28  2  0  0  0  0
 27 31  1  0  0  0  0
 28 29  1  0  0  0  0
 28 33  1  0  0  0  0
 29 30  1  0  0  0  0
 30 31  2  0  0  0  0
 30 32  1  0  0  0  0
 36 37  2  0  0  0  0
 36 38  1  0  0  0  0
 38 39  2  0  0  0  0
 38 44  1  0  0  0  0
 39 40  1  0  0  0  0
 39 47  1  0  0  0  0
 40 41  2  0  0  0  0
 40 46  1  0  0  0  0
 41 42  1  0  0  0  0
 41 43  1  0  0  0  0
 43 44  2  0  0  0  0
 43 45  1  0  0  0  0
M  END
>  <MODEL>
       1

$$$$
