tmp_first_model_18_52.pdb
 OpenBabel08282502533D

 57 60  0  0  0  0  0  0  0  0999 V2000
   -0.4750   -3.2270  -27.8280 C   0  0  0  0  0  0  0  0  0  0  0  0
   -1.3340   -4.4710  -28.0300 C   0  0  0  0  0  0  0  0  0  0  0  0
   -2.0980   -4.8220  -26.7570 C   0  0  0  0  0  0  0  0  0  0  0  0
   -1.6140   -5.5640  -25.9230 O   0  0  0  0  0  0  0  0  0  0  0  0
   -3.3310   -4.2350  -26.5540 N   0  0  0  0  0  0  0  0  0  0  0  0
   -4.2450   -4.5820  -25.5220 C   0  0  0  0  0  0  0  0  0  0  0  0
   -4.3660   -5.9010  -25.0890 C   0  0  0  0  0  0  0  0  0  0  0  0
   -5.2740   -6.2120  -24.0810 C   0  0  0  0  0  0  0  0  0  0  0  0
   -6.0650   -5.2410  -23.4760 C   0  0  0  0  0  0  0  0  0  0  0  0
   -5.9450   -3.9160  -23.9000 C   0  0  0  0  0  0  0  0  0  0  0  0
   -6.7700   -2.8840  -23.3170 N   0  0  0  0  0  0  0  0  0  0  0  0
   -7.7550   -2.2100  -24.1580 C   0  0  0  0  0  0  0  0  0  0  0  0
   -9.1920   -2.5070  -23.7820 C   0  0  0  0  0  0  0  0  0  0  0  0
   -9.6400   -3.8280  -23.7560 C   0  0  0  0  0  0  0  0  0  0  0  0
  -10.9480   -4.1170  -23.3860 C   0  0  0  0  0  0  0  0  0  0  0  0
  -11.8270   -3.0970  -23.0410 C   0  0  0  0  0  0  0  0  0  0  0  0
  -11.3920   -1.7790  -23.0780 C   0  0  0  0  0  0  0  0  0  0  0  0
  -10.0820   -1.4880  -23.4490 C   0  0  0  0  0  0  0  0  0  0  0  0
   -9.7510   -0.4520  -23.4760 H   0  0  0  0  0  0  0  0  0  0  0  0
  -12.0710   -0.9750  -22.8170 H   0  0  0  0  0  0  0  0  0  0  0  0
  -12.8470   -3.3260  -22.7480 H   0  0  0  0  0  0  0  0  0  0  0  0
  -11.2930   -5.1410  -23.3740 H   0  0  0  0  0  0  0  0  0  0  0  0
   -8.9610   -4.6340  -24.0310 H   0  0  0  0  0  0  0  0  0  0  0  0
   -7.5780   -1.1280  -24.1640 H   0  0  0  0  0  0  0  0  0  0  0  0
   -7.5840   -2.5480  -25.1810 H   0  0  0  0  0  0  0  0  0  0  0  0
   -6.6570   -2.6530  -21.9490 C   0  0  0  0  0  0  0  0  0  0  0  0
   -5.9550   -3.3590  -21.2540 O   0  0  0  0  0  0  0  0  0  0  0  0
   -7.3910   -1.4610  -21.2870 C   0  0  0  0  0  0  0  0  0  0  0  0
   -6.5770   -0.8280  -20.1780 C   0  0  0  0  0  0  0  0  0  0  0  0
   -6.8720   -1.0460  -18.8540 C   0  0  0  0  0  0  0  0  0  0  0  0
   -6.1880   -0.5410  -17.7900 N   0  0  0  0  0  0  0  0  0  0  0  0
   -5.1580    0.2250  -18.0610 C   0  0  0  0  0  0  0  0  0  0  0  0
   -4.7210    0.5350  -19.3800 C   0  0  0  0  0  0  0  0  0  0  0  0
   -3.5920    1.3600  -19.6200 C   0  0  0  0  0  0  0  0  0  0  0  0
   -3.1930    1.6380  -20.9020 C   0  0  0  0  0  0  0  0  0  0  0  0
   -3.9080    1.0980  -21.9930 C   0  0  0  0  0  0  0  0  0  0  0  0
   -5.0050    0.2970  -21.7850 C   0  0  0  0  0  0  0  0  0  0  0  0
   -5.4470   -0.0060  -20.4690 C   0  0  0  0  0  0  0  0  0  0  0  0
   -5.5330   -0.1120  -22.6410 H   0  0  0  0  0  0  0  0  0  0  0  0
   -3.5870    1.3200  -23.0060 H   0  0  0  0  0  0  0  0  0  0  0  0
   -2.3310    2.2730  -21.0890 H   0  0  0  0  0  0  0  0  0  0  0  0
   -3.0520    1.7730  -18.7720 H   0  0  0  0  0  0  0  0  0  0  0  0
   -4.6000    0.6300  -17.2150 H   0  0  0  0  0  0  0  0  0  0  0  0
   -7.7210   -1.6720  -18.5870 H   0  0  0  0  0  0  0  0  0  0  0  0
   -8.3200   -1.8530  -20.8570 H   0  0  0  0  0  0  0  0  0  0  0  0
   -7.6860   -0.6970  -22.0120 H   0  0  0  0  0  0  0  0  0  0  0  0
   -5.0660   -3.6020  -24.9440 C   0  0  0  0  0  0  0  0  0  0  0  0
   -5.0160   -2.5660  -25.2680 H   0  0  0  0  0  0  0  0  0  0  0  0
   -6.7550   -5.5120  -22.6780 H   0  0  0  0  0  0  0  0  0  0  0  0
   -5.3450   -7.2410  -23.7420 H   0  0  0  0  0  0  0  0  0  0  0  0
   -3.7670   -6.6820  -25.5420 H   0  0  0  0  0  0  0  0  0  0  0  0
   -3.5910   -3.4570  -27.1370 H   0  0  0  0  0  0  0  0  0  0  0  0
   -0.6830   -5.3200  -28.2500 H   0  0  0  0  0  0  0  0  0  0  0  0
   -2.0050   -4.3420  -28.8860 H   0  0  0  0  0  0  0  0  0  0  0  0
   -1.1010   -2.3640  -27.5940 H   0  0  0  0  0  0  0  0  0  0  0  0
    0.2330   -3.3610  -27.0050 H   0  0  0  0  0  0  0  0  0  0  0  0
    0.1030   -2.9920  -28.7260 H   0  0  0  0  0  0  0  0  0  0  0  0
  1  2  1  0  0  0  0
  1 55  1  0  0  0  0
  1 56  1  0  0  0  0
  1 57  1  0  0  0  0
  2  3  1  0  0  0  0
  2 53  1  0  0  0  0
  2 54  1  0  0  0  0
  3  4  2  0  0  0  0
  3  5  1  0  0  0  0
  5  6  1  0  0  0  0
  5 52  1  0  0  0  0
  6  7  2  0  0  0  0
  6 47  1  0  0  0  0
  7  8  1  0  0  0  0
  7 51  1  0  0  0  0
  8  9  2  0  0  0  0
  8 50  1  0  0  0  0
  9 10  1  0  0  0  0
  9 49  1  0  0  0  0
 10 11  1  0  0  0  0
 10 47  2  0  0  0  0
 11 12  1  0  0  0  0
 11 26  1  0  0  0  0
 12 13  1  0  0  0  0
 12 24  1  0  0  0  0
 12 25  1  0  0  0  0
 13 14  2  0  0  0  0
 13 18  1  0  0  0  0
 14 15  1  0  0  0  0
 14 23  1  0  0  0  0
 15 16  2  0  0  0  0
 15 22  1  0  0  0  0
 16 17  1  0  0  0  0
 16 21  1  0  0  0  0
 17 18  2  0  0  0  0
 17 20  1  0  0  0  0
 18 19  1  0  0  0  0
 26 27  2  0  0  0  0
 26 28  1  0  0  0  0
 28 29  1  0  0  0  0
 28 45  1  0  0  0  0
 28 46  1  0  0  0  0
 29 30  2  0  0  0  0
 29 38  1  0  0  0  0
 30 31  1  0  0  0  0
 30 44  1  0  0  0  0
 31 32  2  0  0  0  0
 32 33  1  0  0  0  0
 32 43  1  0  0  0  0
 33 34  2  0  0  0  0
 33 38  1  0  0  0  0
 34 35  1  0  0  0  0
 34 42  1  0  0  0  0
 35 36  2  0  0  0  0
 35 41  1  0  0  0  0
 36 37  1  0  0  0  0
 36 40  1  0  0  0  0
 37 38  2  0  0  0  0
 37 39  1  0  0  0  0
 47 48  1  0  0  0  0
M  END
>  <MODEL>
       1

$$$$
