tmp_first_model_20_4.pdb
 OpenBabel08282503553D

 59 64  0  0  1  0  0  0  0  0999 V2000
   -8.0730   -3.8370  -23.8620 C   0  0  0  0  0  0  0  0  0  0  0  0
   -8.4130   -2.8550  -22.7330 C   0  0  1  0  0  0  0  0  0  0  0  0
   -7.2600   -2.7020  -21.7200 C   0  0  0  0  0  0  0  0  0  0  0  0
   -7.4310   -1.3600  -21.1960 N   0  0  0  0  0  0  0  0  0  0  0  0
   -6.6120   -0.8010  -20.1800 C   0  0  0  0  0  0  0  0  0  0  0  0
   -6.9020   -1.0490  -18.8630 C   0  0  0  0  0  0  0  0  0  0  0  0
   -6.2010   -0.5530  -17.8130 N   0  0  0  0  0  0  0  0  0  0  0  0
   -5.1670    0.2060  -18.0840 C   0  0  0  0  0  0  0  0  0  0  0  0
   -4.7360    0.5290  -19.4020 C   0  0  0  0  0  0  0  0  0  0  0  0
   -3.6020    1.3540  -19.6430 C   0  0  0  0  0  0  0  0  0  0  0  0
   -3.2030    1.6350  -20.9210 C   0  0  0  0  0  0  0  0  0  0  0  0
   -3.9130    1.0930  -22.0200 C   0  0  0  0  0  0  0  0  0  0  0  0
   -5.0110    0.2950  -21.8130 C   0  0  0  0  0  0  0  0  0  0  0  0
   -5.4680    0.0060  -20.4940 C   0  0  0  0  0  0  0  0  0  0  0  0
   -5.5480   -0.1100  -22.6680 H   0  0  0  0  0  0  0  0  0  0  0  0
   -3.6070    1.3240  -23.0360 H   0  0  0  0  0  0  0  0  0  0  0  0
   -2.3510    2.2840  -21.0970 H   0  0  0  0  0  0  0  0  0  0  0  0
   -3.0700    1.7630  -18.7880 H   0  0  0  0  0  0  0  0  0  0  0  0
   -4.6180    0.6100  -17.2320 H   0  0  0  0  0  0  0  0  0  0  0  0
   -7.7490   -1.6790  -18.6030 H   0  0  0  0  0  0  0  0  0  0  0  0
   -8.2410   -0.5600  -21.9700 C   0  0  0  0  0  0  0  0  0  0  0  0
   -8.4440    0.6140  -21.7430 O   0  0  0  0  0  0  0  0  0  0  0  0
   -8.7910   -1.3960  -23.1510 C   0  0  1  0  0  0  0  0  0  0  0  0
   -8.0660   -0.9690  -24.4540 C   0  0  0  0  0  0  0  0  0  0  0  0
   -8.4350    0.3690  -24.8660 N   0  0  0  0  0  0  0  0  0  0  0  0
   -7.3870    1.3710  -25.0190 C   0  0  0  0  0  0  0  0  0  0  0  0
   -6.2960    0.9650  -25.9700 C   0  0  0  0  0  0  0  0  0  0  0  0
   -5.0470    0.7170  -25.6240 N   0  0  0  0  0  0  0  0  0  0  0  0
   -4.4140    0.3440  -26.7830 C   0  0  0  0  0  0  0  0  0  0  0  0
   -5.2930    0.3660  -27.8310 C   0  0  0  0  0  0  0  0  0  0  0  0
   -6.5010    0.7700  -27.3030 N   0  0  0  0  0  0  0  0  0  0  0  0
   -7.7500    0.9210  -28.0290 C   0  0  0  0  0  0  0  0  0  0  0  0
   -8.4610    0.1350  -27.7550 H   0  0  0  0  0  0  0  0  0  0  0  0
   -8.2050    1.8970  -27.8270 H   0  0  0  0  0  0  0  0  0  0  0  0
   -7.5270    0.8480  -29.0960 H   0  0  0  0  0  0  0  0  0  0  0  0
   -5.1940    0.1310  -28.8810 H   0  0  0  0  0  0  0  0  0  0  0  0
   -3.3650    0.0710  -26.7810 H   0  0  0  0  0  0  0  0  0  0  0  0
   -7.8940    2.2850  -25.3430 H   0  0  0  0  0  0  0  0  0  0  0  0
   -6.9100    1.5560  -24.0460 H   0  0  0  0  0  0  0  0  0  0  0  0
   -9.7520    0.7110  -25.0030 C   0  0  0  0  0  0  0  0  0  0  0  0
  -10.1290    1.6590  -25.6810 O   0  0  0  0  0  0  0  0  0  0  0  0
  -10.7210   -0.1420  -24.2340 C   0  0  0  0  0  0  0  0  0  0  0  0
  -12.0810    0.1440  -24.3610 C   0  0  0  0  0  0  0  0  0  0  0  0
  -13.0210   -0.5300  -23.6090 C   0  0  0  0  0  0  0  0  0  0  0  0
  -12.5630   -1.4320  -22.6560 C   0  0  0  0  0  0  0  0  0  0  0  0
  -13.4600   -2.0260  -21.8520 F   0  0  0  0  0  0  0  0  0  0  0  0
  -11.2230   -1.7190  -22.4880 C   0  0  0  0  0  0  0  0  0  0  0  0
  -10.2760   -1.1180  -23.3280 C   0  0  0  0  0  0  0  0  0  0  0  0
  -10.9470   -2.3810  -21.6740 H   0  0  0  0  0  0  0  0  0  0  0  0
  -14.0840   -0.3410  -23.7050 H   0  0  0  0  0  0  0  0  0  0  0  0
  -12.3650    0.9500  -25.0260 H   0  0  0  0  0  0  0  0  0  0  0  0
   -6.9840   -0.9770  -24.3020 H   0  0  0  0  0  0  0  0  0  0  0  0
   -8.3180   -1.6790  -25.2560 H   0  0  0  0  0  0  0  0  0  0  0  0
   -7.3050   -3.4340  -20.9080 H   0  0  0  0  0  0  0  0  0  0  0  0
   -6.2830   -2.8250  -22.2150 H   0  0  0  0  0  0  0  0  0  0  0  0
   -9.2780   -3.2470  -22.1930 H   0  0  0  0  0  0  0  0  0  0  0  0
   -7.9020   -4.8450  -23.4670 H   0  0  0  0  0  0  0  0  0  0  0  0
   -8.8750   -3.9030  -24.6070 H   0  0  0  0  0  0  0  0  0  0  0  0
   -7.1590   -3.5360  -24.3890 H   0  0  0  0  0  0  0  0  0  0  0  0
  1  2  1  0  0  0  0
  1 57  1  0  0  0  0
  1 58  1  0  0  0  0
  1 59  1  0  0  0  0
  2  3  1  0  0  0  0
  2 23  1  0  0  0  0
  2 56  1  1  0  0  0
  3  4  1  0  0  0  0
  3 54  1  0  0  0  0
  3 55  1  0  0  0  0
  4  5  1  0  0  0  0
  4 21  1  0  0  0  0
  5  6  2  0  0  0  0
  5 14  1  0  0  0  0
  6  7  1  0  0  0  0
  6 20  1  0  0  0  0
  7  8  2  0  0  0  0
  8  9  1  0  0  0  0
  8 19  1  0  0  0  0
  9 10  2  0  0  0  0
  9 14  1  0  0  0  0
 10 11  1  0  0  0  0
 10 18  1  0  0  0  0
 11 12  2  0  0  0  0
 11 17  1  0  0  0  0
 12 13  1  0  0  0  0
 12 16  1  0  0  0  0
 13 14  2  0  0  0  0
 13 15  1  0  0  0  0
 21 22  2  0  0  0  0
 23 21  1  1  0  0  0
 23 24  1  0  0  0  0
 23 48  1  0  0  0  0
 24 25  1  0  0  0  0
 24 52  1  0  0  0  0
 24 53  1  0  0  0  0
 25 26  1  0  0  0  0
 25 40  1  0  0  0  0
 26 27  1  0  0  0  0
 26 38  1  0  0  0  0
 26 39  1  0  0  0  0
 27 28  2  0  0  0  0
 27 31  1  0  0  0  0
 28 29  1  0  0  0  0
 29 30  2  0  0  0  0
 29 37  1  0  0  0  0
 30 31  1  0  0  0  0
 30 36  1  0  0  0  0
 31 32  1  0  0  0  0
 32 33  1  0  0  0  0
 32 34  1  0  0  0  0
 32 35  1  0  0  0  0
 40 41  2  0  0  0  0
 40 42  1  0  0  0  0
 42 43  2  0  0  0  0
 42 48  1  0  0  0  0
 43 44  1  0  0  0  0
 43 51  1  0  0  0  0
 44 45  2  0  0  0  0
 44 50  1  0  0  0  0
 45 46  1  0  0  0  0
 45 47  1  0  0  0  0
 47 48  2  0  0  0  0
 47 49  1  0  0  0  0
M  END
>  <MODEL>
       1

$$$$
