tmp_first_model_14_15.pdb
 OpenBabel08282500413D

 63 68  0  0  1  0  0  0  0  0999 V2000
   -7.4930    3.2140  -21.7520 C   0  0  0  0  0  0  0  0  0  0  0  0
   -8.5880    2.7130  -22.5570 N   0  0  0  0  0  0  0  0  0  0  0  0
   -8.2640    1.9360  -23.6230 C   0  0  0  0  0  0  0  0  0  0  0  0
   -7.1050    1.6540  -23.9040 O   0  0  0  0  0  0  0  0  0  0  0  0
   -9.4070    1.4190  -24.4720 C   0  0  0  0  0  0  0  0  0  0  0  0
   -9.9240    0.1790  -23.9460 N   0  0  0  0  0  0  0  0  0  0  0  0
   -9.1010   -1.0150  -23.9540 C   0  0  0  0  0  0  0  0  0  0  0  0
   -9.2490   -1.8020  -22.6250 C   0  0  2  0  0  0  0  0  0  0  0  0
   -8.6640   -0.9350  -21.4880 C   0  0  0  0  0  0  0  0  0  0  0  0
   -9.1870    0.0290  -20.9640 O   0  0  0  0  0  0  0  0  0  0  0  0
   -7.4010   -1.4030  -21.1940 N   0  0  0  0  0  0  0  0  0  0  0  0
   -6.6080   -0.8090  -20.1870 C   0  0  0  0  0  0  0  0  0  0  0  0
   -6.9370   -1.0080  -18.8700 C   0  0  0  0  0  0  0  0  0  0  0  0
   -6.2460   -0.4880  -17.8320 N   0  0  0  0  0  0  0  0  0  0  0  0
   -5.1880    0.2360  -18.1000 C   0  0  0  0  0  0  0  0  0  0  0  0
   -4.7400    0.5250  -19.4170 C   0  0  0  0  0  0  0  0  0  0  0  0
   -3.6150    1.3550  -19.6560 C   0  0  0  0  0  0  0  0  0  0  0  0
   -3.2370    1.6580  -20.9340 C   0  0  0  0  0  0  0  0  0  0  0  0
   -3.9610    1.1450  -22.0310 C   0  0  0  0  0  0  0  0  0  0  0  0
   -5.0570    0.3350  -21.8270 C   0  0  0  0  0  0  0  0  0  0  0  0
   -5.4700   -0.0040  -20.5090 C   0  0  0  0  0  0  0  0  0  0  0  0
   -5.6360    0.0090  -22.6840 H   0  0  0  0  0  0  0  0  0  0  0  0
   -3.6590    1.4010  -23.0420 H   0  0  0  0  0  0  0  0  0  0  0  0
   -2.3840    2.3060  -21.1120 H   0  0  0  0  0  0  0  0  0  0  0  0
   -3.0810    1.7540  -18.7990 H   0  0  0  0  0  0  0  0  0  0  0  0
   -4.6230    0.6360  -17.2560 H   0  0  0  0  0  0  0  0  0  0  0  0
   -7.8000   -1.6220  -18.6170 H   0  0  0  0  0  0  0  0  0  0  0  0
   -7.0040   -2.5640  -21.9640 C   0  0  0  0  0  0  0  0  0  0  0  0
   -8.3330   -3.0490  -22.5580 C   0  0  2  0  0  0  0  0  0  0  0  0
   -8.1440   -3.8140  -23.8680 C   0  0  0  0  0  0  0  0  0  0  0  0
   -7.4140   -5.0460  -23.6710 N   0  0  0  0  0  0  0  0  0  0  0  0
   -6.0790   -5.2350  -23.7760 C   0  0  0  0  0  0  0  0  0  0  0  0
   -5.8360   -6.5470  -23.4410 C   0  0  0  0  0  0  0  0  0  0  0  0
   -7.1110   -7.0670  -23.1390 C   0  0  0  0  0  0  0  0  0  0  0  0
   -8.0590   -6.1450  -23.2650 N   0  0  0  0  0  0  0  0  0  0  0  0
   -7.3780   -8.0740  -22.8410 H   0  0  0  0  0  0  0  0  0  0  0  0
   -4.8820   -7.0570  -23.4200 H   0  0  0  0  0  0  0  0  0  0  0  0
   -5.4200   -4.4340  -24.0910 H   0  0  0  0  0  0  0  0  0  0  0  0
   -7.5930   -3.2000  -24.5870 H   0  0  0  0  0  0  0  0  0  0  0  0
   -9.1050   -4.0820  -24.3090 H   0  0  0  0  0  0  0  0  0  0  0  0
   -8.7700   -3.7380  -21.8350 H   0  0  0  0  0  0  0  0  0  0  0  0
   -6.5440   -3.3190  -21.3220 H   0  0  0  0  0  0  0  0  0  0  0  0
   -6.2790   -2.3110  -22.7540 H   0  0  0  0  0  0  0  0  0  0  0  0
  -10.7340   -2.0540  -22.4300 C   0  0  0  0  0  0  0  0  0  0  0  0
  -11.2320   -3.1180  -21.6710 C   0  0  0  0  0  0  0  0  0  0  0  0
  -12.5860   -3.1930  -21.3940 C   0  0  0  0  0  0  0  0  0  0  0  0
  -13.1520   -4.3220  -20.2070 Cl  0  0  0  0  0  0  0  0  0  0  0  0
  -13.5120   -2.3180  -21.9500 C   0  0  0  0  0  0  0  0  0  0  0  0
  -13.0360   -1.2860  -22.7250 C   0  0  0  0  0  0  0  0  0  0  0  0
  -11.6660   -1.1190  -22.9060 C   0  0  0  0  0  0  0  0  0  0  0  0
  -11.2130    0.1630  -23.5180 C   0  0  0  0  0  0  0  0  0  0  0  0
  -11.9440    1.1450  -23.5950 O   0  0  0  0  0  0  0  0  0  0  0  0
  -13.7070   -0.5610  -23.1680 H   0  0  0  0  0  0  0  0  0  0  0  0
  -14.5630   -2.4300  -21.7100 H   0  0  0  0  0  0  0  0  0  0  0  0
  -10.5870   -3.8680  -21.2290 H   0  0  0  0  0  0  0  0  0  0  0  0
   -8.0660   -0.7000  -24.1130 H   0  0  0  0  0  0  0  0  0  0  0  0
   -9.4030   -1.6590  -24.7900 H   0  0  0  0  0  0  0  0  0  0  0  0
  -10.2350    2.1240  -24.4470 H   0  0  0  0  0  0  0  0  0  0  0  0
   -9.0340    1.2720  -25.4930 H   0  0  0  0  0  0  0  0  0  0  0  0
   -9.4920    2.6250  -22.1100 H   0  0  0  0  0  0  0  0  0  0  0  0
   -7.8930    3.7780  -20.9090 H   0  0  0  0  0  0  0  0  0  0  0  0
   -6.8900    3.8970  -22.3490 H   0  0  0  0  0  0  0  0  0  0  0  0
   -6.8490    2.3730  -21.4540 H   0  0  0  0  0  0  0  0  0  0  0  0
  1  2  1  0  0  0  0
  1 61  1  0  0  0  0
  1 62  1  0  0  0  0
  1 63  1  0  0  0  0
  2  3  1  0  0  0  0
  2 60  1  0  0  0  0
  3  4  2  0  0  0  0
  3  5  1  0  0  0  0
  5  6  1  0  0  0  0
  5 58  1  0  0  0  0
  5 59  1  0  0  0  0
  6  7  1  0  0  0  0
  6 51  1  0  0  0  0
  7  8  1  0  0  0  0
  7 56  1  0  0  0  0
  7 57  1  0  0  0  0
  8  9  1  1  0  0  0
  8 29  1  0  0  0  0
  8 44  1  0  0  0  0
  9 10  2  0  0  0  0
  9 11  1  0  0  0  0
 11 12  1  0  0  0  0
 11 28  1  0  0  0  0
 12 13  2  0  0  0  0
 12 21  1  0  0  0  0
 13 14  1  0  0  0  0
 13 27  1  0  0  0  0
 14 15  2  0  0  0  0
 15 16  1  0  0  0  0
 15 26  1  0  0  0  0
 16 17  2  0  0  0  0
 16 21  1  0  0  0  0
 17 18  1  0  0  0  0
 17 25  1  0  0  0  0
 18 19  2  0  0  0  0
 18 24  1  0  0  0  0
 19 20  1  0  0  0  0
 19 23  1  0  0  0  0
 20 21  2  0  0  0  0
 20 22  1  0  0  0  0
 28 29  1  0  0  0  0
 28 42  1  0  0  0  0
 28 43  1  0  0  0  0
 29 30  1  0  0  0  0
 29 41  1  1  0  0  0
 30 31  1  0  0  0  0
 30 39  1  0  0  0  0
 30 40  1  0  0  0  0
 31 32  1  0  0  0  0
 31 35  1  0  0  0  0
 32 33  2  0  0  0  0
 32 38  1  0  0  0  0
 33 34  1  0  0  0  0
 33 37  1  0  0  0  0
 34 35  2  0  0  0  0
 34 36  1  0  0  0  0
 44 45  2  0  0  0  0
 44 50  1  0  0  0  0
 45 46  1  0  0  0  0
 45 55  1  0  0  0  0
 46 47  1  0  0  0  0
 46 48  2  0  0  0  0
 48 49  1  0  0  0  0
 48 54  1  0  0  0  0
 49 50  2  0  0  0  0
 49 53  1  0  0  0  0
 50 51  1  0  0  0  0
 51 52  2  0  0  0  0
M  END
>  <MODEL>
       1

$$$$
