tmp_first_model_1_65.pdb
 OpenBabel08272517043D

 55 60  0  0  1  0  0  0  0  0999 V2000
  -10.2280   -2.9720  -22.0730 C   0  0  0  0  0  0  0  0  0  0  0  0
   -9.1590   -2.0180  -22.6280 C   0  0  1  0  0  0  0  0  0  0  0  0
   -8.6910   -1.0370  -21.5330 C   0  0  0  0  0  0  0  0  0  0  0  0
   -7.3490   -1.4520  -21.2040 N   0  0  0  0  0  0  0  0  0  0  0  0
   -6.5730   -0.8510  -20.1900 C   0  0  0  0  0  0  0  0  0  0  0  0
   -6.9110   -1.0610  -18.8800 C   0  0  0  0  0  0  0  0  0  0  0  0
   -6.2240   -0.5630  -17.8240 N   0  0  0  0  0  0  0  0  0  0  0  0
   -5.1880    0.1960  -18.0940 C   0  0  0  0  0  0  0  0  0  0  0  0
   -4.7440    0.5100  -19.4110 C   0  0  0  0  0  0  0  0  0  0  0  0
   -3.6230    1.3510  -19.6370 C   0  0  0  0  0  0  0  0  0  0  0  0
   -3.2330    1.6610  -20.9090 C   0  0  0  0  0  0  0  0  0  0  0  0
   -3.9480    1.1510  -22.0190 C   0  0  0  0  0  0  0  0  0  0  0  0
   -5.0360    0.3360  -21.8330 C   0  0  0  0  0  0  0  0  0  0  0  0
   -5.4540   -0.0190  -20.5120 C   0  0  0  0  0  0  0  0  0  0  0  0
   -5.5850   -0.0340  -22.7010 H   0  0  0  0  0  0  0  0  0  0  0  0
   -3.6290    1.4120  -23.0250 H   0  0  0  0  0  0  0  0  0  0  0  0
   -2.3740    2.3050  -21.0810 H   0  0  0  0  0  0  0  0  0  0  0  0
   -3.0980    1.7480  -18.7720 H   0  0  0  0  0  0  0  0  0  0  0  0
   -4.6380    0.6100  -17.2480 H   0  0  0  0  0  0  0  0  0  0  0  0
   -7.7700   -1.6900  -18.6440 H   0  0  0  0  0  0  0  0  0  0  0  0
   -6.8270   -2.4060  -22.0390 C   0  0  0  0  0  0  0  0  0  0  0  0
   -5.7400   -2.9230  -21.8930 O   0  0  0  0  0  0  0  0  0  0  0  0
   -7.8550   -2.6840  -23.1520 C   0  0  1  0  0  0  0  0  0  0  0  0
   -7.9680   -4.1980  -23.3480 C   0  0  0  0  0  0  0  0  0  0  0  0
   -6.7230   -4.6990  -23.8900 N   0  0  0  0  0  0  0  0  0  0  0  0
   -6.2630   -5.9910  -23.4290 C   0  0  0  0  0  0  0  0  0  0  0  0
   -7.0930   -7.0940  -24.0280 C   0  0  0  0  0  0  0  0  0  0  0  0
   -7.0610   -7.5750  -25.2940 C   0  0  0  0  0  0  0  0  0  0  0  0
   -8.1940   -8.3100  -25.4900 O   0  0  0  0  0  0  0  0  0  0  0  0
   -8.8440   -8.2550  -24.3120 C   0  0  0  0  0  0  0  0  0  0  0  0
   -8.2500   -7.5670  -23.3980 N   0  0  0  0  0  0  0  0  0  0  0  0
   -9.7820   -8.7980  -24.2590 H   0  0  0  0  0  0  0  0  0  0  0  0
   -6.3540   -7.5340  -26.1150 H   0  0  0  0  0  0  0  0  0  0  0  0
   -5.2090   -6.0580  -23.7090 H   0  0  0  0  0  0  0  0  0  0  0  0
   -6.3320   -5.9730  -22.3350 H   0  0  0  0  0  0  0  0  0  0  0  0
   -6.2520   -4.2400  -25.0890 C   0  0  0  0  0  0  0  0  0  0  0  0
   -5.5380   -4.9050  -25.8280 O   0  0  0  0  0  0  0  0  0  0  0  0
   -6.6340   -2.8340  -25.3890 C   0  0  0  0  0  0  0  0  0  0  0  0
   -6.1760   -2.2900  -26.5870 C   0  0  0  0  0  0  0  0  0  0  0  0
   -6.3980   -0.9540  -26.8600 C   0  0  0  0  0  0  0  0  0  0  0  0
   -7.0780   -0.1900  -25.9150 C   0  0  0  0  0  0  0  0  0  0  0  0
   -7.2760    1.1180  -26.1680 F   0  0  0  0  0  0  0  0  0  0  0  0
   -7.5570   -0.7180  -24.7320 C   0  0  0  0  0  0  0  0  0  0  0  0
   -7.3600   -2.0770  -24.4620 C   0  0  0  0  0  0  0  0  0  0  0  0
   -8.0830   -0.0620  -24.0430 H   0  0  0  0  0  0  0  0  0  0  0  0
   -6.0350   -0.4810  -27.7630 H   0  0  0  0  0  0  0  0  0  0  0  0
   -5.6290   -2.9510  -27.2560 H   0  0  0  0  0  0  0  0  0  0  0  0
   -8.7990   -4.4170  -24.0350 H   0  0  0  0  0  0  0  0  0  0  0  0
   -8.1570   -4.6960  -22.3920 H   0  0  0  0  0  0  0  0  0  0  0  0
   -9.3370   -1.1070  -20.6630 H   0  0  0  0  0  0  0  0  0  0  0  0
   -8.6970    0.0070  -21.8680 H   0  0  0  0  0  0  0  0  0  0  0  0
   -9.6310   -1.4820  -23.4580 H   0  0  0  0  0  0  0  0  0  0  0  0
  -11.0820   -2.3950  -21.6970 H   0  0  0  0  0  0  0  0  0  0  0  0
   -9.8390   -3.5720  -21.2420 H   0  0  0  0  0  0  0  0  0  0  0  0
  -10.6070   -3.6480  -22.8450 H   0  0  0  0  0  0  0  0  0  0  0  0
  1  2  1  0  0  0  0
  1 53  1  0  0  0  0
  1 54  1  0  0  0  0
  1 55  1  0  0  0  0
  2  3  1  0  0  0  0
  2 23  1  0  0  0  0
  2 52  1  6  0  0  0
  3  4  1  0  0  0  0
  3 50  1  0  0  0  0
  3 51  1  0  0  0  0
  4  5  1  0  0  0  0
  4 21  1  0  0  0  0
  5  6  2  0  0  0  0
  5 14  1  0  0  0  0
  6  7  1  0  0  0  0
  6 20  1  0  0  0  0
  7  8  2  0  0  0  0
  8  9  1  0  0  0  0
  8 19  1  0  0  0  0
  9 10  2  0  0  0  0
  9 14  1  0  0  0  0
 10 11  1  0  0  0  0
 10 18  1  0  0  0  0
 11 12  2  0  0  0  0
 11 17  1  0  0  0  0
 12 13  1  0  0  0  0
 12 16  1  0  0  0  0
 13 14  2  0  0  0  0
 13 15  1  0  0  0  0
 21 22  2  0  0  0  0
 23 21  1  1  0  0  0
 23 24  1  0  0  0  0
 23 44  1  0  0  0  0
 24 25  1  0  0  0  0
 24 48  1  0  0  0  0
 24 49  1  0  0  0  0
 25 26  1  0  0  0  0
 25 36  1  0  0  0  0
 26 27  1  0  0  0  0
 26 34  1  0  0  0  0
 26 35  1  0  0  0  0
 27 28  2  0  0  0  0
 27 31  1  0  0  0  0
 28 29  1  0  0  0  0
 28 33  1  0  0  0  0
 29 30  1  0  0  0  0
 30 31  2  0  0  0  0
 30 32  1  0  0  0  0
 36 37  2  0  0  0  0
 36 38  1  0  0  0  0
 38 39  2  0  0  0  0
 38 44  1  0  0  0  0
 39 40  1  0  0  0  0
 39 47  1  0  0  0  0
 40 41  2  0  0  0  0
 40 46  1  0  0  0  0
 41 42  1  0  0  0  0
 41 43  1  0  0  0  0
 43 44  2  0  0  0  0
 43 45  1  0  0  0  0
M  END
>  <MODEL>
       1

$$$$
