tmp_first_model_11_53.pdb
 OpenBabel08272522543D

 59 63  0  0  1  0  0  0  0  0999 V2000
   -7.9680    2.2100  -30.0690 C   0  0  0  0  0  0  0  0  0  0  0  0
   -9.1440    1.5980  -29.3100 C   0  0  0  0  0  0  0  0  0  0  0  0
   -9.0830    1.7730  -27.8590 N   0  0  0  0  0  0  0  0  0  0  0  0
   -8.4140    0.8980  -27.0510 C   0  0  0  0  0  0  0  0  0  0  0  0
   -7.7420   -0.0270  -27.4800 O   0  0  0  0  0  0  0  0  0  0  0  0
   -8.5470    1.1750  -25.5410 C   0  0  0  0  0  0  0  0  0  0  0  0
   -9.2910    0.1560  -24.8290 N   0  0  0  0  0  0  0  0  0  0  0  0
   -8.6820   -1.1260  -24.5260 C   0  0  0  0  0  0  0  0  0  0  0  0
   -8.9340   -1.5590  -23.0560 C   0  0  2  0  0  0  0  0  0  0  0  0
   -8.1460   -0.6170  -22.1120 C   0  0  0  0  0  0  0  0  0  0  0  0
   -8.1500    0.5940  -22.1440 O   0  0  0  0  0  0  0  0  0  0  0  0
   -7.3920   -1.3730  -21.2350 N   0  0  0  0  0  0  0  0  0  0  0  0
   -6.5970   -0.8160  -20.1980 C   0  0  0  0  0  0  0  0  0  0  0  0
   -6.8950   -1.0740  -18.8820 C   0  0  0  0  0  0  0  0  0  0  0  0
   -6.2210   -0.5670  -17.8190 N   0  0  0  0  0  0  0  0  0  0  0  0
   -5.1910    0.2060  -18.0700 C   0  0  0  0  0  0  0  0  0  0  0  0
   -4.7360    0.5180  -19.3820 C   0  0  0  0  0  0  0  0  0  0  0  0
   -3.6000    1.3460  -19.5990 C   0  0  0  0  0  0  0  0  0  0  0  0
   -3.1710    1.6120  -20.8700 C   0  0  0  0  0  0  0  0  0  0  0  0
   -3.8440    1.0510  -21.9780 C   0  0  0  0  0  0  0  0  0  0  0  0
   -4.9410    0.2470  -21.7910 C   0  0  0  0  0  0  0  0  0  0  0  0
   -5.4380   -0.0180  -20.4850 C   0  0  0  0  0  0  0  0  0  0  0  0
   -5.4510   -0.1900  -22.6420 H   0  0  0  0  0  0  0  0  0  0  0  0
   -3.4980    1.2680  -22.9840 H   0  0  0  0  0  0  0  0  0  0  0  0
   -2.3140    2.2610  -21.0360 H   0  0  0  0  0  0  0  0  0  0  0  0
   -3.0970    1.7720  -18.7340 H   0  0  0  0  0  0  0  0  0  0  0  0
   -4.6540    0.6160  -17.2140 H   0  0  0  0  0  0  0  0  0  0  0  0
   -7.7470   -1.7030  -18.6260 H   0  0  0  0  0  0  0  0  0  0  0  0
   -7.6450   -2.7940  -21.3340 C   0  0  0  0  0  0  0  0  0  0  0  0
   -8.3580   -2.9740  -22.6980 C   0  0  2  0  0  0  0  0  0  0  0  0
   -7.4440   -3.6200  -23.7480 C   0  0  0  0  0  0  0  0  0  0  0  0
   -7.9700   -3.7730  -24.6970 H   0  0  0  0  0  0  0  0  0  0  0  0
   -6.5510   -3.0170  -23.9450 H   0  0  0  0  0  0  0  0  0  0  0  0
   -7.1150   -4.6100  -23.4080 H   0  0  0  0  0  0  0  0  0  0  0  0
   -9.1850   -3.6780  -22.5790 H   0  0  0  0  0  0  0  0  0  0  0  0
   -6.7000   -3.3470  -21.2860 H   0  0  0  0  0  0  0  0  0  0  0  0
   -8.2660   -3.1390  -20.4940 H   0  0  0  0  0  0  0  0  0  0  0  0
  -10.4470   -1.4690  -22.8400 C   0  0  0  0  0  0  0  0  0  0  0  0
  -11.0840   -2.2960  -21.9030 C   0  0  0  0  0  0  0  0  0  0  0  0
  -12.4640   -2.3300  -21.8350 C   0  0  0  0  0  0  0  0  0  0  0  0
  -13.2470   -3.4470  -20.7550 Cl  0  0  0  0  0  0  0  0  0  0  0  0
  -13.2480   -1.5060  -22.6320 C   0  0  0  0  0  0  0  0  0  0  0  0
  -12.6310   -0.6100  -23.4870 C   0  0  0  0  0  0  0  0  0  0  0  0
  -11.2360   -0.5820  -23.5890 C   0  0  0  0  0  0  0  0  0  0  0  0
  -10.6060    0.3940  -24.5430 C   0  0  0  0  0  0  0  0  0  0  0  0
  -11.2220    1.3250  -25.0420 O   0  0  0  0  0  0  0  0  0  0  0  0
  -13.2140    0.0640  -24.1060 H   0  0  0  0  0  0  0  0  0  0  0  0
  -14.3260   -1.5940  -22.5580 H   0  0  0  0  0  0  0  0  0  0  0  0
  -10.5170   -2.9160  -21.2190 H   0  0  0  0  0  0  0  0  0  0  0  0
   -7.6130   -1.0410  -24.7220 H   0  0  0  0  0  0  0  0  0  0  0  0
   -9.1080   -1.8970  -25.1840 H   0  0  0  0  0  0  0  0  0  0  0  0
   -7.5390    1.2120  -25.1100 H   0  0  0  0  0  0  0  0  0  0  0  0
   -9.0430    2.1300  -25.3480 H   0  0  0  0  0  0  0  0  0  0  0  0
   -9.7670    2.3920  -27.4360 H   0  0  0  0  0  0  0  0  0  0  0  0
   -9.1990    0.5260  -29.5340 H   0  0  0  0  0  0  0  0  0  0  0  0
  -10.0780    2.0610  -29.6470 H   0  0  0  0  0  0  0  0  0  0  0  0
   -8.1010    2.0270  -31.1440 H   0  0  0  0  0  0  0  0  0  0  0  0
   -7.0220    1.7680  -29.7400 H   0  0  0  0  0  0  0  0  0  0  0  0
   -7.9140    3.2910  -29.9080 H   0  0  0  0  0  0  0  0  0  0  0  0
  1  2  1  0  0  0  0
  1 57  1  0  0  0  0
  1 58  1  0  0  0  0
  1 59  1  0  0  0  0
  2  3  1  0  0  0  0
  2 55  1  0  0  0  0
  2 56  1  0  0  0  0
  3  4  1  0  0  0  0
  3 54  1  0  0  0  0
  4  5  2  0  0  0  0
  4  6  1  0  0  0  0
  6  7  1  0  0  0  0
  6 52  1  0  0  0  0
  6 53  1  0  0  0  0
  7  8  1  0  0  0  0
  7 45  1  0  0  0  0
  8  9  1  0  0  0  0
  8 50  1  0  0  0  0
  8 51  1  0  0  0  0
  9 10  1  1  0  0  0
  9 30  1  0  0  0  0
  9 38  1  0  0  0  0
 10 11  2  0  0  0  0
 10 12  1  0  0  0  0
 12 13  1  0  0  0  0
 12 29  1  0  0  0  0
 13 14  2  0  0  0  0
 13 22  1  0  0  0  0
 14 15  1  0  0  0  0
 14 28  1  0  0  0  0
 15 16  2  0  0  0  0
 16 17  1  0  0  0  0
 16 27  1  0  0  0  0
 17 18  2  0  0  0  0
 17 22  1  0  0  0  0
 18 19  1  0  0  0  0
 18 26  1  0  0  0  0
 19 20  2  0  0  0  0
 19 25  1  0  0  0  0
 20 21  1  0  0  0  0
 20 24  1  0  0  0  0
 21 22  2  0  0  0  0
 21 23  1  0  0  0  0
 29 30  1  0  0  0  0
 29 36  1  0  0  0  0
 29 37  1  0  0  0  0
 30 31  1  0  0  0  0
 30 35  1  1  0  0  0
 31 32  1  0  0  0  0
 31 33  1  0  0  0  0
 31 34  1  0  0  0  0
 38 39  2  0  0  0  0
 38 44  1  0  0  0  0
 39 40  1  0  0  0  0
 39 49  1  0  0  0  0
 40 41  1  0  0  0  0
 40 42  2  0  0  0  0
 42 43  1  0  0  0  0
 42 48  1  0  0  0  0
 43 44  2  0  0  0  0
 43 47  1  0  0  0  0
 44 45  1  0  0  0  0
 45 46  2  0  0  0  0
M  END
>  <MODEL>
       1

$$$$
