tmp_first_model_10_43.pdb
 OpenBabel08272522163D

 67 72  0  0  1  0  0  0  0  0999 V2000
   -7.5570    3.1800  -21.9910 C   0  0  0  0  0  0  0  0  0  0  0  0
   -8.6860    2.6530  -22.7440 N   0  0  0  0  0  0  0  0  0  0  0  0
   -8.3940    1.8840  -23.8320 C   0  0  0  0  0  0  0  0  0  0  0  0
   -7.2410    1.6530  -24.1640 O   0  0  0  0  0  0  0  0  0  0  0  0
   -9.5470    1.2780  -24.6350 C   0  0  0  0  0  0  0  0  0  0  0  0
   -9.9890    0.0490  -24.0060 N   0  0  0  0  0  0  0  0  0  0  0  0
   -9.0870   -1.0940  -23.9760 C   0  0  0  0  0  0  0  0  0  0  0  0
   -9.2190   -1.8840  -22.6450 C   0  0  2  0  0  0  0  0  0  0  0  0
   -8.6670   -1.0010  -21.4990 C   0  0  0  0  0  0  0  0  0  0  0  0
   -9.2080   -0.0380  -20.9920 O   0  0  0  0  0  0  0  0  0  0  0  0
   -7.4060   -1.4510  -21.1720 N   0  0  0  0  0  0  0  0  0  0  0  0
   -6.6400   -0.8250  -20.1570 C   0  0  0  0  0  0  0  0  0  0  0  0
   -6.9390   -1.0670  -18.8380 C   0  0  0  0  0  0  0  0  0  0  0  0
   -6.2370   -0.5750  -17.7900 N   0  0  0  0  0  0  0  0  0  0  0  0
   -5.1940    0.1720  -18.0610 C   0  0  0  0  0  0  0  0  0  0  0  0
   -4.7940    0.5400  -19.3780 C   0  0  0  0  0  0  0  0  0  0  0  0
   -3.7140    1.4310  -19.6120 C   0  0  0  0  0  0  0  0  0  0  0  0
   -3.4410    1.8710  -20.8790 C   0  0  0  0  0  0  0  0  0  0  0  0
   -4.2420    1.4550  -21.9660 C   0  0  0  0  0  0  0  0  0  0  0  0
   -5.2440    0.5300  -21.7760 C   0  0  0  0  0  0  0  0  0  0  0  0
   -5.5610    0.0630  -20.4700 C   0  0  0  0  0  0  0  0  0  0  0  0
   -5.8470    0.2240  -22.6260 H   0  0  0  0  0  0  0  0  0  0  0  0
   -4.0540    1.8570  -22.9590 H   0  0  0  0  0  0  0  0  0  0  0  0
   -2.6350    2.5790  -21.0490 H   0  0  0  0  0  0  0  0  0  0  0  0
   -3.1210    1.7560  -18.7600 H   0  0  0  0  0  0  0  0  0  0  0  0
   -4.6350    0.5720  -17.2150 H   0  0  0  0  0  0  0  0  0  0  0  0
   -7.7860   -1.7020  -18.5890 H   0  0  0  0  0  0  0  0  0  0  0  0
   -6.9500   -2.5700  -21.9740 C   0  0  0  0  0  0  0  0  0  0  0  0
   -8.2550   -3.1020  -22.5940 C   0  0  2  0  0  0  0  0  0  0  0  0
   -8.0750   -3.8310  -23.9290 C   0  0  0  0  0  0  0  0  0  0  0  0
   -7.3760   -5.0770  -23.7470 N   0  0  0  0  0  0  0  0  0  0  0  0
   -6.9270   -5.8290  -24.8010 C   0  0  0  0  0  0  0  0  0  0  0  0
   -7.4280   -5.5110  -26.4340 S   0  0  0  0  0  0  0  0  0  0  0  0
   -6.4210   -6.8310  -26.9510 C   0  0  0  0  0  0  0  0  0  0  0  0
   -5.7920   -7.4470  -26.0060 N   0  0  0  0  0  0  0  0  0  0  0  0
   -6.0890   -6.9090  -24.7700 C   0  0  0  0  0  0  0  0  0  0  0  0
   -5.5380   -7.5610  -23.5380 C   0  0  0  0  0  0  0  0  0  0  0  0
   -5.0130   -8.4760  -23.8260 H   0  0  0  0  0  0  0  0  0  0  0  0
   -6.3440   -7.8310  -22.8430 H   0  0  0  0  0  0  0  0  0  0  0  0
   -4.8340   -6.9140  -23.0000 H   0  0  0  0  0  0  0  0  0  0  0  0
   -6.3570   -7.1050  -27.9980 H   0  0  0  0  0  0  0  0  0  0  0  0
   -6.9860   -5.2760  -22.8400 H   0  0  0  0  0  0  0  0  0  0  0  0
   -7.5160   -3.1930  -24.6320 H   0  0  0  0  0  0  0  0  0  0  0  0
   -9.0630   -4.0200  -24.3690 H   0  0  0  0  0  0  0  0  0  0  0  0
   -8.6620   -3.8210  -21.8760 H   0  0  0  0  0  0  0  0  0  0  0  0
   -6.4500   -3.3150  -21.3460 H   0  0  0  0  0  0  0  0  0  0  0  0
   -6.2300   -2.2470  -22.7430 H   0  0  0  0  0  0  0  0  0  0  0  0
  -10.6950   -2.1990  -22.4520 C   0  0  0  0  0  0  0  0  0  0  0  0
  -11.1380   -3.2860  -21.6880 C   0  0  0  0  0  0  0  0  0  0  0  0
  -12.4860   -3.4530  -21.4130 C   0  0  0  0  0  0  0  0  0  0  0  0
  -12.9860   -4.7390  -20.3470 Cl  0  0  0  0  0  0  0  0  0  0  0  0
  -13.4540   -2.5910  -21.9260 C   0  0  0  0  0  0  0  0  0  0  0  0
  -13.0290   -1.5300  -22.6980 C   0  0  0  0  0  0  0  0  0  0  0  0
  -11.6740   -1.3220  -22.9450 C   0  0  0  0  0  0  0  0  0  0  0  0
  -11.3130   -0.0880  -23.7090 C   0  0  0  0  0  0  0  0  0  0  0  0
  -12.1560    0.7430  -24.0350 O   0  0  0  0  0  0  0  0  0  0  0  0
  -13.7320   -0.8210  -23.1190 H   0  0  0  0  0  0  0  0  0  0  0  0
  -14.5050   -2.7430  -21.7050 H   0  0  0  0  0  0  0  0  0  0  0  0
  -10.4510   -3.9970  -21.2430 H   0  0  0  0  0  0  0  0  0  0  0  0
   -8.0650   -0.7220  -24.0960 H   0  0  0  0  0  0  0  0  0  0  0  0
   -9.3080   -1.7600  -24.8230 H   0  0  0  0  0  0  0  0  0  0  0  0
  -10.4130    1.9400  -24.6900 H   0  0  0  0  0  0  0  0  0  0  0  0
   -9.1990    1.0870  -25.6640 H   0  0  0  0  0  0  0  0  0  0  0  0
   -9.5450    2.4870  -22.2390 H   0  0  0  0  0  0  0  0  0  0  0  0
   -7.8920    3.9460  -21.2890 H   0  0  0  0  0  0  0  0  0  0  0  0
   -6.8390    3.6220  -22.6890 H   0  0  0  0  0  0  0  0  0  0  0  0
   -7.0630    2.3810  -21.4270 H   0  0  0  0  0  0  0  0  0  0  0  0
  1  2  1  0  0  0  0
  1 65  1  0  0  0  0
  1 66  1  0  0  0  0
  1 67  1  0  0  0  0
  2  3  1  0  0  0  0
  2 64  1  0  0  0  0
  3  4  2  0  0  0  0
  3  5  1  0  0  0  0
  5  6  1  0  0  0  0
  5 62  1  0  0  0  0
  5 63  1  0  0  0  0
  6  7  1  0  0  0  0
  6 55  1  0  0  0  0
  7  8  1  0  0  0  0
  7 60  1  0  0  0  0
  7 61  1  0  0  0  0
  8  9  1  1  0  0  0
  8 29  1  0  0  0  0
  8 48  1  0  0  0  0
  9 10  2  0  0  0  0
  9 11  1  0  0  0  0
 11 12  1  0  0  0  0
 11 28  1  0  0  0  0
 12 13  2  0  0  0  0
 12 21  1  0  0  0  0
 13 14  1  0  0  0  0
 13 27  1  0  0  0  0
 14 15  2  0  0  0  0
 15 16  1  0  0  0  0
 15 26  1  0  0  0  0
 16 17  2  0  0  0  0
 16 21  1  0  0  0  0
 17 18  1  0  0  0  0
 17 25  1  0  0  0  0
 18 19  2  0  0  0  0
 18 24  1  0  0  0  0
 19 20  1  0  0  0  0
 19 23  1  0  0  0  0
 20 21  2  0  0  0  0
 20 22  1  0  0  0  0
 28 29  1  0  0  0  0
 28 46  1  0  0  0  0
 28 47  1  0  0  0  0
 29 30  1  0  0  0  0
 29 45  1  1  0  0  0
 30 31  1  0  0  0  0
 30 43  1  0  0  0  0
 30 44  1  0  0  0  0
 31 32  1  0  0  0  0
 31 42  1  0  0  0  0
 32 33  1  0  0  0  0
 32 36  2  0  0  0  0
 33 34  1  0  0  0  0
 34 35  2  0  0  0  0
 34 41  1  0  0  0  0
 35 36  1  0  0  0  0
 36 37  1  0  0  0  0
 37 38  1  0  0  0  0
 37 39  1  0  0  0  0
 37 40  1  0  0  0  0
 48 49  2  0  0  0  0
 48 54  1  0  0  0  0
 49 50  1  0  0  0  0
 49 59  1  0  0  0  0
 50 51  1  0  0  0  0
 50 52  2  0  0  0  0
 52 53  1  0  0  0  0
 52 58  1  0  0  0  0
 53 54  2  0  0  0  0
 53 57  1  0  0  0  0
 54 55  1  0  0  0  0
 55 56  2  0  0  0  0
M  END
>  <MODEL>
       1

$$$$
