tmp_first_model_3_28.pdb
 OpenBabel08272518143D

 64 68  0  0  1  0  0  0  0  0999 V2000
   -7.4540    3.3750  -21.8110 C   0  0  0  0  0  0  0  0  0  0  0  0
   -8.3770    2.9230  -22.8320 N   0  0  0  0  0  0  0  0  0  0  0  0
   -7.8420    2.1950  -23.8480 C   0  0  0  0  0  0  0  0  0  0  0  0
   -6.6350    2.0440  -23.9760 O   0  0  0  0  0  0  0  0  0  0  0  0
   -8.8270    1.5850  -24.8380 C   0  0  0  0  0  0  0  0  0  0  0  0
   -9.4900    0.4160  -24.3050 N   0  0  0  0  0  0  0  0  0  0  0  0
   -8.7230   -0.8090  -24.1730 C   0  0  0  0  0  0  0  0  0  0  0  0
   -9.0620   -1.5550  -22.8690 C   0  0  2  0  0  0  0  0  0  0  0  0
   -8.5360   -0.7780  -21.6410 C   0  0  0  0  0  0  0  0  0  0  0  0
   -9.0230    0.2090  -21.1260 O   0  0  0  0  0  0  0  0  0  0  0  0
   -7.3920   -1.3990  -21.2010 N   0  0  0  0  0  0  0  0  0  0  0  0
   -6.6010   -0.8220  -20.1750 C   0  0  0  0  0  0  0  0  0  0  0  0
   -6.9210   -1.0460  -18.8610 C   0  0  0  0  0  0  0  0  0  0  0  0
   -6.2270   -0.5440  -17.8080 N   0  0  0  0  0  0  0  0  0  0  0  0
   -5.1860    0.2060  -18.0780 C   0  0  0  0  0  0  0  0  0  0  0  0
   -4.7430    0.5210  -19.3940 C   0  0  0  0  0  0  0  0  0  0  0  0
   -3.6180    1.3540  -19.6390 C   0  0  0  0  0  0  0  0  0  0  0  0
   -3.2330    1.6520  -20.9160 C   0  0  0  0  0  0  0  0  0  0  0  0
   -3.9570    1.1350  -22.0170 C   0  0  0  0  0  0  0  0  0  0  0  0
   -5.0490    0.3270  -21.8090 C   0  0  0  0  0  0  0  0  0  0  0  0
   -5.4690   -0.0050  -20.4910 C   0  0  0  0  0  0  0  0  0  0  0  0
   -5.6120   -0.0400  -22.6640 H   0  0  0  0  0  0  0  0  0  0  0  0
   -3.6600    1.3880  -23.0300 H   0  0  0  0  0  0  0  0  0  0  0  0
   -2.3780    2.3000  -21.0940 H   0  0  0  0  0  0  0  0  0  0  0  0
   -3.0890    1.7640  -18.7820 H   0  0  0  0  0  0  0  0  0  0  0  0
   -4.6250    0.6060  -17.2320 H   0  0  0  0  0  0  0  0  0  0  0  0
   -7.7840   -1.6620  -18.6140 H   0  0  0  0  0  0  0  0  0  0  0  0
   -7.0320   -2.5930  -21.9350 C   0  0  0  0  0  0  0  0  0  0  0  0
   -8.3000   -2.9110  -22.7490 C   0  0  2  0  0  0  0  0  0  0  0  0
   -8.0400   -3.6930  -24.0460 C   0  0  0  0  0  0  0  0  0  0  0  0
   -7.4470   -5.3430  -23.6910 S   0  0  0  0  0  0  0  0  0  0  0  0
   -6.0900   -5.2530  -23.1700 O   0  0  0  0  0  0  0  0  0  0  0  0
   -8.4770   -6.0660  -22.9550 O   0  0  0  0  0  0  0  0  0  0  0  0
   -7.2760   -5.9860  -25.2210 N   0  0  0  0  0  0  0  0  0  0  0  0
   -8.4740   -6.3710  -25.9670 C   0  0  0  0  0  0  0  0  0  0  0  0
   -8.9960   -5.4750  -26.3100 H   0  0  0  0  0  0  0  0  0  0  0  0
   -9.1700   -6.9820  -25.3850 H   0  0  0  0  0  0  0  0  0  0  0  0
   -8.1560   -6.9280  -26.8550 H   0  0  0  0  0  0  0  0  0  0  0  0
   -6.6120   -6.7460  -25.1240 H   0  0  0  0  0  0  0  0  0  0  0  0
   -8.9600   -3.8030  -24.6330 H   0  0  0  0  0  0  0  0  0  0  0  0
   -7.2720   -3.2210  -24.6650 H   0  0  0  0  0  0  0  0  0  0  0  0
   -8.9220   -3.5660  -22.1410 H   0  0  0  0  0  0  0  0  0  0  0  0
   -6.1740   -2.4070  -22.5950 H   0  0  0  0  0  0  0  0  0  0  0  0
   -6.7600   -3.4010  -21.2490 H   0  0  0  0  0  0  0  0  0  0  0  0
  -10.5680   -1.6410  -22.7700 C   0  0  0  0  0  0  0  0  0  0  0  0
  -11.1310   -2.5530  -21.8800 C   0  0  0  0  0  0  0  0  0  0  0  0
  -12.4970   -2.5990  -21.7080 C   0  0  0  0  0  0  0  0  0  0  0  0
  -13.1060   -3.6900  -20.4920 Cl  0  0  0  0  0  0  0  0  0  0  0  0
  -13.3490   -1.7600  -22.4320 C   0  0  0  0  0  0  0  0  0  0  0  0
  -12.8010   -0.8150  -23.2810 C   0  0  0  0  0  0  0  0  0  0  0  0
  -11.4140   -0.7300  -23.4170 C   0  0  0  0  0  0  0  0  0  0  0  0
  -10.8510    0.4230  -24.1860 C   0  0  0  0  0  0  0  0  0  0  0  0
  -11.5580    1.3160  -24.6340 O   0  0  0  0  0  0  0  0  0  0  0  0
  -13.4300   -0.1140  -23.8270 H   0  0  0  0  0  0  0  0  0  0  0  0
  -14.4190   -1.8510  -22.2970 H   0  0  0  0  0  0  0  0  0  0  0  0
  -10.4970   -3.2210  -21.3080 H   0  0  0  0  0  0  0  0  0  0  0  0
   -7.6630   -0.5420  -24.2010 H   0  0  0  0  0  0  0  0  0  0  0  0
   -8.9430   -1.4690  -25.0210 H   0  0  0  0  0  0  0  0  0  0  0  0
   -9.6200    2.2900  -25.1020 H   0  0  0  0  0  0  0  0  0  0  0  0
   -8.2340    1.3160  -25.7160 H   0  0  0  0  0  0  0  0  0  0  0  0
   -9.3340    2.7530  -22.5500 H   0  0  0  0  0  0  0  0  0  0  0  0
   -6.8760    2.5260  -21.4170 H   0  0  0  0  0  0  0  0  0  0  0  0
   -6.7380    4.0730  -22.2460 H   0  0  0  0  0  0  0  0  0  0  0  0
   -7.9900    3.8790  -21.0060 H   0  0  0  0  0  0  0  0  0  0  0  0
  1  2  1  0  0  0  0
  1 62  1  0  0  0  0
  1 63  1  0  0  0  0
  1 64  1  0  0  0  0
  2  3  1  0  0  0  0
  2 61  1  0  0  0  0
  3  4  2  0  0  0  0
  3  5  1  0  0  0  0
  5  6  1  0  0  0  0
  5 59  1  0  0  0  0
  5 60  1  0  0  0  0
  6  7  1  0  0  0  0
  6 52  1  0  0  0  0
  7  8  1  0  0  0  0
  7 57  1  0  0  0  0
  7 58  1  0  0  0  0
  8  9  1  1  0  0  0
  8 29  1  0  0  0  0
  8 45  1  0  0  0  0
  9 10  2  0  0  0  0
  9 11  1  0  0  0  0
 11 12  1  0  0  0  0
 11 28  1  0  0  0  0
 12 13  2  0  0  0  0
 12 21  1  0  0  0  0
 13 14  1  0  0  0  0
 13 27  1  0  0  0  0
 14 15  2  0  0  0  0
 15 16  1  0  0  0  0
 15 26  1  0  0  0  0
 16 17  2  0  0  0  0
 16 21  1  0  0  0  0
 17 18  1  0  0  0  0
 17 25  1  0  0  0  0
 18 19  2  0  0  0  0
 18 24  1  0  0  0  0
 19 20  1  0  0  0  0
 19 23  1  0  0  0  0
 20 21  2  0  0  0  0
 20 22  1  0  0  0  0
 28 29  1  0  0  0  0
 28 43  1  0  0  0  0
 28 44  1  0  0  0  0
 29 30  1  0  0  0  0
 29 42  1  1  0  0  0
 30 31  1  0  0  0  0
 30 40  1  0  0  0  0
 30 41  1  0  0  0  0
 31 32  2  0  0  0  0
 31 33  2  0  0  0  0
 31 34  1  0  0  0  0
 34 35  1  0  0  0  0
 34 39  1  0  0  0  0
 35 36  1  0  0  0  0
 35 37  1  0  0  0  0
 35 38  1  0  0  0  0
 45 46  2  0  0  0  0
 45 51  1  0  0  0  0
 46 47  1  0  0  0  0
 46 56  1  0  0  0  0
 47 48  1  0  0  0  0
 47 49  2  0  0  0  0
 49 50  1  0  0  0  0
 49 55  1  0  0  0  0
 50 51  2  0  0  0  0
 50 54  1  0  0  0  0
 51 52  1  0  0  0  0
 52 53  2  0  0  0  0
M  END
>  <MODEL>
       1

$$$$
