tmp_first_model_3_55.pdb
 OpenBabel08272518143D

 61 66  0  0  1  0  0  0  0  0999 V2000
   -7.0050   -5.4620  -25.0470 C   0  0  0  0  0  0  0  0  0  0  0  0
   -7.3280   -4.7940  -23.8530 O   0  0  0  0  0  0  0  0  0  0  0  0
   -7.9820   -3.5720  -24.0860 C   0  0  0  0  0  0  0  0  0  0  0  0
   -8.2760   -2.9100  -22.7460 C   0  0  1  0  0  0  0  0  0  0  0  0
   -6.9990   -2.5580  -21.9620 C   0  0  0  0  0  0  0  0  0  0  0  0
   -7.3820   -1.3810  -21.2060 N   0  0  0  0  0  0  0  0  0  0  0  0
   -6.5970   -0.8120  -20.1760 C   0  0  0  0  0  0  0  0  0  0  0  0
   -6.9200   -1.0390  -18.8630 C   0  0  0  0  0  0  0  0  0  0  0  0
   -6.2270   -0.5420  -17.8090 N   0  0  0  0  0  0  0  0  0  0  0  0
   -5.1890    0.2150  -18.0800 C   0  0  0  0  0  0  0  0  0  0  0  0
   -4.7500    0.5350  -19.3970 C   0  0  0  0  0  0  0  0  0  0  0  0
   -3.6290    1.3720  -19.6380 C   0  0  0  0  0  0  0  0  0  0  0  0
   -3.2430    1.6660  -20.9160 C   0  0  0  0  0  0  0  0  0  0  0  0
   -3.9470    1.1310  -22.0160 C   0  0  0  0  0  0  0  0  0  0  0  0
   -5.0240    0.3020  -21.8090 C   0  0  0  0  0  0  0  0  0  0  0  0
   -5.4620   -0.0060  -20.4910 C   0  0  0  0  0  0  0  0  0  0  0  0
   -5.5850   -0.0720  -22.6610 H   0  0  0  0  0  0  0  0  0  0  0  0
   -3.6300    1.3890  -23.0250 H   0  0  0  0  0  0  0  0  0  0  0  0
   -2.3880    2.3120  -21.0930 H   0  0  0  0  0  0  0  0  0  0  0  0
   -3.0950    1.7730  -18.7810 H   0  0  0  0  0  0  0  0  0  0  0  0
   -4.6240    0.6140  -17.2350 H   0  0  0  0  0  0  0  0  0  0  0  0
   -7.7840   -1.6550  -18.6220 H   0  0  0  0  0  0  0  0  0  0  0  0
   -8.5760   -0.8130  -21.5860 C   0  0  0  0  0  0  0  0  0  0  0  0
   -9.0860    0.1470  -21.0460 O   0  0  0  0  0  0  0  0  0  0  0  0
   -9.1090   -1.6000  -22.8040 C   0  0  1  0  0  0  0  0  0  0  0  0
   -8.8320   -0.8250  -24.1130 C   0  0  0  0  0  0  0  0  0  0  0  0
   -9.6500    0.3640  -24.2270 N   0  0  0  0  0  0  0  0  0  0  0  0
   -9.0300    1.5960  -24.6730 C   0  0  0  0  0  0  0  0  0  0  0  0
   -8.2320    2.2780  -23.6020 C   0  0  0  0  0  0  0  0  0  0  0  0
   -6.8920    2.3720  -23.4210 C   0  0  0  0  0  0  0  0  0  0  0  0
   -6.6790    3.1380  -22.2980 N   0  3  0  0  0  0  0  0  0  0  0  0
   -7.8540    3.5290  -21.7980 C   0  0  0  0  0  0  0  0  0  0  0  0
   -8.8170    3.0000  -22.5740 N   0  0  0  0  0  0  0  0  0  0  0  0
   -9.7910    2.9370  -22.2920 H   0  0  0  0  0  0  0  0  0  0  0  0
   -8.0020    4.2160  -20.9740 H   0  0  0  0  0  0  0  0  0  0  0  0
   -5.7790    3.1790  -21.8460 H   0  0  0  0  0  0  0  0  0  0  0  0
   -6.0500    1.9600  -23.9610 H   0  0  0  0  0  0  0  0  0  0  0  0
   -9.8430    2.2340  -25.0360 H   0  0  0  0  0  0  0  0  0  0  0  0
   -8.3890    1.3650  -25.5300 H   0  0  0  0  0  0  0  0  0  0  0  0
  -10.9990    0.3240  -24.0400 C   0  0  0  0  0  0  0  0  0  0  0  0
  -11.7470    1.2120  -24.4280 O   0  0  0  0  0  0  0  0  0  0  0  0
  -11.4940   -0.8660  -23.2860 C   0  0  0  0  0  0  0  0  0  0  0  0
  -12.8680   -0.9720  -23.1050 C   0  0  0  0  0  0  0  0  0  0  0  0
  -13.3800   -1.9160  -22.2440 C   0  0  0  0  0  0  0  0  0  0  0  0
  -12.4960   -2.7850  -21.6020 C   0  0  0  0  0  0  0  0  0  0  0  0
  -13.0750   -3.9400  -20.4360 Cl  0  0  0  0  0  0  0  0  0  0  0  0
  -11.1360   -2.7330  -21.8300 C   0  0  0  0  0  0  0  0  0  0  0  0
  -10.6060   -1.7690  -22.6880 C   0  0  0  0  0  0  0  0  0  0  0  0
  -10.4950   -3.4340  -21.3080 H   0  0  0  0  0  0  0  0  0  0  0  0
  -14.4400   -1.9520  -22.0310 H   0  0  0  0  0  0  0  0  0  0  0  0
  -13.5010   -0.2660  -23.6310 H   0  0  0  0  0  0  0  0  0  0  0  0
   -9.0450   -1.4920  -24.9560 H   0  0  0  0  0  0  0  0  0  0  0  0
   -7.7800   -0.5260  -24.1700 H   0  0  0  0  0  0  0  0  0  0  0  0
   -6.1570   -2.3510  -22.6360 H   0  0  0  0  0  0  0  0  0  0  0  0
   -6.6930   -3.3620  -21.2880 H   0  0  0  0  0  0  0  0  0  0  0  0
   -8.8310   -3.6410  -22.1600 H   0  0  0  0  0  0  0  0  0  0  0  0
   -8.9190   -3.7390  -24.6450 H   0  0  0  0  0  0  0  0  0  0  0  0
   -7.3440   -2.9110  -24.7010 H   0  0  0  0  0  0  0  0  0  0  0  0
   -6.5410   -6.4130  -24.7770 H   0  0  0  0  0  0  0  0  0  0  0  0
   -7.8980   -5.6700  -25.6600 H   0  0  0  0  0  0  0  0  0  0  0  0
   -6.2940   -4.8860  -25.6600 H   0  0  0  0  0  0  0  0  0  0  0  0
  1  2  1  0  0  0  0
  1 59  1  0  0  0  0
  1 60  1  0  0  0  0
  1 61  1  0  0  0  0
  2  3  1  0  0  0  0
  3  4  1  0  0  0  0
  3 57  1  0  0  0  0
  3 58  1  0  0  0  0
  4  5  1  0  0  0  0
  4 25  1  0  0  0  0
  4 56  1  1  0  0  0
  5  6  1  0  0  0  0
  5 54  1  0  0  0  0
  5 55  1  0  0  0  0
  6  7  1  0  0  0  0
  6 23  1  0  0  0  0
  7  8  2  0  0  0  0
  7 16  1  0  0  0  0
  8  9  1  0  0  0  0
  8 22  1  0  0  0  0
  9 10  2  0  0  0  0
 10 11  1  0  0  0  0
 10 21  1  0  0  0  0
 11 12  2  0  0  0  0
 11 16  1  0  0  0  0
 12 13  1  0  0  0  0
 12 20  1  0  0  0  0
 13 14  2  0  0  0  0
 13 19  1  0  0  0  0
 14 15  1  0  0  0  0
 14 18  1  0  0  0  0
 15 16  2  0  0  0  0
 15 17  1  0  0  0  0
 23 24  2  0  0  0  0
 25 23  1  1  0  0  0
 25 26  1  0  0  0  0
 25 48  1  0  0  0  0
 26 27  1  0  0  0  0
 26 52  1  0  0  0  0
 26 53  1  0  0  0  0
 27 28  1  0  0  0  0
 27 40  1  0  0  0  0
 28 29  1  0  0  0  0
 28 38  1  0  0  0  0
 28 39  1  0  0  0  0
 29 30  2  0  0  0  0
 29 33  1  0  0  0  0
 30 31  1  0  0  0  0
 30 37  1  0  0  0  0
 31 32  2  0  0  0  0
 31 36  1  0  0  0  0
 32 33  1  0  0  0  0
 32 35  1  0  0  0  0
 33 34  1  0  0  0  0
 40 41  2  0  0  0  0
 40 42  1  0  0  0  0
 42 43  2  0  0  0  0
 42 48  1  0  0  0  0
 43 44  1  0  0  0  0
 43 51  1  0  0  0  0
 44 45  2  0  0  0  0
 44 50  1  0  0  0  0
 45 46  1  0  0  0  0
 45 47  1  0  0  0  0
 47 48  2  0  0  0  0
 47 49  1  0  0  0  0
M  CHG  1  31   1
M  END
>  <MODEL>
       1

$$$$
