tmp_first_model_7_70.pdb
 OpenBabel08272520323D

 52 54  0  0  0  0  0  0  0  0999 V2000
   -4.7470   -5.0440  -26.7360 C   0  0  0  0  0  0  0  0  0  0  0  0
   -5.9480   -5.7450  -26.0900 C   0  0  0  0  0  0  0  0  0  0  0  0
   -6.3820   -6.9310  -26.9590 C   0  0  0  0  0  0  0  0  0  0  0  0
   -5.5180   -7.4120  -27.4310 H   0  0  0  0  0  0  0  0  0  0  0  0
   -7.0510   -6.6100  -27.7660 H   0  0  0  0  0  0  0  0  0  0  0  0
   -6.9040   -7.7020  -26.3850 H   0  0  0  0  0  0  0  0  0  0  0  0
   -7.0630   -4.7180  -25.8140 C   0  0  0  0  0  0  0  0  0  0  0  0
   -8.3090   -5.1040  -24.9670 C   0  0  0  0  0  0  0  0  0  0  0  0
   -9.2760   -5.9830  -25.7780 C   0  0  0  0  0  0  0  0  0  0  0  0
  -10.2230   -6.1170  -25.2400 H   0  0  0  0  0  0  0  0  0  0  0  0
   -9.5160   -5.5270  -26.7470 H   0  0  0  0  0  0  0  0  0  0  0  0
   -8.8860   -6.9870  -25.9730 H   0  0  0  0  0  0  0  0  0  0  0  0
   -9.0560   -3.7990  -24.5640 C   0  0  0  0  0  0  0  0  0  0  0  0
   -8.8710   -3.3590  -23.1000 C   0  0  0  0  0  0  0  0  0  0  0  0
   -7.5330   -3.6250  -22.5920 N   0  0  0  0  0  0  0  0  0  0  0  0
   -6.7680   -2.7650  -21.8370 C   0  0  0  0  0  0  0  0  0  0  0  0
   -5.5990   -3.0160  -21.5950 O   0  0  0  0  0  0  0  0  0  0  0  0
   -7.4190   -1.4780  -21.2640 C   0  0  0  0  0  0  0  0  0  0  0  0
   -6.5790   -0.8310  -20.1830 C   0  0  0  0  0  0  0  0  0  0  0  0
   -6.8720   -1.0450  -18.8630 C   0  0  0  0  0  0  0  0  0  0  0  0
   -6.1840   -0.5420  -17.8050 N   0  0  0  0  0  0  0  0  0  0  0  0
   -5.1550    0.2230  -18.0690 C   0  0  0  0  0  0  0  0  0  0  0  0
   -4.7180    0.5300  -19.3830 C   0  0  0  0  0  0  0  0  0  0  0  0
   -3.5880    1.3540  -19.6230 C   0  0  0  0  0  0  0  0  0  0  0  0
   -3.1880    1.6320  -20.9010 C   0  0  0  0  0  0  0  0  0  0  0  0
   -3.9030    1.0920  -21.9920 C   0  0  0  0  0  0  0  0  0  0  0  0
   -4.9980    0.2880  -21.7870 C   0  0  0  0  0  0  0  0  0  0  0  0
   -5.4440   -0.0130  -20.4750 C   0  0  0  0  0  0  0  0  0  0  0  0
   -5.5230   -0.1360  -22.6370 H   0  0  0  0  0  0  0  0  0  0  0  0
   -3.5780    1.3170  -23.0040 H   0  0  0  0  0  0  0  0  0  0  0  0
   -2.3280    2.2720  -21.0840 H   0  0  0  0  0  0  0  0  0  0  0  0
   -3.0570    1.7740  -18.7710 H   0  0  0  0  0  0  0  0  0  0  0  0
   -4.6020    0.6280  -17.2170 H   0  0  0  0  0  0  0  0  0  0  0  0
   -7.7200   -1.6690  -18.5840 H   0  0  0  0  0  0  0  0  0  0  0  0
   -7.6030   -0.7620  -22.0770 H   0  0  0  0  0  0  0  0  0  0  0  0
   -8.4060   -1.7250  -20.8440 H   0  0  0  0  0  0  0  0  0  0  0  0
   -7.0260   -4.9910  -22.7600 C   0  0  0  0  0  0  0  0  0  0  0  0
   -7.9160   -5.8300  -23.6760 C   0  0  0  0  0  0  0  0  0  0  0  0
   -7.4030   -6.7670  -23.9180 H   0  0  0  0  0  0  0  0  0  0  0  0
   -8.8210   -6.1420  -23.1410 H   0  0  0  0  0  0  0  0  0  0  0  0
   -6.9470   -5.4810  -21.7820 H   0  0  0  0  0  0  0  0  0  0  0  0
   -6.0050   -4.9450  -23.1540 H   0  0  0  0  0  0  0  0  0  0  0  0
   -9.0730   -2.2890  -23.0270 H   0  0  0  0  0  0  0  0  0  0  0  0
   -9.6210   -3.8620  -22.4740 H   0  0  0  0  0  0  0  0  0  0  0  0
   -8.7560   -2.9840  -25.2310 H   0  0  0  0  0  0  0  0  0  0  0  0
  -10.1340   -3.9140  -24.7250 H   0  0  0  0  0  0  0  0  0  0  0  0
   -6.5960   -3.8460  -25.3350 H   0  0  0  0  0  0  0  0  0  0  0  0
   -7.4200   -4.3430  -26.7850 H   0  0  0  0  0  0  0  0  0  0  0  0
   -5.5950   -6.1430  -25.1320 H   0  0  0  0  0  0  0  0  0  0  0  0
   -4.3710   -4.2220  -26.1150 H   0  0  0  0  0  0  0  0  0  0  0  0
   -5.0040   -4.6320  -27.7200 H   0  0  0  0  0  0  0  0  0  0  0  0
   -3.9160   -5.7440  -26.8880 H   0  0  0  0  0  0  0  0  0  0  0  0
  1  2  1  0  0  0  0
  1 50  1  0  0  0  0
  1 51  1  0  0  0  0
  1 52  1  0  0  0  0
  2  3  1  0  0  0  0
  2  7  1  0  0  0  0
  2 49  1  0  0  0  0
  3  4  1  0  0  0  0
  3  5  1  0  0  0  0
  3  6  1  0  0  0  0
  7  8  1  0  0  0  0
  7 47  1  0  0  0  0
  7 48  1  0  0  0  0
  8  9  1  0  0  0  0
  8 13  1  0  0  0  0
  8 38  1  0  0  0  0
  9 10  1  0  0  0  0
  9 11  1  0  0  0  0
  9 12  1  0  0  0  0
 13 14  1  0  0  0  0
 13 45  1  0  0  0  0
 13 46  1  0  0  0  0
 14 15  1  0  0  0  0
 14 43  1  0  0  0  0
 14 44  1  0  0  0  0
 15 16  1  0  0  0  0
 15 37  1  0  0  0  0
 16 17  2  0  0  0  0
 16 18  1  0  0  0  0
 18 19  1  0  0  0  0
 18 35  1  0  0  0  0
 18 36  1  0  0  0  0
 19 20  2  0  0  0  0
 19 28  1  0  0  0  0
 20 21  1  0  0  0  0
 20 34  1  0  0  0  0
 21 22  2  0  0  0  0
 22 23  1  0  0  0  0
 22 33  1  0  0  0  0
 23 24  2  0  0  0  0
 23 28  1  0  0  0  0
 24 25  1  0  0  0  0
 24 32  1  0  0  0  0
 25 26  2  0  0  0  0
 25 31  1  0  0  0  0
 26 27  1  0  0  0  0
 26 30  1  0  0  0  0
 27 28  2  0  0  0  0
 27 29  1  0  0  0  0
 37 38  1  0  0  0  0
 37 41  1  0  0  0  0
 37 42  1  0  0  0  0
 38 39  1  0  0  0  0
 38 40  1  0  0  0  0
M  END
>  <MODEL>
       1

$$$$
