tmp_first_model_16_74.pdb
 OpenBabel08282501503D

 43 47  0  0  1  0  0  0  0  0999 V2000
   -9.4140   -0.4330  -21.0050 O   0  0  0  0  0  0  0  0  0  0  0  0
   -8.7420   -1.3600  -21.3950 C   0  0  0  0  0  0  0  0  0  0  0  0
   -9.1390   -2.4510  -22.1160 N   0  0  0  0  0  0  0  0  0  0  0  0
   -8.0410   -3.1510  -22.7400 C   0  0  1  0  0  0  0  0  0  0  0  0
   -8.1050   -4.6920  -22.7140 C   0  0  0  0  0  0  0  0  0  0  0  0
   -8.2250   -4.7240  -24.2740 C   0  0  2  0  0  0  0  0  0  0  0  0
   -7.1780   -5.5210  -24.9890 C   0  0  0  0  0  0  0  0  0  0  0  0
   -5.8220   -5.2780  -24.7420 C   0  0  0  0  0  0  0  0  0  0  0  0
   -4.8300   -6.0090  -25.3860 C   0  0  0  0  0  0  0  0  0  0  0  0
   -5.1790   -7.0050  -26.2980 C   0  0  0  0  0  0  0  0  0  0  0  0
   -6.5190   -7.2610  -26.5610 C   0  0  0  0  0  0  0  0  0  0  0  0
   -7.4990   -6.5260  -25.9030 C   0  0  0  0  0  0  0  0  0  0  0  0
   -9.1680   -6.9170  -26.2540 Cl  0  0  0  0  0  0  0  0  0  0  0  0
   -6.8270   -8.0370  -27.2560 H   0  0  0  0  0  0  0  0  0  0  0  0
   -4.4080   -7.5860  -26.7990 H   0  0  0  0  0  0  0  0  0  0  0  0
   -3.7850   -5.7970  -25.1750 H   0  0  0  0  0  0  0  0  0  0  0  0
   -5.5520   -4.4970  -24.0260 H   0  0  0  0  0  0  0  0  0  0  0  0
   -8.0340   -3.1710  -24.2960 C   0  0  0  0  0  0  0  0  0  0  0  0
   -8.8530   -2.6020  -24.7500 H   0  0  0  0  0  0  0  0  0  0  0  0
   -7.0960   -2.8310  -24.7550 H   0  0  0  0  0  0  0  0  0  0  0  0
   -9.2230   -5.0240  -24.6060 H   0  0  0  0  0  0  0  0  0  0  0  0
   -8.9670   -5.0730  -22.1600 H   0  0  0  0  0  0  0  0  0  0  0  0
   -7.1930   -5.1550  -22.3180 H   0  0  0  0  0  0  0  0  0  0  0  0
   -6.8410   -2.5180  -22.0600 C   0  0  0  0  0  0  0  0  0  0  0  0
   -5.6780   -2.8130  -22.2290 O   0  0  0  0  0  0  0  0  0  0  0  0
   -7.3420   -1.5040  -21.2350 N   0  0  0  0  0  0  0  0  0  0  0  0
   -6.5990   -0.8610  -20.2040 C   0  0  0  0  0  0  0  0  0  0  0  0
   -6.9380   -1.0870  -18.8920 C   0  0  0  0  0  0  0  0  0  0  0  0
   -6.1990   -0.6600  -17.8430 N   0  0  0  0  0  0  0  0  0  0  0  0
   -5.1310    0.0540  -18.1040 C   0  0  0  0  0  0  0  0  0  0  0  0
   -4.7330    0.4630  -19.4100 C   0  0  0  0  0  0  0  0  0  0  0  0
   -3.6230    1.3280  -19.6310 C   0  0  0  0  0  0  0  0  0  0  0  0
   -3.2410    1.6550  -20.9030 C   0  0  0  0  0  0  0  0  0  0  0  0
   -3.9640    1.1470  -22.0060 C   0  0  0  0  0  0  0  0  0  0  0  0
   -5.0580    0.3380  -21.8200 C   0  0  0  0  0  0  0  0  0  0  0  0
   -5.4740   -0.0250  -20.5060 C   0  0  0  0  0  0  0  0  0  0  0  0
   -5.6000   -0.0480  -22.6770 H   0  0  0  0  0  0  0  0  0  0  0  0
   -3.6420    1.3980  -23.0110 H   0  0  0  0  0  0  0  0  0  0  0  0
   -2.3780    2.2930  -21.0790 H   0  0  0  0  0  0  0  0  0  0  0  0
   -3.0980    1.7300  -18.7700 H   0  0  0  0  0  0  0  0  0  0  0  0
   -4.5250    0.3390  -17.2440 H   0  0  0  0  0  0  0  0  0  0  0  0
   -7.8090   -1.6880  -18.6340 H   0  0  0  0  0  0  0  0  0  0  0  0
  -10.1040   -2.5970  -22.3680 H   0  0  0  0  0  0  0  0  0  0  0  0
  1  2  2  0  0  0  0
  2  3  1  0  0  0  0
  2 26  1  0  0  0  0
  3  4  1  0  0  0  0
  3 43  1  0  0  0  0
  4  5  1  0  0  0  0
  4 18  1  0  0  0  0
  4 24  1  1  0  0  0
  5  6  1  0  0  0  0
  5 22  1  0  0  0  0
  5 23  1  0  0  0  0
  6  7  1  0  0  0  0
  6 18  1  0  0  0  0
  6 21  1  6  0  0  0
  7  8  2  0  0  0  0
  7 12  1  0  0  0  0
  8  9  1  0  0  0  0
  8 17  1  0  0  0  0
  9 10  2  0  0  0  0
  9 16  1  0  0  0  0
 10 11  1  0  0  0  0
 10 15  1  0  0  0  0
 11 12  2  0  0  0  0
 11 14  1  0  0  0  0
 12 13  1  0  0  0  0
 18 19  1  0  0  0  0
 18 20  1  0  0  0  0
 24 25  2  0  0  0  0
 24 26  1  0  0  0  0
 26 27  1  0  0  0  0
 27 28  2  0  0  0  0
 27 36  1  0  0  0  0
 28 29  1  0  0  0  0
 28 42  1  0  0  0  0
 29 30  2  0  0  0  0
 30 31  1  0  0  0  0
 30 41  1  0  0  0  0
 31 32  2  0  0  0  0
 31 36  1  0  0  0  0
 32 33  1  0  0  0  0
 32 40  1  0  0  0  0
 33 34  2  0  0  0  0
 33 39  1  0  0  0  0
 34 35  1  0  0  0  0
 34 38  1  0  0  0  0
 35 36  2  0  0  0  0
 35 37  1  0  0  0  0
M  END
>  <MODEL>
       1

$$$$
