tmp_first_model_18_18.pdb
 OpenBabel08282502533D

 56 61  0  0  1  0  0  0  0  0999 V2000
  -10.2340   -2.9210  -22.0350 C   0  0  0  0  0  0  0  0  0  0  0  0
   -9.1890   -1.9700  -22.6420 C   0  0  1  0  0  0  0  0  0  0  0  0
   -8.7110   -0.9440  -21.5910 C   0  0  0  0  0  0  0  0  0  0  0  0
   -7.4060   -1.4180  -21.1900 N   0  0  0  0  0  0  0  0  0  0  0  0
   -6.6220   -0.8160  -20.1750 C   0  0  0  0  0  0  0  0  0  0  0  0
   -6.9490   -1.0220  -18.8600 C   0  0  0  0  0  0  0  0  0  0  0  0
   -6.2600   -0.5210  -17.8050 N   0  0  0  0  0  0  0  0  0  0  0  0
   -5.2150    0.2250  -18.0730 C   0  0  0  0  0  0  0  0  0  0  0  0
   -4.7710    0.5300  -19.3910 C   0  0  0  0  0  0  0  0  0  0  0  0
   -3.6380    1.3560  -19.6160 C   0  0  0  0  0  0  0  0  0  0  0  0
   -3.2410    1.6570  -20.8890 C   0  0  0  0  0  0  0  0  0  0  0  0
   -3.9570    1.1420  -21.9940 C   0  0  0  0  0  0  0  0  0  0  0  0
   -5.0530    0.3370  -21.8070 C   0  0  0  0  0  0  0  0  0  0  0  0
   -5.4880    0.0020  -20.4890 C   0  0  0  0  0  0  0  0  0  0  0  0
   -5.5850   -0.0570  -22.6740 H   0  0  0  0  0  0  0  0  0  0  0  0
   -3.6360    1.3890  -23.0030 H   0  0  0  0  0  0  0  0  0  0  0  0
   -2.3800    2.2970  -21.0620 H   0  0  0  0  0  0  0  0  0  0  0  0
   -3.1050    1.7470  -18.7530 H   0  0  0  0  0  0  0  0  0  0  0  0
   -4.6560    0.6280  -17.2260 H   0  0  0  0  0  0  0  0  0  0  0  0
   -7.8070   -1.6470  -18.6130 H   0  0  0  0  0  0  0  0  0  0  0  0
   -6.8870   -2.3890  -22.0080 C   0  0  0  0  0  0  0  0  0  0  0  0
   -5.8010   -2.9070  -21.8520 O   0  0  0  0  0  0  0  0  0  0  0  0
   -7.8880   -2.6700  -23.1500 C   0  0  1  0  0  0  0  0  0  0  0  0
   -8.0790   -4.1930  -23.3820 C   0  0  0  0  0  0  0  0  0  0  0  0
   -6.8790   -4.8340  -23.9110 N   0  0  0  0  0  0  0  0  0  0  0  0
   -6.4890   -6.1950  -23.5060 C   0  0  0  0  0  0  0  0  0  0  0  0
   -5.3750   -6.2020  -22.5490 C   0  0  0  0  0  0  0  0  0  0  0  0
   -3.8680   -5.9880  -22.9180 C   0  0  0  0  0  0  0  0  0  0  0  0
   -3.9750   -6.1140  -23.0420 C   0  0  0  0  0  0  0  0  0  0  0  0
   -4.7990   -5.8750  -20.4720 N   0  0  0  0  0  0  0  0  0  0  0  0
   -5.7660   -6.1450  -21.2440 N   0  0  0  0  0  0  0  0  0  0  0  0
   -5.2040   -5.7660  -19.5370 H   0  0  0  0  0  0  0  0  0  0  0  0
   -1.5900   -5.4710  -23.0320 H   0  0  0  0  0  0  0  0  0  0  0  0
   -2.9380   -6.2540  -23.6290 H   0  0  0  0  0  0  0  0  0  0  0  0
   -7.3480   -6.6620  -23.0200 H   0  0  0  0  0  0  0  0  0  0  0  0
   -6.2690   -6.7490  -24.4290 H   0  0  0  0  0  0  0  0  0  0  0  0
   -6.1020   -4.2440  -24.8680 C   0  0  0  0  0  0  0  0  0  0  0  0
   -5.1490   -4.8230  -25.3750 O   0  0  0  0  0  0  0  0  0  0  0  0
   -6.5180   -2.8550  -25.2800 C   0  0  0  0  0  0  0  0  0  0  0  0
   -6.0410   -2.3500  -26.4910 C   0  0  0  0  0  0  0  0  0  0  0  0
   -6.3000   -1.0430  -26.8540 C   0  0  0  0  0  0  0  0  0  0  0  0
   -7.0280   -0.2530  -25.9730 C   0  0  0  0  0  0  0  0  0  0  0  0
   -7.2400    1.0350  -26.2940 F   0  0  0  0  0  0  0  0  0  0  0  0
   -7.5400   -0.7370  -24.7850 C   0  0  0  0  0  0  0  0  0  0  0  0
   -7.3330   -2.0780  -24.4450 C   0  0  0  0  0  0  0  0  0  0  0  0
   -8.0940   -0.0570  -24.1500 H   0  0  0  0  0  0  0  0  0  0  0  0
   -5.9360   -0.6110  -27.7790 H   0  0  0  0  0  0  0  0  0  0  0  0
   -5.4590   -3.0000  -27.1370 H   0  0  0  0  0  0  0  0  0  0  0  0
   -8.9000   -4.3270  -24.0980 H   0  0  0  0  0  0  0  0  0  0  0  0
   -8.3680   -4.6740  -22.4420 H   0  0  0  0  0  0  0  0  0  0  0  0
   -9.3790   -0.9170  -20.7340 H   0  0  0  0  0  0  0  0  0  0  0  0
   -8.6600    0.0770  -21.9950 H   0  0  0  0  0  0  0  0  0  0  0  0
   -9.6770   -1.4650  -23.4850 H   0  0  0  0  0  0  0  0  0  0  0  0
  -11.0980   -2.3550  -21.6720 H   0  0  0  0  0  0  0  0  0  0  0  0
   -9.8240   -3.4820  -21.1870 H   0  0  0  0  0  0  0  0  0  0  0  0
  -10.6040   -3.6380  -22.7750 H   0  0  0  0  0  0  0  0  0  0  0  0
  1  2  1  0  0  0  0
  1 54  1  0  0  0  0
  1 55  1  0  0  0  0
  1 56  1  0  0  0  0
  2  3  1  0  0  0  0
  2 23  1  0  0  0  0
  2 53  1  6  0  0  0
  3  4  1  0  0  0  0
  3 51  1  0  0  0  0
  3 52  1  0  0  0  0
  4  5  1  0  0  0  0
  4 21  1  0  0  0  0
  5  6  2  0  0  0  0
  5 14  1  0  0  0  0
  6  7  1  0  0  0  0
  6 20  1  0  0  0  0
  7  8  2  0  0  0  0
  8  9  1  0  0  0  0
  8 19  1  0  0  0  0
  9 10  2  0  0  0  0
  9 14  1  0  0  0  0
 10 11  1  0  0  0  0
 10 18  1  0  0  0  0
 11 12  2  0  0  0  0
 11 17  1  0  0  0  0
 12 13  1  0  0  0  0
 12 16  1  0  0  0  0
 13 14  2  0  0  0  0
 13 15  1  0  0  0  0
 21 22  2  0  0  0  0
 23 21  1  1  0  0  0
 23 24  1  0  0  0  0
 23 45  1  0  0  0  0
 24 25  1  0  0  0  0
 24 49  1  0  0  0  0
 24 50  1  0  0  0  0
 25 26  1  0  0  0  0
 25 37  1  0  0  0  0
 26 27  1  0  0  0  0
 26 35  1  0  0  0  0
 26 36  1  0  0  0  0
 27 28  1  0  0  0  0
 27 31  2  0  0  0  0
 28 29  2  0  0  0  0
 28 34  1  0  0  0  0
 29 30  1  0  0  0  0
 29 33  1  0  0  0  0
 30 31  1  0  0  0  0
 30 32  1  0  0  0  0
 37 38  2  0  0  0  0
 37 39  1  0  0  0  0
 39 40  2  0  0  0  0
 39 45  1  0  0  0  0
 40 41  1  0  0  0  0
 40 48  1  0  0  0  0
 41 42  2  0  0  0  0
 41 47  1  0  0  0  0
 42 43  1  0  0  0  0
 42 44  1  0  0  0  0
 44 45  2  0  0  0  0
 44 46  1  0  0  0  0
M  END
>  <MODEL>
       1

$$$$
