tmp_first_model_9_4.pdb
 OpenBabel08272521403D

 59 64  0  0  1  0  0  0  0  0999 V2000
   -8.0720   -3.8370  -23.8630 C   0  0  0  0  0  0  0  0  0  0  0  0
   -8.4140   -2.8540  -22.7350 C   0  0  1  0  0  0  0  0  0  0  0  0
   -7.2610   -2.7010  -21.7200 C   0  0  0  0  0  0  0  0  0  0  0  0
   -7.4330   -1.3590  -21.1970 N   0  0  0  0  0  0  0  0  0  0  0  0
   -6.6120   -0.7990  -20.1820 C   0  0  0  0  0  0  0  0  0  0  0  0
   -6.8950   -1.0510  -18.8650 C   0  0  0  0  0  0  0  0  0  0  0  0
   -6.1870   -0.5590  -17.8210 N   0  0  0  0  0  0  0  0  0  0  0  0
   -5.1620    0.2110  -18.0880 C   0  0  0  0  0  0  0  0  0  0  0  0
   -4.7350    0.5340  -19.4060 C   0  0  0  0  0  0  0  0  0  0  0  0
   -3.6020    1.3600  -19.6450 C   0  0  0  0  0  0  0  0  0  0  0  0
   -3.2030    1.6410  -20.9220 C   0  0  0  0  0  0  0  0  0  0  0  0
   -3.9160    1.1010  -22.0190 C   0  0  0  0  0  0  0  0  0  0  0  0
   -5.0120    0.3010  -21.8130 C   0  0  0  0  0  0  0  0  0  0  0  0
   -5.4690    0.0100  -20.4950 C   0  0  0  0  0  0  0  0  0  0  0  0
   -5.5390   -0.1170  -22.6680 H   0  0  0  0  0  0  0  0  0  0  0  0
   -3.6060    1.3170  -23.0370 H   0  0  0  0  0  0  0  0  0  0  0  0
   -2.3470    2.2860  -21.0960 H   0  0  0  0  0  0  0  0  0  0  0  0
   -3.0780    1.7720  -18.7850 H   0  0  0  0  0  0  0  0  0  0  0  0
   -4.6180    0.6160  -17.2340 H   0  0  0  0  0  0  0  0  0  0  0  0
   -7.7430   -1.6790  -18.6000 H   0  0  0  0  0  0  0  0  0  0  0  0
   -8.2410   -0.5590  -21.9720 C   0  0  0  0  0  0  0  0  0  0  0  0
   -8.4390    0.6180  -21.7510 O   0  0  0  0  0  0  0  0  0  0  0  0
   -8.7920   -1.3950  -23.1520 C   0  0  1  0  0  0  0  0  0  0  0  0
   -8.0670   -0.9690  -24.4550 C   0  0  0  0  0  0  0  0  0  0  0  0
   -8.4360    0.3700  -24.8670 N   0  0  0  0  0  0  0  0  0  0  0  0
   -7.3870    1.3710  -25.0200 C   0  0  0  0  0  0  0  0  0  0  0  0
   -6.2960    0.9680  -25.9730 C   0  0  0  0  0  0  0  0  0  0  0  0
   -5.0460    0.7280  -25.6280 N   0  0  0  0  0  0  0  0  0  0  0  0
   -4.4130    0.3480  -26.7840 C   0  0  0  0  0  0  0  0  0  0  0  0
   -5.2930    0.3650  -27.8320 C   0  0  0  0  0  0  0  0  0  0  0  0
   -6.5010    0.7710  -27.3050 N   0  0  0  0  0  0  0  0  0  0  0  0
   -7.7500    0.9200  -28.0290 C   0  0  0  0  0  0  0  0  0  0  0  0
   -8.4600    0.1340  -27.7540 H   0  0  0  0  0  0  0  0  0  0  0  0
   -8.2050    1.8960  -27.8270 H   0  0  0  0  0  0  0  0  0  0  0  0
   -7.5260    0.8470  -29.0970 H   0  0  0  0  0  0  0  0  0  0  0  0
   -5.1930    0.1280  -28.8800 H   0  0  0  0  0  0  0  0  0  0  0  0
   -3.3650    0.0710  -26.7790 H   0  0  0  0  0  0  0  0  0  0  0  0
   -7.8930    2.2860  -25.3430 H   0  0  0  0  0  0  0  0  0  0  0  0
   -6.9080    1.5540  -24.0480 H   0  0  0  0  0  0  0  0  0  0  0  0
   -9.7520    0.7110  -25.0030 C   0  0  0  0  0  0  0  0  0  0  0  0
  -10.1280    1.6610  -25.6820 O   0  0  0  0  0  0  0  0  0  0  0  0
  -10.7230   -0.1390  -24.2320 C   0  0  0  0  0  0  0  0  0  0  0  0
  -12.0820    0.1540  -24.3510 C   0  0  0  0  0  0  0  0  0  0  0  0
  -13.0220   -0.5280  -23.6050 C   0  0  0  0  0  0  0  0  0  0  0  0
  -12.5640   -1.4330  -22.6550 C   0  0  0  0  0  0  0  0  0  0  0  0
  -13.4610   -2.0270  -21.8510 F   0  0  0  0  0  0  0  0  0  0  0  0
  -11.2240   -1.7180  -22.4880 C   0  0  0  0  0  0  0  0  0  0  0  0
  -10.2770   -1.1180  -23.3300 C   0  0  0  0  0  0  0  0  0  0  0  0
  -10.9460   -2.3800  -21.6740 H   0  0  0  0  0  0  0  0  0  0  0  0
  -14.0850   -0.3410  -23.7040 H   0  0  0  0  0  0  0  0  0  0  0  0
  -12.3660    0.9730  -25.0010 H   0  0  0  0  0  0  0  0  0  0  0  0
   -6.9850   -0.9770  -24.3010 H   0  0  0  0  0  0  0  0  0  0  0  0
   -8.3170   -1.6790  -25.2580 H   0  0  0  0  0  0  0  0  0  0  0  0
   -7.3050   -3.4330  -20.9080 H   0  0  0  0  0  0  0  0  0  0  0  0
   -6.2820   -2.8240  -22.2140 H   0  0  0  0  0  0  0  0  0  0  0  0
   -9.2780   -3.2480  -22.1930 H   0  0  0  0  0  0  0  0  0  0  0  0
   -7.9020   -4.8460  -23.4670 H   0  0  0  0  0  0  0  0  0  0  0  0
   -8.8750   -3.9030  -24.6080 H   0  0  0  0  0  0  0  0  0  0  0  0
   -7.1580   -3.5360  -24.3900 H   0  0  0  0  0  0  0  0  0  0  0  0
  1  2  1  0  0  0  0
  1 57  1  0  0  0  0
  1 58  1  0  0  0  0
  1 59  1  0  0  0  0
  2  3  1  0  0  0  0
  2 23  1  0  0  0  0
  2 56  1  1  0  0  0
  3  4  1  0  0  0  0
  3 54  1  0  0  0  0
  3 55  1  0  0  0  0
  4  5  1  0  0  0  0
  4 21  1  0  0  0  0
  5  6  2  0  0  0  0
  5 14  1  0  0  0  0
  6  7  1  0  0  0  0
  6 20  1  0  0  0  0
  7  8  2  0  0  0  0
  8  9  1  0  0  0  0
  8 19  1  0  0  0  0
  9 10  2  0  0  0  0
  9 14  1  0  0  0  0
 10 11  1  0  0  0  0
 10 18  1  0  0  0  0
 11 12  2  0  0  0  0
 11 17  1  0  0  0  0
 12 13  1  0  0  0  0
 12 16  1  0  0  0  0
 13 14  2  0  0  0  0
 13 15  1  0  0  0  0
 21 22  2  0  0  0  0
 23 21  1  1  0  0  0
 23 24  1  0  0  0  0
 23 48  1  0  0  0  0
 24 25  1  0  0  0  0
 24 52  1  0  0  0  0
 24 53  1  0  0  0  0
 25 26  1  0  0  0  0
 25 40  1  0  0  0  0
 26 27  1  0  0  0  0
 26 38  1  0  0  0  0
 26 39  1  0  0  0  0
 27 28  2  0  0  0  0
 27 31  1  0  0  0  0
 28 29  1  0  0  0  0
 29 30  2  0  0  0  0
 29 37  1  0  0  0  0
 30 31  1  0  0  0  0
 30 36  1  0  0  0  0
 31 32  1  0  0  0  0
 32 33  1  0  0  0  0
 32 34  1  0  0  0  0
 32 35  1  0  0  0  0
 40 41  2  0  0  0  0
 40 42  1  0  0  0  0
 42 43  2  0  0  0  0
 42 48  1  0  0  0  0
 43 44  1  0  0  0  0
 43 51  1  0  0  0  0
 44 45  2  0  0  0  0
 44 50  1  0  0  0  0
 45 46  1  0  0  0  0
 45 47  1  0  0  0  0
 47 48  2  0  0  0  0
 47 49  1  0  0  0  0
M  END
>  <MODEL>
       1

$$$$
