tmp_first_model_15_46.pdb
 OpenBabel08282501153D

 50 54  0  0  1  0  0  0  0  0999 V2000
  -10.4560   -1.1460  -23.2800 C   0  0  0  0  0  0  0  0  0  0  0  0
   -9.0070   -1.4650  -22.9430 C   0  0  1  0  0  0  0  0  0  0  0  0
   -8.3980   -0.5130  -21.9060 C   0  0  0  0  0  0  0  0  0  0  0  0
   -7.4080   -1.3350  -21.2340 N   0  0  0  0  0  0  0  0  0  0  0  0
   -6.5930   -0.8470  -20.1910 C   0  0  0  0  0  0  0  0  0  0  0  0
   -6.9060   -1.1020  -18.8790 C   0  0  0  0  0  0  0  0  0  0  0  0
   -6.2390   -0.5770  -17.8200 N   0  0  0  0  0  0  0  0  0  0  0  0
   -5.2160    0.2030  -18.0810 C   0  0  0  0  0  0  0  0  0  0  0  0
   -4.7660    0.5130  -19.4000 C   0  0  0  0  0  0  0  0  0  0  0  0
   -3.6390    1.3400  -19.6320 C   0  0  0  0  0  0  0  0  0  0  0  0
   -3.2280    1.6050  -20.9090 C   0  0  0  0  0  0  0  0  0  0  0  0
   -3.9230    1.0640  -22.0140 C   0  0  0  0  0  0  0  0  0  0  0  0
   -5.0230    0.2650  -21.8170 C   0  0  0  0  0  0  0  0  0  0  0  0
   -5.4700   -0.0210  -20.4970 C   0  0  0  0  0  0  0  0  0  0  0  0
   -5.5470   -0.1580  -22.6680 H   0  0  0  0  0  0  0  0  0  0  0  0
   -3.5900    1.2910  -23.0210 H   0  0  0  0  0  0  0  0  0  0  0  0
   -2.3710    2.2460  -21.0840 H   0  0  0  0  0  0  0  0  0  0  0  0
   -3.1260    1.7600  -18.7720 H   0  0  0  0  0  0  0  0  0  0  0  0
   -4.6770    0.6330  -17.2340 H   0  0  0  0  0  0  0  0  0  0  0  0
   -7.7430   -1.7520  -18.6370 H   0  0  0  0  0  0  0  0  0  0  0  0
   -7.5510   -2.6820  -21.4670 C   0  0  0  0  0  0  0  0  0  0  0  0
   -6.7860   -3.5350  -21.0540 O   0  0  0  0  0  0  0  0  0  0  0  0
   -8.7790   -2.8980  -22.3560 C   0  0  1  0  0  0  0  0  0  0  0  0
   -9.9690   -3.3710  -21.4940 C   0  0  0  0  0  0  0  0  0  0  0  0
  -11.1060   -3.8060  -22.2920 N   0  0  0  0  0  0  0  0  0  0  0  0
  -12.4550   -3.7100  -21.7810 C   0  0  0  0  0  0  0  0  0  0  0  0
  -13.3720   -2.8790  -22.5900 C   0  0  0  0  0  0  0  0  0  0  0  0
  -14.1570   -2.2820  -23.1920 N   0  0  0  0  0  0  0  0  0  0  0  0
  -12.4350   -3.3060  -20.7720 H   0  0  0  0  0  0  0  0  0  0  0  0
  -12.8920   -4.7080  -21.7560 H   0  0  0  0  0  0  0  0  0  0  0  0
  -10.9750   -4.5050  -23.4590 C   0  0  0  0  0  0  0  0  0  0  0  0
  -11.9480   -4.9390  -24.0590 O   0  0  0  0  0  0  0  0  0  0  0  0
   -9.5740   -4.7010  -23.9250 C   0  0  0  0  0  0  0  0  0  0  0  0
   -9.3380   -5.6840  -24.8790 C   0  0  0  0  0  0  0  0  0  0  0  0
   -8.0700   -5.8990  -25.3760 C   0  0  0  0  0  0  0  0  0  0  0  0
   -7.0600   -5.0660  -24.9160 C   0  0  0  0  0  0  0  0  0  0  0  0
   -5.8360   -5.2150  -25.4390 F   0  0  0  0  0  0  0  0  0  0  0  0
   -7.2480   -4.1040  -23.9460 C   0  0  0  0  0  0  0  0  0  0  0  0
   -8.5250   -3.9350  -23.4120 C   0  0  0  0  0  0  0  0  0  0  0  0
   -6.4050   -3.5280  -23.5810 H   0  0  0  0  0  0  0  0  0  0  0  0
   -7.8500   -6.6980  -26.0760 H   0  0  0  0  0  0  0  0  0  0  0  0
  -10.1870   -6.2600  -25.2160 H   0  0  0  0  0  0  0  0  0  0  0  0
   -9.6430   -4.1680  -20.8200 H   0  0  0  0  0  0  0  0  0  0  0  0
  -10.2940   -2.5240  -20.8870 H   0  0  0  0  0  0  0  0  0  0  0  0
   -9.1580   -0.1540  -21.1970 H   0  0  0  0  0  0  0  0  0  0  0  0
   -7.9340    0.3680  -22.3650 H   0  0  0  0  0  0  0  0  0  0  0  0
   -8.3970   -1.4170  -23.8530 H   0  0  0  0  0  0  0  0  0  0  0  0
  -10.5520   -0.1680  -23.7520 H   0  0  0  0  0  0  0  0  0  0  0  0
  -11.0570   -1.1570  -22.3670 H   0  0  0  0  0  0  0  0  0  0  0  0
  -10.8670   -1.9100  -23.9450 H   0  0  0  0  0  0  0  0  0  0  0  0
  1  2  1  0  0  0  0
  1 48  1  0  0  0  0
  1 49  1  0  0  0  0
  1 50  1  0  0  0  0
  2  3  1  0  0  0  0
  2 23  1  0  0  0  0
  2 47  1  6  0  0  0
  3  4  1  0  0  0  0
  3 45  1  0  0  0  0
  3 46  1  0  0  0  0
  4  5  1  0  0  0  0
  4 21  1  0  0  0  0
  5  6  2  0  0  0  0
  5 14  1  0  0  0  0
  6  7  1  0  0  0  0
  6 20  1  0  0  0  0
  7  8  2  0  0  0  0
  8  9  1  0  0  0  0
  8 19  1  0  0  0  0
  9 10  2  0  0  0  0
  9 14  1  0  0  0  0
 10 11  1  0  0  0  0
 10 18  1  0  0  0  0
 11 12  2  0  0  0  0
 11 17  1  0  0  0  0
 12 13  1  0  0  0  0
 12 16  1  0  0  0  0
 13 14  2  0  0  0  0
 13 15  1  0  0  0  0
 21 22  2  0  0  0  0
 23 21  1  1  0  0  0
 23 24  1  0  0  0  0
 23 39  1  0  0  0  0
 24 25  1  0  0  0  0
 24 43  1  0  0  0  0
 24 44  1  0  0  0  0
 25 26  1  0  0  0  0
 25 31  1  0  0  0  0
 26 27  1  0  0  0  0
 26 29  1  0  0  0  0
 26 30  1  0  0  0  0
 27 28  3  0  0  0  0
 31 32  2  0  0  0  0
 31 33  1  0  0  0  0
 33 34  2  0  0  0  0
 33 39  1  0  0  0  0
 34 35  1  0  0  0  0
 34 42  1  0  0  0  0
 35 36  2  0  0  0  0
 35 41  1  0  0  0  0
 36 37  1  0  0  0  0
 36 38  1  0  0  0  0
 38 39  2  0  0  0  0
 38 40  1  0  0  0  0
M  END
>  <MODEL>
       1

$$$$
