tmp_first_model_8_56.pdb
 OpenBabel08272521063D

 57 62  0  0  1  0  0  0  0  0999 V2000
  -10.3360   -0.9030  -23.4170 C   0  0  0  0  0  0  0  0  0  0  0  0
   -8.9460   -1.3570  -23.0050 C   0  0  1  0  0  0  0  0  0  0  0  0
   -8.3630   -0.4680  -21.8940 C   0  0  0  0  0  0  0  0  0  0  0  0
   -7.4060   -1.3450  -21.2470 N   0  0  0  0  0  0  0  0  0  0  0  0
   -6.5980   -0.8820  -20.1850 C   0  0  0  0  0  0  0  0  0  0  0  0
   -6.8920   -1.1850  -18.8800 C   0  0  0  0  0  0  0  0  0  0  0  0
   -6.2310   -0.6600  -17.8170 N   0  0  0  0  0  0  0  0  0  0  0  0
   -5.2400    0.1640  -18.0610 C   0  0  0  0  0  0  0  0  0  0  0  0
   -4.8060    0.5330  -19.3670 C   0  0  0  0  0  0  0  0  0  0  0  0
   -3.7030    1.4000  -19.5960 C   0  0  0  0  0  0  0  0  0  0  0  0
   -3.3500    1.7430  -20.8730 C   0  0  0  0  0  0  0  0  0  0  0  0
   -4.0730    1.2360  -21.9760 C   0  0  0  0  0  0  0  0  0  0  0  0
   -5.1250    0.3770  -21.7800 C   0  0  0  0  0  0  0  0  0  0  0  0
   -5.5170    0.0110  -20.4670 C   0  0  0  0  0  0  0  0  0  0  0  0
   -5.6580   -0.0440  -22.6250 H   0  0  0  0  0  0  0  0  0  0  0  0
   -3.7780    1.5060  -22.9860 H   0  0  0  0  0  0  0  0  0  0  0  0
   -2.5050    2.4020  -21.0520 H   0  0  0  0  0  0  0  0  0  0  0  0
   -3.1510    1.7790  -18.7400 H   0  0  0  0  0  0  0  0  0  0  0  0
   -4.7200    0.5780  -17.1960 H   0  0  0  0  0  0  0  0  0  0  0  0
   -7.7060   -1.8680  -18.6450 H   0  0  0  0  0  0  0  0  0  0  0  0
   -7.6720   -2.6840  -21.4490 C   0  0  0  0  0  0  0  0  0  0  0  0
   -7.0580   -3.5810  -20.9120 O   0  0  0  0  0  0  0  0  0  0  0  0
   -8.8350   -2.8270  -22.4520 C   0  0  1  0  0  0  0  0  0  0  0  0
  -10.0800   -3.2600  -21.6300 C   0  0  0  0  0  0  0  0  0  0  0  0
  -11.1530   -3.8470  -22.4270 N   0  0  0  0  0  0  0  0  0  0  0  0
  -12.5410   -3.7970  -21.9710 C   0  0  0  0  0  0  0  0  0  0  0  0
  -13.3360   -2.6900  -22.5760 C   0  0  0  0  0  0  0  0  0  0  0  0
  -13.2050   -1.5090  -21.9770 N   0  0  0  0  0  0  0  0  0  0  0  0
  -13.8580   -0.5150  -22.5740 C   0  0  0  0  0  0  0  0  0  0  0  0
  -14.6230   -0.6950  -23.7010 C   0  0  0  0  0  0  0  0  0  0  0  0
  -14.7160   -1.9730  -24.2250 C   0  0  0  0  0  0  0  0  0  0  0  0
  -14.0620   -2.9870  -23.6630 N   0  0  0  0  0  0  0  0  0  0  0  0
  -15.3490   -2.2050  -25.0830 H   0  0  0  0  0  0  0  0  0  0  0  0
  -15.0240    0.1900  -24.1530 H   0  0  0  0  0  0  0  0  0  0  0  0
  -13.7770    0.4750  -22.1350 H   0  0  0  0  0  0  0  0  0  0  0  0
  -12.5610   -3.6950  -20.8890 H   0  0  0  0  0  0  0  0  0  0  0  0
  -13.0280   -4.7080  -22.3060 H   0  0  0  0  0  0  0  0  0  0  0  0
  -10.9300   -4.6290  -23.5240 C   0  0  0  0  0  0  0  0  0  0  0  0
  -11.8460   -5.1980  -24.1010 O   0  0  0  0  0  0  0  0  0  0  0  0
   -9.5220   -4.7360  -23.9880 C   0  0  0  0  0  0  0  0  0  0  0  0
   -9.2480   -5.7210  -24.9360 C   0  0  0  0  0  0  0  0  0  0  0  0
   -7.9680   -5.9030  -25.4210 C   0  0  0  0  0  0  0  0  0  0  0  0
   -6.9760   -5.0530  -24.9460 C   0  0  0  0  0  0  0  0  0  0  0  0
   -5.7210   -5.2100  -25.4020 F   0  0  0  0  0  0  0  0  0  0  0  0
   -7.2220   -4.0710  -24.0010 C   0  0  0  0  0  0  0  0  0  0  0  0
   -8.5210   -3.8920  -23.4970 C   0  0  0  0  0  0  0  0  0  0  0  0
   -6.3810   -3.5010  -23.6220 H   0  0  0  0  0  0  0  0  0  0  0  0
   -7.7220   -6.6990  -26.1180 H   0  0  0  0  0  0  0  0  0  0  0  0
  -10.0650   -6.3500  -25.2750 H   0  0  0  0  0  0  0  0  0  0  0  0
   -9.7310   -3.9730  -20.8770 H   0  0  0  0  0  0  0  0  0  0  0  0
  -10.4840   -2.3930  -21.0920 H   0  0  0  0  0  0  0  0  0  0  0  0
   -9.1390   -0.1330  -21.1820 H   0  0  0  0  0  0  0  0  0  0  0  0
   -7.8780    0.4400  -22.2680 H   0  0  0  0  0  0  0  0  0  0  0  0
   -8.2650   -1.3200  -23.8660 H   0  0  0  0  0  0  0  0  0  0  0  0
  -10.9720   -0.7730  -22.5360 H   0  0  0  0  0  0  0  0  0  0  0  0
  -10.3200    0.0530  -23.9480 H   0  0  0  0  0  0  0  0  0  0  0  0
  -10.8110   -1.6480  -24.0590 H   0  0  0  0  0  0  0  0  0  0  0  0
  1  2  1  0  0  0  0
  1 55  1  0  0  0  0
  1 56  1  0  0  0  0
  1 57  1  0  0  0  0
  2  3  1  0  0  0  0
  2 23  1  0  0  0  0
  2 54  1  6  0  0  0
  3  4  1  0  0  0  0
  3 52  1  0  0  0  0
  3 53  1  0  0  0  0
  4  5  1  0  0  0  0
  4 21  1  0  0  0  0
  5  6  2  0  0  0  0
  5 14  1  0  0  0  0
  6  7  1  0  0  0  0
  6 20  1  0  0  0  0
  7  8  2  0  0  0  0
  8  9  1  0  0  0  0
  8 19  1  0  0  0  0
  9 10  2  0  0  0  0
  9 14  1  0  0  0  0
 10 11  1  0  0  0  0
 10 18  1  0  0  0  0
 11 12  2  0  0  0  0
 11 17  1  0  0  0  0
 12 13  1  0  0  0  0
 12 16  1  0  0  0  0
 13 14  2  0  0  0  0
 13 15  1  0  0  0  0
 21 22  2  0  0  0  0
 23 21  1  1  0  0  0
 23 24  1  0  0  0  0
 23 46  1  0  0  0  0
 24 25  1  0  0  0  0
 24 50  1  0  0  0  0
 24 51  1  0  0  0  0
 25 26  1  0  0  0  0
 25 38  1  0  0  0  0
 26 27  1  0  0  0  0
 26 36  1  0  0  0  0
 26 37  1  0  0  0  0
 27 28  2  0  0  0  0
 27 32  1  0  0  0  0
 28 29  1  0  0  0  0
 29 30  2  0  0  0  0
 29 35  1  0  0  0  0
 30 31  1  0  0  0  0
 30 34  1  0  0  0  0
 31 32  2  0  0  0  0
 31 33  1  0  0  0  0
 38 39  2  0  0  0  0
 38 40  1  0  0  0  0
 40 41  2  0  0  0  0
 40 46  1  0  0  0  0
 41 42  1  0  0  0  0
 41 49  1  0  0  0  0
 42 43  2  0  0  0  0
 42 48  1  0  0  0  0
 43 44  1  0  0  0  0
 43 45  1  0  0  0  0
 45 46  2  0  0  0  0
 45 47  1  0  0  0  0
M  END
>  <MODEL>
       1

$$$$
