tmp_first_model_3_5.pdb
 OpenBabel08272518143D

 58 61  0  0  1  0  0  0  0  0999 V2000
   -7.6680   -3.8910  -20.3180 C   0  0  0  0  0  0  0  0  0  0  0  0
   -7.3500   -3.5900  -21.5690 C   0  0  0  0  0  0  0  0  0  0  0  0
   -6.7240   -2.2990  -22.0240 C   0  0  0  0  0  0  0  0  0  0  0  0
   -7.3450   -1.1130  -21.4310 N   0  0  0  0  0  0  0  0  0  0  0  0
   -8.6740   -0.7560  -21.6450 C   0  0  0  0  0  0  0  0  0  0  0  0
   -9.2580   -0.0110  -20.8770 O   0  0  0  0  0  0  0  0  0  0  0  0
   -9.3400   -1.2240  -22.9430 C   0  0  2  0  0  0  0  0  0  0  0  0
   -9.7270    0.0470  -23.7380 C   0  0  0  0  0  0  0  0  0  0  0  0
  -10.8070   -0.1820  -24.6850 N   0  0  0  0  0  0  0  0  0  0  0  0
  -10.5530    0.0290  -26.0960 C   0  0  0  0  0  0  0  0  0  0  0  0
   -9.5250   -0.9780  -26.6280 C   0  0  0  0  0  0  0  0  0  0  0  0
   -8.3310   -0.7170  -26.6630 O   0  0  0  0  0  0  0  0  0  0  0  0
  -10.0120   -2.1930  -26.9910 N   0  0  0  0  0  0  0  0  0  0  0  0
   -9.1020   -3.2560  -27.3860 C   0  0  0  0  0  0  0  0  0  0  0  0
   -8.3910   -3.4770  -26.5840 H   0  0  0  0  0  0  0  0  0  0  0  0
   -9.6830   -4.1550  -27.6060 H   0  0  0  0  0  0  0  0  0  0  0  0
   -8.5360   -2.9720  -28.2800 H   0  0  0  0  0  0  0  0  0  0  0  0
  -10.9990   -2.3820  -26.9350 H   0  0  0  0  0  0  0  0  0  0  0  0
  -11.5190   -0.0340  -26.6020 H   0  0  0  0  0  0  0  0  0  0  0  0
  -10.1410    1.0310  -26.2350 H   0  0  0  0  0  0  0  0  0  0  0  0
  -12.0070   -0.7750  -24.3130 C   0  0  0  0  0  0  0  0  0  0  0  0
  -13.0560   -0.5580  -24.9060 O   0  0  0  0  0  0  0  0  0  0  0  0
  -11.8690   -1.7520  -23.2450 C   0  0  0  0  0  0  0  0  0  0  0  0
  -12.9500   -2.6300  -22.9390 C   0  0  0  0  0  0  0  0  0  0  0  0
  -12.4970   -3.7050  -22.3650 C   0  0  0  0  0  0  0  0  0  0  0  0
  -12.6910   -3.7910  -21.9460 C   0  0  0  0  0  0  0  0  0  0  0  0
  -13.1110   -4.0570  -20.2240 Cl  0  0  0  0  0  0  0  0  0  0  0  0
  -10.5820   -3.3370  -22.1280 C   0  0  0  0  0  0  0  0  0  0  0  0
  -10.5780   -2.1260  -22.7060 C   0  0  0  0  0  0  0  0  0  0  0  0
   -9.6690   -3.8260  -21.7580 H   0  0  0  0  0  0  0  0  0  0  0  0
  -12.1760   -4.8160  -22.2560 H   0  0  0  0  0  0  0  0  0  0  0  0
  -13.8820   -2.5200  -23.4780 H   0  0  0  0  0  0  0  0  0  0  0  0
   -9.9770    0.8440  -23.0220 H   0  0  0  0  0  0  0  0  0  0  0  0
   -8.8500    0.3570  -24.3140 H   0  0  0  0  0  0  0  0  0  0  0  0
   -8.6200   -1.8010  -23.5310 H   0  0  0  0  0  0  0  0  0  0  0  0
   -6.6820   -0.5200  -20.3270 C   0  0  0  0  0  0  0  0  0  0  0  0
   -7.1430   -0.6780  -19.0470 C   0  0  0  0  0  0  0  0  0  0  0  0
   -6.4600   -0.2960  -17.9360 N   0  0  0  0  0  0  0  0  0  0  0  0
   -5.3070    0.3060  -18.1190 C   0  0  0  0  0  0  0  0  0  0  0  0
   -4.7510    0.6030  -19.3970 C   0  0  0  0  0  0  0  0  0  0  0  0
   -3.5300    1.3120  -19.5540 C   0  0  0  0  0  0  0  0  0  0  0  0
   -3.0580    1.6110  -20.8020 C   0  0  0  0  0  0  0  0  0  0  0  0
   -3.7700    1.2050  -21.9540 C   0  0  0  0  0  0  0  0  0  0  0  0
   -4.9430    0.5030  -21.8290 C   0  0  0  0  0  0  0  0  0  0  0  0
   -5.4590    0.1860  -20.5440 C   0  0  0  0  0  0  0  0  0  0  0  0
   -5.4980    0.1990  -22.7110 H   0  0  0  0  0  0  0  0  0  0  0  0
   -3.3890    1.4580  -22.9390 H   0  0  0  0  0  0  0  0  0  0  0  0
   -2.1400    2.1780  -20.9160 H   0  0  0  0  0  0  0  0  0  0  0  0
   -3.0010    1.6300  -18.6580 H   0  0  0  0  0  0  0  0  0  0  0  0
   -4.7590    0.6060  -17.2260 H   0  0  0  0  0  0  0  0  0  0  0  0
   -8.1010   -1.1660  -18.8730 H   0  0  0  0  0  0  0  0  0  0  0  0
   -6.8140   -2.2930  -23.1100 H   0  0  0  0  0  0  0  0  0  0  0  0
   -5.6610   -2.2690  -21.7700 H   0  0  0  0  0  0  0  0  0  0  0  0
   -7.6980   -4.5200  -22.7420 C   0  0  0  0  0  0  0  0  0  0  0  0
   -7.9700   -5.7000  -22.4610 O   0  0  0  0  0  0  0  0  0  0  0  0
   -7.6530   -3.9710  -23.8730 O   0  5  0  0  0  0  0  0  0  0  0  0
   -8.2700   -4.7610  -20.0640 H   0  0  0  0  0  0  0  0  0  0  0  0
   -7.3290   -3.2690  -19.4920 H   0  0  0  0  0  0  0  0  0  0  0  0
  1  2  2  0  0  0  0
  1 57  1  0  0  0  0
  1 58  1  0  0  0  0
  2  3  1  0  0  0  0
  2 54  1  0  0  0  0
  3  4  1  0  0  0  0
  3 52  1  0  0  0  0
  3 53  1  0  0  0  0
  4  5  1  0  0  0  0
  4 36  1  0  0  0  0
  5  6  2  0  0  0  0
  5  7  1  0  0  0  0
  7  8  1  0  0  0  0
  7 29  1  0  0  0  0
  7 35  1  6  0  0  0
  8  9  1  0  0  0  0
  8 33  1  0  0  0  0
  8 34  1  0  0  0  0
  9 10  1  0  0  0  0
  9 21  1  0  0  0  0
 10 11  1  0  0  0  0
 10 19  1  0  0  0  0
 10 20  1  0  0  0  0
 11 12  2  0  0  0  0
 11 13  1  0  0  0  0
 13 14  1  0  0  0  0
 13 18  1  0  0  0  0
 14 15  1  0  0  0  0
 14 16  1  0  0  0  0
 14 17  1  0  0  0  0
 21 22  2  0  0  0  0
 21 23  1  0  0  0  0
 23 24  2  0  0  0  0
 23 29  1  0  0  0  0
 24 25  1  0  0  0  0
 24 32  1  0  0  0  0
 25 26  2  0  0  0  0
 25 31  1  0  0  0  0
 26 27  1  0  0  0  0
 26 28  1  0  0  0  0
 28 29  2  0  0  0  0
 28 30  1  0  0  0  0
 36 37  2  0  0  0  0
 36 45  1  0  0  0  0
 37 38  1  0  0  0  0
 37 51  1  0  0  0  0
 38 39  2  0  0  0  0
 39 40  1  0  0  0  0
 39 50  1  0  0  0  0
 40 41  2  0  0  0  0
 40 45  1  0  0  0  0
 41 42  1  0  0  0  0
 41 49  1  0  0  0  0
 42 43  2  0  0  0  0
 42 48  1  0  0  0  0
 43 44  1  0  0  0  0
 43 47  1  0  0  0  0
 44 45  2  0  0  0  0
 44 46  1  0  0  0  0
 54 55  2  0  0  0  0
 54 56  1  0  0  0  0
M  CHG  1  56  -1
M  END
>  <MODEL>
       1

$$$$
