tmp_first_model_11_80.pdb
 OpenBabel08272522543D

 60 65  0  0  1  0  0  0  0  0999 V2000
   -8.4910    2.1980  -28.9530 C   0  0  0  0  0  0  0  0  0  0  0  0
   -8.7270    2.2340  -27.5140 N   0  0  0  0  0  0  0  0  0  0  0  0
   -7.9130    1.5370  -26.6780 C   0  0  0  0  0  0  0  0  0  0  0  0
   -6.9270    0.9320  -27.0860 O   0  0  0  0  0  0  0  0  0  0  0  0
   -8.2740    1.5930  -25.1910 C   0  0  0  0  0  0  0  0  0  0  0  0
   -9.0370    0.4960  -24.6530 N   0  0  0  0  0  0  0  0  0  0  0  0
   -8.3800   -0.7700  -24.3810 C   0  0  0  0  0  0  0  0  0  0  0  0
   -8.8870   -1.4260  -23.0680 C   0  0  2  0  0  0  0  0  0  0  0  0
   -8.3670   -0.6350  -21.8430 C   0  0  0  0  0  0  0  0  0  0  0  0
   -8.7090    0.4770  -21.4850 O   0  0  0  0  0  0  0  0  0  0  0  0
   -7.4140   -1.3870  -21.1930 N   0  0  0  0  0  0  0  0  0  0  0  0
   -6.6070   -0.8140  -20.1710 C   0  0  0  0  0  0  0  0  0  0  0  0
   -6.9080   -1.0480  -18.8560 C   0  0  0  0  0  0  0  0  0  0  0  0
   -6.2040   -0.5510  -17.8080 N   0  0  0  0  0  0  0  0  0  0  0  0
   -5.1700    0.2060  -18.0820 C   0  0  0  0  0  0  0  0  0  0  0  0
   -4.7350    0.5240  -19.4000 C   0  0  0  0  0  0  0  0  0  0  0  0
   -3.6050    1.3530  -19.6430 C   0  0  0  0  0  0  0  0  0  0  0  0
   -3.2100    1.6370  -20.9200 C   0  0  0  0  0  0  0  0  0  0  0  0
   -3.9210    1.0960  -22.0150 C   0  0  0  0  0  0  0  0  0  0  0  0
   -5.0120    0.2860  -21.8060 C   0  0  0  0  0  0  0  0  0  0  0  0
   -5.4650   -0.0070  -20.4880 C   0  0  0  0  0  0  0  0  0  0  0  0
   -5.5400   -0.1320  -22.6580 H   0  0  0  0  0  0  0  0  0  0  0  0
   -3.6160    1.3380  -23.0290 H   0  0  0  0  0  0  0  0  0  0  0  0
   -2.3600    2.2910  -21.0970 H   0  0  0  0  0  0  0  0  0  0  0  0
   -3.0820    1.7700  -18.7850 H   0  0  0  0  0  0  0  0  0  0  0  0
   -4.6210    0.6130  -17.2310 H   0  0  0  0  0  0  0  0  0  0  0  0
   -7.7570   -1.6740  -18.5910 H   0  0  0  0  0  0  0  0  0  0  0  0
   -7.1010   -2.6420  -21.8460 C   0  0  0  0  0  0  0  0  0  0  0  0
   -8.2650   -2.8490  -22.8390 C   0  0  2  0  0  0  0  0  0  0  0  0
   -7.8270   -3.6350  -24.0820 C   0  0  0  0  0  0  0  0  0  0  0  0
   -8.6460   -3.7760  -24.7960 H   0  0  0  0  0  0  0  0  0  0  0  0
   -7.0110   -3.1230  -24.6060 H   0  0  0  0  0  0  0  0  0  0  0  0
   -7.4580   -4.6290  -23.8030 H   0  0  0  0  0  0  0  0  0  0  0  0
   -9.0390   -3.4260  -22.3300 H   0  0  0  0  0  0  0  0  0  0  0  0
   -7.0200   -3.4460  -21.1030 H   0  0  0  0  0  0  0  0  0  0  0  0
   -6.1370   -2.5900  -22.3760 H   0  0  0  0  0  0  0  0  0  0  0  0
  -10.4090   -1.3830  -23.0710 C   0  0  0  0  0  0  0  0  0  0  0  0
  -11.1290   -2.1680  -22.1570 C   0  0  0  0  0  0  0  0  0  0  0  0
  -12.5100   -2.1280  -22.1450 C   0  0  0  0  0  0  0  0  0  0  0  0
  -13.3940   -3.1140  -21.0160 Cl  0  0  0  0  0  0  0  0  0  0  0  0
  -13.2160   -1.2990  -23.0160 C   0  0  0  0  0  0  0  0  0  0  0  0
  -12.5130   -0.4620  -23.8610 C   0  0  0  0  0  0  0  0  0  0  0  0
  -11.1170   -0.4720  -23.8730 C   0  0  0  0  0  0  0  0  0  0  0  0
  -10.4060    0.5710  -24.6830 C   0  0  0  0  0  0  0  0  0  0  0  0
  -10.9860    1.4600  -25.2920 O   0  0  0  0  0  0  0  0  0  0  0  0
  -13.0190    0.2490  -24.5040 H   0  0  0  0  0  0  0  0  0  0  0  0
  -14.2990   -1.2890  -22.9850 H   0  0  0  0  0  0  0  0  0  0  0  0
  -10.6330   -2.7960  -21.4230 H   0  0  0  0  0  0  0  0  0  0  0  0
   -8.5670   -1.4650  -25.2140 H   0  0  0  0  0  0  0  0  0  0  0  0
   -7.3120   -0.5630  -24.3160 H   0  0  0  0  0  0  0  0  0  0  0  0
   -8.4370    2.9440  -24.5490 C   0  0  0  0  0  0  0  0  0  0  0  0
   -7.1870    2.1470  -24.3050 C   0  0  0  0  0  0  0  0  0  0  0  0
   -6.2610    2.4400  -24.7980 H   0  0  0  0  0  0  0  0  0  0  0  0
   -7.0760    1.6680  -23.3360 H   0  0  0  0  0  0  0  0  0  0  0  0
   -8.4010    3.8260  -25.1860 H   0  0  0  0  0  0  0  0  0  0  0  0
   -9.1550    3.0170  -23.7370 H   0  0  0  0  0  0  0  0  0  0  0  0
   -9.5980    2.5930  -27.1410 H   0  0  0  0  0  0  0  0  0  0  0  0
   -9.2800    2.7700  -29.4500 H   0  0  0  0  0  0  0  0  0  0  0  0
   -8.4870    1.1700  -29.3380 H   0  0  0  0  0  0  0  0  0  0  0  0
   -7.5150    2.6350  -29.2070 H   0  0  0  0  0  0  0  0  0  0  0  0
  1  2  1  0  0  0  0
  1 58  1  0  0  0  0
  1 59  1  0  0  0  0
  1 60  1  0  0  0  0
  2  3  1  0  0  0  0
  2 57  1  0  0  0  0
  3  4  2  0  0  0  0
  3  5  1  0  0  0  0
  5  6  1  0  0  0  0
  5 51  1  0  0  0  0
  5 52  1  0  0  0  0
  6  7  1  0  0  0  0
  6 44  1  0  0  0  0
  7  8  1  0  0  0  0
  7 49  1  0  0  0  0
  7 50  1  0  0  0  0
  8  9  1  1  0  0  0
  8 29  1  0  0  0  0
  8 37  1  0  0  0  0
  9 10  2  0  0  0  0
  9 11  1  0  0  0  0
 11 12  1  0  0  0  0
 11 28  1  0  0  0  0
 12 13  2  0  0  0  0
 12 21  1  0  0  0  0
 13 14  1  0  0  0  0
 13 27  1  0  0  0  0
 14 15  2  0  0  0  0
 15 16  1  0  0  0  0
 15 26  1  0  0  0  0
 16 17  2  0  0  0  0
 16 21  1  0  0  0  0
 17 18  1  0  0  0  0
 17 25  1  0  0  0  0
 18 19  2  0  0  0  0
 18 24  1  0  0  0  0
 19 20  1  0  0  0  0
 19 23  1  0  0  0  0
 20 21  2  0  0  0  0
 20 22  1  0  0  0  0
 28 29  1  0  0  0  0
 28 35  1  0  0  0  0
 28 36  1  0  0  0  0
 29 30  1  0  0  0  0
 29 34  1  1  0  0  0
 30 31  1  0  0  0  0
 30 32  1  0  0  0  0
 30 33  1  0  0  0  0
 37 38  2  0  0  0  0
 37 43  1  0  0  0  0
 38 39  1  0  0  0  0
 38 48  1  0  0  0  0
 39 40  1  0  0  0  0
 39 41  2  0  0  0  0
 41 42  1  0  0  0  0
 41 47  1  0  0  0  0
 42 43  2  0  0  0  0
 42 46  1  0  0  0  0
 43 44  1  0  0  0  0
 44 45  2  0  0  0  0
 51 52  1  0  0  0  0
 51 55  1  0  0  0  0
 51 56  1  0  0  0  0
 52 53  1  0  0  0  0
 52 54  1  0  0  0  0
M  END
>  <MODEL>
       1

$$$$
