tmp_first_model_1_13.pdb
 OpenBabel08272517043D

 69 74  0  0  1  0  0  0  0  0999 V2000
   -7.0570    3.1770  -22.0730 C   0  0  0  0  0  0  0  0  0  0  0  0
   -7.6330    2.6050  -23.2730 N   0  0  0  0  0  0  0  0  0  0  0  0
   -6.8200    1.9010  -24.0940 C   0  0  0  0  0  0  0  0  0  0  0  0
   -5.5980    1.9440  -24.0180 O   0  0  0  0  0  0  0  0  0  0  0  0
   -7.5230    1.0070  -25.1180 C   0  0  0  0  0  0  0  0  0  0  0  0
   -8.2380   -0.0750  -24.4550 N   0  0  0  0  0  0  0  0  0  0  0  0
   -7.5520   -1.3000  -24.0780 C   0  0  0  0  0  0  0  0  0  0  0  0
   -8.1080   -1.9650  -22.7590 C   0  0  2  0  0  0  0  0  0  0  0  0
   -7.6840   -1.1370  -21.5390 C   0  0  0  0  0  0  0  0  0  0  0  0
   -8.1910   -0.1120  -21.1270 O   0  0  0  0  0  0  0  0  0  0  0  0
   -6.5960   -1.7510  -20.9640 N   0  0  0  0  0  0  0  0  0  0  0  0
   -5.9190   -1.0580  -19.9410 C   0  0  0  0  0  0  0  0  0  0  0  0
   -6.2580   -1.3110  -18.6400 C   0  0  0  0  0  0  0  0  0  0  0  0
   -5.7190   -0.6790  -17.5730 N   0  0  0  0  0  0  0  0  0  0  0  0
   -4.8270    0.2510  -17.8250 C   0  0  0  0  0  0  0  0  0  0  0  0
   -4.3910    0.6120  -19.1320 C   0  0  0  0  0  0  0  0  0  0  0  0
   -3.3850    1.5890  -19.3470 C   0  0  0  0  0  0  0  0  0  0  0  0
   -2.9960    1.9270  -20.6150 C   0  0  0  0  0  0  0  0  0  0  0  0
   -3.6130    1.3190  -21.7310 C   0  0  0  0  0  0  0  0  0  0  0  0
   -4.5900    0.3710  -21.5530 C   0  0  0  0  0  0  0  0  0  0  0  0
   -4.9790   -0.0320  -20.2430 C   0  0  0  0  0  0  0  0  0  0  0  0
   -5.0790   -0.0650  -22.4200 H   0  0  0  0  0  0  0  0  0  0  0  0
   -3.3350    1.6140  -22.7370 H   0  0  0  0  0  0  0  0  0  0  0  0
   -2.2150    2.6660  -20.7720 H   0  0  0  0  0  0  0  0  0  0  0  0
   -2.9390    2.0580  -18.4770 H   0  0  0  0  0  0  0  0  0  0  0  0
   -4.3990    0.7770  -16.9720 H   0  0  0  0  0  0  0  0  0  0  0  0
   -7.0160   -2.0620  -18.4300 H   0  0  0  0  0  0  0  0  0  0  0  0
   -6.1020   -2.8890  -21.7230 C   0  0  0  0  0  0  0  0  0  0  0  0
   -7.3590   -3.3060  -22.5070 C   0  0  2  0  0  0  0  0  0  0  0  0
   -7.0460   -4.0550  -23.8000 C   0  0  0  0  0  0  0  0  0  0  0  0
   -6.5610   -5.4090  -23.6440 N   0  0  0  0  0  0  0  0  0  0  0  0
   -6.3770   -6.1350  -24.7950 C   0  0  0  0  0  0  0  0  0  0  0  0
   -5.9720   -7.4810  -24.7430 C   0  0  0  0  0  0  0  0  0  0  0  0
   -5.8050   -8.1070  -25.9560 C   0  0  0  0  0  0  0  0  0  0  0  0
   -6.0110   -7.5160  -27.1420 N   0  0  0  0  0  0  0  0  0  0  0  0
   -6.4100   -6.2480  -27.0830 C   0  0  0  0  0  0  0  0  0  0  0  0
   -6.7150   -5.5780  -28.3980 C   0  0  0  0  0  0  0  0  0  0  0  0
   -6.8930   -6.3410  -29.1610 H   0  0  0  0  0  0  0  0  0  0  0  0
   -5.8720   -4.9580  -28.7240 H   0  0  0  0  0  0  0  0  0  0  0  0
   -7.5970   -4.9360  -28.3040 H   0  0  0  0  0  0  0  0  0  0  0  0
   -6.5610   -5.5160  -25.9660 N   0  0  0  0  0  0  0  0  0  0  0  0
   -5.5030   -9.1500  -25.9910 H   0  0  0  0  0  0  0  0  0  0  0  0
   -5.7900   -7.9800  -23.7940 H   0  0  0  0  0  0  0  0  0  0  0  0
   -6.8520   -5.9450  -22.8390 H   0  0  0  0  0  0  0  0  0  0  0  0
   -6.2490   -3.5320  -24.3430 H   0  0  0  0  0  0  0  0  0  0  0  0
   -7.9240   -4.0710  -24.4630 H   0  0  0  0  0  0  0  0  0  0  0  0
   -7.9750   -3.9340  -21.8490 H   0  0  0  0  0  0  0  0  0  0  0  0
   -5.2980   -2.5890  -22.4220 H   0  0  0  0  0  0  0  0  0  0  0  0
   -5.7230   -3.6850  -21.0750 H   0  0  0  0  0  0  0  0  0  0  0  0
   -9.6190   -2.0130  -22.8250 C   0  0  0  0  0  0  0  0  0  0  0  0
  -10.4350   -2.7570  -21.9600 C   0  0  0  0  0  0  0  0  0  0  0  0
  -11.8150   -2.6860  -22.1140 C   0  0  0  0  0  0  0  0  0  0  0  0
  -12.8950   -3.3290  -20.9150 Cl  0  0  0  0  0  0  0  0  0  0  0  0
  -12.3990   -1.9770  -23.1580 C   0  0  0  0  0  0  0  0  0  0  0  0
  -11.5930   -1.1970  -23.9610 C   0  0  0  0  0  0  0  0  0  0  0  0
  -10.2470   -1.0950  -23.6690 C   0  0  0  0  0  0  0  0  0  0  0  0
   -9.5300    0.1350  -24.1130 C   0  0  0  0  0  0  0  0  0  0  0  0
  -10.0480    1.2510  -24.1420 O   0  0  0  0  0  0  0  0  0  0  0  0
  -11.9990   -0.5220  -24.7070 H   0  0  0  0  0  0  0  0  0  0  0  0
  -13.4810   -1.9560  -23.2410 H   0  0  0  0  0  0  0  0  0  0  0  0
  -10.0170   -3.3300  -21.1410 H   0  0  0  0  0  0  0  0  0  0  0  0
   -7.6600   -2.0230  -24.8950 H   0  0  0  0  0  0  0  0  0  0  0  0
   -6.4870   -1.0600  -23.9550 H   0  0  0  0  0  0  0  0  0  0  0  0
   -8.2580    1.5890  -25.6820 H   0  0  0  0  0  0  0  0  0  0  0  0
   -6.7740    0.6240  -25.8190 H   0  0  0  0  0  0  0  0  0  0  0  0
   -8.6360    2.4680  -23.3550 H   0  0  0  0  0  0  0  0  0  0  0  0
   -6.2070    3.8040  -22.3550 H   0  0  0  0  0  0  0  0  0  0  0  0
   -7.8000    3.7890  -21.5580 H   0  0  0  0  0  0  0  0  0  0  0  0
   -6.6950    2.3810  -21.4040 H   0  0  0  0  0  0  0  0  0  0  0  0
  1  2  1  0  0  0  0
  1 67  1  0  0  0  0
  1 68  1  0  0  0  0
  1 69  1  0  0  0  0
  2  3  1  0  0  0  0
  2 66  1  0  0  0  0
  3  4  2  0  0  0  0
  3  5  1  0  0  0  0
  5  6  1  0  0  0  0
  5 64  1  0  0  0  0
  5 65  1  0  0  0  0
  6  7  1  0  0  0  0
  6 57  1  0  0  0  0
  7  8  1  0  0  0  0
  7 62  1  0  0  0  0
  7 63  1  0  0  0  0
  8  9  1  1  0  0  0
  8 29  1  0  0  0  0
  8 50  1  0  0  0  0
  9 10  2  0  0  0  0
  9 11  1  0  0  0  0
 11 12  1  0  0  0  0
 11 28  1  0  0  0  0
 12 13  2  0  0  0  0
 12 21  1  0  0  0  0
 13 14  1  0  0  0  0
 13 27  1  0  0  0  0
 14 15  2  0  0  0  0
 15 16  1  0  0  0  0
 15 26  1  0  0  0  0
 16 17  2  0  0  0  0
 16 21  1  0  0  0  0
 17 18  1  0  0  0  0
 17 25  1  0  0  0  0
 18 19  2  0  0  0  0
 18 24  1  0  0  0  0
 19 20  1  0  0  0  0
 19 23  1  0  0  0  0
 20 21  2  0  0  0  0
 20 22  1  0  0  0  0
 28 29  1  0  0  0  0
 28 48  1  0  0  0  0
 28 49  1  0  0  0  0
 29 30  1  0  0  0  0
 29 47  1  1  0  0  0
 30 31  1  0  0  0  0
 30 45  1  0  0  0  0
 30 46  1  0  0  0  0
 31 32  1  0  0  0  0
 31 44  1  0  0  0  0
 32 33  2  0  0  0  0
 32 41  1  0  0  0  0
 33 34  1  0  0  0  0
 33 43  1  0  0  0  0
 34 35  2  0  0  0  0
 34 42  1  0  0  0  0
 35 36  1  0  0  0  0
 36 37  1  0  0  0  0
 36 41  2  0  0  0  0
 37 38  1  0  0  0  0
 37 39  1  0  0  0  0
 37 40  1  0  0  0  0
 50 51  2  0  0  0  0
 50 56  1  0  0  0  0
 51 52  1  0  0  0  0
 51 61  1  0  0  0  0
 52 53  1  0  0  0  0
 52 54  2  0  0  0  0
 54 55  1  0  0  0  0
 54 60  1  0  0  0  0
 55 56  2  0  0  0  0
 55 59  1  0  0  0  0
 56 57  1  0  0  0  0
 57 58  2  0  0  0  0
M  END
>  <MODEL>
       1

$$$$
