tmp_first_model_15_97.pdb
 OpenBabel08282501153D

 40 43  0  0  1  0  0  0  0  0999 V2000
  -12.5790   -3.9770  -21.1080 C   0  0  0  0  0  0  0  0  0  0  0  0
  -11.5790   -2.9460  -21.6350 C   0  0  2  0  0  0  0  0  0  0  0  0
  -12.0760   -2.4490  -22.9750 C   0  0  0  0  0  0  0  0  0  0  0  0
  -11.2240   -1.4690  -23.5120 O   0  0  0  0  0  0  0  0  0  0  0  0
   -9.9100   -1.9170  -23.7270 C   0  0  0  0  0  0  0  0  0  0  0  0
   -9.2040   -2.3990  -22.4500 C   0  0  1  0  0  0  0  0  0  0  0  0
  -10.1320   -3.4310  -21.7590 C   0  0  0  0  0  0  0  0  0  0  0  0
  -10.0780   -4.3580  -22.3510 H   0  0  0  0  0  0  0  0  0  0  0  0
   -9.7240   -3.6890  -20.7790 H   0  0  0  0  0  0  0  0  0  0  0  0
   -7.9240   -2.9940  -22.8030 N   0  0  0  0  0  0  0  0  0  0  0  0
   -6.8750   -2.5850  -22.0220 C   0  0  0  0  0  0  0  0  0  0  0  0
   -5.7340   -2.9910  -22.0110 O   0  0  0  0  0  0  0  0  0  0  0  0
   -7.3850   -1.5340  -21.2320 N   0  0  0  0  0  0  0  0  0  0  0  0
   -6.6230   -0.8930  -20.2160 C   0  0  0  0  0  0  0  0  0  0  0  0
   -6.9640   -1.0800  -18.8990 C   0  0  0  0  0  0  0  0  0  0  0  0
   -6.2870   -0.5650  -17.8420 N   0  0  0  0  0  0  0  0  0  0  0  0
   -5.2430    0.1750  -18.1180 C   0  0  0  0  0  0  0  0  0  0  0  0
   -4.7940    0.4640  -19.4340 C   0  0  0  0  0  0  0  0  0  0  0  0
   -3.6770    1.3070  -19.6380 C   0  0  0  0  0  0  0  0  0  0  0  0
   -3.2780    1.6210  -20.9040 C   0  0  0  0  0  0  0  0  0  0  0  0
   -3.9830    1.1150  -22.0150 C   0  0  0  0  0  0  0  0  0  0  0  0
   -5.0690    0.2940  -21.8460 C   0  0  0  0  0  0  0  0  0  0  0  0
   -5.4970   -0.0680  -20.5350 C   0  0  0  0  0  0  0  0  0  0  0  0
   -5.6060   -0.0620  -22.7190 H   0  0  0  0  0  0  0  0  0  0  0  0
   -3.6650    1.3970  -23.0130 H   0  0  0  0  0  0  0  0  0  0  0  0
   -2.4280    2.2740  -21.0570 H   0  0  0  0  0  0  0  0  0  0  0  0
   -3.1780    1.7070  -18.7610 H   0  0  0  0  0  0  0  0  0  0  0  0
   -4.6930    0.6000  -17.2800 H   0  0  0  0  0  0  0  0  0  0  0  0
   -7.8270   -1.6920  -18.6490 H   0  0  0  0  0  0  0  0  0  0  0  0
   -8.7320   -1.2730  -21.5070 C   0  0  0  0  0  0  0  0  0  0  0  0
   -9.3590   -0.3370  -21.0810 O   0  0  0  0  0  0  0  0  0  0  0  0
   -7.8800   -3.8770  -23.2920 H   0  0  0  0  0  0  0  0  0  0  0  0
   -9.3560   -1.1000  -24.1960 H   0  0  0  0  0  0  0  0  0  0  0  0
   -9.8900   -2.7690  -24.4260 H   0  0  0  0  0  0  0  0  0  0  0  0
  -13.0520   -1.9610  -22.8620 H   0  0  0  0  0  0  0  0  0  0  0  0
  -12.1840   -3.3120  -23.6630 H   0  0  0  0  0  0  0  0  0  0  0  0
  -11.5780   -2.0880  -20.9630 H   0  0  0  0  0  0  0  0  0  0  0  0
  -12.1540   -4.5890  -20.3090 H   0  0  0  0  0  0  0  0  0  0  0  0
  -12.9380   -4.6510  -21.8930 H   0  0  0  0  0  0  0  0  0  0  0  0
  -13.4470   -3.4470  -20.7030 H   0  0  0  0  0  0  0  0  0  0  0  0
  1  2  1  0  0  0  0
  1 38  1  0  0  0  0
  1 39  1  0  0  0  0
  1 40  1  0  0  0  0
  2  3  1  0  0  0  0
  2  7  1  0  0  0  0
  2 37  1  1  0  0  0
  3  4  1  0  0  0  0
  3 35  1  0  0  0  0
  3 36  1  0  0  0  0
  4  5  1  0  0  0  0
  5  6  1  0  0  0  0
  5 33  1  0  0  0  0
  5 34  1  0  0  0  0
  6  7  1  0  0  0  0
  6 10  1  0  0  0  0
  6 30  1  1  0  0  0
  7  8  1  0  0  0  0
  7  9  1  0  0  0  0
 10 11  1  0  0  0  0
 10 32  1  0  0  0  0
 11 12  2  0  0  0  0
 11 13  1  0  0  0  0
 13 14  1  0  0  0  0
 13 30  1  0  0  0  0
 14 15  2  0  0  0  0
 14 23  1  0  0  0  0
 15 16  1  0  0  0  0
 15 29  1  0  0  0  0
 16 17  2  0  0  0  0
 17 18  1  0  0  0  0
 17 28  1  0  0  0  0
 18 19  2  0  0  0  0
 18 23  1  0  0  0  0
 19 20  1  0  0  0  0
 19 27  1  0  0  0  0
 20 21  2  0  0  0  0
 20 26  1  0  0  0  0
 21 22  1  0  0  0  0
 21 25  1  0  0  0  0
 22 23  2  0  0  0  0
 22 24  1  0  0  0  0
 30 31  2  0  0  0  0
M  END
>  <MODEL>
       1

$$$$
