tmp_first_model_8_47.pdb
 OpenBabel08272521063D

 58 63  0  0  1  0  0  0  0  0999 V2000
   -8.9170    0.4870  -21.1280 O   0  0  0  0  0  0  0  0  0  0  0  0
   -8.3330   -0.2940  -21.8540 C   0  0  0  0  0  0  0  0  0  0  0  0
   -7.4440   -1.3960  -21.2650 C   0  0  0  0  0  0  0  0  0  0  0  0
   -6.5710   -0.8410  -20.1680 C   0  0  0  0  0  0  0  0  0  0  0  0
   -6.8780   -1.0510  -18.8480 C   0  0  0  0  0  0  0  0  0  0  0  0
   -6.1900   -0.5460  -17.7910 N   0  0  0  0  0  0  0  0  0  0  0  0
   -5.1600    0.2170  -18.0630 C   0  0  0  0  0  0  0  0  0  0  0  0
   -4.7300    0.5370  -19.3810 C   0  0  0  0  0  0  0  0  0  0  0  0
   -3.6160    1.3790  -19.6190 C   0  0  0  0  0  0  0  0  0  0  0  0
   -3.2430    1.6850  -20.9000 C   0  0  0  0  0  0  0  0  0  0  0  0
   -3.9760    1.1680  -21.9910 C   0  0  0  0  0  0  0  0  0  0  0  0
   -5.0490    0.3360  -21.7850 C   0  0  0  0  0  0  0  0  0  0  0  0
   -5.4610    0.0010  -20.4680 C   0  0  0  0  0  0  0  0  0  0  0  0
   -5.5750   -0.0790  -22.6390 H   0  0  0  0  0  0  0  0  0  0  0  0
   -3.6510    1.3970  -23.0030 H   0  0  0  0  0  0  0  0  0  0  0  0
   -2.3790    2.3140  -21.0860 H   0  0  0  0  0  0  0  0  0  0  0  0
   -3.0780    1.7770  -18.7620 H   0  0  0  0  0  0  0  0  0  0  0  0
   -4.6080    0.6260  -17.2160 H   0  0  0  0  0  0  0  0  0  0  0  0
   -7.7350   -1.6650  -18.5780 H   0  0  0  0  0  0  0  0  0  0  0  0
   -8.0910   -2.1800  -20.8470 H   0  0  0  0  0  0  0  0  0  0  0  0
   -6.8440   -1.8460  -22.0640 H   0  0  0  0  0  0  0  0  0  0  0  0
   -8.4120   -0.2250  -23.2470 N   0  0  0  0  0  0  0  0  0  0  0  0
   -8.6550   -1.3880  -24.0950 C   0  0  0  0  0  0  0  0  0  0  0  0
  -10.1240   -1.5930  -24.4320 C   0  0  0  0  0  0  0  0  0  0  0  0
  -10.5560   -1.7180  -25.7560 C   0  0  0  0  0  0  0  0  0  0  0  0
  -11.9120   -1.8200  -26.0590 C   0  0  0  0  0  0  0  0  0  0  0  0
  -12.8610   -1.8260  -25.0400 C   0  0  0  0  0  0  0  0  0  0  0  0
  -12.4180   -1.7870  -23.7260 C   0  0  0  0  0  0  0  0  0  0  0  0
  -13.5930   -1.9630  -22.4500 Cl  0  0  0  0  0  0  0  0  0  0  0  0
  -11.0710   -1.6560  -23.4090 C   0  0  0  0  0  0  0  0  0  0  0  0
  -10.7770   -1.5850  -22.3640 H   0  0  0  0  0  0  0  0  0  0  0  0
  -13.9300   -1.9160  -25.2200 H   0  0  0  0  0  0  0  0  0  0  0  0
  -12.2020   -1.9760  -27.0940 H   0  0  0  0  0  0  0  0  0  0  0  0
   -9.8330   -1.7460  -26.5710 H   0  0  0  0  0  0  0  0  0  0  0  0
   -8.2640   -2.2630  -23.5650 H   0  0  0  0  0  0  0  0  0  0  0  0
   -8.0990   -1.2570  -25.0280 H   0  0  0  0  0  0  0  0  0  0  0  0
   -8.5860    1.0980  -23.7950 C   0  0  2  0  0  0  0  0  0  0  0  0
   -7.4370    2.0950  -23.5070 C   0  0  0  0  0  0  0  0  0  0  0  0
   -7.9870    3.3170  -24.2130 N   0  3  1  0  0  0  0  0  0  0  0  0
   -7.1090    3.9340  -25.2260 C   0  0  0  0  0  0  0  0  0  0  0  0
   -7.3750    5.3600  -25.6020 C   0  0  0  0  0  0  0  0  0  0  0  0
   -6.1590    4.9960  -24.7690 C   0  0  0  0  0  0  0  0  0  0  0  0
   -5.1700    5.0380  -25.2180 H   0  0  0  0  0  0  0  0  0  0  0  0
   -6.1600    5.2250  -23.7030 H   0  0  0  0  0  0  0  0  0  0  0  0
   -7.2450    5.6520  -26.6410 H   0  0  0  0  0  0  0  0  0  0  0  0
   -8.2200    5.8560  -25.1220 H   0  0  0  0  0  0  0  0  0  0  0  0
   -6.7920    3.2410  -26.0010 H   0  0  0  0  0  0  0  0  0  0  0  0
   -9.2830    2.7260  -24.7520 C   0  0  2  0  0  0  0  0  0  0  0  0
   -9.8200    1.9990  -23.5150 C   0  0  0  0  0  0  0  0  0  0  0  0
  -10.7730    1.4860  -23.6610 H   0  0  0  0  0  0  0  0  0  0  0  0
   -9.7960    2.5720  -22.5800 H   0  0  0  0  0  0  0  0  0  0  0  0
   -8.8360    1.3660  -25.3010 C   0  0  0  0  0  0  0  0  0  0  0  0
   -9.6490    0.7820  -25.7310 H   0  0  0  0  0  0  0  0  0  0  0  0
   -7.9510    1.3610  -25.9500 H   0  0  0  0  0  0  0  0  0  0  0  0
   -9.8440    3.4390  -25.3340 H   0  0  0  0  0  0  0  0  0  0  0  0
   -8.2190    4.0460  -23.5040 H   0  0  0  0  0  0  0  0  0  0  0  0
   -6.4780    1.8110  -23.9470 H   0  0  0  0  0  0  0  0  0  0  0  0
   -7.3110    2.2870  -22.4370 H   0  0  0  0  0  0  0  0  0  0  0  0
  1  2  2  0  0  0  0
  2  3  1  0  0  0  0
  2 22  1  0  0  0  0
  3  4  1  0  0  0  0
  3 20  1  0  0  0  0
  3 21  1  0  0  0  0
  4  5  2  0  0  0  0
  4 13  1  0  0  0  0
  5  6  1  0  0  0  0
  5 19  1  0  0  0  0
  6  7  2  0  0  0  0
  7  8  1  0  0  0  0
  7 18  1  0  0  0  0
  8  9  2  0  0  0  0
  8 13  1  0  0  0  0
  9 10  1  0  0  0  0
  9 17  1  0  0  0  0
 10 11  2  0  0  0  0
 10 16  1  0  0  0  0
 11 12  1  0  0  0  0
 11 15  1  0  0  0  0
 12 13  2  0  0  0  0
 12 14  1  0  0  0  0
 22 23  1  0  0  0  0
 23 24  1  0  0  0  0
 23 35  1  0  0  0  0
 23 36  1  0  0  0  0
 24 25  2  0  0  0  0
 24 30  1  0  0  0  0
 25 26  1  0  0  0  0
 25 34  1  0  0  0  0
 26 27  2  0  0  0  0
 26 33  1  0  0  0  0
 27 28  1  0  0  0  0
 27 32  1  0  0  0  0
 28 29  1  0  0  0  0
 28 30  2  0  0  0  0
 30 31  1  0  0  0  0
 37 22  1  1  0  0  0
 37 38  1  0  0  0  0
 37 49  1  0  0  0  0
 37 52  1  0  0  0  0
 38 39  1  0  0  0  0
 38 57  1  0  0  0  0
 38 58  1  0  0  0  0
 39 40  1  0  0  0  0
 39 48  1  0  0  0  0
 39 56  1  1  0  0  0
 40 41  1  0  0  0  0
 40 42  1  0  0  0  0
 40 47  1  0  0  0  0
 41 42  1  0  0  0  0
 41 45  1  0  0  0  0
 41 46  1  0  0  0  0
 42 43  1  0  0  0  0
 42 44  1  0  0  0  0
 48 49  1  0  0  0  0
 48 52  1  0  0  0  0
 48 55  1  6  0  0  0
 49 50  1  0  0  0  0
 49 51  1  0  0  0  0
 52 53  1  0  0  0  0
 52 54  1  0  0  0  0
M  CHG  1  39   1
M  END
>  <MODEL>
       1

$$$$
