tmp_first_model_19_6.pdb
 OpenBabel08282503233D

 43 45  0  0  0  0  0  0  0  0999 V2000
   -8.2950   -5.9230  -27.5890 C   0  0  0  0  0  0  0  0  0  0  0  0
   -8.9420   -4.8590  -26.7120 C   0  0  0  0  0  0  0  0  0  0  0  0
   -7.9760   -4.1570  -25.7450 C   0  0  0  0  0  0  0  0  0  0  0  0
   -7.3680   -5.1160  -24.7220 C   0  0  0  0  0  0  0  0  0  0  0  0
   -6.5640   -4.4020  -23.6400 C   0  0  0  0  0  0  0  0  0  0  0  0
   -7.3130   -3.3160  -22.9960 N   0  0  0  0  0  0  0  0  0  0  0  0
   -6.7220   -2.7010  -21.9190 C   0  0  0  0  0  0  0  0  0  0  0  0
   -5.6580   -3.1060  -21.4770 O   0  0  0  0  0  0  0  0  0  0  0  0
   -7.4110   -1.4710  -21.2760 C   0  0  0  0  0  0  0  0  0  0  0  0
   -6.5790   -0.8320  -20.1860 C   0  0  0  0  0  0  0  0  0  0  0  0
   -6.8730   -1.0470  -18.8660 C   0  0  0  0  0  0  0  0  0  0  0  0
   -6.1860   -0.5480  -17.8030 N   0  0  0  0  0  0  0  0  0  0  0  0
   -5.1590    0.2220  -18.0660 C   0  0  0  0  0  0  0  0  0  0  0  0
   -4.7210    0.5300  -19.3820 C   0  0  0  0  0  0  0  0  0  0  0  0
   -3.5900    1.3530  -19.6240 C   0  0  0  0  0  0  0  0  0  0  0  0
   -3.1910    1.6330  -20.9020 C   0  0  0  0  0  0  0  0  0  0  0  0
   -3.9050    1.0910  -21.9940 C   0  0  0  0  0  0  0  0  0  0  0  0
   -5.0010    0.2900  -21.7870 C   0  0  0  0  0  0  0  0  0  0  0  0
   -5.4450   -0.0130  -20.4750 C   0  0  0  0  0  0  0  0  0  0  0  0
   -5.5340   -0.1240  -22.6370 H   0  0  0  0  0  0  0  0  0  0  0  0
   -3.5810    1.3160  -23.0060 H   0  0  0  0  0  0  0  0  0  0  0  0
   -2.3300    2.2720  -21.0870 H   0  0  0  0  0  0  0  0  0  0  0  0
   -3.0550    1.7720  -18.7730 H   0  0  0  0  0  0  0  0  0  0  0  0
   -4.6030    0.6290  -17.2170 H   0  0  0  0  0  0  0  0  0  0  0  0
   -7.7210   -1.6710  -18.5890 H   0  0  0  0  0  0  0  0  0  0  0  0
   -8.3710   -1.7890  -20.8450 H   0  0  0  0  0  0  0  0  0  0  0  0
   -7.6540   -0.7200  -22.0420 H   0  0  0  0  0  0  0  0  0  0  0  0
   -8.6460   -3.0530  -23.5200 C   0  0  0  0  0  0  0  0  0  0  0  0
   -8.6340   -2.9510  -25.0430 C   0  0  0  0  0  0  0  0  0  0  0  0
   -8.1120   -2.0340  -25.3280 H   0  0  0  0  0  0  0  0  0  0  0  0
   -9.6640   -2.8250  -25.3930 H   0  0  0  0  0  0  0  0  0  0  0  0
   -9.3380   -3.8470  -23.2120 H   0  0  0  0  0  0  0  0  0  0  0  0
   -9.0310   -2.1250  -23.0970 H   0  0  0  0  0  0  0  0  0  0  0  0
   -6.2440   -5.1240  -22.8820 H   0  0  0  0  0  0  0  0  0  0  0  0
   -5.6400   -4.0050  -24.0750 H   0  0  0  0  0  0  0  0  0  0  0  0
   -6.7110   -5.8300  -25.2280 H   0  0  0  0  0  0  0  0  0  0  0  0
   -8.1490   -5.7330  -24.2650 H   0  0  0  0  0  0  0  0  0  0  0  0
   -7.1500   -3.7660  -26.3520 H   0  0  0  0  0  0  0  0  0  0  0  0
   -9.4050   -4.1050  -27.3600 H   0  0  0  0  0  0  0  0  0  0  0  0
   -9.7640   -5.3040  -26.1390 H   0  0  0  0  0  0  0  0  0  0  0  0
   -7.4220   -5.5190  -28.1120 H   0  0  0  0  0  0  0  0  0  0  0  0
   -7.9590   -6.7870  -27.0070 H   0  0  0  0  0  0  0  0  0  0  0  0
   -8.9920   -6.2900  -28.3490 H   0  0  0  0  0  0  0  0  0  0  0  0
  1  2  1  0  0  0  0
  1 41  1  0  0  0  0
  1 42  1  0  0  0  0
  1 43  1  0  0  0  0
  2  3  1  0  0  0  0
  2 39  1  0  0  0  0
  2 40  1  0  0  0  0
  3  4  1  0  0  0  0
  3 29  1  0  0  0  0
  3 38  1  0  0  0  0
  4  5  1  0  0  0  0
  4 36  1  0  0  0  0
  4 37  1  0  0  0  0
  5  6  1  0  0  0  0
  5 34  1  0  0  0  0
  5 35  1  0  0  0  0
  6  7  1  0  0  0  0
  6 28  1  0  0  0  0
  7  8  2  0  0  0  0
  7  9  1  0  0  0  0
  9 10  1  0  0  0  0
  9 26  1  0  0  0  0
  9 27  1  0  0  0  0
 10 11  2  0  0  0  0
 10 19  1  0  0  0  0
 11 12  1  0  0  0  0
 11 25  1  0  0  0  0
 12 13  2  0  0  0  0
 13 14  1  0  0  0  0
 13 24  1  0  0  0  0
 14 15  2  0  0  0  0
 14 19  1  0  0  0  0
 15 16  1  0  0  0  0
 15 23  1  0  0  0  0
 16 17  2  0  0  0  0
 16 22  1  0  0  0  0
 17 18  1  0  0  0  0
 17 21  1  0  0  0  0
 18 19  2  0  0  0  0
 18 20  1  0  0  0  0
 28 29  1  0  0  0  0
 28 32  1  0  0  0  0
 28 33  1  0  0  0  0
 29 30  1  0  0  0  0
 29 31  1  0  0  0  0
M  END
>  <MODEL>
       1

$$$$
