tmp_first_model_5_73.pdb
 OpenBabel08272519233D

 50 53  0  0  1  0  0  0  0  0999 V2000
   -5.6030   -3.1370  -21.5790 O   0  0  0  0  0  0  0  0  0  0  0  0
   -6.7490   -2.8190  -21.8760 C   0  0  0  0  0  0  0  0  0  0  0  0
   -7.3910   -1.5490  -21.2990 C   0  0  0  0  0  0  0  0  0  0  0  0
   -6.5160   -0.9870  -20.2310 C   0  0  0  0  0  0  0  0  0  0  0  0
   -6.8280   -1.1430  -18.9090 C   0  0  0  0  0  0  0  0  0  0  0  0
   -6.0470   -0.7730  -17.8580 N   0  0  0  0  0  0  0  0  0  0  0  0
   -4.8900   -0.2300  -18.1680 C   0  0  0  0  0  0  0  0  0  0  0  0
   -4.4560    0.0220  -19.5050 C   0  0  0  0  0  0  0  0  0  0  0  0
   -3.2840    0.7890  -19.7680 C   0  0  0  0  0  0  0  0  0  0  0  0
   -3.1370    1.4180  -20.9740 C   0  0  0  0  0  0  0  0  0  0  0  0
   -4.0190    1.0960  -22.0420 C   0  0  0  0  0  0  0  0  0  0  0  0
   -5.0390    0.1950  -21.8710 C   0  0  0  0  0  0  0  0  0  0  0  0
   -5.3260   -0.2920  -20.5700 C   0  0  0  0  0  0  0  0  0  0  0  0
   -5.6600   -0.1190  -22.7070 H   0  0  0  0  0  0  0  0  0  0  0  0
   -3.8480    1.5240  -23.0200 H   0  0  0  0  0  0  0  0  0  0  0  0
   -2.3040    2.1000  -21.1420 H   0  0  0  0  0  0  0  0  0  0  0  0
   -2.5930    0.9510  -18.9410 H   0  0  0  0  0  0  0  0  0  0  0  0
   -4.2620    0.1500  -17.3530 H   0  0  0  0  0  0  0  0  0  0  0  0
   -7.7980   -1.5670  -18.6490 H   0  0  0  0  0  0  0  0  0  0  0  0
   -7.5490   -0.8180  -22.1030 H   0  0  0  0  0  0  0  0  0  0  0  0
   -8.3730   -1.8050  -20.8800 H   0  0  0  0  0  0  0  0  0  0  0  0
   -7.5160   -3.6050  -22.6920 N   0  0  0  0  0  0  0  0  0  0  0  0
   -8.6690   -3.1220  -23.4550 C   0  0  0  0  0  0  0  0  0  0  0  0
   -9.7460   -4.1950  -23.5550 C   0  0  0  0  0  0  0  0  0  0  0  0
   -9.1580   -5.4940  -24.0950 C   0  0  0  0  0  0  0  0  0  0  0  0
   -7.9820   -5.9420  -23.2320 C   0  0  0  0  0  0  0  0  0  0  0  0
   -6.9050   -4.8710  -23.1110 C   0  0  1  0  0  0  0  0  0  0  0  0
   -6.0420   -4.6960  -24.3780 C   0  0  0  0  0  0  0  0  0  0  0  0
   -5.2100   -5.9170  -24.6930 C   0  0  0  0  0  0  0  0  0  0  0  0
   -4.0540   -6.1860  -23.9540 C   0  0  0  0  0  0  0  0  0  0  0  0
   -3.2920   -7.3190  -24.2160 C   0  0  0  0  0  0  0  0  0  0  0  0
   -3.6790   -8.2060  -25.2170 C   0  0  0  0  0  0  0  0  0  0  0  0
   -4.8340   -7.9560  -25.9500 C   0  0  0  0  0  0  0  0  0  0  0  0
   -5.5940   -6.8210  -25.6850 C   0  0  0  0  0  0  0  0  0  0  0  0
   -6.5040   -6.6430  -26.2570 H   0  0  0  0  0  0  0  0  0  0  0  0
   -5.1460   -8.6420  -26.7330 H   0  0  0  0  0  0  0  0  0  0  0  0
   -3.0800   -9.0880  -25.4250 H   0  0  0  0  0  0  0  0  0  0  0  0
   -2.3910   -7.5130  -23.6400 H   0  0  0  0  0  0  0  0  0  0  0  0
   -3.7490   -5.4990  -23.1640 H   0  0  0  0  0  0  0  0  0  0  0  0
   -6.6890   -4.4410  -25.2250 H   0  0  0  0  0  0  0  0  0  0  0  0
   -5.3890   -3.8320  -24.2140 H   0  0  0  0  0  0  0  0  0  0  0  0
   -6.2350   -5.1570  -22.2940 H   0  0  0  0  0  0  0  0  0  0  0  0
   -8.3440   -6.1630  -22.2220 H   0  0  0  0  0  0  0  0  0  0  0  0
   -7.5260   -6.8640  -23.6110 H   0  0  0  0  0  0  0  0  0  0  0  0
   -9.9190   -6.2790  -24.1160 H   0  0  0  0  0  0  0  0  0  0  0  0
   -8.8260   -5.3500  -25.1320 H   0  0  0  0  0  0  0  0  0  0  0  0
  -10.1720   -4.3750  -22.5620 H   0  0  0  0  0  0  0  0  0  0  0  0
  -10.5680   -3.8300  -24.1830 H   0  0  0  0  0  0  0  0  0  0  0  0
   -9.0820   -2.2300  -22.9770 H   0  0  0  0  0  0  0  0  0  0  0  0
   -8.3640   -2.8160  -24.4690 H   0  0  0  0  0  0  0  0  0  0  0  0
  1  2  2  0  0  0  0
  2  3  1  0  0  0  0
  2 22  1  0  0  0  0
  3  4  1  0  0  0  0
  3 20  1  0  0  0  0
  3 21  1  0  0  0  0
  4  5  2  0  0  0  0
  4 13  1  0  0  0  0
  5  6  1  0  0  0  0
  5 19  1  0  0  0  0
  6  7  2  0  0  0  0
  7  8  1  0  0  0  0
  7 18  1  0  0  0  0
  8  9  2  0  0  0  0
  8 13  1  0  0  0  0
  9 10  1  0  0  0  0
  9 17  1  0  0  0  0
 10 11  2  0  0  0  0
 10 16  1  0  0  0  0
 11 12  1  0  0  0  0
 11 15  1  0  0  0  0
 12 13  2  0  0  0  0
 12 14  1  0  0  0  0
 22 23  1  0  0  0  0
 22 27  1  0  0  0  0
 23 24  1  0  0  0  0
 23 49  1  0  0  0  0
 23 50  1  0  0  0  0
 24 25  1  0  0  0  0
 24 47  1  0  0  0  0
 24 48  1  0  0  0  0
 25 26  1  0  0  0  0
 25 45  1  0  0  0  0
 25 46  1  0  0  0  0
 26 27  1  0  0  0  0
 26 43  1  0  0  0  0
 26 44  1  0  0  0  0
 27 28  1  0  0  0  0
 27 42  1  1  0  0  0
 28 29  1  0  0  0  0
 28 40  1  0  0  0  0
 28 41  1  0  0  0  0
 29 30  2  0  0  0  0
 29 34  1  0  0  0  0
 30 31  1  0  0  0  0
 30 39  1  0  0  0  0
 31 32  2  0  0  0  0
 31 38  1  0  0  0  0
 32 33  1  0  0  0  0
 32 37  1  0  0  0  0
 33 34  2  0  0  0  0
 33 36  1  0  0  0  0
 34 35  1  0  0  0  0
M  END
>  <MODEL>
       1

$$$$
