tmp_first_model_11_14.pdb
 OpenBabel08272522543D

 73 78  0  0  1  0  0  0  0  0999 V2000
   -7.9430   -3.7510  -24.0040 C   0  0  0  0  0  0  0  0  0  0  0  0
   -8.2960   -2.8760  -22.7980 C   0  0  1  0  0  0  0  0  0  0  0  0
   -7.0990   -2.6550  -21.8480 C   0  0  0  0  0  0  0  0  0  0  0  0
   -7.4060   -1.3940  -21.1980 N   0  0  0  0  0  0  0  0  0  0  0  0
   -6.6040   -0.8130  -20.1760 C   0  0  0  0  0  0  0  0  0  0  0  0
   -6.9020   -1.0490  -18.8590 C   0  0  0  0  0  0  0  0  0  0  0  0
   -6.2010   -0.5510  -17.8090 N   0  0  0  0  0  0  0  0  0  0  0  0
   -5.1690    0.2110  -18.0800 C   0  0  0  0  0  0  0  0  0  0  0  0
   -4.7360    0.5360  -19.3990 C   0  0  0  0  0  0  0  0  0  0  0  0
   -3.6080    1.3680  -19.6430 C   0  0  0  0  0  0  0  0  0  0  0  0
   -3.2190    1.6590  -20.9220 C   0  0  0  0  0  0  0  0  0  0  0  0
   -3.9350    1.1280  -22.0170 C   0  0  0  0  0  0  0  0  0  0  0  0
   -5.0300    0.3230  -21.8050 C   0  0  0  0  0  0  0  0  0  0  0  0
   -5.4700    0.0070  -20.4870 C   0  0  0  0  0  0  0  0  0  0  0  0
   -5.5650   -0.0860  -22.6560 H   0  0  0  0  0  0  0  0  0  0  0  0
   -3.6360    1.3780  -23.0310 H   0  0  0  0  0  0  0  0  0  0  0  0
   -2.3680    2.3110  -21.0980 H   0  0  0  0  0  0  0  0  0  0  0  0
   -3.0800    1.7820  -18.7890 H   0  0  0  0  0  0  0  0  0  0  0  0
   -4.6170    0.6170  -17.2300 H   0  0  0  0  0  0  0  0  0  0  0  0
   -7.7540   -1.6740  -18.5990 H   0  0  0  0  0  0  0  0  0  0  0  0
   -8.3900   -0.6660  -21.8320 C   0  0  0  0  0  0  0  0  0  0  0  0
   -8.8050    0.4030  -21.4380 O   0  0  0  0  0  0  0  0  0  0  0  0
   -8.8380   -1.4440  -23.1000 C   0  0  1  0  0  0  0  0  0  0  0  0
   -8.1520   -0.8420  -24.3590 C   0  0  0  0  0  0  0  0  0  0  0  0
   -8.5980    0.5080  -24.6290 N   0  0  0  0  0  0  0  0  0  0  0  0
   -7.6390    1.5720  -24.8900 C   0  0  0  0  0  0  0  0  0  0  0  0
   -7.5130    2.5190  -23.6940 C   0  0  0  0  0  0  0  0  0  0  0  0
   -6.4220    3.5570  -23.8580 N   0  3  0  0  0  0  0  0  0  0  0  0
   -6.7550    4.6780  -24.8350 C   0  0  0  0  0  0  0  0  0  0  0  0
   -7.7590    5.6770  -24.2560 C   0  0  0  0  0  0  0  0  0  0  0  0
   -7.3560    6.1560  -22.9350 N   0  0  0  0  0  0  0  0  0  0  0  0
   -6.5510    7.6010  -22.8290 S   0  0  0  0  0  0  0  0  0  0  0  0
   -6.0390    7.6910  -21.4760 O   0  0  0  0  0  0  0  0  0  0  0  0
   -7.4140    8.6200  -23.3990 O   0  0  0  0  0  0  0  0  0  0  0  0
   -5.1460    7.5250  -23.9310 C   0  0  0  0  0  0  0  0  0  0  0  0
   -5.5130    7.5000  -24.9620 H   0  0  0  0  0  0  0  0  0  0  0  0
   -4.5140    6.6680  -23.6890 H   0  0  0  0  0  0  0  0  0  0  0  0
   -4.6080    8.4630  -23.7580 H   0  0  0  0  0  0  0  0  0  0  0  0
   -7.0450    5.0950  -21.9730 C   0  0  0  0  0  0  0  0  0  0  0  0
   -5.9870    4.1520  -22.5320 C   0  0  0  0  0  0  0  0  0  0  0  0
   -5.0590    4.7040  -22.7070 H   0  0  0  0  0  0  0  0  0  0  0  0
   -5.7760    3.3330  -21.8390 H   0  0  0  0  0  0  0  0  0  0  0  0
   -7.9780    4.5530  -21.7890 H   0  0  0  0  0  0  0  0  0  0  0  0
   -6.7220    5.5600  -21.0420 H   0  0  0  0  0  0  0  0  0  0  0  0
   -8.7370    5.2030  -24.1320 H   0  0  0  0  0  0  0  0  0  0  0  0
   -7.8920    6.5380  -24.9150 H   0  0  0  0  0  0  0  0  0  0  0  0
   -7.1490    4.2450  -25.7530 H   0  0  0  0  0  0  0  0  0  0  0  0
   -5.8180    5.1850  -25.0780 H   0  0  0  0  0  0  0  0  0  0  0  0
   -5.5900    3.0560  -24.2220 H   0  0  0  0  0  0  0  0  0  0  0  0
   -7.2840    1.9440  -22.7920 H   0  0  0  0  0  0  0  0  0  0  0  0
   -8.4710    3.0200  -23.5410 H   0  0  0  0  0  0  0  0  0  0  0  0
   -6.6660    1.1100  -25.0950 H   0  0  0  0  0  0  0  0  0  0  0  0
   -7.9580    2.1140  -25.7840 H   0  0  0  0  0  0  0  0  0  0  0  0
   -9.9320    0.7940  -24.6720 C   0  0  0  0  0  0  0  0  0  0  0  0
  -10.3740    1.8250  -25.1670 O   0  0  0  0  0  0  0  0  0  0  0  0
  -10.8480   -0.2250  -24.0390 C   0  0  0  0  0  0  0  0  0  0  0  0
  -12.2240   -0.0280  -24.1480 C   0  0  0  0  0  0  0  0  0  0  0  0
  -13.1130   -0.9050  -23.5590 C   0  0  0  0  0  0  0  0  0  0  0  0
  -12.6100   -1.9330  -22.7650 C   0  0  0  0  0  0  0  0  0  0  0  0
  -13.7270   -2.9610  -21.9130 Cl  0  0  0  0  0  0  0  0  0  0  0  0
  -11.2480   -2.1230  -22.6080 C   0  0  0  0  0  0  0  0  0  0  0  0
  -10.3400   -1.2990  -23.2880 C   0  0  0  0  0  0  0  0  0  0  0  0
  -10.9140   -2.8960  -21.9230 H   0  0  0  0  0  0  0  0  0  0  0  0
  -14.1840   -0.7750  -23.6680 H   0  0  0  0  0  0  0  0  0  0  0  0
  -12.5720    0.8600  -24.6630 H   0  0  0  0  0  0  0  0  0  0  0  0
   -8.3780   -1.4920  -25.2190 H   0  0  0  0  0  0  0  0  0  0  0  0
   -7.0660   -0.8200  -24.2120 H   0  0  0  0  0  0  0  0  0  0  0  0
   -6.1510   -2.6050  -22.4090 H   0  0  0  0  0  0  0  0  0  0  0  0
   -6.9950   -3.4540  -21.1060 H   0  0  0  0  0  0  0  0  0  0  0  0
   -9.0720   -3.3820  -22.2180 H   0  0  0  0  0  0  0  0  0  0  0  0
   -7.0890   -3.3400  -24.5570 H   0  0  0  0  0  0  0  0  0  0  0  0
   -7.6630   -4.7620  -23.6860 H   0  0  0  0  0  0  0  0  0  0  0  0
   -8.7800   -3.8420  -24.7040 H   0  0  0  0  0  0  0  0  0  0  0  0
  1  2  1  0  0  0  0
  1 71  1  0  0  0  0
  1 72  1  0  0  0  0
  1 73  1  0  0  0  0
  2  3  1  0  0  0  0
  2 23  1  0  0  0  0
  2 70  1  1  0  0  0
  3  4  1  0  0  0  0
  3 68  1  0  0  0  0
  3 69  1  0  0  0  0
  4  5  1  0  0  0  0
  4 21  1  0  0  0  0
  5  6  2  0  0  0  0
  5 14  1  0  0  0  0
  6  7  1  0  0  0  0
  6 20  1  0  0  0  0
  7  8  2  0  0  0  0
  8  9  1  0  0  0  0
  8 19  1  0  0  0  0
  9 10  2  0  0  0  0
  9 14  1  0  0  0  0
 10 11  1  0  0  0  0
 10 18  1  0  0  0  0
 11 12  2  0  0  0  0
 11 17  1  0  0  0  0
 12 13  1  0  0  0  0
 12 16  1  0  0  0  0
 13 14  2  0  0  0  0
 13 15  1  0  0  0  0
 21 22  2  0  0  0  0
 23 21  1  1  0  0  0
 23 24  1  0  0  0  0
 23 62  1  0  0  0  0
 24 25  1  0  0  0  0
 24 66  1  0  0  0  0
 24 67  1  0  0  0  0
 25 26  1  0  0  0  0
 25 54  1  0  0  0  0
 26 27  1  0  0  0  0
 26 52  1  0  0  0  0
 26 53  1  0  0  0  0
 27 28  1  0  0  0  0
 27 50  1  0  0  0  0
 27 51  1  0  0  0  0
 28 29  1  0  0  0  0
 28 40  1  0  0  0  0
 28 49  1  0  0  0  0
 29 30  1  0  0  0  0
 29 47  1  0  0  0  0
 29 48  1  0  0  0  0
 30 31  1  0  0  0  0
 30 45  1  0  0  0  0
 30 46  1  0  0  0  0
 31 32  1  0  0  0  0
 31 39  1  0  0  0  0
 32 33  2  0  0  0  0
 32 34  2  0  0  0  0
 32 35  1  0  0  0  0
 35 36  1  0  0  0  0
 35 37  1  0  0  0  0
 35 38  1  0  0  0  0
 39 40  1  0  0  0  0
 39 43  1  0  0  0  0
 39 44  1  0  0  0  0
 40 41  1  0  0  0  0
 40 42  1  0  0  0  0
 54 55  2  0  0  0  0
 54 56  1  0  0  0  0
 56 57  2  0  0  0  0
 56 62  1  0  0  0  0
 57 58  1  0  0  0  0
 57 65  1  0  0  0  0
 58 59  2  0  0  0  0
 58 64  1  0  0  0  0
 59 60  1  0  0  0  0
 59 61  1  0  0  0  0
 61 62  2  0  0  0  0
 61 63  1  0  0  0  0
M  CHG  1  28   1
M  END
>  <MODEL>
       1

$$$$
