tmp_first_model_9_57.pdb
 OpenBabel08272521403D

 59 63  0  0  1  0  0  0  0  0999 V2000
  -14.4940   -1.2950  -23.5320 C   0  0  0  0  0  0  0  0  0  0  0  0
  -13.7730   -2.4890  -23.1350 N   0  0  0  0  0  0  0  0  0  0  0  0
  -13.4820   -2.7050  -21.8230 C   0  0  0  0  0  0  0  0  0  0  0  0
  -13.9510   -2.0280  -20.9240 O   0  0  0  0  0  0  0  0  0  0  0  0
  -12.5310   -3.8840  -21.5490 C   0  0  0  0  0  0  0  0  0  0  0  0
  -11.2150   -3.7970  -22.1790 N   0  0  0  0  0  0  0  0  0  0  0  0
  -10.0610   -3.3010  -21.4280 C   0  0  0  0  0  0  0  0  0  0  0  0
   -8.8430   -2.9390  -22.3230 C   0  0  2  0  0  0  0  0  0  0  0  0
   -7.6050   -2.7120  -21.4350 C   0  0  0  0  0  0  0  0  0  0  0  0
   -6.8650   -3.5710  -20.9880 O   0  0  0  0  0  0  0  0  0  0  0  0
   -7.4080   -1.3600  -21.2570 N   0  0  0  0  0  0  0  0  0  0  0  0
   -6.5930   -0.8520  -20.2090 C   0  0  0  0  0  0  0  0  0  0  0  0
   -6.8940   -1.1030  -18.8930 C   0  0  0  0  0  0  0  0  0  0  0  0
   -6.2200   -0.5770  -17.8400 N   0  0  0  0  0  0  0  0  0  0  0  0
   -5.2070    0.2110  -18.0970 C   0  0  0  0  0  0  0  0  0  0  0  0
   -4.7620    0.5270  -19.4100 C   0  0  0  0  0  0  0  0  0  0  0  0
   -3.6330    1.3540  -19.6370 C   0  0  0  0  0  0  0  0  0  0  0  0
   -3.2240    1.6250  -20.9130 C   0  0  0  0  0  0  0  0  0  0  0  0
   -3.9260    1.0880  -22.0140 C   0  0  0  0  0  0  0  0  0  0  0  0
   -5.0240    0.2860  -21.8190 C   0  0  0  0  0  0  0  0  0  0  0  0
   -5.4740   -0.0110  -20.5060 C   0  0  0  0  0  0  0  0  0  0  0  0
   -5.5470   -0.1380  -22.6680 H   0  0  0  0  0  0  0  0  0  0  0  0
   -3.5890    1.3000  -23.0240 H   0  0  0  0  0  0  0  0  0  0  0  0
   -2.3610    2.2590  -21.0900 H   0  0  0  0  0  0  0  0  0  0  0  0
   -3.1110    1.7680  -18.7780 H   0  0  0  0  0  0  0  0  0  0  0  0
   -4.6690    0.6280  -17.2440 H   0  0  0  0  0  0  0  0  0  0  0  0
   -7.7310   -1.7490  -18.6390 H   0  0  0  0  0  0  0  0  0  0  0  0
   -8.4130   -0.5520  -21.9270 C   0  0  0  0  0  0  0  0  0  0  0  0
   -9.0160   -1.4970  -22.9990 C   0  0  0  0  0  0  0  0  0  0  0  0
  -10.4650   -1.1000  -23.2900 C   0  0  0  0  0  0  0  0  0  0  0  0
  -11.0710   -1.0840  -22.3790 H   0  0  0  0  0  0  0  0  0  0  0  0
  -10.9150   -1.8130  -23.9840 H   0  0  0  0  0  0  0  0  0  0  0  0
  -10.5090   -0.1060  -23.7450 H   0  0  0  0  0  0  0  0  0  0  0  0
   -8.2240   -1.4240  -24.3150 C   0  0  0  0  0  0  0  0  0  0  0  0
   -8.6280   -2.1490  -25.0300 H   0  0  0  0  0  0  0  0  0  0  0  0
   -8.3080   -0.4250  -24.7560 H   0  0  0  0  0  0  0  0  0  0  0  0
   -7.1630   -1.6640  -24.1770 H   0  0  0  0  0  0  0  0  0  0  0  0
   -7.9630    0.3460  -22.3640 H   0  0  0  0  0  0  0  0  0  0  0  0
   -9.1870   -0.2170  -21.2150 H   0  0  0  0  0  0  0  0  0  0  0  0
   -8.6060   -4.1090  -23.2540 C   0  0  0  0  0  0  0  0  0  0  0  0
   -7.3230   -4.4640  -23.6990 C   0  0  0  0  0  0  0  0  0  0  0  0
   -7.1650   -5.4700  -24.6380 C   0  0  0  0  0  0  0  0  0  0  0  0
   -5.5690   -5.8400  -25.2330 Cl  0  0  0  0  0  0  0  0  0  0  0  0
   -8.2500   -6.1880  -25.1380 C   0  0  0  0  0  0  0  0  0  0  0  0
   -9.5100   -5.8630  -24.6730 C   0  0  0  0  0  0  0  0  0  0  0  0
   -9.6910   -4.8350  -23.7520 C   0  0  0  0  0  0  0  0  0  0  0  0
  -11.0800   -4.5120  -23.3350 C   0  0  0  0  0  0  0  0  0  0  0  0
  -12.0670   -4.8680  -23.9800 O   0  0  0  0  0  0  0  0  0  0  0  0
  -10.3840   -6.4100  -25.0030 H   0  0  0  0  0  0  0  0  0  0  0  0
   -8.1050   -6.9800  -25.8670 H   0  0  0  0  0  0  0  0  0  0  0  0
   -6.4400   -3.9670  -23.3140 H   0  0  0  0  0  0  0  0  0  0  0  0
  -10.3460   -2.3950  -20.8860 H   0  0  0  0  0  0  0  0  0  0  0  0
   -9.7640   -4.0550  -20.6940 H   0  0  0  0  0  0  0  0  0  0  0  0
  -12.4500   -4.0420  -20.4700 H   0  0  0  0  0  0  0  0  0  0  0  0
  -13.0090   -4.7620  -21.9890 H   0  0  0  0  0  0  0  0  0  0  0  0
  -13.4570   -3.1550  -23.8290 H   0  0  0  0  0  0  0  0  0  0  0  0
  -13.8530   -0.4040  -23.5110 H   0  0  0  0  0  0  0  0  0  0  0  0
  -14.8860   -1.4450  -24.5410 H   0  0  0  0  0  0  0  0  0  0  0  0
  -15.3140   -1.1070  -22.8370 H   0  0  0  0  0  0  0  0  0  0  0  0
  1  2  1  0  0  0  0
  1 57  1  0  0  0  0
  1 58  1  0  0  0  0
  1 59  1  0  0  0  0
  2  3  1  0  0  0  0
  2 56  1  0  0  0  0
  3  4  2  0  0  0  0
  3  5  1  0  0  0  0
  5  6  1  0  0  0  0
  5 54  1  0  0  0  0
  5 55  1  0  0  0  0
  6  7  1  0  0  0  0
  6 47  1  0  0  0  0
  7  8  1  0  0  0  0
  7 52  1  0  0  0  0
  7 53  1  0  0  0  0
  8  9  1  1  0  0  0
  8 29  1  0  0  0  0
  8 40  1  0  0  0  0
  9 10  2  0  0  0  0
  9 11  1  0  0  0  0
 11 12  1  0  0  0  0
 11 28  1  0  0  0  0
 12 13  2  0  0  0  0
 12 21  1  0  0  0  0
 13 14  1  0  0  0  0
 13 27  1  0  0  0  0
 14 15  2  0  0  0  0
 15 16  1  0  0  0  0
 15 26  1  0  0  0  0
 16 17  2  0  0  0  0
 16 21  1  0  0  0  0
 17 18  1  0  0  0  0
 17 25  1  0  0  0  0
 18 19  2  0  0  0  0
 18 24  1  0  0  0  0
 19 20  1  0  0  0  0
 19 23  1  0  0  0  0
 20 21  2  0  0  0  0
 20 22  1  0  0  0  0
 28 29  1  0  0  0  0
 28 38  1  0  0  0  0
 28 39  1  0  0  0  0
 29 30  1  0  0  0  0
 29 34  1  0  0  0  0
 30 31  1  0  0  0  0
 30 32  1  0  0  0  0
 30 33  1  0  0  0  0
 34 35  1  0  0  0  0
 34 36  1  0  0  0  0
 34 37  1  0  0  0  0
 40 41  2  0  0  0  0
 40 46  1  0  0  0  0
 41 42  1  0  0  0  0
 41 51  1  0  0  0  0
 42 43  1  0  0  0  0
 42 44  2  0  0  0  0
 44 45  1  0  0  0  0
 44 50  1  0  0  0  0
 45 46  2  0  0  0  0
 45 49  1  0  0  0  0
 46 47  1  0  0  0  0
 47 48  2  0  0  0  0
M  END
>  <MODEL>
       1

$$$$
