tmp_first_model_5_91.pdb
 OpenBabel08272519233D

 66 71  0  0  1  0  0  0  0  0999 V2000
   -7.3450    0.9120  -29.1020 C   0  0  0  0  0  0  0  0  0  0  0  0
   -7.7540    1.1350  -27.7280 N   0  0  0  0  0  0  0  0  0  0  0  0
   -6.9240    0.7810  -26.7120 C   0  0  0  0  0  0  0  0  0  0  0  0
   -5.8830    0.1650  -26.8840 O   0  0  0  0  0  0  0  0  0  0  0  0
   -7.3890    1.1770  -25.3060 C   0  0  0  0  0  0  0  0  0  0  0  0
   -8.3800    0.2620  -24.7660 N   0  0  0  0  0  0  0  0  0  0  0  0
   -7.9720   -1.0700  -24.3480 C   0  0  0  0  0  0  0  0  0  0  0  0
   -8.7740   -1.5460  -23.0930 C   0  0  2  0  0  0  0  0  0  0  0  0
   -8.3130   -0.7340  -21.8420 C   0  0  0  0  0  0  0  0  0  0  0  0
   -8.6600    0.3750  -21.5090 O   0  0  0  0  0  0  0  0  0  0  0  0
   -7.3930   -1.5140  -21.1530 N   0  0  0  0  0  0  0  0  0  0  0  0
   -6.4870   -1.0560  -20.1570 C   0  0  0  0  0  0  0  0  0  0  0  0
   -6.6090   -1.5130  -18.8680 C   0  0  0  0  0  0  0  0  0  0  0  0
   -5.6520   -1.3820  -17.9150 N   0  0  0  0  0  0  0  0  0  0  0  0
   -4.5430   -0.7650  -18.2530 C   0  0  0  0  0  0  0  0  0  0  0  0
   -4.3360   -0.1440  -19.5130 C   0  0  0  0  0  0  0  0  0  0  0  0
   -3.2050    0.6800  -19.7520 C   0  0  0  0  0  0  0  0  0  0  0  0
   -3.1360    1.4330  -20.8920 C   0  0  0  0  0  0  0  0  0  0  0  0
   -4.1270    1.3000  -21.8920 C   0  0  0  0  0  0  0  0  0  0  0  0
   -5.2110    0.4850  -21.6990 C   0  0  0  0  0  0  0  0  0  0  0  0
   -5.3470   -0.2530  -20.4920 C   0  0  0  0  0  0  0  0  0  0  0  0
   -6.0220    0.4630  -22.4210 H   0  0  0  0  0  0  0  0  0  0  0  0
   -4.0190    1.8360  -22.8280 H   0  0  0  0  0  0  0  0  0  0  0  0
   -2.3040    2.1090  -21.0530 H   0  0  0  0  0  0  0  0  0  0  0  0
   -2.4720    0.7790  -18.9610 H   0  0  0  0  0  0  0  0  0  0  0  0
   -3.7600   -0.6800  -17.4970 H   0  0  0  0  0  0  0  0  0  0  0  0
   -7.5400   -1.9840  -18.5460 H   0  0  0  0  0  0  0  0  0  0  0  0
   -7.1040   -2.7710  -21.8170 C   0  0  0  0  0  0  0  0  0  0  0  0
   -8.3690   -2.9740  -22.6490 C   0  0  2  0  0  0  0  0  0  0  0  0
   -8.2560   -4.0040  -23.7770 C   0  0  0  0  0  0  0  0  0  0  0  0
   -8.1560   -5.3720  -23.3060 N   0  0  0  0  0  0  0  0  0  0  0  0
   -6.9720   -5.8720  -22.8040 C   0  0  0  0  0  0  0  0  0  0  0  0
   -5.7120   -5.5430  -23.3540 C   0  0  0  0  0  0  0  0  0  0  0  0
   -4.5960   -6.1170  -22.9340 N   0  0  0  0  0  0  0  0  0  0  0  0
   -4.7060   -6.9920  -21.9330 C   0  0  0  0  0  0  0  0  0  0  0  0
   -5.9280   -7.2500  -21.3380 C   0  0  0  0  0  0  0  0  0  0  0  0
   -7.0660   -6.7110  -21.7740 N   0  0  0  0  0  0  0  0  0  0  0  0
   -6.0060   -7.9050  -20.4740 H   0  0  0  0  0  0  0  0  0  0  0  0
   -3.7990   -7.4980  -21.6200 H   0  0  0  0  0  0  0  0  0  0  0  0
   -5.6060   -4.8210  -24.1640 H   0  0  0  0  0  0  0  0  0  0  0  0
   -8.9380   -5.6900  -22.7440 H   0  0  0  0  0  0  0  0  0  0  0  0
   -7.3760   -3.7850  -24.3930 H   0  0  0  0  0  0  0  0  0  0  0  0
   -9.1330   -3.9280  -24.4330 H   0  0  0  0  0  0  0  0  0  0  0  0
   -9.1310   -3.3200  -21.9380 H   0  0  0  0  0  0  0  0  0  0  0  0
   -6.9280   -3.5640  -21.0830 H   0  0  0  0  0  0  0  0  0  0  0  0
   -6.2040   -2.7130  -22.4600 H   0  0  0  0  0  0  0  0  0  0  0  0
  -10.2490   -1.3840  -23.4180 C   0  0  0  0  0  0  0  0  0  0  0  0
  -11.2430   -2.2130  -22.8680 C   0  0  0  0  0  0  0  0  0  0  0  0
  -12.5760   -1.9850  -23.1560 C   0  0  0  0  0  0  0  0  0  0  0  0
  -13.8020   -2.9820  -22.4230 Cl  0  0  0  0  0  0  0  0  0  0  0  0
  -12.9850   -0.9500  -23.9920 C   0  0  0  0  0  0  0  0  0  0  0  0
  -12.0150   -0.1260  -24.5230 C   0  0  0  0  0  0  0  0  0  0  0  0
  -10.6660   -0.3570  -24.2820 C   0  0  0  0  0  0  0  0  0  0  0  0
   -9.6940    0.5400  -24.9860 C   0  0  0  0  0  0  0  0  0  0  0  0
  -10.0480    1.4680  -25.7150 O   0  0  0  0  0  0  0  0  0  0  0  0
  -12.2770    0.7360  -25.1200 H   0  0  0  0  0  0  0  0  0  0  0  0
  -14.0420   -0.8060  -24.1880 H   0  0  0  0  0  0  0  0  0  0  0  0
  -11.0020   -3.0340  -22.2010 H   0  0  0  0  0  0  0  0  0  0  0  0
   -8.1490   -1.7790  -25.1710 H   0  0  0  0  0  0  0  0  0  0  0  0
   -6.8910   -1.0590  -24.1620 H   0  0  0  0  0  0  0  0  0  0  0  0
   -6.5070    1.1840  -24.6550 H   0  0  0  0  0  0  0  0  0  0  0  0
   -7.8370    2.1740  -25.3070 H   0  0  0  0  0  0  0  0  0  0  0  0
   -8.6600    1.5310  -27.5140 H   0  0  0  0  0  0  0  0  0  0  0  0
   -6.3040    1.2240  -29.2320 H   0  0  0  0  0  0  0  0  0  0  0  0
   -7.4130   -0.1430  -29.3910 H   0  0  0  0  0  0  0  0  0  0  0  0
   -7.9810    1.5070  -29.7610 H   0  0  0  0  0  0  0  0  0  0  0  0
  1  2  1  0  0  0  0
  1 64  1  0  0  0  0
  1 65  1  0  0  0  0
  1 66  1  0  0  0  0
  2  3  1  0  0  0  0
  2 63  1  0  0  0  0
  3  4  2  0  0  0  0
  3  5  1  0  0  0  0
  5  6  1  0  0  0  0
  5 61  1  0  0  0  0
  5 62  1  0  0  0  0
  6  7  1  0  0  0  0
  6 54  1  0  0  0  0
  7  8  1  0  0  0  0
  7 59  1  0  0  0  0
  7 60  1  0  0  0  0
  8  9  1  1  0  0  0
  8 29  1  0  0  0  0
  8 47  1  0  0  0  0
  9 10  2  0  0  0  0
  9 11  1  0  0  0  0
 11 12  1  0  0  0  0
 11 28  1  0  0  0  0
 12 13  2  0  0  0  0
 12 21  1  0  0  0  0
 13 14  1  0  0  0  0
 13 27  1  0  0  0  0
 14 15  2  0  0  0  0
 15 16  1  0  0  0  0
 15 26  1  0  0  0  0
 16 17  2  0  0  0  0
 16 21  1  0  0  0  0
 17 18  1  0  0  0  0
 17 25  1  0  0  0  0
 18 19  2  0  0  0  0
 18 24  1  0  0  0  0
 19 20  1  0  0  0  0
 19 23  1  0  0  0  0
 20 21  2  0  0  0  0
 20 22  1  0  0  0  0
 28 29  1  0  0  0  0
 28 45  1  0  0  0  0
 28 46  1  0  0  0  0
 29 30  1  0  0  0  0
 29 44  1  1  0  0  0
 30 31  1  0  0  0  0
 30 42  1  0  0  0  0
 30 43  1  0  0  0  0
 31 32  1  0  0  0  0
 31 41  1  0  0  0  0
 32 33  2  0  0  0  0
 32 37  1  0  0  0  0
 33 34  1  0  0  0  0
 33 40  1  0  0  0  0
 34 35  2  0  0  0  0
 35 36  1  0  0  0  0
 35 39  1  0  0  0  0
 36 37  2  0  0  0  0
 36 38  1  0  0  0  0
 47 48  2  0  0  0  0
 47 53  1  0  0  0  0
 48 49  1  0  0  0  0
 48 58  1  0  0  0  0
 49 50  1  0  0  0  0
 49 51  2  0  0  0  0
 51 52  1  0  0  0  0
 51 57  1  0  0  0  0
 52 53  2  0  0  0  0
 52 56  1  0  0  0  0
 53 54  1  0  0  0  0
 54 55  2  0  0  0  0
M  END
>  <MODEL>
       1

$$$$
