tmp_first_model_1_83.pdb
 OpenBabel08272517043D

 46 50  0  0  1  0  0  0  0  0999 V2000
   -3.6280   -1.0750  -25.3600 N   0  0  0  0  0  0  0  0  0  0  0  0
   -4.5230   -2.0120  -26.3760 S   0  0  0  0  0  0  0  0  0  0  0  0
   -4.3070   -3.3730  -25.9200 O   0  0  0  0  0  0  0  0  0  0  0  0
   -4.1870   -1.5790  -27.7190 O   0  0  0  0  0  0  0  0  0  0  0  0
   -6.2210   -1.5860  -26.0880 C   0  0  0  0  0  0  0  0  0  0  0  0
   -6.9630   -0.9880  -27.1010 C   0  0  0  0  0  0  0  0  0  0  0  0
   -8.2720   -0.6360  -26.8530 C   0  0  0  0  0  0  0  0  0  0  0  0
   -8.8390   -0.8570  -25.5990 C   0  0  0  0  0  0  0  0  0  0  0  0
   -8.0970   -1.4540  -24.5780 C   0  0  0  0  0  0  0  0  0  0  0  0
   -6.7770   -1.8080  -24.8380 C   0  0  0  0  0  0  0  0  0  0  0  0
   -6.1850   -2.2820  -24.0620 H   0  0  0  0  0  0  0  0  0  0  0  0
   -8.6850   -1.6850  -23.1980 C   0  0  1  0  0  0  0  0  0  0  0  0
  -10.2200   -1.5960  -23.2660 C   0  0  0  0  0  0  0  0  0  0  0  0
  -10.6570   -0.4240  -24.1340 C   0  0  0  0  0  0  0  0  0  0  0  0
  -10.1390   -0.5040  -25.4580 O   0  0  0  0  0  0  0  0  0  0  0  0
  -10.3500    0.5230  -23.6680 H   0  0  0  0  0  0  0  0  0  0  0  0
  -11.7390   -0.4420  -24.2850 H   0  0  0  0  0  0  0  0  0  0  0  0
  -10.6030   -1.5030  -22.2470 H   0  0  0  0  0  0  0  0  0  0  0  0
  -10.6170   -2.5310  -23.6860 H   0  0  0  0  0  0  0  0  0  0  0  0
   -8.2610   -2.9240  -22.5880 N   0  0  0  0  0  0  0  0  0  0  0  0
   -7.4920   -2.7900  -21.4710 C   0  0  0  0  0  0  0  0  0  0  0  0
   -6.9500   -3.6680  -20.8400 O   0  0  0  0  0  0  0  0  0  0  0  0
   -7.4070   -1.4040  -21.2180 N   0  0  0  0  0  0  0  0  0  0  0  0
   -6.5910   -0.8330  -20.1990 C   0  0  0  0  0  0  0  0  0  0  0  0
   -6.9010   -1.0710  -18.8850 C   0  0  0  0  0  0  0  0  0  0  0  0
   -6.2100   -0.5590  -17.8400 N   0  0  0  0  0  0  0  0  0  0  0  0
   -5.1790    0.2070  -18.0990 C   0  0  0  0  0  0  0  0  0  0  0  0
   -4.7340    0.5190  -19.4110 C   0  0  0  0  0  0  0  0  0  0  0  0
   -3.5990    1.3440  -19.6380 C   0  0  0  0  0  0  0  0  0  0  0  0
   -3.1810    1.6060  -20.9130 C   0  0  0  0  0  0  0  0  0  0  0  0
   -3.8770    1.0460  -22.0100 C   0  0  0  0  0  0  0  0  0  0  0  0
   -4.9770    0.2500  -21.8170 C   0  0  0  0  0  0  0  0  0  0  0  0
   -5.4480   -0.0240  -20.5030 C   0  0  0  0  0  0  0  0  0  0  0  0
   -5.5160   -0.1660  -22.6660 H   0  0  0  0  0  0  0  0  0  0  0  0
   -3.5390    1.2610  -23.0200 H   0  0  0  0  0  0  0  0  0  0  0  0
   -2.3200    2.2450  -21.0910 H   0  0  0  0  0  0  0  0  0  0  0  0
   -3.0780    1.7600  -18.7800 H   0  0  0  0  0  0  0  0  0  0  0  0
   -4.6370    0.6100  -17.2440 H   0  0  0  0  0  0  0  0  0  0  0  0
   -7.7520   -1.6920  -18.6170 H   0  0  0  0  0  0  0  0  0  0  0  0
   -8.1000   -0.6750  -22.1890 C   0  0  0  0  0  0  0  0  0  0  0  0
   -8.2040    0.5230  -22.2240 O   0  0  0  0  0  0  0  0  0  0  0  0
   -8.4570   -3.8280  -22.9870 H   0  0  0  0  0  0  0  0  0  0  0  0
   -8.8850   -0.2120  -27.6310 H   0  0  0  0  0  0  0  0  0  0  0  0
   -6.5160   -0.8170  -28.0730 H   0  0  0  0  0  0  0  0  0  0  0  0
   -3.7340   -0.0840  -25.5460 H   0  0  0  0  0  0  0  0  0  0  0  0
   -3.7010   -1.3580  -24.3900 H   0  0  0  0  0  0  0  0  0  0  0  0
  1  2  1  0  0  0  0
  1 45  1  0  0  0  0
  1 46  1  0  0  0  0
  2  3  2  0  0  0  0
  2  4  2  0  0  0  0
  2  5  1  0  0  0  0
  5  6  2  0  0  0  0
  5 10  1  0  0  0  0
  6  7  1  0  0  0  0
  6 44  1  0  0  0  0
  7  8  2  0  0  0  0
  7 43  1  0  0  0  0
  8  9  1  0  0  0  0
  8 15  1  0  0  0  0
  9 10  2  0  0  0  0
 10 11  1  0  0  0  0
 12  9  1  6  0  0  0
 12 13  1  0  0  0  0
 12 20  1  0  0  0  0
 12 40  1  0  0  0  0
 13 14  1  0  0  0  0
 13 18  1  0  0  0  0
 13 19  1  0  0  0  0
 14 15  1  0  0  0  0
 14 16  1  0  0  0  0
 14 17  1  0  0  0  0
 20 21  1  0  0  0  0
 20 42  1  0  0  0  0
 21 22  2  0  0  0  0
 21 23  1  0  0  0  0
 23 24  1  0  0  0  0
 23 40  1  0  0  0  0
 24 25  2  0  0  0  0
 24 33  1  0  0  0  0
 25 26  1  0  0  0  0
 25 39  1  0  0  0  0
 26 27  2  0  0  0  0
 27 28  1  0  0  0  0
 27 38  1  0  0  0  0
 28 29  2  0  0  0  0
 28 33  1  0  0  0  0
 29 30  1  0  0  0  0
 29 37  1  0  0  0  0
 30 31  2  0  0  0  0
 30 36  1  0  0  0  0
 31 32  1  0  0  0  0
 31 35  1  0  0  0  0
 32 33  2  0  0  0  0
 32 34  1  0  0  0  0
 40 41  2  0  0  0  0
M  END
>  <MODEL>
       1

$$$$
