tmp_first_model_16_25.pdb
 OpenBabel08282501503D

 70 75  0  0  1  0  0  0  0  0999 V2000
   -5.5550   -7.2980  -25.7270 O   0  0  0  0  0  0  0  0  0  0  0  0
   -5.5610   -6.9740  -24.5540 C   0  0  0  0  0  0  0  0  0  0  0  0
   -6.7870   -6.3610  -23.8650 C   0  0  0  0  0  0  0  0  0  0  0  0
   -6.8070   -4.8670  -23.9550 N   0  3  1  0  0  0  0  0  0  0  0  0
   -6.7680   -4.4950  -25.4300 C   0  0  0  0  0  0  0  0  0  0  0  0
   -6.7850   -3.0120  -25.6390 C   0  0  0  0  0  0  0  0  0  0  0  0
   -6.2880   -2.4680  -26.8220 C   0  0  0  0  0  0  0  0  0  0  0  0
   -6.3060   -1.0990  -27.0380 C   0  0  0  0  0  0  0  0  0  0  0  0
   -6.8230   -0.2710  -26.0480 C   0  0  0  0  0  0  0  0  0  0  0  0
   -6.8400    1.4490  -26.2980 Cl  0  0  0  0  0  0  0  0  0  0  0  0
   -7.3120   -0.7970  -24.8620 C   0  0  0  0  0  0  0  0  0  0  0  0
   -7.3130   -2.1780  -24.6610 C   0  0  0  0  0  0  0  0  0  0  0  0
   -7.8320   -2.7140  -23.3470 C   0  0  2  0  0  0  0  0  0  0  0  0
   -6.8370   -2.3750  -22.2470 C   0  0  0  0  0  0  0  0  0  0  0  0
   -5.7430   -2.9220  -22.2050 O   0  0  0  0  0  0  0  0  0  0  0  0
   -7.2990   -1.4480  -21.3400 N   0  0  0  0  0  0  0  0  0  0  0  0
   -6.5540   -0.9050  -20.2700 C   0  0  0  0  0  0  0  0  0  0  0  0
   -6.9150   -1.1430  -18.9690 C   0  0  0  0  0  0  0  0  0  0  0  0
   -6.1690   -0.7910  -17.8950 N   0  0  0  0  0  0  0  0  0  0  0  0
   -5.0920   -0.0760  -18.1190 C   0  0  0  0  0  0  0  0  0  0  0  0
   -4.7090    0.3910  -19.4080 C   0  0  0  0  0  0  0  0  0  0  0  0
   -3.6240    1.2850  -19.6060 C   0  0  0  0  0  0  0  0  0  0  0  0
   -3.2640    1.6680  -20.8680 C   0  0  0  0  0  0  0  0  0  0  0  0
   -3.9790    1.1960  -21.9920 C   0  0  0  0  0  0  0  0  0  0  0  0
   -5.0560    0.3660  -21.8310 C   0  0  0  0  0  0  0  0  0  0  0  0
   -5.4420   -0.0540  -20.5270 C   0  0  0  0  0  0  0  0  0  0  0  0
   -5.6220    0.0220  -22.6920 H   0  0  0  0  0  0  0  0  0  0  0  0
   -3.6710    1.4930  -22.9890 H   0  0  0  0  0  0  0  0  0  0  0  0
   -2.4160    2.3290  -21.0250 H   0  0  0  0  0  0  0  0  0  0  0  0
   -3.1040    1.6730  -18.7350 H   0  0  0  0  0  0  0  0  0  0  0  0
   -4.4680    0.1800  -17.2610 H   0  0  0  0  0  0  0  0  0  0  0  0
   -7.8370   -1.6800  -18.7400 H   0  0  0  0  0  0  0  0  0  0  0  0
   -8.3040   -1.4150  -21.2400 H   0  0  0  0  0  0  0  0  0  0  0  0
   -8.0220   -4.2290  -23.3300 C   0  0  0  0  0  0  0  0  0  0  0  0
   -8.9180   -4.5180  -23.8850 H   0  0  0  0  0  0  0  0  0  0  0  0
   -8.1240   -4.5740  -22.2990 H   0  0  0  0  0  0  0  0  0  0  0  0
   -8.7650   -2.2070  -23.0950 H   0  0  0  0  0  0  0  0  0  0  0  0
   -7.6870   -0.1300  -24.0910 H   0  0  0  0  0  0  0  0  0  0  0  0
   -5.9270   -0.6770  -27.9620 H   0  0  0  0  0  0  0  0  0  0  0  0
   -5.8820   -3.1300  -27.5850 H   0  0  0  0  0  0  0  0  0  0  0  0
   -7.6420   -4.9710  -25.8910 H   0  0  0  0  0  0  0  0  0  0  0  0
   -5.8910   -4.9540  -25.8830 H   0  0  0  0  0  0  0  0  0  0  0  0
   -5.9920   -4.4400  -23.4580 H   0  0  0  0  0  0  0  0  0  0  0  0
   -7.6480   -6.7660  -24.4110 H   0  0  0  0  0  0  0  0  0  0  0  0
   -6.8200   -6.7030  -22.8260 H   0  0  0  0  0  0  0  0  0  0  0  0
   -4.4690   -7.1330  -23.7450 N   0  0  0  0  0  0  0  0  0  0  0  0
   -3.2630   -7.7220  -24.1950 C   0  0  0  0  0  0  0  0  0  0  0  0
   -2.0430   -7.0930  -23.9570 C   0  0  0  0  0  0  0  0  0  0  0  0
   -0.8680   -7.6920  -24.3900 C   0  0  0  0  0  0  0  0  0  0  0  0
   -0.9040   -8.9030  -25.0760 C   0  0  0  0  0  0  0  0  0  0  0  0
    0.3070   -9.5260  -25.4930 N   0  0  0  0  0  0  0  0  0  0  0  0
    1.3050   -9.8580  -24.4810 C   0  0  0  0  0  0  0  0  0  0  0  0
    2.6280  -10.2210  -25.1340 C   0  0  0  0  0  0  0  0  0  0  0  0
    2.4040  -11.1810  -26.1380 O   0  0  0  0  0  0  0  0  0  0  0  0
    1.6870  -10.6230  -27.2040 C   0  0  0  0  0  0  0  0  0  0  0  0
    0.3950   -9.9320  -26.8000 C   0  0  0  0  0  0  0  0  0  0  0  0
   -0.4670   -9.7090  -27.6300 O   0  0  0  0  0  0  0  0  0  0  0  0
    2.2860   -9.8780  -27.7480 H   0  0  0  0  0  0  0  0  0  0  0  0
    1.4350  -11.4210  -27.9000 H   0  0  0  0  0  0  0  0  0  0  0  0
    3.1270   -9.3330  -25.5500 H   0  0  0  0  0  0  0  0  0  0  0  0
    3.3050  -10.6760  -24.4070 H   0  0  0  0  0  0  0  0  0  0  0  0
    1.4420   -9.0120  -23.8030 H   0  0  0  0  0  0  0  0  0  0  0  0
    0.9540  -10.7030  -23.8770 H   0  0  0  0  0  0  0  0  0  0  0  0
   -2.1310   -9.5150  -25.3270 C   0  0  0  0  0  0  0  0  0  0  0  0
   -3.3000   -8.9450  -24.8570 C   0  0  0  0  0  0  0  0  0  0  0  0
   -4.2580   -9.4260  -25.0220 H   0  0  0  0  0  0  0  0  0  0  0  0
   -2.1740  -10.4580  -25.8620 H   0  0  0  0  0  0  0  0  0  0  0  0
    0.0860   -7.2000  -24.2240 H   0  0  0  0  0  0  0  0  0  0  0  0
   -2.0090   -6.1410  -23.4320 H   0  0  0  0  0  0  0  0  0  0  0  0
   -4.4450   -6.6230  -22.8760 H   0  0  0  0  0  0  0  0  0  0  0  0
  1  2  2  0  0  0  0
  2  3  1  0  0  0  0
  2 46  1  0  0  0  0
  3  4  1  0  0  0  0
  3 44  1  0  0  0  0
  3 45  1  0  0  0  0
  4  5  1  0  0  0  0
  4 34  1  0  0  0  0
  4 43  1  1  0  0  0
  5  6  1  0  0  0  0
  5 41  1  0  0  0  0
  5 42  1  0  0  0  0
  6  7  2  0  0  0  0
  6 12  1  0  0  0  0
  7  8  1  0  0  0  0
  7 40  1  0  0  0  0
  8  9  2  0  0  0  0
  8 39  1  0  0  0  0
  9 10  1  0  0  0  0
  9 11  1  0  0  0  0
 11 12  2  0  0  0  0
 11 38  1  0  0  0  0
 12 13  1  0  0  0  0
 13 14  1  0  0  0  0
 13 34  1  0  0  0  0
 13 37  1  1  0  0  0
 14 15  2  0  0  0  0
 14 16  1  0  0  0  0
 16 17  1  0  0  0  0
 16 33  1  0  0  0  0
 17 18  2  0  0  0  0
 17 26  1  0  0  0  0
 18 19  1  0  0  0  0
 18 32  1  0  0  0  0
 19 20  2  0  0  0  0
 20 21  1  0  0  0  0
 20 31  1  0  0  0  0
 21 22  2  0  0  0  0
 21 26  1  0  0  0  0
 22 23  1  0  0  0  0
 22 30  1  0  0  0  0
 23 24  2  0  0  0  0
 23 29  1  0  0  0  0
 24 25  1  0  0  0  0
 24 28  1  0  0  0  0
 25 26  2  0  0  0  0
 25 27  1  0  0  0  0
 34 35  1  0  0  0  0
 34 36  1  0  0  0  0
 46 47  1  0  0  0  0
 46 70  1  0  0  0  0
 47 48  2  0  0  0  0
 47 65  1  0  0  0  0
 48 49  1  0  0  0  0
 48 69  1  0  0  0  0
 49 50  2  0  0  0  0
 49 68  1  0  0  0  0
 50 51  1  0  0  0  0
 50 64  1  0  0  0  0
 51 52  1  0  0  0  0
 51 56  1  0  0  0  0
 52 53  1  0  0  0  0
 52 62  1  0  0  0  0
 52 63  1  0  0  0  0
 53 54  1  0  0  0  0
 53 60  1  0  0  0  0
 53 61  1  0  0  0  0
 54 55  1  0  0  0  0
 55 56  1  0  0  0  0
 55 58  1  0  0  0  0
 55 59  1  0  0  0  0
 56 57  2  0  0  0  0
 64 65  2  0  0  0  0
 64 67  1  0  0  0  0
 65 66  1  0  0  0  0
M  CHG  1   4   1
M  END
>  <MODEL>
       1

$$$$
