tmp_first_model_9_2.pdb
 OpenBabel08272521403D

 60 65  0  0  1  0  0  0  0  0999 V2000
   -6.3290    1.0720  -30.6320 C   0  0  0  0  0  0  0  0  0  0  0  0
   -6.7040    1.2290  -29.1820 C   0  0  0  0  0  0  0  0  0  0  0  0
   -6.0630    0.4830  -28.1880 C   0  0  0  0  0  0  0  0  0  0  0  0
   -6.3570    0.5880  -26.8940 N   0  0  0  0  0  0  0  0  0  0  0  0
   -7.3280    1.4510  -26.5740 C   0  0  0  0  0  0  0  0  0  0  0  0
   -7.7400    1.5600  -25.1210 C   0  0  0  0  0  0  0  0  0  0  0  0
   -8.7080    0.5420  -24.6920 N   0  0  0  0  0  0  0  0  0  0  0  0
   -8.2500   -0.8120  -24.4220 C   0  0  0  0  0  0  0  0  0  0  0  0
   -8.8810   -1.3620  -23.1120 C   0  0  2  0  0  0  0  0  0  0  0  0
   -8.3060   -0.5530  -21.9260 C   0  0  0  0  0  0  0  0  0  0  0  0
   -8.5490    0.6030  -21.6670 O   0  0  0  0  0  0  0  0  0  0  0  0
   -7.4410   -1.3480  -21.2020 N   0  0  0  0  0  0  0  0  0  0  0  0
   -6.6070   -0.8000  -20.1790 C   0  0  0  0  0  0  0  0  0  0  0  0
   -6.8870   -1.0480  -18.8600 C   0  0  0  0  0  0  0  0  0  0  0  0
   -6.1830   -0.5480  -17.8130 N   0  0  0  0  0  0  0  0  0  0  0  0
   -5.1550    0.2210  -18.0680 C   0  0  0  0  0  0  0  0  0  0  0  0
   -4.7210    0.5330  -19.3880 C   0  0  0  0  0  0  0  0  0  0  0  0
   -3.5930    1.3650  -19.6320 C   0  0  0  0  0  0  0  0  0  0  0  0
   -3.2080    1.6460  -20.9140 C   0  0  0  0  0  0  0  0  0  0  0  0
   -3.9250    1.1090  -22.0050 C   0  0  0  0  0  0  0  0  0  0  0  0
   -5.0130    0.3020  -21.7940 C   0  0  0  0  0  0  0  0  0  0  0  0
   -5.4530    0.0020  -20.4760 C   0  0  0  0  0  0  0  0  0  0  0  0
   -5.5590   -0.1130  -22.6360 H   0  0  0  0  0  0  0  0  0  0  0  0
   -3.6100    1.3320  -23.0200 H   0  0  0  0  0  0  0  0  0  0  0  0
   -2.3510    2.2850  -21.1070 H   0  0  0  0  0  0  0  0  0  0  0  0
   -3.0520    1.7810  -18.7850 H   0  0  0  0  0  0  0  0  0  0  0  0
   -4.6010    0.6270  -17.2170 H   0  0  0  0  0  0  0  0  0  0  0  0
   -7.7410   -1.6670  -18.5940 H   0  0  0  0  0  0  0  0  0  0  0  0
   -7.2320   -2.6550  -21.7950 C   0  0  0  0  0  0  0  0  0  0  0  0
   -8.4010   -2.8140  -22.7900 C   0  0  2  0  0  0  0  0  0  0  0  0
   -8.0330   -3.6980  -23.9840 C   0  0  0  0  0  0  0  0  0  0  0  0
   -7.1580   -3.3170  -24.5230 H   0  0  0  0  0  0  0  0  0  0  0  0
   -8.8580   -3.7710  -24.6980 H   0  0  0  0  0  0  0  0  0  0  0  0
   -7.7930   -4.7130  -23.6500 H   0  0  0  0  0  0  0  0  0  0  0  0
   -9.2110   -3.3240  -22.2620 H   0  0  0  0  0  0  0  0  0  0  0  0
   -6.2610   -2.7250  -22.3090 H   0  0  0  0  0  0  0  0  0  0  0  0
   -7.2440   -3.4320  -21.0290 H   0  0  0  0  0  0  0  0  0  0  0  0
  -10.3940   -1.1390  -23.1700 C   0  0  0  0  0  0  0  0  0  0  0  0
  -11.2540   -1.7960  -22.2760 C   0  0  0  0  0  0  0  0  0  0  0  0
  -12.6190   -1.5780  -22.3380 C   0  0  0  0  0  0  0  0  0  0  0  0
  -13.4270   -2.2420  -21.4930 F   0  0  0  0  0  0  0  0  0  0  0  0
  -13.1930   -0.6880  -23.2380 C   0  0  0  0  0  0  0  0  0  0  0  0
  -12.3400    0.0300  -24.0550 C   0  0  0  0  0  0  0  0  0  0  0  0
  -10.9500   -0.1590  -24.0120 C   0  0  0  0  0  0  0  0  0  0  0  0
  -10.0580    0.7850  -24.7940 C   0  0  0  0  0  0  0  0  0  0  0  0
  -10.5150    1.7200  -25.4360 O   0  0  0  0  0  0  0  0  0  0  0  0
  -12.7650    0.7730  -24.7170 H   0  0  0  0  0  0  0  0  0  0  0  0
  -14.2730   -0.5480  -23.2530 H   0  0  0  0  0  0  0  0  0  0  0  0
  -10.8830   -2.4530  -21.4950 H   0  0  0  0  0  0  0  0  0  0  0  0
   -7.1600   -0.8070  -24.3460 H   0  0  0  0  0  0  0  0  0  0  0  0
   -8.4980   -1.4670  -25.2720 H   0  0  0  0  0  0  0  0  0  0  0  0
   -6.8470    1.4660  -24.4910 H   0  0  0  0  0  0  0  0  0  0  0  0
   -8.1660    2.5440  -24.9070 H   0  0  0  0  0  0  0  0  0  0  0  0
   -7.9610    2.1980  -27.5630 C   0  0  0  0  0  0  0  0  0  0  0  0
   -7.6610    2.0970  -28.8620 N   0  0  0  0  0  0  0  0  0  0  0  0
   -8.7490    2.8960  -27.2900 H   0  0  0  0  0  0  0  0  0  0  0  0
   -5.2860   -0.2260  -28.4620 H   0  0  0  0  0  0  0  0  0  0  0  0
   -6.4940    0.0470  -30.9800 H   0  0  0  0  0  0  0  0  0  0  0  0
   -6.9150    1.7440  -31.2590 H   0  0  0  0  0  0  0  0  0  0  0  0
   -5.2680    1.2850  -30.7990 H   0  0  0  0  0  0  0  0  0  0  0  0
  1  2  1  0  0  0  0
  1 58  1  0  0  0  0
  1 59  1  0  0  0  0
  1 60  1  0  0  0  0
  2  3  2  0  0  0  0
  2 55  1  0  0  0  0
  3  4  1  0  0  0  0
  3 57  1  0  0  0  0
  4  5  2  0  0  0  0
  5  6  1  0  0  0  0
  5 54  1  0  0  0  0
  6  7  1  0  0  0  0
  6 52  1  0  0  0  0
  6 53  1  0  0  0  0
  7  8  1  0  0  0  0
  7 45  1  0  0  0  0
  8  9  1  0  0  0  0
  8 50  1  0  0  0  0
  8 51  1  0  0  0  0
  9 10  1  1  0  0  0
  9 30  1  0  0  0  0
  9 38  1  0  0  0  0
 10 11  2  0  0  0  0
 10 12  1  0  0  0  0
 12 13  1  0  0  0  0
 12 29  1  0  0  0  0
 13 14  2  0  0  0  0
 13 22  1  0  0  0  0
 14 15  1  0  0  0  0
 14 28  1  0  0  0  0
 15 16  2  0  0  0  0
 16 17  1  0  0  0  0
 16 27  1  0  0  0  0
 17 18  2  0  0  0  0
 17 22  1  0  0  0  0
 18 19  1  0  0  0  0
 18 26  1  0  0  0  0
 19 20  2  0  0  0  0
 19 25  1  0  0  0  0
 20 21  1  0  0  0  0
 20 24  1  0  0  0  0
 21 22  2  0  0  0  0
 21 23  1  0  0  0  0
 29 30  1  0  0  0  0
 29 36  1  0  0  0  0
 29 37  1  0  0  0  0
 30 31  1  0  0  0  0
 30 35  1  1  0  0  0
 31 32  1  0  0  0  0
 31 33  1  0  0  0  0
 31 34  1  0  0  0  0
 38 39  2  0  0  0  0
 38 44  1  0  0  0  0
 39 40  1  0  0  0  0
 39 49  1  0  0  0  0
 40 41  1  0  0  0  0
 40 42  2  0  0  0  0
 42 43  1  0  0  0  0
 42 48  1  0  0  0  0
 43 44  2  0  0  0  0
 43 47  1  0  0  0  0
 44 45  1  0  0  0  0
 45 46  2  0  0  0  0
 54 55  2  0  0  0  0
 54 56  1  0  0  0  0
M  END
>  <MODEL>
       1

$$$$
