tmp_first_model_10_17.pdb
 OpenBabel08272522163D

 38 41  0  0  1  0  0  0  0  0999 V2000
   -9.1110   -4.9610  -25.5960 C   0  0  0  0  0  0  0  0  0  0  0  0
   -9.2130   -4.0970  -24.3450 C   0  0  2  0  0  0  0  0  0  0  0  0
  -10.2440   -2.9650  -24.4310 C   0  0  0  0  0  0  0  0  0  0  0  0
  -10.3800   -2.2880  -23.0580 C   0  0  0  0  0  0  0  0  0  0  0  0
   -9.0520   -1.9540  -22.5240 C   0  0  0  0  0  0  0  0  0  0  0  0
   -8.6760   -1.0280  -21.4920 C   0  0  0  0  0  0  0  0  0  0  0  0
   -9.2790   -0.1060  -20.9840 O   0  5  0  0  0  0  0  0  0  0  0  0
   -7.3400   -1.3940  -21.1890 N   0  0  0  0  0  0  0  0  0  0  0  0
   -6.5790   -0.8080  -20.1650 C   0  0  0  0  0  0  0  0  0  0  0  0
   -6.9000   -1.0710  -18.8600 C   0  0  0  0  0  0  0  0  0  0  0  0
   -6.2130   -0.5810  -17.8040 N   0  0  0  0  0  0  0  0  0  0  0  0
   -5.1800    0.1830  -18.0630 C   0  0  0  0  0  0  0  0  0  0  0  0
   -4.7640    0.5470  -19.3760 C   0  0  0  0  0  0  0  0  0  0  0  0
   -3.6770    1.4270  -19.6020 C   0  0  0  0  0  0  0  0  0  0  0  0
   -3.4110    1.8810  -20.8610 C   0  0  0  0  0  0  0  0  0  0  0  0
   -4.2080    1.4750  -21.9560 C   0  0  0  0  0  0  0  0  0  0  0  0
   -5.2190    0.5630  -21.7810 C   0  0  0  0  0  0  0  0  0  0  0  0
   -5.5180    0.0860  -20.4730 C   0  0  0  0  0  0  0  0  0  0  0  0
   -5.7890    0.2190  -22.6400 H   0  0  0  0  0  0  0  0  0  0  0  0
   -4.0130    1.8900  -22.9380 H   0  0  0  0  0  0  0  0  0  0  0  0
   -2.5960    2.5790  -21.0280 H   0  0  0  0  0  0  0  0  0  0  0  0
   -3.0850    1.7460  -18.7510 H   0  0  0  0  0  0  0  0  0  0  0  0
   -4.6240    0.5670  -17.2080 H   0  0  0  0  0  0  0  0  0  0  0  0
   -7.7490   -1.7120  -18.6390 H   0  0  0  0  0  0  0  0  0  0  0  0
   -6.8710   -2.4040  -22.0280 C   0  0  0  0  0  0  0  0  0  0  0  0
   -5.7590   -2.8800  -22.0720 O   0  0  0  0  0  0  0  0  0  0  0  0
   -7.9550   -2.7000  -22.8300 N   0  0  0  0  0  0  0  0  0  0  0  0
   -7.8310   -3.5490  -23.9980 C   0  0  0  0  0  0  0  0  0  0  0  0
   -7.1360   -4.3550  -23.7430 H   0  0  0  0  0  0  0  0  0  0  0  0
   -7.3800   -2.9860  -24.8300 H   0  0  0  0  0  0  0  0  0  0  0  0
  -10.9930   -1.3810  -23.0940 H   0  0  0  0  0  0  0  0  0  0  0  0
  -10.8880   -2.9890  -22.3730 H   0  0  0  0  0  0  0  0  0  0  0  0
   -9.9250   -2.2220  -25.1760 H   0  0  0  0  0  0  0  0  0  0  0  0
  -11.2180   -3.3670  -24.7400 H   0  0  0  0  0  0  0  0  0  0  0  0
   -9.4920   -4.7150  -23.4850 H   0  0  0  0  0  0  0  0  0  0  0  0
   -9.9550   -5.6450  -25.6960 H   0  0  0  0  0  0  0  0  0  0  0  0
   -8.2300   -5.6060  -25.5080 H   0  0  0  0  0  0  0  0  0  0  0  0
   -9.0440   -4.3420  -26.5050 H   0  0  0  0  0  0  0  0  0  0  0  0
  1  2  1  0  0  0  0
  1 36  1  0  0  0  0
  1 37  1  0  0  0  0
  1 38  1  0  0  0  0
  2  3  1  0  0  0  0
  2 28  1  0  0  0  0
  2 35  1  1  0  0  0
  3  4  1  0  0  0  0
  3 33  1  0  0  0  0
  3 34  1  0  0  0  0
  4  5  1  0  0  0  0
  4 31  1  0  0  0  0
  4 32  1  0  0  0  0
  5  6  2  0  0  0  0
  5 27  1  0  0  0  0
  6  7  1  0  0  0  0
  6  8  1  0  0  0  0
  8  9  1  0  0  0  0
  8 25  1  0  0  0  0
  9 10  2  0  0  0  0
  9 18  1  0  0  0  0
 10 11  1  0  0  0  0
 10 24  1  0  0  0  0
 11 12  2  0  0  0  0
 12 13  1  0  0  0  0
 12 23  1  0  0  0  0
 13 14  2  0  0  0  0
 13 18  1  0  0  0  0
 14 15  1  0  0  0  0
 14 22  1  0  0  0  0
 15 16  2  0  0  0  0
 15 21  1  0  0  0  0
 16 17  1  0  0  0  0
 16 20  1  0  0  0  0
 17 18  2  0  0  0  0
 17 19  1  0  0  0  0
 25 26  2  0  0  0  0
 25 27  1  0  0  0  0
 27 28  1  0  0  0  0
 28 29  1  0  0  0  0
 28 30  1  0  0  0  0
M  CHG  1   7  -1
M  END
>  <MODEL>
       1

$$$$
