tmp_first_model_1_71.pdb
 OpenBabel08272517043D

 50 54  0  0  1  0  0  0  0  0999 V2000
  -10.2470   -2.9690  -22.0740 C   0  0  0  0  0  0  0  0  0  0  0  0
   -9.1660   -2.0200  -22.6380 C   0  0  1  0  0  0  0  0  0  0  0  0
   -8.6920   -1.0460  -21.5360 C   0  0  0  0  0  0  0  0  0  0  0  0
   -7.3450   -1.4670  -21.2140 N   0  0  0  0  0  0  0  0  0  0  0  0
   -6.5650   -0.8610  -20.1900 C   0  0  0  0  0  0  0  0  0  0  0  0
   -6.8900   -1.0570  -18.8720 C   0  0  0  0  0  0  0  0  0  0  0  0
   -6.2040   -0.5460  -17.8220 N   0  0  0  0  0  0  0  0  0  0  0  0
   -5.1670    0.2120  -18.0830 C   0  0  0  0  0  0  0  0  0  0  0  0
   -4.7310    0.5300  -19.3980 C   0  0  0  0  0  0  0  0  0  0  0  0
   -3.6050    1.3650  -19.6330 C   0  0  0  0  0  0  0  0  0  0  0  0
   -3.2220    1.6650  -20.9100 C   0  0  0  0  0  0  0  0  0  0  0  0
   -3.9530    1.1540  -22.0070 C   0  0  0  0  0  0  0  0  0  0  0  0
   -5.0450    0.3480  -21.8090 C   0  0  0  0  0  0  0  0  0  0  0  0
   -5.4510   -0.0080  -20.4930 C   0  0  0  0  0  0  0  0  0  0  0  0
   -5.5980   -0.0420  -22.6630 H   0  0  0  0  0  0  0  0  0  0  0  0
   -3.6420    1.4000  -23.0190 H   0  0  0  0  0  0  0  0  0  0  0  0
   -2.3650    2.3120  -21.0940 H   0  0  0  0  0  0  0  0  0  0  0  0
   -3.0680    1.7680  -18.7770 H   0  0  0  0  0  0  0  0  0  0  0  0
   -4.6220    0.6150  -17.2280 H   0  0  0  0  0  0  0  0  0  0  0  0
   -7.7450   -1.6780  -18.6030 H   0  0  0  0  0  0  0  0  0  0  0  0
   -6.8240   -2.3980  -22.0830 C   0  0  0  0  0  0  0  0  0  0  0  0
   -5.7070   -2.8640  -21.9870 O   0  0  0  0  0  0  0  0  0  0  0  0
   -7.8670   -2.6970  -23.1810 C   0  0  1  0  0  0  0  0  0  0  0  0
   -8.0160   -4.2180  -23.3860 C   0  0  0  0  0  0  0  0  0  0  0  0
   -6.8330   -4.8040  -23.9830 N   0  0  0  0  0  0  0  0  0  0  0  0
   -6.3000   -6.0680  -23.4990 C   0  0  0  0  0  0  0  0  0  0  0  0
   -4.9750   -5.9220  -22.8640 C   0  0  0  0  0  0  0  0  0  0  0  0
   -3.9420   -5.8110  -22.3580 N   0  0  0  0  0  0  0  0  0  0  0  0
   -6.9900   -6.4900  -22.7640 H   0  0  0  0  0  0  0  0  0  0  0  0
   -6.2170   -6.7900  -24.3180 H   0  0  0  0  0  0  0  0  0  0  0  0
   -6.2670   -4.2690  -25.1090 C   0  0  0  0  0  0  0  0  0  0  0  0
   -5.4910   -4.9180  -25.7930 O   0  0  0  0  0  0  0  0  0  0  0  0
   -6.6310   -2.8390  -25.3940 C   0  0  0  0  0  0  0  0  0  0  0  0
   -6.1390   -2.2600  -26.5640 C   0  0  0  0  0  0  0  0  0  0  0  0
   -6.3510   -0.9280  -26.8470 C   0  0  0  0  0  0  0  0  0  0  0  0
   -7.0520   -0.1790  -25.9130 C   0  0  0  0  0  0  0  0  0  0  0  0
   -7.2460    1.1280  -26.1630 F   0  0  0  0  0  0  0  0  0  0  0  0
   -7.5550   -0.7180  -24.7440 C   0  0  0  0  0  0  0  0  0  0  0  0
   -7.3820   -2.0840  -24.4860 C   0  0  0  0  0  0  0  0  0  0  0  0
   -8.0670   -0.0470  -24.0600 H   0  0  0  0  0  0  0  0  0  0  0  0
   -5.9830   -0.4430  -27.7470 H   0  0  0  0  0  0  0  0  0  0  0  0
   -5.5680   -2.8760  -27.2450 H   0  0  0  0  0  0  0  0  0  0  0  0
   -8.9020   -4.4150  -24.0110 H   0  0  0  0  0  0  0  0  0  0  0  0
   -8.1580   -4.6970  -22.4210 H   0  0  0  0  0  0  0  0  0  0  0  0
   -8.7330    0.0100  -21.8470 H   0  0  0  0  0  0  0  0  0  0  0  0
   -9.3300   -1.1370  -20.6620 H   0  0  0  0  0  0  0  0  0  0  0  0
   -9.6570   -1.4610  -23.4440 H   0  0  0  0  0  0  0  0  0  0  0  0
  -11.1050   -2.3950  -21.6900 H   0  0  0  0  0  0  0  0  0  0  0  0
   -9.8700   -3.5820  -21.2440 H   0  0  0  0  0  0  0  0  0  0  0  0
  -10.6370   -3.6490  -22.8390 H   0  0  0  0  0  0  0  0  0  0  0  0
  1  2  1  0  0  0  0
  1 48  1  0  0  0  0
  1 49  1  0  0  0  0
  1 50  1  0  0  0  0
  2  3  1  0  0  0  0
  2 23  1  0  0  0  0
  2 47  1  6  0  0  0
  3  4  1  0  0  0  0
  3 45  1  0  0  0  0
  3 46  1  0  0  0  0
  4  5  1  0  0  0  0
  4 21  1  0  0  0  0
  5  6  2  0  0  0  0
  5 14  1  0  0  0  0
  6  7  1  0  0  0  0
  6 20  1  0  0  0  0
  7  8  2  0  0  0  0
  8  9  1  0  0  0  0
  8 19  1  0  0  0  0
  9 10  2  0  0  0  0
  9 14  1  0  0  0  0
 10 11  1  0  0  0  0
 10 18  1  0  0  0  0
 11 12  2  0  0  0  0
 11 17  1  0  0  0  0
 12 13  1  0  0  0  0
 12 16  1  0  0  0  0
 13 14  2  0  0  0  0
 13 15  1  0  0  0  0
 21 22  2  0  0  0  0
 23 21  1  1  0  0  0
 23 24  1  0  0  0  0
 23 39  1  0  0  0  0
 24 25  1  0  0  0  0
 24 43  1  0  0  0  0
 24 44  1  0  0  0  0
 25 26  1  0  0  0  0
 25 31  1  0  0  0  0
 26 27  1  0  0  0  0
 26 29  1  0  0  0  0
 26 30  1  0  0  0  0
 27 28  3  0  0  0  0
 31 32  2  0  0  0  0
 31 33  1  0  0  0  0
 33 34  2  0  0  0  0
 33 39  1  0  0  0  0
 34 35  1  0  0  0  0
 34 42  1  0  0  0  0
 35 36  2  0  0  0  0
 35 41  1  0  0  0  0
 36 37  1  0  0  0  0
 36 38  1  0  0  0  0
 38 39  2  0  0  0  0
 38 40  1  0  0  0  0
M  END
>  <MODEL>
       1

$$$$
