tmp_first_model_20_5.pdb
 OpenBabel08282503553D

 58 61  0  0  1  0  0  0  0  0999 V2000
   -8.0240   -4.6250  -21.9360 C   0  0  0  0  0  0  0  0  0  0  0  0
   -6.9860   -3.8370  -21.6600 C   0  0  0  0  0  0  0  0  0  0  0  0
   -6.6930   -2.4250  -22.0660 C   0  0  0  0  0  0  0  0  0  0  0  0
   -7.3580   -1.4130  -21.2390 N   0  0  0  0  0  0  0  0  0  0  0  0
   -8.5810   -0.7930  -21.4830 C   0  0  0  0  0  0  0  0  0  0  0  0
   -9.0150    0.0230  -20.7010 O   0  0  0  0  0  0  0  0  0  0  0  0
   -9.3110   -1.1000  -22.7910 C   0  0  2  0  0  0  0  0  0  0  0  0
   -8.7260   -0.2250  -23.9120 C   0  0  0  0  0  0  0  0  0  0  0  0
   -9.0740    1.1680  -23.6670 N   0  0  0  0  0  0  0  0  0  0  0  0
   -8.0350    2.1800  -23.7140 C   0  0  0  0  0  0  0  0  0  0  0  0
   -7.5170    2.3200  -25.1410 C   0  0  0  0  0  0  0  0  0  0  0  0
   -6.4850    1.7920  -25.5300 O   0  0  0  0  0  0  0  0  0  0  0  0
   -8.3390    3.0150  -25.9640 N   0  0  0  0  0  0  0  0  0  0  0  0
   -7.9590    3.2030  -27.3470 C   0  0  0  0  0  0  0  0  0  0  0  0
   -7.0070    3.7400  -27.4060 H   0  0  0  0  0  0  0  0  0  0  0  0
   -7.8280    2.2410  -27.8510 H   0  0  0  0  0  0  0  0  0  0  0  0
   -8.7270    3.7790  -27.8650 H   0  0  0  0  0  0  0  0  0  0  0  0
   -9.2390    3.3250  -25.6280 H   0  0  0  0  0  0  0  0  0  0  0  0
   -7.2140    1.8940  -23.0460 H   0  0  0  0  0  0  0  0  0  0  0  0
   -8.4670    3.1230  -23.3630 H   0  0  0  0  0  0  0  0  0  0  0  0
  -10.3700    1.5570  -23.4820 C   0  0  0  0  0  0  0  0  0  0  0  0
  -10.7520    2.7010  -23.6940 O   0  0  0  0  0  0  0  0  0  0  0  0
  -11.2800    0.4760  -22.9940 C   0  0  0  0  0  0  0  0  0  0  0  0
  -12.6350    0.7700  -22.8690 C   0  0  0  0  0  0  0  0  0  0  0  0
  -13.5280   -0.2050  -22.4650 C   0  0  0  0  0  0  0  0  0  0  0  0
  -13.0380   -1.4700  -22.1430 C   0  0  0  0  0  0  0  0  0  0  0  0
  -14.1540   -2.6920  -21.6050 Cl  0  0  0  0  0  0  0  0  0  0  0  0
  -11.6850   -1.7630  -22.2380 C   0  0  0  0  0  0  0  0  0  0  0  0
  -10.7870   -0.7900  -22.6760 C   0  0  0  0  0  0  0  0  0  0  0  0
  -11.3280   -2.7550  -21.9670 H   0  0  0  0  0  0  0  0  0  0  0  0
  -14.5890    0.0110  -22.3850 H   0  0  0  0  0  0  0  0  0  0  0  0
  -12.9630    1.7780  -23.0970 H   0  0  0  0  0  0  0  0  0  0  0  0
   -9.1190   -0.5640  -24.8790 H   0  0  0  0  0  0  0  0  0  0  0  0
   -7.6360   -0.2850  -23.9700 H   0  0  0  0  0  0  0  0  0  0  0  0
   -9.1800   -2.1570  -23.0180 H   0  0  0  0  0  0  0  0  0  0  0  0
   -6.6080   -0.8430  -20.1810 C   0  0  0  0  0  0  0  0  0  0  0  0
   -6.9610   -1.0490  -18.8730 C   0  0  0  0  0  0  0  0  0  0  0  0
   -6.2670   -0.5630  -17.8160 N   0  0  0  0  0  0  0  0  0  0  0  0
   -5.2050    0.1640  -18.0820 C   0  0  0  0  0  0  0  0  0  0  0  0
   -4.7550    0.4790  -19.3970 C   0  0  0  0  0  0  0  0  0  0  0  0
   -3.6230    1.3060  -19.6310 C   0  0  0  0  0  0  0  0  0  0  0  0
   -3.2330    1.6170  -20.9060 C   0  0  0  0  0  0  0  0  0  0  0  0
   -3.9550    1.1230  -22.0140 C   0  0  0  0  0  0  0  0  0  0  0  0
   -5.0610    0.3330  -21.8130 C   0  0  0  0  0  0  0  0  0  0  0  0
   -5.4760   -0.0280  -20.4930 C   0  0  0  0  0  0  0  0  0  0  0  0
   -5.6130   -0.0120  -22.6830 H   0  0  0  0  0  0  0  0  0  0  0  0
   -3.6440    1.3700  -23.0260 H   0  0  0  0  0  0  0  0  0  0  0  0
   -2.3740    2.2580  -21.0770 H   0  0  0  0  0  0  0  0  0  0  0  0
   -3.0900    1.6960  -18.7700 H   0  0  0  0  0  0  0  0  0  0  0  0
   -4.6460    0.5640  -17.2350 H   0  0  0  0  0  0  0  0  0  0  0  0
   -7.8520   -1.6300  -18.6350 H   0  0  0  0  0  0  0  0  0  0  0  0
   -6.8860   -2.2300  -23.1280 H   0  0  0  0  0  0  0  0  0  0  0  0
   -5.6210   -2.3580  -21.8110 H   0  0  0  0  0  0  0  0  0  0  0  0
   -5.7740   -4.2650  -20.8250 C   0  0  0  0  0  0  0  0  0  0  0  0
   -4.9540   -3.3440  -20.5950 O   0  0  0  0  0  0  0  0  0  0  0  0
   -5.6470   -5.4400  -20.4450 O   0  5  0  0  0  0  0  0  0  0  0  0
   -8.8650   -4.2800  -22.5470 H   0  0  0  0  0  0  0  0  0  0  0  0
   -8.1250   -5.6380  -21.5540 H   0  0  0  0  0  0  0  0  0  0  0  0
  1  2  2  0  0  0  0
  1 57  1  0  0  0  0
  1 58  1  0  0  0  0
  2  3  1  0  0  0  0
  2 54  1  0  0  0  0
  3  4  1  0  0  0  0
  3 52  1  0  0  0  0
  3 53  1  0  0  0  0
  4  5  1  0  0  0  0
  4 36  1  0  0  0  0
  5  6  2  0  0  0  0
  5  7  1  0  0  0  0
  7  8  1  0  0  0  0
  7 29  1  0  0  0  0
  7 35  1  6  0  0  0
  8  9  1  0  0  0  0
  8 33  1  0  0  0  0
  8 34  1  0  0  0  0
  9 10  1  0  0  0  0
  9 21  1  0  0  0  0
 10 11  1  0  0  0  0
 10 19  1  0  0  0  0
 10 20  1  0  0  0  0
 11 12  2  0  0  0  0
 11 13  1  0  0  0  0
 13 14  1  0  0  0  0
 13 18  1  0  0  0  0
 14 15  1  0  0  0  0
 14 16  1  0  0  0  0
 14 17  1  0  0  0  0
 21 22  2  0  0  0  0
 21 23  1  0  0  0  0
 23 24  2  0  0  0  0
 23 29  1  0  0  0  0
 24 25  1  0  0  0  0
 24 32  1  0  0  0  0
 25 26  2  0  0  0  0
 25 31  1  0  0  0  0
 26 27  1  0  0  0  0
 26 28  1  0  0  0  0
 28 29  2  0  0  0  0
 28 30  1  0  0  0  0
 36 37  2  0  0  0  0
 36 45  1  0  0  0  0
 37 38  1  0  0  0  0
 37 51  1  0  0  0  0
 38 39  2  0  0  0  0
 39 40  1  0  0  0  0
 39 50  1  0  0  0  0
 40 41  2  0  0  0  0
 40 45  1  0  0  0  0
 41 42  1  0  0  0  0
 41 49  1  0  0  0  0
 42 43  2  0  0  0  0
 42 48  1  0  0  0  0
 43 44  1  0  0  0  0
 43 47  1  0  0  0  0
 44 45  2  0  0  0  0
 44 46  1  0  0  0  0
 54 55  2  0  0  0  0
 54 56  1  0  0  0  0
M  CHG  1  56  -1
M  END
>  <MODEL>
       1

$$$$
