tmp_first_model_5_34.pdb
 OpenBabel08272519233D

 66 70  0  0  1  0  0  0  0  0999 V2000
   -7.3730    3.4280  -22.6350 C   0  0  0  0  0  0  0  0  0  0  0  0
   -8.3110    2.8700  -23.5930 N   0  0  0  0  0  0  0  0  0  0  0  0
   -7.8710    1.9840  -24.5220 C   0  0  0  0  0  0  0  0  0  0  0  0
   -6.6830    1.7330  -24.6900 O   0  0  0  0  0  0  0  0  0  0  0  0
   -8.9750    1.2970  -25.3320 C   0  0  0  0  0  0  0  0  0  0  0  0
   -9.5330    0.1750  -24.6020 N   0  0  0  0  0  0  0  0  0  0  0  0
   -8.6250   -0.9480  -24.3590 C   0  0  0  0  0  0  0  0  0  0  0  0
   -8.9830   -1.7600  -23.0300 C   0  0  2  0  0  0  0  0  0  0  0  0
   -8.3370   -0.8630  -21.9160 C   0  0  0  0  0  0  0  0  0  0  0  0
   -8.6160    0.2980  -21.6890 O   0  0  0  0  0  0  0  0  0  0  0  0
   -7.3750   -1.5900  -21.2750 N   0  0  0  0  0  0  0  0  0  0  0  0
   -6.4990   -1.0730  -20.2890 C   0  0  0  0  0  0  0  0  0  0  0  0
   -6.6670   -1.4470  -18.9790 C   0  0  0  0  0  0  0  0  0  0  0  0
   -5.7830   -1.1910  -17.9870 N   0  0  0  0  0  0  0  0  0  0  0  0
   -4.6870   -0.5480  -18.3130 C   0  0  0  0  0  0  0  0  0  0  0  0
   -4.4170   -0.0490  -19.6190 C   0  0  0  0  0  0  0  0  0  0  0  0
   -3.2800    0.7700  -19.8750 C   0  0  0  0  0  0  0  0  0  0  0  0
   -3.1890    1.4820  -21.0370 C   0  0  0  0  0  0  0  0  0  0  0  0
   -4.1410    1.2830  -22.0640 C   0  0  0  0  0  0  0  0  0  0  0  0
   -5.1860    0.4070  -21.8870 C   0  0  0  0  0  0  0  0  0  0  0  0
   -5.3800   -0.2510  -20.6340 C   0  0  0  0  0  0  0  0  0  0  0  0
   -5.8890    0.2540  -22.7010 H   0  0  0  0  0  0  0  0  0  0  0  0
   -4.0470    1.8180  -23.0040 H   0  0  0  0  0  0  0  0  0  0  0  0
   -2.3530    2.1540  -21.2020 H   0  0  0  0  0  0  0  0  0  0  0  0
   -2.5600    0.9120  -19.0750 H   0  0  0  0  0  0  0  0  0  0  0  0
   -3.9660   -0.3600  -17.5170 H   0  0  0  0  0  0  0  0  0  0  0  0
   -7.5690   -1.9780  -18.6780 H   0  0  0  0  0  0  0  0  0  0  0  0
   -7.3920   -3.0010  -21.5890 C   0  0  0  0  0  0  0  0  0  0  0  0
   -8.2480   -3.1220  -22.8640 C   0  0  2  0  0  0  0  0  0  0  0  0
   -7.3760   -3.5780  -24.0330 C   0  0  0  0  0  0  0  0  0  0  0  0
   -6.2980   -2.6760  -24.1240 O   0  0  0  0  0  0  0  0  0  0  0  0
   -5.4200   -2.8150  -25.2240 C   0  0  0  0  0  0  0  0  0  0  0  0
   -5.8140   -1.8600  -26.3470 C   0  0  0  0  0  0  0  0  0  0  0  0
   -6.8050   -2.1020  -26.7500 H   0  0  0  0  0  0  0  0  0  0  0  0
   -5.8360   -0.8240  -25.9860 H   0  0  0  0  0  0  0  0  0  0  0  0
   -5.0940   -1.9230  -27.1730 H   0  0  0  0  0  0  0  0  0  0  0  0
   -4.0570   -2.4820  -24.6520 C   0  0  0  0  0  0  0  0  0  0  0  0
   -3.2810   -2.4860  -25.4240 H   0  0  0  0  0  0  0  0  0  0  0  0
   -3.7830   -3.1930  -23.8670 H   0  0  0  0  0  0  0  0  0  0  0  0
   -4.1240   -1.4850  -24.1950 H   0  0  0  0  0  0  0  0  0  0  0  0
   -5.4370   -3.8530  -25.5960 H   0  0  0  0  0  0  0  0  0  0  0  0
   -6.9930   -4.5970  -23.8530 H   0  0  0  0  0  0  0  0  0  0  0  0
   -7.9610   -3.6090  -24.9650 H   0  0  0  0  0  0  0  0  0  0  0  0
   -9.0140   -3.8850  -22.7220 H   0  0  0  0  0  0  0  0  0  0  0  0
   -7.8440   -3.5510  -20.7660 H   0  0  0  0  0  0  0  0  0  0  0  0
   -6.3700   -3.3630  -21.7200 H   0  0  0  0  0  0  0  0  0  0  0  0
  -10.4780   -1.9660  -22.8920 C   0  0  0  0  0  0  0  0  0  0  0  0
  -11.1620   -3.1320  -22.4870 C   0  0  0  0  0  0  0  0  0  0  0  0
  -12.5740   -2.7810  -22.5860 C   0  0  0  0  0  0  0  0  0  0  0  0
  -13.1260   -2.9090  -20.3540 Cl  0  0  0  0  0  0  0  0  0  0  0  0
  -12.6620   -2.7410  -22.7390 C   0  0  0  0  0  0  0  0  0  0  0  0
  -12.6630   -1.3070  -23.3710 C   0  0  0  0  0  0  0  0  0  0  0  0
  -11.3750   -0.9620  -23.4590 C   0  0  0  0  0  0  0  0  0  0  0  0
  -10.8460    0.2440  -24.1780 C   0  0  0  0  0  0  0  0  0  0  0  0
  -11.5360    1.2320  -24.3840 O   0  0  0  0  0  0  0  0  0  0  0  0
  -13.3860   -1.5470  -24.1320 H   0  0  0  0  0  0  0  0  0  0  0  0
  -13.5890   -3.0860  -23.3320 H   0  0  0  0  0  0  0  0  0  0  0  0
  -11.4690   -3.4100  -21.5680 H   0  0  0  0  0  0  0  0  0  0  0  0
   -8.5860   -1.5950  -25.2430 H   0  0  0  0  0  0  0  0  0  0  0  0
   -7.6230   -0.5350  -24.2500 H   0  0  0  0  0  0  0  0  0  0  0  0
   -9.7950    1.9850  -25.5460 H   0  0  0  0  0  0  0  0  0  0  0  0
   -8.5340    0.9540  -26.2760 H   0  0  0  0  0  0  0  0  0  0  0  0
   -9.2890    2.8420  -23.3420 H   0  0  0  0  0  0  0  0  0  0  0  0
   -6.5940    3.9860  -23.1630 H   0  0  0  0  0  0  0  0  0  0  0  0
   -6.8880    2.6330  -22.0530 H   0  0  0  0  0  0  0  0  0  0  0  0
   -7.9040    4.1020  -21.9610 H   0  0  0  0  0  0  0  0  0  0  0  0
  1  2  1  0  0  0  0
  1 64  1  0  0  0  0
  1 65  1  0  0  0  0
  1 66  1  0  0  0  0
  2  3  1  0  0  0  0
  2 63  1  0  0  0  0
  3  4  2  0  0  0  0
  3  5  1  0  0  0  0
  5  6  1  0  0  0  0
  5 61  1  0  0  0  0
  5 62  1  0  0  0  0
  6  7  1  0  0  0  0
  6 54  1  0  0  0  0
  7  8  1  0  0  0  0
  7 59  1  0  0  0  0
  7 60  1  0  0  0  0
  8  9  1  1  0  0  0
  8 29  1  0  0  0  0
  8 47  1  0  0  0  0
  9 10  2  0  0  0  0
  9 11  1  0  0  0  0
 11 12  1  0  0  0  0
 11 28  1  0  0  0  0
 12 13  2  0  0  0  0
 12 21  1  0  0  0  0
 13 14  1  0  0  0  0
 13 27  1  0  0  0  0
 14 15  2  0  0  0  0
 15 16  1  0  0  0  0
 15 26  1  0  0  0  0
 16 17  2  0  0  0  0
 16 21  1  0  0  0  0
 17 18  1  0  0  0  0
 17 25  1  0  0  0  0
 18 19  2  0  0  0  0
 18 24  1  0  0  0  0
 19 20  1  0  0  0  0
 19 23  1  0  0  0  0
 20 21  2  0  0  0  0
 20 22  1  0  0  0  0
 28 29  1  0  0  0  0
 28 45  1  0  0  0  0
 28 46  1  0  0  0  0
 29 30  1  0  0  0  0
 29 44  1  1  0  0  0
 30 31  1  0  0  0  0
 30 42  1  0  0  0  0
 30 43  1  0  0  0  0
 31 32  1  0  0  0  0
 32 33  1  0  0  0  0
 32 37  1  0  0  0  0
 32 41  1  0  0  0  0
 33 34  1  0  0  0  0
 33 35  1  0  0  0  0
 33 36  1  0  0  0  0
 37 38  1  0  0  0  0
 37 39  1  0  0  0  0
 37 40  1  0  0  0  0
 47 48  2  0  0  0  0
 47 53  1  0  0  0  0
 48 49  1  0  0  0  0
 48 58  1  0  0  0  0
 49 50  1  0  0  0  0
 49 51  2  0  0  0  0
 51 52  1  0  0  0  0
 51 57  1  0  0  0  0
 52 53  2  0  0  0  0
 52 56  1  0  0  0  0
 53 54  1  0  0  0  0
 54 55  2  0  0  0  0
M  END
>  <MODEL>
       1

$$$$
