tmp_first_model_15_49.pdb
 OpenBabel08282501153D

 67 72  0  0  1  0  0  0  0  0999 V2000
   -7.4240    3.3820  -21.7990 C   0  0  0  0  0  0  0  0  0  0  0  0
   -8.2790    2.9050  -22.8670 N   0  0  0  0  0  0  0  0  0  0  0  0
   -7.7000    2.2220  -23.8770 C   0  0  0  0  0  0  0  0  0  0  0  0
   -6.4850    2.1260  -23.9900 O   0  0  0  0  0  0  0  0  0  0  0  0
   -8.6500    1.5960  -24.9030 C   0  0  0  0  0  0  0  0  0  0  0  0
   -9.3740    0.4440  -24.3990 N   0  0  0  0  0  0  0  0  0  0  0  0
   -8.6540   -0.8060  -24.2370 C   0  0  0  0  0  0  0  0  0  0  0  0
   -9.0430   -1.5270  -22.9210 C   0  0  2  0  0  0  0  0  0  0  0  0
   -8.5020   -0.7380  -21.6980 C   0  0  0  0  0  0  0  0  0  0  0  0
   -8.9520    0.2850  -21.2240 O   0  0  0  0  0  0  0  0  0  0  0  0
   -7.3910   -1.3900  -21.2090 N   0  0  0  0  0  0  0  0  0  0  0  0
   -6.6010   -0.8140  -20.1780 C   0  0  0  0  0  0  0  0  0  0  0  0
   -6.9110   -1.0440  -18.8620 C   0  0  0  0  0  0  0  0  0  0  0  0
   -6.2110   -0.5510  -17.8110 N   0  0  0  0  0  0  0  0  0  0  0  0
   -5.1720    0.2070  -18.0770 C   0  0  0  0  0  0  0  0  0  0  0  0
   -4.7320    0.5290  -19.3930 C   0  0  0  0  0  0  0  0  0  0  0  0
   -3.6050    1.3630  -19.6380 C   0  0  0  0  0  0  0  0  0  0  0  0
   -3.2180    1.6540  -20.9170 C   0  0  0  0  0  0  0  0  0  0  0  0
   -3.9400    1.1280  -22.0120 C   0  0  0  0  0  0  0  0  0  0  0  0
   -5.0350    0.3230  -21.8010 C   0  0  0  0  0  0  0  0  0  0  0  0
   -5.4650    0.0030  -20.4850 C   0  0  0  0  0  0  0  0  0  0  0  0
   -5.5940   -0.0590  -22.6500 H   0  0  0  0  0  0  0  0  0  0  0  0
   -3.6470    1.3720  -23.0270 H   0  0  0  0  0  0  0  0  0  0  0  0
   -2.3640    2.3030  -21.0960 H   0  0  0  0  0  0  0  0  0  0  0  0
   -3.0780    1.7750  -18.7810 H   0  0  0  0  0  0  0  0  0  0  0  0
   -4.6240    0.6110  -17.2260 H   0  0  0  0  0  0  0  0  0  0  0  0
   -7.7630   -1.6690  -18.6060 H   0  0  0  0  0  0  0  0  0  0  0  0
   -7.0410   -2.5970  -21.9300 C   0  0  0  0  0  0  0  0  0  0  0  0
   -8.2990   -2.8940  -22.7680 C   0  0  2  0  0  0  0  0  0  0  0  0
   -7.9620   -3.6790  -24.0550 C   0  0  0  0  0  0  0  0  0  0  0  0
   -7.4530   -5.0020  -23.7700 N   0  0  0  0  0  0  0  0  0  0  0  0
   -6.1230   -5.3070  -23.6620 C   0  0  0  0  0  0  0  0  0  0  0  0
   -5.0180   -4.5870  -24.0100 C   0  0  0  0  0  0  0  0  0  0  0  0
   -3.7960   -5.1910  -23.7860 N   0  0  0  0  0  0  0  0  0  0  0  0
   -3.9360   -6.3770  -23.2940 C   0  0  0  0  0  0  0  0  0  0  0  0
   -2.7950   -7.3000  -22.9860 C   0  0  0  0  0  0  0  0  0  0  0  0
   -3.0220   -7.9310  -22.1250 H   0  0  0  0  0  0  0  0  0  0  0  0
   -2.5860   -7.9510  -23.8440 H   0  0  0  0  0  0  0  0  0  0  0  0
   -1.9020   -6.7020  -22.7940 H   0  0  0  0  0  0  0  0  0  0  0  0
   -5.6040   -6.8630  -23.0340 S   0  0  0  0  0  0  0  0  0  0  0  0
   -5.0520   -3.6010  -24.4600 H   0  0  0  0  0  0  0  0  0  0  0  0
   -8.1080   -5.7270  -23.5190 H   0  0  0  0  0  0  0  0  0  0  0  0
   -8.8650   -3.7920  -24.6660 H   0  0  0  0  0  0  0  0  0  0  0  0
   -7.2150   -3.1300  -24.6490 H   0  0  0  0  0  0  0  0  0  0  0  0
   -8.9580   -3.5320  -22.1730 H   0  0  0  0  0  0  0  0  0  0  0  0
   -6.1570   -2.4470  -22.5720 H   0  0  0  0  0  0  0  0  0  0  0  0
   -6.7900   -3.4180  -21.2490 H   0  0  0  0  0  0  0  0  0  0  0  0
  -10.5620   -1.5750  -22.8490 C   0  0  0  0  0  0  0  0  0  0  0  0
  -11.1990   -2.4620  -21.9730 C   0  0  0  0  0  0  0  0  0  0  0  0
  -12.5790   -2.4850  -21.8900 C   0  0  0  0  0  0  0  0  0  0  0  0
  -13.3530   -3.5990  -20.8010 Cl  0  0  0  0  0  0  0  0  0  0  0  0
  -13.3690   -1.6240  -22.6510 C   0  0  0  0  0  0  0  0  0  0  0  0
  -12.7470   -0.6990  -23.4640 C   0  0  0  0  0  0  0  0  0  0  0  0
  -11.3560   -0.6490  -23.5430 C   0  0  0  0  0  0  0  0  0  0  0  0
  -10.7400    0.4820  -24.3150 C   0  0  0  0  0  0  0  0  0  0  0  0
  -11.4140    1.3810  -24.7950 O   0  0  0  0  0  0  0  0  0  0  0  0
  -13.3090    0.0280  -24.0410 H   0  0  0  0  0  0  0  0  0  0  0  0
  -14.4480   -1.6710  -22.5710 H   0  0  0  0  0  0  0  0  0  0  0  0
  -10.6330   -3.1210  -21.3250 H   0  0  0  0  0  0  0  0  0  0  0  0
   -7.5880   -0.5600  -24.2210 H   0  0  0  0  0  0  0  0  0  0  0  0
   -8.8580   -1.4760  -25.0890 H   0  0  0  0  0  0  0  0  0  0  0  0
   -9.4200    2.3010  -25.2270 H   0  0  0  0  0  0  0  0  0  0  0  0
   -8.0110    1.3250  -25.7510 H   0  0  0  0  0  0  0  0  0  0  0  0
   -9.2730    2.8110  -22.7050 H   0  0  0  0  0  0  0  0  0  0  0  0
   -6.8510    2.5410  -21.3710 H   0  0  0  0  0  0  0  0  0  0  0  0
   -6.7090    4.1270  -22.1680 H   0  0  0  0  0  0  0  0  0  0  0  0
   -8.0580    3.8610  -21.0570 H   0  0  0  0  0  0  0  0  0  0  0  0
  1  2  1  0  0  0  0
  1 65  1  0  0  0  0
  1 66  1  0  0  0  0
  1 67  1  0  0  0  0
  2  3  1  0  0  0  0
  2 64  1  0  0  0  0
  3  4  2  0  0  0  0
  3  5  1  0  0  0  0
  5  6  1  0  0  0  0
  5 62  1  0  0  0  0
  5 63  1  0  0  0  0
  6  7  1  0  0  0  0
  6 55  1  0  0  0  0
  7  8  1  0  0  0  0
  7 60  1  0  0  0  0
  7 61  1  0  0  0  0
  8  9  1  1  0  0  0
  8 29  1  0  0  0  0
  8 48  1  0  0  0  0
  9 10  2  0  0  0  0
  9 11  1  0  0  0  0
 11 12  1  0  0  0  0
 11 28  1  0  0  0  0
 12 13  2  0  0  0  0
 12 21  1  0  0  0  0
 13 14  1  0  0  0  0
 13 27  1  0  0  0  0
 14 15  2  0  0  0  0
 15 16  1  0  0  0  0
 15 26  1  0  0  0  0
 16 17  2  0  0  0  0
 16 21  1  0  0  0  0
 17 18  1  0  0  0  0
 17 25  1  0  0  0  0
 18 19  2  0  0  0  0
 18 24  1  0  0  0  0
 19 20  1  0  0  0  0
 19 23  1  0  0  0  0
 20 21  2  0  0  0  0
 20 22  1  0  0  0  0
 28 29  1  0  0  0  0
 28 46  1  0  0  0  0
 28 47  1  0  0  0  0
 29 30  1  0  0  0  0
 29 45  1  1  0  0  0
 30 31  1  0  0  0  0
 30 43  1  0  0  0  0
 30 44  1  0  0  0  0
 31 32  1  0  0  0  0
 31 42  1  0  0  0  0
 32 33  2  0  0  0  0
 32 40  1  0  0  0  0
 33 34  1  0  0  0  0
 33 41  1  0  0  0  0
 34 35  2  0  0  0  0
 35 36  1  0  0  0  0
 35 40  1  0  0  0  0
 36 37  1  0  0  0  0
 36 38  1  0  0  0  0
 36 39  1  0  0  0  0
 48 49  2  0  0  0  0
 48 54  1  0  0  0  0
 49 50  1  0  0  0  0
 49 59  1  0  0  0  0
 50 51  1  0  0  0  0
 50 52  2  0  0  0  0
 52 53  1  0  0  0  0
 52 58  1  0  0  0  0
 53 54  2  0  0  0  0
 53 57  1  0  0  0  0
 54 55  1  0  0  0  0
 55 56  2  0  0  0  0
M  END
>  <MODEL>
       1

$$$$
