tmp_first_model_18_37.pdb
 OpenBabel08282502533D

 56 60  0  0  1  0  0  0  0  0999 V2000
   -8.1790    4.5170  -24.1440 C   0  0  0  0  0  0  0  0  0  0  0  0
   -8.2210    3.3290  -24.9700 N   0  0  0  0  0  0  0  0  0  0  0  0
   -7.4040    2.2840  -24.6750 C   0  0  0  0  0  0  0  0  0  0  0  0
   -6.5680    2.3190  -23.7890 O   0  0  0  0  0  0  0  0  0  0  0  0
   -7.6070    1.0490  -25.5560 C   0  0  0  0  0  0  0  0  0  0  0  0
   -8.5350    0.1170  -24.9370 N   0  0  0  0  0  0  0  0  0  0  0  0
   -8.0660   -1.1550  -24.4070 C   0  0  0  0  0  0  0  0  0  0  0  0
   -8.8220   -1.5530  -23.1060 C   0  0  2  0  0  0  0  0  0  0  0  0
   -8.3610   -0.6590  -21.9220 C   0  0  0  0  0  0  0  0  0  0  0  0
   -8.7210    0.4600  -21.6400 O   0  0  0  0  0  0  0  0  0  0  0  0
   -7.4190   -1.3750  -21.2120 N   0  0  0  0  0  0  0  0  0  0  0  0
   -6.6330   -0.8010  -20.1900 C   0  0  0  0  0  0  0  0  0  0  0  0
   -6.9260   -1.0760  -18.8800 C   0  0  0  0  0  0  0  0  0  0  0  0
   -6.2430   -0.5840  -17.8170 N   0  0  0  0  0  0  0  0  0  0  0  0
   -5.2180    0.1900  -18.0820 C   0  0  0  0  0  0  0  0  0  0  0  0
   -4.7770    0.5160  -19.3960 C   0  0  0  0  0  0  0  0  0  0  0  0
   -3.6390    1.3360  -19.6160 C   0  0  0  0  0  0  0  0  0  0  0  0
   -3.2170    1.6080  -20.8860 C   0  0  0  0  0  0  0  0  0  0  0  0
   -3.9160    1.0840  -21.9970 C   0  0  0  0  0  0  0  0  0  0  0  0
   -5.0280    0.2980  -21.8120 C   0  0  0  0  0  0  0  0  0  0  0  0
   -5.4900   -0.0000  -20.5000 C   0  0  0  0  0  0  0  0  0  0  0  0
   -5.5670   -0.0750  -22.6810 H   0  0  0  0  0  0  0  0  0  0  0  0
   -3.5840    1.3200  -23.0030 H   0  0  0  0  0  0  0  0  0  0  0  0
   -2.3430    2.2330  -21.0470 H   0  0  0  0  0  0  0  0  0  0  0  0
   -3.1240    1.7340  -18.7460 H   0  0  0  0  0  0  0  0  0  0  0  0
   -4.6710    0.6020  -17.2340 H   0  0  0  0  0  0  0  0  0  0  0  0
   -7.7700   -1.7270  -18.6550 H   0  0  0  0  0  0  0  0  0  0  0  0
   -7.1900   -2.7240  -21.6770 C   0  0  0  0  0  0  0  0  0  0  0  0
   -8.3780   -2.9660  -22.6140 C   0  0  2  0  0  0  0  0  0  0  0  0
   -8.1050   -3.9970  -23.6990 C   0  0  0  0  0  0  0  0  0  0  0  0
   -7.9310   -4.9810  -23.2530 H   0  0  0  0  0  0  0  0  0  0  0  0
   -8.9590   -4.0630  -24.3830 H   0  0  0  0  0  0  0  0  0  0  0  0
   -7.2150   -3.7240  -24.2820 H   0  0  0  0  0  0  0  0  0  0  0  0
   -9.1780   -3.3490  -21.9760 H   0  0  0  0  0  0  0  0  0  0  0  0
   -7.1770   -3.4210  -20.8330 H   0  0  0  0  0  0  0  0  0  0  0  0
   -6.2200   -2.8210  -22.1910 H   0  0  0  0  0  0  0  0  0  0  0  0
  -10.3100   -1.3950  -23.3600 C   0  0  0  0  0  0  0  0  0  0  0  0
  -11.2500   -2.0730  -22.5740 C   0  0  0  0  0  0  0  0  0  0  0  0
  -12.6060   -1.8520  -22.7260 C   0  0  0  0  0  0  0  0  0  0  0  0
  -13.0770   -1.0240  -23.7470 C   0  0  0  0  0  0  0  0  0  0  0  0
  -12.1690   -0.3800  -24.5670 C   0  0  0  0  0  0  0  0  0  0  0  0
  -10.7970   -0.5140  -24.3370 C   0  0  0  0  0  0  0  0  0  0  0  0
   -9.8620    0.3780  -25.0960 C   0  0  0  0  0  0  0  0  0  0  0  0
  -10.2570    1.3230  -25.7800 O   0  0  0  0  0  0  0  0  0  0  0  0
  -12.4890    0.2030  -25.4230 H   0  0  0  0  0  0  0  0  0  0  0  0
  -14.1420   -0.8540  -23.8730 H   0  0  0  0  0  0  0  0  0  0  0  0
  -13.3010   -2.3430  -22.0520 H   0  0  0  0  0  0  0  0  0  0  0  0
  -10.9350   -2.7800  -21.8120 H   0  0  0  0  0  0  0  0  0  0  0  0
   -6.9900   -1.0590  -24.2090 H   0  0  0  0  0  0  0  0  0  0  0  0
   -8.2090   -1.9440  -25.1620 H   0  0  0  0  0  0  0  0  0  0  0  0
   -6.6520    0.5430  -25.7120 H   0  0  0  0  0  0  0  0  0  0  0  0
   -8.0050    1.3550  -26.5250 H   0  0  0  0  0  0  0  0  0  0  0  0
   -9.0760    3.0880  -25.4500 H   0  0  0  0  0  0  0  0  0  0  0  0
   -7.1520    4.8870  -24.0940 H   0  0  0  0  0  0  0  0  0  0  0  0
   -8.5240    4.3070  -23.1250 H   0  0  0  0  0  0  0  0  0  0  0  0
   -8.8140    5.2760  -24.6040 H   0  0  0  0  0  0  0  0  0  0  0  0
  1  2  1  0  0  0  0
  1 54  1  0  0  0  0
  1 55  1  0  0  0  0
  1 56  1  0  0  0  0
  2  3  1  0  0  0  0
  2 53  1  0  0  0  0
  3  4  2  0  0  0  0
  3  5  1  0  0  0  0
  5  6  1  0  0  0  0
  5 51  1  0  0  0  0
  5 52  1  0  0  0  0
  6  7  1  0  0  0  0
  6 43  1  0  0  0  0
  7  8  1  0  0  0  0
  7 49  1  0  0  0  0
  7 50  1  0  0  0  0
  8  9  1  1  0  0  0
  8 29  1  0  0  0  0
  8 37  1  0  0  0  0
  9 10  2  0  0  0  0
  9 11  1  0  0  0  0
 11 12  1  0  0  0  0
 11 28  1  0  0  0  0
 12 13  2  0  0  0  0
 12 21  1  0  0  0  0
 13 14  1  0  0  0  0
 13 27  1  0  0  0  0
 14 15  2  0  0  0  0
 15 16  1  0  0  0  0
 15 26  1  0  0  0  0
 16 17  2  0  0  0  0
 16 21  1  0  0  0  0
 17 18  1  0  0  0  0
 17 25  1  0  0  0  0
 18 19  2  0  0  0  0
 18 24  1  0  0  0  0
 19 20  1  0  0  0  0
 19 23  1  0  0  0  0
 20 21  2  0  0  0  0
 20 22  1  0  0  0  0
 28 29  1  0  0  0  0
 28 35  1  0  0  0  0
 28 36  1  0  0  0  0
 29 30  1  0  0  0  0
 29 34  1  1  0  0  0
 30 31  1  0  0  0  0
 30 32  1  0  0  0  0
 30 33  1  0  0  0  0
 37 38  2  0  0  0  0
 37 42  1  0  0  0  0
 38 39  1  0  0  0  0
 38 48  1  0  0  0  0
 39 40  2  0  0  0  0
 39 47  1  0  0  0  0
 40 41  1  0  0  0  0
 40 46  1  0  0  0  0
 41 42  2  0  0  0  0
 41 45  1  0  0  0  0
 42 43  1  0  0  0  0
 43 44  2  0  0  0  0
M  END
>  <MODEL>
       1

$$$$
