tmp_first_model_18_2.pdb
 OpenBabel08282502533D

 60 65  0  0  1  0  0  0  0  0999 V2000
   -5.1950   -1.4890  -30.4860 C   0  0  0  0  0  0  0  0  0  0  0  0
   -5.6900   -0.8840  -29.2070 C   0  0  0  0  0  0  0  0  0  0  0  0
   -5.1810   -1.2780  -27.9670 C   0  0  0  0  0  0  0  0  0  0  0  0
   -5.6400   -0.7960  -26.8170 N   0  0  0  0  0  0  0  0  0  0  0  0
   -6.5910    0.1380  -26.9020 C   0  0  0  0  0  0  0  0  0  0  0  0
   -7.1280    0.7090  -25.6220 C   0  0  0  0  0  0  0  0  0  0  0  0
   -8.2240   -0.0710  -25.0830 N   0  0  0  0  0  0  0  0  0  0  0  0
   -7.9420   -1.3600  -24.4810 C   0  0  0  0  0  0  0  0  0  0  0  0
   -8.7640   -1.5560  -23.1860 C   0  0  2  0  0  0  0  0  0  0  0  0
   -8.2290   -0.5880  -22.0910 C   0  0  0  0  0  0  0  0  0  0  0  0
   -8.4050    0.6020  -22.0010 O   0  0  0  0  0  0  0  0  0  0  0  0
   -7.4500   -1.3330  -21.2240 N   0  0  0  0  0  0  0  0  0  0  0  0
   -6.6380   -0.7770  -20.2080 C   0  0  0  0  0  0  0  0  0  0  0  0
   -6.9210   -1.0610  -18.8940 C   0  0  0  0  0  0  0  0  0  0  0  0
   -6.2370   -0.5730  -17.8310 N   0  0  0  0  0  0  0  0  0  0  0  0
   -5.2120    0.2020  -18.0950 C   0  0  0  0  0  0  0  0  0  0  0  0
   -4.7710    0.5260  -19.4090 C   0  0  0  0  0  0  0  0  0  0  0  0
   -3.6320    1.3450  -19.6230 C   0  0  0  0  0  0  0  0  0  0  0  0
   -3.1980    1.6110  -20.8920 C   0  0  0  0  0  0  0  0  0  0  0  0
   -3.8750    1.0640  -22.0050 C   0  0  0  0  0  0  0  0  0  0  0  0
   -4.9860    0.2780  -21.8270 C   0  0  0  0  0  0  0  0  0  0  0  0
   -5.4800    0.0070  -20.5150 C   0  0  0  0  0  0  0  0  0  0  0  0
   -5.4860   -0.1390  -22.6990 H   0  0  0  0  0  0  0  0  0  0  0  0
   -3.5070    1.2690  -23.0060 H   0  0  0  0  0  0  0  0  0  0  0  0
   -2.3310    2.2430  -21.0520 H   0  0  0  0  0  0  0  0  0  0  0  0
   -3.1240    1.7510  -18.7540 H   0  0  0  0  0  0  0  0  0  0  0  0
   -4.6570    0.6060  -17.2480 H   0  0  0  0  0  0  0  0  0  0  0  0
   -7.7700   -1.7050  -18.6650 H   0  0  0  0  0  0  0  0  0  0  0  0
   -7.3550   -2.7350  -21.5610 C   0  0  0  0  0  0  0  0  0  0  0  0
   -8.5080   -2.9450  -22.5430 C   0  0  2  0  0  0  0  0  0  0  0  0
   -8.2950   -4.0820  -23.5290 C   0  0  0  0  0  0  0  0  0  0  0  0
   -9.1180   -4.1310  -24.2510 H   0  0  0  0  0  0  0  0  0  0  0  0
   -8.2320   -5.0430  -23.0110 H   0  0  0  0  0  0  0  0  0  0  0  0
   -7.3630   -3.9360  -24.0880 H   0  0  0  0  0  0  0  0  0  0  0  0
   -9.3800   -3.1840  -21.9310 H   0  0  0  0  0  0  0  0  0  0  0  0
   -6.3790   -2.9870  -22.0050 H   0  0  0  0  0  0  0  0  0  0  0  0
   -7.4660   -3.3310  -20.6570 H   0  0  0  0  0  0  0  0  0  0  0  0
  -10.2140   -1.2910  -23.5440 C   0  0  0  0  0  0  0  0  0  0  0  0
  -11.2530   -1.8180  -22.7710 C   0  0  0  0  0  0  0  0  0  0  0  0
  -12.5520   -1.4440  -23.0390 C   0  0  0  0  0  0  0  0  0  0  0  0
  -13.5230   -1.8990  -22.2300 F   0  0  0  0  0  0  0  0  0  0  0  0
  -12.9010   -0.6060  -24.0920 C   0  0  0  0  0  0  0  0  0  0  0  0
  -11.8830   -0.1270  -24.8850 C   0  0  0  0  0  0  0  0  0  0  0  0
  -10.5530   -0.4240  -24.5920 C   0  0  0  0  0  0  0  0  0  0  0  0
   -9.5060    0.2990  -25.3730 C   0  0  0  0  0  0  0  0  0  0  0  0
   -9.7740    1.1780  -26.1830 O   0  0  0  0  0  0  0  0  0  0  0  0
  -12.0790    0.4790  -25.7600 H   0  0  0  0  0  0  0  0  0  0  0  0
  -13.9380   -0.3250  -24.2440 H   0  0  0  0  0  0  0  0  0  0  0  0
  -11.0810   -2.5130  -21.9560 H   0  0  0  0  0  0  0  0  0  0  0  0
   -6.8680   -1.4280  -24.2830 H   0  0  0  0  0  0  0  0  0  0  0  0
   -8.1810   -2.1640  -25.1910 H   0  0  0  0  0  0  0  0  0  0  0  0
   -7.4890    1.7320  -25.7600 H   0  0  0  0  0  0  0  0  0  0  0  0
   -6.3220    0.7140  -24.8810 H   0  0  0  0  0  0  0  0  0  0  0  0
   -7.0890    0.5410  -28.1330 C   0  0  0  0  0  0  0  0  0  0  0  0
   -6.6530    0.0320  -29.2870 N   0  0  0  0  0  0  0  0  0  0  0  0
   -7.8730    1.2900  -28.1770 H   0  0  0  0  0  0  0  0  0  0  0  0
   -4.3680   -1.9940  -27.9060 H   0  0  0  0  0  0  0  0  0  0  0  0
   -5.5010   -2.5380  -30.5520 H   0  0  0  0  0  0  0  0  0  0  0  0
   -4.1010   -1.4630  -30.5470 H   0  0  0  0  0  0  0  0  0  0  0  0
   -5.6210   -0.9420  -31.3290 H   0  0  0  0  0  0  0  0  0  0  0  0
  1  2  1  0  0  0  0
  1 58  1  0  0  0  0
  1 59  1  0  0  0  0
  1 60  1  0  0  0  0
  2  3  2  0  0  0  0
  2 55  1  0  0  0  0
  3  4  1  0  0  0  0
  3 57  1  0  0  0  0
  4  5  2  0  0  0  0
  5  6  1  0  0  0  0
  5 54  1  0  0  0  0
  6  7  1  0  0  0  0
  6 52  1  0  0  0  0
  6 53  1  0  0  0  0
  7  8  1  0  0  0  0
  7 45  1  0  0  0  0
  8  9  1  0  0  0  0
  8 50  1  0  0  0  0
  8 51  1  0  0  0  0
  9 10  1  1  0  0  0
  9 30  1  0  0  0  0
  9 38  1  0  0  0  0
 10 11  2  0  0  0  0
 10 12  1  0  0  0  0
 12 13  1  0  0  0  0
 12 29  1  0  0  0  0
 13 14  2  0  0  0  0
 13 22  1  0  0  0  0
 14 15  1  0  0  0  0
 14 28  1  0  0  0  0
 15 16  2  0  0  0  0
 16 17  1  0  0  0  0
 16 27  1  0  0  0  0
 17 18  2  0  0  0  0
 17 22  1  0  0  0  0
 18 19  1  0  0  0  0
 18 26  1  0  0  0  0
 19 20  2  0  0  0  0
 19 25  1  0  0  0  0
 20 21  1  0  0  0  0
 20 24  1  0  0  0  0
 21 22  2  0  0  0  0
 21 23  1  0  0  0  0
 29 30  1  0  0  0  0
 29 36  1  0  0  0  0
 29 37  1  0  0  0  0
 30 31  1  0  0  0  0
 30 35  1  1  0  0  0
 31 32  1  0  0  0  0
 31 33  1  0  0  0  0
 31 34  1  0  0  0  0
 38 39  2  0  0  0  0
 38 44  1  0  0  0  0
 39 40  1  0  0  0  0
 39 49  1  0  0  0  0
 40 41  1  0  0  0  0
 40 42  2  0  0  0  0
 42 43  1  0  0  0  0
 42 48  1  0  0  0  0
 43 44  2  0  0  0  0
 43 47  1  0  0  0  0
 44 45  1  0  0  0  0
 45 46  2  0  0  0  0
 54 55  2  0  0  0  0
 54 56  1  0  0  0  0
M  END
>  <MODEL>
       1

$$$$
