tmp_first_model_17_25.pdb
 OpenBabel08282502223D

 70 75  0  0  1  0  0  0  0  0999 V2000
   -8.1140   -7.0600  -23.9620 O   0  0  0  0  0  0  0  0  0  0  0  0
   -8.0390   -6.3160  -23.0030 C   0  0  0  0  0  0  0  0  0  0  0  0
   -9.1510   -5.3420  -22.6300 C   0  0  0  0  0  0  0  0  0  0  0  0
   -8.7810   -3.9260  -22.8890 N   0  3  1  0  0  0  0  0  0  0  0  0
   -8.4400   -3.7520  -24.3720 C   0  0  0  0  0  0  0  0  0  0  0  0
   -8.1430   -2.3140  -24.6920 C   0  0  0  0  0  0  0  0  0  0  0  0
   -7.3510   -1.9930  -25.7950 C   0  0  0  0  0  0  0  0  0  0  0  0
   -7.0720   -0.6700  -26.1150 C   0  0  0  0  0  0  0  0  0  0  0  0
   -7.6000    0.3450  -25.3220 C   0  0  0  0  0  0  0  0  0  0  0  0
   -7.2620    2.0180  -25.6820 Cl  0  0  0  0  0  0  0  0  0  0  0  0
   -8.3830    0.0430  -24.2190 C   0  0  0  0  0  0  0  0  0  0  0  0
   -8.6530   -1.2880  -23.8980 C   0  0  0  0  0  0  0  0  0  0  0  0
   -9.4350   -1.5220  -22.6290 C   0  0  2  0  0  0  0  0  0  0  0  0
   -8.6760   -0.9530  -21.4320 C   0  0  0  0  0  0  0  0  0  0  0  0
   -9.1370   -0.0430  -20.7660 O   0  0  0  0  0  0  0  0  0  0  0  0
   -7.4100   -1.4690  -21.2080 N   0  0  0  0  0  0  0  0  0  0  0  0
   -6.5940   -0.8920  -20.1990 C   0  0  0  0  0  0  0  0  0  0  0  0
   -6.9270   -1.0870  -18.8840 C   0  0  0  0  0  0  0  0  0  0  0  0
   -6.2420   -0.5780  -17.8300 N   0  0  0  0  0  0  0  0  0  0  0  0
   -5.1990    0.1700  -18.0950 C   0  0  0  0  0  0  0  0  0  0  0  0
   -4.7590    0.4770  -19.4130 C   0  0  0  0  0  0  0  0  0  0  0  0
   -3.6480    1.3250  -19.6400 C   0  0  0  0  0  0  0  0  0  0  0  0
   -3.2690    1.6410  -20.9130 C   0  0  0  0  0  0  0  0  0  0  0  0
   -3.9860    1.1280  -22.0160 C   0  0  0  0  0  0  0  0  0  0  0  0
   -5.0650    0.3010  -21.8260 C   0  0  0  0  0  0  0  0  0  0  0  0
   -5.4700   -0.0570  -20.5110 C   0  0  0  0  0  0  0  0  0  0  0  0
   -5.6150   -0.0570  -22.6900 H   0  0  0  0  0  0  0  0  0  0  0  0
   -3.6740    1.4020  -23.0190 H   0  0  0  0  0  0  0  0  0  0  0  0
   -2.4180    2.2940  -21.0870 H   0  0  0  0  0  0  0  0  0  0  0  0
   -3.1220    1.7290  -18.7810 H   0  0  0  0  0  0  0  0  0  0  0  0
   -4.6550    0.5950  -17.2480 H   0  0  0  0  0  0  0  0  0  0  0  0
   -7.7970   -1.6910  -18.6390 H   0  0  0  0  0  0  0  0  0  0  0  0
   -6.9520   -1.9120  -21.9950 H   0  0  0  0  0  0  0  0  0  0  0  0
   -9.8780   -2.9680  -22.4880 C   0  0  0  0  0  0  0  0  0  0  0  0
  -10.2030   -3.1900  -21.4720 H   0  0  0  0  0  0  0  0  0  0  0  0
  -10.7290   -3.1070  -23.1590 H   0  0  0  0  0  0  0  0  0  0  0  0
  -10.3300   -0.8970  -22.6550 H   0  0  0  0  0  0  0  0  0  0  0  0
   -8.7750    0.8330  -23.5820 H   0  0  0  0  0  0  0  0  0  0  0  0
   -6.4510   -0.4220  -26.9690 H   0  0  0  0  0  0  0  0  0  0  0  0
   -6.9360   -2.7840  -26.4170 H   0  0  0  0  0  0  0  0  0  0  0  0
   -9.2960   -4.1200  -24.9510 H   0  0  0  0  0  0  0  0  0  0  0  0
   -7.5890   -4.3920  -24.6060 H   0  0  0  0  0  0  0  0  0  0  0  0
   -7.9380   -3.6880  -22.3240 H   0  0  0  0  0  0  0  0  0  0  0  0
  -10.0300   -5.6010  -23.2260 H   0  0  0  0  0  0  0  0  0  0  0  0
   -9.4000   -5.4760  -21.5720 H   0  0  0  0  0  0  0  0  0  0  0  0
   -6.9530   -6.2670  -22.1680 N   0  0  0  0  0  0  0  0  0  0  0  0
   -5.7550   -6.9640  -22.4080 C   0  0  0  0  0  0  0  0  0  0  0  0
   -4.9910   -7.4500  -21.3500 C   0  0  0  0  0  0  0  0  0  0  0  0
   -3.7860   -8.0730  -21.6190 C   0  0  0  0  0  0  0  0  0  0  0  0
   -3.3000   -8.2090  -22.9170 C   0  0  0  0  0  0  0  0  0  0  0  0
   -2.0680   -8.8710  -23.1530 N   0  0  0  0  0  0  0  0  0  0  0  0
   -1.0190   -8.8000  -22.1260 C   0  0  0  0  0  0  0  0  0  0  0  0
    0.3040   -9.1780  -22.7710 C   0  0  0  0  0  0  0  0  0  0  0  0
    0.1900  -10.4840  -23.3000 O   0  0  0  0  0  0  0  0  0  0  0  0
   -0.6840  -10.5200  -24.3950 C   0  0  0  0  0  0  0  0  0  0  0  0
   -1.9870   -9.7540  -24.2120 C   0  0  0  0  0  0  0  0  0  0  0  0
   -2.8890   -9.9570  -25.0090 O   0  0  0  0  0  0  0  0  0  0  0  0
   -0.9680  -11.5570  -24.5980 H   0  0  0  0  0  0  0  0  0  0  0  0
   -0.1900  -10.1480  -25.3050 H   0  0  0  0  0  0  0  0  0  0  0  0
    1.0990   -9.2150  -22.0230 H   0  0  0  0  0  0  0  0  0  0  0  0
    0.5660   -8.4660  -23.5710 H   0  0  0  0  0  0  0  0  0  0  0  0
   -0.9850   -7.7880  -21.6970 H   0  0  0  0  0  0  0  0  0  0  0  0
   -1.2170   -9.5140  -21.3110 H   0  0  0  0  0  0  0  0  0  0  0  0
   -4.0690   -7.7200  -23.9660 C   0  0  0  0  0  0  0  0  0  0  0  0
   -5.2960   -7.1400  -23.7130 C   0  0  0  0  0  0  0  0  0  0  0  0
   -5.8920   -6.8240  -24.5570 H   0  0  0  0  0  0  0  0  0  0  0  0
   -3.7540   -7.8560  -24.9910 H   0  0  0  0  0  0  0  0  0  0  0  0
   -3.2220   -8.5340  -20.8100 H   0  0  0  0  0  0  0  0  0  0  0  0
   -5.3480   -7.3900  -20.3240 H   0  0  0  0  0  0  0  0  0  0  0  0
   -7.0510   -5.8100  -21.2730 H   0  0  0  0  0  0  0  0  0  0  0  0
  1  2  2  0  0  0  0
  2  3  1  0  0  0  0
  2 46  1  0  0  0  0
  3  4  1  0  0  0  0
  3 44  1  0  0  0  0
  3 45  1  0  0  0  0
  4  5  1  0  0  0  0
  4 34  1  0  0  0  0
  4 43  1  1  0  0  0
  5  6  1  0  0  0  0
  5 41  1  0  0  0  0
  5 42  1  0  0  0  0
  6  7  2  0  0  0  0
  6 12  1  0  0  0  0
  7  8  1  0  0  0  0
  7 40  1  0  0  0  0
  8  9  2  0  0  0  0
  8 39  1  0  0  0  0
  9 10  1  0  0  0  0
  9 11  1  0  0  0  0
 11 12  2  0  0  0  0
 11 38  1  0  0  0  0
 12 13  1  0  0  0  0
 13 14  1  0  0  0  0
 13 34  1  0  0  0  0
 13 37  1  6  0  0  0
 14 15  2  0  0  0  0
 14 16  1  0  0  0  0
 16 17  1  0  0  0  0
 16 33  1  0  0  0  0
 17 18  2  0  0  0  0
 17 26  1  0  0  0  0
 18 19  1  0  0  0  0
 18 32  1  0  0  0  0
 19 20  2  0  0  0  0
 20 21  1  0  0  0  0
 20 31  1  0  0  0  0
 21 22  2  0  0  0  0
 21 26  1  0  0  0  0
 22 23  1  0  0  0  0
 22 30  1  0  0  0  0
 23 24  2  0  0  0  0
 23 29  1  0  0  0  0
 24 25  1  0  0  0  0
 24 28  1  0  0  0  0
 25 26  2  0  0  0  0
 25 27  1  0  0  0  0
 34 35  1  0  0  0  0
 34 36  1  0  0  0  0
 46 47  1  0  0  0  0
 46 70  1  0  0  0  0
 47 48  2  0  0  0  0
 47 65  1  0  0  0  0
 48 49  1  0  0  0  0
 48 69  1  0  0  0  0
 49 50  2  0  0  0  0
 49 68  1  0  0  0  0
 50 51  1  0  0  0  0
 50 64  1  0  0  0  0
 51 52  1  0  0  0  0
 51 56  1  0  0  0  0
 52 53  1  0  0  0  0
 52 62  1  0  0  0  0
 52 63  1  0  0  0  0
 53 54  1  0  0  0  0
 53 60  1  0  0  0  0
 53 61  1  0  0  0  0
 54 55  1  0  0  0  0
 55 56  1  0  0  0  0
 55 58  1  0  0  0  0
 55 59  1  0  0  0  0
 56 57  2  0  0  0  0
 64 65  2  0  0  0  0
 64 67  1  0  0  0  0
 65 66  1  0  0  0  0
M  CHG  1   4   1
M  END
>  <MODEL>
       1

$$$$
