tmp_first_model_10_63.pdb
 OpenBabel08272522163D

 57 61  0  0  1  0  0  0  0  0999 V2000
   -8.1710   -5.6920  -27.6220 C   0  0  0  0  0  0  0  0  0  0  0  0
   -8.3850   -4.2630  -27.4560 N   0  0  0  0  0  0  0  0  0  0  0  0
   -7.4030   -3.4820  -26.9740 C   0  0  0  0  0  0  0  0  0  0  0  0
   -6.3260   -3.9480  -26.6070 O   0  0  0  0  0  0  0  0  0  0  0  0
   -7.7090   -1.9910  -26.8500 C   0  0  0  0  0  0  0  0  0  0  0  0
   -8.5960   -1.7260  -25.7250 N   0  0  0  0  0  0  0  0  0  0  0  0
   -8.0360   -1.2730  -24.4510 C   0  0  0  0  0  0  0  0  0  0  0  0
   -8.8840   -1.6370  -23.1920 C   0  0  2  0  0  0  0  0  0  0  0  0
   -8.4380   -0.6580  -22.0810 C   0  0  0  0  0  0  0  0  0  0  0  0
   -8.7220    0.5200  -22.0060 O   0  0  0  0  0  0  0  0  0  0  0  0
   -7.5760   -1.3180  -21.2220 N   0  0  0  0  0  0  0  0  0  0  0  0
   -6.7830   -0.7120  -20.2100 C   0  0  0  0  0  0  0  0  0  0  0  0
   -6.9650   -1.1180  -18.9100 C   0  0  0  0  0  0  0  0  0  0  0  0
   -6.2310   -0.7050  -17.8500 N   0  0  0  0  0  0  0  0  0  0  0  0
   -5.2550    0.1360  -18.0860 C   0  0  0  0  0  0  0  0  0  0  0  0
   -4.9390    0.6380  -19.3790 C   0  0  0  0  0  0  0  0  0  0  0  0
   -3.8620    1.5460  -19.5670 C   0  0  0  0  0  0  0  0  0  0  0  0
   -3.5730    2.0340  -20.8100 C   0  0  0  0  0  0  0  0  0  0  0  0
   -4.3430    1.6250  -21.9240 C   0  0  0  0  0  0  0  0  0  0  0  0
   -5.3870    0.7430  -21.7670 C   0  0  0  0  0  0  0  0  0  0  0  0
   -5.7220    0.2220  -20.4840 C   0  0  0  0  0  0  0  0  0  0  0  0
   -5.9820    0.4570  -22.6290 H   0  0  0  0  0  0  0  0  0  0  0  0
   -4.1170    2.0250  -22.9090 H   0  0  0  0  0  0  0  0  0  0  0  0
   -2.7720    2.7590  -20.9450 H   0  0  0  0  0  0  0  0  0  0  0  0
   -3.2800    1.8400  -18.6960 H   0  0  0  0  0  0  0  0  0  0  0  0
   -4.6650    0.4740  -17.2330 H   0  0  0  0  0  0  0  0  0  0  0  0
   -7.7670   -1.8160  -18.6760 H   0  0  0  0  0  0  0  0  0  0  0  0
   -7.4370   -2.7340  -21.5200 C   0  0  0  0  0  0  0  0  0  0  0  0
   -8.5500   -3.0130  -22.5310 C   0  0  2  0  0  0  0  0  0  0  0  0
   -8.2460   -4.1720  -23.4740 C   0  0  0  0  0  0  0  0  0  0  0  0
   -6.8890   -4.1300  -23.8510 O   0  0  0  0  0  0  0  0  0  0  0  0
   -6.7810   -4.2040  -24.8100 H   0  0  0  0  0  0  0  0  0  0  0  0
   -8.4330   -5.1160  -22.9470 H   0  0  0  0  0  0  0  0  0  0  0  0
   -8.9330   -4.1400  -24.3330 H   0  0  0  0  0  0  0  0  0  0  0  0
   -9.4550   -3.2820  -21.9730 H   0  0  0  0  0  0  0  0  0  0  0  0
   -6.4520   -2.9450  -21.9500 H   0  0  0  0  0  0  0  0  0  0  0  0
   -7.5480   -3.3320  -20.6090 H   0  0  0  0  0  0  0  0  0  0  0  0
  -10.3600   -1.5150  -23.5180 C   0  0  0  0  0  0  0  0  0  0  0  0
  -11.3060   -1.5260  -22.4830 C   0  0  0  0  0  0  0  0  0  0  0  0
  -12.6570   -1.4020  -22.7690 C   0  0  0  0  0  0  0  0  0  0  0  0
  -13.8700   -1.4630  -21.5280 Cl  0  0  0  0  0  0  0  0  0  0  0  0
  -13.1030   -1.2470  -24.0820 C   0  0  0  0  0  0  0  0  0  0  0  0
  -12.1820   -1.2830  -25.1090 C   0  0  0  0  0  0  0  0  0  0  0  0
  -10.8290   -1.4690  -24.8310 C   0  0  0  0  0  0  0  0  0  0  0  0
   -9.9330   -1.7760  -25.9760 C   0  0  0  0  0  0  0  0  0  0  0  0
  -10.3880   -2.1070  -27.0710 O   0  0  0  0  0  0  0  0  0  0  0  0
  -12.4840   -1.1790  -26.1500 H   0  0  0  0  0  0  0  0  0  0  0  0
  -14.1640   -1.1680  -24.3000 H   0  0  0  0  0  0  0  0  0  0  0  0
  -10.9700   -1.6360  -21.4590 H   0  0  0  0  0  0  0  0  0  0  0  0
   -7.0460   -1.7350  -24.3660 H   0  0  0  0  0  0  0  0  0  0  0  0
   -7.9390   -0.1770  -24.4680 H   0  0  0  0  0  0  0  0  0  0  0  0
   -6.7660   -1.4540  -26.7250 H   0  0  0  0  0  0  0  0  0  0  0  0
   -8.2090   -1.6440  -27.7580 H   0  0  0  0  0  0  0  0  0  0  0  0
   -9.2920   -3.8540  -27.6140 H   0  0  0  0  0  0  0  0  0  0  0  0
   -7.7620   -6.1190  -26.6990 H   0  0  0  0  0  0  0  0  0  0  0  0
   -9.1260   -6.1730  -27.8450 H   0  0  0  0  0  0  0  0  0  0  0  0
   -7.4690   -5.8960  -28.4400 H   0  0  0  0  0  0  0  0  0  0  0  0
  1  2  1  0  0  0  0
  1 55  1  0  0  0  0
  1 56  1  0  0  0  0
  1 57  1  0  0  0  0
  2  3  1  0  0  0  0
  2 54  1  0  0  0  0
  3  4  2  0  0  0  0
  3  5  1  0  0  0  0
  5  6  1  0  0  0  0
  5 52  1  0  0  0  0
  5 53  1  0  0  0  0
  6  7  1  0  0  0  0
  6 45  1  0  0  0  0
  7  8  1  0  0  0  0
  7 50  1  0  0  0  0
  7 51  1  0  0  0  0
  8  9  1  1  0  0  0
  8 29  1  0  0  0  0
  8 38  1  0  0  0  0
  9 10  2  0  0  0  0
  9 11  1  0  0  0  0
 11 12  1  0  0  0  0
 11 28  1  0  0  0  0
 12 13  2  0  0  0  0
 12 21  1  0  0  0  0
 13 14  1  0  0  0  0
 13 27  1  0  0  0  0
 14 15  2  0  0  0  0
 15 16  1  0  0  0  0
 15 26  1  0  0  0  0
 16 17  2  0  0  0  0
 16 21  1  0  0  0  0
 17 18  1  0  0  0  0
 17 25  1  0  0  0  0
 18 19  2  0  0  0  0
 18 24  1  0  0  0  0
 19 20  1  0  0  0  0
 19 23  1  0  0  0  0
 20 21  2  0  0  0  0
 20 22  1  0  0  0  0
 28 29  1  0  0  0  0
 28 36  1  0  0  0  0
 28 37  1  0  0  0  0
 29 30  1  0  0  0  0
 29 35  1  1  0  0  0
 30 31  1  0  0  0  0
 30 33  1  0  0  0  0
 30 34  1  0  0  0  0
 31 32  1  0  0  0  0
 38 39  2  0  0  0  0
 38 44  1  0  0  0  0
 39 40  1  0  0  0  0
 39 49  1  0  0  0  0
 40 41  1  0  0  0  0
 40 42  2  0  0  0  0
 42 43  1  0  0  0  0
 42 48  1  0  0  0  0
 43 44  2  0  0  0  0
 43 47  1  0  0  0  0
 44 45  1  0  0  0  0
 45 46  2  0  0  0  0
M  END
>  <MODEL>
       1

$$$$
