tmp_first_model_20_38.pdb
 OpenBabel08282503553D

 46 48  0  0  1  0  0  0  0  0999 V2000
   -9.0760   -4.9590  -25.9110 C   0  0  0  0  0  0  0  0  0  0  0  0
   -7.6970   -4.2980  -25.8630 C   0  0  1  0  0  0  0  0  0  0  0  0
   -7.7260   -2.8070  -25.5540 C   0  0  0  0  0  0  0  0  0  0  0  0
   -7.9780   -2.4240  -24.0870 C   0  0  1  0  0  0  0  0  0  0  0  0
   -9.4600   -2.4460  -23.6790 C   0  0  0  0  0  0  0  0  0  0  0  0
   -9.6860   -1.6840  -22.9260 H   0  0  0  0  0  0  0  0  0  0  0  0
  -10.1050   -2.2400  -24.5410 H   0  0  0  0  0  0  0  0  0  0  0  0
   -9.7530   -3.4130  -23.2670 H   0  0  0  0  0  0  0  0  0  0  0  0
   -7.1060   -3.1820  -23.1790 N   0  0  0  0  0  0  0  0  0  0  0  0
   -6.6950   -2.6880  -21.9490 C   0  0  0  0  0  0  0  0  0  0  0  0
   -5.7920   -3.2320  -21.3340 O   0  0  0  0  0  0  0  0  0  0  0  0
   -7.3970   -1.4610  -21.2880 C   0  0  0  0  0  0  0  0  0  0  0  0
   -6.5740   -0.8340  -20.1820 C   0  0  0  0  0  0  0  0  0  0  0  0
   -6.8730   -1.0470  -18.8610 C   0  0  0  0  0  0  0  0  0  0  0  0
   -6.1940   -0.5370  -17.7950 N   0  0  0  0  0  0  0  0  0  0  0  0
   -5.1580    0.2200  -18.0640 C   0  0  0  0  0  0  0  0  0  0  0  0
   -4.7200    0.5300  -19.3790 C   0  0  0  0  0  0  0  0  0  0  0  0
   -3.5930    1.3570  -19.6220 C   0  0  0  0  0  0  0  0  0  0  0  0
   -3.1920    1.6350  -20.9010 C   0  0  0  0  0  0  0  0  0  0  0  0
   -3.9050    1.0940  -21.9930 C   0  0  0  0  0  0  0  0  0  0  0  0
   -5.0000    0.2930  -21.7840 C   0  0  0  0  0  0  0  0  0  0  0  0
   -5.4430   -0.0120  -20.4720 C   0  0  0  0  0  0  0  0  0  0  0  0
   -5.5360   -0.1100  -22.6370 H   0  0  0  0  0  0  0  0  0  0  0  0
   -3.5880    1.3230  -23.0060 H   0  0  0  0  0  0  0  0  0  0  0  0
   -2.3340    2.2750  -21.0890 H   0  0  0  0  0  0  0  0  0  0  0  0
   -3.0530    1.7690  -18.7730 H   0  0  0  0  0  0  0  0  0  0  0  0
   -4.6020    0.6260  -17.2160 H   0  0  0  0  0  0  0  0  0  0  0  0
   -7.7210   -1.6710  -18.5860 H   0  0  0  0  0  0  0  0  0  0  0  0
   -7.6730   -0.6980  -22.0250 H   0  0  0  0  0  0  0  0  0  0  0  0
   -8.3390   -1.8200  -20.8460 H   0  0  0  0  0  0  0  0  0  0  0  0
   -6.8200   -4.6160  -23.4230 C   0  0  1  0  0  0  0  0  0  0  0  0
   -7.7750   -5.5540  -22.6720 C   0  0  0  0  0  0  0  0  0  0  0  0
   -8.8060   -5.4870  -23.0310 H   0  0  0  0  0  0  0  0  0  0  0  0
   -7.7660   -5.3320  -21.6020 H   0  0  0  0  0  0  0  0  0  0  0  0
   -7.4560   -6.5980  -22.7870 H   0  0  0  0  0  0  0  0  0  0  0  0
   -6.6950   -4.9540  -24.9150 C   0  0  0  0  0  0  0  0  0  0  0  0
   -6.7510   -6.0420  -25.0310 H   0  0  0  0  0  0  0  0  0  0  0  0
   -5.6860   -4.6750  -25.2410 H   0  0  0  0  0  0  0  0  0  0  0  0
   -5.8360   -4.7830  -22.9830 H   0  0  0  0  0  0  0  0  0  0  0  0
   -7.6570   -1.3810  -24.0260 H   0  0  0  0  0  0  0  0  0  0  0  0
   -8.4830   -2.3170  -26.1760 H   0  0  0  0  0  0  0  0  0  0  0  0
   -6.7670   -2.3690  -25.8560 H   0  0  0  0  0  0  0  0  0  0  0  0
   -7.2840   -4.4070  -26.8770 H   0  0  0  0  0  0  0  0  0  0  0  0
   -9.6910   -4.5060  -26.6980 H   0  0  0  0  0  0  0  0  0  0  0  0
   -9.6350   -4.8710  -24.9760 H   0  0  0  0  0  0  0  0  0  0  0  0
   -8.9850   -6.0270  -26.1390 H   0  0  0  0  0  0  0  0  0  0  0  0
  1  2  1  0  0  0  0
  1 44  1  0  0  0  0
  1 45  1  0  0  0  0
  1 46  1  0  0  0  0
  2  3  1  0  0  0  0
  2 36  1  0  0  0  0
  2 43  1  6  0  0  0
  3  4  1  0  0  0  0
  3 41  1  0  0  0  0
  3 42  1  0  0  0  0
  4  5  1  0  0  0  0
  4  9  1  0  0  0  0
  4 40  1  1  0  0  0
  5  6  1  0  0  0  0
  5  7  1  0  0  0  0
  5  8  1  0  0  0  0
  9 10  1  0  0  0  0
  9 31  1  0  0  0  0
 10 11  2  0  0  0  0
 10 12  1  0  0  0  0
 12 13  1  0  0  0  0
 12 29  1  0  0  0  0
 12 30  1  0  0  0  0
 13 14  2  0  0  0  0
 13 22  1  0  0  0  0
 14 15  1  0  0  0  0
 14 28  1  0  0  0  0
 15 16  2  0  0  0  0
 16 17  1  0  0  0  0
 16 27  1  0  0  0  0
 17 18  2  0  0  0  0
 17 22  1  0  0  0  0
 18 19  1  0  0  0  0
 18 26  1  0  0  0  0
 19 20  2  0  0  0  0
 19 25  1  0  0  0  0
 20 21  1  0  0  0  0
 20 24  1  0  0  0  0
 21 22  2  0  0  0  0
 21 23  1  0  0  0  0
 31 32  1  0  0  0  0
 31 36  1  0  0  0  0
 31 39  1  1  0  0  0
 32 33  1  0  0  0  0
 32 34  1  0  0  0  0
 32 35  1  0  0  0  0
 36 37  1  0  0  0  0
 36 38  1  0  0  0  0
M  END
>  <MODEL>
       1

$$$$
