tmp_first_model_10_86.pdb
 OpenBabel08272522163D

 43 45  0  0  1  0  0  0  0  0999 V2000
  -12.9850   -1.8150  -24.0400 C   0  0  0  0  0  0  0  0  0  0  0  0
  -11.6380   -1.2560  -24.5130 C   0  0  1  0  0  0  0  0  0  0  0  0
  -11.3090    0.1020  -23.8810 C   0  0  0  0  0  0  0  0  0  0  0  0
  -10.8330   -0.0900  -22.4520 C   0  0  0  0  0  0  0  0  0  0  0  0
   -9.6550   -0.9360  -22.3780 N   0  0  0  0  0  0  0  0  0  0  0  0
   -8.5500   -0.4200  -21.7470 C   0  0  0  0  0  0  0  0  0  0  0  0
   -8.4380    0.7730  -21.5250 O   0  0  0  0  0  0  0  0  0  0  0  0
   -7.4760   -1.4030  -21.2670 C   0  0  0  0  0  0  0  0  0  0  0  0
   -6.6290   -0.8070  -20.1740 C   0  0  0  0  0  0  0  0  0  0  0  0
   -6.9100   -1.0650  -18.8580 C   0  0  0  0  0  0  0  0  0  0  0  0
   -6.2130   -0.5910  -17.7880 N   0  0  0  0  0  0  0  0  0  0  0  0
   -5.2080    0.2120  -18.0500 C   0  0  0  0  0  0  0  0  0  0  0  0
   -4.8140    0.5860  -19.3650 C   0  0  0  0  0  0  0  0  0  0  0  0
   -3.6800    1.4100  -19.6050 C   0  0  0  0  0  0  0  0  0  0  0  0
   -3.3960    1.8500  -20.8680 C   0  0  0  0  0  0  0  0  0  0  0  0
   -4.2030    1.4400  -21.9540 C   0  0  0  0  0  0  0  0  0  0  0  0
   -5.2070    0.5180  -21.7710 C   0  0  0  0  0  0  0  0  0  0  0  0
   -5.5500    0.0800  -20.4610 C   0  0  0  0  0  0  0  0  0  0  0  0
   -5.7680    0.1440  -22.6200 H   0  0  0  0  0  0  0  0  0  0  0  0
   -4.0130    1.8440  -22.9500 H   0  0  0  0  0  0  0  0  0  0  0  0
   -2.5520    2.5170  -21.0450 H   0  0  0  0  0  0  0  0  0  0  0  0
   -3.0840    1.7200  -18.7500 H   0  0  0  0  0  0  0  0  0  0  0  0
   -4.6300    0.5900  -17.2010 H   0  0  0  0  0  0  0  0  0  0  0  0
   -7.7500   -1.7080  -18.5880 H   0  0  0  0  0  0  0  0  0  0  0  0
   -7.9910   -2.2950  -20.8880 H   0  0  0  0  0  0  0  0  0  0  0  0
   -6.8790   -1.7370  -22.1270 H   0  0  0  0  0  0  0  0  0  0  0  0
   -9.8380   -2.2910  -22.9000 C   0  0  1  0  0  0  0  0  0  0  0  0
  -10.6310   -3.2070  -21.9660 C   0  0  0  0  0  0  0  0  0  0  0  0
  -10.8400   -4.1570  -22.4670 H   0  0  0  0  0  0  0  0  0  0  0  0
  -10.0740   -3.4210  -21.0490 H   0  0  0  0  0  0  0  0  0  0  0  0
  -11.5920   -2.7810  -21.6690 H   0  0  0  0  0  0  0  0  0  0  0  0
  -10.4440   -2.2110  -24.3160 C   0  0  0  0  0  0  0  0  0  0  0  0
   -9.6410   -1.8780  -24.9810 H   0  0  0  0  0  0  0  0  0  0  0  0
  -10.7260   -3.2240  -24.6310 H   0  0  0  0  0  0  0  0  0  0  0  0
   -8.8420   -2.7380  -23.0090 H   0  0  0  0  0  0  0  0  0  0  0  0
  -11.6460   -0.5780  -21.9030 H   0  0  0  0  0  0  0  0  0  0  0  0
  -10.5850    0.8460  -21.9520 H   0  0  0  0  0  0  0  0  0  0  0  0
  -12.1870    0.7600  -23.8740 H   0  0  0  0  0  0  0  0  0  0  0  0
  -10.5460    0.6200  -24.4690 H   0  0  0  0  0  0  0  0  0  0  0  0
  -11.7430   -1.1170  -25.5980 H   0  0  0  0  0  0  0  0  0  0  0  0
  -13.0710   -1.9030  -22.9530 H   0  0  0  0  0  0  0  0  0  0  0  0
  -13.8150   -1.1760  -24.3650 H   0  0  0  0  0  0  0  0  0  0  0  0
  -13.1560   -2.8110  -24.4590 H   0  0  0  0  0  0  0  0  0  0  0  0
  1  2  1  0  0  0  0
  1 41  1  0  0  0  0
  1 42  1  0  0  0  0
  1 43  1  0  0  0  0
  2  3  1  0  0  0  0
  2 32  1  0  0  0  0
  2 40  1  6  0  0  0
  3  4  1  0  0  0  0
  3 38  1  0  0  0  0
  3 39  1  0  0  0  0
  4  5  1  0  0  0  0
  4 36  1  0  0  0  0
  4 37  1  0  0  0  0
  5  6  1  0  0  0  0
  5 27  1  0  0  0  0
  6  7  2  0  0  0  0
  6  8  1  0  0  0  0
  8  9  1  0  0  0  0
  8 25  1  0  0  0  0
  8 26  1  0  0  0  0
  9 10  2  0  0  0  0
  9 18  1  0  0  0  0
 10 11  1  0  0  0  0
 10 24  1  0  0  0  0
 11 12  2  0  0  0  0
 12 13  1  0  0  0  0
 12 23  1  0  0  0  0
 13 14  2  0  0  0  0
 13 18  1  0  0  0  0
 14 15  1  0  0  0  0
 14 22  1  0  0  0  0
 15 16  2  0  0  0  0
 15 21  1  0  0  0  0
 16 17  1  0  0  0  0
 16 20  1  0  0  0  0
 17 18  2  0  0  0  0
 17 19  1  0  0  0  0
 27 28  1  0  0  0  0
 27 32  1  0  0  0  0
 27 35  1  6  0  0  0
 28 29  1  0  0  0  0
 28 30  1  0  0  0  0
 28 31  1  0  0  0  0
 32 33  1  0  0  0  0
 32 34  1  0  0  0  0
M  END
>  <MODEL>
       1

$$$$
