tmp_first_model_13_54.pdb
 OpenBabel08282500103D

 40 43  0  0  0  0  0  0  0  0999 V2000
  -10.3230   -2.3060  -23.0020 C   0  0  0  0  0  0  0  0  0  0  0  0
   -8.9830   -2.1730  -22.4690 N   0  0  0  0  0  0  0  0  0  0  0  0
   -7.7940   -2.6480  -22.9380 C   0  0  0  0  0  0  0  0  0  0  0  0
   -7.6690   -3.3470  -24.2490 C   0  0  0  0  0  0  0  0  0  0  0  0
   -7.6790   -2.3460  -25.3960 C   0  0  0  0  0  0  0  0  0  0  0  0
   -8.8040   -2.1590  -26.1990 C   0  0  0  0  0  0  0  0  0  0  0  0
   -8.7960   -1.2240  -27.2340 C   0  0  0  0  0  0  0  0  0  0  0  0
   -7.6610   -0.4520  -27.4640 C   0  0  0  0  0  0  0  0  0  0  0  0
   -6.5400   -0.6140  -26.6520 C   0  0  0  0  0  0  0  0  0  0  0  0
   -6.5570   -1.5520  -25.6230 C   0  0  0  0  0  0  0  0  0  0  0  0
   -5.6920   -1.6770  -24.9730 H   0  0  0  0  0  0  0  0  0  0  0  0
   -5.6500   -0.0130  -26.8230 H   0  0  0  0  0  0  0  0  0  0  0  0
   -7.6490    0.2770  -28.2720 H   0  0  0  0  0  0  0  0  0  0  0  0
   -9.6710   -1.1030  -27.8690 H   0  0  0  0  0  0  0  0  0  0  0  0
   -9.7000   -2.7500  -26.0070 H   0  0  0  0  0  0  0  0  0  0  0  0
   -6.7330   -3.9150  -24.2430 H   0  0  0  0  0  0  0  0  0  0  0  0
   -8.4910   -4.0610  -24.3790 H   0  0  0  0  0  0  0  0  0  0  0  0
   -6.7920   -2.2480  -22.2080 N   0  0  0  0  0  0  0  0  0  0  0  0
   -7.3440   -1.4590  -21.2330 N   0  0  0  0  0  0  0  0  0  0  0  0
   -6.5720   -0.8660  -20.1970 C   0  0  0  0  0  0  0  0  0  0  0  0
   -6.8960   -1.0710  -18.8770 C   0  0  0  0  0  0  0  0  0  0  0  0
   -6.2050   -0.5480  -17.8390 N   0  0  0  0  0  0  0  0  0  0  0  0
   -5.1710    0.2060  -18.1010 C   0  0  0  0  0  0  0  0  0  0  0  0
   -4.7340    0.5180  -19.4140 C   0  0  0  0  0  0  0  0  0  0  0  0
   -3.6090    1.3600  -19.6360 C   0  0  0  0  0  0  0  0  0  0  0  0
   -3.2230    1.6720  -20.9080 C   0  0  0  0  0  0  0  0  0  0  0  0
   -3.9580    1.1640  -22.0060 C   0  0  0  0  0  0  0  0  0  0  0  0
   -5.0450    0.3490  -21.8150 C   0  0  0  0  0  0  0  0  0  0  0  0
   -5.4550   -0.0230  -20.5050 C   0  0  0  0  0  0  0  0  0  0  0  0
   -5.6070   -0.0410  -22.6560 H   0  0  0  0  0  0  0  0  0  0  0  0
   -3.6510    1.4190  -23.0150 H   0  0  0  0  0  0  0  0  0  0  0  0
   -2.3670    2.3180  -21.0840 H   0  0  0  0  0  0  0  0  0  0  0  0
   -3.0800    1.7520  -18.7710 H   0  0  0  0  0  0  0  0  0  0  0  0
   -4.6260    0.6110  -17.2480 H   0  0  0  0  0  0  0  0  0  0  0  0
   -7.7540   -1.6770  -18.6020 H   0  0  0  0  0  0  0  0  0  0  0  0
   -8.6970   -1.2630  -21.4570 C   0  0  0  0  0  0  0  0  0  0  0  0
   -9.4340   -0.4340  -20.9740 O   0  0  0  0  0  0  0  0  0  0  0  0
  -10.4950   -1.5480  -23.7700 H   0  0  0  0  0  0  0  0  0  0  0  0
  -10.5080   -3.3090  -23.4010 H   0  0  0  0  0  0  0  0  0  0  0  0
  -10.9980   -2.1140  -22.1690 H   0  0  0  0  0  0  0  0  0  0  0  0
  1  2  1  0  0  0  0
  1 38  1  0  0  0  0
  1 39  1  0  0  0  0
  1 40  1  0  0  0  0
  2  3  1  0  0  0  0
  2 36  1  0  0  0  0
  3  4  1  0  0  0  0
  3 18  2  0  0  0  0
  4  5  1  0  0  0  0
  4 16  1  0  0  0  0
  4 17  1  0  0  0  0
  5  6  2  0  0  0  0
  5 10  1  0  0  0  0
  6  7  1  0  0  0  0
  6 15  1  0  0  0  0
  7  8  2  0  0  0  0
  7 14  1  0  0  0  0
  8  9  1  0  0  0  0
  8 13  1  0  0  0  0
  9 10  2  0  0  0  0
  9 12  1  0  0  0  0
 10 11  1  0  0  0  0
 18 19  1  0  0  0  0
 19 20  1  0  0  0  0
 19 36  1  0  0  0  0
 20 21  2  0  0  0  0
 20 29  1  0  0  0  0
 21 22  1  0  0  0  0
 21 35  1  0  0  0  0
 22 23  2  0  0  0  0
 23 24  1  0  0  0  0
 23 34  1  0  0  0  0
 24 25  2  0  0  0  0
 24 29  1  0  0  0  0
 25 26  1  0  0  0  0
 25 33  1  0  0  0  0
 26 27  2  0  0  0  0
 26 32  1  0  0  0  0
 27 28  1  0  0  0  0
 27 31  1  0  0  0  0
 28 29  2  0  0  0  0
 28 30  1  0  0  0  0
 36 37  2  0  0  0  0
M  END
>  <MODEL>
       1

$$$$
