tmp_first_model_14_69.pdb
 OpenBabel08282500413D

 63 67  0  0  0  0  0  0  0  0999 V2000
   -3.5370    3.0430  -26.2690 C   0  0  0  0  0  0  0  0  0  0  0  0
   -4.3590    2.0230  -26.0300 C   0  0  0  0  0  0  0  0  0  0  0  0
   -4.8580    1.1320  -27.1230 C   0  0  0  0  0  0  0  0  0  0  0  0
   -4.6720    1.3780  -28.2990 O   0  0  0  0  0  0  0  0  0  0  0  0
   -5.6440    0.0330  -26.7240 N   0  0  0  0  0  0  0  0  0  0  0  0
   -6.9580   -0.0450  -27.3640 C   0  0  0  0  0  0  0  0  0  0  0  0
   -7.6480   -1.3690  -27.0830 C   0  0  0  0  0  0  0  0  0  0  0  0
   -7.6300   -1.6630  -25.5860 C   0  0  0  0  0  0  0  0  0  0  0  0
   -6.2130   -1.6490  -25.0540 C   0  0  0  0  0  0  0  0  0  0  0  0
   -5.2520   -0.8410  -25.6950 C   0  0  0  0  0  0  0  0  0  0  0  0
   -3.8970   -0.9460  -25.3410 C   0  0  0  0  0  0  0  0  0  0  0  0
   -3.5090   -1.7940  -24.3190 C   0  0  0  0  0  0  0  0  0  0  0  0
   -4.4620   -2.5190  -23.6080 C   0  0  0  0  0  0  0  0  0  0  0  0
   -5.7950   -2.3990  -23.9570 C   0  0  0  0  0  0  0  0  0  0  0  0
   -6.8350   -3.1870  -23.0630 N   0  3  0  0  0  0  0  0  0  0  0  0
   -6.7000   -4.7090  -23.2750 C   0  0  0  0  0  0  0  0  0  0  0  0
   -7.0280   -5.0860  -24.6950 C   0  0  0  0  0  0  0  0  0  0  0  0
   -8.3410   -5.3830  -25.0650 C   0  0  0  0  0  0  0  0  0  0  0  0
   -8.6630   -5.6940  -26.3820 C   0  0  0  0  0  0  0  0  0  0  0  0
   -7.6760   -5.7240  -27.3630 C   0  0  0  0  0  0  0  0  0  0  0  0
   -6.3680   -5.4330  -26.9900 C   0  0  0  0  0  0  0  0  0  0  0  0
   -5.1220   -5.4510  -28.2110 Cl  0  0  0  0  0  0  0  0  0  0  0  0
   -6.0340   -5.1250  -25.6770 C   0  0  0  0  0  0  0  0  0  0  0  0
   -5.0050   -4.8820  -25.4200 H   0  0  0  0  0  0  0  0  0  0  0  0
   -7.9090   -5.9690  -28.3960 H   0  0  0  0  0  0  0  0  0  0  0  0
   -9.6910   -5.9250  -26.6470 H   0  0  0  0  0  0  0  0  0  0  0  0
   -9.1200   -5.3510  -24.3070 H   0  0  0  0  0  0  0  0  0  0  0  0
   -7.3500   -5.2260  -22.5650 H   0  0  0  0  0  0  0  0  0  0  0  0
   -5.6710   -4.9770  -23.0370 H   0  0  0  0  0  0  0  0  0  0  0  0
   -6.7240   -2.8330  -21.6510 C   0  0  0  0  0  0  0  0  0  0  0  0
   -6.0990   -3.5470  -20.9040 O   0  0  0  0  0  0  0  0  0  0  0  0
   -7.3820   -1.5100  -21.2350 C   0  0  0  0  0  0  0  0  0  0  0  0
   -6.5830   -0.8040  -20.1730 C   0  0  0  0  0  0  0  0  0  0  0  0
   -6.8790   -1.0180  -18.8530 C   0  0  0  0  0  0  0  0  0  0  0  0
   -6.2000   -0.4960  -17.8040 N   0  0  0  0  0  0  0  0  0  0  0  0
   -5.1540    0.2400  -18.0730 C   0  0  0  0  0  0  0  0  0  0  0  0
   -4.7150    0.5390  -19.3900 C   0  0  0  0  0  0  0  0  0  0  0  0
   -3.5800    1.3520  -19.6250 C   0  0  0  0  0  0  0  0  0  0  0  0
   -3.1860    1.6350  -20.9040 C   0  0  0  0  0  0  0  0  0  0  0  0
   -3.9170    1.1120  -21.9970 C   0  0  0  0  0  0  0  0  0  0  0  0
   -5.0250    0.3250  -21.7950 C   0  0  0  0  0  0  0  0  0  0  0  0
   -5.4530    0.0140  -20.4770 C   0  0  0  0  0  0  0  0  0  0  0  0
   -5.5770   -0.0740  -22.6430 H   0  0  0  0  0  0  0  0  0  0  0  0
   -3.6020    1.3490  -23.0100 H   0  0  0  0  0  0  0  0  0  0  0  0
   -2.3260    2.2730  -21.0780 H   0  0  0  0  0  0  0  0  0  0  0  0
   -3.0550    1.7600  -18.7670 H   0  0  0  0  0  0  0  0  0  0  0  0
   -4.6010    0.6340  -17.2220 H   0  0  0  0  0  0  0  0  0  0  0  0
   -7.7150   -1.6620  -18.5810 H   0  0  0  0  0  0  0  0  0  0  0  0
   -8.3780   -1.7480  -20.8290 H   0  0  0  0  0  0  0  0  0  0  0  0
   -7.5500   -0.8740  -22.1110 H   0  0  0  0  0  0  0  0  0  0  0  0
   -7.7370   -2.8540  -23.4490 H   0  0  0  0  0  0  0  0  0  0  0  0
   -4.2070   -3.1370  -22.7550 H   0  0  0  0  0  0  0  0  0  0  0  0
   -2.4580   -1.8510  -24.0560 H   0  0  0  0  0  0  0  0  0  0  0  0
   -3.1390   -0.3840  -25.8810 H   0  0  0  0  0  0  0  0  0  0  0  0
   -8.1120   -2.6270  -25.3940 H   0  0  0  0  0  0  0  0  0  0  0  0
   -8.2230   -0.9120  -25.0450 H   0  0  0  0  0  0  0  0  0  0  0  0
   -7.1530   -2.1830  -27.6290 H   0  0  0  0  0  0  0  0  0  0  0  0
   -8.6780   -1.3140  -27.4550 H   0  0  0  0  0  0  0  0  0  0  0  0
   -6.8100    0.1160  -28.4380 H   0  0  0  0  0  0  0  0  0  0  0  0
   -7.5920    0.7800  -26.9990 H   0  0  0  0  0  0  0  0  0  0  0  0
   -4.7580    1.8310  -25.0340 H   0  0  0  0  0  0  0  0  0  0  0  0
   -3.2200    3.7190  -25.4780 H   0  0  0  0  0  0  0  0  0  0  0  0
   -3.1650    3.2540  -27.2680 H   0  0  0  0  0  0  0  0  0  0  0  0
  1  2  2  0  0  0  0
  1 62  1  0  0  0  0
  1 63  1  0  0  0  0
  2  3  1  0  0  0  0
  2 61  1  0  0  0  0
  3  4  2  0  0  0  0
  3  5  1  0  0  0  0
  5  6  1  0  0  0  0
  5 10  1  0  0  0  0
  6  7  1  0  0  0  0
  6 59  1  0  0  0  0
  6 60  1  0  0  0  0
  7  8  1  0  0  0  0
  7 57  1  0  0  0  0
  7 58  1  0  0  0  0
  8  9  1  0  0  0  0
  8 55  1  0  0  0  0
  8 56  1  0  0  0  0
  9 10  2  0  0  0  0
  9 14  1  0  0  0  0
 10 11  1  0  0  0  0
 11 12  2  0  0  0  0
 11 54  1  0  0  0  0
 12 13  1  0  0  0  0
 12 53  1  0  0  0  0
 13 14  2  0  0  0  0
 13 52  1  0  0  0  0
 14 15  1  0  0  0  0
 15 16  1  0  0  0  0
 15 30  1  0  0  0  0
 15 51  1  0  0  0  0
 16 17  1  0  0  0  0
 16 28  1  0  0  0  0
 16 29  1  0  0  0  0
 17 18  2  0  0  0  0
 17 23  1  0  0  0  0
 18 19  1  0  0  0  0
 18 27  1  0  0  0  0
 19 20  2  0  0  0  0
 19 26  1  0  0  0  0
 20 21  1  0  0  0  0
 20 25  1  0  0  0  0
 21 22  1  0  0  0  0
 21 23  2  0  0  0  0
 23 24  1  0  0  0  0
 30 31  2  0  0  0  0
 30 32  1  0  0  0  0
 32 33  1  0  0  0  0
 32 49  1  0  0  0  0
 32 50  1  0  0  0  0
 33 34  2  0  0  0  0
 33 42  1  0  0  0  0
 34 35  1  0  0  0  0
 34 48  1  0  0  0  0
 35 36  2  0  0  0  0
 36 37  1  0  0  0  0
 36 47  1  0  0  0  0
 37 38  2  0  0  0  0
 37 42  1  0  0  0  0
 38 39  1  0  0  0  0
 38 46  1  0  0  0  0
 39 40  2  0  0  0  0
 39 45  1  0  0  0  0
 40 41  1  0  0  0  0
 40 44  1  0  0  0  0
 41 42  2  0  0  0  0
 41 43  1  0  0  0  0
M  CHG  1  15   1
M  END
>  <MODEL>
       1

$$$$
