tmp_first_model_3_70.pdb
 OpenBabel08272518143D

 52 54  0  0  0  0  0  0  0  0999 V2000
   -6.3720   -6.8980  -26.9830 C   0  0  0  0  0  0  0  0  0  0  0  0
   -5.9400   -5.7180  -26.1090 C   0  0  0  0  0  0  0  0  0  0  0  0
   -4.7390   -5.0150  -26.7460 C   0  0  0  0  0  0  0  0  0  0  0  0
   -4.3640   -4.1980  -26.1210 H   0  0  0  0  0  0  0  0  0  0  0  0
   -3.9080   -5.7130  -26.9010 H   0  0  0  0  0  0  0  0  0  0  0  0
   -4.9940   -4.5990  -27.7270 H   0  0  0  0  0  0  0  0  0  0  0  0
   -7.0560   -4.6950  -25.8280 C   0  0  0  0  0  0  0  0  0  0  0  0
   -8.3070   -5.0860  -24.9870 C   0  0  0  0  0  0  0  0  0  0  0  0
   -9.2720   -5.9590  -25.8030 C   0  0  0  0  0  0  0  0  0  0  0  0
   -9.5080   -5.4990  -26.7700 H   0  0  0  0  0  0  0  0  0  0  0  0
   -8.8820   -6.9620  -26.0010 H   0  0  0  0  0  0  0  0  0  0  0  0
  -10.2200   -6.0960  -25.2690 H   0  0  0  0  0  0  0  0  0  0  0  0
   -9.0490   -3.7800  -24.5720 C   0  0  0  0  0  0  0  0  0  0  0  0
   -8.8680   -3.3500  -23.1070 C   0  0  0  0  0  0  0  0  0  0  0  0
   -7.5310   -3.6140  -22.6020 N   0  0  0  0  0  0  0  0  0  0  0  0
   -6.7710   -2.7610  -21.8400 C   0  0  0  0  0  0  0  0  0  0  0  0
   -5.6000   -3.0100  -21.5990 O   0  0  0  0  0  0  0  0  0  0  0  0
   -7.4210   -1.4770  -21.2630 C   0  0  0  0  0  0  0  0  0  0  0  0
   -6.5800   -0.8300  -20.1820 C   0  0  0  0  0  0  0  0  0  0  0  0
   -6.8730   -1.0440  -18.8590 C   0  0  0  0  0  0  0  0  0  0  0  0
   -6.1910   -0.5400  -17.7960 N   0  0  0  0  0  0  0  0  0  0  0  0
   -5.1580    0.2240  -18.0640 C   0  0  0  0  0  0  0  0  0  0  0  0
   -4.7210    0.5300  -19.3820 C   0  0  0  0  0  0  0  0  0  0  0  0
   -3.5910    1.3570  -19.6210 C   0  0  0  0  0  0  0  0  0  0  0  0
   -3.1890    1.6330  -20.9010 C   0  0  0  0  0  0  0  0  0  0  0  0
   -3.9000    1.0890  -21.9930 C   0  0  0  0  0  0  0  0  0  0  0  0
   -4.9980    0.2880  -21.7870 C   0  0  0  0  0  0  0  0  0  0  0  0
   -5.4440   -0.0120  -20.4730 C   0  0  0  0  0  0  0  0  0  0  0  0
   -5.5230   -0.1340  -22.6370 H   0  0  0  0  0  0  0  0  0  0  0  0
   -3.5730    1.3110  -23.0040 H   0  0  0  0  0  0  0  0  0  0  0  0
   -2.3280    2.2700  -21.0850 H   0  0  0  0  0  0  0  0  0  0  0  0
   -3.0550    1.7760  -18.7710 H   0  0  0  0  0  0  0  0  0  0  0  0
   -4.6010    0.6290  -17.2170 H   0  0  0  0  0  0  0  0  0  0  0  0
   -7.7200   -1.6700  -18.5860 H   0  0  0  0  0  0  0  0  0  0  0  0
   -8.4070   -1.7220  -20.8430 H   0  0  0  0  0  0  0  0  0  0  0  0
   -7.6030   -0.7580  -22.0730 H   0  0  0  0  0  0  0  0  0  0  0  0
   -7.0270   -4.9790  -22.7850 C   0  0  0  0  0  0  0  0  0  0  0  0
   -7.9140   -5.8190  -23.7020 C   0  0  0  0  0  0  0  0  0  0  0  0
   -7.4030   -6.7570  -23.9440 H   0  0  0  0  0  0  0  0  0  0  0  0
   -8.8170   -6.1380  -23.1660 H   0  0  0  0  0  0  0  0  0  0  0  0
   -6.9480   -5.4750  -21.8170 H   0  0  0  0  0  0  0  0  0  0  0  0
   -6.0040   -4.9410  -23.1710 H   0  0  0  0  0  0  0  0  0  0  0  0
   -9.0770   -2.2830  -23.0310 H   0  0  0  0  0  0  0  0  0  0  0  0
   -9.6210   -3.8570  -22.4870 H   0  0  0  0  0  0  0  0  0  0  0  0
  -10.1250   -3.8890  -24.7270 H   0  0  0  0  0  0  0  0  0  0  0  0
   -8.7540   -2.9610  -25.2350 H   0  0  0  0  0  0  0  0  0  0  0  0
   -7.4100   -4.3110  -26.7960 H   0  0  0  0  0  0  0  0  0  0  0  0
   -6.5920   -3.8250  -25.3440 H   0  0  0  0  0  0  0  0  0  0  0  0
   -5.5900   -6.1220  -25.1540 H   0  0  0  0  0  0  0  0  0  0  0  0
   -5.5100   -7.3790  -27.4580 H   0  0  0  0  0  0  0  0  0  0  0  0
   -7.0390   -6.5750  -27.7880 H   0  0  0  0  0  0  0  0  0  0  0  0
   -6.8940   -7.6730  -26.4150 H   0  0  0  0  0  0  0  0  0  0  0  0
  1  2  1  0  0  0  0
  1 50  1  0  0  0  0
  1 51  1  0  0  0  0
  1 52  1  0  0  0  0
  2  3  1  0  0  0  0
  2  7  1  0  0  0  0
  2 49  1  0  0  0  0
  3  4  1  0  0  0  0
  3  5  1  0  0  0  0
  3  6  1  0  0  0  0
  7  8  1  0  0  0  0
  7 47  1  0  0  0  0
  7 48  1  0  0  0  0
  8  9  1  0  0  0  0
  8 13  1  0  0  0  0
  8 38  1  0  0  0  0
  9 10  1  0  0  0  0
  9 11  1  0  0  0  0
  9 12  1  0  0  0  0
 13 14  1  0  0  0  0
 13 45  1  0  0  0  0
 13 46  1  0  0  0  0
 14 15  1  0  0  0  0
 14 43  1  0  0  0  0
 14 44  1  0  0  0  0
 15 16  1  0  0  0  0
 15 37  1  0  0  0  0
 16 17  2  0  0  0  0
 16 18  1  0  0  0  0
 18 19  1  0  0  0  0
 18 35  1  0  0  0  0
 18 36  1  0  0  0  0
 19 20  2  0  0  0  0
 19 28  1  0  0  0  0
 20 21  1  0  0  0  0
 20 34  1  0  0  0  0
 21 22  2  0  0  0  0
 22 23  1  0  0  0  0
 22 33  1  0  0  0  0
 23 24  2  0  0  0  0
 23 28  1  0  0  0  0
 24 25  1  0  0  0  0
 24 32  1  0  0  0  0
 25 26  2  0  0  0  0
 25 31  1  0  0  0  0
 26 27  1  0  0  0  0
 26 30  1  0  0  0  0
 27 28  2  0  0  0  0
 27 29  1  0  0  0  0
 37 38  1  0  0  0  0
 37 41  1  0  0  0  0
 37 42  1  0  0  0  0
 38 39  1  0  0  0  0
 38 40  1  0  0  0  0
M  END
>  <MODEL>
       1

$$$$
