tmp_first_model_11_60.pdb
 OpenBabel08272522543D

 62 67  0  0  1  0  0  0  0  0999 V2000
  -14.7030   -3.6830  -24.4270 C   0  0  0  0  0  0  0  0  0  0  0  0
  -13.8860   -2.4760  -23.9740 C   0  0  0  0  0  0  0  0  0  0  0  0
  -13.9640   -2.2040  -22.5530 N   0  0  0  0  0  0  0  0  0  0  0  0
  -14.9460   -1.3840  -22.1640 N   0  0  0  0  0  0  0  0  0  0  0  0
  -14.9680   -1.4700  -20.8420 C   0  0  0  0  0  0  0  0  0  0  0  0
  -13.9680   -2.3430  -20.3710 C   0  0  0  0  0  0  0  0  0  0  0  0
  -13.3090   -2.7760  -21.5050 C   0  0  0  0  0  0  0  0  0  0  0  0
  -12.2940   -3.8580  -21.7070 C   0  0  0  0  0  0  0  0  0  0  0  0
  -11.0770   -3.5820  -22.4840 N   0  0  0  0  0  0  0  0  0  0  0  0
   -9.9170   -3.2260  -21.6590 C   0  0  0  0  0  0  0  0  0  0  0  0
   -8.7040   -2.7610  -22.4830 C   0  0  2  0  0  0  0  0  0  0  0  0
   -7.5440   -2.6280  -21.4790 C   0  0  0  0  0  0  0  0  0  0  0  0
   -6.9340   -3.5350  -20.9450 O   0  0  0  0  0  0  0  0  0  0  0  0
   -7.3070   -1.2920  -21.2550 N   0  0  0  0  0  0  0  0  0  0  0  0
   -6.5090   -0.8420  -20.1790 C   0  0  0  0  0  0  0  0  0  0  0  0
   -6.8280   -1.1250  -18.8760 C   0  0  0  0  0  0  0  0  0  0  0  0
   -6.1920   -0.5800  -17.8070 N   0  0  0  0  0  0  0  0  0  0  0  0
   -5.1900    0.2340  -18.0480 C   0  0  0  0  0  0  0  0  0  0  0  0
   -4.7170    0.5570  -19.3530 C   0  0  0  0  0  0  0  0  0  0  0  0
   -3.6010    1.4040  -19.5780 C   0  0  0  0  0  0  0  0  0  0  0  0
   -3.1820    1.6750  -20.8540 C   0  0  0  0  0  0  0  0  0  0  0  0
   -3.8550    1.1140  -21.9630 C   0  0  0  0  0  0  0  0  0  0  0  0
   -4.9380    0.2960  -21.7710 C   0  0  0  0  0  0  0  0  0  0  0  0
   -5.3950    0.0050  -20.4580 C   0  0  0  0  0  0  0  0  0  0  0  0
   -5.4530   -0.1480  -22.6160 H   0  0  0  0  0  0  0  0  0  0  0  0
   -3.5180    1.3400  -22.9710 H   0  0  0  0  0  0  0  0  0  0  0  0
   -2.3310    2.3270  -21.0230 H   0  0  0  0  0  0  0  0  0  0  0  0
   -3.0980    1.8410  -18.7210 H   0  0  0  0  0  0  0  0  0  0  0  0
   -4.6920    0.6750  -17.1840 H   0  0  0  0  0  0  0  0  0  0  0  0
   -7.6430   -1.8090  -18.6460 H   0  0  0  0  0  0  0  0  0  0  0  0
   -8.2760   -0.4290  -21.9080 C   0  0  0  0  0  0  0  0  0  0  0  0
   -8.8140   -1.3020  -23.0490 C   0  0  2  0  0  0  0  0  0  0  0  0
  -10.1850   -0.8430  -23.5360 C   0  0  0  0  0  0  0  0  0  0  0  0
  -10.1480    0.2110  -23.8400 H   0  0  0  0  0  0  0  0  0  0  0  0
  -10.5210   -1.4330  -24.3950 H   0  0  0  0  0  0  0  0  0  0  0  0
  -10.9290   -0.9410  -22.7380 H   0  0  0  0  0  0  0  0  0  0  0  0
   -8.1020   -1.2530  -23.8860 H   0  0  0  0  0  0  0  0  0  0  0  0
   -7.8040    0.4960  -22.2550 H   0  0  0  0  0  0  0  0  0  0  0  0
   -9.0830   -0.1450  -21.2120 H   0  0  0  0  0  0  0  0  0  0  0  0
   -8.4270   -3.8210  -23.5220 C   0  0  0  0  0  0  0  0  0  0  0  0
   -7.1280   -4.0270  -23.9980 C   0  0  0  0  0  0  0  0  0  0  0  0
   -6.8870   -5.0310  -24.9110 C   0  0  0  0  0  0  0  0  0  0  0  0
   -5.6270   -5.2520  -25.3200 F   0  0  0  0  0  0  0  0  0  0  0  0
   -7.9000   -5.8470  -25.4040 C   0  0  0  0  0  0  0  0  0  0  0  0
   -9.1900   -5.6260  -24.9550 C   0  0  0  0  0  0  0  0  0  0  0  0
   -9.4570   -4.6250  -24.0210 C   0  0  0  0  0  0  0  0  0  0  0  0
  -10.8640   -4.4480  -23.5540 C   0  0  0  0  0  0  0  0  0  0  0  0
  -11.7800   -5.0490  -24.1030 O   0  0  0  0  0  0  0  0  0  0  0  0
  -10.0180   -6.2330  -25.3090 H   0  0  0  0  0  0  0  0  0  0  0  0
   -7.6610   -6.6290  -26.1140 H   0  0  0  0  0  0  0  0  0  0  0  0
   -6.3000   -3.4350  -23.6250 H   0  0  0  0  0  0  0  0  0  0  0  0
  -10.2080   -2.4390  -20.9550 H   0  0  0  0  0  0  0  0  0  0  0  0
   -9.5730   -4.0930  -21.0710 H   0  0  0  0  0  0  0  0  0  0  0  0
  -12.0140   -4.2520  -20.7200 H   0  0  0  0  0  0  0  0  0  0  0  0
  -12.8250   -4.6250  -22.2720 H   0  0  0  0  0  0  0  0  0  0  0  0
  -13.7270   -2.5730  -19.3450 H   0  0  0  0  0  0  0  0  0  0  0  0
  -15.7310   -0.9230  -20.2990 H   0  0  0  0  0  0  0  0  0  0  0  0
  -12.8370   -2.5920  -24.2510 H   0  0  0  0  0  0  0  0  0  0  0  0
  -14.2540   -1.5490  -24.4110 H   0  0  0  0  0  0  0  0  0  0  0  0
  -14.9620   -3.5730  -25.4800 H   0  0  0  0  0  0  0  0  0  0  0  0
  -15.6280   -3.8070  -23.8570 H   0  0  0  0  0  0  0  0  0  0  0  0
  -14.1100   -4.5900  -24.3200 H   0  0  0  0  0  0  0  0  0  0  0  0
  1  2  1  0  0  0  0
  1 60  1  0  0  0  0
  1 61  1  0  0  0  0
  1 62  1  0  0  0  0
  2  3  1  0  0  0  0
  2 58  1  0  0  0  0
  2 59  1  0  0  0  0
  3  4  1  0  0  0  0
  3  7  1  0  0  0  0
  4  5  2  0  0  0  0
  5  6  1  0  0  0  0
  5 57  1  0  0  0  0
  6  7  2  0  0  0  0
  6 56  1  0  0  0  0
  7  8  1  0  0  0  0
  8  9  1  0  0  0  0
  8 54  1  0  0  0  0
  8 55  1  0  0  0  0
  9 10  1  0  0  0  0
  9 47  1  0  0  0  0
 10 11  1  0  0  0  0
 10 52  1  0  0  0  0
 10 53  1  0  0  0  0
 11 12  1  1  0  0  0
 11 32  1  0  0  0  0
 11 40  1  0  0  0  0
 12 13  2  0  0  0  0
 12 14  1  0  0  0  0
 14 15  1  0  0  0  0
 14 31  1  0  0  0  0
 15 16  2  0  0  0  0
 15 24  1  0  0  0  0
 16 17  1  0  0  0  0
 16 30  1  0  0  0  0
 17 18  2  0  0  0  0
 18 19  1  0  0  0  0
 18 29  1  0  0  0  0
 19 20  2  0  0  0  0
 19 24  1  0  0  0  0
 20 21  1  0  0  0  0
 20 28  1  0  0  0  0
 21 22  2  0  0  0  0
 21 27  1  0  0  0  0
 22 23  1  0  0  0  0
 22 26  1  0  0  0  0
 23 24  2  0  0  0  0
 23 25  1  0  0  0  0
 31 32  1  0  0  0  0
 31 38  1  0  0  0  0
 31 39  1  0  0  0  0
 32 33  1  0  0  0  0
 32 37  1  6  0  0  0
 33 34  1  0  0  0  0
 33 35  1  0  0  0  0
 33 36  1  0  0  0  0
 40 41  2  0  0  0  0
 40 46  1  0  0  0  0
 41 42  1  0  0  0  0
 41 51  1  0  0  0  0
 42 43  1  0  0  0  0
 42 44  2  0  0  0  0
 44 45  1  0  0  0  0
 44 50  1  0  0  0  0
 45 46  2  0  0  0  0
 45 49  1  0  0  0  0
 46 47  1  0  0  0  0
 47 48  2  0  0  0  0
M  END
>  <MODEL>
       1

$$$$
