tmp_first_model_1_4.pdb
 OpenBabel08272517043D

 59 64  0  0  1  0  0  0  0  0999 V2000
  -10.2070   -2.9660  -22.0740 C   0  0  0  0  0  0  0  0  0  0  0  0
   -9.1450   -2.0150  -22.6380 C   0  0  1  0  0  0  0  0  0  0  0  0
   -8.6760   -1.0260  -21.5570 C   0  0  0  0  0  0  0  0  0  0  0  0
   -7.3490   -1.4710  -21.2050 N   0  0  0  0  0  0  0  0  0  0  0  0
   -6.5740   -0.8610  -20.1990 C   0  0  0  0  0  0  0  0  0  0  0  0
   -6.9170   -1.0620  -18.8890 C   0  0  0  0  0  0  0  0  0  0  0  0
   -6.2350   -0.5650  -17.8330 N   0  0  0  0  0  0  0  0  0  0  0  0
   -5.1950    0.1900  -18.1000 C   0  0  0  0  0  0  0  0  0  0  0  0
   -4.7510    0.5020  -19.4170 C   0  0  0  0  0  0  0  0  0  0  0  0
   -3.6300    1.3430  -19.6370 C   0  0  0  0  0  0  0  0  0  0  0  0
   -3.2350    1.6530  -20.9080 C   0  0  0  0  0  0  0  0  0  0  0  0
   -3.9470    1.1450  -22.0190 C   0  0  0  0  0  0  0  0  0  0  0  0
   -5.0370    0.3280  -21.8390 C   0  0  0  0  0  0  0  0  0  0  0  0
   -5.4570   -0.0280  -20.5200 C   0  0  0  0  0  0  0  0  0  0  0  0
   -5.5800   -0.0410  -22.7110 H   0  0  0  0  0  0  0  0  0  0  0  0
   -3.6280    1.4140  -23.0220 H   0  0  0  0  0  0  0  0  0  0  0  0
   -2.3820    2.3040  -21.0750 H   0  0  0  0  0  0  0  0  0  0  0  0
   -3.1090    1.7420  -18.7710 H   0  0  0  0  0  0  0  0  0  0  0  0
   -4.6470    0.6050  -17.2540 H   0  0  0  0  0  0  0  0  0  0  0  0
   -7.7780   -1.6900  -18.6600 H   0  0  0  0  0  0  0  0  0  0  0  0
   -6.8260   -2.4300  -22.0320 C   0  0  0  0  0  0  0  0  0  0  0  0
   -5.7460   -2.9610  -21.8670 O   0  0  0  0  0  0  0  0  0  0  0  0
   -7.8390   -2.6790  -23.1650 C   0  0  1  0  0  0  0  0  0  0  0  0
   -7.9780   -4.1870  -23.3970 C   0  0  0  0  0  0  0  0  0  0  0  0
   -6.7700   -4.7300  -23.9960 N   0  0  0  0  0  0  0  0  0  0  0  0
   -6.2110   -5.9270  -23.3830 C   0  0  0  0  0  0  0  0  0  0  0  0
   -7.2550   -7.0130  -23.3950 C   0  0  0  0  0  0  0  0  0  0  0  0
   -7.9260   -7.4980  -22.3690 N   0  0  0  0  0  0  0  0  0  0  0  0
   -8.8990   -8.2900  -22.9390 C   0  0  0  0  0  0  0  0  0  0  0  0
   -8.8130   -8.2620  -24.2930 C   0  0  0  0  0  0  0  0  0  0  0  0
   -7.7520   -7.4590  -24.5850 N   0  0  0  0  0  0  0  0  0  0  0  0
   -7.2460   -7.2500  -25.9260 C   0  0  0  0  0  0  0  0  0  0  0  0
   -7.7530   -7.9630  -26.5780 H   0  0  0  0  0  0  0  0  0  0  0  0
   -7.4670   -6.2460  -26.3010 H   0  0  0  0  0  0  0  0  0  0  0  0
   -6.1710   -7.4380  -25.9400 H   0  0  0  0  0  0  0  0  0  0  0  0
   -9.4130   -8.6950  -25.0730 H   0  0  0  0  0  0  0  0  0  0  0  0
   -9.6370   -8.8400  -22.3800 H   0  0  0  0  0  0  0  0  0  0  0  0
   -5.3120   -6.1940  -23.9520 H   0  0  0  0  0  0  0  0  0  0  0  0
   -5.9080   -5.6640  -22.3620 H   0  0  0  0  0  0  0  0  0  0  0  0
   -6.1900   -4.1810  -25.0950 C   0  0  0  0  0  0  0  0  0  0  0  0
   -5.3680   -4.7780  -25.7830 O   0  0  0  0  0  0  0  0  0  0  0  0
   -6.5960   -2.7760  -25.3840 C   0  0  0  0  0  0  0  0  0  0  0  0
   -6.1400   -2.2140  -26.5710 C   0  0  0  0  0  0  0  0  0  0  0  0
   -6.3810   -0.8890  -26.8550 C   0  0  0  0  0  0  0  0  0  0  0  0
   -7.0820   -0.1510  -25.9120 C   0  0  0  0  0  0  0  0  0  0  0  0
   -7.3090    1.1470  -26.1720 F   0  0  0  0  0  0  0  0  0  0  0  0
   -7.5610   -0.6880  -24.7320 C   0  0  0  0  0  0  0  0  0  0  0  0
   -7.3430   -2.0420  -24.4580 C   0  0  0  0  0  0  0  0  0  0  0  0
   -8.1160   -0.0420  -24.0600 H   0  0  0  0  0  0  0  0  0  0  0  0
   -6.0200   -0.4210  -27.7610 H   0  0  0  0  0  0  0  0  0  0  0  0
   -5.5830   -2.8560  -27.2400 H   0  0  0  0  0  0  0  0  0  0  0  0
   -8.8560   -4.3840  -24.0270 H   0  0  0  0  0  0  0  0  0  0  0  0
   -8.1330   -4.7030  -22.4510 H   0  0  0  0  0  0  0  0  0  0  0  0
   -9.3250   -1.0620  -20.6880 H   0  0  0  0  0  0  0  0  0  0  0  0
   -8.6710    0.0150  -21.9030 H   0  0  0  0  0  0  0  0  0  0  0  0
   -9.6190   -1.4850  -23.4680 H   0  0  0  0  0  0  0  0  0  0  0  0
   -9.8130   -3.5620  -21.2450 H   0  0  0  0  0  0  0  0  0  0  0  0
  -10.5850   -3.6480  -22.8410 H   0  0  0  0  0  0  0  0  0  0  0  0
  -11.0580   -2.3890  -21.7000 H   0  0  0  0  0  0  0  0  0  0  0  0
  1  2  1  0  0  0  0
  1 57  1  0  0  0  0
  1 58  1  0  0  0  0
  1 59  1  0  0  0  0
  2  3  1  0  0  0  0
  2 23  1  0  0  0  0
  2 56  1  6  0  0  0
  3  4  1  0  0  0  0
  3 54  1  0  0  0  0
  3 55  1  0  0  0  0
  4  5  1  0  0  0  0
  4 21  1  0  0  0  0
  5  6  2  0  0  0  0
  5 14  1  0  0  0  0
  6  7  1  0  0  0  0
  6 20  1  0  0  0  0
  7  8  2  0  0  0  0
  8  9  1  0  0  0  0
  8 19  1  0  0  0  0
  9 10  2  0  0  0  0
  9 14  1  0  0  0  0
 10 11  1  0  0  0  0
 10 18  1  0  0  0  0
 11 12  2  0  0  0  0
 11 17  1  0  0  0  0
 12 13  1  0  0  0  0
 12 16  1  0  0  0  0
 13 14  2  0  0  0  0
 13 15  1  0  0  0  0
 21 22  2  0  0  0  0
 23 21  1  1  0  0  0
 23 24  1  0  0  0  0
 23 48  1  0  0  0  0
 24 25  1  0  0  0  0
 24 52  1  0  0  0  0
 24 53  1  0  0  0  0
 25 26  1  0  0  0  0
 25 40  1  0  0  0  0
 26 27  1  0  0  0  0
 26 38  1  0  0  0  0
 26 39  1  0  0  0  0
 27 28  2  0  0  0  0
 27 31  1  0  0  0  0
 28 29  1  0  0  0  0
 29 30  2  0  0  0  0
 29 37  1  0  0  0  0
 30 31  1  0  0  0  0
 30 36  1  0  0  0  0
 31 32  1  0  0  0  0
 32 33  1  0  0  0  0
 32 34  1  0  0  0  0
 32 35  1  0  0  0  0
 40 41  2  0  0  0  0
 40 42  1  0  0  0  0
 42 43  2  0  0  0  0
 42 48  1  0  0  0  0
 43 44  1  0  0  0  0
 43 51  1  0  0  0  0
 44 45  2  0  0  0  0
 44 50  1  0  0  0  0
 45 46  1  0  0  0  0
 45 47  1  0  0  0  0
 47 48  2  0  0  0  0
 47 49  1  0  0  0  0
M  END
>  <MODEL>
       1

$$$$
