tmp_first_model_16_55.pdb
 OpenBabel08282501503D

 61 66  0  0  1  0  0  0  0  0999 V2000
   -9.1550   -4.6280  -25.8180 C   0  0  0  0  0  0  0  0  0  0  0  0
   -9.3310   -4.0090  -24.5680 O   0  0  0  0  0  0  0  0  0  0  0  0
   -8.1100   -3.6520  -23.9730 C   0  0  0  0  0  0  0  0  0  0  0  0
   -8.3850   -2.9250  -22.6680 C   0  0  1  0  0  0  0  0  0  0  0  0
   -7.0750   -2.5130  -21.9850 C   0  0  0  0  0  0  0  0  0  0  0  0
   -7.4330   -1.3160  -21.2560 N   0  0  0  0  0  0  0  0  0  0  0  0
   -6.6310   -0.8210  -20.2060 C   0  0  0  0  0  0  0  0  0  0  0  0
   -6.9300   -1.1190  -18.9020 C   0  0  0  0  0  0  0  0  0  0  0  0
   -6.1440   -0.7890  -17.8500 N   0  0  0  0  0  0  0  0  0  0  0  0
   -5.0790   -0.0660  -18.0990 C   0  0  0  0  0  0  0  0  0  0  0  0
   -4.7020    0.3820  -19.3970 C   0  0  0  0  0  0  0  0  0  0  0  0
   -3.6130    1.2670  -19.6100 C   0  0  0  0  0  0  0  0  0  0  0  0
   -3.2560    1.6230  -20.8810 C   0  0  0  0  0  0  0  0  0  0  0  0
   -3.9500    1.1010  -21.9940 C   0  0  0  0  0  0  0  0  0  0  0  0
   -5.0260    0.2650  -21.8080 C   0  0  0  0  0  0  0  0  0  0  0  0
   -5.4560   -0.0710  -20.4980 C   0  0  0  0  0  0  0  0  0  0  0  0
   -5.5980   -0.0890  -22.6590 H   0  0  0  0  0  0  0  0  0  0  0  0
   -3.6340    1.3870  -22.9940 H   0  0  0  0  0  0  0  0  0  0  0  0
   -2.4230    2.3000  -21.0420 H   0  0  0  0  0  0  0  0  0  0  0  0
   -3.0940    1.6590  -18.7400 H   0  0  0  0  0  0  0  0  0  0  0  0
   -4.4520    0.2120  -17.2510 H   0  0  0  0  0  0  0  0  0  0  0  0
   -7.8440   -1.6600  -18.6680 H   0  0  0  0  0  0  0  0  0  0  0  0
   -8.6710   -0.7970  -21.5660 C   0  0  0  0  0  0  0  0  0  0  0  0
   -9.1840    0.1540  -21.0160 O   0  0  0  0  0  0  0  0  0  0  0  0
   -9.2420   -1.6270  -22.7450 C   0  0  1  0  0  0  0  0  0  0  0  0
   -8.9940   -0.8700  -24.0770 C   0  0  0  0  0  0  0  0  0  0  0  0
   -9.7930    0.3430  -24.1540 N   0  0  0  0  0  0  0  0  0  0  0  0
   -9.1740    1.5690  -24.6390 C   0  0  0  0  0  0  0  0  0  0  0  0
   -8.3060    2.2270  -23.6150 C   0  0  0  0  0  0  0  0  0  0  0  0
   -6.9610    2.2500  -23.4570 C   0  0  0  0  0  0  0  0  0  0  0  0
   -6.6820    3.0650  -22.3780 N   0  3  0  0  0  0  0  0  0  0  0  0
   -7.8390    3.5240  -21.8880 C   0  0  0  0  0  0  0  0  0  0  0  0
   -8.8460    3.0200  -22.6160 N   0  0  0  0  0  0  0  0  0  0  0  0
   -9.8160    2.9960  -22.3070 H   0  0  0  0  0  0  0  0  0  0  0  0
   -7.9630    4.2520  -21.1150 H   0  0  0  0  0  0  0  0  0  0  0  0
   -5.7710    3.1090  -21.9340 H   0  0  0  0  0  0  0  0  0  0  0  0
   -6.1510    1.7300  -23.9550 H   0  0  0  0  0  0  0  0  0  0  0  0
   -8.5940    1.3290  -25.5360 H   0  0  0  0  0  0  0  0  0  0  0  0
   -9.9880    2.2370  -24.9410 H   0  0  0  0  0  0  0  0  0  0  0  0
  -11.1380    0.3200  -23.9120 C   0  0  0  0  0  0  0  0  0  0  0  0
  -11.8880    1.2220  -24.2630 O   0  0  0  0  0  0  0  0  0  0  0  0
  -11.6350   -0.8770  -23.1590 C   0  0  0  0  0  0  0  0  0  0  0  0
  -13.0120   -0.9880  -22.9700 C   0  0  0  0  0  0  0  0  0  0  0  0
  -13.5300   -1.9520  -22.1370 C   0  0  0  0  0  0  0  0  0  0  0  0
  -12.6380   -2.8130  -21.5110 C   0  0  0  0  0  0  0  0  0  0  0  0
  -13.2660   -3.8800  -20.3130 Cl  0  0  0  0  0  0  0  0  0  0  0  0
  -11.2780   -2.7790  -21.7550 C   0  0  0  0  0  0  0  0  0  0  0  0
  -10.7420   -1.7990  -22.5940 C   0  0  0  0  0  0  0  0  0  0  0  0
  -10.6480   -3.4970  -21.2440 H   0  0  0  0  0  0  0  0  0  0  0  0
  -14.5930   -2.0210  -21.9320 H   0  0  0  0  0  0  0  0  0  0  0  0
  -13.6540   -0.2750  -23.4700 H   0  0  0  0  0  0  0  0  0  0  0  0
   -9.2410   -1.5430  -24.9090 H   0  0  0  0  0  0  0  0  0  0  0  0
   -7.9360   -0.5970  -24.1580 H   0  0  0  0  0  0  0  0  0  0  0  0
   -6.2790   -2.3210  -22.7230 H   0  0  0  0  0  0  0  0  0  0  0  0
   -6.7080   -3.2810  -21.2960 H   0  0  0  0  0  0  0  0  0  0  0  0
   -8.9020   -3.6280  -22.0120 H   0  0  0  0  0  0  0  0  0  0  0  0
   -7.5200   -3.0040  -24.6460 H   0  0  0  0  0  0  0  0  0  0  0  0
   -7.4960   -4.5460  -23.7730 H   0  0  0  0  0  0  0  0  0  0  0  0
   -8.5260   -5.5270  -25.7380 H   0  0  0  0  0  0  0  0  0  0  0  0
  -10.1410   -4.9190  -26.1870 H   0  0  0  0  0  0  0  0  0  0  0  0
   -8.6880   -3.9470  -26.5480 H   0  0  0  0  0  0  0  0  0  0  0  0
  1  2  1  0  0  0  0
  1 59  1  0  0  0  0
  1 60  1  0  0  0  0
  1 61  1  0  0  0  0
  2  3  1  0  0  0  0
  3  4  1  0  0  0  0
  3 57  1  0  0  0  0
  3 58  1  0  0  0  0
  4  5  1  0  0  0  0
  4 25  1  0  0  0  0
  4 56  1  1  0  0  0
  5  6  1  0  0  0  0
  5 54  1  0  0  0  0
  5 55  1  0  0  0  0
  6  7  1  0  0  0  0
  6 23  1  0  0  0  0
  7  8  2  0  0  0  0
  7 16  1  0  0  0  0
  8  9  1  0  0  0  0
  8 22  1  0  0  0  0
  9 10  2  0  0  0  0
 10 11  1  0  0  0  0
 10 21  1  0  0  0  0
 11 12  2  0  0  0  0
 11 16  1  0  0  0  0
 12 13  1  0  0  0  0
 12 20  1  0  0  0  0
 13 14  2  0  0  0  0
 13 19  1  0  0  0  0
 14 15  1  0  0  0  0
 14 18  1  0  0  0  0
 15 16  2  0  0  0  0
 15 17  1  0  0  0  0
 23 24  2  0  0  0  0
 25 23  1  1  0  0  0
 25 26  1  0  0  0  0
 25 48  1  0  0  0  0
 26 27  1  0  0  0  0
 26 52  1  0  0  0  0
 26 53  1  0  0  0  0
 27 28  1  0  0  0  0
 27 40  1  0  0  0  0
 28 29  1  0  0  0  0
 28 38  1  0  0  0  0
 28 39  1  0  0  0  0
 29 30  2  0  0  0  0
 29 33  1  0  0  0  0
 30 31  1  0  0  0  0
 30 37  1  0  0  0  0
 31 32  2  0  0  0  0
 31 36  1  0  0  0  0
 32 33  1  0  0  0  0
 32 35  1  0  0  0  0
 33 34  1  0  0  0  0
 40 41  2  0  0  0  0
 40 42  1  0  0  0  0
 42 43  2  0  0  0  0
 42 48  1  0  0  0  0
 43 44  1  0  0  0  0
 43 51  1  0  0  0  0
 44 45  2  0  0  0  0
 44 50  1  0  0  0  0
 45 46  1  0  0  0  0
 45 47  1  0  0  0  0
 47 48  2  0  0  0  0
 47 49  1  0  0  0  0
M  CHG  1  31   1
M  END
>  <MODEL>
       1

$$$$
