tmp_first_model_4_55.pdb
 OpenBabel08272518513D

 61 66  0  0  1  0  0  0  0  0999 V2000
   -7.0140   -5.4580  -25.0340 C   0  0  0  0  0  0  0  0  0  0  0  0
   -7.3600   -4.7880  -23.8500 O   0  0  0  0  0  0  0  0  0  0  0  0
   -8.0130   -3.5680  -24.0960 C   0  0  0  0  0  0  0  0  0  0  0  0
   -8.3090   -2.9180  -22.7520 C   0  0  1  0  0  0  0  0  0  0  0  0
   -7.0130   -2.5730  -22.0010 C   0  0  0  0  0  0  0  0  0  0  0  0
   -7.3730   -1.4040  -21.2320 N   0  0  0  0  0  0  0  0  0  0  0  0
   -6.5220   -0.9430  -20.2050 C   0  0  0  0  0  0  0  0  0  0  0  0
   -6.7590   -1.2720  -18.8960 C   0  0  0  0  0  0  0  0  0  0  0  0
   -5.8820   -1.0350  -17.8890 N   0  0  0  0  0  0  0  0  0  0  0  0
   -4.7560   -0.4340  -18.1860 C   0  0  0  0  0  0  0  0  0  0  0  0
   -4.4140    0.0050  -19.4960 C   0  0  0  0  0  0  0  0  0  0  0  0
   -3.2450    0.7620  -19.7580 C   0  0  0  0  0  0  0  0  0  0  0  0
   -3.0260    1.2900  -21.0010 C   0  0  0  0  0  0  0  0  0  0  0  0
   -3.9240    1.0200  -22.0560 C   0  0  0  0  0  0  0  0  0  0  0  0
   -5.0120    0.2090  -21.8470 C   0  0  0  0  0  0  0  0  0  0  0  0
   -5.3200   -0.2560  -20.5420 C   0  0  0  0  0  0  0  0  0  0  0  0
   -5.6870   -0.0370  -22.6580 H   0  0  0  0  0  0  0  0  0  0  0  0
   -3.7510    1.4600  -23.0360 H   0  0  0  0  0  0  0  0  0  0  0  0
   -2.1760    1.9410  -21.1710 H   0  0  0  0  0  0  0  0  0  0  0  0
   -2.5670    0.9440  -18.9290 H   0  0  0  0  0  0  0  0  0  0  0  0
   -4.0390   -0.2690  -17.3770 H   0  0  0  0  0  0  0  0  0  0  0  0
   -7.6950   -1.7600  -18.6330 H   0  0  0  0  0  0  0  0  0  0  0  0
   -8.5790   -0.8290  -21.5630 C   0  0  0  0  0  0  0  0  0  0  0  0
   -9.0750    0.1240  -21.0010 O   0  0  0  0  0  0  0  0  0  0  0  0
   -9.1450   -1.6060  -22.7840 C   0  0  1  0  0  0  0  0  0  0  0  0
   -8.8620   -0.8110  -24.0860 C   0  0  0  0  0  0  0  0  0  0  0  0
   -9.6720    0.3900  -24.1700 N   0  0  0  0  0  0  0  0  0  0  0  0
   -9.0490    1.6120  -24.6600 C   0  0  0  0  0  0  0  0  0  0  0  0
   -8.2050    2.2720  -23.6160 C   0  0  0  0  0  0  0  0  0  0  0  0
   -6.8590    2.3270  -23.4660 C   0  0  0  0  0  0  0  0  0  0  0  0
   -6.5930    3.0770  -22.3410 N   0  3  0  0  0  0  0  0  0  0  0  0
   -7.7530    3.4690  -21.8130 C   0  0  0  0  0  0  0  0  0  0  0  0
   -8.7570    2.9850  -22.5640 N   0  0  0  0  0  0  0  0  0  0  0  0
   -9.7340    2.9300  -22.2820 H   0  0  0  0  0  0  0  0  0  0  0  0
   -7.8480    4.1480  -20.9870 H   0  0  0  0  0  0  0  0  0  0  0  0
   -5.6850    3.1020  -21.8810 H   0  0  0  0  0  0  0  0  0  0  0  0
   -6.0370    1.8940  -24.0250 H   0  0  0  0  0  0  0  0  0  0  0  0
   -9.8540    2.2730  -24.9970 H   0  0  0  0  0  0  0  0  0  0  0  0
   -8.4410    1.3710  -25.5410 H   0  0  0  0  0  0  0  0  0  0  0  0
  -11.0290    0.3280  -24.0140 C   0  0  0  0  0  0  0  0  0  0  0  0
  -11.7860    1.1960  -24.4280 O   0  0  0  0  0  0  0  0  0  0  0  0
  -11.5330   -0.8740  -23.2650 C   0  0  0  0  0  0  0  0  0  0  0  0
  -12.9150   -1.0170  -23.1230 C   0  0  0  0  0  0  0  0  0  0  0  0
  -13.4440   -2.0010  -22.3150 C   0  0  0  0  0  0  0  0  0  0  0  0
  -12.5610   -2.8430  -21.6420 C   0  0  0  0  0  0  0  0  0  0  0  0
  -13.2040   -3.9770  -20.4950 Cl  0  0  0  0  0  0  0  0  0  0  0  0
  -11.1920   -2.7610  -21.8240 C   0  0  0  0  0  0  0  0  0  0  0  0
  -10.6490   -1.7780  -22.6600 C   0  0  0  0  0  0  0  0  0  0  0  0
  -10.5610   -3.4570  -21.2810 H   0  0  0  0  0  0  0  0  0  0  0  0
  -14.5150   -2.1050  -22.1710 H   0  0  0  0  0  0  0  0  0  0  0  0
  -13.5580   -0.3130  -23.6370 H   0  0  0  0  0  0  0  0  0  0  0  0
   -9.0780   -1.4580  -24.9480 H   0  0  0  0  0  0  0  0  0  0  0  0
   -7.8020   -0.5350  -24.1290 H   0  0  0  0  0  0  0  0  0  0  0  0
   -6.1750   -2.3730  -22.6870 H   0  0  0  0  0  0  0  0  0  0  0  0
   -6.7000   -3.3800  -21.3320 H   0  0  0  0  0  0  0  0  0  0  0  0
   -8.8400   -3.6630  -22.1570 H   0  0  0  0  0  0  0  0  0  0  0  0
   -8.9460   -3.7310  -24.6630 H   0  0  0  0  0  0  0  0  0  0  0  0
   -7.3670   -2.9060  -24.7020 H   0  0  0  0  0  0  0  0  0  0  0  0
   -6.5460   -6.4050  -24.7540 H   0  0  0  0  0  0  0  0  0  0  0  0
   -7.8990   -5.6700  -25.6530 H   0  0  0  0  0  0  0  0  0  0  0  0
   -6.3000   -4.8760  -25.6380 H   0  0  0  0  0  0  0  0  0  0  0  0
  1  2  1  0  0  0  0
  1 59  1  0  0  0  0
  1 60  1  0  0  0  0
  1 61  1  0  0  0  0
  2  3  1  0  0  0  0
  3  4  1  0  0  0  0
  3 57  1  0  0  0  0
  3 58  1  0  0  0  0
  4  5  1  0  0  0  0
  4 25  1  0  0  0  0
  4 56  1  1  0  0  0
  5  6  1  0  0  0  0
  5 54  1  0  0  0  0
  5 55  1  0  0  0  0
  6  7  1  0  0  0  0
  6 23  1  0  0  0  0
  7  8  2  0  0  0  0
  7 16  1  0  0  0  0
  8  9  1  0  0  0  0
  8 22  1  0  0  0  0
  9 10  2  0  0  0  0
 10 11  1  0  0  0  0
 10 21  1  0  0  0  0
 11 12  2  0  0  0  0
 11 16  1  0  0  0  0
 12 13  1  0  0  0  0
 12 20  1  0  0  0  0
 13 14  2  0  0  0  0
 13 19  1  0  0  0  0
 14 15  1  0  0  0  0
 14 18  1  0  0  0  0
 15 16  2  0  0  0  0
 15 17  1  0  0  0  0
 23 24  2  0  0  0  0
 25 23  1  1  0  0  0
 25 26  1  0  0  0  0
 25 48  1  0  0  0  0
 26 27  1  0  0  0  0
 26 52  1  0  0  0  0
 26 53  1  0  0  0  0
 27 28  1  0  0  0  0
 27 40  1  0  0  0  0
 28 29  1  0  0  0  0
 28 38  1  0  0  0  0
 28 39  1  0  0  0  0
 29 30  2  0  0  0  0
 29 33  1  0  0  0  0
 30 31  1  0  0  0  0
 30 37  1  0  0  0  0
 31 32  2  0  0  0  0
 31 36  1  0  0  0  0
 32 33  1  0  0  0  0
 32 35  1  0  0  0  0
 33 34  1  0  0  0  0
 40 41  2  0  0  0  0
 40 42  1  0  0  0  0
 42 43  2  0  0  0  0
 42 48  1  0  0  0  0
 43 44  1  0  0  0  0
 43 51  1  0  0  0  0
 44 45  2  0  0  0  0
 44 50  1  0  0  0  0
 45 46  1  0  0  0  0
 45 47  1  0  0  0  0
 47 48  2  0  0  0  0
 47 49  1  0  0  0  0
M  CHG  1  31   1
M  END
>  <MODEL>
       1

$$$$
