tmp_first_model_13_14.pdb
 OpenBabel08282500103D

 73 78  0  0  1  0  0  0  0  0999 V2000
   -7.9440   -3.7500  -24.0050 C   0  0  0  0  0  0  0  0  0  0  0  0
   -8.2980   -2.8750  -22.7990 C   0  0  1  0  0  0  0  0  0  0  0  0
   -7.1000   -2.6530  -21.8500 C   0  0  0  0  0  0  0  0  0  0  0  0
   -7.4060   -1.3930  -21.2000 N   0  0  0  0  0  0  0  0  0  0  0  0
   -6.6030   -0.8130  -20.1780 C   0  0  0  0  0  0  0  0  0  0  0  0
   -6.8990   -1.0490  -18.8600 C   0  0  0  0  0  0  0  0  0  0  0  0
   -6.1920   -0.5500  -17.8180 N   0  0  0  0  0  0  0  0  0  0  0  0
   -5.1630    0.2130  -18.0830 C   0  0  0  0  0  0  0  0  0  0  0  0
   -4.7340    0.5410  -19.4010 C   0  0  0  0  0  0  0  0  0  0  0  0
   -3.6070    1.3740  -19.6440 C   0  0  0  0  0  0  0  0  0  0  0  0
   -3.2170    1.6640  -20.9240 C   0  0  0  0  0  0  0  0  0  0  0  0
   -3.9340    1.1290  -22.0170 C   0  0  0  0  0  0  0  0  0  0  0  0
   -5.0280    0.3240  -21.8050 C   0  0  0  0  0  0  0  0  0  0  0  0
   -5.4690    0.0090  -20.4880 C   0  0  0  0  0  0  0  0  0  0  0  0
   -5.5600   -0.0890  -22.6570 H   0  0  0  0  0  0  0  0  0  0  0  0
   -3.6370    1.3710  -23.0340 H   0  0  0  0  0  0  0  0  0  0  0  0
   -2.3660    2.3140  -21.1020 H   0  0  0  0  0  0  0  0  0  0  0  0
   -3.0750    1.7800  -18.7880 H   0  0  0  0  0  0  0  0  0  0  0  0
   -4.6140    0.6170  -17.2320 H   0  0  0  0  0  0  0  0  0  0  0  0
   -7.7500   -1.6720  -18.5960 H   0  0  0  0  0  0  0  0  0  0  0  0
   -8.3890   -0.6640  -21.8320 C   0  0  0  0  0  0  0  0  0  0  0  0
   -8.8030    0.4050  -21.4370 O   0  0  0  0  0  0  0  0  0  0  0  0
   -8.8400   -1.4410  -23.1000 C   0  0  1  0  0  0  0  0  0  0  0  0
   -8.1530   -0.8410  -24.3600 C   0  0  0  0  0  0  0  0  0  0  0  0
   -8.5980    0.5090  -24.6290 N   0  0  0  0  0  0  0  0  0  0  0  0
   -7.6370    1.5710  -24.8900 C   0  0  0  0  0  0  0  0  0  0  0  0
   -7.5130    2.5180  -23.6950 C   0  0  0  0  0  0  0  0  0  0  0  0
   -6.4210    3.5550  -23.8640 N   0  3  0  0  0  0  0  0  0  0  0  0
   -6.7550    4.6750  -24.8430 C   0  0  0  0  0  0  0  0  0  0  0  0
   -7.7620    5.6770  -24.2710 C   0  0  0  0  0  0  0  0  0  0  0  0
   -7.3570    6.1620  -22.9540 N   0  0  0  0  0  0  0  0  0  0  0  0
   -6.5540    7.6060  -22.8370 S   0  0  0  0  0  0  0  0  0  0  0  0
   -6.0480    7.6920  -21.4800 O   0  0  0  0  0  0  0  0  0  0  0  0
   -7.4130    8.6300  -23.4000 O   0  0  0  0  0  0  0  0  0  0  0  0
   -5.1440    7.5260  -23.9320 C   0  0  0  0  0  0  0  0  0  0  0  0
   -5.5110    7.5000  -24.9620 H   0  0  0  0  0  0  0  0  0  0  0  0
   -4.5130    6.6680  -23.6890 H   0  0  0  0  0  0  0  0  0  0  0  0
   -4.6060    8.4630  -23.7590 H   0  0  0  0  0  0  0  0  0  0  0  0
   -7.0280    5.1110  -21.9930 C   0  0  0  0  0  0  0  0  0  0  0  0
   -5.9820    4.1540  -22.5430 C   0  0  0  0  0  0  0  0  0  0  0  0
   -5.0500    4.6980  -22.7140 H   0  0  0  0  0  0  0  0  0  0  0  0
   -5.7810    3.3390  -21.8420 H   0  0  0  0  0  0  0  0  0  0  0  0
   -7.9570    4.5750  -21.7690 H   0  0  0  0  0  0  0  0  0  0  0  0
   -6.6650    5.6160  -21.1020 H   0  0  0  0  0  0  0  0  0  0  0  0
   -8.7390    5.2010  -24.1400 H   0  0  0  0  0  0  0  0  0  0  0  0
   -7.8970    6.5360  -24.9330 H   0  0  0  0  0  0  0  0  0  0  0  0
   -7.1480    4.2400  -25.7600 H   0  0  0  0  0  0  0  0  0  0  0  0
   -5.8170    5.1840  -25.0810 H   0  0  0  0  0  0  0  0  0  0  0  0
   -5.5900    3.0490  -24.2260 H   0  0  0  0  0  0  0  0  0  0  0  0
   -7.2840    1.9430  -22.7930 H   0  0  0  0  0  0  0  0  0  0  0  0
   -8.4700    3.0200  -23.5400 H   0  0  0  0  0  0  0  0  0  0  0  0
   -6.6650    1.1090  -25.0950 H   0  0  0  0  0  0  0  0  0  0  0  0
   -7.9570    2.1130  -25.7840 H   0  0  0  0  0  0  0  0  0  0  0  0
   -9.9310    0.7960  -24.6780 C   0  0  0  0  0  0  0  0  0  0  0  0
  -10.3670    1.8320  -25.1710 O   0  0  0  0  0  0  0  0  0  0  0  0
  -10.8480   -0.2260  -24.0540 C   0  0  0  0  0  0  0  0  0  0  0  0
  -12.2250   -0.0480  -24.1980 C   0  0  0  0  0  0  0  0  0  0  0  0
  -13.1150   -0.8980  -23.5690 C   0  0  0  0  0  0  0  0  0  0  0  0
  -12.6110   -1.9160  -22.7610 C   0  0  0  0  0  0  0  0  0  0  0  0
  -13.7260   -2.9500  -21.9150 Cl  0  0  0  0  0  0  0  0  0  0  0  0
  -11.2500   -2.1110  -22.6060 C   0  0  0  0  0  0  0  0  0  0  0  0
  -10.3410   -1.2900  -23.2880 C   0  0  0  0  0  0  0  0  0  0  0  0
  -10.9180   -2.8910  -21.9290 H   0  0  0  0  0  0  0  0  0  0  0  0
  -14.1860   -0.7700  -23.6740 H   0  0  0  0  0  0  0  0  0  0  0  0
  -12.5690    0.7860  -24.7990 H   0  0  0  0  0  0  0  0  0  0  0  0
   -8.3810   -1.4920  -25.2190 H   0  0  0  0  0  0  0  0  0  0  0  0
   -7.0670   -0.8220  -24.2120 H   0  0  0  0  0  0  0  0  0  0  0  0
   -6.1520   -2.6020  -22.4110 H   0  0  0  0  0  0  0  0  0  0  0  0
   -6.9960   -3.4530  -21.1080 H   0  0  0  0  0  0  0  0  0  0  0  0
   -9.0730   -3.3830  -22.2180 H   0  0  0  0  0  0  0  0  0  0  0  0
   -7.0900   -3.3390  -24.5570 H   0  0  0  0  0  0  0  0  0  0  0  0
   -7.6640   -4.7600  -23.6860 H   0  0  0  0  0  0  0  0  0  0  0  0
   -8.7810   -3.8410  -24.7050 H   0  0  0  0  0  0  0  0  0  0  0  0
  1  2  1  0  0  0  0
  1 71  1  0  0  0  0
  1 72  1  0  0  0  0
  1 73  1  0  0  0  0
  2  3  1  0  0  0  0
  2 23  1  0  0  0  0
  2 70  1  1  0  0  0
  3  4  1  0  0  0  0
  3 68  1  0  0  0  0
  3 69  1  0  0  0  0
  4  5  1  0  0  0  0
  4 21  1  0  0  0  0
  5  6  2  0  0  0  0
  5 14  1  0  0  0  0
  6  7  1  0  0  0  0
  6 20  1  0  0  0  0
  7  8  2  0  0  0  0
  8  9  1  0  0  0  0
  8 19  1  0  0  0  0
  9 10  2  0  0  0  0
  9 14  1  0  0  0  0
 10 11  1  0  0  0  0
 10 18  1  0  0  0  0
 11 12  2  0  0  0  0
 11 17  1  0  0  0  0
 12 13  1  0  0  0  0
 12 16  1  0  0  0  0
 13 14  2  0  0  0  0
 13 15  1  0  0  0  0
 21 22  2  0  0  0  0
 23 21  1  1  0  0  0
 23 24  1  0  0  0  0
 23 62  1  0  0  0  0
 24 25  1  0  0  0  0
 24 66  1  0  0  0  0
 24 67  1  0  0  0  0
 25 26  1  0  0  0  0
 25 54  1  0  0  0  0
 26 27  1  0  0  0  0
 26 52  1  0  0  0  0
 26 53  1  0  0  0  0
 27 28  1  0  0  0  0
 27 50  1  0  0  0  0
 27 51  1  0  0  0  0
 28 29  1  0  0  0  0
 28 40  1  0  0  0  0
 28 49  1  0  0  0  0
 29 30  1  0  0  0  0
 29 47  1  0  0  0  0
 29 48  1  0  0  0  0
 30 31  1  0  0  0  0
 30 45  1  0  0  0  0
 30 46  1  0  0  0  0
 31 32  1  0  0  0  0
 31 39  1  0  0  0  0
 32 33  2  0  0  0  0
 32 34  2  0  0  0  0
 32 35  1  0  0  0  0
 35 36  1  0  0  0  0
 35 37  1  0  0  0  0
 35 38  1  0  0  0  0
 39 40  1  0  0  0  0
 39 43  1  0  0  0  0
 39 44  1  0  0  0  0
 40 41  1  0  0  0  0
 40 42  1  0  0  0  0
 54 55  2  0  0  0  0
 54 56  1  0  0  0  0
 56 57  2  0  0  0  0
 56 62  1  0  0  0  0
 57 58  1  0  0  0  0
 57 65  1  0  0  0  0
 58 59  2  0  0  0  0
 58 64  1  0  0  0  0
 59 60  1  0  0  0  0
 59 61  1  0  0  0  0
 61 62  2  0  0  0  0
 61 63  1  0  0  0  0
M  CHG  1  28   1
M  END
>  <MODEL>
       1

$$$$
