tmp_first_model_13_5.pdb
 OpenBabel08282500103D

 58 61  0  0  1  0  0  0  0  0999 V2000
   -8.0230   -4.6520  -21.9870 C   0  0  0  0  0  0  0  0  0  0  0  0
   -7.0110   -3.8590  -21.6450 C   0  0  0  0  0  0  0  0  0  0  0  0
   -6.7260   -2.4470  -22.0480 C   0  0  0  0  0  0  0  0  0  0  0  0
   -7.3740   -1.4000  -21.2490 N   0  0  0  0  0  0  0  0  0  0  0  0
   -8.6100   -0.8020  -21.4910 C   0  0  0  0  0  0  0  0  0  0  0  0
   -9.0710    0.0000  -20.7060 O   0  0  0  0  0  0  0  0  0  0  0  0
   -9.3270   -1.1120  -22.8070 C   0  0  2  0  0  0  0  0  0  0  0  0
   -8.7230   -0.2430  -23.9200 C   0  0  0  0  0  0  0  0  0  0  0  0
   -9.0550    1.1510  -23.6670 N   0  0  0  0  0  0  0  0  0  0  0  0
   -8.0110    2.1550  -23.7160 C   0  0  0  0  0  0  0  0  0  0  0  0
   -7.5000    2.3300  -25.1430 C   0  0  0  0  0  0  0  0  0  0  0  0
   -6.4460    1.8470  -25.5310 O   0  0  0  0  0  0  0  0  0  0  0  0
   -8.3380    3.0190  -25.9550 N   0  0  0  0  0  0  0  0  0  0  0  0
   -7.9780    3.2140  -27.3440 C   0  0  0  0  0  0  0  0  0  0  0  0
   -7.0280    3.7530  -27.4140 H   0  0  0  0  0  0  0  0  0  0  0  0
   -7.8530    2.2540  -27.8580 H   0  0  0  0  0  0  0  0  0  0  0  0
   -8.7600    3.7930  -27.8390 H   0  0  0  0  0  0  0  0  0  0  0  0
   -9.2520    3.2830  -25.6110 H   0  0  0  0  0  0  0  0  0  0  0  0
   -7.1750    1.8580  -23.0720 H   0  0  0  0  0  0  0  0  0  0  0  0
   -8.4500    3.0840  -23.3380 H   0  0  0  0  0  0  0  0  0  0  0  0
  -10.3550    1.5490  -23.5240 C   0  0  0  0  0  0  0  0  0  0  0  0
  -10.7200    2.6920  -23.7860 O   0  0  0  0  0  0  0  0  0  0  0  0
  -11.2800    0.4890  -23.0110 C   0  0  0  0  0  0  0  0  0  0  0  0
  -12.6290    0.7990  -22.8440 C   0  0  0  0  0  0  0  0  0  0  0  0
  -13.5180   -0.1670  -22.4060 C   0  0  0  0  0  0  0  0  0  0  0  0
  -13.0390   -1.4420  -22.1080 C   0  0  0  0  0  0  0  0  0  0  0  0
  -14.1560   -2.6600  -21.5620 Cl  0  0  0  0  0  0  0  0  0  0  0  0
  -11.6910   -1.7480  -22.2320 C   0  0  0  0  0  0  0  0  0  0  0  0
  -10.7970   -0.7840  -22.6970 C   0  0  0  0  0  0  0  0  0  0  0  0
  -11.3350   -2.7380  -21.9590 H   0  0  0  0  0  0  0  0  0  0  0  0
  -14.5730    0.0580  -22.2850 H   0  0  0  0  0  0  0  0  0  0  0  0
  -12.9600    1.8100  -23.0640 H   0  0  0  0  0  0  0  0  0  0  0  0
   -9.1160   -0.5640  -24.8940 H   0  0  0  0  0  0  0  0  0  0  0  0
   -7.6330   -0.3140  -23.9680 H   0  0  0  0  0  0  0  0  0  0  0  0
   -9.2120   -2.1750  -23.0290 H   0  0  0  0  0  0  0  0  0  0  0  0
   -6.6080   -0.8160  -20.2030 C   0  0  0  0  0  0  0  0  0  0  0  0
   -6.9410   -1.0380  -18.8950 C   0  0  0  0  0  0  0  0  0  0  0  0
   -6.2390   -0.5530  -17.8450 N   0  0  0  0  0  0  0  0  0  0  0  0
   -5.1820    0.1820  -18.0960 C   0  0  0  0  0  0  0  0  0  0  0  0
   -4.7300    0.5030  -19.4080 C   0  0  0  0  0  0  0  0  0  0  0  0
   -3.5970    1.3300  -19.6460 C   0  0  0  0  0  0  0  0  0  0  0  0
   -3.2070    1.6310  -20.9220 C   0  0  0  0  0  0  0  0  0  0  0  0
   -3.9310    1.1220  -22.0230 C   0  0  0  0  0  0  0  0  0  0  0  0
   -5.0360    0.3310  -21.8170 C   0  0  0  0  0  0  0  0  0  0  0  0
   -5.4590   -0.0130  -20.5020 C   0  0  0  0  0  0  0  0  0  0  0  0
   -5.5920   -0.0300  -22.6760 H   0  0  0  0  0  0  0  0  0  0  0  0
   -3.6230    1.3560  -23.0370 H   0  0  0  0  0  0  0  0  0  0  0  0
   -2.3540    2.2800  -21.0990 H   0  0  0  0  0  0  0  0  0  0  0  0
   -3.0640    1.7350  -18.7900 H   0  0  0  0  0  0  0  0  0  0  0  0
   -4.6310    0.5610  -17.2350 H   0  0  0  0  0  0  0  0  0  0  0  0
   -7.8260   -1.6240  -18.6530 H   0  0  0  0  0  0  0  0  0  0  0  0
   -6.8860   -2.2660  -23.1150 H   0  0  0  0  0  0  0  0  0  0  0  0
   -5.6590   -2.4430  -21.7620 H   0  0  0  0  0  0  0  0  0  0  0  0
   -5.7640   -4.3360  -20.8430 C   0  0  0  0  0  0  0  0  0  0  0  0
   -4.8890   -3.4450  -20.7210 O   0  0  0  0  0  0  0  0  0  0  0  0
   -5.6680   -5.4770  -20.3850 O   0  5  0  0  0  0  0  0  0  0  0  0
   -8.7840   -4.2900  -22.6730 H   0  0  0  0  0  0  0  0  0  0  0  0
   -8.1410   -5.6700  -21.6170 H   0  0  0  0  0  0  0  0  0  0  0  0
  1  2  2  0  0  0  0
  1 57  1  0  0  0  0
  1 58  1  0  0  0  0
  2  3  1  0  0  0  0
  2 54  1  0  0  0  0
  3  4  1  0  0  0  0
  3 52  1  0  0  0  0
  3 53  1  0  0  0  0
  4  5  1  0  0  0  0
  4 36  1  0  0  0  0
  5  6  2  0  0  0  0
  5  7  1  0  0  0  0
  7  8  1  0  0  0  0
  7 29  1  0  0  0  0
  7 35  1  6  0  0  0
  8  9  1  0  0  0  0
  8 33  1  0  0  0  0
  8 34  1  0  0  0  0
  9 10  1  0  0  0  0
  9 21  1  0  0  0  0
 10 11  1  0  0  0  0
 10 19  1  0  0  0  0
 10 20  1  0  0  0  0
 11 12  2  0  0  0  0
 11 13  1  0  0  0  0
 13 14  1  0  0  0  0
 13 18  1  0  0  0  0
 14 15  1  0  0  0  0
 14 16  1  0  0  0  0
 14 17  1  0  0  0  0
 21 22  2  0  0  0  0
 21 23  1  0  0  0  0
 23 24  2  0  0  0  0
 23 29  1  0  0  0  0
 24 25  1  0  0  0  0
 24 32  1  0  0  0  0
 25 26  2  0  0  0  0
 25 31  1  0  0  0  0
 26 27  1  0  0  0  0
 26 28  1  0  0  0  0
 28 29  2  0  0  0  0
 28 30  1  0  0  0  0
 36 37  2  0  0  0  0
 36 45  1  0  0  0  0
 37 38  1  0  0  0  0
 37 51  1  0  0  0  0
 38 39  2  0  0  0  0
 39 40  1  0  0  0  0
 39 50  1  0  0  0  0
 40 41  2  0  0  0  0
 40 45  1  0  0  0  0
 41 42  1  0  0  0  0
 41 49  1  0  0  0  0
 42 43  2  0  0  0  0
 42 48  1  0  0  0  0
 43 44  1  0  0  0  0
 43 47  1  0  0  0  0
 44 45  2  0  0  0  0
 44 46  1  0  0  0  0
 54 55  2  0  0  0  0
 54 56  1  0  0  0  0
M  CHG  1  56  -1
M  END
>  <MODEL>
       1

$$$$
