tmp_first_model_3_59.pdb
 OpenBabel08272518143D

 60 65  0  0  1  0  0  0  0  0999 V2000
   -7.4100    3.3870  -21.8000 C   0  0  0  0  0  0  0  0  0  0  0  0
   -8.2640    2.9160  -22.8700 N   0  0  0  0  0  0  0  0  0  0  0  0
   -7.6770    2.2310  -23.8760 C   0  0  0  0  0  0  0  0  0  0  0  0
   -6.4610    2.1430  -23.9810 O   0  0  0  0  0  0  0  0  0  0  0  0
   -8.6120    1.5960  -24.9010 C   0  0  0  0  0  0  0  0  0  0  0  0
   -9.3570    0.4640  -24.3900 N   0  0  0  0  0  0  0  0  0  0  0  0
   -8.6490   -0.7940  -24.2340 C   0  0  0  0  0  0  0  0  0  0  0  0
   -9.0260   -1.5060  -22.9230 C   0  0  2  0  0  0  0  0  0  0  0  0
   -8.4980   -0.7300  -21.6960 C   0  0  0  0  0  0  0  0  0  0  0  0
   -8.9490    0.2870  -21.2060 O   0  0  0  0  0  0  0  0  0  0  0  0
   -7.3920   -1.3880  -21.2060 N   0  0  0  0  0  0  0  0  0  0  0  0
   -6.5990   -0.8140  -20.1750 C   0  0  0  0  0  0  0  0  0  0  0  0
   -6.9140   -1.0410  -18.8570 C   0  0  0  0  0  0  0  0  0  0  0  0
   -6.2150   -0.5430  -17.8070 N   0  0  0  0  0  0  0  0  0  0  0  0
   -5.1740    0.2080  -18.0760 C   0  0  0  0  0  0  0  0  0  0  0  0
   -4.7330    0.5270  -19.3930 C   0  0  0  0  0  0  0  0  0  0  0  0
   -3.6050    1.3570  -19.6380 C   0  0  0  0  0  0  0  0  0  0  0  0
   -3.2180    1.6500  -20.9190 C   0  0  0  0  0  0  0  0  0  0  0  0
   -3.9420    1.1270  -22.0140 C   0  0  0  0  0  0  0  0  0  0  0  0
   -5.0390    0.3240  -21.8020 C   0  0  0  0  0  0  0  0  0  0  0  0
   -5.4640    0.0030  -20.4840 C   0  0  0  0  0  0  0  0  0  0  0  0
   -5.6020   -0.0560  -22.6510 H   0  0  0  0  0  0  0  0  0  0  0  0
   -3.6510    1.3780  -23.0290 H   0  0  0  0  0  0  0  0  0  0  0  0
   -2.3640    2.3000  -21.0950 H   0  0  0  0  0  0  0  0  0  0  0  0
   -3.0770    1.7690  -18.7830 H   0  0  0  0  0  0  0  0  0  0  0  0
   -4.6220    0.6100  -17.2280 H   0  0  0  0  0  0  0  0  0  0  0  0
   -7.7680   -1.6660  -18.6060 H   0  0  0  0  0  0  0  0  0  0  0  0
   -7.0340   -2.5850  -21.9430 C   0  0  0  0  0  0  0  0  0  0  0  0
   -8.3000   -2.8790  -22.7660 C   0  0  2  0  0  0  0  0  0  0  0  0
   -8.0830   -3.7710  -24.0170 C   0  0  0  0  0  0  0  0  0  0  0  0
   -6.8720   -3.4820  -24.8610 C   0  0  0  0  0  0  0  0  0  0  0  0
   -6.8750   -2.7980  -25.9980 N   0  0  0  0  0  0  0  0  0  0  0  0
   -5.6040   -2.7640  -26.3930 N   0  0  0  0  0  0  0  0  0  0  0  0
   -4.8700   -3.4210  -25.5360 N   0  5  0  0  0  0  0  0  0  0  0  0
   -5.6430   -3.8910  -24.5590 N   0  0  0  0  0  0  0  0  0  0  0  0
   -7.9750   -4.8140  -23.6990 H   0  0  0  0  0  0  0  0  0  0  0  0
   -8.9720   -3.7170  -24.6550 H   0  0  0  0  0  0  0  0  0  0  0  0
   -8.9610   -3.4610  -22.1250 H   0  0  0  0  0  0  0  0  0  0  0  0
   -6.1710   -2.4160  -22.6000 H   0  0  0  0  0  0  0  0  0  0  0  0
   -6.7760   -3.4060  -21.2600 H   0  0  0  0  0  0  0  0  0  0  0  0
  -10.5350   -1.5480  -22.8680 C   0  0  0  0  0  0  0  0  0  0  0  0
  -11.1420   -2.4440  -22.0000 C   0  0  0  0  0  0  0  0  0  0  0  0
  -12.5070   -2.4530  -21.8360 C   0  0  0  0  0  0  0  0  0  0  0  0
  -13.0680   -3.4990  -20.5520 Cl  0  0  0  0  0  0  0  0  0  0  0  0
  -13.3340   -1.6050  -22.5820 C   0  0  0  0  0  0  0  0  0  0  0  0
  -12.7340   -0.6680  -23.4140 C   0  0  0  0  0  0  0  0  0  0  0  0
  -11.3430   -0.6100  -23.5250 C   0  0  0  0  0  0  0  0  0  0  0  0
  -10.7220    0.5330  -24.2760 C   0  0  0  0  0  0  0  0  0  0  0  0
  -11.3800    1.4660  -24.7140 O   0  0  0  0  0  0  0  0  0  0  0  0
  -13.3180    0.0650  -23.9670 H   0  0  0  0  0  0  0  0  0  0  0  0
  -14.4160   -1.6600  -22.4950 H   0  0  0  0  0  0  0  0  0  0  0  0
  -10.5680   -3.1320  -21.3990 H   0  0  0  0  0  0  0  0  0  0  0  0
   -7.5780   -0.5720  -24.2440 H   0  0  0  0  0  0  0  0  0  0  0  0
   -8.8700   -1.4670  -25.0770 H   0  0  0  0  0  0  0  0  0  0  0  0
   -7.9620    1.2780  -25.7230 H   0  0  0  0  0  0  0  0  0  0  0  0
   -9.3680    2.3030  -25.2520 H   0  0  0  0  0  0  0  0  0  0  0  0
   -9.2530    2.7950  -22.7020 H   0  0  0  0  0  0  0  0  0  0  0  0
   -8.0350    3.8400  -21.0330 H   0  0  0  0  0  0  0  0  0  0  0  0
   -6.8190    2.5480  -21.3990 H   0  0  0  0  0  0  0  0  0  0  0  0
   -6.7090    4.1430  -22.1680 H   0  0  0  0  0  0  0  0  0  0  0  0
  1  2  1  0  0  0  0
  1 58  1  0  0  0  0
  1 59  1  0  0  0  0
  1 60  1  0  0  0  0
  2  3  1  0  0  0  0
  2 57  1  0  0  0  0
  3  4  2  0  0  0  0
  3  5  1  0  0  0  0
  5  6  1  0  0  0  0
  5 55  1  0  0  0  0
  5 56  1  0  0  0  0
  6  7  1  0  0  0  0
  6 48  1  0  0  0  0
  7  8  1  0  0  0  0
  7 53  1  0  0  0  0
  7 54  1  0  0  0  0
  8  9  1  1  0  0  0
  8 29  1  0  0  0  0
  8 41  1  0  0  0  0
  9 10  2  0  0  0  0
  9 11  1  0  0  0  0
 11 12  1  0  0  0  0
 11 28  1  0  0  0  0
 12 13  2  0  0  0  0
 12 21  1  0  0  0  0
 13 14  1  0  0  0  0
 13 27  1  0  0  0  0
 14 15  2  0  0  0  0
 15 16  1  0  0  0  0
 15 26  1  0  0  0  0
 16 17  2  0  0  0  0
 16 21  1  0  0  0  0
 17 18  1  0  0  0  0
 17 25  1  0  0  0  0
 18 19  2  0  0  0  0
 18 24  1  0  0  0  0
 19 20  1  0  0  0  0
 19 23  1  0  0  0  0
 20 21  2  0  0  0  0
 20 22  1  0  0  0  0
 28 29  1  0  0  0  0
 28 39  1  0  0  0  0
 28 40  1  0  0  0  0
 29 30  1  0  0  0  0
 29 38  1  1  0  0  0
 30 31  1  0  0  0  0
 30 36  1  0  0  0  0
 30 37  1  0  0  0  0
 31 32  1  0  0  0  0
 31 35  2  0  0  0  0
 32 33  2  0  0  0  0
 33 34  1  0  0  0  0
 34 35  1  0  0  0  0
 41 42  2  0  0  0  0
 41 47  1  0  0  0  0
 42 43  1  0  0  0  0
 42 52  1  0  0  0  0
 43 44  1  0  0  0  0
 43 45  2  0  0  0  0
 45 46  1  0  0  0  0
 45 51  1  0  0  0  0
 46 47  2  0  0  0  0
 46 50  1  0  0  0  0
 47 48  1  0  0  0  0
 48 49  2  0  0  0  0
M  CHG  1  34  -1
M  END
>  <MODEL>
       1

$$$$
