tmp_first_model_2_48.pdb
 OpenBabel08272517383D

 46 48  0  0  0  0  0  0  0  0999 V2000
  -13.2490   -3.7600  -22.7440 C   0  0  0  0  0  0  0  0  0  0  0  0
  -13.2920   -2.7330  -23.8850 C   0  0  0  0  0  0  0  0  0  0  0  0
  -14.6650   -2.0500  -23.9270 C   0  0  0  0  0  0  0  0  0  0  0  0
  -15.4490   -2.8000  -24.0880 H   0  0  0  0  0  0  0  0  0  0  0  0
  -14.8890   -1.5370  -22.9820 H   0  0  0  0  0  0  0  0  0  0  0  0
  -14.7350   -1.3100  -24.7350 H   0  0  0  0  0  0  0  0  0  0  0  0
  -12.1310   -1.7000  -23.8880 C   0  0  0  0  0  0  0  0  0  0  0  0
  -10.7420   -2.3720  -24.0650 C   0  0  0  0  0  0  0  0  0  0  0  0
   -9.8560   -2.3400  -22.8070 C   0  0  0  0  0  0  0  0  0  0  0  0
   -9.6650   -0.9660  -22.3590 N   0  0  0  0  0  0  0  0  0  0  0  0
   -8.5400   -0.4530  -21.7800 C   0  0  0  0  0  0  0  0  0  0  0  0
   -8.3940    0.7520  -21.6380 O   0  0  0  0  0  0  0  0  0  0  0  0
   -7.4690   -1.4330  -21.2620 C   0  0  0  0  0  0  0  0  0  0  0  0
   -6.5950   -0.8280  -20.1840 C   0  0  0  0  0  0  0  0  0  0  0  0
   -6.8930   -1.0410  -18.8600 C   0  0  0  0  0  0  0  0  0  0  0  0
   -6.2070   -0.5360  -17.8000 N   0  0  0  0  0  0  0  0  0  0  0  0
   -5.1710    0.2210  -18.0690 C   0  0  0  0  0  0  0  0  0  0  0  0
   -4.7350    0.5310  -19.3870 C   0  0  0  0  0  0  0  0  0  0  0  0
   -3.6080    1.3600  -19.6200 C   0  0  0  0  0  0  0  0  0  0  0  0
   -3.2160    1.6520  -20.8990 C   0  0  0  0  0  0  0  0  0  0  0  0
   -3.9410    1.1290  -21.9950 C   0  0  0  0  0  0  0  0  0  0  0  0
   -5.0390    0.3290  -21.7910 C   0  0  0  0  0  0  0  0  0  0  0  0
   -5.4670    0.0020  -20.4760 C   0  0  0  0  0  0  0  0  0  0  0  0
   -5.6030   -0.0450  -22.6400 H   0  0  0  0  0  0  0  0  0  0  0  0
   -3.6270    1.3740  -23.0060 H   0  0  0  0  0  0  0  0  0  0  0  0
   -2.3610    2.2970  -21.0750 H   0  0  0  0  0  0  0  0  0  0  0  0
   -3.0810    1.7610  -18.7580 H   0  0  0  0  0  0  0  0  0  0  0  0
   -4.6170    0.6250  -17.2210 H   0  0  0  0  0  0  0  0  0  0  0  0
   -7.7390   -1.6710  -18.5830 H   0  0  0  0  0  0  0  0  0  0  0  0
   -7.9720   -2.3190  -20.8550 H   0  0  0  0  0  0  0  0  0  0  0  0
   -6.8610   -1.7850  -22.1090 H   0  0  0  0  0  0  0  0  0  0  0  0
  -10.7710   -0.0340  -22.5640 C   0  0  0  0  0  0  0  0  0  0  0  0
  -12.1000   -0.7870  -22.6500 C   0  0  0  0  0  0  0  0  0  0  0  0
  -12.2480   -1.4530  -21.7910 H   0  0  0  0  0  0  0  0  0  0  0  0
  -12.9260   -0.0640  -22.6710 H   0  0  0  0  0  0  0  0  0  0  0  0
  -10.7150    0.6900  -21.7450 H   0  0  0  0  0  0  0  0  0  0  0  0
  -10.5990    0.5270  -23.4960 H   0  0  0  0  0  0  0  0  0  0  0  0
  -10.2960   -2.9580  -22.0070 H   0  0  0  0  0  0  0  0  0  0  0  0
   -8.8770   -2.7690  -23.0500 H   0  0  0  0  0  0  0  0  0  0  0  0
  -10.8680   -3.4170  -24.3840 H   0  0  0  0  0  0  0  0  0  0  0  0
  -10.2040   -1.8400  -24.8630 H   0  0  0  0  0  0  0  0  0  0  0  0
  -12.3070   -1.0710  -24.7780 H   0  0  0  0  0  0  0  0  0  0  0  0
  -13.1740   -3.2970  -24.8240 H   0  0  0  0  0  0  0  0  0  0  0  0
  -13.4700   -3.3010  -21.7710 H   0  0  0  0  0  0  0  0  0  0  0  0
  -14.0100   -4.5350  -22.9100 H   0  0  0  0  0  0  0  0  0  0  0  0
  -12.2790   -4.2690  -22.6650 H   0  0  0  0  0  0  0  0  0  0  0  0
  1  2  1  0  0  0  0
  1 44  1  0  0  0  0
  1 45  1  0  0  0  0
  1 46  1  0  0  0  0
  2  3  1  0  0  0  0
  2  7  1  0  0  0  0
  2 43  1  0  0  0  0
  3  4  1  0  0  0  0
  3  5  1  0  0  0  0
  3  6  1  0  0  0  0
  7  8  1  0  0  0  0
  7 33  1  0  0  0  0
  7 42  1  0  0  0  0
  8  9  1  0  0  0  0
  8 40  1  0  0  0  0
  8 41  1  0  0  0  0
  9 10  1  0  0  0  0
  9 38  1  0  0  0  0
  9 39  1  0  0  0  0
 10 11  1  0  0  0  0
 10 32  1  0  0  0  0
 11 12  2  0  0  0  0
 11 13  1  0  0  0  0
 13 14  1  0  0  0  0
 13 30  1  0  0  0  0
 13 31  1  0  0  0  0
 14 15  2  0  0  0  0
 14 23  1  0  0  0  0
 15 16  1  0  0  0  0
 15 29  1  0  0  0  0
 16 17  2  0  0  0  0
 17 18  1  0  0  0  0
 17 28  1  0  0  0  0
 18 19  2  0  0  0  0
 18 23  1  0  0  0  0
 19 20  1  0  0  0  0
 19 27  1  0  0  0  0
 20 21  2  0  0  0  0
 20 26  1  0  0  0  0
 21 22  1  0  0  0  0
 21 25  1  0  0  0  0
 22 23  2  0  0  0  0
 22 24  1  0  0  0  0
 32 33  1  0  0  0  0
 32 36  1  0  0  0  0
 32 37  1  0  0  0  0
 33 34  1  0  0  0  0
 33 35  1  0  0  0  0
M  END
>  <MODEL>
       1

$$$$
