tmp_first_model_7_32.pdb
 OpenBabel08272520323D

 57 62  0  0  1  0  0  0  0  0999 V2000
  -10.1360   -2.0660  -23.5000 C   0  0  0  0  0  0  0  0  0  0  0  0
   -8.8170   -1.3660  -23.2210 C   0  0  1  0  0  0  0  0  0  0  0  0
   -8.5410   -1.1890  -21.7280 C   0  0  0  0  0  0  0  0  0  0  0  0
   -7.1040   -0.9410  -21.7020 N   0  0  0  0  0  0  0  0  0  0  0  0
   -6.4390   -0.4920  -20.5440 C   0  0  0  0  0  0  0  0  0  0  0  0
   -6.8990   -0.8170  -19.2850 C   0  0  0  0  0  0  0  0  0  0  0  0
   -6.2450   -0.5350  -18.1330 N   0  0  0  0  0  0  0  0  0  0  0  0
   -5.1270    0.1400  -18.2190 C   0  0  0  0  0  0  0  0  0  0  0  0
   -4.5910    0.6280  -19.4430 C   0  0  0  0  0  0  0  0  0  0  0  0
   -3.4080    1.4160  -19.4800 C   0  0  0  0  0  0  0  0  0  0  0  0
   -2.9540    1.9270  -20.6640 C   0  0  0  0  0  0  0  0  0  0  0  0
   -3.6660    1.6880  -21.8590 C   0  0  0  0  0  0  0  0  0  0  0  0
   -4.8140    0.9370  -21.8490 C   0  0  0  0  0  0  0  0  0  0  0  0
   -5.2790    0.3480  -20.6400 C   0  0  0  0  0  0  0  0  0  0  0  0
   -5.3640    0.7850  -22.7700 H   0  0  0  0  0  0  0  0  0  0  0  0
   -3.3110    2.1110  -22.7940 H   0  0  0  0  0  0  0  0  0  0  0  0
   -2.0600    2.5430  -20.6920 H   0  0  0  0  0  0  0  0  0  0  0  0
   -2.8990    1.6280  -18.5440 H   0  0  0  0  0  0  0  0  0  0  0  0
   -4.5930    0.3380  -17.2890 H   0  0  0  0  0  0  0  0  0  0  0  0
   -7.8360   -1.3560  -19.1630 H   0  0  0  0  0  0  0  0  0  0  0  0
   -6.4690   -1.5700  -22.7720 C   0  0  0  0  0  0  0  0  0  0  0  0
   -5.2750   -1.7750  -22.8480 O   0  0  0  0  0  0  0  0  0  0  0  0
   -7.5450   -2.0780  -23.7650 C   0  0  1  0  0  0  0  0  0  0  0  0
   -7.6240   -3.6130  -23.5400 C   0  0  0  0  0  0  0  0  0  0  0  0
   -6.4740   -4.3020  -24.0990 N   0  0  0  0  0  0  0  0  0  0  0  0
   -5.7480   -5.2760  -23.2980 C   0  0  0  0  0  0  0  0  0  0  0  0
   -6.6960   -6.1360  -22.5230 C   0  0  0  0  0  0  0  0  0  0  0  0
   -6.9230   -6.1330  -21.2310 N   0  0  0  0  0  0  0  0  0  0  0  0
   -7.9850   -6.9470  -21.0450 N   0  0  0  0  0  0  0  0  0  0  0  0
   -8.3970   -7.4370  -22.1580 N   0  0  0  0  0  0  0  0  0  0  0  0
   -7.5770   -6.9640  -23.1070 N   0  0  0  0  0  0  0  0  0  0  0  0
   -7.7360   -7.2810  -24.5100 C   0  0  0  0  0  0  0  0  0  0  0  0
   -8.3610   -6.5410  -25.0210 H   0  0  0  0  0  0  0  0  0  0  0  0
   -8.1880   -8.2660  -24.6010 H   0  0  0  0  0  0  0  0  0  0  0  0
   -6.7520   -7.2960  -24.9810 H   0  0  0  0  0  0  0  0  0  0  0  0
   -5.0740   -4.7610  -22.6020 H   0  0  0  0  0  0  0  0  0  0  0  0
   -5.1690   -5.8790  -24.0080 H   0  0  0  0  0  0  0  0  0  0  0  0
   -6.1230   -4.1170  -25.4010 C   0  0  0  0  0  0  0  0  0  0  0  0
   -5.4320   -4.9110  -26.0240 O   0  0  0  0  0  0  0  0  0  0  0  0
   -6.6530   -2.8590  -26.0150 C   0  0  0  0  0  0  0  0  0  0  0  0
   -6.5250   -2.7560  -27.3960 C   0  0  0  0  0  0  0  0  0  0  0  0
   -7.0090   -1.6560  -28.0730 C   0  0  0  0  0  0  0  0  0  0  0  0
   -7.5790   -0.6410  -27.3150 C   0  0  0  0  0  0  0  0  0  0  0  0
   -8.0540    0.4450  -27.9500 F   0  0  0  0  0  0  0  0  0  0  0  0
   -7.6980   -0.7040  -25.9390 C   0  0  0  0  0  0  0  0  0  0  0  0
   -7.2710   -1.8530  -25.2500 C   0  0  0  0  0  0  0  0  0  0  0  0
   -8.1310    0.1500  -25.4300 H   0  0  0  0  0  0  0  0  0  0  0  0
   -6.9480   -1.5710  -29.1510 H   0  0  0  0  0  0  0  0  0  0  0  0
   -6.0500   -3.5780  -27.9190 H   0  0  0  0  0  0  0  0  0  0  0  0
   -7.6590   -3.8300  -22.4710 H   0  0  0  0  0  0  0  0  0  0  0  0
   -8.5330   -4.0010  -24.0180 H   0  0  0  0  0  0  0  0  0  0  0  0
   -9.0870   -0.3520  -21.2860 H   0  0  0  0  0  0  0  0  0  0  0  0
   -8.8130   -2.1050  -21.1750 H   0  0  0  0  0  0  0  0  0  0  0  0
   -8.8400   -0.3580  -23.6480 H   0  0  0  0  0  0  0  0  0  0  0  0
  -10.1840   -3.0180  -22.9570 H   0  0  0  0  0  0  0  0  0  0  0  0
  -10.2490   -2.2810  -24.5680 H   0  0  0  0  0  0  0  0  0  0  0  0
  -10.9840   -1.4570  -23.1740 H   0  0  0  0  0  0  0  0  0  0  0  0
  1  2  1  0  0  0  0
  1 55  1  0  0  0  0
  1 56  1  0  0  0  0
  1 57  1  0  0  0  0
  2  3  1  0  0  0  0
  2 23  1  0  0  0  0
  2 54  1  6  0  0  0
  3  4  1  0  0  0  0
  3 52  1  0  0  0  0
  3 53  1  0  0  0  0
  4  5  1  0  0  0  0
  4 21  1  0  0  0  0
  5  6  2  0  0  0  0
  5 14  1  0  0  0  0
  6  7  1  0  0  0  0
  6 20  1  0  0  0  0
  7  8  2  0  0  0  0
  8  9  1  0  0  0  0
  8 19  1  0  0  0  0
  9 10  2  0  0  0  0
  9 14  1  0  0  0  0
 10 11  1  0  0  0  0
 10 18  1  0  0  0  0
 11 12  2  0  0  0  0
 11 17  1  0  0  0  0
 12 13  1  0  0  0  0
 12 16  1  0  0  0  0
 13 14  2  0  0  0  0
 13 15  1  0  0  0  0
 21 22  2  0  0  0  0
 23 21  1  1  0  0  0
 23 24  1  0  0  0  0
 23 46  1  0  0  0  0
 24 25  1  0  0  0  0
 24 50  1  0  0  0  0
 24 51  1  0  0  0  0
 25 26  1  0  0  0  0
 25 38  1  0  0  0  0
 26 27  1  0  0  0  0
 26 36  1  0  0  0  0
 26 37  1  0  0  0  0
 27 28  2  0  0  0  0
 27 31  1  0  0  0  0
 28 29  1  0  0  0  0
 29 30  2  0  0  0  0
 30 31  1  0  0  0  0
 31 32  1  0  0  0  0
 32 33  1  0  0  0  0
 32 34  1  0  0  0  0
 32 35  1  0  0  0  0
 38 39  2  0  0  0  0
 38 40  1  0  0  0  0
 40 41  2  0  0  0  0
 40 46  1  0  0  0  0
 41 42  1  0  0  0  0
 41 49  1  0  0  0  0
 42 43  2  0  0  0  0
 42 48  1  0  0  0  0
 43 44  1  0  0  0  0
 43 45  1  0  0  0  0
 45 46  2  0  0  0  0
 45 47  1  0  0  0  0
M  END
>  <MODEL>
       1

$$$$
