tmp_first_model_1_28.pdb
 OpenBabel08272517043D

 64 68  0  0  1  0  0  0  0  0999 V2000
   -7.4350    0.5110  -29.5230 C   0  0  0  0  0  0  0  0  0  0  0  0
   -7.6870   -0.5660  -28.5900 N   0  0  0  0  0  0  0  0  0  0  0  0
   -6.7780   -0.8750  -27.6280 C   0  0  0  0  0  0  0  0  0  0  0  0
   -5.7140   -0.2940  -27.5050 O   0  0  0  0  0  0  0  0  0  0  0  0
   -7.1720   -2.0470  -26.7140 C   0  0  0  0  0  0  0  0  0  0  0  0
   -8.0060   -1.6540  -25.5860 N   0  0  0  0  0  0  0  0  0  0  0  0
   -7.4100   -1.3170  -24.2870 C   0  0  0  0  0  0  0  0  0  0  0  0
   -8.1940   -1.9120  -23.0600 C   0  0  2  0  0  0  0  0  0  0  0  0
   -7.8230   -1.0940  -21.8120 C   0  0  0  0  0  0  0  0  0  0  0  0
   -8.2160    0.0080  -21.4980 O   0  0  0  0  0  0  0  0  0  0  0  0
   -6.8710   -1.7960  -21.1000 N   0  0  0  0  0  0  0  0  0  0  0  0
   -6.2060   -1.1170  -20.0500 C   0  0  0  0  0  0  0  0  0  0  0  0
   -6.6380   -1.2800  -18.7630 C   0  0  0  0  0  0  0  0  0  0  0  0
   -6.1040   -0.6480  -17.6900 N   0  0  0  0  0  0  0  0  0  0  0  0
   -5.1290    0.2030  -17.9090 C   0  0  0  0  0  0  0  0  0  0  0  0
   -4.6020    0.4890  -19.2020 C   0  0  0  0  0  0  0  0  0  0  0  0
   -3.5620    1.4360  -19.3960 C   0  0  0  0  0  0  0  0  0  0  0  0
   -3.0970    1.7050  -20.6540 C   0  0  0  0  0  0  0  0  0  0  0  0
   -3.6580    1.0520  -21.7750 C   0  0  0  0  0  0  0  0  0  0  0  0
   -4.6690    0.1390  -21.6150 C   0  0  0  0  0  0  0  0  0  0  0  0
   -5.1600   -0.1770  -20.3160 C   0  0  0  0  0  0  0  0  0  0  0  0
   -5.1130   -0.3420  -22.4830 H   0  0  0  0  0  0  0  0  0  0  0  0
   -3.2950    1.2840  -22.7710 H   0  0  0  0  0  0  0  0  0  0  0  0
   -2.3030    2.4320  -20.8050 H   0  0  0  0  0  0  0  0  0  0  0  0
   -3.1600    1.9480  -18.5260 H   0  0  0  0  0  0  0  0  0  0  0  0
   -4.7130    0.7240  -17.0450 H   0  0  0  0  0  0  0  0  0  0  0  0
   -7.4770   -1.9430  -18.5600 H   0  0  0  0  0  0  0  0  0  0  0  0
   -6.5030   -3.0680  -21.7010 C   0  0  0  0  0  0  0  0  0  0  0  0
   -7.6990   -3.3360  -22.6280 C   0  0  2  0  0  0  0  0  0  0  0  0
   -7.4240   -4.3050  -23.7770 C   0  0  0  0  0  0  0  0  0  0  0  0
   -7.4050   -6.0180  -23.2630 S   0  0  0  0  0  0  0  0  0  0  0  0
   -8.5260   -6.2240  -22.3570 O   0  0  0  0  0  0  0  0  0  0  0  0
   -7.2490   -6.8320  -24.4590 O   0  0  0  0  0  0  0  0  0  0  0  0
   -5.9990   -6.1500  -22.3420 N   0  0  0  0  0  0  0  0  0  0  0  0
   -6.0050   -7.3040  -21.4230 C   0  0  0  0  0  0  0  0  0  0  0  0
   -6.9440   -7.2960  -20.8700 H   0  0  0  0  0  0  0  0  0  0  0  0
   -5.9040   -8.2680  -21.9390 H   0  0  0  0  0  0  0  0  0  0  0  0
   -5.1740   -7.1750  -20.7270 H   0  0  0  0  0  0  0  0  0  0  0  0
   -5.2180   -6.2100  -22.9920 H   0  0  0  0  0  0  0  0  0  0  0  0
   -8.2060   -4.2650  -24.5440 H   0  0  0  0  0  0  0  0  0  0  0  0
   -6.4730   -4.1020  -24.2750 H   0  0  0  0  0  0  0  0  0  0  0  0
   -8.5020   -3.7540  -22.0110 H   0  0  0  0  0  0  0  0  0  0  0  0
   -6.3690   -3.8420  -20.9450 H   0  0  0  0  0  0  0  0  0  0  0  0
   -5.5670   -2.9950  -22.2780 H   0  0  0  0  0  0  0  0  0  0  0  0
   -9.6490   -1.8210  -23.3070 C   0  0  0  0  0  0  0  0  0  0  0  0
  -10.6510   -1.9690  -22.2870 C   0  0  0  0  0  0  0  0  0  0  0  0
  -11.9020   -2.2880  -22.7420 C   0  0  0  0  0  0  0  0  0  0  0  0
  -12.0560   -4.4650  -23.5550 Cl  0  0  0  0  0  0  0  0  0  0  0  0
  -12.1280   -1.9630  -22.9060 C   0  0  0  0  0  0  0  0  0  0  0  0
  -11.4760   -1.1620  -24.6070 C   0  0  0  0  0  0  0  0  0  0  0  0
  -10.1760   -1.4240  -24.5870 C   0  0  0  0  0  0  0  0  0  0  0  0
   -9.3340   -1.4830  -25.8280 C   0  0  0  0  0  0  0  0  0  0  0  0
   -9.8240   -1.4410  -26.9570 O   0  0  0  0  0  0  0  0  0  0  0  0
  -12.0300   -0.7090  -25.4250 H   0  0  0  0  0  0  0  0  0  0  0  0
  -13.0360   -1.3620  -23.2460 H   0  0  0  0  0  0  0  0  0  0  0  0
  -10.5980   -2.7110  -21.5690 H   0  0  0  0  0  0  0  0  0  0  0  0
   -7.3870   -0.2290  -24.1530 H   0  0  0  0  0  0  0  0  0  0  0  0
   -6.3780   -1.6670  -24.2820 H   0  0  0  0  0  0  0  0  0  0  0  0
   -7.7280   -2.8000  -27.2820 H   0  0  0  0  0  0  0  0  0  0  0  0
   -6.2490   -2.4970  -26.3420 H   0  0  0  0  0  0  0  0  0  0  0  0
   -8.6280   -0.9240  -28.4800 H   0  0  0  0  0  0  0  0  0  0  0  0
   -6.3690    0.5370  -29.7570 H   0  0  0  0  0  0  0  0  0  0  0  0
   -8.0000    0.3330  -30.4420 H   0  0  0  0  0  0  0  0  0  0  0  0
   -7.7140    1.4880  -29.1120 H   0  0  0  0  0  0  0  0  0  0  0  0
  1  2  1  0  0  0  0
  1 62  1  0  0  0  0
  1 63  1  0  0  0  0
  1 64  1  0  0  0  0
  2  3  1  0  0  0  0
  2 61  1  0  0  0  0
  3  4  2  0  0  0  0
  3  5  1  0  0  0  0
  5  6  1  0  0  0  0
  5 59  1  0  0  0  0
  5 60  1  0  0  0  0
  6  7  1  0  0  0  0
  6 52  1  0  0  0  0
  7  8  1  0  0  0  0
  7 57  1  0  0  0  0
  7 58  1  0  0  0  0
  8  9  1  1  0  0  0
  8 29  1  0  0  0  0
  8 45  1  0  0  0  0
  9 10  2  0  0  0  0
  9 11  1  0  0  0  0
 11 12  1  0  0  0  0
 11 28  1  0  0  0  0
 12 13  2  0  0  0  0
 12 21  1  0  0  0  0
 13 14  1  0  0  0  0
 13 27  1  0  0  0  0
 14 15  2  0  0  0  0
 15 16  1  0  0  0  0
 15 26  1  0  0  0  0
 16 17  2  0  0  0  0
 16 21  1  0  0  0  0
 17 18  1  0  0  0  0
 17 25  1  0  0  0  0
 18 19  2  0  0  0  0
 18 24  1  0  0  0  0
 19 20  1  0  0  0  0
 19 23  1  0  0  0  0
 20 21  2  0  0  0  0
 20 22  1  0  0  0  0
 28 29  1  0  0  0  0
 28 43  1  0  0  0  0
 28 44  1  0  0  0  0
 29 30  1  0  0  0  0
 29 42  1  1  0  0  0
 30 31  1  0  0  0  0
 30 40  1  0  0  0  0
 30 41  1  0  0  0  0
 31 32  2  0  0  0  0
 31 33  2  0  0  0  0
 31 34  1  0  0  0  0
 34 35  1  0  0  0  0
 34 39  1  0  0  0  0
 35 36  1  0  0  0  0
 35 37  1  0  0  0  0
 35 38  1  0  0  0  0
 45 46  2  0  0  0  0
 45 51  1  0  0  0  0
 46 47  1  0  0  0  0
 46 56  1  0  0  0  0
 47 48  1  0  0  0  0
 47 49  2  0  0  0  0
 49 50  1  0  0  0  0
 49 55  1  0  0  0  0
 50 51  2  0  0  0  0
 50 54  1  0  0  0  0
 51 52  1  0  0  0  0
 52 53  2  0  0  0  0
M  END
>  <MODEL>
       1

$$$$
