tmp_first_model_5_37.pdb
 OpenBabel08272519233D

 56 60  0  0  1  0  0  0  0  0999 V2000
   -7.2650    3.3750  -21.8720 C   0  0  0  0  0  0  0  0  0  0  0  0
   -8.1170    2.9350  -22.9650 N   0  0  0  0  0  0  0  0  0  0  0  0
   -7.5570    2.2440  -23.9930 C   0  0  0  0  0  0  0  0  0  0  0  0
   -6.3500    2.0800  -24.0910 O   0  0  0  0  0  0  0  0  0  0  0  0
   -8.5400    1.6600  -25.0170 C   0  0  0  0  0  0  0  0  0  0  0  0
   -9.2510    0.5230  -24.4560 N   0  0  0  0  0  0  0  0  0  0  0  0
   -8.5220   -0.7230  -24.2570 C   0  0  0  0  0  0  0  0  0  0  0  0
   -8.9660   -1.4630  -22.9700 C   0  0  2  0  0  0  0  0  0  0  0  0
   -8.4460   -0.7280  -21.7130 C   0  0  0  0  0  0  0  0  0  0  0  0
   -8.8400    0.3180  -21.2350 O   0  0  0  0  0  0  0  0  0  0  0  0
   -7.4110   -1.4640  -21.1850 N   0  0  0  0  0  0  0  0  0  0  0  0
   -6.5570   -0.9420  -20.1900 C   0  0  0  0  0  0  0  0  0  0  0  0
   -6.8390   -1.1320  -18.8660 C   0  0  0  0  0  0  0  0  0  0  0  0
   -5.9720   -0.8680  -17.8590 N   0  0  0  0  0  0  0  0  0  0  0  0
   -4.8000   -0.3880  -18.2010 C   0  0  0  0  0  0  0  0  0  0  0  0
   -4.4280   -0.0430  -19.5340 C   0  0  0  0  0  0  0  0  0  0  0  0
   -3.2520    0.6990  -19.8300 C   0  0  0  0  0  0  0  0  0  0  0  0
   -3.1540    1.4030  -20.9980 C   0  0  0  0  0  0  0  0  0  0  0  0
   -4.0840    1.1700  -22.0440 C   0  0  0  0  0  0  0  0  0  0  0  0
   -5.1130    0.2820  -21.8530 C   0  0  0  0  0  0  0  0  0  0  0  0
   -5.3700   -0.2490  -20.5580 C   0  0  0  0  0  0  0  0  0  0  0  0
   -5.7440   -0.0040  -22.6890 H   0  0  0  0  0  0  0  0  0  0  0  0
   -3.9650    1.6650  -23.0020 H   0  0  0  0  0  0  0  0  0  0  0  0
   -2.2830    2.0240  -21.1870 H   0  0  0  0  0  0  0  0  0  0  0  0
   -2.5110    0.8050  -19.0470 H   0  0  0  0  0  0  0  0  0  0  0  0
   -4.0970   -0.1680  -17.4000 H   0  0  0  0  0  0  0  0  0  0  0  0
   -7.8100   -1.5200  -18.5770 H   0  0  0  0  0  0  0  0  0  0  0  0
   -7.0490   -2.6470  -21.9350 C   0  0  0  0  0  0  0  0  0  0  0  0
   -8.2710   -2.8610  -22.8370 C   0  0  2  0  0  0  0  0  0  0  0  0
   -7.9120   -3.5920  -24.1250 C   0  0  0  0  0  0  0  0  0  0  0  0
   -7.1530   -3.0430  -24.6940 H   0  0  0  0  0  0  0  0  0  0  0  0
   -7.4940   -4.5760  -23.8920 H   0  0  0  0  0  0  0  0  0  0  0  0
   -8.7820   -3.7380  -24.7730 H   0  0  0  0  0  0  0  0  0  0  0  0
   -8.9600   -3.5010  -22.2800 H   0  0  0  0  0  0  0  0  0  0  0  0
   -6.1280   -2.5020  -22.5270 H   0  0  0  0  0  0  0  0  0  0  0  0
   -6.8720   -3.5010  -21.2650 H   0  0  0  0  0  0  0  0  0  0  0  0
  -10.4800   -1.5210  -22.9680 C   0  0  0  0  0  0  0  0  0  0  0  0
  -11.1610   -2.4170  -22.1360 C   0  0  0  0  0  0  0  0  0  0  0  0
  -12.5110   -2.6520  -22.3180 C   0  0  0  0  0  0  0  0  0  0  0  0
  -13.2250   -1.9230  -23.2710 C   0  0  0  0  0  0  0  0  0  0  0  0
  -12.6070   -0.8900  -23.9500 C   0  0  0  0  0  0  0  0  0  0  0  0
  -11.2460   -0.6550  -23.7590 C   0  0  0  0  0  0  0  0  0  0  0  0
  -10.6180    0.5540  -24.3920 C   0  0  0  0  0  0  0  0  0  0  0  0
  -11.2780    1.4930  -24.8160 O   0  0  0  0  0  0  0  0  0  0  0  0
  -13.1590   -0.2690  -24.6460 H   0  0  0  0  0  0  0  0  0  0  0  0
  -14.2800   -2.1160  -23.4200 H   0  0  0  0  0  0  0  0  0  0  0  0
  -13.0030   -3.4330  -21.7450 H   0  0  0  0  0  0  0  0  0  0  0  0
  -10.6360   -2.9550  -21.3500 H   0  0  0  0  0  0  0  0  0  0  0  0
   -8.6930   -1.3810  -25.1190 H   0  0  0  0  0  0  0  0  0  0  0  0
   -7.4520   -0.5000  -24.2140 H   0  0  0  0  0  0  0  0  0  0  0  0
   -7.9680    1.3600  -25.9020 H   0  0  0  0  0  0  0  0  0  0  0  0
   -9.2890    2.3980  -25.3240 H   0  0  0  0  0  0  0  0  0  0  0  0
   -9.0940    2.7800  -22.7630 H   0  0  0  0  0  0  0  0  0  0  0  0
   -6.7320    2.5260  -21.4190 H   0  0  0  0  0  0  0  0  0  0  0  0
   -6.5260    4.0870  -22.2480 H   0  0  0  0  0  0  0  0  0  0  0  0
   -7.8730    3.8730  -21.1160 H   0  0  0  0  0  0  0  0  0  0  0  0
  1  2  1  0  0  0  0
  1 54  1  0  0  0  0
  1 55  1  0  0  0  0
  1 56  1  0  0  0  0
  2  3  1  0  0  0  0
  2 53  1  0  0  0  0
  3  4  2  0  0  0  0
  3  5  1  0  0  0  0
  5  6  1  0  0  0  0
  5 51  1  0  0  0  0
  5 52  1  0  0  0  0
  6  7  1  0  0  0  0
  6 43  1  0  0  0  0
  7  8  1  0  0  0  0
  7 49  1  0  0  0  0
  7 50  1  0  0  0  0
  8  9  1  1  0  0  0
  8 29  1  0  0  0  0
  8 37  1  0  0  0  0
  9 10  2  0  0  0  0
  9 11  1  0  0  0  0
 11 12  1  0  0  0  0
 11 28  1  0  0  0  0
 12 13  2  0  0  0  0
 12 21  1  0  0  0  0
 13 14  1  0  0  0  0
 13 27  1  0  0  0  0
 14 15  2  0  0  0  0
 15 16  1  0  0  0  0
 15 26  1  0  0  0  0
 16 17  2  0  0  0  0
 16 21  1  0  0  0  0
 17 18  1  0  0  0  0
 17 25  1  0  0  0  0
 18 19  2  0  0  0  0
 18 24  1  0  0  0  0
 19 20  1  0  0  0  0
 19 23  1  0  0  0  0
 20 21  2  0  0  0  0
 20 22  1  0  0  0  0
 28 29  1  0  0  0  0
 28 35  1  0  0  0  0
 28 36  1  0  0  0  0
 29 30  1  0  0  0  0
 29 34  1  1  0  0  0
 30 31  1  0  0  0  0
 30 32  1  0  0  0  0
 30 33  1  0  0  0  0
 37 38  2  0  0  0  0
 37 42  1  0  0  0  0
 38 39  1  0  0  0  0
 38 48  1  0  0  0  0
 39 40  2  0  0  0  0
 39 47  1  0  0  0  0
 40 41  1  0  0  0  0
 40 46  1  0  0  0  0
 41 42  2  0  0  0  0
 41 45  1  0  0  0  0
 42 43  1  0  0  0  0
 43 44  2  0  0  0  0
M  END
>  <MODEL>
       1

$$$$
