tmp_first_model_14_66.pdb
 OpenBabel08282500413D

 44 47  0  0  1  0  0  0  0  0999 V2000
   -7.8630   -0.6300  -24.9380 C   0  0  0  0  0  0  0  0  0  0  0  0
   -8.3870   -2.0410  -25.1090 C   0  0  0  0  0  0  0  0  0  0  0  0
   -8.3360   -2.8820  -23.8280 C   0  0  1  0  0  0  0  0  0  0  0  0
   -8.8930   -4.2590  -24.0820 C   0  0  0  0  0  0  0  0  0  0  0  0
  -10.2730   -4.5620  -24.3010 C   0  0  0  0  0  0  0  0  0  0  0  0
  -10.4690   -5.8770  -24.5910 C   0  0  0  0  0  0  0  0  0  0  0  0
   -8.9920   -6.7730  -24.5660 S   0  0  0  0  0  0  0  0  0  0  0  0
   -8.0860   -5.3520  -24.1790 C   0  0  0  0  0  0  0  0  0  0  0  0
   -6.6070   -5.3350  -23.9370 C   0  0  0  0  0  0  0  0  0  0  0  0
   -6.0950   -3.8950  -23.9600 C   0  0  0  0  0  0  0  0  0  0  0  0
   -6.9910   -2.9800  -23.2490 N   0  0  0  0  0  0  0  0  0  0  0  0
   -6.6860   -2.6720  -21.9330 C   0  0  0  0  0  0  0  0  0  0  0  0
   -5.8360   -3.2870  -21.3140 O   0  0  0  0  0  0  0  0  0  0  0  0
   -7.4050   -1.4690  -21.2780 C   0  0  0  0  0  0  0  0  0  0  0  0
   -6.5810   -0.8280  -20.1850 C   0  0  0  0  0  0  0  0  0  0  0  0
   -6.8740   -1.0420  -18.8640 C   0  0  0  0  0  0  0  0  0  0  0  0
   -6.1950   -0.5160  -17.8110 N   0  0  0  0  0  0  0  0  0  0  0  0
   -5.1540    0.2310  -18.0700 C   0  0  0  0  0  0  0  0  0  0  0  0
   -4.7170    0.5330  -19.3870 C   0  0  0  0  0  0  0  0  0  0  0  0
   -3.5890    1.3600  -19.6240 C   0  0  0  0  0  0  0  0  0  0  0  0
   -3.1910    1.6380  -20.9030 C   0  0  0  0  0  0  0  0  0  0  0  0
   -3.9070    1.0960  -21.9940 C   0  0  0  0  0  0  0  0  0  0  0  0
   -5.0030    0.2950  -21.7870 C   0  0  0  0  0  0  0  0  0  0  0  0
   -5.4460   -0.0070  -20.4730 C   0  0  0  0  0  0  0  0  0  0  0  0
   -5.5350   -0.1120  -22.6410 H   0  0  0  0  0  0  0  0  0  0  0  0
   -3.5860    1.3230  -23.0050 H   0  0  0  0  0  0  0  0  0  0  0  0
   -2.3330    2.2770  -21.0890 H   0  0  0  0  0  0  0  0  0  0  0  0
   -3.0530    1.7750  -18.7740 H   0  0  0  0  0  0  0  0  0  0  0  0
   -4.6000    0.6290  -17.2170 H   0  0  0  0  0  0  0  0  0  0  0  0
   -7.7180   -1.6700  -18.5850 H   0  0  0  0  0  0  0  0  0  0  0  0
   -7.6870   -0.7160  -22.0270 H   0  0  0  0  0  0  0  0  0  0  0  0
   -8.3430   -1.8360  -20.8400 H   0  0  0  0  0  0  0  0  0  0  0  0
   -6.0030   -3.5640  -25.0000 H   0  0  0  0  0  0  0  0  0  0  0  0
   -5.1000   -3.8270  -23.5190 H   0  0  0  0  0  0  0  0  0  0  0  0
   -6.3960   -5.7710  -22.9550 H   0  0  0  0  0  0  0  0  0  0  0  0
   -6.0680   -5.9540  -24.6660 H   0  0  0  0  0  0  0  0  0  0  0  0
  -11.4110   -6.3840  -24.7490 H   0  0  0  0  0  0  0  0  0  0  0  0
  -11.0790   -3.8330  -24.2520 H   0  0  0  0  0  0  0  0  0  0  0  0
   -8.9880   -2.4010  -23.0920 H   0  0  0  0  0  0  0  0  0  0  0  0
   -7.8400   -2.5690  -25.8930 H   0  0  0  0  0  0  0  0  0  0  0  0
   -9.4250   -2.0180  -25.4590 H   0  0  0  0  0  0  0  0  0  0  0  0
   -7.9250   -0.0740  -25.8750 H   0  0  0  0  0  0  0  0  0  0  0  0
   -6.8190   -0.6390  -24.6160 H   0  0  0  0  0  0  0  0  0  0  0  0
   -8.4460   -0.0840  -24.1900 H   0  0  0  0  0  0  0  0  0  0  0  0
  1  2  1  0  0  0  0
  1 42  1  0  0  0  0
  1 43  1  0  0  0  0
  1 44  1  0  0  0  0
  2  3  1  0  0  0  0
  2 40  1  0  0  0  0
  2 41  1  0  0  0  0
  3  4  1  0  0  0  0
  3 11  1  0  0  0  0
  3 39  1  1  0  0  0
  4  5  1  0  0  0  0
  4  8  2  0  0  0  0
  5  6  2  0  0  0  0
  5 38  1  0  0  0  0
  6  7  1  0  0  0  0
  6 37  1  0  0  0  0
  7  8  1  0  0  0  0
  8  9  1  0  0  0  0
  9 10  1  0  0  0  0
  9 35  1  0  0  0  0
  9 36  1  0  0  0  0
 10 11  1  0  0  0  0
 10 33  1  0  0  0  0
 10 34  1  0  0  0  0
 11 12  1  0  0  0  0
 12 13  2  0  0  0  0
 12 14  1  0  0  0  0
 14 15  1  0  0  0  0
 14 31  1  0  0  0  0
 14 32  1  0  0  0  0
 15 16  2  0  0  0  0
 15 24  1  0  0  0  0
 16 17  1  0  0  0  0
 16 30  1  0  0  0  0
 17 18  2  0  0  0  0
 18 19  1  0  0  0  0
 18 29  1  0  0  0  0
 19 20  2  0  0  0  0
 19 24  1  0  0  0  0
 20 21  1  0  0  0  0
 20 28  1  0  0  0  0
 21 22  2  0  0  0  0
 21 27  1  0  0  0  0
 22 23  1  0  0  0  0
 22 26  1  0  0  0  0
 23 24  2  0  0  0  0
 23 25  1  0  0  0  0
M  END
>  <MODEL>
       1

$$$$
