tmp_first_model_4_51.pdb
 OpenBabel08272518513D

 50 52  0  0  0  0  0  0  0  0999 V2000
  -11.5940   -0.2640  -25.0490 C   0  0  0  0  0  0  0  0  0  0  0  0
  -10.8000   -0.0010  -24.0150 C   0  0  0  0  0  0  0  0  0  0  0  0
  -10.6960   -0.9350  -22.8260 C   0  0  0  0  0  0  0  0  0  0  0  0
   -9.3390   -1.4140  -22.5720 N   0  0  0  0  0  0  0  0  0  0  0  0
   -8.6390   -0.8660  -21.5130 C   0  0  0  0  0  0  0  0  0  0  0  0
   -9.1170    0.0050  -20.7910 O   0  0  0  0  0  0  0  0  0  0  0  0
   -7.3770   -1.3650  -21.3330 N   0  0  0  0  0  0  0  0  0  0  0  0
   -6.5320   -0.9650  -20.2710 C   0  0  0  0  0  0  0  0  0  0  0  0
   -6.8140   -1.2520  -18.9610 C   0  0  0  0  0  0  0  0  0  0  0  0
   -5.9600   -1.0020  -17.9360 N   0  0  0  0  0  0  0  0  0  0  0  0
   -4.8300   -0.3960  -18.2010 C   0  0  0  0  0  0  0  0  0  0  0  0
   -4.4610    0.0320  -19.5070 C   0  0  0  0  0  0  0  0  0  0  0  0
   -3.2930    0.7960  -19.7560 C   0  0  0  0  0  0  0  0  0  0  0  0
   -3.0710    1.3260  -21.0000 C   0  0  0  0  0  0  0  0  0  0  0  0
   -3.9530    1.0490  -22.0690 C   0  0  0  0  0  0  0  0  0  0  0  0
   -5.0550    0.2560  -21.8660 C   0  0  0  0  0  0  0  0  0  0  0  0
   -5.3460   -0.2390  -20.5710 C   0  0  0  0  0  0  0  0  0  0  0  0
   -5.7170    0.0020  -22.6910 H   0  0  0  0  0  0  0  0  0  0  0  0
   -3.7680    1.4740  -23.0510 H   0  0  0  0  0  0  0  0  0  0  0  0
   -2.2310    1.9930  -21.1650 H   0  0  0  0  0  0  0  0  0  0  0  0
   -2.6520    1.0190  -18.9100 H   0  0  0  0  0  0  0  0  0  0  0  0
   -4.1480   -0.1910  -17.3710 H   0  0  0  0  0  0  0  0  0  0  0  0
   -7.7490   -1.7480  -18.7060 H   0  0  0  0  0  0  0  0  0  0  0  0
   -7.0190   -2.0100  -22.0230 H   0  0  0  0  0  0  0  0  0  0  0  0
   -8.7330   -2.1980  -23.6030 C   0  0  0  0  0  0  0  0  0  0  0  0
   -9.1700   -3.4970  -23.8550 C   0  0  0  0  0  0  0  0  0  0  0  0
   -8.5770   -4.2400  -24.8710 C   0  0  0  0  0  0  0  0  0  0  0  0
   -7.5760   -3.6970  -25.6690 C   0  0  0  0  0  0  0  0  0  0  0  0
   -7.1860   -2.3850  -25.4360 C   0  0  0  0  0  0  0  0  0  0  0  0
   -5.9610   -1.6650  -26.4450 Cl  0  0  0  0  0  0  0  0  0  0  0  0
   -7.7540   -1.6300  -24.4180 C   0  0  0  0  0  0  0  0  0  0  0  0
   -7.4480   -0.5970  -24.2710 H   0  0  0  0  0  0  0  0  0  0  0  0
   -7.1270   -4.2700  -26.4750 H   0  0  0  0  0  0  0  0  0  0  0  0
   -8.9140   -5.2560  -25.0560 H   0  0  0  0  0  0  0  0  0  0  0  0
   -9.9600   -3.9320  -23.2480 H   0  0  0  0  0  0  0  0  0  0  0  0
  -11.3180   -1.8180  -23.0030 H   0  0  0  0  0  0  0  0  0  0  0  0
  -11.0520   -0.4660  -21.9100 H   0  0  0  0  0  0  0  0  0  0  0  0
   -9.9030    1.1990  -24.1630 C   0  0  0  0  0  0  0  0  0  0  0  0
   -9.6530    1.6520  -25.2760 O   0  0  0  0  0  0  0  0  0  0  0  0
   -9.3700    1.7420  -23.0420 N   0  0  0  0  0  0  0  0  0  0  0  0
   -8.1390    2.4960  -23.2010 C   0  0  0  0  0  0  0  0  0  0  0  0
   -7.5010    2.7490  -21.8510 C   0  0  0  0  0  0  0  0  0  0  0  0
   -7.5350    1.8350  -21.2400 H   0  0  0  0  0  0  0  0  0  0  0  0
   -6.4540    3.0320  -21.9690 H   0  0  0  0  0  0  0  0  0  0  0  0
   -7.9880    3.5800  -21.3300 H   0  0  0  0  0  0  0  0  0  0  0  0
   -7.4590    1.9120  -23.8390 H   0  0  0  0  0  0  0  0  0  0  0  0
   -8.3400    3.4310  -23.7340 H   0  0  0  0  0  0  0  0  0  0  0  0
   -9.5300    1.3070  -22.1370 H   0  0  0  0  0  0  0  0  0  0  0  0
  -11.5740    0.3980  -25.9100 H   0  0  0  0  0  0  0  0  0  0  0  0
  -12.2520   -1.1300  -25.0580 H   0  0  0  0  0  0  0  0  0  0  0  0
  1  2  2  0  0  0  0
  1 49  1  0  0  0  0
  1 50  1  0  0  0  0
  2  3  1  0  0  0  0
  2 38  1  0  0  0  0
  3  4  1  0  0  0  0
  3 36  1  0  0  0  0
  3 37  1  0  0  0  0
  4  5  1  0  0  0  0
  4 25  1  0  0  0  0
  5  6  2  0  0  0  0
  5  7  1  0  0  0  0
  7  8  1  0  0  0  0
  7 24  1  0  0  0  0
  8  9  2  0  0  0  0
  8 17  1  0  0  0  0
  9 10  1  0  0  0  0
  9 23  1  0  0  0  0
 10 11  2  0  0  0  0
 11 12  1  0  0  0  0
 11 22  1  0  0  0  0
 12 13  2  0  0  0  0
 12 17  1  0  0  0  0
 13 14  1  0  0  0  0
 13 21  1  0  0  0  0
 14 15  2  0  0  0  0
 14 20  1  0  0  0  0
 15 16  1  0  0  0  0
 15 19  1  0  0  0  0
 16 17  2  0  0  0  0
 16 18  1  0  0  0  0
 25 26  2  0  0  0  0
 25 31  1  0  0  0  0
 26 27  1  0  0  0  0
 26 35  1  0  0  0  0
 27 28  2  0  0  0  0
 27 34  1  0  0  0  0
 28 29  1  0  0  0  0
 28 33  1  0  0  0  0
 29 30  1  0  0  0  0
 29 31  2  0  0  0  0
 31 32  1  0  0  0  0
 38 39  2  0  0  0  0
 38 40  1  0  0  0  0
 40 41  1  0  0  0  0
 40 48  1  0  0  0  0
 41 42  1  0  0  0  0
 41 46  1  0  0  0  0
 41 47  1  0  0  0  0
 42 43  1  0  0  0  0
 42 44  1  0  0  0  0
 42 45  1  0  0  0  0
M  END
>  <MODEL>
       1

$$$$
