tmp_first_model_13_17.pdb
 OpenBabel08282500103D

 38 41  0  0  1  0  0  0  0  0999 V2000
  -11.8750   -3.4270  -24.6650 C   0  0  0  0  0  0  0  0  0  0  0  0
  -10.4620   -2.9820  -24.2830 C   0  0  2  0  0  0  0  0  0  0  0  0
   -9.4910   -4.1590  -24.3110 C   0  0  0  0  0  0  0  0  0  0  0  0
   -8.0540   -3.7130  -24.0340 C   0  0  0  0  0  0  0  0  0  0  0  0
   -7.9930   -2.8090  -22.8870 C   0  0  0  0  0  0  0  0  0  0  0  0
   -6.8420   -2.4280  -22.1220 C   0  0  0  0  0  0  0  0  0  0  0  0
   -5.6910   -2.7980  -22.2060 O   0  5  0  0  0  0  0  0  0  0  0  0
   -7.3500   -1.4700  -21.2000 N   0  0  0  0  0  0  0  0  0  0  0  0
   -6.5790   -0.8420  -20.1830 C   0  0  0  0  0  0  0  0  0  0  0  0
   -6.8890   -1.0510  -18.8640 C   0  0  0  0  0  0  0  0  0  0  0  0
   -6.1870   -0.5390  -17.8210 N   0  0  0  0  0  0  0  0  0  0  0  0
   -5.1560    0.2170  -18.0790 C   0  0  0  0  0  0  0  0  0  0  0  0
   -4.7250    0.5360  -19.3940 C   0  0  0  0  0  0  0  0  0  0  0  0
   -3.5970    1.3690  -19.6300 C   0  0  0  0  0  0  0  0  0  0  0  0
   -3.2180    1.6710  -20.9070 C   0  0  0  0  0  0  0  0  0  0  0  0
   -3.9510    1.1590  -22.0010 C   0  0  0  0  0  0  0  0  0  0  0  0
   -5.0460    0.3590  -21.7960 C   0  0  0  0  0  0  0  0  0  0  0  0
   -5.4590    0.0060  -20.4850 C   0  0  0  0  0  0  0  0  0  0  0  0
   -5.6070   -0.0260  -22.6400 H   0  0  0  0  0  0  0  0  0  0  0  0
   -3.6550    1.4050  -23.0160 H   0  0  0  0  0  0  0  0  0  0  0  0
   -2.3650    2.3180  -21.0940 H   0  0  0  0  0  0  0  0  0  0  0  0
   -3.0580    1.7710  -18.7740 H   0  0  0  0  0  0  0  0  0  0  0  0
   -4.6080    0.6210  -17.2220 H   0  0  0  0  0  0  0  0  0  0  0  0
   -7.7350   -1.6720  -18.5860 H   0  0  0  0  0  0  0  0  0  0  0  0
   -8.7140   -1.2160  -21.4490 C   0  0  0  0  0  0  0  0  0  0  0  0
   -9.4140   -0.3730  -20.9420 O   0  0  0  0  0  0  0  0  0  0  0  0
   -9.0660   -2.1150  -22.4420 N   0  0  0  0  0  0  0  0  0  0  0  0
  -10.4310   -2.3150  -22.9070 C   0  0  0  0  0  0  0  0  0  0  0  0
  -10.9290   -1.3490  -22.9280 H   0  0  0  0  0  0  0  0  0  0  0  0
  -10.9890   -2.9180  -22.1870 H   0  0  0  0  0  0  0  0  0  0  0  0
   -7.6300   -3.2140  -24.9190 H   0  0  0  0  0  0  0  0  0  0  0  0
   -7.3940   -4.5620  -23.8360 H   0  0  0  0  0  0  0  0  0  0  0  0
   -9.8010   -4.8870  -23.5540 H   0  0  0  0  0  0  0  0  0  0  0  0
   -9.5410   -4.6650  -25.2810 H   0  0  0  0  0  0  0  0  0  0  0  0
  -10.1330   -2.2430  -25.0230 H   0  0  0  0  0  0  0  0  0  0  0  0
  -12.2550   -4.1870  -23.9710 H   0  0  0  0  0  0  0  0  0  0  0  0
  -12.5870   -2.5950  -24.6690 H   0  0  0  0  0  0  0  0  0  0  0  0
  -11.8960   -3.8770  -25.6650 H   0  0  0  0  0  0  0  0  0  0  0  0
  1  2  1  0  0  0  0
  1 36  1  0  0  0  0
  1 37  1  0  0  0  0
  1 38  1  0  0  0  0
  2  3  1  0  0  0  0
  2 28  1  0  0  0  0
  2 35  1  6  0  0  0
  3  4  1  0  0  0  0
  3 33  1  0  0  0  0
  3 34  1  0  0  0  0
  4  5  1  0  0  0  0
  4 31  1  0  0  0  0
  4 32  1  0  0  0  0
  5  6  2  0  0  0  0
  5 27  1  0  0  0  0
  6  7  1  0  0  0  0
  6  8  1  0  0  0  0
  8  9  1  0  0  0  0
  8 25  1  0  0  0  0
  9 10  2  0  0  0  0
  9 18  1  0  0  0  0
 10 11  1  0  0  0  0
 10 24  1  0  0  0  0
 11 12  2  0  0  0  0
 12 13  1  0  0  0  0
 12 23  1  0  0  0  0
 13 14  2  0  0  0  0
 13 18  1  0  0  0  0
 14 15  1  0  0  0  0
 14 22  1  0  0  0  0
 15 16  2  0  0  0  0
 15 21  1  0  0  0  0
 16 17  1  0  0  0  0
 16 20  1  0  0  0  0
 17 18  2  0  0  0  0
 17 19  1  0  0  0  0
 25 26  2  0  0  0  0
 25 27  1  0  0  0  0
 27 28  1  0  0  0  0
 28 29  1  0  0  0  0
 28 30  1  0  0  0  0
M  CHG  1   7  -1
M  END
>  <MODEL>
       1

$$$$
