tmp_first_model_8_25.pdb
 OpenBabel08272521063D

 70 75  0  0  1  0  0  0  0  0999 V2000
   -8.0180   -6.5500  -24.4990 O   0  0  0  0  0  0  0  0  0  0  0  0
   -8.0620   -6.0200  -23.4060 C   0  0  0  0  0  0  0  0  0  0  0  0
   -9.2070   -5.1300  -22.9470 C   0  0  0  0  0  0  0  0  0  0  0  0
   -8.8250   -3.7000  -23.1090 N   0  3  1  0  0  0  0  0  0  0  0  0
   -8.4950   -3.4120  -24.5760 C   0  0  0  0  0  0  0  0  0  0  0  0
   -8.1530   -1.9620  -24.7780 C   0  0  0  0  0  0  0  0  0  0  0  0
   -7.3450   -1.5760  -25.8480 C   0  0  0  0  0  0  0  0  0  0  0  0
   -7.0150   -0.2410  -26.0510 C   0  0  0  0  0  0  0  0  0  0  0  0
   -7.5170    0.7240  -25.1800 C   0  0  0  0  0  0  0  0  0  0  0  0
   -7.1030    2.4050  -25.3910 Cl  0  0  0  0  0  0  0  0  0  0  0  0
   -8.3200    0.3590  -24.1120 C   0  0  0  0  0  0  0  0  0  0  0  0
   -8.6380   -0.9850  -23.9120 C   0  0  0  0  0  0  0  0  0  0  0  0
   -9.4380   -1.3060  -22.6800 C   0  0  2  0  0  0  0  0  0  0  0  0
   -8.6900   -0.8440  -21.4380 C   0  0  0  0  0  0  0  0  0  0  0  0
   -9.1500    0.0160  -20.7110 O   0  0  0  0  0  0  0  0  0  0  0  0
   -7.4590   -1.4330  -21.2130 N   0  0  0  0  0  0  0  0  0  0  0  0
   -6.6220   -0.8930  -20.2010 C   0  0  0  0  0  0  0  0  0  0  0  0
   -6.9310   -1.1220  -18.8860 C   0  0  0  0  0  0  0  0  0  0  0  0
   -6.2330   -0.6330  -17.8330 N   0  0  0  0  0  0  0  0  0  0  0  0
   -5.2080    0.1340  -18.1080 C   0  0  0  0  0  0  0  0  0  0  0  0
   -4.7770    0.4630  -19.4230 C   0  0  0  0  0  0  0  0  0  0  0  0
   -3.6790    1.3300  -19.6460 C   0  0  0  0  0  0  0  0  0  0  0  0
   -3.3290    1.6780  -20.9170 C   0  0  0  0  0  0  0  0  0  0  0  0
   -4.0710    1.1900  -22.0160 C   0  0  0  0  0  0  0  0  0  0  0  0
   -5.1250    0.3310  -21.8310 C   0  0  0  0  0  0  0  0  0  0  0  0
   -5.5020   -0.0560  -20.5170 C   0  0  0  0  0  0  0  0  0  0  0  0
   -5.6720   -0.0350  -22.6940 H   0  0  0  0  0  0  0  0  0  0  0  0
   -3.7850    1.4930  -23.0160 H   0  0  0  0  0  0  0  0  0  0  0  0
   -2.4920    2.3460  -21.0850 H   0  0  0  0  0  0  0  0  0  0  0  0
   -3.1540    1.7220  -18.7810 H   0  0  0  0  0  0  0  0  0  0  0  0
   -4.6610    0.5400  -17.2610 H   0  0  0  0  0  0  0  0  0  0  0  0
   -7.7990   -1.7260  -18.6430 H   0  0  0  0  0  0  0  0  0  0  0  0
   -7.0150   -1.8640  -22.0130 H   0  0  0  0  0  0  0  0  0  0  0  0
   -9.8970   -2.7570  -22.6220 C   0  0  0  0  0  0  0  0  0  0  0  0
  -10.7770   -2.8490  -23.2680 H   0  0  0  0  0  0  0  0  0  0  0  0
  -10.1860   -3.0210  -21.6030 H   0  0  0  0  0  0  0  0  0  0  0  0
  -10.3260   -0.6720  -22.6750 H   0  0  0  0  0  0  0  0  0  0  0  0
   -8.6890    1.1110  -23.4180 H   0  0  0  0  0  0  0  0  0  0  0  0
   -6.3890    0.0450  -26.8900 H   0  0  0  0  0  0  0  0  0  0  0  0
   -6.9590   -2.3360  -26.5260 H   0  0  0  0  0  0  0  0  0  0  0  0
   -7.6610   -4.0500  -24.8590 H   0  0  0  0  0  0  0  0  0  0  0  0
   -9.3630   -3.7100  -25.1750 H   0  0  0  0  0  0  0  0  0  0  0  0
   -7.9570   -3.5240  -22.5560 H   0  0  0  0  0  0  0  0  0  0  0  0
  -10.0930   -5.3460  -23.5500 H   0  0  0  0  0  0  0  0  0  0  0  0
   -9.4290   -5.3390  -21.8980 H   0  0  0  0  0  0  0  0  0  0  0  0
   -7.0520   -6.1120  -22.4870 N   0  0  0  0  0  0  0  0  0  0  0  0
   -5.8170   -6.7270  -22.7530 C   0  0  0  0  0  0  0  0  0  0  0  0
   -5.1130   -7.3240  -21.7060 C   0  0  0  0  0  0  0  0  0  0  0  0
   -3.8690   -7.8820  -21.9410 C   0  0  0  0  0  0  0  0  0  0  0  0
   -3.3150   -7.8520  -23.2170 C   0  0  0  0  0  0  0  0  0  0  0  0
   -2.0760   -8.4720  -23.4910 N   0  0  0  0  0  0  0  0  0  0  0  0
   -1.9280   -9.1170  -24.7900 C   0  0  0  0  0  0  0  0  0  0  0  0
   -0.7450  -10.0630  -24.7810 C   0  0  0  0  0  0  0  0  0  0  0  0
    0.3910   -9.4050  -24.2720 O   0  0  0  0  0  0  0  0  0  0  0  0
    0.2240   -9.0880  -22.9140 C   0  0  0  0  0  0  0  0  0  0  0  0
   -1.0210   -8.2640  -22.6340 C   0  0  0  0  0  0  0  0  0  0  0  0
   -1.0720   -7.5020  -21.6830 O   0  0  0  0  0  0  0  0  0  0  0  0
    1.0950   -8.5170  -22.5940 H   0  0  0  0  0  0  0  0  0  0  0  0
    0.1670   -9.9960  -22.2940 H   0  0  0  0  0  0  0  0  0  0  0  0
   -0.5200  -10.3660  -25.8070 H   0  0  0  0  0  0  0  0  0  0  0  0
   -0.9510  -10.9600  -24.1880 H   0  0  0  0  0  0  0  0  0  0  0  0
   -1.7770   -8.3690  -25.5810 H   0  0  0  0  0  0  0  0  0  0  0  0
   -2.8520   -9.6580  -25.0150 H   0  0  0  0  0  0  0  0  0  0  0  0
   -4.0330   -7.2700  -24.2560 C   0  0  0  0  0  0  0  0  0  0  0  0
   -5.2790   -6.7150  -24.0380 C   0  0  0  0  0  0  0  0  0  0  0  0
   -5.8310   -6.3050  -24.8730 H   0  0  0  0  0  0  0  0  0  0  0  0
   -3.6250   -7.2800  -25.2610 H   0  0  0  0  0  0  0  0  0  0  0  0
   -3.3400   -8.4030  -21.1500 H   0  0  0  0  0  0  0  0  0  0  0  0
   -5.5520   -7.3870  -20.7120 H   0  0  0  0  0  0  0  0  0  0  0  0
   -7.1940   -5.7670  -21.5520 H   0  0  0  0  0  0  0  0  0  0  0  0
  1  2  2  0  0  0  0
  2  3  1  0  0  0  0
  2 46  1  0  0  0  0
  3  4  1  0  0  0  0
  3 44  1  0  0  0  0
  3 45  1  0  0  0  0
  4  5  1  0  0  0  0
  4 34  1  0  0  0  0
  4 43  1  1  0  0  0
  5  6  1  0  0  0  0
  5 41  1  0  0  0  0
  5 42  1  0  0  0  0
  6  7  2  0  0  0  0
  6 12  1  0  0  0  0
  7  8  1  0  0  0  0
  7 40  1  0  0  0  0
  8  9  2  0  0  0  0
  8 39  1  0  0  0  0
  9 10  1  0  0  0  0
  9 11  1  0  0  0  0
 11 12  2  0  0  0  0
 11 38  1  0  0  0  0
 12 13  1  0  0  0  0
 13 14  1  0  0  0  0
 13 34  1  0  0  0  0
 13 37  1  6  0  0  0
 14 15  2  0  0  0  0
 14 16  1  0  0  0  0
 16 17  1  0  0  0  0
 16 33  1  0  0  0  0
 17 18  2  0  0  0  0
 17 26  1  0  0  0  0
 18 19  1  0  0  0  0
 18 32  1  0  0  0  0
 19 20  2  0  0  0  0
 20 21  1  0  0  0  0
 20 31  1  0  0  0  0
 21 22  2  0  0  0  0
 21 26  1  0  0  0  0
 22 23  1  0  0  0  0
 22 30  1  0  0  0  0
 23 24  2  0  0  0  0
 23 29  1  0  0  0  0
 24 25  1  0  0  0  0
 24 28  1  0  0  0  0
 25 26  2  0  0  0  0
 25 27  1  0  0  0  0
 34 35  1  0  0  0  0
 34 36  1  0  0  0  0
 46 47  1  0  0  0  0
 46 70  1  0  0  0  0
 47 48  2  0  0  0  0
 47 65  1  0  0  0  0
 48 49  1  0  0  0  0
 48 69  1  0  0  0  0
 49 50  2  0  0  0  0
 49 68  1  0  0  0  0
 50 51  1  0  0  0  0
 50 64  1  0  0  0  0
 51 52  1  0  0  0  0
 51 56  1  0  0  0  0
 52 53  1  0  0  0  0
 52 62  1  0  0  0  0
 52 63  1  0  0  0  0
 53 54  1  0  0  0  0
 53 60  1  0  0  0  0
 53 61  1  0  0  0  0
 54 55  1  0  0  0  0
 55 56  1  0  0  0  0
 55 58  1  0  0  0  0
 55 59  1  0  0  0  0
 56 57  2  0  0  0  0
 64 65  2  0  0  0  0
 64 67  1  0  0  0  0
 65 66  1  0  0  0  0
M  CHG  1   4   1
M  END
>  <MODEL>
       1

$$$$
