tmp_first_model_19_58.pdb
 OpenBabel08282503233D

 42 45  0  0  1  0  0  0  0  0999 V2000
  -10.7230   -3.7030  -21.5130 C   0  0  0  0  0  0  0  0  0  0  0  0
   -9.9190   -3.2310  -22.6300 N   0  0  0  0  0  0  0  0  0  0  0  0
  -10.0440   -1.8600  -23.1090 C   0  0  0  0  0  0  0  0  0  0  0  0
   -8.6860   -1.1860  -23.3950 C   0  0  1  0  0  0  0  0  0  0  0  0
   -8.0950   -0.5210  -22.1420 C   0  0  0  0  0  0  0  0  0  0  0  0
   -8.2470    0.6690  -21.9310 O   0  0  0  0  0  0  0  0  0  0  0  0
   -7.4070   -1.3380  -21.2860 N   0  0  0  0  0  0  0  0  0  0  0  0
   -6.6080   -0.8220  -20.2400 C   0  0  0  0  0  0  0  0  0  0  0  0
   -6.9230   -1.0820  -18.9330 C   0  0  0  0  0  0  0  0  0  0  0  0
   -6.2460   -0.5930  -17.8680 N   0  0  0  0  0  0  0  0  0  0  0  0
   -5.2180    0.1850  -18.1110 C   0  0  0  0  0  0  0  0  0  0  0  0
   -4.7550    0.5020  -19.4180 C   0  0  0  0  0  0  0  0  0  0  0  0
   -3.6150    1.3240  -19.6290 C   0  0  0  0  0  0  0  0  0  0  0  0
   -3.1820    1.5940  -20.8980 C   0  0  0  0  0  0  0  0  0  0  0  0
   -3.8540    1.0390  -22.0090 C   0  0  0  0  0  0  0  0  0  0  0  0
   -4.9500    0.2350  -21.8300 C   0  0  0  0  0  0  0  0  0  0  0  0
   -5.4540   -0.0250  -20.5220 C   0  0  0  0  0  0  0  0  0  0  0  0
   -5.4490   -0.2020  -22.6880 H   0  0  0  0  0  0  0  0  0  0  0  0
   -3.5000    1.2570  -23.0120 H   0  0  0  0  0  0  0  0  0  0  0  0
   -2.3200    2.2340  -21.0570 H   0  0  0  0  0  0  0  0  0  0  0  0
   -3.1110    1.7400  -18.7620 H   0  0  0  0  0  0  0  0  0  0  0  0
   -4.6870    0.5920  -17.2510 H   0  0  0  0  0  0  0  0  0  0  0  0
   -7.7800   -1.7100  -18.6950 H   0  0  0  0  0  0  0  0  0  0  0  0
   -7.5340   -2.3390  -21.3490 H   0  0  0  0  0  0  0  0  0  0  0  0
   -7.7920   -2.1420  -24.1520 C   0  0  0  0  0  0  0  0  0  0  0  0
   -6.8320   -1.6890  -25.0630 C   0  0  0  0  0  0  0  0  0  0  0  0
   -5.9980   -2.6070  -25.6910 C   0  0  0  0  0  0  0  0  0  0  0  0
   -4.7790   -2.0460  -26.8000 Cl  0  0  0  0  0  0  0  0  0  0  0  0
   -6.0920   -3.9760  -25.4520 C   0  0  0  0  0  0  0  0  0  0  0  0
   -7.0480   -4.4190  -24.5600 C   0  0  0  0  0  0  0  0  0  0  0  0
   -7.8880   -3.5080  -23.9230 C   0  0  0  0  0  0  0  0  0  0  0  0
   -8.8440   -4.0240  -22.9050 C   0  0  0  0  0  0  0  0  0  0  0  0
   -8.6660   -5.0840  -22.3210 O   0  0  0  0  0  0  0  0  0  0  0  0
   -7.1600   -5.4680  -24.3190 H   0  0  0  0  0  0  0  0  0  0  0  0
   -5.4260   -4.6760  -25.9480 H   0  0  0  0  0  0  0  0  0  0  0  0
   -6.7180   -0.6320  -25.2870 H   0  0  0  0  0  0  0  0  0  0  0  0
   -8.8770   -0.3140  -24.0160 H   0  0  0  0  0  0  0  0  0  0  0  0
  -10.5860   -1.3020  -22.3370 H   0  0  0  0  0  0  0  0  0  0  0  0
  -10.6290   -1.8060  -24.0380 H   0  0  0  0  0  0  0  0  0  0  0  0
  -11.2700   -4.6250  -21.7210 H   0  0  0  0  0  0  0  0  0  0  0  0
  -10.0420   -3.9240  -20.6910 H   0  0  0  0  0  0  0  0  0  0  0  0
  -11.4430   -2.9420  -21.2190 H   0  0  0  0  0  0  0  0  0  0  0  0
  1  2  1  0  0  0  0
  1 40  1  0  0  0  0
  1 41  1  0  0  0  0
  1 42  1  0  0  0  0
  2  3  1  0  0  0  0
  2 32  1  0  0  0  0
  3  4  1  0  0  0  0
  3 38  1  0  0  0  0
  3 39  1  0  0  0  0
  4  5  1  0  0  0  0
  4 25  1  0  0  0  0
  4 37  1  6  0  0  0
  5  6  2  0  0  0  0
  5  7  1  0  0  0  0
  7  8  1  0  0  0  0
  7 24  1  0  0  0  0
  8  9  2  0  0  0  0
  8 17  1  0  0  0  0
  9 10  1  0  0  0  0
  9 23  1  0  0  0  0
 10 11  2  0  0  0  0
 11 12  1  0  0  0  0
 11 22  1  0  0  0  0
 12 13  2  0  0  0  0
 12 17  1  0  0  0  0
 13 14  1  0  0  0  0
 13 21  1  0  0  0  0
 14 15  2  0  0  0  0
 14 20  1  0  0  0  0
 15 16  1  0  0  0  0
 15 19  1  0  0  0  0
 16 17  2  0  0  0  0
 16 18  1  0  0  0  0
 25 26  2  0  0  0  0
 25 31  1  0  0  0  0
 26 27  1  0  0  0  0
 26 36  1  0  0  0  0
 27 28  1  0  0  0  0
 27 29  2  0  0  0  0
 29 30  1  0  0  0  0
 29 35  1  0  0  0  0
 30 31  2  0  0  0  0
 30 34  1  0  0  0  0
 31 32  1  0  0  0  0
 32 33  2  0  0  0  0
M  END
>  <MODEL>
       1

$$$$
