tmp_first_model_13_97.pdb
 OpenBabel08282500103D

 40 43  0  0  1  0  0  0  0  0999 V2000
  -12.7090   -3.6830  -21.1480 C   0  0  0  0  0  0  0  0  0  0  0  0
  -11.5940   -2.7470  -21.6450 C   0  0  2  0  0  0  0  0  0  0  0  0
  -12.0270   -2.2350  -23.0130 C   0  0  0  0  0  0  0  0  0  0  0  0
  -11.1120   -1.3050  -23.5430 O   0  0  0  0  0  0  0  0  0  0  0  0
   -9.8440   -1.8680  -23.7550 C   0  0  0  0  0  0  0  0  0  0  0  0
   -9.1890   -2.3650  -22.4600 C   0  0  1  0  0  0  0  0  0  0  0  0
  -10.1790   -3.3320  -21.7550 C   0  0  0  0  0  0  0  0  0  0  0  0
  -10.1910   -4.2650  -22.3420 H   0  0  0  0  0  0  0  0  0  0  0  0
   -9.7560   -3.5870  -20.7780 H   0  0  0  0  0  0  0  0  0  0  0  0
   -7.9290   -3.0090  -22.7610 N   0  0  0  0  0  0  0  0  0  0  0  0
   -6.8760   -2.5910  -22.0030 C   0  0  0  0  0  0  0  0  0  0  0  0
   -5.7450   -3.0220  -21.9900 O   0  0  0  0  0  0  0  0  0  0  0  0
   -7.3610   -1.5130  -21.2410 N   0  0  0  0  0  0  0  0  0  0  0  0
   -6.6010   -0.8760  -20.2200 C   0  0  0  0  0  0  0  0  0  0  0  0
   -6.9350   -1.0680  -18.9070 C   0  0  0  0  0  0  0  0  0  0  0  0
   -6.2520   -0.5510  -17.8590 N   0  0  0  0  0  0  0  0  0  0  0  0
   -5.2070    0.1890  -18.1270 C   0  0  0  0  0  0  0  0  0  0  0  0
   -4.7600    0.4810  -19.4410 C   0  0  0  0  0  0  0  0  0  0  0  0
   -3.6390    1.3220  -19.6510 C   0  0  0  0  0  0  0  0  0  0  0  0
   -3.2490    1.6340  -20.9220 C   0  0  0  0  0  0  0  0  0  0  0  0
   -3.9620    1.1190  -22.0260 C   0  0  0  0  0  0  0  0  0  0  0  0
   -5.0470    0.2980  -21.8480 C   0  0  0  0  0  0  0  0  0  0  0  0
   -5.4730   -0.0540  -20.5360 C   0  0  0  0  0  0  0  0  0  0  0  0
   -5.5880   -0.0760  -22.7120 H   0  0  0  0  0  0  0  0  0  0  0  0
   -3.6550    1.3900  -23.0310 H   0  0  0  0  0  0  0  0  0  0  0  0
   -2.4050    2.2970  -21.0870 H   0  0  0  0  0  0  0  0  0  0  0  0
   -3.1280    1.7210  -18.7800 H   0  0  0  0  0  0  0  0  0  0  0  0
   -4.6620    0.6070  -17.2800 H   0  0  0  0  0  0  0  0  0  0  0  0
   -7.7950   -1.6790  -18.6460 H   0  0  0  0  0  0  0  0  0  0  0  0
   -8.7000   -1.2330  -21.5340 C   0  0  0  0  0  0  0  0  0  0  0  0
   -9.3170   -0.2830  -21.1230 O   0  0  0  0  0  0  0  0  0  0  0  0
   -7.8820   -3.8610  -23.2970 H   0  0  0  0  0  0  0  0  0  0  0  0
   -9.2270   -1.1010  -24.2220 H   0  0  0  0  0  0  0  0  0  0  0  0
   -9.8920   -2.7310  -24.4420 H   0  0  0  0  0  0  0  0  0  0  0  0
  -12.9840   -1.7050  -22.9190 H   0  0  0  0  0  0  0  0  0  0  0  0
  -12.1500   -3.1170  -23.6870 H   0  0  0  0  0  0  0  0  0  0  0  0
  -11.5270   -1.8980  -20.9660 H   0  0  0  0  0  0  0  0  0  0  0  0
  -12.4650   -4.2490  -20.2420 H   0  0  0  0  0  0  0  0  0  0  0  0
  -12.9660   -4.4100  -21.9290 H   0  0  0  0  0  0  0  0  0  0  0  0
  -13.5980   -3.0810  -20.9140 H   0  0  0  0  0  0  0  0  0  0  0  0
  1  2  1  0  0  0  0
  1 38  1  0  0  0  0
  1 39  1  0  0  0  0
  1 40  1  0  0  0  0
  2  3  1  0  0  0  0
  2  7  1  0  0  0  0
  2 37  1  1  0  0  0
  3  4  1  0  0  0  0
  3 35  1  0  0  0  0
  3 36  1  0  0  0  0
  4  5  1  0  0  0  0
  5  6  1  0  0  0  0
  5 33  1  0  0  0  0
  5 34  1  0  0  0  0
  6  7  1  0  0  0  0
  6 10  1  0  0  0  0
  6 30  1  1  0  0  0
  7  8  1  0  0  0  0
  7  9  1  0  0  0  0
 10 11  1  0  0  0  0
 10 32  1  0  0  0  0
 11 12  2  0  0  0  0
 11 13  1  0  0  0  0
 13 14  1  0  0  0  0
 13 30  1  0  0  0  0
 14 15  2  0  0  0  0
 14 23  1  0  0  0  0
 15 16  1  0  0  0  0
 15 29  1  0  0  0  0
 16 17  2  0  0  0  0
 17 18  1  0  0  0  0
 17 28  1  0  0  0  0
 18 19  2  0  0  0  0
 18 23  1  0  0  0  0
 19 20  1  0  0  0  0
 19 27  1  0  0  0  0
 20 21  2  0  0  0  0
 20 26  1  0  0  0  0
 21 22  1  0  0  0  0
 21 25  1  0  0  0  0
 22 23  2  0  0  0  0
 22 24  1  0  0  0  0
 30 31  2  0  0  0  0
M  END
>  <MODEL>
       1

$$$$
