tmp_first_model_6_10.pdb
 OpenBabel08272519583D

 57 62  0  0  1  0  0  0  0  0999 V2000
  -10.3140   -2.5380  -22.2680 C   0  0  0  0  0  0  0  0  0  0  0  0
   -9.0240   -1.8830  -22.7920 C   0  0  1  0  0  0  0  0  0  0  0  0
   -8.5050   -0.8330  -21.7870 C   0  0  0  0  0  0  0  0  0  0  0  0
   -7.3550   -1.4560  -21.1760 N   0  0  0  0  0  0  0  0  0  0  0  0
   -6.5790   -0.8400  -20.1640 C   0  0  0  0  0  0  0  0  0  0  0  0
   -6.8980   -1.0630  -18.8520 C   0  0  0  0  0  0  0  0  0  0  0  0
   -6.2130   -0.5530  -17.7990 N   0  0  0  0  0  0  0  0  0  0  0  0
   -5.1840    0.2140  -18.0700 C   0  0  0  0  0  0  0  0  0  0  0  0
   -4.7520    0.5350  -19.3900 C   0  0  0  0  0  0  0  0  0  0  0  0
   -3.6260    1.3670  -19.6230 C   0  0  0  0  0  0  0  0  0  0  0  0
   -3.2460    1.6780  -20.8990 C   0  0  0  0  0  0  0  0  0  0  0  0
   -3.9810    1.1820  -22.0000 C   0  0  0  0  0  0  0  0  0  0  0  0
   -5.0590    0.3510  -21.8080 C   0  0  0  0  0  0  0  0  0  0  0  0
   -5.4690    0.0040  -20.4850 C   0  0  0  0  0  0  0  0  0  0  0  0
   -5.5800   -0.0600  -22.6730 H   0  0  0  0  0  0  0  0  0  0  0  0
   -3.6610    1.4250  -23.0100 H   0  0  0  0  0  0  0  0  0  0  0  0
   -2.3770    2.3040  -21.0800 H   0  0  0  0  0  0  0  0  0  0  0  0
   -3.0820    1.7480  -18.7640 H   0  0  0  0  0  0  0  0  0  0  0  0
   -4.6310    0.6320  -17.2290 H   0  0  0  0  0  0  0  0  0  0  0  0
   -7.7440   -1.7060  -18.6080 H   0  0  0  0  0  0  0  0  0  0  0  0
   -6.8950   -2.5730  -21.8290 C   0  0  0  0  0  0  0  0  0  0  0  0
   -5.9210   -3.2110  -21.4940 O   0  0  0  0  0  0  0  0  0  0  0  0
   -7.8270   -2.8480  -23.0250 C   0  0  1  0  0  0  0  0  0  0  0  0
   -8.2520   -4.3120  -23.0060 C   0  0  0  0  0  0  0  0  0  0  0  0
   -7.1010   -5.1450  -23.2390 N   0  0  0  0  0  0  0  0  0  0  0  0
   -7.0380   -6.3380  -22.4290 C   0  0  0  0  0  0  0  0  0  0  0  0
   -8.0430   -7.3500  -22.8860 C   0  0  0  0  0  0  0  0  0  0  0  0
   -7.7140   -8.2830  -23.7900 C   0  0  0  0  0  0  0  0  0  0  0  0
   -8.8480   -8.9720  -24.1320 N   0  3  0  0  0  0  0  0  0  0  0  0
   -9.8800   -8.4500  -23.4780 C   0  0  0  0  0  0  0  0  0  0  0  0
   -9.4210   -7.4420  -22.7200 N   0  0  0  0  0  0  0  0  0  0  0  0
  -10.0150   -6.8720  -22.1320 H   0  0  0  0  0  0  0  0  0  0  0  0
  -10.9000   -8.7730  -23.5570 H   0  0  0  0  0  0  0  0  0  0  0  0
   -8.8420   -9.7200  -24.8110 H   0  0  0  0  0  0  0  0  0  0  0  0
   -6.7470   -8.4740  -24.2280 H   0  0  0  0  0  0  0  0  0  0  0  0
   -7.1190   -6.0250  -21.3780 H   0  0  0  0  0  0  0  0  0  0  0  0
   -6.0540   -6.7840  -22.5900 H   0  0  0  0  0  0  0  0  0  0  0  0
   -6.3530   -5.0240  -24.3790 C   0  0  0  0  0  0  0  0  0  0  0  0
   -5.6850   -5.9410  -24.8470 O   0  0  0  0  0  0  0  0  0  0  0  0
   -6.3790   -3.6500  -24.9700 C   0  0  0  0  0  0  0  0  0  0  0  0
   -5.6580   -3.4220  -26.1430 C   0  0  0  0  0  0  0  0  0  0  0  0
   -5.5810   -2.1480  -26.6760 C   0  0  0  0  0  0  0  0  0  0  0  0
   -6.2300   -1.1160  -26.0070 C   0  0  0  0  0  0  0  0  0  0  0  0
   -6.1340    0.1330  -26.5000 F   0  0  0  0  0  0  0  0  0  0  0  0
   -6.9620   -1.3190  -24.8520 C   0  0  0  0  0  0  0  0  0  0  0  0
   -7.0670   -2.6100  -24.3260 C   0  0  0  0  0  0  0  0  0  0  0  0
   -7.4430   -0.4670  -24.3810 H   0  0  0  0  0  0  0  0  0  0  0  0
   -5.0140   -1.9240  -27.5720 H   0  0  0  0  0  0  0  0  0  0  0  0
   -5.1550   -4.2670  -26.6050 H   0  0  0  0  0  0  0  0  0  0  0  0
   -8.6680   -4.5800  -22.0320 H   0  0  0  0  0  0  0  0  0  0  0  0
   -9.0110   -4.4890  -23.7830 H   0  0  0  0  0  0  0  0  0  0  0  0
   -9.2480   -0.5860  -21.0210 H   0  0  0  0  0  0  0  0  0  0  0  0
   -8.2240    0.1020  -22.2920 H   0  0  0  0  0  0  0  0  0  0  0  0
   -9.2880   -1.4240  -23.7500 H   0  0  0  0  0  0  0  0  0  0  0  0
  -10.1530   -3.0380  -21.3060 H   0  0  0  0  0  0  0  0  0  0  0  0
  -10.7120   -3.2760  -22.9730 H   0  0  0  0  0  0  0  0  0  0  0  0
  -11.0910   -1.7800  -22.1220 H   0  0  0  0  0  0  0  0  0  0  0  0
  1  2  1  0  0  0  0
  1 55  1  0  0  0  0
  1 56  1  0  0  0  0
  1 57  1  0  0  0  0
  2  3  1  0  0  0  0
  2 23  1  0  0  0  0
  2 54  1  6  0  0  0
  3  4  1  0  0  0  0
  3 52  1  0  0  0  0
  3 53  1  0  0  0  0
  4  5  1  0  0  0  0
  4 21  1  0  0  0  0
  5  6  2  0  0  0  0
  5 14  1  0  0  0  0
  6  7  1  0  0  0  0
  6 20  1  0  0  0  0
  7  8  2  0  0  0  0
  8  9  1  0  0  0  0
  8 19  1  0  0  0  0
  9 10  2  0  0  0  0
  9 14  1  0  0  0  0
 10 11  1  0  0  0  0
 10 18  1  0  0  0  0
 11 12  2  0  0  0  0
 11 17  1  0  0  0  0
 12 13  1  0  0  0  0
 12 16  1  0  0  0  0
 13 14  2  0  0  0  0
 13 15  1  0  0  0  0
 21 22  2  0  0  0  0
 23 21  1  1  0  0  0
 23 24  1  0  0  0  0
 23 46  1  0  0  0  0
 24 25  1  0  0  0  0
 24 50  1  0  0  0  0
 24 51  1  0  0  0  0
 25 26  1  0  0  0  0
 25 38  1  0  0  0  0
 26 27  1  0  0  0  0
 26 36  1  0  0  0  0
 26 37  1  0  0  0  0
 27 28  2  0  0  0  0
 27 31  1  0  0  0  0
 28 29  1  0  0  0  0
 28 35  1  0  0  0  0
 29 30  2  0  0  0  0
 29 34  1  0  0  0  0
 30 31  1  0  0  0  0
 30 33  1  0  0  0  0
 31 32  1  0  0  0  0
 38 39  2  0  0  0  0
 38 40  1  0  0  0  0
 40 41  2  0  0  0  0
 40 46  1  0  0  0  0
 41 42  1  0  0  0  0
 41 49  1  0  0  0  0
 42 43  2  0  0  0  0
 42 48  1  0  0  0  0
 43 44  1  0  0  0  0
 43 45  1  0  0  0  0
 45 46  2  0  0  0  0
 45 47  1  0  0  0  0
M  CHG  1  29   1
M  END
>  <MODEL>
       1

$$$$
