tmp_first_model_8_49.pdb
 OpenBabel08272521063D

 67 72  0  0  1  0  0  0  0  0999 V2000
   -7.4070    3.3670  -21.7790 C   0  0  0  0  0  0  0  0  0  0  0  0
   -8.2770    2.9080  -22.8470 N   0  0  0  0  0  0  0  0  0  0  0  0
   -7.7040    2.2290  -23.8650 C   0  0  0  0  0  0  0  0  0  0  0  0
   -6.4890    2.1290  -23.9800 O   0  0  0  0  0  0  0  0  0  0  0  0
   -8.6470    1.6010  -24.8970 C   0  0  0  0  0  0  0  0  0  0  0  0
   -9.3670    0.4430  -24.4000 N   0  0  0  0  0  0  0  0  0  0  0  0
   -8.6500   -0.8080  -24.2380 C   0  0  0  0  0  0  0  0  0  0  0  0
   -9.0420   -1.5290  -22.9220 C   0  0  2  0  0  0  0  0  0  0  0  0
   -8.5020   -0.7390  -21.6980 C   0  0  0  0  0  0  0  0  0  0  0  0
   -8.9550    0.2830  -21.2230 O   0  0  0  0  0  0  0  0  0  0  0  0
   -7.3920   -1.3920  -21.2090 N   0  0  0  0  0  0  0  0  0  0  0  0
   -6.6020   -0.8160  -20.1780 C   0  0  0  0  0  0  0  0  0  0  0  0
   -6.9090   -1.0480  -18.8620 C   0  0  0  0  0  0  0  0  0  0  0  0
   -6.2050   -0.5590  -17.8120 N   0  0  0  0  0  0  0  0  0  0  0  0
   -5.1700    0.2020  -18.0770 C   0  0  0  0  0  0  0  0  0  0  0  0
   -4.7340    0.5310  -19.3910 C   0  0  0  0  0  0  0  0  0  0  0  0
   -3.6110    1.3700  -19.6340 C   0  0  0  0  0  0  0  0  0  0  0  0
   -3.2360    1.6740  -20.9130 C   0  0  0  0  0  0  0  0  0  0  0  0
   -3.9720    1.1630  -22.0050 C   0  0  0  0  0  0  0  0  0  0  0  0
   -5.0520    0.3410  -21.7980 C   0  0  0  0  0  0  0  0  0  0  0  0
   -5.4710    0.0070  -20.4830 C   0  0  0  0  0  0  0  0  0  0  0  0
   -5.5970   -0.0550  -22.6500 H   0  0  0  0  0  0  0  0  0  0  0  0
   -3.6690    1.3980  -23.0200 H   0  0  0  0  0  0  0  0  0  0  0  0
   -2.3700    2.3060  -21.0990 H   0  0  0  0  0  0  0  0  0  0  0  0
   -3.0730    1.7710  -18.7780 H   0  0  0  0  0  0  0  0  0  0  0  0
   -4.6220    0.6090  -17.2260 H   0  0  0  0  0  0  0  0  0  0  0  0
   -7.7640   -1.6710  -18.6060 H   0  0  0  0  0  0  0  0  0  0  0  0
   -7.0410   -2.5980  -21.9300 C   0  0  0  0  0  0  0  0  0  0  0  0
   -8.2990   -2.8950  -22.7680 C   0  0  2  0  0  0  0  0  0  0  0  0
   -7.9620   -3.6790  -24.0550 C   0  0  0  0  0  0  0  0  0  0  0  0
   -7.4520   -5.0020  -23.7710 N   0  0  0  0  0  0  0  0  0  0  0  0
   -6.1210   -5.3070  -23.6620 C   0  0  0  0  0  0  0  0  0  0  0  0
   -5.0180   -4.5850  -24.0090 C   0  0  0  0  0  0  0  0  0  0  0  0
   -3.7930   -5.1840  -23.7870 N   0  0  0  0  0  0  0  0  0  0  0  0
   -3.9340   -6.3720  -23.2950 C   0  0  0  0  0  0  0  0  0  0  0  0
   -2.7940   -7.2970  -22.9860 C   0  0  0  0  0  0  0  0  0  0  0  0
   -3.0230   -7.9290  -22.1260 H   0  0  0  0  0  0  0  0  0  0  0  0
   -2.5870   -7.9500  -23.8440 H   0  0  0  0  0  0  0  0  0  0  0  0
   -1.9000   -6.7020  -22.7930 H   0  0  0  0  0  0  0  0  0  0  0  0
   -5.6010   -6.8610  -23.0350 S   0  0  0  0  0  0  0  0  0  0  0  0
   -5.0530   -3.5980  -24.4600 H   0  0  0  0  0  0  0  0  0  0  0  0
   -8.1090   -5.7250  -23.5210 H   0  0  0  0  0  0  0  0  0  0  0  0
   -8.8640   -3.7930  -24.6660 H   0  0  0  0  0  0  0  0  0  0  0  0
   -7.2160   -3.1300  -24.6480 H   0  0  0  0  0  0  0  0  0  0  0  0
   -8.9570   -3.5330  -22.1730 H   0  0  0  0  0  0  0  0  0  0  0  0
   -6.1570   -2.4460  -22.5720 H   0  0  0  0  0  0  0  0  0  0  0  0
   -6.7890   -3.4180  -21.2490 H   0  0  0  0  0  0  0  0  0  0  0  0
  -10.5600   -1.5790  -22.8520 C   0  0  0  0  0  0  0  0  0  0  0  0
  -11.2000   -2.4640  -21.9750 C   0  0  0  0  0  0  0  0  0  0  0  0
  -12.5800   -2.4830  -21.8920 C   0  0  0  0  0  0  0  0  0  0  0  0
  -13.3640   -3.5790  -20.7930 Cl  0  0  0  0  0  0  0  0  0  0  0  0
  -13.3680   -1.6220  -22.6560 C   0  0  0  0  0  0  0  0  0  0  0  0
  -12.7440   -0.6960  -23.4670 C   0  0  0  0  0  0  0  0  0  0  0  0
  -11.3520   -0.6470  -23.5410 C   0  0  0  0  0  0  0  0  0  0  0  0
  -10.7280    0.4980  -24.2850 C   0  0  0  0  0  0  0  0  0  0  0  0
  -11.3920    1.4300  -24.7140 O   0  0  0  0  0  0  0  0  0  0  0  0
  -13.3070    0.0340  -24.0400 H   0  0  0  0  0  0  0  0  0  0  0  0
  -14.4470   -1.6670  -22.5760 H   0  0  0  0  0  0  0  0  0  0  0  0
  -10.6320   -3.1190  -21.3250 H   0  0  0  0  0  0  0  0  0  0  0  0
   -7.5840   -0.5630  -24.2220 H   0  0  0  0  0  0  0  0  0  0  0  0
   -8.8550   -1.4770  -25.0900 H   0  0  0  0  0  0  0  0  0  0  0  0
   -9.4210    2.3000  -25.2250 H   0  0  0  0  0  0  0  0  0  0  0  0
   -8.0080    1.3320  -25.7440 H   0  0  0  0  0  0  0  0  0  0  0  0
   -9.2730    2.8220  -22.6940 H   0  0  0  0  0  0  0  0  0  0  0  0
   -6.7980    2.5270  -21.4120 H   0  0  0  0  0  0  0  0  0  0  0  0
   -6.7270    4.1460  -22.1420 H   0  0  0  0  0  0  0  0  0  0  0  0
   -8.0140    3.7870  -20.9800 H   0  0  0  0  0  0  0  0  0  0  0  0
  1  2  1  0  0  0  0
  1 65  1  0  0  0  0
  1 66  1  0  0  0  0
  1 67  1  0  0  0  0
  2  3  1  0  0  0  0
  2 64  1  0  0  0  0
  3  4  2  0  0  0  0
  3  5  1  0  0  0  0
  5  6  1  0  0  0  0
  5 62  1  0  0  0  0
  5 63  1  0  0  0  0
  6  7  1  0  0  0  0
  6 55  1  0  0  0  0
  7  8  1  0  0  0  0
  7 60  1  0  0  0  0
  7 61  1  0  0  0  0
  8  9  1  1  0  0  0
  8 29  1  0  0  0  0
  8 48  1  0  0  0  0
  9 10  2  0  0  0  0
  9 11  1  0  0  0  0
 11 12  1  0  0  0  0
 11 28  1  0  0  0  0
 12 13  2  0  0  0  0
 12 21  1  0  0  0  0
 13 14  1  0  0  0  0
 13 27  1  0  0  0  0
 14 15  2  0  0  0  0
 15 16  1  0  0  0  0
 15 26  1  0  0  0  0
 16 17  2  0  0  0  0
 16 21  1  0  0  0  0
 17 18  1  0  0  0  0
 17 25  1  0  0  0  0
 18 19  2  0  0  0  0
 18 24  1  0  0  0  0
 19 20  1  0  0  0  0
 19 23  1  0  0  0  0
 20 21  2  0  0  0  0
 20 22  1  0  0  0  0
 28 29  1  0  0  0  0
 28 46  1  0  0  0  0
 28 47  1  0  0  0  0
 29 30  1  0  0  0  0
 29 45  1  1  0  0  0
 30 31  1  0  0  0  0
 30 43  1  0  0  0  0
 30 44  1  0  0  0  0
 31 32  1  0  0  0  0
 31 42  1  0  0  0  0
 32 33  2  0  0  0  0
 32 40  1  0  0  0  0
 33 34  1  0  0  0  0
 33 41  1  0  0  0  0
 34 35  2  0  0  0  0
 35 36  1  0  0  0  0
 35 40  1  0  0  0  0
 36 37  1  0  0  0  0
 36 38  1  0  0  0  0
 36 39  1  0  0  0  0
 48 49  2  0  0  0  0
 48 54  1  0  0  0  0
 49 50  1  0  0  0  0
 49 59  1  0  0  0  0
 50 51  1  0  0  0  0
 50 52  2  0  0  0  0
 52 53  1  0  0  0  0
 52 58  1  0  0  0  0
 53 54  2  0  0  0  0
 53 57  1  0  0  0  0
 54 55  1  0  0  0  0
 55 56  2  0  0  0  0
M  END
>  <MODEL>
       1

$$$$
