tmp_first_model_7_19.pdb
 OpenBabel08272520323D

 42 45  0  0  1  0  0  0  0  0999 V2000
   -9.0850   -0.0190  -20.7360 O   0  0  0  0  0  0  0  0  0  0  0  0
   -8.6190   -0.8990  -21.4350 C   0  0  0  0  0  0  0  0  0  0  0  0
   -9.3440   -1.5210  -22.6300 C   0  0  1  0  0  0  0  0  0  0  0  0
  -10.4660   -0.5840  -23.0130 C   0  0  0  0  0  0  0  0  0  0  0  0
  -10.1660    0.7670  -23.2280 C   0  0  0  0  0  0  0  0  0  0  0  0
  -11.1900    1.7000  -23.3540 C   0  0  0  0  0  0  0  0  0  0  0  0
  -12.5160    1.2580  -23.3650 C   0  0  0  0  0  0  0  0  0  0  0  0
  -13.7680    2.4450  -23.5580 Cl  0  0  0  0  0  0  0  0  0  0  0  0
  -12.8040   -0.1160  -23.3860 C   0  0  0  0  0  0  0  0  0  0  0  0
  -14.3790   -0.7140  -23.8080 Cl  0  0  0  0  0  0  0  0  0  0  0  0
  -11.7730   -1.0360  -23.1750 C   0  0  0  0  0  0  0  0  0  0  0  0
  -12.0050   -2.1010  -23.1910 H   0  0  0  0  0  0  0  0  0  0  0  0
  -10.9700    2.7660  -23.4590 H   0  0  0  0  0  0  0  0  0  0  0  0
   -9.1270    1.0850  -23.3070 H   0  0  0  0  0  0  0  0  0  0  0  0
   -8.3310   -1.7850  -23.7610 C   0  0  0  0  0  0  0  0  0  0  0  0
   -7.2230   -2.7570  -23.3380 C   0  0  2  0  0  0  0  0  0  0  0  0
   -7.5220   -4.1140  -23.6430 O   0  0  0  0  0  0  0  0  0  0  0  0
   -8.3910   -4.3240  -23.2760 H   0  0  0  0  0  0  0  0  0  0  0  0
   -6.9110   -2.6260  -21.8380 C   0  0  0  0  0  0  0  0  0  0  0  0
   -7.3430   -1.3690  -21.2570 N   0  0  0  0  0  0  0  0  0  0  0  0
   -6.5860   -0.8120  -20.2010 C   0  0  0  0  0  0  0  0  0  0  0  0
   -6.9190   -1.0560  -18.8940 C   0  0  0  0  0  0  0  0  0  0  0  0
   -6.2160   -0.5760  -17.8430 N   0  0  0  0  0  0  0  0  0  0  0  0
   -5.1780    0.1810  -18.0990 C   0  0  0  0  0  0  0  0  0  0  0  0
   -4.7260    0.5060  -19.4100 C   0  0  0  0  0  0  0  0  0  0  0  0
   -3.6020    1.3370  -19.6450 C   0  0  0  0  0  0  0  0  0  0  0  0
   -3.2160    1.6330  -20.9230 C   0  0  0  0  0  0  0  0  0  0  0  0
   -3.9330    1.1120  -22.0250 C   0  0  0  0  0  0  0  0  0  0  0  0
   -5.0210    0.3000  -21.8230 C   0  0  0  0  0  0  0  0  0  0  0  0
   -5.4430   -0.0130  -20.5040 C   0  0  0  0  0  0  0  0  0  0  0  0
   -5.5800   -0.0940  -22.6660 H   0  0  0  0  0  0  0  0  0  0  0  0
   -3.6300    1.3700  -23.0350 H   0  0  0  0  0  0  0  0  0  0  0  0
   -2.3670    2.2880  -21.0980 H   0  0  0  0  0  0  0  0  0  0  0  0
   -3.0830    1.7490  -18.7860 H   0  0  0  0  0  0  0  0  0  0  0  0
   -4.6350    0.5820  -17.2450 H   0  0  0  0  0  0  0  0  0  0  0  0
   -7.7920   -1.6580  -18.6440 H   0  0  0  0  0  0  0  0  0  0  0  0
   -7.3980   -3.4820  -21.3440 H   0  0  0  0  0  0  0  0  0  0  0  0
   -5.8390   -2.6920  -21.6470 H   0  0  0  0  0  0  0  0  0  0  0  0
   -6.3220   -2.5620  -23.9310 H   0  0  0  0  0  0  0  0  0  0  0  0
   -7.8830   -0.8300  -24.0660 H   0  0  0  0  0  0  0  0  0  0  0  0
   -8.8190   -2.2000  -24.6500 H   0  0  0  0  0  0  0  0  0  0  0  0
   -9.7540   -2.4920  -22.3090 H   0  0  0  0  0  0  0  0  0  0  0  0
  1  2  2  0  0  0  0
  2  3  1  0  0  0  0
  2 20  1  0  0  0  0
  3  4  1  0  0  0  0
  3 15  1  0  0  0  0
  3 42  1  1  0  0  0
  4  5  2  0  0  0  0
  4 11  1  0  0  0  0
  5  6  1  0  0  0  0
  5 14  1  0  0  0  0
  6  7  2  0  0  0  0
  6 13  1  0  0  0  0
  7  8  1  0  0  0  0
  7  9  1  0  0  0  0
  9 10  1  0  0  0  0
  9 11  2  0  0  0  0
 11 12  1  0  0  0  0
 15 16  1  0  0  0  0
 15 40  1  0  0  0  0
 15 41  1  0  0  0  0
 16 17  1  0  0  0  0
 16 19  1  0  0  0  0
 16 39  1  6  0  0  0
 17 18  1  0  0  0  0
 19 20  1  0  0  0  0
 19 37  1  0  0  0  0
 19 38  1  0  0  0  0
 20 21  1  0  0  0  0
 21 22  2  0  0  0  0
 21 30  1  0  0  0  0
 22 23  1  0  0  0  0
 22 36  1  0  0  0  0
 23 24  2  0  0  0  0
 24 25  1  0  0  0  0
 24 35  1  0  0  0  0
 25 26  2  0  0  0  0
 25 30  1  0  0  0  0
 26 27  1  0  0  0  0
 26 34  1  0  0  0  0
 27 28  2  0  0  0  0
 27 33  1  0  0  0  0
 28 29  1  0  0  0  0
 28 32  1  0  0  0  0
 29 30  2  0  0  0  0
 29 31  1  0  0  0  0
M  END
>  <MODEL>
       1

$$$$
