tmp_first_model_9_83.pdb
 OpenBabel08272521403D

 46 50  0  0  1  0  0  0  0  0999 V2000
   -3.6350   -1.0710  -25.3740 N   0  0  0  0  0  0  0  0  0  0  0  0
   -4.5340   -2.0120  -26.3780 S   0  0  0  0  0  0  0  0  0  0  0  0
   -4.3130   -3.3700  -25.9180 O   0  0  0  0  0  0  0  0  0  0  0  0
   -4.1990   -1.5790  -27.7210 O   0  0  0  0  0  0  0  0  0  0  0  0
   -6.2380   -1.5870  -26.0930 C   0  0  0  0  0  0  0  0  0  0  0  0
   -6.9830   -0.9830  -27.1020 C   0  0  0  0  0  0  0  0  0  0  0  0
   -8.2930   -0.6210  -26.8500 C   0  0  0  0  0  0  0  0  0  0  0  0
   -8.8570   -0.8480  -25.5930 C   0  0  0  0  0  0  0  0  0  0  0  0
   -8.1080   -1.4500  -24.5790 C   0  0  0  0  0  0  0  0  0  0  0  0
   -6.7880   -1.8070  -24.8410 C   0  0  0  0  0  0  0  0  0  0  0  0
   -6.1900   -2.2780  -24.0670 H   0  0  0  0  0  0  0  0  0  0  0  0
   -8.6930   -1.6770  -23.1960 C   0  0  1  0  0  0  0  0  0  0  0  0
  -10.2260   -1.5920  -23.2580 C   0  0  0  0  0  0  0  0  0  0  0  0
  -10.6720   -0.4110  -24.1050 C   0  0  0  0  0  0  0  0  0  0  0  0
  -10.1580   -0.4870  -25.4360 O   0  0  0  0  0  0  0  0  0  0  0  0
  -10.3640    0.5320  -23.6330 H   0  0  0  0  0  0  0  0  0  0  0  0
  -11.7580   -0.4210  -24.2330 H   0  0  0  0  0  0  0  0  0  0  0  0
  -10.6010   -1.5110  -22.2360 H   0  0  0  0  0  0  0  0  0  0  0  0
  -10.6180   -2.5250  -23.6860 H   0  0  0  0  0  0  0  0  0  0  0  0
   -8.2710   -2.9140  -22.5800 N   0  0  0  0  0  0  0  0  0  0  0  0
   -7.4480   -2.7730  -21.5020 C   0  0  0  0  0  0  0  0  0  0  0  0
   -6.8260   -3.6330  -20.9290 O   0  0  0  0  0  0  0  0  0  0  0  0
   -7.4150   -1.3900  -21.2180 N   0  0  0  0  0  0  0  0  0  0  0  0
   -6.5950   -0.8260  -20.2000 C   0  0  0  0  0  0  0  0  0  0  0  0
   -6.9010   -1.0680  -18.8860 C   0  0  0  0  0  0  0  0  0  0  0  0
   -6.2090   -0.5510  -17.8460 N   0  0  0  0  0  0  0  0  0  0  0  0
   -5.1780    0.2100  -18.1040 C   0  0  0  0  0  0  0  0  0  0  0  0
   -4.7310    0.5190  -19.4150 C   0  0  0  0  0  0  0  0  0  0  0  0
   -3.5970    1.3430  -19.6400 C   0  0  0  0  0  0  0  0  0  0  0  0
   -3.1810    1.6100  -20.9140 C   0  0  0  0  0  0  0  0  0  0  0  0
   -3.8830    1.0550  -22.0090 C   0  0  0  0  0  0  0  0  0  0  0  0
   -4.9780    0.2530  -21.8180 C   0  0  0  0  0  0  0  0  0  0  0  0
   -5.4480   -0.0230  -20.5050 C   0  0  0  0  0  0  0  0  0  0  0  0
   -5.5120   -0.1680  -22.6690 H   0  0  0  0  0  0  0  0  0  0  0  0
   -3.5470    1.2650  -23.0200 H   0  0  0  0  0  0  0  0  0  0  0  0
   -2.3190    2.2490  -21.0890 H   0  0  0  0  0  0  0  0  0  0  0  0
   -3.0830    1.7600  -18.7790 H   0  0  0  0  0  0  0  0  0  0  0  0
   -4.6370    0.6120  -17.2480 H   0  0  0  0  0  0  0  0  0  0  0  0
   -7.7490   -1.6910  -18.6130 H   0  0  0  0  0  0  0  0  0  0  0  0
   -8.1080   -0.6640  -22.1910 C   0  0  0  0  0  0  0  0  0  0  0  0
   -8.2110    0.5380  -22.2310 O   0  0  0  0  0  0  0  0  0  0  0  0
   -8.4470   -3.8190  -22.9860 H   0  0  0  0  0  0  0  0  0  0  0  0
   -8.9120   -0.1690  -27.6130 H   0  0  0  0  0  0  0  0  0  0  0  0
   -6.5250   -0.8150  -28.0690 H   0  0  0  0  0  0  0  0  0  0  0  0
   -3.7410   -0.0810  -25.5580 H   0  0  0  0  0  0  0  0  0  0  0  0
   -3.6640   -1.3520  -24.3980 H   0  0  0  0  0  0  0  0  0  0  0  0
  1  2  1  0  0  0  0
  1 45  1  0  0  0  0
  1 46  1  0  0  0  0
  2  3  2  0  0  0  0
  2  4  2  0  0  0  0
  2  5  1  0  0  0  0
  5  6  2  0  0  0  0
  5 10  1  0  0  0  0
  6  7  1  0  0  0  0
  6 44  1  0  0  0  0
  7  8  2  0  0  0  0
  7 43  1  0  0  0  0
  8  9  1  0  0  0  0
  8 15  1  0  0  0  0
  9 10  2  0  0  0  0
 10 11  1  0  0  0  0
 12  9  1  6  0  0  0
 12 13  1  0  0  0  0
 12 20  1  0  0  0  0
 12 40  1  0  0  0  0
 13 14  1  0  0  0  0
 13 18  1  0  0  0  0
 13 19  1  0  0  0  0
 14 15  1  0  0  0  0
 14 16  1  0  0  0  0
 14 17  1  0  0  0  0
 20 21  1  0  0  0  0
 20 42  1  0  0  0  0
 21 22  2  0  0  0  0
 21 23  1  0  0  0  0
 23 24  1  0  0  0  0
 23 40  1  0  0  0  0
 24 25  2  0  0  0  0
 24 33  1  0  0  0  0
 25 26  1  0  0  0  0
 25 39  1  0  0  0  0
 26 27  2  0  0  0  0
 27 28  1  0  0  0  0
 27 38  1  0  0  0  0
 28 29  2  0  0  0  0
 28 33  1  0  0  0  0
 29 30  1  0  0  0  0
 29 37  1  0  0  0  0
 30 31  2  0  0  0  0
 30 36  1  0  0  0  0
 31 32  1  0  0  0  0
 31 35  1  0  0  0  0
 32 33  2  0  0  0  0
 32 34  1  0  0  0  0
 40 41  2  0  0  0  0
M  END
>  <MODEL>
       1

$$$$
