tmp_first_model_3_67.pdb
 OpenBabel08272518143D

 58 63  0  0  1  0  0  0  0  0999 V2000
  -14.9200    0.2610  -22.8530 C   0  0  0  0  0  0  0  0  0  0  0  0
  -13.9230   -0.8540  -22.8230 C   0  0  0  0  0  0  0  0  0  0  0  0
  -13.5750   -1.7720  -21.7950 C   0  0  0  0  0  0  0  0  0  0  0  0
  -12.7190   -2.6300  -22.3980 C   0  0  0  0  0  0  0  0  0  0  0  0
  -12.0230   -3.9010  -22.0090 C   0  0  0  0  0  0  0  0  0  0  0  0
  -10.6330   -3.9660  -22.4360 N   0  0  0  0  0  0  0  0  0  0  0  0
   -9.6280   -3.3510  -21.5790 C   0  0  0  0  0  0  0  0  0  0  0  0
   -8.3920   -2.8140  -22.3520 C   0  0  2  0  0  0  0  0  0  0  0  0
   -7.2910   -2.5970  -21.2950 C   0  0  0  0  0  0  0  0  0  0  0  0
   -6.6550   -3.4600  -20.7220 O   0  0  0  0  0  0  0  0  0  0  0  0
   -7.1570   -1.2470  -21.0610 N   0  0  0  0  0  0  0  0  0  0  0  0
   -6.3600   -0.7280  -20.0150 C   0  0  0  0  0  0  0  0  0  0  0  0
   -6.6710   -0.9610  -18.7000 C   0  0  0  0  0  0  0  0  0  0  0  0
   -6.0280   -0.3800  -17.6530 N   0  0  0  0  0  0  0  0  0  0  0  0
   -5.0270    0.4240  -17.9250 C   0  0  0  0  0  0  0  0  0  0  0  0
   -4.5710    0.7070  -19.2430 C   0  0  0  0  0  0  0  0  0  0  0  0
   -3.4560    1.5500  -19.4830 C   0  0  0  0  0  0  0  0  0  0  0  0
   -3.0380    1.8010  -20.7600 C   0  0  0  0  0  0  0  0  0  0  0  0
   -3.7240    1.2270  -21.8550 C   0  0  0  0  0  0  0  0  0  0  0  0
   -4.8120    0.4140  -21.6470 C   0  0  0  0  0  0  0  0  0  0  0  0
   -5.2560    0.1270  -20.3290 C   0  0  0  0  0  0  0  0  0  0  0  0
   -5.3420   -0.0180  -22.4890 H   0  0  0  0  0  0  0  0  0  0  0  0
   -3.3930    1.4400  -22.8670 H   0  0  0  0  0  0  0  0  0  0  0  0
   -2.1820    2.4460  -20.9410 H   0  0  0  0  0  0  0  0  0  0  0  0
   -2.9630    1.9960  -18.6250 H   0  0  0  0  0  0  0  0  0  0  0  0
   -4.5120    0.8940  -17.0850 H   0  0  0  0  0  0  0  0  0  0  0  0
   -7.4910   -1.6260  -18.4330 H   0  0  0  0  0  0  0  0  0  0  0  0
   -8.1050   -0.4390  -21.8010 C   0  0  0  0  0  0  0  0  0  0  0  0
   -8.5370   -1.3630  -22.9430 C   0  0  2  0  0  0  0  0  0  0  0  0
   -9.8900   -0.9580  -23.4990 C   0  0  0  0  0  0  0  0  0  0  0  0
   -9.8460    0.0110  -24.0140 H   0  0  0  0  0  0  0  0  0  0  0  0
  -10.6270   -0.8730  -22.6900 H   0  0  0  0  0  0  0  0  0  0  0  0
  -10.2470   -1.7080  -24.2040 H   0  0  0  0  0  0  0  0  0  0  0  0
   -7.7880   -1.3220  -23.7530 H   0  0  0  0  0  0  0  0  0  0  0  0
   -7.6470    0.4850  -22.1650 H   0  0  0  0  0  0  0  0  0  0  0  0
   -8.9660   -0.1550  -21.1690 H   0  0  0  0  0  0  0  0  0  0  0  0
   -7.9810   -3.8410  -23.3850 C   0  0  0  0  0  0  0  0  0  0  0  0
   -6.6780   -3.8760  -23.8880 C   0  0  0  0  0  0  0  0  0  0  0  0
   -6.3490   -4.7880  -24.8720 C   0  0  0  0  0  0  0  0  0  0  0  0
   -5.1010   -4.7820  -25.3610 F   0  0  0  0  0  0  0  0  0  0  0  0
   -7.2490   -5.7030  -25.3980 C   0  0  0  0  0  0  0  0  0  0  0  0
   -8.5270   -5.6810  -24.8920 C   0  0  0  0  0  0  0  0  0  0  0  0
   -8.8780   -4.7740  -23.8950 C   0  0  0  0  0  0  0  0  0  0  0  0
  -10.2910   -4.8080  -23.4600 C   0  0  0  0  0  0  0  0  0  0  0  0
  -11.0720   -5.5400  -24.0480 O   0  0  0  0  0  0  0  0  0  0  0  0
   -9.2950   -6.3580  -25.2470 H   0  0  0  0  0  0  0  0  0  0  0  0
   -6.9510   -6.4080  -26.1640 H   0  0  0  0  0  0  0  0  0  0  0  0
   -5.9160   -3.2130  -23.5060 H   0  0  0  0  0  0  0  0  0  0  0  0
   -9.2630   -4.0470  -20.8050 H   0  0  0  0  0  0  0  0  0  0  0  0
  -10.1180   -2.5340  -21.0460 H   0  0  0  0  0  0  0  0  0  0  0  0
  -12.5260   -4.7300  -22.5120 H   0  0  0  0  0  0  0  0  0  0  0  0
  -12.0930   -4.0430  -20.9240 H   0  0  0  0  0  0  0  0  0  0  0  0
  -12.5400   -2.2540  -23.6780 O   0  0  0  0  0  0  0  0  0  0  0  0
  -13.2930   -1.1250  -23.9380 N   0  0  0  0  0  0  0  0  0  0  0  0
  -14.0070   -1.8430  -20.8060 H   0  0  0  0  0  0  0  0  0  0  0  0
  -15.7640   -0.0860  -23.4360 H   0  0  0  0  0  0  0  0  0  0  0  0
  -14.4780    1.1360  -23.3330 H   0  0  0  0  0  0  0  0  0  0  0  0
  -15.3520    0.5430  -21.8970 H   0  0  0  0  0  0  0  0  0  0  0  0
  1  2  1  0  0  0  0
  1 56  1  0  0  0  0
  1 57  1  0  0  0  0
  1 58  1  0  0  0  0
  2  3  1  0  0  0  0
  2 54  2  0  0  0  0
  3  4  2  0  0  0  0
  3 55  1  0  0  0  0
  4  5  1  0  0  0  0
  4 53  1  0  0  0  0
  5  6  1  0  0  0  0
  5 51  1  0  0  0  0
  5 52  1  0  0  0  0
  6  7  1  0  0  0  0
  6 44  1  0  0  0  0
  7  8  1  0  0  0  0
  7 49  1  0  0  0  0
  7 50  1  0  0  0  0
  8  9  1  1  0  0  0
  8 29  1  0  0  0  0
  8 37  1  0  0  0  0
  9 10  2  0  0  0  0
  9 11  1  0  0  0  0
 11 12  1  0  0  0  0
 11 28  1  0  0  0  0
 12 13  2  0  0  0  0
 12 21  1  0  0  0  0
 13 14  1  0  0  0  0
 13 27  1  0  0  0  0
 14 15  2  0  0  0  0
 15 16  1  0  0  0  0
 15 26  1  0  0  0  0
 16 17  2  0  0  0  0
 16 21  1  0  0  0  0
 17 18  1  0  0  0  0
 17 25  1  0  0  0  0
 18 19  2  0  0  0  0
 18 24  1  0  0  0  0
 19 20  1  0  0  0  0
 19 23  1  0  0  0  0
 20 21  2  0  0  0  0
 20 22  1  0  0  0  0
 28 29  1  0  0  0  0
 28 35  1  0  0  0  0
 28 36  1  0  0  0  0
 29 30  1  0  0  0  0
 29 34  1  6  0  0  0
 30 31  1  0  0  0  0
 30 32  1  0  0  0  0
 30 33  1  0  0  0  0
 37 38  2  0  0  0  0
 37 43  1  0  0  0  0
 38 39  1  0  0  0  0
 38 48  1  0  0  0  0
 39 40  1  0  0  0  0
 39 41  2  0  0  0  0
 41 42  1  0  0  0  0
 41 47  1  0  0  0  0
 42 43  2  0  0  0  0
 42 46  1  0  0  0  0
 43 44  1  0  0  0  0
 44 45  2  0  0  0  0
 53 54  1  0  0  0  0
M  END
>  <MODEL>
       1

$$$$
