tmp_first_model_6_91.pdb
 OpenBabel08272519583D

 66 71  0  0  1  0  0  0  0  0999 V2000
   -7.3280    3.3590  -22.0680 C   0  0  0  0  0  0  0  0  0  0  0  0
   -8.3690    2.7910  -22.8970 N   0  0  0  0  0  0  0  0  0  0  0  0
   -8.0340    2.0830  -24.0040 C   0  0  0  0  0  0  0  0  0  0  0  0
   -6.8760    1.9010  -24.3450 O   0  0  0  0  0  0  0  0  0  0  0  0
   -9.1940    1.5510  -24.8330 C   0  0  0  0  0  0  0  0  0  0  0  0
   -9.7920    0.3430  -24.3040 N   0  0  0  0  0  0  0  0  0  0  0  0
   -8.9910   -0.8600  -24.1480 C   0  0  0  0  0  0  0  0  0  0  0  0
   -9.2970   -1.6130  -22.8230 C   0  0  2  0  0  0  0  0  0  0  0  0
   -8.7490   -0.7700  -21.6330 C   0  0  0  0  0  0  0  0  0  0  0  0
   -9.2800    0.1980  -21.1270 O   0  0  0  0  0  0  0  0  0  0  0  0
   -7.5330   -1.2920  -21.2500 N   0  0  0  0  0  0  0  0  0  0  0  0
   -6.7430   -0.7450  -20.2080 C   0  0  0  0  0  0  0  0  0  0  0  0
   -7.0250   -1.0660  -18.9040 C   0  0  0  0  0  0  0  0  0  0  0  0
   -6.3020   -0.6390  -17.8410 N   0  0  0  0  0  0  0  0  0  0  0  0
   -5.2650    0.1270  -18.0820 C   0  0  0  0  0  0  0  0  0  0  0  0
   -4.8430    0.5200  -19.3840 C   0  0  0  0  0  0  0  0  0  0  0  0
   -3.7130    1.3560  -19.5950 C   0  0  0  0  0  0  0  0  0  0  0  0
   -3.3510    1.7330  -20.8590 C   0  0  0  0  0  0  0  0  0  0  0  0
   -4.1110    1.3060  -21.9690 C   0  0  0  0  0  0  0  0  0  0  0  0
   -5.2110    0.4970  -21.7920 C   0  0  0  0  0  0  0  0  0  0  0  0
   -5.6040    0.0750  -20.4920 C   0  0  0  0  0  0  0  0  0  0  0  0
   -5.8130    0.2310  -22.6560 H   0  0  0  0  0  0  0  0  0  0  0  0
   -3.8400    1.6200  -22.9730 H   0  0  0  0  0  0  0  0  0  0  0  0
   -2.4950    2.3820  -21.0180 H   0  0  0  0  0  0  0  0  0  0  0  0
   -3.1550    1.6950  -18.7270 H   0  0  0  0  0  0  0  0  0  0  0  0
   -4.6980    0.4780  -17.2210 H   0  0  0  0  0  0  0  0  0  0  0  0
   -7.8780   -1.7040  -18.6800 H   0  0  0  0  0  0  0  0  0  0  0  0
   -7.1140   -2.4350  -22.0270 C   0  0  0  0  0  0  0  0  0  0  0  0
   -8.4230   -2.9020  -22.6810 C   0  0  2  0  0  0  0  0  0  0  0  0
   -8.1150   -3.7020  -23.9400 C   0  0  0  0  0  0  0  0  0  0  0  0
   -9.3040   -4.3270  -24.4490 N   0  0  0  0  0  0  0  0  0  0  0  0
   -9.3240   -5.1000  -25.5740 C   0  0  0  0  0  0  0  0  0  0  0  0
   -8.2210   -5.1100  -26.4570 C   0  0  0  0  0  0  0  0  0  0  0  0
   -8.2390   -5.7720  -27.5970 N   0  0  0  0  0  0  0  0  0  0  0  0
   -9.3420   -6.4780  -27.8630 C   0  0  0  0  0  0  0  0  0  0  0  0
  -10.4020   -6.5150  -26.9730 C   0  0  0  0  0  0  0  0  0  0  0  0
  -10.4120   -5.8260  -25.8300 N   0  0  0  0  0  0  0  0  0  0  0  0
  -11.2810   -7.1140  -27.1970 H   0  0  0  0  0  0  0  0  0  0  0  0
   -9.3620   -7.0590  -28.7770 H   0  0  0  0  0  0  0  0  0  0  0  0
   -7.3190   -4.5550  -26.2160 H   0  0  0  0  0  0  0  0  0  0  0  0
  -10.1550   -4.3030  -23.9100 H   0  0  0  0  0  0  0  0  0  0  0  0
   -7.3400   -4.4570  -23.7410 H   0  0  0  0  0  0  0  0  0  0  0  0
   -7.6690   -3.0350  -24.6940 H   0  0  0  0  0  0  0  0  0  0  0  0
   -8.9290   -3.5670  -21.9730 H   0  0  0  0  0  0  0  0  0  0  0  0
   -6.3570   -2.1590  -22.7850 H   0  0  0  0  0  0  0  0  0  0  0  0
   -6.6570   -3.1940  -21.3800 H   0  0  0  0  0  0  0  0  0  0  0  0
  -10.8150   -1.7590  -22.7150 C   0  0  0  0  0  0  0  0  0  0  0  0
  -11.4270   -2.6990  -21.8670 C   0  0  0  0  0  0  0  0  0  0  0  0
  -12.7780   -2.5690  -21.5630 C   0  0  0  0  0  0  0  0  0  0  0  0
  -13.5000   -3.4270  -20.2460 Cl  0  0  0  0  0  0  0  0  0  0  0  0
  -13.6080   -1.6420  -22.1860 C   0  0  0  0  0  0  0  0  0  0  0  0
  -13.0330   -0.7590  -23.0650 C   0  0  0  0  0  0  0  0  0  0  0  0
  -11.6570   -0.7840  -23.2870 C   0  0  0  0  0  0  0  0  0  0  0  0
  -11.1320    0.3660  -24.0730 C   0  0  0  0  0  0  0  0  0  0  0  0
  -11.8570    1.2830  -24.4490 O   0  0  0  0  0  0  0  0  0  0  0  0
  -13.6180    0.0150  -23.5480 H   0  0  0  0  0  0  0  0  0  0  0  0
  -14.6630   -1.6170  -21.9270 H   0  0  0  0  0  0  0  0  0  0  0  0
  -10.8710   -3.5130  -21.4080 H   0  0  0  0  0  0  0  0  0  0  0  0
   -7.9500   -0.5330  -24.1570 H   0  0  0  0  0  0  0  0  0  0  0  0
   -9.1590   -1.5410  -24.9950 H   0  0  0  0  0  0  0  0  0  0  0  0
  -10.0040    2.2820  -24.8580 H   0  0  0  0  0  0  0  0  0  0  0  0
   -8.7880    1.4120  -25.8390 H   0  0  0  0  0  0  0  0  0  0  0  0
   -9.2920    2.6810  -22.5090 H   0  0  0  0  0  0  0  0  0  0  0  0
   -7.7570    4.1100  -21.4000 H   0  0  0  0  0  0  0  0  0  0  0  0
   -6.8270    2.5810  -21.4820 H   0  0  0  0  0  0  0  0  0  0  0  0
   -6.5850    3.8240  -22.7190 H   0  0  0  0  0  0  0  0  0  0  0  0
  1  2  1  0  0  0  0
  1 64  1  0  0  0  0
  1 65  1  0  0  0  0
  1 66  1  0  0  0  0
  2  3  1  0  0  0  0
  2 63  1  0  0  0  0
  3  4  2  0  0  0  0
  3  5  1  0  0  0  0
  5  6  1  0  0  0  0
  5 61  1  0  0  0  0
  5 62  1  0  0  0  0
  6  7  1  0  0  0  0
  6 54  1  0  0  0  0
  7  8  1  0  0  0  0
  7 59  1  0  0  0  0
  7 60  1  0  0  0  0
  8  9  1  1  0  0  0
  8 29  1  0  0  0  0
  8 47  1  0  0  0  0
  9 10  2  0  0  0  0
  9 11  1  0  0  0  0
 11 12  1  0  0  0  0
 11 28  1  0  0  0  0
 12 13  2  0  0  0  0
 12 21  1  0  0  0  0
 13 14  1  0  0  0  0
 13 27  1  0  0  0  0
 14 15  2  0  0  0  0
 15 16  1  0  0  0  0
 15 26  1  0  0  0  0
 16 17  2  0  0  0  0
 16 21  1  0  0  0  0
 17 18  1  0  0  0  0
 17 25  1  0  0  0  0
 18 19  2  0  0  0  0
 18 24  1  0  0  0  0
 19 20  1  0  0  0  0
 19 23  1  0  0  0  0
 20 21  2  0  0  0  0
 20 22  1  0  0  0  0
 28 29  1  0  0  0  0
 28 45  1  0  0  0  0
 28 46  1  0  0  0  0
 29 30  1  0  0  0  0
 29 44  1  1  0  0  0
 30 31  1  0  0  0  0
 30 42  1  0  0  0  0
 30 43  1  0  0  0  0
 31 32  1  0  0  0  0
 31 41  1  0  0  0  0
 32 33  2  0  0  0  0
 32 37  1  0  0  0  0
 33 34  1  0  0  0  0
 33 40  1  0  0  0  0
 34 35  2  0  0  0  0
 35 36  1  0  0  0  0
 35 39  1  0  0  0  0
 36 37  2  0  0  0  0
 36 38  1  0  0  0  0
 47 48  2  0  0  0  0
 47 53  1  0  0  0  0
 48 49  1  0  0  0  0
 48 58  1  0  0  0  0
 49 50  1  0  0  0  0
 49 51  2  0  0  0  0
 51 52  1  0  0  0  0
 51 57  1  0  0  0  0
 52 53  2  0  0  0  0
 52 56  1  0  0  0  0
 53 54  1  0  0  0  0
 54 55  2  0  0  0  0
M  END
>  <MODEL>
       1

$$$$
