tmp_first_model_3_76.pdb
 OpenBabel08272518143D

 66 71  0  0  1  0  0  0  0  0999 V2000
   -8.1150   -3.8160  -23.9120 C   0  0  0  0  0  0  0  0  0  0  0  0
   -8.3290   -3.0150  -22.6270 C   0  0  1  0  0  0  0  0  0  0  0  0
   -7.0180   -2.5970  -21.9340 C   0  0  0  0  0  0  0  0  0  0  0  0
   -7.3910   -1.4100  -21.1850 N   0  0  0  0  0  0  0  0  0  0  0  0
   -6.6020   -0.8170  -20.1670 C   0  0  0  0  0  0  0  0  0  0  0  0
   -6.9120   -1.0420  -18.8490 C   0  0  0  0  0  0  0  0  0  0  0  0
   -6.2100   -0.5430  -17.8030 N   0  0  0  0  0  0  0  0  0  0  0  0
   -5.1730    0.2110  -18.0790 C   0  0  0  0  0  0  0  0  0  0  0  0
   -4.7370    0.5290  -19.3980 C   0  0  0  0  0  0  0  0  0  0  0  0
   -3.6130    1.3610  -19.6390 C   0  0  0  0  0  0  0  0  0  0  0  0
   -3.2210    1.6510  -20.9170 C   0  0  0  0  0  0  0  0  0  0  0  0
   -3.9400    1.1220  -22.0130 C   0  0  0  0  0  0  0  0  0  0  0  0
   -5.0350    0.3140  -21.8070 C   0  0  0  0  0  0  0  0  0  0  0  0
   -5.4680   -0.0040  -20.4890 C   0  0  0  0  0  0  0  0  0  0  0  0
   -5.5800   -0.0760  -22.6640 H   0  0  0  0  0  0  0  0  0  0  0  0
   -3.6330    1.3690  -23.0260 H   0  0  0  0  0  0  0  0  0  0  0  0
   -2.3700    2.3020  -21.0970 H   0  0  0  0  0  0  0  0  0  0  0  0
   -3.0870    1.7740  -18.7810 H   0  0  0  0  0  0  0  0  0  0  0  0
   -4.6170    0.6160  -17.2330 H   0  0  0  0  0  0  0  0  0  0  0  0
   -7.7640   -1.6680  -18.5940 H   0  0  0  0  0  0  0  0  0  0  0  0
   -8.6140   -0.8890  -21.5380 C   0  0  0  0  0  0  0  0  0  0  0  0
   -9.1480    0.0510  -20.9810 O   0  0  0  0  0  0  0  0  0  0  0  0
   -9.1430   -1.6920  -22.7510 C   0  0  1  0  0  0  0  0  0  0  0  0
   -8.8390   -0.9470  -24.0710 C   0  0  0  0  0  0  0  0  0  0  0  0
   -9.5670    0.3020  -24.1660 N   0  0  0  0  0  0  0  0  0  0  0  0
   -8.8500    1.5140  -24.5010 C   0  0  0  0  0  0  0  0  0  0  0  0
   -8.2670    2.1730  -23.2490 C   0  0  0  0  0  0  0  0  0  0  0  0
   -7.5920    3.4810  -23.5140 N   0  3  0  0  0  0  0  0  0  0  0  0
   -6.3360    3.3640  -24.3570 C   0  0  0  0  0  0  0  0  0  0  0  0
   -5.6290    4.7090  -24.4590 C   0  0  0  0  0  0  0  0  0  0  0  0
   -5.3280    5.2540  -23.1920 O   0  0  0  0  0  0  0  0  0  0  0  0
   -6.5120    5.4710  -22.4530 C   0  0  0  0  0  0  0  0  0  0  0  0
   -7.2680    4.1740  -22.2130 C   0  0  0  0  0  0  0  0  0  0  0  0
   -8.2050    4.3670  -21.6830 H   0  0  0  0  0  0  0  0  0  0  0  0
   -6.6540    3.4920  -21.6130 H   0  0  0  0  0  0  0  0  0  0  0  0
   -7.1660    6.1800  -22.9860 H   0  0  0  0  0  0  0  0  0  0  0  0
   -6.2100    5.9160  -21.5010 H   0  0  0  0  0  0  0  0  0  0  0  0
   -4.6740    4.6030  -24.9800 H   0  0  0  0  0  0  0  0  0  0  0  0
   -6.2610    5.4120  -25.0260 H   0  0  0  0  0  0  0  0  0  0  0  0
   -5.6720    2.6260  -23.8950 H   0  0  0  0  0  0  0  0  0  0  0  0
   -6.6090    3.0170  -25.3550 H   0  0  0  0  0  0  0  0  0  0  0  0
   -8.2840    4.0770  -24.0190 H   0  0  0  0  0  0  0  0  0  0  0  0
   -9.0610    2.3420  -22.5130 H   0  0  0  0  0  0  0  0  0  0  0  0
   -7.5360    1.4970  -22.7870 H   0  0  0  0  0  0  0  0  0  0  0  0
   -9.5620    2.1710  -25.0050 H   0  0  0  0  0  0  0  0  0  0  0  0
   -8.0530    1.2350  -25.1990 H   0  0  0  0  0  0  0  0  0  0  0  0
  -10.9080    0.3690  -23.9120 C   0  0  0  0  0  0  0  0  0  0  0  0
  -11.5960    1.3390  -24.2020 O   0  0  0  0  0  0  0  0  0  0  0  0
  -11.4760   -0.8370  -23.2250 C   0  0  0  0  0  0  0  0  0  0  0  0
  -12.8580   -0.9230  -23.0760 C   0  0  0  0  0  0  0  0  0  0  0  0
  -13.4220   -1.9360  -22.3240 C   0  0  0  0  0  0  0  0  0  0  0  0
  -12.5810   -2.8570  -21.6900 C   0  0  0  0  0  0  0  0  0  0  0  0
  -13.1320   -4.0040  -20.4980 Cl  0  0  0  0  0  0  0  0  0  0  0  0
  -11.2200   -2.8280  -21.9040 C   0  0  0  0  0  0  0  0  0  0  0  0
  -10.6430   -1.8210  -22.6730 C   0  0  0  0  0  0  0  0  0  0  0  0
  -10.6190   -3.5770  -21.4060 H   0  0  0  0  0  0  0  0  0  0  0  0
  -14.5000   -1.9660  -22.2260 H   0  0  0  0  0  0  0  0  0  0  0  0
  -13.4810   -0.1560  -23.5240 H   0  0  0  0  0  0  0  0  0  0  0  0
   -7.7680   -0.7260  -24.1360 H   0  0  0  0  0  0  0  0  0  0  0  0
   -9.1260   -1.6150  -24.9000 H   0  0  0  0  0  0  0  0  0  0  0  0
   -6.2400   -2.3750  -22.6800 H   0  0  0  0  0  0  0  0  0  0  0  0
   -6.6290   -3.3700  -21.2610 H   0  0  0  0  0  0  0  0  0  0  0  0
   -8.8730   -3.6450  -21.9170 H   0  0  0  0  0  0  0  0  0  0  0  0
   -7.6080   -4.7650  -23.7040 H   0  0  0  0  0  0  0  0  0  0  0  0
   -7.4870   -3.2580  -24.6170 H   0  0  0  0  0  0  0  0  0  0  0  0
   -9.0610   -4.0470  -24.4180 H   0  0  0  0  0  0  0  0  0  0  0  0
  1  2  1  0  0  0  0
  1 64  1  0  0  0  0
  1 65  1  0  0  0  0
  1 66  1  0  0  0  0
  2  3  1  0  0  0  0
  2 23  1  0  0  0  0
  2 63  1  1  0  0  0
  3  4  1  0  0  0  0
  3 61  1  0  0  0  0
  3 62  1  0  0  0  0
  4  5  1  0  0  0  0
  4 21  1  0  0  0  0
  5  6  2  0  0  0  0
  5 14  1  0  0  0  0
  6  7  1  0  0  0  0
  6 20  1  0  0  0  0
  7  8  2  0  0  0  0
  8  9  1  0  0  0  0
  8 19  1  0  0  0  0
  9 10  2  0  0  0  0
  9 14  1  0  0  0  0
 10 11  1  0  0  0  0
 10 18  1  0  0  0  0
 11 12  2  0  0  0  0
 11 17  1  0  0  0  0
 12 13  1  0  0  0  0
 12 16  1  0  0  0  0
 13 14  2  0  0  0  0
 13 15  1  0  0  0  0
 21 22  2  0  0  0  0
 23 21  1  1  0  0  0
 23 24  1  0  0  0  0
 23 55  1  0  0  0  0
 24 25  1  0  0  0  0
 24 59  1  0  0  0  0
 24 60  1  0  0  0  0
 25 26  1  0  0  0  0
 25 47  1  0  0  0  0
 26 27  1  0  0  0  0
 26 45  1  0  0  0  0
 26 46  1  0  0  0  0
 27 28  1  0  0  0  0
 27 43  1  0  0  0  0
 27 44  1  0  0  0  0
 28 29  1  0  0  0  0
 28 33  1  0  0  0  0
 28 42  1  0  0  0  0
 29 30  1  0  0  0  0
 29 40  1  0  0  0  0
 29 41  1  0  0  0  0
 30 31  1  0  0  0  0
 30 38  1  0  0  0  0
 30 39  1  0  0  0  0
 31 32  1  0  0  0  0
 32 33  1  0  0  0  0
 32 36  1  0  0  0  0
 32 37  1  0  0  0  0
 33 34  1  0  0  0  0
 33 35  1  0  0  0  0
 47 48  2  0  0  0  0
 47 49  1  0  0  0  0
 49 50  2  0  0  0  0
 49 55  1  0  0  0  0
 50 51  1  0  0  0  0
 50 58  1  0  0  0  0
 51 52  2  0  0  0  0
 51 57  1  0  0  0  0
 52 53  1  0  0  0  0
 52 54  1  0  0  0  0
 54 55  2  0  0  0  0
 54 56  1  0  0  0  0
M  CHG  1  28   1
M  END
>  <MODEL>
       1

$$$$
