tmp_first_model_5_47.pdb
 OpenBabel08272519233D

 58 63  0  0  1  0  0  0  0  0999 V2000
   -8.6400    0.6040  -21.1110 O   0  0  0  0  0  0  0  0  0  0  0  0
   -8.3900   -0.3600  -21.8140 C   0  0  0  0  0  0  0  0  0  0  0  0
   -7.5130   -1.5070  -21.2990 C   0  0  0  0  0  0  0  0  0  0  0  0
   -6.5680   -1.0290  -20.2410 C   0  0  0  0  0  0  0  0  0  0  0  0
   -6.8320   -1.2340  -18.9110 C   0  0  0  0  0  0  0  0  0  0  0  0
   -5.9680   -0.9720  -17.8920 N   0  0  0  0  0  0  0  0  0  0  0  0
   -4.8050   -0.4730  -18.2300 C   0  0  0  0  0  0  0  0  0  0  0  0
   -4.4540   -0.0840  -19.5540 C   0  0  0  0  0  0  0  0  0  0  0  0
   -3.2730    0.6620  -19.8160 C   0  0  0  0  0  0  0  0  0  0  0  0
   -3.1450    1.3650  -20.9770 C   0  0  0  0  0  0  0  0  0  0  0  0
   -4.0810    1.1620  -22.0210 C   0  0  0  0  0  0  0  0  0  0  0  0
   -5.1320    0.2950  -21.8610 C   0  0  0  0  0  0  0  0  0  0  0  0
   -5.3970   -0.2880  -20.5880 C   0  0  0  0  0  0  0  0  0  0  0  0
   -5.7560    0.0560  -22.7160 H   0  0  0  0  0  0  0  0  0  0  0  0
   -3.9210    1.6390  -22.9790 H   0  0  0  0  0  0  0  0  0  0  0  0
   -2.2580    1.9630  -21.1630 H   0  0  0  0  0  0  0  0  0  0  0  0
   -2.5320    0.7580  -19.0300 H   0  0  0  0  0  0  0  0  0  0  0  0
   -4.0880   -0.2880  -17.4230 H   0  0  0  0  0  0  0  0  0  0  0  0
   -7.7950   -1.6250  -18.5830 H   0  0  0  0  0  0  0  0  0  0  0  0
   -6.9410   -1.9520  -22.1160 H   0  0  0  0  0  0  0  0  0  0  0  0
   -8.1610   -2.2960  -20.8900 H   0  0  0  0  0  0  0  0  0  0  0  0
   -8.8420   -0.4310  -23.1160 N   0  0  0  0  0  0  0  0  0  0  0  0
   -9.1350    0.8430  -23.7720 C   0  0  0  0  0  0  0  0  0  0  0  0
   -7.8600    1.6150  -24.0420 C   0  0  0  0  0  0  0  0  0  0  0  0
   -7.5360    2.7180  -23.2540 C   0  0  0  0  0  0  0  0  0  0  0  0
   -6.3640    3.4280  -23.4840 C   0  0  0  0  0  0  0  0  0  0  0  0
   -5.4830    3.0310  -24.4860 C   0  0  0  0  0  0  0  0  0  0  0  0
   -5.7820    1.8870  -25.2190 C   0  0  0  0  0  0  0  0  0  0  0  0
   -4.6160    1.3010  -26.3750 Cl  0  0  0  0  0  0  0  0  0  0  0  0
   -6.9620    1.1840  -25.0190 C   0  0  0  0  0  0  0  0  0  0  0  0
   -7.1520    0.3080  -25.6360 H   0  0  0  0  0  0  0  0  0  0  0  0
   -4.5610    3.5720  -24.6720 H   0  0  0  0  0  0  0  0  0  0  0  0
   -6.1220    4.2880  -22.8670 H   0  0  0  0  0  0  0  0  0  0  0  0
   -8.2000    3.0060  -22.4410 H   0  0  0  0  0  0  0  0  0  0  0  0
   -9.7960    1.4260  -23.1240 H   0  0  0  0  0  0  0  0  0  0  0  0
   -9.6640    0.6250  -24.7030 H   0  0  0  0  0  0  0  0  0  0  0  0
   -9.1400   -1.6740  -23.7580 C   0  0  2  0  0  0  0  0  0  0  0  0
  -10.2680   -2.5190  -23.1330 C   0  0  0  0  0  0  0  0  0  0  0  0
  -10.2410   -3.6940  -24.0950 N   0  3  1  0  0  0  0  0  0  0  0  0
  -11.5040   -4.1070  -24.7040 C   0  0  0  0  0  0  0  0  0  0  0  0
  -11.6780   -5.5790  -24.8840 C   0  0  0  0  0  0  0  0  0  0  0  0
  -12.4510   -4.8340  -23.8120 C   0  0  0  0  0  0  0  0  0  0  0  0
  -12.1500   -4.9340  -22.7740 H   0  0  0  0  0  0  0  0  0  0  0  0
  -13.5210   -4.7330  -23.9340 H   0  0  0  0  0  0  0  0  0  0  0  0
  -10.8390   -6.2010  -24.5830 H   0  0  0  0  0  0  0  0  0  0  0  0
  -12.2080   -5.9440  -25.7560 H   0  0  0  0  0  0  0  0  0  0  0  0
  -11.8900   -3.4440  -25.4640 H   0  0  0  0  0  0  0  0  0  0  0  0
   -9.1910   -3.2230  -25.0630 C   0  0  2  0  0  0  0  0  0  0  0  0
   -8.1030   -2.7800  -24.0880 C   0  0  0  0  0  0  0  0  0  0  0  0
   -7.9110   -3.5120  -23.2950 H   0  0  0  0  0  0  0  0  0  0  0  0
   -7.1850   -2.4300  -24.5580 H   0  0  0  0  0  0  0  0  0  0  0  0
   -9.5370   -1.7430  -25.2480 C   0  0  0  0  0  0  0  0  0  0  0  0
  -10.5790   -1.4920  -25.4670 H   0  0  0  0  0  0  0  0  0  0  0  0
   -8.8470   -1.2370  -25.9200 H   0  0  0  0  0  0  0  0  0  0  0  0
   -9.0230   -3.9040  -25.8870 H   0  0  0  0  0  0  0  0  0  0  0  0
   -9.8720   -4.5240  -23.5890 H   0  0  0  0  0  0  0  0  0  0  0  0
  -11.2430   -2.0330  -23.1510 H   0  0  0  0  0  0  0  0  0  0  0  0
  -10.0500   -2.8550  -22.1180 H   0  0  0  0  0  0  0  0  0  0  0  0
  1  2  2  0  0  0  0
  2  3  1  0  0  0  0
  2 22  1  0  0  0  0
  3  4  1  0  0  0  0
  3 20  1  0  0  0  0
  3 21  1  0  0  0  0
  4  5  2  0  0  0  0
  4 13  1  0  0  0  0
  5  6  1  0  0  0  0
  5 19  1  0  0  0  0
  6  7  2  0  0  0  0
  7  8  1  0  0  0  0
  7 18  1  0  0  0  0
  8  9  2  0  0  0  0
  8 13  1  0  0  0  0
  9 10  1  0  0  0  0
  9 17  1  0  0  0  0
 10 11  2  0  0  0  0
 10 16  1  0  0  0  0
 11 12  1  0  0  0  0
 11 15  1  0  0  0  0
 12 13  2  0  0  0  0
 12 14  1  0  0  0  0
 22 23  1  0  0  0  0
 23 24  1  0  0  0  0
 23 35  1  0  0  0  0
 23 36  1  0  0  0  0
 24 25  2  0  0  0  0
 24 30  1  0  0  0  0
 25 26  1  0  0  0  0
 25 34  1  0  0  0  0
 26 27  2  0  0  0  0
 26 33  1  0  0  0  0
 27 28  1  0  0  0  0
 27 32  1  0  0  0  0
 28 29  1  0  0  0  0
 28 30  2  0  0  0  0
 30 31  1  0  0  0  0
 37 22  1  1  0  0  0
 37 38  1  0  0  0  0
 37 49  1  0  0  0  0
 37 52  1  0  0  0  0
 38 39  1  0  0  0  0
 38 57  1  0  0  0  0
 38 58  1  0  0  0  0
 39 40  1  0  0  0  0
 39 48  1  0  0  0  0
 39 56  1  1  0  0  0
 40 41  1  0  0  0  0
 40 42  1  0  0  0  0
 40 47  1  0  0  0  0
 41 42  1  0  0  0  0
 41 45  1  0  0  0  0
 41 46  1  0  0  0  0
 42 43  1  0  0  0  0
 42 44  1  0  0  0  0
 48 49  1  0  0  0  0
 48 52  1  0  0  0  0
 48 55  1  6  0  0  0
 49 50  1  0  0  0  0
 49 51  1  0  0  0  0
 52 53  1  0  0  0  0
 52 54  1  0  0  0  0
M  CHG  1  39   1
M  END
>  <MODEL>
       1

$$$$
