tmp_first_model_8_80.pdb
 OpenBabel08272521063D

 60 65  0  0  1  0  0  0  0  0999 V2000
   -2.6830   -6.7790  -22.7300 C   0  0  0  0  0  0  0  0  0  0  0  0
   -3.9430   -6.1780  -22.2740 N   0  0  0  0  0  0  0  0  0  0  0  0
   -4.9910   -6.9950  -22.0120 C   0  0  0  0  0  0  0  0  0  0  0  0
   -4.9320   -8.1870  -22.0320 O   0  0  0  0  0  0  0  0  0  0  0  0
   -6.6680   -6.0250  -21.4830 C   0  0  0  0  0  0  0  0  0  0  0  0
   -7.5020   -5.5010  -22.5770 N   0  0  0  0  0  0  0  0  0  0  0  0
   -8.4600   -4.4280  -22.3510 C   0  0  0  0  0  0  0  0  0  0  0  0
   -7.9850   -3.0480  -22.8690 C   0  0  2  0  0  0  0  0  0  0  0  0
   -6.8330   -2.4940  -22.0000 C   0  0  0  0  0  0  0  0  0  0  0  0
   -5.6770   -2.8690  -22.0150 O   0  0  0  0  0  0  0  0  0  0  0  0
   -7.3220   -1.4740  -21.2110 N   0  0  0  0  0  0  0  0  0  0  0  0
   -6.5630   -0.8680  -20.1850 C   0  0  0  0  0  0  0  0  0  0  0  0
   -6.9020   -1.0730  -18.8720 C   0  0  0  0  0  0  0  0  0  0  0  0
   -6.2280   -0.5660  -17.8130 N   0  0  0  0  0  0  0  0  0  0  0  0
   -5.1930    0.1980  -18.0710 C   0  0  0  0  0  0  0  0  0  0  0  0
   -4.7500    0.5190  -19.3860 C   0  0  0  0  0  0  0  0  0  0  0  0
   -3.6330    1.3680  -19.6090 C   0  0  0  0  0  0  0  0  0  0  0  0
   -3.2650    1.7040  -20.8820 C   0  0  0  0  0  0  0  0  0  0  0  0
   -3.9950    1.2150  -21.9870 C   0  0  0  0  0  0  0  0  0  0  0  0
   -5.0600    0.3690  -21.8010 C   0  0  0  0  0  0  0  0  0  0  0  0
   -5.4590   -0.0080  -20.4870 C   0  0  0  0  0  0  0  0  0  0  0  0
   -5.6020   -0.0250  -22.6550 H   0  0  0  0  0  0  0  0  0  0  0  0
   -3.6880    1.4890  -22.9930 H   0  0  0  0  0  0  0  0  0  0  0  0
   -2.4120    2.3540  -21.0550 H   0  0  0  0  0  0  0  0  0  0  0  0
   -3.0960    1.7560  -18.7470 H   0  0  0  0  0  0  0  0  0  0  0  0
   -4.6500    0.6090  -17.2190 H   0  0  0  0  0  0  0  0  0  0  0  0
   -7.7490   -1.7150  -18.6310 H   0  0  0  0  0  0  0  0  0  0  0  0
   -8.7640   -1.3390  -21.2920 C   0  0  0  0  0  0  0  0  0  0  0  0
   -9.1070   -1.9860  -22.6430 C   0  0  2  0  0  0  0  0  0  0  0  0
  -10.5460   -2.4940  -22.6850 C   0  0  0  0  0  0  0  0  0  0  0  0
  -10.7560   -3.1730  -21.8500 H   0  0  0  0  0  0  0  0  0  0  0  0
  -11.2540   -1.6640  -22.6080 H   0  0  0  0  0  0  0  0  0  0  0  0
  -10.7560   -3.0360  -23.6130 H   0  0  0  0  0  0  0  0  0  0  0  0
   -8.9870   -1.2180  -23.4100 H   0  0  0  0  0  0  0  0  0  0  0  0
   -9.0550   -0.2850  -21.2430 H   0  0  0  0  0  0  0  0  0  0  0  0
   -9.2690   -1.8730  -20.4730 H   0  0  0  0  0  0  0  0  0  0  0  0
   -7.4890   -3.2440  -24.2890 C   0  0  0  0  0  0  0  0  0  0  0  0
   -7.3620   -2.1380  -25.1380 C   0  0  0  0  0  0  0  0  0  0  0  0
   -6.9250   -2.3030  -26.4370 C   0  0  0  0  0  0  0  0  0  0  0  0
   -6.8140   -0.9090  -27.4720 Cl  0  0  0  0  0  0  0  0  0  0  0  0
   -6.5700   -3.5580  -26.9320 C   0  0  0  0  0  0  0  0  0  0  0  0
   -6.6250   -4.6460  -26.0790 C   0  0  0  0  0  0  0  0  0  0  0  0
   -7.0560   -4.5010  -24.7490 C   0  0  0  0  0  0  0  0  0  0  0  0
   -6.9610   -5.6750  -23.8220 C   0  0  0  0  0  0  0  0  0  0  0  0
   -6.3990   -6.7150  -24.1360 O   0  0  0  0  0  0  0  0  0  0  0  0
   -6.3260   -5.6290  -26.4340 H   0  0  0  0  0  0  0  0  0  0  0  0
   -6.2460   -3.6610  -27.9660 H   0  0  0  0  0  0  0  0  0  0  0  0
   -7.5960   -1.1380  -24.7920 H   0  0  0  0  0  0  0  0  0  0  0  0
   -9.4000   -4.7020  -22.8510 H   0  0  0  0  0  0  0  0  0  0  0  0
   -8.6400   -4.3740  -21.2780 H   0  0  0  0  0  0  0  0  0  0  0  0
   -6.9540   -6.2890  -21.3220 C   0  0  0  0  0  0  0  0  0  0  0  0
   -5.9720   -5.3870  -20.3810 C   0  0  0  0  0  0  0  0  0  0  0  0
   -5.4860   -6.0720  -19.7440 H   0  0  0  0  0  0  0  0  0  0  0  0
   -6.5020   -4.5260  -20.0540 H   0  0  0  0  0  0  0  0  0  0  0  0
   -7.8690   -6.4810  -20.7570 H   0  0  0  0  0  0  0  0  0  0  0  0
   -7.2440   -7.3920  -21.5260 H   0  0  0  0  0  0  0  0  0  0  0  0
   -4.0340   -5.1680  -22.3100 H   0  0  0  0  0  0  0  0  0  0  0  0
   -2.3430   -7.5270  -22.0080 H   0  0  0  0  0  0  0  0  0  0  0  0
   -2.8150   -7.3010  -23.6820 H   0  0  0  0  0  0  0  0  0  0  0  0
   -1.9230   -6.0040  -22.8360 H   0  0  0  0  0  0  0  0  0  0  0  0
  1  2  1  0  0  0  0
  1 58  1  0  0  0  0
  1 59  1  0  0  0  0
  1 60  1  0  0  0  0
  2  3  1  0  0  0  0
  2 57  1  0  0  0  0
  3  4  2  0  0  0  0
  3  5  1  0  0  0  0
  5  6  1  0  0  0  0
  5 51  1  0  0  0  0
  5 52  1  0  0  0  0
  6  7  1  0  0  0  0
  6 44  1  0  0  0  0
  7  8  1  0  0  0  0
  7 49  1  0  0  0  0
  7 50  1  0  0  0  0
  8  9  1  1  0  0  0
  8 29  1  0  0  0  0
  8 37  1  0  0  0  0
  9 10  2  0  0  0  0
  9 11  1  0  0  0  0
 11 12  1  0  0  0  0
 11 28  1  0  0  0  0
 12 13  2  0  0  0  0
 12 21  1  0  0  0  0
 13 14  1  0  0  0  0
 13 27  1  0  0  0  0
 14 15  2  0  0  0  0
 15 16  1  0  0  0  0
 15 26  1  0  0  0  0
 16 17  2  0  0  0  0
 16 21  1  0  0  0  0
 17 18  1  0  0  0  0
 17 25  1  0  0  0  0
 18 19  2  0  0  0  0
 18 24  1  0  0  0  0
 19 20  1  0  0  0  0
 19 23  1  0  0  0  0
 20 21  2  0  0  0  0
 20 22  1  0  0  0  0
 28 29  1  0  0  0  0
 28 35  1  0  0  0  0
 28 36  1  0  0  0  0
 29 30  1  0  0  0  0
 29 34  1  6  0  0  0
 30 31  1  0  0  0  0
 30 32  1  0  0  0  0
 30 33  1  0  0  0  0
 37 38  2  0  0  0  0
 37 43  1  0  0  0  0
 38 39  1  0  0  0  0
 38 48  1  0  0  0  0
 39 40  1  0  0  0  0
 39 41  2  0  0  0  0
 41 42  1  0  0  0  0
 41 47  1  0  0  0  0
 42 43  2  0  0  0  0
 42 46  1  0  0  0  0
 43 44  1  0  0  0  0
 44 45  2  0  0  0  0
 51 52  1  0  0  0  0
 51 55  1  0  0  0  0
 51 56  1  0  0  0  0
 52 53  1  0  0  0  0
 52 54  1  0  0  0  0
M  END
>  <MODEL>
       1

$$$$
