tmp_first_model_2_21.pdb
 OpenBabel08272517383D

 63 68  0  0  1  0  0  0  0  0999 V2000
   -8.1630   -3.7830  -23.9150 C   0  0  0  0  0  0  0  0  0  0  0  0
   -8.3460   -3.0320  -22.6000 C   0  0  1  0  0  0  0  0  0  0  0  0
   -7.0280   -2.4510  -22.0460 C   0  0  0  0  0  0  0  0  0  0  0  0
   -7.4760   -1.3530  -21.2130 N   0  0  0  0  0  0  0  0  0  0  0  0
   -6.6820   -0.7860  -20.1750 C   0  0  0  0  0  0  0  0  0  0  0  0
   -6.9940   -1.0110  -18.8550 C   0  0  0  0  0  0  0  0  0  0  0  0
   -6.2820   -0.5240  -17.8090 N   0  0  0  0  0  0  0  0  0  0  0  0
   -5.2330    0.2170  -18.0760 C   0  0  0  0  0  0  0  0  0  0  0  0
   -4.7820    0.5200  -19.3910 C   0  0  0  0  0  0  0  0  0  0  0  0
   -3.6460    1.3420  -19.6370 C   0  0  0  0  0  0  0  0  0  0  0  0
   -3.2540    1.6300  -20.9160 C   0  0  0  0  0  0  0  0  0  0  0  0
   -3.9850    1.1150  -22.0070 C   0  0  0  0  0  0  0  0  0  0  0  0
   -5.0820    0.3070  -21.7960 C   0  0  0  0  0  0  0  0  0  0  0  0
   -5.5150   -0.0110  -20.4810 C   0  0  0  0  0  0  0  0  0  0  0  0
   -5.6760   -0.0170  -22.6430 H   0  0  0  0  0  0  0  0  0  0  0  0
   -3.7000    1.3840  -23.0200 H   0  0  0  0  0  0  0  0  0  0  0  0
   -2.4050    2.2860  -21.0960 H   0  0  0  0  0  0  0  0  0  0  0  0
   -3.1210    1.7620  -18.7840 H   0  0  0  0  0  0  0  0  0  0  0  0
   -4.6760    0.6210  -17.2280 H   0  0  0  0  0  0  0  0  0  0  0  0
   -7.8490   -1.6310  -18.5900 H   0  0  0  0  0  0  0  0  0  0  0  0
   -8.7640   -0.9450  -21.4950 C   0  0  0  0  0  0  0  0  0  0  0  0
   -9.3360   -0.0200  -20.9510 O   0  0  0  0  0  0  0  0  0  0  0  0
   -9.3530   -1.8420  -22.6250 C   0  0  1  0  0  0  0  0  0  0  0  0
   -9.3120   -1.0960  -23.9910 C   0  0  0  0  0  0  0  0  0  0  0  0
  -10.2680   -0.0080  -24.1000 N   0  0  0  0  0  0  0  0  0  0  0  0
   -9.8460    1.2030  -24.7960 C   0  0  0  0  0  0  0  0  0  0  0  0
   -8.6070    1.7650  -24.0940 C   0  0  0  0  0  0  0  0  0  0  0  0
   -7.4870    1.6940  -24.5720 O   0  0  0  0  0  0  0  0  0  0  0  0
   -8.9020    2.2630  -22.8670 N   0  0  0  0  0  0  0  0  0  0  0  0
   -7.9200    2.5370  -21.8360 C   0  0  0  0  0  0  0  0  0  0  0  0
   -7.4320    3.9680  -21.8540 C   0  0  0  0  0  0  0  0  0  0  0  0
   -6.1280    4.3110  -21.2060 C   0  0  0  0  0  0  0  0  0  0  0  0
   -6.2250    4.2720  -22.7040 C   0  0  0  0  0  0  0  0  0  0  0  0
   -5.7530    3.4270  -23.2090 H   0  0  0  0  0  0  0  0  0  0  0  0
   -6.1840    5.2050  -23.2590 H   0  0  0  0  0  0  0  0  0  0  0  0
   -5.5690    3.4980  -20.7530 H   0  0  0  0  0  0  0  0  0  0  0  0
   -6.0000    5.2830  -20.7380 H   0  0  0  0  0  0  0  0  0  0  0  0
   -8.2330    4.7050  -21.8030 H   0  0  0  0  0  0  0  0  0  0  0  0
   -8.4110    2.2610  -20.9010 H   0  0  0  0  0  0  0  0  0  0  0  0
   -7.0740    1.8540  -21.9660 H   0  0  0  0  0  0  0  0  0  0  0  0
   -9.8610    2.1850  -22.5610 H   0  0  0  0  0  0  0  0  0  0  0  0
  -10.6880    1.8950  -24.7210 H   0  0  0  0  0  0  0  0  0  0  0  0
   -9.6220    1.0140  -25.8520 H   0  0  0  0  0  0  0  0  0  0  0  0
  -11.5070   -0.0530  -23.5390 C   0  0  0  0  0  0  0  0  0  0  0  0
  -12.3080    0.8690  -23.6540 O   0  0  0  0  0  0  0  0  0  0  0  0
  -11.8290   -1.2930  -22.7620 C   0  0  0  0  0  0  0  0  0  0  0  0
  -13.1690   -1.5010  -22.4350 C   0  0  0  0  0  0  0  0  0  0  0  0
  -13.5390   -2.5660  -21.6450 C   0  0  0  0  0  0  0  0  0  0  0  0
  -12.5320   -3.4130  -21.2120 C   0  0  0  0  0  0  0  0  0  0  0  0
  -12.8730   -4.3230  -20.2890 F   0  0  0  0  0  0  0  0  0  0  0  0
  -11.2110   -3.2980  -21.6030 C   0  0  0  0  0  0  0  0  0  0  0  0
  -10.8170   -2.1850  -22.3570 C   0  0  0  0  0  0  0  0  0  0  0  0
  -10.5090   -4.0330  -21.2200 H   0  0  0  0  0  0  0  0  0  0  0  0
  -14.5580   -2.7390  -21.3190 H   0  0  0  0  0  0  0  0  0  0  0  0
  -13.9020   -0.7860  -22.7880 H   0  0  0  0  0  0  0  0  0  0  0  0
   -8.3210   -0.6680  -24.1430 H   0  0  0  0  0  0  0  0  0  0  0  0
   -9.5020   -1.8120  -24.8000 H   0  0  0  0  0  0  0  0  0  0  0  0
   -6.3640   -2.1040  -22.8540 H   0  0  0  0  0  0  0  0  0  0  0  0
   -6.4650   -3.1830  -21.4560 H   0  0  0  0  0  0  0  0  0  0  0  0
   -8.7090   -3.7300  -21.8390 H   0  0  0  0  0  0  0  0  0  0  0  0
   -7.7050   -3.1360  -24.6740 H   0  0  0  0  0  0  0  0  0  0  0  0
   -7.5090   -4.6540  -23.7920 H   0  0  0  0  0  0  0  0  0  0  0  0
   -9.1260   -4.1310  -24.3070 H   0  0  0  0  0  0  0  0  0  0  0  0
  1  2  1  0  0  0  0
  1 61  1  0  0  0  0
  1 62  1  0  0  0  0
  1 63  1  0  0  0  0
  2  3  1  0  0  0  0
  2 23  1  0  0  0  0
  2 60  1  1  0  0  0
  3  4  1  0  0  0  0
  3 58  1  0  0  0  0
  3 59  1  0  0  0  0
  4  5  1  0  0  0  0
  4 21  1  0  0  0  0
  5  6  2  0  0  0  0
  5 14  1  0  0  0  0
  6  7  1  0  0  0  0
  6 20  1  0  0  0  0
  7  8  2  0  0  0  0
  8  9  1  0  0  0  0
  8 19  1  0  0  0  0
  9 10  2  0  0  0  0
  9 14  1  0  0  0  0
 10 11  1  0  0  0  0
 10 18  1  0  0  0  0
 11 12  2  0  0  0  0
 11 17  1  0  0  0  0
 12 13  1  0  0  0  0
 12 16  1  0  0  0  0
 13 14  2  0  0  0  0
 13 15  1  0  0  0  0
 21 22  2  0  0  0  0
 23 21  1  1  0  0  0
 23 24  1  0  0  0  0
 23 52  1  0  0  0  0
 24 25  1  0  0  0  0
 24 56  1  0  0  0  0
 24 57  1  0  0  0  0
 25 26  1  0  0  0  0
 25 44  1  0  0  0  0
 26 27  1  0  0  0  0
 26 42  1  0  0  0  0
 26 43  1  0  0  0  0
 27 28  2  0  0  0  0
 27 29  1  0  0  0  0
 29 30  1  0  0  0  0
 29 41  1  0  0  0  0
 30 31  1  0  0  0  0
 30 39  1  0  0  0  0
 30 40  1  0  0  0  0
 31 32  1  0  0  0  0
 31 33  1  0  0  0  0
 31 38  1  0  0  0  0
 32 33  1  0  0  0  0
 32 36  1  0  0  0  0
 32 37  1  0  0  0  0
 33 34  1  0  0  0  0
 33 35  1  0  0  0  0
 44 45  2  0  0  0  0
 44 46  1  0  0  0  0
 46 47  2  0  0  0  0
 46 52  1  0  0  0  0
 47 48  1  0  0  0  0
 47 55  1  0  0  0  0
 48 49  2  0  0  0  0
 48 54  1  0  0  0  0
 49 50  1  0  0  0  0
 49 51  1  0  0  0  0
 51 52  2  0  0  0  0
 51 53  1  0  0  0  0
M  END
>  <MODEL>
       1

$$$$
