tmp_first_model_11_48.pdb
 OpenBabel08272522543D

 46 48  0  0  0  0  0  0  0  0999 V2000
  -13.2100   -3.7760  -22.7340 C   0  0  0  0  0  0  0  0  0  0  0  0
  -13.2250   -2.7910  -23.9050 C   0  0  0  0  0  0  0  0  0  0  0  0
  -14.5760   -2.0610  -23.9280 C   0  0  0  0  0  0  0  0  0  0  0  0
  -15.3780   -2.7920  -24.0780 H   0  0  0  0  0  0  0  0  0  0  0  0
  -14.6480   -1.3190  -24.7320 H   0  0  0  0  0  0  0  0  0  0  0  0
  -14.7780   -1.5410  -22.9810 H   0  0  0  0  0  0  0  0  0  0  0  0
  -12.0180   -1.8280  -23.9860 C   0  0  0  0  0  0  0  0  0  0  0  0
  -11.9860   -0.7500  -22.8980 C   0  0  0  0  0  0  0  0  0  0  0  0
  -10.6330   -0.0700  -22.8920 C   0  0  0  0  0  0  0  0  0  0  0  0
   -9.5820   -0.9850  -22.4640 N   0  0  0  0  0  0  0  0  0  0  0  0
   -8.5360   -0.4510  -21.7600 C   0  0  0  0  0  0  0  0  0  0  0  0
   -8.4700    0.7470  -21.5210 O   0  0  0  0  0  0  0  0  0  0  0  0
   -7.4670   -1.4230  -21.2590 C   0  0  0  0  0  0  0  0  0  0  0  0
   -6.6040   -0.8320  -20.1850 C   0  0  0  0  0  0  0  0  0  0  0  0
   -6.9120   -1.0470  -18.8640 C   0  0  0  0  0  0  0  0  0  0  0  0
   -6.2300   -0.5410  -17.8030 N   0  0  0  0  0  0  0  0  0  0  0  0
   -5.1900    0.2110  -18.0730 C   0  0  0  0  0  0  0  0  0  0  0  0
   -4.7490    0.5130  -19.3900 C   0  0  0  0  0  0  0  0  0  0  0  0
   -3.6210    1.3380  -19.6220 C   0  0  0  0  0  0  0  0  0  0  0  0
   -3.2280    1.6340  -20.9000 C   0  0  0  0  0  0  0  0  0  0  0  0
   -3.9510    1.1180  -22.0010 C   0  0  0  0  0  0  0  0  0  0  0  0
   -5.0550    0.3220  -21.7980 C   0  0  0  0  0  0  0  0  0  0  0  0
   -5.4790   -0.0070  -20.4820 C   0  0  0  0  0  0  0  0  0  0  0  0
   -5.6250   -0.0390  -22.6480 H   0  0  0  0  0  0  0  0  0  0  0  0
   -3.6360    1.3650  -23.0110 H   0  0  0  0  0  0  0  0  0  0  0  0
   -2.3730    2.2820  -21.0720 H   0  0  0  0  0  0  0  0  0  0  0  0
   -3.0990    1.7450  -18.7590 H   0  0  0  0  0  0  0  0  0  0  0  0
   -4.6310    0.6250  -17.2310 H   0  0  0  0  0  0  0  0  0  0  0  0
   -7.7560   -1.6800  -18.5930 H   0  0  0  0  0  0  0  0  0  0  0  0
   -6.8780   -1.7700  -22.1190 H   0  0  0  0  0  0  0  0  0  0  0  0
   -7.9930   -2.3000  -20.8650 H   0  0  0  0  0  0  0  0  0  0  0  0
   -9.7670   -2.3950  -22.8100 C   0  0  0  0  0  0  0  0  0  0  0  0
  -10.6160   -2.4950  -24.0920 C   0  0  0  0  0  0  0  0  0  0  0  0
  -10.6890   -3.5450  -24.4090 H   0  0  0  0  0  0  0  0  0  0  0  0
  -10.0560   -1.9640  -24.8780 H   0  0  0  0  0  0  0  0  0  0  0  0
   -8.7870   -2.8600  -22.9650 H   0  0  0  0  0  0  0  0  0  0  0  0
  -10.2560   -2.9330  -21.9830 H   0  0  0  0  0  0  0  0  0  0  0  0
  -10.3950    0.3060  -23.8990 H   0  0  0  0  0  0  0  0  0  0  0  0
  -10.6290    0.7890  -22.2270 H   0  0  0  0  0  0  0  0  0  0  0  0
  -12.7300    0.0040  -23.1680 H   0  0  0  0  0  0  0  0  0  0  0  0
  -12.1940   -1.1460  -21.8960 H   0  0  0  0  0  0  0  0  0  0  0  0
  -12.1550   -1.2740  -24.9320 H   0  0  0  0  0  0  0  0  0  0  0  0
  -13.1540   -3.3780  -24.8320 H   0  0  0  0  0  0  0  0  0  0  0  0
  -13.9930   -4.5290  -22.8790 H   0  0  0  0  0  0  0  0  0  0  0  0
  -13.4190   -3.2830  -21.7760 H   0  0  0  0  0  0  0  0  0  0  0  0
  -12.2630   -4.3160  -22.6390 H   0  0  0  0  0  0  0  0  0  0  0  0
  1  2  1  0  0  0  0
  1 44  1  0  0  0  0
  1 45  1  0  0  0  0
  1 46  1  0  0  0  0
  2  3  1  0  0  0  0
  2  7  1  0  0  0  0
  2 43  1  0  0  0  0
  3  4  1  0  0  0  0
  3  5  1  0  0  0  0
  3  6  1  0  0  0  0
  7  8  1  0  0  0  0
  7 33  1  0  0  0  0
  7 42  1  0  0  0  0
  8  9  1  0  0  0  0
  8 40  1  0  0  0  0
  8 41  1  0  0  0  0
  9 10  1  0  0  0  0
  9 38  1  0  0  0  0
  9 39  1  0  0  0  0
 10 11  1  0  0  0  0
 10 32  1  0  0  0  0
 11 12  2  0  0  0  0
 11 13  1  0  0  0  0
 13 14  1  0  0  0  0
 13 30  1  0  0  0  0
 13 31  1  0  0  0  0
 14 15  2  0  0  0  0
 14 23  1  0  0  0  0
 15 16  1  0  0  0  0
 15 29  1  0  0  0  0
 16 17  2  0  0  0  0
 17 18  1  0  0  0  0
 17 28  1  0  0  0  0
 18 19  2  0  0  0  0
 18 23  1  0  0  0  0
 19 20  1  0  0  0  0
 19 27  1  0  0  0  0
 20 21  2  0  0  0  0
 20 26  1  0  0  0  0
 21 22  1  0  0  0  0
 21 25  1  0  0  0  0
 22 23  2  0  0  0  0
 22 24  1  0  0  0  0
 32 33  1  0  0  0  0
 32 36  1  0  0  0  0
 32 37  1  0  0  0  0
 33 34  1  0  0  0  0
 33 35  1  0  0  0  0
M  END
>  <MODEL>
       1

$$$$
