tmp_first_model_20_11.pdb
 OpenBabel08282503553D

 48 52  0  0  0  0  0  0  0  0999 V2000
   -9.8140   -0.9930  -23.9200 C   0  0  0  0  0  0  0  0  0  0  0  0
   -8.7590   -1.4040  -23.0210 N   0  0  0  0  0  0  0  0  0  0  0  0
   -8.5000   -0.7630  -21.8320 C   0  0  0  0  0  0  0  0  0  0  0  0
   -9.1040    0.1630  -21.3420 O   0  0  0  0  0  0  0  0  0  0  0  0
   -7.3730   -1.3980  -21.2740 N   0  0  0  0  0  0  0  0  0  0  0  0
   -6.5910   -0.8280  -20.2190 C   0  0  0  0  0  0  0  0  0  0  0  0
   -6.9150   -1.0580  -18.9080 C   0  0  0  0  0  0  0  0  0  0  0  0
   -6.2250   -0.5530  -17.8500 N   0  0  0  0  0  0  0  0  0  0  0  0
   -5.1820    0.1990  -18.0980 C   0  0  0  0  0  0  0  0  0  0  0  0
   -4.7280    0.5220  -19.4060 C   0  0  0  0  0  0  0  0  0  0  0  0
   -3.6000    1.3540  -19.6340 C   0  0  0  0  0  0  0  0  0  0  0  0
   -3.2080    1.6520  -20.9100 C   0  0  0  0  0  0  0  0  0  0  0  0
   -3.9280    1.1310  -22.0080 C   0  0  0  0  0  0  0  0  0  0  0  0
   -5.0210    0.3290  -21.8100 C   0  0  0  0  0  0  0  0  0  0  0  0
   -5.4510   -0.0030  -20.5000 C   0  0  0  0  0  0  0  0  0  0  0  0
   -5.5840   -0.0470  -22.6570 H   0  0  0  0  0  0  0  0  0  0  0  0
   -3.6260    1.3780  -23.0190 H   0  0  0  0  0  0  0  0  0  0  0  0
   -2.3560    2.3000  -21.0930 H   0  0  0  0  0  0  0  0  0  0  0  0
   -3.0680    1.7560  -18.7770 H   0  0  0  0  0  0  0  0  0  0  0  0
   -4.6390    0.5970  -17.2400 H   0  0  0  0  0  0  0  0  0  0  0  0
   -7.7630   -1.6840  -18.6430 H   0  0  0  0  0  0  0  0  0  0  0  0
   -6.9140   -2.4280  -22.0990 C   0  0  0  0  0  0  0  0  0  0  0  0
   -5.9550   -3.1210  -21.8780 O   0  0  0  0  0  0  0  0  0  0  0  0
   -7.8280   -2.4580  -23.3190 C   0  0  0  0  0  0  0  0  0  0  0  0
   -8.3850   -3.8480  -23.7210 C   0  0  0  0  0  0  0  0  0  0  0  0
   -7.6360   -3.8080  -24.9990 N   0  0  0  0  0  0  0  0  0  0  0  0
   -8.5440   -3.8990  -26.4240 S   0  0  0  0  0  0  0  0  0  0  0  0
   -7.5940   -3.8500  -27.5170 O   0  0  0  0  0  0  0  0  0  0  0  0
   -9.6310   -2.9290  -26.3150 O   0  0  0  0  0  0  0  0  0  0  0  0
   -9.3020   -5.4950  -26.4300 C   0  0  0  0  0  0  0  0  0  0  0  0
   -8.5820   -6.5870  -26.8920 C   0  0  0  0  0  0  0  0  0  0  0  0
   -9.2150   -7.8220  -26.9410 C   0  0  0  0  0  0  0  0  0  0  0  0
  -10.5400   -7.9680  -26.5550 C   0  0  0  0  0  0  0  0  0  0  0  0
  -11.2520   -6.8620  -26.0990 C   0  0  0  0  0  0  0  0  0  0  0  0
  -10.6300   -5.6250  -26.0360 C   0  0  0  0  0  0  0  0  0  0  0  0
  -11.1750   -4.7580  -25.6960 H   0  0  0  0  0  0  0  0  0  0  0  0
  -12.2890   -6.9430  -25.7910 H   0  0  0  0  0  0  0  0  0  0  0  0
  -10.9970   -8.9530  -26.6300 H   0  0  0  0  0  0  0  0  0  0  0  0
   -8.6880   -8.6840  -27.3170 H   0  0  0  0  0  0  0  0  0  0  0  0
   -7.5600   -6.4640  -27.2340 H   0  0  0  0  0  0  0  0  0  0  0  0
   -7.0960   -2.4450  -24.6880 C   0  0  0  0  0  0  0  0  0  0  0  0
   -7.3870   -1.6470  -25.3820 H   0  0  0  0  0  0  0  0  0  0  0  0
   -6.0090   -2.4810  -24.6040 H   0  0  0  0  0  0  0  0  0  0  0  0
   -8.0170   -4.6630  -23.0980 H   0  0  0  0  0  0  0  0  0  0  0  0
   -9.4760   -3.9200  -23.8140 H   0  0  0  0  0  0  0  0  0  0  0  0
  -10.4620   -1.8430  -24.1620 H   0  0  0  0  0  0  0  0  0  0  0  0
   -9.4010   -0.5980  -24.8560 H   0  0  0  0  0  0  0  0  0  0  0  0
  -10.3760   -0.2110  -23.4050 H   0  0  0  0  0  0  0  0  0  0  0  0
  1  2  1  0  0  0  0
  1 46  1  0  0  0  0
  1 47  1  0  0  0  0
  1 48  1  0  0  0  0
  2  3  1  0  0  0  0
  2 24  1  0  0  0  0
  3  4  2  0  0  0  0
  3  5  1  0  0  0  0
  5  6  1  0  0  0  0
  5 22  1  0  0  0  0
  6  7  2  0  0  0  0
  6 15  1  0  0  0  0
  7  8  1  0  0  0  0
  7 21  1  0  0  0  0
  8  9  2  0  0  0  0
  9 10  1  0  0  0  0
  9 20  1  0  0  0  0
 10 11  2  0  0  0  0
 10 15  1  0  0  0  0
 11 12  1  0  0  0  0
 11 19  1  0  0  0  0
 12 13  2  0  0  0  0
 12 18  1  0  0  0  0
 13 14  1  0  0  0  0
 13 17  1  0  0  0  0
 14 15  2  0  0  0  0
 14 16  1  0  0  0  0
 22 23  2  0  0  0  0
 22 24  1  0  0  0  0
 24 25  1  0  0  0  0
 24 41  1  0  0  0  0
 25 26  1  0  0  0  0
 25 44  1  0  0  0  0
 25 45  1  0  0  0  0
 26 27  1  0  0  0  0
 26 41  1  0  0  0  0
 27 28  2  0  0  0  0
 27 29  2  0  0  0  0
 27 30  1  0  0  0  0
 30 31  2  0  0  0  0
 30 35  1  0  0  0  0
 31 32  1  0  0  0  0
 31 40  1  0  0  0  0
 32 33  2  0  0  0  0
 32 39  1  0  0  0  0
 33 34  1  0  0  0  0
 33 38  1  0  0  0  0
 34 35  2  0  0  0  0
 34 37  1  0  0  0  0
 35 36  1  0  0  0  0
 41 42  1  0  0  0  0
 41 43  1  0  0  0  0
M  END
>  <MODEL>
       1

$$$$
