tmp_first_model_17_14.pdb
 OpenBabel08282502223D

 73 78  0  0  1  0  0  0  0  0999 V2000
   -7.8460   -3.8490  -23.9540 C   0  0  0  0  0  0  0  0  0  0  0  0
   -8.1860   -2.9190  -22.7970 C   0  0  1  0  0  0  0  0  0  0  0  0
   -7.0810   -2.7080  -21.7600 C   0  0  0  0  0  0  0  0  0  0  0  0
   -7.4270   -1.4230  -21.1710 N   0  0  0  0  0  0  0  0  0  0  0  0
   -6.6500   -0.8190  -20.1470 C   0  0  0  0  0  0  0  0  0  0  0  0
   -6.9560   -1.0620  -18.8360 C   0  0  0  0  0  0  0  0  0  0  0  0
   -6.2680   -0.5600  -17.7790 N   0  0  0  0  0  0  0  0  0  0  0  0
   -5.2360    0.2030  -18.0430 C   0  0  0  0  0  0  0  0  0  0  0  0
   -4.7970    0.5290  -19.3580 C   0  0  0  0  0  0  0  0  0  0  0  0
   -3.6670    1.3580  -19.5890 C   0  0  0  0  0  0  0  0  0  0  0  0
   -3.2680    1.6450  -20.8630 C   0  0  0  0  0  0  0  0  0  0  0  0
   -3.9780    1.1200  -21.9670 C   0  0  0  0  0  0  0  0  0  0  0  0
   -5.0750    0.3190  -21.7730 C   0  0  0  0  0  0  0  0  0  0  0  0
   -5.5190    0.0060  -20.4550 C   0  0  0  0  0  0  0  0  0  0  0  0
   -5.6120   -0.0780  -22.6320 H   0  0  0  0  0  0  0  0  0  0  0  0
   -3.6440    1.3520  -22.9730 H   0  0  0  0  0  0  0  0  0  0  0  0
   -2.3990    2.2730  -21.0420 H   0  0  0  0  0  0  0  0  0  0  0  0
   -3.1320    1.7570  -18.7310 H   0  0  0  0  0  0  0  0  0  0  0  0
   -4.6830    0.6020  -17.1920 H   0  0  0  0  0  0  0  0  0  0  0  0
   -7.8090   -1.6930  -18.5920 H   0  0  0  0  0  0  0  0  0  0  0  0
   -8.3020   -0.6730  -21.9350 C   0  0  0  0  0  0  0  0  0  0  0  0
   -8.6660    0.4470  -21.6430 O   0  0  0  0  0  0  0  0  0  0  0  0
   -8.6770   -1.4880  -23.1870 C   0  0  1  0  0  0  0  0  0  0  0  0
   -7.9470   -0.8410  -24.3900 C   0  0  0  0  0  0  0  0  0  0  0  0
   -8.5890   -1.0920  -25.6730 N   0  0  0  0  0  0  0  0  0  0  0  0
   -7.7650   -1.0240  -26.8760 C   0  0  0  0  0  0  0  0  0  0  0  0
   -7.3390   -2.4200  -27.3440 C   0  0  0  0  0  0  0  0  0  0  0  0
   -6.6100   -2.4450  -28.6500 N   0  3  0  0  0  0  0  0  0  0  0  0
   -7.4150   -1.8660  -29.7840 C   0  0  0  0  0  0  0  0  0  0  0  0
   -6.5800   -1.7260  -31.0550 C   0  0  0  0  0  0  0  0  0  0  0  0
   -5.6790   -2.8650  -31.2890 N   0  0  0  0  0  0  0  0  0  0  0  0
   -4.6930   -2.8000  -32.6290 S   0  0  0  0  0  0  0  0  0  0  0  0
   -4.6420   -1.4270  -33.1000 O   0  0  0  0  0  0  0  0  0  0  0  0
   -3.4730   -3.5360  -32.3370 O   0  0  0  0  0  0  0  0  0  0  0  0
   -5.6390   -3.7580  -33.7940 C   0  0  0  0  0  0  0  0  0  0  0  0
   -5.8530   -4.7320  -33.3460 H   0  0  0  0  0  0  0  0  0  0  0  0
   -5.0420   -3.8800  -34.7000 H   0  0  0  0  0  0  0  0  0  0  0  0
   -6.5630   -3.2220  -34.0220 H   0  0  0  0  0  0  0  0  0  0  0  0
   -5.3790   -3.9180  -30.3050 C   0  0  0  0  0  0  0  0  0  0  0  0
   -6.2470   -3.8590  -29.0460 C   0  0  0  0  0  0  0  0  0  0  0  0
   -7.1810   -4.4070  -29.2090 H   0  0  0  0  0  0  0  0  0  0  0  0
   -5.7360   -4.3410  -28.2090 H   0  0  0  0  0  0  0  0  0  0  0  0
   -4.3160   -3.8740  -30.0520 H   0  0  0  0  0  0  0  0  0  0  0  0
   -5.5300   -4.8920  -30.7840 H   0  0  0  0  0  0  0  0  0  0  0  0
   -5.9940   -0.7990  -31.0340 H   0  0  0  0  0  0  0  0  0  0  0  0
   -7.2770   -1.6580  -31.8960 H   0  0  0  0  0  0  0  0  0  0  0  0
   -8.2780   -2.5270  -29.9140 H   0  0  0  0  0  0  0  0  0  0  0  0
   -7.7880   -0.8850  -29.5000 H   0  0  0  0  0  0  0  0  0  0  0  0
   -5.7180   -1.9070  -28.5620 H   0  0  0  0  0  0  0  0  0  0  0  0
   -8.2270   -3.0580  -27.4370 H   0  0  0  0  0  0  0  0  0  0  0  0
   -6.6920   -2.8760  -26.5880 H   0  0  0  0  0  0  0  0  0  0  0  0
   -6.8750   -0.4040  -26.7020 H   0  0  0  0  0  0  0  0  0  0  0  0
   -8.3740   -0.5320  -27.6300 H   0  0  0  0  0  0  0  0  0  0  0  0
   -9.9490   -0.8960  -25.8220 C   0  0  0  0  0  0  0  0  0  0  0  0
  -10.4510   -0.5240  -26.8740 O   0  0  0  0  0  0  0  0  0  0  0  0
  -10.7780   -1.2330  -24.6150 C   0  0  0  0  0  0  0  0  0  0  0  0
  -12.1680   -1.3260  -24.7360 C   0  0  0  0  0  0  0  0  0  0  0  0
  -12.9550   -1.7530  -23.6770 C   0  0  0  0  0  0  0  0  0  0  0  0
  -12.3280   -2.0590  -22.4680 C   0  0  0  0  0  0  0  0  0  0  0  0
  -13.2390   -2.5430  -21.0710 Cl  0  0  0  0  0  0  0  0  0  0  0  0
  -10.9640   -1.9380  -22.3170 C   0  0  0  0  0  0  0  0  0  0  0  0
  -10.1670   -1.5300  -23.3980 C   0  0  0  0  0  0  0  0  0  0  0  0
  -10.5270   -2.1740  -21.3490 H   0  0  0  0  0  0  0  0  0  0  0  0
  -14.0310   -1.8640  -23.7900 H   0  0  0  0  0  0  0  0  0  0  0  0
  -12.6280   -1.0280  -25.6720 H   0  0  0  0  0  0  0  0  0  0  0  0
   -6.9160   -1.2190  -24.4300 H   0  0  0  0  0  0  0  0  0  0  0  0
   -7.8810    0.2460  -24.2270 H   0  0  0  0  0  0  0  0  0  0  0  0
   -6.0840   -2.6990  -22.2280 H   0  0  0  0  0  0  0  0  0  0  0  0
   -7.0840   -3.4910  -20.9950 H   0  0  0  0  0  0  0  0  0  0  0  0
   -9.0310   -3.3680  -22.2610 H   0  0  0  0  0  0  0  0  0  0  0  0
   -7.6840   -4.8680  -23.5880 H   0  0  0  0  0  0  0  0  0  0  0  0
   -8.6600   -3.8760  -24.6870 H   0  0  0  0  0  0  0  0  0  0  0  0
   -6.9360   -3.5280  -24.4700 H   0  0  0  0  0  0  0  0  0  0  0  0
  1  2  1  0  0  0  0
  1 71  1  0  0  0  0
  1 72  1  0  0  0  0
  1 73  1  0  0  0  0
  2  3  1  0  0  0  0
  2 23  1  0  0  0  0
  2 70  1  1  0  0  0
  3  4  1  0  0  0  0
  3 68  1  0  0  0  0
  3 69  1  0  0  0  0
  4  5  1  0  0  0  0
  4 21  1  0  0  0  0
  5  6  2  0  0  0  0
  5 14  1  0  0  0  0
  6  7  1  0  0  0  0
  6 20  1  0  0  0  0
  7  8  2  0  0  0  0
  8  9  1  0  0  0  0
  8 19  1  0  0  0  0
  9 10  2  0  0  0  0
  9 14  1  0  0  0  0
 10 11  1  0  0  0  0
 10 18  1  0  0  0  0
 11 12  2  0  0  0  0
 11 17  1  0  0  0  0
 12 13  1  0  0  0  0
 12 16  1  0  0  0  0
 13 14  2  0  0  0  0
 13 15  1  0  0  0  0
 21 22  2  0  0  0  0
 23 21  1  1  0  0  0
 23 24  1  0  0  0  0
 23 62  1  0  0  0  0
 24 25  1  0  0  0  0
 24 66  1  0  0  0  0
 24 67  1  0  0  0  0
 25 26  1  0  0  0  0
 25 54  1  0  0  0  0
 26 27  1  0  0  0  0
 26 52  1  0  0  0  0
 26 53  1  0  0  0  0
 27 28  1  0  0  0  0
 27 50  1  0  0  0  0
 27 51  1  0  0  0  0
 28 29  1  0  0  0  0
 28 40  1  0  0  0  0
 28 49  1  0  0  0  0
 29 30  1  0  0  0  0
 29 47  1  0  0  0  0
 29 48  1  0  0  0  0
 30 31  1  0  0  0  0
 30 45  1  0  0  0  0
 30 46  1  0  0  0  0
 31 32  1  0  0  0  0
 31 39  1  0  0  0  0
 32 33  2  0  0  0  0
 32 34  2  0  0  0  0
 32 35  1  0  0  0  0
 35 36  1  0  0  0  0
 35 37  1  0  0  0  0
 35 38  1  0  0  0  0
 39 40  1  0  0  0  0
 39 43  1  0  0  0  0
 39 44  1  0  0  0  0
 40 41  1  0  0  0  0
 40 42  1  0  0  0  0
 54 55  2  0  0  0  0
 54 56  1  0  0  0  0
 56 57  2  0  0  0  0
 56 62  1  0  0  0  0
 57 58  1  0  0  0  0
 57 65  1  0  0  0  0
 58 59  2  0  0  0  0
 58 64  1  0  0  0  0
 59 60  1  0  0  0  0
 59 61  1  0  0  0  0
 61 62  2  0  0  0  0
 61 63  1  0  0  0  0
M  CHG  1  28   1
M  END
>  <MODEL>
       1

$$$$
