tmp_first_model_14_56.pdb
 OpenBabel08282500413D

 57 62  0  0  1  0  0  0  0  0999 V2000
   -8.2760   -4.1140  -23.5280 C   0  0  0  0  0  0  0  0  0  0  0  0
   -8.5210   -2.9590  -22.5560 C   0  0  1  0  0  0  0  0  0  0  0  0
   -7.3930   -2.7740  -21.5310 C   0  0  0  0  0  0  0  0  0  0  0  0
   -7.4000   -1.3580  -21.2300 N   0  0  0  0  0  0  0  0  0  0  0  0
   -6.6090   -0.7900  -20.1990 C   0  0  0  0  0  0  0  0  0  0  0  0
   -6.9030   -1.0380  -18.8820 C   0  0  0  0  0  0  0  0  0  0  0  0
   -6.2160   -0.5220  -17.8360 N   0  0  0  0  0  0  0  0  0  0  0  0
   -5.1730    0.2250  -18.0960 C   0  0  0  0  0  0  0  0  0  0  0  0
   -4.7280    0.5310  -19.4100 C   0  0  0  0  0  0  0  0  0  0  0  0
   -3.5890    1.3490  -19.6400 C   0  0  0  0  0  0  0  0  0  0  0  0
   -3.1780    1.6180  -20.9150 C   0  0  0  0  0  0  0  0  0  0  0  0
   -3.8790    1.0680  -22.0140 C   0  0  0  0  0  0  0  0  0  0  0  0
   -4.9780    0.2750  -21.8140 C   0  0  0  0  0  0  0  0  0  0  0  0
   -5.4530    0.0030  -20.5010 C   0  0  0  0  0  0  0  0  0  0  0  0
   -5.5090   -0.1410  -22.6640 H   0  0  0  0  0  0  0  0  0  0  0  0
   -3.5540    1.2890  -23.0250 H   0  0  0  0  0  0  0  0  0  0  0  0
   -2.3230    2.2640  -21.0930 H   0  0  0  0  0  0  0  0  0  0  0  0
   -3.0710    1.7650  -18.7800 H   0  0  0  0  0  0  0  0  0  0  0  0
   -4.6240    0.6220  -17.2420 H   0  0  0  0  0  0  0  0  0  0  0  0
   -7.7420   -1.6770  -18.6130 H   0  0  0  0  0  0  0  0  0  0  0  0
   -8.1270   -0.5990  -22.1160 C   0  0  0  0  0  0  0  0  0  0  0  0
   -8.2420    0.6080  -22.0480 O   0  0  0  0  0  0  0  0  0  0  0  0
   -8.7370   -1.5330  -23.1850 C   0  0  1  0  0  0  0  0  0  0  0  0
   -7.9740   -1.2800  -24.5040 C   0  0  0  0  0  0  0  0  0  0  0  0
   -8.6140   -1.8780  -25.6730 N   0  0  0  0  0  0  0  0  0  0  0  0
   -7.7790   -2.3050  -26.7930 C   0  0  0  0  0  0  0  0  0  0  0  0
   -7.6510   -3.8080  -26.9040 C   0  0  0  0  0  0  0  0  0  0  0  0
   -8.7440   -4.4710  -27.3030 N   0  0  0  0  0  0  0  0  0  0  0  0
   -8.6340   -5.7910  -27.3720 C   0  0  0  0  0  0  0  0  0  0  0  0
   -7.4550   -6.4620  -27.0680 C   0  0  0  0  0  0  0  0  0  0  0  0
   -6.3830   -5.6710  -26.6920 C   0  0  0  0  0  0  0  0  0  0  0  0
   -6.4660   -4.3380  -26.6020 N   0  0  0  0  0  0  0  0  0  0  0  0
   -5.4170   -6.1070  -26.4360 H   0  0  0  0  0  0  0  0  0  0  0  0
   -7.3890   -7.5470  -27.1130 H   0  0  0  0  0  0  0  0  0  0  0  0
   -9.5370   -6.3210  -27.6700 H   0  0  0  0  0  0  0  0  0  0  0  0
   -6.7750   -1.8910  -26.6570 H   0  0  0  0  0  0  0  0  0  0  0  0
   -8.2480   -1.9300  -27.7100 H   0  0  0  0  0  0  0  0  0  0  0  0
   -9.9630   -1.7990  -25.8800 C   0  0  0  0  0  0  0  0  0  0  0  0
  -10.4860   -2.0480  -26.9570 O   0  0  0  0  0  0  0  0  0  0  0  0
  -10.7720   -1.4120  -24.6910 C   0  0  0  0  0  0  0  0  0  0  0  0
  -12.1450   -1.2990  -24.8840 C   0  0  0  0  0  0  0  0  0  0  0  0
  -12.9500   -0.9300  -23.8300 C   0  0  0  0  0  0  0  0  0  0  0  0
  -12.3940   -0.8390  -22.5660 C   0  0  0  0  0  0  0  0  0  0  0  0
  -13.2730   -0.7100  -21.5680 F   0  0  0  0  0  0  0  0  0  0  0  0
  -11.0380   -0.9610  -22.3350 C   0  0  0  0  0  0  0  0  0  0  0  0
  -10.2040   -1.2350  -23.4260 C   0  0  0  0  0  0  0  0  0  0  0  0
  -10.6190   -0.8660  -21.3400 H   0  0  0  0  0  0  0  0  0  0  0  0
  -14.0130   -0.7620  -23.9060 H   0  0  0  0  0  0  0  0  0  0  0  0
  -12.5300   -1.5930  -25.8550 H   0  0  0  0  0  0  0  0  0  0  0  0
   -7.9010   -0.1850  -24.6070 H   0  0  0  0  0  0  0  0  0  0  0  0
   -6.9650   -1.7100  -24.4370 H   0  0  0  0  0  0  0  0  0  0  0  0
   -7.5740   -3.3220  -20.6120 H   0  0  0  0  0  0  0  0  0  0  0  0
   -6.4220   -3.0940  -21.9370 H   0  0  0  0  0  0  0  0  0  0  0  0
   -9.4470   -3.1660  -21.9990 H   0  0  0  0  0  0  0  0  0  0  0  0
   -7.3250   -3.9900  -24.0570 H   0  0  0  0  0  0  0  0  0  0  0  0
   -8.2330   -5.0670  -22.9920 H   0  0  0  0  0  0  0  0  0  0  0  0
   -9.0780   -4.1770  -24.2710 H   0  0  0  0  0  0  0  0  0  0  0  0
  1  2  1  0  0  0  0
  1 55  1  0  0  0  0
  1 56  1  0  0  0  0
  1 57  1  0  0  0  0
  2  3  1  0  0  0  0
  2 23  1  0  0  0  0
  2 54  1  1  0  0  0
  3  4  1  0  0  0  0
  3 52  1  0  0  0  0
  3 53  1  0  0  0  0
  4  5  1  0  0  0  0
  4 21  1  0  0  0  0
  5  6  2  0  0  0  0
  5 14  1  0  0  0  0
  6  7  1  0  0  0  0
  6 20  1  0  0  0  0
  7  8  2  0  0  0  0
  8  9  1  0  0  0  0
  8 19  1  0  0  0  0
  9 10  2  0  0  0  0
  9 14  1  0  0  0  0
 10 11  1  0  0  0  0
 10 18  1  0  0  0  0
 11 12  2  0  0  0  0
 11 17  1  0  0  0  0
 12 13  1  0  0  0  0
 12 16  1  0  0  0  0
 13 14  2  0  0  0  0
 13 15  1  0  0  0  0
 21 22  2  0  0  0  0
 23 21  1  1  0  0  0
 23 24  1  0  0  0  0
 23 46  1  0  0  0  0
 24 25  1  0  0  0  0
 24 50  1  0  0  0  0
 24 51  1  0  0  0  0
 25 26  1  0  0  0  0
 25 38  1  0  0  0  0
 26 27  1  0  0  0  0
 26 36  1  0  0  0  0
 26 37  1  0  0  0  0
 27 28  2  0  0  0  0
 27 32  1  0  0  0  0
 28 29  1  0  0  0  0
 29 30  2  0  0  0  0
 29 35  1  0  0  0  0
 30 31  1  0  0  0  0
 30 34  1  0  0  0  0
 31 32  2  0  0  0  0
 31 33  1  0  0  0  0
 38 39  2  0  0  0  0
 38 40  1  0  0  0  0
 40 41  2  0  0  0  0
 40 46  1  0  0  0  0
 41 42  1  0  0  0  0
 41 49  1  0  0  0  0
 42 43  2  0  0  0  0
 42 48  1  0  0  0  0
 43 44  1  0  0  0  0
 43 45  1  0  0  0  0
 45 46  2  0  0  0  0
 45 47  1  0  0  0  0
M  END
>  <MODEL>
       1

$$$$
