tmp_first_model_3_7.pdb
 OpenBabel08272518143D

 44 47  0  0  0  0  0  0  0  0999 V2000
   -8.4140   -7.8680  -23.5340 C   0  0  0  0  0  0  0  0  0  0  0  0
   -8.7930   -7.3370  -24.9120 C   0  0  0  0  0  0  0  0  0  0  0  0
   -9.2580   -5.5970  -24.9500 S   0  0  0  0  0  0  0  0  0  0  0  0
  -10.5070   -5.4340  -24.2180 O   0  0  0  0  0  0  0  0  0  0  0  0
   -9.1840   -5.1450  -26.3250 O   0  0  0  0  0  0  0  0  0  0  0  0
   -7.9960   -4.8250  -24.1290 N   0  0  0  0  0  0  0  0  0  0  0  0
   -7.9580   -3.3340  -24.2500 C   0  0  0  0  0  0  0  0  0  0  0  0
   -8.0400   -3.1960  -22.7100 C   0  0  0  0  0  0  0  0  0  0  0  0
   -8.0700   -4.7400  -22.6500 C   0  0  0  0  0  0  0  0  0  0  0  0
   -7.1590   -5.1500  -22.2080 H   0  0  0  0  0  0  0  0  0  0  0  0
   -8.9590   -5.1850  -22.1950 H   0  0  0  0  0  0  0  0  0  0  0  0
   -6.8280   -2.5620  -22.0480 C   0  0  0  0  0  0  0  0  0  0  0  0
   -5.6700   -2.8950  -22.1640 O   0  0  0  0  0  0  0  0  0  0  0  0
   -7.3140   -1.4970  -21.2840 N   0  0  0  0  0  0  0  0  0  0  0  0
   -6.5970   -0.8640  -20.2320 C   0  0  0  0  0  0  0  0  0  0  0  0
   -6.9540   -1.0680  -18.9190 C   0  0  0  0  0  0  0  0  0  0  0  0
   -6.2810   -0.5580  -17.8560 N   0  0  0  0  0  0  0  0  0  0  0  0
   -5.2340    0.1850  -18.1170 C   0  0  0  0  0  0  0  0  0  0  0  0
   -4.7840    0.4930  -19.4300 C   0  0  0  0  0  0  0  0  0  0  0  0
   -3.6600    1.3240  -19.6430 C   0  0  0  0  0  0  0  0  0  0  0  0
   -3.2630    1.6340  -20.9110 C   0  0  0  0  0  0  0  0  0  0  0  0
   -3.9690    1.1340  -22.0290 C   0  0  0  0  0  0  0  0  0  0  0  0
   -5.0590    0.3200  -21.8510 C   0  0  0  0  0  0  0  0  0  0  0  0
   -5.4830   -0.0300  -20.5360 C   0  0  0  0  0  0  0  0  0  0  0  0
   -5.6020   -0.0520  -22.7160 H   0  0  0  0  0  0  0  0  0  0  0  0
   -3.6480    1.4080  -23.0310 H   0  0  0  0  0  0  0  0  0  0  0  0
   -2.4050    2.2790  -21.0700 H   0  0  0  0  0  0  0  0  0  0  0  0
   -3.1470    1.7150  -18.7690 H   0  0  0  0  0  0  0  0  0  0  0  0
   -4.6760    0.6000  -17.2760 H   0  0  0  0  0  0  0  0  0  0  0  0
   -7.8110   -1.6920  -18.6730 H   0  0  0  0  0  0  0  0  0  0  0  0
   -8.7000   -1.3280  -21.4600 C   0  0  0  0  0  0  0  0  0  0  0  0
   -9.3580   -0.3970  -21.0470 O   0  0  0  0  0  0  0  0  0  0  0  0
   -9.1320   -2.4170  -22.1700 N   0  0  0  0  0  0  0  0  0  0  0  0
  -10.5360   -2.7050  -22.3910 C   0  0  0  0  0  0  0  0  0  0  0  0
  -11.1250   -1.9150  -21.9190 H   0  0  0  0  0  0  0  0  0  0  0  0
  -10.8010   -3.6690  -21.9430 H   0  0  0  0  0  0  0  0  0  0  0  0
  -10.7660   -2.7280  -23.4620 H   0  0  0  0  0  0  0  0  0  0  0  0
   -8.8000   -2.8960  -24.7950 H   0  0  0  0  0  0  0  0  0  0  0  0
   -7.0040   -3.0040  -24.6620 H   0  0  0  0  0  0  0  0  0  0  0  0
   -9.6880   -7.8340  -25.3050 H   0  0  0  0  0  0  0  0  0  0  0  0
   -7.9820   -7.4350  -25.6390 H   0  0  0  0  0  0  0  0  0  0  0  0
   -8.4810   -8.9560  -23.4990 H   0  0  0  0  0  0  0  0  0  0  0  0
   -9.0950   -7.4820  -22.7810 H   0  0  0  0  0  0  0  0  0  0  0  0
   -7.4030   -7.5780  -23.2380 H   0  0  0  0  0  0  0  0  0  0  0  0
  1  2  1  0  0  0  0
  1 42  1  0  0  0  0
  1 43  1  0  0  0  0
  1 44  1  0  0  0  0
  2  3  1  0  0  0  0
  2 40  1  0  0  0  0
  2 41  1  0  0  0  0
  3  4  2  0  0  0  0
  3  5  2  0  0  0  0
  3  6  1  0  0  0  0
  6  7  1  0  0  0  0
  6  9  1  0  0  0  0
  7  8  1  0  0  0  0
  7 38  1  0  0  0  0
  7 39  1  0  0  0  0
  8  9  1  0  0  0  0
  8 12  1  0  0  0  0
  8 33  1  0  0  0  0
  9 10  1  0  0  0  0
  9 11  1  0  0  0  0
 12 13  2  0  0  0  0
 12 14  1  0  0  0  0
 14 15  1  0  0  0  0
 14 31  1  0  0  0  0
 15 16  2  0  0  0  0
 15 24  1  0  0  0  0
 16 17  1  0  0  0  0
 16 30  1  0  0  0  0
 17 18  2  0  0  0  0
 18 19  1  0  0  0  0
 18 29  1  0  0  0  0
 19 20  2  0  0  0  0
 19 24  1  0  0  0  0
 20 21  1  0  0  0  0
 20 28  1  0  0  0  0
 21 22  2  0  0  0  0
 21 27  1  0  0  0  0
 22 23  1  0  0  0  0
 22 26  1  0  0  0  0
 23 24  2  0  0  0  0
 23 25  1  0  0  0  0
 31 32  2  0  0  0  0
 31 33  1  0  0  0  0
 33 34  1  0  0  0  0
 34 35  1  0  0  0  0
 34 36  1  0  0  0  0
 34 37  1  0  0  0  0
M  END
>  <MODEL>
       1

$$$$
