tmp_first_model_20_16.pdb
 OpenBabel08282503553D

 61 66  0  0  1  0  0  0  0  0999 V2000
   -7.7870    3.3090  -22.4620 C   0  0  0  0  0  0  0  0  0  0  0  0
   -8.5600    2.7780  -23.5550 N   0  0  0  0  0  0  0  0  0  0  0  0
   -7.9140    2.0780  -24.5150 C   0  0  0  0  0  0  0  0  0  0  0  0
   -6.6930    2.0250  -24.5850 O   0  0  0  0  0  0  0  0  0  0  0  0
   -8.8300    1.2980  -25.4680 C   0  0  0  0  0  0  0  0  0  0  0  0
   -9.5110    0.2330  -24.7380 N   0  0  0  0  0  0  0  0  0  0  0  0
   -8.6890   -0.8890  -24.3230 C   0  0  0  0  0  0  0  0  0  0  0  0
   -9.1010   -1.5320  -22.9630 C   0  0  2  0  0  0  0  0  0  0  0  0
   -8.5520   -0.6730  -21.7920 C   0  0  0  0  0  0  0  0  0  0  0  0
   -8.9900    0.3930  -21.4180 O   0  0  0  0  0  0  0  0  0  0  0  0
   -7.4720   -1.3220  -21.2290 N   0  0  0  0  0  0  0  0  0  0  0  0
   -6.6810   -0.7540  -20.1900 C   0  0  0  0  0  0  0  0  0  0  0  0
   -6.9870   -1.0000  -18.8770 C   0  0  0  0  0  0  0  0  0  0  0  0
   -6.2740   -0.5410  -17.8140 N   0  0  0  0  0  0  0  0  0  0  0  0
   -5.2100    0.1820  -18.0670 C   0  0  0  0  0  0  0  0  0  0  0  0
   -4.7650    0.5110  -19.3810 C   0  0  0  0  0  0  0  0  0  0  0  0
   -3.6080    1.3040  -19.6150 C   0  0  0  0  0  0  0  0  0  0  0  0
   -3.2320    1.6180  -20.8920 C   0  0  0  0  0  0  0  0  0  0  0  0
   -3.9890    1.1640  -21.9950 C   0  0  0  0  0  0  0  0  0  0  0  0
   -5.1160    0.4050  -21.7940 C   0  0  0  0  0  0  0  0  0  0  0  0
   -5.5250    0.0430  -20.4810 C   0  0  0  0  0  0  0  0  0  0  0  0
   -5.7160    0.0970  -22.6460 H   0  0  0  0  0  0  0  0  0  0  0  0
   -3.6850    1.4230  -23.0060 H   0  0  0  0  0  0  0  0  0  0  0  0
   -2.3580    2.2370  -21.0720 H   0  0  0  0  0  0  0  0  0  0  0  0
   -3.0420    1.6700  -18.7600 H   0  0  0  0  0  0  0  0  0  0  0  0
   -4.6340    0.5490  -17.2130 H   0  0  0  0  0  0  0  0  0  0  0  0
   -7.8610   -1.6000  -18.6340 H   0  0  0  0  0  0  0  0  0  0  0  0
   -7.0860   -2.5300  -21.9250 C   0  0  0  0  0  0  0  0  0  0  0  0
   -8.3410   -2.8700  -22.7420 C   0  0  2  0  0  0  0  0  0  0  0  0
   -8.0110   -3.6660  -24.0070 C   0  0  0  0  0  0  0  0  0  0  0  0
   -7.4710   -4.9770  -23.6990 N   0  0  0  0  0  0  0  0  0  0  0  0
   -6.1780   -5.2420  -23.6550 N   0  0  0  0  0  0  0  0  0  0  0  0
   -6.1870   -6.5230  -23.3210 C   0  0  0  0  0  0  0  0  0  0  0  0
   -7.4370   -7.0080  -23.1660 N   0  0  0  0  0  0  0  0  0  0  0  0
   -8.2360   -6.0080  -23.4150 N   0  0  0  0  0  0  0  0  0  0  0  0
   -5.2880   -7.1050  -23.1850 H   0  0  0  0  0  0  0  0  0  0  0  0
   -7.2600   -3.1530  -24.6070 H   0  0  0  0  0  0  0  0  0  0  0  0
   -8.8970   -3.8040  -24.6300 H   0  0  0  0  0  0  0  0  0  0  0  0
   -8.9690   -3.5120  -22.1230 H   0  0  0  0  0  0  0  0  0  0  0  0
   -6.2040   -2.3780  -22.5720 H   0  0  0  0  0  0  0  0  0  0  0  0
   -6.8350   -3.3200  -21.2110 H   0  0  0  0  0  0  0  0  0  0  0  0
  -10.6190   -1.6100  -22.8680 C   0  0  0  0  0  0  0  0  0  0  0  0
  -11.2590   -2.4940  -21.9880 C   0  0  0  0  0  0  0  0  0  0  0  0
  -12.6400   -2.5020  -21.8850 C   0  0  0  0  0  0  0  0  0  0  0  0
  -13.4100   -3.6270  -20.8060 Cl  0  0  0  0  0  0  0  0  0  0  0  0
  -13.4430   -1.6140  -22.5990 C   0  0  0  0  0  0  0  0  0  0  0  0
  -12.8150   -0.6950  -23.4130 C   0  0  0  0  0  0  0  0  0  0  0  0
  -11.4260   -0.6870  -23.5490 C   0  0  0  0  0  0  0  0  0  0  0  0
  -10.8180    0.4010  -24.3840 C   0  0  0  0  0  0  0  0  0  0  0  0
  -11.4500    1.3990  -24.7090 O   0  0  0  0  0  0  0  0  0  0  0  0
  -13.3900    0.0440  -23.9570 H   0  0  0  0  0  0  0  0  0  0  0  0
  -14.5250   -1.6370  -22.4910 H   0  0  0  0  0  0  0  0  0  0  0  0
  -10.7010   -3.1700  -21.3470 H   0  0  0  0  0  0  0  0  0  0  0  0
   -8.6840   -1.6320  -25.1280 H   0  0  0  0  0  0  0  0  0  0  0  0
   -7.6640   -0.5210  -24.2290 H   0  0  0  0  0  0  0  0  0  0  0  0
   -8.2030    0.8770  -26.2630 H   0  0  0  0  0  0  0  0  0  0  0  0
   -9.6080    1.9420  -25.8960 H   0  0  0  0  0  0  0  0  0  0  0  0
   -9.5320    2.5660  -23.3820 H   0  0  0  0  0  0  0  0  0  0  0  0
   -6.8740    3.7470  -22.8600 H   0  0  0  0  0  0  0  0  0  0  0  0
   -7.4750    2.5240  -21.7670 H   0  0  0  0  0  0  0  0  0  0  0  0
   -8.3840    4.0620  -21.9530 H   0  0  0  0  0  0  0  0  0  0  0  0
  1  2  1  0  0  0  0
  1 59  1  0  0  0  0
  1 60  1  0  0  0  0
  1 61  1  0  0  0  0
  2  3  1  0  0  0  0
  2 58  1  0  0  0  0
  3  4  2  0  0  0  0
  3  5  1  0  0  0  0
  5  6  1  0  0  0  0
  5 56  1  0  0  0  0
  5 57  1  0  0  0  0
  6  7  1  0  0  0  0
  6 49  1  0  0  0  0
  7  8  1  0  0  0  0
  7 54  1  0  0  0  0
  7 55  1  0  0  0  0
  8  9  1  1  0  0  0
  8 29  1  0  0  0  0
  8 42  1  0  0  0  0
  9 10  2  0  0  0  0
  9 11  1  0  0  0  0
 11 12  1  0  0  0  0
 11 28  1  0  0  0  0
 12 13  2  0  0  0  0
 12 21  1  0  0  0  0
 13 14  1  0  0  0  0
 13 27  1  0  0  0  0
 14 15  2  0  0  0  0
 15 16  1  0  0  0  0
 15 26  1  0  0  0  0
 16 17  2  0  0  0  0
 16 21  1  0  0  0  0
 17 18  1  0  0  0  0
 17 25  1  0  0  0  0
 18 19  2  0  0  0  0
 18 24  1  0  0  0  0
 19 20  1  0  0  0  0
 19 23  1  0  0  0  0
 20 21  2  0  0  0  0
 20 22  1  0  0  0  0
 28 29  1  0  0  0  0
 28 40  1  0  0  0  0
 28 41  1  0  0  0  0
 29 30  1  0  0  0  0
 29 39  1  1  0  0  0
 30 31  1  0  0  0  0
 30 37  1  0  0  0  0
 30 38  1  0  0  0  0
 31 32  1  0  0  0  0
 31 35  1  0  0  0  0
 32 33  2  0  0  0  0
 33 34  1  0  0  0  0
 33 36  1  0  0  0  0
 34 35  2  0  0  0  0
 42 43  2  0  0  0  0
 42 48  1  0  0  0  0
 43 44  1  0  0  0  0
 43 53  1  0  0  0  0
 44 45  1  0  0  0  0
 44 46  2  0  0  0  0
 46 47  1  0  0  0  0
 46 52  1  0  0  0  0
 47 48  2  0  0  0  0
 47 51  1  0  0  0  0
 48 49  1  0  0  0  0
 49 50  2  0  0  0  0
M  END
>  <MODEL>
       1

$$$$
