tmp_first_model_16_68.pdb
 OpenBabel08282501503D

 65 70  0  0  1  0  0  0  0  0999 V2000
   -9.2400    0.0760  -20.8400 O   0  0  0  0  0  0  0  0  0  0  0  0
   -8.4850   -0.3550  -21.6980 C   0  0  0  0  0  0  0  0  0  0  0  0
   -7.4680   -1.4250  -21.3060 C   0  0  0  0  0  0  0  0  0  0  0  0
   -6.5770   -0.8880  -20.2090 C   0  0  0  0  0  0  0  0  0  0  0  0
   -6.8970   -1.1170  -18.8980 C   0  0  0  0  0  0  0  0  0  0  0  0
   -6.1530   -0.7300  -17.8320 N   0  0  0  0  0  0  0  0  0  0  0  0
   -5.0870   -0.0100  -18.0860 C   0  0  0  0  0  0  0  0  0  0  0  0
   -4.6930    0.4050  -19.3890 C   0  0  0  0  0  0  0  0  0  0  0  0
   -3.5970    1.2820  -19.6040 C   0  0  0  0  0  0  0  0  0  0  0  0
   -3.2170    1.6170  -20.8760 C   0  0  0  0  0  0  0  0  0  0  0  0
   -3.9240    1.1020  -21.9830 C   0  0  0  0  0  0  0  0  0  0  0  0
   -5.0150    0.2870  -21.7980 C   0  0  0  0  0  0  0  0  0  0  0  0
   -5.4420   -0.0730  -20.4910 C   0  0  0  0  0  0  0  0  0  0  0  0
   -5.5650   -0.0580  -22.6680 H   0  0  0  0  0  0  0  0  0  0  0  0
   -3.5970    1.3530  -22.9890 H   0  0  0  0  0  0  0  0  0  0  0  0
   -2.3660    2.2710  -21.0410 H   0  0  0  0  0  0  0  0  0  0  0  0
   -3.0810    1.6880  -18.7380 H   0  0  0  0  0  0  0  0  0  0  0  0
   -4.4750    0.2850  -17.2300 H   0  0  0  0  0  0  0  0  0  0  0  0
   -7.8140   -1.6540  -18.6560 H   0  0  0  0  0  0  0  0  0  0  0  0
   -6.8690   -1.7620  -22.1540 H   0  0  0  0  0  0  0  0  0  0  0  0
   -8.0390   -2.2770  -20.9150 H   0  0  0  0  0  0  0  0  0  0  0  0
   -8.4540    0.1530  -22.9870 N   0  0  0  0  0  0  0  0  0  0  0  0
   -8.2460   -0.7020  -24.1580 C   0  0  0  0  0  0  0  0  0  0  0  0
   -9.3650   -1.7140  -24.3380 C   0  0  0  0  0  0  0  0  0  0  0  0
   -9.2190   -3.0180  -23.8630 C   0  0  0  0  0  0  0  0  0  0  0  0
  -10.2620   -3.9320  -23.9610 C   0  0  0  0  0  0  0  0  0  0  0  0
  -11.4790   -3.5570  -24.5110 C   0  0  0  0  0  0  0  0  0  0  0  0
  -11.6330   -2.2490  -24.9560 C   0  0  0  0  0  0  0  0  0  0  0  0
  -13.2040   -1.7590  -25.5240 Cl  0  0  0  0  0  0  0  0  0  0  0  0
  -10.5850   -1.3370  -24.9090 C   0  0  0  0  0  0  0  0  0  0  0  0
  -10.7420   -0.3430  -25.3270 H   0  0  0  0  0  0  0  0  0  0  0  0
  -12.3030   -4.2570  -24.5980 H   0  0  0  0  0  0  0  0  0  0  0  0
  -10.1340   -4.9500  -23.5960 H   0  0  0  0  0  0  0  0  0  0  0  0
   -8.2780   -3.3320  -23.4130 H   0  0  0  0  0  0  0  0  0  0  0  0
   -8.1800   -0.0610  -25.0400 H   0  0  0  0  0  0  0  0  0  0  0  0
   -7.2850   -1.2240  -24.0690 H   0  0  0  0  0  0  0  0  0  0  0  0
   -8.8330    1.5560  -23.1160 C   0  0  2  0  0  0  0  0  0  0  0  0
  -10.3060    1.9180  -22.8100 C   0  0  0  0  0  0  0  0  0  0  0  0
  -10.4520    3.3230  -23.4430 C   0  0  0  0  0  0  0  0  0  0  0  0
   -9.0670    3.5910  -24.0230 C   0  0  2  0  0  0  0  0  0  0  0  0
   -8.6220    2.2110  -24.4900 C   0  0  0  0  0  0  0  0  0  0  0  0
   -7.5730    2.1690  -24.8120 H   0  0  0  0  0  0  0  0  0  0  0  0
   -9.2780    1.8100  -25.2710 H   0  0  0  0  0  0  0  0  0  0  0  0
   -8.1020    3.8430  -22.8390 N   0  3  2  0  0  0  0  0  0  0  0  0
   -6.8270    4.4520  -23.3200 C   0  0  0  0  0  0  0  0  0  0  0  0
   -6.9490    5.9520  -23.2360 C   0  0  0  0  0  0  0  0  0  0  0  0
   -5.7690    6.8720  -23.5250 C   0  0  0  0  0  0  0  0  0  0  0  0
   -5.9960    7.5930  -22.2980 O   0  0  0  0  0  0  0  0  0  0  0  0
   -6.8200    6.5160  -21.8240 C   0  0  0  0  0  0  0  0  0  0  0  0
   -6.2490    5.8460  -21.1630 H   0  0  0  0  0  0  0  0  0  0  0  0
   -7.7490    6.8170  -21.3300 H   0  0  0  0  0  0  0  0  0  0  0  0
   -5.8380    7.5340  -24.3960 H   0  0  0  0  0  0  0  0  0  0  0  0
   -4.8080    6.3340  -23.5090 H   0  0  0  0  0  0  0  0  0  0  0  0
   -7.8720    6.3060  -23.6910 H   0  0  0  0  0  0  0  0  0  0  0  0
   -6.6100    4.0950  -24.3280 H   0  0  0  0  0  0  0  0  0  0  0  0
   -5.9870    4.1310  -22.6990 H   0  0  0  0  0  0  0  0  0  0  0  0
   -7.9700    2.4770  -22.2130 C   0  0  0  0  0  0  0  0  0  0  0  0
   -8.3400    2.5100  -21.1880 H   0  0  0  0  0  0  0  0  0  0  0  0
   -6.9210    2.1700  -22.1950 H   0  0  0  0  0  0  0  0  0  0  0  0
   -8.5010    4.5030  -22.1500 H   0  0  0  0  0  0  0  0  0  0  0  0
   -9.0130    4.4070  -24.7390 H   0  0  0  0  0  0  0  0  0  0  0  0
  -10.7390    4.0960  -22.7210 H   0  0  0  0  0  0  0  0  0  0  0  0
  -11.1940    3.3190  -24.2450 H   0  0  0  0  0  0  0  0  0  0  0  0
  -10.5050    1.9100  -21.7390 H   0  0  0  0  0  0  0  0  0  0  0  0
  -10.9610    1.1850  -23.2900 H   0  0  0  0  0  0  0  0  0  0  0  0
  1  2  2  0  0  0  0
  2  3  1  0  0  0  0
  2 22  1  0  0  0  0
  3  4  1  0  0  0  0
  3 20  1  0  0  0  0
  3 21  1  0  0  0  0
  4  5  2  0  0  0  0
  4 13  1  0  0  0  0
  5  6  1  0  0  0  0
  5 19  1  0  0  0  0
  6  7  2  0  0  0  0
  7  8  1  0  0  0  0
  7 18  1  0  0  0  0
  8  9  2  0  0  0  0
  8 13  1  0  0  0  0
  9 10  1  0  0  0  0
  9 17  1  0  0  0  0
 10 11  2  0  0  0  0
 10 16  1  0  0  0  0
 11 12  1  0  0  0  0
 11 15  1  0  0  0  0
 12 13  2  0  0  0  0
 12 14  1  0  0  0  0
 22 23  1  0  0  0  0
 23 24  1  0  0  0  0
 23 35  1  0  0  0  0
 23 36  1  0  0  0  0
 24 25  2  0  0  0  0
 24 30  1  0  0  0  0
 25 26  1  0  0  0  0
 25 34  1  0  0  0  0
 26 27  2  0  0  0  0
 26 33  1  0  0  0  0
 27 28  1  0  0  0  0
 27 32  1  0  0  0  0
 28 29  1  0  0  0  0
 28 30  2  0  0  0  0
 30 31  1  0  0  0  0
 37 22  1  1  0  0  0
 37 38  1  0  0  0  0
 37 41  1  0  0  0  0
 37 57  1  0  0  0  0
 38 39  1  0  0  0  0
 38 64  1  0  0  0  0
 38 65  1  0  0  0  0
 39 40  1  0  0  0  0
 39 62  1  0  0  0  0
 39 63  1  0  0  0  0
 40 41  1  0  0  0  0
 40 44  1  0  0  0  0
 40 61  1  6  0  0  0
 41 42  1  0  0  0  0
 41 43  1  0  0  0  0
 44 45  1  0  0  0  0
 44 57  1  0  0  0  0
 44 60  1  1  0  0  0
 45 46  1  0  0  0  0
 45 55  1  0  0  0  0
 45 56  1  0  0  0  0
 46 47  1  0  0  0  0
 46 49  1  0  0  0  0
 46 54  1  0  0  0  0
 47 48  1  0  0  0  0
 47 52  1  0  0  0  0
 47 53  1  0  0  0  0
 48 49  1  0  0  0  0
 49 50  1  0  0  0  0
 49 51  1  0  0  0  0
 57 58  1  0  0  0  0
 57 59  1  0  0  0  0
M  CHG  1  44   1
M  END
>  <MODEL>
       1

$$$$
