tmp_first_model_18_11.pdb
 OpenBabel08282502533D

 48 52  0  0  0  0  0  0  0  0999 V2000
   -9.6740   -0.9250  -24.0300 C   0  0  0  0  0  0  0  0  0  0  0  0
   -8.6800   -1.3730  -23.0790 N   0  0  0  0  0  0  0  0  0  0  0  0
   -8.4170   -0.7110  -21.9030 C   0  0  0  0  0  0  0  0  0  0  0  0
   -8.9580    0.2790  -21.4670 O   0  0  0  0  0  0  0  0  0  0  0  0
   -7.3630   -1.4000  -21.2760 N   0  0  0  0  0  0  0  0  0  0  0  0
   -6.5870   -0.8290  -20.2170 C   0  0  0  0  0  0  0  0  0  0  0  0
   -6.9090   -1.0620  -18.9060 C   0  0  0  0  0  0  0  0  0  0  0  0
   -6.2190   -0.5580  -17.8480 N   0  0  0  0  0  0  0  0  0  0  0  0
   -5.1830    0.2040  -18.0960 C   0  0  0  0  0  0  0  0  0  0  0  0
   -4.7310    0.5280  -19.4040 C   0  0  0  0  0  0  0  0  0  0  0  0
   -3.6020    1.3600  -19.6330 C   0  0  0  0  0  0  0  0  0  0  0  0
   -3.2070    1.6520  -20.9090 C   0  0  0  0  0  0  0  0  0  0  0  0
   -3.9250    1.1270  -22.0070 C   0  0  0  0  0  0  0  0  0  0  0  0
   -5.0180    0.3250  -21.8080 C   0  0  0  0  0  0  0  0  0  0  0  0
   -5.4500   -0.0000  -20.4980 C   0  0  0  0  0  0  0  0  0  0  0  0
   -5.5690   -0.0670  -22.6560 H   0  0  0  0  0  0  0  0  0  0  0  0
   -3.6170    1.3580  -23.0200 H   0  0  0  0  0  0  0  0  0  0  0  0
   -2.3510    2.2930  -21.0920 H   0  0  0  0  0  0  0  0  0  0  0  0
   -3.0740    1.7630  -18.7730 H   0  0  0  0  0  0  0  0  0  0  0  0
   -4.6410    0.6050  -17.2380 H   0  0  0  0  0  0  0  0  0  0  0  0
   -7.7590   -1.6860  -18.6410 H   0  0  0  0  0  0  0  0  0  0  0  0
   -6.9230   -2.4680  -22.0630 C   0  0  0  0  0  0  0  0  0  0  0  0
   -6.0170   -3.2100  -21.7870 O   0  0  0  0  0  0  0  0  0  0  0  0
   -7.7870   -2.4730  -23.3210 C   0  0  0  0  0  0  0  0  0  0  0  0
   -8.3930   -3.8410  -23.7230 C   0  0  0  0  0  0  0  0  0  0  0  0
   -7.5890   -3.8620  -24.9670 N   0  0  0  0  0  0  0  0  0  0  0  0
   -8.4420   -3.9330  -26.4260 S   0  0  0  0  0  0  0  0  0  0  0  0
   -9.4720   -2.8990  -26.3860 O   0  0  0  0  0  0  0  0  0  0  0  0
   -7.4490   -3.9650  -27.4830 O   0  0  0  0  0  0  0  0  0  0  0  0
   -9.2920   -5.4840  -26.4310 C   0  0  0  0  0  0  0  0  0  0  0  0
  -10.6460   -5.5270  -26.0990 C   0  0  0  0  0  0  0  0  0  0  0  0
  -11.3290   -6.7370  -26.1550 C   0  0  0  0  0  0  0  0  0  0  0  0
  -10.6530   -7.8790  -26.5730 C   0  0  0  0  0  0  0  0  0  0  0  0
   -9.3110   -7.8130  -26.9050 C   0  0  0  0  0  0  0  0  0  0  0  0
   -8.6060   -6.6210  -26.8370 C   0  0  0  0  0  0  0  0  0  0  0  0
   -7.5620   -6.5620  -27.1290 H   0  0  0  0  0  0  0  0  0  0  0  0
   -8.8600   -8.7180  -27.2650 H   0  0  0  0  0  0  0  0  0  0  0  0
  -11.1340   -8.8470  -26.6810 H   0  0  0  0  0  0  0  0  0  0  0  0
  -12.3810   -6.7880  -25.8870 H   0  0  0  0  0  0  0  0  0  0  0  0
  -11.1480   -4.6030  -25.8310 H   0  0  0  0  0  0  0  0  0  0  0  0
   -6.9980   -2.5200  -24.6560 C   0  0  0  0  0  0  0  0  0  0  0  0
   -5.9190   -2.6050  -24.5220 H   0  0  0  0  0  0  0  0  0  0  0  0
   -7.2210   -1.7230  -25.3760 H   0  0  0  0  0  0  0  0  0  0  0  0
   -8.0930   -4.6590  -23.0700 H   0  0  0  0  0  0  0  0  0  0  0  0
   -9.4820   -3.8600  -23.8600 H   0  0  0  0  0  0  0  0  0  0  0  0
  -10.2210   -0.1120  -23.5510 H   0  0  0  0  0  0  0  0  0  0  0  0
   -9.2020   -0.5630  -24.9530 H   0  0  0  0  0  0  0  0  0  0  0  0
  -10.3500   -1.7480  -24.2920 H   0  0  0  0  0  0  0  0  0  0  0  0
  1  2  1  0  0  0  0
  1 46  1  0  0  0  0
  1 47  1  0  0  0  0
  1 48  1  0  0  0  0
  2  3  1  0  0  0  0
  2 24  1  0  0  0  0
  3  4  2  0  0  0  0
  3  5  1  0  0  0  0
  5  6  1  0  0  0  0
  5 22  1  0  0  0  0
  6  7  2  0  0  0  0
  6 15  1  0  0  0  0
  7  8  1  0  0  0  0
  7 21  1  0  0  0  0
  8  9  2  0  0  0  0
  9 10  1  0  0  0  0
  9 20  1  0  0  0  0
 10 11  2  0  0  0  0
 10 15  1  0  0  0  0
 11 12  1  0  0  0  0
 11 19  1  0  0  0  0
 12 13  2  0  0  0  0
 12 18  1  0  0  0  0
 13 14  1  0  0  0  0
 13 17  1  0  0  0  0
 14 15  2  0  0  0  0
 14 16  1  0  0  0  0
 22 23  2  0  0  0  0
 22 24  1  0  0  0  0
 24 25  1  0  0  0  0
 24 41  1  0  0  0  0
 25 26  1  0  0  0  0
 25 44  1  0  0  0  0
 25 45  1  0  0  0  0
 26 27  1  0  0  0  0
 26 41  1  0  0  0  0
 27 28  2  0  0  0  0
 27 29  2  0  0  0  0
 27 30  1  0  0  0  0
 30 31  2  0  0  0  0
 30 35  1  0  0  0  0
 31 32  1  0  0  0  0
 31 40  1  0  0  0  0
 32 33  2  0  0  0  0
 32 39  1  0  0  0  0
 33 34  1  0  0  0  0
 33 38  1  0  0  0  0
 34 35  2  0  0  0  0
 34 37  1  0  0  0  0
 35 36  1  0  0  0  0
 41 42  1  0  0  0  0
 41 43  1  0  0  0  0
M  END
>  <MODEL>
       1

$$$$
