tmp_first_model_13_8.pdb
 OpenBabel08282500103D

 60 64  0  0  1  0  0  0  0  0999 V2000
  -14.9030   -2.1120  -23.9530 C   0  0  0  0  0  0  0  0  0  0  0  0
  -13.9680   -3.0400  -23.3730 N   0  0  0  0  0  0  0  0  0  0  0  0
  -13.2000   -2.6990  -22.3030 C   0  0  0  0  0  0  0  0  0  0  0  0
  -13.1410   -1.5680  -21.8430 O   0  0  0  0  0  0  0  0  0  0  0  0
  -12.3980   -3.8700  -21.7570 C   0  0  0  0  0  0  0  0  0  0  0  0
  -11.0530   -3.8980  -22.3020 N   0  0  0  0  0  0  0  0  0  0  0  0
   -9.9310   -3.3580  -21.5390 C   0  0  0  0  0  0  0  0  0  0  0  0
   -8.7450   -2.8870  -22.4140 C   0  0  2  0  0  0  0  0  0  0  0  0
   -7.5420   -2.6740  -21.4800 C   0  0  0  0  0  0  0  0  0  0  0  0
   -6.8110   -3.5240  -21.0070 O   0  0  0  0  0  0  0  0  0  0  0  0
   -7.3950   -1.3240  -21.2460 N   0  0  0  0  0  0  0  0  0  0  0  0
   -6.5780   -0.8420  -20.1990 C   0  0  0  0  0  0  0  0  0  0  0  0
   -6.8850   -1.1110  -18.8900 C   0  0  0  0  0  0  0  0  0  0  0  0
   -6.2120   -0.5800  -17.8400 N   0  0  0  0  0  0  0  0  0  0  0  0
   -5.2010    0.2100  -18.0980 C   0  0  0  0  0  0  0  0  0  0  0  0
   -4.7520    0.5330  -19.4110 C   0  0  0  0  0  0  0  0  0  0  0  0
   -3.6260    1.3610  -19.6500 C   0  0  0  0  0  0  0  0  0  0  0  0
   -3.2230    1.6220  -20.9310 C   0  0  0  0  0  0  0  0  0  0  0  0
   -3.9200    1.0680  -22.0290 C   0  0  0  0  0  0  0  0  0  0  0  0
   -5.0140    0.2640  -21.8250 C   0  0  0  0  0  0  0  0  0  0  0  0
   -5.4560   -0.0120  -20.5040 C   0  0  0  0  0  0  0  0  0  0  0  0
   -5.5410   -0.1810  -22.6640 H   0  0  0  0  0  0  0  0  0  0  0  0
   -3.5870    1.2730  -23.0420 H   0  0  0  0  0  0  0  0  0  0  0  0
   -2.3620    2.2580  -21.1130 H   0  0  0  0  0  0  0  0  0  0  0  0
   -3.0980    1.7710  -18.7940 H   0  0  0  0  0  0  0  0  0  0  0  0
   -4.6710    0.6320  -17.2440 H   0  0  0  0  0  0  0  0  0  0  0  0
   -7.7180   -1.7660  -18.6390 H   0  0  0  0  0  0  0  0  0  0  0  0
   -8.3950   -0.4960  -21.8970 C   0  0  0  0  0  0  0  0  0  0  0  0
   -8.9610   -1.4370  -22.9720 C   0  0  2  0  0  0  0  0  0  0  0  0
  -10.4000   -1.1180  -23.3370 C   0  0  0  0  0  0  0  0  0  0  0  0
  -10.5060    0.1460  -23.9500 O   0  0  0  0  0  0  0  0  0  0  0  0
  -11.8620    0.3590  -24.2780 C   0  0  0  0  0  0  0  0  0  0  0  0
  -12.4970    0.3320  -23.3790 H   0  0  0  0  0  0  0  0  0  0  0  0
  -12.2100   -0.4330  -24.9590 H   0  0  0  0  0  0  0  0  0  0  0  0
  -11.9550    1.3250  -24.7780 H   0  0  0  0  0  0  0  0  0  0  0  0
  -10.7710   -1.8940  -24.0240 H   0  0  0  0  0  0  0  0  0  0  0  0
  -11.0390   -1.1280  -22.4400 H   0  0  0  0  0  0  0  0  0  0  0  0
   -8.3450   -1.3480  -23.8750 H   0  0  0  0  0  0  0  0  0  0  0  0
   -9.1670   -0.1640  -21.1820 H   0  0  0  0  0  0  0  0  0  0  0  0
   -7.9490    0.4100  -22.3200 H   0  0  0  0  0  0  0  0  0  0  0  0
   -8.4770   -3.9340  -23.4720 C   0  0  0  0  0  0  0  0  0  0  0  0
   -7.2030   -4.0900  -24.0340 C   0  0  0  0  0  0  0  0  0  0  0  0
   -6.9940   -5.0480  -25.0110 C   0  0  0  0  0  0  0  0  0  0  0  0
   -5.4060   -5.2290  -25.7050 Cl  0  0  0  0  0  0  0  0  0  0  0  0
   -8.0200   -5.8980  -25.4290 C   0  0  0  0  0  0  0  0  0  0  0  0
   -9.2850   -5.7230  -24.9060 C   0  0  0  0  0  0  0  0  0  0  0  0
   -9.5140   -4.7400  -23.9520 C   0  0  0  0  0  0  0  0  0  0  0  0
  -10.9080   -4.5660  -23.4750 C   0  0  0  0  0  0  0  0  0  0  0  0
  -11.8810   -5.0100  -24.0920 O   0  0  0  0  0  0  0  0  0  0  0  0
  -10.1260   -6.3360  -25.2190 H   0  0  0  0  0  0  0  0  0  0  0  0
   -7.8230   -6.6820  -26.1480 H   0  0  0  0  0  0  0  0  0  0  0  0
   -6.3660   -3.4990  -23.6790 H   0  0  0  0  0  0  0  0  0  0  0  0
   -9.5620   -4.1090  -20.8430 H   0  0  0  0  0  0  0  0  0  0  0  0
  -10.2540   -2.5000  -20.9380 H   0  0  0  0  0  0  0  0  0  0  0  0
  -12.9350   -4.7550  -22.0890 H   0  0  0  0  0  0  0  0  0  0  0  0
  -12.3520   -3.8440  -20.6720 H   0  0  0  0  0  0  0  0  0  0  0  0
  -13.6690   -3.8200  -23.9400 H   0  0  0  0  0  0  0  0  0  0  0  0
  -15.4370   -1.6000  -23.1510 H   0  0  0  0  0  0  0  0  0  0  0  0
  -15.6100   -2.6610  -24.5790 H   0  0  0  0  0  0  0  0  0  0  0  0
  -14.4170   -1.3430  -24.5590 H   0  0  0  0  0  0  0  0  0  0  0  0
  1  2  1  0  0  0  0
  1 58  1  0  0  0  0
  1 59  1  0  0  0  0
  1 60  1  0  0  0  0
  2  3  1  0  0  0  0
  2 57  1  0  0  0  0
  3  4  2  0  0  0  0
  3  5  1  0  0  0  0
  5  6  1  0  0  0  0
  5 55  1  0  0  0  0
  5 56  1  0  0  0  0
  6  7  1  0  0  0  0
  6 48  1  0  0  0  0
  7  8  1  0  0  0  0
  7 53  1  0  0  0  0
  7 54  1  0  0  0  0
  8  9  1  1  0  0  0
  8 29  1  0  0  0  0
  8 41  1  0  0  0  0
  9 10  2  0  0  0  0
  9 11  1  0  0  0  0
 11 12  1  0  0  0  0
 11 28  1  0  0  0  0
 12 13  2  0  0  0  0
 12 21  1  0  0  0  0
 13 14  1  0  0  0  0
 13 27  1  0  0  0  0
 14 15  2  0  0  0  0
 15 16  1  0  0  0  0
 15 26  1  0  0  0  0
 16 17  2  0  0  0  0
 16 21  1  0  0  0  0
 17 18  1  0  0  0  0
 17 25  1  0  0  0  0
 18 19  2  0  0  0  0
 18 24  1  0  0  0  0
 19 20  1  0  0  0  0
 19 23  1  0  0  0  0
 20 21  2  0  0  0  0
 20 22  1  0  0  0  0
 28 29  1  0  0  0  0
 28 39  1  0  0  0  0
 28 40  1  0  0  0  0
 29 30  1  0  0  0  0
 29 38  1  6  0  0  0
 30 31  1  0  0  0  0
 30 36  1  0  0  0  0
 30 37  1  0  0  0  0
 31 32  1  0  0  0  0
 32 33  1  0  0  0  0
 32 34  1  0  0  0  0
 32 35  1  0  0  0  0
 41 42  2  0  0  0  0
 41 47  1  0  0  0  0
 42 43  1  0  0  0  0
 42 52  1  0  0  0  0
 43 44  1  0  0  0  0
 43 45  2  0  0  0  0
 45 46  1  0  0  0  0
 45 51  1  0  0  0  0
 46 47  2  0  0  0  0
 46 50  1  0  0  0  0
 47 48  1  0  0  0  0
 48 49  2  0  0  0  0
M  END
>  <MODEL>
       1

$$$$
