tmp_first_model_16_50.pdb
 OpenBabel08282501503D

 66 70  0  0  1  0  0  0  0  0999 V2000
   -7.4170    3.3680  -21.8190 C   0  0  0  0  0  0  0  0  0  0  0  0
   -8.3020    2.8860  -22.8680 N   0  0  0  0  0  0  0  0  0  0  0  0
   -7.7430    2.1870  -23.9000 C   0  0  0  0  0  0  0  0  0  0  0  0
   -6.5350    2.0500  -24.0310 O   0  0  0  0  0  0  0  0  0  0  0  0
   -8.7340    1.5890  -24.9010 C   0  0  0  0  0  0  0  0  0  0  0  0
   -9.4250    0.4480  -24.3400 N   0  0  0  0  0  0  0  0  0  0  0  0
   -8.6890   -0.7940  -24.1760 C   0  0  0  0  0  0  0  0  0  0  0  0
   -9.0840   -1.5270  -22.8730 C   0  0  2  0  0  0  0  0  0  0  0  0
   -8.5540   -0.7490  -21.6490 C   0  0  0  0  0  0  0  0  0  0  0  0
   -9.0300    0.2470  -21.1370 O   0  0  0  0  0  0  0  0  0  0  0  0
   -7.4120   -1.3750  -21.2250 N   0  0  0  0  0  0  0  0  0  0  0  0
   -6.6110   -0.8430  -20.1950 C   0  0  0  0  0  0  0  0  0  0  0  0
   -6.9260   -1.1180  -18.8930 C   0  0  0  0  0  0  0  0  0  0  0  0
   -6.1550   -0.7740  -17.8380 N   0  0  0  0  0  0  0  0  0  0  0  0
   -5.0880   -0.0530  -18.0930 C   0  0  0  0  0  0  0  0  0  0  0  0
   -4.7110    0.3950  -19.3920 C   0  0  0  0  0  0  0  0  0  0  0  0
   -3.6160    1.2720  -19.6110 C   0  0  0  0  0  0  0  0  0  0  0  0
   -3.2570    1.6240  -20.8820 C   0  0  0  0  0  0  0  0  0  0  0  0
   -3.9770    1.1350  -21.9950 C   0  0  0  0  0  0  0  0  0  0  0  0
   -5.0680    0.3230  -21.8100 C   0  0  0  0  0  0  0  0  0  0  0  0
   -5.4680   -0.0500  -20.4970 C   0  0  0  0  0  0  0  0  0  0  0  0
   -5.6380   -0.0210  -22.6690 H   0  0  0  0  0  0  0  0  0  0  0  0
   -3.6720    1.4050  -23.0000 H   0  0  0  0  0  0  0  0  0  0  0  0
   -2.4060    2.2770  -21.0460 H   0  0  0  0  0  0  0  0  0  0  0  0
   -3.0920    1.6670  -18.7450 H   0  0  0  0  0  0  0  0  0  0  0  0
   -4.4570    0.2200  -17.2490 H   0  0  0  0  0  0  0  0  0  0  0  0
   -7.8500   -1.6470  -18.6750 H   0  0  0  0  0  0  0  0  0  0  0  0
   -7.0700   -2.5780  -21.9480 C   0  0  0  0  0  0  0  0  0  0  0  0
   -8.3430   -2.8920  -22.7430 C   0  0  2  0  0  0  0  0  0  0  0  0
   -8.0100   -3.6610  -24.0130 C   0  0  0  0  0  0  0  0  0  0  0  0
   -9.1830   -3.9080  -24.7600 O   0  0  0  0  0  0  0  0  0  0  0  0
   -8.9750   -4.7170  -25.9220 C   0  0  0  0  0  0  0  0  0  0  0  0
   -9.8690   -4.1630  -27.0220 C   0  0  0  0  0  0  0  0  0  0  0  0
   -9.6310   -3.1110  -27.2080 H   0  0  0  0  0  0  0  0  0  0  0  0
  -10.9160   -4.2330  -26.7150 H   0  0  0  0  0  0  0  0  0  0  0  0
   -9.7300   -4.7180  -27.9560 H   0  0  0  0  0  0  0  0  0  0  0  0
   -9.2930   -6.1810  -25.6180 C   0  0  0  0  0  0  0  0  0  0  0  0
   -8.6440   -6.5810  -24.8290 H   0  0  0  0  0  0  0  0  0  0  0  0
  -10.3330   -6.2790  -25.2880 H   0  0  0  0  0  0  0  0  0  0  0  0
   -9.1540   -6.7950  -26.5180 H   0  0  0  0  0  0  0  0  0  0  0  0
   -7.9200   -4.6430  -26.2450 H   0  0  0  0  0  0  0  0  0  0  0  0
   -7.5140   -4.6090  -23.7410 H   0  0  0  0  0  0  0  0  0  0  0  0
   -7.2940   -3.0790  -24.6200 H   0  0  0  0  0  0  0  0  0  0  0  0
   -8.9740   -3.5400  -22.1370 H   0  0  0  0  0  0  0  0  0  0  0  0
   -6.8030   -3.3740  -21.2460 H   0  0  0  0  0  0  0  0  0  0  0  0
   -6.2070   -2.4160  -22.6160 H   0  0  0  0  0  0  0  0  0  0  0  0
  -10.5930   -1.5930  -22.8140 C   0  0  0  0  0  0  0  0  0  0  0  0
  -11.2230   -2.5090  -21.9680 C   0  0  0  0  0  0  0  0  0  0  0  0
  -12.5980   -2.5200  -21.8850 C   0  0  0  0  0  0  0  0  0  0  0  0
  -13.1830   -3.4040  -21.0630 F   0  0  0  0  0  0  0  0  0  0  0  0
  -13.4080   -1.6510  -22.6070 C   0  0  0  0  0  0  0  0  0  0  0  0
  -12.7850   -0.7180  -23.4070 C   0  0  0  0  0  0  0  0  0  0  0  0
  -11.3950   -0.6630  -23.4890 C   0  0  0  0  0  0  0  0  0  0  0  0
  -10.7900    0.4710  -24.2540 C   0  0  0  0  0  0  0  0  0  0  0  0
  -11.4660    1.3700  -24.7340 O   0  0  0  0  0  0  0  0  0  0  0  0
  -13.3480    0.0120  -23.9750 H   0  0  0  0  0  0  0  0  0  0  0  0
  -14.4870   -1.7040  -22.5070 H   0  0  0  0  0  0  0  0  0  0  0  0
  -10.6610   -3.2030  -21.3540 H   0  0  0  0  0  0  0  0  0  0  0  0
   -8.8960   -1.4660  -25.0150 H   0  0  0  0  0  0  0  0  0  0  0  0
   -7.6160   -0.5720  -24.1740 H   0  0  0  0  0  0  0  0  0  0  0  0
   -9.4980    2.3170  -25.1900 H   0  0  0  0  0  0  0  0  0  0  0  0
   -8.1660    1.2910  -25.7900 H   0  0  0  0  0  0  0  0  0  0  0  0
   -9.2640    2.6940  -22.6150 H   0  0  0  0  0  0  0  0  0  0  0  0
   -6.6360    3.9880  -22.2660 H   0  0  0  0  0  0  0  0  0  0  0  0
   -6.9340    2.5360  -21.2750 H   0  0  0  0  0  0  0  0  0  0  0  0
   -7.9810    4.0050  -21.1330 H   0  0  0  0  0  0  0  0  0  0  0  0
  1  2  1  0  0  0  0
  1 64  1  0  0  0  0
  1 65  1  0  0  0  0
  1 66  1  0  0  0  0
  2  3  1  0  0  0  0
  2 63  1  0  0  0  0
  3  4  2  0  0  0  0
  3  5  1  0  0  0  0
  5  6  1  0  0  0  0
  5 61  1  0  0  0  0
  5 62  1  0  0  0  0
  6  7  1  0  0  0  0
  6 54  1  0  0  0  0
  7  8  1  0  0  0  0
  7 59  1  0  0  0  0
  7 60  1  0  0  0  0
  8  9  1  1  0  0  0
  8 29  1  0  0  0  0
  8 47  1  0  0  0  0
  9 10  2  0  0  0  0
  9 11  1  0  0  0  0
 11 12  1  0  0  0  0
 11 28  1  0  0  0  0
 12 13  2  0  0  0  0
 12 21  1  0  0  0  0
 13 14  1  0  0  0  0
 13 27  1  0  0  0  0
 14 15  2  0  0  0  0
 15 16  1  0  0  0  0
 15 26  1  0  0  0  0
 16 17  2  0  0  0  0
 16 21  1  0  0  0  0
 17 18  1  0  0  0  0
 17 25  1  0  0  0  0
 18 19  2  0  0  0  0
 18 24  1  0  0  0  0
 19 20  1  0  0  0  0
 19 23  1  0  0  0  0
 20 21  2  0  0  0  0
 20 22  1  0  0  0  0
 28 29  1  0  0  0  0
 28 45  1  0  0  0  0
 28 46  1  0  0  0  0
 29 30  1  0  0  0  0
 29 44  1  1  0  0  0
 30 31  1  0  0  0  0
 30 42  1  0  0  0  0
 30 43  1  0  0  0  0
 31 32  1  0  0  0  0
 32 33  1  0  0  0  0
 32 37  1  0  0  0  0
 32 41  1  0  0  0  0
 33 34  1  0  0  0  0
 33 35  1  0  0  0  0
 33 36  1  0  0  0  0
 37 38  1  0  0  0  0
 37 39  1  0  0  0  0
 37 40  1  0  0  0  0
 47 48  2  0  0  0  0
 47 53  1  0  0  0  0
 48 49  1  0  0  0  0
 48 58  1  0  0  0  0
 49 50  1  0  0  0  0
 49 51  2  0  0  0  0
 51 52  1  0  0  0  0
 51 57  1  0  0  0  0
 52 53  2  0  0  0  0
 52 56  1  0  0  0  0
 53 54  1  0  0  0  0
 54 55  2  0  0  0  0
M  END
>  <MODEL>
       1

$$$$
