tmp_first_model_10_54.pdb
 OpenBabel08272522163D

 40 43  0  0  0  0  0  0  0  0999 V2000
   -9.4110   -3.8820  -22.7390 C   0  0  0  0  0  0  0  0  0  0  0  0
   -8.6760   -2.7070  -22.3340 N   0  0  0  0  0  0  0  0  0  0  0  0
   -8.6770   -1.4530  -22.8680 C   0  0  0  0  0  0  0  0  0  0  0  0
   -9.5470   -1.0740  -24.0140 C   0  0  0  0  0  0  0  0  0  0  0  0
  -10.9810   -0.8520  -23.5730 C   0  0  0  0  0  0  0  0  0  0  0  0
  -11.2930    0.2940  -22.8450 C   0  0  0  0  0  0  0  0  0  0  0  0
  -12.5940    0.5260  -22.4080 C   0  0  0  0  0  0  0  0  0  0  0  0
  -13.6000   -0.4000  -22.6780 C   0  0  0  0  0  0  0  0  0  0  0  0
  -13.2980   -1.5510  -23.4020 C   0  0  0  0  0  0  0  0  0  0  0  0
  -11.9940   -1.7720  -23.8460 C   0  0  0  0  0  0  0  0  0  0  0  0
  -11.7600   -2.6770  -24.4070 H   0  0  0  0  0  0  0  0  0  0  0  0
  -14.0780   -2.2800  -23.6140 H   0  0  0  0  0  0  0  0  0  0  0  0
  -14.6130   -0.2230  -22.3170 H   0  0  0  0  0  0  0  0  0  0  0  0
  -12.8160    1.4260  -21.8380 H   0  0  0  0  0  0  0  0  0  0  0  0
  -10.4980    1.0010  -22.6140 H   0  0  0  0  0  0  0  0  0  0  0  0
   -9.1190   -0.1610  -24.4350 H   0  0  0  0  0  0  0  0  0  0  0  0
   -9.5180   -1.8340  -24.8040 H   0  0  0  0  0  0  0  0  0  0  0  0
   -7.9190   -0.6350  -22.1940 N   0  0  0  0  0  0  0  0  0  0  0  0
   -7.3950   -1.3960  -21.1810 N   0  0  0  0  0  0  0  0  0  0  0  0
   -6.6150   -0.8250  -20.1540 C   0  0  0  0  0  0  0  0  0  0  0  0
   -6.9130   -1.0830  -18.8350 C   0  0  0  0  0  0  0  0  0  0  0  0
   -6.2230   -0.5700  -17.7900 N   0  0  0  0  0  0  0  0  0  0  0  0
   -5.1990    0.1970  -18.0780 C   0  0  0  0  0  0  0  0  0  0  0  0
   -4.8020    0.5640  -19.3910 C   0  0  0  0  0  0  0  0  0  0  0  0
   -3.6810    1.4030  -19.6200 C   0  0  0  0  0  0  0  0  0  0  0  0
   -3.3640    1.8080  -20.8860 C   0  0  0  0  0  0  0  0  0  0  0  0
   -4.1670    1.4010  -21.9800 C   0  0  0  0  0  0  0  0  0  0  0  0
   -5.1550    0.4650  -21.8000 C   0  0  0  0  0  0  0  0  0  0  0  0
   -5.5430    0.0630  -20.4850 C   0  0  0  0  0  0  0  0  0  0  0  0
   -5.6430    0.0070  -22.6550 H   0  0  0  0  0  0  0  0  0  0  0  0
   -3.9570    1.7900  -22.9790 H   0  0  0  0  0  0  0  0  0  0  0  0
   -2.4840    2.4230  -21.0630 H   0  0  0  0  0  0  0  0  0  0  0  0
   -3.0860    1.6860  -18.7560 H   0  0  0  0  0  0  0  0  0  0  0  0
   -4.6400    0.5980  -17.2360 H   0  0  0  0  0  0  0  0  0  0  0  0
   -7.7570   -1.7230  -18.5840 H   0  0  0  0  0  0  0  0  0  0  0  0
   -7.8400   -2.7070  -21.2300 C   0  0  0  0  0  0  0  0  0  0  0  0
   -7.5590   -3.6410  -20.5050 O   0  0  0  0  0  0  0  0  0  0  0  0
   -9.4340   -3.9480  -23.8330 H   0  0  0  0  0  0  0  0  0  0  0  0
  -10.4340   -3.8460  -22.3410 H   0  0  0  0  0  0  0  0  0  0  0  0
   -8.8610   -4.7260  -22.3110 H   0  0  0  0  0  0  0  0  0  0  0  0
  1  2  1  0  0  0  0
  1 38  1  0  0  0  0
  1 39  1  0  0  0  0
  1 40  1  0  0  0  0
  2  3  1  0  0  0  0
  2 36  1  0  0  0  0
  3  4  1  0  0  0  0
  3 18  2  0  0  0  0
  4  5  1  0  0  0  0
  4 16  1  0  0  0  0
  4 17  1  0  0  0  0
  5  6  2  0  0  0  0
  5 10  1  0  0  0  0
  6  7  1  0  0  0  0
  6 15  1  0  0  0  0
  7  8  2  0  0  0  0
  7 14  1  0  0  0  0
  8  9  1  0  0  0  0
  8 13  1  0  0  0  0
  9 10  2  0  0  0  0
  9 12  1  0  0  0  0
 10 11  1  0  0  0  0
 18 19  1  0  0  0  0
 19 20  1  0  0  0  0
 19 36  1  0  0  0  0
 20 21  2  0  0  0  0
 20 29  1  0  0  0  0
 21 22  1  0  0  0  0
 21 35  1  0  0  0  0
 22 23  2  0  0  0  0
 23 24  1  0  0  0  0
 23 34  1  0  0  0  0
 24 25  2  0  0  0  0
 24 29  1  0  0  0  0
 25 26  1  0  0  0  0
 25 33  1  0  0  0  0
 26 27  2  0  0  0  0
 26 32  1  0  0  0  0
 27 28  1  0  0  0  0
 27 31  1  0  0  0  0
 28 29  2  0  0  0  0
 28 30  1  0  0  0  0
 36 37  2  0  0  0  0
M  END
>  <MODEL>
       1

$$$$
