tmp_first_model_15_57.pdb
 OpenBabel08282501153D

 59 63  0  0  1  0  0  0  0  0999 V2000
  -14.4930   -1.3430  -23.5290 C   0  0  0  0  0  0  0  0  0  0  0  0
  -13.8200   -2.5720  -23.1550 N   0  0  0  0  0  0  0  0  0  0  0  0
  -13.4730   -2.7610  -21.8570 C   0  0  0  0  0  0  0  0  0  0  0  0
  -13.9540   -2.0960  -20.9490 O   0  0  0  0  0  0  0  0  0  0  0  0
  -12.5090   -3.9150  -21.5780 C   0  0  0  0  0  0  0  0  0  0  0  0
  -11.1980   -3.7960  -22.2050 N   0  0  0  0  0  0  0  0  0  0  0  0
  -10.0580   -3.3110  -21.4210 C   0  0  0  0  0  0  0  0  0  0  0  0
   -8.8350   -2.9380  -22.3140 C   0  0  2  0  0  0  0  0  0  0  0  0
   -7.5920   -2.7070  -21.4360 C   0  0  0  0  0  0  0  0  0  0  0  0
   -6.8500   -3.5680  -21.0100 O   0  0  0  0  0  0  0  0  0  0  0  0
   -7.4120   -1.3520  -21.2420 N   0  0  0  0  0  0  0  0  0  0  0  0
   -6.6000   -0.8410  -20.1940 C   0  0  0  0  0  0  0  0  0  0  0  0
   -6.9070   -1.0960  -18.8810 C   0  0  0  0  0  0  0  0  0  0  0  0
   -6.2390   -0.5730  -17.8200 N   0  0  0  0  0  0  0  0  0  0  0  0
   -5.2150    0.2060  -18.0810 C   0  0  0  0  0  0  0  0  0  0  0  0
   -4.7660    0.5200  -19.3960 C   0  0  0  0  0  0  0  0  0  0  0  0
   -3.6360    1.3450  -19.6290 C   0  0  0  0  0  0  0  0  0  0  0  0
   -3.2250    1.6090  -20.9050 C   0  0  0  0  0  0  0  0  0  0  0  0
   -3.9230    1.0710  -22.0090 C   0  0  0  0  0  0  0  0  0  0  0  0
   -5.0250    0.2770  -21.8120 C   0  0  0  0  0  0  0  0  0  0  0  0
   -5.4740   -0.0140  -20.4950 C   0  0  0  0  0  0  0  0  0  0  0  0
   -5.5500   -0.1380  -22.6660 H   0  0  0  0  0  0  0  0  0  0  0  0
   -3.5850    1.2940  -23.0160 H   0  0  0  0  0  0  0  0  0  0  0  0
   -2.3630    2.2460  -21.0800 H   0  0  0  0  0  0  0  0  0  0  0  0
   -3.1160    1.7610  -18.7710 H   0  0  0  0  0  0  0  0  0  0  0  0
   -4.6720    0.6290  -17.2340 H   0  0  0  0  0  0  0  0  0  0  0  0
   -7.7490   -1.7420  -18.6420 H   0  0  0  0  0  0  0  0  0  0  0  0
   -8.4130   -0.5480  -21.9220 C   0  0  0  0  0  0  0  0  0  0  0  0
   -9.0140   -1.5030  -22.9900 C   0  0  0  0  0  0  0  0  0  0  0  0
  -10.4690   -1.1200  -23.2770 C   0  0  0  0  0  0  0  0  0  0  0  0
  -11.0660   -1.0970  -22.3600 H   0  0  0  0  0  0  0  0  0  0  0  0
  -10.9180   -1.8460  -23.9630 H   0  0  0  0  0  0  0  0  0  0  0  0
  -10.5160   -0.1280  -23.7370 H   0  0  0  0  0  0  0  0  0  0  0  0
   -8.2270   -1.4300  -24.3100 C   0  0  0  0  0  0  0  0  0  0  0  0
   -8.6440   -2.1550  -25.0190 H   0  0  0  0  0  0  0  0  0  0  0  0
   -8.3130   -0.4320  -24.7530 H   0  0  0  0  0  0  0  0  0  0  0  0
   -7.1640   -1.6690  -24.1730 H   0  0  0  0  0  0  0  0  0  0  0  0
   -7.9630    0.3490  -22.3660 H   0  0  0  0  0  0  0  0  0  0  0  0
   -9.1890   -0.2190  -21.2100 H   0  0  0  0  0  0  0  0  0  0  0  0
   -8.5900   -4.0840  -23.2730 C   0  0  0  0  0  0  0  0  0  0  0  0
   -7.3010   -4.4620  -23.6780 C   0  0  0  0  0  0  0  0  0  0  0  0
   -7.1430   -5.4560  -24.6270 C   0  0  0  0  0  0  0  0  0  0  0  0
   -5.5400   -5.8360  -25.1770 Cl  0  0  0  0  0  0  0  0  0  0  0  0
   -8.2290   -6.1210  -25.1930 C   0  0  0  0  0  0  0  0  0  0  0  0
   -9.4990   -5.7280  -24.8110 C   0  0  0  0  0  0  0  0  0  0  0  0
   -9.6790   -4.7320  -23.8540 C   0  0  0  0  0  0  0  0  0  0  0  0
  -11.0620   -4.3950  -23.4210 C   0  0  0  0  0  0  0  0  0  0  0  0
  -12.0350   -4.6680  -24.1240 O   0  0  0  0  0  0  0  0  0  0  0  0
  -10.3820   -6.1980  -25.2280 H   0  0  0  0  0  0  0  0  0  0  0  0
   -8.0710   -6.9240  -25.9100 H   0  0  0  0  0  0  0  0  0  0  0  0
   -6.4250   -3.9750  -23.2640 H   0  0  0  0  0  0  0  0  0  0  0  0
  -10.3570   -2.4160  -20.8580 H   0  0  0  0  0  0  0  0  0  0  0  0
   -9.7690   -4.0740  -20.6930 H   0  0  0  0  0  0  0  0  0  0  0  0
  -12.4250   -4.0180  -20.4960 H   0  0  0  0  0  0  0  0  0  0  0  0
  -12.9810   -4.8180  -21.9810 H   0  0  0  0  0  0  0  0  0  0  0  0
  -13.4650   -3.2260  -23.8420 H   0  0  0  0  0  0  0  0  0  0  0  0
  -13.8090   -0.4820  -23.4990 H   0  0  0  0  0  0  0  0  0  0  0  0
  -14.8910   -1.4350  -24.5420 H   0  0  0  0  0  0  0  0  0  0  0  0
  -15.3140   -1.1510  -22.8340 H   0  0  0  0  0  0  0  0  0  0  0  0
  1  2  1  0  0  0  0
  1 57  1  0  0  0  0
  1 58  1  0  0  0  0
  1 59  1  0  0  0  0
  2  3  1  0  0  0  0
  2 56  1  0  0  0  0
  3  4  2  0  0  0  0
  3  5  1  0  0  0  0
  5  6  1  0  0  0  0
  5 54  1  0  0  0  0
  5 55  1  0  0  0  0
  6  7  1  0  0  0  0
  6 47  1  0  0  0  0
  7  8  1  0  0  0  0
  7 52  1  0  0  0  0
  7 53  1  0  0  0  0
  8  9  1  1  0  0  0
  8 29  1  0  0  0  0
  8 40  1  0  0  0  0
  9 10  2  0  0  0  0
  9 11  1  0  0  0  0
 11 12  1  0  0  0  0
 11 28  1  0  0  0  0
 12 13  2  0  0  0  0
 12 21  1  0  0  0  0
 13 14  1  0  0  0  0
 13 27  1  0  0  0  0
 14 15  2  0  0  0  0
 15 16  1  0  0  0  0
 15 26  1  0  0  0  0
 16 17  2  0  0  0  0
 16 21  1  0  0  0  0
 17 18  1  0  0  0  0
 17 25  1  0  0  0  0
 18 19  2  0  0  0  0
 18 24  1  0  0  0  0
 19 20  1  0  0  0  0
 19 23  1  0  0  0  0
 20 21  2  0  0  0  0
 20 22  1  0  0  0  0
 28 29  1  0  0  0  0
 28 38  1  0  0  0  0
 28 39  1  0  0  0  0
 29 30  1  0  0  0  0
 29 34  1  0  0  0  0
 30 31  1  0  0  0  0
 30 32  1  0  0  0  0
 30 33  1  0  0  0  0
 34 35  1  0  0  0  0
 34 36  1  0  0  0  0
 34 37  1  0  0  0  0
 40 41  2  0  0  0  0
 40 46  1  0  0  0  0
 41 42  1  0  0  0  0
 41 51  1  0  0  0  0
 42 43  1  0  0  0  0
 42 44  2  0  0  0  0
 44 45  1  0  0  0  0
 44 50  1  0  0  0  0
 45 46  2  0  0  0  0
 45 49  1  0  0  0  0
 46 47  1  0  0  0  0
 47 48  2  0  0  0  0
M  END
>  <MODEL>
       1

$$$$
