tmp_first_model_2_88.pdb
 OpenBabel08272517383D

 40 42  0  0  0  0  0  0  0  0999 V2000
   -9.1790    0.2250  -21.0740 O   0  0  0  0  0  0  0  0  0  0  0  0
   -8.3770   -0.3110  -21.8060 C   0  0  0  0  0  0  0  0  0  0  0  0
   -7.4440   -1.4100  -21.2730 C   0  0  0  0  0  0  0  0  0  0  0  0
   -6.5710   -0.8350  -20.1750 C   0  0  0  0  0  0  0  0  0  0  0  0
   -6.8770   -1.0400  -18.8550 C   0  0  0  0  0  0  0  0  0  0  0  0
   -6.1930   -0.5340  -17.7940 N   0  0  0  0  0  0  0  0  0  0  0  0
   -5.1570    0.2230  -18.0650 C   0  0  0  0  0  0  0  0  0  0  0  0
   -4.7230    0.5350  -19.3810 C   0  0  0  0  0  0  0  0  0  0  0  0
   -3.6020    1.3690  -19.6230 C   0  0  0  0  0  0  0  0  0  0  0  0
   -3.2130    1.6630  -20.9020 C   0  0  0  0  0  0  0  0  0  0  0  0
   -3.9320    1.1290  -21.9950 C   0  0  0  0  0  0  0  0  0  0  0  0
   -5.0190    0.3170  -21.7860 C   0  0  0  0  0  0  0  0  0  0  0  0
   -5.4500   -0.0020  -20.4720 C   0  0  0  0  0  0  0  0  0  0  0  0
   -5.5530   -0.0860  -22.6400 H   0  0  0  0  0  0  0  0  0  0  0  0
   -3.6160    1.3670  -23.0080 H   0  0  0  0  0  0  0  0  0  0  0  0
   -2.3590    2.3110  -21.0840 H   0  0  0  0  0  0  0  0  0  0  0  0
   -3.0670    1.7800  -18.7710 H   0  0  0  0  0  0  0  0  0  0  0  0
   -4.6030    0.6280  -17.2150 H   0  0  0  0  0  0  0  0  0  0  0  0
   -7.7290   -1.6610  -18.5800 H   0  0  0  0  0  0  0  0  0  0  0  0
   -6.8360   -1.8460  -22.0750 H   0  0  0  0  0  0  0  0  0  0  0  0
   -8.0690   -2.2030  -20.8450 H   0  0  0  0  0  0  0  0  0  0  0  0
   -8.1730    0.0970  -23.1290 N   0  0  0  0  0  0  0  0  0  0  0  0
   -8.2700   -0.8160  -24.2630 C   0  0  0  0  0  0  0  0  0  0  0  0
   -7.2920   -0.4220  -25.3620 C   0  0  0  0  0  0  0  0  0  0  0  0
   -7.4920    1.0400  -25.7570 C   0  0  0  0  0  0  0  0  0  0  0  0
   -6.5120    1.4800  -26.8290 C   0  0  0  0  0  0  0  0  0  0  0  0
   -6.6500    0.7120  -27.9500 F   0  0  0  0  0  0  0  0  0  0  0  0
   -5.2280    1.3150  -26.3880 F   0  0  0  0  0  0  0  0  0  0  0  0
   -6.6290    2.5320  -27.1290 H   0  0  0  0  0  0  0  0  0  0  0  0
   -7.4050    1.9420  -24.5290 C   0  0  0  0  0  0  0  0  0  0  0  0
   -8.3900    1.5010  -23.4510 C   0  0  0  0  0  0  0  0  0  0  0  0
   -9.4210    1.7030  -23.7800 H   0  0  0  0  0  0  0  0  0  0  0  0
   -8.2400    2.0750  -22.5380 H   0  0  0  0  0  0  0  0  0  0  0  0
   -7.5940    2.9810  -24.8130 H   0  0  0  0  0  0  0  0  0  0  0  0
   -6.3850    1.9150  -24.1270 H   0  0  0  0  0  0  0  0  0  0  0  0
   -8.4830    1.1500  -26.2150 H   0  0  0  0  0  0  0  0  0  0  0  0
   -6.2700   -0.5630  -24.9980 H   0  0  0  0  0  0  0  0  0  0  0  0
   -7.4150   -1.0720  -26.2340 H   0  0  0  0  0  0  0  0  0  0  0  0
   -9.2900   -0.8240  -24.6860 H   0  0  0  0  0  0  0  0  0  0  0  0
   -8.0780   -1.8270  -23.9100 H   0  0  0  0  0  0  0  0  0  0  0  0
  1  2  2  0  0  0  0
  2  3  1  0  0  0  0
  2 22  1  0  0  0  0
  3  4  1  0  0  0  0
  3 20  1  0  0  0  0
  3 21  1  0  0  0  0
  4  5  2  0  0  0  0
  4 13  1  0  0  0  0
  5  6  1  0  0  0  0
  5 19  1  0  0  0  0
  6  7  2  0  0  0  0
  7  8  1  0  0  0  0
  7 18  1  0  0  0  0
  8  9  2  0  0  0  0
  8 13  1  0  0  0  0
  9 10  1  0  0  0  0
  9 17  1  0  0  0  0
 10 11  2  0  0  0  0
 10 16  1  0  0  0  0
 11 12  1  0  0  0  0
 11 15  1  0  0  0  0
 12 13  2  0  0  0  0
 12 14  1  0  0  0  0
 22 23  1  0  0  0  0
 22 31  1  0  0  0  0
 23 24  1  0  0  0  0
 23 39  1  0  0  0  0
 23 40  1  0  0  0  0
 24 25  1  0  0  0  0
 24 37  1  0  0  0  0
 24 38  1  0  0  0  0
 25 26  1  0  0  0  0
 25 30  1  0  0  0  0
 25 36  1  0  0  0  0
 26 27  1  0  0  0  0
 26 28  1  0  0  0  0
 26 29  1  0  0  0  0
 30 31  1  0  0  0  0
 30 34  1  0  0  0  0
 30 35  1  0  0  0  0
 31 32  1  0  0  0  0
 31 33  1  0  0  0  0
M  END
>  <MODEL>
       1

$$$$
