tmp_first_model_10_89.pdb
 OpenBabel08272522163D

 43 45  0  0  0  0  0  0  0  0999 V2000
  -13.0040   -1.4560  -24.8230 C   0  0  0  0  0  0  0  0  0  0  0  0
  -12.2230   -1.9440  -23.5980 C   0  0  0  0  0  0  0  0  0  0  0  0
  -13.0170   -3.0750  -22.9290 C   0  0  0  0  0  0  0  0  0  0  0  0
  -13.9880   -2.7170  -22.5650 H   0  0  0  0  0  0  0  0  0  0  0  0
  -12.4730   -3.4860  -22.0710 H   0  0  0  0  0  0  0  0  0  0  0  0
  -13.2040   -3.8970  -23.6300 H   0  0  0  0  0  0  0  0  0  0  0  0
  -12.0430   -0.7930  -22.5910 C   0  0  0  0  0  0  0  0  0  0  0  0
  -10.7250   -0.0480  -22.7250 C   0  0  0  0  0  0  0  0  0  0  0  0
   -9.6320   -0.9570  -22.4200 N   0  0  0  0  0  0  0  0  0  0  0  0
   -8.5620   -0.4280  -21.7560 C   0  0  0  0  0  0  0  0  0  0  0  0
   -8.4630    0.7700  -21.5400 O   0  0  0  0  0  0  0  0  0  0  0  0
   -7.4950   -1.4040  -21.2570 C   0  0  0  0  0  0  0  0  0  0  0  0
   -6.6470   -0.8000  -20.1690 C   0  0  0  0  0  0  0  0  0  0  0  0
   -6.9180   -1.0630  -18.8520 C   0  0  0  0  0  0  0  0  0  0  0  0
   -6.2150   -0.5950  -17.7860 N   0  0  0  0  0  0  0  0  0  0  0  0
   -5.2100    0.2110  -18.0510 C   0  0  0  0  0  0  0  0  0  0  0  0
   -4.8280    0.5920  -19.3670 C   0  0  0  0  0  0  0  0  0  0  0  0
   -3.6940    1.4140  -19.6050 C   0  0  0  0  0  0  0  0  0  0  0  0
   -3.4090    1.8570  -20.8710 C   0  0  0  0  0  0  0  0  0  0  0  0
   -4.2210    1.4550  -21.9570 C   0  0  0  0  0  0  0  0  0  0  0  0
   -5.2200    0.5270  -21.7720 C   0  0  0  0  0  0  0  0  0  0  0  0
   -5.5690    0.0910  -20.4600 C   0  0  0  0  0  0  0  0  0  0  0  0
   -5.7780    0.1500  -22.6230 H   0  0  0  0  0  0  0  0  0  0  0  0
   -4.0440    1.8760  -22.9470 H   0  0  0  0  0  0  0  0  0  0  0  0
   -2.5660    2.5260  -21.0440 H   0  0  0  0  0  0  0  0  0  0  0  0
   -3.0910    1.7080  -18.7510 H   0  0  0  0  0  0  0  0  0  0  0  0
   -4.6310    0.5880  -17.2040 H   0  0  0  0  0  0  0  0  0  0  0  0
   -7.7550   -1.7100  -18.5810 H   0  0  0  0  0  0  0  0  0  0  0  0
   -6.8890   -1.7350  -22.1120 H   0  0  0  0  0  0  0  0  0  0  0  0
   -8.0070   -2.2970  -20.8750 H   0  0  0  0  0  0  0  0  0  0  0  0
   -9.7870   -2.3450  -22.8550 C   0  0  0  0  0  0  0  0  0  0  0  0
  -10.8150   -2.4360  -23.9900 C   0  0  0  0  0  0  0  0  0  0  0  0
  -10.4460   -1.8090  -24.8070 H   0  0  0  0  0  0  0  0  0  0  0  0
  -10.8690   -3.4630  -24.3710 H   0  0  0  0  0  0  0  0  0  0  0  0
   -8.8220   -2.7160  -23.2160 H   0  0  0  0  0  0  0  0  0  0  0  0
  -10.0860   -2.9880  -22.0150 H   0  0  0  0  0  0  0  0  0  0  0  0
  -10.5810    0.3690  -23.7260 H   0  0  0  0  0  0  0  0  0  0  0  0
  -10.6440    0.7860  -22.0290 H   0  0  0  0  0  0  0  0  0  0  0  0
  -12.0130   -1.2560  -21.6100 H   0  0  0  0  0  0  0  0  0  0  0  0
  -12.8970   -0.1090  -22.6050 H   0  0  0  0  0  0  0  0  0  0  0  0
  -12.5370   -0.5820  -25.2900 H   0  0  0  0  0  0  0  0  0  0  0  0
  -14.0210   -1.1670  -24.5330 H   0  0  0  0  0  0  0  0  0  0  0  0
  -13.0930   -2.2320  -25.5890 H   0  0  0  0  0  0  0  0  0  0  0  0
  1  2  1  0  0  0  0
  1 41  1  0  0  0  0
  1 42  1  0  0  0  0
  1 43  1  0  0  0  0
  2  3  1  0  0  0  0
  2  7  1  0  0  0  0
  2 32  1  0  0  0  0
  3  4  1  0  0  0  0
  3  5  1  0  0  0  0
  3  6  1  0  0  0  0
  7  8  1  0  0  0  0
  7 39  1  0  0  0  0
  7 40  1  0  0  0  0
  8  9  1  0  0  0  0
  8 37  1  0  0  0  0
  8 38  1  0  0  0  0
  9 10  1  0  0  0  0
  9 31  1  0  0  0  0
 10 11  2  0  0  0  0
 10 12  1  0  0  0  0
 12 13  1  0  0  0  0
 12 29  1  0  0  0  0
 12 30  1  0  0  0  0
 13 14  2  0  0  0  0
 13 22  1  0  0  0  0
 14 15  1  0  0  0  0
 14 28  1  0  0  0  0
 15 16  2  0  0  0  0
 16 17  1  0  0  0  0
 16 27  1  0  0  0  0
 17 18  2  0  0  0  0
 17 22  1  0  0  0  0
 18 19  1  0  0  0  0
 18 26  1  0  0  0  0
 19 20  2  0  0  0  0
 19 25  1  0  0  0  0
 20 21  1  0  0  0  0
 20 24  1  0  0  0  0
 21 22  2  0  0  0  0
 21 23  1  0  0  0  0
 31 32  1  0  0  0  0
 31 35  1  0  0  0  0
 31 36  1  0  0  0  0
 32 33  1  0  0  0  0
 32 34  1  0  0  0  0
M  END
>  <MODEL>
       1

$$$$
