tmp_first_model_8_52.pdb
 OpenBabel08272521063D

 57 60  0  0  0  0  0  0  0  0999 V2000
   -2.4100   -6.6160  -28.2920 C   0  0  0  0  0  0  0  0  0  0  0  0
   -3.6430   -5.6930  -28.3070 C   0  0  0  0  0  0  0  0  0  0  0  0
   -4.1300   -5.3480  -26.8980 C   0  0  0  0  0  0  0  0  0  0  0  0
   -3.7250   -4.3570  -26.3080 O   0  0  0  0  0  0  0  0  0  0  0  0
   -5.0160   -6.2360  -26.3320 N   0  0  0  0  0  0  0  0  0  0  0  0
   -5.6620   -6.0220  -25.0870 C   0  0  0  0  0  0  0  0  0  0  0  0
   -5.9110   -7.1080  -24.2470 C   0  0  0  0  0  0  0  0  0  0  0  0
   -6.5570   -6.8990  -23.0350 C   0  0  0  0  0  0  0  0  0  0  0  0
   -6.9610   -5.6290  -22.6430 C   0  0  0  0  0  0  0  0  0  0  0  0
   -6.7290   -4.5430  -23.4880 C   0  0  0  0  0  0  0  0  0  0  0  0
   -7.1600   -3.2250  -23.1090 N   0  0  0  0  0  0  0  0  0  0  0  0
   -8.1480   -2.5610  -23.9490 C   0  0  0  0  0  0  0  0  0  0  0  0
   -9.5660   -2.6620  -23.4180 C   0  0  0  0  0  0  0  0  0  0  0  0
  -10.1600   -3.9130  -23.2980 C   0  0  0  0  0  0  0  0  0  0  0  0
  -11.4610   -4.0220  -22.8280 C   0  0  0  0  0  0  0  0  0  0  0  0
  -12.1810   -2.9050  -22.4200 C   0  0  0  0  0  0  0  0  0  0  0  0
  -11.6040   -1.6460  -22.5520 C   0  0  0  0  0  0  0  0  0  0  0  0
  -10.3110   -1.5350  -23.0650 C   0  0  0  0  0  0  0  0  0  0  0  0
   -9.8700   -0.5450  -23.1750 H   0  0  0  0  0  0  0  0  0  0  0  0
  -12.1620   -0.7540  -22.2680 H   0  0  0  0  0  0  0  0  0  0  0  0
  -13.1870   -3.0260  -22.0240 H   0  0  0  0  0  0  0  0  0  0  0  0
  -11.9250   -4.9940  -22.8370 H   0  0  0  0  0  0  0  0  0  0  0  0
   -9.6050   -4.8080  -23.5820 H   0  0  0  0  0  0  0  0  0  0  0  0
   -8.0790   -3.0570  -24.9240 H   0  0  0  0  0  0  0  0  0  0  0  0
   -7.8870   -1.5060  -24.0870 H   0  0  0  0  0  0  0  0  0  0  0  0
   -6.7020   -2.7240  -21.8970 C   0  0  0  0  0  0  0  0  0  0  0  0
   -5.7990   -3.2830  -21.3030 O   0  0  0  0  0  0  0  0  0  0  0  0
   -7.3900   -1.4730  -21.2930 C   0  0  0  0  0  0  0  0  0  0  0  0
   -6.5750   -0.8380  -20.1920 C   0  0  0  0  0  0  0  0  0  0  0  0
   -6.8750   -1.0540  -18.8730 C   0  0  0  0  0  0  0  0  0  0  0  0
   -6.1920   -0.5500  -17.8090 N   0  0  0  0  0  0  0  0  0  0  0  0
   -5.1600    0.2130  -18.0670 C   0  0  0  0  0  0  0  0  0  0  0  0
   -4.7240    0.5310  -19.3800 C   0  0  0  0  0  0  0  0  0  0  0  0
   -3.5990    1.3610  -19.6170 C   0  0  0  0  0  0  0  0  0  0  0  0
   -3.2130    1.6540  -20.8940 C   0  0  0  0  0  0  0  0  0  0  0  0
   -3.9410    1.1320  -21.9860 C   0  0  0  0  0  0  0  0  0  0  0  0
   -5.0170    0.3090  -21.7840 C   0  0  0  0  0  0  0  0  0  0  0  0
   -5.4490   -0.0080  -20.4720 C   0  0  0  0  0  0  0  0  0  0  0  0
   -5.5330   -0.1240  -22.6350 H   0  0  0  0  0  0  0  0  0  0  0  0
   -3.6090    1.3430  -22.9970 H   0  0  0  0  0  0  0  0  0  0  0  0
   -2.3390    2.2700  -21.0840 H   0  0  0  0  0  0  0  0  0  0  0  0
   -3.0660    1.7660  -18.7610 H   0  0  0  0  0  0  0  0  0  0  0  0
   -4.6140    0.6250  -17.2160 H   0  0  0  0  0  0  0  0  0  0  0  0
   -7.7260   -1.6750  -18.5910 H   0  0  0  0  0  0  0  0  0  0  0  0
   -7.6390   -0.7390  -22.0700 H   0  0  0  0  0  0  0  0  0  0  0  0
   -8.3550   -1.7970  -20.8740 H   0  0  0  0  0  0  0  0  0  0  0  0
   -6.0950   -4.7460  -24.7150 C   0  0  0  0  0  0  0  0  0  0  0  0
   -5.9310   -3.9110  -25.3900 H   0  0  0  0  0  0  0  0  0  0  0  0
   -7.4520   -5.4830  -21.6860 H   0  0  0  0  0  0  0  0  0  0  0  0
   -6.7260   -7.7480  -22.3810 H   0  0  0  0  0  0  0  0  0  0  0  0
   -5.5740   -8.1020  -24.5270 H   0  0  0  0  0  0  0  0  0  0  0  0
   -5.1460   -7.1380  -26.7750 H   0  0  0  0  0  0  0  0  0  0  0  0
   -4.4400   -6.1310  -28.9280 H   0  0  0  0  0  0  0  0  0  0  0  0
   -3.3760   -4.7310  -28.7530 H   0  0  0  0  0  0  0  0  0  0  0  0
   -2.0350   -6.8000  -29.3090 H   0  0  0  0  0  0  0  0  0  0  0  0
   -1.5960   -6.1590  -27.7190 H   0  0  0  0  0  0  0  0  0  0  0  0
   -2.6460   -7.5870  -27.8390 H   0  0  0  0  0  0  0  0  0  0  0  0
  1  2  1  0  0  0  0
  1 55  1  0  0  0  0
  1 56  1  0  0  0  0
  1 57  1  0  0  0  0
  2  3  1  0  0  0  0
  2 53  1  0  0  0  0
  2 54  1  0  0  0  0
  3  4  2  0  0  0  0
  3  5  1  0  0  0  0
  5  6  1  0  0  0  0
  5 52  1  0  0  0  0
  6  7  2  0  0  0  0
  6 47  1  0  0  0  0
  7  8  1  0  0  0  0
  7 51  1  0  0  0  0
  8  9  2  0  0  0  0
  8 50  1  0  0  0  0
  9 10  1  0  0  0  0
  9 49  1  0  0  0  0
 10 11  1  0  0  0  0
 10 47  2  0  0  0  0
 11 12  1  0  0  0  0
 11 26  1  0  0  0  0
 12 13  1  0  0  0  0
 12 24  1  0  0  0  0
 12 25  1  0  0  0  0
 13 14  2  0  0  0  0
 13 18  1  0  0  0  0
 14 15  1  0  0  0  0
 14 23  1  0  0  0  0
 15 16  2  0  0  0  0
 15 22  1  0  0  0  0
 16 17  1  0  0  0  0
 16 21  1  0  0  0  0
 17 18  2  0  0  0  0
 17 20  1  0  0  0  0
 18 19  1  0  0  0  0
 26 27  2  0  0  0  0
 26 28  1  0  0  0  0
 28 29  1  0  0  0  0
 28 45  1  0  0  0  0
 28 46  1  0  0  0  0
 29 30  2  0  0  0  0
 29 38  1  0  0  0  0
 30 31  1  0  0  0  0
 30 44  1  0  0  0  0
 31 32  2  0  0  0  0
 32 33  1  0  0  0  0
 32 43  1  0  0  0  0
 33 34  2  0  0  0  0
 33 38  1  0  0  0  0
 34 35  1  0  0  0  0
 34 42  1  0  0  0  0
 35 36  2  0  0  0  0
 35 41  1  0  0  0  0
 36 37  1  0  0  0  0
 36 40  1  0  0  0  0
 37 38  2  0  0  0  0
 37 39  1  0  0  0  0
 47 48  1  0  0  0  0
M  END
>  <MODEL>
       1

$$$$
