tmp_first_model_16_31.pdb
 OpenBabel08282501503D

 66 71  0  0  1  0  0  0  0  0999 V2000
   -7.7450   -6.0980  -26.6630 C   0  0  0  0  0  0  0  0  0  0  0  0
   -7.8740   -4.6920  -26.9990 N   0  0  0  0  0  0  0  0  0  0  0  0
   -6.9950   -3.7670  -26.5450 C   0  0  0  0  0  0  0  0  0  0  0  0
   -5.9620   -4.0260  -25.9390 O   0  0  0  0  0  0  0  0  0  0  0  0
   -7.4530   -2.3210  -26.7730 C   0  0  0  0  0  0  0  0  0  0  0  0
   -8.3820   -1.8940  -25.7290 N   0  0  0  0  0  0  0  0  0  0  0  0
   -7.8680   -1.3450  -24.4780 C   0  0  0  0  0  0  0  0  0  0  0  0
   -8.7540   -1.6270  -23.2230 C   0  0  2  0  0  0  0  0  0  0  0  0
   -8.2060   -0.6790  -22.1390 C   0  0  0  0  0  0  0  0  0  0  0  0
   -8.3630    0.5230  -22.0740 O   0  0  0  0  0  0  0  0  0  0  0  0
   -7.4260   -1.4210  -21.2640 N   0  0  0  0  0  0  0  0  0  0  0  0
   -6.6110   -0.8900  -20.2350 C   0  0  0  0  0  0  0  0  0  0  0  0
   -6.8770   -1.2440  -18.9350 C   0  0  0  0  0  0  0  0  0  0  0  0
   -6.1320   -0.8900  -17.8650 N   0  0  0  0  0  0  0  0  0  0  0  0
   -5.0720   -0.1540  -18.0920 C   0  0  0  0  0  0  0  0  0  0  0  0
   -4.6800    0.2980  -19.3820 C   0  0  0  0  0  0  0  0  0  0  0  0
   -3.5510    1.1440  -19.5530 C   0  0  0  0  0  0  0  0  0  0  0  0
   -3.1710    1.5420  -20.8040 C   0  0  0  0  0  0  0  0  0  0  0  0
   -3.8800    1.0910  -21.9380 C   0  0  0  0  0  0  0  0  0  0  0  0
   -4.9820    0.2860  -21.7950 C   0  0  0  0  0  0  0  0  0  0  0  0
   -5.4390   -0.1040  -20.5040 C   0  0  0  0  0  0  0  0  0  0  0  0
   -5.5150   -0.0490  -22.6780 H   0  0  0  0  0  0  0  0  0  0  0  0
   -3.5500    1.3930  -22.9280 H   0  0  0  0  0  0  0  0  0  0  0  0
   -2.3270    2.2120  -20.9370 H   0  0  0  0  0  0  0  0  0  0  0  0
   -3.0220    1.4820  -18.6660 H   0  0  0  0  0  0  0  0  0  0  0  0
   -4.4620    0.1070  -17.2300 H   0  0  0  0  0  0  0  0  0  0  0  0
   -7.7530   -1.8540  -18.7180 H   0  0  0  0  0  0  0  0  0  0  0  0
   -7.3330   -2.8300  -21.5990 C   0  0  0  0  0  0  0  0  0  0  0  0
   -8.5220   -3.0100  -22.5440 C   0  0  2  0  0  0  0  0  0  0  0  0
   -8.4280   -4.1640  -23.5370 C   0  0  0  0  0  0  0  0  0  0  0  0
   -8.3640   -5.4790  -22.9290 N   0  0  0  0  0  0  0  0  0  0  0  0
   -7.1910   -5.9900  -22.4440 C   0  0  0  0  0  0  0  0  0  0  0  0
   -5.9440   -5.6930  -23.0220 C   0  0  0  0  0  0  0  0  0  0  0  0
   -4.8410   -6.2710  -22.4260 C   0  0  0  0  0  0  0  0  0  0  0  0
   -4.9110   -7.0360  -21.3320 N   0  0  0  0  0  0  0  0  0  0  0  0
   -6.1410   -7.2560  -20.8940 C   0  0  0  0  0  0  0  0  0  0  0  0
   -7.2870   -6.8090  -21.3880 N   0  0  0  0  0  0  0  0  0  0  0  0
   -6.2100   -7.8710  -19.9990 H   0  0  0  0  0  0  0  0  0  0  0  0
   -3.8390   -6.1010  -22.8180 H   0  0  0  0  0  0  0  0  0  0  0  0
   -5.8630   -5.0450  -23.8940 H   0  0  0  0  0  0  0  0  0  0  0  0
   -9.1430   -5.6850  -22.3180 H   0  0  0  0  0  0  0  0  0  0  0  0
   -9.3220   -4.1360  -24.1710 H   0  0  0  0  0  0  0  0  0  0  0  0
   -7.5580   -4.0410  -24.1770 H   0  0  0  0  0  0  0  0  0  0  0  0
   -9.4060   -3.1920  -21.9100 H   0  0  0  0  0  0  0  0  0  0  0  0
   -7.4210   -3.4310  -20.6890 H   0  0  0  0  0  0  0  0  0  0  0  0
   -6.3580   -3.0690  -22.0630 H   0  0  0  0  0  0  0  0  0  0  0  0
  -10.2240   -1.4730  -23.5870 C   0  0  0  0  0  0  0  0  0  0  0  0
  -11.2080   -1.2870  -22.6040 C   0  0  0  0  0  0  0  0  0  0  0  0
  -12.5480   -1.2370  -22.9650 C   0  0  0  0  0  0  0  0  0  0  0  0
  -13.7900   -1.0630  -21.7700 Cl  0  0  0  0  0  0  0  0  0  0  0  0
  -12.9580   -1.3440  -24.2930 C   0  0  0  0  0  0  0  0  0  0  0  0
  -11.9950   -1.5860  -25.2510 C   0  0  0  0  0  0  0  0  0  0  0  0
  -10.6500   -1.6990  -24.9020 C   0  0  0  0  0  0  0  0  0  0  0  0
   -9.6890   -2.1960  -25.9250 C   0  0  0  0  0  0  0  0  0  0  0  0
  -10.0590   -2.8660  -26.8950 O   0  0  0  0  0  0  0  0  0  0  0  0
  -12.2600   -1.7100  -26.2930 H   0  0  0  0  0  0  0  0  0  0  0  0
  -14.0170   -1.2910  -24.5430 H   0  0  0  0  0  0  0  0  0  0  0  0
  -10.9450   -1.2130  -21.5550 H   0  0  0  0  0  0  0  0  0  0  0  0
   -7.7750   -0.2550  -24.5690 H   0  0  0  0  0  0  0  0  0  0  0  0
   -6.8650   -1.7730  -24.3220 H   0  0  0  0  0  0  0  0  0  0  0  0
   -6.5900   -1.6550  -26.8090 H   0  0  0  0  0  0  0  0  0  0  0  0
   -7.9900   -2.2710  -27.7200 H   0  0  0  0  0  0  0  0  0  0  0  0
   -8.7990   -4.3390  -27.2240 H   0  0  0  0  0  0  0  0  0  0  0  0
   -7.5590   -6.2380  -25.5890 H   0  0  0  0  0  0  0  0  0  0  0  0
   -8.6820   -6.5900  -26.9260 H   0  0  0  0  0  0  0  0  0  0  0  0
   -6.9370   -6.5670  -27.2320 H   0  0  0  0  0  0  0  0  0  0  0  0
  1  2  1  0  0  0  0
  1 64  1  0  0  0  0
  1 65  1  0  0  0  0
  1 66  1  0  0  0  0
  2  3  1  0  0  0  0
  2 63  1  0  0  0  0
  3  4  2  0  0  0  0
  3  5  1  0  0  0  0
  5  6  1  0  0  0  0
  5 61  1  0  0  0  0
  5 62  1  0  0  0  0
  6  7  1  0  0  0  0
  6 54  1  0  0  0  0
  7  8  1  0  0  0  0
  7 59  1  0  0  0  0
  7 60  1  0  0  0  0
  8  9  1  1  0  0  0
  8 29  1  0  0  0  0
  8 47  1  0  0  0  0
  9 10  2  0  0  0  0
  9 11  1  0  0  0  0
 11 12  1  0  0  0  0
 11 28  1  0  0  0  0
 12 13  2  0  0  0  0
 12 21  1  0  0  0  0
 13 14  1  0  0  0  0
 13 27  1  0  0  0  0
 14 15  2  0  0  0  0
 15 16  1  0  0  0  0
 15 26  1  0  0  0  0
 16 17  2  0  0  0  0
 16 21  1  0  0  0  0
 17 18  1  0  0  0  0
 17 25  1  0  0  0  0
 18 19  2  0  0  0  0
 18 24  1  0  0  0  0
 19 20  1  0  0  0  0
 19 23  1  0  0  0  0
 20 21  2  0  0  0  0
 20 22  1  0  0  0  0
 28 29  1  0  0  0  0
 28 45  1  0  0  0  0
 28 46  1  0  0  0  0
 29 30  1  0  0  0  0
 29 44  1  1  0  0  0
 30 31  1  0  0  0  0
 30 42  1  0  0  0  0
 30 43  1  0  0  0  0
 31 32  1  0  0  0  0
 31 41  1  0  0  0  0
 32 33  2  0  0  0  0
 32 37  1  0  0  0  0
 33 34  1  0  0  0  0
 33 40  1  0  0  0  0
 34 35  2  0  0  0  0
 34 39  1  0  0  0  0
 35 36  1  0  0  0  0
 36 37  2  0  0  0  0
 36 38  1  0  0  0  0
 47 48  2  0  0  0  0
 47 53  1  0  0  0  0
 48 49  1  0  0  0  0
 48 58  1  0  0  0  0
 49 50  1  0  0  0  0
 49 51  2  0  0  0  0
 51 52  1  0  0  0  0
 51 57  1  0  0  0  0
 52 53  2  0  0  0  0
 52 56  1  0  0  0  0
 53 54  1  0  0  0  0
 54 55  2  0  0  0  0
M  END
>  <MODEL>
       1

$$$$
