tmp_first_model_15_50.pdb
 OpenBabel08282501153D

 66 70  0  0  1  0  0  0  0  0999 V2000
   -7.6620    2.9800  -21.9380 C   0  0  0  0  0  0  0  0  0  0  0  0
   -8.8090    2.5140  -22.6970 N   0  0  0  0  0  0  0  0  0  0  0  0
   -8.5250    1.7260  -23.7740 C   0  0  0  0  0  0  0  0  0  0  0  0
   -7.3710    1.4760  -24.1050 O   0  0  0  0  0  0  0  0  0  0  0  0
   -9.7080    1.1430  -24.5450 C   0  0  0  0  0  0  0  0  0  0  0  0
  -10.1500   -0.0720  -23.8940 N   0  0  0  0  0  0  0  0  0  0  0  0
   -9.2500   -1.2190  -23.8800 C   0  0  0  0  0  0  0  0  0  0  0  0
   -9.3050   -1.9550  -22.5160 C   0  0  2  0  0  0  0  0  0  0  0  0
   -8.7010   -1.0170  -21.4360 C   0  0  0  0  0  0  0  0  0  0  0  0
   -9.2480   -0.0520  -20.9370 O   0  0  0  0  0  0  0  0  0  0  0  0
   -7.4090   -1.4250  -21.1740 N   0  0  0  0  0  0  0  0  0  0  0  0
   -6.6160   -0.8320  -20.1620 C   0  0  0  0  0  0  0  0  0  0  0  0
   -6.9290   -1.0490  -18.8420 C   0  0  0  0  0  0  0  0  0  0  0  0
   -6.2290   -0.5520  -17.7940 N   0  0  0  0  0  0  0  0  0  0  0  0
   -5.1880    0.1990  -18.0710 C   0  0  0  0  0  0  0  0  0  0  0  0
   -4.7540    0.5090  -19.3930 C   0  0  0  0  0  0  0  0  0  0  0  0
   -3.6370    1.3520  -19.6350 C   0  0  0  0  0  0  0  0  0  0  0  0
   -3.2620    1.6530  -20.9150 C   0  0  0  0  0  0  0  0  0  0  0  0
   -3.9850    1.1400  -22.0120 C   0  0  0  0  0  0  0  0  0  0  0  0
   -5.0790    0.3290  -21.8070 C   0  0  0  0  0  0  0  0  0  0  0  0
   -5.4830   -0.0220  -20.4860 C   0  0  0  0  0  0  0  0  0  0  0  0
   -5.6660    0.0130  -22.6650 H   0  0  0  0  0  0  0  0  0  0  0  0
   -3.6830    1.3950  -23.0230 H   0  0  0  0  0  0  0  0  0  0  0  0
   -2.4080    2.2960  -21.0930 H   0  0  0  0  0  0  0  0  0  0  0  0
   -3.1030    1.7570  -18.7790 H   0  0  0  0  0  0  0  0  0  0  0  0
   -4.6180    0.6060  -17.2340 H   0  0  0  0  0  0  0  0  0  0  0  0
   -7.7910   -1.6650  -18.5990 H   0  0  0  0  0  0  0  0  0  0  0  0
   -6.9900   -2.5620  -21.9720 C   0  0  0  0  0  0  0  0  0  0  0  0
   -8.3250   -3.1540  -22.4500 C   0  0  2  0  0  0  0  0  0  0  0  0
   -8.2010   -3.9880  -23.7220 C   0  0  0  0  0  0  0  0  0  0  0  0
   -7.4460   -5.1520  -23.4680 O   0  0  0  0  0  0  0  0  0  0  0  0
   -6.1630   -5.2220  -24.0850 C   0  0  0  0  0  0  0  0  0  0  0  0
   -6.2660   -5.7390  -25.5200 C   0  0  0  0  0  0  0  0  0  0  0  0
   -6.8730   -5.0750  -26.1480 H   0  0  0  0  0  0  0  0  0  0  0  0
   -5.2650   -5.8060  -25.9620 H   0  0  0  0  0  0  0  0  0  0  0  0
   -6.7250   -6.7360  -25.5300 H   0  0  0  0  0  0  0  0  0  0  0  0
   -5.3280   -6.1350  -23.2060 C   0  0  0  0  0  0  0  0  0  0  0  0
   -5.7790   -7.1310  -23.1930 H   0  0  0  0  0  0  0  0  0  0  0  0
   -5.3150   -5.7490  -22.1840 H   0  0  0  0  0  0  0  0  0  0  0  0
   -4.2970   -6.2120  -23.5690 H   0  0  0  0  0  0  0  0  0  0  0  0
   -5.7050   -4.2150  -24.1010 H   0  0  0  0  0  0  0  0  0  0  0  0
   -7.7520   -3.3840  -24.5320 H   0  0  0  0  0  0  0  0  0  0  0  0
   -9.1980   -4.3000  -24.0550 H   0  0  0  0  0  0  0  0  0  0  0  0
   -8.6520   -3.8160  -21.6450 H   0  0  0  0  0  0  0  0  0  0  0  0
   -6.3740   -2.2420  -22.8280 H   0  0  0  0  0  0  0  0  0  0  0  0
   -6.4140   -3.2730  -21.3700 H   0  0  0  0  0  0  0  0  0  0  0  0
  -10.7750   -2.2720  -22.2620 C   0  0  0  0  0  0  0  0  0  0  0  0
  -11.1960   -3.4050  -21.5600 C   0  0  0  0  0  0  0  0  0  0  0  0
  -12.5270   -3.5330  -21.2070 C   0  0  0  0  0  0  0  0  0  0  0  0
  -12.8860   -4.5370  -20.3940 F   0  0  0  0  0  0  0  0  0  0  0  0
  -13.5150   -2.6470  -21.6080 C   0  0  0  0  0  0  0  0  0  0  0  0
  -13.1220   -1.5730  -22.3750 C   0  0  0  0  0  0  0  0  0  0  0  0
  -11.7770   -1.3810  -22.6850 C   0  0  0  0  0  0  0  0  0  0  0  0
  -11.4330   -0.1460  -23.4460 C   0  0  0  0  0  0  0  0  0  0  0  0
  -12.2510    0.7500  -23.6400 O   0  0  0  0  0  0  0  0  0  0  0  0
  -13.8370   -0.8330  -22.7140 H   0  0  0  0  0  0  0  0  0  0  0  0
  -14.5440   -2.8100  -21.3100 H   0  0  0  0  0  0  0  0  0  0  0  0
  -10.5160   -4.1860  -21.2440 H   0  0  0  0  0  0  0  0  0  0  0  0
   -9.5390   -1.9180  -24.6730 H   0  0  0  0  0  0  0  0  0  0  0  0
   -8.2340   -0.8700  -24.0920 H   0  0  0  0  0  0  0  0  0  0  0  0
  -10.5600    1.8320  -24.6090 H   0  0  0  0  0  0  0  0  0  0  0  0
   -9.3690    0.9060  -25.5590 H   0  0  0  0  0  0  0  0  0  0  0  0
   -9.6570    2.3770  -22.1590 H   0  0  0  0  0  0  0  0  0  0  0  0
   -7.1340    2.1500  -21.4450 H   0  0  0  0  0  0  0  0  0  0  0  0
   -7.9970    3.7270  -21.2160 H   0  0  0  0  0  0  0  0  0  0  0  0
   -6.9620    3.4430  -22.6330 H   0  0  0  0  0  0  0  0  0  0  0  0
  1  2  1  0  0  0  0
  1 64  1  0  0  0  0
  1 65  1  0  0  0  0
  1 66  1  0  0  0  0
  2  3  1  0  0  0  0
  2 63  1  0  0  0  0
  3  4  2  0  0  0  0
  3  5  1  0  0  0  0
  5  6  1  0  0  0  0
  5 61  1  0  0  0  0
  5 62  1  0  0  0  0
  6  7  1  0  0  0  0
  6 54  1  0  0  0  0
  7  8  1  0  0  0  0
  7 59  1  0  0  0  0
  7 60  1  0  0  0  0
  8  9  1  1  0  0  0
  8 29  1  0  0  0  0
  8 47  1  0  0  0  0
  9 10  2  0  0  0  0
  9 11  1  0  0  0  0
 11 12  1  0  0  0  0
 11 28  1  0  0  0  0
 12 13  2  0  0  0  0
 12 21  1  0  0  0  0
 13 14  1  0  0  0  0
 13 27  1  0  0  0  0
 14 15  2  0  0  0  0
 15 16  1  0  0  0  0
 15 26  1  0  0  0  0
 16 17  2  0  0  0  0
 16 21  1  0  0  0  0
 17 18  1  0  0  0  0
 17 25  1  0  0  0  0
 18 19  2  0  0  0  0
 18 24  1  0  0  0  0
 19 20  1  0  0  0  0
 19 23  1  0  0  0  0
 20 21  2  0  0  0  0
 20 22  1  0  0  0  0
 28 29  1  0  0  0  0
 28 45  1  0  0  0  0
 28 46  1  0  0  0  0
 29 30  1  0  0  0  0
 29 44  1  1  0  0  0
 30 31  1  0  0  0  0
 30 42  1  0  0  0  0
 30 43  1  0  0  0  0
 31 32  1  0  0  0  0
 32 33  1  0  0  0  0
 32 37  1  0  0  0  0
 32 41  1  0  0  0  0
 33 34  1  0  0  0  0
 33 35  1  0  0  0  0
 33 36  1  0  0  0  0
 37 38  1  0  0  0  0
 37 39  1  0  0  0  0
 37 40  1  0  0  0  0
 47 48  2  0  0  0  0
 47 53  1  0  0  0  0
 48 49  1  0  0  0  0
 48 58  1  0  0  0  0
 49 50  1  0  0  0  0
 49 51  2  0  0  0  0
 51 52  1  0  0  0  0
 51 57  1  0  0  0  0
 52 53  2  0  0  0  0
 52 56  1  0  0  0  0
 53 54  1  0  0  0  0
 54 55  2  0  0  0  0
M  END
>  <MODEL>
       1

$$$$
