tmp_first_model_2_58.pdb
 OpenBabel08272517383D

 42 45  0  0  1  0  0  0  0  0999 V2000
   -7.2350   -5.3340  -21.6910 C   0  0  0  0  0  0  0  0  0  0  0  0
   -8.0050   -4.3480  -22.4270 N   0  0  0  0  0  0  0  0  0  0  0  0
   -9.2660   -3.7900  -21.9530 C   0  0  0  0  0  0  0  0  0  0  0  0
   -9.4220   -2.2930  -22.2590 C   0  0  1  0  0  0  0  0  0  0  0  0
   -8.6750   -1.2810  -21.3850 C   0  0  0  0  0  0  0  0  0  0  0  0
   -9.2590   -0.3220  -20.9130 O   0  0  0  0  0  0  0  0  0  0  0  0
   -7.3240   -1.4810  -21.2120 N   0  0  0  0  0  0  0  0  0  0  0  0
   -6.5790   -0.8550  -20.1850 C   0  0  0  0  0  0  0  0  0  0  0  0
   -6.9150   -1.0560  -18.8660 C   0  0  0  0  0  0  0  0  0  0  0  0
   -6.2300   -0.5470  -17.8090 N   0  0  0  0  0  0  0  0  0  0  0  0
   -5.1890    0.2030  -18.0800 C   0  0  0  0  0  0  0  0  0  0  0  0
   -4.7370    0.5010  -19.3990 C   0  0  0  0  0  0  0  0  0  0  0  0
   -3.6200    1.3420  -19.6350 C   0  0  0  0  0  0  0  0  0  0  0  0
   -3.2340    1.6370  -20.9130 C   0  0  0  0  0  0  0  0  0  0  0  0
   -3.9490    1.1160  -22.0160 C   0  0  0  0  0  0  0  0  0  0  0  0
   -5.0370    0.2990  -21.8170 C   0  0  0  0  0  0  0  0  0  0  0  0
   -5.4480   -0.0360  -20.4970 C   0  0  0  0  0  0  0  0  0  0  0  0
   -5.6010   -0.0650  -22.6750 H   0  0  0  0  0  0  0  0  0  0  0  0
   -3.6380    1.3720  -23.0260 H   0  0  0  0  0  0  0  0  0  0  0  0
   -2.3790    2.2840  -21.0920 H   0  0  0  0  0  0  0  0  0  0  0  0
   -3.0970    1.7530  -18.7750 H   0  0  0  0  0  0  0  0  0  0  0  0
   -4.6360    0.6230  -17.2390 H   0  0  0  0  0  0  0  0  0  0  0  0
   -7.7730   -1.6820  -18.6270 H   0  0  0  0  0  0  0  0  0  0  0  0
   -6.8210   -2.0290  -21.8980 H   0  0  0  0  0  0  0  0  0  0  0  0
   -9.0460   -2.0460  -23.6900 C   0  0  0  0  0  0  0  0  0  0  0  0
   -9.5320   -0.9140  -24.3400 C   0  0  0  0  0  0  0  0  0  0  0  0
   -9.1030   -0.6350  -25.6280 C   0  0  0  0  0  0  0  0  0  0  0  0
   -9.7000    0.7870  -26.4380 Cl  0  0  0  0  0  0  0  0  0  0  0  0
   -8.1710   -1.4450  -26.2750 C   0  0  0  0  0  0  0  0  0  0  0  0
   -7.6790   -2.5570  -25.6210 C   0  0  0  0  0  0  0  0  0  0  0  0
   -8.1210   -2.8550  -24.3360 C   0  0  0  0  0  0  0  0  0  0  0  0
   -7.5000   -4.0260  -23.6560 C   0  0  0  0  0  0  0  0  0  0  0  0
   -6.5500   -4.6240  -24.1430 O   0  0  0  0  0  0  0  0  0  0  0  0
   -6.9300   -3.2070  -26.0620 H   0  0  0  0  0  0  0  0  0  0  0  0
   -7.8130   -1.1820  -27.2610 H   0  0  0  0  0  0  0  0  0  0  0  0
  -10.2350   -0.2590  -23.8370 H   0  0  0  0  0  0  0  0  0  0  0  0
  -10.4660   -2.0110  -22.0900 H   0  0  0  0  0  0  0  0  0  0  0  0
  -10.0960   -4.2820  -22.4780 H   0  0  0  0  0  0  0  0  0  0  0  0
   -9.3800   -3.9730  -20.8820 H   0  0  0  0  0  0  0  0  0  0  0  0
   -7.8200   -5.8530  -20.9360 H   0  0  0  0  0  0  0  0  0  0  0  0
   -6.8700   -6.0790  -22.4020 H   0  0  0  0  0  0  0  0  0  0  0  0
   -6.3600   -4.8880  -21.2070 H   0  0  0  0  0  0  0  0  0  0  0  0
  1  2  1  0  0  0  0
  1 40  1  0  0  0  0
  1 41  1  0  0  0  0
  1 42  1  0  0  0  0
  2  3  1  0  0  0  0
  2 32  1  0  0  0  0
  3  4  1  0  0  0  0
  3 38  1  0  0  0  0
  3 39  1  0  0  0  0
  4  5  1  0  0  0  0
  4 25  1  0  0  0  0
  4 37  1  1  0  0  0
  5  6  2  0  0  0  0
  5  7  1  0  0  0  0
  7  8  1  0  0  0  0
  7 24  1  0  0  0  0
  8  9  2  0  0  0  0
  8 17  1  0  0  0  0
  9 10  1  0  0  0  0
  9 23  1  0  0  0  0
 10 11  2  0  0  0  0
 11 12  1  0  0  0  0
 11 22  1  0  0  0  0
 12 13  2  0  0  0  0
 12 17  1  0  0  0  0
 13 14  1  0  0  0  0
 13 21  1  0  0  0  0
 14 15  2  0  0  0  0
 14 20  1  0  0  0  0
 15 16  1  0  0  0  0
 15 19  1  0  0  0  0
 16 17  2  0  0  0  0
 16 18  1  0  0  0  0
 25 26  2  0  0  0  0
 25 31  1  0  0  0  0
 26 27  1  0  0  0  0
 26 36  1  0  0  0  0
 27 28  1  0  0  0  0
 27 29  2  0  0  0  0
 29 30  1  0  0  0  0
 29 35  1  0  0  0  0
 30 31  2  0  0  0  0
 30 34  1  0  0  0  0
 31 32  1  0  0  0  0
 32 33  2  0  0  0  0
M  END
>  <MODEL>
       1

$$$$
