tmp_first_model_1_72.pdb
 OpenBabel08272517043D

 41 44  0  0  0  0  0  0  0  0999 V2000
   -5.9730   -3.3690  -21.2300 O   0  0  0  0  0  0  0  0  0  0  0  0
   -6.6740   -2.6670  -21.9340 C   0  0  0  0  0  0  0  0  0  0  0  0
   -7.3980   -1.4570  -21.2830 C   0  0  0  0  0  0  0  0  0  0  0  0
   -6.5780   -0.8280  -20.1770 C   0  0  0  0  0  0  0  0  0  0  0  0
   -6.8730   -1.0470  -18.8550 C   0  0  0  0  0  0  0  0  0  0  0  0
   -6.1840   -0.5470  -17.7940 N   0  0  0  0  0  0  0  0  0  0  0  0
   -5.1560    0.2230  -18.0620 C   0  0  0  0  0  0  0  0  0  0  0  0
   -4.7200    0.5350  -19.3810 C   0  0  0  0  0  0  0  0  0  0  0  0
   -3.5910    1.3620  -19.6220 C   0  0  0  0  0  0  0  0  0  0  0  0
   -3.1950    1.6380  -20.9020 C   0  0  0  0  0  0  0  0  0  0  0  0
   -3.9120    1.0960  -21.9960 C   0  0  0  0  0  0  0  0  0  0  0  0
   -5.0090    0.2940  -21.7930 C   0  0  0  0  0  0  0  0  0  0  0  0
   -5.4450   -0.0070  -20.4720 C   0  0  0  0  0  0  0  0  0  0  0  0
   -5.5440   -0.1050  -22.6570 H   0  0  0  0  0  0  0  0  0  0  0  0
   -3.5880    1.3220  -23.0090 H   0  0  0  0  0  0  0  0  0  0  0  0
   -2.3350    2.2740  -21.0910 H   0  0  0  0  0  0  0  0  0  0  0  0
   -3.0500    1.7760  -18.7740 H   0  0  0  0  0  0  0  0  0  0  0  0
   -4.5990    0.6300  -17.2160 H   0  0  0  0  0  0  0  0  0  0  0  0
   -7.7230   -1.6720  -18.5880 H   0  0  0  0  0  0  0  0  0  0  0  0
   -8.3300   -1.8440  -20.8490 H   0  0  0  0  0  0  0  0  0  0  0  0
   -7.6820   -0.6950  -22.0170 H   0  0  0  0  0  0  0  0  0  0  0  0
   -6.8350   -2.9510  -23.2800 N   0  0  0  0  0  0  0  0  0  0  0  0
   -5.7770   -3.7100  -23.9510 C   0  0  0  0  0  0  0  0  0  0  0  0
   -4.6680   -2.8520  -24.5650 C   0  0  0  0  0  0  0  0  0  0  0  0
   -5.1230   -2.0220  -25.7760 C   0  0  0  0  0  0  0  0  0  0  0  0
   -6.0550   -0.8890  -25.4210 C   0  0  0  0  0  0  0  0  0  0  0  0
   -5.7200    0.7490  -25.8840 S   0  0  0  0  0  0  0  0  0  0  0  0
   -7.1860    1.3120  -25.1780 C   0  0  0  0  0  0  0  0  0  0  0  0
   -7.8880    0.2960  -24.6020 C   0  0  0  0  0  0  0  0  0  0  0  0
   -7.2330   -0.9660  -24.7230 C   0  0  0  0  0  0  0  0  0  0  0  0
   -7.7690   -2.2500  -24.1440 C   0  0  0  0  0  0  0  0  0  0  0  0
   -8.6940   -2.0530  -23.5970 H   0  0  0  0  0  0  0  0  0  0  0  0
   -8.0540   -2.9250  -24.9590 H   0  0  0  0  0  0  0  0  0  0  0  0
   -8.8470    0.4240  -24.1000 H   0  0  0  0  0  0  0  0  0  0  0  0
   -7.4660    2.3550  -25.2100 H   0  0  0  0  0  0  0  0  0  0  0  0
   -5.6280   -2.6870  -26.4930 H   0  0  0  0  0  0  0  0  0  0  0  0
   -4.2480   -1.6270  -26.3010 H   0  0  0  0  0  0  0  0  0  0  0  0
   -3.8350   -3.5000  -24.8720 H   0  0  0  0  0  0  0  0  0  0  0  0
   -4.2670   -2.1820  -23.7980 H   0  0  0  0  0  0  0  0  0  0  0  0
   -6.2410   -4.2980  -24.7490 H   0  0  0  0  0  0  0  0  0  0  0  0
   -5.3600   -4.4160  -23.2330 H   0  0  0  0  0  0  0  0  0  0  0  0
  1  2  2  0  0  0  0
  2  3  1  0  0  0  0
  2 22  1  0  0  0  0
  3  4  1  0  0  0  0
  3 20  1  0  0  0  0
  3 21  1  0  0  0  0
  4  5  2  0  0  0  0
  4 13  1  0  0  0  0
  5  6  1  0  0  0  0
  5 19  1  0  0  0  0
  6  7  2  0  0  0  0
  7  8  1  0  0  0  0
  7 18  1  0  0  0  0
  8  9  2  0  0  0  0
  8 13  1  0  0  0  0
  9 10  1  0  0  0  0
  9 17  1  0  0  0  0
 10 11  2  0  0  0  0
 10 16  1  0  0  0  0
 11 12  1  0  0  0  0
 11 15  1  0  0  0  0
 12 13  2  0  0  0  0
 12 14  1  0  0  0  0
 22 23  1  0  0  0  0
 22 31  1  0  0  0  0
 23 24  1  0  0  0  0
 23 40  1  0  0  0  0
 23 41  1  0  0  0  0
 24 25  1  0  0  0  0
 24 38  1  0  0  0  0
 24 39  1  0  0  0  0
 25 26  1  0  0  0  0
 25 36  1  0  0  0  0
 25 37  1  0  0  0  0
 26 27  1  0  0  0  0
 26 30  2  0  0  0  0
 27 28  1  0  0  0  0
 28 29  2  0  0  0  0
 28 35  1  0  0  0  0
 29 30  1  0  0  0  0
 29 34  1  0  0  0  0
 30 31  1  0  0  0  0
 31 32  1  0  0  0  0
 31 33  1  0  0  0  0
M  END
>  <MODEL>
       1

$$$$
