tmp_first_model_12_50.pdb
 OpenBabel08272523333D

 66 70  0  0  1  0  0  0  0  0999 V2000
   -7.4100    3.3870  -21.9390 C   0  0  0  0  0  0  0  0  0  0  0  0
   -8.3520    2.9010  -22.9390 N   0  0  0  0  0  0  0  0  0  0  0  0
   -7.8440    2.1300  -23.9450 C   0  0  0  0  0  0  0  0  0  0  0  0
   -6.6470    1.9100  -24.0760 O   0  0  0  0  0  0  0  0  0  0  0  0
   -8.8760    1.5360  -24.9030 C   0  0  0  0  0  0  0  0  0  0  0  0
   -9.5260    0.4010  -24.2780 N   0  0  0  0  0  0  0  0  0  0  0  0
   -8.7820   -0.8410  -24.1330 C   0  0  0  0  0  0  0  0  0  0  0  0
   -9.1180   -1.5570  -22.8040 C   0  0  2  0  0  0  0  0  0  0  0  0
   -8.5500   -0.7510  -21.6150 C   0  0  0  0  0  0  0  0  0  0  0  0
   -8.9900    0.2760  -21.1320 O   0  0  0  0  0  0  0  0  0  0  0  0
   -7.4000   -1.3730  -21.1910 N   0  0  0  0  0  0  0  0  0  0  0  0
   -6.6180   -0.7880  -20.1660 C   0  0  0  0  0  0  0  0  0  0  0  0
   -6.9270   -1.0400  -18.8570 C   0  0  0  0  0  0  0  0  0  0  0  0
   -6.2300   -0.5610  -17.7970 N   0  0  0  0  0  0  0  0  0  0  0  0
   -5.2020    0.2090  -18.0590 C   0  0  0  0  0  0  0  0  0  0  0  0
   -4.7860    0.5720  -19.3710 C   0  0  0  0  0  0  0  0  0  0  0  0
   -3.6530    1.3910  -19.6080 C   0  0  0  0  0  0  0  0  0  0  0  0
   -3.3180    1.7650  -20.8780 C   0  0  0  0  0  0  0  0  0  0  0  0
   -4.1060    1.3550  -21.9770 C   0  0  0  0  0  0  0  0  0  0  0  0
   -5.1880    0.5270  -21.7810 C   0  0  0  0  0  0  0  0  0  0  0  0
   -5.5370    0.0910  -20.4740 C   0  0  0  0  0  0  0  0  0  0  0  0
   -5.7890    0.2300  -22.6380 H   0  0  0  0  0  0  0  0  0  0  0  0
   -3.8600    1.6920  -22.9790 H   0  0  0  0  0  0  0  0  0  0  0  0
   -2.4400    2.3800  -21.0500 H   0  0  0  0  0  0  0  0  0  0  0  0
   -3.0780    1.7250  -18.7480 H   0  0  0  0  0  0  0  0  0  0  0  0
   -4.6230    0.5750  -17.2080 H   0  0  0  0  0  0  0  0  0  0  0  0
   -7.7840   -1.6680  -18.6260 H   0  0  0  0  0  0  0  0  0  0  0  0
   -7.0570   -2.5790  -21.9230 C   0  0  0  0  0  0  0  0  0  0  0  0
   -8.3540   -2.9090  -22.6800 C   0  0  2  0  0  0  0  0  0  0  0  0
   -8.1070   -3.6550  -23.9870 C   0  0  0  0  0  0  0  0  0  0  0  0
   -7.4630   -4.8820  -23.7050 O   0  0  0  0  0  0  0  0  0  0  0  0
   -7.3090   -5.7360  -24.8370 C   0  0  0  0  0  0  0  0  0  0  0  0
   -8.4440   -6.7580  -24.8990 C   0  0  0  0  0  0  0  0  0  0  0  0
   -8.4390   -7.3770  -23.9960 H   0  0  0  0  0  0  0  0  0  0  0  0
   -8.3100   -7.4100  -25.7720 H   0  0  0  0  0  0  0  0  0  0  0  0
   -9.4250   -6.2740  -24.9780 H   0  0  0  0  0  0  0  0  0  0  0  0
   -5.9550   -6.4260  -24.7290 C   0  0  0  0  0  0  0  0  0  0  0  0
   -5.9250   -7.0490  -23.8290 H   0  0  0  0  0  0  0  0  0  0  0  0
   -5.7910   -7.0640  -25.6050 H   0  0  0  0  0  0  0  0  0  0  0  0
   -5.1460   -5.6910  -24.6760 H   0  0  0  0  0  0  0  0  0  0  0  0
   -7.3250   -5.1350  -25.7640 H   0  0  0  0  0  0  0  0  0  0  0  0
   -9.0640   -3.8150  -24.5090 H   0  0  0  0  0  0  0  0  0  0  0  0
   -7.4660   -3.0550  -24.6550 H   0  0  0  0  0  0  0  0  0  0  0  0
   -8.9380   -3.5820  -22.0490 H   0  0  0  0  0  0  0  0  0  0  0  0
   -6.7750   -3.3790  -21.2350 H   0  0  0  0  0  0  0  0  0  0  0  0
   -6.2140   -2.4170  -22.6120 H   0  0  0  0  0  0  0  0  0  0  0  0
  -10.6240   -1.6430  -22.7020 C   0  0  0  0  0  0  0  0  0  0  0  0
  -11.2290   -2.5870  -21.8720 C   0  0  0  0  0  0  0  0  0  0  0  0
  -12.5980   -2.5860  -21.7230 C   0  0  0  0  0  0  0  0  0  0  0  0
  -13.1470   -3.4750  -20.8840 F   0  0  0  0  0  0  0  0  0  0  0  0
  -13.4350   -1.6910  -22.3760 C   0  0  0  0  0  0  0  0  0  0  0  0
  -12.8380   -0.7520  -23.1860 C   0  0  0  0  0  0  0  0  0  0  0  0
  -11.4540   -0.7050  -23.3340 C   0  0  0  0  0  0  0  0  0  0  0  0
  -10.8840    0.4170  -24.1410 C   0  0  0  0  0  0  0  0  0  0  0  0
  -11.5820    1.3030  -24.6170 O   0  0  0  0  0  0  0  0  0  0  0  0
  -13.4260   -0.0200  -23.7210 H   0  0  0  0  0  0  0  0  0  0  0  0
  -14.5090   -1.7440  -22.2290 H   0  0  0  0  0  0  0  0  0  0  0  0
  -10.6640   -3.3310  -21.3230 H   0  0  0  0  0  0  0  0  0  0  0  0
   -9.0300   -1.5170  -24.9620 H   0  0  0  0  0  0  0  0  0  0  0  0
   -7.7120   -0.6200  -24.1880 H   0  0  0  0  0  0  0  0  0  0  0  0
   -8.3720    1.2200  -25.8220 H   0  0  0  0  0  0  0  0  0  0  0  0
   -9.6520    2.2620  -25.1650 H   0  0  0  0  0  0  0  0  0  0  0  0
   -9.2960    2.7080  -22.6240 H   0  0  0  0  0  0  0  0  0  0  0  0
   -7.9270    4.0230  -21.2180 H   0  0  0  0  0  0  0  0  0  0  0  0
   -6.9140    2.5470  -21.4280 H   0  0  0  0  0  0  0  0  0  0  0  0
   -6.6510    4.0020  -22.4310 H   0  0  0  0  0  0  0  0  0  0  0  0
  1  2  1  0  0  0  0
  1 64  1  0  0  0  0
  1 65  1  0  0  0  0
  1 66  1  0  0  0  0
  2  3  1  0  0  0  0
  2 63  1  0  0  0  0
  3  4  2  0  0  0  0
  3  5  1  0  0  0  0
  5  6  1  0  0  0  0
  5 61  1  0  0  0  0
  5 62  1  0  0  0  0
  6  7  1  0  0  0  0
  6 54  1  0  0  0  0
  7  8  1  0  0  0  0
  7 59  1  0  0  0  0
  7 60  1  0  0  0  0
  8  9  1  1  0  0  0
  8 29  1  0  0  0  0
  8 47  1  0  0  0  0
  9 10  2  0  0  0  0
  9 11  1  0  0  0  0
 11 12  1  0  0  0  0
 11 28  1  0  0  0  0
 12 13  2  0  0  0  0
 12 21  1  0  0  0  0
 13 14  1  0  0  0  0
 13 27  1  0  0  0  0
 14 15  2  0  0  0  0
 15 16  1  0  0  0  0
 15 26  1  0  0  0  0
 16 17  2  0  0  0  0
 16 21  1  0  0  0  0
 17 18  1  0  0  0  0
 17 25  1  0  0  0  0
 18 19  2  0  0  0  0
 18 24  1  0  0  0  0
 19 20  1  0  0  0  0
 19 23  1  0  0  0  0
 20 21  2  0  0  0  0
 20 22  1  0  0  0  0
 28 29  1  0  0  0  0
 28 45  1  0  0  0  0
 28 46  1  0  0  0  0
 29 30  1  0  0  0  0
 29 44  1  1  0  0  0
 30 31  1  0  0  0  0
 30 42  1  0  0  0  0
 30 43  1  0  0  0  0
 31 32  1  0  0  0  0
 32 33  1  0  0  0  0
 32 37  1  0  0  0  0
 32 41  1  0  0  0  0
 33 34  1  0  0  0  0
 33 35  1  0  0  0  0
 33 36  1  0  0  0  0
 37 38  1  0  0  0  0
 37 39  1  0  0  0  0
 37 40  1  0  0  0  0
 47 48  2  0  0  0  0
 47 53  1  0  0  0  0
 48 49  1  0  0  0  0
 48 58  1  0  0  0  0
 49 50  1  0  0  0  0
 49 51  2  0  0  0  0
 51 52  1  0  0  0  0
 51 57  1  0  0  0  0
 52 53  2  0  0  0  0
 52 56  1  0  0  0  0
 53 54  1  0  0  0  0
 54 55  2  0  0  0  0
M  END
>  <MODEL>
       1

$$$$
