tmp_first_model_5_43.pdb
 OpenBabel08272519233D

 67 72  0  0  1  0  0  0  0  0999 V2000
   -8.1010    4.6250  -24.2170 C   0  0  0  0  0  0  0  0  0  0  0  0
   -8.1520    3.3960  -24.9790 N   0  0  0  0  0  0  0  0  0  0  0  0
   -7.1780    2.4600  -24.8700 C   0  0  0  0  0  0  0  0  0  0  0  0
   -6.1060    2.6540  -24.3160 O   0  0  0  0  0  0  0  0  0  0  0  0
   -7.5160    1.1090  -25.5270 C   0  0  0  0  0  0  0  0  0  0  0  0
   -8.4200    0.2830  -24.7210 N   0  0  0  0  0  0  0  0  0  0  0  0
   -7.9500   -1.0350  -24.2980 C   0  0  0  0  0  0  0  0  0  0  0  0
   -8.7500   -1.6210  -23.0920 C   0  0  2  0  0  0  0  0  0  0  0  0
   -8.3330   -0.8780  -21.7880 C   0  0  0  0  0  0  0  0  0  0  0  0
   -8.7590    0.1720  -21.3730 O   0  0  0  0  0  0  0  0  0  0  0  0
   -7.3660   -1.6390  -21.1500 N   0  0  0  0  0  0  0  0  0  0  0  0
   -6.4760   -1.1550  -20.1490 C   0  0  0  0  0  0  0  0  0  0  0  0
   -6.5730   -1.6280  -18.8620 C   0  0  0  0  0  0  0  0  0  0  0  0
   -5.6170   -1.4860  -17.9130 N   0  0  0  0  0  0  0  0  0  0  0  0
   -4.5320   -0.8270  -18.2470 C   0  0  0  0  0  0  0  0  0  0  0  0
   -4.3490   -0.1820  -19.4970 C   0  0  0  0  0  0  0  0  0  0  0  0
   -3.2180    0.6440  -19.7440 C   0  0  0  0  0  0  0  0  0  0  0  0
   -3.1730    1.4410  -20.8550 C   0  0  0  0  0  0  0  0  0  0  0  0
   -4.1980    1.3530  -21.8290 C   0  0  0  0  0  0  0  0  0  0  0  0
   -5.2750    0.5240  -21.6310 C   0  0  0  0  0  0  0  0  0  0  0  0
   -5.3800   -0.2750  -20.4570 C   0  0  0  0  0  0  0  0  0  0  0  0
   -6.0970    0.5140  -22.3410 H   0  0  0  0  0  0  0  0  0  0  0  0
   -4.1400    1.9520  -22.7330 H   0  0  0  0  0  0  0  0  0  0  0  0
   -2.3290    2.1090  -21.0090 H   0  0  0  0  0  0  0  0  0  0  0  0
   -2.4500    0.7080  -18.9830 H   0  0  0  0  0  0  0  0  0  0  0  0
   -3.7390   -0.7520  -17.5060 H   0  0  0  0  0  0  0  0  0  0  0  0
   -7.4700   -2.1520  -18.5360 H   0  0  0  0  0  0  0  0  0  0  0  0
   -7.0420   -2.8670  -21.8510 C   0  0  0  0  0  0  0  0  0  0  0  0
   -8.2530   -3.0570  -22.7690 C   0  0  2  0  0  0  0  0  0  0  0  0
   -7.9350   -3.9400  -23.9760 C   0  0  0  0  0  0  0  0  0  0  0  0
   -7.6970   -5.3170  -23.6220 N   0  0  0  0  0  0  0  0  0  0  0  0
   -6.4890   -5.7880  -23.1740 C   0  0  0  0  0  0  0  0  0  0  0  0
   -4.9540   -5.3330  -23.8660 S   0  0  0  0  0  0  0  0  0  0  0  0
   -4.1810   -6.3400  -22.6730 C   0  0  0  0  0  0  0  0  0  0  0  0
   -4.9740   -6.9520  -21.8580 N   0  0  0  0  0  0  0  0  0  0  0  0
   -6.2900   -6.6660  -22.1470 C   0  0  0  0  0  0  0  0  0  0  0  0
   -7.4140   -7.2500  -21.3540 C   0  0  0  0  0  0  0  0  0  0  0  0
   -8.0940   -7.8270  -21.9950 H   0  0  0  0  0  0  0  0  0  0  0  0
   -8.0060   -6.4470  -20.8960 H   0  0  0  0  0  0  0  0  0  0  0  0
   -7.0180   -7.8930  -20.5680 H   0  0  0  0  0  0  0  0  0  0  0  0
   -3.0980   -6.4090  -22.6300 H   0  0  0  0  0  0  0  0  0  0  0  0
   -8.5110   -5.8690  -23.3980 H   0  0  0  0  0  0  0  0  0  0  0  0
   -7.0260   -3.5750  -24.4600 H   0  0  0  0  0  0  0  0  0  0  0  0
   -8.7560   -3.8980  -24.6980 H   0  0  0  0  0  0  0  0  0  0  0  0
   -9.0260   -3.5370  -22.1620 H   0  0  0  0  0  0  0  0  0  0  0  0
   -6.9040   -3.6940  -21.1470 H   0  0  0  0  0  0  0  0  0  0  0  0
   -6.1030   -2.7780  -22.4240 H   0  0  0  0  0  0  0  0  0  0  0  0
  -10.2380   -1.4750  -23.3760 C   0  0  0  0  0  0  0  0  0  0  0  0
  -11.2100   -2.3250  -22.8260 C   0  0  0  0  0  0  0  0  0  0  0  0
  -12.5510   -2.1130  -23.0850 C   0  0  0  0  0  0  0  0  0  0  0  0
  -13.7450   -3.1510  -22.3710 Cl  0  0  0  0  0  0  0  0  0  0  0  0
  -12.9890   -1.0610  -23.8850 C   0  0  0  0  0  0  0  0  0  0  0  0
  -12.0480   -0.2010  -24.4000 C   0  0  0  0  0  0  0  0  0  0  0  0
  -10.6920   -0.4070  -24.1700 C   0  0  0  0  0  0  0  0  0  0  0  0
   -9.7510    0.5510  -24.8270 C   0  0  0  0  0  0  0  0  0  0  0  0
  -10.1700    1.5280  -25.4540 O   0  0  0  0  0  0  0  0  0  0  0  0
  -12.3490    0.6530  -24.9920 H   0  0  0  0  0  0  0  0  0  0  0  0
  -14.0460   -0.9200  -24.0670 H   0  0  0  0  0  0  0  0  0  0  0  0
  -10.9430   -3.1470  -22.1690 H   0  0  0  0  0  0  0  0  0  0  0  0
   -6.8900   -0.9480  -24.0250 H   0  0  0  0  0  0  0  0  0  0  0  0
   -8.0150   -1.7200  -25.1540 H   0  0  0  0  0  0  0  0  0  0  0  0
   -7.9860    1.2900  -26.5010 H   0  0  0  0  0  0  0  0  0  0  0  0
   -6.5740    0.5770  -25.6810 H   0  0  0  0  0  0  0  0  0  0  0  0
   -9.0410    3.0910  -25.3610 H   0  0  0  0  0  0  0  0  0  0  0  0
   -8.5580    4.5140  -23.2240 H   0  0  0  0  0  0  0  0  0  0  0  0
   -7.0560    4.9120  -24.0890 H   0  0  0  0  0  0  0  0  0  0  0  0
   -8.6290    5.4110  -24.7640 H   0  0  0  0  0  0  0  0  0  0  0  0
  1  2  1  0  0  0  0
  1 65  1  0  0  0  0
  1 66  1  0  0  0  0
  1 67  1  0  0  0  0
  2  3  1  0  0  0  0
  2 64  1  0  0  0  0
  3  4  2  0  0  0  0
  3  5  1  0  0  0  0
  5  6  1  0  0  0  0
  5 62  1  0  0  0  0
  5 63  1  0  0  0  0
  6  7  1  0  0  0  0
  6 55  1  0  0  0  0
  7  8  1  0  0  0  0
  7 60  1  0  0  0  0
  7 61  1  0  0  0  0
  8  9  1  1  0  0  0
  8 29  1  0  0  0  0
  8 48  1  0  0  0  0
  9 10  2  0  0  0  0
  9 11  1  0  0  0  0
 11 12  1  0  0  0  0
 11 28  1  0  0  0  0
 12 13  2  0  0  0  0
 12 21  1  0  0  0  0
 13 14  1  0  0  0  0
 13 27  1  0  0  0  0
 14 15  2  0  0  0  0
 15 16  1  0  0  0  0
 15 26  1  0  0  0  0
 16 17  2  0  0  0  0
 16 21  1  0  0  0  0
 17 18  1  0  0  0  0
 17 25  1  0  0  0  0
 18 19  2  0  0  0  0
 18 24  1  0  0  0  0
 19 20  1  0  0  0  0
 19 23  1  0  0  0  0
 20 21  2  0  0  0  0
 20 22  1  0  0  0  0
 28 29  1  0  0  0  0
 28 46  1  0  0  0  0
 28 47  1  0  0  0  0
 29 30  1  0  0  0  0
 29 45  1  1  0  0  0
 30 31  1  0  0  0  0
 30 43  1  0  0  0  0
 30 44  1  0  0  0  0
 31 32  1  0  0  0  0
 31 42  1  0  0  0  0
 32 33  1  0  0  0  0
 32 36  2  0  0  0  0
 33 34  1  0  0  0  0
 34 35  2  0  0  0  0
 34 41  1  0  0  0  0
 35 36  1  0  0  0  0
 36 37  1  0  0  0  0
 37 38  1  0  0  0  0
 37 39  1  0  0  0  0
 37 40  1  0  0  0  0
 48 49  2  0  0  0  0
 48 54  1  0  0  0  0
 49 50  1  0  0  0  0
 49 59  1  0  0  0  0
 50 51  1  0  0  0  0
 50 52  2  0  0  0  0
 52 53  1  0  0  0  0
 52 58  1  0  0  0  0
 53 54  2  0  0  0  0
 53 57  1  0  0  0  0
 54 55  1  0  0  0  0
 55 56  2  0  0  0  0
M  END
>  <MODEL>
       1

$$$$
