tmp_first_model_7_10.pdb
 OpenBabel08272520323D

 57 62  0  0  1  0  0  0  0  0999 V2000
  -10.3190   -0.9620  -23.4380 C   0  0  0  0  0  0  0  0  0  0  0  0
   -8.9170   -1.3290  -22.9630 C   0  0  1  0  0  0  0  0  0  0  0  0
   -8.3480   -0.4120  -21.8710 C   0  0  0  0  0  0  0  0  0  0  0  0
   -7.3480   -1.2540  -21.2320 N   0  0  0  0  0  0  0  0  0  0  0  0
   -6.5330   -0.8020  -20.1740 C   0  0  0  0  0  0  0  0  0  0  0  0
   -6.8220   -1.1110  -18.8710 C   0  0  0  0  0  0  0  0  0  0  0  0
   -6.1500   -0.5930  -17.8140 N   0  0  0  0  0  0  0  0  0  0  0  0
   -5.1510    0.2180  -18.0610 C   0  0  0  0  0  0  0  0  0  0  0  0
   -4.7040    0.5600  -19.3730 C   0  0  0  0  0  0  0  0  0  0  0  0
   -3.5880    1.4010  -19.6210 C   0  0  0  0  0  0  0  0  0  0  0  0
   -3.2100    1.6950  -20.9040 C   0  0  0  0  0  0  0  0  0  0  0  0
   -3.9170    1.1560  -22.0020 C   0  0  0  0  0  0  0  0  0  0  0  0
   -4.9900    0.3300  -21.7890 C   0  0  0  0  0  0  0  0  0  0  0  0
   -5.4160    0.0310  -20.4690 C   0  0  0  0  0  0  0  0  0  0  0  0
   -5.5240   -0.1150  -22.6220 H   0  0  0  0  0  0  0  0  0  0  0  0
   -3.6110    1.4000  -23.0170 H   0  0  0  0  0  0  0  0  0  0  0  0
   -2.3630    2.3490  -21.0900 H   0  0  0  0  0  0  0  0  0  0  0  0
   -3.0470    1.8140  -18.7750 H   0  0  0  0  0  0  0  0  0  0  0  0
   -4.6360    0.6390  -17.1960 H   0  0  0  0  0  0  0  0  0  0  0  0
   -7.6340   -1.7980  -18.6360 H   0  0  0  0  0  0  0  0  0  0  0  0
   -7.5870   -2.5950  -21.4020 C   0  0  0  0  0  0  0  0  0  0  0  0
   -6.9430   -3.4750  -20.8590 O   0  0  0  0  0  0  0  0  0  0  0  0
   -8.7800   -2.7600  -22.3500 C   0  0  1  0  0  0  0  0  0  0  0  0
   -9.9930   -3.1310  -21.4580 C   0  0  0  0  0  0  0  0  0  0  0  0
  -11.1330   -3.6720  -22.1800 N   0  0  0  0  0  0  0  0  0  0  0  0
  -12.4780   -3.6610  -21.5870 C   0  0  0  0  0  0  0  0  0  0  0  0
  -13.3800   -2.5710  -22.0610 C   0  0  0  0  0  0  0  0  0  0  0  0
  -14.0920   -1.6260  -21.4080 C   0  0  0  0  0  0  0  0  0  0  0  0
  -14.8560   -0.9550  -22.3390 N   0  3  0  0  0  0  0  0  0  0  0  0
  -14.6000   -1.4770  -23.5470 C   0  0  0  0  0  0  0  0  0  0  0  0
  -13.7010   -2.4610  -23.3990 N   0  0  0  0  0  0  0  0  0  0  0  0
  -13.3330   -3.0830  -24.1130 H   0  0  0  0  0  0  0  0  0  0  0  0
  -15.0430   -1.1790  -24.4800 H   0  0  0  0  0  0  0  0  0  0  0  0
  -15.4790   -0.1870  -22.1080 H   0  0  0  0  0  0  0  0  0  0  0  0
  -14.1090   -1.3570  -20.3700 H   0  0  0  0  0  0  0  0  0  0  0  0
  -12.9330   -4.6050  -21.8860 H   0  0  0  0  0  0  0  0  0  0  0  0
  -12.4550   -3.6600  -20.5010 H   0  0  0  0  0  0  0  0  0  0  0  0
  -10.9340   -4.5640  -23.1930 C   0  0  0  0  0  0  0  0  0  0  0  0
  -11.8540   -5.2490  -23.6080 O   0  0  0  0  0  0  0  0  0  0  0  0
   -9.5690   -4.6710  -23.7890 C   0  0  0  0  0  0  0  0  0  0  0  0
   -9.3650   -5.6530  -24.7590 C   0  0  0  0  0  0  0  0  0  0  0  0
   -8.1210   -5.8360  -25.3290 C   0  0  0  0  0  0  0  0  0  0  0  0
   -7.0880   -5.0130  -24.9010 C   0  0  0  0  0  0  0  0  0  0  0  0
   -5.8810   -5.1810  -25.4620 F   0  0  0  0  0  0  0  0  0  0  0  0
   -7.2600   -4.0380  -23.9390 C   0  0  0  0  0  0  0  0  0  0  0  0
   -8.5270   -3.8450  -23.3690 C   0  0  0  0  0  0  0  0  0  0  0  0
   -6.3980   -3.4530  -23.6400 H   0  0  0  0  0  0  0  0  0  0  0  0
   -7.9290   -6.5890  -26.0860 H   0  0  0  0  0  0  0  0  0  0  0  0
  -10.2110   -6.2730  -25.0350 H   0  0  0  0  0  0  0  0  0  0  0  0
   -9.6260   -3.8570  -20.7280 H   0  0  0  0  0  0  0  0  0  0  0  0
  -10.3450   -2.2480  -20.9160 H   0  0  0  0  0  0  0  0  0  0  0  0
   -7.8830    0.4920  -22.2710 H   0  0  0  0  0  0  0  0  0  0  0  0
   -9.1230   -0.1090  -21.1470 H   0  0  0  0  0  0  0  0  0  0  0  0
   -8.2300   -1.2990  -23.8220 H   0  0  0  0  0  0  0  0  0  0  0  0
  -11.0520   -1.0140  -22.6230 H   0  0  0  0  0  0  0  0  0  0  0  0
  -10.6450   -1.6630  -24.2140 H   0  0  0  0  0  0  0  0  0  0  0  0
  -10.3410    0.0520  -23.8500 H   0  0  0  0  0  0  0  0  0  0  0  0
  1  2  1  0  0  0  0
  1 55  1  0  0  0  0
  1 56  1  0  0  0  0
  1 57  1  0  0  0  0
  2  3  1  0  0  0  0
  2 23  1  0  0  0  0
  2 54  1  6  0  0  0
  3  4  1  0  0  0  0
  3 52  1  0  0  0  0
  3 53  1  0  0  0  0
  4  5  1  0  0  0  0
  4 21  1  0  0  0  0
  5  6  2  0  0  0  0
  5 14  1  0  0  0  0
  6  7  1  0  0  0  0
  6 20  1  0  0  0  0
  7  8  2  0  0  0  0
  8  9  1  0  0  0  0
  8 19  1  0  0  0  0
  9 10  2  0  0  0  0
  9 14  1  0  0  0  0
 10 11  1  0  0  0  0
 10 18  1  0  0  0  0
 11 12  2  0  0  0  0
 11 17  1  0  0  0  0
 12 13  1  0  0  0  0
 12 16  1  0  0  0  0
 13 14  2  0  0  0  0
 13 15  1  0  0  0  0
 21 22  2  0  0  0  0
 23 21  1  1  0  0  0
 23 24  1  0  0  0  0
 23 46  1  0  0  0  0
 24 25  1  0  0  0  0
 24 50  1  0  0  0  0
 24 51  1  0  0  0  0
 25 26  1  0  0  0  0
 25 38  1  0  0  0  0
 26 27  1  0  0  0  0
 26 36  1  0  0  0  0
 26 37  1  0  0  0  0
 27 28  2  0  0  0  0
 27 31  1  0  0  0  0
 28 29  1  0  0  0  0
 28 35  1  0  0  0  0
 29 30  2  0  0  0  0
 29 34  1  0  0  0  0
 30 31  1  0  0  0  0
 30 33  1  0  0  0  0
 31 32  1  0  0  0  0
 38 39  2  0  0  0  0
 38 40  1  0  0  0  0
 40 41  2  0  0  0  0
 40 46  1  0  0  0  0
 41 42  1  0  0  0  0
 41 49  1  0  0  0  0
 42 43  2  0  0  0  0
 42 48  1  0  0  0  0
 43 44  1  0  0  0  0
 43 45  1  0  0  0  0
 45 46  2  0  0  0  0
 45 47  1  0  0  0  0
M  CHG  1  29   1
M  END
>  <MODEL>
       1

$$$$
