tmp_first_model_18_21.pdb
 OpenBabel08282502533D

 63 68  0  0  1  0  0  0  0  0999 V2000
  -10.2930   -2.7450  -22.1870 C   0  0  0  0  0  0  0  0  0  0  0  0
   -9.0940   -1.9410  -22.7020 C   0  0  1  0  0  0  0  0  0  0  0  0
   -8.6070   -0.9380  -21.6360 C   0  0  0  0  0  0  0  0  0  0  0  0
   -7.3510   -1.4820  -21.1810 N   0  0  0  0  0  0  0  0  0  0  0  0
   -6.5730   -0.8660  -20.1770 C   0  0  0  0  0  0  0  0  0  0  0  0
   -6.9150   -1.0570  -18.8640 C   0  0  0  0  0  0  0  0  0  0  0  0
   -6.2410   -0.5380  -17.8110 N   0  0  0  0  0  0  0  0  0  0  0  0
   -5.2020    0.2140  -18.0890 C   0  0  0  0  0  0  0  0  0  0  0  0
   -4.7560    0.5100  -19.4100 C   0  0  0  0  0  0  0  0  0  0  0  0
   -3.6380    1.3520  -19.6350 C   0  0  0  0  0  0  0  0  0  0  0  0
   -3.2450    1.6530  -20.9080 C   0  0  0  0  0  0  0  0  0  0  0  0
   -3.9500    1.1270  -22.0150 C   0  0  0  0  0  0  0  0  0  0  0  0
   -5.0320    0.2980  -21.8310 C   0  0  0  0  0  0  0  0  0  0  0  0
   -5.4580   -0.0340  -20.5070 C   0  0  0  0  0  0  0  0  0  0  0  0
   -5.5580   -0.0970  -22.7020 H   0  0  0  0  0  0  0  0  0  0  0  0
   -3.6300    1.3890  -23.0190 H   0  0  0  0  0  0  0  0  0  0  0  0
   -2.3970    2.3100  -21.0770 H   0  0  0  0  0  0  0  0  0  0  0  0
   -3.1220    1.7570  -18.7690 H   0  0  0  0  0  0  0  0  0  0  0  0
   -4.6530    0.6380  -17.2490 H   0  0  0  0  0  0  0  0  0  0  0  0
   -7.7740   -1.6850  -18.6300 H   0  0  0  0  0  0  0  0  0  0  0  0
   -6.8550   -2.5250  -21.9250 C   0  0  0  0  0  0  0  0  0  0  0  0
   -5.8250   -3.1120  -21.6770 O   0  0  0  0  0  0  0  0  0  0  0  0
   -7.8310   -2.7820  -23.0900 C   0  0  1  0  0  0  0  0  0  0  0  0
   -8.1380   -4.2900  -23.2030 C   0  0  0  0  0  0  0  0  0  0  0  0
   -7.0210   -5.0430  -23.7490 N   0  0  0  0  0  0  0  0  0  0  0  0
   -6.6810   -6.3290  -23.1690 C   0  0  0  0  0  0  0  0  0  0  0  0
   -7.7320   -7.3870  -23.4960 C   0  0  0  0  0  0  0  0  0  0  0  0
   -8.4390   -7.8970  -22.6430 O   0  0  0  0  0  0  0  0  0  0  0  0
   -7.8440   -7.6570  -24.8360 N   0  0  0  0  0  0  0  0  0  0  0  0
   -9.1560   -7.9810  -25.3730 C   0  0  0  0  0  0  0  0  0  0  0  0
  -10.0010   -6.7530  -25.6430 C   0  0  0  0  0  0  0  0  0  0  0  0
   -9.8680   -5.9030  -26.8750 C   0  0  0  0  0  0  0  0  0  0  0  0
  -11.0560   -6.8060  -26.6960 C   0  0  0  0  0  0  0  0  0  0  0  0
  -12.0410   -6.3770  -26.5100 H   0  0  0  0  0  0  0  0  0  0  0  0
  -11.0580   -7.7180  -27.2810 H   0  0  0  0  0  0  0  0  0  0  0  0
  -10.0720   -4.8390  -26.7750 H   0  0  0  0  0  0  0  0  0  0  0  0
   -9.1510   -6.1440  -27.6550 H   0  0  0  0  0  0  0  0  0  0  0  0
  -10.2320   -6.1710  -24.7460 H   0  0  0  0  0  0  0  0  0  0  0  0
   -9.0360   -8.5630  -26.2920 H   0  0  0  0  0  0  0  0  0  0  0  0
   -9.6590   -8.6290  -24.6510 H   0  0  0  0  0  0  0  0  0  0  0  0
   -7.2210   -7.1600  -25.4590 H   0  0  0  0  0  0  0  0  0  0  0  0
   -6.6000   -6.2110  -22.0880 H   0  0  0  0  0  0  0  0  0  0  0  0
   -5.7140   -6.6220  -23.5860 H   0  0  0  0  0  0  0  0  0  0  0  0
   -6.3830   -4.6540  -24.8860 C   0  0  0  0  0  0  0  0  0  0  0  0
   -5.7080   -5.4370  -25.5520 O   0  0  0  0  0  0  0  0  0  0  0  0
   -6.5330   -3.2150  -25.2490 C   0  0  0  0  0  0  0  0  0  0  0  0
   -5.9500   -2.7960  -26.4420 C   0  0  0  0  0  0  0  0  0  0  0  0
   -6.0110   -1.4750  -26.8290 C   0  0  0  0  0  0  0  0  0  0  0  0
   -6.6570   -0.5870  -25.9790 C   0  0  0  0  0  0  0  0  0  0  0  0
   -6.7290    0.7030  -26.3510 F   0  0  0  0  0  0  0  0  0  0  0  0
   -7.2390   -0.9740  -24.7850 C   0  0  0  0  0  0  0  0  0  0  0  0
   -7.2040   -2.3210  -24.4040 C   0  0  0  0  0  0  0  0  0  0  0  0
   -7.7340   -0.2160  -24.1860 H   0  0  0  0  0  0  0  0  0  0  0  0
   -5.5720   -1.1230  -27.7550 H   0  0  0  0  0  0  0  0  0  0  0  0
   -5.4480   -3.5460  -27.0400 H   0  0  0  0  0  0  0  0  0  0  0  0
   -9.0310   -4.4020  -23.8340 H   0  0  0  0  0  0  0  0  0  0  0  0
   -8.3760   -4.7080  -22.2260 H   0  0  0  0  0  0  0  0  0  0  0  0
   -9.3010   -0.8540  -20.7970 H   0  0  0  0  0  0  0  0  0  0  0  0
   -8.4800    0.0770  -22.0390 H   0  0  0  0  0  0  0  0  0  0  0  0
   -9.4410   -1.4100  -23.5950 H   0  0  0  0  0  0  0  0  0  0  0  0
  -10.0360   -3.3370  -21.3030 H   0  0  0  0  0  0  0  0  0  0  0  0
  -11.1090   -2.0690  -21.9140 H   0  0  0  0  0  0  0  0  0  0  0  0
  -10.6790   -3.4200  -22.9550 H   0  0  0  0  0  0  0  0  0  0  0  0
  1  2  1  0  0  0  0
  1 61  1  0  0  0  0
  1 62  1  0  0  0  0
  1 63  1  0  0  0  0
  2  3  1  0  0  0  0
  2 23  1  0  0  0  0
  2 60  1  6  0  0  0
  3  4  1  0  0  0  0
  3 58  1  0  0  0  0
  3 59  1  0  0  0  0
  4  5  1  0  0  0  0
  4 21  1  0  0  0  0
  5  6  2  0  0  0  0
  5 14  1  0  0  0  0
  6  7  1  0  0  0  0
  6 20  1  0  0  0  0
  7  8  2  0  0  0  0
  8  9  1  0  0  0  0
  8 19  1  0  0  0  0
  9 10  2  0  0  0  0
  9 14  1  0  0  0  0
 10 11  1  0  0  0  0
 10 18  1  0  0  0  0
 11 12  2  0  0  0  0
 11 17  1  0  0  0  0
 12 13  1  0  0  0  0
 12 16  1  0  0  0  0
 13 14  2  0  0  0  0
 13 15  1  0  0  0  0
 21 22  2  0  0  0  0
 23 21  1  1  0  0  0
 23 24  1  0  0  0  0
 23 52  1  0  0  0  0
 24 25  1  0  0  0  0
 24 56  1  0  0  0  0
 24 57  1  0  0  0  0
 25 26  1  0  0  0  0
 25 44  1  0  0  0  0
 26 27  1  0  0  0  0
 26 42  1  0  0  0  0
 26 43  1  0  0  0  0
 27 28  2  0  0  0  0
 27 29  1  0  0  0  0
 29 30  1  0  0  0  0
 29 41  1  0  0  0  0
 30 31  1  0  0  0  0
 30 39  1  0  0  0  0
 30 40  1  0  0  0  0
 31 32  1  0  0  0  0
 31 33  1  0  0  0  0
 31 38  1  0  0  0  0
 32 33  1  0  0  0  0
 32 36  1  0  0  0  0
 32 37  1  0  0  0  0
 33 34  1  0  0  0  0
 33 35  1  0  0  0  0
 44 45  2  0  0  0  0
 44 46  1  0  0  0  0
 46 47  2  0  0  0  0
 46 52  1  0  0  0  0
 47 48  1  0  0  0  0
 47 55  1  0  0  0  0
 48 49  2  0  0  0  0
 48 54  1  0  0  0  0
 49 50  1  0  0  0  0
 49 51  1  0  0  0  0
 51 52  2  0  0  0  0
 51 53  1  0  0  0  0
M  END
>  <MODEL>
       1

$$$$
