tmp_first_model_16_84.pdb
 OpenBabel08282501503D

 63 68  0  0  1  0  0  0  0  0999 V2000
   -8.2030   -3.7930  -23.9210 C   0  0  0  0  0  0  0  0  0  0  0  0
   -8.3840   -3.0430  -22.6080 C   0  0  1  0  0  0  0  0  0  0  0  0
   -7.0520   -2.4770  -22.0780 C   0  0  0  0  0  0  0  0  0  0  0  0
   -7.4740   -1.3640  -21.2600 N   0  0  0  0  0  0  0  0  0  0  0  0
   -6.6650   -0.8700  -20.2080 C   0  0  0  0  0  0  0  0  0  0  0  0
   -6.9560   -1.1770  -18.9000 C   0  0  0  0  0  0  0  0  0  0  0  0
   -6.1520   -0.8660  -17.8570 N   0  0  0  0  0  0  0  0  0  0  0  0
   -5.0700   -0.1690  -18.1080 C   0  0  0  0  0  0  0  0  0  0  0  0
   -4.6970    0.2860  -19.4050 C   0  0  0  0  0  0  0  0  0  0  0  0
   -3.6020    1.1650  -19.6100 C   0  0  0  0  0  0  0  0  0  0  0  0
   -3.2720    1.5800  -20.8730 C   0  0  0  0  0  0  0  0  0  0  0  0
   -4.0000    1.1080  -21.9840 C   0  0  0  0  0  0  0  0  0  0  0  0
   -5.0810    0.2700  -21.8070 C   0  0  0  0  0  0  0  0  0  0  0  0
   -5.4810   -0.1250  -20.5020 C   0  0  0  0  0  0  0  0  0  0  0  0
   -5.7020    0.0030  -22.6560 H   0  0  0  0  0  0  0  0  0  0  0  0
   -3.7310    1.4440  -22.9810 H   0  0  0  0  0  0  0  0  0  0  0  0
   -2.4580    2.2840  -21.0220 H   0  0  0  0  0  0  0  0  0  0  0  0
   -3.0740    1.5220  -18.7340 H   0  0  0  0  0  0  0  0  0  0  0  0
   -4.4300    0.0760  -17.2610 H   0  0  0  0  0  0  0  0  0  0  0  0
   -7.8560   -1.7320  -18.6440 H   0  0  0  0  0  0  0  0  0  0  0  0
   -8.7580   -0.9350  -21.5170 C   0  0  0  0  0  0  0  0  0  0  0  0
   -9.2910    0.0120  -20.9730 O   0  0  0  0  0  0  0  0  0  0  0  0
   -9.3670   -1.8350  -22.6380 C   0  0  1  0  0  0  0  0  0  0  0  0
   -9.2830   -1.0550  -23.9830 C   0  0  0  0  0  0  0  0  0  0  0  0
  -10.1740    0.0930  -24.0050 N   0  0  0  0  0  0  0  0  0  0  0  0
   -9.7200    1.3450  -24.5980 C   0  0  0  0  0  0  0  0  0  0  0  0
   -8.4050    1.7530  -23.9220 C   0  0  0  0  0  0  0  0  0  0  0  0
   -7.3110    1.4840  -24.4040 O   0  0  0  0  0  0  0  0  0  0  0  0
   -8.5720    2.3650  -22.7180 N   0  0  0  0  0  0  0  0  0  0  0  0
   -7.4690    2.6970  -21.8490 C   0  0  0  0  0  0  0  0  0  0  0  0
   -7.1210    4.1750  -21.8590 C   0  0  0  0  0  0  0  0  0  0  0  0
   -8.2120    4.9830  -22.0790 F   0  0  0  0  0  0  0  0  0  0  0  0
   -5.8470    4.6440  -22.4920 C   0  0  0  0  0  0  0  0  0  0  0  0
   -6.0670    4.7790  -20.9950 C   0  0  0  0  0  0  0  0  0  0  0  0
   -5.4990    4.1530  -20.3040 H   0  0  0  0  0  0  0  0  0  0  0  0
   -6.2840    5.7840  -20.6350 H   0  0  0  0  0  0  0  0  0  0  0  0
   -5.1590    3.8750  -22.8430 H   0  0  0  0  0  0  0  0  0  0  0  0
   -5.9000    5.5320  -23.1170 H   0  0  0  0  0  0  0  0  0  0  0  0
   -7.6910    2.2970  -20.8560 H   0  0  0  0  0  0  0  0  0  0  0  0
   -6.6120    2.1450  -22.2290 H   0  0  0  0  0  0  0  0  0  0  0  0
   -9.5000    2.4270  -22.3180 H   0  0  0  0  0  0  0  0  0  0  0  0
   -9.5930    1.2550  -25.6870 H   0  0  0  0  0  0  0  0  0  0  0  0
  -10.5090    2.0860  -24.4270 H   0  0  0  0  0  0  0  0  0  0  0  0
  -11.4650    0.0020  -23.5820 C   0  0  0  0  0  0  0  0  0  0  0  0
  -12.2820    0.8880  -23.7880 O   0  0  0  0  0  0  0  0  0  0  0  0
  -11.8220   -1.2430  -22.8290 C   0  0  0  0  0  0  0  0  0  0  0  0
  -13.1740   -1.4230  -22.5360 C   0  0  0  0  0  0  0  0  0  0  0  0
  -13.5700   -2.4160  -21.6740 C   0  0  0  0  0  0  0  0  0  0  0  0
  -12.5930   -3.2600  -21.1740 C   0  0  0  0  0  0  0  0  0  0  0  0
  -12.9630   -4.0820  -20.1800 F   0  0  0  0  0  0  0  0  0  0  0  0
  -11.2710   -3.2260  -21.5950 C   0  0  0  0  0  0  0  0  0  0  0  0
  -10.8420   -2.1510  -22.3900 C   0  0  0  0  0  0  0  0  0  0  0  0
  -10.5810   -3.9830  -21.2310 H   0  0  0  0  0  0  0  0  0  0  0  0
  -14.5940   -2.5500  -21.3410 H   0  0  0  0  0  0  0  0  0  0  0  0
  -13.9040   -0.7410  -22.9520 H   0  0  0  0  0  0  0  0  0  0  0  0
   -9.5620   -1.7150  -24.8130 H   0  0  0  0  0  0  0  0  0  0  0  0
   -8.2610   -0.6950  -24.1390 H   0  0  0  0  0  0  0  0  0  0  0  0
   -6.3980   -2.1560  -22.9060 H   0  0  0  0  0  0  0  0  0  0  0  0
   -6.4850   -3.2010  -21.4800 H   0  0  0  0  0  0  0  0  0  0  0  0
   -8.7440   -3.7400  -21.8440 H   0  0  0  0  0  0  0  0  0  0  0  0
   -7.7550   -3.1360  -24.6760 H   0  0  0  0  0  0  0  0  0  0  0  0
   -7.5310   -4.6490  -23.7990 H   0  0  0  0  0  0  0  0  0  0  0  0
   -9.1610   -4.1520  -24.3130 H   0  0  0  0  0  0  0  0  0  0  0  0
  1  2  1  0  0  0  0
  1 61  1  0  0  0  0
  1 62  1  0  0  0  0
  1 63  1  0  0  0  0
  2  3  1  0  0  0  0
  2 23  1  0  0  0  0
  2 60  1  1  0  0  0
  3  4  1  0  0  0  0
  3 58  1  0  0  0  0
  3 59  1  0  0  0  0
  4  5  1  0  0  0  0
  4 21  1  0  0  0  0
  5  6  2  0  0  0  0
  5 14  1  0  0  0  0
  6  7  1  0  0  0  0
  6 20  1  0  0  0  0
  7  8  2  0  0  0  0
  8  9  1  0  0  0  0
  8 19  1  0  0  0  0
  9 10  2  0  0  0  0
  9 14  1  0  0  0  0
 10 11  1  0  0  0  0
 10 18  1  0  0  0  0
 11 12  2  0  0  0  0
 11 17  1  0  0  0  0
 12 13  1  0  0  0  0
 12 16  1  0  0  0  0
 13 14  2  0  0  0  0
 13 15  1  0  0  0  0
 21 22  2  0  0  0  0
 23 21  1  1  0  0  0
 23 24  1  0  0  0  0
 23 52  1  0  0  0  0
 24 25  1  0  0  0  0
 24 56  1  0  0  0  0
 24 57  1  0  0  0  0
 25 26  1  0  0  0  0
 25 44  1  0  0  0  0
 26 27  1  0  0  0  0
 26 42  1  0  0  0  0
 26 43  1  0  0  0  0
 27 28  2  0  0  0  0
 27 29  1  0  0  0  0
 29 30  1  0  0  0  0
 29 41  1  0  0  0  0
 30 31  1  0  0  0  0
 30 39  1  0  0  0  0
 30 40  1  0  0  0  0
 31 32  1  0  0  0  0
 31 33  1  0  0  0  0
 31 34  1  0  0  0  0
 33 34  1  0  0  0  0
 33 37  1  0  0  0  0
 33 38  1  0  0  0  0
 34 35  1  0  0  0  0
 34 36  1  0  0  0  0
 44 45  2  0  0  0  0
 44 46  1  0  0  0  0
 46 47  2  0  0  0  0
 46 52  1  0  0  0  0
 47 48  1  0  0  0  0
 47 55  1  0  0  0  0
 48 49  2  0  0  0  0
 48 54  1  0  0  0  0
 49 50  1  0  0  0  0
 49 51  1  0  0  0  0
 51 52  2  0  0  0  0
 51 53  1  0  0  0  0
M  END
>  <MODEL>
       1

$$$$
