tmp_first_model_2_73.pdb
 OpenBabel08272517383D

 50 53  0  0  1  0  0  0  0  0999 V2000
   -5.6880   -3.1640  -21.4360 O   0  0  0  0  0  0  0  0  0  0  0  0
   -6.6980   -2.7030  -21.9400 C   0  0  0  0  0  0  0  0  0  0  0  0
   -7.4080   -1.4870  -21.2730 C   0  0  0  0  0  0  0  0  0  0  0  0
   -6.5780   -0.8380  -20.1840 C   0  0  0  0  0  0  0  0  0  0  0  0
   -6.8730   -1.0480  -18.8630 C   0  0  0  0  0  0  0  0  0  0  0  0
   -6.1930   -0.5410  -17.7980 N   0  0  0  0  0  0  0  0  0  0  0  0
   -5.1600    0.2230  -18.0640 C   0  0  0  0  0  0  0  0  0  0  0  0
   -4.7230    0.5280  -19.3800 C   0  0  0  0  0  0  0  0  0  0  0  0
   -3.5940    1.3550  -19.6220 C   0  0  0  0  0  0  0  0  0  0  0  0
   -3.1910    1.6330  -20.9010 C   0  0  0  0  0  0  0  0  0  0  0  0
   -3.9030    1.0910  -21.9940 C   0  0  0  0  0  0  0  0  0  0  0  0
   -5.0000    0.2890  -21.7850 C   0  0  0  0  0  0  0  0  0  0  0  0
   -5.4460   -0.0160  -20.4730 C   0  0  0  0  0  0  0  0  0  0  0  0
   -5.5390   -0.1080  -22.6410 H   0  0  0  0  0  0  0  0  0  0  0  0
   -3.5820    1.3160  -23.0060 H   0  0  0  0  0  0  0  0  0  0  0  0
   -2.3300    2.2710  -21.0860 H   0  0  0  0  0  0  0  0  0  0  0  0
   -3.0610    1.7700  -18.7700 H   0  0  0  0  0  0  0  0  0  0  0  0
   -4.6060    0.6280  -17.2140 H   0  0  0  0  0  0  0  0  0  0  0  0
   -7.7190   -1.6720  -18.5820 H   0  0  0  0  0  0  0  0  0  0  0  0
   -7.6920   -0.7390  -22.0280 H   0  0  0  0  0  0  0  0  0  0  0  0
   -8.3520   -1.8290  -20.8250 H   0  0  0  0  0  0  0  0  0  0  0  0
   -7.1990   -3.2130  -23.1270 N   0  0  0  0  0  0  0  0  0  0  0  0
   -8.5690   -2.9640  -23.5700 C   0  0  0  0  0  0  0  0  0  0  0  0
   -9.1350   -4.1300  -24.3680 C   0  0  0  0  0  0  0  0  0  0  0  0
   -8.2260   -4.4820  -25.5310 C   0  0  0  0  0  0  0  0  0  0  0  0
   -6.8580   -4.8720  -24.9810 C   0  0  0  0  0  0  0  0  0  0  0  0
   -6.2160   -3.8510  -24.0280 C   0  0  1  0  0  0  0  0  0  0  0  0
   -5.3020   -2.8310  -24.7640 C   0  0  0  0  0  0  0  0  0  0  0  0
   -5.9410   -2.0360  -25.8770 C   0  0  0  0  0  0  0  0  0  0  0  0
   -6.6590   -0.8700  -25.6040 C   0  0  0  0  0  0  0  0  0  0  0  0
   -7.2830   -0.1470  -26.6160 C   0  0  0  0  0  0  0  0  0  0  0  0
   -7.1890   -0.5770  -27.9350 C   0  0  0  0  0  0  0  0  0  0  0  0
   -6.4730   -1.7340  -28.2260 C   0  0  0  0  0  0  0  0  0  0  0  0
   -5.8530   -2.4520  -27.2080 C   0  0  0  0  0  0  0  0  0  0  0  0
   -5.2980   -3.3550  -27.4500 H   0  0  0  0  0  0  0  0  0  0  0  0
   -6.3850   -2.0740  -29.2530 H   0  0  0  0  0  0  0  0  0  0  0  0
   -7.6640   -0.0100  -28.7300 H   0  0  0  0  0  0  0  0  0  0  0  0
   -7.8310    0.7580  -26.3740 H   0  0  0  0  0  0  0  0  0  0  0  0
   -6.7410   -0.5200  -24.5790 H   0  0  0  0  0  0  0  0  0  0  0  0
   -4.4470   -3.3830  -25.1760 H   0  0  0  0  0  0  0  0  0  0  0  0
   -4.8810   -2.1580  -24.0080 H   0  0  0  0  0  0  0  0  0  0  0  0
   -5.5470   -4.3960  -23.3570 H   0  0  0  0  0  0  0  0  0  0  0  0
   -6.1680   -5.0760  -25.8060 H   0  0  0  0  0  0  0  0  0  0  0  0
   -6.9650   -5.8220  -24.4490 H   0  0  0  0  0  0  0  0  0  0  0  0
   -8.1430   -3.6300  -26.2150 H   0  0  0  0  0  0  0  0  0  0  0  0
   -8.6500   -5.3110  -26.1130 H   0  0  0  0  0  0  0  0  0  0  0  0
  -10.1370   -3.8710  -24.7190 H   0  0  0  0  0  0  0  0  0  0  0  0
   -9.2520   -4.9980  -23.7130 H   0  0  0  0  0  0  0  0  0  0  0  0
   -9.1850   -2.7950  -22.6870 H   0  0  0  0  0  0  0  0  0  0  0  0
   -8.6400   -2.0570  -24.1860 H   0  0  0  0  0  0  0  0  0  0  0  0
  1  2  2  0  0  0  0
  2  3  1  0  0  0  0
  2 22  1  0  0  0  0
  3  4  1  0  0  0  0
  3 20  1  0  0  0  0
  3 21  1  0  0  0  0
  4  5  2  0  0  0  0
  4 13  1  0  0  0  0
  5  6  1  0  0  0  0
  5 19  1  0  0  0  0
  6  7  2  0  0  0  0
  7  8  1  0  0  0  0
  7 18  1  0  0  0  0
  8  9  2  0  0  0  0
  8 13  1  0  0  0  0
  9 10  1  0  0  0  0
  9 17  1  0  0  0  0
 10 11  2  0  0  0  0
 10 16  1  0  0  0  0
 11 12  1  0  0  0  0
 11 15  1  0  0  0  0
 12 13  2  0  0  0  0
 12 14  1  0  0  0  0
 22 23  1  0  0  0  0
 22 27  1  0  0  0  0
 23 24  1  0  0  0  0
 23 49  1  0  0  0  0
 23 50  1  0  0  0  0
 24 25  1  0  0  0  0
 24 47  1  0  0  0  0
 24 48  1  0  0  0  0
 25 26  1  0  0  0  0
 25 45  1  0  0  0  0
 25 46  1  0  0  0  0
 26 27  1  0  0  0  0
 26 43  1  0  0  0  0
 26 44  1  0  0  0  0
 27 28  1  0  0  0  0
 27 42  1  1  0  0  0
 28 29  1  0  0  0  0
 28 40  1  0  0  0  0
 28 41  1  0  0  0  0
 29 30  2  0  0  0  0
 29 34  1  0  0  0  0
 30 31  1  0  0  0  0
 30 39  1  0  0  0  0
 31 32  2  0  0  0  0
 31 38  1  0  0  0  0
 32 33  1  0  0  0  0
 32 37  1  0  0  0  0
 33 34  2  0  0  0  0
 33 36  1  0  0  0  0
 34 35  1  0  0  0  0
M  END
>  <MODEL>
       1

$$$$
