tmp_first_model_2_14.pdb
 OpenBabel08272517383D

 73 78  0  0  1  0  0  0  0  0999 V2000
   -7.9430   -3.7510  -24.0050 C   0  0  0  0  0  0  0  0  0  0  0  0
   -8.2980   -2.8750  -22.7990 C   0  0  1  0  0  0  0  0  0  0  0  0
   -7.1010   -2.6540  -21.8490 C   0  0  0  0  0  0  0  0  0  0  0  0
   -7.4060   -1.3940  -21.1980 N   0  0  0  0  0  0  0  0  0  0  0  0
   -6.6040   -0.8130  -20.1750 C   0  0  0  0  0  0  0  0  0  0  0  0
   -6.9020   -1.0500  -18.8580 C   0  0  0  0  0  0  0  0  0  0  0  0
   -6.2000   -0.5510  -17.8090 N   0  0  0  0  0  0  0  0  0  0  0  0
   -5.1690    0.2140  -18.0780 C   0  0  0  0  0  0  0  0  0  0  0  0
   -4.7370    0.5390  -19.3960 C   0  0  0  0  0  0  0  0  0  0  0  0
   -3.6100    1.3730  -19.6400 C   0  0  0  0  0  0  0  0  0  0  0  0
   -3.2200    1.6620  -20.9200 C   0  0  0  0  0  0  0  0  0  0  0  0
   -3.9350    1.1280  -22.0150 C   0  0  0  0  0  0  0  0  0  0  0  0
   -5.0300    0.3230  -21.8030 C   0  0  0  0  0  0  0  0  0  0  0  0
   -5.4700    0.0080  -20.4860 C   0  0  0  0  0  0  0  0  0  0  0  0
   -5.5640   -0.0860  -22.6540 H   0  0  0  0  0  0  0  0  0  0  0  0
   -3.6340    1.3760  -23.0300 H   0  0  0  0  0  0  0  0  0  0  0  0
   -2.3660    2.3100  -21.0990 H   0  0  0  0  0  0  0  0  0  0  0  0
   -3.0790    1.7820  -18.7850 H   0  0  0  0  0  0  0  0  0  0  0  0
   -4.6180    0.6190  -17.2280 H   0  0  0  0  0  0  0  0  0  0  0  0
   -7.7530   -1.6750  -18.5980 H   0  0  0  0  0  0  0  0  0  0  0  0
   -8.3900   -0.6650  -21.8320 C   0  0  0  0  0  0  0  0  0  0  0  0
   -8.8020    0.4050  -21.4380 O   0  0  0  0  0  0  0  0  0  0  0  0
   -8.8400   -1.4420  -23.1000 C   0  0  1  0  0  0  0  0  0  0  0  0
   -8.1530   -0.8420  -24.3590 C   0  0  0  0  0  0  0  0  0  0  0  0
   -8.5970    0.5090  -24.6280 N   0  0  0  0  0  0  0  0  0  0  0  0
   -7.6370    1.5720  -24.8910 C   0  0  0  0  0  0  0  0  0  0  0  0
   -7.5120    2.5190  -23.6950 C   0  0  0  0  0  0  0  0  0  0  0  0
   -6.4220    3.5570  -23.8580 N   0  3  0  0  0  0  0  0  0  0  0  0
   -6.7550    4.6780  -24.8360 C   0  0  0  0  0  0  0  0  0  0  0  0
   -7.7590    5.6770  -24.2570 C   0  0  0  0  0  0  0  0  0  0  0  0
   -7.3580    6.1560  -22.9350 N   0  0  0  0  0  0  0  0  0  0  0  0
   -6.5510    7.6000  -22.8280 S   0  0  0  0  0  0  0  0  0  0  0  0
   -6.0370    7.6830  -21.4750 O   0  0  0  0  0  0  0  0  0  0  0  0
   -7.4120    8.6230  -23.3940 O   0  0  0  0  0  0  0  0  0  0  0  0
   -5.1460    7.5260  -23.9310 C   0  0  0  0  0  0  0  0  0  0  0  0
   -5.5130    7.5010  -24.9620 H   0  0  0  0  0  0  0  0  0  0  0  0
   -4.5140    6.6700  -23.6910 H   0  0  0  0  0  0  0  0  0  0  0  0
   -4.6070    8.4630  -23.7600 H   0  0  0  0  0  0  0  0  0  0  0  0
   -7.0460    5.0940  -21.9740 C   0  0  0  0  0  0  0  0  0  0  0  0
   -5.9870    4.1520  -22.5330 C   0  0  0  0  0  0  0  0  0  0  0  0
   -5.0610    4.7050  -22.7080 H   0  0  0  0  0  0  0  0  0  0  0  0
   -5.7760    3.3330  -21.8410 H   0  0  0  0  0  0  0  0  0  0  0  0
   -7.9780    4.5490  -21.7880 H   0  0  0  0  0  0  0  0  0  0  0  0
   -6.7240    5.5560  -21.0420 H   0  0  0  0  0  0  0  0  0  0  0  0
   -8.7370    5.2020  -24.1360 H   0  0  0  0  0  0  0  0  0  0  0  0
   -7.8920    6.5370  -24.9170 H   0  0  0  0  0  0  0  0  0  0  0  0
   -7.1490    4.2440  -25.7530 H   0  0  0  0  0  0  0  0  0  0  0  0
   -5.8190    5.1870  -25.0790 H   0  0  0  0  0  0  0  0  0  0  0  0
   -5.5900    3.0570  -24.2250 H   0  0  0  0  0  0  0  0  0  0  0  0
   -7.2840    1.9440  -22.7930 H   0  0  0  0  0  0  0  0  0  0  0  0
   -8.4700    3.0200  -23.5420 H   0  0  0  0  0  0  0  0  0  0  0  0
   -6.6640    1.1120  -25.0950 H   0  0  0  0  0  0  0  0  0  0  0  0
   -7.9550    2.1140  -25.7860 H   0  0  0  0  0  0  0  0  0  0  0  0
   -9.9310    0.7960  -24.6760 C   0  0  0  0  0  0  0  0  0  0  0  0
  -10.3670    1.8300  -25.1690 O   0  0  0  0  0  0  0  0  0  0  0  0
  -10.8490   -0.2280  -24.0550 C   0  0  0  0  0  0  0  0  0  0  0  0
  -12.2270   -0.0510  -24.1950 C   0  0  0  0  0  0  0  0  0  0  0  0
  -13.1170   -0.9010  -23.5690 C   0  0  0  0  0  0  0  0  0  0  0  0
  -12.6120   -1.9190  -22.7620 C   0  0  0  0  0  0  0  0  0  0  0  0
  -13.7270   -2.9500  -21.9130 Cl  0  0  0  0  0  0  0  0  0  0  0  0
  -11.2510   -2.1130  -22.6070 C   0  0  0  0  0  0  0  0  0  0  0  0
  -10.3420   -1.2930  -23.2890 C   0  0  0  0  0  0  0  0  0  0  0  0
  -10.9190   -2.8900  -21.9270 H   0  0  0  0  0  0  0  0  0  0  0  0
  -14.1890   -0.7720  -23.6730 H   0  0  0  0  0  0  0  0  0  0  0  0
  -12.5800    0.7860  -24.7850 H   0  0  0  0  0  0  0  0  0  0  0  0
   -8.3790   -1.4910  -25.2210 H   0  0  0  0  0  0  0  0  0  0  0  0
   -7.0670   -0.8210  -24.2130 H   0  0  0  0  0  0  0  0  0  0  0  0
   -6.1520   -2.6060  -22.4090 H   0  0  0  0  0  0  0  0  0  0  0  0
   -6.9990   -3.4540  -21.1070 H   0  0  0  0  0  0  0  0  0  0  0  0
   -9.0730   -3.3850  -22.2190 H   0  0  0  0  0  0  0  0  0  0  0  0
   -7.0890   -3.3410  -24.5580 H   0  0  0  0  0  0  0  0  0  0  0  0
   -7.6640   -4.7620  -23.6860 H   0  0  0  0  0  0  0  0  0  0  0  0
   -8.7800   -3.8420  -24.7050 H   0  0  0  0  0  0  0  0  0  0  0  0
  1  2  1  0  0  0  0
  1 71  1  0  0  0  0
  1 72  1  0  0  0  0
  1 73  1  0  0  0  0
  2  3  1  0  0  0  0
  2 23  1  0  0  0  0
  2 70  1  1  0  0  0
  3  4  1  0  0  0  0
  3 68  1  0  0  0  0
  3 69  1  0  0  0  0
  4  5  1  0  0  0  0
  4 21  1  0  0  0  0
  5  6  2  0  0  0  0
  5 14  1  0  0  0  0
  6  7  1  0  0  0  0
  6 20  1  0  0  0  0
  7  8  2  0  0  0  0
  8  9  1  0  0  0  0
  8 19  1  0  0  0  0
  9 10  2  0  0  0  0
  9 14  1  0  0  0  0
 10 11  1  0  0  0  0
 10 18  1  0  0  0  0
 11 12  2  0  0  0  0
 11 17  1  0  0  0  0
 12 13  1  0  0  0  0
 12 16  1  0  0  0  0
 13 14  2  0  0  0  0
 13 15  1  0  0  0  0
 21 22  2  0  0  0  0
 23 21  1  1  0  0  0
 23 24  1  0  0  0  0
 23 62  1  0  0  0  0
 24 25  1  0  0  0  0
 24 66  1  0  0  0  0
 24 67  1  0  0  0  0
 25 26  1  0  0  0  0
 25 54  1  0  0  0  0
 26 27  1  0  0  0  0
 26 52  1  0  0  0  0
 26 53  1  0  0  0  0
 27 28  1  0  0  0  0
 27 50  1  0  0  0  0
 27 51  1  0  0  0  0
 28 29  1  0  0  0  0
 28 40  1  0  0  0  0
 28 49  1  0  0  0  0
 29 30  1  0  0  0  0
 29 47  1  0  0  0  0
 29 48  1  0  0  0  0
 30 31  1  0  0  0  0
 30 45  1  0  0  0  0
 30 46  1  0  0  0  0
 31 32  1  0  0  0  0
 31 39  1  0  0  0  0
 32 33  2  0  0  0  0
 32 34  2  0  0  0  0
 32 35  1  0  0  0  0
 35 36  1  0  0  0  0
 35 37  1  0  0  0  0
 35 38  1  0  0  0  0
 39 40  1  0  0  0  0
 39 43  1  0  0  0  0
 39 44  1  0  0  0  0
 40 41  1  0  0  0  0
 40 42  1  0  0  0  0
 54 55  2  0  0  0  0
 54 56  1  0  0  0  0
 56 57  2  0  0  0  0
 56 62  1  0  0  0  0
 57 58  1  0  0  0  0
 57 65  1  0  0  0  0
 58 59  2  0  0  0  0
 58 64  1  0  0  0  0
 59 60  1  0  0  0  0
 59 61  1  0  0  0  0
 61 62  2  0  0  0  0
 61 63  1  0  0  0  0
M  CHG  1  28   1
M  END
>  <MODEL>
       1

$$$$
