tmp_first_model_5_96.pdb
 OpenBabel08272519233D

 66 70  0  0  1  0  0  0  0  0999 V2000
   -7.3730    3.5560  -22.6990 C   0  0  0  0  0  0  0  0  0  0  0  0
   -8.3140    2.9840  -23.6450 N   0  0  0  0  0  0  0  0  0  0  0  0
   -7.8700    2.0470  -24.5280 C   0  0  0  0  0  0  0  0  0  0  0  0
   -6.6830    1.7890  -24.6740 O   0  0  0  0  0  0  0  0  0  0  0  0
   -8.9630    1.3350  -25.3390 C   0  0  0  0  0  0  0  0  0  0  0  0
   -9.5320    0.2110  -24.6080 N   0  0  0  0  0  0  0  0  0  0  0  0
   -8.7320   -1.0070  -24.4460 C   0  0  0  0  0  0  0  0  0  0  0  0
   -8.9400   -1.7010  -23.0360 C   0  0  2  0  0  0  0  0  0  0  0  0
   -8.2360   -0.7560  -22.0090 C   0  0  0  0  0  0  0  0  0  0  0  0
   -8.3860    0.4450  -21.9150 O   0  0  0  0  0  0  0  0  0  0  0  0
   -7.3710   -1.4910  -21.2490 N   0  0  0  0  0  0  0  0  0  0  0  0
   -6.5240   -0.9520  -20.2390 C   0  0  0  0  0  0  0  0  0  0  0  0
   -6.8070   -1.1570  -18.9150 C   0  0  0  0  0  0  0  0  0  0  0  0
   -5.9890   -0.8010  -17.8910 N   0  0  0  0  0  0  0  0  0  0  0  0
   -4.8450   -0.2480  -18.1980 C   0  0  0  0  0  0  0  0  0  0  0  0
   -4.4310    0.0340  -19.5360 C   0  0  0  0  0  0  0  0  0  0  0  0
   -3.2640    0.8150  -19.8080 C   0  0  0  0  0  0  0  0  0  0  0  0
   -3.1260    1.4600  -21.0070 C   0  0  0  0  0  0  0  0  0  0  0  0
   -4.0200    1.1650  -22.0710 C   0  0  0  0  0  0  0  0  0  0  0  0
   -5.0460    0.2750  -21.8860 C   0  0  0  0  0  0  0  0  0  0  0  0
   -5.3310   -0.2360  -20.5870 C   0  0  0  0  0  0  0  0  0  0  0  0
   -5.6670   -0.0270  -22.7290 H   0  0  0  0  0  0  0  0  0  0  0  0
   -3.8530    1.6010  -23.0570 H   0  0  0  0  0  0  0  0  0  0  0  0
   -2.2980    2.1310  -21.1730 H   0  0  0  0  0  0  0  0  0  0  0  0
   -2.5990    1.0410  -18.9790 H   0  0  0  0  0  0  0  0  0  0  0  0
   -4.2210    0.0890  -17.3750 H   0  0  0  0  0  0  0  0  0  0  0  0
   -7.7500   -1.6220  -18.6250 H   0  0  0  0  0  0  0  0  0  0  0  0
   -7.3790   -2.9070  -21.5160 C   0  0  0  0  0  0  0  0  0  0  0  0
   -8.1960   -3.0520  -22.8200 C   0  0  2  0  0  0  0  0  0  0  0  0
   -7.2580   -3.4350  -23.9680 C   0  0  0  0  0  0  0  0  0  0  0  0
   -6.2020   -2.5020  -24.0760 O   0  0  0  0  0  0  0  0  0  0  0  0
   -5.3050   -2.7210  -25.1560 C   0  0  0  0  0  0  0  0  0  0  0  0
   -5.6190   -1.8100  -26.3390 C   0  0  0  0  0  0  0  0  0  0  0  0
   -6.6050   -2.0140  -26.7670 H   0  0  0  0  0  0  0  0  0  0  0  0
   -5.5900   -0.7600  -26.0210 H   0  0  0  0  0  0  0  0  0  0  0  0
   -4.8680   -1.9450  -27.1280 H   0  0  0  0  0  0  0  0  0  0  0  0
   -3.9520   -2.3760  -24.5990 C   0  0  0  0  0  0  0  0  0  0  0  0
   -3.1700   -2.4620  -25.3640 H   0  0  0  0  0  0  0  0  0  0  0  0
   -3.6840   -2.9990  -23.7410 H   0  0  0  0  0  0  0  0  0  0  0  0
   -4.0310   -1.3350  -24.2540 H   0  0  0  0  0  0  0  0  0  0  0  0
   -5.3340   -3.7770  -25.4660 H   0  0  0  0  0  0  0  0  0  0  0  0
   -6.8260   -4.4270  -23.7820 H   0  0  0  0  0  0  0  0  0  0  0  0
   -7.8110   -3.4890  -24.9130 H   0  0  0  0  0  0  0  0  0  0  0  0
   -8.9280   -3.8640  -22.7220 H   0  0  0  0  0  0  0  0  0  0  0  0
   -7.8330   -3.4360  -20.6800 H   0  0  0  0  0  0  0  0  0  0  0  0
   -6.3460   -3.2740  -21.6060 H   0  0  0  0  0  0  0  0  0  0  0  0
  -10.4030   -1.8940  -22.8110 C   0  0  0  0  0  0  0  0  0  0  0  0
  -11.0980   -3.0440  -22.3260 C   0  0  0  0  0  0  0  0  0  0  0  0
  -12.5460   -2.5430  -22.2600 C   0  0  0  0  0  0  0  0  0  0  0  0
  -12.7160   -4.0200  -20.4030 Cl  0  0  0  0  0  0  0  0  0  0  0  0
  -12.5490   -2.5400  -22.2630 C   0  0  0  0  0  0  0  0  0  0  0  0
  -12.5300   -1.2040  -23.0810 C   0  0  0  0  0  0  0  0  0  0  0  0
  -11.2940   -0.8650  -23.2080 C   0  0  0  0  0  0  0  0  0  0  0  0
  -10.8320    0.3150  -24.1350 C   0  0  0  0  0  0  0  0  0  0  0  0
  -11.5640    1.2330  -24.4880 O   0  0  0  0  0  0  0  0  0  0  0  0
  -13.4840   -1.1350  -23.4970 H   0  0  0  0  0  0  0  0  0  0  0  0
  -13.6740   -2.5480  -22.5990 H   0  0  0  0  0  0  0  0  0  0  0  0
  -11.1920   -3.0570  -21.3700 H   0  0  0  0  0  0  0  0  0  0  0  0
   -8.9550   -1.7070  -25.2660 H   0  0  0  0  0  0  0  0  0  0  0  0
   -7.6920   -0.7480  -24.5370 H   0  0  0  0  0  0  0  0  0  0  0  0
   -9.7780    2.0260  -25.5680 H   0  0  0  0  0  0  0  0  0  0  0  0
   -8.5160    1.0320  -26.2910 H   0  0  0  0  0  0  0  0  0  0  0  0
   -9.2890    2.9560  -23.3810 H   0  0  0  0  0  0  0  0  0  0  0  0
   -6.6490    4.1770  -23.2310 H   0  0  0  0  0  0  0  0  0  0  0  0
   -6.8270    2.7690  -22.1640 H   0  0  0  0  0  0  0  0  0  0  0  0
   -7.9110    4.1810  -21.9850 H   0  0  0  0  0  0  0  0  0  0  0  0
  1  2  1  0  0  0  0
  1 64  1  0  0  0  0
  1 65  1  0  0  0  0
  1 66  1  0  0  0  0
  2  3  1  0  0  0  0
  2 63  1  0  0  0  0
  3  4  2  0  0  0  0
  3  5  1  0  0  0  0
  5  6  1  0  0  0  0
  5 61  1  0  0  0  0
  5 62  1  0  0  0  0
  6  7  1  0  0  0  0
  6 54  1  0  0  0  0
  7  8  1  0  0  0  0
  7 59  1  0  0  0  0
  7 60  1  0  0  0  0
  8  9  1  1  0  0  0
  8 29  1  0  0  0  0
  8 47  1  0  0  0  0
  9 10  2  0  0  0  0
  9 11  1  0  0  0  0
 11 12  1  0  0  0  0
 11 28  1  0  0  0  0
 12 13  2  0  0  0  0
 12 21  1  0  0  0  0
 13 14  1  0  0  0  0
 13 27  1  0  0  0  0
 14 15  2  0  0  0  0
 15 16  1  0  0  0  0
 15 26  1  0  0  0  0
 16 17  2  0  0  0  0
 16 21  1  0  0  0  0
 17 18  1  0  0  0  0
 17 25  1  0  0  0  0
 18 19  2  0  0  0  0
 18 24  1  0  0  0  0
 19 20  1  0  0  0  0
 19 23  1  0  0  0  0
 20 21  2  0  0  0  0
 20 22  1  0  0  0  0
 28 29  1  0  0  0  0
 28 45  1  0  0  0  0
 28 46  1  0  0  0  0
 29 30  1  0  0  0  0
 29 44  1  1  0  0  0
 30 31  1  0  0  0  0
 30 42  1  0  0  0  0
 30 43  1  0  0  0  0
 31 32  1  0  0  0  0
 32 33  1  0  0  0  0
 32 37  1  0  0  0  0
 32 41  1  0  0  0  0
 33 34  1  0  0  0  0
 33 35  1  0  0  0  0
 33 36  1  0  0  0  0
 37 38  1  0  0  0  0
 37 39  1  0  0  0  0
 37 40  1  0  0  0  0
 47 48  2  0  0  0  0
 47 53  1  0  0  0  0
 48 49  1  0  0  0  0
 48 58  1  0  0  0  0
 49 50  1  0  0  0  0
 49 51  2  0  0  0  0
 51 52  1  0  0  0  0
 51 57  1  0  0  0  0
 52 53  2  0  0  0  0
 52 56  1  0  0  0  0
 53 54  1  0  0  0  0
 54 55  2  0  0  0  0
M  END
>  <MODEL>
       1

$$$$
