tmp_first_model_5_83.pdb
 OpenBabel08272519233D

 46 50  0  0  1  0  0  0  0  0999 V2000
   -6.7970   -0.3950  -26.5230 N   0  0  0  0  0  0  0  0  0  0  0  0
   -8.0630    0.6320  -26.1280 S   0  0  0  0  0  0  0  0  0  0  0  0
   -7.4990    1.6320  -25.2350 O   0  0  0  0  0  0  0  0  0  0  0  0
   -8.7830    1.0240  -27.3330 O   0  0  0  0  0  0  0  0  0  0  0  0
   -9.1180   -0.4620  -25.2390 C   0  0  0  0  0  0  0  0  0  0  0  0
  -10.4930   -0.2690  -25.3230 C   0  0  0  0  0  0  0  0  0  0  0  0
  -11.3570   -1.1040  -24.6330 C   0  0  0  0  0  0  0  0  0  0  0  0
  -10.8170   -2.1000  -23.8170 C   0  0  0  0  0  0  0  0  0  0  0  0
   -9.4340   -2.1870  -23.6180 C   0  0  0  0  0  0  0  0  0  0  0  0
   -8.5860   -1.4290  -24.4080 C   0  0  0  0  0  0  0  0  0  0  0  0
   -7.5140   -1.5730  -24.3310 H   0  0  0  0  0  0  0  0  0  0  0  0
   -8.8520   -2.8720  -22.4080 C   0  0  1  0  0  0  0  0  0  0  0  0
   -9.8820   -3.8530  -21.8410 C   0  0  0  0  0  0  0  0  0  0  0  0
  -11.2680   -3.2440  -21.8530 C   0  0  0  0  0  0  0  0  0  0  0  0
  -11.6670   -2.9640  -23.1930 O   0  0  0  0  0  0  0  0  0  0  0  0
  -12.0050   -3.9390  -21.4350 H   0  0  0  0  0  0  0  0  0  0  0  0
  -11.2590   -2.3030  -21.2840 H   0  0  0  0  0  0  0  0  0  0  0  0
   -9.8620   -4.7560  -22.4590 H   0  0  0  0  0  0  0  0  0  0  0  0
   -9.6040   -4.1060  -20.8260 H   0  0  0  0  0  0  0  0  0  0  0  0
   -7.5690   -3.5100  -22.6520 N   0  0  0  0  0  0  0  0  0  0  0  0
   -6.5320   -3.0090  -21.9140 C   0  0  0  0  0  0  0  0  0  0  0  0
   -5.3650   -3.3250  -21.9230 O   0  0  0  0  0  0  0  0  0  0  0  0
   -7.0890   -2.0100  -21.1000 N   0  0  0  0  0  0  0  0  0  0  0  0
   -6.3170   -1.3910  -20.0840 C   0  0  0  0  0  0  0  0  0  0  0  0
   -6.4320   -1.8130  -18.7840 C   0  0  0  0  0  0  0  0  0  0  0  0
   -5.5360   -1.5170  -17.8130 N   0  0  0  0  0  0  0  0  0  0  0  0
   -4.5060   -0.7780  -18.1570 C   0  0  0  0  0  0  0  0  0  0  0  0
   -4.3330   -0.1910  -19.4390 C   0  0  0  0  0  0  0  0  0  0  0  0
   -3.2620    0.7010  -19.7210 C   0  0  0  0  0  0  0  0  0  0  0  0
   -3.2760    1.4520  -20.8630 C   0  0  0  0  0  0  0  0  0  0  0  0
   -4.2970    1.2680  -21.8250 C   0  0  0  0  0  0  0  0  0  0  0  0
   -5.2920    0.3440  -21.6140 C   0  0  0  0  0  0  0  0  0  0  0  0
   -5.3190   -0.4250  -20.4170 C   0  0  0  0  0  0  0  0  0  0  0  0
   -6.0950    0.2240  -22.3370 H   0  0  0  0  0  0  0  0  0  0  0  0
   -4.2780    1.8500  -22.7430 H   0  0  0  0  0  0  0  0  0  0  0  0
   -2.5090    2.2040  -21.0320 H   0  0  0  0  0  0  0  0  0  0  0  0
   -2.5290    0.8870  -18.9430 H   0  0  0  0  0  0  0  0  0  0  0  0
   -3.7520   -0.5960  -17.3930 H   0  0  0  0  0  0  0  0  0  0  0  0
   -7.2700   -2.4430  -18.4880 H   0  0  0  0  0  0  0  0  0  0  0  0
   -8.4350   -1.8020  -21.3680 C   0  0  0  0  0  0  0  0  0  0  0  0
   -9.1030   -0.8980  -20.9370 O   0  0  0  0  0  0  0  0  0  0  0  0
   -7.3720   -4.0580  -23.4740 H   0  0  0  0  0  0  0  0  0  0  0  0
  -12.4370   -0.9990  -24.6790 H   0  0  0  0  0  0  0  0  0  0  0  0
  -10.8430    0.5530  -25.9260 H   0  0  0  0  0  0  0  0  0  0  0  0
   -6.8870   -0.7040  -27.4870 H   0  0  0  0  0  0  0  0  0  0  0  0
   -5.9280    0.1100  -26.3750 H   0  0  0  0  0  0  0  0  0  0  0  0
  1  2  1  0  0  0  0
  1 45  1  0  0  0  0
  1 46  1  0  0  0  0
  2  3  2  0  0  0  0
  2  4  2  0  0  0  0
  2  5  1  0  0  0  0
  5  6  2  0  0  0  0
  5 10  1  0  0  0  0
  6  7  1  0  0  0  0
  6 44  1  0  0  0  0
  7  8  2  0  0  0  0
  7 43  1  0  0  0  0
  8  9  1  0  0  0  0
  8 15  1  0  0  0  0
  9 10  2  0  0  0  0
 10 11  1  0  0  0  0
 12  9  1  6  0  0  0
 12 13  1  0  0  0  0
 12 20  1  0  0  0  0
 12 40  1  0  0  0  0
 13 14  1  0  0  0  0
 13 18  1  0  0  0  0
 13 19  1  0  0  0  0
 14 15  1  0  0  0  0
 14 16  1  0  0  0  0
 14 17  1  0  0  0  0
 20 21  1  0  0  0  0
 20 42  1  0  0  0  0
 21 22  2  0  0  0  0
 21 23  1  0  0  0  0
 23 24  1  0  0  0  0
 23 40  1  0  0  0  0
 24 25  2  0  0  0  0
 24 33  1  0  0  0  0
 25 26  1  0  0  0  0
 25 39  1  0  0  0  0
 26 27  2  0  0  0  0
 27 28  1  0  0  0  0
 27 38  1  0  0  0  0
 28 29  2  0  0  0  0
 28 33  1  0  0  0  0
 29 30  1  0  0  0  0
 29 37  1  0  0  0  0
 30 31  2  0  0  0  0
 30 36  1  0  0  0  0
 31 32  1  0  0  0  0
 31 35  1  0  0  0  0
 32 33  2  0  0  0  0
 32 34  1  0  0  0  0
 40 41  2  0  0  0  0
M  END
>  <MODEL>
       1

$$$$
