tmp_first_model_13_78.pdb
 OpenBabel08282500103D

 56 60  0  0  1  0  0  0  0  0999 V2000
  -14.4780   -1.5910  -23.7860 C   0  0  0  0  0  0  0  0  0  0  0  0
  -13.7170   -2.7340  -23.3330 N   0  0  0  0  0  0  0  0  0  0  0  0
  -13.2910   -2.7520  -22.0450 C   0  0  0  0  0  0  0  0  0  0  0  0
  -13.5830   -1.8790  -21.2430 O   0  0  0  0  0  0  0  0  0  0  0  0
  -12.4240   -3.9510  -21.7090 C   0  0  0  0  0  0  0  0  0  0  0  0
  -11.0910   -3.9030  -22.2780 N   0  0  0  0  0  0  0  0  0  0  0  0
   -9.9790   -3.3980  -21.4860 C   0  0  0  0  0  0  0  0  0  0  0  0
   -8.7820   -2.9270  -22.3480 C   0  0  2  0  0  0  0  0  0  0  0  0
   -7.5530   -2.7090  -21.4470 C   0  0  0  0  0  0  0  0  0  0  0  0
   -6.8110   -3.5610  -21.0120 O   0  0  0  0  0  0  0  0  0  0  0  0
   -7.3980   -1.3550  -21.2320 N   0  0  0  0  0  0  0  0  0  0  0  0
   -6.5790   -0.8530  -20.1930 C   0  0  0  0  0  0  0  0  0  0  0  0
   -6.8890   -1.0960  -18.8790 C   0  0  0  0  0  0  0  0  0  0  0  0
   -6.2130   -0.5630  -17.8310 N   0  0  0  0  0  0  0  0  0  0  0  0
   -5.1910    0.2110  -18.0940 C   0  0  0  0  0  0  0  0  0  0  0  0
   -4.7460    0.5190  -19.4100 C   0  0  0  0  0  0  0  0  0  0  0  0
   -3.6200    1.3450  -19.6470 C   0  0  0  0  0  0  0  0  0  0  0  0
   -3.2170    1.6120  -20.9250 C   0  0  0  0  0  0  0  0  0  0  0  0
   -3.9170    1.0650  -22.0230 C   0  0  0  0  0  0  0  0  0  0  0  0
   -5.0130    0.2620  -21.8220 C   0  0  0  0  0  0  0  0  0  0  0  0
   -5.4570   -0.0230  -20.5030 C   0  0  0  0  0  0  0  0  0  0  0  0
   -5.5350   -0.1680  -22.6710 H   0  0  0  0  0  0  0  0  0  0  0  0
   -3.5880    1.2840  -23.0340 H   0  0  0  0  0  0  0  0  0  0  0  0
   -2.3620    2.2560  -21.1050 H   0  0  0  0  0  0  0  0  0  0  0  0
   -3.0980    1.7580  -18.7890 H   0  0  0  0  0  0  0  0  0  0  0  0
   -4.6510    0.6360  -17.2460 H   0  0  0  0  0  0  0  0  0  0  0  0
   -7.7300   -1.7370  -18.6250 H   0  0  0  0  0  0  0  0  0  0  0  0
   -8.3890   -0.5360  -21.9050 C   0  0  0  0  0  0  0  0  0  0  0  0
   -9.0020   -1.4910  -22.9410 C   0  0  2  0  0  0  0  0  0  0  0  0
  -10.4460   -1.1510  -23.2800 C   0  0  0  0  0  0  0  0  0  0  0  0
  -11.0570   -1.1270  -22.3710 H   0  0  0  0  0  0  0  0  0  0  0  0
  -10.5290   -0.1790  -23.7740 H   0  0  0  0  0  0  0  0  0  0  0  0
  -10.8640   -1.9160  -23.9400 H   0  0  0  0  0  0  0  0  0  0  0  0
   -8.3920   -1.4450  -23.8550 H   0  0  0  0  0  0  0  0  0  0  0  0
   -7.9260    0.3410  -22.3710 H   0  0  0  0  0  0  0  0  0  0  0  0
   -9.1490   -0.1720  -21.1960 H   0  0  0  0  0  0  0  0  0  0  0  0
   -8.5020   -3.9730  -23.3960 C   0  0  0  0  0  0  0  0  0  0  0  0
   -7.2270   -4.0950  -23.9500 C   0  0  0  0  0  0  0  0  0  0  0  0
   -6.9920   -5.0280  -24.9410 C   0  0  0  0  0  0  0  0  0  0  0  0
   -5.4240   -5.0920  -25.6760 Cl  0  0  0  0  0  0  0  0  0  0  0  0
   -7.9900   -5.8840  -25.3970 C   0  0  0  0  0  0  0  0  0  0  0  0
   -9.2520   -5.7590  -24.8530 C   0  0  0  0  0  0  0  0  0  0  0  0
   -9.5180   -4.7910  -23.8890 C   0  0  0  0  0  0  0  0  0  0  0  0
  -10.9210   -4.5950  -23.4380 C   0  0  0  0  0  0  0  0  0  0  0  0
  -11.8870   -5.0140  -24.0770 O   0  0  0  0  0  0  0  0  0  0  0  0
  -10.0570   -6.4090  -25.1680 H   0  0  0  0  0  0  0  0  0  0  0  0
   -7.7770   -6.6090  -26.1770 H   0  0  0  0  0  0  0  0  0  0  0  0
   -6.4200   -3.4590  -23.6100 H   0  0  0  0  0  0  0  0  0  0  0  0
   -9.6610   -4.1930  -20.8090 H   0  0  0  0  0  0  0  0  0  0  0  0
  -10.3270   -2.5420  -20.8970 H   0  0  0  0  0  0  0  0  0  0  0  0
  -12.9130   -4.7940  -22.1990 H   0  0  0  0  0  0  0  0  0  0  0  0
  -12.3960   -4.1100  -20.6310 H   0  0  0  0  0  0  0  0  0  0  0  0
  -13.4850   -3.5050  -23.9500 H   0  0  0  0  0  0  0  0  0  0  0  0
  -13.8660   -0.6800  -23.7760 H   0  0  0  0  0  0  0  0  0  0  0  0
  -14.8370   -1.7530  -24.8020 H   0  0  0  0  0  0  0  0  0  0  0  0
  -15.3340   -1.4220  -23.1250 H   0  0  0  0  0  0  0  0  0  0  0  0
  1  2  1  0  0  0  0
  1 54  1  0  0  0  0
  1 55  1  0  0  0  0
  1 56  1  0  0  0  0
  2  3  1  0  0  0  0
  2 53  1  0  0  0  0
  3  4  2  0  0  0  0
  3  5  1  0  0  0  0
  5  6  1  0  0  0  0
  5 51  1  0  0  0  0
  5 52  1  0  0  0  0
  6  7  1  0  0  0  0
  6 44  1  0  0  0  0
  7  8  1  0  0  0  0
  7 49  1  0  0  0  0
  7 50  1  0  0  0  0
  8  9  1  1  0  0  0
  8 29  1  0  0  0  0
  8 37  1  0  0  0  0
  9 10  2  0  0  0  0
  9 11  1  0  0  0  0
 11 12  1  0  0  0  0
 11 28  1  0  0  0  0
 12 13  2  0  0  0  0
 12 21  1  0  0  0  0
 13 14  1  0  0  0  0
 13 27  1  0  0  0  0
 14 15  2  0  0  0  0
 15 16  1  0  0  0  0
 15 26  1  0  0  0  0
 16 17  2  0  0  0  0
 16 21  1  0  0  0  0
 17 18  1  0  0  0  0
 17 25  1  0  0  0  0
 18 19  2  0  0  0  0
 18 24  1  0  0  0  0
 19 20  1  0  0  0  0
 19 23  1  0  0  0  0
 20 21  2  0  0  0  0
 20 22  1  0  0  0  0
 28 29  1  0  0  0  0
 28 35  1  0  0  0  0
 28 36  1  0  0  0  0
 29 30  1  0  0  0  0
 29 34  1  6  0  0  0
 30 31  1  0  0  0  0
 30 32  1  0  0  0  0
 30 33  1  0  0  0  0
 37 38  2  0  0  0  0
 37 43  1  0  0  0  0
 38 39  1  0  0  0  0
 38 48  1  0  0  0  0
 39 40  1  0  0  0  0
 39 41  2  0  0  0  0
 41 42  1  0  0  0  0
 41 47  1  0  0  0  0
 42 43  2  0  0  0  0
 42 46  1  0  0  0  0
 43 44  1  0  0  0  0
 44 45  2  0  0  0  0
M  END
>  <MODEL>
       1

$$$$
