tmp_first_model_20_27.pdb
 OpenBabel08282503553D

 58 62  0  0  1  0  0  0  0  0999 V2000
   -3.7530   -5.3620  -22.7170 C   0  0  0  0  0  0  0  0  0  0  0  0
   -4.4970   -6.5320  -22.1760 N   0  3  0  0  0  0  0  0  0  0  0  0
   -5.6200   -6.2230  -21.2220 C   0  0  0  0  0  0  0  0  0  0  0  0
   -6.9980   -6.4840  -21.8460 C   0  0  0  0  0  0  0  0  0  0  0  0
   -7.3480   -5.4530  -22.8140 N   0  0  0  0  0  0  0  0  0  0  0  0
   -8.3290   -4.4340  -22.4890 C   0  0  0  0  0  0  0  0  0  0  0  0
   -7.9060   -3.0120  -22.9280 C   0  0  2  0  0  0  0  0  0  0  0  0
   -6.7880   -2.4790  -21.9910 C   0  0  0  0  0  0  0  0  0  0  0  0
   -5.6380   -2.8760  -21.9200 O   0  0  0  0  0  0  0  0  0  0  0  0
   -7.3100   -1.4670  -21.2170 N   0  0  0  0  0  0  0  0  0  0  0  0
   -6.5690   -0.8570  -20.1870 C   0  0  0  0  0  0  0  0  0  0  0  0
   -6.9240   -1.0440  -18.8740 C   0  0  0  0  0  0  0  0  0  0  0  0
   -6.2510   -0.5340  -17.8160 N   0  0  0  0  0  0  0  0  0  0  0  0
   -5.1980    0.2000  -18.0810 C   0  0  0  0  0  0  0  0  0  0  0  0
   -4.7400    0.5000  -19.3970 C   0  0  0  0  0  0  0  0  0  0  0  0
   -3.6110    1.3300  -19.6220 C   0  0  0  0  0  0  0  0  0  0  0  0
   -3.2310    1.6450  -20.8960 C   0  0  0  0  0  0  0  0  0  0  0  0
   -3.9550    1.1510  -22.0030 C   0  0  0  0  0  0  0  0  0  0  0  0
   -5.0400    0.3350  -21.8120 C   0  0  0  0  0  0  0  0  0  0  0  0
   -5.4520   -0.0210  -20.4960 C   0  0  0  0  0  0  0  0  0  0  0  0
   -5.5930   -0.0440  -22.6650 H   0  0  0  0  0  0  0  0  0  0  0  0
   -3.6530    1.4310  -23.0080 H   0  0  0  0  0  0  0  0  0  0  0  0
   -2.3830    2.3020  -21.0670 H   0  0  0  0  0  0  0  0  0  0  0  0
   -3.0720    1.7150  -18.7600 H   0  0  0  0  0  0  0  0  0  0  0  0
   -4.6450    0.6030  -17.2330 H   0  0  0  0  0  0  0  0  0  0  0  0
   -7.7850   -1.6650  -18.6370 H   0  0  0  0  0  0  0  0  0  0  0  0
   -8.7530   -1.3690  -21.3060 C   0  0  0  0  0  0  0  0  0  0  0  0
   -9.0700   -1.9970  -22.6690 C   0  0  2  0  0  0  0  0  0  0  0  0
  -10.4870   -2.5600  -22.7030 C   0  0  0  0  0  0  0  0  0  0  0  0
  -10.6990   -3.0730  -23.6460 H   0  0  0  0  0  0  0  0  0  0  0  0
  -10.6440   -3.2750  -21.8870 H   0  0  0  0  0  0  0  0  0  0  0  0
  -11.2130   -1.7520  -22.5800 H   0  0  0  0  0  0  0  0  0  0  0  0
   -8.9990   -1.2040  -23.4180 H   0  0  0  0  0  0  0  0  0  0  0  0
   -9.2590   -1.9260  -20.5020 H   0  0  0  0  0  0  0  0  0  0  0  0
   -9.0760   -0.3260  -21.2470 H   0  0  0  0  0  0  0  0  0  0  0  0
   -7.3990   -3.0850  -24.3540 C   0  0  0  0  0  0  0  0  0  0  0  0
   -7.3230   -1.9280  -25.1350 C   0  0  0  0  0  0  0  0  0  0  0  0
   -6.8890   -2.0140  -26.4390 C   0  0  0  0  0  0  0  0  0  0  0  0
   -6.8180   -0.8910  -27.1730 F   0  0  0  0  0  0  0  0  0  0  0  0
   -6.5200   -3.2150  -27.0300 C   0  0  0  0  0  0  0  0  0  0  0  0
   -6.5340   -4.3510  -26.2420 C   0  0  0  0  0  0  0  0  0  0  0  0
   -6.9140   -4.2840  -24.8980 C   0  0  0  0  0  0  0  0  0  0  0  0
   -6.7220   -5.4830  -24.0170 C   0  0  0  0  0  0  0  0  0  0  0  0
   -5.9890   -6.4230  -24.3480 O   0  0  0  0  0  0  0  0  0  0  0  0
   -6.2450   -5.3060  -26.6630 H   0  0  0  0  0  0  0  0  0  0  0  0
   -6.2060   -3.2380  -28.0690 H   0  0  0  0  0  0  0  0  0  0  0  0
   -7.5890   -0.9540  -24.7400 H   0  0  0  0  0  0  0  0  0  0  0  0
   -8.4590   -4.4140  -21.4100 H   0  0  0  0  0  0  0  0  0  0  0  0
   -9.2930   -4.6820  -22.9520 H   0  0  0  0  0  0  0  0  0  0  0  0
   -7.7730   -6.5180  -21.0780 H   0  0  0  0  0  0  0  0  0  0  0  0
   -7.0020   -7.4550  -22.3560 H   0  0  0  0  0  0  0  0  0  0  0  0
   -5.5080   -6.8460  -20.3310 H   0  0  0  0  0  0  0  0  0  0  0  0
   -5.5550   -5.1680  -20.9410 H   0  0  0  0  0  0  0  0  0  0  0  0
   -4.9060   -7.0070  -23.0120 H   0  0  0  0  0  0  0  0  0  0  0  0
   -3.8250   -7.1800  -21.7120 H   0  0  0  0  0  0  0  0  0  0  0  0
   -2.8440   -5.7020  -23.2190 H   0  0  0  0  0  0  0  0  0  0  0  0
   -4.3650   -4.8240  -23.4470 H   0  0  0  0  0  0  0  0  0  0  0  0
   -3.4980   -4.6630  -21.9200 H   0  0  0  0  0  0  0  0  0  0  0  0
  1  2  1  0  0  0  0
  1 56  1  0  0  0  0
  1 57  1  0  0  0  0
  1 58  1  0  0  0  0
  2  3  1  0  0  0  0
  2 54  1  0  0  0  0
  2 55  1  0  0  0  0
  3  4  1  0  0  0  0
  3 52  1  0  0  0  0
  3 53  1  0  0  0  0
  4  5  1  0  0  0  0
  4 50  1  0  0  0  0
  4 51  1  0  0  0  0
  5  6  1  0  0  0  0
  5 43  1  0  0  0  0
  6  7  1  0  0  0  0
  6 48  1  0  0  0  0
  6 49  1  0  0  0  0
  7  8  1  1  0  0  0
  7 28  1  0  0  0  0
  7 36  1  0  0  0  0
  8  9  2  0  0  0  0
  8 10  1  0  0  0  0
 10 11  1  0  0  0  0
 10 27  1  0  0  0  0
 11 12  2  0  0  0  0
 11 20  1  0  0  0  0
 12 13  1  0  0  0  0
 12 26  1  0  0  0  0
 13 14  2  0  0  0  0
 14 15  1  0  0  0  0
 14 25  1  0  0  0  0
 15 16  2  0  0  0  0
 15 20  1  0  0  0  0
 16 17  1  0  0  0  0
 16 24  1  0  0  0  0
 17 18  2  0  0  0  0
 17 23  1  0  0  0  0
 18 19  1  0  0  0  0
 18 22  1  0  0  0  0
 19 20  2  0  0  0  0
 19 21  1  0  0  0  0
 27 28  1  0  0  0  0
 27 34  1  0  0  0  0
 27 35  1  0  0  0  0
 28 29  1  0  0  0  0
 28 33  1  6  0  0  0
 29 30  1  0  0  0  0
 29 31  1  0  0  0  0
 29 32  1  0  0  0  0
 36 37  2  0  0  0  0
 36 42  1  0  0  0  0
 37 38  1  0  0  0  0
 37 47  1  0  0  0  0
 38 39  1  0  0  0  0
 38 40  2  0  0  0  0
 40 41  1  0  0  0  0
 40 46  1  0  0  0  0
 41 42  2  0  0  0  0
 41 45  1  0  0  0  0
 42 43  1  0  0  0  0
 43 44  2  0  0  0  0
M  CHG  1   2   1
M  END
>  <MODEL>
       1

$$$$
