tmp_first_model_4_62.pdb
 OpenBabel08272518513D

 44 47  0  0  0  0  0  0  0  0999 V2000
   -5.5830   -3.1260  -21.5940 O   0  0  0  0  0  0  0  0  0  0  0  0
   -6.7640   -2.8730  -21.7740 C   0  0  0  0  0  0  0  0  0  0  0  0
   -7.3770   -1.5460  -21.2830 C   0  0  0  0  0  0  0  0  0  0  0  0
   -6.4950   -0.9860  -20.2130 C   0  0  0  0  0  0  0  0  0  0  0  0
   -6.7460   -1.2720  -18.8970 C   0  0  0  0  0  0  0  0  0  0  0  0
   -5.9170   -0.9930  -17.8600 N   0  0  0  0  0  0  0  0  0  0  0  0
   -4.7890   -0.3920  -18.1520 C   0  0  0  0  0  0  0  0  0  0  0  0
   -4.4350    0.0280  -19.4610 C   0  0  0  0  0  0  0  0  0  0  0  0
   -3.2730    0.7990  -19.7110 C   0  0  0  0  0  0  0  0  0  0  0  0
   -3.0310    1.3020  -20.9610 C   0  0  0  0  0  0  0  0  0  0  0  0
   -3.8840    0.9650  -22.0310 C   0  0  0  0  0  0  0  0  0  0  0  0
   -4.9850    0.1730  -21.8310 C   0  0  0  0  0  0  0  0  0  0  0  0
   -5.3010   -0.2890  -20.5270 C   0  0  0  0  0  0  0  0  0  0  0  0
   -5.6190   -0.1090  -22.6650 H   0  0  0  0  0  0  0  0  0  0  0  0
   -3.7000    1.3830  -23.0160 H   0  0  0  0  0  0  0  0  0  0  0  0
   -2.1970    1.9760  -21.1300 H   0  0  0  0  0  0  0  0  0  0  0  0
   -2.6190    1.0180  -18.8730 H   0  0  0  0  0  0  0  0  0  0  0  0
   -4.0910   -0.1810  -17.3390 H   0  0  0  0  0  0  0  0  0  0  0  0
   -7.6730   -1.7790  -18.6310 H   0  0  0  0  0  0  0  0  0  0  0  0
   -8.3770   -1.7360  -20.8710 H   0  0  0  0  0  0  0  0  0  0  0  0
   -7.5030   -0.8540  -22.1260 H   0  0  0  0  0  0  0  0  0  0  0  0
   -7.5920   -3.7850  -22.3700 N   0  0  0  0  0  0  0  0  0  0  0  0
   -7.2050   -5.1860  -22.2340 C   0  0  0  0  0  0  0  0  0  0  0  0
   -7.4690   -5.9590  -23.5030 C   0  0  0  0  0  0  0  0  0  0  0  0
   -8.9330   -5.7860  -23.8950 C   0  0  0  0  0  0  0  0  0  0  0  0
   -9.2450   -6.6430  -25.1050 C   0  0  0  0  0  0  0  0  0  0  0  0
  -10.6580   -6.8890  -25.5520 C   0  0  0  0  0  0  0  0  0  0  0  0
   -9.7200   -6.0870  -26.4140 C   0  0  0  0  0  0  0  0  0  0  0  0
   -9.8790   -5.0160  -26.5150 H   0  0  0  0  0  0  0  0  0  0  0  0
   -9.3710   -6.5840  -27.3140 H   0  0  0  0  0  0  0  0  0  0  0  0
  -10.8660   -7.8820  -25.9410 H   0  0  0  0  0  0  0  0  0  0  0  0
  -11.4860   -6.4000  -25.0350 H   0  0  0  0  0  0  0  0  0  0  0  0
   -8.6070   -7.5190  -25.1970 H   0  0  0  0  0  0  0  0  0  0  0  0
   -9.2590   -4.2980  -24.0680 C   0  0  0  0  0  0  0  0  0  0  0  0
   -8.9640   -3.5240  -22.7920 C   0  0  0  0  0  0  0  0  0  0  0  0
   -9.6930   -3.8070  -22.0140 H   0  0  0  0  0  0  0  0  0  0  0  0
   -9.0990   -2.4540  -22.9690 H   0  0  0  0  0  0  0  0  0  0  0  0
   -8.6520   -3.8840  -24.8810 H   0  0  0  0  0  0  0  0  0  0  0  0
  -10.3070   -4.1530  -24.3560 H   0  0  0  0  0  0  0  0  0  0  0  0
   -9.5180   -6.1540  -23.0370 H   0  0  0  0  0  0  0  0  0  0  0  0
   -7.2440   -7.0200  -23.3300 H   0  0  0  0  0  0  0  0  0  0  0  0
   -6.8160   -5.6250  -24.3150 H   0  0  0  0  0  0  0  0  0  0  0  0
   -6.1590   -5.2150  -21.9330 H   0  0  0  0  0  0  0  0  0  0  0  0
   -7.7830   -5.6670  -21.4350 H   0  0  0  0  0  0  0  0  0  0  0  0
  1  2  2  0  0  0  0
  2  3  1  0  0  0  0
  2 22  1  0  0  0  0
  3  4  1  0  0  0  0
  3 20  1  0  0  0  0
  3 21  1  0  0  0  0
  4  5  2  0  0  0  0
  4 13  1  0  0  0  0
  5  6  1  0  0  0  0
  5 19  1  0  0  0  0
  6  7  2  0  0  0  0
  7  8  1  0  0  0  0
  7 18  1  0  0  0  0
  8  9  2  0  0  0  0
  8 13  1  0  0  0  0
  9 10  1  0  0  0  0
  9 17  1  0  0  0  0
 10 11  2  0  0  0  0
 10 16  1  0  0  0  0
 11 12  1  0  0  0  0
 11 15  1  0  0  0  0
 12 13  2  0  0  0  0
 12 14  1  0  0  0  0
 22 23  1  0  0  0  0
 22 35  1  0  0  0  0
 23 24  1  0  0  0  0
 23 43  1  0  0  0  0
 23 44  1  0  0  0  0
 24 25  1  0  0  0  0
 24 41  1  0  0  0  0
 24 42  1  0  0  0  0
 25 26  1  0  0  0  0
 25 34  1  0  0  0  0
 25 40  1  0  0  0  0
 26 27  1  0  0  0  0
 26 28  1  0  0  0  0
 26 33  1  0  0  0  0
 27 28  1  0  0  0  0
 27 31  1  0  0  0  0
 27 32  1  0  0  0  0
 28 29  1  0  0  0  0
 28 30  1  0  0  0  0
 34 35  1  0  0  0  0
 34 38  1  0  0  0  0
 34 39  1  0  0  0  0
 35 36  1  0  0  0  0
 35 37  1  0  0  0  0
M  END
>  <MODEL>
       1

$$$$
