tmp_first_model_3_60.pdb
 OpenBabel08272518143D

 62 67  0  0  1  0  0  0  0  0999 V2000
  -11.2580    4.3480  -25.2080 C   0  0  0  0  0  0  0  0  0  0  0  0
   -9.7770    4.1710  -25.5110 C   0  0  0  0  0  0  0  0  0  0  0  0
   -9.0030    3.5790  -24.4340 N   0  0  0  0  0  0  0  0  0  0  0  0
   -8.4500    4.4120  -23.5430 N   0  0  0  0  0  0  0  0  0  0  0  0
   -7.8800    3.6290  -22.6400 C   0  0  0  0  0  0  0  0  0  0  0  0
   -8.0730    2.2680  -22.9450 C   0  0  0  0  0  0  0  0  0  0  0  0
   -8.8050    2.2700  -24.1140 C   0  0  0  0  0  0  0  0  0  0  0  0
   -9.3020    1.1270  -24.9570 C   0  0  0  0  0  0  0  0  0  0  0  0
   -9.7560    0.0170  -24.1460 N   0  0  0  0  0  0  0  0  0  0  0  0
   -8.9560   -1.1830  -24.0060 C   0  0  0  0  0  0  0  0  0  0  0  0
   -9.1740   -1.8840  -22.6410 C   0  0  2  0  0  0  0  0  0  0  0  0
   -8.6370   -1.0280  -21.4720 C   0  0  0  0  0  0  0  0  0  0  0  0
   -9.2100   -0.1140  -20.9130 O   0  0  0  0  0  0  0  0  0  0  0  0
   -7.3630   -1.4510  -21.1810 N   0  0  0  0  0  0  0  0  0  0  0  0
   -6.5980   -0.8390  -20.1610 C   0  0  0  0  0  0  0  0  0  0  0  0
   -6.9240   -1.0470  -18.8450 C   0  0  0  0  0  0  0  0  0  0  0  0
   -6.2250   -0.5410  -17.7990 N   0  0  0  0  0  0  0  0  0  0  0  0
   -5.1830    0.2050  -18.0760 C   0  0  0  0  0  0  0  0  0  0  0  0
   -4.7470    0.5120  -19.3960 C   0  0  0  0  0  0  0  0  0  0  0  0
   -3.6260    1.3470  -19.6370 C   0  0  0  0  0  0  0  0  0  0  0  0
   -3.2440    1.6470  -20.9150 C   0  0  0  0  0  0  0  0  0  0  0  0
   -3.9680    1.1300  -22.0120 C   0  0  0  0  0  0  0  0  0  0  0  0
   -5.0610    0.3190  -21.8060 C   0  0  0  0  0  0  0  0  0  0  0  0
   -5.4720   -0.0200  -20.4870 C   0  0  0  0  0  0  0  0  0  0  0  0
   -5.6160   -0.0560  -22.6620 H   0  0  0  0  0  0  0  0  0  0  0  0
   -3.6640    1.3880  -23.0230 H   0  0  0  0  0  0  0  0  0  0  0  0
   -2.3910    2.2960  -21.0930 H   0  0  0  0  0  0  0  0  0  0  0  0
   -3.0980    1.7550  -18.7790 H   0  0  0  0  0  0  0  0  0  0  0  0
   -4.6200    0.6120  -17.2330 H   0  0  0  0  0  0  0  0  0  0  0  0
   -7.7850   -1.6600  -18.5870 H   0  0  0  0  0  0  0  0  0  0  0  0
   -6.9460   -2.6140  -21.9390 C   0  0  0  0  0  0  0  0  0  0  0  0
   -8.2760   -3.1480  -22.5070 C   0  0  2  0  0  0  0  0  0  0  0  0
   -8.0960   -3.9900  -23.7670 C   0  0  0  0  0  0  0  0  0  0  0  0
   -7.5640   -3.4210  -24.5400 H   0  0  0  0  0  0  0  0  0  0  0  0
   -7.5070   -4.8910  -23.5620 H   0  0  0  0  0  0  0  0  0  0  0  0
   -9.0590   -4.3030  -24.1870 H   0  0  0  0  0  0  0  0  0  0  0  0
   -8.7310   -3.7570  -21.7180 H   0  0  0  0  0  0  0  0  0  0  0  0
   -6.4380   -3.3300  -21.2860 H   0  0  0  0  0  0  0  0  0  0  0  0
   -6.2500   -2.3480  -22.7490 H   0  0  0  0  0  0  0  0  0  0  0  0
  -10.6630   -2.0670  -22.4760 C   0  0  0  0  0  0  0  0  0  0  0  0
  -11.2140   -3.1210  -21.7470 C   0  0  0  0  0  0  0  0  0  0  0  0
  -12.5310   -3.0390  -21.3410 C   0  0  0  0  0  0  0  0  0  0  0  0
  -13.0020   -3.9790  -20.5050 F   0  0  0  0  0  0  0  0  0  0  0  0
  -13.3820   -2.0100  -21.7370 C   0  0  0  0  0  0  0  0  0  0  0  0
  -12.8790   -1.0610  -22.5880 C   0  0  0  0  0  0  0  0  0  0  0  0
  -11.5330   -1.0650  -22.9270 C   0  0  0  0  0  0  0  0  0  0  0  0
  -11.0500    0.0790  -23.7400 C   0  0  0  0  0  0  0  0  0  0  0  0
  -11.7860    1.0100  -24.0420 O   0  0  0  0  0  0  0  0  0  0  0  0
  -13.5040   -0.2690  -22.9770 H   0  0  0  0  0  0  0  0  0  0  0  0
  -14.3990   -1.9340  -21.3620 H   0  0  0  0  0  0  0  0  0  0  0  0
  -10.6330   -3.9780  -21.4190 H   0  0  0  0  0  0  0  0  0  0  0  0
   -9.2030   -1.9070  -24.7970 H   0  0  0  0  0  0  0  0  0  0  0  0
   -7.9080   -0.9060  -24.1260 H   0  0  0  0  0  0  0  0  0  0  0  0
  -10.1680    1.4390  -25.5510 H   0  0  0  0  0  0  0  0  0  0  0  0
   -8.5310    0.7420  -25.6360 H   0  0  0  0  0  0  0  0  0  0  0  0
   -7.7870    1.3910  -22.3790 H   0  0  0  0  0  0  0  0  0  0  0  0
   -7.3670    4.1050  -21.8130 H   0  0  0  0  0  0  0  0  0  0  0  0
   -9.3100    5.1430  -25.6760 H   0  0  0  0  0  0  0  0  0  0  0  0
   -9.6400    3.5700  -26.4150 H   0  0  0  0  0  0  0  0  0  0  0  0
  -11.7630    3.3830  -25.0860 H   0  0  0  0  0  0  0  0  0  0  0  0
  -11.4150    4.9460  -24.3060 H   0  0  0  0  0  0  0  0  0  0  0  0
  -11.7030    4.8910  -26.0470 H   0  0  0  0  0  0  0  0  0  0  0  0
  1  2  1  0  0  0  0
  1 60  1  0  0  0  0
  1 61  1  0  0  0  0
  1 62  1  0  0  0  0
  2  3  1  0  0  0  0
  2 58  1  0  0  0  0
  2 59  1  0  0  0  0
  3  4  1  0  0  0  0
  3  7  1  0  0  0  0
  4  5  2  0  0  0  0
  5  6  1  0  0  0  0
  5 57  1  0  0  0  0
  6  7  2  0  0  0  0
  6 56  1  0  0  0  0
  7  8  1  0  0  0  0
  8  9  1  0  0  0  0
  8 54  1  0  0  0  0
  8 55  1  0  0  0  0
  9 10  1  0  0  0  0
  9 47  1  0  0  0  0
 10 11  1  0  0  0  0
 10 52  1  0  0  0  0
 10 53  1  0  0  0  0
 11 12  1  1  0  0  0
 11 32  1  0  0  0  0
 11 40  1  0  0  0  0
 12 13  2  0  0  0  0
 12 14  1  0  0  0  0
 14 15  1  0  0  0  0
 14 31  1  0  0  0  0
 15 16  2  0  0  0  0
 15 24  1  0  0  0  0
 16 17  1  0  0  0  0
 16 30  1  0  0  0  0
 17 18  2  0  0  0  0
 18 19  1  0  0  0  0
 18 29  1  0  0  0  0
 19 20  2  0  0  0  0
 19 24  1  0  0  0  0
 20 21  1  0  0  0  0
 20 28  1  0  0  0  0
 21 22  2  0  0  0  0
 21 27  1  0  0  0  0
 22 23  1  0  0  0  0
 22 26  1  0  0  0  0
 23 24  2  0  0  0  0
 23 25  1  0  0  0  0
 31 32  1  0  0  0  0
 31 38  1  0  0  0  0
 31 39  1  0  0  0  0
 32 33  1  0  0  0  0
 32 37  1  1  0  0  0
 33 34  1  0  0  0  0
 33 35  1  0  0  0  0
 33 36  1  0  0  0  0
 40 41  2  0  0  0  0
 40 46  1  0  0  0  0
 41 42  1  0  0  0  0
 41 51  1  0  0  0  0
 42 43  1  0  0  0  0
 42 44  2  0  0  0  0
 44 45  1  0  0  0  0
 44 50  1  0  0  0  0
 45 46  2  0  0  0  0
 45 49  1  0  0  0  0
 46 47  1  0  0  0  0
 47 48  2  0  0  0  0
M  END
>  <MODEL>
       1

$$$$
