tmp_first_model_8_90.pdb
 OpenBabel08272521063D

 64 68  0  0  1  0  0  0  0  0999 V2000
   -7.4710    3.3150  -21.8130 C   0  0  0  0  0  0  0  0  0  0  0  0
   -8.5070    2.8280  -22.7150 N   0  0  0  0  0  0  0  0  0  0  0  0
   -8.0880    2.0980  -23.7890 C   0  0  0  0  0  0  0  0  0  0  0  0
   -6.9000    1.8960  -24.0160 O   0  0  0  0  0  0  0  0  0  0  0  0
   -9.1500    1.5140  -24.7220 C   0  0  0  0  0  0  0  0  0  0  0  0
   -9.7230    0.3210  -24.1380 N   0  0  0  0  0  0  0  0  0  0  0  0
   -8.9130   -0.8820  -24.0560 C   0  0  0  0  0  0  0  0  0  0  0  0
   -9.1690   -1.6560  -22.7450 C   0  0  2  0  0  0  0  0  0  0  0  0
   -8.6180   -0.8540  -21.5440 C   0  0  0  0  0  0  0  0  0  0  0  0
   -9.1230    0.1060  -21.0030 O   0  0  0  0  0  0  0  0  0  0  0  0
   -7.4080   -1.4050  -21.1870 N   0  0  0  0  0  0  0  0  0  0  0  0
   -6.6160   -0.8230  -20.1700 C   0  0  0  0  0  0  0  0  0  0  0  0
   -6.9290   -1.0550  -18.8560 C   0  0  0  0  0  0  0  0  0  0  0  0
   -6.2240   -0.5740  -17.8060 N   0  0  0  0  0  0  0  0  0  0  0  0
   -5.1910    0.1890  -18.0730 C   0  0  0  0  0  0  0  0  0  0  0  0
   -4.7650    0.5230  -19.3900 C   0  0  0  0  0  0  0  0  0  0  0  0
   -3.6460    1.3650  -19.6260 C   0  0  0  0  0  0  0  0  0  0  0  0
   -3.2790    1.6900  -20.9030 C   0  0  0  0  0  0  0  0  0  0  0  0
   -4.0150    1.1960  -22.0010 C   0  0  0  0  0  0  0  0  0  0  0  0
   -5.0920    0.3640  -21.8030 C   0  0  0  0  0  0  0  0  0  0  0  0
   -5.4940    0.0030  -20.4870 C   0  0  0  0  0  0  0  0  0  0  0  0
   -5.6520    0.0120  -22.6650 H   0  0  0  0  0  0  0  0  0  0  0  0
   -3.7110    1.4550  -23.0110 H   0  0  0  0  0  0  0  0  0  0  0  0
   -2.4190    2.3270  -21.0820 H   0  0  0  0  0  0  0  0  0  0  0  0
   -3.1040    1.7530  -18.7680 H   0  0  0  0  0  0  0  0  0  0  0  0
   -4.6240    0.5820  -17.2270 H   0  0  0  0  0  0  0  0  0  0  0  0
   -7.7930   -1.6700  -18.6160 H   0  0  0  0  0  0  0  0  0  0  0  0
   -7.0100   -2.5580  -21.9620 C   0  0  0  0  0  0  0  0  0  0  0  0
   -8.3130   -2.9530  -22.6820 C   0  0  2  0  0  0  0  0  0  0  0  0
   -8.0760   -3.6830  -24.0060 C   0  0  0  0  0  0  0  0  0  0  0  0
   -7.3190   -5.2690  -23.6920 S   0  0  0  0  0  0  0  0  0  0  0  0
   -5.9120   -5.0990  -23.3540 O   0  0  0  0  0  0  0  0  0  0  0  0
   -8.1940   -5.9760  -22.7710 O   0  0  0  0  0  0  0  0  0  0  0  0
   -7.3070   -5.9590  -25.2140 N   0  0  0  0  0  0  0  0  0  0  0  0
   -8.5380   -6.4320  -25.8460 C   0  0  0  0  0  0  0  0  0  0  0  0
   -9.1380   -5.5880  -26.1990 H   0  0  0  0  0  0  0  0  0  0  0  0
   -8.2560   -7.0030  -26.7370 H   0  0  0  0  0  0  0  0  0  0  0  0
   -9.1440   -7.0690  -25.1920 H   0  0  0  0  0  0  0  0  0  0  0  0
   -6.5670   -6.6500  -25.2100 H   0  0  0  0  0  0  0  0  0  0  0  0
   -7.4200   -3.1360  -24.6840 H   0  0  0  0  0  0  0  0  0  0  0  0
   -9.0210   -3.8630  -24.5280 H   0  0  0  0  0  0  0  0  0  0  0  0
   -8.8320   -3.6670  -22.0440 H   0  0  0  0  0  0  0  0  0  0  0  0
   -6.6460   -3.3550  -21.3090 H   0  0  0  0  0  0  0  0  0  0  0  0
   -6.2010   -2.3180  -22.6690 H   0  0  0  0  0  0  0  0  0  0  0  0
  -10.6680   -1.8300  -22.6110 C   0  0  0  0  0  0  0  0  0  0  0  0
  -11.2160   -2.8300  -21.8060 C   0  0  0  0  0  0  0  0  0  0  0  0
  -12.5830   -2.8720  -21.6170 C   0  0  0  0  0  0  0  0  0  0  0  0
  -13.0850   -3.7910  -20.7820 F   0  0  0  0  0  0  0  0  0  0  0  0
  -13.4760   -2.0010  -22.2280 C   0  0  0  0  0  0  0  0  0  0  0  0
  -12.9360   -1.0090  -23.0130 C   0  0  0  0  0  0  0  0  0  0  0  0
  -11.5580   -0.9000  -23.1700 C   0  0  0  0  0  0  0  0  0  0  0  0
  -11.0640    0.2980  -23.9080 C   0  0  0  0  0  0  0  0  0  0  0  0
  -11.8080    1.2060  -24.2610 O   0  0  0  0  0  0  0  0  0  0  0  0
  -13.5540   -0.2700  -23.5040 H   0  0  0  0  0  0  0  0  0  0  0  0
  -14.5440   -2.1000  -22.0600 H   0  0  0  0  0  0  0  0  0  0  0  0
  -10.6020   -3.5690  -21.3030 H   0  0  0  0  0  0  0  0  0  0  0  0
   -7.8590   -0.6000  -24.1350 H   0  0  0  0  0  0  0  0  0  0  0  0
   -9.1490   -1.5410  -24.9000 H   0  0  0  0  0  0  0  0  0  0  0  0
   -9.9830    2.1980  -24.9220 H   0  0  0  0  0  0  0  0  0  0  0  0
   -8.6490    1.2630  -25.6660 H   0  0  0  0  0  0  0  0  0  0  0  0
   -9.4300    2.6860  -22.3200 H   0  0  0  0  0  0  0  0  0  0  0  0
   -6.8300    4.0340  -22.3330 H   0  0  0  0  0  0  0  0  0  0  0  0
   -6.8680    2.4640  -21.4590 H   0  0  0  0  0  0  0  0  0  0  0  0
   -7.9260    3.8480  -20.9740 H   0  0  0  0  0  0  0  0  0  0  0  0
  1  2  1  0  0  0  0
  1 62  1  0  0  0  0
  1 63  1  0  0  0  0
  1 64  1  0  0  0  0
  2  3  1  0  0  0  0
  2 61  1  0  0  0  0
  3  4  2  0  0  0  0
  3  5  1  0  0  0  0
  5  6  1  0  0  0  0
  5 59  1  0  0  0  0
  5 60  1  0  0  0  0
  6  7  1  0  0  0  0
  6 52  1  0  0  0  0
  7  8  1  0  0  0  0
  7 57  1  0  0  0  0
  7 58  1  0  0  0  0
  8  9  1  1  0  0  0
  8 29  1  0  0  0  0
  8 45  1  0  0  0  0
  9 10  2  0  0  0  0
  9 11  1  0  0  0  0
 11 12  1  0  0  0  0
 11 28  1  0  0  0  0
 12 13  2  0  0  0  0
 12 21  1  0  0  0  0
 13 14  1  0  0  0  0
 13 27  1  0  0  0  0
 14 15  2  0  0  0  0
 15 16  1  0  0  0  0
 15 26  1  0  0  0  0
 16 17  2  0  0  0  0
 16 21  1  0  0  0  0
 17 18  1  0  0  0  0
 17 25  1  0  0  0  0
 18 19  2  0  0  0  0
 18 24  1  0  0  0  0
 19 20  1  0  0  0  0
 19 23  1  0  0  0  0
 20 21  2  0  0  0  0
 20 22  1  0  0  0  0
 28 29  1  0  0  0  0
 28 43  1  0  0  0  0
 28 44  1  0  0  0  0
 29 30  1  0  0  0  0
 29 42  1  1  0  0  0
 30 31  1  0  0  0  0
 30 40  1  0  0  0  0
 30 41  1  0  0  0  0
 31 32  2  0  0  0  0
 31 33  2  0  0  0  0
 31 34  1  0  0  0  0
 34 35  1  0  0  0  0
 34 39  1  0  0  0  0
 35 36  1  0  0  0  0
 35 37  1  0  0  0  0
 35 38  1  0  0  0  0
 45 46  2  0  0  0  0
 45 51  1  0  0  0  0
 46 47  1  0  0  0  0
 46 56  1  0  0  0  0
 47 48  1  0  0  0  0
 47 49  2  0  0  0  0
 49 50  1  0  0  0  0
 49 55  1  0  0  0  0
 50 51  2  0  0  0  0
 50 54  1  0  0  0  0
 51 52  1  0  0  0  0
 52 53  2  0  0  0  0
M  END
>  <MODEL>
       1

$$$$
