tmp_first_model_16_81.pdb
 OpenBabel08282501503D

 36 38  0  0  0  0  0  0  0  0999 V2000
   -8.9400    0.4530  -21.2070 O   0  0  0  0  0  0  0  0  0  0  0  0
   -8.3740   -0.3560  -21.9240 C   0  0  0  0  0  0  0  0  0  0  0  0
   -7.4340   -1.3920  -21.3090 C   0  0  0  0  0  0  0  0  0  0  0  0
   -6.5970   -0.8230  -20.2050 C   0  0  0  0  0  0  0  0  0  0  0  0
   -6.9150   -1.0730  -18.8980 C   0  0  0  0  0  0  0  0  0  0  0  0
   -6.1700   -0.6900  -17.8300 N   0  0  0  0  0  0  0  0  0  0  0  0
   -5.0970    0.0240  -18.0750 C   0  0  0  0  0  0  0  0  0  0  0  0
   -4.7020    0.4510  -19.3800 C   0  0  0  0  0  0  0  0  0  0  0  0
   -3.6020    1.3220  -19.6090 C   0  0  0  0  0  0  0  0  0  0  0  0
   -3.2270    1.6420  -20.8860 C   0  0  0  0  0  0  0  0  0  0  0  0
   -3.9380    1.1250  -21.9920 C   0  0  0  0  0  0  0  0  0  0  0  0
   -5.0320    0.3220  -21.7960 C   0  0  0  0  0  0  0  0  0  0  0  0
   -5.4550   -0.0170  -20.4810 C   0  0  0  0  0  0  0  0  0  0  0  0
   -5.5780   -0.0610  -22.6540 H   0  0  0  0  0  0  0  0  0  0  0  0
   -3.6120    1.3640  -23.0010 H   0  0  0  0  0  0  0  0  0  0  0  0
   -2.3700    2.2820  -21.0640 H   0  0  0  0  0  0  0  0  0  0  0  0
   -3.0820    1.7380  -18.7490 H   0  0  0  0  0  0  0  0  0  0  0  0
   -4.4790    0.2950  -17.2140 H   0  0  0  0  0  0  0  0  0  0  0  0
   -7.8020   -1.6610  -18.6530 H   0  0  0  0  0  0  0  0  0  0  0  0
   -8.0910   -2.1590  -20.8860 H   0  0  0  0  0  0  0  0  0  0  0  0
   -6.8170   -1.8950  -22.0590 H   0  0  0  0  0  0  0  0  0  0  0  0
   -8.5780   -0.3820  -23.2890 N   0  0  0  0  0  0  0  0  0  0  0  0
   -8.1610   -1.4720  -24.1600 C   0  0  0  0  0  0  0  0  0  0  0  0
   -8.9350   -2.7570  -23.9560 C   0  0  0  0  0  0  0  0  0  0  0  0
  -10.2570   -2.8460  -23.7780 C   0  0  0  0  0  0  0  0  0  0  0  0
  -11.2330   -1.7430  -23.7320 C   0  0  0  0  0  0  0  0  0  0  0  0
  -11.0260   -0.4200  -23.7290 C   0  0  0  0  0  0  0  0  0  0  0  0
   -9.7310    0.3530  -23.7780 C   0  0  0  0  0  0  0  0  0  0  0  0
   -9.5170    0.6620  -24.8150 H   0  0  0  0  0  0  0  0  0  0  0  0
   -9.8270    1.2600  -23.1740 H   0  0  0  0  0  0  0  0  0  0  0  0
  -11.9070    0.2170  -23.7100 H   0  0  0  0  0  0  0  0  0  0  0  0
  -12.2670   -2.0880  -23.7070 H   0  0  0  0  0  0  0  0  0  0  0  0
  -10.7080   -3.8350  -23.6940 H   0  0  0  0  0  0  0  0  0  0  0  0
   -8.3580   -3.6790  -24.0010 H   0  0  0  0  0  0  0  0  0  0  0  0
   -8.3210   -1.0940  -25.1830 H   0  0  0  0  0  0  0  0  0  0  0  0
   -7.0790   -1.6560  -24.0700 H   0  0  0  0  0  0  0  0  0  0  0  0
  1  2  2  0  0  0  0
  2  3  1  0  0  0  0
  2 22  1  0  0  0  0
  3  4  1  0  0  0  0
  3 20  1  0  0  0  0
  3 21  1  0  0  0  0
  4  5  2  0  0  0  0
  4 13  1  0  0  0  0
  5  6  1  0  0  0  0
  5 19  1  0  0  0  0
  6  7  2  0  0  0  0
  7  8  1  0  0  0  0
  7 18  1  0  0  0  0
  8  9  2  0  0  0  0
  8 13  1  0  0  0  0
  9 10  1  0  0  0  0
  9 17  1  0  0  0  0
 10 11  2  0  0  0  0
 10 16  1  0  0  0  0
 11 12  1  0  0  0  0
 11 15  1  0  0  0  0
 12 13  2  0  0  0  0
 12 14  1  0  0  0  0
 22 23  1  0  0  0  0
 22 28  1  0  0  0  0
 23 24  1  0  0  0  0
 23 35  1  0  0  0  0
 23 36  1  0  0  0  0
 24 25  2  0  0  0  0
 24 34  1  0  0  0  0
 25 26  1  0  0  0  0
 25 33  1  0  0  0  0
 26 27  2  0  0  0  0
 26 32  1  0  0  0  0
 27 28  1  0  0  0  0
 27 31  1  0  0  0  0
 28 29  1  0  0  0  0
 28 30  1  0  0  0  0
M  END
>  <MODEL>
       1

$$$$
