tmp_first_model_17_20.pdb
 OpenBabel08282502223D

 66 71  0  0  1  0  0  0  0  0999 V2000
   -7.4400    3.3390  -21.7310 C   0  0  0  0  0  0  0  0  0  0  0  0
   -8.3390    2.8970  -22.7800 N   0  0  0  0  0  0  0  0  0  0  0  0
   -7.7870    2.2130  -23.8090 C   0  0  0  0  0  0  0  0  0  0  0  0
   -6.5750    2.1140  -23.9430 O   0  0  0  0  0  0  0  0  0  0  0  0
   -8.7370    1.5900  -24.8280 C   0  0  0  0  0  0  0  0  0  0  0  0
   -9.4440    0.4270  -24.3370 N   0  0  0  0  0  0  0  0  0  0  0  0
   -8.7030   -0.8110  -24.1980 C   0  0  0  0  0  0  0  0  0  0  0  0
   -9.0650   -1.5380  -22.8840 C   0  0  2  0  0  0  0  0  0  0  0  0
   -8.5270   -0.7510  -21.6610 C   0  0  0  0  0  0  0  0  0  0  0  0
   -8.9990    0.2550  -21.1640 O   0  0  0  0  0  0  0  0  0  0  0  0
   -7.3960   -1.3840  -21.2000 N   0  0  0  0  0  0  0  0  0  0  0  0
   -6.6020   -0.8140  -20.1700 C   0  0  0  0  0  0  0  0  0  0  0  0
   -6.9130   -1.0430  -18.8540 C   0  0  0  0  0  0  0  0  0  0  0  0
   -6.2120   -0.5460  -17.8040 N   0  0  0  0  0  0  0  0  0  0  0  0
   -5.1730    0.2060  -18.0740 C   0  0  0  0  0  0  0  0  0  0  0  0
   -4.7350    0.5300  -19.3910 C   0  0  0  0  0  0  0  0  0  0  0  0
   -3.6120    1.3680  -19.6370 C   0  0  0  0  0  0  0  0  0  0  0  0
   -3.2330    1.6650  -20.9160 C   0  0  0  0  0  0  0  0  0  0  0  0
   -3.9560    1.1400  -22.0110 C   0  0  0  0  0  0  0  0  0  0  0  0
   -5.0440    0.3270  -21.8000 C   0  0  0  0  0  0  0  0  0  0  0  0
   -5.4670    0.0020  -20.4820 C   0  0  0  0  0  0  0  0  0  0  0  0
   -5.6000   -0.0580  -22.6500 H   0  0  0  0  0  0  0  0  0  0  0  0
   -3.6540    1.3830  -23.0240 H   0  0  0  0  0  0  0  0  0  0  0  0
   -2.3740    2.3050  -21.0990 H   0  0  0  0  0  0  0  0  0  0  0  0
   -3.0720    1.7700  -18.7830 H   0  0  0  0  0  0  0  0  0  0  0  0
   -4.6180    0.6090  -17.2250 H   0  0  0  0  0  0  0  0  0  0  0  0
   -7.7660   -1.6680  -18.6020 H   0  0  0  0  0  0  0  0  0  0  0  0
   -7.0480   -2.5850  -21.9330 C   0  0  0  0  0  0  0  0  0  0  0  0
   -8.3150   -2.8990  -22.7480 C   0  0  2  0  0  0  0  0  0  0  0  0
   -8.0210   -3.6760  -24.0480 C   0  0  0  0  0  0  0  0  0  0  0  0
   -7.4640   -5.0600  -23.7880 C   0  0  0  0  0  0  0  0  0  0  0  0
   -6.0870   -5.3050  -23.7770 C   0  0  0  0  0  0  0  0  0  0  0  0
   -5.5860   -6.5750  -23.4970 C   0  0  0  0  0  0  0  0  0  0  0  0
   -6.4590   -7.6250  -23.2230 C   0  0  0  0  0  0  0  0  0  0  0  0
   -7.8320   -7.3990  -23.2460 C   0  0  0  0  0  0  0  0  0  0  0  0
   -8.3270   -6.1250  -23.5160 C   0  0  0  0  0  0  0  0  0  0  0  0
   -9.4020   -5.9390  -23.5140 H   0  0  0  0  0  0  0  0  0  0  0  0
   -8.5150   -8.2240  -23.0510 H   0  0  0  0  0  0  0  0  0  0  0  0
   -6.0730   -8.6160  -22.9920 H   0  0  0  0  0  0  0  0  0  0  0  0
   -4.5120   -6.7500  -23.4950 H   0  0  0  0  0  0  0  0  0  0  0  0
   -5.3980   -4.4880  -23.9920 H   0  0  0  0  0  0  0  0  0  0  0  0
   -8.9460   -3.7580  -24.6360 H   0  0  0  0  0  0  0  0  0  0  0  0
   -7.3060   -3.1050  -24.6560 H   0  0  0  0  0  0  0  0  0  0  0  0
   -8.9560   -3.5400  -22.1360 H   0  0  0  0  0  0  0  0  0  0  0  0
   -6.7810   -3.4000  -21.2510 H   0  0  0  0  0  0  0  0  0  0  0  0
   -6.1840   -2.4120  -22.5940 H   0  0  0  0  0  0  0  0  0  0  0  0
  -10.5760   -1.6180  -22.8110 C   0  0  0  0  0  0  0  0  0  0  0  0
  -11.1690   -2.5210  -21.9290 C   0  0  0  0  0  0  0  0  0  0  0  0
  -12.5380   -2.5440  -21.7650 C   0  0  0  0  0  0  0  0  0  0  0  0
  -13.1690   -3.5630  -20.5030 Cl  0  0  0  0  0  0  0  0  0  0  0  0
  -13.3740   -1.7160  -22.5180 C   0  0  0  0  0  0  0  0  0  0  0  0
  -12.7920   -0.7840  -23.3570 C   0  0  0  0  0  0  0  0  0  0  0  0
  -11.4030   -0.7010  -23.4710 C   0  0  0  0  0  0  0  0  0  0  0  0
  -10.8110    0.4500  -24.2260 C   0  0  0  0  0  0  0  0  0  0  0  0
  -11.5000    1.3580  -24.6690 O   0  0  0  0  0  0  0  0  0  0  0  0
  -13.3860   -0.0630  -23.9100 H   0  0  0  0  0  0  0  0  0  0  0  0
  -14.4510   -1.7820  -22.4210 H   0  0  0  0  0  0  0  0  0  0  0  0
  -10.5700   -3.1840  -21.3180 H   0  0  0  0  0  0  0  0  0  0  0  0
   -7.6360   -0.5580  -24.2010 H   0  0  0  0  0  0  0  0  0  0  0  0
   -8.9240   -1.4850  -25.0400 H   0  0  0  0  0  0  0  0  0  0  0  0
   -8.1130    1.3310  -25.6940 H   0  0  0  0  0  0  0  0  0  0  0  0
   -9.5140    2.2940  -25.1170 H   0  0  0  0  0  0  0  0  0  0  0  0
   -9.3250    2.7920  -22.5950 H   0  0  0  0  0  0  0  0  0  0  0  0
   -8.0110    3.7320  -20.8950 H   0  0  0  0  0  0  0  0  0  0  0  0
   -6.7750    4.1190  -22.1090 H   0  0  0  0  0  0  0  0  0  0  0  0
   -6.8200    2.4960  -21.4020 H   0  0  0  0  0  0  0  0  0  0  0  0
  1  2  1  0  0  0  0
  1 64  1  0  0  0  0
  1 65  1  0  0  0  0
  1 66  1  0  0  0  0
  2  3  1  0  0  0  0
  2 63  1  0  0  0  0
  3  4  2  0  0  0  0
  3  5  1  0  0  0  0
  5  6  1  0  0  0  0
  5 61  1  0  0  0  0
  5 62  1  0  0  0  0
  6  7  1  0  0  0  0
  6 54  1  0  0  0  0
  7  8  1  0  0  0  0
  7 59  1  0  0  0  0
  7 60  1  0  0  0  0
  8  9  1  1  0  0  0
  8 29  1  0  0  0  0
  8 47  1  0  0  0  0
  9 10  2  0  0  0  0
  9 11  1  0  0  0  0
 11 12  1  0  0  0  0
 11 28  1  0  0  0  0
 12 13  2  0  0  0  0
 12 21  1  0  0  0  0
 13 14  1  0  0  0  0
 13 27  1  0  0  0  0
 14 15  2  0  0  0  0
 15 16  1  0  0  0  0
 15 26  1  0  0  0  0
 16 17  2  0  0  0  0
 16 21  1  0  0  0  0
 17 18  1  0  0  0  0
 17 25  1  0  0  0  0
 18 19  2  0  0  0  0
 18 24  1  0  0  0  0
 19 20  1  0  0  0  0
 19 23  1  0  0  0  0
 20 21  2  0  0  0  0
 20 22  1  0  0  0  0
 28 29  1  0  0  0  0
 28 45  1  0  0  0  0
 28 46  1  0  0  0  0
 29 30  1  0  0  0  0
 29 44  1  1  0  0  0
 30 31  1  0  0  0  0
 30 42  1  0  0  0  0
 30 43  1  0  0  0  0
 31 32  2  0  0  0  0
 31 36  1  0  0  0  0
 32 33  1  0  0  0  0
 32 41  1  0  0  0  0
 33 34  2  0  0  0  0
 33 40  1  0  0  0  0
 34 35  1  0  0  0  0
 34 39  1  0  0  0  0
 35 36  2  0  0  0  0
 35 38  1  0  0  0  0
 36 37  1  0  0  0  0
 47 48  2  0  0  0  0
 47 53  1  0  0  0  0
 48 49  1  0  0  0  0
 48 58  1  0  0  0  0
 49 50  1  0  0  0  0
 49 51  2  0  0  0  0
 51 52  1  0  0  0  0
 51 57  1  0  0  0  0
 52 53  2  0  0  0  0
 52 56  1  0  0  0  0
 53 54  1  0  0  0  0
 54 55  2  0  0  0  0
M  END
>  <MODEL>
       1

$$$$
