tmp_first_model_4_27.pdb
 OpenBabel08272518513D

 58 62  0  0  1  0  0  0  0  0999 V2000
   -7.0740    3.4580  -22.0260 C   0  0  0  0  0  0  0  0  0  0  0  0
   -7.4450    2.4010  -22.9650 N   0  3  0  0  0  0  0  0  0  0  0  0
   -8.4690    2.8020  -23.9540 C   0  0  0  0  0  0  0  0  0  0  0  0
   -8.7310    1.6840  -24.9610 C   0  0  0  0  0  0  0  0  0  0  0  0
   -9.3770    0.5320  -24.3430 N   0  0  0  0  0  0  0  0  0  0  0  0
   -8.6620   -0.7200  -24.1830 C   0  0  0  0  0  0  0  0  0  0  0  0
   -9.0490   -1.4650  -22.8770 C   0  0  2  0  0  0  0  0  0  0  0  0
   -8.3870   -0.6830  -21.7140 C   0  0  0  0  0  0  0  0  0  0  0  0
   -8.5930    0.4910  -21.4300 O   0  0  0  0  0  0  0  0  0  0  0  0
   -7.4150   -1.4610  -21.1450 N   0  0  0  0  0  0  0  0  0  0  0  0
   -6.5120   -0.9780  -20.1600 C   0  0  0  0  0  0  0  0  0  0  0  0
   -6.6960   -1.3470  -18.8500 C   0  0  0  0  0  0  0  0  0  0  0  0
   -5.7860   -1.1450  -17.8720 N   0  0  0  0  0  0  0  0  0  0  0  0
   -4.6720   -0.5450  -18.2080 C   0  0  0  0  0  0  0  0  0  0  0  0
   -4.3960   -0.0300  -19.5090 C   0  0  0  0  0  0  0  0  0  0  0  0
   -3.1980    0.6860  -19.7900 C   0  0  0  0  0  0  0  0  0  0  0  0
   -2.9850    1.2230  -21.0300 C   0  0  0  0  0  0  0  0  0  0  0  0
   -3.9350    1.0280  -22.0550 C   0  0  0  0  0  0  0  0  0  0  0  0
   -5.0550    0.2600  -21.8320 C   0  0  0  0  0  0  0  0  0  0  0  0
   -5.3430   -0.2440  -20.5290 C   0  0  0  0  0  0  0  0  0  0  0  0
   -5.6940   -0.0190  -22.6620 H   0  0  0  0  0  0  0  0  0  0  0  0
   -3.7830    1.4900  -23.0260 H   0  0  0  0  0  0  0  0  0  0  0  0
   -2.0950    1.8180  -21.2250 H   0  0  0  0  0  0  0  0  0  0  0  0
   -2.5080    0.8610  -18.9730 H   0  0  0  0  0  0  0  0  0  0  0  0
   -3.9250   -0.4190  -17.4270 H   0  0  0  0  0  0  0  0  0  0  0  0
   -7.6220   -1.8190  -18.5350 H   0  0  0  0  0  0  0  0  0  0  0  0
   -7.0500   -2.5950  -21.9720 C   0  0  0  0  0  0  0  0  0  0  0  0
   -8.3310   -2.8480  -22.7770 C   0  0  2  0  0  0  0  0  0  0  0  0
   -8.0410   -3.5670  -24.0920 C   0  0  0  0  0  0  0  0  0  0  0  0
   -7.5730   -4.5420  -23.9130 H   0  0  0  0  0  0  0  0  0  0  0  0
   -8.9500   -3.7290  -24.6810 H   0  0  0  0  0  0  0  0  0  0  0  0
   -7.3430   -2.9880  -24.7100 H   0  0  0  0  0  0  0  0  0  0  0  0
   -8.9510   -3.4940  -22.1550 H   0  0  0  0  0  0  0  0  0  0  0  0
   -6.7430   -3.4520  -21.3640 H   0  0  0  0  0  0  0  0  0  0  0  0
   -6.2040   -2.3640  -22.6400 H   0  0  0  0  0  0  0  0  0  0  0  0
  -10.5710   -1.5230  -22.7820 C   0  0  0  0  0  0  0  0  0  0  0  0
  -11.2400   -2.5180  -22.0460 C   0  0  0  0  0  0  0  0  0  0  0  0
  -12.6190   -2.5230  -21.9860 C   0  0  0  0  0  0  0  0  0  0  0  0
  -13.2330   -3.4860  -21.2730 F   0  0  0  0  0  0  0  0  0  0  0  0
  -13.3950   -1.5690  -22.6320 C   0  0  0  0  0  0  0  0  0  0  0  0
  -12.7490   -0.5750  -23.3410 C   0  0  0  0  0  0  0  0  0  0  0  0
  -11.3540   -0.5390  -23.4090 C   0  0  0  0  0  0  0  0  0  0  0  0
  -10.7290    0.6050  -24.1580 C   0  0  0  0  0  0  0  0  0  0  0  0
  -11.3960    1.5450  -24.5720 O   0  0  0  0  0  0  0  0  0  0  0  0
  -13.3140    0.1990  -23.8520 H   0  0  0  0  0  0  0  0  0  0  0  0
  -14.4750   -1.6160  -22.5540 H   0  0  0  0  0  0  0  0  0  0  0  0
  -10.7160   -3.2900  -21.4910 H   0  0  0  0  0  0  0  0  0  0  0  0
   -8.8680   -1.3680  -25.0430 H   0  0  0  0  0  0  0  0  0  0  0  0
   -7.5860   -0.5130  -24.1550 H   0  0  0  0  0  0  0  0  0  0  0  0
   -7.7910    1.3570  -25.4220 H   0  0  0  0  0  0  0  0  0  0  0  0
   -9.3970    2.0410  -25.7510 H   0  0  0  0  0  0  0  0  0  0  0  0
   -9.4070    3.0380  -23.4450 H   0  0  0  0  0  0  0  0  0  0  0  0
   -8.1510    3.7130  -24.4740 H   0  0  0  0  0  0  0  0  0  0  0  0
   -6.5830    2.1230  -23.4690 H   0  0  0  0  0  0  0  0  0  0  0  0
   -7.7890    1.5790  -22.4340 H   0  0  0  0  0  0  0  0  0  0  0  0
   -6.1980    3.1490  -21.4500 H   0  0  0  0  0  0  0  0  0  0  0  0
   -7.8990    3.6650  -21.3430 H   0  0  0  0  0  0  0  0  0  0  0  0
   -6.8360    4.3880  -22.5540 H   0  0  0  0  0  0  0  0  0  0  0  0
  1  2  1  0  0  0  0
  1 56  1  0  0  0  0
  1 57  1  0  0  0  0
  1 58  1  0  0  0  0
  2  3  1  0  0  0  0
  2 54  1  0  0  0  0
  2 55  1  0  0  0  0
  3  4  1  0  0  0  0
  3 52  1  0  0  0  0
  3 53  1  0  0  0  0
  4  5  1  0  0  0  0
  4 50  1  0  0  0  0
  4 51  1  0  0  0  0
  5  6  1  0  0  0  0
  5 43  1  0  0  0  0
  6  7  1  0  0  0  0
  6 48  1  0  0  0  0
  6 49  1  0  0  0  0
  7  8  1  1  0  0  0
  7 28  1  0  0  0  0
  7 36  1  0  0  0  0
  8  9  2  0  0  0  0
  8 10  1  0  0  0  0
 10 11  1  0  0  0  0
 10 27  1  0  0  0  0
 11 12  2  0  0  0  0
 11 20  1  0  0  0  0
 12 13  1  0  0  0  0
 12 26  1  0  0  0  0
 13 14  2  0  0  0  0
 14 15  1  0  0  0  0
 14 25  1  0  0  0  0
 15 16  2  0  0  0  0
 15 20  1  0  0  0  0
 16 17  1  0  0  0  0
 16 24  1  0  0  0  0
 17 18  2  0  0  0  0
 17 23  1  0  0  0  0
 18 19  1  0  0  0  0
 18 22  1  0  0  0  0
 19 20  2  0  0  0  0
 19 21  1  0  0  0  0
 27 28  1  0  0  0  0
 27 34  1  0  0  0  0
 27 35  1  0  0  0  0
 28 29  1  0  0  0  0
 28 33  1  1  0  0  0
 29 30  1  0  0  0  0
 29 31  1  0  0  0  0
 29 32  1  0  0  0  0
 36 37  2  0  0  0  0
 36 42  1  0  0  0  0
 37 38  1  0  0  0  0
 37 47  1  0  0  0  0
 38 39  1  0  0  0  0
 38 40  2  0  0  0  0
 40 41  1  0  0  0  0
 40 46  1  0  0  0  0
 41 42  2  0  0  0  0
 41 45  1  0  0  0  0
 42 43  1  0  0  0  0
 43 44  2  0  0  0  0
M  CHG  1   2   1
M  END
>  <MODEL>
       1

$$$$
