tmp_first_model_5_52.pdb
 OpenBabel08272519233D

 57 60  0  0  0  0  0  0  0  0999 V2000
   -2.4290   -6.6100  -28.2520 C   0  0  0  0  0  0  0  0  0  0  0  0
   -3.6520   -5.6900  -28.2830 C   0  0  0  0  0  0  0  0  0  0  0  0
   -4.1290   -5.3060  -26.8960 C   0  0  0  0  0  0  0  0  0  0  0  0
   -3.7540   -4.3000  -26.3240 O   0  0  0  0  0  0  0  0  0  0  0  0
   -4.9920   -6.2060  -26.3230 N   0  0  0  0  0  0  0  0  0  0  0  0
   -5.6460   -6.0020  -25.0910 C   0  0  0  0  0  0  0  0  0  0  0  0
   -5.8790   -7.0960  -24.2560 C   0  0  0  0  0  0  0  0  0  0  0  0
   -6.5360   -6.9130  -23.0460 C   0  0  0  0  0  0  0  0  0  0  0  0
   -6.9600   -5.6470  -22.6610 C   0  0  0  0  0  0  0  0  0  0  0  0
   -6.7260   -4.5650  -23.5080 C   0  0  0  0  0  0  0  0  0  0  0  0
   -7.1530   -3.2620  -23.1320 N   0  0  0  0  0  0  0  0  0  0  0  0
   -8.1330   -2.5830  -23.9740 C   0  0  0  0  0  0  0  0  0  0  0  0
   -9.5470   -2.6840  -23.4400 C   0  0  0  0  0  0  0  0  0  0  0  0
  -10.1430   -3.9360  -23.2780 C   0  0  0  0  0  0  0  0  0  0  0  0
  -11.4420   -4.0410  -22.7910 C   0  0  0  0  0  0  0  0  0  0  0  0
  -12.1560   -2.9010  -22.4360 C   0  0  0  0  0  0  0  0  0  0  0  0
  -11.5660   -1.6530  -22.5980 C   0  0  0  0  0  0  0  0  0  0  0  0
  -10.2740   -1.5470  -23.0990 C   0  0  0  0  0  0  0  0  0  0  0  0
   -9.8260   -0.5590  -23.2100 H   0  0  0  0  0  0  0  0  0  0  0  0
  -12.0980   -0.7470  -22.3390 H   0  0  0  0  0  0  0  0  0  0  0  0
  -13.1650   -2.9880  -22.0420 H   0  0  0  0  0  0  0  0  0  0  0  0
  -11.9000   -5.0190  -22.6950 H   0  0  0  0  0  0  0  0  0  0  0  0
   -9.5840   -4.8370  -23.5340 H   0  0  0  0  0  0  0  0  0  0  0  0
   -8.0890   -3.0580  -24.9600 H   0  0  0  0  0  0  0  0  0  0  0  0
   -7.8440   -1.5360  -24.1160 H   0  0  0  0  0  0  0  0  0  0  0  0
   -6.7000   -2.8110  -21.9030 C   0  0  0  0  0  0  0  0  0  0  0  0
   -5.8120   -3.3920  -21.3050 O   0  0  0  0  0  0  0  0  0  0  0  0
   -7.3680   -1.5700  -21.3160 C   0  0  0  0  0  0  0  0  0  0  0  0
   -6.5350   -0.9820  -20.2300 C   0  0  0  0  0  0  0  0  0  0  0  0
   -6.8260   -1.1650  -18.9060 C   0  0  0  0  0  0  0  0  0  0  0  0
   -6.0020   -0.8470  -17.8750 N   0  0  0  0  0  0  0  0  0  0  0  0
   -4.8360   -0.3320  -18.1920 C   0  0  0  0  0  0  0  0  0  0  0  0
   -4.4350   -0.0270  -19.5200 C   0  0  0  0  0  0  0  0  0  0  0  0
   -3.2640    0.7230  -19.7910 C   0  0  0  0  0  0  0  0  0  0  0  0
   -3.1380    1.3990  -20.9710 C   0  0  0  0  0  0  0  0  0  0  0  0
   -4.0460    1.1450  -22.0350 C   0  0  0  0  0  0  0  0  0  0  0  0
   -5.0720    0.2550  -21.8510 C   0  0  0  0  0  0  0  0  0  0  0  0
   -5.3490   -0.2740  -20.5610 C   0  0  0  0  0  0  0  0  0  0  0  0
   -5.6490   -0.0840  -22.7050 H   0  0  0  0  0  0  0  0  0  0  0  0
   -3.8790    1.6000  -23.0120 H   0  0  0  0  0  0  0  0  0  0  0  0
   -2.2820    2.0380  -21.1550 H   0  0  0  0  0  0  0  0  0  0  0  0
   -2.5600    0.8600  -18.9750 H   0  0  0  0  0  0  0  0  0  0  0  0
   -4.1700   -0.0610  -17.3720 H   0  0  0  0  0  0  0  0  0  0  0  0
   -7.7920   -1.5920  -18.6270 H   0  0  0  0  0  0  0  0  0  0  0  0
   -7.5350   -0.8370  -22.1070 H   0  0  0  0  0  0  0  0  0  0  0  0
   -8.3470   -1.8680  -20.9250 H   0  0  0  0  0  0  0  0  0  0  0  0
   -6.0790   -4.7340  -24.7230 C   0  0  0  0  0  0  0  0  0  0  0  0
   -5.8940   -3.8740  -25.3580 H   0  0  0  0  0  0  0  0  0  0  0  0
   -7.4480   -5.4900  -21.7040 H   0  0  0  0  0  0  0  0  0  0  0  0
   -6.7110   -7.7640  -22.3930 H   0  0  0  0  0  0  0  0  0  0  0  0
   -5.5130   -8.0770  -24.5480 H   0  0  0  0  0  0  0  0  0  0  0  0
   -5.1620   -7.0830  -26.7890 H   0  0  0  0  0  0  0  0  0  0  0  0
   -4.4690   -6.1730  -28.8300 H   0  0  0  0  0  0  0  0  0  0  0  0
   -3.4000   -4.7630  -28.8000 H   0  0  0  0  0  0  0  0  0  0  0  0
   -2.0810   -6.7910  -29.2740 H   0  0  0  0  0  0  0  0  0  0  0  0
   -1.6050   -6.1610  -27.6900 H   0  0  0  0  0  0  0  0  0  0  0  0
   -2.6670   -7.5770  -27.7940 H   0  0  0  0  0  0  0  0  0  0  0  0
  1  2  1  0  0  0  0
  1 55  1  0  0  0  0
  1 56  1  0  0  0  0
  1 57  1  0  0  0  0
  2  3  1  0  0  0  0
  2 53  1  0  0  0  0
  2 54  1  0  0  0  0
  3  4  2  0  0  0  0
  3  5  1  0  0  0  0
  5  6  1  0  0  0  0
  5 52  1  0  0  0  0
  6  7  2  0  0  0  0
  6 47  1  0  0  0  0
  7  8  1  0  0  0  0
  7 51  1  0  0  0  0
  8  9  2  0  0  0  0
  8 50  1  0  0  0  0
  9 10  1  0  0  0  0
  9 49  1  0  0  0  0
 10 11  1  0  0  0  0
 10 47  2  0  0  0  0
 11 12  1  0  0  0  0
 11 26  1  0  0  0  0
 12 13  1  0  0  0  0
 12 24  1  0  0  0  0
 12 25  1  0  0  0  0
 13 14  2  0  0  0  0
 13 18  1  0  0  0  0
 14 15  1  0  0  0  0
 14 23  1  0  0  0  0
 15 16  2  0  0  0  0
 15 22  1  0  0  0  0
 16 17  1  0  0  0  0
 16 21  1  0  0  0  0
 17 18  2  0  0  0  0
 17 20  1  0  0  0  0
 18 19  1  0  0  0  0
 26 27  2  0  0  0  0
 26 28  1  0  0  0  0
 28 29  1  0  0  0  0
 28 45  1  0  0  0  0
 28 46  1  0  0  0  0
 29 30  2  0  0  0  0
 29 38  1  0  0  0  0
 30 31  1  0  0  0  0
 30 44  1  0  0  0  0
 31 32  2  0  0  0  0
 32 33  1  0  0  0  0
 32 43  1  0  0  0  0
 33 34  2  0  0  0  0
 33 38  1  0  0  0  0
 34 35  1  0  0  0  0
 34 42  1  0  0  0  0
 35 36  2  0  0  0  0
 35 41  1  0  0  0  0
 36 37  1  0  0  0  0
 36 40  1  0  0  0  0
 37 38  2  0  0  0  0
 37 39  1  0  0  0  0
 47 48  1  0  0  0  0
M  END
>  <MODEL>
       1

$$$$
