tmp_first_model_8_23.pdb
 OpenBabel08272521063D

 68 73  0  0  1  0  0  0  0  0999 V2000
   -7.3130    3.4100  -21.8470 C   0  0  0  0  0  0  0  0  0  0  0  0
   -8.2740    2.9620  -22.8390 N   0  0  0  0  0  0  0  0  0  0  0  0
   -7.7970    2.2400  -23.8880 C   0  0  0  0  0  0  0  0  0  0  0  0
   -6.6030    2.0100  -24.0260 O   0  0  0  0  0  0  0  0  0  0  0  0
   -8.8240    1.6840  -24.8720 C   0  0  0  0  0  0  0  0  0  0  0  0
   -9.4930    0.5380  -24.2860 N   0  0  0  0  0  0  0  0  0  0  0  0
   -8.7530   -0.7120  -24.1620 C   0  0  0  0  0  0  0  0  0  0  0  0
   -9.1370   -1.4880  -22.8770 C   0  0  2  0  0  0  0  0  0  0  0  0
   -8.5730   -0.7350  -21.6430 C   0  0  0  0  0  0  0  0  0  0  0  0
   -9.0040    0.2810  -21.1310 O   0  0  0  0  0  0  0  0  0  0  0  0
   -7.4490   -1.3970  -21.2100 N   0  0  0  0  0  0  0  0  0  0  0  0
   -6.6360   -0.8320  -20.1940 C   0  0  0  0  0  0  0  0  0  0  0  0
   -6.9500   -1.0620  -18.8790 C   0  0  0  0  0  0  0  0  0  0  0  0
   -6.2450   -0.5890  -17.8250 N   0  0  0  0  0  0  0  0  0  0  0  0
   -5.2060    0.1670  -18.0870 C   0  0  0  0  0  0  0  0  0  0  0  0
   -4.7810    0.5100  -19.4010 C   0  0  0  0  0  0  0  0  0  0  0  0
   -3.6630    1.3570  -19.6280 C   0  0  0  0  0  0  0  0  0  0  0  0
   -3.2960    1.6920  -20.9030 C   0  0  0  0  0  0  0  0  0  0  0  0
   -4.0340    1.2080  -22.0040 C   0  0  0  0  0  0  0  0  0  0  0  0
   -5.1110    0.3740  -21.8120 C   0  0  0  0  0  0  0  0  0  0  0  0
   -5.5150    0.0020  -20.5000 C   0  0  0  0  0  0  0  0  0  0  0  0
   -5.6750    0.0290  -22.6720 H   0  0  0  0  0  0  0  0  0  0  0  0
   -3.7470    1.4930  -23.0110 H   0  0  0  0  0  0  0  0  0  0  0  0
   -2.4310    2.3260  -21.0740 H   0  0  0  0  0  0  0  0  0  0  0  0
   -3.1190    1.7350  -18.7680 H   0  0  0  0  0  0  0  0  0  0  0  0
   -4.6440    0.5550  -17.2370 H   0  0  0  0  0  0  0  0  0  0  0  0
   -7.8180   -1.6720  -18.6420 H   0  0  0  0  0  0  0  0  0  0  0  0
   -7.1220   -2.5770  -21.9890 C   0  0  0  0  0  0  0  0  0  0  0  0
   -8.4080   -2.8660  -22.7780 C   0  0  2  0  0  0  0  0  0  0  0  0
   -8.0860   -3.6320  -24.0650 C   0  0  0  0  0  0  0  0  0  0  0  0
   -9.2550   -4.1550  -24.7310 N   0  0  0  0  0  0  0  0  0  0  0  0
   -9.1500   -4.8090  -25.9550 C   0  0  0  0  0  0  0  0  0  0  0  0
  -10.3090   -5.3030  -26.5740 C   0  0  0  0  0  0  0  0  0  0  0  0
  -10.2780   -5.8170  -27.8610 C   0  0  0  0  0  0  0  0  0  0  0  0
   -9.0760   -5.9050  -28.5610 C   0  0  0  0  0  0  0  0  0  0  0  0
   -7.9060   -5.5370  -27.9160 C   0  0  0  0  0  0  0  0  0  0  0  0
   -7.9300   -4.9920  -26.6360 C   0  0  0  0  0  0  0  0  0  0  0  0
   -6.9960   -4.6720  -26.1930 H   0  0  0  0  0  0  0  0  0  0  0  0
   -6.9550   -5.6450  -28.4350 H   0  0  0  0  0  0  0  0  0  0  0  0
   -9.0530   -6.2330  -29.5950 H   0  0  0  0  0  0  0  0  0  0  0  0
  -11.2130   -6.1330  -28.3220 H   0  0  0  0  0  0  0  0  0  0  0  0
  -11.2520   -5.2950  -26.0310 H   0  0  0  0  0  0  0  0  0  0  0  0
  -10.1690   -3.7700  -24.5150 H   0  0  0  0  0  0  0  0  0  0  0  0
   -7.4450   -4.4880  -23.8080 H   0  0  0  0  0  0  0  0  0  0  0  0
   -7.4860   -2.9890  -24.7370 H   0  0  0  0  0  0  0  0  0  0  0  0
   -9.0350   -3.5200  -22.1650 H   0  0  0  0  0  0  0  0  0  0  0  0
   -6.8470   -3.4130  -21.3390 H   0  0  0  0  0  0  0  0  0  0  0  0
   -6.2750   -2.3940  -22.6710 H   0  0  0  0  0  0  0  0  0  0  0  0
  -10.6470   -1.5410  -22.7800 C   0  0  0  0  0  0  0  0  0  0  0  0
  -11.2760   -2.4650  -21.9390 C   0  0  0  0  0  0  0  0  0  0  0  0
  -12.6500   -2.4500  -21.7910 C   0  0  0  0  0  0  0  0  0  0  0  0
  -13.3900   -3.5740  -20.6940 Cl  0  0  0  0  0  0  0  0  0  0  0  0
  -13.4520   -1.5310  -22.4640 C   0  0  0  0  0  0  0  0  0  0  0  0
  -12.8340   -0.5880  -23.2580 C   0  0  0  0  0  0  0  0  0  0  0  0
  -11.4480   -0.5660  -23.3880 C   0  0  0  0  0  0  0  0  0  0  0  0
  -10.8460    0.5970  -24.1150 C   0  0  0  0  0  0  0  0  0  0  0  0
  -11.5200    1.5430  -24.4980 O   0  0  0  0  0  0  0  0  0  0  0  0
  -13.3970    0.1790  -23.7740 H   0  0  0  0  0  0  0  0  0  0  0  0
  -14.5290   -1.5350  -22.3350 H   0  0  0  0  0  0  0  0  0  0  0  0
  -10.7090   -3.1730  -21.3460 H   0  0  0  0  0  0  0  0  0  0  0  0
   -7.6850   -0.4760  -24.1430 H   0  0  0  0  0  0  0  0  0  0  0  0
   -8.9430   -1.3460  -25.0400 H   0  0  0  0  0  0  0  0  0  0  0  0
   -8.3060    1.3860  -25.7900 H   0  0  0  0  0  0  0  0  0  0  0  0
   -9.5970    2.4110  -25.1390 H   0  0  0  0  0  0  0  0  0  0  0  0
   -9.2250    2.8120  -22.5380 H   0  0  0  0  0  0  0  0  0  0  0  0
   -6.7140    2.5540  -21.5110 H   0  0  0  0  0  0  0  0  0  0  0  0
   -7.8500    3.8650  -21.0160 H   0  0  0  0  0  0  0  0  0  0  0  0
   -6.6480    4.1720  -22.2640 H   0  0  0  0  0  0  0  0  0  0  0  0
  1  2  1  0  0  0  0
  1 66  1  0  0  0  0
  1 67  1  0  0  0  0
  1 68  1  0  0  0  0
  2  3  1  0  0  0  0
  2 65  1  0  0  0  0
  3  4  2  0  0  0  0
  3  5  1  0  0  0  0
  5  6  1  0  0  0  0
  5 63  1  0  0  0  0
  5 64  1  0  0  0  0
  6  7  1  0  0  0  0
  6 56  1  0  0  0  0
  7  8  1  0  0  0  0
  7 61  1  0  0  0  0
  7 62  1  0  0  0  0
  8  9  1  1  0  0  0
  8 29  1  0  0  0  0
  8 49  1  0  0  0  0
  9 10  2  0  0  0  0
  9 11  1  0  0  0  0
 11 12  1  0  0  0  0
 11 28  1  0  0  0  0
 12 13  2  0  0  0  0
 12 21  1  0  0  0  0
 13 14  1  0  0  0  0
 13 27  1  0  0  0  0
 14 15  2  0  0  0  0
 15 16  1  0  0  0  0
 15 26  1  0  0  0  0
 16 17  2  0  0  0  0
 16 21  1  0  0  0  0
 17 18  1  0  0  0  0
 17 25  1  0  0  0  0
 18 19  2  0  0  0  0
 18 24  1  0  0  0  0
 19 20  1  0  0  0  0
 19 23  1  0  0  0  0
 20 21  2  0  0  0  0
 20 22  1  0  0  0  0
 28 29  1  0  0  0  0
 28 47  1  0  0  0  0
 28 48  1  0  0  0  0
 29 30  1  0  0  0  0
 29 46  1  1  0  0  0
 30 31  1  0  0  0  0
 30 44  1  0  0  0  0
 30 45  1  0  0  0  0
 31 32  1  0  0  0  0
 31 43  1  0  0  0  0
 32 33  2  0  0  0  0
 32 37  1  0  0  0  0
 33 34  1  0  0  0  0
 33 42  1  0  0  0  0
 34 35  2  0  0  0  0
 34 41  1  0  0  0  0
 35 36  1  0  0  0  0
 35 40  1  0  0  0  0
 36 37  2  0  0  0  0
 36 39  1  0  0  0  0
 37 38  1  0  0  0  0
 49 50  2  0  0  0  0
 49 55  1  0  0  0  0
 50 51  1  0  0  0  0
 50 60  1  0  0  0  0
 51 52  1  0  0  0  0
 51 53  2  0  0  0  0
 53 54  1  0  0  0  0
 53 59  1  0  0  0  0
 54 55  2  0  0  0  0
 54 58  1  0  0  0  0
 55 56  1  0  0  0  0
 56 57  2  0  0  0  0
M  END
>  <MODEL>
       1

$$$$
