tmp_first_model_19_21.pdb
 OpenBabel08282503233D

 63 68  0  0  1  0  0  0  0  0999 V2000
   -8.1550   -3.7530  -23.9270 C   0  0  0  0  0  0  0  0  0  0  0  0
   -8.3100   -3.0510  -22.5830 C   0  0  1  0  0  0  0  0  0  0  0  0
   -6.9870   -2.4950  -22.0330 C   0  0  0  0  0  0  0  0  0  0  0  0
   -7.4210   -1.4030  -21.1850 N   0  0  0  0  0  0  0  0  0  0  0  0
   -6.6230   -0.8240  -20.1710 C   0  0  0  0  0  0  0  0  0  0  0  0
   -6.9380   -1.0440  -18.8520 C   0  0  0  0  0  0  0  0  0  0  0  0
   -6.2310   -0.5560  -17.8090 N   0  0  0  0  0  0  0  0  0  0  0  0
   -5.1950    0.2000  -18.0880 C   0  0  0  0  0  0  0  0  0  0  0  0
   -4.7580    0.5080  -19.4080 C   0  0  0  0  0  0  0  0  0  0  0  0
   -3.6370    1.3450  -19.6500 C   0  0  0  0  0  0  0  0  0  0  0  0
   -3.2560    1.6410  -20.9310 C   0  0  0  0  0  0  0  0  0  0  0  0
   -3.9770    1.1200  -22.0240 C   0  0  0  0  0  0  0  0  0  0  0  0
   -5.0680    0.3020  -21.8190 C   0  0  0  0  0  0  0  0  0  0  0  0
   -5.4820   -0.0290  -20.4960 C   0  0  0  0  0  0  0  0  0  0  0  0
   -5.6660    0.0020  -22.6730 H   0  0  0  0  0  0  0  0  0  0  0  0
   -3.6890    1.3950  -23.0350 H   0  0  0  0  0  0  0  0  0  0  0  0
   -2.4040    2.2920  -21.1090 H   0  0  0  0  0  0  0  0  0  0  0  0
   -3.1080    1.7510  -18.7940 H   0  0  0  0  0  0  0  0  0  0  0  0
   -4.6380    0.6130  -17.2480 H   0  0  0  0  0  0  0  0  0  0  0  0
   -7.7990   -1.6610  -18.6060 H   0  0  0  0  0  0  0  0  0  0  0  0
   -8.7010   -0.9660  -21.4480 C   0  0  0  0  0  0  0  0  0  0  0  0
   -9.2220    0.0000  -20.9230 O   0  0  0  0  0  0  0  0  0  0  0  0
   -9.3070   -1.8570  -22.5630 C   0  0  1  0  0  0  0  0  0  0  0  0
   -9.2820   -1.0610  -23.8940 C   0  0  0  0  0  0  0  0  0  0  0  0
  -10.2070    0.0580  -23.8610 N   0  0  0  0  0  0  0  0  0  0  0  0
   -9.7950    1.2960  -24.4900 C   0  0  0  0  0  0  0  0  0  0  0  0
   -8.5450    1.8030  -23.7830 C   0  0  0  0  0  0  0  0  0  0  0  0
   -7.4240    1.6120  -24.2310 O   0  0  0  0  0  0  0  0  0  0  0  0
   -8.7820    2.3960  -22.5850 N   0  0  0  0  0  0  0  0  0  0  0  0
   -7.6840    2.6850  -21.6820 C   0  0  0  0  0  0  0  0  0  0  0  0
   -7.3120    4.1500  -21.6890 C   0  0  0  0  0  0  0  0  0  0  0  0
   -6.1600    4.7320  -20.9160 C   0  0  0  0  0  0  0  0  0  0  0  0
   -6.0660    4.5640  -22.4010 C   0  0  0  0  0  0  0  0  0  0  0  0
   -5.4130    3.7650  -22.7370 H   0  0  0  0  0  0  0  0  0  0  0  0
   -6.1350    5.4250  -23.0480 H   0  0  0  0  0  0  0  0  0  0  0  0
   -5.5960    4.0670  -20.2620 H   0  0  0  0  0  0  0  0  0  0  0  0
   -6.3270    5.7300  -20.5250 H   0  0  0  0  0  0  0  0  0  0  0  0
   -8.1430    4.8420  -21.7700 H   0  0  0  0  0  0  0  0  0  0  0  0
   -8.0010    2.2960  -20.7110 H   0  0  0  0  0  0  0  0  0  0  0  0
   -6.8230    2.0960  -22.0120 H   0  0  0  0  0  0  0  0  0  0  0  0
   -9.6810    2.2570  -22.1430 H   0  0  0  0  0  0  0  0  0  0  0  0
  -10.6280    1.9930  -24.3970 H   0  0  0  0  0  0  0  0  0  0  0  0
   -9.5850    1.1360  -25.5510 H   0  0  0  0  0  0  0  0  0  0  0  0
  -11.4840   -0.0650  -23.4020 C   0  0  0  0  0  0  0  0  0  0  0  0
  -12.3360    0.7980  -23.5590 O   0  0  0  0  0  0  0  0  0  0  0  0
  -11.7850   -1.3410  -22.6780 C   0  0  0  0  0  0  0  0  0  0  0  0
  -13.1230   -1.6050  -22.3790 C   0  0  0  0  0  0  0  0  0  0  0  0
  -13.4790   -2.7400  -21.6790 C   0  0  0  0  0  0  0  0  0  0  0  0
  -12.4600   -3.6010  -21.2960 C   0  0  0  0  0  0  0  0  0  0  0  0
  -12.7830   -4.6490  -20.5210 F   0  0  0  0  0  0  0  0  0  0  0  0
  -11.1370   -3.3990  -21.6350 C   0  0  0  0  0  0  0  0  0  0  0  0
  -10.7610   -2.2260  -22.3030 C   0  0  0  0  0  0  0  0  0  0  0  0
  -10.4240   -4.1510  -21.3180 H   0  0  0  0  0  0  0  0  0  0  0  0
  -14.5030   -2.9850  -21.4140 H   0  0  0  0  0  0  0  0  0  0  0  0
  -13.8730   -0.8960  -22.7090 H   0  0  0  0  0  0  0  0  0  0  0  0
   -8.2810   -0.6630  -24.0750 H   0  0  0  0  0  0  0  0  0  0  0  0
   -9.5440   -1.7350  -24.7210 H   0  0  0  0  0  0  0  0  0  0  0  0
   -6.3300   -2.1430  -22.8450 H   0  0  0  0  0  0  0  0  0  0  0  0
   -6.4330   -3.2460  -21.4560 H   0  0  0  0  0  0  0  0  0  0  0  0
   -8.6520   -3.7770  -21.8400 H   0  0  0  0  0  0  0  0  0  0  0  0
   -7.7140   -3.0720  -24.6660 H   0  0  0  0  0  0  0  0  0  0  0  0
   -7.5000   -4.6260  -23.8400 H   0  0  0  0  0  0  0  0  0  0  0  0
   -9.1270   -4.0800  -24.3140 H   0  0  0  0  0  0  0  0  0  0  0  0
  1  2  1  0  0  0  0
  1 61  1  0  0  0  0
  1 62  1  0  0  0  0
  1 63  1  0  0  0  0
  2  3  1  0  0  0  0
  2 23  1  0  0  0  0
  2 60  1  1  0  0  0
  3  4  1  0  0  0  0
  3 58  1  0  0  0  0
  3 59  1  0  0  0  0
  4  5  1  0  0  0  0
  4 21  1  0  0  0  0
  5  6  2  0  0  0  0
  5 14  1  0  0  0  0
  6  7  1  0  0  0  0
  6 20  1  0  0  0  0
  7  8  2  0  0  0  0
  8  9  1  0  0  0  0
  8 19  1  0  0  0  0
  9 10  2  0  0  0  0
  9 14  1  0  0  0  0
 10 11  1  0  0  0  0
 10 18  1  0  0  0  0
 11 12  2  0  0  0  0
 11 17  1  0  0  0  0
 12 13  1  0  0  0  0
 12 16  1  0  0  0  0
 13 14  2  0  0  0  0
 13 15  1  0  0  0  0
 21 22  2  0  0  0  0
 23 21  1  1  0  0  0
 23 24  1  0  0  0  0
 23 52  1  0  0  0  0
 24 25  1  0  0  0  0
 24 56  1  0  0  0  0
 24 57  1  0  0  0  0
 25 26  1  0  0  0  0
 25 44  1  0  0  0  0
 26 27  1  0  0  0  0
 26 42  1  0  0  0  0
 26 43  1  0  0  0  0
 27 28  2  0  0  0  0
 27 29  1  0  0  0  0
 29 30  1  0  0  0  0
 29 41  1  0  0  0  0
 30 31  1  0  0  0  0
 30 39  1  0  0  0  0
 30 40  1  0  0  0  0
 31 32  1  0  0  0  0
 31 33  1  0  0  0  0
 31 38  1  0  0  0  0
 32 33  1  0  0  0  0
 32 36  1  0  0  0  0
 32 37  1  0  0  0  0
 33 34  1  0  0  0  0
 33 35  1  0  0  0  0
 44 45  2  0  0  0  0
 44 46  1  0  0  0  0
 46 47  2  0  0  0  0
 46 52  1  0  0  0  0
 47 48  1  0  0  0  0
 47 55  1  0  0  0  0
 48 49  2  0  0  0  0
 48 54  1  0  0  0  0
 49 50  1  0  0  0  0
 49 51  1  0  0  0  0
 51 52  2  0  0  0  0
 51 53  1  0  0  0  0
M  END
>  <MODEL>
       1

$$$$
