tmp_first_model_19_41.pdb
 OpenBabel08282503233D

 67 71  0  0  1  0  0  0  0  0999 V2000
   -7.5820    2.5120  -21.4820 C   0  0  0  0  0  0  0  0  0  0  0  0
   -8.6340    2.2740  -22.4420 N   0  0  0  0  0  0  0  0  0  0  0  0
   -8.3730    1.6840  -23.6250 C   0  0  0  0  0  0  0  0  0  0  0  0
   -7.2370    1.4960  -24.0530 O   0  0  0  0  0  0  0  0  0  0  0  0
   -9.6110    1.2020  -24.3920 C   0  0  0  0  0  0  0  0  0  0  0  0
  -10.1040   -0.0490  -23.8330 N   0  0  0  0  0  0  0  0  0  0  0  0
   -9.2400   -1.2160  -23.8700 C   0  0  0  0  0  0  0  0  0  0  0  0
   -9.2920   -1.9780  -22.5200 C   0  0  2  0  0  0  0  0  0  0  0  0
   -8.7040   -1.0400  -21.4370 C   0  0  0  0  0  0  0  0  0  0  0  0
   -9.2580   -0.0990  -20.9020 O   0  0  0  0  0  0  0  0  0  0  0  0
   -7.3950   -1.4070  -21.2040 N   0  0  0  0  0  0  0  0  0  0  0  0
   -6.6170   -0.8070  -20.1830 C   0  0  0  0  0  0  0  0  0  0  0  0
   -6.9430   -1.0150  -18.8630 C   0  0  0  0  0  0  0  0  0  0  0  0
   -6.2500   -0.5030  -17.8220 N   0  0  0  0  0  0  0  0  0  0  0  0
   -5.2120    0.2540  -18.0980 C   0  0  0  0  0  0  0  0  0  0  0  0
   -4.7620    0.5470  -19.4170 C   0  0  0  0  0  0  0  0  0  0  0  0
   -3.6320    1.3690  -19.6680 C   0  0  0  0  0  0  0  0  0  0  0  0
   -3.2350    1.6440  -20.9500 C   0  0  0  0  0  0  0  0  0  0  0  0
   -3.9450    1.1050  -22.0420 C   0  0  0  0  0  0  0  0  0  0  0  0
   -5.0400    0.2950  -21.8260 C   0  0  0  0  0  0  0  0  0  0  0  0
   -5.4750   -0.0080  -20.5060 C   0  0  0  0  0  0  0  0  0  0  0  0
   -5.6540    0.0010  -22.6720 H   0  0  0  0  0  0  0  0  0  0  0  0
   -3.6540    1.3680  -23.0550 H   0  0  0  0  0  0  0  0  0  0  0  0
   -2.3860    2.2960  -21.1310 H   0  0  0  0  0  0  0  0  0  0  0  0
   -3.1150    1.8030  -18.8170 H   0  0  0  0  0  0  0  0  0  0  0  0
   -4.6760    0.6900  -17.2540 H   0  0  0  0  0  0  0  0  0  0  0  0
   -7.7900   -1.6470  -18.6040 H   0  0  0  0  0  0  0  0  0  0  0  0
   -6.9600   -2.5570  -21.9720 C   0  0  0  0  0  0  0  0  0  0  0  0
   -8.2900   -3.1650  -22.4590 C   0  0  2  0  0  0  0  0  0  0  0  0
   -8.1950   -3.9730  -23.7530 C   0  0  0  0  0  0  0  0  0  0  0  0
   -7.2630   -5.4790  -23.5350 S   0  0  0  0  0  0  0  0  0  0  0  0
   -5.8620   -5.1160  -23.3720 O   0  0  0  0  0  0  0  0  0  0  0  0
   -7.9530   -6.2850  -22.5370 O   0  0  0  0  0  0  0  0  0  0  0  0
   -7.4000   -6.2700  -24.9860 N   0  0  0  0  0  0  0  0  0  0  0  0
   -8.6710   -6.9230  -25.2540 C   0  0  0  0  0  0  0  0  0  0  0  0
   -9.4800   -6.2240  -25.5090 H   0  0  0  0  0  0  0  0  0  0  0  0
   -8.5300   -7.6040  -26.0940 H   0  0  0  0  0  0  0  0  0  0  0  0
   -8.9630   -7.5060  -24.3820 H   0  0  0  0  0  0  0  0  0  0  0  0
   -6.7550   -5.6570  -26.1360 C   0  0  0  0  0  0  0  0  0  0  0  0
   -7.3170   -4.8080  -26.5490 H   0  0  0  0  0  0  0  0  0  0  0  0
   -6.6530   -6.4140  -26.9160 H   0  0  0  0  0  0  0  0  0  0  0  0
   -5.7570   -5.3210  -25.8580 H   0  0  0  0  0  0  0  0  0  0  0  0
   -9.1980   -4.2570  -24.0900 H   0  0  0  0  0  0  0  0  0  0  0  0
   -7.6980   -3.3900  -24.5340 H   0  0  0  0  0  0  0  0  0  0  0  0
   -8.6200   -3.8350  -21.6620 H   0  0  0  0  0  0  0  0  0  0  0  0
   -6.3210   -2.2540  -22.8100 H   0  0  0  0  0  0  0  0  0  0  0  0
   -6.3840   -3.2570  -21.3610 H   0  0  0  0  0  0  0  0  0  0  0  0
  -10.7530   -2.3190  -22.2690 C   0  0  0  0  0  0  0  0  0  0  0  0
  -11.1600   -3.4730  -21.5850 C   0  0  0  0  0  0  0  0  0  0  0  0
  -12.4910   -3.6330  -21.2520 C   0  0  0  0  0  0  0  0  0  0  0  0
  -12.8530   -4.6530  -20.4560 F   0  0  0  0  0  0  0  0  0  0  0  0
  -13.4790   -2.7500  -21.6580 C   0  0  0  0  0  0  0  0  0  0  0  0
  -13.0950   -1.6370  -22.3780 C   0  0  0  0  0  0  0  0  0  0  0  0
  -11.7490   -1.4090  -22.6670 C   0  0  0  0  0  0  0  0  0  0  0  0
  -11.4020   -0.1440  -23.4110 C   0  0  0  0  0  0  0  0  0  0  0  0
  -12.2300    0.7300  -23.6180 O   0  0  0  0  0  0  0  0  0  0  0  0
  -13.8260   -0.9130  -22.7180 H   0  0  0  0  0  0  0  0  0  0  0  0
  -14.5080   -2.9640  -21.3970 H   0  0  0  0  0  0  0  0  0  0  0  0
  -10.4640   -4.2200  -21.2240 H   0  0  0  0  0  0  0  0  0  0  0  0
   -9.5600   -1.8820  -24.6840 H   0  0  0  0  0  0  0  0  0  0  0  0
   -8.2240   -0.8710  -24.0790 H   0  0  0  0  0  0  0  0  0  0  0  0
   -9.3060    1.0740  -25.4340 H   0  0  0  0  0  0  0  0  0  0  0  0
  -10.4440    1.9120  -24.3520 H   0  0  0  0  0  0  0  0  0  0  0  0
   -9.5850    2.3500  -22.1130 H   0  0  0  0  0  0  0  0  0  0  0  0
   -6.6660    2.0940  -21.8940 H   0  0  0  0  0  0  0  0  0  0  0  0
   -7.8130    1.9780  -20.5540 H   0  0  0  0  0  0  0  0  0  0  0  0
   -7.4150    3.5900  -21.3490 H   0  0  0  0  0  0  0  0  0  0  0  0
  1  2  1  0  0  0  0
  1 65  1  0  0  0  0
  1 66  1  0  0  0  0
  1 67  1  0  0  0  0
  2  3  1  0  0  0  0
  2 64  1  0  0  0  0
  3  4  2  0  0  0  0
  3  5  1  0  0  0  0
  5  6  1  0  0  0  0
  5 62  1  0  0  0  0
  5 63  1  0  0  0  0
  6  7  1  0  0  0  0
  6 55  1  0  0  0  0
  7  8  1  0  0  0  0
  7 60  1  0  0  0  0
  7 61  1  0  0  0  0
  8  9  1  1  0  0  0
  8 29  1  0  0  0  0
  8 48  1  0  0  0  0
  9 10  2  0  0  0  0
  9 11  1  0  0  0  0
 11 12  1  0  0  0  0
 11 28  1  0  0  0  0
 12 13  2  0  0  0  0
 12 21  1  0  0  0  0
 13 14  1  0  0  0  0
 13 27  1  0  0  0  0
 14 15  2  0  0  0  0
 15 16  1  0  0  0  0
 15 26  1  0  0  0  0
 16 17  2  0  0  0  0
 16 21  1  0  0  0  0
 17 18  1  0  0  0  0
 17 25  1  0  0  0  0
 18 19  2  0  0  0  0
 18 24  1  0  0  0  0
 19 20  1  0  0  0  0
 19 23  1  0  0  0  0
 20 21  2  0  0  0  0
 20 22  1  0  0  0  0
 28 29  1  0  0  0  0
 28 46  1  0  0  0  0
 28 47  1  0  0  0  0
 29 30  1  0  0  0  0
 29 45  1  1  0  0  0
 30 31  1  0  0  0  0
 30 43  1  0  0  0  0
 30 44  1  0  0  0  0
 31 32  2  0  0  0  0
 31 33  2  0  0  0  0
 31 34  1  0  0  0  0
 34 35  1  0  0  0  0
 34 39  1  0  0  0  0
 35 36  1  0  0  0  0
 35 37  1  0  0  0  0
 35 38  1  0  0  0  0
 39 40  1  0  0  0  0
 39 41  1  0  0  0  0
 39 42  1  0  0  0  0
 48 49  2  0  0  0  0
 48 54  1  0  0  0  0
 49 50  1  0  0  0  0
 49 59  1  0  0  0  0
 50 51  1  0  0  0  0
 50 52  2  0  0  0  0
 52 53  1  0  0  0  0
 52 58  1  0  0  0  0
 53 54  2  0  0  0  0
 53 57  1  0  0  0  0
 54 55  1  0  0  0  0
 55 56  2  0  0  0  0
M  END
>  <MODEL>
       1

$$$$
