tmp_first_model_9_29.pdb
 OpenBabel08272521403D

 55 60  0  0  1  0  0  0  0  0999 V2000
  -10.4790   -1.2000  -23.2250 C   0  0  0  0  0  0  0  0  0  0  0  0
   -9.0250   -1.5380  -22.9170 C   0  0  1  0  0  0  0  0  0  0  0  0
   -8.3890   -0.5580  -21.9170 C   0  0  0  0  0  0  0  0  0  0  0  0
   -7.3950   -1.3550  -21.2270 N   0  0  0  0  0  0  0  0  0  0  0  0
   -6.5850   -0.8380  -20.1840 C   0  0  0  0  0  0  0  0  0  0  0  0
   -6.8930   -1.0800  -18.8680 C   0  0  0  0  0  0  0  0  0  0  0  0
   -6.2070   -0.5610  -17.8180 N   0  0  0  0  0  0  0  0  0  0  0  0
   -5.1840    0.2110  -18.0840 C   0  0  0  0  0  0  0  0  0  0  0  0
   -4.7420    0.5220  -19.4020 C   0  0  0  0  0  0  0  0  0  0  0  0
   -3.6160    1.3490  -19.6380 C   0  0  0  0  0  0  0  0  0  0  0  0
   -3.2130    1.6210  -20.9180 C   0  0  0  0  0  0  0  0  0  0  0  0
   -3.9180    1.0780  -22.0170 C   0  0  0  0  0  0  0  0  0  0  0  0
   -5.0120    0.2730  -21.8160 C   0  0  0  0  0  0  0  0  0  0  0  0
   -5.4570   -0.0150  -20.4960 C   0  0  0  0  0  0  0  0  0  0  0  0
   -5.5390   -0.1530  -22.6660 H   0  0  0  0  0  0  0  0  0  0  0  0
   -3.5880    1.2980  -23.0300 H   0  0  0  0  0  0  0  0  0  0  0  0
   -2.3540    2.2580  -21.0990 H   0  0  0  0  0  0  0  0  0  0  0  0
   -3.0970    1.7650  -18.7800 H   0  0  0  0  0  0  0  0  0  0  0  0
   -4.6380    0.6360  -17.2390 H   0  0  0  0  0  0  0  0  0  0  0  0
   -7.7350   -1.7230  -18.6150 H   0  0  0  0  0  0  0  0  0  0  0  0
   -7.5500   -2.7120  -21.4160 C   0  0  0  0  0  0  0  0  0  0  0  0
   -6.7830   -3.5430  -20.9770 O   0  0  0  0  0  0  0  0  0  0  0  0
   -8.7860   -2.9580  -22.3050 C   0  0  1  0  0  0  0  0  0  0  0  0
   -9.9600   -3.4310  -21.4250 C   0  0  0  0  0  0  0  0  0  0  0  0
  -11.0740   -3.9980  -22.1670 N   0  0  0  0  0  0  0  0  0  0  0  0
  -12.4280   -3.9080  -21.6400 C   0  0  0  0  0  0  0  0  0  0  0  0
  -13.2820   -2.8030  -22.1890 C   0  0  0  0  0  0  0  0  0  0  0  0
  -13.9590   -2.8440  -23.4120 C   0  0  0  0  0  0  0  0  0  0  0  0
  -14.6830   -1.7380  -23.5570 N   0  0  0  0  0  0  0  0  0  0  0  0
  -14.4400   -1.0920  -22.4360 N   0  0  0  0  0  0  0  0  0  0  0  0
  -13.6190   -1.6760  -21.5730 N   0  0  0  0  0  0  0  0  0  0  0  0
  -14.8510   -0.1890  -22.2540 H   0  0  0  0  0  0  0  0  0  0  0  0
  -13.8850   -3.6330  -24.1410 H   0  0  0  0  0  0  0  0  0  0  0  0
  -12.4220   -3.9220  -20.5500 H   0  0  0  0  0  0  0  0  0  0  0  0
  -12.9090   -4.8130  -21.9970 H   0  0  0  0  0  0  0  0  0  0  0  0
  -10.9310   -4.6790  -23.3460 C   0  0  0  0  0  0  0  0  0  0  0  0
  -11.8960   -5.0890  -23.9840 O   0  0  0  0  0  0  0  0  0  0  0  0
   -9.5320   -4.8500  -23.8220 C   0  0  0  0  0  0  0  0  0  0  0  0
   -9.2790   -5.8040  -24.8060 C   0  0  0  0  0  0  0  0  0  0  0  0
   -8.0190   -5.9020  -25.3690 C   0  0  0  0  0  0  0  0  0  0  0  0
   -7.0300   -5.0280  -24.9280 C   0  0  0  0  0  0  0  0  0  0  0  0
   -5.8220   -5.0700  -25.5130 F   0  0  0  0  0  0  0  0  0  0  0  0
   -7.2480   -4.1090  -23.9230 C   0  0  0  0  0  0  0  0  0  0  0  0
   -8.5130   -4.0200  -23.3430 C   0  0  0  0  0  0  0  0  0  0  0  0
   -6.4480   -3.4520  -23.6020 H   0  0  0  0  0  0  0  0  0  0  0  0
   -7.7980   -6.5900  -26.1770 H   0  0  0  0  0  0  0  0  0  0  0  0
  -10.0980   -6.4550  -25.1070 H   0  0  0  0  0  0  0  0  0  0  0  0
  -10.3280   -2.5860  -20.8420 H   0  0  0  0  0  0  0  0  0  0  0  0
   -9.5680   -4.1700  -20.7360 H   0  0  0  0  0  0  0  0  0  0  0  0
   -9.1340   -0.1700  -21.2090 H   0  0  0  0  0  0  0  0  0  0  0  0
   -7.9310    0.3050  -22.4140 H   0  0  0  0  0  0  0  0  0  0  0  0
   -8.4380   -1.4950  -23.8450 H   0  0  0  0  0  0  0  0  0  0  0  0
  -10.5550   -0.2390  -23.7400 H   0  0  0  0  0  0  0  0  0  0  0  0
  -10.9530   -1.9670  -23.8480 H   0  0  0  0  0  0  0  0  0  0  0  0
  -11.0630   -1.1200  -22.3030 H   0  0  0  0  0  0  0  0  0  0  0  0
  1  2  1  0  0  0  0
  1 53  1  0  0  0  0
  1 54  1  0  0  0  0
  1 55  1  0  0  0  0
  2  3  1  0  0  0  0
  2 23  1  0  0  0  0
  2 52  1  6  0  0  0
  3  4  1  0  0  0  0
  3 50  1  0  0  0  0
  3 51  1  0  0  0  0
  4  5  1  0  0  0  0
  4 21  1  0  0  0  0
  5  6  2  0  0  0  0
  5 14  1  0  0  0  0
  6  7  1  0  0  0  0
  6 20  1  0  0  0  0
  7  8  2  0  0  0  0
  8  9  1  0  0  0  0
  8 19  1  0  0  0  0
  9 10  2  0  0  0  0
  9 14  1  0  0  0  0
 10 11  1  0  0  0  0
 10 18  1  0  0  0  0
 11 12  2  0  0  0  0
 11 17  1  0  0  0  0
 12 13  1  0  0  0  0
 12 16  1  0  0  0  0
 13 14  2  0  0  0  0
 13 15  1  0  0  0  0
 21 22  2  0  0  0  0
 23 21  1  1  0  0  0
 23 24  1  0  0  0  0
 23 44  1  0  0  0  0
 24 25  1  0  0  0  0
 24 48  1  0  0  0  0
 24 49  1  0  0  0  0
 25 26  1  0  0  0  0
 25 36  1  0  0  0  0
 26 27  1  0  0  0  0
 26 34  1  0  0  0  0
 26 35  1  0  0  0  0
 27 28  1  0  0  0  0
 27 31  2  0  0  0  0
 28 29  2  0  0  0  0
 28 33  1  0  0  0  0
 29 30  1  0  0  0  0
 30 31  1  0  0  0  0
 30 32  1  0  0  0  0
 36 37  2  0  0  0  0
 36 38  1  0  0  0  0
 38 39  2  0  0  0  0
 38 44  1  0  0  0  0
 39 40  1  0  0  0  0
 39 47  1  0  0  0  0
 40 41  2  0  0  0  0
 40 46  1  0  0  0  0
 41 42  1  0  0  0  0
 41 43  1  0  0  0  0
 43 44  2  0  0  0  0
 43 45  1  0  0  0  0
M  END
>  <MODEL>
       1

$$$$
