tmp_first_model_17_46.pdb
 OpenBabel08282502223D

 50 54  0  0  1  0  0  0  0  0999 V2000
  -10.4130   -1.1620  -23.2600 C   0  0  0  0  0  0  0  0  0  0  0  0
   -8.9750   -1.5220  -22.9310 C   0  0  1  0  0  0  0  0  0  0  0  0
   -8.3510   -0.5660  -21.9090 C   0  0  0  0  0  0  0  0  0  0  0  0
   -7.3630   -1.3810  -21.2280 N   0  0  0  0  0  0  0  0  0  0  0  0
   -6.5740   -0.8590  -20.1750 C   0  0  0  0  0  0  0  0  0  0  0  0
   -6.8960   -1.0930  -18.8620 C   0  0  0  0  0  0  0  0  0  0  0  0
   -6.2260   -0.5600  -17.8080 N   0  0  0  0  0  0  0  0  0  0  0  0
   -5.1970    0.2090  -18.0710 C   0  0  0  0  0  0  0  0  0  0  0  0
   -4.7520    0.5190  -19.3890 C   0  0  0  0  0  0  0  0  0  0  0  0
   -3.6280    1.3490  -19.6290 C   0  0  0  0  0  0  0  0  0  0  0  0
   -3.2360    1.6270  -20.9080 C   0  0  0  0  0  0  0  0  0  0  0  0
   -3.9390    1.0850  -22.0080 C   0  0  0  0  0  0  0  0  0  0  0  0
   -5.0250    0.2720  -21.8050 C   0  0  0  0  0  0  0  0  0  0  0  0
   -5.4610   -0.0210  -20.4830 C   0  0  0  0  0  0  0  0  0  0  0  0
   -5.5550   -0.1600  -22.6490 H   0  0  0  0  0  0  0  0  0  0  0  0
   -3.6070    1.3100  -23.0180 H   0  0  0  0  0  0  0  0  0  0  0  0
   -2.3720    2.2590  -21.0940 H   0  0  0  0  0  0  0  0  0  0  0  0
   -3.0950    1.7590  -18.7760 H   0  0  0  0  0  0  0  0  0  0  0  0
   -4.6520    0.6340  -17.2250 H   0  0  0  0  0  0  0  0  0  0  0  0
   -7.7380   -1.7340  -18.6090 H   0  0  0  0  0  0  0  0  0  0  0  0
   -7.6020   -2.7350  -21.3490 C   0  0  0  0  0  0  0  0  0  0  0  0
   -6.9680   -3.5900  -20.7690 O   0  0  0  0  0  0  0  0  0  0  0  0
   -8.7830   -2.9460  -22.3130 C   0  0  1  0  0  0  0  0  0  0  0  0
   -9.9940   -3.4000  -21.4750 C   0  0  0  0  0  0  0  0  0  0  0  0
  -11.1110   -3.8510  -22.2790 N   0  0  0  0  0  0  0  0  0  0  0  0
  -12.4830   -3.5420  -21.9340 C   0  0  0  0  0  0  0  0  0  0  0  0
  -13.0750   -2.5110  -22.8090 C   0  0  0  0  0  0  0  0  0  0  0  0
  -13.5270   -1.7080  -23.5090 N   0  0  0  0  0  0  0  0  0  0  0  0
  -12.5580   -3.2040  -20.8980 H   0  0  0  0  0  0  0  0  0  0  0  0
  -13.0600   -4.4610  -22.0460 H   0  0  0  0  0  0  0  0  0  0  0  0
  -10.9400   -4.6210  -23.3950 C   0  0  0  0  0  0  0  0  0  0  0  0
  -11.8860   -5.0700  -24.0240 O   0  0  0  0  0  0  0  0  0  0  0  0
   -9.5280   -4.8380  -23.8160 C   0  0  0  0  0  0  0  0  0  0  0  0
   -9.2780   -5.8120  -24.7790 C   0  0  0  0  0  0  0  0  0  0  0  0
   -8.0230   -5.9430  -25.3390 C   0  0  0  0  0  0  0  0  0  0  0  0
   -7.0290   -5.0780  -24.9030 C   0  0  0  0  0  0  0  0  0  0  0  0
   -5.8290   -5.1350  -25.4990 F   0  0  0  0  0  0  0  0  0  0  0  0
   -7.2340   -4.1370  -23.9140 C   0  0  0  0  0  0  0  0  0  0  0  0
   -8.5030   -4.0130  -23.3450 C   0  0  0  0  0  0  0  0  0  0  0  0
   -6.4250   -3.4880  -23.6030 H   0  0  0  0  0  0  0  0  0  0  0  0
   -7.8070   -6.6570  -26.1260 H   0  0  0  0  0  0  0  0  0  0  0  0
  -10.0940   -6.4570  -25.0830 H   0  0  0  0  0  0  0  0  0  0  0  0
   -9.6590   -4.2030  -20.8230 H   0  0  0  0  0  0  0  0  0  0  0  0
  -10.3220   -2.5660  -20.8560 H   0  0  0  0  0  0  0  0  0  0  0  0
   -9.1110   -0.2050  -21.1980 H   0  0  0  0  0  0  0  0  0  0  0  0
   -7.8900    0.3080  -22.3800 H   0  0  0  0  0  0  0  0  0  0  0  0
   -8.3810   -1.4990  -23.8540 H   0  0  0  0  0  0  0  0  0  0  0  0
  -10.4940   -0.1880  -23.7450 H   0  0  0  0  0  0  0  0  0  0  0  0
  -11.0070   -1.1240  -22.3410 H   0  0  0  0  0  0  0  0  0  0  0  0
  -10.8540   -1.9160  -23.9130 H   0  0  0  0  0  0  0  0  0  0  0  0
  1  2  1  0  0  0  0
  1 48  1  0  0  0  0
  1 49  1  0  0  0  0
  1 50  1  0  0  0  0
  2  3  1  0  0  0  0
  2 23  1  0  0  0  0
  2 47  1  6  0  0  0
  3  4  1  0  0  0  0
  3 45  1  0  0  0  0
  3 46  1  0  0  0  0
  4  5  1  0  0  0  0
  4 21  1  0  0  0  0
  5  6  2  0  0  0  0
  5 14  1  0  0  0  0
  6  7  1  0  0  0  0
  6 20  1  0  0  0  0
  7  8  2  0  0  0  0
  8  9  1  0  0  0  0
  8 19  1  0  0  0  0
  9 10  2  0  0  0  0
  9 14  1  0  0  0  0
 10 11  1  0  0  0  0
 10 18  1  0  0  0  0
 11 12  2  0  0  0  0
 11 17  1  0  0  0  0
 12 13  1  0  0  0  0
 12 16  1  0  0  0  0
 13 14  2  0  0  0  0
 13 15  1  0  0  0  0
 21 22  2  0  0  0  0
 23 21  1  1  0  0  0
 23 24  1  0  0  0  0
 23 39  1  0  0  0  0
 24 25  1  0  0  0  0
 24 43  1  0  0  0  0
 24 44  1  0  0  0  0
 25 26  1  0  0  0  0
 25 31  1  0  0  0  0
 26 27  1  0  0  0  0
 26 29  1  0  0  0  0
 26 30  1  0  0  0  0
 27 28  3  0  0  0  0
 31 32  2  0  0  0  0
 31 33  1  0  0  0  0
 33 34  2  0  0  0  0
 33 39  1  0  0  0  0
 34 35  1  0  0  0  0
 34 42  1  0  0  0  0
 35 36  2  0  0  0  0
 35 41  1  0  0  0  0
 36 37  1  0  0  0  0
 36 38  1  0  0  0  0
 38 39  2  0  0  0  0
 38 40  1  0  0  0  0
M  END
>  <MODEL>
       1

$$$$
