tmp_first_model_18_7.pdb
 OpenBabel08282502533D

 44 47  0  0  0  0  0  0  0  0999 V2000
  -10.0910   -5.9840  -27.5640 C   0  0  0  0  0  0  0  0  0  0  0  0
   -8.9720   -5.2950  -26.7810 C   0  0  0  0  0  0  0  0  0  0  0  0
   -9.2610   -5.5290  -25.0280 S   0  0  0  0  0  0  0  0  0  0  0  0
   -9.0650   -6.9320  -24.7060 O   0  0  0  0  0  0  0  0  0  0  0  0
  -10.5240   -4.8640  -24.7240 O   0  0  0  0  0  0  0  0  0  0  0  0
   -8.0060   -4.6930  -24.2660 N   0  0  0  0  0  0  0  0  0  0  0  0
   -8.0710   -4.6910  -22.7780 C   0  0  0  0  0  0  0  0  0  0  0  0
   -8.0300   -3.1480  -22.7710 C   0  0  0  0  0  0  0  0  0  0  0  0
   -7.9830   -3.2140  -24.3180 C   0  0  0  0  0  0  0  0  0  0  0  0
   -7.0530   -2.8390  -24.7510 H   0  0  0  0  0  0  0  0  0  0  0  0
   -8.8440   -2.7640  -24.8180 H   0  0  0  0  0  0  0  0  0  0  0  0
   -6.7960   -2.5900  -22.0890 C   0  0  0  0  0  0  0  0  0  0  0  0
   -5.6590   -2.9490  -22.2620 O   0  0  0  0  0  0  0  0  0  0  0  0
   -7.2450   -1.6030  -21.2160 N   0  0  0  0  0  0  0  0  0  0  0  0
   -6.5160   -0.9330  -20.1980 C   0  0  0  0  0  0  0  0  0  0  0  0
   -6.8980   -1.0910  -18.8860 C   0  0  0  0  0  0  0  0  0  0  0  0
   -6.2410   -0.5520  -17.8320 N   0  0  0  0  0  0  0  0  0  0  0  0
   -5.2030    0.2020  -18.1020 C   0  0  0  0  0  0  0  0  0  0  0  0
   -4.7520    0.5060  -19.4180 C   0  0  0  0  0  0  0  0  0  0  0  0
   -3.6350    1.3520  -19.6360 C   0  0  0  0  0  0  0  0  0  0  0  0
   -3.2420    1.6580  -20.9100 C   0  0  0  0  0  0  0  0  0  0  0  0
   -3.9560    1.1480  -22.0190 C   0  0  0  0  0  0  0  0  0  0  0  0
   -5.0390    0.3230  -21.8350 C   0  0  0  0  0  0  0  0  0  0  0  0
   -5.4400   -0.0470  -20.5170 C   0  0  0  0  0  0  0  0  0  0  0  0
   -5.5860   -0.0540  -22.6960 H   0  0  0  0  0  0  0  0  0  0  0  0
   -3.6370    1.4040  -23.0270 H   0  0  0  0  0  0  0  0  0  0  0  0
   -2.3790    2.2970  -21.0780 H   0  0  0  0  0  0  0  0  0  0  0  0
   -3.1120    1.7400  -18.7670 H   0  0  0  0  0  0  0  0  0  0  0  0
   -4.6500    0.6140  -17.2590 H   0  0  0  0  0  0  0  0  0  0  0  0
   -7.7730   -1.6910  -18.6380 H   0  0  0  0  0  0  0  0  0  0  0  0
   -8.6160   -1.3750  -21.3780 C   0  0  0  0  0  0  0  0  0  0  0  0
   -9.1850   -0.4220  -20.9050 O   0  0  0  0  0  0  0  0  0  0  0  0
   -9.0970   -2.3990  -22.1550 N   0  0  0  0  0  0  0  0  0  0  0  0
  -10.4930   -2.6440  -22.4510 C   0  0  0  0  0  0  0  0  0  0  0  0
  -10.7500   -3.6840  -22.2350 H   0  0  0  0  0  0  0  0  0  0  0  0
  -10.7110   -2.4580  -23.5060 H   0  0  0  0  0  0  0  0  0  0  0  0
  -11.1080   -1.9930  -21.8320 H   0  0  0  0  0  0  0  0  0  0  0  0
   -7.1810   -5.1530  -22.3500 H   0  0  0  0  0  0  0  0  0  0  0  0
   -8.9690   -5.1490  -22.3610 H   0  0  0  0  0  0  0  0  0  0  0  0
   -8.9650   -4.2120  -26.9550 H   0  0  0  0  0  0  0  0  0  0  0  0
   -7.9830   -5.7080  -27.0060 H   0  0  0  0  0  0  0  0  0  0  0  0
   -9.9530   -5.8520  -28.6410 H   0  0  0  0  0  0  0  0  0  0  0  0
  -11.0670   -5.5730  -27.2910 H   0  0  0  0  0  0  0  0  0  0  0  0
  -10.1080   -7.0570  -27.3500 H   0  0  0  0  0  0  0  0  0  0  0  0
  1  2  1  0  0  0  0
  1 42  1  0  0  0  0
  1 43  1  0  0  0  0
  1 44  1  0  0  0  0
  2  3  1  0  0  0  0
  2 40  1  0  0  0  0
  2 41  1  0  0  0  0
  3  4  2  0  0  0  0
  3  5  2  0  0  0  0
  3  6  1  0  0  0  0
  6  7  1  0  0  0  0
  6  9  1  0  0  0  0
  7  8  1  0  0  0  0
  7 38  1  0  0  0  0
  7 39  1  0  0  0  0
  8  9  1  0  0  0  0
  8 12  1  0  0  0  0
  8 33  1  0  0  0  0
  9 10  1  0  0  0  0
  9 11  1  0  0  0  0
 12 13  2  0  0  0  0
 12 14  1  0  0  0  0
 14 15  1  0  0  0  0
 14 31  1  0  0  0  0
 15 16  2  0  0  0  0
 15 24  1  0  0  0  0
 16 17  1  0  0  0  0
 16 30  1  0  0  0  0
 17 18  2  0  0  0  0
 18 19  1  0  0  0  0
 18 29  1  0  0  0  0
 19 20  2  0  0  0  0
 19 24  1  0  0  0  0
 20 21  1  0  0  0  0
 20 28  1  0  0  0  0
 21 22  2  0  0  0  0
 21 27  1  0  0  0  0
 22 23  1  0  0  0  0
 22 26  1  0  0  0  0
 23 24  2  0  0  0  0
 23 25  1  0  0  0  0
 31 32  2  0  0  0  0
 31 33  1  0  0  0  0
 33 34  1  0  0  0  0
 34 35  1  0  0  0  0
 34 36  1  0  0  0  0
 34 37  1  0  0  0  0
M  END
>  <MODEL>
       1

$$$$
