tmp_first_model_17_62.pdb
 OpenBabel08282502223D

 44 47  0  0  0  0  0  0  0  0999 V2000
   -5.5880   -3.0040  -21.6590 O   0  0  0  0  0  0  0  0  0  0  0  0
   -6.7880   -2.8120  -21.7650 C   0  0  0  0  0  0  0  0  0  0  0  0
   -7.4160   -1.4900  -21.2580 C   0  0  0  0  0  0  0  0  0  0  0  0
   -6.5820   -0.8310  -20.1800 C   0  0  0  0  0  0  0  0  0  0  0  0
   -6.8790   -1.0450  -18.8580 C   0  0  0  0  0  0  0  0  0  0  0  0
   -6.1940   -0.5390  -17.7990 N   0  0  0  0  0  0  0  0  0  0  0  0
   -5.1580    0.2190  -18.0660 C   0  0  0  0  0  0  0  0  0  0  0  0
   -4.7240    0.5290  -19.3830 C   0  0  0  0  0  0  0  0  0  0  0  0
   -3.5980    1.3590  -19.6200 C   0  0  0  0  0  0  0  0  0  0  0  0
   -3.2010    1.6410  -20.8950 C   0  0  0  0  0  0  0  0  0  0  0  0
   -3.9130    1.0970  -21.9930 C   0  0  0  0  0  0  0  0  0  0  0  0
   -5.0030    0.2860  -21.7860 C   0  0  0  0  0  0  0  0  0  0  0  0
   -5.4460   -0.0130  -20.4730 C   0  0  0  0  0  0  0  0  0  0  0  0
   -5.5230   -0.1460  -22.6350 H   0  0  0  0  0  0  0  0  0  0  0  0
   -3.5760    1.3140  -22.9990 H   0  0  0  0  0  0  0  0  0  0  0  0
   -2.3340    2.2670  -21.0810 H   0  0  0  0  0  0  0  0  0  0  0  0
   -3.0640    1.7670  -18.7640 H   0  0  0  0  0  0  0  0  0  0  0  0
   -4.6090    0.6250  -17.2170 H   0  0  0  0  0  0  0  0  0  0  0  0
   -7.7250   -1.6700  -18.5800 H   0  0  0  0  0  0  0  0  0  0  0  0
   -7.5620   -0.8060  -22.1060 H   0  0  0  0  0  0  0  0  0  0  0  0
   -8.4180   -1.7010  -20.8570 H   0  0  0  0  0  0  0  0  0  0  0  0
   -7.6180   -3.7620  -22.3140 N   0  0  0  0  0  0  0  0  0  0  0  0
   -7.2630   -5.1690  -22.1420 C   0  0  0  0  0  0  0  0  0  0  0  0
   -7.5160   -5.9790  -23.4070 C   0  0  0  0  0  0  0  0  0  0  0  0
   -8.9440   -5.7850  -23.9200 C   0  0  0  0  0  0  0  0  0  0  0  0
   -9.2140   -6.6800  -25.1280 C   0  0  0  0  0  0  0  0  0  0  0  0
   -8.4780   -6.4570  -26.4230 C   0  0  0  0  0  0  0  0  0  0  0  0
   -9.9710   -6.2300  -26.3510 C   0  0  0  0  0  0  0  0  0  0  0  0
  -10.6310   -6.9370  -26.8500 H   0  0  0  0  0  0  0  0  0  0  0  0
  -10.3570   -5.2120  -26.3750 H   0  0  0  0  0  0  0  0  0  0  0  0
   -7.8320   -5.5800  -26.4700 H   0  0  0  0  0  0  0  0  0  0  0  0
   -8.0870   -7.3110  -26.9750 H   0  0  0  0  0  0  0  0  0  0  0  0
   -9.3710   -7.7240  -24.8510 H   0  0  0  0  0  0  0  0  0  0  0  0
   -9.2430   -4.3010  -24.0990 C   0  0  0  0  0  0  0  0  0  0  0  0
   -8.9670   -3.5210  -22.8100 C   0  0  0  0  0  0  0  0  0  0  0  0
   -9.7180   -3.7970  -22.0450 H   0  0  0  0  0  0  0  0  0  0  0  0
   -9.0730   -2.4540  -23.0120 H   0  0  0  0  0  0  0  0  0  0  0  0
  -10.3030   -4.1810  -24.3520 H   0  0  0  0  0  0  0  0  0  0  0  0
   -8.6520   -3.8920  -24.9300 H   0  0  0  0  0  0  0  0  0  0  0  0
   -9.6280   -6.0840  -23.1370 H   0  0  0  0  0  0  0  0  0  0  0  0
   -6.8190   -5.6800  -24.2010 H   0  0  0  0  0  0  0  0  0  0  0  0
   -7.3310   -7.0390  -23.1980 H   0  0  0  0  0  0  0  0  0  0  0  0
   -7.8490   -5.5990  -21.3100 H   0  0  0  0  0  0  0  0  0  0  0  0
   -6.2110   -5.1950  -21.8590 H   0  0  0  0  0  0  0  0  0  0  0  0
  1  2  2  0  0  0  0
  2  3  1  0  0  0  0
  2 22  1  0  0  0  0
  3  4  1  0  0  0  0
  3 20  1  0  0  0  0
  3 21  1  0  0  0  0
  4  5  2  0  0  0  0
  4 13  1  0  0  0  0
  5  6  1  0  0  0  0
  5 19  1  0  0  0  0
  6  7  2  0  0  0  0
  7  8  1  0  0  0  0
  7 18  1  0  0  0  0
  8  9  2  0  0  0  0
  8 13  1  0  0  0  0
  9 10  1  0  0  0  0
  9 17  1  0  0  0  0
 10 11  2  0  0  0  0
 10 16  1  0  0  0  0
 11 12  1  0  0  0  0
 11 15  1  0  0  0  0
 12 13  2  0  0  0  0
 12 14  1  0  0  0  0
 22 23  1  0  0  0  0
 22 35  1  0  0  0  0
 23 24  1  0  0  0  0
 23 43  1  0  0  0  0
 23 44  1  0  0  0  0
 24 25  1  0  0  0  0
 24 41  1  0  0  0  0
 24 42  1  0  0  0  0
 25 26  1  0  0  0  0
 25 34  1  0  0  0  0
 25 40  1  0  0  0  0
 26 27  1  0  0  0  0
 26 28  1  0  0  0  0
 26 33  1  0  0  0  0
 27 28  1  0  0  0  0
 27 31  1  0  0  0  0
 27 32  1  0  0  0  0
 28 29  1  0  0  0  0
 28 30  1  0  0  0  0
 34 35  1  0  0  0  0
 34 38  1  0  0  0  0
 34 39  1  0  0  0  0
 35 36  1  0  0  0  0
 35 37  1  0  0  0  0
M  END
>  <MODEL>
       1

$$$$
