tmp_first_model_17_54.pdb
 OpenBabel08282502223D

 40 43  0  0  0  0  0  0  0  0999 V2000
   -9.4280   -3.8880  -22.7470 C   0  0  0  0  0  0  0  0  0  0  0  0
   -8.6550   -2.7260  -22.3640 N   0  0  0  0  0  0  0  0  0  0  0  0
   -8.6900   -1.4700  -22.9000 C   0  0  0  0  0  0  0  0  0  0  0  0
   -9.5690   -1.0760  -24.0400 C   0  0  0  0  0  0  0  0  0  0  0  0
  -10.9920   -0.8420  -23.5820 C   0  0  0  0  0  0  0  0  0  0  0  0
  -11.2910    0.2930  -22.8320 C   0  0  0  0  0  0  0  0  0  0  0  0
  -12.5870    0.5180  -22.3860 C   0  0  0  0  0  0  0  0  0  0  0  0
  -13.5930   -0.3990  -22.6740 C   0  0  0  0  0  0  0  0  0  0  0  0
  -13.2980   -1.5480  -23.3960 C   0  0  0  0  0  0  0  0  0  0  0  0
  -12.0000   -1.7640  -23.8480 C   0  0  0  0  0  0  0  0  0  0  0  0
  -11.7660   -2.6620  -24.4120 H   0  0  0  0  0  0  0  0  0  0  0  0
  -14.0780   -2.2740  -23.6040 H   0  0  0  0  0  0  0  0  0  0  0  0
  -14.6100   -0.2240  -22.3380 H   0  0  0  0  0  0  0  0  0  0  0  0
  -12.8140    1.4090  -21.8090 H   0  0  0  0  0  0  0  0  0  0  0  0
  -10.5010    1.0040  -22.6110 H   0  0  0  0  0  0  0  0  0  0  0  0
   -9.1370   -0.1650  -24.4660 H   0  0  0  0  0  0  0  0  0  0  0  0
   -9.5450   -1.8380  -24.8260 H   0  0  0  0  0  0  0  0  0  0  0  0
   -7.9540   -0.6320  -22.2340 N   0  0  0  0  0  0  0  0  0  0  0  0
   -7.4250   -1.3590  -21.2070 N   0  0  0  0  0  0  0  0  0  0  0  0
   -6.6110   -0.8040  -20.1890 C   0  0  0  0  0  0  0  0  0  0  0  0
   -6.9010   -1.0480  -18.8680 C   0  0  0  0  0  0  0  0  0  0  0  0
   -6.2050   -0.5390  -17.8230 N   0  0  0  0  0  0  0  0  0  0  0  0
   -5.1690    0.2180  -18.0860 C   0  0  0  0  0  0  0  0  0  0  0  0
   -4.7320    0.5240  -19.3990 C   0  0  0  0  0  0  0  0  0  0  0  0
   -3.6010    1.3540  -19.6250 C   0  0  0  0  0  0  0  0  0  0  0  0
   -3.1950    1.6320  -20.9020 C   0  0  0  0  0  0  0  0  0  0  0  0
   -3.8950    1.0760  -21.9970 C   0  0  0  0  0  0  0  0  0  0  0  0
   -4.9840    0.2630  -21.8060 C   0  0  0  0  0  0  0  0  0  0  0  0
   -5.4600   -0.0120  -20.4980 C   0  0  0  0  0  0  0  0  0  0  0  0
   -5.5300   -0.1590  -22.6420 H   0  0  0  0  0  0  0  0  0  0  0  0
   -3.5540    1.2840  -23.0060 H   0  0  0  0  0  0  0  0  0  0  0  0
   -2.3250    2.2580  -21.0900 H   0  0  0  0  0  0  0  0  0  0  0  0
   -3.0660    1.7670  -18.7720 H   0  0  0  0  0  0  0  0  0  0  0  0
   -4.6150    0.6180  -17.2300 H   0  0  0  0  0  0  0  0  0  0  0  0
   -7.7380   -1.6780  -18.5860 H   0  0  0  0  0  0  0  0  0  0  0  0
   -7.7930   -2.6880  -21.2690 C   0  0  0  0  0  0  0  0  0  0  0  0
   -7.3790   -3.5900  -20.5740 O   0  0  0  0  0  0  0  0  0  0  0  0
   -9.4820   -4.0020  -23.8330 H   0  0  0  0  0  0  0  0  0  0  0  0
  -10.4450   -3.8750  -22.3460 H   0  0  0  0  0  0  0  0  0  0  0  0
   -8.9290   -4.7640  -22.3480 H   0  0  0  0  0  0  0  0  0  0  0  0
  1  2  1  0  0  0  0
  1 38  1  0  0  0  0
  1 39  1  0  0  0  0
  1 40  1  0  0  0  0
  2  3  1  0  0  0  0
  2 36  1  0  0  0  0
  3  4  1  0  0  0  0
  3 18  2  0  0  0  0
  4  5  1  0  0  0  0
  4 16  1  0  0  0  0
  4 17  1  0  0  0  0
  5  6  2  0  0  0  0
  5 10  1  0  0  0  0
  6  7  1  0  0  0  0
  6 15  1  0  0  0  0
  7  8  2  0  0  0  0
  7 14  1  0  0  0  0
  8  9  1  0  0  0  0
  8 13  1  0  0  0  0
  9 10  2  0  0  0  0
  9 12  1  0  0  0  0
 10 11  1  0  0  0  0
 18 19  1  0  0  0  0
 19 20  1  0  0  0  0
 19 36  1  0  0  0  0
 20 21  2  0  0  0  0
 20 29  1  0  0  0  0
 21 22  1  0  0  0  0
 21 35  1  0  0  0  0
 22 23  2  0  0  0  0
 23 24  1  0  0  0  0
 23 34  1  0  0  0  0
 24 25  2  0  0  0  0
 24 29  1  0  0  0  0
 25 26  1  0  0  0  0
 25 33  1  0  0  0  0
 26 27  2  0  0  0  0
 26 32  1  0  0  0  0
 27 28  1  0  0  0  0
 27 31  1  0  0  0  0
 28 29  2  0  0  0  0
 28 30  1  0  0  0  0
 36 37  2  0  0  0  0
M  END
>  <MODEL>
       1

$$$$
