tmp_first_model_11_65.pdb
 OpenBabel08272522543D

 55 60  0  0  1  0  0  0  0  0999 V2000
   -7.6540   -3.5660  -23.7060 C   0  0  0  0  0  0  0  0  0  0  0  0
   -8.4920   -2.9040  -22.6010 C   0  0  1  0  0  0  0  0  0  0  0  0
   -7.6780   -2.7770  -21.2970 C   0  0  0  0  0  0  0  0  0  0  0  0
   -7.3760   -1.3640  -21.2200 N   0  0  0  0  0  0  0  0  0  0  0  0
   -6.5790   -0.8250  -20.1820 C   0  0  0  0  0  0  0  0  0  0  0  0
   -6.8870   -1.0640  -18.8560 C   0  0  0  0  0  0  0  0  0  0  0  0
   -6.2060   -0.5510  -17.8030 N   0  0  0  0  0  0  0  0  0  0  0  0
   -5.1720    0.2130  -18.0790 C   0  0  0  0  0  0  0  0  0  0  0  0
   -4.7270    0.5220  -19.3980 C   0  0  0  0  0  0  0  0  0  0  0  0
   -3.6010    1.3490  -19.6310 C   0  0  0  0  0  0  0  0  0  0  0  0
   -3.1840    1.6160  -20.9080 C   0  0  0  0  0  0  0  0  0  0  0  0
   -3.8660    1.0480  -22.0070 C   0  0  0  0  0  0  0  0  0  0  0  0
   -4.9640    0.2460  -21.8060 C   0  0  0  0  0  0  0  0  0  0  0  0
   -5.4360   -0.0180  -20.4890 C   0  0  0  0  0  0  0  0  0  0  0  0
   -5.4960   -0.1760  -22.6540 H   0  0  0  0  0  0  0  0  0  0  0  0
   -3.5240    1.2630  -23.0140 H   0  0  0  0  0  0  0  0  0  0  0  0
   -2.3340    2.2640  -21.0760 H   0  0  0  0  0  0  0  0  0  0  0  0
   -3.0930    1.7750  -18.7730 H   0  0  0  0  0  0  0  0  0  0  0  0
   -4.6320    0.6200  -17.2340 H   0  0  0  0  0  0  0  0  0  0  0  0
   -7.7500   -1.6820  -18.6060 H   0  0  0  0  0  0  0  0  0  0  0  0
   -8.1400   -0.5740  -22.0410 C   0  0  0  0  0  0  0  0  0  0  0  0
   -8.1030    0.6380  -22.0290 O   0  0  0  0  0  0  0  0  0  0  0  0
   -9.0480   -1.4510  -22.9350 C   0  0  1  0  0  0  0  0  0  0  0  0
   -8.7680   -1.0480  -24.4630 C   0  0  0  0  0  0  0  0  0  0  0  0
   -9.3410    0.2510  -24.8600 N   0  0  0  0  0  0  0  0  0  0  0  0
   -8.5730    1.2060  -25.6840 C   0  0  0  0  0  0  0  0  0  0  0  0
   -7.7710    2.1310  -24.8360 C   0  0  0  0  0  0  0  0  0  0  0  0
   -6.4610    2.0680  -24.5060 C   0  0  0  0  0  0  0  0  0  0  0  0
   -6.1720    3.1190  -23.6880 O   0  0  0  0  0  0  0  0  0  0  0  0
   -7.3370    3.7650  -23.5510 C   0  0  0  0  0  0  0  0  0  0  0  0
   -8.3200    3.2440  -24.2070 N   0  0  0  0  0  0  0  0  0  0  0  0
   -7.3300    4.6270  -22.8960 H   0  0  0  0  0  0  0  0  0  0  0  0
   -5.6390    1.3950  -24.7210 H   0  0  0  0  0  0  0  0  0  0  0  0
   -7.9740    0.6260  -26.3610 H   0  0  0  0  0  0  0  0  0  0  0  0
   -9.3500    1.7640  -26.2220 H   0  0  0  0  0  0  0  0  0  0  0  0
  -10.6080    0.6090  -24.5280 C   0  0  0  0  0  0  0  0  0  0  0  0
  -11.1540    1.6280  -24.9250 O   0  0  0  0  0  0  0  0  0  0  0  0
  -11.3120   -0.3750  -23.5650 C   0  0  0  0  0  0  0  0  0  0  0  0
  -12.5000   -0.5920  -23.1410 C   0  0  0  0  0  0  0  0  0  0  0  0
  -12.6200   -1.5480  -21.8350 C   0  0  0  0  0  0  0  0  0  0  0  0
  -12.6190   -1.5490  -21.8340 C   0  0  0  0  0  0  0  0  0  0  0  0
  -13.0290   -3.2620  -20.8220 F   0  0  0  0  0  0  0  0  0  0  0  0
  -11.1830   -1.8410  -21.5510 C   0  0  0  0  0  0  0  0  0  0  0  0
  -10.4580   -1.2730  -22.5890 C   0  0  0  0  0  0  0  0  0  0  0  0
  -11.3100   -2.7320  -21.6020 H   0  0  0  0  0  0  0  0  0  0  0  0
  -13.6130   -0.9930  -21.5440 H   0  0  0  0  0  0  0  0  0  0  0  0
  -13.3350    0.0730  -23.5190 H   0  0  0  0  0  0  0  0  0  0  0  0
   -9.2210   -1.8310  -25.1000 H   0  0  0  0  0  0  0  0  0  0  0  0
   -7.7270   -0.9950  -24.6790 H   0  0  0  0  0  0  0  0  0  0  0  0
   -8.2320   -3.1260  -20.4060 H   0  0  0  0  0  0  0  0  0  0  0  0
   -6.7490   -3.3660  -21.3390 H   0  0  0  0  0  0  0  0  0  0  0  0
   -9.3310   -3.5730  -22.4540 H   0  0  0  0  0  0  0  0  0  0  0  0
   -7.3340   -4.5720  -23.3880 H   0  0  0  0  0  0  0  0  0  0  0  0
   -6.7500   -2.9750  -23.9240 H   0  0  0  0  0  0  0  0  0  0  0  0
   -8.2210   -3.6810  -24.6420 H   0  0  0  0  0  0  0  0  0  0  0  0
  1  2  1  0  0  0  0
  1 53  1  0  0  0  0
  1 54  1  0  0  0  0
  1 55  1  0  0  0  0
  2  3  1  0  0  0  0
  2 23  1  0  0  0  0
  2 52  1  1  0  0  0
  3  4  1  0  0  0  0
  3 50  1  0  0  0  0
  3 51  1  0  0  0  0
  4  5  1  0  0  0  0
  4 21  1  0  0  0  0
  5  6  2  0  0  0  0
  5 14  1  0  0  0  0
  6  7  1  0  0  0  0
  6 20  1  0  0  0  0
  7  8  2  0  0  0  0
  8  9  1  0  0  0  0
  8 19  1  0  0  0  0
  9 10  2  0  0  0  0
  9 14  1  0  0  0  0
 10 11  1  0  0  0  0
 10 18  1  0  0  0  0
 11 12  2  0  0  0  0
 11 17  1  0  0  0  0
 12 13  1  0  0  0  0
 12 16  1  0  0  0  0
 13 14  2  0  0  0  0
 13 15  1  0  0  0  0
 21 22  2  0  0  0  0
 23 21  1  1  0  0  0
 23 24  1  0  0  0  0
 23 44  1  0  0  0  0
 24 25  1  0  0  0  0
 24 48  1  0  0  0  0
 24 49  1  0  0  0  0
 25 26  1  0  0  0  0
 25 36  1  0  0  0  0
 26 27  1  0  0  0  0
 26 34  1  0  0  0  0
 26 35  1  0  0  0  0
 27 28  2  0  0  0  0
 27 31  1  0  0  0  0
 28 29  1  0  0  0  0
 28 33  1  0  0  0  0
 29 30  1  0  0  0  0
 30 31  2  0  0  0  0
 30 32  1  0  0  0  0
 36 37  2  0  0  0  0
 36 38  1  0  0  0  0
 38 39  2  0  0  0  0
 38 44  1  0  0  0  0
 39 40  1  0  0  0  0
 39 47  1  0  0  0  0
 40 41  2  0  0  0  0
 40 46  1  0  0  0  0
 41 42  1  0  0  0  0
 41 43  1  0  0  0  0
 43 44  2  0  0  0  0
 43 45  1  0  0  0  0
M  END
>  <MODEL>
       1

$$$$
