tmp_first_model_7_25.pdb
 OpenBabel08272520323D

 70 75  0  0  1  0  0  0  0  0999 V2000
   -5.7800   -7.7670  -25.5530 O   0  0  0  0  0  0  0  0  0  0  0  0
   -5.6660   -7.1680  -24.4980 C   0  0  0  0  0  0  0  0  0  0  0  0
   -6.8460   -6.4170  -23.8690 C   0  0  0  0  0  0  0  0  0  0  0  0
   -6.7800   -4.9100  -23.9720 N   0  3  1  0  0  0  0  0  0  0  0  0
   -6.7610   -4.5230  -25.4510 C   0  0  0  0  0  0  0  0  0  0  0  0
   -6.7680   -3.0270  -25.6390 C   0  0  0  0  0  0  0  0  0  0  0  0
   -6.2810   -2.4790  -26.8280 C   0  0  0  0  0  0  0  0  0  0  0  0
   -6.2990   -1.1090  -27.0500 C   0  0  0  0  0  0  0  0  0  0  0  0
   -6.8110   -0.2770  -26.0600 C   0  0  0  0  0  0  0  0  0  0  0  0
   -6.8460    1.4470  -26.3160 Cl  0  0  0  0  0  0  0  0  0  0  0  0
   -7.3010   -0.8050  -24.8740 C   0  0  0  0  0  0  0  0  0  0  0  0
   -7.2930   -2.1850  -24.6580 C   0  0  0  0  0  0  0  0  0  0  0  0
   -7.8070   -2.7000  -23.3250 C   0  0  2  0  0  0  0  0  0  0  0  0
   -6.8330   -2.3300  -22.2110 C   0  0  0  0  0  0  0  0  0  0  0  0
   -5.7200   -2.8330  -22.1960 O   0  0  0  0  0  0  0  0  0  0  0  0
   -7.3100   -1.4320  -21.2720 N   0  0  0  0  0  0  0  0  0  0  0  0
   -6.5550   -0.8570  -20.2180 C   0  0  0  0  0  0  0  0  0  0  0  0
   -6.8930   -1.0600  -18.8980 C   0  0  0  0  0  0  0  0  0  0  0  0
   -6.2070   -0.5560  -17.8430 N   0  0  0  0  0  0  0  0  0  0  0  0
   -5.1690    0.2000  -18.0930 C   0  0  0  0  0  0  0  0  0  0  0  0
   -4.7270    0.5180  -19.4060 C   0  0  0  0  0  0  0  0  0  0  0  0
   -3.6080    1.3630  -19.6310 C   0  0  0  0  0  0  0  0  0  0  0  0
   -3.2380    1.6920  -20.9060 C   0  0  0  0  0  0  0  0  0  0  0  0
   -3.9740    1.2040  -22.0110 C   0  0  0  0  0  0  0  0  0  0  0  0
   -5.0550    0.3790  -21.8190 C   0  0  0  0  0  0  0  0  0  0  0  0
   -5.4450   -0.0030  -20.5040 C   0  0  0  0  0  0  0  0  0  0  0  0
   -5.6220    0.0120  -22.6680 H   0  0  0  0  0  0  0  0  0  0  0  0
   -3.6850    1.4840  -23.0200 H   0  0  0  0  0  0  0  0  0  0  0  0
   -2.3890    2.3500  -21.0750 H   0  0  0  0  0  0  0  0  0  0  0  0
   -3.0800    1.7560  -18.7650 H   0  0  0  0  0  0  0  0  0  0  0  0
   -4.6240    0.5990  -17.2360 H   0  0  0  0  0  0  0  0  0  0  0  0
   -7.7510   -1.6750  -18.6250 H   0  0  0  0  0  0  0  0  0  0  0  0
   -8.3150   -1.3770  -21.1690 H   0  0  0  0  0  0  0  0  0  0  0  0
   -7.9840   -4.2210  -23.3140 C   0  0  0  0  0  0  0  0  0  0  0  0
   -8.8840   -4.4930  -23.8740 H   0  0  0  0  0  0  0  0  0  0  0  0
   -8.0810   -4.5730  -22.2840 H   0  0  0  0  0  0  0  0  0  0  0  0
   -8.7640   -2.2190  -23.1050 H   0  0  0  0  0  0  0  0  0  0  0  0
   -7.6930   -0.1410  -24.1090 H   0  0  0  0  0  0  0  0  0  0  0  0
   -5.9230   -0.6800  -27.9740 H   0  0  0  0  0  0  0  0  0  0  0  0
   -5.8790   -3.1370  -27.5970 H   0  0  0  0  0  0  0  0  0  0  0  0
   -7.6430   -4.9730  -25.9280 H   0  0  0  0  0  0  0  0  0  0  0  0
   -5.8910   -4.9740  -25.9320 H   0  0  0  0  0  0  0  0  0  0  0  0
   -5.9380   -4.4970  -23.5000 H   0  0  0  0  0  0  0  0  0  0  0  0
   -7.7240   -6.7790  -24.4090 H   0  0  0  0  0  0  0  0  0  0  0  0
   -6.9710   -6.6950  -22.8210 H   0  0  0  0  0  0  0  0  0  0  0  0
   -4.5030   -7.1190  -23.7830 N   0  0  0  0  0  0  0  0  0  0  0  0
   -3.2940   -7.7520  -24.1740 C   0  0  0  0  0  0  0  0  0  0  0  0
   -2.0720   -7.1090  -23.9630 C   0  0  0  0  0  0  0  0  0  0  0  0
   -0.8880   -7.7070  -24.3870 C   0  0  0  0  0  0  0  0  0  0  0  0
   -0.9060   -8.9500  -25.0260 C   0  0  0  0  0  0  0  0  0  0  0  0
    0.3190   -9.5440  -25.4770 N   0  0  0  0  0  0  0  0  0  0  0  0
    1.3330   -9.8740  -24.4780 C   0  0  0  0  0  0  0  0  0  0  0  0
    2.6530  -10.2410  -25.1420 C   0  0  0  0  0  0  0  0  0  0  0  0
    2.4250  -11.1940  -26.1510 O   0  0  0  0  0  0  0  0  0  0  0  0
    1.7030  -10.6250  -27.2100 C   0  0  0  0  0  0  0  0  0  0  0  0
    0.4030   -9.9430  -26.7880 C   0  0  0  0  0  0  0  0  0  0  0  0
   -0.4690   -9.7260  -27.6110 O   0  0  0  0  0  0  0  0  0  0  0  0
    2.3110   -9.8660  -27.7320 H   0  0  0  0  0  0  0  0  0  0  0  0
    1.4530  -11.4280  -27.9050 H   0  0  0  0  0  0  0  0  0  0  0  0
    3.1450   -9.3540  -25.5710 H   0  0  0  0  0  0  0  0  0  0  0  0
    3.3350  -10.6980  -24.4180 H   0  0  0  0  0  0  0  0  0  0  0  0
    1.4730   -9.0110  -23.8200 H   0  0  0  0  0  0  0  0  0  0  0  0
    0.9790  -10.7220  -23.8770 H   0  0  0  0  0  0  0  0  0  0  0  0
   -2.1290   -9.6080  -25.1950 C   0  0  0  0  0  0  0  0  0  0  0  0
   -3.3120   -9.0100  -24.7740 C   0  0  0  0  0  0  0  0  0  0  0  0
   -4.2640   -9.5030  -24.9310 H   0  0  0  0  0  0  0  0  0  0  0  0
   -2.1630  -10.5820  -25.6830 H   0  0  0  0  0  0  0  0  0  0  0  0
    0.0590   -7.1890  -24.2330 H   0  0  0  0  0  0  0  0  0  0  0  0
   -2.0430   -6.1390  -23.4720 H   0  0  0  0  0  0  0  0  0  0  0  0
   -4.4920   -6.5150  -22.9790 H   0  0  0  0  0  0  0  0  0  0  0  0
  1  2  2  0  0  0  0
  2  3  1  0  0  0  0
  2 46  1  0  0  0  0
  3  4  1  0  0  0  0
  3 44  1  0  0  0  0
  3 45  1  0  0  0  0
  4  5  1  0  0  0  0
  4 34  1  0  0  0  0
  4 43  1  1  0  0  0
  5  6  1  0  0  0  0
  5 41  1  0  0  0  0
  5 42  1  0  0  0  0
  6  7  2  0  0  0  0
  6 12  1  0  0  0  0
  7  8  1  0  0  0  0
  7 40  1  0  0  0  0
  8  9  2  0  0  0  0
  8 39  1  0  0  0  0
  9 10  1  0  0  0  0
  9 11  1  0  0  0  0
 11 12  2  0  0  0  0
 11 38  1  0  0  0  0
 12 13  1  0  0  0  0
 13 14  1  0  0  0  0
 13 34  1  0  0  0  0
 13 37  1  1  0  0  0
 14 15  2  0  0  0  0
 14 16  1  0  0  0  0
 16 17  1  0  0  0  0
 16 33  1  0  0  0  0
 17 18  2  0  0  0  0
 17 26  1  0  0  0  0
 18 19  1  0  0  0  0
 18 32  1  0  0  0  0
 19 20  2  0  0  0  0
 20 21  1  0  0  0  0
 20 31  1  0  0  0  0
 21 22  2  0  0  0  0
 21 26  1  0  0  0  0
 22 23  1  0  0  0  0
 22 30  1  0  0  0  0
 23 24  2  0  0  0  0
 23 29  1  0  0  0  0
 24 25  1  0  0  0  0
 24 28  1  0  0  0  0
 25 26  2  0  0  0  0
 25 27  1  0  0  0  0
 34 35  1  0  0  0  0
 34 36  1  0  0  0  0
 46 47  1  0  0  0  0
 46 70  1  0  0  0  0
 47 48  2  0  0  0  0
 47 65  1  0  0  0  0
 48 49  1  0  0  0  0
 48 69  1  0  0  0  0
 49 50  2  0  0  0  0
 49 68  1  0  0  0  0
 50 51  1  0  0  0  0
 50 64  1  0  0  0  0
 51 52  1  0  0  0  0
 51 56  1  0  0  0  0
 52 53  1  0  0  0  0
 52 62  1  0  0  0  0
 52 63  1  0  0  0  0
 53 54  1  0  0  0  0
 53 60  1  0  0  0  0
 53 61  1  0  0  0  0
 54 55  1  0  0  0  0
 55 56  1  0  0  0  0
 55 58  1  0  0  0  0
 55 59  1  0  0  0  0
 56 57  2  0  0  0  0
 64 65  2  0  0  0  0
 64 67  1  0  0  0  0
 65 66  1  0  0  0  0
M  CHG  1   4   1
M  END
>  <MODEL>
       1

$$$$
