tmp_first_model_7_60.pdb
 OpenBabel08272520323D

 62 67  0  0  1  0  0  0  0  0999 V2000
  -11.3120    4.3270  -25.2230 C   0  0  0  0  0  0  0  0  0  0  0  0
   -9.8220    4.1780  -25.5280 C   0  0  0  0  0  0  0  0  0  0  0  0
   -9.0680    3.5910  -24.4240 N   0  0  0  0  0  0  0  0  0  0  0  0
   -8.4890    4.4160  -23.5360 N   0  0  0  0  0  0  0  0  0  0  0  0
   -7.9030    3.6210  -22.6490 C   0  0  0  0  0  0  0  0  0  0  0  0
   -8.1110    2.2670  -22.9710 C   0  0  0  0  0  0  0  0  0  0  0  0
   -8.8920    2.2780  -24.1020 C   0  0  0  0  0  0  0  0  0  0  0  0
   -9.4000    1.1010  -24.8870 C   0  0  0  0  0  0  0  0  0  0  0  0
   -9.8540    0.0080  -24.0470 N   0  0  0  0  0  0  0  0  0  0  0  0
   -9.0450   -1.1960  -23.9710 C   0  0  0  0  0  0  0  0  0  0  0  0
   -9.2200   -1.9250  -22.6130 C   0  0  2  0  0  0  0  0  0  0  0  0
   -8.6630   -1.0320  -21.4680 C   0  0  0  0  0  0  0  0  0  0  0  0
   -9.2270   -0.1110  -20.9150 O   0  0  0  0  0  0  0  0  0  0  0  0
   -7.3730   -1.4350  -21.1930 N   0  0  0  0  0  0  0  0  0  0  0  0
   -6.5990   -0.8250  -20.1700 C   0  0  0  0  0  0  0  0  0  0  0  0
   -6.9050   -1.0480  -18.8500 C   0  0  0  0  0  0  0  0  0  0  0  0
   -6.1940   -0.5480  -17.8100 N   0  0  0  0  0  0  0  0  0  0  0  0
   -5.1610    0.2070  -18.0830 C   0  0  0  0  0  0  0  0  0  0  0  0
   -4.7270    0.5230  -19.4000 C   0  0  0  0  0  0  0  0  0  0  0  0
   -3.6030    1.3570  -19.6430 C   0  0  0  0  0  0  0  0  0  0  0  0
   -3.2260    1.6600  -20.9210 C   0  0  0  0  0  0  0  0  0  0  0  0
   -3.9570    1.1410  -22.0130 C   0  0  0  0  0  0  0  0  0  0  0  0
   -5.0490    0.3280  -21.8020 C   0  0  0  0  0  0  0  0  0  0  0  0
   -5.4640   -0.0070  -20.4870 C   0  0  0  0  0  0  0  0  0  0  0  0
   -5.6040   -0.0610  -22.6510 H   0  0  0  0  0  0  0  0  0  0  0  0
   -3.6620    1.3980  -23.0240 H   0  0  0  0  0  0  0  0  0  0  0  0
   -2.3780    2.3170  -21.1010 H   0  0  0  0  0  0  0  0  0  0  0  0
   -3.0750    1.7700  -18.7870 H   0  0  0  0  0  0  0  0  0  0  0  0
   -4.6140    0.6160  -17.2330 H   0  0  0  0  0  0  0  0  0  0  0  0
   -7.7540   -1.6720  -18.5810 H   0  0  0  0  0  0  0  0  0  0  0  0
   -6.9600   -2.6140  -21.9350 C   0  0  0  0  0  0  0  0  0  0  0  0
   -8.2850   -3.1630  -22.5090 C   0  0  2  0  0  0  0  0  0  0  0  0
   -8.0920   -3.9880  -23.7840 C   0  0  0  0  0  0  0  0  0  0  0  0
   -7.5540   -3.4110  -24.5480 H   0  0  0  0  0  0  0  0  0  0  0  0
   -7.5040   -4.8910  -23.5830 H   0  0  0  0  0  0  0  0  0  0  0  0
   -9.0490   -4.2980  -24.2200 H   0  0  0  0  0  0  0  0  0  0  0  0
   -8.7240   -3.8000  -21.7350 H   0  0  0  0  0  0  0  0  0  0  0  0
   -6.4600   -3.3270  -21.2680 H   0  0  0  0  0  0  0  0  0  0  0  0
   -6.2510   -2.3620  -22.7400 H   0  0  0  0  0  0  0  0  0  0  0  0
  -10.7080   -2.1730  -22.4250 C   0  0  0  0  0  0  0  0  0  0  0  0
  -11.2270   -3.2520  -21.6970 C   0  0  0  0  0  0  0  0  0  0  0  0
  -12.5860   -3.3000  -21.4480 C   0  0  0  0  0  0  0  0  0  0  0  0
  -13.0840   -4.2540  -20.6490 F   0  0  0  0  0  0  0  0  0  0  0  0
  -13.4840   -2.3650  -21.9420 C   0  0  0  0  0  0  0  0  0  0  0  0
  -12.9760   -1.2940  -22.6430 C   0  0  0  0  0  0  0  0  0  0  0  0
  -11.6030   -1.1810  -22.8560 C   0  0  0  0  0  0  0  0  0  0  0  0
  -11.0980    0.0800  -23.4870 C   0  0  0  0  0  0  0  0  0  0  0  0
  -11.7640    1.1060  -23.5000 O   0  0  0  0  0  0  0  0  0  0  0  0
  -13.6160   -0.4990  -23.0090 H   0  0  0  0  0  0  0  0  0  0  0  0
  -14.5380   -2.4870  -21.7220 H   0  0  0  0  0  0  0  0  0  0  0  0
  -10.5950   -4.0110  -21.2480 H   0  0  0  0  0  0  0  0  0  0  0  0
   -9.3090   -1.8950  -24.7820 H   0  0  0  0  0  0  0  0  0  0  0  0
   -7.9960   -0.9000  -24.0910 H   0  0  0  0  0  0  0  0  0  0  0  0
  -10.1920    1.4030  -25.5790 H   0  0  0  0  0  0  0  0  0  0  0  0
   -8.5850    0.6980  -25.4980 H   0  0  0  0  0  0  0  0  0  0  0  0
   -7.7810    1.3720  -22.4630 H   0  0  0  0  0  0  0  0  0  0  0  0
   -7.3640    4.0660  -21.8180 H   0  0  0  0  0  0  0  0  0  0  0  0
   -9.3560    5.1540  -25.7130 H   0  0  0  0  0  0  0  0  0  0  0  0
   -9.6560    3.5510  -26.4130 H   0  0  0  0  0  0  0  0  0  0  0  0
  -11.7670    3.3600  -24.9960 H   0  0  0  0  0  0  0  0  0  0  0  0
  -11.4710    4.9800  -24.3590 H   0  0  0  0  0  0  0  0  0  0  0  0
  -11.8200    4.7640  -26.0880 H   0  0  0  0  0  0  0  0  0  0  0  0
  1  2  1  0  0  0  0
  1 60  1  0  0  0  0
  1 61  1  0  0  0  0
  1 62  1  0  0  0  0
  2  3  1  0  0  0  0
  2 58  1  0  0  0  0
  2 59  1  0  0  0  0
  3  4  1  0  0  0  0
  3  7  1  0  0  0  0
  4  5  2  0  0  0  0
  5  6  1  0  0  0  0
  5 57  1  0  0  0  0
  6  7  2  0  0  0  0
  6 56  1  0  0  0  0
  7  8  1  0  0  0  0
  8  9  1  0  0  0  0
  8 54  1  0  0  0  0
  8 55  1  0  0  0  0
  9 10  1  0  0  0  0
  9 47  1  0  0  0  0
 10 11  1  0  0  0  0
 10 52  1  0  0  0  0
 10 53  1  0  0  0  0
 11 12  1  1  0  0  0
 11 32  1  0  0  0  0
 11 40  1  0  0  0  0
 12 13  2  0  0  0  0
 12 14  1  0  0  0  0
 14 15  1  0  0  0  0
 14 31  1  0  0  0  0
 15 16  2  0  0  0  0
 15 24  1  0  0  0  0
 16 17  1  0  0  0  0
 16 30  1  0  0  0  0
 17 18  2  0  0  0  0
 18 19  1  0  0  0  0
 18 29  1  0  0  0  0
 19 20  2  0  0  0  0
 19 24  1  0  0  0  0
 20 21  1  0  0  0  0
 20 28  1  0  0  0  0
 21 22  2  0  0  0  0
 21 27  1  0  0  0  0
 22 23  1  0  0  0  0
 22 26  1  0  0  0  0
 23 24  2  0  0  0  0
 23 25  1  0  0  0  0
 31 32  1  0  0  0  0
 31 38  1  0  0  0  0
 31 39  1  0  0  0  0
 32 33  1  0  0  0  0
 32 37  1  1  0  0  0
 33 34  1  0  0  0  0
 33 35  1  0  0  0  0
 33 36  1  0  0  0  0
 40 41  2  0  0  0  0
 40 46  1  0  0  0  0
 41 42  1  0  0  0  0
 41 51  1  0  0  0  0
 42 43  1  0  0  0  0
 42 44  2  0  0  0  0
 44 45  1  0  0  0  0
 44 50  1  0  0  0  0
 45 46  2  0  0  0  0
 45 49  1  0  0  0  0
 46 47  1  0  0  0  0
 47 48  2  0  0  0  0
M  END
>  <MODEL>
       1

$$$$
