tmp_first_model_11_78.pdb
 OpenBabel08272522543D

 56 60  0  0  1  0  0  0  0  0999 V2000
  -14.5160   -1.5060  -23.8590 C   0  0  0  0  0  0  0  0  0  0  0  0
  -13.7040   -2.6260  -23.4280 N   0  0  0  0  0  0  0  0  0  0  0  0
  -13.2500   -2.6220  -22.1490 C   0  0  0  0  0  0  0  0  0  0  0  0
  -13.4630   -1.6950  -21.3890 O   0  0  0  0  0  0  0  0  0  0  0  0
  -12.4620   -3.8600  -21.7360 C   0  0  0  0  0  0  0  0  0  0  0  0
  -11.1080   -3.8690  -22.2670 N   0  0  0  0  0  0  0  0  0  0  0  0
  -10.0000   -3.3720  -21.4600 C   0  0  0  0  0  0  0  0  0  0  0  0
   -8.7880   -2.9220  -22.3100 C   0  0  2  0  0  0  0  0  0  0  0  0
   -7.6290   -2.7130  -21.3380 C   0  0  0  0  0  0  0  0  0  0  0  0
   -7.0450   -3.5720  -20.7070 O   0  0  0  0  0  0  0  0  0  0  0  0
   -7.3570   -1.3660  -21.2470 N   0  0  0  0  0  0  0  0  0  0  0  0
   -6.5690   -0.8670  -20.1910 C   0  0  0  0  0  0  0  0  0  0  0  0
   -6.8960   -1.1160  -18.8820 C   0  0  0  0  0  0  0  0  0  0  0  0
   -6.2420   -0.5770  -17.8220 N   0  0  0  0  0  0  0  0  0  0  0  0
   -5.2190    0.2010  -18.0850 C   0  0  0  0  0  0  0  0  0  0  0  0
   -4.7570    0.5040  -19.3980 C   0  0  0  0  0  0  0  0  0  0  0  0
   -3.6310    1.3300  -19.6360 C   0  0  0  0  0  0  0  0  0  0  0  0
   -3.2290    1.5980  -20.9140 C   0  0  0  0  0  0  0  0  0  0  0  0
   -3.9260    1.0590  -22.0180 C   0  0  0  0  0  0  0  0  0  0  0  0
   -5.0200    0.2530  -21.8170 C   0  0  0  0  0  0  0  0  0  0  0  0
   -5.4560   -0.0350  -20.4970 C   0  0  0  0  0  0  0  0  0  0  0  0
   -5.5510   -0.1730  -22.6630 H   0  0  0  0  0  0  0  0  0  0  0  0
   -3.6010    1.2930  -23.0270 H   0  0  0  0  0  0  0  0  0  0  0  0
   -2.3750    2.2450  -21.0900 H   0  0  0  0  0  0  0  0  0  0  0  0
   -3.1170    1.7550  -18.7780 H   0  0  0  0  0  0  0  0  0  0  0  0
   -4.6920    0.6370  -17.2350 H   0  0  0  0  0  0  0  0  0  0  0  0
   -7.7310   -1.7710  -18.6420 H   0  0  0  0  0  0  0  0  0  0  0  0
   -8.3600   -0.5390  -21.8990 C   0  0  0  0  0  0  0  0  0  0  0  0
   -8.9790   -1.4910  -22.9290 C   0  0  2  0  0  0  0  0  0  0  0  0
  -10.4150   -1.1380  -23.2840 C   0  0  0  0  0  0  0  0  0  0  0  0
  -11.0320   -1.1110  -22.3800 H   0  0  0  0  0  0  0  0  0  0  0  0
  -10.4850   -0.1640  -23.7740 H   0  0  0  0  0  0  0  0  0  0  0  0
  -10.8310   -1.9000  -23.9490 H   0  0  0  0  0  0  0  0  0  0  0  0
   -8.3620   -1.4610  -23.8380 H   0  0  0  0  0  0  0  0  0  0  0  0
   -7.9060    0.3470  -22.3530 H   0  0  0  0  0  0  0  0  0  0  0  0
   -9.1150   -0.1870  -21.1750 H   0  0  0  0  0  0  0  0  0  0  0  0
   -8.4970   -3.9730  -23.3510 C   0  0  0  0  0  0  0  0  0  0  0  0
   -7.2190   -4.1050  -23.9000 C   0  0  0  0  0  0  0  0  0  0  0  0
   -6.9950   -5.0320  -24.9020 C   0  0  0  0  0  0  0  0  0  0  0  0
   -5.4350   -5.1030  -25.6590 Cl  0  0  0  0  0  0  0  0  0  0  0  0
   -8.0020   -5.8800  -25.3590 C   0  0  0  0  0  0  0  0  0  0  0  0
   -9.2670   -5.7350  -24.8270 C   0  0  0  0  0  0  0  0  0  0  0  0
   -9.5300   -4.7530  -23.8750 C   0  0  0  0  0  0  0  0  0  0  0  0
  -10.9370   -4.4960  -23.4600 C   0  0  0  0  0  0  0  0  0  0  0  0
  -11.9050   -4.8020  -24.1630 O   0  0  0  0  0  0  0  0  0  0  0  0
  -10.0740   -6.3830  -25.1460 H   0  0  0  0  0  0  0  0  0  0  0  0
   -7.7970   -6.6160  -26.1320 H   0  0  0  0  0  0  0  0  0  0  0  0
   -6.4000   -3.4860  -23.5500 H   0  0  0  0  0  0  0  0  0  0  0  0
   -9.6860   -4.1430  -20.7420 H   0  0  0  0  0  0  0  0  0  0  0  0
  -10.3390   -2.5000  -20.8910 H   0  0  0  0  0  0  0  0  0  0  0  0
  -12.9810   -4.7010  -22.2000 H   0  0  0  0  0  0  0  0  0  0  0  0
  -12.4450   -3.9730  -20.6450 H   0  0  0  0  0  0  0  0  0  0  0  0
  -13.4500   -3.4010  -24.0290 H   0  0  0  0  0  0  0  0  0  0  0  0
  -13.9300   -0.5750  -23.8670 H   0  0  0  0  0  0  0  0  0  0  0  0
  -14.8940   -1.7070  -24.8610 H   0  0  0  0  0  0  0  0  0  0  0  0
  -15.3610   -1.3850  -23.1700 H   0  0  0  0  0  0  0  0  0  0  0  0
  1  2  1  0  0  0  0
  1 54  1  0  0  0  0
  1 55  1  0  0  0  0
  1 56  1  0  0  0  0
  2  3  1  0  0  0  0
  2 53  1  0  0  0  0
  3  4  2  0  0  0  0
  3  5  1  0  0  0  0
  5  6  1  0  0  0  0
  5 51  1  0  0  0  0
  5 52  1  0  0  0  0
  6  7  1  0  0  0  0
  6 44  1  0  0  0  0
  7  8  1  0  0  0  0
  7 49  1  0  0  0  0
  7 50  1  0  0  0  0
  8  9  1  1  0  0  0
  8 29  1  0  0  0  0
  8 37  1  0  0  0  0
  9 10  2  0  0  0  0
  9 11  1  0  0  0  0
 11 12  1  0  0  0  0
 11 28  1  0  0  0  0
 12 13  2  0  0  0  0
 12 21  1  0  0  0  0
 13 14  1  0  0  0  0
 13 27  1  0  0  0  0
 14 15  2  0  0  0  0
 15 16  1  0  0  0  0
 15 26  1  0  0  0  0
 16 17  2  0  0  0  0
 16 21  1  0  0  0  0
 17 18  1  0  0  0  0
 17 25  1  0  0  0  0
 18 19  2  0  0  0  0
 18 24  1  0  0  0  0
 19 20  1  0  0  0  0
 19 23  1  0  0  0  0
 20 21  2  0  0  0  0
 20 22  1  0  0  0  0
 28 29  1  0  0  0  0
 28 35  1  0  0  0  0
 28 36  1  0  0  0  0
 29 30  1  0  0  0  0
 29 34  1  6  0  0  0
 30 31  1  0  0  0  0
 30 32  1  0  0  0  0
 30 33  1  0  0  0  0
 37 38  2  0  0  0  0
 37 43  1  0  0  0  0
 38 39  1  0  0  0  0
 38 48  1  0  0  0  0
 39 40  1  0  0  0  0
 39 41  2  0  0  0  0
 41 42  1  0  0  0  0
 41 47  1  0  0  0  0
 42 43  2  0  0  0  0
 42 46  1  0  0  0  0
 43 44  1  0  0  0  0
 44 45  2  0  0  0  0
M  END
>  <MODEL>
       1

$$$$
