tmp_first_model_6_87.pdb
 OpenBabel08272519583D

 59 64  0  0  1  0  0  0  0  0999 V2000
   -8.2670   -4.0830  -23.6820 C   0  0  0  0  0  0  0  0  0  0  0  0
   -8.4820   -3.1280  -22.5070 C   0  0  1  0  0  0  0  0  0  0  0  0
   -7.1520   -2.4880  -22.0600 C   0  0  0  0  0  0  0  0  0  0  0  0
   -7.5740   -1.3170  -21.3180 N   0  0  0  0  0  0  0  0  0  0  0  0
   -6.8330   -0.7560  -20.2490 C   0  0  0  0  0  0  0  0  0  0  0  0
   -7.1350   -1.0850  -18.9520 C   0  0  0  0  0  0  0  0  0  0  0  0
   -6.4110   -0.6920  -17.8750 N   0  0  0  0  0  0  0  0  0  0  0  0
   -5.3690    0.0750  -18.0780 C   0  0  0  0  0  0  0  0  0  0  0  0
   -4.9520    0.5100  -19.3660 C   0  0  0  0  0  0  0  0  0  0  0  0
   -3.8250    1.3570  -19.5450 C   0  0  0  0  0  0  0  0  0  0  0  0
   -3.4610    1.7650  -20.7990 C   0  0  0  0  0  0  0  0  0  0  0  0
   -4.1920    1.3320  -21.9280 C   0  0  0  0  0  0  0  0  0  0  0  0
   -5.2810    0.5070  -21.7800 C   0  0  0  0  0  0  0  0  0  0  0  0
   -5.6960    0.0810  -20.4920 C   0  0  0  0  0  0  0  0  0  0  0  0
   -5.8280    0.1580  -22.6510 H   0  0  0  0  0  0  0  0  0  0  0  0
   -3.8690    1.6340  -22.9210 H   0  0  0  0  0  0  0  0  0  0  0  0
   -2.6060    2.4210  -20.9360 H   0  0  0  0  0  0  0  0  0  0  0  0
   -3.2730    1.6810  -18.6660 H   0  0  0  0  0  0  0  0  0  0  0  0
   -4.7920    0.3870  -17.2030 H   0  0  0  0  0  0  0  0  0  0  0  0
   -7.9910   -1.7190  -18.7310 H   0  0  0  0  0  0  0  0  0  0  0  0
   -8.8760   -0.9620  -21.5790 C   0  0  0  0  0  0  0  0  0  0  0  0
   -9.4730   -0.0610  -21.0240 O   0  0  0  0  0  0  0  0  0  0  0  0
   -9.4240   -1.8960  -22.6970 C   0  0  1  0  0  0  0  0  0  0  0  0
   -9.1950   -1.2400  -24.0760 C   0  0  0  0  0  0  0  0  0  0  0  0
  -10.0390   -0.0800  -24.2710 N   0  0  0  0  0  0  0  0  0  0  0  0
   -9.4770    1.0590  -24.9610 C   0  0  0  0  0  0  0  0  0  0  0  0
   -8.6480    1.9280  -24.0620 C   0  0  0  0  0  0  0  0  0  0  0  0
   -8.9890    2.6110  -22.9160 C   0  0  0  0  0  0  0  0  0  0  0  0
   -7.8400    3.3710  -22.5960 C   0  0  0  0  0  0  0  0  0  0  0  0
   -6.8680    3.1600  -23.4760 N   0  0  0  0  0  0  0  0  0  0  0  0
   -7.3700    2.2740  -24.3510 N   0  0  0  0  0  0  0  0  0  0  0  0
   -6.5120    1.6390  -25.3310 C   0  0  0  0  0  0  0  0  0  0  0  0
   -5.4810    1.8930  -25.0830 H   0  0  0  0  0  0  0  0  0  0  0  0
   -6.6300    0.5500  -25.2800 H   0  0  0  0  0  0  0  0  0  0  0  0
   -6.7530    1.9840  -26.3430 H   0  0  0  0  0  0  0  0  0  0  0  0
   -7.6670    4.0440  -21.7590 H   0  0  0  0  0  0  0  0  0  0  0  0
   -9.9180    2.5200  -22.3670 H   0  0  0  0  0  0  0  0  0  0  0  0
  -10.3380    1.6250  -25.3210 H   0  0  0  0  0  0  0  0  0  0  0  0
   -8.9030    0.7120  -25.8320 H   0  0  0  0  0  0  0  0  0  0  0  0
  -11.3830   -0.1260  -24.0450 C   0  0  0  0  0  0  0  0  0  0  0  0
  -12.1720    0.6710  -24.5410 O   0  0  0  0  0  0  0  0  0  0  0  0
  -11.8290   -1.1660  -23.0750 C   0  0  0  0  0  0  0  0  0  0  0  0
  -13.1560   -1.0840  -22.6450 C   0  0  0  0  0  0  0  0  0  0  0  0
  -13.6280   -1.9300  -21.6690 C   0  0  0  0  0  0  0  0  0  0  0  0
  -12.7450   -2.8860  -21.1850 C   0  0  0  0  0  0  0  0  0  0  0  0
  -13.1690   -3.6340  -20.1570 F   0  0  0  0  0  0  0  0  0  0  0  0
  -11.4410   -3.0330  -21.6310 C   0  0  0  0  0  0  0  0  0  0  0  0
  -10.9210   -2.0830  -22.5150 C   0  0  0  0  0  0  0  0  0  0  0  0
  -10.8310   -3.8360  -21.2220 H   0  0  0  0  0  0  0  0  0  0  0  0
  -14.6310   -1.8500  -21.2490 H   0  0  0  0  0  0  0  0  0  0  0  0
  -13.7800   -0.3160  -23.0850 H   0  0  0  0  0  0  0  0  0  0  0  0
   -9.3810   -1.9850  -24.8610 H   0  0  0  0  0  0  0  0  0  0  0  0
   -8.1570   -0.9140  -24.1730 H   0  0  0  0  0  0  0  0  0  0  0  0
   -6.5380   -3.1380  -21.4290 H   0  0  0  0  0  0  0  0  0  0  0  0
   -6.5500   -2.2070  -22.9400 H   0  0  0  0  0  0  0  0  0  0  0  0
   -8.8620   -3.7020  -21.6520 H   0  0  0  0  0  0  0  0  0  0  0  0
   -7.8050   -3.5640  -24.5320 H   0  0  0  0  0  0  0  0  0  0  0  0
   -9.2010   -4.5370  -24.0290 H   0  0  0  0  0  0  0  0  0  0  0  0
   -7.5840   -4.8920  -23.3920 H   0  0  0  0  0  0  0  0  0  0  0  0
  1  2  1  0  0  0  0
  1 57  1  0  0  0  0
  1 58  1  0  0  0  0
  1 59  1  0  0  0  0
  2  3  1  0  0  0  0
  2 23  1  0  0  0  0
  2 56  1  1  0  0  0
  3  4  1  0  0  0  0
  3 54  1  0  0  0  0
  3 55  1  0  0  0  0
  4  5  1  0  0  0  0
  4 21  1  0  0  0  0
  5  6  2  0  0  0  0
  5 14  1  0  0  0  0
  6  7  1  0  0  0  0
  6 20  1  0  0  0  0
  7  8  2  0  0  0  0
  8  9  1  0  0  0  0
  8 19  1  0  0  0  0
  9 10  2  0  0  0  0
  9 14  1  0  0  0  0
 10 11  1  0  0  0  0
 10 18  1  0  0  0  0
 11 12  2  0  0  0  0
 11 17  1  0  0  0  0
 12 13  1  0  0  0  0
 12 16  1  0  0  0  0
 13 14  2  0  0  0  0
 13 15  1  0  0  0  0
 21 22  2  0  0  0  0
 23 21  1  1  0  0  0
 23 24  1  0  0  0  0
 23 48  1  0  0  0  0
 24 25  1  0  0  0  0
 24 52  1  0  0  0  0
 24 53  1  0  0  0  0
 25 26  1  0  0  0  0
 25 40  1  0  0  0  0
 26 27  1  0  0  0  0
 26 38  1  0  0  0  0
 26 39  1  0  0  0  0
 27 28  2  0  0  0  0
 27 31  1  0  0  0  0
 28 29  1  0  0  0  0
 28 37  1  0  0  0  0
 29 30  2  0  0  0  0
 29 36  1  0  0  0  0
 30 31  1  0  0  0  0
 31 32  1  0  0  0  0
 32 33  1  0  0  0  0
 32 34  1  0  0  0  0
 32 35  1  0  0  0  0
 40 41  2  0  0  0  0
 40 42  1  0  0  0  0
 42 43  2  0  0  0  0
 42 48  1  0  0  0  0
 43 44  1  0  0  0  0
 43 51  1  0  0  0  0
 44 45  2  0  0  0  0
 44 50  1  0  0  0  0
 45 46  1  0  0  0  0
 45 47  1  0  0  0  0
 47 48  2  0  0  0  0
 47 49  1  0  0  0  0
M  END
>  <MODEL>
       1

$$$$
