tmp_first_model_9_62.pdb
 OpenBabel08272521403D

 44 47  0  0  0  0  0  0  0  0999 V2000
   -5.5880   -2.9830  -21.6730 O   0  0  0  0  0  0  0  0  0  0  0  0
   -6.7900   -2.8020  -21.7690 C   0  0  0  0  0  0  0  0  0  0  0  0
   -7.4210   -1.4820  -21.2560 C   0  0  0  0  0  0  0  0  0  0  0  0
   -6.5810   -0.8250  -20.1810 C   0  0  0  0  0  0  0  0  0  0  0  0
   -6.8730   -1.0420  -18.8610 C   0  0  0  0  0  0  0  0  0  0  0  0
   -6.1820   -0.5410  -17.8050 N   0  0  0  0  0  0  0  0  0  0  0  0
   -5.1540    0.2240  -18.0690 C   0  0  0  0  0  0  0  0  0  0  0  0
   -4.7190    0.5330  -19.3830 C   0  0  0  0  0  0  0  0  0  0  0  0
   -3.5900    1.3580  -19.6210 C   0  0  0  0  0  0  0  0  0  0  0  0
   -3.1890    1.6350  -20.8990 C   0  0  0  0  0  0  0  0  0  0  0  0
   -3.9030    1.0940  -21.9900 C   0  0  0  0  0  0  0  0  0  0  0  0
   -4.9970    0.2900  -21.7860 C   0  0  0  0  0  0  0  0  0  0  0  0
   -5.4450   -0.0100  -20.4740 C   0  0  0  0  0  0  0  0  0  0  0  0
   -5.5150   -0.1400  -22.6370 H   0  0  0  0  0  0  0  0  0  0  0  0
   -3.5740    1.3080  -23.0040 H   0  0  0  0  0  0  0  0  0  0  0  0
   -2.3270    2.2720  -21.0830 H   0  0  0  0  0  0  0  0  0  0  0  0
   -3.0600    1.7750  -18.7670 H   0  0  0  0  0  0  0  0  0  0  0  0
   -4.6030    0.6290  -17.2170 H   0  0  0  0  0  0  0  0  0  0  0  0
   -7.7200   -1.6700  -18.5820 H   0  0  0  0  0  0  0  0  0  0  0  0
   -7.5640   -0.7930  -22.1000 H   0  0  0  0  0  0  0  0  0  0  0  0
   -8.4230   -1.6900  -20.8500 H   0  0  0  0  0  0  0  0  0  0  0  0
   -7.6230   -3.7680  -22.3090 N   0  0  0  0  0  0  0  0  0  0  0  0
   -7.2630   -5.1760  -22.1500 C   0  0  0  0  0  0  0  0  0  0  0  0
   -7.5330   -5.9920  -23.4020 C   0  0  0  0  0  0  0  0  0  0  0  0
   -8.9760   -5.8200  -23.8810 C   0  0  0  0  0  0  0  0  0  0  0  0
   -9.2340   -6.6960  -25.1080 C   0  0  0  0  0  0  0  0  0  0  0  0
   -8.4870   -6.4590  -26.3930 C   0  0  0  0  0  0  0  0  0  0  0  0
   -9.9730   -6.2340  -26.3350 C   0  0  0  0  0  0  0  0  0  0  0  0
  -10.6140   -6.9390  -26.8640 H   0  0  0  0  0  0  0  0  0  0  0  0
  -10.3370   -5.2110  -26.3780 H   0  0  0  0  0  0  0  0  0  0  0  0
   -7.8540   -5.5740  -26.4450 H   0  0  0  0  0  0  0  0  0  0  0  0
   -8.1120   -7.3070  -26.9660 H   0  0  0  0  0  0  0  0  0  0  0  0
   -9.3750   -7.7510  -24.8690 H   0  0  0  0  0  0  0  0  0  0  0  0
   -9.2650   -4.3330  -24.0710 C   0  0  0  0  0  0  0  0  0  0  0  0
   -8.9710   -3.5280  -22.8070 C   0  0  0  0  0  0  0  0  0  0  0  0
   -9.7220   -3.7780  -22.0410 H   0  0  0  0  0  0  0  0  0  0  0  0
   -9.0770   -2.4650  -23.0280 H   0  0  0  0  0  0  0  0  0  0  0  0
  -10.3140   -4.1860  -24.3440 H   0  0  0  0  0  0  0  0  0  0  0  0
   -8.6720   -3.9370  -24.9010 H   0  0  0  0  0  0  0  0  0  0  0  0
   -9.6350   -6.1760  -23.0820 H   0  0  0  0  0  0  0  0  0  0  0  0
   -6.8470   -5.6860  -24.1980 H   0  0  0  0  0  0  0  0  0  0  0  0
   -7.3280   -7.0500  -23.1990 H   0  0  0  0  0  0  0  0  0  0  0  0
   -7.8460   -5.6310  -21.3370 H   0  0  0  0  0  0  0  0  0  0  0  0
   -6.2110   -5.2250  -21.8650 H   0  0  0  0  0  0  0  0  0  0  0  0
  1  2  2  0  0  0  0
  2  3  1  0  0  0  0
  2 22  1  0  0  0  0
  3  4  1  0  0  0  0
  3 20  1  0  0  0  0
  3 21  1  0  0  0  0
  4  5  2  0  0  0  0
  4 13  1  0  0  0  0
  5  6  1  0  0  0  0
  5 19  1  0  0  0  0
  6  7  2  0  0  0  0
  7  8  1  0  0  0  0
  7 18  1  0  0  0  0
  8  9  2  0  0  0  0
  8 13  1  0  0  0  0
  9 10  1  0  0  0  0
  9 17  1  0  0  0  0
 10 11  2  0  0  0  0
 10 16  1  0  0  0  0
 11 12  1  0  0  0  0
 11 15  1  0  0  0  0
 12 13  2  0  0  0  0
 12 14  1  0  0  0  0
 22 23  1  0  0  0  0
 22 35  1  0  0  0  0
 23 24  1  0  0  0  0
 23 43  1  0  0  0  0
 23 44  1  0  0  0  0
 24 25  1  0  0  0  0
 24 41  1  0  0  0  0
 24 42  1  0  0  0  0
 25 26  1  0  0  0  0
 25 34  1  0  0  0  0
 25 40  1  0  0  0  0
 26 27  1  0  0  0  0
 26 28  1  0  0  0  0
 26 33  1  0  0  0  0
 27 28  1  0  0  0  0
 27 31  1  0  0  0  0
 27 32  1  0  0  0  0
 28 29  1  0  0  0  0
 28 30  1  0  0  0  0
 34 35  1  0  0  0  0
 34 38  1  0  0  0  0
 34 39  1  0  0  0  0
 35 36  1  0  0  0  0
 35 37  1  0  0  0  0
M  END
>  <MODEL>
       1

$$$$
