tmp_first_model_13_48.pdb
 OpenBabel08282500103D

 46 48  0  0  0  0  0  0  0  0999 V2000
  -13.6440   -2.9920  -24.5860 C   0  0  0  0  0  0  0  0  0  0  0  0
  -13.4830   -2.7380  -23.0780 C   0  0  0  0  0  0  0  0  0  0  0  0
  -13.7260   -4.0440  -22.3030 C   0  0  0  0  0  0  0  0  0  0  0  0
  -13.6390   -3.9090  -21.2150 H   0  0  0  0  0  0  0  0  0  0  0  0
  -14.7230   -4.4470  -22.5160 H   0  0  0  0  0  0  0  0  0  0  0  0
  -12.9970   -4.8020  -22.6140 H   0  0  0  0  0  0  0  0  0  0  0  0
  -12.1280   -2.0870  -22.6690 C   0  0  0  0  0  0  0  0  0  0  0  0
  -10.9070   -3.0200  -22.8510 C   0  0  0  0  0  0  0  0  0  0  0  0
   -9.6340   -2.2300  -23.2020 C   0  0  0  0  0  0  0  0  0  0  0  0
   -9.5830   -0.9430  -22.5240 N   0  0  0  0  0  0  0  0  0  0  0  0
   -8.5200   -0.4390  -21.8130 C   0  0  0  0  0  0  0  0  0  0  0  0
   -8.4320    0.7550  -21.5820 O   0  0  0  0  0  0  0  0  0  0  0  0
   -7.4640   -1.4330  -21.2740 C   0  0  0  0  0  0  0  0  0  0  0  0
   -6.5920   -0.8270  -20.1920 C   0  0  0  0  0  0  0  0  0  0  0  0
   -6.8860   -1.0410  -18.8700 C   0  0  0  0  0  0  0  0  0  0  0  0
   -6.1960   -0.5330  -17.8150 N   0  0  0  0  0  0  0  0  0  0  0  0
   -5.1620    0.2210  -18.0790 C   0  0  0  0  0  0  0  0  0  0  0  0
   -4.7290    0.5340  -19.3930 C   0  0  0  0  0  0  0  0  0  0  0  0
   -3.6020    1.3630  -19.6270 C   0  0  0  0  0  0  0  0  0  0  0  0
   -3.2130    1.6550  -20.9040 C   0  0  0  0  0  0  0  0  0  0  0  0
   -3.9380    1.1310  -21.9980 C   0  0  0  0  0  0  0  0  0  0  0  0
   -5.0350    0.3290  -21.7950 C   0  0  0  0  0  0  0  0  0  0  0  0
   -5.4630    0.0030  -20.4820 C   0  0  0  0  0  0  0  0  0  0  0  0
   -5.5930   -0.0550  -22.6430 H   0  0  0  0  0  0  0  0  0  0  0  0
   -3.6290    1.3690  -23.0120 H   0  0  0  0  0  0  0  0  0  0  0  0
   -2.3590    2.3050  -21.0820 H   0  0  0  0  0  0  0  0  0  0  0  0
   -3.0740    1.7600  -18.7640 H   0  0  0  0  0  0  0  0  0  0  0  0
   -4.6120    0.6210  -17.2260 H   0  0  0  0  0  0  0  0  0  0  0  0
   -7.7320   -1.6660  -18.5840 H   0  0  0  0  0  0  0  0  0  0  0  0
   -7.9900   -2.3040  -20.8580 H   0  0  0  0  0  0  0  0  0  0  0  0
   -6.8480   -1.8220  -22.1010 H   0  0  0  0  0  0  0  0  0  0  0  0
  -10.6330    0.0100  -22.8810 C   0  0  0  0  0  0  0  0  0  0  0  0
  -11.8880   -0.7360  -23.3660 C   0  0  0  0  0  0  0  0  0  0  0  0
  -11.8070   -0.9150  -24.4510 H   0  0  0  0  0  0  0  0  0  0  0  0
  -12.7660   -0.1020  -23.2080 H   0  0  0  0  0  0  0  0  0  0  0  0
  -10.8050    0.6320  -21.9950 H   0  0  0  0  0  0  0  0  0  0  0  0
  -10.2680    0.6960  -23.6560 H   0  0  0  0  0  0  0  0  0  0  0  0
   -9.6230   -2.0540  -24.2900 H   0  0  0  0  0  0  0  0  0  0  0  0
   -8.7460   -2.8120  -22.9490 H   0  0  0  0  0  0  0  0  0  0  0  0
  -10.7650   -3.6000  -21.9270 H   0  0  0  0  0  0  0  0  0  0  0  0
  -11.0860   -3.7450  -23.6600 H   0  0  0  0  0  0  0  0  0  0  0  0
  -12.2280   -1.8970  -21.5900 H   0  0  0  0  0  0  0  0  0  0  0  0
  -14.2690   -2.0220  -22.7840 H   0  0  0  0  0  0  0  0  0  0  0  0
  -12.8740   -3.6770  -24.9710 H   0  0  0  0  0  0  0  0  0  0  0  0
  -14.6210   -3.4560  -24.7870 H   0  0  0  0  0  0  0  0  0  0  0  0
  -13.5950   -2.0620  -25.1650 H   0  0  0  0  0  0  0  0  0  0  0  0
  1  2  1  0  0  0  0
  1 44  1  0  0  0  0
  1 45  1  0  0  0  0
  1 46  1  0  0  0  0
  2  3  1  0  0  0  0
  2  7  1  0  0  0  0
  2 43  1  0  0  0  0
  3  4  1  0  0  0  0
  3  5  1  0  0  0  0
  3  6  1  0  0  0  0
  7  8  1  0  0  0  0
  7 33  1  0  0  0  0
  7 42  1  0  0  0  0
  8  9  1  0  0  0  0
  8 40  1  0  0  0  0
  8 41  1  0  0  0  0
  9 10  1  0  0  0  0
  9 38  1  0  0  0  0
  9 39  1  0  0  0  0
 10 11  1  0  0  0  0
 10 32  1  0  0  0  0
 11 12  2  0  0  0  0
 11 13  1  0  0  0  0
 13 14  1  0  0  0  0
 13 30  1  0  0  0  0
 13 31  1  0  0  0  0
 14 15  2  0  0  0  0
 14 23  1  0  0  0  0
 15 16  1  0  0  0  0
 15 29  1  0  0  0  0
 16 17  2  0  0  0  0
 17 18  1  0  0  0  0
 17 28  1  0  0  0  0
 18 19  2  0  0  0  0
 18 23  1  0  0  0  0
 19 20  1  0  0  0  0
 19 27  1  0  0  0  0
 20 21  2  0  0  0  0
 20 26  1  0  0  0  0
 21 22  1  0  0  0  0
 21 25  1  0  0  0  0
 22 23  2  0  0  0  0
 22 24  1  0  0  0  0
 32 33  1  0  0  0  0
 32 36  1  0  0  0  0
 32 37  1  0  0  0  0
 33 34  1  0  0  0  0
 33 35  1  0  0  0  0
M  END
>  <MODEL>
       1

$$$$
