tmp_first_model_3_38.pdb
 OpenBabel08272518143D

 46 48  0  0  1  0  0  0  0  0999 V2000
   -8.1590   -4.6950  -26.5430 C   0  0  0  0  0  0  0  0  0  0  0  0
   -8.6540   -4.9600  -25.1190 C   0  0  1  0  0  0  0  0  0  0  0  0
   -7.5920   -5.5270  -24.1810 C   0  0  0  0  0  0  0  0  0  0  0  0
   -6.6180   -4.5210  -23.5540 C   0  0  1  0  0  0  0  0  0  0  0  0
   -5.4190   -4.1640  -24.4430 C   0  0  0  0  0  0  0  0  0  0  0  0
   -4.6270   -3.7520  -23.8170 H   0  0  0  0  0  0  0  0  0  0  0  0
   -5.6640   -3.4310  -25.2150 H   0  0  0  0  0  0  0  0  0  0  0  0
   -5.0170   -5.0570  -24.9390 H   0  0  0  0  0  0  0  0  0  0  0  0
   -7.3230   -3.3370  -23.0150 N   0  0  0  0  0  0  0  0  0  0  0  0
   -6.7240   -2.7040  -21.9370 C   0  0  0  0  0  0  0  0  0  0  0  0
   -5.6750   -3.1140  -21.4660 O   0  0  0  0  0  0  0  0  0  0  0  0
   -7.4080   -1.4710  -21.2810 C   0  0  0  0  0  0  0  0  0  0  0  0
   -6.5780   -0.8350  -20.1850 C   0  0  0  0  0  0  0  0  0  0  0  0
   -6.8730   -1.0470  -18.8640 C   0  0  0  0  0  0  0  0  0  0  0  0
   -6.1930   -0.5400  -17.7980 N   0  0  0  0  0  0  0  0  0  0  0  0
   -5.1600    0.2220  -18.0650 C   0  0  0  0  0  0  0  0  0  0  0  0
   -4.7210    0.5290  -19.3810 C   0  0  0  0  0  0  0  0  0  0  0  0
   -3.5930    1.3550  -19.6240 C   0  0  0  0  0  0  0  0  0  0  0  0
   -3.1920    1.6330  -20.9020 C   0  0  0  0  0  0  0  0  0  0  0  0
   -3.9040    1.0910  -21.9950 C   0  0  0  0  0  0  0  0  0  0  0  0
   -5.0000    0.2890  -21.7870 C   0  0  0  0  0  0  0  0  0  0  0  0
   -5.4450   -0.0140  -20.4740 C   0  0  0  0  0  0  0  0  0  0  0  0
   -5.5360   -0.1230  -22.6370 H   0  0  0  0  0  0  0  0  0  0  0  0
   -3.5810    1.3190  -23.0060 H   0  0  0  0  0  0  0  0  0  0  0  0
   -2.3310    2.2730  -21.0860 H   0  0  0  0  0  0  0  0  0  0  0  0
   -3.0600    1.7730  -18.7720 H   0  0  0  0  0  0  0  0  0  0  0  0
   -4.6040    0.6280  -17.2170 H   0  0  0  0  0  0  0  0  0  0  0  0
   -7.7210   -1.6710  -18.5870 H   0  0  0  0  0  0  0  0  0  0  0  0
   -7.6720   -0.7140  -22.0320 H   0  0  0  0  0  0  0  0  0  0  0  0
   -8.3600   -1.8080  -20.8480 H   0  0  0  0  0  0  0  0  0  0  0  0
   -8.4090   -2.7190  -23.7930 C   0  0  1  0  0  0  0  0  0  0  0  0
   -7.9390   -1.6590  -24.8000 C   0  0  0  0  0  0  0  0  0  0  0  0
   -7.4440   -2.0880  -25.6750 H   0  0  0  0  0  0  0  0  0  0  0  0
   -8.7990   -1.0850  -25.1700 H   0  0  0  0  0  0  0  0  0  0  0  0
   -7.2440   -0.9500  -24.3420 H   0  0  0  0  0  0  0  0  0  0  0  0
   -9.3280   -3.7770  -24.4240 C   0  0  0  0  0  0  0  0  0  0  0  0
   -9.9800   -4.1700  -23.6350 H   0  0  0  0  0  0  0  0  0  0  0  0
   -9.9890   -3.2700  -25.1330 H   0  0  0  0  0  0  0  0  0  0  0  0
   -9.0330   -2.1950  -23.0630 H   0  0  0  0  0  0  0  0  0  0  0  0
   -6.1940   -5.0190  -22.6800 H   0  0  0  0  0  0  0  0  0  0  0  0
   -8.0940   -6.0560  -23.3650 H   0  0  0  0  0  0  0  0  0  0  0  0
   -7.0110   -6.2880  -24.7140 H   0  0  0  0  0  0  0  0  0  0  0  0
   -9.4280   -5.7360  -25.2230 H   0  0  0  0  0  0  0  0  0  0  0  0
   -7.9240   -5.6410  -27.0470 H   0  0  0  0  0  0  0  0  0  0  0  0
   -8.9310   -4.1940  -27.1380 H   0  0  0  0  0  0  0  0  0  0  0  0
   -7.2550   -4.0810  -26.5810 H   0  0  0  0  0  0  0  0  0  0  0  0
  1  2  1  0  0  0  0
  1 44  1  0  0  0  0
  1 45  1  0  0  0  0
  1 46  1  0  0  0  0
  2  3  1  0  0  0  0
  2 36  1  0  0  0  0
  2 43  1  6  0  0  0
  3  4  1  0  0  0  0
  3 41  1  0  0  0  0
  3 42  1  0  0  0  0
  4  5  1  0  0  0  0
  4  9  1  0  0  0  0
  4 40  1  1  0  0  0
  5  6  1  0  0  0  0
  5  7  1  0  0  0  0
  5  8  1  0  0  0  0
  9 10  1  0  0  0  0
  9 31  1  0  0  0  0
 10 11  2  0  0  0  0
 10 12  1  0  0  0  0
 12 13  1  0  0  0  0
 12 29  1  0  0  0  0
 12 30  1  0  0  0  0
 13 14  2  0  0  0  0
 13 22  1  0  0  0  0
 14 15  1  0  0  0  0
 14 28  1  0  0  0  0
 15 16  2  0  0  0  0
 16 17  1  0  0  0  0
 16 27  1  0  0  0  0
 17 18  2  0  0  0  0
 17 22  1  0  0  0  0
 18 19  1  0  0  0  0
 18 26  1  0  0  0  0
 19 20  2  0  0  0  0
 19 25  1  0  0  0  0
 20 21  1  0  0  0  0
 20 24  1  0  0  0  0
 21 22  2  0  0  0  0
 21 23  1  0  0  0  0
 31 32  1  0  0  0  0
 31 36  1  0  0  0  0
 31 39  1  1  0  0  0
 32 33  1  0  0  0  0
 32 34  1  0  0  0  0
 32 35  1  0  0  0  0
 36 37  1  0  0  0  0
 36 38  1  0  0  0  0
M  END
>  <MODEL>
       1

$$$$
