tmp_first_model_18_38.pdb
 OpenBabel08282502533D

 46 48  0  0  1  0  0  0  0  0999 V2000
   -8.1580   -4.6950  -26.5430 C   0  0  0  0  0  0  0  0  0  0  0  0
   -8.6540   -4.9600  -25.1190 C   0  0  1  0  0  0  0  0  0  0  0  0
   -7.5900   -5.5250  -24.1820 C   0  0  0  0  0  0  0  0  0  0  0  0
   -6.6150   -4.5190  -23.5540 C   0  0  1  0  0  0  0  0  0  0  0  0
   -5.4120   -4.1590  -24.4400 C   0  0  0  0  0  0  0  0  0  0  0  0
   -4.6100   -3.7370  -23.8270 H   0  0  0  0  0  0  0  0  0  0  0  0
   -5.6630   -3.4310  -25.2140 H   0  0  0  0  0  0  0  0  0  0  0  0
   -5.0160   -5.0550  -24.9370 H   0  0  0  0  0  0  0  0  0  0  0  0
   -7.3250   -3.3380  -23.0140 N   0  0  0  0  0  0  0  0  0  0  0  0
   -6.7220   -2.7040  -21.9370 C   0  0  0  0  0  0  0  0  0  0  0  0
   -5.6800   -3.1240  -21.4620 O   0  0  0  0  0  0  0  0  0  0  0  0
   -7.4060   -1.4700  -21.2810 C   0  0  0  0  0  0  0  0  0  0  0  0
   -6.5780   -0.8340  -20.1840 C   0  0  0  0  0  0  0  0  0  0  0  0
   -6.8720   -1.0480  -18.8630 C   0  0  0  0  0  0  0  0  0  0  0  0
   -6.1900   -0.5430  -17.7970 N   0  0  0  0  0  0  0  0  0  0  0  0
   -5.1600    0.2230  -18.0640 C   0  0  0  0  0  0  0  0  0  0  0  0
   -4.7220    0.5310  -19.3800 C   0  0  0  0  0  0  0  0  0  0  0  0
   -3.5940    1.3580  -19.6220 C   0  0  0  0  0  0  0  0  0  0  0  0
   -3.1930    1.6350  -20.9010 C   0  0  0  0  0  0  0  0  0  0  0  0
   -3.9050    1.0920  -21.9930 C   0  0  0  0  0  0  0  0  0  0  0  0
   -5.0010    0.2900  -21.7860 C   0  0  0  0  0  0  0  0  0  0  0  0
   -5.4450   -0.0130  -20.4730 C   0  0  0  0  0  0  0  0  0  0  0  0
   -5.5310   -0.1250  -22.6380 H   0  0  0  0  0  0  0  0  0  0  0  0
   -3.5810    1.3140  -23.0060 H   0  0  0  0  0  0  0  0  0  0  0  0
   -2.3310    2.2720  -21.0870 H   0  0  0  0  0  0  0  0  0  0  0  0
   -3.0580    1.7720  -18.7700 H   0  0  0  0  0  0  0  0  0  0  0  0
   -4.6040    0.6290  -17.2150 H   0  0  0  0  0  0  0  0  0  0  0  0
   -7.7210   -1.6720  -18.5860 H   0  0  0  0  0  0  0  0  0  0  0  0
   -7.6710   -0.7130  -22.0320 H   0  0  0  0  0  0  0  0  0  0  0  0
   -8.3590   -1.8080  -20.8480 H   0  0  0  0  0  0  0  0  0  0  0  0
   -8.4100   -2.7190  -23.7930 C   0  0  1  0  0  0  0  0  0  0  0  0
   -7.9390   -1.6590  -24.8000 C   0  0  0  0  0  0  0  0  0  0  0  0
   -7.4430   -2.0880  -25.6750 H   0  0  0  0  0  0  0  0  0  0  0  0
   -8.7980   -1.0850  -25.1700 H   0  0  0  0  0  0  0  0  0  0  0  0
   -7.2430   -0.9500  -24.3420 H   0  0  0  0  0  0  0  0  0  0  0  0
   -9.3300   -3.7780  -24.4250 C   0  0  0  0  0  0  0  0  0  0  0  0
   -9.9790   -4.1700  -23.6350 H   0  0  0  0  0  0  0  0  0  0  0  0
   -9.9960   -3.2770  -25.1350 H   0  0  0  0  0  0  0  0  0  0  0  0
   -9.0330   -2.1950  -23.0630 H   0  0  0  0  0  0  0  0  0  0  0  0
   -6.1940   -5.0180  -22.6790 H   0  0  0  0  0  0  0  0  0  0  0  0
   -8.0920   -6.0550  -23.3650 H   0  0  0  0  0  0  0  0  0  0  0  0
   -7.0110   -6.2880  -24.7140 H   0  0  0  0  0  0  0  0  0  0  0  0
   -9.4280   -5.7360  -25.2240 H   0  0  0  0  0  0  0  0  0  0  0  0
   -7.9240   -5.6410  -27.0470 H   0  0  0  0  0  0  0  0  0  0  0  0
   -8.9310   -4.1940  -27.1380 H   0  0  0  0  0  0  0  0  0  0  0  0
   -7.2550   -4.0810  -26.5810 H   0  0  0  0  0  0  0  0  0  0  0  0
  1  2  1  0  0  0  0
  1 44  1  0  0  0  0
  1 45  1  0  0  0  0
  1 46  1  0  0  0  0
  2  3  1  0  0  0  0
  2 36  1  0  0  0  0
  2 43  1  6  0  0  0
  3  4  1  0  0  0  0
  3 41  1  0  0  0  0
  3 42  1  0  0  0  0
  4  5  1  0  0  0  0
  4  9  1  0  0  0  0
  4 40  1  1  0  0  0
  5  6  1  0  0  0  0
  5  7  1  0  0  0  0
  5  8  1  0  0  0  0
  9 10  1  0  0  0  0
  9 31  1  0  0  0  0
 10 11  2  0  0  0  0
 10 12  1  0  0  0  0
 12 13  1  0  0  0  0
 12 29  1  0  0  0  0
 12 30  1  0  0  0  0
 13 14  2  0  0  0  0
 13 22  1  0  0  0  0
 14 15  1  0  0  0  0
 14 28  1  0  0  0  0
 15 16  2  0  0  0  0
 16 17  1  0  0  0  0
 16 27  1  0  0  0  0
 17 18  2  0  0  0  0
 17 22  1  0  0  0  0
 18 19  1  0  0  0  0
 18 26  1  0  0  0  0
 19 20  2  0  0  0  0
 19 25  1  0  0  0  0
 20 21  1  0  0  0  0
 20 24  1  0  0  0  0
 21 22  2  0  0  0  0
 21 23  1  0  0  0  0
 31 32  1  0  0  0  0
 31 36  1  0  0  0  0
 31 39  1  1  0  0  0
 32 33  1  0  0  0  0
 32 34  1  0  0  0  0
 32 35  1  0  0  0  0
 36 37  1  0  0  0  0
 36 38  1  0  0  0  0
M  END
>  <MODEL>
       1

$$$$
