tmp_first_model_14_54.pdb
 OpenBabel08282500413D

 40 43  0  0  0  0  0  0  0  0999 V2000
  -10.3240   -2.3070  -23.0020 C   0  0  0  0  0  0  0  0  0  0  0  0
   -8.9840   -2.1730  -22.4710 N   0  0  0  0  0  0  0  0  0  0  0  0
   -7.7950   -2.6480  -22.9390 C   0  0  0  0  0  0  0  0  0  0  0  0
   -7.6700   -3.3490  -24.2490 C   0  0  0  0  0  0  0  0  0  0  0  0
   -7.6820   -2.3480  -25.3970 C   0  0  0  0  0  0  0  0  0  0  0  0
   -8.8070   -2.1640  -26.2010 C   0  0  0  0  0  0  0  0  0  0  0  0
   -8.7980   -1.2290  -27.2360 C   0  0  0  0  0  0  0  0  0  0  0  0
   -7.6640   -0.4540  -27.4640 C   0  0  0  0  0  0  0  0  0  0  0  0
   -6.5440   -0.6150  -26.6530 C   0  0  0  0  0  0  0  0  0  0  0  0
   -6.5600   -1.5530  -25.6230 C   0  0  0  0  0  0  0  0  0  0  0  0
   -5.6950   -1.6790  -24.9740 H   0  0  0  0  0  0  0  0  0  0  0  0
   -5.6540   -0.0130  -26.8240 H   0  0  0  0  0  0  0  0  0  0  0  0
   -7.6550    0.2780  -28.2690 H   0  0  0  0  0  0  0  0  0  0  0  0
   -9.6760   -1.1070  -27.8690 H   0  0  0  0  0  0  0  0  0  0  0  0
   -9.7020   -2.7560  -26.0130 H   0  0  0  0  0  0  0  0  0  0  0  0
   -6.7330   -3.9160  -24.2440 H   0  0  0  0  0  0  0  0  0  0  0  0
   -8.4910   -4.0630  -24.3790 H   0  0  0  0  0  0  0  0  0  0  0  0
   -6.7930   -2.2460  -22.2120 N   0  0  0  0  0  0  0  0  0  0  0  0
   -7.3450   -1.4560  -21.2380 N   0  0  0  0  0  0  0  0  0  0  0  0
   -6.5720   -0.8630  -20.2030 C   0  0  0  0  0  0  0  0  0  0  0  0
   -6.9040   -1.0580  -18.8850 C   0  0  0  0  0  0  0  0  0  0  0  0
   -6.2250   -0.5170  -17.8470 N   0  0  0  0  0  0  0  0  0  0  0  0
   -5.1780    0.2190  -18.1080 C   0  0  0  0  0  0  0  0  0  0  0  0
   -4.7310    0.5170  -19.4200 C   0  0  0  0  0  0  0  0  0  0  0  0
   -3.6050    1.3560  -19.6400 C   0  0  0  0  0  0  0  0  0  0  0  0
   -3.2210    1.6710  -20.9110 C   0  0  0  0  0  0  0  0  0  0  0  0
   -3.9570    1.1660  -22.0100 C   0  0  0  0  0  0  0  0  0  0  0  0
   -5.0440    0.3510  -21.8200 C   0  0  0  0  0  0  0  0  0  0  0  0
   -5.4530   -0.0240  -20.5100 C   0  0  0  0  0  0  0  0  0  0  0  0
   -5.6120   -0.0360  -22.6580 H   0  0  0  0  0  0  0  0  0  0  0  0
   -3.6500    1.4270  -23.0170 H   0  0  0  0  0  0  0  0  0  0  0  0
   -2.3660    2.3200  -21.0860 H   0  0  0  0  0  0  0  0  0  0  0  0
   -3.0790    1.7530  -18.7740 H   0  0  0  0  0  0  0  0  0  0  0  0
   -4.6280    0.6160  -17.2540 H   0  0  0  0  0  0  0  0  0  0  0  0
   -7.7540   -1.6720  -18.6080 H   0  0  0  0  0  0  0  0  0  0  0  0
   -8.6990   -1.2610  -21.4600 C   0  0  0  0  0  0  0  0  0  0  0  0
   -9.4380   -0.4330  -20.9770 O   0  0  0  0  0  0  0  0  0  0  0  0
  -10.4950   -1.5490  -23.7700 H   0  0  0  0  0  0  0  0  0  0  0  0
  -10.5080   -3.3100  -23.4010 H   0  0  0  0  0  0  0  0  0  0  0  0
  -10.9980   -2.1150  -22.1680 H   0  0  0  0  0  0  0  0  0  0  0  0
  1  2  1  0  0  0  0
  1 38  1  0  0  0  0
  1 39  1  0  0  0  0
  1 40  1  0  0  0  0
  2  3  1  0  0  0  0
  2 36  1  0  0  0  0
  3  4  1  0  0  0  0
  3 18  2  0  0  0  0
  4  5  1  0  0  0  0
  4 16  1  0  0  0  0
  4 17  1  0  0  0  0
  5  6  2  0  0  0  0
  5 10  1  0  0  0  0
  6  7  1  0  0  0  0
  6 15  1  0  0  0  0
  7  8  2  0  0  0  0
  7 14  1  0  0  0  0
  8  9  1  0  0  0  0
  8 13  1  0  0  0  0
  9 10  2  0  0  0  0
  9 12  1  0  0  0  0
 10 11  1  0  0  0  0
 18 19  1  0  0  0  0
 19 20  1  0  0  0  0
 19 36  1  0  0  0  0
 20 21  2  0  0  0  0
 20 29  1  0  0  0  0
 21 22  1  0  0  0  0
 21 35  1  0  0  0  0
 22 23  2  0  0  0  0
 23 24  1  0  0  0  0
 23 34  1  0  0  0  0
 24 25  2  0  0  0  0
 24 29  1  0  0  0  0
 25 26  1  0  0  0  0
 25 33  1  0  0  0  0
 26 27  2  0  0  0  0
 26 32  1  0  0  0  0
 27 28  1  0  0  0  0
 27 31  1  0  0  0  0
 28 29  2  0  0  0  0
 28 30  1  0  0  0  0
 36 37  2  0  0  0  0
M  END
>  <MODEL>
       1

$$$$
