tmp_first_model_12_25.pdb
 OpenBabel08272523333D

 70 75  0  0  1  0  0  0  0  0999 V2000
   -8.1610   -7.1750  -23.9010 O   0  0  0  0  0  0  0  0  0  0  0  0
   -8.0890   -6.4010  -22.9690 C   0  0  0  0  0  0  0  0  0  0  0  0
   -9.2090   -5.4210  -22.6220 C   0  0  0  0  0  0  0  0  0  0  0  0
   -8.8170   -3.9940  -22.8740 N   0  3  1  0  0  0  0  0  0  0  0  0
   -8.4520   -3.7940  -24.3560 C   0  0  0  0  0  0  0  0  0  0  0  0
   -8.1480   -2.3500  -24.6720 C   0  0  0  0  0  0  0  0  0  0  0  0
   -7.3550   -2.0220  -25.7750 C   0  0  0  0  0  0  0  0  0  0  0  0
   -7.0790   -0.6990  -26.0980 C   0  0  0  0  0  0  0  0  0  0  0  0
   -7.6060    0.3170  -25.3070 C   0  0  0  0  0  0  0  0  0  0  0  0
   -7.2610    1.9880  -25.6680 Cl  0  0  0  0  0  0  0  0  0  0  0  0
   -8.3890    0.0150  -24.2050 C   0  0  0  0  0  0  0  0  0  0  0  0
   -8.6600   -1.3180  -23.8860 C   0  0  0  0  0  0  0  0  0  0  0  0
   -9.4380   -1.5570  -22.6160 C   0  0  2  0  0  0  0  0  0  0  0  0
   -8.6770   -0.9640  -21.4300 C   0  0  0  0  0  0  0  0  0  0  0  0
   -9.1460   -0.0580  -20.7690 O   0  0  0  0  0  0  0  0  0  0  0  0
   -7.4010   -1.4510  -21.2130 N   0  0  0  0  0  0  0  0  0  0  0  0
   -6.5990   -0.8560  -20.2010 C   0  0  0  0  0  0  0  0  0  0  0  0
   -6.9140   -1.0880  -18.8890 C   0  0  0  0  0  0  0  0  0  0  0  0
   -6.2290   -0.5910  -17.8300 N   0  0  0  0  0  0  0  0  0  0  0  0
   -5.2000    0.1800  -18.0860 C   0  0  0  0  0  0  0  0  0  0  0  0
   -4.7810    0.5260  -19.4020 C   0  0  0  0  0  0  0  0  0  0  0  0
   -3.6630    1.3670  -19.6220 C   0  0  0  0  0  0  0  0  0  0  0  0
   -3.3180    1.7410  -20.8900 C   0  0  0  0  0  0  0  0  0  0  0  0
   -4.0930    1.3170  -21.9930 C   0  0  0  0  0  0  0  0  0  0  0  0
   -5.1690    0.4800  -21.8100 C   0  0  0  0  0  0  0  0  0  0  0  0
   -5.5160    0.0340  -20.5040 C   0  0  0  0  0  0  0  0  0  0  0  0
   -5.7410    0.1530  -22.6740 H   0  0  0  0  0  0  0  0  0  0  0  0
   -3.8180    1.6440  -22.9920 H   0  0  0  0  0  0  0  0  0  0  0  0
   -2.4540    2.3780  -21.0580 H   0  0  0  0  0  0  0  0  0  0  0  0
   -3.1090    1.7220  -18.7580 H   0  0  0  0  0  0  0  0  0  0  0  0
   -4.6490    0.5860  -17.2340 H   0  0  0  0  0  0  0  0  0  0  0  0
   -7.7720   -1.7140  -18.6520 H   0  0  0  0  0  0  0  0  0  0  0  0
   -6.9430   -1.9180  -21.9850 H   0  0  0  0  0  0  0  0  0  0  0  0
   -9.8930   -3.0050  -22.4750 C   0  0  0  0  0  0  0  0  0  0  0  0
  -10.2280   -3.2210  -21.4600 H   0  0  0  0  0  0  0  0  0  0  0  0
  -10.7400   -3.1320  -23.1540 H   0  0  0  0  0  0  0  0  0  0  0  0
  -10.3360   -0.9350  -22.6380 H   0  0  0  0  0  0  0  0  0  0  0  0
   -8.7860    0.8080  -23.5760 H   0  0  0  0  0  0  0  0  0  0  0  0
   -6.4560   -0.4500  -26.9510 H   0  0  0  0  0  0  0  0  0  0  0  0
   -6.9380   -2.8090  -26.4010 H   0  0  0  0  0  0  0  0  0  0  0  0
   -9.2990   -4.1600  -24.9490 H   0  0  0  0  0  0  0  0  0  0  0  0
   -7.5970   -4.4310  -24.5860 H   0  0  0  0  0  0  0  0  0  0  0  0
   -7.9720   -3.7880  -22.3030 H   0  0  0  0  0  0  0  0  0  0  0  0
  -10.0760   -5.6820  -23.2320 H   0  0  0  0  0  0  0  0  0  0  0  0
   -9.4690   -5.5420  -21.5660 H   0  0  0  0  0  0  0  0  0  0  0  0
   -6.9850   -6.3040  -22.1530 N   0  0  0  0  0  0  0  0  0  0  0  0
   -5.7770   -6.9850  -22.4010 C   0  0  0  0  0  0  0  0  0  0  0  0
   -5.0070   -7.4640  -21.3440 C   0  0  0  0  0  0  0  0  0  0  0  0
   -3.7950   -8.0760  -21.6110 C   0  0  0  0  0  0  0  0  0  0  0  0
   -3.3070   -8.2110  -22.9100 C   0  0  0  0  0  0  0  0  0  0  0  0
   -2.0760   -8.8780  -23.1460 N   0  0  0  0  0  0  0  0  0  0  0  0
   -1.0190   -8.8020  -22.1280 C   0  0  0  0  0  0  0  0  0  0  0  0
    0.3000   -9.1830  -22.7790 C   0  0  0  0  0  0  0  0  0  0  0  0
    0.1820  -10.4910  -23.3010 O   0  0  0  0  0  0  0  0  0  0  0  0
   -0.6860  -10.5160  -24.4020 C   0  0  0  0  0  0  0  0  0  0  0  0
   -1.9880   -9.7490  -24.2140 C   0  0  0  0  0  0  0  0  0  0  0  0
   -2.8850   -9.9320  -25.0220 O   0  0  0  0  0  0  0  0  0  0  0  0
   -0.9640  -11.5520  -24.6160 H   0  0  0  0  0  0  0  0  0  0  0  0
   -0.1930  -10.1330  -25.3070 H   0  0  0  0  0  0  0  0  0  0  0  0
    1.1020   -9.2160  -22.0400 H   0  0  0  0  0  0  0  0  0  0  0  0
    0.5640   -8.4710  -23.5780 H   0  0  0  0  0  0  0  0  0  0  0  0
   -0.9790   -7.7880  -21.7080 H   0  0  0  0  0  0  0  0  0  0  0  0
   -1.2110   -9.5120  -21.3090 H   0  0  0  0  0  0  0  0  0  0  0  0
   -4.0810   -7.7230  -23.9570 C   0  0  0  0  0  0  0  0  0  0  0  0
   -5.3120   -7.1480  -23.7050 C   0  0  0  0  0  0  0  0  0  0  0  0
   -5.9110   -6.8350  -24.5490 H   0  0  0  0  0  0  0  0  0  0  0  0
   -3.7630   -7.8490  -24.9820 H   0  0  0  0  0  0  0  0  0  0  0  0
   -3.2300   -8.5310  -20.8000 H   0  0  0  0  0  0  0  0  0  0  0  0
   -5.3660   -7.4050  -20.3190 H   0  0  0  0  0  0  0  0  0  0  0  0
   -7.0790   -5.8790  -21.2430 H   0  0  0  0  0  0  0  0  0  0  0  0
  1  2  2  0  0  0  0
  2  3  1  0  0  0  0
  2 46  1  0  0  0  0
  3  4  1  0  0  0  0
  3 44  1  0  0  0  0
  3 45  1  0  0  0  0
  4  5  1  0  0  0  0
  4 34  1  0  0  0  0
  4 43  1  1  0  0  0
  5  6  1  0  0  0  0
  5 41  1  0  0  0  0
  5 42  1  0  0  0  0
  6  7  2  0  0  0  0
  6 12  1  0  0  0  0
  7  8  1  0  0  0  0
  7 40  1  0  0  0  0
  8  9  2  0  0  0  0
  8 39  1  0  0  0  0
  9 10  1  0  0  0  0
  9 11  1  0  0  0  0
 11 12  2  0  0  0  0
 11 38  1  0  0  0  0
 12 13  1  0  0  0  0
 13 14  1  0  0  0  0
 13 34  1  0  0  0  0
 13 37  1  6  0  0  0
 14 15  2  0  0  0  0
 14 16  1  0  0  0  0
 16 17  1  0  0  0  0
 16 33  1  0  0  0  0
 17 18  2  0  0  0  0
 17 26  1  0  0  0  0
 18 19  1  0  0  0  0
 18 32  1  0  0  0  0
 19 20  2  0  0  0  0
 20 21  1  0  0  0  0
 20 31  1  0  0  0  0
 21 22  2  0  0  0  0
 21 26  1  0  0  0  0
 22 23  1  0  0  0  0
 22 30  1  0  0  0  0
 23 24  2  0  0  0  0
 23 29  1  0  0  0  0
 24 25  1  0  0  0  0
 24 28  1  0  0  0  0
 25 26  2  0  0  0  0
 25 27  1  0  0  0  0
 34 35  1  0  0  0  0
 34 36  1  0  0  0  0
 46 47  1  0  0  0  0
 46 70  1  0  0  0  0
 47 48  2  0  0  0  0
 47 65  1  0  0  0  0
 48 49  1  0  0  0  0
 48 69  1  0  0  0  0
 49 50  2  0  0  0  0
 49 68  1  0  0  0  0
 50 51  1  0  0  0  0
 50 64  1  0  0  0  0
 51 52  1  0  0  0  0
 51 56  1  0  0  0  0
 52 53  1  0  0  0  0
 52 62  1  0  0  0  0
 52 63  1  0  0  0  0
 53 54  1  0  0  0  0
 53 60  1  0  0  0  0
 53 61  1  0  0  0  0
 54 55  1  0  0  0  0
 55 56  1  0  0  0  0
 55 58  1  0  0  0  0
 55 59  1  0  0  0  0
 56 57  2  0  0  0  0
 64 65  2  0  0  0  0
 64 67  1  0  0  0  0
 65 66  1  0  0  0  0
M  CHG  1   4   1
M  END
>  <MODEL>
       1

$$$$
