tmp_first_model_10_57.pdb
 OpenBabel08272522163D

 59 63  0  0  1  0  0  0  0  0999 V2000
   -7.4910   -6.0260  -26.9690 C   0  0  0  0  0  0  0  0  0  0  0  0
   -7.7290   -4.6150  -27.1660 N   0  0  0  0  0  0  0  0  0  0  0  0
   -6.8150   -3.7140  -26.7340 C   0  0  0  0  0  0  0  0  0  0  0  0
   -5.7500   -4.0150  -26.2170 O   0  0  0  0  0  0  0  0  0  0  0  0
   -7.2520   -2.2560  -26.8850 C   0  0  0  0  0  0  0  0  0  0  0  0
   -8.2080   -1.8970  -25.8440 N   0  0  0  0  0  0  0  0  0  0  0  0
   -7.7200   -1.4050  -24.5580 C   0  0  0  0  0  0  0  0  0  0  0  0
   -8.6720   -1.6530  -23.3400 C   0  0  2  0  0  0  0  0  0  0  0  0
   -8.1870   -0.6800  -22.2390 C   0  0  0  0  0  0  0  0  0  0  0  0
   -8.3890    0.5200  -22.2100 O   0  0  0  0  0  0  0  0  0  0  0  0
   -7.4440   -1.3730  -21.3050 N   0  0  0  0  0  0  0  0  0  0  0  0
   -6.6900   -0.7720  -20.2580 C   0  0  0  0  0  0  0  0  0  0  0  0
   -6.9330   -1.1430  -18.9570 C   0  0  0  0  0  0  0  0  0  0  0  0
   -6.2420   -0.6930  -17.8810 N   0  0  0  0  0  0  0  0  0  0  0  0
   -5.2520    0.1360  -18.1060 C   0  0  0  0  0  0  0  0  0  0  0  0
   -4.8820    0.6000  -19.3990 C   0  0  0  0  0  0  0  0  0  0  0  0
   -3.8120    1.5170  -19.5810 C   0  0  0  0  0  0  0  0  0  0  0  0
   -3.5520    2.0370  -20.8150 C   0  0  0  0  0  0  0  0  0  0  0  0
   -4.3200    1.6360  -21.9310 C   0  0  0  0  0  0  0  0  0  0  0  0
   -5.3340    0.7280  -21.7840 C   0  0  0  0  0  0  0  0  0  0  0  0
   -5.6450    0.1800  -20.5100 C   0  0  0  0  0  0  0  0  0  0  0  0
   -5.9230    0.4370  -22.6440 H   0  0  0  0  0  0  0  0  0  0  0  0
   -4.1200    2.0600  -22.9100 H   0  0  0  0  0  0  0  0  0  0  0  0
   -2.7530    2.7600  -20.9470 H   0  0  0  0  0  0  0  0  0  0  0  0
   -3.2180    1.7980  -18.7130 H   0  0  0  0  0  0  0  0  0  0  0  0
   -4.6890    0.4960  -17.2450 H   0  0  0  0  0  0  0  0  0  0  0  0
   -7.7600   -1.8210  -18.7480 H   0  0  0  0  0  0  0  0  0  0  0  0
   -7.2970   -2.7800  -21.6430 C   0  0  0  0  0  0  0  0  0  0  0  0
   -8.4840   -3.0570  -22.5950 C   0  0  0  0  0  0  0  0  0  0  0  0
   -8.1960   -4.2590  -23.4970 C   0  0  0  0  0  0  0  0  0  0  0  0
   -9.0230   -4.4320  -24.1940 H   0  0  0  0  0  0  0  0  0  0  0  0
   -7.2710   -4.1420  -24.0740 H   0  0  0  0  0  0  0  0  0  0  0  0
   -8.0790   -5.1600  -22.8830 H   0  0  0  0  0  0  0  0  0  0  0  0
   -9.7100   -3.3500  -21.7150 C   0  0  0  0  0  0  0  0  0  0  0  0
   -9.5100   -4.2080  -21.0700 H   0  0  0  0  0  0  0  0  0  0  0  0
  -10.5890   -3.5690  -22.3250 H   0  0  0  0  0  0  0  0  0  0  0  0
   -9.9440   -2.4990  -21.0690 H   0  0  0  0  0  0  0  0  0  0  0  0
   -6.3210   -2.9710  -22.1210 H   0  0  0  0  0  0  0  0  0  0  0  0
   -7.3450   -3.3860  -20.7330 H   0  0  0  0  0  0  0  0  0  0  0  0
  -10.0830   -1.3260  -23.8120 C   0  0  0  0  0  0  0  0  0  0  0  0
  -11.0300   -0.6850  -22.9970 C   0  0  0  0  0  0  0  0  0  0  0  0
  -12.3170   -0.4790  -23.4650 C   0  0  0  0  0  0  0  0  0  0  0  0
  -13.4550    0.4490  -22.5420 Cl  0  0  0  0  0  0  0  0  0  0  0  0
  -12.7410   -0.9630  -24.6990 C   0  0  0  0  0  0  0  0  0  0  0  0
  -11.8180   -1.5820  -25.5150 C   0  0  0  0  0  0  0  0  0  0  0  0
  -10.4930   -1.6940  -25.1000 C   0  0  0  0  0  0  0  0  0  0  0  0
   -9.5120   -2.1690  -26.1010 C   0  0  0  0  0  0  0  0  0  0  0  0
   -9.8670   -2.7630  -27.1270 O   0  0  0  0  0  0  0  0  0  0  0  0
  -12.0850   -1.9570  -26.5000 H   0  0  0  0  0  0  0  0  0  0  0  0
  -13.7700   -0.8100  -25.0100 H   0  0  0  0  0  0  0  0  0  0  0  0
  -10.7450   -0.3300  -22.0140 H   0  0  0  0  0  0  0  0  0  0  0  0
   -6.7460   -1.8670  -24.3660 H   0  0  0  0  0  0  0  0  0  0  0  0
   -7.5580   -0.3210  -24.6070 H   0  0  0  0  0  0  0  0  0  0  0  0
   -7.7480   -2.1120  -27.8490 H   0  0  0  0  0  0  0  0  0  0  0  0
   -6.3640   -1.6250  -26.8420 H   0  0  0  0  0  0  0  0  0  0  0  0
   -8.6470   -4.2700  -27.4260 H   0  0  0  0  0  0  0  0  0  0  0  0
   -8.3800   -6.5850  -27.2640 H   0  0  0  0  0  0  0  0  0  0  0  0
   -7.2610   -6.2410  -25.9190 H   0  0  0  0  0  0  0  0  0  0  0  0
   -6.6430   -6.3620  -27.5690 H   0  0  0  0  0  0  0  0  0  0  0  0
  1  2  1  0  0  0  0
  1 57  1  0  0  0  0
  1 58  1  0  0  0  0
  1 59  1  0  0  0  0
  2  3  1  0  0  0  0
  2 56  1  0  0  0  0
  3  4  2  0  0  0  0
  3  5  1  0  0  0  0
  5  6  1  0  0  0  0
  5 54  1  0  0  0  0
  5 55  1  0  0  0  0
  6  7  1  0  0  0  0
  6 47  1  0  0  0  0
  7  8  1  0  0  0  0
  7 52  1  0  0  0  0
  7 53  1  0  0  0  0
  8  9  1  1  0  0  0
  8 29  1  0  0  0  0
  8 40  1  0  0  0  0
  9 10  2  0  0  0  0
  9 11  1  0  0  0  0
 11 12  1  0  0  0  0
 11 28  1  0  0  0  0
 12 13  2  0  0  0  0
 12 21  1  0  0  0  0
 13 14  1  0  0  0  0
 13 27  1  0  0  0  0
 14 15  2  0  0  0  0
 15 16  1  0  0  0  0
 15 26  1  0  0  0  0
 16 17  2  0  0  0  0
 16 21  1  0  0  0  0
 17 18  1  0  0  0  0
 17 25  1  0  0  0  0
 18 19  2  0  0  0  0
 18 24  1  0  0  0  0
 19 20  1  0  0  0  0
 19 23  1  0  0  0  0
 20 21  2  0  0  0  0
 20 22  1  0  0  0  0
 28 29  1  0  0  0  0
 28 38  1  0  0  0  0
 28 39  1  0  0  0  0
 29 30  1  0  0  0  0
 29 34  1  0  0  0  0
 30 31  1  0  0  0  0
 30 32  1  0  0  0  0
 30 33  1  0  0  0  0
 34 35  1  0  0  0  0
 34 36  1  0  0  0  0
 34 37  1  0  0  0  0
 40 41  2  0  0  0  0
 40 46  1  0  0  0  0
 41 42  1  0  0  0  0
 41 51  1  0  0  0  0
 42 43  1  0  0  0  0
 42 44  2  0  0  0  0
 44 45  1  0  0  0  0
 44 50  1  0  0  0  0
 45 46  2  0  0  0  0
 45 49  1  0  0  0  0
 46 47  1  0  0  0  0
 47 48  2  0  0  0  0
M  END
>  <MODEL>
       1

$$$$
