tmp_first_model_7_87.pdb
 OpenBabel08272520323D

 59 64  0  0  1  0  0  0  0  0999 V2000
   -8.1670   -4.0210  -23.7380 C   0  0  0  0  0  0  0  0  0  0  0  0
   -8.3140   -3.2210  -22.4490 C   0  0  1  0  0  0  0  0  0  0  0  0
   -6.9900   -2.5620  -22.0070 C   0  0  0  0  0  0  0  0  0  0  0  0
   -7.4300   -1.4260  -21.2180 N   0  0  0  0  0  0  0  0  0  0  0  0
   -6.6540   -0.8170  -20.2020 C   0  0  0  0  0  0  0  0  0  0  0  0
   -6.9620   -1.0410  -18.8800 C   0  0  0  0  0  0  0  0  0  0  0  0
   -6.2350   -0.5730  -17.8370 N   0  0  0  0  0  0  0  0  0  0  0  0
   -5.1860    0.1650  -18.1010 C   0  0  0  0  0  0  0  0  0  0  0  0
   -4.7540    0.4810  -19.4180 C   0  0  0  0  0  0  0  0  0  0  0  0
   -3.6250    1.3100  -19.6480 C   0  0  0  0  0  0  0  0  0  0  0  0
   -3.2400    1.6200  -20.9240 C   0  0  0  0  0  0  0  0  0  0  0  0
   -3.9570    1.0930  -22.0210 C   0  0  0  0  0  0  0  0  0  0  0  0
   -5.0440    0.2730  -21.8240 C   0  0  0  0  0  0  0  0  0  0  0  0
   -5.4910   -0.0350  -20.5100 C   0  0  0  0  0  0  0  0  0  0  0  0
   -5.5820   -0.1430  -22.6730 H   0  0  0  0  0  0  0  0  0  0  0  0
   -3.6530    1.3580  -23.0310 H   0  0  0  0  0  0  0  0  0  0  0  0
   -2.3970    2.2840  -21.0960 H   0  0  0  0  0  0  0  0  0  0  0  0
   -3.1010    1.7140  -18.7860 H   0  0  0  0  0  0  0  0  0  0  0  0
   -4.6190    0.5530  -17.2530 H   0  0  0  0  0  0  0  0  0  0  0  0
   -7.8260   -1.6450  -18.6080 H   0  0  0  0  0  0  0  0  0  0  0  0
   -8.7560   -1.1020  -21.4290 C   0  0  0  0  0  0  0  0  0  0  0  0
   -9.3260   -0.1830  -20.8840 O   0  0  0  0  0  0  0  0  0  0  0  0
   -9.3390   -2.0560  -22.5080 C   0  0  1  0  0  0  0  0  0  0  0  0
   -9.2600   -1.3110  -23.8680 C   0  0  0  0  0  0  0  0  0  0  0  0
  -10.0900   -0.1280  -23.8630 N   0  0  0  0  0  0  0  0  0  0  0  0
   -9.6020    1.0710  -24.5070 C   0  0  0  0  0  0  0  0  0  0  0  0
   -8.6880    1.8450  -23.6190 C   0  0  0  0  0  0  0  0  0  0  0  0
   -9.0540    2.4520  -22.4490 C   0  0  0  0  0  0  0  0  0  0  0  0
   -7.9450    3.2410  -22.0950 C   0  0  0  0  0  0  0  0  0  0  0  0
   -6.9510    3.0960  -22.9630 N   0  0  0  0  0  0  0  0  0  0  0  0
   -7.4120    2.2210  -23.8750 N   0  0  0  0  0  0  0  0  0  0  0  0
   -6.5570    1.7730  -24.9490 C   0  0  0  0  0  0  0  0  0  0  0  0
   -5.5450    2.0870  -24.7030 H   0  0  0  0  0  0  0  0  0  0  0  0
   -6.5860    0.6800  -25.0180 H   0  0  0  0  0  0  0  0  0  0  0  0
   -6.8380    2.2010  -25.9190 H   0  0  0  0  0  0  0  0  0  0  0  0
   -7.8480    3.9530  -21.2890 H   0  0  0  0  0  0  0  0  0  0  0  0
   -9.9910    2.3020  -21.9360 H   0  0  0  0  0  0  0  0  0  0  0  0
  -10.4880    1.6820  -24.6610 H   0  0  0  0  0  0  0  0  0  0  0  0
   -9.1550    0.8600  -25.4880 H   0  0  0  0  0  0  0  0  0  0  0  0
  -11.3370   -0.1280  -23.2960 C   0  0  0  0  0  0  0  0  0  0  0  0
  -12.0690    0.8570  -23.3260 O   0  0  0  0  0  0  0  0  0  0  0  0
  -11.7580   -1.4030  -22.6240 C   0  0  0  0  0  0  0  0  0  0  0  0
  -13.1180   -1.5680  -22.3570 C   0  0  0  0  0  0  0  0  0  0  0  0
  -13.5470   -2.6320  -21.5910 C   0  0  0  0  0  0  0  0  0  0  0  0
  -12.6000   -3.5650  -21.1870 C   0  0  0  0  0  0  0  0  0  0  0  0
  -13.0050   -4.4460  -20.2590 F   0  0  0  0  0  0  0  0  0  0  0  0
  -11.2790   -3.5400  -21.6160 C   0  0  0  0  0  0  0  0  0  0  0  0
  -10.8120   -2.3830  -22.2680 C   0  0  0  0  0  0  0  0  0  0  0  0
  -10.6290   -4.3800  -21.3970 H   0  0  0  0  0  0  0  0  0  0  0  0
  -14.5750   -2.7590  -21.2780 H   0  0  0  0  0  0  0  0  0  0  0  0
  -13.8200   -0.8270  -22.7180 H   0  0  0  0  0  0  0  0  0  0  0  0
   -9.5790   -1.9870  -24.6730 H   0  0  0  0  0  0  0  0  0  0  0  0
   -8.2330   -0.9840  -24.0640 H   0  0  0  0  0  0  0  0  0  0  0  0
   -6.3530   -3.2260  -21.4130 H   0  0  0  0  0  0  0  0  0  0  0  0
   -6.3980   -2.2380  -22.8780 H   0  0  0  0  0  0  0  0  0  0  0  0
   -8.6130   -3.8850  -21.6310 H   0  0  0  0  0  0  0  0  0  0  0  0
   -7.7660   -3.3840  -24.5370 H   0  0  0  0  0  0  0  0  0  0  0  0
   -9.1420   -4.3940  -24.0710 H   0  0  0  0  0  0  0  0  0  0  0  0
   -7.4840   -4.8710  -23.6210 H   0  0  0  0  0  0  0  0  0  0  0  0
  1  2  1  0  0  0  0
  1 57  1  0  0  0  0
  1 58  1  0  0  0  0
  1 59  1  0  0  0  0
  2  3  1  0  0  0  0
  2 23  1  0  0  0  0
  2 56  1  1  0  0  0
  3  4  1  0  0  0  0
  3 54  1  0  0  0  0
  3 55  1  0  0  0  0
  4  5  1  0  0  0  0
  4 21  1  0  0  0  0
  5  6  2  0  0  0  0
  5 14  1  0  0  0  0
  6  7  1  0  0  0  0
  6 20  1  0  0  0  0
  7  8  2  0  0  0  0
  8  9  1  0  0  0  0
  8 19  1  0  0  0  0
  9 10  2  0  0  0  0
  9 14  1  0  0  0  0
 10 11  1  0  0  0  0
 10 18  1  0  0  0  0
 11 12  2  0  0  0  0
 11 17  1  0  0  0  0
 12 13  1  0  0  0  0
 12 16  1  0  0  0  0
 13 14  2  0  0  0  0
 13 15  1  0  0  0  0
 21 22  2  0  0  0  0
 23 21  1  1  0  0  0
 23 24  1  0  0  0  0
 23 48  1  0  0  0  0
 24 25  1  0  0  0  0
 24 52  1  0  0  0  0
 24 53  1  0  0  0  0
 25 26  1  0  0  0  0
 25 40  1  0  0  0  0
 26 27  1  0  0  0  0
 26 38  1  0  0  0  0
 26 39  1  0  0  0  0
 27 28  2  0  0  0  0
 27 31  1  0  0  0  0
 28 29  1  0  0  0  0
 28 37  1  0  0  0  0
 29 30  2  0  0  0  0
 29 36  1  0  0  0  0
 30 31  1  0  0  0  0
 31 32  1  0  0  0  0
 32 33  1  0  0  0  0
 32 34  1  0  0  0  0
 32 35  1  0  0  0  0
 40 41  2  0  0  0  0
 40 42  1  0  0  0  0
 42 43  2  0  0  0  0
 42 48  1  0  0  0  0
 43 44  1  0  0  0  0
 43 51  1  0  0  0  0
 44 45  2  0  0  0  0
 44 50  1  0  0  0  0
 45 46  1  0  0  0  0
 45 47  1  0  0  0  0
 47 48  2  0  0  0  0
 47 49  1  0  0  0  0
M  END
>  <MODEL>
       1

$$$$
