tmp_first_model_2_38.pdb
 OpenBabel08272517383D

 46 48  0  0  1  0  0  0  0  0999 V2000
   -8.1590   -4.6950  -26.5420 C   0  0  0  0  0  0  0  0  0  0  0  0
   -8.6550   -4.9600  -25.1190 C   0  0  1  0  0  0  0  0  0  0  0  0
   -7.5930   -5.5250  -24.1810 C   0  0  0  0  0  0  0  0  0  0  0  0
   -6.6210   -4.5200  -23.5550 C   0  0  1  0  0  0  0  0  0  0  0  0
   -5.4310   -4.1610  -24.4540 C   0  0  0  0  0  0  0  0  0  0  0  0
   -4.6480   -3.7070  -23.8540 H   0  0  0  0  0  0  0  0  0  0  0  0
   -5.6780   -3.4340  -25.2290 H   0  0  0  0  0  0  0  0  0  0  0  0
   -5.0170   -5.0560  -24.9390 H   0  0  0  0  0  0  0  0  0  0  0  0
   -7.3260   -3.3400  -23.0130 N   0  0  0  0  0  0  0  0  0  0  0  0
   -6.7210   -2.7060  -21.9380 C   0  0  0  0  0  0  0  0  0  0  0  0
   -5.6730   -3.1230  -21.4710 O   0  0  0  0  0  0  0  0  0  0  0  0
   -7.4060   -1.4720  -21.2820 C   0  0  0  0  0  0  0  0  0  0  0  0
   -6.5770   -0.8360  -20.1850 C   0  0  0  0  0  0  0  0  0  0  0  0
   -6.8730   -1.0480  -18.8640 C   0  0  0  0  0  0  0  0  0  0  0  0
   -6.1920   -0.5410  -17.7990 N   0  0  0  0  0  0  0  0  0  0  0  0
   -5.1600    0.2220  -18.0650 C   0  0  0  0  0  0  0  0  0  0  0  0
   -4.7220    0.5290  -19.3800 C   0  0  0  0  0  0  0  0  0  0  0  0
   -3.5940    1.3570  -19.6230 C   0  0  0  0  0  0  0  0  0  0  0  0
   -3.1930    1.6340  -20.9010 C   0  0  0  0  0  0  0  0  0  0  0  0
   -3.9050    1.0910  -21.9940 C   0  0  0  0  0  0  0  0  0  0  0  0
   -5.0000    0.2890  -21.7870 C   0  0  0  0  0  0  0  0  0  0  0  0
   -5.4450   -0.0140  -20.4740 C   0  0  0  0  0  0  0  0  0  0  0  0
   -5.5350   -0.1230  -22.6370 H   0  0  0  0  0  0  0  0  0  0  0  0
   -3.5810    1.3170  -23.0060 H   0  0  0  0  0  0  0  0  0  0  0  0
   -2.3310    2.2720  -21.0870 H   0  0  0  0  0  0  0  0  0  0  0  0
   -3.0600    1.7720  -18.7710 H   0  0  0  0  0  0  0  0  0  0  0  0
   -4.6050    0.6280  -17.2150 H   0  0  0  0  0  0  0  0  0  0  0  0
   -7.7210   -1.6720  -18.5860 H   0  0  0  0  0  0  0  0  0  0  0  0
   -7.6710   -0.7160  -22.0330 H   0  0  0  0  0  0  0  0  0  0  0  0
   -8.3580   -1.8080  -20.8480 H   0  0  0  0  0  0  0  0  0  0  0  0
   -8.4090   -2.7200  -23.7920 C   0  0  1  0  0  0  0  0  0  0  0  0
   -7.9390   -1.6600  -24.8000 C   0  0  0  0  0  0  0  0  0  0  0  0
   -7.4430   -2.0880  -25.6760 H   0  0  0  0  0  0  0  0  0  0  0  0
   -8.7980   -1.0850  -25.1700 H   0  0  0  0  0  0  0  0  0  0  0  0
   -7.2440   -0.9490  -24.3440 H   0  0  0  0  0  0  0  0  0  0  0  0
   -9.3290   -3.7780  -24.4230 C   0  0  0  0  0  0  0  0  0  0  0  0
   -9.9790   -4.1710  -23.6350 H   0  0  0  0  0  0  0  0  0  0  0  0
   -9.9930   -3.2760  -25.1340 H   0  0  0  0  0  0  0  0  0  0  0  0
   -9.0310   -2.1950  -23.0610 H   0  0  0  0  0  0  0  0  0  0  0  0
   -6.1940   -5.0150  -22.6810 H   0  0  0  0  0  0  0  0  0  0  0  0
   -8.0930   -6.0550  -23.3650 H   0  0  0  0  0  0  0  0  0  0  0  0
   -7.0120   -6.2850  -24.7140 H   0  0  0  0  0  0  0  0  0  0  0  0
   -9.4280   -5.7360  -25.2230 H   0  0  0  0  0  0  0  0  0  0  0  0
   -7.9240   -5.6400  -27.0470 H   0  0  0  0  0  0  0  0  0  0  0  0
   -8.9310   -4.1940  -27.1380 H   0  0  0  0  0  0  0  0  0  0  0  0
   -7.2560   -4.0810  -26.5810 H   0  0  0  0  0  0  0  0  0  0  0  0
  1  2  1  0  0  0  0
  1 44  1  0  0  0  0
  1 45  1  0  0  0  0
  1 46  1  0  0  0  0
  2  3  1  0  0  0  0
  2 36  1  0  0  0  0
  2 43  1  6  0  0  0
  3  4  1  0  0  0  0
  3 41  1  0  0  0  0
  3 42  1  0  0  0  0
  4  5  1  0  0  0  0
  4  9  1  0  0  0  0
  4 40  1  1  0  0  0
  5  6  1  0  0  0  0
  5  7  1  0  0  0  0
  5  8  1  0  0  0  0
  9 10  1  0  0  0  0
  9 31  1  0  0  0  0
 10 11  2  0  0  0  0
 10 12  1  0  0  0  0
 12 13  1  0  0  0  0
 12 29  1  0  0  0  0
 12 30  1  0  0  0  0
 13 14  2  0  0  0  0
 13 22  1  0  0  0  0
 14 15  1  0  0  0  0
 14 28  1  0  0  0  0
 15 16  2  0  0  0  0
 16 17  1  0  0  0  0
 16 27  1  0  0  0  0
 17 18  2  0  0  0  0
 17 22  1  0  0  0  0
 18 19  1  0  0  0  0
 18 26  1  0  0  0  0
 19 20  2  0  0  0  0
 19 25  1  0  0  0  0
 20 21  1  0  0  0  0
 20 24  1  0  0  0  0
 21 22  2  0  0  0  0
 21 23  1  0  0  0  0
 31 32  1  0  0  0  0
 31 36  1  0  0  0  0
 31 39  1  1  0  0  0
 32 33  1  0  0  0  0
 32 34  1  0  0  0  0
 32 35  1  0  0  0  0
 36 37  1  0  0  0  0
 36 38  1  0  0  0  0
M  END
>  <MODEL>
       1

$$$$
