tmp_first_model_11_27.pdb
 OpenBabel08272522543D

 58 62  0  0  1  0  0  0  0  0999 V2000
   -7.0470    3.5750  -22.0980 C   0  0  0  0  0  0  0  0  0  0  0  0
   -7.2880    2.5320  -23.1010 N   0  3  0  0  0  0  0  0  0  0  0  0
   -8.4450    2.8270  -23.9970 C   0  0  0  0  0  0  0  0  0  0  0  0
   -8.7230    1.6680  -24.9550 C   0  0  0  0  0  0  0  0  0  0  0  0
   -9.3800    0.5280  -24.3210 N   0  0  0  0  0  0  0  0  0  0  0  0
   -8.6730   -0.7330  -24.1900 C   0  0  0  0  0  0  0  0  0  0  0  0
   -9.0670   -1.4890  -22.8970 C   0  0  2  0  0  0  0  0  0  0  0  0
   -8.5300   -0.7320  -21.6570 C   0  0  0  0  0  0  0  0  0  0  0  0
   -8.9680    0.2980  -21.1790 O   0  0  0  0  0  0  0  0  0  0  0  0
   -7.4150   -1.3870  -21.1890 N   0  0  0  0  0  0  0  0  0  0  0  0
   -6.6060   -0.8070  -20.1710 C   0  0  0  0  0  0  0  0  0  0  0  0
   -6.9110   -1.0390  -18.8560 C   0  0  0  0  0  0  0  0  0  0  0  0
   -6.2040   -0.5480  -17.8080 N   0  0  0  0  0  0  0  0  0  0  0  0
   -5.1690    0.2070  -18.0840 C   0  0  0  0  0  0  0  0  0  0  0  0
   -4.7370    0.5330  -19.4010 C   0  0  0  0  0  0  0  0  0  0  0  0
   -3.6110    1.3650  -19.6440 C   0  0  0  0  0  0  0  0  0  0  0  0
   -3.2260    1.6660  -20.9220 C   0  0  0  0  0  0  0  0  0  0  0  0
   -3.9470    1.1400  -22.0160 C   0  0  0  0  0  0  0  0  0  0  0  0
   -5.0380    0.3280  -21.8090 C   0  0  0  0  0  0  0  0  0  0  0  0
   -5.4740    0.0070  -20.4920 C   0  0  0  0  0  0  0  0  0  0  0  0
   -5.5680   -0.0830  -22.6640 H   0  0  0  0  0  0  0  0  0  0  0  0
   -3.6430    1.3850  -23.0310 H   0  0  0  0  0  0  0  0  0  0  0  0
   -2.3740    2.3180  -21.0980 H   0  0  0  0  0  0  0  0  0  0  0  0
   -3.0830    1.7750  -18.7870 H   0  0  0  0  0  0  0  0  0  0  0  0
   -4.6200    0.6120  -17.2330 H   0  0  0  0  0  0  0  0  0  0  0  0
   -7.7620   -1.6670  -18.5990 H   0  0  0  0  0  0  0  0  0  0  0  0
   -7.0540   -2.5680  -21.9490 C   0  0  0  0  0  0  0  0  0  0  0  0
   -8.3110   -2.8540  -22.8000 C   0  0  2  0  0  0  0  0  0  0  0  0
   -7.9700   -3.5640  -24.1200 C   0  0  0  0  0  0  0  0  0  0  0  0
   -7.5140   -4.5460  -23.9350 H   0  0  0  0  0  0  0  0  0  0  0  0
   -8.8570   -3.7220  -24.7470 H   0  0  0  0  0  0  0  0  0  0  0  0
   -7.2490   -2.9800  -24.7100 H   0  0  0  0  0  0  0  0  0  0  0  0
   -8.9580   -3.5130  -22.2150 H   0  0  0  0  0  0  0  0  0  0  0  0
   -6.8000   -3.3950  -21.2740 H   0  0  0  0  0  0  0  0  0  0  0  0
   -6.1710   -2.3870  -22.5850 H   0  0  0  0  0  0  0  0  0  0  0  0
  -10.5800   -1.5630  -22.8320 C   0  0  0  0  0  0  0  0  0  0  0  0
  -11.2250   -2.5130  -22.0300 C   0  0  0  0  0  0  0  0  0  0  0  0
  -12.6020   -2.5190  -21.9580 C   0  0  0  0  0  0  0  0  0  0  0  0
  -13.2090   -3.4380  -21.1900 F   0  0  0  0  0  0  0  0  0  0  0  0
  -13.3890   -1.6020  -22.6450 C   0  0  0  0  0  0  0  0  0  0  0  0
  -12.7550   -0.6300  -23.3920 C   0  0  0  0  0  0  0  0  0  0  0  0
  -11.3640   -0.5830  -23.4610 C   0  0  0  0  0  0  0  0  0  0  0  0
  -10.7340    0.5900  -24.1580 C   0  0  0  0  0  0  0  0  0  0  0  0
  -11.3960    1.5470  -24.5430 O   0  0  0  0  0  0  0  0  0  0  0  0
  -13.3090    0.1490  -23.9040 H   0  0  0  0  0  0  0  0  0  0  0  0
  -14.4650   -1.6480  -22.5420 H   0  0  0  0  0  0  0  0  0  0  0  0
  -10.6870   -3.2390  -21.4310 H   0  0  0  0  0  0  0  0  0  0  0  0
   -8.8770   -1.3850  -25.0540 H   0  0  0  0  0  0  0  0  0  0  0  0
   -7.6010   -0.5100  -24.1560 H   0  0  0  0  0  0  0  0  0  0  0  0
   -7.7790    1.3110  -25.3870 H   0  0  0  0  0  0  0  0  0  0  0  0
   -9.3740    2.0160  -25.7610 H   0  0  0  0  0  0  0  0  0  0  0  0
   -9.3310    3.0130  -23.3800 H   0  0  0  0  0  0  0  0  0  0  0  0
   -8.2380    3.7380  -24.5720 H   0  0  0  0  0  0  0  0  0  0  0  0
   -6.4220    2.4090  -23.6780 H   0  0  0  0  0  0  0  0  0  0  0  0
   -7.4990    1.6400  -22.6010 H   0  0  0  0  0  0  0  0  0  0  0  0
   -6.1780    3.3010  -21.4980 H   0  0  0  0  0  0  0  0  0  0  0  0
   -7.9250    3.6790  -21.4510 H   0  0  0  0  0  0  0  0  0  0  0  0
   -6.8740    4.5500  -22.5690 H   0  0  0  0  0  0  0  0  0  0  0  0
  1  2  1  0  0  0  0
  1 56  1  0  0  0  0
  1 57  1  0  0  0  0
  1 58  1  0  0  0  0
  2  3  1  0  0  0  0
  2 54  1  0  0  0  0
  2 55  1  0  0  0  0
  3  4  1  0  0  0  0
  3 52  1  0  0  0  0
  3 53  1  0  0  0  0
  4  5  1  0  0  0  0
  4 50  1  0  0  0  0
  4 51  1  0  0  0  0
  5  6  1  0  0  0  0
  5 43  1  0  0  0  0
  6  7  1  0  0  0  0
  6 48  1  0  0  0  0
  6 49  1  0  0  0  0
  7  8  1  1  0  0  0
  7 28  1  0  0  0  0
  7 36  1  0  0  0  0
  8  9  2  0  0  0  0
  8 10  1  0  0  0  0
 10 11  1  0  0  0  0
 10 27  1  0  0  0  0
 11 12  2  0  0  0  0
 11 20  1  0  0  0  0
 12 13  1  0  0  0  0
 12 26  1  0  0  0  0
 13 14  2  0  0  0  0
 14 15  1  0  0  0  0
 14 25  1  0  0  0  0
 15 16  2  0  0  0  0
 15 20  1  0  0  0  0
 16 17  1  0  0  0  0
 16 24  1  0  0  0  0
 17 18  2  0  0  0  0
 17 23  1  0  0  0  0
 18 19  1  0  0  0  0
 18 22  1  0  0  0  0
 19 20  2  0  0  0  0
 19 21  1  0  0  0  0
 27 28  1  0  0  0  0
 27 34  1  0  0  0  0
 27 35  1  0  0  0  0
 28 29  1  0  0  0  0
 28 33  1  1  0  0  0
 29 30  1  0  0  0  0
 29 31  1  0  0  0  0
 29 32  1  0  0  0  0
 36 37  2  0  0  0  0
 36 42  1  0  0  0  0
 37 38  1  0  0  0  0
 37 47  1  0  0  0  0
 38 39  1  0  0  0  0
 38 40  2  0  0  0  0
 40 41  1  0  0  0  0
 40 46  1  0  0  0  0
 41 42  2  0  0  0  0
 41 45  1  0  0  0  0
 42 43  1  0  0  0  0
 43 44  2  0  0  0  0
M  CHG  1   2   1
M  END
>  <MODEL>
       1

$$$$
