tmp_first_model_7_68.pdb
 OpenBabel08272520323D

 65 70  0  0  1  0  0  0  0  0999 V2000
   -5.6300   -3.2370  -21.2610 O   0  0  0  0  0  0  0  0  0  0  0  0
   -6.5800   -2.7570  -21.8620 C   0  0  0  0  0  0  0  0  0  0  0  0
   -7.3040   -1.5280  -21.2980 C   0  0  0  0  0  0  0  0  0  0  0  0
   -6.5400   -0.8630  -20.2050 C   0  0  0  0  0  0  0  0  0  0  0  0
   -6.8740   -1.0740  -18.8950 C   0  0  0  0  0  0  0  0  0  0  0  0
   -6.2140   -0.5590  -17.8280 N   0  0  0  0  0  0  0  0  0  0  0  0
   -5.1760    0.1970  -18.0870 C   0  0  0  0  0  0  0  0  0  0  0  0
   -4.7110    0.4960  -19.3960 C   0  0  0  0  0  0  0  0  0  0  0  0
   -3.5880    1.3300  -19.6250 C   0  0  0  0  0  0  0  0  0  0  0  0
   -3.1900    1.6310  -20.8980 C   0  0  0  0  0  0  0  0  0  0  0  0
   -3.9000    1.1100  -22.0030 C   0  0  0  0  0  0  0  0  0  0  0  0
   -4.9800    0.2860  -21.8090 C   0  0  0  0  0  0  0  0  0  0  0  0
   -5.4160   -0.0420  -20.4960 C   0  0  0  0  0  0  0  0  0  0  0  0
   -5.5110   -0.1110  -22.6690 H   0  0  0  0  0  0  0  0  0  0  0  0
   -3.5930    1.3750  -23.0100 H   0  0  0  0  0  0  0  0  0  0  0  0
   -2.3410    2.2860  -21.0680 H   0  0  0  0  0  0  0  0  0  0  0  0
   -3.0730    1.7480  -18.7650 H   0  0  0  0  0  0  0  0  0  0  0  0
   -4.6460    0.6200  -17.2340 H   0  0  0  0  0  0  0  0  0  0  0  0
   -7.7360   -1.6990  -18.6570 H   0  0  0  0  0  0  0  0  0  0  0  0
   -8.2710   -1.8760  -20.9120 H   0  0  0  0  0  0  0  0  0  0  0  0
   -7.5180   -0.8170  -22.1000 H   0  0  0  0  0  0  0  0  0  0  0  0
   -7.0840   -3.2880  -23.0330 N   0  0  0  0  0  0  0  0  0  0  0  0
   -7.8740   -2.4820  -23.9530 C   0  0  0  0  0  0  0  0  0  0  0  0
   -9.2770   -2.1550  -23.4810 C   0  0  0  0  0  0  0  0  0  0  0  0
   -9.8090   -0.8930  -23.7300 C   0  0  0  0  0  0  0  0  0  0  0  0
  -11.0880   -0.5650  -23.2920 C   0  0  0  0  0  0  0  0  0  0  0  0
  -11.8780   -1.4950  -22.6320 C   0  0  0  0  0  0  0  0  0  0  0  0
  -11.3500   -2.7590  -22.4180 C   0  0  0  0  0  0  0  0  0  0  0  0
  -12.3360   -3.9800  -21.6720 Cl  0  0  0  0  0  0  0  0  0  0  0  0
  -10.0510   -3.0820  -22.7870 C   0  0  0  0  0  0  0  0  0  0  0  0
   -9.6660   -4.0580  -22.5090 H   0  0  0  0  0  0  0  0  0  0  0  0
  -12.8740   -1.2500  -22.2800 H   0  0  0  0  0  0  0  0  0  0  0  0
  -11.4800    0.4300  -23.4820 H   0  0  0  0  0  0  0  0  0  0  0  0
   -9.2110   -0.1530  -24.2580 H   0  0  0  0  0  0  0  0  0  0  0  0
   -7.9440   -3.0050  -24.9070 H   0  0  0  0  0  0  0  0  0  0  0  0
   -7.3360   -1.5480  -24.1680 H   0  0  0  0  0  0  0  0  0  0  0  0
   -6.7640   -4.6750  -23.3640 C   0  0  2  0  0  0  0  0  0  0  0  0
   -7.6780   -5.3410  -24.4220 C   0  0  0  0  0  0  0  0  0  0  0  0
   -7.4740   -6.8580  -24.1980 C   0  0  0  0  0  0  0  0  0  0  0  0
   -6.4550   -6.8800  -23.0650 C   0  0  2  0  0  0  0  0  0  0  0  0
   -6.8650   -5.6900  -22.2100 C   0  0  0  0  0  0  0  0  0  0  0  0
   -6.1840   -5.4680  -21.3850 H   0  0  0  0  0  0  0  0  0  0  0  0
   -7.8910   -5.7590  -21.8310 H   0  0  0  0  0  0  0  0  0  0  0  0
   -5.1180   -6.4170  -23.6960 N   0  3  2  0  0  0  0  0  0  0  0  0
   -3.9220   -6.7630  -22.8610 C   0  0  0  0  0  0  0  0  0  0  0  0
   -3.0620   -7.9230  -23.3670 C   0  0  0  0  0  0  0  0  0  0  0  0
   -3.7680   -9.0260  -24.1600 C   0  0  0  0  0  0  0  0  0  0  0  0
   -3.5000   -8.3370  -25.3900 O   0  0  0  0  0  0  0  0  0  0  0  0
   -2.4250   -7.6410  -24.7320 C   0  0  0  0  0  0  0  0  0  0  0  0
   -2.3810   -6.5980  -25.0480 H   0  0  0  0  0  0  0  0  0  0  0  0
   -1.4540   -8.1450  -24.8690 H   0  0  0  0  0  0  0  0  0  0  0  0
   -3.2120   -9.9750  -24.0910 H   0  0  0  0  0  0  0  0  0  0  0  0
   -4.8420   -9.1990  -24.0310 H   0  0  0  0  0  0  0  0  0  0  0  0
   -2.4160   -8.2760  -22.5630 H   0  0  0  0  0  0  0  0  0  0  0  0
   -3.2800   -5.8790  -22.8080 H   0  0  0  0  0  0  0  0  0  0  0  0
   -4.2610   -6.9450  -21.8400 H   0  0  0  0  0  0  0  0  0  0  0  0
   -5.3260   -4.9050  -23.8640 C   0  0  0  0  0  0  0  0  0  0  0  0
   -4.6100   -4.3670  -23.2440 H   0  0  0  0  0  0  0  0  0  0  0  0
   -5.1800   -4.6330  -24.9120 H   0  0  0  0  0  0  0  0  0  0  0  0
   -4.9870   -6.8540  -24.6220 H   0  0  0  0  0  0  0  0  0  0  0  0
   -6.3200   -7.8290  -22.5480 H   0  0  0  0  0  0  0  0  0  0  0  0
   -8.4070   -7.3470  -23.9090 H   0  0  0  0  0  0  0  0  0  0  0  0
   -7.0830   -7.3720  -25.0830 H   0  0  0  0  0  0  0  0  0  0  0  0
   -7.4050   -5.0400  -25.4370 H   0  0  0  0  0  0  0  0  0  0  0  0
   -8.7180   -5.0530  -24.2500 H   0  0  0  0  0  0  0  0  0  0  0  0
  1  2  2  0  0  0  0
  2  3  1  0  0  0  0
  2 22  1  0  0  0  0
  3  4  1  0  0  0  0
  3 20  1  0  0  0  0
  3 21  1  0  0  0  0
  4  5  2  0  0  0  0
  4 13  1  0  0  0  0
  5  6  1  0  0  0  0
  5 19  1  0  0  0  0
  6  7  2  0  0  0  0
  7  8  1  0  0  0  0
  7 18  1  0  0  0  0
  8  9  2  0  0  0  0
  8 13  1  0  0  0  0
  9 10  1  0  0  0  0
  9 17  1  0  0  0  0
 10 11  2  0  0  0  0
 10 16  1  0  0  0  0
 11 12  1  0  0  0  0
 11 15  1  0  0  0  0
 12 13  2  0  0  0  0
 12 14  1  0  0  0  0
 22 23  1  0  0  0  0
 23 24  1  0  0  0  0
 23 35  1  0  0  0  0
 23 36  1  0  0  0  0
 24 25  2  0  0  0  0
 24 30  1  0  0  0  0
 25 26  1  0  0  0  0
 25 34  1  0  0  0  0
 26 27  2  0  0  0  0
 26 33  1  0  0  0  0
 27 28  1  0  0  0  0
 27 32  1  0  0  0  0
 28 29  1  0  0  0  0
 28 30  2  0  0  0  0
 30 31  1  0  0  0  0
 37 22  1  1  0  0  0
 37 38  1  0  0  0  0
 37 41  1  0  0  0  0
 37 57  1  0  0  0  0
 38 39  1  0  0  0  0
 38 64  1  0  0  0  0
 38 65  1  0  0  0  0
 39 40  1  0  0  0  0
 39 62  1  0  0  0  0
 39 63  1  0  0  0  0
 40 41  1  0  0  0  0
 40 44  1  0  0  0  0
 40 61  1  1  0  0  0
 41 42  1  0  0  0  0
 41 43  1  0  0  0  0
 44 45  1  0  0  0  0
 44 57  1  0  0  0  0
 44 60  1  6  0  0  0
 45 46  1  0  0  0  0
 45 55  1  0  0  0  0
 45 56  1  0  0  0  0
 46 47  1  0  0  0  0
 46 49  1  0  0  0  0
 46 54  1  0  0  0  0
 47 48  1  0  0  0  0
 47 52  1  0  0  0  0
 47 53  1  0  0  0  0
 48 49  1  0  0  0  0
 49 50  1  0  0  0  0
 49 51  1  0  0  0  0
 57 58  1  0  0  0  0
 57 59  1  0  0  0  0
M  CHG  1  44   1
M  END
>  <MODEL>
       1

$$$$
