tmp_first_model_14_77.pdb
 OpenBabel08282500413D

 55 60  0  0  1  0  0  0  0  0999 V2000
  -10.4830   -1.1220  -23.3310 C   0  0  0  0  0  0  0  0  0  0  0  0
   -9.0310   -1.4410  -22.9840 C   0  0  1  0  0  0  0  0  0  0  0  0
   -8.4430   -0.4980  -21.9200 C   0  0  0  0  0  0  0  0  0  0  0  0
   -7.4240   -1.3050  -21.2730 N   0  0  0  0  0  0  0  0  0  0  0  0
   -6.6030   -0.8110  -20.2290 C   0  0  0  0  0  0  0  0  0  0  0  0
   -6.9270   -1.0370  -18.9150 C   0  0  0  0  0  0  0  0  0  0  0  0
   -6.2580   -0.4930  -17.8690 N   0  0  0  0  0  0  0  0  0  0  0  0
   -5.2230    0.2620  -18.1290 C   0  0  0  0  0  0  0  0  0  0  0  0
   -4.7600    0.5530  -19.4400 C   0  0  0  0  0  0  0  0  0  0  0  0
   -3.6160    1.3610  -19.6660 C   0  0  0  0  0  0  0  0  0  0  0  0
   -3.2080    1.6240  -20.9440 C   0  0  0  0  0  0  0  0  0  0  0  0
   -3.9140    1.0850  -22.0430 C   0  0  0  0  0  0  0  0  0  0  0  0
   -5.0190    0.2910  -21.8490 C   0  0  0  0  0  0  0  0  0  0  0  0
   -5.4710    0.0090  -20.5320 C   0  0  0  0  0  0  0  0  0  0  0  0
   -5.5530   -0.1380  -22.6900 H   0  0  0  0  0  0  0  0  0  0  0  0
   -3.5750    1.2930  -23.0540 H   0  0  0  0  0  0  0  0  0  0  0  0
   -2.3340    2.2460  -21.1240 H   0  0  0  0  0  0  0  0  0  0  0  0
   -3.0820    1.7640  -18.8080 H   0  0  0  0  0  0  0  0  0  0  0  0
   -4.6900    0.6820  -17.2740 H   0  0  0  0  0  0  0  0  0  0  0  0
   -7.7720   -1.6680  -18.6480 H   0  0  0  0  0  0  0  0  0  0  0  0
   -7.5490   -2.6550  -21.5130 C   0  0  0  0  0  0  0  0  0  0  0  0
   -6.7830   -3.4950  -21.0940 O   0  0  0  0  0  0  0  0  0  0  0  0
   -8.7680   -2.8880  -22.4230 C   0  0  1  0  0  0  0  0  0  0  0  0
   -9.9490   -3.3820  -21.5490 C   0  0  0  0  0  0  0  0  0  0  0  0
  -11.0850   -3.8450  -22.3360 N   0  0  0  0  0  0  0  0  0  0  0  0
  -12.4470   -3.8030  -21.8200 C   0  0  0  0  0  0  0  0  0  0  0  0
  -13.2940   -2.6970  -22.3580 C   0  0  0  0  0  0  0  0  0  0  0  0
  -13.9820   -2.7500  -23.5200 C   0  0  0  0  0  0  0  0  0  0  0  0
  -14.7330   -1.6160  -23.6270 O   0  0  0  0  0  0  0  0  0  0  0  0
  -14.4740   -0.9470  -22.4880 C   0  0  0  0  0  0  0  0  0  0  0  0
  -13.6350   -1.5260  -21.6930 N   0  0  0  0  0  0  0  0  0  0  0  0
  -15.0100   -0.0170  -22.3550 H   0  0  0  0  0  0  0  0  0  0  0  0
  -14.0490   -3.4820  -24.3080 H   0  0  0  0  0  0  0  0  0  0  0  0
  -12.4520   -3.8270  -20.7310 H   0  0  0  0  0  0  0  0  0  0  0  0
  -12.9190   -4.7050  -22.2040 H   0  0  0  0  0  0  0  0  0  0  0  0
  -10.9160   -4.5750  -23.4830 C   0  0  0  0  0  0  0  0  0  0  0  0
  -11.8610   -5.0570  -24.0950 O   0  0  0  0  0  0  0  0  0  0  0  0
   -9.5080   -4.7580  -23.9500 C   0  0  0  0  0  0  0  0  0  0  0  0
   -9.2570   -5.7450  -24.9050 C   0  0  0  0  0  0  0  0  0  0  0  0
   -7.9840   -5.9050  -25.4230 C   0  0  0  0  0  0  0  0  0  0  0  0
   -6.9770   -5.0440  -24.9990 C   0  0  0  0  0  0  0  0  0  0  0  0
   -5.7380   -5.1880  -25.5040 F   0  0  0  0  0  0  0  0  0  0  0  0
   -7.1990   -4.0840  -24.0320 C   0  0  0  0  0  0  0  0  0  0  0  0
   -8.4780   -3.9370  -23.4770 C   0  0  0  0  0  0  0  0  0  0  0  0
   -6.3550   -3.5110  -23.6720 H   0  0  0  0  0  0  0  0  0  0  0  0
   -7.7630   -6.6830  -26.1430 H   0  0  0  0  0  0  0  0  0  0  0  0
  -10.0860   -6.3740  -25.2300 H   0  0  0  0  0  0  0  0  0  0  0  0
  -10.2400   -2.5290  -20.9290 H   0  0  0  0  0  0  0  0  0  0  0  0
   -9.5980   -4.1870  -20.8960 H   0  0  0  0  0  0  0  0  0  0  0  0
   -9.2100   -0.1640  -21.2050 H   0  0  0  0  0  0  0  0  0  0  0  0
   -8.0040    0.4050  -22.3530 H   0  0  0  0  0  0  0  0  0  0  0  0
   -8.4200   -1.3660  -23.8930 H   0  0  0  0  0  0  0  0  0  0  0  0
  -10.5850   -0.1630  -23.8420 H   0  0  0  0  0  0  0  0  0  0  0  0
  -10.9060   -1.8990  -23.9730 H   0  0  0  0  0  0  0  0  0  0  0  0
  -11.1050   -1.0780  -22.4320 H   0  0  0  0  0  0  0  0  0  0  0  0
  1  2  1  0  0  0  0
  1 53  1  0  0  0  0
  1 54  1  0  0  0  0
  1 55  1  0  0  0  0
  2  3  1  0  0  0  0
  2 23  1  0  0  0  0
  2 52  1  6  0  0  0
  3  4  1  0  0  0  0
  3 50  1  0  0  0  0
  3 51  1  0  0  0  0
  4  5  1  0  0  0  0
  4 21  1  0  0  0  0
  5  6  2  0  0  0  0
  5 14  1  0  0  0  0
  6  7  1  0  0  0  0
  6 20  1  0  0  0  0
  7  8  2  0  0  0  0
  8  9  1  0  0  0  0
  8 19  1  0  0  0  0
  9 10  2  0  0  0  0
  9 14  1  0  0  0  0
 10 11  1  0  0  0  0
 10 18  1  0  0  0  0
 11 12  2  0  0  0  0
 11 17  1  0  0  0  0
 12 13  1  0  0  0  0
 12 16  1  0  0  0  0
 13 14  2  0  0  0  0
 13 15  1  0  0  0  0
 21 22  2  0  0  0  0
 23 21  1  1  0  0  0
 23 24  1  0  0  0  0
 23 44  1  0  0  0  0
 24 25  1  0  0  0  0
 24 48  1  0  0  0  0
 24 49  1  0  0  0  0
 25 26  1  0  0  0  0
 25 36  1  0  0  0  0
 26 27  1  0  0  0  0
 26 34  1  0  0  0  0
 26 35  1  0  0  0  0
 27 28  2  0  0  0  0
 27 31  1  0  0  0  0
 28 29  1  0  0  0  0
 28 33  1  0  0  0  0
 29 30  1  0  0  0  0
 30 31  2  0  0  0  0
 30 32  1  0  0  0  0
 36 37  2  0  0  0  0
 36 38  1  0  0  0  0
 38 39  2  0  0  0  0
 38 44  1  0  0  0  0
 39 40  1  0  0  0  0
 39 47  1  0  0  0  0
 40 41  2  0  0  0  0
 40 46  1  0  0  0  0
 41 42  1  0  0  0  0
 41 43  1  0  0  0  0
 43 44  2  0  0  0  0
 43 45  1  0  0  0  0
M  END
>  <MODEL>
       1

$$$$
