tmp_first_model_1_50.pdb
 OpenBabel08272517043D

 66 70  0  0  1  0  0  0  0  0999 V2000
   -6.8910    3.0520  -22.1290 C   0  0  0  0  0  0  0  0  0  0  0  0
   -7.4220    2.4200  -23.3230 N   0  0  0  0  0  0  0  0  0  0  0  0
   -6.5960    1.7740  -24.1750 C   0  0  0  0  0  0  0  0  0  0  0  0
   -5.3760    1.8950  -24.1520 O   0  0  0  0  0  0  0  0  0  0  0  0
   -7.2820    0.8400  -25.1810 C   0  0  0  0  0  0  0  0  0  0  0  0
   -7.9640   -0.2510  -24.5020 N   0  0  0  0  0  0  0  0  0  0  0  0
   -7.2150   -1.4360  -24.1190 C   0  0  0  0  0  0  0  0  0  0  0  0
   -7.7190   -2.0850  -22.7900 C   0  0  2  0  0  0  0  0  0  0  0  0
   -7.3020   -1.2020  -21.5960 C   0  0  0  0  0  0  0  0  0  0  0  0
   -7.8920   -0.2360  -21.1600 O   0  0  0  0  0  0  0  0  0  0  0  0
   -6.1170   -1.6950  -21.1010 N   0  0  0  0  0  0  0  0  0  0  0  0
   -5.5020   -1.0650  -19.9940 C   0  0  0  0  0  0  0  0  0  0  0  0
   -5.8040   -1.4580  -18.7190 C   0  0  0  0  0  0  0  0  0  0  0  0
   -5.3310   -0.8610  -17.6000 N   0  0  0  0  0  0  0  0  0  0  0  0
   -4.5310    0.1690  -17.7530 C   0  0  0  0  0  0  0  0  0  0  0  0
   -4.1080    0.6620  -19.0230 C   0  0  0  0  0  0  0  0  0  0  0  0
   -3.2250    1.7690  -19.1650 C   0  0  0  0  0  0  0  0  0  0  0  0
   -2.8160    2.1930  -20.4030 C   0  0  0  0  0  0  0  0  0  0  0  0
   -3.3080    1.5490  -21.5600 C   0  0  0  0  0  0  0  0  0  0  0  0
   -4.1990    0.5100  -21.4570 C   0  0  0  0  0  0  0  0  0  0  0  0
   -4.6030    0.0240  -20.1850 C   0  0  0  0  0  0  0  0  0  0  0  0
   -4.6240    0.0690  -22.3550 H   0  0  0  0  0  0  0  0  0  0  0  0
   -3.0090    1.8870  -22.5470 H   0  0  0  0  0  0  0  0  0  0  0  0
   -2.1280    3.0320  -20.5070 H   0  0  0  0  0  0  0  0  0  0  0  0
   -2.9060    2.2960  -18.2730 H   0  0  0  0  0  0  0  0  0  0  0  0
   -4.1900    0.6600  -16.8420 H   0  0  0  0  0  0  0  0  0  0  0  0
   -6.4880   -2.2900  -18.5590 H   0  0  0  0  0  0  0  0  0  0  0  0
   -5.6510   -2.8950  -21.7690 C   0  0  0  0  0  0  0  0  0  0  0  0
   -6.9300   -3.3930  -22.4840 C   0  0  2  0  0  0  0  0  0  0  0  0
   -6.6240   -4.3170  -23.6680 C   0  0  0  0  0  0  0  0  0  0  0  0
   -6.1970   -5.5700  -23.1730 O   0  0  0  0  0  0  0  0  0  0  0  0
   -5.1340   -6.1850  -23.8950 C   0  0  0  0  0  0  0  0  0  0  0  0
   -4.7810   -7.4490  -23.1220 C   0  0  0  0  0  0  0  0  0  0  0  0
   -3.8450   -7.8860  -23.4920 H   0  0  0  0  0  0  0  0  0  0  0  0
   -4.6570   -7.2100  -22.0620 H   0  0  0  0  0  0  0  0  0  0  0  0
   -5.5770   -8.1980  -23.2090 H   0  0  0  0  0  0  0  0  0  0  0  0
   -5.4950   -6.4610  -25.3590 C   0  0  0  0  0  0  0  0  0  0  0  0
   -5.8000   -5.5420  -25.8750 H   0  0  0  0  0  0  0  0  0  0  0  0
   -6.3160   -7.1840  -25.4380 H   0  0  0  0  0  0  0  0  0  0  0  0
   -4.6220   -6.8590  -25.8890 H   0  0  0  0  0  0  0  0  0  0  0  0
   -4.2600   -5.5070  -23.8810 H   0  0  0  0  0  0  0  0  0  0  0  0
   -7.5100   -4.4530  -24.3140 H   0  0  0  0  0  0  0  0  0  0  0  0
   -5.8280   -3.8660  -24.2890 H   0  0  0  0  0  0  0  0  0  0  0  0
   -7.5100   -3.9800  -21.7690 H   0  0  0  0  0  0  0  0  0  0  0  0
   -4.8680   -2.6660  -22.5130 H   0  0  0  0  0  0  0  0  0  0  0  0
   -5.2360   -3.5950  -21.0390 H   0  0  0  0  0  0  0  0  0  0  0  0
   -9.2270   -2.1900  -22.8440 C   0  0  0  0  0  0  0  0  0  0  0  0
   -9.9650   -3.0850  -22.0570 C   0  0  0  0  0  0  0  0  0  0  0  0
  -11.3450   -3.0550  -22.1580 C   0  0  0  0  0  0  0  0  0  0  0  0
  -12.0800   -3.8130  -21.3380 F   0  0  0  0  0  0  0  0  0  0  0  0
  -12.0370   -2.2700  -23.0690 C   0  0  0  0  0  0  0  0  0  0  0  0
  -11.3160   -1.3510  -23.7980 C   0  0  0  0  0  0  0  0  0  0  0  0
   -9.9440   -1.2580  -23.6070 C   0  0  0  0  0  0  0  0  0  0  0  0
   -9.2610   -0.0680  -24.1750 C   0  0  0  0  0  0  0  0  0  0  0  0
   -9.8240    1.0170  -24.3330 O   0  0  0  0  0  0  0  0  0  0  0  0
  -11.7790   -0.6260  -24.4640 H   0  0  0  0  0  0  0  0  0  0  0  0
  -13.1160   -2.3440  -23.1270 H   0  0  0  0  0  0  0  0  0  0  0  0
   -9.5130   -3.7720  -21.3490 H   0  0  0  0  0  0  0  0  0  0  0  0
   -6.1690   -1.1290  -24.0110 H   0  0  0  0  0  0  0  0  0  0  0  0
   -7.2870   -2.1830  -24.9180 H   0  0  0  0  0  0  0  0  0  0  0  0
   -8.0500    1.3800  -25.7460 H   0  0  0  0  0  0  0  0  0  0  0  0
   -6.5200    0.4560  -25.8660 H   0  0  0  0  0  0  0  0  0  0  0  0
   -8.4240    2.2700  -23.4180 H   0  0  0  0  0  0  0  0  0  0  0  0
   -6.0020    3.6310  -22.4020 H   0  0  0  0  0  0  0  0  0  0  0  0
   -7.6530    3.7150  -21.7090 H   0  0  0  0  0  0  0  0  0  0  0  0
   -6.5970    2.2950  -21.3830 H   0  0  0  0  0  0  0  0  0  0  0  0
  1  2  1  0  0  0  0
  1 64  1  0  0  0  0
  1 65  1  0  0  0  0
  1 66  1  0  0  0  0
  2  3  1  0  0  0  0
  2 63  1  0  0  0  0
  3  4  2  0  0  0  0
  3  5  1  0  0  0  0
  5  6  1  0  0  0  0
  5 61  1  0  0  0  0
  5 62  1  0  0  0  0
  6  7  1  0  0  0  0
  6 54  1  0  0  0  0
  7  8  1  0  0  0  0
  7 59  1  0  0  0  0
  7 60  1  0  0  0  0
  8  9  1  1  0  0  0
  8 29  1  0  0  0  0
  8 47  1  0  0  0  0
  9 10  2  0  0  0  0
  9 11  1  0  0  0  0
 11 12  1  0  0  0  0
 11 28  1  0  0  0  0
 12 13  2  0  0  0  0
 12 21  1  0  0  0  0
 13 14  1  0  0  0  0
 13 27  1  0  0  0  0
 14 15  2  0  0  0  0
 15 16  1  0  0  0  0
 15 26  1  0  0  0  0
 16 17  2  0  0  0  0
 16 21  1  0  0  0  0
 17 18  1  0  0  0  0
 17 25  1  0  0  0  0
 18 19  2  0  0  0  0
 18 24  1  0  0  0  0
 19 20  1  0  0  0  0
 19 23  1  0  0  0  0
 20 21  2  0  0  0  0
 20 22  1  0  0  0  0
 28 29  1  0  0  0  0
 28 45  1  0  0  0  0
 28 46  1  0  0  0  0
 29 30  1  0  0  0  0
 29 44  1  1  0  0  0
 30 31  1  0  0  0  0
 30 42  1  0  0  0  0
 30 43  1  0  0  0  0
 31 32  1  0  0  0  0
 32 33  1  0  0  0  0
 32 37  1  0  0  0  0
 32 41  1  0  0  0  0
 33 34  1  0  0  0  0
 33 35  1  0  0  0  0
 33 36  1  0  0  0  0
 37 38  1  0  0  0  0
 37 39  1  0  0  0  0
 37 40  1  0  0  0  0
 47 48  2  0  0  0  0
 47 53  1  0  0  0  0
 48 49  1  0  0  0  0
 48 58  1  0  0  0  0
 49 50  1  0  0  0  0
 49 51  2  0  0  0  0
 51 52  1  0  0  0  0
 51 57  1  0  0  0  0
 52 53  2  0  0  0  0
 52 56  1  0  0  0  0
 53 54  1  0  0  0  0
 54 55  2  0  0  0  0
M  END
>  <MODEL>
       1

$$$$
