tmp_first_model_17_69.pdb
 OpenBabel08282502223D

 63 67  0  0  0  0  0  0  0  0999 V2000
  -12.3350    6.4800  -23.9370 C   0  0  0  0  0  0  0  0  0  0  0  0
  -11.4660    5.4830  -23.8040 C   0  0  0  0  0  0  0  0  0  0  0  0
  -10.5810    5.0630  -24.9200 C   0  0  0  0  0  0  0  0  0  0  0  0
  -10.4600    5.6980  -25.9520 O   0  0  0  0  0  0  0  0  0  0  0  0
   -9.8070    3.9340  -24.6760 N   0  0  0  0  0  0  0  0  0  0  0  0
   -8.5460    3.8830  -25.4070 C   0  0  0  0  0  0  0  0  0  0  0  0
   -7.5450    3.1740  -24.5270 C   0  0  0  0  0  0  0  0  0  0  0  0
   -7.9950    1.7350  -24.3500 C   0  0  0  0  0  0  0  0  0  0  0  0
   -9.4620    1.6320  -23.9620 C   0  0  0  0  0  0  0  0  0  0  0  0
  -10.3280    2.7240  -24.1450 C   0  0  0  0  0  0  0  0  0  0  0  0
  -11.7050    2.5560  -23.9230 C   0  0  0  0  0  0  0  0  0  0  0  0
  -12.2390    1.3250  -23.5920 C   0  0  0  0  0  0  0  0  0  0  0  0
  -11.3850    0.2580  -23.3480 C   0  0  0  0  0  0  0  0  0  0  0  0
  -10.0170    0.4500  -23.4670 C   0  0  0  0  0  0  0  0  0  0  0  0
   -9.1240   -0.7070  -23.0310 N   0  3  0  0  0  0  0  0  0  0  0  0
   -8.3480   -1.3740  -24.2210 C   0  0  0  0  0  0  0  0  0  0  0  0
   -8.4220   -2.8800  -24.2010 C   0  0  0  0  0  0  0  0  0  0  0  0
   -7.2570   -3.6420  -24.1160 C   0  0  0  0  0  0  0  0  0  0  0  0
   -7.3120   -5.0300  -24.1440 C   0  0  0  0  0  0  0  0  0  0  0  0
   -8.5310   -5.6850  -24.2810 C   0  0  0  0  0  0  0  0  0  0  0  0
   -9.6870   -4.9220  -24.3990 C   0  0  0  0  0  0  0  0  0  0  0  0
  -11.2200   -5.7120  -24.6520 Cl  0  0  0  0  0  0  0  0  0  0  0  0
   -9.6490   -3.5370  -24.3420 C   0  0  0  0  0  0  0  0  0  0  0  0
  -10.5810   -2.9840  -24.4370 H   0  0  0  0  0  0  0  0  0  0  0  0
   -8.5840   -6.7680  -24.3100 H   0  0  0  0  0  0  0  0  0  0  0  0
   -6.3920   -5.6000  -24.0650 H   0  0  0  0  0  0  0  0  0  0  0  0
   -6.2960   -3.1380  -24.0300 H   0  0  0  0  0  0  0  0  0  0  0  0
   -7.3080   -1.0340  -24.2100 H   0  0  0  0  0  0  0  0  0  0  0  0
   -8.8220   -0.9790  -25.1200 H   0  0  0  0  0  0  0  0  0  0  0  0
   -8.3610   -0.3430  -21.7760 C   0  0  0  0  0  0  0  0  0  0  0  0
   -8.5450    0.7200  -21.2500 O   0  0  0  0  0  0  0  0  0  0  0  0
   -7.4330   -1.4210  -21.2270 C   0  0  0  0  0  0  0  0  0  0  0  0
   -6.5570   -0.8600  -20.1470 C   0  0  0  0  0  0  0  0  0  0  0  0
   -6.8700   -1.0540  -18.8280 C   0  0  0  0  0  0  0  0  0  0  0  0
   -6.1910   -0.5360  -17.7710 N   0  0  0  0  0  0  0  0  0  0  0  0
   -5.1580    0.2220  -18.0530 C   0  0  0  0  0  0  0  0  0  0  0  0
   -4.7280    0.5280  -19.3730 C   0  0  0  0  0  0  0  0  0  0  0  0
   -3.6140    1.3710  -19.6180 C   0  0  0  0  0  0  0  0  0  0  0  0
   -3.2350    1.6660  -20.8990 C   0  0  0  0  0  0  0  0  0  0  0  0
   -3.9540    1.1330  -21.9920 C   0  0  0  0  0  0  0  0  0  0  0  0
   -5.0340    0.3100  -21.7810 C   0  0  0  0  0  0  0  0  0  0  0  0
   -5.4510   -0.0180  -20.4590 C   0  0  0  0  0  0  0  0  0  0  0  0
   -5.5810   -0.0850  -22.6340 H   0  0  0  0  0  0  0  0  0  0  0  0
   -3.6350    1.3720  -23.0030 H   0  0  0  0  0  0  0  0  0  0  0  0
   -2.3760    2.3050  -21.0850 H   0  0  0  0  0  0  0  0  0  0  0  0
   -3.0740    1.7770  -18.7660 H   0  0  0  0  0  0  0  0  0  0  0  0
   -4.6030    0.6400  -17.2120 H   0  0  0  0  0  0  0  0  0  0  0  0
   -7.7310   -1.6690  -18.5650 H   0  0  0  0  0  0  0  0  0  0  0  0
   -8.0570   -2.2350  -20.8320 H   0  0  0  0  0  0  0  0  0  0  0  0
   -6.8540   -1.8360  -22.0530 H   0  0  0  0  0  0  0  0  0  0  0  0
   -9.7890   -1.4610  -22.7380 H   0  0  0  0  0  0  0  0  0  0  0  0
  -11.7770   -0.7230  -23.1020 H   0  0  0  0  0  0  0  0  0  0  0  0
  -13.3190    1.1990  -23.5390 H   0  0  0  0  0  0  0  0  0  0  0  0
  -12.3960    3.3790  -24.0560 H   0  0  0  0  0  0  0  0  0  0  0  0
   -7.8080    1.1860  -25.2820 H   0  0  0  0  0  0  0  0  0  0  0  0
   -7.3670    1.2520  -23.6010 H   0  0  0  0  0  0  0  0  0  0  0  0
   -6.5270    3.2330  -24.9300 H   0  0  0  0  0  0  0  0  0  0  0  0
   -7.5400    3.6680  -23.5500 H   0  0  0  0  0  0  0  0  0  0  0  0
   -8.6750    3.3870  -26.3800 H   0  0  0  0  0  0  0  0  0  0  0  0
   -8.2490    4.9110  -25.6050 H   0  0  0  0  0  0  0  0  0  0  0  0
  -11.3900    4.9150  -22.8820 H   0  0  0  0  0  0  0  0  0  0  0  0
  -12.3630    7.0900  -24.8320 H   0  0  0  0  0  0  0  0  0  0  0  0
  -12.9920    6.7320  -23.1100 H   0  0  0  0  0  0  0  0  0  0  0  0
  1  2  2  0  0  0  0
  1 62  1  0  0  0  0
  1 63  1  0  0  0  0
  2  3  1  0  0  0  0
  2 61  1  0  0  0  0
  3  4  2  0  0  0  0
  3  5  1  0  0  0  0
  5  6  1  0  0  0  0
  5 10  1  0  0  0  0
  6  7  1  0  0  0  0
  6 59  1  0  0  0  0
  6 60  1  0  0  0  0
  7  8  1  0  0  0  0
  7 57  1  0  0  0  0
  7 58  1  0  0  0  0
  8  9  1  0  0  0  0
  8 55  1  0  0  0  0
  8 56  1  0  0  0  0
  9 10  2  0  0  0  0
  9 14  1  0  0  0  0
 10 11  1  0  0  0  0
 11 12  2  0  0  0  0
 11 54  1  0  0  0  0
 12 13  1  0  0  0  0
 12 53  1  0  0  0  0
 13 14  2  0  0  0  0
 13 52  1  0  0  0  0
 14 15  1  0  0  0  0
 15 16  1  0  0  0  0
 15 30  1  0  0  0  0
 15 51  1  0  0  0  0
 16 17  1  0  0  0  0
 16 28  1  0  0  0  0
 16 29  1  0  0  0  0
 17 18  2  0  0  0  0
 17 23  1  0  0  0  0
 18 19  1  0  0  0  0
 18 27  1  0  0  0  0
 19 20  2  0  0  0  0
 19 26  1  0  0  0  0
 20 21  1  0  0  0  0
 20 25  1  0  0  0  0
 21 22  1  0  0  0  0
 21 23  2  0  0  0  0
 23 24  1  0  0  0  0
 30 31  2  0  0  0  0
 30 32  1  0  0  0  0
 32 33  1  0  0  0  0
 32 49  1  0  0  0  0
 32 50  1  0  0  0  0
 33 34  2  0  0  0  0
 33 42  1  0  0  0  0
 34 35  1  0  0  0  0
 34 48  1  0  0  0  0
 35 36  2  0  0  0  0
 36 37  1  0  0  0  0
 36 47  1  0  0  0  0
 37 38  2  0  0  0  0
 37 42  1  0  0  0  0
 38 39  1  0  0  0  0
 38 46  1  0  0  0  0
 39 40  2  0  0  0  0
 39 45  1  0  0  0  0
 40 41  1  0  0  0  0
 40 44  1  0  0  0  0
 41 42  2  0  0  0  0
 41 43  1  0  0  0  0
M  CHG  1  15   1
M  END
>  <MODEL>
       1

$$$$
