tmp_first_model_9_50.pdb
 OpenBabel08272521403D

 66 70  0  0  1  0  0  0  0  0999 V2000
   -7.4440    3.3500  -21.8130 C   0  0  0  0  0  0  0  0  0  0  0  0
   -8.3560    2.8830  -22.8410 N   0  0  0  0  0  0  0  0  0  0  0  0
   -7.8400    2.1610  -23.8630 C   0  0  0  0  0  0  0  0  0  0  0  0
   -6.6310    2.0220  -24.0140 O   0  0  0  0  0  0  0  0  0  0  0  0
   -8.8450    1.5420  -24.8440 C   0  0  0  0  0  0  0  0  0  0  0  0
   -9.5430    0.3820  -24.3180 N   0  0  0  0  0  0  0  0  0  0  0  0
   -8.8110   -0.8650  -24.1760 C   0  0  0  0  0  0  0  0  0  0  0  0
   -9.1310   -1.5700  -22.8330 C   0  0  2  0  0  0  0  0  0  0  0  0
   -8.5440   -0.7500  -21.6510 C   0  0  0  0  0  0  0  0  0  0  0  0
   -8.9830    0.2780  -21.1830 O   0  0  0  0  0  0  0  0  0  0  0  0
   -7.4070   -1.3830  -21.2010 N   0  0  0  0  0  0  0  0  0  0  0  0
   -6.6070   -0.8070  -20.1750 C   0  0  0  0  0  0  0  0  0  0  0  0
   -6.9070   -1.0400  -18.8580 C   0  0  0  0  0  0  0  0  0  0  0  0
   -6.1960   -0.5490  -17.8140 N   0  0  0  0  0  0  0  0  0  0  0  0
   -5.1630    0.2100  -18.0810 C   0  0  0  0  0  0  0  0  0  0  0  0
   -4.7270    0.5300  -19.3960 C   0  0  0  0  0  0  0  0  0  0  0  0
   -3.5990    1.3620  -19.6420 C   0  0  0  0  0  0  0  0  0  0  0  0
   -3.2130    1.6520  -20.9210 C   0  0  0  0  0  0  0  0  0  0  0  0
   -3.9400    1.1240  -22.0130 C   0  0  0  0  0  0  0  0  0  0  0  0
   -5.0330    0.3180  -21.8000 C   0  0  0  0  0  0  0  0  0  0  0  0
   -5.4650    0.0030  -20.4860 C   0  0  0  0  0  0  0  0  0  0  0  0
   -5.5880   -0.0700  -22.6490 H   0  0  0  0  0  0  0  0  0  0  0  0
   -3.6430    1.3560  -23.0300 H   0  0  0  0  0  0  0  0  0  0  0  0
   -2.3590    2.2980  -21.1040 H   0  0  0  0  0  0  0  0  0  0  0  0
   -3.0720    1.7730  -18.7850 H   0  0  0  0  0  0  0  0  0  0  0  0
   -4.6170    0.6150  -17.2280 H   0  0  0  0  0  0  0  0  0  0  0  0
   -7.7560   -1.6650  -18.5930 H   0  0  0  0  0  0  0  0  0  0  0  0
   -7.0780   -2.6070  -21.9090 C   0  0  0  0  0  0  0  0  0  0  0  0
   -8.3690   -2.9290  -22.6970 C   0  0  2  0  0  0  0  0  0  0  0  0
   -8.0850   -3.6770  -24.0000 C   0  0  0  0  0  0  0  0  0  0  0  0
   -7.4680   -4.9190  -23.7060 O   0  0  0  0  0  0  0  0  0  0  0  0
   -7.3030   -5.7630  -24.8490 C   0  0  0  0  0  0  0  0  0  0  0  0
   -8.4380   -6.7860  -24.9210 C   0  0  0  0  0  0  0  0  0  0  0  0
   -8.4380   -7.4080  -24.0200 H   0  0  0  0  0  0  0  0  0  0  0  0
   -8.3140   -7.4390  -25.7950 H   0  0  0  0  0  0  0  0  0  0  0  0
   -9.4140   -6.2940  -25.0010 H   0  0  0  0  0  0  0  0  0  0  0  0
   -5.9400   -6.4430  -24.7580 C   0  0  0  0  0  0  0  0  0  0  0  0
   -5.8880   -7.0660  -23.8600 H   0  0  0  0  0  0  0  0  0  0  0  0
   -5.7720   -7.0810  -25.6340 H   0  0  0  0  0  0  0  0  0  0  0  0
   -5.1410   -5.6970  -24.7130 H   0  0  0  0  0  0  0  0  0  0  0  0
   -7.3290   -5.1350  -25.7580 H   0  0  0  0  0  0  0  0  0  0  0  0
   -9.0190   -3.8340  -24.5640 H   0  0  0  0  0  0  0  0  0  0  0  0
   -7.4130   -3.0840  -24.6450 H   0  0  0  0  0  0  0  0  0  0  0  0
   -8.9780   -3.5950  -22.0840 H   0  0  0  0  0  0  0  0  0  0  0  0
   -6.8040   -3.3990  -21.2030 H   0  0  0  0  0  0  0  0  0  0  0  0
   -6.2170   -2.4610  -22.5810 H   0  0  0  0  0  0  0  0  0  0  0  0
  -10.6440   -1.6290  -22.6990 C   0  0  0  0  0  0  0  0  0  0  0  0
  -11.2340   -2.5250  -21.8040 C   0  0  0  0  0  0  0  0  0  0  0  0
  -12.6050   -2.5410  -21.6530 C   0  0  0  0  0  0  0  0  0  0  0  0
  -13.1560   -3.3990  -20.7790 F   0  0  0  0  0  0  0  0  0  0  0  0
  -13.4440   -1.6840  -22.3550 C   0  0  0  0  0  0  0  0  0  0  0  0
  -12.8630   -0.7600  -23.2000 C   0  0  0  0  0  0  0  0  0  0  0  0
  -11.4770   -0.7060  -23.3520 C   0  0  0  0  0  0  0  0  0  0  0  0
  -10.9030    0.4200  -24.1600 C   0  0  0  0  0  0  0  0  0  0  0  0
  -11.6020    1.3150  -24.6120 O   0  0  0  0  0  0  0  0  0  0  0  0
  -13.4590   -0.0370  -23.7460 H   0  0  0  0  0  0  0  0  0  0  0  0
  -14.5150   -1.7420  -22.2060 H   0  0  0  0  0  0  0  0  0  0  0  0
  -10.6360   -3.1980  -21.2030 H   0  0  0  0  0  0  0  0  0  0  0  0
   -9.0500   -1.5480  -25.0080 H   0  0  0  0  0  0  0  0  0  0  0  0
   -7.7480   -0.6120  -24.2180 H   0  0  0  0  0  0  0  0  0  0  0  0
   -8.2540    1.2740  -25.7270 H   0  0  0  0  0  0  0  0  0  0  0  0
   -9.6290    2.2460  -25.1390 H   0  0  0  0  0  0  0  0  0  0  0  0
   -9.3520    2.8450  -22.6630 H   0  0  0  0  0  0  0  0  0  0  0  0
   -8.0200    3.8260  -21.0200 H   0  0  0  0  0  0  0  0  0  0  0  0
   -6.8520    2.5050  -21.4230 H   0  0  0  0  0  0  0  0  0  0  0  0
   -6.7470    4.0920  -22.2200 H   0  0  0  0  0  0  0  0  0  0  0  0
  1  2  1  0  0  0  0
  1 64  1  0  0  0  0
  1 65  1  0  0  0  0
  1 66  1  0  0  0  0
  2  3  1  0  0  0  0
  2 63  1  0  0  0  0
  3  4  2  0  0  0  0
  3  5  1  0  0  0  0
  5  6  1  0  0  0  0
  5 61  1  0  0  0  0
  5 62  1  0  0  0  0
  6  7  1  0  0  0  0
  6 54  1  0  0  0  0
  7  8  1  0  0  0  0
  7 59  1  0  0  0  0
  7 60  1  0  0  0  0
  8  9  1  1  0  0  0
  8 29  1  0  0  0  0
  8 47  1  0  0  0  0
  9 10  2  0  0  0  0
  9 11  1  0  0  0  0
 11 12  1  0  0  0  0
 11 28  1  0  0  0  0
 12 13  2  0  0  0  0
 12 21  1  0  0  0  0
 13 14  1  0  0  0  0
 13 27  1  0  0  0  0
 14 15  2  0  0  0  0
 15 16  1  0  0  0  0
 15 26  1  0  0  0  0
 16 17  2  0  0  0  0
 16 21  1  0  0  0  0
 17 18  1  0  0  0  0
 17 25  1  0  0  0  0
 18 19  2  0  0  0  0
 18 24  1  0  0  0  0
 19 20  1  0  0  0  0
 19 23  1  0  0  0  0
 20 21  2  0  0  0  0
 20 22  1  0  0  0  0
 28 29  1  0  0  0  0
 28 45  1  0  0  0  0
 28 46  1  0  0  0  0
 29 30  1  0  0  0  0
 29 44  1  1  0  0  0
 30 31  1  0  0  0  0
 30 42  1  0  0  0  0
 30 43  1  0  0  0  0
 31 32  1  0  0  0  0
 32 33  1  0  0  0  0
 32 37  1  0  0  0  0
 32 41  1  0  0  0  0
 33 34  1  0  0  0  0
 33 35  1  0  0  0  0
 33 36  1  0  0  0  0
 37 38  1  0  0  0  0
 37 39  1  0  0  0  0
 37 40  1  0  0  0  0
 47 48  2  0  0  0  0
 47 53  1  0  0  0  0
 48 49  1  0  0  0  0
 48 58  1  0  0  0  0
 49 50  1  0  0  0  0
 49 51  2  0  0  0  0
 51 52  1  0  0  0  0
 51 57  1  0  0  0  0
 52 53  2  0  0  0  0
 52 56  1  0  0  0  0
 53 54  1  0  0  0  0
 54 55  2  0  0  0  0
M  END
>  <MODEL>
       1

$$$$
