tmp_first_model_16_24.pdb
 OpenBabel08282501503D

 65 70  0  0  1  0  0  0  0  0999 V2000
   -9.2350    2.4140  -25.9030 O   0  0  0  0  0  0  0  0  0  0  0  0
   -9.1930    1.4750  -26.6830 C   0  0  0  0  0  0  0  0  0  0  0  0
   -8.5270    0.1610  -26.2970 C   0  0  0  0  0  0  0  0  0  0  0  0
   -9.1550   -0.3890  -25.0760 N   0  3  1  0  0  0  0  0  0  0  0  0
  -10.6230   -0.6600  -25.2650 C   0  0  0  0  0  0  0  0  0  0  0  0
  -11.2470   -1.3200  -24.0620 C   0  0  0  0  0  0  0  0  0  0  0  0
  -12.6360   -1.3550  -23.9680 C   0  0  0  0  0  0  0  0  0  0  0  0
  -13.2690   -2.0380  -22.9410 C   0  0  0  0  0  0  0  0  0  0  0  0
  -12.4890   -2.6510  -21.9700 C   0  0  0  0  0  0  0  0  0  0  0  0
  -13.2790   -3.4410  -20.6350 Cl  0  0  0  0  0  0  0  0  0  0  0  0
  -11.1060   -2.6140  -22.0360 C   0  0  0  0  0  0  0  0  0  0  0  0
  -10.4640   -1.9510  -23.0900 C   0  0  0  0  0  0  0  0  0  0  0  0
   -8.9370   -1.9510  -23.1970 C   0  0  2  0  0  0  0  0  0  0  0  0
   -8.2850   -3.2380  -22.6720 C   0  0  0  0  0  0  0  0  0  0  0  0
   -7.5090   -2.8680  -21.4010 C   0  0  0  0  0  0  0  0  0  0  0  0
   -7.5330   -1.4140  -21.3400 N   0  0  0  0  0  0  0  0  0  0  0  0
   -6.7400   -0.8110  -20.3200 C   0  0  0  0  0  0  0  0  0  0  0  0
   -6.9950   -1.1950  -19.0230 C   0  0  0  0  0  0  0  0  0  0  0  0
   -6.2450   -0.8740  -17.9450 N   0  0  0  0  0  0  0  0  0  0  0  0
   -5.1750   -0.1490  -18.1560 C   0  0  0  0  0  0  0  0  0  0  0  0
   -4.7760    0.3200  -19.4370 C   0  0  0  0  0  0  0  0  0  0  0  0
   -3.6000    1.1020  -19.5950 C   0  0  0  0  0  0  0  0  0  0  0  0
   -3.2020    1.5030  -20.8340 C   0  0  0  0  0  0  0  0  0  0  0  0
   -3.9400    1.1160  -21.9740 C   0  0  0  0  0  0  0  0  0  0  0  0
   -5.0830    0.3610  -21.8530 C   0  0  0  0  0  0  0  0  0  0  0  0
   -5.5570   -0.0320  -20.5700 C   0  0  0  0  0  0  0  0  0  0  0  0
   -5.6240    0.0550  -22.7430 H   0  0  0  0  0  0  0  0  0  0  0  0
   -3.5900    1.4110  -22.9560 H   0  0  0  0  0  0  0  0  0  0  0  0
   -2.3080    2.1120  -20.9550 H   0  0  0  0  0  0  0  0  0  0  0  0
   -3.0320    1.3570  -18.7030 H   0  0  0  0  0  0  0  0  0  0  0  0
   -4.5460    0.0770  -17.2940 H   0  0  0  0  0  0  0  0  0  0  0  0
   -7.8590   -1.8240  -18.8090 H   0  0  0  0  0  0  0  0  0  0  0  0
   -8.2860   -0.8460  -22.3370 C   0  0  0  0  0  0  0  0  0  0  0  0
   -8.3930    0.3420  -22.5990 O   0  0  0  0  0  0  0  0  0  0  0  0
   -7.9650   -3.2910  -20.5050 H   0  0  0  0  0  0  0  0  0  0  0  0
   -6.4660   -3.2000  -21.4190 H   0  0  0  0  0  0  0  0  0  0  0  0
   -7.6130   -3.6640  -23.4230 H   0  0  0  0  0  0  0  0  0  0  0  0
   -9.0320   -4.0060  -22.4670 H   0  0  0  0  0  0  0  0  0  0  0  0
   -8.5190   -1.6680  -24.6500 C   0  0  0  0  0  0  0  0  0  0  0  0
   -8.8520   -2.4850  -25.3050 H   0  0  0  0  0  0  0  0  0  0  0  0
   -7.4260   -1.5970  -24.7190 H   0  0  0  0  0  0  0  0  0  0  0  0
  -10.5330   -3.1230  -21.2700 H   0  0  0  0  0  0  0  0  0  0  0  0
  -14.3470   -2.1040  -22.8930 H   0  0  0  0  0  0  0  0  0  0  0  0
  -13.2340   -0.8510  -24.7230 H   0  0  0  0  0  0  0  0  0  0  0  0
  -10.7490   -1.3210  -26.1320 H   0  0  0  0  0  0  0  0  0  0  0  0
  -11.1250    0.2790  -25.5020 H   0  0  0  0  0  0  0  0  0  0  0  0
   -9.0320    0.3060  -24.2930 H   0  0  0  0  0  0  0  0  0  0  0  0
   -7.4730    0.3550  -26.0840 H   0  0  0  0  0  0  0  0  0  0  0  0
   -8.5780   -0.5670  -27.1190 H   0  0  0  0  0  0  0  0  0  0  0  0
   -9.7390    1.4960  -27.9310 N   0  0  0  0  0  0  0  0  0  0  0  0
  -10.3950    2.6780  -28.4550 C   0  0  0  0  0  0  0  0  0  0  0  0
   -9.7970    3.1220  -29.7910 C   0  0  1  0  0  0  0  0  0  0  0  0
   -9.7890    2.0660  -30.9300 C   0  0  0  0  0  0  0  0  0  0  0  0
  -10.5430    3.0460  -31.8380 C   0  0  1  0  0  0  0  0  0  0  0  0
  -11.7300    2.5620  -32.3660 F   0  0  0  0  0  0  0  0  0  0  0  0
  -10.7070    4.0220  -30.6650 C   0  0  0  0  0  0  0  0  0  0  0  0
  -10.4020    5.0560  -30.8460 H   0  0  0  0  0  0  0  0  0  0  0  0
  -11.7360    4.0220  -30.3030 H   0  0  0  0  0  0  0  0  0  0  0  0
   -9.9490    3.4300  -32.6710 H   0  0  0  0  0  0  0  0  0  0  0  0
  -10.4070    1.1970  -30.7090 H   0  0  0  0  0  0  0  0  0  0  0  0
   -8.8160    1.7110  -31.2870 H   0  0  0  0  0  0  0  0  0  0  0  0
   -8.8030    3.5490  -29.6360 H   0  0  0  0  0  0  0  0  0  0  0  0
  -10.2830    3.4490  -27.6890 H   0  0  0  0  0  0  0  0  0  0  0  0
  -11.4700    2.4910  -28.5780 H   0  0  0  0  0  0  0  0  0  0  0  0
   -9.9070    0.6200  -28.4020 H   0  0  0  0  0  0  0  0  0  0  0  0
  1  2  2  0  0  0  0
  2  3  1  0  0  0  0
  2 50  1  0  0  0  0
  3  4  1  0  0  0  0
  3 48  1  0  0  0  0
  3 49  1  0  0  0  0
  4  5  1  0  0  0  0
  4 39  1  0  0  0  0
  4 47  1  1  0  0  0
  5  6  1  0  0  0  0
  5 45  1  0  0  0  0
  5 46  1  0  0  0  0
  6  7  2  0  0  0  0
  6 12  1  0  0  0  0
  7  8  1  0  0  0  0
  7 44  1  0  0  0  0
  8  9  2  0  0  0  0
  8 43  1  0  0  0  0
  9 10  1  0  0  0  0
  9 11  1  0  0  0  0
 11 12  2  0  0  0  0
 11 42  1  0  0  0  0
 13 12  1  1  0  0  0
 13 14  1  0  0  0  0
 13 33  1  0  0  0  0
 13 39  1  0  0  0  0
 14 15  1  0  0  0  0
 14 37  1  0  0  0  0
 14 38  1  0  0  0  0
 15 16  1  0  0  0  0
 15 35  1  0  0  0  0
 15 36  1  0  0  0  0
 16 17  1  0  0  0  0
 16 33  1  0  0  0  0
 17 18  2  0  0  0  0
 17 26  1  0  0  0  0
 18 19  1  0  0  0  0
 18 32  1  0  0  0  0
 19 20  2  0  0  0  0
 20 21  1  0  0  0  0
 20 31  1  0  0  0  0
 21 22  2  0  0  0  0
 21 26  1  0  0  0  0
 22 23  1  0  0  0  0
 22 30  1  0  0  0  0
 23 24  2  0  0  0  0
 23 29  1  0  0  0  0
 24 25  1  0  0  0  0
 24 28  1  0  0  0  0
 25 26  2  0  0  0  0
 25 27  1  0  0  0  0
 33 34  2  0  0  0  0
 39 40  1  0  0  0  0
 39 41  1  0  0  0  0
 50 51  1  0  0  0  0
 50 65  1  0  0  0  0
 51 52  1  0  0  0  0
 51 63  1  0  0  0  0
 51 64  1  0  0  0  0
 52 53  1  0  0  0  0
 52 56  1  0  0  0  0
 52 62  1  1  0  0  0
 53 54  1  0  0  0  0
 53 60  1  0  0  0  0
 53 61  1  0  0  0  0
 54 55  1  0  0  0  0
 54 56  1  0  0  0  0
 54 59  1  6  0  0  0
 56 57  1  0  0  0  0
 56 58  1  0  0  0  0
M  CHG  1   4   1
M  END
>  <MODEL>
       1

$$$$
