tmp_first_model_4_60.pdb
 OpenBabel08272518513D

 62 67  0  0  1  0  0  0  0  0999 V2000
  -11.6480    3.1750  -22.7170 C   0  0  0  0  0  0  0  0  0  0  0  0
  -10.8250    1.9290  -22.4110 C   0  0  0  0  0  0  0  0  0  0  0  0
   -9.4880    1.9640  -22.9790 N   0  0  0  0  0  0  0  0  0  0  0  0
   -8.5210    2.5380  -22.2420 N   0  0  0  0  0  0  0  0  0  0  0  0
   -7.4290    2.4970  -22.9920 C   0  0  0  0  0  0  0  0  0  0  0  0
   -7.6950    1.8980  -24.2440 C   0  0  0  0  0  0  0  0  0  0  0  0
   -9.0370    1.5710  -24.2020 C   0  0  0  0  0  0  0  0  0  0  0  0
   -9.8690    0.8110  -25.1970 C   0  0  0  0  0  0  0  0  0  0  0  0
  -10.3380   -0.4470  -24.6260 N   0  0  0  0  0  0  0  0  0  0  0  0
   -9.3440   -1.4580  -24.3030 C   0  0  0  0  0  0  0  0  0  0  0  0
   -9.5500   -2.1130  -22.9130 C   0  0  2  0  0  0  0  0  0  0  0  0
   -8.9100   -1.2650  -21.7640 C   0  0  0  0  0  0  0  0  0  0  0  0
   -9.4540   -0.4370  -21.0660 O   0  0  0  0  0  0  0  0  0  0  0  0
   -7.5900   -1.6470  -21.6350 N   0  0  0  0  0  0  0  0  0  0  0  0
   -6.7710   -1.3160  -20.5350 C   0  0  0  0  0  0  0  0  0  0  0  0
   -7.0570   -1.7550  -19.2660 C   0  0  0  0  0  0  0  0  0  0  0  0
   -6.2160   -1.5890  -18.2180 N   0  0  0  0  0  0  0  0  0  0  0  0
   -5.0660   -0.9950  -18.4250 C   0  0  0  0  0  0  0  0  0  0  0  0
   -4.6370   -0.5320  -19.7010 C   0  0  0  0  0  0  0  0  0  0  0  0
   -3.3730    0.0700  -19.9220 C   0  0  0  0  0  0  0  0  0  0  0  0
   -3.0010    0.4590  -21.1780 C   0  0  0  0  0  0  0  0  0  0  0  0
   -3.8580    0.2560  -22.2800 C   0  0  0  0  0  0  0  0  0  0  0  0
   -5.0840   -0.3270  -22.0930 C   0  0  0  0  0  0  0  0  0  0  0  0
   -5.5040   -0.7170  -20.7960 C   0  0  0  0  0  0  0  0  0  0  0  0
   -5.7450   -0.5030  -22.9340 H   0  0  0  0  0  0  0  0  0  0  0  0
   -3.5350    0.5300  -23.2780 H   0  0  0  0  0  0  0  0  0  0  0  0
   -2.0410    0.9360  -21.3400 H   0  0  0  0  0  0  0  0  0  0  0  0
   -2.7160    0.2180  -19.0720 H   0  0  0  0  0  0  0  0  0  0  0  0
   -4.4110   -0.8530  -17.5610 H   0  0  0  0  0  0  0  0  0  0  0  0
   -7.9890   -2.2770  -19.0470 H   0  0  0  0  0  0  0  0  0  0  0  0
   -7.2580   -2.8240  -22.4070 C   0  0  0  0  0  0  0  0  0  0  0  0
   -8.6430   -3.3780  -22.7570 C   0  0  2  0  0  0  0  0  0  0  0  0
   -8.6120   -4.4000  -23.8820 C   0  0  0  0  0  0  0  0  0  0  0  0
   -9.6140   -4.7620  -24.1350 H   0  0  0  0  0  0  0  0  0  0  0  0
   -8.0010   -5.2620  -23.5910 H   0  0  0  0  0  0  0  0  0  0  0  0
   -8.1620   -3.9840  -24.7910 H   0  0  0  0  0  0  0  0  0  0  0  0
   -8.9880   -3.8650  -21.8390 H   0  0  0  0  0  0  0  0  0  0  0  0
   -6.6610   -2.5930  -23.3060 H   0  0  0  0  0  0  0  0  0  0  0  0
   -6.6700   -3.5180  -21.7980 H   0  0  0  0  0  0  0  0  0  0  0  0
  -11.0370   -2.3300  -22.6870 C   0  0  0  0  0  0  0  0  0  0  0  0
  -11.4700   -3.2120  -21.6870 C   0  0  0  0  0  0  0  0  0  0  0  0
  -12.8020   -3.2640  -21.3380 C   0  0  0  0  0  0  0  0  0  0  0  0
  -13.1690   -4.0830  -20.3370 F   0  0  0  0  0  0  0  0  0  0  0  0
  -13.7770   -2.5050  -21.9680 C   0  0  0  0  0  0  0  0  0  0  0  0
  -13.3770   -1.6800  -23.0040 C   0  0  0  0  0  0  0  0  0  0  0  0
  -12.0310   -1.6130  -23.3780 C   0  0  0  0  0  0  0  0  0  0  0  0
  -11.6790   -0.6820  -24.4940 C   0  0  0  0  0  0  0  0  0  0  0  0
  -12.5350   -0.1040  -25.1610 O   0  0  0  0  0  0  0  0  0  0  0  0
  -14.1020   -1.0750  -23.5370 H   0  0  0  0  0  0  0  0  0  0  0  0
  -14.8050   -2.5950  -21.6370 H   0  0  0  0  0  0  0  0  0  0  0  0
  -10.7850   -3.8700  -21.1660 H   0  0  0  0  0  0  0  0  0  0  0  0
   -9.3690   -2.2430  -25.0690 H   0  0  0  0  0  0  0  0  0  0  0  0
   -8.3590   -0.9880  -24.3540 H   0  0  0  0  0  0  0  0  0  0  0  0
   -9.2500    0.6270  -26.0870 H   0  0  0  0  0  0  0  0  0  0  0  0
  -10.7430    1.3770  -25.5370 H   0  0  0  0  0  0  0  0  0  0  0  0
   -7.0070    1.6800  -25.0510 H   0  0  0  0  0  0  0  0  0  0  0  0
   -6.5120    2.9160  -22.5980 H   0  0  0  0  0  0  0  0  0  0  0  0
  -11.3480    1.0330  -22.7580 H   0  0  0  0  0  0  0  0  0  0  0  0
  -10.6730    1.8020  -21.3390 H   0  0  0  0  0  0  0  0  0  0  0  0
  -12.0110    3.1590  -23.7510 H   0  0  0  0  0  0  0  0  0  0  0  0
  -11.0600    4.0850  -22.5620 H   0  0  0  0  0  0  0  0  0  0  0  0
  -12.5220    3.2220  -22.0580 H   0  0  0  0  0  0  0  0  0  0  0  0
  1  2  1  0  0  0  0
  1 60  1  0  0  0  0
  1 61  1  0  0  0  0
  1 62  1  0  0  0  0
  2  3  1  0  0  0  0
  2 58  1  0  0  0  0
  2 59  1  0  0  0  0
  3  4  1  0  0  0  0
  3  7  1  0  0  0  0
  4  5  2  0  0  0  0
  5  6  1  0  0  0  0
  5 57  1  0  0  0  0
  6  7  2  0  0  0  0
  6 56  1  0  0  0  0
  7  8  1  0  0  0  0
  8  9  1  0  0  0  0
  8 54  1  0  0  0  0
  8 55  1  0  0  0  0
  9 10  1  0  0  0  0
  9 47  1  0  0  0  0
 10 11  1  0  0  0  0
 10 52  1  0  0  0  0
 10 53  1  0  0  0  0
 11 12  1  1  0  0  0
 11 32  1  0  0  0  0
 11 40  1  0  0  0  0
 12 13  2  0  0  0  0
 12 14  1  0  0  0  0
 14 15  1  0  0  0  0
 14 31  1  0  0  0  0
 15 16  2  0  0  0  0
 15 24  1  0  0  0  0
 16 17  1  0  0  0  0
 16 30  1  0  0  0  0
 17 18  2  0  0  0  0
 18 19  1  0  0  0  0
 18 29  1  0  0  0  0
 19 20  2  0  0  0  0
 19 24  1  0  0  0  0
 20 21  1  0  0  0  0
 20 28  1  0  0  0  0
 21 22  2  0  0  0  0
 21 27  1  0  0  0  0
 22 23  1  0  0  0  0
 22 26  1  0  0  0  0
 23 24  2  0  0  0  0
 23 25  1  0  0  0  0
 31 32  1  0  0  0  0
 31 38  1  0  0  0  0
 31 39  1  0  0  0  0
 32 33  1  0  0  0  0
 32 37  1  1  0  0  0
 33 34  1  0  0  0  0
 33 35  1  0  0  0  0
 33 36  1  0  0  0  0
 40 41  2  0  0  0  0
 40 46  1  0  0  0  0
 41 42  1  0  0  0  0
 41 51  1  0  0  0  0
 42 43  1  0  0  0  0
 42 44  2  0  0  0  0
 44 45  1  0  0  0  0
 44 50  1  0  0  0  0
 45 46  2  0  0  0  0
 45 49  1  0  0  0  0
 46 47  1  0  0  0  0
 47 48  2  0  0  0  0
M  END
>  <MODEL>
       1

$$$$
