tmp_first_model_9_25.pdb
 OpenBabel08272521403D

 70 75  0  0  1  0  0  0  0  0999 V2000
   -5.6620   -7.5220  -25.6630 O   0  0  0  0  0  0  0  0  0  0  0  0
   -5.6140   -7.0620  -24.5370 C   0  0  0  0  0  0  0  0  0  0  0  0
   -6.8140   -6.3760  -23.8680 C   0  0  0  0  0  0  0  0  0  0  0  0
   -6.7960   -4.8800  -23.9570 N   0  3  1  0  0  0  0  0  0  0  0  0
   -6.7610   -4.5070  -25.4280 C   0  0  0  0  0  0  0  0  0  0  0  0
   -6.7800   -3.0190  -25.6350 C   0  0  0  0  0  0  0  0  0  0  0  0
   -6.2870   -2.4740  -26.8200 C   0  0  0  0  0  0  0  0  0  0  0  0
   -6.3080   -1.1050  -27.0350 C   0  0  0  0  0  0  0  0  0  0  0  0
   -6.8220   -0.2730  -26.0480 C   0  0  0  0  0  0  0  0  0  0  0  0
   -6.8420    1.4470  -26.2990 Cl  0  0  0  0  0  0  0  0  0  0  0  0
   -7.3100   -0.7990  -24.8630 C   0  0  0  0  0  0  0  0  0  0  0  0
   -7.3020   -2.1800  -24.6560 C   0  0  0  0  0  0  0  0  0  0  0  0
   -7.8150   -2.7110  -23.3340 C   0  0  2  0  0  0  0  0  0  0  0  0
   -6.8220   -2.3830  -22.2240 C   0  0  0  0  0  0  0  0  0  0  0  0
   -5.7320   -2.9340  -22.1950 O   0  0  0  0  0  0  0  0  0  0  0  0
   -7.2750   -1.4710  -21.2930 N   0  0  0  0  0  0  0  0  0  0  0  0
   -6.5340   -0.8780  -20.2400 C   0  0  0  0  0  0  0  0  0  0  0  0
   -6.8980   -1.0710  -18.9260 C   0  0  0  0  0  0  0  0  0  0  0  0
   -6.2200   -0.5690  -17.8650 N   0  0  0  0  0  0  0  0  0  0  0  0
   -5.1820    0.1930  -18.1000 C   0  0  0  0  0  0  0  0  0  0  0  0
   -4.7380    0.5190  -19.4120 C   0  0  0  0  0  0  0  0  0  0  0  0
   -3.6230    1.3690  -19.6300 C   0  0  0  0  0  0  0  0  0  0  0  0
   -3.2430    1.6990  -20.9020 C   0  0  0  0  0  0  0  0  0  0  0  0
   -3.9630    1.2030  -22.0140 C   0  0  0  0  0  0  0  0  0  0  0  0
   -5.0420    0.3720  -21.8310 C   0  0  0  0  0  0  0  0  0  0  0  0
   -5.4390   -0.0060  -20.5170 C   0  0  0  0  0  0  0  0  0  0  0  0
   -5.6010    0.0080  -22.6880 H   0  0  0  0  0  0  0  0  0  0  0  0
   -3.6620    1.4720  -23.0210 H   0  0  0  0  0  0  0  0  0  0  0  0
   -2.3880    2.3480  -21.0720 H   0  0  0  0  0  0  0  0  0  0  0  0
   -3.0950    1.7560  -18.7640 H   0  0  0  0  0  0  0  0  0  0  0  0
   -4.6340    0.5950  -17.2440 H   0  0  0  0  0  0  0  0  0  0  0  0
   -7.7600   -1.6880  -18.6670 H   0  0  0  0  0  0  0  0  0  0  0  0
   -8.2780   -1.3990  -21.2100 H   0  0  0  0  0  0  0  0  0  0  0  0
   -8.0080   -4.2280  -23.3230 C   0  0  0  0  0  0  0  0  0  0  0  0
   -8.9050   -4.5090  -23.8820 H   0  0  0  0  0  0  0  0  0  0  0  0
   -8.1120   -4.5740  -22.2910 H   0  0  0  0  0  0  0  0  0  0  0  0
   -8.7480   -2.2050  -23.0830 H   0  0  0  0  0  0  0  0  0  0  0  0
   -7.6830   -0.1320  -24.0920 H   0  0  0  0  0  0  0  0  0  0  0  0
   -5.9270   -0.6830  -27.9570 H   0  0  0  0  0  0  0  0  0  0  0  0
   -5.8840   -3.1350  -27.5860 H   0  0  0  0  0  0  0  0  0  0  0  0
   -7.6390   -4.9790  -25.8860 H   0  0  0  0  0  0  0  0  0  0  0  0
   -5.8850   -4.9640  -25.8910 H   0  0  0  0  0  0  0  0  0  0  0  0
   -5.9780   -4.4570  -23.4610 H   0  0  0  0  0  0  0  0  0  0  0  0
   -7.6880   -6.7680  -24.4030 H   0  0  0  0  0  0  0  0  0  0  0  0
   -6.8650   -6.7070  -22.8290 H   0  0  0  0  0  0  0  0  0  0  0  0
   -4.4840   -7.1240  -23.7630 N   0  0  0  0  0  0  0  0  0  0  0  0
   -3.2780   -7.7470  -24.1750 C   0  0  0  0  0  0  0  0  0  0  0  0
   -2.0570   -7.1080  -23.9520 C   0  0  0  0  0  0  0  0  0  0  0  0
   -0.8760   -7.7110  -24.3780 C   0  0  0  0  0  0  0  0  0  0  0  0
   -0.9080   -8.9480  -25.0210 C   0  0  0  0  0  0  0  0  0  0  0  0
    0.3070   -9.5500  -25.4680 N   0  0  0  0  0  0  0  0  0  0  0  0
    1.3190   -9.8670  -24.4670 C   0  0  0  0  0  0  0  0  0  0  0  0
    2.6360  -10.2240  -25.1320 C   0  0  0  0  0  0  0  0  0  0  0  0
    2.4050  -11.1780  -26.1400 O   0  0  0  0  0  0  0  0  0  0  0  0
    1.6820  -10.6200  -27.2010 C   0  0  0  0  0  0  0  0  0  0  0  0
    0.3880   -9.9390  -26.7820 C   0  0  0  0  0  0  0  0  0  0  0  0
   -0.4860   -9.7160  -27.6000 O   0  0  0  0  0  0  0  0  0  0  0  0
    2.2770   -9.8670  -27.7400 H   0  0  0  0  0  0  0  0  0  0  0  0
    1.4280  -11.4180  -27.8980 H   0  0  0  0  0  0  0  0  0  0  0  0
    3.1350   -9.3380  -25.5490 H   0  0  0  0  0  0  0  0  0  0  0  0
    3.3210  -10.6810  -24.4130 H   0  0  0  0  0  0  0  0  0  0  0  0
    1.4580   -9.0150  -23.7960 H   0  0  0  0  0  0  0  0  0  0  0  0
    0.9730  -10.7150  -23.8660 H   0  0  0  0  0  0  0  0  0  0  0  0
   -2.1290   -9.5980  -25.2070 C   0  0  0  0  0  0  0  0  0  0  0  0
   -3.3080   -8.9980  -24.7890 C   0  0  0  0  0  0  0  0  0  0  0  0
   -4.2640   -9.4790  -24.9620 H   0  0  0  0  0  0  0  0  0  0  0  0
   -2.1650  -10.5630  -25.7070 H   0  0  0  0  0  0  0  0  0  0  0  0
    0.0730   -7.1980  -24.2450 H   0  0  0  0  0  0  0  0  0  0  0  0
   -2.0290   -6.1350  -23.4680 H   0  0  0  0  0  0  0  0  0  0  0  0
   -4.4600   -6.5480  -22.9380 H   0  0  0  0  0  0  0  0  0  0  0  0
  1  2  2  0  0  0  0
  2  3  1  0  0  0  0
  2 46  1  0  0  0  0
  3  4  1  0  0  0  0
  3 44  1  0  0  0  0
  3 45  1  0  0  0  0
  4  5  1  0  0  0  0
  4 34  1  0  0  0  0
  4 43  1  1  0  0  0
  5  6  1  0  0  0  0
  5 41  1  0  0  0  0
  5 42  1  0  0  0  0
  6  7  2  0  0  0  0
  6 12  1  0  0  0  0
  7  8  1  0  0  0  0
  7 40  1  0  0  0  0
  8  9  2  0  0  0  0
  8 39  1  0  0  0  0
  9 10  1  0  0  0  0
  9 11  1  0  0  0  0
 11 12  2  0  0  0  0
 11 38  1  0  0  0  0
 12 13  1  0  0  0  0
 13 14  1  0  0  0  0
 13 34  1  0  0  0  0
 13 37  1  1  0  0  0
 14 15  2  0  0  0  0
 14 16  1  0  0  0  0
 16 17  1  0  0  0  0
 16 33  1  0  0  0  0
 17 18  2  0  0  0  0
 17 26  1  0  0  0  0
 18 19  1  0  0  0  0
 18 32  1  0  0  0  0
 19 20  2  0  0  0  0
 20 21  1  0  0  0  0
 20 31  1  0  0  0  0
 21 22  2  0  0  0  0
 21 26  1  0  0  0  0
 22 23  1  0  0  0  0
 22 30  1  0  0  0  0
 23 24  2  0  0  0  0
 23 29  1  0  0  0  0
 24 25  1  0  0  0  0
 24 28  1  0  0  0  0
 25 26  2  0  0  0  0
 25 27  1  0  0  0  0
 34 35  1  0  0  0  0
 34 36  1  0  0  0  0
 46 47  1  0  0  0  0
 46 70  1  0  0  0  0
 47 48  2  0  0  0  0
 47 65  1  0  0  0  0
 48 49  1  0  0  0  0
 48 69  1  0  0  0  0
 49 50  2  0  0  0  0
 49 68  1  0  0  0  0
 50 51  1  0  0  0  0
 50 64  1  0  0  0  0
 51 52  1  0  0  0  0
 51 56  1  0  0  0  0
 52 53  1  0  0  0  0
 52 62  1  0  0  0  0
 52 63  1  0  0  0  0
 53 54  1  0  0  0  0
 53 60  1  0  0  0  0
 53 61  1  0  0  0  0
 54 55  1  0  0  0  0
 55 56  1  0  0  0  0
 55 58  1  0  0  0  0
 55 59  1  0  0  0  0
 56 57  2  0  0  0  0
 64 65  2  0  0  0  0
 64 67  1  0  0  0  0
 65 66  1  0  0  0  0
M  CHG  1   4   1
M  END
>  <MODEL>
       1

$$$$
