tmp_first_model_3_10.pdb
 OpenBabel08272518143D

 57 62  0  0  1  0  0  0  0  0999 V2000
   -9.9460   -0.9290  -23.5280 C   0  0  0  0  0  0  0  0  0  0  0  0
   -8.5790   -1.2560  -22.9370 C   0  0  1  0  0  0  0  0  0  0  0  0
   -8.1430   -0.3290  -21.7950 C   0  0  0  0  0  0  0  0  0  0  0  0
   -7.1820   -1.1390  -21.0570 N   0  0  0  0  0  0  0  0  0  0  0  0
   -6.3850   -0.6510  -19.9990 C   0  0  0  0  0  0  0  0  0  0  0  0
   -6.6690   -0.9390  -18.6910 C   0  0  0  0  0  0  0  0  0  0  0  0
   -6.0210   -0.3800  -17.6360 N   0  0  0  0  0  0  0  0  0  0  0  0
   -5.0300    0.4450  -17.8920 C   0  0  0  0  0  0  0  0  0  0  0  0
   -4.5750    0.7590  -19.2090 C   0  0  0  0  0  0  0  0  0  0  0  0
   -3.4470    1.5850  -19.4810 C   0  0  0  0  0  0  0  0  0  0  0  0
   -3.0480    1.8070  -20.7730 C   0  0  0  0  0  0  0  0  0  0  0  0
   -3.7400    1.2220  -21.8570 C   0  0  0  0  0  0  0  0  0  0  0  0
   -4.8300    0.4270  -21.6220 C   0  0  0  0  0  0  0  0  0  0  0  0
   -5.2740    0.1910  -20.2960 C   0  0  0  0  0  0  0  0  0  0  0  0
   -5.3510   -0.0500  -22.4440 H   0  0  0  0  0  0  0  0  0  0  0  0
   -3.4130    1.3990  -22.8780 H   0  0  0  0  0  0  0  0  0  0  0  0
   -2.1910    2.4430  -20.9830 H   0  0  0  0  0  0  0  0  0  0  0  0
   -2.9070    2.0410  -18.6540 H   0  0  0  0  0  0  0  0  0  0  0  0
   -4.5260    0.8910  -17.0310 H   0  0  0  0  0  0  0  0  0  0  0  0
   -7.4600   -1.6460  -18.4460 H   0  0  0  0  0  0  0  0  0  0  0  0
   -7.3160   -2.4880  -21.2940 C   0  0  0  0  0  0  0  0  0  0  0  0
   -6.6580   -3.3600  -20.7580 O   0  0  0  0  0  0  0  0  0  0  0  0
   -8.4320   -2.6890  -22.3220 C   0  0  1  0  0  0  0  0  0  0  0  0
   -9.6770   -3.1360  -21.5110 C   0  0  0  0  0  0  0  0  0  0  0  0
  -10.7450   -3.6510  -22.3580 N   0  0  0  0  0  0  0  0  0  0  0  0
  -12.1290   -3.5410  -21.9060 C   0  0  0  0  0  0  0  0  0  0  0  0
  -12.9870   -2.4640  -22.5080 C   0  0  0  0  0  0  0  0  0  0  0  0
  -13.8210   -1.6270  -21.8490 C   0  0  0  0  0  0  0  0  0  0  0  0
  -14.5950   -0.9770  -22.7870 N   0  3  0  0  0  0  0  0  0  0  0  0
  -14.2400   -1.4080  -24.0000 C   0  0  0  0  0  0  0  0  0  0  0  0
  -13.2470   -2.2980  -23.8540 N   0  0  0  0  0  0  0  0  0  0  0  0
  -12.7860   -2.8210  -24.5870 H   0  0  0  0  0  0  0  0  0  0  0  0
  -14.6730   -1.1080  -24.9380 H   0  0  0  0  0  0  0  0  0  0  0  0
  -15.3780   -0.3720  -22.5800 H   0  0  0  0  0  0  0  0  0  0  0  0
  -14.0040   -1.5080  -20.7940 H   0  0  0  0  0  0  0  0  0  0  0  0
  -12.5890   -4.5150  -22.0870 H   0  0  0  0  0  0  0  0  0  0  0  0
  -12.1680   -3.3420  -20.8370 H   0  0  0  0  0  0  0  0  0  0  0  0
  -10.4410   -4.5990  -23.2990 C   0  0  0  0  0  0  0  0  0  0  0  0
  -11.2570   -5.3670  -23.7700 O   0  0  0  0  0  0  0  0  0  0  0  0
   -9.0370   -4.6550  -23.7900 C   0  0  0  0  0  0  0  0  0  0  0  0
   -8.7400   -5.6230  -24.7510 C   0  0  0  0  0  0  0  0  0  0  0  0
   -7.4790   -5.6940  -25.3050 C   0  0  0  0  0  0  0  0  0  0  0  0
   -6.5190   -4.8070  -24.8320 C   0  0  0  0  0  0  0  0  0  0  0  0
   -5.2870   -4.8690  -25.3610 F   0  0  0  0  0  0  0  0  0  0  0  0
   -6.7790   -3.8750  -23.8440 C   0  0  0  0  0  0  0  0  0  0  0  0
   -8.0750   -3.7630  -23.3270 C   0  0  0  0  0  0  0  0  0  0  0  0
   -5.9670   -3.2840  -23.4410 H   0  0  0  0  0  0  0  0  0  0  0  0
   -7.2310   -6.4230  -26.0700 H   0  0  0  0  0  0  0  0  0  0  0  0
   -9.5350   -6.3070  -25.0310 H   0  0  0  0  0  0  0  0  0  0  0  0
   -9.3400   -3.8950  -20.7870 H   0  0  0  0  0  0  0  0  0  0  0  0
  -10.0990   -2.3010  -20.9440 H   0  0  0  0  0  0  0  0  0  0  0  0
   -7.6930    0.6090  -22.1340 H   0  0  0  0  0  0  0  0  0  0  0  0
   -9.0010   -0.0670  -21.1580 H   0  0  0  0  0  0  0  0  0  0  0  0
   -7.8320   -1.1900  -23.7380 H   0  0  0  0  0  0  0  0  0  0  0  0
  -10.7260   -0.9890  -22.7610 H   0  0  0  0  0  0  0  0  0  0  0  0
  -10.1950   -1.6400  -24.3220 H   0  0  0  0  0  0  0  0  0  0  0  0
   -9.9620    0.0780  -23.9570 H   0  0  0  0  0  0  0  0  0  0  0  0
  1  2  1  0  0  0  0
  1 55  1  0  0  0  0
  1 56  1  0  0  0  0
  1 57  1  0  0  0  0
  2  3  1  0  0  0  0
  2 23  1  0  0  0  0
  2 54  1  6  0  0  0
  3  4  1  0  0  0  0
  3 52  1  0  0  0  0
  3 53  1  0  0  0  0
  4  5  1  0  0  0  0
  4 21  1  0  0  0  0
  5  6  2  0  0  0  0
  5 14  1  0  0  0  0
  6  7  1  0  0  0  0
  6 20  1  0  0  0  0
  7  8  2  0  0  0  0
  8  9  1  0  0  0  0
  8 19  1  0  0  0  0
  9 10  2  0  0  0  0
  9 14  1  0  0  0  0
 10 11  1  0  0  0  0
 10 18  1  0  0  0  0
 11 12  2  0  0  0  0
 11 17  1  0  0  0  0
 12 13  1  0  0  0  0
 12 16  1  0  0  0  0
 13 14  2  0  0  0  0
 13 15  1  0  0  0  0
 21 22  2  0  0  0  0
 23 21  1  1  0  0  0
 23 24  1  0  0  0  0
 23 46  1  0  0  0  0
 24 25  1  0  0  0  0
 24 50  1  0  0  0  0
 24 51  1  0  0  0  0
 25 26  1  0  0  0  0
 25 38  1  0  0  0  0
 26 27  1  0  0  0  0
 26 36  1  0  0  0  0
 26 37  1  0  0  0  0
 27 28  2  0  0  0  0
 27 31  1  0  0  0  0
 28 29  1  0  0  0  0
 28 35  1  0  0  0  0
 29 30  2  0  0  0  0
 29 34  1  0  0  0  0
 30 31  1  0  0  0  0
 30 33  1  0  0  0  0
 31 32  1  0  0  0  0
 38 39  2  0  0  0  0
 38 40  1  0  0  0  0
 40 41  2  0  0  0  0
 40 46  1  0  0  0  0
 41 42  1  0  0  0  0
 41 49  1  0  0  0  0
 42 43  2  0  0  0  0
 42 48  1  0  0  0  0
 43 44  1  0  0  0  0
 43 45  1  0  0  0  0
 45 46  2  0  0  0  0
 45 47  1  0  0  0  0
M  CHG  1  29   1
M  END
>  <MODEL>
       1

$$$$
