tmp_first_model_8_51.pdb
 OpenBabel08272521063D

 50 52  0  0  0  0  0  0  0  0999 V2000
  -11.3760   -0.4230  -25.0870 C   0  0  0  0  0  0  0  0  0  0  0  0
  -10.7510   -0.0610  -23.9780 C   0  0  0  0  0  0  0  0  0  0  0  0
  -10.6930   -0.9740  -22.7660 C   0  0  0  0  0  0  0  0  0  0  0  0
   -9.3430   -1.4790  -22.5200 N   0  0  0  0  0  0  0  0  0  0  0  0
   -8.6430   -0.8650  -21.4910 C   0  0  0  0  0  0  0  0  0  0  0  0
   -9.1380    0.0170  -20.7900 O   0  0  0  0  0  0  0  0  0  0  0  0
   -7.3870   -1.3480  -21.2510 N   0  0  0  0  0  0  0  0  0  0  0  0
   -6.6050   -0.8190  -20.1980 C   0  0  0  0  0  0  0  0  0  0  0  0
   -6.9290   -1.0590  -18.8860 C   0  0  0  0  0  0  0  0  0  0  0  0
   -6.2270   -0.5780  -17.8340 N   0  0  0  0  0  0  0  0  0  0  0  0
   -5.1960    0.1920  -18.0930 C   0  0  0  0  0  0  0  0  0  0  0  0
   -4.7590    0.5280  -19.4050 C   0  0  0  0  0  0  0  0  0  0  0  0
   -3.6420    1.3730  -19.6410 C   0  0  0  0  0  0  0  0  0  0  0  0
   -3.2700    1.6870  -20.9210 C   0  0  0  0  0  0  0  0  0  0  0  0
   -4.0010    1.1850  -22.0200 C   0  0  0  0  0  0  0  0  0  0  0  0
   -5.0810    0.3560  -21.8180 C   0  0  0  0  0  0  0  0  0  0  0  0
   -5.4800    0.0010  -20.5010 C   0  0  0  0  0  0  0  0  0  0  0  0
   -5.6300   -0.0300  -22.6740 H   0  0  0  0  0  0  0  0  0  0  0  0
   -3.6840    1.4280  -23.0310 H   0  0  0  0  0  0  0  0  0  0  0  0
   -2.4070    2.3220  -21.1030 H   0  0  0  0  0  0  0  0  0  0  0  0
   -3.1000    1.7640  -18.7830 H   0  0  0  0  0  0  0  0  0  0  0  0
   -4.6430    0.5920  -17.2420 H   0  0  0  0  0  0  0  0  0  0  0  0
   -7.7920   -1.6740  -18.6430 H   0  0  0  0  0  0  0  0  0  0  0  0
   -6.9500   -1.9270  -21.9520 H   0  0  0  0  0  0  0  0  0  0  0  0
   -8.7490   -2.2240  -23.5920 C   0  0  0  0  0  0  0  0  0  0  0  0
   -9.1880   -3.5190  -23.8640 C   0  0  0  0  0  0  0  0  0  0  0  0
   -8.5890   -4.2520  -24.8830 C   0  0  0  0  0  0  0  0  0  0  0  0
   -7.5930   -3.6900  -25.6750 C   0  0  0  0  0  0  0  0  0  0  0  0
   -7.2150   -2.3770  -25.4330 C   0  0  0  0  0  0  0  0  0  0  0  0
   -5.9750   -1.6570  -26.4160 Cl  0  0  0  0  0  0  0  0  0  0  0  0
   -7.7870   -1.6310  -24.4110 C   0  0  0  0  0  0  0  0  0  0  0  0
   -7.4950   -0.5940  -24.2590 H   0  0  0  0  0  0  0  0  0  0  0  0
   -7.1110   -4.2550  -26.4660 H   0  0  0  0  0  0  0  0  0  0  0  0
   -8.9020   -5.2750  -25.0630 H   0  0  0  0  0  0  0  0  0  0  0  0
   -9.9870   -3.9510  -23.2620 H   0  0  0  0  0  0  0  0  0  0  0  0
  -11.3720   -1.8170  -22.9430 H   0  0  0  0  0  0  0  0  0  0  0  0
  -10.9960   -0.4880  -21.8450 H   0  0  0  0  0  0  0  0  0  0  0  0
   -9.8670    1.1610  -24.1000 C   0  0  0  0  0  0  0  0  0  0  0  0
   -9.5870    1.6210  -25.2030 O   0  0  0  0  0  0  0  0  0  0  0  0
   -9.3730    1.7320  -22.9790 N   0  0  0  0  0  0  0  0  0  0  0  0
   -8.1590    2.5150  -23.1100 C   0  0  0  0  0  0  0  0  0  0  0  0
   -7.5460    2.8040  -21.7590 C   0  0  0  0  0  0  0  0  0  0  0  0
   -7.5520    1.8820  -21.1720 H   0  0  0  0  0  0  0  0  0  0  0  0
   -6.5050    3.1310  -21.8430 H   0  0  0  0  0  0  0  0  0  0  0  0
   -8.0810    3.5710  -21.1990 H   0  0  0  0  0  0  0  0  0  0  0  0
   -7.4350    1.9300  -23.6900 H   0  0  0  0  0  0  0  0  0  0  0  0
   -8.3850    3.4040  -23.7040 H   0  0  0  0  0  0  0  0  0  0  0  0
   -9.6110    1.3880  -22.0570 H   0  0  0  0  0  0  0  0  0  0  0  0
  -11.1370    0.0960  -26.0110 H   0  0  0  0  0  0  0  0  0  0  0  0
  -12.1120   -1.2250  -25.1040 H   0  0  0  0  0  0  0  0  0  0  0  0
  1  2  2  0  0  0  0
  1 49  1  0  0  0  0
  1 50  1  0  0  0  0
  2  3  1  0  0  0  0
  2 38  1  0  0  0  0
  3  4  1  0  0  0  0
  3 36  1  0  0  0  0
  3 37  1  0  0  0  0
  4  5  1  0  0  0  0
  4 25  1  0  0  0  0
  5  6  2  0  0  0  0
  5  7  1  0  0  0  0
  7  8  1  0  0  0  0
  7 24  1  0  0  0  0
  8  9  2  0  0  0  0
  8 17  1  0  0  0  0
  9 10  1  0  0  0  0
  9 23  1  0  0  0  0
 10 11  2  0  0  0  0
 11 12  1  0  0  0  0
 11 22  1  0  0  0  0
 12 13  2  0  0  0  0
 12 17  1  0  0  0  0
 13 14  1  0  0  0  0
 13 21  1  0  0  0  0
 14 15  2  0  0  0  0
 14 20  1  0  0  0  0
 15 16  1  0  0  0  0
 15 19  1  0  0  0  0
 16 17  2  0  0  0  0
 16 18  1  0  0  0  0
 25 26  2  0  0  0  0
 25 31  1  0  0  0  0
 26 27  1  0  0  0  0
 26 35  1  0  0  0  0
 27 28  2  0  0  0  0
 27 34  1  0  0  0  0
 28 29  1  0  0  0  0
 28 33  1  0  0  0  0
 29 30  1  0  0  0  0
 29 31  2  0  0  0  0
 31 32  1  0  0  0  0
 38 39  2  0  0  0  0
 38 40  1  0  0  0  0
 40 41  1  0  0  0  0
 40 48  1  0  0  0  0
 41 42  1  0  0  0  0
 41 46  1  0  0  0  0
 41 47  1  0  0  0  0
 42 43  1  0  0  0  0
 42 44  1  0  0  0  0
 42 45  1  0  0  0  0
M  END
>  <MODEL>
       1

$$$$
