tmp_first_model_3_11.pdb
 OpenBabel08272518143D

 48 52  0  0  0  0  0  0  0  0999 V2000
  -10.4790   -2.5800  -22.3280 C   0  0  0  0  0  0  0  0  0  0  0  0
   -9.0730   -2.3090  -22.0900 N   0  0  0  0  0  0  0  0  0  0  0  0
   -8.6720   -1.2000  -21.3900 C   0  0  0  0  0  0  0  0  0  0  0  0
   -9.3490   -0.2860  -20.9760 O   0  0  0  0  0  0  0  0  0  0  0  0
   -7.2790   -1.3060  -21.2450 N   0  0  0  0  0  0  0  0  0  0  0  0
   -6.5810   -0.6800  -20.1840 C   0  0  0  0  0  0  0  0  0  0  0  0
   -6.9510   -0.9160  -18.8850 C   0  0  0  0  0  0  0  0  0  0  0  0
   -6.2760   -0.4430  -17.8110 N   0  0  0  0  0  0  0  0  0  0  0  0
   -5.2110    0.2880  -18.0470 C   0  0  0  0  0  0  0  0  0  0  0  0
   -4.7330    0.6100  -19.3500 C   0  0  0  0  0  0  0  0  0  0  0  0
   -3.5790    1.4080  -19.5590 C   0  0  0  0  0  0  0  0  0  0  0  0
   -3.1700    1.7040  -20.8310 C   0  0  0  0  0  0  0  0  0  0  0  0
   -3.8800    1.2160  -21.9510 C   0  0  0  0  0  0  0  0  0  0  0  0
   -4.9930    0.4350  -21.7790 C   0  0  0  0  0  0  0  0  0  0  0  0
   -5.4400    0.1180  -20.4650 C   0  0  0  0  0  0  0  0  0  0  0  0
   -5.5400    0.0480  -22.6350 H   0  0  0  0  0  0  0  0  0  0  0  0
   -3.5450    1.4680  -22.9530 H   0  0  0  0  0  0  0  0  0  0  0  0
   -2.3040    2.3390  -20.9870 H   0  0  0  0  0  0  0  0  0  0  0  0
   -3.0520    1.7920  -18.6910 H   0  0  0  0  0  0  0  0  0  0  0  0
   -4.6710    0.6580  -17.1750 H   0  0  0  0  0  0  0  0  0  0  0  0
   -7.8200   -1.5350  -18.6680 H   0  0  0  0  0  0  0  0  0  0  0  0
   -6.7760   -2.4540  -21.8510 C   0  0  0  0  0  0  0  0  0  0  0  0
   -5.6280   -2.8220  -21.8060 O   0  0  0  0  0  0  0  0  0  0  0  0
   -7.9570   -3.1330  -22.5120 C   0  0  0  0  0  0  0  0  0  0  0  0
   -7.9720   -4.6600  -22.2980 C   0  0  0  0  0  0  0  0  0  0  0  0
   -7.7760   -4.8670  -23.7690 N   0  0  0  0  0  0  0  0  0  0  0  0
   -8.9940   -5.7580  -24.5410 S   0  0  0  0  0  0  0  0  0  0  0  0
   -8.7900   -7.1480  -24.1870 O   0  0  0  0  0  0  0  0  0  0  0  0
  -10.2610   -5.0860  -24.2870 O   0  0  0  0  0  0  0  0  0  0  0  0
   -8.6720   -5.5520  -26.2740 C   0  0  0  0  0  0  0  0  0  0  0  0
   -9.1450   -4.4090  -26.9140 C   0  0  0  0  0  0  0  0  0  0  0  0
   -8.9720   -4.2880  -28.2860 C   0  0  0  0  0  0  0  0  0  0  0  0
   -8.3800   -5.3150  -29.0110 C   0  0  0  0  0  0  0  0  0  0  0  0
   -7.9080   -6.4470  -28.3580 C   0  0  0  0  0  0  0  0  0  0  0  0
   -8.0330   -6.5680  -26.9750 C   0  0  0  0  0  0  0  0  0  0  0  0
   -7.6560   -7.4370  -26.4430 H   0  0  0  0  0  0  0  0  0  0  0  0
   -7.4460   -7.2440  -28.9270 H   0  0  0  0  0  0  0  0  0  0  0  0
   -8.3020   -5.2280  -30.0900 H   0  0  0  0  0  0  0  0  0  0  0  0
   -9.3070   -3.3960  -28.7990 H   0  0  0  0  0  0  0  0  0  0  0  0
   -9.6780   -3.6440  -26.3510 H   0  0  0  0  0  0  0  0  0  0  0  0
   -7.7740   -3.4070  -24.0150 C   0  0  0  0  0  0  0  0  0  0  0  0
   -8.5950   -3.0300  -24.6290 H   0  0  0  0  0  0  0  0  0  0  0  0
   -6.8180   -3.0740  -24.4200 H   0  0  0  0  0  0  0  0  0  0  0  0
   -8.8860   -5.0820  -21.8720 H   0  0  0  0  0  0  0  0  0  0  0  0
   -7.0850   -4.9900  -21.7560 H   0  0  0  0  0  0  0  0  0  0  0  0
  -10.7610   -3.5740  -21.9660 H   0  0  0  0  0  0  0  0  0  0  0  0
  -10.7280   -2.4860  -23.3910 H   0  0  0  0  0  0  0  0  0  0  0  0
  -11.0450   -1.8310  -21.7700 H   0  0  0  0  0  0  0  0  0  0  0  0
  1  2  1  0  0  0  0
  1 46  1  0  0  0  0
  1 47  1  0  0  0  0
  1 48  1  0  0  0  0
  2  3  1  0  0  0  0
  2 24  1  0  0  0  0
  3  4  2  0  0  0  0
  3  5  1  0  0  0  0
  5  6  1  0  0  0  0
  5 22  1  0  0  0  0
  6  7  2  0  0  0  0
  6 15  1  0  0  0  0
  7  8  1  0  0  0  0
  7 21  1  0  0  0  0
  8  9  2  0  0  0  0
  9 10  1  0  0  0  0
  9 20  1  0  0  0  0
 10 11  2  0  0  0  0
 10 15  1  0  0  0  0
 11 12  1  0  0  0  0
 11 19  1  0  0  0  0
 12 13  2  0  0  0  0
 12 18  1  0  0  0  0
 13 14  1  0  0  0  0
 13 17  1  0  0  0  0
 14 15  2  0  0  0  0
 14 16  1  0  0  0  0
 22 23  2  0  0  0  0
 22 24  1  0  0  0  0
 24 25  1  0  0  0  0
 24 41  1  0  0  0  0
 25 26  1  0  0  0  0
 25 44  1  0  0  0  0
 25 45  1  0  0  0  0
 26 27  1  0  0  0  0
 26 41  1  0  0  0  0
 27 28  2  0  0  0  0
 27 29  2  0  0  0  0
 27 30  1  0  0  0  0
 30 31  2  0  0  0  0
 30 35  1  0  0  0  0
 31 32  1  0  0  0  0
 31 40  1  0  0  0  0
 32 33  2  0  0  0  0
 32 39  1  0  0  0  0
 33 34  1  0  0  0  0
 33 38  1  0  0  0  0
 34 35  2  0  0  0  0
 34 37  1  0  0  0  0
 35 36  1  0  0  0  0
 41 42  1  0  0  0  0
 41 43  1  0  0  0  0
M  END
>  <MODEL>
       1

$$$$
