tmp_first_model_16_82.pdb
 OpenBabel08282501503D

 54 57  0  0  1  0  0  0  0  0999 V2000
  -10.6890    0.3800  -25.3750 C   0  0  0  0  0  0  0  0  0  0  0  0
   -9.8050   -0.6090  -24.9080 O   0  0  0  0  0  0  0  0  0  0  0  0
   -8.4830   -0.5180  -25.2110 C   0  0  0  0  0  0  0  0  0  0  0  0
   -7.9480    0.5110  -25.9850 C   0  0  0  0  0  0  0  0  0  0  0  0
   -6.5800    0.5380  -26.2420 C   0  0  0  0  0  0  0  0  0  0  0  0
   -5.7610   -0.4550  -25.7250 C   0  0  0  0  0  0  0  0  0  0  0  0
   -6.3120   -1.4730  -24.9450 C   0  0  0  0  0  0  0  0  0  0  0  0
   -7.6720   -1.5420  -24.6790 C   0  0  0  0  0  0  0  0  0  0  0  0
   -8.3080   -2.6610  -23.8380 C   0  0  1  0  0  0  0  0  0  0  0  0
   -9.1480   -3.6450  -24.6860 C   0  0  0  0  0  0  0  0  0  0  0  0
   -8.4070   -4.8560  -25.2710 C   0  0  1  0  0  0  0  0  0  0  0  0
   -7.5040   -4.5310  -26.4670 C   0  0  0  0  0  0  0  0  0  0  0  0
   -6.6800   -3.8630  -26.1910 H   0  0  0  0  0  0  0  0  0  0  0  0
   -7.0700   -5.4480  -26.8870 H   0  0  0  0  0  0  0  0  0  0  0  0
   -8.0760   -4.0360  -27.2610 H   0  0  0  0  0  0  0  0  0  0  0  0
   -7.6740   -5.5520  -24.1200 C   0  0  0  0  0  0  0  0  0  0  0  0
   -6.7150   -4.6070  -23.4060 C   0  0  0  0  0  0  0  0  0  0  0  0
   -7.3610   -3.3670  -22.9670 N   0  0  0  0  0  0  0  0  0  0  0  0
   -6.7510   -2.7510  -21.8970 C   0  0  0  0  0  0  0  0  0  0  0  0
   -5.7350   -3.2160  -21.4030 O   0  0  0  0  0  0  0  0  0  0  0  0
   -7.4070   -1.4820  -21.3100 C   0  0  0  0  0  0  0  0  0  0  0  0
   -6.5940   -0.8510  -20.2140 C   0  0  0  0  0  0  0  0  0  0  0  0
   -6.9050   -1.0910  -18.9040 C   0  0  0  0  0  0  0  0  0  0  0  0
   -6.1770   -0.6790  -17.8340 N   0  0  0  0  0  0  0  0  0  0  0  0
   -5.1040    0.0370  -18.0780 C   0  0  0  0  0  0  0  0  0  0  0  0
   -4.7060    0.4520  -19.3830 C   0  0  0  0  0  0  0  0  0  0  0  0
   -3.6020    1.3190  -19.6150 C   0  0  0  0  0  0  0  0  0  0  0  0
   -3.2130    1.6230  -20.8920 C   0  0  0  0  0  0  0  0  0  0  0  0
   -3.9170    1.0890  -21.9950 C   0  0  0  0  0  0  0  0  0  0  0  0
   -5.0110    0.2840  -21.8010 C   0  0  0  0  0  0  0  0  0  0  0  0
   -5.4490   -0.0400  -20.4860 C   0  0  0  0  0  0  0  0  0  0  0  0
   -5.5460   -0.1200  -22.6560 H   0  0  0  0  0  0  0  0  0  0  0  0
   -3.5830    1.3210  -23.0040 H   0  0  0  0  0  0  0  0  0  0  0  0
   -2.3520    2.2580  -21.0710 H   0  0  0  0  0  0  0  0  0  0  0  0
   -3.0840    1.7420  -18.7570 H   0  0  0  0  0  0  0  0  0  0  0  0
   -4.4940    0.3080  -17.2110 H   0  0  0  0  0  0  0  0  0  0  0  0
   -7.7830   -1.6820  -18.6350 H   0  0  0  0  0  0  0  0  0  0  0  0
   -7.6210   -0.7630  -22.1080 H   0  0  0  0  0  0  0  0  0  0  0  0
   -8.3760   -1.7850  -20.8890 H   0  0  0  0  0  0  0  0  0  0  0  0
   -6.3210   -5.0720  -22.5020 H   0  0  0  0  0  0  0  0  0  0  0  0
   -5.8450   -4.3950  -24.0470 H   0  0  0  0  0  0  0  0  0  0  0  0
   -8.4150   -5.9220  -23.3960 H   0  0  0  0  0  0  0  0  0  0  0  0
   -7.1070   -6.4180  -24.4950 H   0  0  0  0  0  0  0  0  0  0  0  0
   -9.1810   -5.5490  -25.6320 H   0  0  0  0  0  0  0  0  0  0  0  0
   -9.6210   -3.0680  -25.4860 H   0  0  0  0  0  0  0  0  0  0  0  0
   -9.9450   -4.0280  -24.0340 H   0  0  0  0  0  0  0  0  0  0  0  0
   -9.0310   -2.1640  -23.1800 H   0  0  0  0  0  0  0  0  0  0  0  0
   -5.6670   -2.2570  -24.5490 H   0  0  0  0  0  0  0  0  0  0  0  0
   -4.6950   -0.4580  -25.9230 H   0  0  0  0  0  0  0  0  0  0  0  0
   -6.1600    1.3420  -26.8430 H   0  0  0  0  0  0  0  0  0  0  0  0
   -8.5920    1.2870  -26.3810 H   0  0  0  0  0  0  0  0  0  0  0  0
  -11.6590    0.0700  -24.9770 H   0  0  0  0  0  0  0  0  0  0  0  0
  -10.7110    0.4180  -26.4750 H   0  0  0  0  0  0  0  0  0  0  0  0
  -10.4340    1.3820  -24.9960 H   0  0  0  0  0  0  0  0  0  0  0  0
  1  2  1  0  0  0  0
  1 52  1  0  0  0  0
  1 53  1  0  0  0  0
  1 54  1  0  0  0  0
  2  3  1  0  0  0  0
  3  4  2  0  0  0  0
  3  8  1  0  0  0  0
  4  5  1  0  0  0  0
  4 51  1  0  0  0  0
  5  6  2  0  0  0  0
  5 50  1  0  0  0  0
  6  7  1  0  0  0  0
  6 49  1  0  0  0  0
  7  8  2  0  0  0  0
  7 48  1  0  0  0  0
  8  9  1  0  0  0  0
  9 10  1  0  0  0  0
  9 18  1  0  0  0  0
  9 47  1  1  0  0  0
 10 11  1  0  0  0  0
 10 45  1  0  0  0  0
 10 46  1  0  0  0  0
 11 12  1  0  0  0  0
 11 16  1  0  0  0  0
 11 44  1  6  0  0  0
 12 13  1  0  0  0  0
 12 14  1  0  0  0  0
 12 15  1  0  0  0  0
 16 17  1  0  0  0  0
 16 42  1  0  0  0  0
 16 43  1  0  0  0  0
 17 18  1  0  0  0  0
 17 40  1  0  0  0  0
 17 41  1  0  0  0  0
 18 19  1  0  0  0  0
 19 20  2  0  0  0  0
 19 21  1  0  0  0  0
 21 22  1  0  0  0  0
 21 38  1  0  0  0  0
 21 39  1  0  0  0  0
 22 23  2  0  0  0  0
 22 31  1  0  0  0  0
 23 24  1  0  0  0  0
 23 37  1  0  0  0  0
 24 25  2  0  0  0  0
 25 26  1  0  0  0  0
 25 36  1  0  0  0  0
 26 27  2  0  0  0  0
 26 31  1  0  0  0  0
 27 28  1  0  0  0  0
 27 35  1  0  0  0  0
 28 29  2  0  0  0  0
 28 34  1  0  0  0  0
 29 30  1  0  0  0  0
 29 33  1  0  0  0  0
 30 31  2  0  0  0  0
 30 32  1  0  0  0  0
M  END
>  <MODEL>
       1

$$$$
