tmp_first_model_7_23.pdb
 OpenBabel08272520323D

 68 73  0  0  1  0  0  0  0  0999 V2000
   -7.5310    3.0780  -21.9040 C   0  0  0  0  0  0  0  0  0  0  0  0
   -8.6720    2.6410  -22.6960 N   0  0  0  0  0  0  0  0  0  0  0  0
   -8.3890    1.8160  -23.7480 C   0  0  0  0  0  0  0  0  0  0  0  0
   -7.2390    1.5440  -24.0790 O   0  0  0  0  0  0  0  0  0  0  0  0
   -9.5730    1.2340  -24.5050 C   0  0  0  0  0  0  0  0  0  0  0  0
  -10.0450    0.0350  -23.8610 N   0  0  0  0  0  0  0  0  0  0  0  0
   -9.2180   -1.1590  -23.8970 C   0  0  0  0  0  0  0  0  0  0  0  0
   -9.2940   -1.9160  -22.5470 C   0  0  2  0  0  0  0  0  0  0  0  0
   -8.6940   -0.9860  -21.4510 C   0  0  0  0  0  0  0  0  0  0  0  0
   -9.2190   -0.0150  -20.9430 O   0  0  0  0  0  0  0  0  0  0  0  0
   -7.4080   -1.4070  -21.1850 N   0  0  0  0  0  0  0  0  0  0  0  0
   -6.6250   -0.8110  -20.1680 C   0  0  0  0  0  0  0  0  0  0  0  0
   -6.9310   -1.0370  -18.8460 C   0  0  0  0  0  0  0  0  0  0  0  0
   -6.2130   -0.5520  -17.8080 N   0  0  0  0  0  0  0  0  0  0  0  0
   -5.1720    0.1940  -18.0840 C   0  0  0  0  0  0  0  0  0  0  0  0
   -4.7450    0.5110  -19.4040 C   0  0  0  0  0  0  0  0  0  0  0  0
   -3.6200    1.3420  -19.6480 C   0  0  0  0  0  0  0  0  0  0  0  0
   -3.2520    1.6540  -20.9290 C   0  0  0  0  0  0  0  0  0  0  0  0
   -3.9960    1.1570  -22.0210 C   0  0  0  0  0  0  0  0  0  0  0  0
   -5.0930    0.3520  -21.8110 C   0  0  0  0  0  0  0  0  0  0  0  0
   -5.4920    0.0000  -20.4920 C   0  0  0  0  0  0  0  0  0  0  0  0
   -5.6860    0.0260  -22.6600 H   0  0  0  0  0  0  0  0  0  0  0  0
   -3.7080    1.4220  -23.0350 H   0  0  0  0  0  0  0  0  0  0  0  0
   -2.4000    2.3030  -21.1070 H   0  0  0  0  0  0  0  0  0  0  0  0
   -3.0830    1.7410  -18.7920 H   0  0  0  0  0  0  0  0  0  0  0  0
   -4.6070    0.5910  -17.2410 H   0  0  0  0  0  0  0  0  0  0  0  0
   -7.7880   -1.6540  -18.5870 H   0  0  0  0  0  0  0  0  0  0  0  0
   -6.9870   -2.5500  -21.9760 C   0  0  0  0  0  0  0  0  0  0  0  0
   -8.3280   -3.1330  -22.4560 C   0  0  2  0  0  0  0  0  0  0  0  0
   -8.1910   -4.0020  -23.7200 C   0  0  0  0  0  0  0  0  0  0  0  0
   -7.5850   -5.2930  -23.5060 N   0  0  0  0  0  0  0  0  0  0  0  0
   -6.2250   -5.5480  -23.4230 C   0  0  0  0  0  0  0  0  0  0  0  0
   -5.7660   -6.5080  -22.5090 C   0  0  0  0  0  0  0  0  0  0  0  0
   -4.4140   -6.7770  -22.3900 C   0  0  0  0  0  0  0  0  0  0  0  0
   -3.4850   -6.1940  -23.2460 C   0  0  0  0  0  0  0  0  0  0  0  0
   -3.9360   -5.2770  -24.1900 C   0  0  0  0  0  0  0  0  0  0  0  0
   -5.2820   -4.9220  -24.2480 C   0  0  0  0  0  0  0  0  0  0  0  0
   -5.6000   -4.1440  -24.9350 H   0  0  0  0  0  0  0  0  0  0  0  0
   -3.2330   -4.7900  -24.8700 H   0  0  0  0  0  0  0  0  0  0  0  0
   -2.4300   -6.4410  -23.1550 H   0  0  0  0  0  0  0  0  0  0  0  0
   -4.0950   -7.4530  -21.6050 H   0  0  0  0  0  0  0  0  0  0  0  0
   -6.4890   -7.0640  -21.9160 H   0  0  0  0  0  0  0  0  0  0  0  0
   -8.1780   -5.9990  -23.1060 H   0  0  0  0  0  0  0  0  0  0  0  0
   -9.1840   -4.1720  -24.1520 H   0  0  0  0  0  0  0  0  0  0  0  0
   -7.6010   -3.4570  -24.4660 H   0  0  0  0  0  0  0  0  0  0  0  0
   -8.6920   -3.7550  -21.6310 H   0  0  0  0  0  0  0  0  0  0  0  0
   -6.3530   -2.2390  -22.8230 H   0  0  0  0  0  0  0  0  0  0  0  0
   -6.4040   -3.2520  -21.3720 H   0  0  0  0  0  0  0  0  0  0  0  0
  -10.7720   -2.1970  -22.3130 C   0  0  0  0  0  0  0  0  0  0  0  0
  -11.2480   -3.3040  -21.6030 C   0  0  0  0  0  0  0  0  0  0  0  0
  -12.5890   -3.3600  -21.2550 C   0  0  0  0  0  0  0  0  0  0  0  0
  -13.1340   -4.4510  -20.0300 Cl  0  0  0  0  0  0  0  0  0  0  0  0
  -13.5350   -2.4670  -21.7470 C   0  0  0  0  0  0  0  0  0  0  0  0
  -13.0860   -1.4010  -22.4920 C   0  0  0  0  0  0  0  0  0  0  0  0
  -11.7210   -1.2400  -22.7090 C   0  0  0  0  0  0  0  0  0  0  0  0
  -11.2920    0.0460  -23.3200 C   0  0  0  0  0  0  0  0  0  0  0  0
  -12.0130    1.0360  -23.3230 O   0  0  0  0  0  0  0  0  0  0  0  0
  -13.7700   -0.6550  -22.8820 H   0  0  0  0  0  0  0  0  0  0  0  0
  -14.5800   -2.5940  -21.4800 H   0  0  0  0  0  0  0  0  0  0  0  0
  -10.5790   -4.0790  -21.2460 H   0  0  0  0  0  0  0  0  0  0  0  0
   -9.5560   -1.8180  -24.7080 H   0  0  0  0  0  0  0  0  0  0  0  0
   -8.1930   -0.8380  -24.0990 H   0  0  0  0  0  0  0  0  0  0  0  0
   -9.2390    1.0060  -25.5200 H   0  0  0  0  0  0  0  0  0  0  0  0
  -10.4150    1.9230  -24.5440 H   0  0  0  0  0  0  0  0  0  0  0  0
   -9.5550    2.5330  -22.2020 H   0  0  0  0  0  0  0  0  0  0  0  0
   -7.7780    3.9250  -21.2600 H   0  0  0  0  0  0  0  0  0  0  0  0
   -6.7550    3.4150  -22.5860 H   0  0  0  0  0  0  0  0  0  0  0  0
   -7.1280    2.2320  -21.3280 H   0  0  0  0  0  0  0  0  0  0  0  0
  1  2  1  0  0  0  0
  1 66  1  0  0  0  0
  1 67  1  0  0  0  0
  1 68  1  0  0  0  0
  2  3  1  0  0  0  0
  2 65  1  0  0  0  0
  3  4  2  0  0  0  0
  3  5  1  0  0  0  0
  5  6  1  0  0  0  0
  5 63  1  0  0  0  0
  5 64  1  0  0  0  0
  6  7  1  0  0  0  0
  6 56  1  0  0  0  0
  7  8  1  0  0  0  0
  7 61  1  0  0  0  0
  7 62  1  0  0  0  0
  8  9  1  1  0  0  0
  8 29  1  0  0  0  0
  8 49  1  0  0  0  0
  9 10  2  0  0  0  0
  9 11  1  0  0  0  0
 11 12  1  0  0  0  0
 11 28  1  0  0  0  0
 12 13  2  0  0  0  0
 12 21  1  0  0  0  0
 13 14  1  0  0  0  0
 13 27  1  0  0  0  0
 14 15  2  0  0  0  0
 15 16  1  0  0  0  0
 15 26  1  0  0  0  0
 16 17  2  0  0  0  0
 16 21  1  0  0  0  0
 17 18  1  0  0  0  0
 17 25  1  0  0  0  0
 18 19  2  0  0  0  0
 18 24  1  0  0  0  0
 19 20  1  0  0  0  0
 19 23  1  0  0  0  0
 20 21  2  0  0  0  0
 20 22  1  0  0  0  0
 28 29  1  0  0  0  0
 28 47  1  0  0  0  0
 28 48  1  0  0  0  0
 29 30  1  0  0  0  0
 29 46  1  1  0  0  0
 30 31  1  0  0  0  0
 30 44  1  0  0  0  0
 30 45  1  0  0  0  0
 31 32  1  0  0  0  0
 31 43  1  0  0  0  0
 32 33  2  0  0  0  0
 32 37  1  0  0  0  0
 33 34  1  0  0  0  0
 33 42  1  0  0  0  0
 34 35  2  0  0  0  0
 34 41  1  0  0  0  0
 35 36  1  0  0  0  0
 35 40  1  0  0  0  0
 36 37  2  0  0  0  0
 36 39  1  0  0  0  0
 37 38  1  0  0  0  0
 49 50  2  0  0  0  0
 49 55  1  0  0  0  0
 50 51  1  0  0  0  0
 50 60  1  0  0  0  0
 51 52  1  0  0  0  0
 51 53  2  0  0  0  0
 53 54  1  0  0  0  0
 53 59  1  0  0  0  0
 54 55  2  0  0  0  0
 54 58  1  0  0  0  0
 55 56  1  0  0  0  0
 56 57  2  0  0  0  0
M  END
>  <MODEL>
       1

$$$$
