tmp_first_model_16_73.pdb
 OpenBabel08282501503D

 50 53  0  0  1  0  0  0  0  0999 V2000
   -5.6000   -3.0320  -21.5810 O   0  0  0  0  0  0  0  0  0  0  0  0
   -6.7560   -2.7550  -21.8600 C   0  0  0  0  0  0  0  0  0  0  0  0
   -7.4160   -1.4810  -21.2750 C   0  0  0  0  0  0  0  0  0  0  0  0
   -6.5870   -0.8320  -20.1940 C   0  0  0  0  0  0  0  0  0  0  0  0
   -6.8960   -1.0540  -18.8810 C   0  0  0  0  0  0  0  0  0  0  0  0
   -6.1940   -0.6020  -17.8150 N   0  0  0  0  0  0  0  0  0  0  0  0
   -5.1290    0.1110  -18.0750 C   0  0  0  0  0  0  0  0  0  0  0  0
   -4.7150    0.4990  -19.3810 C   0  0  0  0  0  0  0  0  0  0  0  0
   -3.5970    1.3470  -19.6190 C   0  0  0  0  0  0  0  0  0  0  0  0
   -3.1970    1.6350  -20.8970 C   0  0  0  0  0  0  0  0  0  0  0  0
   -3.9050    1.0900  -21.9930 C   0  0  0  0  0  0  0  0  0  0  0  0
   -5.0010    0.2890  -21.7900 C   0  0  0  0  0  0  0  0  0  0  0  0
   -5.4500   -0.0170  -20.4810 C   0  0  0  0  0  0  0  0  0  0  0  0
   -5.5270   -0.1330  -22.6400 H   0  0  0  0  0  0  0  0  0  0  0  0
   -3.5730    1.3100  -23.0030 H   0  0  0  0  0  0  0  0  0  0  0  0
   -2.3280    2.2650  -21.0850 H   0  0  0  0  0  0  0  0  0  0  0  0
   -3.0620    1.7660  -18.7670 H   0  0  0  0  0  0  0  0  0  0  0  0
   -4.5390    0.3910  -17.2020 H   0  0  0  0  0  0  0  0  0  0  0  0
   -7.7400   -1.6740  -18.5950 H   0  0  0  0  0  0  0  0  0  0  0  0
   -7.6160   -0.7500  -22.0690 H   0  0  0  0  0  0  0  0  0  0  0  0
   -8.3950   -1.7480  -20.8500 H   0  0  0  0  0  0  0  0  0  0  0  0
   -7.5200   -3.5830  -22.6630 N   0  0  0  0  0  0  0  0  0  0  0  0
   -8.6630   -3.1250  -23.4510 C   0  0  0  0  0  0  0  0  0  0  0  0
   -9.7350   -4.2010  -23.5630 C   0  0  0  0  0  0  0  0  0  0  0  0
   -9.1620   -5.5020  -24.1050 C   0  0  0  0  0  0  0  0  0  0  0  0
   -7.9810   -5.9310  -23.2470 C   0  0  0  0  0  0  0  0  0  0  0  0
   -6.9100   -4.8490  -23.1050 C   0  0  1  0  0  0  0  0  0  0  0  0
   -6.0420   -4.6950  -24.3710 C   0  0  0  0  0  0  0  0  0  0  0  0
   -5.2080   -5.9200  -24.6880 C   0  0  0  0  0  0  0  0  0  0  0  0
   -4.0470   -6.1890  -23.9580 C   0  0  0  0  0  0  0  0  0  0  0  0
   -3.2840   -7.3200  -24.2200 C   0  0  0  0  0  0  0  0  0  0  0  0
   -3.6680   -8.2100  -25.2180 C   0  0  0  0  0  0  0  0  0  0  0  0
   -4.8220   -7.9560  -25.9540 C   0  0  0  0  0  0  0  0  0  0  0  0
   -5.5840   -6.8230  -25.6850 C   0  0  0  0  0  0  0  0  0  0  0  0
   -6.4940   -6.6390  -26.2520 H   0  0  0  0  0  0  0  0  0  0  0  0
   -5.1340   -8.6440  -26.7340 H   0  0  0  0  0  0  0  0  0  0  0  0
   -3.0700   -9.0930  -25.4250 H   0  0  0  0  0  0  0  0  0  0  0  0
   -2.3830   -7.5100  -23.6420 H   0  0  0  0  0  0  0  0  0  0  0  0
   -3.7440   -5.5000  -23.1730 H   0  0  0  0  0  0  0  0  0  0  0  0
   -6.6860   -4.4570  -25.2250 H   0  0  0  0  0  0  0  0  0  0  0  0
   -5.3820   -3.8360  -24.2140 H   0  0  0  0  0  0  0  0  0  0  0  0
   -6.2400   -5.1490  -22.2980 H   0  0  0  0  0  0  0  0  0  0  0  0
   -8.3290   -6.1680  -22.2400 H   0  0  0  0  0  0  0  0  0  0  0  0
   -7.5360   -6.8520  -23.6370 H   0  0  0  0  0  0  0  0  0  0  0  0
   -9.9310   -6.2830  -24.1270 H   0  0  0  0  0  0  0  0  0  0  0  0
   -8.8400   -5.3760  -25.1470 H   0  0  0  0  0  0  0  0  0  0  0  0
  -10.1660   -4.3770  -22.5750 H   0  0  0  0  0  0  0  0  0  0  0  0
  -10.5510   -3.8470  -24.1990 H   0  0  0  0  0  0  0  0  0  0  0  0
   -9.0830   -2.2310  -22.9900 H   0  0  0  0  0  0  0  0  0  0  0  0
   -8.3540   -2.8300  -24.4650 H   0  0  0  0  0  0  0  0  0  0  0  0
  1  2  2  0  0  0  0
  2  3  1  0  0  0  0
  2 22  1  0  0  0  0
  3  4  1  0  0  0  0
  3 20  1  0  0  0  0
  3 21  1  0  0  0  0
  4  5  2  0  0  0  0
  4 13  1  0  0  0  0
  5  6  1  0  0  0  0
  5 19  1  0  0  0  0
  6  7  2  0  0  0  0
  7  8  1  0  0  0  0
  7 18  1  0  0  0  0
  8  9  2  0  0  0  0
  8 13  1  0  0  0  0
  9 10  1  0  0  0  0
  9 17  1  0  0  0  0
 10 11  2  0  0  0  0
 10 16  1  0  0  0  0
 11 12  1  0  0  0  0
 11 15  1  0  0  0  0
 12 13  2  0  0  0  0
 12 14  1  0  0  0  0
 22 23  1  0  0  0  0
 22 27  1  0  0  0  0
 23 24  1  0  0  0  0
 23 49  1  0  0  0  0
 23 50  1  0  0  0  0
 24 25  1  0  0  0  0
 24 47  1  0  0  0  0
 24 48  1  0  0  0  0
 25 26  1  0  0  0  0
 25 45  1  0  0  0  0
 25 46  1  0  0  0  0
 26 27  1  0  0  0  0
 26 43  1  0  0  0  0
 26 44  1  0  0  0  0
 27 28  1  0  0  0  0
 27 42  1  1  0  0  0
 28 29  1  0  0  0  0
 28 40  1  0  0  0  0
 28 41  1  0  0  0  0
 29 30  2  0  0  0  0
 29 34  1  0  0  0  0
 30 31  1  0  0  0  0
 30 39  1  0  0  0  0
 31 32  2  0  0  0  0
 31 38  1  0  0  0  0
 32 33  1  0  0  0  0
 32 37  1  0  0  0  0
 33 34  2  0  0  0  0
 33 36  1  0  0  0  0
 34 35  1  0  0  0  0
M  END
>  <MODEL>
       1

$$$$
