tmp_first_model_8_21.pdb
 OpenBabel08272521063D

 63 68  0  0  1  0  0  0  0  0999 V2000
   -8.3290   -4.1260  -23.4840 C   0  0  0  0  0  0  0  0  0  0  0  0
   -8.5520   -2.9710  -22.5190 C   0  0  1  0  0  0  0  0  0  0  0  0
   -7.4050   -2.7890  -21.5130 C   0  0  0  0  0  0  0  0  0  0  0  0
   -7.4260   -1.3750  -21.2180 N   0  0  0  0  0  0  0  0  0  0  0  0
   -6.6280   -0.8020  -20.1980 C   0  0  0  0  0  0  0  0  0  0  0  0
   -6.9120   -1.0780  -18.8820 C   0  0  0  0  0  0  0  0  0  0  0  0
   -6.2210   -0.5870  -17.8250 N   0  0  0  0  0  0  0  0  0  0  0  0
   -5.2000    0.1950  -18.0860 C   0  0  0  0  0  0  0  0  0  0  0  0
   -4.7760    0.5320  -19.4030 C   0  0  0  0  0  0  0  0  0  0  0  0
   -3.6410    1.3580  -19.6200 C   0  0  0  0  0  0  0  0  0  0  0  0
   -3.2360    1.6610  -20.8920 C   0  0  0  0  0  0  0  0  0  0  0  0
   -3.9550    1.1590  -22.0010 C   0  0  0  0  0  0  0  0  0  0  0  0
   -5.0310    0.3280  -21.8180 C   0  0  0  0  0  0  0  0  0  0  0  0
   -5.4940    0.0190  -20.5050 C   0  0  0  0  0  0  0  0  0  0  0  0
   -5.5270   -0.0960  -22.6860 H   0  0  0  0  0  0  0  0  0  0  0  0
   -3.6200    1.3970  -23.0080 H   0  0  0  0  0  0  0  0  0  0  0  0
   -2.3640    2.2860  -21.0630 H   0  0  0  0  0  0  0  0  0  0  0  0
   -3.1070    1.7380  -18.7550 H   0  0  0  0  0  0  0  0  0  0  0  0
   -4.6370    0.5950  -17.2420 H   0  0  0  0  0  0  0  0  0  0  0  0
   -7.7670   -1.7110  -18.6390 H   0  0  0  0  0  0  0  0  0  0  0  0
   -8.1550   -0.6290  -22.1160 C   0  0  0  0  0  0  0  0  0  0  0  0
   -8.2460    0.5790  -22.0640 O   0  0  0  0  0  0  0  0  0  0  0  0
   -8.7720   -1.5660  -23.1770 C   0  0  1  0  0  0  0  0  0  0  0  0
   -8.0190   -1.3130  -24.4960 C   0  0  0  0  0  0  0  0  0  0  0  0
   -8.6710   -1.8740  -25.6730 N   0  0  0  0  0  0  0  0  0  0  0  0
   -7.8540   -2.2230  -26.8220 C   0  0  0  0  0  0  0  0  0  0  0  0
   -7.7960   -3.7380  -27.0360 C   0  0  0  0  0  0  0  0  0  0  0  0
   -6.9660   -4.4310  -26.4630 O   0  0  0  0  0  0  0  0  0  0  0  0
   -8.7200   -4.2390  -27.9080 N   0  0  0  0  0  0  0  0  0  0  0  0
   -8.9240   -5.6760  -28.0100 C   0  0  0  0  0  0  0  0  0  0  0  0
   -9.5350   -6.2920  -26.7720 C   0  0  0  0  0  0  0  0  0  0  0  0
   -9.5930   -7.7810  -26.6220 C   0  0  0  0  0  0  0  0  0  0  0  0
   -8.6690   -6.9780  -25.7580 C   0  0  0  0  0  0  0  0  0  0  0  0
   -8.8970   -6.8680  -24.7030 H   0  0  0  0  0  0  0  0  0  0  0  0
   -7.6100   -7.0220  -25.9850 H   0  0  0  0  0  0  0  0  0  0  0  0
   -9.1520   -8.3860  -27.4050 H   0  0  0  0  0  0  0  0  0  0  0  0
  -10.4750   -8.2260  -26.1750 H   0  0  0  0  0  0  0  0  0  0  0  0
  -10.3770   -5.7430  -26.3680 H   0  0  0  0  0  0  0  0  0  0  0  0
   -9.5460   -5.8660  -28.8900 H   0  0  0  0  0  0  0  0  0  0  0  0
   -7.9580   -6.1390  -28.2120 H   0  0  0  0  0  0  0  0  0  0  0  0
   -9.4990   -3.6400  -28.1460 H   0  0  0  0  0  0  0  0  0  0  0  0
   -6.8380   -1.8510  -26.6610 H   0  0  0  0  0  0  0  0  0  0  0  0
   -8.2980   -1.7530  -27.7010 H   0  0  0  0  0  0  0  0  0  0  0  0
  -10.0170   -1.8150  -25.8810 C   0  0  0  0  0  0  0  0  0  0  0  0
  -10.5340   -2.0960  -26.9640 O   0  0  0  0  0  0  0  0  0  0  0  0
  -10.8200   -1.4190  -24.7040 C   0  0  0  0  0  0  0  0  0  0  0  0
  -12.1830   -1.2380  -24.9150 C   0  0  0  0  0  0  0  0  0  0  0  0
  -12.9920   -0.8790  -23.8560 C   0  0  0  0  0  0  0  0  0  0  0  0
  -12.4090   -0.7500  -22.5990 C   0  0  0  0  0  0  0  0  0  0  0  0
  -13.2200   -0.4220  -21.5840 F   0  0  0  0  0  0  0  0  0  0  0  0
  -11.0610   -0.9580  -22.3620 C   0  0  0  0  0  0  0  0  0  0  0  0
  -10.2360   -1.2800  -23.4380 C   0  0  0  0  0  0  0  0  0  0  0  0
  -10.6350   -0.8920  -21.3660 H   0  0  0  0  0  0  0  0  0  0  0  0
  -14.0590   -0.7080  -23.9590 H   0  0  0  0  0  0  0  0  0  0  0  0
  -12.5520   -1.3900  -25.9270 H   0  0  0  0  0  0  0  0  0  0  0  0
   -7.9130   -0.2240  -24.5950 H   0  0  0  0  0  0  0  0  0  0  0  0
   -7.0200   -1.7540  -24.4450 H   0  0  0  0  0  0  0  0  0  0  0  0
   -7.5480   -3.3580  -20.5910 H   0  0  0  0  0  0  0  0  0  0  0  0
   -6.4300   -3.0760  -21.9340 H   0  0  0  0  0  0  0  0  0  0  0  0
   -9.4640   -3.1690  -21.9370 H   0  0  0  0  0  0  0  0  0  0  0  0
   -9.1440   -4.1920  -24.2140 H   0  0  0  0  0  0  0  0  0  0  0  0
   -8.2820   -5.0820  -22.9520 H   0  0  0  0  0  0  0  0  0  0  0  0
   -7.3920   -4.0180  -24.0410 H   0  0  0  0  0  0  0  0  0  0  0  0
  1  2  1  0  0  0  0
  1 61  1  0  0  0  0
  1 62  1  0  0  0  0
  1 63  1  0  0  0  0
  2  3  1  0  0  0  0
  2 23  1  0  0  0  0
  2 60  1  1  0  0  0
  3  4  1  0  0  0  0
  3 58  1  0  0  0  0
  3 59  1  0  0  0  0
  4  5  1  0  0  0  0
  4 21  1  0  0  0  0
  5  6  2  0  0  0  0
  5 14  1  0  0  0  0
  6  7  1  0  0  0  0
  6 20  1  0  0  0  0
  7  8  2  0  0  0  0
  8  9  1  0  0  0  0
  8 19  1  0  0  0  0
  9 10  2  0  0  0  0
  9 14  1  0  0  0  0
 10 11  1  0  0  0  0
 10 18  1  0  0  0  0
 11 12  2  0  0  0  0
 11 17  1  0  0  0  0
 12 13  1  0  0  0  0
 12 16  1  0  0  0  0
 13 14  2  0  0  0  0
 13 15  1  0  0  0  0
 21 22  2  0  0  0  0
 23 21  1  1  0  0  0
 23 24  1  0  0  0  0
 23 52  1  0  0  0  0
 24 25  1  0  0  0  0
 24 56  1  0  0  0  0
 24 57  1  0  0  0  0
 25 26  1  0  0  0  0
 25 44  1  0  0  0  0
 26 27  1  0  0  0  0
 26 42  1  0  0  0  0
 26 43  1  0  0  0  0
 27 28  2  0  0  0  0
 27 29  1  0  0  0  0
 29 30  1  0  0  0  0
 29 41  1  0  0  0  0
 30 31  1  0  0  0  0
 30 39  1  0  0  0  0
 30 40  1  0  0  0  0
 31 32  1  0  0  0  0
 31 33  1  0  0  0  0
 31 38  1  0  0  0  0
 32 33  1  0  0  0  0
 32 36  1  0  0  0  0
 32 37  1  0  0  0  0
 33 34  1  0  0  0  0
 33 35  1  0  0  0  0
 44 45  2  0  0  0  0
 44 46  1  0  0  0  0
 46 47  2  0  0  0  0
 46 52  1  0  0  0  0
 47 48  1  0  0  0  0
 47 55  1  0  0  0  0
 48 49  2  0  0  0  0
 48 54  1  0  0  0  0
 49 50  1  0  0  0  0
 49 51  1  0  0  0  0
 51 52  2  0  0  0  0
 51 53  1  0  0  0  0
M  END
>  <MODEL>
       1

$$$$
