tmp_first_model_2_41.pdb
 OpenBabel08272517383D

 67 71  0  0  1  0  0  0  0  0999 V2000
   -7.5980    3.0250  -21.9940 C   0  0  0  0  0  0  0  0  0  0  0  0
   -8.7460    2.5080  -22.7260 N   0  0  0  0  0  0  0  0  0  0  0  0
   -8.5030    1.7120  -23.8050 C   0  0  0  0  0  0  0  0  0  0  0  0
   -7.3610    1.4330  -24.1490 O   0  0  0  0  0  0  0  0  0  0  0  0
   -9.7030    1.1360  -24.5700 C   0  0  0  0  0  0  0  0  0  0  0  0
  -10.1450   -0.0960  -23.9490 N   0  0  0  0  0  0  0  0  0  0  0  0
   -9.2410   -1.2390  -23.9140 C   0  0  0  0  0  0  0  0  0  0  0  0
   -9.3020   -1.9690  -22.5420 C   0  0  2  0  0  0  0  0  0  0  0  0
   -8.7120   -1.0210  -21.4600 C   0  0  0  0  0  0  0  0  0  0  0  0
   -9.2450   -0.0430  -20.9680 O   0  0  0  0  0  0  0  0  0  0  0  0
   -7.4220   -1.4280  -21.1760 N   0  0  0  0  0  0  0  0  0  0  0  0
   -6.6440   -0.8220  -20.1570 C   0  0  0  0  0  0  0  0  0  0  0  0
   -6.9530   -1.0420  -18.8350 C   0  0  0  0  0  0  0  0  0  0  0  0
   -6.2460   -0.5460  -17.7910 N   0  0  0  0  0  0  0  0  0  0  0  0
   -5.2020    0.1970  -18.0710 C   0  0  0  0  0  0  0  0  0  0  0  0
   -4.7670    0.5030  -19.3910 C   0  0  0  0  0  0  0  0  0  0  0  0
   -3.6470    1.3400  -19.6350 C   0  0  0  0  0  0  0  0  0  0  0  0
   -3.2690    1.6400  -20.9150 C   0  0  0  0  0  0  0  0  0  0  0  0
   -4.0040    1.1340  -22.0110 C   0  0  0  0  0  0  0  0  0  0  0  0
   -5.1060    0.3340  -21.8020 C   0  0  0  0  0  0  0  0  0  0  0  0
   -5.5070   -0.0160  -20.4810 C   0  0  0  0  0  0  0  0  0  0  0  0
   -5.7050    0.0210  -22.6540 H   0  0  0  0  0  0  0  0  0  0  0  0
   -3.7070    1.3880  -23.0240 H   0  0  0  0  0  0  0  0  0  0  0  0
   -2.4140    2.2860  -21.0970 H   0  0  0  0  0  0  0  0  0  0  0  0
   -3.1140    1.7450  -18.7790 H   0  0  0  0  0  0  0  0  0  0  0  0
   -4.6390    0.6030  -17.2310 H   0  0  0  0  0  0  0  0  0  0  0  0
   -7.8110   -1.6610  -18.5810 H   0  0  0  0  0  0  0  0  0  0  0  0
   -6.9760   -2.5590  -21.9640 C   0  0  0  0  0  0  0  0  0  0  0  0
   -8.3030   -3.1640  -22.4580 C   0  0  2  0  0  0  0  0  0  0  0  0
   -8.1730   -3.9600  -23.7520 C   0  0  0  0  0  0  0  0  0  0  0  0
   -7.0750   -5.3620  -23.5870 S   0  0  0  0  0  0  0  0  0  0  0  0
   -5.7040   -4.8680  -23.6170 O   0  0  0  0  0  0  0  0  0  0  0  0
   -7.5430   -6.1840  -22.4790 O   0  0  0  0  0  0  0  0  0  0  0  0
   -7.3360   -6.1960  -24.9970 N   0  0  0  0  0  0  0  0  0  0  0  0
   -8.6020   -6.8930  -25.1650 C   0  0  0  0  0  0  0  0  0  0  0  0
   -9.4420   -6.2400  -25.4410 H   0  0  0  0  0  0  0  0  0  0  0  0
   -8.4850   -7.6320  -25.9610 H   0  0  0  0  0  0  0  0  0  0  0  0
   -8.8530   -7.4240  -24.2480 H   0  0  0  0  0  0  0  0  0  0  0  0
   -6.7260   -5.6530  -26.1980 C   0  0  0  0  0  0  0  0  0  0  0  0
   -7.2860   -4.8160  -26.6380 H   0  0  0  0  0  0  0  0  0  0  0  0
   -6.6610   -6.4500  -26.9410 H   0  0  0  0  0  0  0  0  0  0  0  0
   -5.7160   -5.3210  -25.9580 H   0  0  0  0  0  0  0  0  0  0  0  0
   -9.1590   -4.3280  -24.0540 H   0  0  0  0  0  0  0  0  0  0  0  0
   -7.7550   -3.3350  -24.5480 H   0  0  0  0  0  0  0  0  0  0  0  0
   -8.6390   -3.8340  -21.6610 H   0  0  0  0  0  0  0  0  0  0  0  0
   -6.3370   -2.2380  -22.7990 H   0  0  0  0  0  0  0  0  0  0  0  0
   -6.3930   -3.2670  -21.3680 H   0  0  0  0  0  0  0  0  0  0  0  0
  -10.7740   -2.2900  -22.2990 C   0  0  0  0  0  0  0  0  0  0  0  0
  -11.2100   -3.4100  -21.5780 C   0  0  0  0  0  0  0  0  0  0  0  0
  -12.5360   -3.4840  -21.1850 C   0  0  0  0  0  0  0  0  0  0  0  0
  -12.9030   -4.3660  -20.2450 F   0  0  0  0  0  0  0  0  0  0  0  0
  -13.5140   -2.6080  -21.6230 C   0  0  0  0  0  0  0  0  0  0  0  0
  -13.1170   -1.5690  -22.4290 C   0  0  0  0  0  0  0  0  0  0  0  0
  -11.7660   -1.3870  -22.7220 C   0  0  0  0  0  0  0  0  0  0  0  0
  -11.4270   -0.1610  -23.4930 C   0  0  0  0  0  0  0  0  0  0  0  0
  -12.2570    0.7180  -23.7010 O   0  0  0  0  0  0  0  0  0  0  0  0
  -13.8320   -0.8600  -22.8310 H   0  0  0  0  0  0  0  0  0  0  0  0
  -14.5360   -2.7330  -21.2860 H   0  0  0  0  0  0  0  0  0  0  0  0
  -10.5340   -4.1710  -21.2070 H   0  0  0  0  0  0  0  0  0  0  0  0
   -9.5030   -1.9410  -24.7190 H   0  0  0  0  0  0  0  0  0  0  0  0
   -8.2340   -0.8560  -24.1020 H   0  0  0  0  0  0  0  0  0  0  0  0
   -9.4140    0.9560  -25.6170 H   0  0  0  0  0  0  0  0  0  0  0  0
  -10.5630    1.8090  -24.5710 H   0  0  0  0  0  0  0  0  0  0  0  0
   -9.6090    2.3710  -22.2160 H   0  0  0  0  0  0  0  0  0  0  0  0
   -7.9110    3.7560  -21.2510 H   0  0  0  0  0  0  0  0  0  0  0  0
   -7.0420    2.2210  -21.4980 H   0  0  0  0  0  0  0  0  0  0  0  0
   -6.9240    3.5320  -22.6850 H   0  0  0  0  0  0  0  0  0  0  0  0
  1  2  1  0  0  0  0
  1 65  1  0  0  0  0
  1 66  1  0  0  0  0
  1 67  1  0  0  0  0
  2  3  1  0  0  0  0
  2 64  1  0  0  0  0
  3  4  2  0  0  0  0
  3  5  1  0  0  0  0
  5  6  1  0  0  0  0
  5 62  1  0  0  0  0
  5 63  1  0  0  0  0
  6  7  1  0  0  0  0
  6 55  1  0  0  0  0
  7  8  1  0  0  0  0
  7 60  1  0  0  0  0
  7 61  1  0  0  0  0
  8  9  1  1  0  0  0
  8 29  1  0  0  0  0
  8 48  1  0  0  0  0
  9 10  2  0  0  0  0
  9 11  1  0  0  0  0
 11 12  1  0  0  0  0
 11 28  1  0  0  0  0
 12 13  2  0  0  0  0
 12 21  1  0  0  0  0
 13 14  1  0  0  0  0
 13 27  1  0  0  0  0
 14 15  2  0  0  0  0
 15 16  1  0  0  0  0
 15 26  1  0  0  0  0
 16 17  2  0  0  0  0
 16 21  1  0  0  0  0
 17 18  1  0  0  0  0
 17 25  1  0  0  0  0
 18 19  2  0  0  0  0
 18 24  1  0  0  0  0
 19 20  1  0  0  0  0
 19 23  1  0  0  0  0
 20 21  2  0  0  0  0
 20 22  1  0  0  0  0
 28 29  1  0  0  0  0
 28 46  1  0  0  0  0
 28 47  1  0  0  0  0
 29 30  1  0  0  0  0
 29 45  1  1  0  0  0
 30 31  1  0  0  0  0
 30 43  1  0  0  0  0
 30 44  1  0  0  0  0
 31 32  2  0  0  0  0
 31 33  2  0  0  0  0
 31 34  1  0  0  0  0
 34 35  1  0  0  0  0
 34 39  1  0  0  0  0
 35 36  1  0  0  0  0
 35 37  1  0  0  0  0
 35 38  1  0  0  0  0
 39 40  1  0  0  0  0
 39 41  1  0  0  0  0
 39 42  1  0  0  0  0
 48 49  2  0  0  0  0
 48 54  1  0  0  0  0
 49 50  1  0  0  0  0
 49 59  1  0  0  0  0
 50 51  1  0  0  0  0
 50 52  2  0  0  0  0
 52 53  1  0  0  0  0
 52 58  1  0  0  0  0
 53 54  2  0  0  0  0
 53 57  1  0  0  0  0
 54 55  1  0  0  0  0
 55 56  2  0  0  0  0
M  END
>  <MODEL>
       1

$$$$
