tmp_first_model_1_29.pdb
 OpenBabel08272517043D

 55 60  0  0  1  0  0  0  0  0999 V2000
  -10.2240   -2.9720  -22.0760 C   0  0  0  0  0  0  0  0  0  0  0  0
   -9.1560   -2.0160  -22.6300 C   0  0  1  0  0  0  0  0  0  0  0  0
   -8.6910   -1.0360  -21.5350 C   0  0  0  0  0  0  0  0  0  0  0  0
   -7.3490   -1.4520  -21.2030 N   0  0  0  0  0  0  0  0  0  0  0  0
   -6.5740   -0.8500  -20.1910 C   0  0  0  0  0  0  0  0  0  0  0  0
   -6.9120   -1.0610  -18.8800 C   0  0  0  0  0  0  0  0  0  0  0  0
   -6.2260   -0.5640  -17.8260 N   0  0  0  0  0  0  0  0  0  0  0  0
   -5.1890    0.1950  -18.0950 C   0  0  0  0  0  0  0  0  0  0  0  0
   -4.7460    0.5090  -19.4130 C   0  0  0  0  0  0  0  0  0  0  0  0
   -3.6240    1.3500  -19.6370 C   0  0  0  0  0  0  0  0  0  0  0  0
   -3.2330    1.6600  -20.9090 C   0  0  0  0  0  0  0  0  0  0  0  0
   -3.9470    1.1500  -22.0190 C   0  0  0  0  0  0  0  0  0  0  0  0
   -5.0370    0.3350  -21.8340 C   0  0  0  0  0  0  0  0  0  0  0  0
   -5.4540   -0.0200  -20.5130 C   0  0  0  0  0  0  0  0  0  0  0  0
   -5.5840   -0.0340  -22.7040 H   0  0  0  0  0  0  0  0  0  0  0  0
   -3.6280    1.4130  -23.0240 H   0  0  0  0  0  0  0  0  0  0  0  0
   -2.3750    2.3050  -21.0790 H   0  0  0  0  0  0  0  0  0  0  0  0
   -3.1000    1.7460  -18.7710 H   0  0  0  0  0  0  0  0  0  0  0  0
   -4.6400    0.6090  -17.2490 H   0  0  0  0  0  0  0  0  0  0  0  0
   -7.7710   -1.6900  -18.6470 H   0  0  0  0  0  0  0  0  0  0  0  0
   -6.8250   -2.4070  -22.0340 C   0  0  0  0  0  0  0  0  0  0  0  0
   -5.7420   -2.9310  -21.8790 O   0  0  0  0  0  0  0  0  0  0  0  0
   -7.8470   -2.6710  -23.1570 C   0  0  1  0  0  0  0  0  0  0  0  0
   -7.9490   -4.1770  -23.3660 C   0  0  0  0  0  0  0  0  0  0  0  0
   -6.7040   -4.6630  -23.9090 N   0  0  0  0  0  0  0  0  0  0  0  0
   -6.2850   -5.9580  -23.4400 C   0  0  0  0  0  0  0  0  0  0  0  0
   -7.1720   -7.0250  -24.0070 C   0  0  0  0  0  0  0  0  0  0  0  0
   -8.3930   -7.5620  -23.5680 C   0  0  0  0  0  0  0  0  0  0  0  0
   -8.9060   -8.3070  -24.5370 N   0  0  0  0  0  0  0  0  0  0  0  0
   -8.0200   -8.1910  -25.5110 N   0  0  0  0  0  0  0  0  0  0  0  0
   -6.9540   -7.4540  -25.2450 N   0  0  0  0  0  0  0  0  0  0  0  0
   -8.0430   -8.8340  -26.2910 H   0  0  0  0  0  0  0  0  0  0  0  0
   -8.9270   -7.4280  -22.6400 H   0  0  0  0  0  0  0  0  0  0  0  0
   -5.2730   -6.1100  -23.8060 H   0  0  0  0  0  0  0  0  0  0  0  0
   -6.2870   -5.9210  -22.3440 H   0  0  0  0  0  0  0  0  0  0  0  0
   -6.2110   -4.1910  -25.0910 C   0  0  0  0  0  0  0  0  0  0  0  0
   -5.4610   -4.8360  -25.8110 O   0  0  0  0  0  0  0  0  0  0  0  0
   -6.6270   -2.8010  -25.3950 C   0  0  0  0  0  0  0  0  0  0  0  0
   -6.1780   -2.2630  -26.5960 C   0  0  0  0  0  0  0  0  0  0  0  0
   -6.4020   -0.9300  -26.8680 C   0  0  0  0  0  0  0  0  0  0  0  0
   -7.0810   -0.1710  -25.9180 C   0  0  0  0  0  0  0  0  0  0  0  0
   -7.2790    1.1360  -26.1660 F   0  0  0  0  0  0  0  0  0  0  0  0
   -7.5620   -0.6990  -24.7340 C   0  0  0  0  0  0  0  0  0  0  0  0
   -7.3590   -2.0550  -24.4650 C   0  0  0  0  0  0  0  0  0  0  0  0
   -8.0870   -0.0480  -24.0410 H   0  0  0  0  0  0  0  0  0  0  0  0
   -6.0350   -0.4570  -27.7690 H   0  0  0  0  0  0  0  0  0  0  0  0
   -5.6310   -2.9300  -27.2590 H   0  0  0  0  0  0  0  0  0  0  0  0
   -8.1260   -4.6880  -22.4140 H   0  0  0  0  0  0  0  0  0  0  0  0
   -8.7740   -4.4070  -24.0530 H   0  0  0  0  0  0  0  0  0  0  0  0
   -9.3360   -1.1060  -20.6650 H   0  0  0  0  0  0  0  0  0  0  0  0
   -8.6970    0.0080  -21.8700 H   0  0  0  0  0  0  0  0  0  0  0  0
   -9.6310   -1.4810  -23.4590 H   0  0  0  0  0  0  0  0  0  0  0  0
   -9.8360   -3.5740  -21.2460 H   0  0  0  0  0  0  0  0  0  0  0  0
  -11.0770   -2.3960  -21.6990 H   0  0  0  0  0  0  0  0  0  0  0  0
  -10.6030   -3.6480  -22.8480 H   0  0  0  0  0  0  0  0  0  0  0  0
  1  2  1  0  0  0  0
  1 53  1  0  0  0  0
  1 54  1  0  0  0  0
  1 55  1  0  0  0  0
  2  3  1  0  0  0  0
  2 23  1  0  0  0  0
  2 52  1  6  0  0  0
  3  4  1  0  0  0  0
  3 50  1  0  0  0  0
  3 51  1  0  0  0  0
  4  5  1  0  0  0  0
  4 21  1  0  0  0  0
  5  6  2  0  0  0  0
  5 14  1  0  0  0  0
  6  7  1  0  0  0  0
  6 20  1  0  0  0  0
  7  8  2  0  0  0  0
  8  9  1  0  0  0  0
  8 19  1  0  0  0  0
  9 10  2  0  0  0  0
  9 14  1  0  0  0  0
 10 11  1  0  0  0  0
 10 18  1  0  0  0  0
 11 12  2  0  0  0  0
 11 17  1  0  0  0  0
 12 13  1  0  0  0  0
 12 16  1  0  0  0  0
 13 14  2  0  0  0  0
 13 15  1  0  0  0  0
 21 22  2  0  0  0  0
 23 21  1  1  0  0  0
 23 24  1  0  0  0  0
 23 44  1  0  0  0  0
 24 25  1  0  0  0  0
 24 48  1  0  0  0  0
 24 49  1  0  0  0  0
 25 26  1  0  0  0  0
 25 36  1  0  0  0  0
 26 27  1  0  0  0  0
 26 34  1  0  0  0  0
 26 35  1  0  0  0  0
 27 28  1  0  0  0  0
 27 31  2  0  0  0  0
 28 29  2  0  0  0  0
 28 33  1  0  0  0  0
 29 30  1  0  0  0  0
 30 31  1  0  0  0  0
 30 32  1  0  0  0  0
 36 37  2  0  0  0  0
 36 38  1  0  0  0  0
 38 39  2  0  0  0  0
 38 44  1  0  0  0  0
 39 40  1  0  0  0  0
 39 47  1  0  0  0  0
 40 41  2  0  0  0  0
 40 46  1  0  0  0  0
 41 42  1  0  0  0  0
 41 43  1  0  0  0  0
 43 44  2  0  0  0  0
 43 45  1  0  0  0  0
M  END
>  <MODEL>
       1

$$$$
