tmp_first_model_5_16.pdb
 OpenBabel08272519223D

 61 66  0  0  1  0  0  0  0  0999 V2000
   -7.2880    3.3160  -21.8010 C   0  0  0  0  0  0  0  0  0  0  0  0
   -8.1810    2.8800  -22.8630 N   0  0  0  0  0  0  0  0  0  0  0  0
   -7.6470    2.2130  -23.9200 C   0  0  0  0  0  0  0  0  0  0  0  0
   -6.4440    2.0700  -24.0600 O   0  0  0  0  0  0  0  0  0  0  0  0
   -8.6480    1.6420  -24.9330 C   0  0  0  0  0  0  0  0  0  0  0  0
   -9.3370    0.4850  -24.3870 N   0  0  0  0  0  0  0  0  0  0  0  0
   -8.5910   -0.7550  -24.2150 C   0  0  0  0  0  0  0  0  0  0  0  0
   -9.0170   -1.5110  -22.9240 C   0  0  2  0  0  0  0  0  0  0  0  0
   -8.4910   -0.7750  -21.6700 C   0  0  0  0  0  0  0  0  0  0  0  0
   -8.9050    0.2520  -21.1710 O   0  0  0  0  0  0  0  0  0  0  0  0
   -7.4080   -1.4730  -21.1860 N   0  0  0  0  0  0  0  0  0  0  0  0
   -6.5600   -0.9420  -20.1880 C   0  0  0  0  0  0  0  0  0  0  0  0
   -6.8380   -1.1510  -18.8610 C   0  0  0  0  0  0  0  0  0  0  0  0
   -5.9620   -0.8950  -17.8570 N   0  0  0  0  0  0  0  0  0  0  0  0
   -4.7910   -0.4030  -18.1980 C   0  0  0  0  0  0  0  0  0  0  0  0
   -4.4340   -0.0310  -19.5290 C   0  0  0  0  0  0  0  0  0  0  0  0
   -3.2570    0.7150  -19.8200 C   0  0  0  0  0  0  0  0  0  0  0  0
   -3.1470    1.4010  -21.0000 C   0  0  0  0  0  0  0  0  0  0  0  0
   -4.0880    1.1880  -22.0380 C   0  0  0  0  0  0  0  0  0  0  0  0
   -5.1220    0.3060  -21.8510 C   0  0  0  0  0  0  0  0  0  0  0  0
   -5.3740   -0.2380  -20.5580 C   0  0  0  0  0  0  0  0  0  0  0  0
   -5.7730    0.0390  -22.6780 H   0  0  0  0  0  0  0  0  0  0  0  0
   -3.9780    1.6870  -22.9940 H   0  0  0  0  0  0  0  0  0  0  0  0
   -2.2780    2.0210  -21.1930 H   0  0  0  0  0  0  0  0  0  0  0  0
   -2.5090    0.8220  -19.0460 H   0  0  0  0  0  0  0  0  0  0  0  0
   -4.0740   -0.2190  -17.3970 H   0  0  0  0  0  0  0  0  0  0  0  0
   -7.8080   -1.5450  -18.5600 H   0  0  0  0  0  0  0  0  0  0  0  0
   -7.0460   -2.6450  -21.9500 C   0  0  0  0  0  0  0  0  0  0  0  0
   -8.3010   -2.8900  -22.7910 C   0  0  2  0  0  0  0  0  0  0  0  0
   -7.9810   -3.6390  -24.0870 C   0  0  0  0  0  0  0  0  0  0  0  0
   -7.4590   -4.9640  -23.8060 N   0  0  0  0  0  0  0  0  0  0  0  0
   -8.2230   -5.9980  -23.5090 N   0  0  0  0  0  0  0  0  0  0  0  0
   -7.3130   -6.9290  -23.2670 C   0  0  0  0  0  0  0  0  0  0  0  0
   -6.0510   -6.4680  -23.3910 N   0  0  0  0  0  0  0  0  0  0  0  0
   -6.1710   -5.2140  -23.7310 N   0  0  0  0  0  0  0  0  0  0  0  0
   -7.5580   -7.9500  -23.0180 H   0  0  0  0  0  0  0  0  0  0  0  0
   -8.8730   -3.7610  -24.7030 H   0  0  0  0  0  0  0  0  0  0  0  0
   -7.2130   -3.1140  -24.6590 H   0  0  0  0  0  0  0  0  0  0  0  0
   -8.9510   -3.5430  -22.2070 H   0  0  0  0  0  0  0  0  0  0  0  0
   -6.8110   -3.5000  -21.3060 H   0  0  0  0  0  0  0  0  0  0  0  0
   -6.1570   -2.4740  -22.5790 H   0  0  0  0  0  0  0  0  0  0  0  0
  -10.5280   -1.5910  -22.9080 C   0  0  0  0  0  0  0  0  0  0  0  0
  -11.1800   -2.5080  -22.0740 C   0  0  0  0  0  0  0  0  0  0  0  0
  -12.5420   -2.7080  -22.2140 C   0  0  0  0  0  0  0  0  0  0  0  0
  -13.3360   -3.8630  -21.1870 Cl  0  0  0  0  0  0  0  0  0  0  0  0
  -13.2770   -2.0160  -23.1740 C   0  0  0  0  0  0  0  0  0  0  0  0
  -12.6660   -1.0030  -23.8830 C   0  0  0  0  0  0  0  0  0  0  0  0
  -11.3070   -0.7440  -23.7070 C   0  0  0  0  0  0  0  0  0  0  0  0
  -10.7050    0.4800  -24.3330 C   0  0  0  0  0  0  0  0  0  0  0  0
  -11.3900    1.4030  -24.7560 O   0  0  0  0  0  0  0  0  0  0  0  0
  -13.2250   -0.4020  -24.5900 H   0  0  0  0  0  0  0  0  0  0  0  0
  -14.3340   -2.2290  -23.3030 H   0  0  0  0  0  0  0  0  0  0  0  0
  -10.6500   -3.0590  -21.3060 H   0  0  0  0  0  0  0  0  0  0  0  0
   -7.5240   -0.5140  -24.1740 H   0  0  0  0  0  0  0  0  0  0  0  0
   -8.7630   -1.4090  -25.0830 H   0  0  0  0  0  0  0  0  0  0  0  0
   -8.0890    1.3780  -25.8380 H   0  0  0  0  0  0  0  0  0  0  0  0
   -9.4180    2.3700  -25.2070 H   0  0  0  0  0  0  0  0  0  0  0  0
   -9.1500    2.7210  -22.6270 H   0  0  0  0  0  0  0  0  0  0  0  0
   -6.5630    4.0290  -22.2010 H   0  0  0  0  0  0  0  0  0  0  0  0
   -7.8690    3.8100  -21.0210 H   0  0  0  0  0  0  0  0  0  0  0  0
   -6.7350    2.4670  -21.3720 H   0  0  0  0  0  0  0  0  0  0  0  0
  1  2  1  0  0  0  0
  1 59  1  0  0  0  0
  1 60  1  0  0  0  0
  1 61  1  0  0  0  0
  2  3  1  0  0  0  0
  2 58  1  0  0  0  0
  3  4  2  0  0  0  0
  3  5  1  0  0  0  0
  5  6  1  0  0  0  0
  5 56  1  0  0  0  0
  5 57  1  0  0  0  0
  6  7  1  0  0  0  0
  6 49  1  0  0  0  0
  7  8  1  0  0  0  0
  7 54  1  0  0  0  0
  7 55  1  0  0  0  0
  8  9  1  1  0  0  0
  8 29  1  0  0  0  0
  8 42  1  0  0  0  0
  9 10  2  0  0  0  0
  9 11  1  0  0  0  0
 11 12  1  0  0  0  0
 11 28  1  0  0  0  0
 12 13  2  0  0  0  0
 12 21  1  0  0  0  0
 13 14  1  0  0  0  0
 13 27  1  0  0  0  0
 14 15  2  0  0  0  0
 15 16  1  0  0  0  0
 15 26  1  0  0  0  0
 16 17  2  0  0  0  0
 16 21  1  0  0  0  0
 17 18  1  0  0  0  0
 17 25  1  0  0  0  0
 18 19  2  0  0  0  0
 18 24  1  0  0  0  0
 19 20  1  0  0  0  0
 19 23  1  0  0  0  0
 20 21  2  0  0  0  0
 20 22  1  0  0  0  0
 28 29  1  0  0  0  0
 28 40  1  0  0  0  0
 28 41  1  0  0  0  0
 29 30  1  0  0  0  0
 29 39  1  1  0  0  0
 30 31  1  0  0  0  0
 30 37  1  0  0  0  0
 30 38  1  0  0  0  0
 31 32  1  0  0  0  0
 31 35  1  0  0  0  0
 32 33  2  0  0  0  0
 33 34  1  0  0  0  0
 33 36  1  0  0  0  0
 34 35  2  0  0  0  0
 42 43  2  0  0  0  0
 42 48  1  0  0  0  0
 43 44  1  0  0  0  0
 43 53  1  0  0  0  0
 44 45  1  0  0  0  0
 44 46  2  0  0  0  0
 46 47  1  0  0  0  0
 46 52  1  0  0  0  0
 47 48  2  0  0  0  0
 47 51  1  0  0  0  0
 48 49  1  0  0  0  0
 49 50  2  0  0  0  0
M  END
>  <MODEL>
       1

$$$$
