tmp_first_model_10_88.pdb
 OpenBabel08272522163D

 40 42  0  0  0  0  0  0  0  0999 V2000
   -8.5740    0.6820  -21.3400 O   0  0  0  0  0  0  0  0  0  0  0  0
   -8.5640   -0.4730  -21.7380 C   0  0  0  0  0  0  0  0  0  0  0  0
   -7.4690   -1.4390  -21.2750 C   0  0  0  0  0  0  0  0  0  0  0  0
   -6.6390   -0.8230  -20.1880 C   0  0  0  0  0  0  0  0  0  0  0  0
   -6.9290   -1.0880  -18.8760 C   0  0  0  0  0  0  0  0  0  0  0  0
   -6.2490   -0.6030  -17.8070 N   0  0  0  0  0  0  0  0  0  0  0  0
   -5.2280    0.1790  -18.0610 C   0  0  0  0  0  0  0  0  0  0  0  0
   -4.8270    0.5670  -19.3710 C   0  0  0  0  0  0  0  0  0  0  0  0
   -3.7390    1.4490  -19.5970 C   0  0  0  0  0  0  0  0  0  0  0  0
   -3.4980    1.9480  -20.8460 C   0  0  0  0  0  0  0  0  0  0  0  0
   -4.3040    1.5440  -21.9370 C   0  0  0  0  0  0  0  0  0  0  0  0
   -5.3180    0.6350  -21.7600 C   0  0  0  0  0  0  0  0  0  0  0  0
   -5.5980    0.1100  -20.4670 C   0  0  0  0  0  0  0  0  0  0  0  0
   -5.9190    0.3330  -22.6120 H   0  0  0  0  0  0  0  0  0  0  0  0
   -4.1210    1.9700  -22.9190 H   0  0  0  0  0  0  0  0  0  0  0  0
   -2.7040    2.6710  -21.0100 H   0  0  0  0  0  0  0  0  0  0  0  0
   -3.1310    1.7610  -18.7470 H   0  0  0  0  0  0  0  0  0  0  0  0
   -4.6670    0.5540  -17.2020 H   0  0  0  0  0  0  0  0  0  0  0  0
   -7.7570   -1.7530  -18.6310 H   0  0  0  0  0  0  0  0  0  0  0  0
   -7.9680   -2.3380  -20.8860 H   0  0  0  0  0  0  0  0  0  0  0  0
   -6.8420   -1.7410  -22.1220 H   0  0  0  0  0  0  0  0  0  0  0  0
   -9.5620   -0.9400  -22.5730 N   0  0  0  0  0  0  0  0  0  0  0  0
  -10.8340   -0.2480  -22.3800 C   0  0  0  0  0  0  0  0  0  0  0  0
  -11.6820   -0.2640  -23.6270 C   0  0  0  0  0  0  0  0  0  0  0  0
  -11.9730   -1.7130  -24.0090 C   0  0  0  0  0  0  0  0  0  0  0  0
  -12.8780   -1.7850  -25.2220 C   0  0  0  0  0  0  0  0  0  0  0  0
  -14.0630   -1.1540  -24.9670 F   0  0  0  0  0  0  0  0  0  0  0  0
  -12.3040   -1.1360  -26.2770 F   0  0  0  0  0  0  0  0  0  0  0  0
  -13.1100   -2.8090  -25.5380 H   0  0  0  0  0  0  0  0  0  0  0  0
  -10.6490   -2.4640  -24.1940 C   0  0  0  0  0  0  0  0  0  0  0  0
   -9.7760   -2.3470  -22.9330 C   0  0  0  0  0  0  0  0  0  0  0  0
   -8.8260   -2.8540  -23.1130 H   0  0  0  0  0  0  0  0  0  0  0  0
  -10.2760   -2.8740  -22.0990 H   0  0  0  0  0  0  0  0  0  0  0  0
  -10.1030   -2.0540  -25.0530 H   0  0  0  0  0  0  0  0  0  0  0  0
  -10.8430   -3.5230  -24.4130 H   0  0  0  0  0  0  0  0  0  0  0  0
  -12.5380   -2.1950  -23.1940 H   0  0  0  0  0  0  0  0  0  0  0  0
  -11.1400    0.2410  -24.4330 H   0  0  0  0  0  0  0  0  0  0  0  0
  -12.6150    0.2840  -23.4470 H   0  0  0  0  0  0  0  0  0  0  0  0
  -11.3700   -0.8160  -21.6010 H   0  0  0  0  0  0  0  0  0  0  0  0
  -10.6270    0.7690  -22.0470 H   0  0  0  0  0  0  0  0  0  0  0  0
  1  2  2  0  0  0  0
  2  3  1  0  0  0  0
  2 22  1  0  0  0  0
  3  4  1  0  0  0  0
  3 20  1  0  0  0  0
  3 21  1  0  0  0  0
  4  5  2  0  0  0  0
  4 13  1  0  0  0  0
  5  6  1  0  0  0  0
  5 19  1  0  0  0  0
  6  7  2  0  0  0  0
  7  8  1  0  0  0  0
  7 18  1  0  0  0  0
  8  9  2  0  0  0  0
  8 13  1  0  0  0  0
  9 10  1  0  0  0  0
  9 17  1  0  0  0  0
 10 11  2  0  0  0  0
 10 16  1  0  0  0  0
 11 12  1  0  0  0  0
 11 15  1  0  0  0  0
 12 13  2  0  0  0  0
 12 14  1  0  0  0  0
 22 23  1  0  0  0  0
 22 31  1  0  0  0  0
 23 24  1  0  0  0  0
 23 39  1  0  0  0  0
 23 40  1  0  0  0  0
 24 25  1  0  0  0  0
 24 37  1  0  0  0  0
 24 38  1  0  0  0  0
 25 26  1  0  0  0  0
 25 30  1  0  0  0  0
 25 36  1  0  0  0  0
 26 27  1  0  0  0  0
 26 28  1  0  0  0  0
 26 29  1  0  0  0  0
 30 31  1  0  0  0  0
 30 34  1  0  0  0  0
 30 35  1  0  0  0  0
 31 32  1  0  0  0  0
 31 33  1  0  0  0  0
M  END
>  <MODEL>
       1

$$$$
