tmp_first_model_19_15.pdb
 OpenBabel08282503233D

 63 68  0  0  1  0  0  0  0  0999 V2000
   -7.5190    3.1730  -21.8740 C   0  0  0  0  0  0  0  0  0  0  0  0
   -8.6170    2.6930  -22.7020 N   0  0  0  0  0  0  0  0  0  0  0  0
   -8.2720    1.9470  -23.7930 C   0  0  0  0  0  0  0  0  0  0  0  0
   -7.1020    1.7330  -24.0890 O   0  0  0  0  0  0  0  0  0  0  0  0
   -9.4080    1.3710  -24.6380 C   0  0  0  0  0  0  0  0  0  0  0  0
   -9.9240    0.1620  -24.0230 N   0  0  0  0  0  0  0  0  0  0  0  0
   -9.0710   -1.0190  -23.9840 C   0  0  0  0  0  0  0  0  0  0  0  0
   -9.2360   -1.7760  -22.6410 C   0  0  2  0  0  0  0  0  0  0  0  0
   -8.6560   -0.9170  -21.4900 C   0  0  0  0  0  0  0  0  0  0  0  0
   -9.1820    0.0320  -20.9460 O   0  0  0  0  0  0  0  0  0  0  0  0
   -7.3950   -1.3940  -21.1970 N   0  0  0  0  0  0  0  0  0  0  0  0
   -6.6080   -0.8190  -20.1740 C   0  0  0  0  0  0  0  0  0  0  0  0
   -6.9230   -1.0490  -18.8590 C   0  0  0  0  0  0  0  0  0  0  0  0
   -6.2170   -0.5670  -17.8100 N   0  0  0  0  0  0  0  0  0  0  0  0
   -5.1780    0.1870  -18.0820 C   0  0  0  0  0  0  0  0  0  0  0  0
   -4.7430    0.5080  -19.4000 C   0  0  0  0  0  0  0  0  0  0  0  0
   -3.6190    1.3400  -19.6420 C   0  0  0  0  0  0  0  0  0  0  0  0
   -3.2450    1.6460  -20.9210 C   0  0  0  0  0  0  0  0  0  0  0  0
   -3.9750    1.1430  -22.0190 C   0  0  0  0  0  0  0  0  0  0  0  0
   -5.0720    0.3390  -21.8140 C   0  0  0  0  0  0  0  0  0  0  0  0
   -5.4770   -0.0070  -20.4940 C   0  0  0  0  0  0  0  0  0  0  0  0
   -5.6520    0.0020  -22.6690 H   0  0  0  0  0  0  0  0  0  0  0  0
   -3.6710    1.3970  -23.0300 H   0  0  0  0  0  0  0  0  0  0  0  0
   -2.3890    2.2910  -21.0970 H   0  0  0  0  0  0  0  0  0  0  0  0
   -3.0830    1.7380  -18.7850 H   0  0  0  0  0  0  0  0  0  0  0  0
   -4.6210    0.5900  -17.2370 H   0  0  0  0  0  0  0  0  0  0  0  0
   -7.7870   -1.6650  -18.6180 H   0  0  0  0  0  0  0  0  0  0  0  0
   -6.9980   -2.5570  -21.9660 C   0  0  0  0  0  0  0  0  0  0  0  0
   -8.3290   -3.0330  -22.5630 C   0  0  2  0  0  0  0  0  0  0  0  0
   -8.1480   -3.8060  -23.8740 C   0  0  0  0  0  0  0  0  0  0  0  0
   -7.4200   -5.0420  -23.6610 N   0  0  0  0  0  0  0  0  0  0  0  0
   -6.0870   -5.2340  -23.7770 C   0  0  0  0  0  0  0  0  0  0  0  0
   -5.8390   -6.5440  -23.4400 C   0  0  0  0  0  0  0  0  0  0  0  0
   -7.1110   -7.0640  -23.1280 C   0  0  0  0  0  0  0  0  0  0  0  0
   -8.0620   -6.1440  -23.2510 N   0  0  0  0  0  0  0  0  0  0  0  0
   -7.3770   -8.0740  -22.8330 H   0  0  0  0  0  0  0  0  0  0  0  0
   -4.8870   -7.0570  -23.4260 H   0  0  0  0  0  0  0  0  0  0  0  0
   -5.4240   -4.4360  -24.0900 H   0  0  0  0  0  0  0  0  0  0  0  0
   -7.5860   -3.2000  -24.5980 H   0  0  0  0  0  0  0  0  0  0  0  0
   -9.1180   -4.0700  -24.3060 H   0  0  0  0  0  0  0  0  0  0  0  0
   -8.7690   -3.7200  -21.8350 H   0  0  0  0  0  0  0  0  0  0  0  0
   -6.5460   -3.3200  -21.3220 H   0  0  0  0  0  0  0  0  0  0  0  0
   -6.2680   -2.3000  -22.7540 H   0  0  0  0  0  0  0  0  0  0  0  0
  -10.7220   -2.0250  -22.4570 C   0  0  0  0  0  0  0  0  0  0  0  0
  -11.1930   -3.0930  -21.6910 C   0  0  0  0  0  0  0  0  0  0  0  0
  -12.5480   -3.2550  -21.4760 C   0  0  0  0  0  0  0  0  0  0  0  0
  -13.0800   -4.5040  -20.3950 Cl  0  0  0  0  0  0  0  0  0  0  0  0
  -13.4920   -2.4080  -22.0490 C   0  0  0  0  0  0  0  0  0  0  0  0
  -13.0380   -1.3270  -22.7730 C   0  0  0  0  0  0  0  0  0  0  0  0
  -11.6730   -1.1280  -22.9660 C   0  0  0  0  0  0  0  0  0  0  0  0
  -11.2570    0.0940  -23.7230 C   0  0  0  0  0  0  0  0  0  0  0  0
  -12.0510    0.9670  -24.0410 O   0  0  0  0  0  0  0  0  0  0  0  0
  -13.7170   -0.5970  -23.1950 H   0  0  0  0  0  0  0  0  0  0  0  0
  -14.5500   -2.5950  -21.9140 H   0  0  0  0  0  0  0  0  0  0  0  0
  -10.5230   -3.8040  -21.2230 H   0  0  0  0  0  0  0  0  0  0  0  0
   -8.0340   -0.6960  -24.1280 H   0  0  0  0  0  0  0  0  0  0  0  0
   -9.3350   -1.7000  -24.8080 H   0  0  0  0  0  0  0  0  0  0  0  0
  -10.2470    2.0690  -24.7390 H   0  0  0  0  0  0  0  0  0  0  0  0
   -9.0040    1.1460  -25.6360 H   0  0  0  0  0  0  0  0  0  0  0  0
   -9.5080    2.5230  -22.2450 H   0  0  0  0  0  0  0  0  0  0  0  0
   -7.8610    4.0190  -21.2690 H   0  0  0  0  0  0  0  0  0  0  0  0
   -6.7340    3.5290  -22.5460 H   0  0  0  0  0  0  0  0  0  0  0  0
   -7.1080    2.3720  -21.2300 H   0  0  0  0  0  0  0  0  0  0  0  0
  1  2  1  0  0  0  0
  1 61  1  0  0  0  0
  1 62  1  0  0  0  0
  1 63  1  0  0  0  0
  2  3  1  0  0  0  0
  2 60  1  0  0  0  0
  3  4  2  0  0  0  0
  3  5  1  0  0  0  0
  5  6  1  0  0  0  0
  5 58  1  0  0  0  0
  5 59  1  0  0  0  0
  6  7  1  0  0  0  0
  6 51  1  0  0  0  0
  7  8  1  0  0  0  0
  7 56  1  0  0  0  0
  7 57  1  0  0  0  0
  8  9  1  1  0  0  0
  8 29  1  0  0  0  0
  8 44  1  0  0  0  0
  9 10  2  0  0  0  0
  9 11  1  0  0  0  0
 11 12  1  0  0  0  0
 11 28  1  0  0  0  0
 12 13  2  0  0  0  0
 12 21  1  0  0  0  0
 13 14  1  0  0  0  0
 13 27  1  0  0  0  0
 14 15  2  0  0  0  0
 15 16  1  0  0  0  0
 15 26  1  0  0  0  0
 16 17  2  0  0  0  0
 16 21  1  0  0  0  0
 17 18  1  0  0  0  0
 17 25  1  0  0  0  0
 18 19  2  0  0  0  0
 18 24  1  0  0  0  0
 19 20  1  0  0  0  0
 19 23  1  0  0  0  0
 20 21  2  0  0  0  0
 20 22  1  0  0  0  0
 28 29  1  0  0  0  0
 28 42  1  0  0  0  0
 28 43  1  0  0  0  0
 29 30  1  0  0  0  0
 29 41  1  1  0  0  0
 30 31  1  0  0  0  0
 30 39  1  0  0  0  0
 30 40  1  0  0  0  0
 31 32  1  0  0  0  0
 31 35  1  0  0  0  0
 32 33  2  0  0  0  0
 32 38  1  0  0  0  0
 33 34  1  0  0  0  0
 33 37  1  0  0  0  0
 34 35  2  0  0  0  0
 34 36  1  0  0  0  0
 44 45  2  0  0  0  0
 44 50  1  0  0  0  0
 45 46  1  0  0  0  0
 45 55  1  0  0  0  0
 46 47  1  0  0  0  0
 46 48  2  0  0  0  0
 48 49  1  0  0  0  0
 48 54  1  0  0  0  0
 49 50  2  0  0  0  0
 49 53  1  0  0  0  0
 50 51  1  0  0  0  0
 51 52  2  0  0  0  0
M  END
>  <MODEL>
       1

$$$$
