tmp_first_model_2_16.pdb
 OpenBabel08272517383D

 61 66  0  0  1  0  0  0  0  0999 V2000
   -7.3750    3.4000  -21.8070 C   0  0  0  0  0  0  0  0  0  0  0  0
   -8.2350    2.9380  -22.8840 N   0  0  0  0  0  0  0  0  0  0  0  0
   -7.6620    2.2450  -23.8960 C   0  0  0  0  0  0  0  0  0  0  0  0
   -6.4470    2.1310  -24.0050 O   0  0  0  0  0  0  0  0  0  0  0  0
   -8.6150    1.6230  -24.9250 C   0  0  0  0  0  0  0  0  0  0  0  0
   -9.3440    0.4680  -24.4310 N   0  0  0  0  0  0  0  0  0  0  0  0
   -8.6350   -0.7880  -24.2580 C   0  0  0  0  0  0  0  0  0  0  0  0
   -9.0350   -1.4970  -22.9370 C   0  0  2  0  0  0  0  0  0  0  0  0
   -8.4860   -0.7070  -21.7200 C   0  0  0  0  0  0  0  0  0  0  0  0
   -8.9130    0.3360  -21.2650 O   0  0  0  0  0  0  0  0  0  0  0  0
   -7.4000   -1.3820  -21.2060 N   0  0  0  0  0  0  0  0  0  0  0  0
   -6.6040   -0.8100  -20.1760 C   0  0  0  0  0  0  0  0  0  0  0  0
   -6.9100   -1.0420  -18.8590 C   0  0  0  0  0  0  0  0  0  0  0  0
   -6.2080   -0.5480  -17.8090 N   0  0  0  0  0  0  0  0  0  0  0  0
   -5.1700    0.2100  -18.0760 C   0  0  0  0  0  0  0  0  0  0  0  0
   -4.7320    0.5310  -19.3920 C   0  0  0  0  0  0  0  0  0  0  0  0
   -3.6040    1.3650  -19.6370 C   0  0  0  0  0  0  0  0  0  0  0  0
   -3.2170    1.6530  -20.9190 C   0  0  0  0  0  0  0  0  0  0  0  0
   -3.9370    1.1240  -22.0110 C   0  0  0  0  0  0  0  0  0  0  0  0
   -5.0320    0.3170  -21.8000 C   0  0  0  0  0  0  0  0  0  0  0  0
   -5.4650    0.0040  -20.4820 C   0  0  0  0  0  0  0  0  0  0  0  0
   -5.5880   -0.0690  -22.6480 H   0  0  0  0  0  0  0  0  0  0  0  0
   -3.6440    1.3670  -23.0280 H   0  0  0  0  0  0  0  0  0  0  0  0
   -2.3630    2.3020  -21.0990 H   0  0  0  0  0  0  0  0  0  0  0  0
   -3.0750    1.7760  -18.7820 H   0  0  0  0  0  0  0  0  0  0  0  0
   -4.6220    0.6130  -17.2250 H   0  0  0  0  0  0  0  0  0  0  0  0
   -7.7610   -1.6690  -18.6030 H   0  0  0  0  0  0  0  0  0  0  0  0
   -7.0710   -2.6040  -21.9080 C   0  0  0  0  0  0  0  0  0  0  0  0
   -8.3150   -2.8720  -22.7770 C   0  0  2  0  0  0  0  0  0  0  0  0
   -7.9520   -3.6260  -24.0750 C   0  0  0  0  0  0  0  0  0  0  0  0
   -7.4250   -4.9560  -23.7900 N   0  0  0  0  0  0  0  0  0  0  0  0
   -8.1940   -5.9980  -23.5590 N   0  0  0  0  0  0  0  0  0  0  0  0
   -7.2950   -6.9330  -23.2980 C   0  0  0  0  0  0  0  0  0  0  0  0
   -6.0310   -6.4690  -23.3710 N   0  0  0  0  0  0  0  0  0  0  0  0
   -6.1380   -5.2080  -23.6890 N   0  0  0  0  0  0  0  0  0  0  0  0
   -7.5590   -7.9510  -23.0350 H   0  0  0  0  0  0  0  0  0  0  0  0
   -8.8290   -3.7830  -24.7090 H   0  0  0  0  0  0  0  0  0  0  0  0
   -7.1650   -3.1120  -24.6350 H   0  0  0  0  0  0  0  0  0  0  0  0
   -8.9880   -3.5280  -22.2200 H   0  0  0  0  0  0  0  0  0  0  0  0
   -6.8690   -3.4230  -21.2090 H   0  0  0  0  0  0  0  0  0  0  0  0
   -6.1660   -2.4820  -22.5280 H   0  0  0  0  0  0  0  0  0  0  0  0
  -10.5530   -1.5310  -22.8660 C   0  0  0  0  0  0  0  0  0  0  0  0
  -11.1950   -2.3990  -21.9730 C   0  0  0  0  0  0  0  0  0  0  0  0
  -12.5750   -2.4110  -21.8890 C   0  0  0  0  0  0  0  0  0  0  0  0
  -13.3570   -3.4910  -20.7710 Cl  0  0  0  0  0  0  0  0  0  0  0  0
  -13.3590   -1.5510  -22.6560 C   0  0  0  0  0  0  0  0  0  0  0  0
  -12.7310   -0.6400  -23.4810 C   0  0  0  0  0  0  0  0  0  0  0  0
  -11.3390   -0.6020  -23.5630 C   0  0  0  0  0  0  0  0  0  0  0  0
  -10.7100    0.5280  -24.3230 C   0  0  0  0  0  0  0  0  0  0  0  0
  -11.3700    1.4520  -24.7730 O   0  0  0  0  0  0  0  0  0  0  0  0
  -13.2910    0.0850  -24.0610 H   0  0  0  0  0  0  0  0  0  0  0  0
  -14.4390   -1.5810  -22.5680 H   0  0  0  0  0  0  0  0  0  0  0  0
  -10.6290   -3.0380  -21.3080 H   0  0  0  0  0  0  0  0  0  0  0  0
   -7.5670   -0.5480  -24.2370 H   0  0  0  0  0  0  0  0  0  0  0  0
   -8.8350   -1.4630  -25.1080 H   0  0  0  0  0  0  0  0  0  0  0  0
   -7.9800    1.3520  -25.7760 H   0  0  0  0  0  0  0  0  0  0  0  0
   -9.3820    2.3310  -25.2570 H   0  0  0  0  0  0  0  0  0  0  0  0
   -9.2350    2.8740  -22.7420 H   0  0  0  0  0  0  0  0  0  0  0  0
   -6.6780    4.1670  -22.1670 H   0  0  0  0  0  0  0  0  0  0  0  0
   -8.0030    3.8410  -21.0320 H   0  0  0  0  0  0  0  0  0  0  0  0
   -6.7830    2.5570  -21.4120 H   0  0  0  0  0  0  0  0  0  0  0  0
  1  2  1  0  0  0  0
  1 59  1  0  0  0  0
  1 60  1  0  0  0  0
  1 61  1  0  0  0  0
  2  3  1  0  0  0  0
  2 58  1  0  0  0  0
  3  4  2  0  0  0  0
  3  5  1  0  0  0  0
  5  6  1  0  0  0  0
  5 56  1  0  0  0  0
  5 57  1  0  0  0  0
  6  7  1  0  0  0  0
  6 49  1  0  0  0  0
  7  8  1  0  0  0  0
  7 54  1  0  0  0  0
  7 55  1  0  0  0  0
  8  9  1  1  0  0  0
  8 29  1  0  0  0  0
  8 42  1  0  0  0  0
  9 10  2  0  0  0  0
  9 11  1  0  0  0  0
 11 12  1  0  0  0  0
 11 28  1  0  0  0  0
 12 13  2  0  0  0  0
 12 21  1  0  0  0  0
 13 14  1  0  0  0  0
 13 27  1  0  0  0  0
 14 15  2  0  0  0  0
 15 16  1  0  0  0  0
 15 26  1  0  0  0  0
 16 17  2  0  0  0  0
 16 21  1  0  0  0  0
 17 18  1  0  0  0  0
 17 25  1  0  0  0  0
 18 19  2  0  0  0  0
 18 24  1  0  0  0  0
 19 20  1  0  0  0  0
 19 23  1  0  0  0  0
 20 21  2  0  0  0  0
 20 22  1  0  0  0  0
 28 29  1  0  0  0  0
 28 40  1  0  0  0  0
 28 41  1  0  0  0  0
 29 30  1  0  0  0  0
 29 39  1  1  0  0  0
 30 31  1  0  0  0  0
 30 37  1  0  0  0  0
 30 38  1  0  0  0  0
 31 32  1  0  0  0  0
 31 35  1  0  0  0  0
 32 33  2  0  0  0  0
 33 34  1  0  0  0  0
 33 36  1  0  0  0  0
 34 35  2  0  0  0  0
 42 43  2  0  0  0  0
 42 48  1  0  0  0  0
 43 44  1  0  0  0  0
 43 53  1  0  0  0  0
 44 45  1  0  0  0  0
 44 46  2  0  0  0  0
 46 47  1  0  0  0  0
 46 52  1  0  0  0  0
 47 48  2  0  0  0  0
 47 51  1  0  0  0  0
 48 49  1  0  0  0  0
 49 50  2  0  0  0  0
M  END
>  <MODEL>
       1

$$$$
