tmp_first_model_20_37.pdb
 OpenBabel08282503553D

 56 60  0  0  1  0  0  0  0  0999 V2000
  -14.5690   -1.4830  -23.7280 C   0  0  0  0  0  0  0  0  0  0  0  0
  -13.8390   -2.6060  -23.2040 N   0  0  0  0  0  0  0  0  0  0  0  0
  -13.4080   -2.6400  -21.9260 C   0  0  0  0  0  0  0  0  0  0  0  0
  -13.7560   -1.8160  -21.0990 O   0  0  0  0  0  0  0  0  0  0  0  0
  -12.4800   -3.8250  -21.6520 C   0  0  0  0  0  0  0  0  0  0  0  0
  -11.1600   -3.7540  -22.2760 N   0  0  0  0  0  0  0  0  0  0  0  0
  -10.0100   -3.3170  -21.4820 C   0  0  0  0  0  0  0  0  0  0  0  0
   -8.8130   -2.8750  -22.3550 C   0  0  2  0  0  0  0  0  0  0  0  0
   -7.5890   -2.6800  -21.4520 C   0  0  0  0  0  0  0  0  0  0  0  0
   -6.8610   -3.5480  -21.0170 O   0  0  0  0  0  0  0  0  0  0  0  0
   -7.4110   -1.3320  -21.2350 N   0  0  0  0  0  0  0  0  0  0  0  0
   -6.5910   -0.8530  -20.1870 C   0  0  0  0  0  0  0  0  0  0  0  0
   -6.9070   -1.1020  -18.8750 C   0  0  0  0  0  0  0  0  0  0  0  0
   -6.2400   -0.5730  -17.8170 N   0  0  0  0  0  0  0  0  0  0  0  0
   -5.2120    0.1950  -18.0830 C   0  0  0  0  0  0  0  0  0  0  0  0
   -4.7550    0.5030  -19.3970 C   0  0  0  0  0  0  0  0  0  0  0  0
   -3.6220    1.3240  -19.6310 C   0  0  0  0  0  0  0  0  0  0  0  0
   -3.2240    1.5980  -20.9100 C   0  0  0  0  0  0  0  0  0  0  0  0
   -3.9300    1.0650  -22.0120 C   0  0  0  0  0  0  0  0  0  0  0  0
   -5.0270    0.2640  -21.8120 C   0  0  0  0  0  0  0  0  0  0  0  0
   -5.4660   -0.0290  -20.4930 C   0  0  0  0  0  0  0  0  0  0  0  0
   -5.5630   -0.1530  -22.6590 H   0  0  0  0  0  0  0  0  0  0  0  0
   -3.6050    1.2970  -23.0220 H   0  0  0  0  0  0  0  0  0  0  0  0
   -2.3660    2.2390  -21.0910 H   0  0  0  0  0  0  0  0  0  0  0  0
   -3.0880    1.7260  -18.7750 H   0  0  0  0  0  0  0  0  0  0  0  0
   -4.6740    0.6130  -17.2330 H   0  0  0  0  0  0  0  0  0  0  0  0
   -7.7540   -1.7400  -18.6320 H   0  0  0  0  0  0  0  0  0  0  0  0
   -8.3990   -0.4910  -21.8940 C   0  0  0  0  0  0  0  0  0  0  0  0
   -9.0140   -1.4300  -22.9440 C   0  0  2  0  0  0  0  0  0  0  0  0
  -10.4540   -1.0810  -23.2970 C   0  0  0  0  0  0  0  0  0  0  0  0
  -10.8630   -1.8430  -23.9650 H   0  0  0  0  0  0  0  0  0  0  0  0
  -10.5380   -0.1080  -23.7880 H   0  0  0  0  0  0  0  0  0  0  0  0
  -11.0780   -1.0690  -22.3950 H   0  0  0  0  0  0  0  0  0  0  0  0
   -8.3920   -1.3910  -23.8510 H   0  0  0  0  0  0  0  0  0  0  0  0
   -9.1570   -0.1270  -21.1770 H   0  0  0  0  0  0  0  0  0  0  0  0
   -7.9240    0.3880  -22.3450 H   0  0  0  0  0  0  0  0  0  0  0  0
   -8.5560   -3.9270  -23.4000 C   0  0  0  0  0  0  0  0  0  0  0  0
   -7.2810   -4.0910  -23.9530 C   0  0  0  0  0  0  0  0  0  0  0  0
   -7.0610   -5.0350  -24.9430 C   0  0  0  0  0  0  0  0  0  0  0  0
   -8.1010   -5.8570  -25.3810 C   0  0  0  0  0  0  0  0  0  0  0  0
   -9.3740   -5.6800  -24.8670 C   0  0  0  0  0  0  0  0  0  0  0  0
   -9.5990   -4.7150  -23.8870 C   0  0  0  0  0  0  0  0  0  0  0  0
  -10.9930   -4.5190  -23.4010 C   0  0  0  0  0  0  0  0  0  0  0  0
  -11.9480   -5.0000  -24.0030 O   0  0  0  0  0  0  0  0  0  0  0  0
  -10.2220   -6.2670  -25.2060 H   0  0  0  0  0  0  0  0  0  0  0  0
   -7.9140   -6.6410  -26.1120 H   0  0  0  0  0  0  0  0  0  0  0  0
   -6.0590   -5.1740  -25.3400 H   0  0  0  0  0  0  0  0  0  0  0  0
   -6.4450   -3.5110  -23.5710 H   0  0  0  0  0  0  0  0  0  0  0  0
  -10.2890   -2.4430  -20.8840 H   0  0  0  0  0  0  0  0  0  0  0  0
   -9.7020   -4.1320  -20.8150 H   0  0  0  0  0  0  0  0  0  0  0  0
  -12.4000   -4.0170  -20.5840 H   0  0  0  0  0  0  0  0  0  0  0  0
  -12.9950   -4.6640  -22.1200 H   0  0  0  0  0  0  0  0  0  0  0  0
  -13.6730   -3.4250  -23.7550 H   0  0  0  0  0  0  0  0  0  0  0  0
  -13.9200   -0.6040  -23.7650 H   0  0  0  0  0  0  0  0  0  0  0  0
  -15.4210   -1.2510  -23.0860 H   0  0  0  0  0  0  0  0  0  0  0  0
  -14.9090   -1.7260  -24.7350 H   0  0  0  0  0  0  0  0  0  0  0  0
  1  2  1  0  0  0  0
  1 54  1  0  0  0  0
  1 55  1  0  0  0  0
  1 56  1  0  0  0  0
  2  3  1  0  0  0  0
  2 53  1  0  0  0  0
  3  4  2  0  0  0  0
  3  5  1  0  0  0  0
  5  6  1  0  0  0  0
  5 51  1  0  0  0  0
  5 52  1  0  0  0  0
  6  7  1  0  0  0  0
  6 43  1  0  0  0  0
  7  8  1  0  0  0  0
  7 49  1  0  0  0  0
  7 50  1  0  0  0  0
  8  9  1  1  0  0  0
  8 29  1  0  0  0  0
  8 37  1  0  0  0  0
  9 10  2  0  0  0  0
  9 11  1  0  0  0  0
 11 12  1  0  0  0  0
 11 28  1  0  0  0  0
 12 13  2  0  0  0  0
 12 21  1  0  0  0  0
 13 14  1  0  0  0  0
 13 27  1  0  0  0  0
 14 15  2  0  0  0  0
 15 16  1  0  0  0  0
 15 26  1  0  0  0  0
 16 17  2  0  0  0  0
 16 21  1  0  0  0  0
 17 18  1  0  0  0  0
 17 25  1  0  0  0  0
 18 19  2  0  0  0  0
 18 24  1  0  0  0  0
 19 20  1  0  0  0  0
 19 23  1  0  0  0  0
 20 21  2  0  0  0  0
 20 22  1  0  0  0  0
 28 29  1  0  0  0  0
 28 35  1  0  0  0  0
 28 36  1  0  0  0  0
 29 30  1  0  0  0  0
 29 34  1  6  0  0  0
 30 31  1  0  0  0  0
 30 32  1  0  0  0  0
 30 33  1  0  0  0  0
 37 38  2  0  0  0  0
 37 42  1  0  0  0  0
 38 39  1  0  0  0  0
 38 48  1  0  0  0  0
 39 40  2  0  0  0  0
 39 47  1  0  0  0  0
 40 41  1  0  0  0  0
 40 46  1  0  0  0  0
 41 42  2  0  0  0  0
 41 45  1  0  0  0  0
 42 43  1  0  0  0  0
 43 44  2  0  0  0  0
M  END
>  <MODEL>
       1

$$$$
