tmp_first_model_7_36.pdb
 OpenBabel08272520323D

 47 50  0  0  1  0  0  0  0  0999 V2000
   -6.0910   -3.4690  -21.2140 O   0  0  0  0  0  0  0  0  0  0  0  0
   -6.6470   -2.6600  -21.9360 C   0  0  0  0  0  0  0  0  0  0  0  0
   -7.3870   -1.4620  -21.2920 C   0  0  0  0  0  0  0  0  0  0  0  0
   -6.5770   -0.8250  -20.1830 C   0  0  0  0  0  0  0  0  0  0  0  0
   -6.8710   -1.0460  -18.8620 C   0  0  0  0  0  0  0  0  0  0  0  0
   -6.1820   -0.5410  -17.8020 N   0  0  0  0  0  0  0  0  0  0  0  0
   -5.1540    0.2240  -18.0680 C   0  0  0  0  0  0  0  0  0  0  0  0
   -4.7180    0.5330  -19.3830 C   0  0  0  0  0  0  0  0  0  0  0  0
   -3.5880    1.3530  -19.6240 C   0  0  0  0  0  0  0  0  0  0  0  0
   -3.1910    1.6350  -20.9020 C   0  0  0  0  0  0  0  0  0  0  0  0
   -3.9120    1.1010  -21.9940 C   0  0  0  0  0  0  0  0  0  0  0  0
   -5.0060    0.2980  -21.7880 C   0  0  0  0  0  0  0  0  0  0  0  0
   -5.4470   -0.0040  -20.4740 C   0  0  0  0  0  0  0  0  0  0  0  0
   -5.5420   -0.1100  -22.6410 H   0  0  0  0  0  0  0  0  0  0  0  0
   -3.5950    1.3330  -23.0050 H   0  0  0  0  0  0  0  0  0  0  0  0
   -2.3340    2.2780  -21.0860 H   0  0  0  0  0  0  0  0  0  0  0  0
   -3.0580    1.7720  -18.7720 H   0  0  0  0  0  0  0  0  0  0  0  0
   -4.6030    0.6280  -17.2160 H   0  0  0  0  0  0  0  0  0  0  0  0
   -7.7190   -1.6690  -18.5820 H   0  0  0  0  0  0  0  0  0  0  0  0
   -8.3120   -1.8630  -20.8610 H   0  0  0  0  0  0  0  0  0  0  0  0
   -7.6900   -0.7100  -22.0290 H   0  0  0  0  0  0  0  0  0  0  0  0
   -6.6120   -2.7870  -23.3130 N   0  0  0  0  0  0  0  0  0  0  0  0
   -5.5610   -3.6040  -23.9120 C   0  0  0  0  0  0  0  0  0  0  0  0
   -6.0990   -4.6280  -24.9080 C   0  0  0  0  0  0  0  0  0  0  0  0
   -7.0960   -4.0160  -25.9090 C   0  0  0  0  0  0  0  0  0  0  0  0
   -7.2800   -2.5180  -25.6770 C   0  0  0  0  0  0  0  0  0  0  0  0
   -7.5710   -2.1520  -24.2120 C   0  0  1  0  0  0  0  0  0  0  0  0
   -9.0140   -2.4600  -23.8320 C   0  0  0  0  0  0  0  0  0  0  0  0
   -9.4020   -3.7270  -23.3990 C   0  0  0  0  0  0  0  0  0  0  0  0
  -10.7300   -3.9990  -23.0900 C   0  0  0  0  0  0  0  0  0  0  0  0
  -11.7000   -3.0110  -23.2100 C   0  0  0  0  0  0  0  0  0  0  0  0
  -11.3250   -1.7490  -23.6470 C   0  0  0  0  0  0  0  0  0  0  0  0
   -9.9970   -1.4810  -23.9720 C   0  0  0  0  0  0  0  0  0  0  0  0
   -9.7370   -0.4980  -24.3610 H   0  0  0  0  0  0  0  0  0  0  0  0
  -12.0810   -0.9780  -23.7630 H   0  0  0  0  0  0  0  0  0  0  0  0
  -12.7390   -3.2230  -22.9700 H   0  0  0  0  0  0  0  0  0  0  0  0
  -11.0070   -4.9830  -22.7340 H   0  0  0  0  0  0  0  0  0  0  0  0
   -8.6580   -4.5100  -23.2920 H   0  0  0  0  0  0  0  0  0  0  0  0
   -7.4430   -1.0640  -24.1370 H   0  0  0  0  0  0  0  0  0  0  0  0
   -6.4020   -1.9660  -26.0310 H   0  0  0  0  0  0  0  0  0  0  0  0
   -8.1060   -2.1550  -26.2890 H   0  0  0  0  0  0  0  0  0  0  0  0
   -8.0670   -4.5160  -25.8210 H   0  0  0  0  0  0  0  0  0  0  0  0
   -6.7650   -4.1820  -26.9400 H   0  0  0  0  0  0  0  0  0  0  0  0
   -5.2520   -5.0740  -25.4370 H   0  0  0  0  0  0  0  0  0  0  0  0
   -6.5710   -5.4470  -24.3600 H   0  0  0  0  0  0  0  0  0  0  0  0
   -4.8490   -2.9420  -24.4210 H   0  0  0  0  0  0  0  0  0  0  0  0
   -5.0280   -4.0960  -23.1020 H   0  0  0  0  0  0  0  0  0  0  0  0
  1  2  2  0  0  0  0
  2  3  1  0  0  0  0
  2 22  1  0  0  0  0
  3  4  1  0  0  0  0
  3 20  1  0  0  0  0
  3 21  1  0  0  0  0
  4  5  2  0  0  0  0
  4 13  1  0  0  0  0
  5  6  1  0  0  0  0
  5 19  1  0  0  0  0
  6  7  2  0  0  0  0
  7  8  1  0  0  0  0
  7 18  1  0  0  0  0
  8  9  2  0  0  0  0
  8 13  1  0  0  0  0
  9 10  1  0  0  0  0
  9 17  1  0  0  0  0
 10 11  2  0  0  0  0
 10 16  1  0  0  0  0
 11 12  1  0  0  0  0
 11 15  1  0  0  0  0
 12 13  2  0  0  0  0
 12 14  1  0  0  0  0
 22 23  1  0  0  0  0
 22 27  1  0  0  0  0
 23 24  1  0  0  0  0
 23 46  1  0  0  0  0
 23 47  1  0  0  0  0
 24 25  1  0  0  0  0
 24 44  1  0  0  0  0
 24 45  1  0  0  0  0
 25 26  1  0  0  0  0
 25 42  1  0  0  0  0
 25 43  1  0  0  0  0
 26 27  1  0  0  0  0
 26 40  1  0  0  0  0
 26 41  1  0  0  0  0
 27 28  1  0  0  0  0
 27 39  1  1  0  0  0
 28 29  2  0  0  0  0
 28 33  1  0  0  0  0
 29 30  1  0  0  0  0
 29 38  1  0  0  0  0
 30 31  2  0  0  0  0
 30 37  1  0  0  0  0
 31 32  1  0  0  0  0
 31 36  1  0  0  0  0
 32 33  2  0  0  0  0
 32 35  1  0  0  0  0
 33 34  1  0  0  0  0
M  END
>  <MODEL>
       1

$$$$
