tmp_first_model_11_17.pdb
 OpenBabel08272522543D

 38 41  0  0  1  0  0  0  0  0999 V2000
  -11.8750   -3.4270  -24.6670 C   0  0  0  0  0  0  0  0  0  0  0  0
  -10.4620   -2.9810  -24.2830 C   0  0  2  0  0  0  0  0  0  0  0  0
   -9.4910   -4.1590  -24.3110 C   0  0  0  0  0  0  0  0  0  0  0  0
   -8.0540   -3.7130  -24.0340 C   0  0  0  0  0  0  0  0  0  0  0  0
   -7.9930   -2.8080  -22.8880 C   0  0  0  0  0  0  0  0  0  0  0  0
   -6.8420   -2.4270  -22.1230 C   0  0  0  0  0  0  0  0  0  0  0  0
   -5.6900   -2.7900  -22.2110 O   0  5  0  0  0  0  0  0  0  0  0  0
   -7.3510   -1.4700  -21.1980 N   0  0  0  0  0  0  0  0  0  0  0  0
   -6.5790   -0.8420  -20.1810 C   0  0  0  0  0  0  0  0  0  0  0  0
   -6.8910   -1.0510  -18.8620 C   0  0  0  0  0  0  0  0  0  0  0  0
   -6.1960   -0.5410  -17.8120 N   0  0  0  0  0  0  0  0  0  0  0  0
   -5.1610    0.2150  -18.0750 C   0  0  0  0  0  0  0  0  0  0  0  0
   -4.7280    0.5310  -19.3910 C   0  0  0  0  0  0  0  0  0  0  0  0
   -3.5980    1.3620  -19.6290 C   0  0  0  0  0  0  0  0  0  0  0  0
   -3.2190    1.6670  -20.9060 C   0  0  0  0  0  0  0  0  0  0  0  0
   -3.9520    1.1580  -22.0020 C   0  0  0  0  0  0  0  0  0  0  0  0
   -5.0470    0.3590  -21.7960 C   0  0  0  0  0  0  0  0  0  0  0  0
   -5.4600    0.0050  -20.4840 C   0  0  0  0  0  0  0  0  0  0  0  0
   -5.6110   -0.0240  -22.6390 H   0  0  0  0  0  0  0  0  0  0  0  0
   -3.6540    1.4100  -23.0160 H   0  0  0  0  0  0  0  0  0  0  0  0
   -2.3660    2.3170  -21.0930 H   0  0  0  0  0  0  0  0  0  0  0  0
   -3.0610    1.7720  -18.7760 H   0  0  0  0  0  0  0  0  0  0  0  0
   -4.6100    0.6200  -17.2220 H   0  0  0  0  0  0  0  0  0  0  0  0
   -7.7380   -1.6740  -18.5900 H   0  0  0  0  0  0  0  0  0  0  0  0
   -8.7140   -1.2150  -21.4500 C   0  0  0  0  0  0  0  0  0  0  0  0
   -9.4130   -0.3700  -20.9450 O   0  0  0  0  0  0  0  0  0  0  0  0
   -9.0660   -2.1140  -22.4430 N   0  0  0  0  0  0  0  0  0  0  0  0
  -10.4310   -2.3150  -22.9070 C   0  0  0  0  0  0  0  0  0  0  0  0
  -10.9280   -1.3490  -22.9270 H   0  0  0  0  0  0  0  0  0  0  0  0
  -10.9890   -2.9180  -22.1870 H   0  0  0  0  0  0  0  0  0  0  0  0
   -7.6300   -3.2150  -24.9190 H   0  0  0  0  0  0  0  0  0  0  0  0
   -7.3940   -4.5620  -23.8360 H   0  0  0  0  0  0  0  0  0  0  0  0
   -9.8010   -4.8870  -23.5540 H   0  0  0  0  0  0  0  0  0  0  0  0
   -9.5410   -4.6660  -25.2800 H   0  0  0  0  0  0  0  0  0  0  0  0
  -10.1320   -2.2420  -25.0220 H   0  0  0  0  0  0  0  0  0  0  0  0
  -12.2540   -4.1880  -23.9740 H   0  0  0  0  0  0  0  0  0  0  0  0
  -12.5880   -2.5960  -24.6680 H   0  0  0  0  0  0  0  0  0  0  0  0
  -11.8940   -3.8740  -25.6680 H   0  0  0  0  0  0  0  0  0  0  0  0
  1  2  1  0  0  0  0
  1 36  1  0  0  0  0
  1 37  1  0  0  0  0
  1 38  1  0  0  0  0
  2  3  1  0  0  0  0
  2 28  1  0  0  0  0
  2 35  1  6  0  0  0
  3  4  1  0  0  0  0
  3 33  1  0  0  0  0
  3 34  1  0  0  0  0
  4  5  1  0  0  0  0
  4 31  1  0  0  0  0
  4 32  1  0  0  0  0
  5  6  2  0  0  0  0
  5 27  1  0  0  0  0
  6  7  1  0  0  0  0
  6  8  1  0  0  0  0
  8  9  1  0  0  0  0
  8 25  1  0  0  0  0
  9 10  2  0  0  0  0
  9 18  1  0  0  0  0
 10 11  1  0  0  0  0
 10 24  1  0  0  0  0
 11 12  2  0  0  0  0
 12 13  1  0  0  0  0
 12 23  1  0  0  0  0
 13 14  2  0  0  0  0
 13 18  1  0  0  0  0
 14 15  1  0  0  0  0
 14 22  1  0  0  0  0
 15 16  2  0  0  0  0
 15 21  1  0  0  0  0
 16 17  1  0  0  0  0
 16 20  1  0  0  0  0
 17 18  2  0  0  0  0
 17 19  1  0  0  0  0
 25 26  2  0  0  0  0
 25 27  1  0  0  0  0
 27 28  1  0  0  0  0
 28 29  1  0  0  0  0
 28 30  1  0  0  0  0
M  CHG  1   7  -1
M  END
>  <MODEL>
       1

$$$$
