tmp_first_model_13_87.pdb
 OpenBabel08282500103D

 59 64  0  0  1  0  0  0  0  0999 V2000
   -7.9450   -3.6830  -24.0260 C   0  0  0  0  0  0  0  0  0  0  0  0
   -8.3350   -2.8440  -22.8000 C   0  0  1  0  0  0  0  0  0  0  0  0
   -7.1510   -2.6480  -21.8290 C   0  0  0  0  0  0  0  0  0  0  0  0
   -7.4260   -1.3730  -21.1940 N   0  0  0  0  0  0  0  0  0  0  0  0
   -6.6090   -0.8030  -20.1770 C   0  0  0  0  0  0  0  0  0  0  0  0
   -6.8990   -1.0460  -18.8610 C   0  0  0  0  0  0  0  0  0  0  0  0
   -6.1880   -0.5520  -17.8180 N   0  0  0  0  0  0  0  0  0  0  0  0
   -5.1600    0.2100  -18.0860 C   0  0  0  0  0  0  0  0  0  0  0  0
   -4.7320    0.5340  -19.4040 C   0  0  0  0  0  0  0  0  0  0  0  0
   -3.6010    1.3630  -19.6420 C   0  0  0  0  0  0  0  0  0  0  0  0
   -3.2090    1.6500  -20.9190 C   0  0  0  0  0  0  0  0  0  0  0  0
   -3.9270    1.1150  -22.0140 C   0  0  0  0  0  0  0  0  0  0  0  0
   -5.0220    0.3120  -21.8110 C   0  0  0  0  0  0  0  0  0  0  0  0
   -5.4680    0.0090  -20.4920 C   0  0  0  0  0  0  0  0  0  0  0  0
   -5.5600   -0.0940  -22.6650 H   0  0  0  0  0  0  0  0  0  0  0  0
   -3.6140    1.3500  -23.0280 H   0  0  0  0  0  0  0  0  0  0  0  0
   -2.3570    2.3010  -21.0990 H   0  0  0  0  0  0  0  0  0  0  0  0
   -3.0710    1.7680  -18.7830 H   0  0  0  0  0  0  0  0  0  0  0  0
   -4.6140    0.6140  -17.2320 H   0  0  0  0  0  0  0  0  0  0  0  0
   -7.7460   -1.6730  -18.5900 H   0  0  0  0  0  0  0  0  0  0  0  0
   -8.3540   -0.6080  -21.8610 C   0  0  0  0  0  0  0  0  0  0  0  0
   -8.6520    0.5290  -21.5370 O   0  0  0  0  0  0  0  0  0  0  0  0
   -8.8990   -1.4060  -23.0670 C   0  0  1  0  0  0  0  0  0  0  0  0
   -8.3330   -0.8020  -24.3770 C   0  0  0  0  0  0  0  0  0  0  0  0
   -8.8780    0.5120  -24.6480 N   0  0  0  0  0  0  0  0  0  0  0  0
   -7.9560    1.6180  -24.8520 C   0  0  0  0  0  0  0  0  0  0  0  0
   -6.9980    1.4110  -25.9860 C   0  0  0  0  0  0  0  0  0  0  0  0
   -5.6370    1.1700  -25.9810 C   0  0  0  0  0  0  0  0  0  0  0  0
   -5.3000    0.9760  -27.3340 C   0  0  0  0  0  0  0  0  0  0  0  0
   -6.3650    1.0970  -28.1170 N   0  0  0  0  0  0  0  0  0  0  0  0
   -7.3840    1.3670  -27.2860 N   0  0  0  0  0  0  0  0  0  0  0  0
   -8.7210    1.5340  -27.8160 C   0  0  0  0  0  0  0  0  0  0  0  0
   -9.1870    2.4370  -27.4050 H   0  0  0  0  0  0  0  0  0  0  0  0
   -8.6190    1.6230  -28.9010 H   0  0  0  0  0  0  0  0  0  0  0  0
   -9.3480    0.6680  -27.5700 H   0  0  0  0  0  0  0  0  0  0  0  0
   -4.3430    0.7350  -27.7850 H   0  0  0  0  0  0  0  0  0  0  0  0
   -5.0140    1.1130  -25.0970 H   0  0  0  0  0  0  0  0  0  0  0  0
   -8.5750    2.5090  -24.9960 H   0  0  0  0  0  0  0  0  0  0  0  0
   -7.3660    1.7550  -23.9340 H   0  0  0  0  0  0  0  0  0  0  0  0
  -10.2260    0.7180  -24.6540 C   0  0  0  0  0  0  0  0  0  0  0  0
  -10.7510    1.6840  -25.2040 O   0  0  0  0  0  0  0  0  0  0  0  0
  -11.0340   -0.3020  -23.9100 C   0  0  0  0  0  0  0  0  0  0  0  0
  -12.4250   -0.1850  -23.9530 C   0  0  0  0  0  0  0  0  0  0  0  0
  -13.2190   -0.9950  -23.1660 C   0  0  0  0  0  0  0  0  0  0  0  0
  -12.5930   -1.8980  -22.3150 C   0  0  0  0  0  0  0  0  0  0  0  0
  -13.3540   -2.6510  -21.5040 F   0  0  0  0  0  0  0  0  0  0  0  0
  -11.2210   -2.0470  -22.2650 C   0  0  0  0  0  0  0  0  0  0  0  0
  -10.4150   -1.2810  -23.1160 C   0  0  0  0  0  0  0  0  0  0  0  0
  -10.8130   -2.7390  -21.5370 H   0  0  0  0  0  0  0  0  0  0  0  0
  -14.3000   -0.9240  -23.1660 H   0  0  0  0  0  0  0  0  0  0  0  0
  -12.8480    0.5780  -24.5960 H   0  0  0  0  0  0  0  0  0  0  0  0
   -7.2480   -0.7030  -24.2890 H   0  0  0  0  0  0  0  0  0  0  0  0
   -8.5650   -1.4730  -25.2180 H   0  0  0  0  0  0  0  0  0  0  0  0
   -6.1930   -2.6330  -22.3730 H   0  0  0  0  0  0  0  0  0  0  0  0
   -7.0810   -3.4420  -21.0770 H   0  0  0  0  0  0  0  0  0  0  0  0
   -9.1190   -3.3800  -22.2600 H   0  0  0  0  0  0  0  0  0  0  0  0
   -8.7750   -3.7870  -24.7340 H   0  0  0  0  0  0  0  0  0  0  0  0
   -7.1030   -3.2330  -24.5660 H   0  0  0  0  0  0  0  0  0  0  0  0
   -7.6350   -4.6910  -23.7270 H   0  0  0  0  0  0  0  0  0  0  0  0
  1  2  1  0  0  0  0
  1 57  1  0  0  0  0
  1 58  1  0  0  0  0
  1 59  1  0  0  0  0
  2  3  1  0  0  0  0
  2 23  1  0  0  0  0
  2 56  1  1  0  0  0
  3  4  1  0  0  0  0
  3 54  1  0  0  0  0
  3 55  1  0  0  0  0
  4  5  1  0  0  0  0
  4 21  1  0  0  0  0
  5  6  2  0  0  0  0
  5 14  1  0  0  0  0
  6  7  1  0  0  0  0
  6 20  1  0  0  0  0
  7  8  2  0  0  0  0
  8  9  1  0  0  0  0
  8 19  1  0  0  0  0
  9 10  2  0  0  0  0
  9 14  1  0  0  0  0
 10 11  1  0  0  0  0
 10 18  1  0  0  0  0
 11 12  2  0  0  0  0
 11 17  1  0  0  0  0
 12 13  1  0  0  0  0
 12 16  1  0  0  0  0
 13 14  2  0  0  0  0
 13 15  1  0  0  0  0
 21 22  2  0  0  0  0
 23 21  1  1  0  0  0
 23 24  1  0  0  0  0
 23 48  1  0  0  0  0
 24 25  1  0  0  0  0
 24 52  1  0  0  0  0
 24 53  1  0  0  0  0
 25 26  1  0  0  0  0
 25 40  1  0  0  0  0
 26 27  1  0  0  0  0
 26 38  1  0  0  0  0
 26 39  1  0  0  0  0
 27 28  2  0  0  0  0
 27 31  1  0  0  0  0
 28 29  1  0  0  0  0
 28 37  1  0  0  0  0
 29 30  2  0  0  0  0
 29 36  1  0  0  0  0
 30 31  1  0  0  0  0
 31 32  1  0  0  0  0
 32 33  1  0  0  0  0
 32 34  1  0  0  0  0
 32 35  1  0  0  0  0
 40 41  2  0  0  0  0
 40 42  1  0  0  0  0
 42 43  2  0  0  0  0
 42 48  1  0  0  0  0
 43 44  1  0  0  0  0
 43 51  1  0  0  0  0
 44 45  2  0  0  0  0
 44 50  1  0  0  0  0
 45 46  1  0  0  0  0
 45 47  1  0  0  0  0
 47 48  2  0  0  0  0
 47 49  1  0  0  0  0
M  END
>  <MODEL>
       1

$$$$
