tmp_first_model_5_74.pdb
 OpenBabel08272519233D

 43 47  0  0  1  0  0  0  0  0999 V2000
   -9.2470   -0.4220  -20.9410 O   0  0  0  0  0  0  0  0  0  0  0  0
   -8.6410   -1.3630  -21.4000 C   0  0  0  0  0  0  0  0  0  0  0  0
   -9.1090   -2.4210  -22.1250 N   0  0  0  0  0  0  0  0  0  0  0  0
   -8.0580   -3.1830  -22.7610 C   0  0  1  0  0  0  0  0  0  0  0  0
   -8.1310   -4.7210  -22.7330 C   0  0  0  0  0  0  0  0  0  0  0  0
   -8.2420   -4.7490  -24.2870 C   0  0  2  0  0  0  0  0  0  0  0  0
   -7.1880   -5.5440  -24.9960 C   0  0  0  0  0  0  0  0  0  0  0  0
   -5.8310   -5.2940  -24.7480 C   0  0  0  0  0  0  0  0  0  0  0  0
   -4.8340   -6.0170  -25.3870 C   0  0  0  0  0  0  0  0  0  0  0  0
   -5.1760   -7.0170  -26.2900 C   0  0  0  0  0  0  0  0  0  0  0  0
   -6.5100   -7.2870  -26.5490 C   0  0  0  0  0  0  0  0  0  0  0  0
   -7.4970   -6.5540  -25.9050 C   0  0  0  0  0  0  0  0  0  0  0  0
   -9.1570   -6.9450  -26.2740 Cl  0  0  0  0  0  0  0  0  0  0  0  0
   -6.7970   -8.0660  -27.2450 H   0  0  0  0  0  0  0  0  0  0  0  0
   -4.4050   -7.5890  -26.7920 H   0  0  0  0  0  0  0  0  0  0  0  0
   -3.7910   -5.8030  -25.1810 H   0  0  0  0  0  0  0  0  0  0  0  0
   -5.5430   -4.5190  -24.0390 H   0  0  0  0  0  0  0  0  0  0  0  0
   -8.0470   -3.2050  -24.3030 C   0  0  0  0  0  0  0  0  0  0  0  0
   -8.8460   -2.6120  -24.7540 H   0  0  0  0  0  0  0  0  0  0  0  0
   -7.0840   -2.8800  -24.7030 H   0  0  0  0  0  0  0  0  0  0  0  0
   -9.2530   -5.0160  -24.5980 H   0  0  0  0  0  0  0  0  0  0  0  0
   -8.9720   -5.1230  -22.1680 H   0  0  0  0  0  0  0  0  0  0  0  0
   -7.2020   -5.1570  -22.3550 H   0  0  0  0  0  0  0  0  0  0  0  0
   -6.8180   -2.6090  -22.1130 C   0  0  0  0  0  0  0  0  0  0  0  0
   -5.6720   -2.9550  -22.2770 O   0  0  0  0  0  0  0  0  0  0  0  0
   -7.2630   -1.5840  -21.2810 N   0  0  0  0  0  0  0  0  0  0  0  0
   -6.4910   -1.0100  -20.2520 C   0  0  0  0  0  0  0  0  0  0  0  0
   -6.8590   -1.1230  -18.9390 C   0  0  0  0  0  0  0  0  0  0  0  0
   -6.0520   -0.7790  -17.9050 N   0  0  0  0  0  0  0  0  0  0  0  0
   -4.8830   -0.2620  -18.2090 C   0  0  0  0  0  0  0  0  0  0  0  0
   -4.4530   -0.0020  -19.5390 C   0  0  0  0  0  0  0  0  0  0  0  0
   -3.2860    0.7600  -19.8000 C   0  0  0  0  0  0  0  0  0  0  0  0
   -3.1580    1.4150  -20.9910 C   0  0  0  0  0  0  0  0  0  0  0  0
   -4.0550    1.1510  -22.0590 C   0  0  0  0  0  0  0  0  0  0  0  0
   -5.0890    0.2690  -21.8820 C   0  0  0  0  0  0  0  0  0  0  0  0
   -5.3290   -0.2800  -20.5960 C   0  0  0  0  0  0  0  0  0  0  0  0
   -5.7100   -0.0390  -22.7170 H   0  0  0  0  0  0  0  0  0  0  0  0
   -3.8820    1.5990  -23.0320 H   0  0  0  0  0  0  0  0  0  0  0  0
   -2.3180    2.0810  -21.1550 H   0  0  0  0  0  0  0  0  0  0  0  0
   -2.6080    0.9170  -18.9690 H   0  0  0  0  0  0  0  0  0  0  0  0
   -4.2560    0.0910  -17.3870 H   0  0  0  0  0  0  0  0  0  0  0  0
   -7.8240   -1.5520  -18.6750 H   0  0  0  0  0  0  0  0  0  0  0  0
  -10.0750   -2.4570  -22.3970 H   0  0  0  0  0  0  0  0  0  0  0  0
  1  2  2  0  0  0  0
  2  3  1  0  0  0  0
  2 26  1  0  0  0  0
  3  4  1  0  0  0  0
  3 43  1  0  0  0  0
  4  5  1  0  0  0  0
  4 18  1  0  0  0  0
  4 24  1  1  0  0  0
  5  6  1  0  0  0  0
  5 22  1  0  0  0  0
  5 23  1  0  0  0  0
  6  7  1  0  0  0  0
  6 18  1  0  0  0  0
  6 21  1  6  0  0  0
  7  8  2  0  0  0  0
  7 12  1  0  0  0  0
  8  9  1  0  0  0  0
  8 17  1  0  0  0  0
  9 10  2  0  0  0  0
  9 16  1  0  0  0  0
 10 11  1  0  0  0  0
 10 15  1  0  0  0  0
 11 12  2  0  0  0  0
 11 14  1  0  0  0  0
 12 13  1  0  0  0  0
 18 19  1  0  0  0  0
 18 20  1  0  0  0  0
 24 25  2  0  0  0  0
 24 26  1  0  0  0  0
 26 27  1  0  0  0  0
 27 28  2  0  0  0  0
 27 36  1  0  0  0  0
 28 29  1  0  0  0  0
 28 42  1  0  0  0  0
 29 30  2  0  0  0  0
 30 31  1  0  0  0  0
 30 41  1  0  0  0  0
 31 32  2  0  0  0  0
 31 36  1  0  0  0  0
 32 33  1  0  0  0  0
 32 40  1  0  0  0  0
 33 34  2  0  0  0  0
 33 39  1  0  0  0  0
 34 35  1  0  0  0  0
 34 38  1  0  0  0  0
 35 36  2  0  0  0  0
 35 37  1  0  0  0  0
M  END
>  <MODEL>
       1

$$$$
