tmp_first_model_18_72.pdb
 OpenBabel08282502533D

 41 44  0  0  0  0  0  0  0  0999 V2000
   -5.8560   -3.2960  -21.2680 O   0  0  0  0  0  0  0  0  0  0  0  0
   -6.7000   -2.6980  -21.9100 C   0  0  0  0  0  0  0  0  0  0  0  0
   -7.3970   -1.4610  -21.2840 C   0  0  0  0  0  0  0  0  0  0  0  0
   -6.5770   -0.8290  -20.1810 C   0  0  0  0  0  0  0  0  0  0  0  0
   -6.8710   -1.0470  -18.8570 C   0  0  0  0  0  0  0  0  0  0  0  0
   -6.1880   -0.5420  -17.7920 N   0  0  0  0  0  0  0  0  0  0  0  0
   -5.1580    0.2250  -18.0610 C   0  0  0  0  0  0  0  0  0  0  0  0
   -4.7220    0.5330  -19.3800 C   0  0  0  0  0  0  0  0  0  0  0  0
   -3.5930    1.3610  -19.6210 C   0  0  0  0  0  0  0  0  0  0  0  0
   -3.1940    1.6390  -20.9010 C   0  0  0  0  0  0  0  0  0  0  0  0
   -3.9070    1.0970  -21.9930 C   0  0  0  0  0  0  0  0  0  0  0  0
   -5.0030    0.2960  -21.7850 C   0  0  0  0  0  0  0  0  0  0  0  0
   -5.4450   -0.0080  -20.4700 C   0  0  0  0  0  0  0  0  0  0  0  0
   -5.5310   -0.1120  -22.6400 H   0  0  0  0  0  0  0  0  0  0  0  0
   -3.5860    1.3200  -23.0060 H   0  0  0  0  0  0  0  0  0  0  0  0
   -2.3330    2.2750  -21.0890 H   0  0  0  0  0  0  0  0  0  0  0  0
   -3.0540    1.7740  -18.7720 H   0  0  0  0  0  0  0  0  0  0  0  0
   -4.6000    0.6300  -17.2150 H   0  0  0  0  0  0  0  0  0  0  0  0
   -7.7200   -1.6710  -18.5880 H   0  0  0  0  0  0  0  0  0  0  0  0
   -8.3450   -1.8170  -20.8550 H   0  0  0  0  0  0  0  0  0  0  0  0
   -7.6800   -0.7100  -22.0310 H   0  0  0  0  0  0  0  0  0  0  0  0
   -7.0740   -3.1350  -23.1680 N   0  0  0  0  0  0  0  0  0  0  0  0
   -7.0060   -4.5600  -23.4830 C   0  0  0  0  0  0  0  0  0  0  0  0
   -8.3360   -5.1360  -23.9840 C   0  0  0  0  0  0  0  0  0  0  0  0
   -9.5590   -4.6330  -23.2140 C   0  0  0  0  0  0  0  0  0  0  0  0
   -9.9890   -3.2320  -23.5700 C   0  0  0  0  0  0  0  0  0  0  0  0
  -11.6560   -2.7590  -23.4900 S   0  0  0  0  0  0  0  0  0  0  0  0
  -11.2820   -1.1540  -23.9870 C   0  0  0  0  0  0  0  0  0  0  0  0
   -9.9480   -0.9950  -24.2190 C   0  0  0  0  0  0  0  0  0  0  0  0
   -9.2070   -2.1890  -23.9800 C   0  0  0  0  0  0  0  0  0  0  0  0
   -7.7190   -2.2920  -24.1470 C   0  0  0  0  0  0  0  0  0  0  0  0
   -7.2790   -1.2920  -24.1360 H   0  0  0  0  0  0  0  0  0  0  0  0
   -7.4880   -2.6800  -25.1440 H   0  0  0  0  0  0  0  0  0  0  0  0
   -9.4880   -0.0610  -24.5390 H   0  0  0  0  0  0  0  0  0  0  0  0
  -12.0550   -0.4060  -24.0810 H   0  0  0  0  0  0  0  0  0  0  0  0
   -9.3450   -4.6660  -22.1380 H   0  0  0  0  0  0  0  0  0  0  0  0
  -10.4020   -5.3030  -23.3770 H   0  0  0  0  0  0  0  0  0  0  0  0
   -8.2870   -6.2310  -23.9240 H   0  0  0  0  0  0  0  0  0  0  0  0
   -8.4770   -4.9220  -25.0470 H   0  0  0  0  0  0  0  0  0  0  0  0
   -6.2260   -4.7380  -24.2310 H   0  0  0  0  0  0  0  0  0  0  0  0
   -6.7030   -5.0780  -22.5730 H   0  0  0  0  0  0  0  0  0  0  0  0
  1  2  2  0  0  0  0
  2  3  1  0  0  0  0
  2 22  1  0  0  0  0
  3  4  1  0  0  0  0
  3 20  1  0  0  0  0
  3 21  1  0  0  0  0
  4  5  2  0  0  0  0
  4 13  1  0  0  0  0
  5  6  1  0  0  0  0
  5 19  1  0  0  0  0
  6  7  2  0  0  0  0
  7  8  1  0  0  0  0
  7 18  1  0  0  0  0
  8  9  2  0  0  0  0
  8 13  1  0  0  0  0
  9 10  1  0  0  0  0
  9 17  1  0  0  0  0
 10 11  2  0  0  0  0
 10 16  1  0  0  0  0
 11 12  1  0  0  0  0
 11 15  1  0  0  0  0
 12 13  2  0  0  0  0
 12 14  1  0  0  0  0
 22 23  1  0  0  0  0
 22 31  1  0  0  0  0
 23 24  1  0  0  0  0
 23 40  1  0  0  0  0
 23 41  1  0  0  0  0
 24 25  1  0  0  0  0
 24 38  1  0  0  0  0
 24 39  1  0  0  0  0
 25 26  1  0  0  0  0
 25 36  1  0  0  0  0
 25 37  1  0  0  0  0
 26 27  1  0  0  0  0
 26 30  2  0  0  0  0
 27 28  1  0  0  0  0
 28 29  2  0  0  0  0
 28 35  1  0  0  0  0
 29 30  1  0  0  0  0
 29 34  1  0  0  0  0
 30 31  1  0  0  0  0
 31 32  1  0  0  0  0
 31 33  1  0  0  0  0
M  END
>  <MODEL>
       1

$$$$
