tmp_first_model_17_65.pdb
 OpenBabel08282502223D

 55 60  0  0  1  0  0  0  0  0999 V2000
  -10.3420   -1.0650  -23.3770 C   0  0  0  0  0  0  0  0  0  0  0  0
   -8.9110   -1.4410  -23.0110 C   0  0  1  0  0  0  0  0  0  0  0  0
   -8.3380   -0.5330  -21.9090 C   0  0  0  0  0  0  0  0  0  0  0  0
   -7.3620   -1.3860  -21.2550 N   0  0  0  0  0  0  0  0  0  0  0  0
   -6.5770   -0.8970  -20.1880 C   0  0  0  0  0  0  0  0  0  0  0  0
   -6.9050   -1.1580  -18.8830 C   0  0  0  0  0  0  0  0  0  0  0  0
   -6.2650   -0.6060  -17.8210 N   0  0  0  0  0  0  0  0  0  0  0  0
   -5.2560    0.1940  -18.0700 C   0  0  0  0  0  0  0  0  0  0  0  0
   -4.7900    0.5170  -19.3780 C   0  0  0  0  0  0  0  0  0  0  0  0
   -3.6720    1.3600  -19.6100 C   0  0  0  0  0  0  0  0  0  0  0  0
   -3.2770    1.6450  -20.8890 C   0  0  0  0  0  0  0  0  0  0  0  0
   -3.9730    1.1040  -21.9940 C   0  0  0  0  0  0  0  0  0  0  0  0
   -5.0480    0.2750  -21.7960 C   0  0  0  0  0  0  0  0  0  0  0  0
   -5.4780   -0.0330  -20.4780 C   0  0  0  0  0  0  0  0  0  0  0  0
   -5.5720   -0.1680  -22.6360 H   0  0  0  0  0  0  0  0  0  0  0  0
   -3.6460    1.3340  -23.0030 H   0  0  0  0  0  0  0  0  0  0  0  0
   -2.4170    2.2830  -21.0690 H   0  0  0  0  0  0  0  0  0  0  0  0
   -3.1380    1.7650  -18.7560 H   0  0  0  0  0  0  0  0  0  0  0  0
   -4.7430    0.6270  -17.2110 H   0  0  0  0  0  0  0  0  0  0  0  0
   -7.7320   -1.8260  -18.6450 H   0  0  0  0  0  0  0  0  0  0  0  0
   -7.5990   -2.7320  -21.4410 C   0  0  0  0  0  0  0  0  0  0  0  0
   -7.0190   -3.6210  -20.8470 O   0  0  0  0  0  0  0  0  0  0  0  0
   -8.7260   -2.9060  -22.4670 C   0  0  1  0  0  0  0  0  0  0  0  0
   -9.9630   -3.4010  -21.6740 C   0  0  0  0  0  0  0  0  0  0  0  0
  -11.0500   -3.8500  -22.5290 N   0  0  0  0  0  0  0  0  0  0  0  0
  -12.4410   -3.6460  -22.1470 C   0  0  0  0  0  0  0  0  0  0  0  0
  -13.1320   -2.5330  -22.8750 C   0  0  0  0  0  0  0  0  0  0  0  0
  -13.6900   -2.4960  -24.1070 C   0  0  0  0  0  0  0  0  0  0  0  0
  -14.4230   -1.3440  -24.2100 O   0  0  0  0  0  0  0  0  0  0  0  0
  -14.2480   -0.7370  -23.0220 C   0  0  0  0  0  0  0  0  0  0  0  0
  -13.4770   -1.3680  -22.2000 N   0  0  0  0  0  0  0  0  0  0  0  0
  -14.7370    0.2130  -22.8640 H   0  0  0  0  0  0  0  0  0  0  0  0
  -13.6650   -3.1290  -24.9810 H   0  0  0  0  0  0  0  0  0  0  0  0
  -12.5040   -3.3930  -21.0830 H   0  0  0  0  0  0  0  0  0  0  0  0
  -12.9830   -4.5760  -22.3650 H   0  0  0  0  0  0  0  0  0  0  0  0
  -10.8350   -4.5300  -23.6900 C   0  0  0  0  0  0  0  0  0  0  0  0
  -11.7590   -4.9270  -24.3970 O   0  0  0  0  0  0  0  0  0  0  0  0
   -9.4090   -4.7510  -24.0620 C   0  0  0  0  0  0  0  0  0  0  0  0
   -9.1240   -5.7510  -24.9940 C   0  0  0  0  0  0  0  0  0  0  0  0
   -7.8360   -5.9190  -25.4710 C   0  0  0  0  0  0  0  0  0  0  0  0
   -6.8520   -5.0550  -24.9980 C   0  0  0  0  0  0  0  0  0  0  0  0
   -5.6020   -5.1790  -25.4780 F   0  0  0  0  0  0  0  0  0  0  0  0
   -7.0940   -4.0990  -24.0260 C   0  0  0  0  0  0  0  0  0  0  0  0
   -8.3950   -3.9420  -23.5290 C   0  0  0  0  0  0  0  0  0  0  0  0
   -6.2620   -3.5220  -23.6300 H   0  0  0  0  0  0  0  0  0  0  0  0
   -7.5810   -6.6980  -26.1870 H   0  0  0  0  0  0  0  0  0  0  0  0
   -9.9310   -6.3950  -25.3350 H   0  0  0  0  0  0  0  0  0  0  0  0
  -10.3420   -2.5840  -21.0590 H   0  0  0  0  0  0  0  0  0  0  0  0
   -9.6380   -4.1910  -20.9900 H   0  0  0  0  0  0  0  0  0  0  0  0
   -9.1270   -0.2150  -21.2050 H   0  0  0  0  0  0  0  0  0  0  0  0
   -7.8720    0.3820  -22.2930 H   0  0  0  0  0  0  0  0  0  0  0  0
   -8.2620   -1.3660  -23.8930 H   0  0  0  0  0  0  0  0  0  0  0  0
  -10.4030   -0.1060  -23.8990 H   0  0  0  0  0  0  0  0  0  0  0  0
  -10.7940   -1.8310  -24.0130 H   0  0  0  0  0  0  0  0  0  0  0  0
  -10.9590   -0.9810  -22.4750 H   0  0  0  0  0  0  0  0  0  0  0  0
  1  2  1  0  0  0  0
  1 53  1  0  0  0  0
  1 54  1  0  0  0  0
  1 55  1  0  0  0  0
  2  3  1  0  0  0  0
  2 23  1  0  0  0  0
  2 52  1  6  0  0  0
  3  4  1  0  0  0  0
  3 50  1  0  0  0  0
  3 51  1  0  0  0  0
  4  5  1  0  0  0  0
  4 21  1  0  0  0  0
  5  6  2  0  0  0  0
  5 14  1  0  0  0  0
  6  7  1  0  0  0  0
  6 20  1  0  0  0  0
  7  8  2  0  0  0  0
  8  9  1  0  0  0  0
  8 19  1  0  0  0  0
  9 10  2  0  0  0  0
  9 14  1  0  0  0  0
 10 11  1  0  0  0  0
 10 18  1  0  0  0  0
 11 12  2  0  0  0  0
 11 17  1  0  0  0  0
 12 13  1  0  0  0  0
 12 16  1  0  0  0  0
 13 14  2  0  0  0  0
 13 15  1  0  0  0  0
 21 22  2  0  0  0  0
 23 21  1  1  0  0  0
 23 24  1  0  0  0  0
 23 44  1  0  0  0  0
 24 25  1  0  0  0  0
 24 48  1  0  0  0  0
 24 49  1  0  0  0  0
 25 26  1  0  0  0  0
 25 36  1  0  0  0  0
 26 27  1  0  0  0  0
 26 34  1  0  0  0  0
 26 35  1  0  0  0  0
 27 28  2  0  0  0  0
 27 31  1  0  0  0  0
 28 29  1  0  0  0  0
 28 33  1  0  0  0  0
 29 30  1  0  0  0  0
 30 31  2  0  0  0  0
 30 32  1  0  0  0  0
 36 37  2  0  0  0  0
 36 38  1  0  0  0  0
 38 39  2  0  0  0  0
 38 44  1  0  0  0  0
 39 40  1  0  0  0  0
 39 47  1  0  0  0  0
 40 41  2  0  0  0  0
 40 46  1  0  0  0  0
 41 42  1  0  0  0  0
 41 43  1  0  0  0  0
 43 44  2  0  0  0  0
 43 45  1  0  0  0  0
M  END
>  <MODEL>
       1

$$$$
