tmp_first_model_9_70.pdb
 OpenBabel08272521403D

 52 54  0  0  0  0  0  0  0  0999 V2000
   -4.7470   -5.0450  -26.7360 C   0  0  0  0  0  0  0  0  0  0  0  0
   -5.9470   -5.7450  -26.0920 C   0  0  0  0  0  0  0  0  0  0  0  0
   -6.3810   -6.9290  -26.9590 C   0  0  0  0  0  0  0  0  0  0  0  0
   -5.5190   -7.4120  -27.4320 H   0  0  0  0  0  0  0  0  0  0  0  0
   -7.0490   -6.6110  -27.7640 H   0  0  0  0  0  0  0  0  0  0  0  0
   -6.9030   -7.7000  -26.3870 H   0  0  0  0  0  0  0  0  0  0  0  0
   -7.0620   -4.7190  -25.8140 C   0  0  0  0  0  0  0  0  0  0  0  0
   -8.3100   -5.1050  -24.9680 C   0  0  0  0  0  0  0  0  0  0  0  0
   -9.2770   -5.9830  -25.7780 C   0  0  0  0  0  0  0  0  0  0  0  0
  -10.2240   -6.1160  -25.2420 H   0  0  0  0  0  0  0  0  0  0  0  0
   -9.5160   -5.5280  -26.7470 H   0  0  0  0  0  0  0  0  0  0  0  0
   -8.8880   -6.9870  -25.9720 H   0  0  0  0  0  0  0  0  0  0  0  0
   -9.0560   -3.7990  -24.5630 C   0  0  0  0  0  0  0  0  0  0  0  0
   -8.8700   -3.3590  -23.1000 C   0  0  0  0  0  0  0  0  0  0  0  0
   -7.5320   -3.6230  -22.5910 N   0  0  0  0  0  0  0  0  0  0  0  0
   -6.7700   -2.7640  -21.8380 C   0  0  0  0  0  0  0  0  0  0  0  0
   -5.5990   -3.0160  -21.5970 O   0  0  0  0  0  0  0  0  0  0  0  0
   -7.4190   -1.4790  -21.2640 C   0  0  0  0  0  0  0  0  0  0  0  0
   -6.5800   -0.8300  -20.1840 C   0  0  0  0  0  0  0  0  0  0  0  0
   -6.8720   -1.0440  -18.8620 C   0  0  0  0  0  0  0  0  0  0  0  0
   -6.1840   -0.5420  -17.8040 N   0  0  0  0  0  0  0  0  0  0  0  0
   -5.1560    0.2250  -18.0670 C   0  0  0  0  0  0  0  0  0  0  0  0
   -4.7200    0.5320  -19.3830 C   0  0  0  0  0  0  0  0  0  0  0  0
   -3.5900    1.3580  -19.6210 C   0  0  0  0  0  0  0  0  0  0  0  0
   -3.1890    1.6350  -20.9000 C   0  0  0  0  0  0  0  0  0  0  0  0
   -3.9030    1.0930  -21.9910 C   0  0  0  0  0  0  0  0  0  0  0  0
   -4.9990    0.2900  -21.7860 C   0  0  0  0  0  0  0  0  0  0  0  0
   -5.4440   -0.0120  -20.4740 C   0  0  0  0  0  0  0  0  0  0  0  0
   -5.5200   -0.1350  -22.6370 H   0  0  0  0  0  0  0  0  0  0  0  0
   -3.5750    1.3080  -23.0030 H   0  0  0  0  0  0  0  0  0  0  0  0
   -2.3270    2.2700  -21.0860 H   0  0  0  0  0  0  0  0  0  0  0  0
   -3.0560    1.7750  -18.7700 H   0  0  0  0  0  0  0  0  0  0  0  0
   -4.6010    0.6290  -17.2170 H   0  0  0  0  0  0  0  0  0  0  0  0
   -7.7190   -1.6690  -18.5840 H   0  0  0  0  0  0  0  0  0  0  0  0
   -7.6020   -0.7600  -22.0750 H   0  0  0  0  0  0  0  0  0  0  0  0
   -8.4060   -1.7240  -20.8430 H   0  0  0  0  0  0  0  0  0  0  0  0
   -7.0270   -4.9900  -22.7590 C   0  0  0  0  0  0  0  0  0  0  0  0
   -7.9150   -5.8300  -23.6770 C   0  0  0  0  0  0  0  0  0  0  0  0
   -7.4050   -6.7690  -23.9180 H   0  0  0  0  0  0  0  0  0  0  0  0
   -8.8190   -6.1460  -23.1420 H   0  0  0  0  0  0  0  0  0  0  0  0
   -6.9470   -5.4830  -21.7830 H   0  0  0  0  0  0  0  0  0  0  0  0
   -6.0070   -4.9490  -23.1540 H   0  0  0  0  0  0  0  0  0  0  0  0
   -9.0740   -2.2910  -23.0280 H   0  0  0  0  0  0  0  0  0  0  0  0
   -9.6210   -3.8600  -22.4750 H   0  0  0  0  0  0  0  0  0  0  0  0
   -8.7590   -2.9840  -25.2300 H   0  0  0  0  0  0  0  0  0  0  0  0
  -10.1350   -3.9130  -24.7270 H   0  0  0  0  0  0  0  0  0  0  0  0
   -6.5960   -3.8470  -25.3370 H   0  0  0  0  0  0  0  0  0  0  0  0
   -7.4180   -4.3430  -26.7840 H   0  0  0  0  0  0  0  0  0  0  0  0
   -5.5950   -6.1430  -25.1360 H   0  0  0  0  0  0  0  0  0  0  0  0
   -4.3710   -4.2240  -26.1170 H   0  0  0  0  0  0  0  0  0  0  0  0
   -5.0030   -4.6340  -27.7190 H   0  0  0  0  0  0  0  0  0  0  0  0
   -3.9160   -5.7440  -26.8890 H   0  0  0  0  0  0  0  0  0  0  0  0
  1  2  1  0  0  0  0
  1 50  1  0  0  0  0
  1 51  1  0  0  0  0
  1 52  1  0  0  0  0
  2  3  1  0  0  0  0
  2  7  1  0  0  0  0
  2 49  1  0  0  0  0
  3  4  1  0  0  0  0
  3  5  1  0  0  0  0
  3  6  1  0  0  0  0
  7  8  1  0  0  0  0
  7 47  1  0  0  0  0
  7 48  1  0  0  0  0
  8  9  1  0  0  0  0
  8 13  1  0  0  0  0
  8 38  1  0  0  0  0
  9 10  1  0  0  0  0
  9 11  1  0  0  0  0
  9 12  1  0  0  0  0
 13 14  1  0  0  0  0
 13 45  1  0  0  0  0
 13 46  1  0  0  0  0
 14 15  1  0  0  0  0
 14 43  1  0  0  0  0
 14 44  1  0  0  0  0
 15 16  1  0  0  0  0
 15 37  1  0  0  0  0
 16 17  2  0  0  0  0
 16 18  1  0  0  0  0
 18 19  1  0  0  0  0
 18 35  1  0  0  0  0
 18 36  1  0  0  0  0
 19 20  2  0  0  0  0
 19 28  1  0  0  0  0
 20 21  1  0  0  0  0
 20 34  1  0  0  0  0
 21 22  2  0  0  0  0
 22 23  1  0  0  0  0
 22 33  1  0  0  0  0
 23 24  2  0  0  0  0
 23 28  1  0  0  0  0
 24 25  1  0  0  0  0
 24 32  1  0  0  0  0
 25 26  2  0  0  0  0
 25 31  1  0  0  0  0
 26 27  1  0  0  0  0
 26 30  1  0  0  0  0
 27 28  2  0  0  0  0
 27 29  1  0  0  0  0
 37 38  1  0  0  0  0
 37 41  1  0  0  0  0
 37 42  1  0  0  0  0
 38 39  1  0  0  0  0
 38 40  1  0  0  0  0
M  END
>  <MODEL>
       1

$$$$
