tmp_first_model_10_10.pdb
 OpenBabel08272522163D

 57 62  0  0  1  0  0  0  0  0999 V2000
   -8.2930   -4.1370  -23.4870 C   0  0  0  0  0  0  0  0  0  0  0  0
   -8.5200   -2.9880  -22.5210 C   0  0  1  0  0  0  0  0  0  0  0  0
   -7.3890   -2.8000  -21.5020 C   0  0  0  0  0  0  0  0  0  0  0  0
   -7.4460   -1.3810  -21.1940 N   0  0  0  0  0  0  0  0  0  0  0  0
   -6.6620   -0.7850  -20.1790 C   0  0  0  0  0  0  0  0  0  0  0  0
   -6.9160   -1.0950  -18.8670 C   0  0  0  0  0  0  0  0  0  0  0  0
   -6.2260   -0.6070  -17.8090 N   0  0  0  0  0  0  0  0  0  0  0  0
   -5.2140    0.1850  -18.0720 C   0  0  0  0  0  0  0  0  0  0  0  0
   -4.8310    0.5760  -19.3850 C   0  0  0  0  0  0  0  0  0  0  0  0
   -3.7230    1.4380  -19.6020 C   0  0  0  0  0  0  0  0  0  0  0  0
   -3.4410    1.8980  -20.8560 C   0  0  0  0  0  0  0  0  0  0  0  0
   -4.2280    1.4860  -21.9540 C   0  0  0  0  0  0  0  0  0  0  0  0
   -5.2280    0.5640  -21.7900 C   0  0  0  0  0  0  0  0  0  0  0  0
   -5.5870    0.1110  -20.4850 C   0  0  0  0  0  0  0  0  0  0  0  0
   -5.7760    0.2210  -22.6620 H   0  0  0  0  0  0  0  0  0  0  0  0
   -4.0250    1.9020  -22.9350 H   0  0  0  0  0  0  0  0  0  0  0  0
   -2.6470    2.6230  -21.0080 H   0  0  0  0  0  0  0  0  0  0  0  0
   -3.1210    1.7300  -18.7440 H   0  0  0  0  0  0  0  0  0  0  0  0
   -4.6440    0.5660  -17.2240 H   0  0  0  0  0  0  0  0  0  0  0  0
   -7.7430   -1.7610  -18.6310 H   0  0  0  0  0  0  0  0  0  0  0  0
   -8.1740   -0.6420  -22.1020 C   0  0  0  0  0  0  0  0  0  0  0  0
   -8.3000    0.5650  -22.0630 O   0  0  0  0  0  0  0  0  0  0  0  0
   -8.7380   -1.5780  -23.1820 C   0  0  1  0  0  0  0  0  0  0  0  0
   -7.9240   -1.2840  -24.4720 C   0  0  0  0  0  0  0  0  0  0  0  0
   -8.5390   -1.8090  -25.6870 N   0  0  0  0  0  0  0  0  0  0  0  0
   -7.6970   -2.1800  -26.8170 C   0  0  0  0  0  0  0  0  0  0  0  0
   -7.3970   -3.6430  -26.8500 C   0  0  0  0  0  0  0  0  0  0  0  0
   -6.2470   -4.3130  -26.6020 C   0  0  0  0  0  0  0  0  0  0  0  0
   -6.5090   -5.6560  -26.7850 N   0  3  0  0  0  0  0  0  0  0  0  0
   -7.7930   -5.7890  -27.1470 C   0  0  0  0  0  0  0  0  0  0  0  0
   -8.3650   -4.5760  -27.1840 N   0  0  0  0  0  0  0  0  0  0  0  0
   -9.3270   -4.3350  -27.4350 H   0  0  0  0  0  0  0  0  0  0  0  0
   -8.2740   -6.7190  -27.3820 H   0  0  0  0  0  0  0  0  0  0  0  0
   -5.8300   -6.4030  -26.6820 H   0  0  0  0  0  0  0  0  0  0  0  0
   -5.2720   -3.9440  -26.3020 H   0  0  0  0  0  0  0  0  0  0  0  0
   -6.7790   -1.5860  -26.7940 H   0  0  0  0  0  0  0  0  0  0  0  0
   -8.2450   -1.9110  -27.7270 H   0  0  0  0  0  0  0  0  0  0  0  0
   -9.8860   -1.9020  -25.8810 C   0  0  0  0  0  0  0  0  0  0  0  0
  -10.3610   -2.3420  -26.9250 O   0  0  0  0  0  0  0  0  0  0  0  0
  -10.7430   -1.4660  -24.7490 C   0  0  0  0  0  0  0  0  0  0  0  0
  -12.1050   -1.2830  -24.9880 C   0  0  0  0  0  0  0  0  0  0  0  0
  -12.9650   -0.9550  -23.9600 C   0  0  0  0  0  0  0  0  0  0  0  0
  -12.4210   -0.8450  -22.6860 C   0  0  0  0  0  0  0  0  0  0  0  0
  -13.2560   -0.5960  -21.6720 F   0  0  0  0  0  0  0  0  0  0  0  0
  -11.0740   -1.0130  -22.4240 C   0  0  0  0  0  0  0  0  0  0  0  0
  -10.2020   -1.3110  -23.4710 C   0  0  0  0  0  0  0  0  0  0  0  0
  -10.6890   -0.9290  -21.4170 H   0  0  0  0  0  0  0  0  0  0  0  0
  -14.0290   -0.8040  -24.1230 H   0  0  0  0  0  0  0  0  0  0  0  0
  -12.4700   -1.4170  -26.0000 H   0  0  0  0  0  0  0  0  0  0  0  0
   -7.8280   -0.1920  -24.5620 H   0  0  0  0  0  0  0  0  0  0  0  0
   -6.9040   -1.6830  -24.3730 H   0  0  0  0  0  0  0  0  0  0  0  0
   -7.5510   -3.3970  -20.5980 H   0  0  0  0  0  0  0  0  0  0  0  0
   -6.4050   -3.0790  -21.9090 H   0  0  0  0  0  0  0  0  0  0  0  0
   -9.4340   -3.1890  -21.9410 H   0  0  0  0  0  0  0  0  0  0  0  0
   -8.2170   -5.0820  -22.9430 H   0  0  0  0  0  0  0  0  0  0  0  0
   -7.3660   -3.9840  -24.0510 H   0  0  0  0  0  0  0  0  0  0  0  0
   -9.1260   -4.2010  -24.1930 H   0  0  0  0  0  0  0  0  0  0  0  0
  1  2  1  0  0  0  0
  1 55  1  0  0  0  0
  1 56  1  0  0  0  0
  1 57  1  0  0  0  0
  2  3  1  0  0  0  0
  2 23  1  0  0  0  0
  2 54  1  1  0  0  0
  3  4  1  0  0  0  0
  3 52  1  0  0  0  0
  3 53  1  0  0  0  0
  4  5  1  0  0  0  0
  4 21  1  0  0  0  0
  5  6  2  0  0  0  0
  5 14  1  0  0  0  0
  6  7  1  0  0  0  0
  6 20  1  0  0  0  0
  7  8  2  0  0  0  0
  8  9  1  0  0  0  0
  8 19  1  0  0  0  0
  9 10  2  0  0  0  0
  9 14  1  0  0  0  0
 10 11  1  0  0  0  0
 10 18  1  0  0  0  0
 11 12  2  0  0  0  0
 11 17  1  0  0  0  0
 12 13  1  0  0  0  0
 12 16  1  0  0  0  0
 13 14  2  0  0  0  0
 13 15  1  0  0  0  0
 21 22  2  0  0  0  0
 23 21  1  1  0  0  0
 23 24  1  0  0  0  0
 23 46  1  0  0  0  0
 24 25  1  0  0  0  0
 24 50  1  0  0  0  0
 24 51  1  0  0  0  0
 25 26  1  0  0  0  0
 25 38  1  0  0  0  0
 26 27  1  0  0  0  0
 26 36  1  0  0  0  0
 26 37  1  0  0  0  0
 27 28  2  0  0  0  0
 27 31  1  0  0  0  0
 28 29  1  0  0  0  0
 28 35  1  0  0  0  0
 29 30  2  0  0  0  0
 29 34  1  0  0  0  0
 30 31  1  0  0  0  0
 30 33  1  0  0  0  0
 31 32  1  0  0  0  0
 38 39  2  0  0  0  0
 38 40  1  0  0  0  0
 40 41  2  0  0  0  0
 40 46  1  0  0  0  0
 41 42  1  0  0  0  0
 41 49  1  0  0  0  0
 42 43  2  0  0  0  0
 42 48  1  0  0  0  0
 43 44  1  0  0  0  0
 43 45  1  0  0  0  0
 45 46  2  0  0  0  0
 45 47  1  0  0  0  0
M  CHG  1  29   1
M  END
>  <MODEL>
       1

$$$$
