tmp_first_model_12_12.pdb
 OpenBabel08272523333D

 76 82  0  0  1  0  0  0  0  0999 V2000
  -11.3950    1.5230  -24.1560 O   0  0  0  0  0  0  0  0  0  0  0  0
  -10.7400    0.5150  -23.9280 C   0  0  0  0  0  0  0  0  0  0  0  0
  -11.3630   -0.7010  -23.2920 C   0  0  0  0  0  0  0  0  0  0  0  0
  -12.7520   -0.7230  -23.1880 C   0  0  0  0  0  0  0  0  0  0  0  0
  -13.3860   -1.7020  -22.4460 C   0  0  0  0  0  0  0  0  0  0  0  0
  -12.6050   -2.6890  -21.8490 C   0  0  0  0  0  0  0  0  0  0  0  0
  -13.3320   -3.8200  -20.7400 Cl  0  0  0  0  0  0  0  0  0  0  0  0
  -11.2390   -2.7610  -22.0560 C   0  0  0  0  0  0  0  0  0  0  0  0
  -10.5870   -1.7520  -22.7780 C   0  0  0  0  0  0  0  0  0  0  0  0
   -9.0800   -1.6500  -22.8390 C   0  0  1  0  0  0  0  0  0  0  0  0
   -8.7310   -0.8590  -24.1350 C   0  0  0  0  0  0  0  0  0  0  0  0
   -9.4090    0.4230  -24.2070 N   0  0  0  0  0  0  0  0  0  0  0  0
   -8.6740    1.6350  -24.5200 C   0  0  0  0  0  0  0  0  0  0  0  0
   -8.1160    2.2590  -23.2500 C   0  0  0  0  0  0  0  0  0  0  0  0
   -7.2500    3.4260  -23.4950 N   0  3  0  0  0  0  0  0  0  0  0  0
   -6.0680    3.1380  -24.3980 C   0  0  0  0  0  0  0  0  0  0  0  0
   -5.0510    4.2720  -24.2400 C   0  0  0  0  0  0  0  0  0  0  0  0
   -5.7380    5.4510  -23.8750 O   0  0  0  0  0  0  0  0  0  0  0  0
   -6.1190    5.3900  -22.5130 C   0  0  0  0  0  0  0  0  0  0  0  0
   -6.8130    4.0530  -22.2040 C   0  0  0  0  0  0  0  0  0  0  0  0
   -7.6940    4.1960  -21.5720 H   0  0  0  0  0  0  0  0  0  0  0  0
   -6.1370    3.3580  -21.6920 H   0  0  0  0  0  0  0  0  0  0  0  0
   -5.2420    5.5180  -21.8600 H   0  0  0  0  0  0  0  0  0  0  0  0
   -6.7920    6.2350  -22.3520 H   0  0  0  0  0  0  0  0  0  0  0  0
   -4.2940    4.0210  -23.4780 H   0  0  0  0  0  0  0  0  0  0  0  0
   -4.5360    4.4710  -25.1840 H   0  0  0  0  0  0  0  0  0  0  0  0
   -6.4250    3.1020  -25.4300 H   0  0  0  0  0  0  0  0  0  0  0  0
   -5.6450    2.1640  -24.1380 H   0  0  0  0  0  0  0  0  0  0  0  0
   -7.8110    4.1490  -23.9810 H   0  0  0  0  0  0  0  0  0  0  0  0
   -7.5410    1.5100  -22.7010 H   0  0  0  0  0  0  0  0  0  0  0  0
   -8.9450    2.5580  -22.5980 H   0  0  0  0  0  0  0  0  0  0  0  0
   -9.3600    2.3320  -25.0050 H   0  0  0  0  0  0  0  0  0  0  0  0
   -7.8700    1.3940  -25.2260 H   0  0  0  0  0  0  0  0  0  0  0  0
   -9.0390   -1.4670  -24.9940 H   0  0  0  0  0  0  0  0  0  0  0  0
   -7.6540   -0.6810  -24.1880 H   0  0  0  0  0  0  0  0  0  0  0  0
   -8.5930   -0.8940  -21.5880 C   0  0  0  0  0  0  0  0  0  0  0  0
   -9.1600    0.0140  -21.0120 O   0  0  0  0  0  0  0  0  0  0  0  0
   -7.3760   -1.4100  -21.2120 N   0  0  0  0  0  0  0  0  0  0  0  0
   -6.6210   -0.7930  -20.1860 C   0  0  0  0  0  0  0  0  0  0  0  0
   -6.9390   -1.0470  -18.8760 C   0  0  0  0  0  0  0  0  0  0  0  0
   -6.2480   -0.5640  -17.8140 N   0  0  0  0  0  0  0  0  0  0  0  0
   -5.2140    0.2010  -18.0710 C   0  0  0  0  0  0  0  0  0  0  0  0
   -4.7880    0.5640  -19.3820 C   0  0  0  0  0  0  0  0  0  0  0  0
   -3.6640    1.4050  -19.5940 C   0  0  0  0  0  0  0  0  0  0  0  0
   -3.3150    1.7950  -20.8590 C   0  0  0  0  0  0  0  0  0  0  0  0
   -4.0910    1.3850  -21.9630 C   0  0  0  0  0  0  0  0  0  0  0  0
   -5.1700    0.5490  -21.7860 C   0  0  0  0  0  0  0  0  0  0  0  0
   -5.5330    0.0880  -20.4870 C   0  0  0  0  0  0  0  0  0  0  0  0
   -5.7420    0.2160  -22.6490 H   0  0  0  0  0  0  0  0  0  0  0  0
   -3.8030    1.7120  -22.9620 H   0  0  0  0  0  0  0  0  0  0  0  0
   -2.4400    2.4200  -21.0160 H   0  0  0  0  0  0  0  0  0  0  0  0
   -3.1120    1.7450  -18.7220 H   0  0  0  0  0  0  0  0  0  0  0  0
   -4.6590    0.5900  -17.2170 H   0  0  0  0  0  0  0  0  0  0  0  0
   -7.7860   -1.6880  -18.6480 H   0  0  0  0  0  0  0  0  0  0  0  0
   -6.9490   -2.5500  -22.0030 C   0  0  0  0  0  0  0  0  0  0  0  0
   -8.2630   -2.9630  -22.6830 C   0  0  2  0  0  0  0  0  0  0  0  0
   -8.0950   -3.8690  -23.9030 C   0  0  0  0  0  0  0  0  0  0  0  0
   -7.1400   -3.3720  -24.8830 N   0  0  0  0  0  0  0  0  0  0  0  0
   -7.3820   -3.3360  -26.2240 C   0  0  0  0  0  0  0  0  0  0  0  0
   -6.3360   -3.0040  -27.0120 N   0  0  0  0  0  0  0  0  0  0  0  0
   -6.6290   -2.8380  -28.2940 C   0  0  0  0  0  0  0  0  0  0  0  0
   -7.9000   -3.0360  -28.8130 C   0  0  0  0  0  0  0  0  0  0  0  0
   -8.8700   -3.4540  -27.9260 C   0  0  0  0  0  0  0  0  0  0  0  0
   -8.6310   -3.5930  -26.6230 N   0  0  0  0  0  0  0  0  0  0  0  0
   -9.8790   -3.6820  -28.2590 H   0  0  0  0  0  0  0  0  0  0  0  0
   -8.1170   -2.8540  -29.8500 H   0  0  0  0  0  0  0  0  0  0  0  0
   -5.8070   -2.5260  -28.9370 H   0  0  0  0  0  0  0  0  0  0  0  0
   -6.1620   -3.3650  -24.6540 H   0  0  0  0  0  0  0  0  0  0  0  0
   -7.7760   -4.8650  -23.5710 H   0  0  0  0  0  0  0  0  0  0  0  0
   -9.0530   -3.9730  -24.4130 H   0  0  0  0  0  0  0  0  0  0  0  0
   -8.7960   -3.5410  -21.9240 H   0  0  0  0  0  0  0  0  0  0  0  0
   -6.1710   -2.2600  -22.7200 H   0  0  0  0  0  0  0  0  0  0  0  0
   -6.5350   -3.3440  -21.3680 H   0  0  0  0  0  0  0  0  0  0  0  0
  -10.7230   -3.6140  -21.6320 H   0  0  0  0  0  0  0  0  0  0  0  0
  -14.4640   -1.7150  -22.3180 H   0  0  0  0  0  0  0  0  0  0  0  0
  -13.3210    0.0490  -23.6940 H   0  0  0  0  0  0  0  0  0  0  0  0
  1  2  2  0  0  0  0
  2  3  1  0  0  0  0
  2 12  1  0  0  0  0
  3  4  2  0  0  0  0
  3  9  1  0  0  0  0
  4  5  1  0  0  0  0
  4 76  1  0  0  0  0
  5  6  2  0  0  0  0
  5 75  1  0  0  0  0
  6  7  1  0  0  0  0
  6  8  1  0  0  0  0
  8  9  2  0  0  0  0
  8 74  1  0  0  0  0
 10  9  1  1  0  0  0
 10 11  1  0  0  0  0
 10 36  1  0  0  0  0
 10 56  1  0  0  0  0
 11 12  1  0  0  0  0
 11 34  1  0  0  0  0
 11 35  1  0  0  0  0
 12 13  1  0  0  0  0
 13 14  1  0  0  0  0
 13 32  1  0  0  0  0
 13 33  1  0  0  0  0
 14 15  1  0  0  0  0
 14 30  1  0  0  0  0
 14 31  1  0  0  0  0
 15 16  1  0  0  0  0
 15 20  1  0  0  0  0
 15 29  1  0  0  0  0
 16 17  1  0  0  0  0
 16 27  1  0  0  0  0
 16 28  1  0  0  0  0
 17 18  1  0  0  0  0
 17 25  1  0  0  0  0
 17 26  1  0  0  0  0
 18 19  1  0  0  0  0
 19 20  1  0  0  0  0
 19 23  1  0  0  0  0
 19 24  1  0  0  0  0
 20 21  1  0  0  0  0
 20 22  1  0  0  0  0
 36 37  2  0  0  0  0
 36 38  1  0  0  0  0
 38 39  1  0  0  0  0
 38 55  1  0  0  0  0
 39 40  2  0  0  0  0
 39 48  1  0  0  0  0
 40 41  1  0  0  0  0
 40 54  1  0  0  0  0
 41 42  2  0  0  0  0
 42 43  1  0  0  0  0
 42 53  1  0  0  0  0
 43 44  2  0  0  0  0
 43 48  1  0  0  0  0
 44 45  1  0  0  0  0
 44 52  1  0  0  0  0
 45 46  2  0  0  0  0
 45 51  1  0  0  0  0
 46 47  1  0  0  0  0
 46 50  1  0  0  0  0
 47 48  2  0  0  0  0
 47 49  1  0  0  0  0
 55 56  1  0  0  0  0
 55 72  1  0  0  0  0
 55 73  1  0  0  0  0
 56 57  1  0  0  0  0
 56 71  1  1  0  0  0
 57 58  1  0  0  0  0
 57 69  1  0  0  0  0
 57 70  1  0  0  0  0
 58 59  1  0  0  0  0
 58 68  1  0  0  0  0
 59 60  2  0  0  0  0
 59 64  1  0  0  0  0
 60 61  1  0  0  0  0
 61 62  2  0  0  0  0
 61 67  1  0  0  0  0
 62 63  1  0  0  0  0
 62 66  1  0  0  0  0
 63 64  2  0  0  0  0
 63 65  1  0  0  0  0
M  CHG  1  15   1
M  END
>  <MODEL>
       1

$$$$
