tmp_first_model_11_39.pdb
 OpenBabel08272522543D

 40 44  0  0  1  0  0  0  0  0999 V2000
   -7.2310    0.9540  -25.6020 C   0  0  0  0  0  0  0  0  0  0  0  0
   -6.4990   -0.3690  -25.4070 C   0  0  0  0  0  0  0  0  0  0  0  0
   -5.2980   -0.4700  -25.5830 O   0  0  0  0  0  0  0  0  0  0  0  0
   -7.2550   -1.4520  -25.0440 N   0  0  0  0  0  0  0  0  0  0  0  0
   -6.6460   -2.7650  -24.7200 C   0  0  0  0  0  0  0  0  0  0  0  0
   -7.8230   -3.4990  -24.0350 C   0  0  2  0  0  0  0  0  0  0  0  0
   -8.9950   -2.9680  -24.8670 C   0  0  0  0  0  0  0  0  0  0  0  0
   -8.6590   -1.5010  -24.5580 C   0  0  1  0  0  0  0  0  0  0  0  0
   -8.5990   -1.5840  -23.0830 C   0  0  0  0  0  0  0  0  0  0  0  0
   -8.1600   -0.6170  -22.1230 C   0  0  0  0  0  0  0  0  0  0  0  0
   -8.3120    0.5820  -22.0800 O   0  5  0  0  0  0  0  0  0  0  0  0
   -7.4080   -1.3980  -21.1900 N   0  0  0  0  0  0  0  0  0  0  0  0
   -6.5880   -0.8210  -20.1750 C   0  0  0  0  0  0  0  0  0  0  0  0
   -6.8830   -1.0540  -18.8570 C   0  0  0  0  0  0  0  0  0  0  0  0
   -6.1930   -0.5400  -17.8060 N   0  0  0  0  0  0  0  0  0  0  0  0
   -5.1610    0.2230  -18.0700 C   0  0  0  0  0  0  0  0  0  0  0  0
   -4.7220    0.5320  -19.3890 C   0  0  0  0  0  0  0  0  0  0  0  0
   -3.5870    1.3550  -19.6300 C   0  0  0  0  0  0  0  0  0  0  0  0
   -3.1880    1.6240  -20.9100 C   0  0  0  0  0  0  0  0  0  0  0  0
   -3.8930    1.0750  -22.0050 C   0  0  0  0  0  0  0  0  0  0  0  0
   -4.9850    0.2730  -21.7960 C   0  0  0  0  0  0  0  0  0  0  0  0
   -5.4440   -0.0080  -20.4800 C   0  0  0  0  0  0  0  0  0  0  0  0
   -5.5110   -0.1550  -22.6450 H   0  0  0  0  0  0  0  0  0  0  0  0
   -3.5720    1.2860  -23.0210 H   0  0  0  0  0  0  0  0  0  0  0  0
   -2.3290    2.2620  -21.0990 H   0  0  0  0  0  0  0  0  0  0  0  0
   -3.0540    1.7770  -18.7810 H   0  0  0  0  0  0  0  0  0  0  0  0
   -4.6060    0.6250  -17.2180 H   0  0  0  0  0  0  0  0  0  0  0  0
   -7.7370   -1.6750  -18.5990 H   0  0  0  0  0  0  0  0  0  0  0  0
   -7.2480   -2.7290  -21.6340 C   0  0  0  0  0  0  0  0  0  0  0  0
   -6.5250   -3.5750  -21.1620 O   0  0  0  0  0  0  0  0  0  0  0  0
   -8.0970   -2.8200  -22.7430 N   0  0  0  0  0  0  0  0  0  0  0  0
   -9.2950   -0.7200  -24.9740 H   0  0  0  0  0  0  0  0  0  0  0  0
   -9.9600   -3.2810  -24.4790 H   0  0  0  0  0  0  0  0  0  0  0  0
   -8.9160   -3.2080  -25.9300 H   0  0  0  0  0  0  0  0  0  0  0  0
   -7.7290   -4.5730  -23.9230 H   0  0  0  0  0  0  0  0  0  0  0  0
   -5.7860   -2.6790  -24.0510 H   0  0  0  0  0  0  0  0  0  0  0  0
   -6.3240   -3.2730  -25.6330 H   0  0  0  0  0  0  0  0  0  0  0  0
   -6.4990    1.6970  -25.9130 H   0  0  0  0  0  0  0  0  0  0  0  0
   -7.7130    1.2970  -24.6830 H   0  0  0  0  0  0  0  0  0  0  0  0
   -7.9970    0.8940  -26.3820 H   0  0  0  0  0  0  0  0  0  0  0  0
  1  2  1  0  0  0  0
  1 38  1  0  0  0  0
  1 39  1  0  0  0  0
  1 40  1  0  0  0  0
  2  3  2  0  0  0  0
  2  4  1  0  0  0  0
  4  5  1  0  0  0  0
  4  8  1  0  0  0  0
  5  6  1  0  0  0  0
  5 36  1  0  0  0  0
  5 37  1  0  0  0  0
  6  7  1  0  0  0  0
  6 31  1  0  0  0  0
  6 35  1  1  0  0  0
  7  8  1  0  0  0  0
  7 33  1  0  0  0  0
  7 34  1  0  0  0  0
  8  9  1  0  0  0  0
  8 32  1  6  0  0  0
  9 10  2  0  0  0  0
  9 31  1  0  0  0  0
 10 11  1  0  0  0  0
 10 12  1  0  0  0  0
 12 13  1  0  0  0  0
 12 29  1  0  0  0  0
 13 14  2  0  0  0  0
 13 22  1  0  0  0  0
 14 15  1  0  0  0  0
 14 28  1  0  0  0  0
 15 16  2  0  0  0  0
 16 17  1  0  0  0  0
 16 27  1  0  0  0  0
 17 18  2  0  0  0  0
 17 22  1  0  0  0  0
 18 19  1  0  0  0  0
 18 26  1  0  0  0  0
 19 20  2  0  0  0  0
 19 25  1  0  0  0  0
 20 21  1  0  0  0  0
 20 24  1  0  0  0  0
 21 22  2  0  0  0  0
 21 23  1  0  0  0  0
 29 30  2  0  0  0  0
 29 31  1  0  0  0  0
M  CHG  1  11  -1
M  END
>  <MODEL>
       1

$$$$
