tmp_first_model_5_6.pdb
 OpenBabel08272519223D

 43 45  0  0  0  0  0  0  0  0999 V2000
   -9.2980   -7.9890  -24.9630 C   0  0  0  0  0  0  0  0  0  0  0  0
   -9.3820   -6.4870  -25.1710 C   0  0  0  0  0  0  0  0  0  0  0  0
   -9.0260   -5.7190  -23.9030 C   0  0  0  0  0  0  0  0  0  0  0  0
   -7.5780   -5.9560  -23.4680 C   0  0  0  0  0  0  0  0  0  0  0  0
   -7.2730   -5.1880  -22.2010 C   0  0  0  0  0  0  0  0  0  0  0  0
   -7.6220   -3.7810  -22.3460 N   0  0  0  0  0  0  0  0  0  0  0  0
   -6.7650   -2.8850  -21.7690 C   0  0  0  0  0  0  0  0  0  0  0  0
   -5.5830   -3.1370  -21.6060 O   0  0  0  0  0  0  0  0  0  0  0  0
   -7.3820   -1.5680  -21.2900 C   0  0  0  0  0  0  0  0  0  0  0  0
   -6.5370   -0.9660  -20.2180 C   0  0  0  0  0  0  0  0  0  0  0  0
   -6.8240   -1.1530  -18.8920 C   0  0  0  0  0  0  0  0  0  0  0  0
   -5.9910   -0.8530  -17.8660 N   0  0  0  0  0  0  0  0  0  0  0  0
   -4.8240   -0.3390  -18.1880 C   0  0  0  0  0  0  0  0  0  0  0  0
   -4.4310   -0.0210  -19.5140 C   0  0  0  0  0  0  0  0  0  0  0  0
   -3.2600    0.7230  -19.7920 C   0  0  0  0  0  0  0  0  0  0  0  0
   -3.1460    1.3970  -20.9750 C   0  0  0  0  0  0  0  0  0  0  0  0
   -4.0560    1.1410  -22.0360 C   0  0  0  0  0  0  0  0  0  0  0  0
   -5.0780    0.2470  -21.8490 C   0  0  0  0  0  0  0  0  0  0  0  0
   -5.3500   -0.2660  -20.5500 C   0  0  0  0  0  0  0  0  0  0  0  0
   -5.6530   -0.1070  -22.6950 H   0  0  0  0  0  0  0  0  0  0  0  0
   -3.8980    1.5970  -23.0120 H   0  0  0  0  0  0  0  0  0  0  0  0
   -2.2860    2.0290  -21.1650 H   0  0  0  0  0  0  0  0  0  0  0  0
   -2.5490    0.8530  -18.9830 H   0  0  0  0  0  0  0  0  0  0  0  0
   -4.1510   -0.0880  -17.3690 H   0  0  0  0  0  0  0  0  0  0  0  0
   -7.7900   -1.5770  -18.6080 H   0  0  0  0  0  0  0  0  0  0  0  0
   -7.4900   -0.8910  -22.1450 H   0  0  0  0  0  0  0  0  0  0  0  0
   -8.3820   -1.7720  -20.8960 H   0  0  0  0  0  0  0  0  0  0  0  0
   -8.9860   -3.4810  -22.7740 C   0  0  0  0  0  0  0  0  0  0  0  0
   -9.2850   -4.2240  -24.0720 C   0  0  0  0  0  0  0  0  0  0  0  0
   -8.6490   -3.8280  -24.8780 H   0  0  0  0  0  0  0  0  0  0  0  0
  -10.3270   -4.0520  -24.3730 H   0  0  0  0  0  0  0  0  0  0  0  0
   -9.7130   -3.7840  -21.9990 H   0  0  0  0  0  0  0  0  0  0  0  0
   -9.1070   -2.4040  -22.9350 H   0  0  0  0  0  0  0  0  0  0  0  0
   -7.8290   -5.6190  -21.3520 H   0  0  0  0  0  0  0  0  0  0  0  0
   -6.2100   -5.2300  -21.9580 H   0  0  0  0  0  0  0  0  0  0  0  0
   -6.8920   -5.6380  -24.2670 H   0  0  0  0  0  0  0  0  0  0  0  0
   -7.3810   -7.0180  -23.2770 H   0  0  0  0  0  0  0  0  0  0  0  0
   -9.6730   -6.0760  -23.0840 H   0  0  0  0  0  0  0  0  0  0  0  0
  -10.3990   -6.2130  -25.4770 H   0  0  0  0  0  0  0  0  0  0  0  0
   -8.6960   -6.1690  -25.9720 H   0  0  0  0  0  0  0  0  0  0  0  0
   -9.9870   -8.3070  -24.1730 H   0  0  0  0  0  0  0  0  0  0  0  0
   -8.2840   -8.2530  -24.6520 H   0  0  0  0  0  0  0  0  0  0  0  0
   -9.5490   -8.5450  -25.8700 H   0  0  0  0  0  0  0  0  0  0  0  0
  1  2  1  0  0  0  0
  1 41  1  0  0  0  0
  1 42  1  0  0  0  0
  1 43  1  0  0  0  0
  2  3  1  0  0  0  0
  2 39  1  0  0  0  0
  2 40  1  0  0  0  0
  3  4  1  0  0  0  0
  3 29  1  0  0  0  0
  3 38  1  0  0  0  0
  4  5  1  0  0  0  0
  4 36  1  0  0  0  0
  4 37  1  0  0  0  0
  5  6  1  0  0  0  0
  5 34  1  0  0  0  0
  5 35  1  0  0  0  0
  6  7  1  0  0  0  0
  6 28  1  0  0  0  0
  7  8  2  0  0  0  0
  7  9  1  0  0  0  0
  9 10  1  0  0  0  0
  9 26  1  0  0  0  0
  9 27  1  0  0  0  0
 10 11  2  0  0  0  0
 10 19  1  0  0  0  0
 11 12  1  0  0  0  0
 11 25  1  0  0  0  0
 12 13  2  0  0  0  0
 13 14  1  0  0  0  0
 13 24  1  0  0  0  0
 14 15  2  0  0  0  0
 14 19  1  0  0  0  0
 15 16  1  0  0  0  0
 15 23  1  0  0  0  0
 16 17  2  0  0  0  0
 16 22  1  0  0  0  0
 17 18  1  0  0  0  0
 17 21  1  0  0  0  0
 18 19  2  0  0  0  0
 18 20  1  0  0  0  0
 28 29  1  0  0  0  0
 28 32  1  0  0  0  0
 28 33  1  0  0  0  0
 29 30  1  0  0  0  0
 29 31  1  0  0  0  0
M  END
>  <MODEL>
       1

$$$$
