tmp_first_model_4_11.pdb
 OpenBabel08272518513D

 48 52  0  0  0  0  0  0  0  0999 V2000
  -10.5310   -2.5470  -22.3360 C   0  0  0  0  0  0  0  0  0  0  0  0
   -9.1070   -2.3410  -22.1470 N   0  0  0  0  0  0  0  0  0  0  0  0
   -8.6390   -1.3060  -21.3820 C   0  0  0  0  0  0  0  0  0  0  0  0
   -9.2940   -0.4230  -20.8810 O   0  0  0  0  0  0  0  0  0  0  0  0
   -7.2440   -1.4530  -21.3090 N   0  0  0  0  0  0  0  0  0  0  0  0
   -6.4320   -0.9790  -20.2420 C   0  0  0  0  0  0  0  0  0  0  0  0
   -6.6630   -1.3850  -18.9530 C   0  0  0  0  0  0  0  0  0  0  0  0
   -5.7780   -1.2120  -17.9430 N   0  0  0  0  0  0  0  0  0  0  0  0
   -4.6540   -0.5920  -18.2170 C   0  0  0  0  0  0  0  0  0  0  0  0
   -4.3280   -0.0650  -19.5020 C   0  0  0  0  0  0  0  0  0  0  0  0
   -3.1200    0.6290  -19.7730 C   0  0  0  0  0  0  0  0  0  0  0  0
   -2.8750    1.1380  -21.0180 C   0  0  0  0  0  0  0  0  0  0  0  0
   -3.8220    1.0010  -22.0540 C   0  0  0  0  0  0  0  0  0  0  0  0
   -4.9960    0.3330  -21.8240 C   0  0  0  0  0  0  0  0  0  0  0  0
   -5.2600   -0.2370  -20.5470 C   0  0  0  0  0  0  0  0  0  0  0  0
   -5.7370    0.2520  -22.6110 H   0  0  0  0  0  0  0  0  0  0  0  0
   -3.6170    1.4310  -23.0300 H   0  0  0  0  0  0  0  0  0  0  0  0
   -1.9440    1.6530  -21.2260 H   0  0  0  0  0  0  0  0  0  0  0  0
   -2.4070    0.7810  -18.9710 H   0  0  0  0  0  0  0  0  0  0  0  0
   -3.9550   -0.4610  -17.3890 H   0  0  0  0  0  0  0  0  0  0  0  0
   -7.5820   -1.9160  -18.7090 H   0  0  0  0  0  0  0  0  0  0  0  0
   -6.8120   -2.5610  -22.0340 C   0  0  0  0  0  0  0  0  0  0  0  0
   -5.6750   -2.9560  -22.0980 O   0  0  0  0  0  0  0  0  0  0  0  0
   -8.0460   -3.1810  -22.6420 C   0  0  0  0  0  0  0  0  0  0  0  0
   -7.9760   -3.4580  -24.1560 C   0  0  0  0  0  0  0  0  0  0  0  0
   -8.0460   -4.9150  -23.8980 N   0  0  0  0  0  0  0  0  0  0  0  0
   -9.3600   -5.7400  -24.5630 S   0  0  0  0  0  0  0  0  0  0  0  0
   -9.1560   -7.1450  -24.2920 O   0  0  0  0  0  0  0  0  0  0  0  0
  -10.5920   -5.0750  -24.1470 O   0  0  0  0  0  0  0  0  0  0  0  0
   -9.1090   -5.4300  -26.2890 C   0  0  0  0  0  0  0  0  0  0  0  0
   -8.2260   -6.2530  -26.9730 C   0  0  0  0  0  0  0  0  0  0  0  0
   -8.1010   -6.0980  -28.3480 C   0  0  0  0  0  0  0  0  0  0  0  0
   -8.8490   -5.1190  -28.9950 C   0  0  0  0  0  0  0  0  0  0  0  0
   -9.6800   -4.2510  -28.2880 C   0  0  0  0  0  0  0  0  0  0  0  0
   -9.8170   -4.4120  -26.9140 C   0  0  0  0  0  0  0  0  0  0  0  0
  -10.4780   -3.7880  -26.3170 H   0  0  0  0  0  0  0  0  0  0  0  0
  -10.2250   -3.4560  -28.7870 H   0  0  0  0  0  0  0  0  0  0  0  0
   -8.7720   -5.0580  -30.0650 H   0  0  0  0  0  0  0  0  0  0  0  0
   -7.4350   -6.7490  -28.9090 H   0  0  0  0  0  0  0  0  0  0  0  0
   -7.6910   -7.0140  -26.4150 H   0  0  0  0  0  0  0  0  0  0  0  0
   -8.1050   -4.7030  -22.4310 C   0  0  0  0  0  0  0  0  0  0  0  0
   -8.9940   -5.0830  -21.9330 H   0  0  0  0  0  0  0  0  0  0  0  0
   -7.2040   -5.0790  -21.9520 H   0  0  0  0  0  0  0  0  0  0  0  0
   -7.0340   -3.1890  -24.6330 H   0  0  0  0  0  0  0  0  0  0  0  0
   -8.8120   -3.0490  -24.7280 H   0  0  0  0  0  0  0  0  0  0  0  0
  -10.8060   -2.4310  -23.3880 H   0  0  0  0  0  0  0  0  0  0  0  0
  -10.8400   -3.5420  -22.0060 H   0  0  0  0  0  0  0  0  0  0  0  0
  -11.0550   -1.7900  -21.7480 H   0  0  0  0  0  0  0  0  0  0  0  0
  1  2  1  0  0  0  0
  1 46  1  0  0  0  0
  1 47  1  0  0  0  0
  1 48  1  0  0  0  0
  2  3  1  0  0  0  0
  2 24  1  0  0  0  0
  3  4  2  0  0  0  0
  3  5  1  0  0  0  0
  5  6  1  0  0  0  0
  5 22  1  0  0  0  0
  6  7  2  0  0  0  0
  6 15  1  0  0  0  0
  7  8  1  0  0  0  0
  7 21  1  0  0  0  0
  8  9  2  0  0  0  0
  9 10  1  0  0  0  0
  9 20  1  0  0  0  0
 10 11  2  0  0  0  0
 10 15  1  0  0  0  0
 11 12  1  0  0  0  0
 11 19  1  0  0  0  0
 12 13  2  0  0  0  0
 12 18  1  0  0  0  0
 13 14  1  0  0  0  0
 13 17  1  0  0  0  0
 14 15  2  0  0  0  0
 14 16  1  0  0  0  0
 22 23  2  0  0  0  0
 22 24  1  0  0  0  0
 24 25  1  0  0  0  0
 24 41  1  0  0  0  0
 25 26  1  0  0  0  0
 25 44  1  0  0  0  0
 25 45  1  0  0  0  0
 26 27  1  0  0  0  0
 26 41  1  0  0  0  0
 27 28  2  0  0  0  0
 27 29  2  0  0  0  0
 27 30  1  0  0  0  0
 30 31  2  0  0  0  0
 30 35  1  0  0  0  0
 31 32  1  0  0  0  0
 31 40  1  0  0  0  0
 32 33  2  0  0  0  0
 32 39  1  0  0  0  0
 33 34  1  0  0  0  0
 33 38  1  0  0  0  0
 34 35  2  0  0  0  0
 34 37  1  0  0  0  0
 35 36  1  0  0  0  0
 41 42  1  0  0  0  0
 41 43  1  0  0  0  0
M  END
>  <MODEL>
       1

$$$$
