tmp_first_model_19_86.pdb
 OpenBabel08282503233D

 43 45  0  0  1  0  0  0  0  0999 V2000
  -13.0170   -1.7900  -24.0330 C   0  0  0  0  0  0  0  0  0  0  0  0
  -11.6640   -1.2290  -24.4790 C   0  0  1  0  0  0  0  0  0  0  0  0
  -11.3480    0.1090  -23.8160 C   0  0  0  0  0  0  0  0  0  0  0  0
  -10.8580   -0.0750  -22.3910 C   0  0  0  0  0  0  0  0  0  0  0  0
   -9.6950   -0.9500  -22.3060 N   0  0  0  0  0  0  0  0  0  0  0  0
   -8.5190   -0.4480  -21.7850 C   0  0  0  0  0  0  0  0  0  0  0  0
   -8.3210    0.7500  -21.7050 O   0  0  0  0  0  0  0  0  0  0  0  0
   -7.4550   -1.4400  -21.2570 C   0  0  0  0  0  0  0  0  0  0  0  0
   -6.5790   -0.8310  -20.1840 C   0  0  0  0  0  0  0  0  0  0  0  0
   -6.8750   -1.0420  -18.8650 C   0  0  0  0  0  0  0  0  0  0  0  0
   -6.1890   -0.5410  -17.8040 N   0  0  0  0  0  0  0  0  0  0  0  0
   -5.1570    0.2220  -18.0680 C   0  0  0  0  0  0  0  0  0  0  0  0
   -4.7230    0.5330  -19.3820 C   0  0  0  0  0  0  0  0  0  0  0  0
   -3.5950    1.3600  -19.6220 C   0  0  0  0  0  0  0  0  0  0  0  0
   -3.2080    1.6590  -20.9000 C   0  0  0  0  0  0  0  0  0  0  0  0
   -3.9340    1.1350  -21.9930 C   0  0  0  0  0  0  0  0  0  0  0  0
   -5.0250    0.3280  -21.7870 C   0  0  0  0  0  0  0  0  0  0  0  0
   -5.4530    0.0010  -20.4750 C   0  0  0  0  0  0  0  0  0  0  0  0
   -5.5890   -0.0460  -22.6360 H   0  0  0  0  0  0  0  0  0  0  0  0
   -3.6260    1.3830  -23.0050 H   0  0  0  0  0  0  0  0  0  0  0  0
   -2.3530    2.3060  -21.0820 H   0  0  0  0  0  0  0  0  0  0  0  0
   -3.0590    1.7710  -18.7690 H   0  0  0  0  0  0  0  0  0  0  0  0
   -4.6050    0.6270  -17.2160 H   0  0  0  0  0  0  0  0  0  0  0  0
   -7.7270   -1.6590  -18.5850 H   0  0  0  0  0  0  0  0  0  0  0  0
   -7.9530   -2.3330  -20.8500 H   0  0  0  0  0  0  0  0  0  0  0  0
   -6.8400   -1.7850  -22.0980 H   0  0  0  0  0  0  0  0  0  0  0  0
   -9.8760   -2.2810  -22.8800 C   0  0  1  0  0  0  0  0  0  0  0  0
  -10.6340   -3.2220  -21.9440 C   0  0  0  0  0  0  0  0  0  0  0  0
  -10.7970   -4.1970  -22.4150 H   0  0  0  0  0  0  0  0  0  0  0  0
  -10.0520   -3.3930  -21.0320 H   0  0  0  0  0  0  0  0  0  0  0  0
  -11.6110   -2.8250  -21.6520 H   0  0  0  0  0  0  0  0  0  0  0  0
  -10.4810   -2.1880  -24.2940 C   0  0  0  0  0  0  0  0  0  0  0  0
   -9.6820   -1.8860  -24.9810 H   0  0  0  0  0  0  0  0  0  0  0  0
  -10.7750   -3.1930  -24.6100 H   0  0  0  0  0  0  0  0  0  0  0  0
   -8.8750   -2.7000  -23.0110 H   0  0  0  0  0  0  0  0  0  0  0  0
  -11.6880   -0.5190  -21.8310 H   0  0  0  0  0  0  0  0  0  0  0  0
  -10.5930    0.8850  -21.9470 H   0  0  0  0  0  0  0  0  0  0  0  0
  -12.2450    0.7400  -23.8170 H   0  0  0  0  0  0  0  0  0  0  0  0
  -10.5760    0.6430  -24.3720 H   0  0  0  0  0  0  0  0  0  0  0  0
  -11.7520   -1.0490  -25.5580 H   0  0  0  0  0  0  0  0  0  0  0  0
  -13.1220   -1.8840  -22.9480 H   0  0  0  0  0  0  0  0  0  0  0  0
  -13.8410   -1.1640  -24.3960 H   0  0  0  0  0  0  0  0  0  0  0  0
  -13.1900   -2.7840  -24.4410 H   0  0  0  0  0  0  0  0  0  0  0  0
  1  2  1  0  0  0  0
  1 41  1  0  0  0  0
  1 42  1  0  0  0  0
  1 43  1  0  0  0  0
  2  3  1  0  0  0  0
  2 32  1  0  0  0  0
  2 40  1  6  0  0  0
  3  4  1  0  0  0  0
  3 38  1  0  0  0  0
  3 39  1  0  0  0  0
  4  5  1  0  0  0  0
  4 36  1  0  0  0  0
  4 37  1  0  0  0  0
  5  6  1  0  0  0  0
  5 27  1  0  0  0  0
  6  7  2  0  0  0  0
  6  8  1  0  0  0  0
  8  9  1  0  0  0  0
  8 25  1  0  0  0  0
  8 26  1  0  0  0  0
  9 10  2  0  0  0  0
  9 18  1  0  0  0  0
 10 11  1  0  0  0  0
 10 24  1  0  0  0  0
 11 12  2  0  0  0  0
 12 13  1  0  0  0  0
 12 23  1  0  0  0  0
 13 14  2  0  0  0  0
 13 18  1  0  0  0  0
 14 15  1  0  0  0  0
 14 22  1  0  0  0  0
 15 16  2  0  0  0  0
 15 21  1  0  0  0  0
 16 17  1  0  0  0  0
 16 20  1  0  0  0  0
 17 18  2  0  0  0  0
 17 19  1  0  0  0  0
 27 28  1  0  0  0  0
 27 32  1  0  0  0  0
 27 35  1  6  0  0  0
 28 29  1  0  0  0  0
 28 30  1  0  0  0  0
 28 31  1  0  0  0  0
 32 33  1  0  0  0  0
 32 34  1  0  0  0  0
M  END
>  <MODEL>
       1

$$$$
