tmp_first_model_18_56.pdb
 OpenBabel08282502533D

 57 62  0  0  1  0  0  0  0  0999 V2000
  -10.1550   -0.9460  -23.7660 C   0  0  0  0  0  0  0  0  0  0  0  0
   -8.8380   -1.2930  -23.0780 C   0  0  1  0  0  0  0  0  0  0  0  0
   -8.4030   -0.3680  -21.9320 C   0  0  0  0  0  0  0  0  0  0  0  0
   -7.4080   -1.1790  -21.2320 N   0  0  0  0  0  0  0  0  0  0  0  0
   -6.6010   -0.7150  -20.1620 C   0  0  0  0  0  0  0  0  0  0  0  0
   -6.8940   -1.0160  -18.8560 C   0  0  0  0  0  0  0  0  0  0  0  0
   -6.2200   -0.5160  -17.7870 N   0  0  0  0  0  0  0  0  0  0  0  0
   -5.2070    0.2840  -18.0210 C   0  0  0  0  0  0  0  0  0  0  0  0
   -4.7530    0.6300  -19.3290 C   0  0  0  0  0  0  0  0  0  0  0  0
   -3.6120    1.4480  -19.5600 C   0  0  0  0  0  0  0  0  0  0  0  0
   -3.1810    1.6800  -20.8400 C   0  0  0  0  0  0  0  0  0  0  0  0
   -3.8670    1.1230  -21.9430 C   0  0  0  0  0  0  0  0  0  0  0  0
   -4.9860    0.3550  -21.7440 C   0  0  0  0  0  0  0  0  0  0  0  0
   -5.4610    0.1020  -20.4330 C   0  0  0  0  0  0  0  0  0  0  0  0
   -5.5070   -0.0890  -22.5850 H   0  0  0  0  0  0  0  0  0  0  0  0
   -3.5060    1.2960  -22.9540 H   0  0  0  0  0  0  0  0  0  0  0  0
   -2.3010    2.2930  -21.0220 H   0  0  0  0  0  0  0  0  0  0  0  0
   -3.0820    1.8750  -18.7090 H   0  0  0  0  0  0  0  0  0  0  0  0
   -4.6750    0.6780  -17.1520 H   0  0  0  0  0  0  0  0  0  0  0  0
   -7.7120   -1.6940  -18.6210 H   0  0  0  0  0  0  0  0  0  0  0  0
   -7.5330   -2.5300  -21.4970 C   0  0  0  0  0  0  0  0  0  0  0  0
   -6.8230   -3.3980  -21.0350 O   0  0  0  0  0  0  0  0  0  0  0  0
   -8.7120   -2.7270  -22.4600 C   0  0  1  0  0  0  0  0  0  0  0  0
   -9.9380   -3.1020  -21.5790 C   0  0  0  0  0  0  0  0  0  0  0  0
  -11.0870   -3.5500  -22.3560 N   0  0  0  0  0  0  0  0  0  0  0  0
  -12.4040   -3.5760  -21.7110 C   0  0  0  0  0  0  0  0  0  0  0  0
  -13.3420   -2.4460  -22.0560 C   0  0  0  0  0  0  0  0  0  0  0  0
  -13.5250   -2.1460  -23.3400 N   0  0  0  0  0  0  0  0  0  0  0  0
  -14.4330   -1.1890  -23.5810 C   0  0  0  0  0  0  0  0  0  0  0  0
  -15.0870   -0.5050  -22.5690 C   0  0  0  0  0  0  0  0  0  0  0  0
  -14.8100   -0.9020  -21.2690 C   0  0  0  0  0  0  0  0  0  0  0  0
  -13.9810   -1.9040  -21.0070 N   0  0  0  0  0  0  0  0  0  0  0  0
  -15.2670   -0.4070  -20.4070 H   0  0  0  0  0  0  0  0  0  0  0  0
  -15.7670    0.3160  -22.7720 H   0  0  0  0  0  0  0  0  0  0  0  0
  -14.6330   -0.9680  -24.6310 H   0  0  0  0  0  0  0  0  0  0  0  0
  -12.8970   -4.5110  -21.9950 H   0  0  0  0  0  0  0  0  0  0  0  0
  -12.3150   -3.5800  -20.6290 H   0  0  0  0  0  0  0  0  0  0  0  0
  -10.8910   -4.4650  -23.3560 C   0  0  0  0  0  0  0  0  0  0  0  0
  -11.8070   -5.1330  -23.7830 O   0  0  0  0  0  0  0  0  0  0  0  0
   -9.5090   -4.6350  -23.9010 C   0  0  0  0  0  0  0  0  0  0  0  0
   -9.3330   -5.6250  -24.8700 C   0  0  0  0  0  0  0  0  0  0  0  0
   -8.0870   -5.8630  -25.4120 C   0  0  0  0  0  0  0  0  0  0  0  0
   -7.0320   -5.0750  -24.9650 C   0  0  0  0  0  0  0  0  0  0  0  0
   -5.8110   -5.3280  -25.4620 F   0  0  0  0  0  0  0  0  0  0  0  0
   -7.1850   -4.0630  -24.0340 C   0  0  0  0  0  0  0  0  0  0  0  0
   -8.4520   -3.8300  -23.4720 C   0  0  0  0  0  0  0  0  0  0  0  0
   -6.3020   -3.5150  -23.7210 H   0  0  0  0  0  0  0  0  0  0  0  0
   -7.9240   -6.6470  -26.1440 H   0  0  0  0  0  0  0  0  0  0  0  0
  -10.2100   -6.1900  -25.1740 H   0  0  0  0  0  0  0  0  0  0  0  0
   -9.6270   -3.8890  -20.8760 H   0  0  0  0  0  0  0  0  0  0  0  0
  -10.2670   -2.2370  -20.9920 H   0  0  0  0  0  0  0  0  0  0  0  0
   -7.9820    0.5790  -22.2820 H   0  0  0  0  0  0  0  0  0  0  0  0
   -9.2390   -0.1100  -21.2670 H   0  0  0  0  0  0  0  0  0  0  0  0
   -8.0440   -1.2440  -23.8330 H   0  0  0  0  0  0  0  0  0  0  0  0
  -10.0980    0.0460  -24.2260 H   0  0  0  0  0  0  0  0  0  0  0  0
  -11.0050   -0.9310  -23.0800 H   0  0  0  0  0  0  0  0  0  0  0  0
  -10.3720   -1.6740  -24.5570 H   0  0  0  0  0  0  0  0  0  0  0  0
  1  2  1  0  0  0  0
  1 55  1  0  0  0  0
  1 56  1  0  0  0  0
  1 57  1  0  0  0  0
  2  3  1  0  0  0  0
  2 23  1  0  0  0  0
  2 54  1  6  0  0  0
  3  4  1  0  0  0  0
  3 52  1  0  0  0  0
  3 53  1  0  0  0  0
  4  5  1  0  0  0  0
  4 21  1  0  0  0  0
  5  6  2  0  0  0  0
  5 14  1  0  0  0  0
  6  7  1  0  0  0  0
  6 20  1  0  0  0  0
  7  8  2  0  0  0  0
  8  9  1  0  0  0  0
  8 19  1  0  0  0  0
  9 10  2  0  0  0  0
  9 14  1  0  0  0  0
 10 11  1  0  0  0  0
 10 18  1  0  0  0  0
 11 12  2  0  0  0  0
 11 17  1  0  0  0  0
 12 13  1  0  0  0  0
 12 16  1  0  0  0  0
 13 14  2  0  0  0  0
 13 15  1  0  0  0  0
 21 22  2  0  0  0  0
 23 21  1  1  0  0  0
 23 24  1  0  0  0  0
 23 46  1  0  0  0  0
 24 25  1  0  0  0  0
 24 50  1  0  0  0  0
 24 51  1  0  0  0  0
 25 26  1  0  0  0  0
 25 38  1  0  0  0  0
 26 27  1  0  0  0  0
 26 36  1  0  0  0  0
 26 37  1  0  0  0  0
 27 28  2  0  0  0  0
 27 32  1  0  0  0  0
 28 29  1  0  0  0  0
 29 30  2  0  0  0  0
 29 35  1  0  0  0  0
 30 31  1  0  0  0  0
 30 34  1  0  0  0  0
 31 32  2  0  0  0  0
 31 33  1  0  0  0  0
 38 39  2  0  0  0  0
 38 40  1  0  0  0  0
 40 41  2  0  0  0  0
 40 46  1  0  0  0  0
 41 42  1  0  0  0  0
 41 49  1  0  0  0  0
 42 43  2  0  0  0  0
 42 48  1  0  0  0  0
 43 44  1  0  0  0  0
 43 45  1  0  0  0  0
 45 46  2  0  0  0  0
 45 47  1  0  0  0  0
M  END
>  <MODEL>
       1

$$$$
