tmp_first_model_16_69.pdb
 OpenBabel08282501503D

 63 67  0  0  0  0  0  0  0  0999 V2000
   -7.3870   -6.1740  -26.9290 C   0  0  0  0  0  0  0  0  0  0  0  0
   -7.8410   -5.1880  -26.1640 C   0  0  0  0  0  0  0  0  0  0  0  0
   -9.2870   -4.8440  -26.1950 C   0  0  0  0  0  0  0  0  0  0  0  0
  -10.0950   -5.5560  -26.7600 O   0  0  0  0  0  0  0  0  0  0  0  0
   -9.7180   -3.7530  -25.4640 N   0  0  0  0  0  0  0  0  0  0  0  0
  -11.0350   -3.9550  -24.8630 C   0  0  0  0  0  0  0  0  0  0  0  0
  -11.5150   -2.7410  -24.0970 C   0  0  0  0  0  0  0  0  0  0  0  0
  -10.3540   -2.1590  -23.2990 C   0  0  0  0  0  0  0  0  0  0  0  0
   -9.2280   -1.7530  -24.2300 C   0  0  0  0  0  0  0  0  0  0  0  0
   -8.9820   -2.5660  -25.3440 C   0  0  0  0  0  0  0  0  0  0  0  0
   -8.0680   -2.1780  -26.3350 C   0  0  0  0  0  0  0  0  0  0  0  0
   -7.2970   -1.0400  -26.1670 C   0  0  0  0  0  0  0  0  0  0  0  0
   -7.4450   -0.2810  -25.0100 C   0  0  0  0  0  0  0  0  0  0  0  0
   -8.4110   -0.6460  -24.0800 C   0  0  0  0  0  0  0  0  0  0  0  0
   -8.5490    0.2920  -22.8450 N   0  3  0  0  0  0  0  0  0  0  0  0
   -9.7050    1.3190  -22.9950 C   0  0  0  0  0  0  0  0  0  0  0  0
   -9.4740    2.1800  -24.2010 C   0  0  0  0  0  0  0  0  0  0  0  0
   -8.6020    3.2680  -24.1310 C   0  0  0  0  0  0  0  0  0  0  0  0
   -8.3760    4.0570  -25.2520 C   0  0  0  0  0  0  0  0  0  0  0  0
   -9.0070    3.7630  -26.4580 C   0  0  0  0  0  0  0  0  0  0  0  0
   -9.8690    2.6750  -26.5230 C   0  0  0  0  0  0  0  0  0  0  0  0
  -10.6550    2.2870  -28.0270 Cl  0  0  0  0  0  0  0  0  0  0  0  0
  -10.1120    1.8850  -25.4090 C   0  0  0  0  0  0  0  0  0  0  0  0
  -10.7610    1.0130  -25.4800 H   0  0  0  0  0  0  0  0  0  0  0  0
   -8.8440    4.3670  -27.3430 H   0  0  0  0  0  0  0  0  0  0  0  0
   -7.7010    4.9050  -25.1860 H   0  0  0  0  0  0  0  0  0  0  0  0
   -8.0970    3.4850  -23.1890 H   0  0  0  0  0  0  0  0  0  0  0  0
  -10.6390    0.7580  -23.0870 H   0  0  0  0  0  0  0  0  0  0  0  0
   -9.7640    1.8970  -22.0710 H   0  0  0  0  0  0  0  0  0  0  0  0
   -8.5790   -0.3590  -21.5520 C   0  0  0  0  0  0  0  0  0  0  0  0
   -9.4480   -0.0920  -20.7600 O   0  0  0  0  0  0  0  0  0  0  0  0
   -7.4710   -1.3660  -21.2750 C   0  0  0  0  0  0  0  0  0  0  0  0
   -6.5740   -0.8460  -20.1860 C   0  0  0  0  0  0  0  0  0  0  0  0
   -6.8860   -1.0980  -18.8790 C   0  0  0  0  0  0  0  0  0  0  0  0
   -6.1310   -0.7330  -17.8120 N   0  0  0  0  0  0  0  0  0  0  0  0
   -5.0670   -0.0070  -18.0670 C   0  0  0  0  0  0  0  0  0  0  0  0
   -4.6830    0.4240  -19.3700 C   0  0  0  0  0  0  0  0  0  0  0  0
   -3.5970    1.3100  -19.5970 C   0  0  0  0  0  0  0  0  0  0  0  0
   -3.2250    1.6430  -20.8710 C   0  0  0  0  0  0  0  0  0  0  0  0
   -3.9280    1.1190  -21.9800 C   0  0  0  0  0  0  0  0  0  0  0  0
   -5.0090    0.2960  -21.7840 C   0  0  0  0  0  0  0  0  0  0  0  0
   -5.4320   -0.0490  -20.4730 C   0  0  0  0  0  0  0  0  0  0  0  0
   -5.5380   -0.0930  -22.6510 H   0  0  0  0  0  0  0  0  0  0  0  0
   -3.6030    1.3670  -22.9870 H   0  0  0  0  0  0  0  0  0  0  0  0
   -2.3740    2.2950  -21.0460 H   0  0  0  0  0  0  0  0  0  0  0  0
   -3.0860    1.7350  -18.7360 H   0  0  0  0  0  0  0  0  0  0  0  0
   -4.4470    0.2820  -17.2150 H   0  0  0  0  0  0  0  0  0  0  0  0
   -7.8050   -1.6430  -18.6570 H   0  0  0  0  0  0  0  0  0  0  0  0
   -6.9400   -1.6090  -22.1990 H   0  0  0  0  0  0  0  0  0  0  0  0
   -7.9620   -2.2820  -20.9210 H   0  0  0  0  0  0  0  0  0  0  0  0
   -7.6390    0.8230  -22.9200 H   0  0  0  0  0  0  0  0  0  0  0  0
   -6.8620    0.6210  -24.8340 H   0  0  0  0  0  0  0  0  0  0  0  0
   -6.5790   -0.7530  -26.9320 H   0  0  0  0  0  0  0  0  0  0  0  0
   -7.9640   -2.7700  -27.2370 H   0  0  0  0  0  0  0  0  0  0  0  0
   -9.9750   -2.9210  -22.6010 H   0  0  0  0  0  0  0  0  0  0  0  0
  -10.6820   -1.3170  -22.6830 H   0  0  0  0  0  0  0  0  0  0  0  0
  -12.3290   -3.0500  -23.4320 H   0  0  0  0  0  0  0  0  0  0  0  0
  -11.9270   -1.9880  -24.7810 H   0  0  0  0  0  0  0  0  0  0  0  0
  -10.9590   -4.8190  -24.1880 H   0  0  0  0  0  0  0  0  0  0  0  0
  -11.7020   -4.2440  -25.6770 H   0  0  0  0  0  0  0  0  0  0  0  0
   -7.2040   -4.6490  -25.4750 H   0  0  0  0  0  0  0  0  0  0  0  0
   -6.3590   -6.5170  -26.8680 H   0  0  0  0  0  0  0  0  0  0  0  0
   -8.0740   -6.6590  -27.6150 H   0  0  0  0  0  0  0  0  0  0  0  0
  1  2  2  0  0  0  0
  1 62  1  0  0  0  0
  1 63  1  0  0  0  0
  2  3  1  0  0  0  0
  2 61  1  0  0  0  0
  3  4  2  0  0  0  0
  3  5  1  0  0  0  0
  5  6  1  0  0  0  0
  5 10  1  0  0  0  0
  6  7  1  0  0  0  0
  6 59  1  0  0  0  0
  6 60  1  0  0  0  0
  7  8  1  0  0  0  0
  7 57  1  0  0  0  0
  7 58  1  0  0  0  0
  8  9  1  0  0  0  0
  8 55  1  0  0  0  0
  8 56  1  0  0  0  0
  9 10  2  0  0  0  0
  9 14  1  0  0  0  0
 10 11  1  0  0  0  0
 11 12  2  0  0  0  0
 11 54  1  0  0  0  0
 12 13  1  0  0  0  0
 12 53  1  0  0  0  0
 13 14  2  0  0  0  0
 13 52  1  0  0  0  0
 14 15  1  0  0  0  0
 15 16  1  0  0  0  0
 15 30  1  0  0  0  0
 15 51  1  0  0  0  0
 16 17  1  0  0  0  0
 16 28  1  0  0  0  0
 16 29  1  0  0  0  0
 17 18  2  0  0  0  0
 17 23  1  0  0  0  0
 18 19  1  0  0  0  0
 18 27  1  0  0  0  0
 19 20  2  0  0  0  0
 19 26  1  0  0  0  0
 20 21  1  0  0  0  0
 20 25  1  0  0  0  0
 21 22  1  0  0  0  0
 21 23  2  0  0  0  0
 23 24  1  0  0  0  0
 30 31  2  0  0  0  0
 30 32  1  0  0  0  0
 32 33  1  0  0  0  0
 32 49  1  0  0  0  0
 32 50  1  0  0  0  0
 33 34  2  0  0  0  0
 33 42  1  0  0  0  0
 34 35  1  0  0  0  0
 34 48  1  0  0  0  0
 35 36  2  0  0  0  0
 36 37  1  0  0  0  0
 36 47  1  0  0  0  0
 37 38  2  0  0  0  0
 37 42  1  0  0  0  0
 38 39  1  0  0  0  0
 38 46  1  0  0  0  0
 39 40  2  0  0  0  0
 39 45  1  0  0  0  0
 40 41  1  0  0  0  0
 40 44  1  0  0  0  0
 41 42  2  0  0  0  0
 41 43  1  0  0  0  0
M  CHG  1  15   1
M  END
>  <MODEL>
       1

$$$$
