tmp_first_model_3_78.pdb
 OpenBabel08272518143D

 56 60  0  0  1  0  0  0  0  0999 V2000
  -14.4770   -0.5140  -22.8100 C   0  0  0  0  0  0  0  0  0  0  0  0
  -13.8380   -1.7000  -22.2640 N   0  0  0  0  0  0  0  0  0  0  0  0
  -12.8740   -2.3370  -22.9960 C   0  0  0  0  0  0  0  0  0  0  0  0
  -12.5920   -1.9630  -24.1190 O   0  0  0  0  0  0  0  0  0  0  0  0
  -12.1700   -3.5340  -22.3310 C   0  0  0  0  0  0  0  0  0  0  0  0
  -10.7640   -3.6420  -22.7160 N   0  0  0  0  0  0  0  0  0  0  0  0
   -9.7770   -3.1560  -21.7590 C   0  0  0  0  0  0  0  0  0  0  0  0
   -8.4490   -2.7060  -22.4200 C   0  0  2  0  0  0  0  0  0  0  0  0
   -7.4090   -2.5730  -21.2900 C   0  0  0  0  0  0  0  0  0  0  0  0
   -6.8900   -3.4830  -20.6720 O   0  0  0  0  0  0  0  0  0  0  0  0
   -7.1770   -1.2340  -21.0570 N   0  0  0  0  0  0  0  0  0  0  0  0
   -6.3620   -0.7540  -20.0040 C   0  0  0  0  0  0  0  0  0  0  0  0
   -6.6600   -1.0000  -18.6860 C   0  0  0  0  0  0  0  0  0  0  0  0
   -6.0260   -0.4060  -17.6410 N   0  0  0  0  0  0  0  0  0  0  0  0
   -5.0400    0.4170  -17.9120 C   0  0  0  0  0  0  0  0  0  0  0  0
   -4.5790    0.6990  -19.2270 C   0  0  0  0  0  0  0  0  0  0  0  0
   -3.4710    1.5530  -19.4680 C   0  0  0  0  0  0  0  0  0  0  0  0
   -3.0550    1.7980  -20.7480 C   0  0  0  0  0  0  0  0  0  0  0  0
   -3.7360    1.2150  -21.8420 C   0  0  0  0  0  0  0  0  0  0  0  0
   -4.8160    0.3940  -21.6300 C   0  0  0  0  0  0  0  0  0  0  0  0
   -5.2600    0.1090  -20.3120 C   0  0  0  0  0  0  0  0  0  0  0  0
   -5.3470   -0.0510  -22.4640 H   0  0  0  0  0  0  0  0  0  0  0  0
   -3.4130    1.4260  -22.8570 H   0  0  0  0  0  0  0  0  0  0  0  0
   -2.2060    2.4500  -20.9340 H   0  0  0  0  0  0  0  0  0  0  0  0
   -2.9780    2.0100  -18.6140 H   0  0  0  0  0  0  0  0  0  0  0  0
   -4.5380    0.8960  -17.0700 H   0  0  0  0  0  0  0  0  0  0  0  0
   -7.4670   -1.6750  -18.4110 H   0  0  0  0  0  0  0  0  0  0  0  0
   -8.0720   -0.3680  -21.8090 C   0  0  0  0  0  0  0  0  0  0  0  0
   -8.4900   -1.2430  -22.9980 C   0  0  2  0  0  0  0  0  0  0  0  0
   -9.7830   -0.7680  -23.6570 C   0  0  0  0  0  0  0  0  0  0  0  0
   -9.6370    0.1990  -24.1560 H   0  0  0  0  0  0  0  0  0  0  0  0
  -10.1220   -1.4820  -24.4110 H   0  0  0  0  0  0  0  0  0  0  0  0
  -10.5910   -0.6400  -22.9240 H   0  0  0  0  0  0  0  0  0  0  0  0
   -7.6920   -1.2190  -23.7560 H   0  0  0  0  0  0  0  0  0  0  0  0
   -8.9520   -0.0930  -21.2040 H   0  0  0  0  0  0  0  0  0  0  0  0
   -7.5810    0.5660  -22.1020 H   0  0  0  0  0  0  0  0  0  0  0  0
   -8.0060   -3.7370  -23.4290 C   0  0  0  0  0  0  0  0  0  0  0  0
   -6.6730   -3.7860  -23.8710 C   0  0  0  0  0  0  0  0  0  0  0  0
   -6.2890   -4.7140  -24.8230 C   0  0  0  0  0  0  0  0  0  0  0  0
   -4.6530   -4.7050  -25.4270 Cl  0  0  0  0  0  0  0  0  0  0  0  0
   -7.1930   -5.6480  -25.3320 C   0  0  0  0  0  0  0  0  0  0  0  0
   -8.4950   -5.6200  -24.8730 C   0  0  0  0  0  0  0  0  0  0  0  0
   -8.9080   -4.6620  -23.9430 C   0  0  0  0  0  0  0  0  0  0  0  0
  -10.3560   -4.6530  -23.5660 C   0  0  0  0  0  0  0  0  0  0  0  0
  -11.0800   -5.5050  -24.0380 O   0  0  0  0  0  0  0  0  0  0  0  0
   -9.2210   -6.3390  -25.2370 H   0  0  0  0  0  0  0  0  0  0  0  0
   -6.8680   -6.3790  -26.0690 H   0  0  0  0  0  0  0  0  0  0  0  0
   -5.9150   -3.1260  -23.4610 H   0  0  0  0  0  0  0  0  0  0  0  0
   -9.5600   -3.9260  -21.0050 H   0  0  0  0  0  0  0  0  0  0  0  0
  -10.2030   -2.3130  -21.2200 H   0  0  0  0  0  0  0  0  0  0  0  0
  -12.2590   -3.4600  -21.2360 H   0  0  0  0  0  0  0  0  0  0  0  0
  -12.6700   -4.4570  -22.6460 H   0  0  0  0  0  0  0  0  0  0  0  0
  -14.2520   -2.1710  -21.4720 H   0  0  0  0  0  0  0  0  0  0  0  0
  -15.5680   -0.5480  -22.7280 H   0  0  0  0  0  0  0  0  0  0  0  0
  -14.1060    0.3960  -22.3220 H   0  0  0  0  0  0  0  0  0  0  0  0
  -14.2070   -0.4750  -23.8660 H   0  0  0  0  0  0  0  0  0  0  0  0
  1  2  1  0  0  0  0
  1 54  1  0  0  0  0
  1 55  1  0  0  0  0
  1 56  1  0  0  0  0
  2  3  1  0  0  0  0
  2 53  1  0  0  0  0
  3  4  2  0  0  0  0
  3  5  1  0  0  0  0
  5  6  1  0  0  0  0
  5 51  1  0  0  0  0
  5 52  1  0  0  0  0
  6  7  1  0  0  0  0
  6 44  1  0  0  0  0
  7  8  1  0  0  0  0
  7 49  1  0  0  0  0
  7 50  1  0  0  0  0
  8  9  1  1  0  0  0
  8 29  1  0  0  0  0
  8 37  1  0  0  0  0
  9 10  2  0  0  0  0
  9 11  1  0  0  0  0
 11 12  1  0  0  0  0
 11 28  1  0  0  0  0
 12 13  2  0  0  0  0
 12 21  1  0  0  0  0
 13 14  1  0  0  0  0
 13 27  1  0  0  0  0
 14 15  2  0  0  0  0
 15 16  1  0  0  0  0
 15 26  1  0  0  0  0
 16 17  2  0  0  0  0
 16 21  1  0  0  0  0
 17 18  1  0  0  0  0
 17 25  1  0  0  0  0
 18 19  2  0  0  0  0
 18 24  1  0  0  0  0
 19 20  1  0  0  0  0
 19 23  1  0  0  0  0
 20 21  2  0  0  0  0
 20 22  1  0  0  0  0
 28 29  1  0  0  0  0
 28 35  1  0  0  0  0
 28 36  1  0  0  0  0
 29 30  1  0  0  0  0
 29 34  1  6  0  0  0
 30 31  1  0  0  0  0
 30 32  1  0  0  0  0
 30 33  1  0  0  0  0
 37 38  2  0  0  0  0
 37 43  1  0  0  0  0
 38 39  1  0  0  0  0
 38 48  1  0  0  0  0
 39 40  1  0  0  0  0
 39 41  2  0  0  0  0
 41 42  1  0  0  0  0
 41 47  1  0  0  0  0
 42 43  2  0  0  0  0
 42 46  1  0  0  0  0
 43 44  1  0  0  0  0
 44 45  2  0  0  0  0
M  END
>  <MODEL>
       1

$$$$
