tmp_first_model_7_2.pdb
 OpenBabel08272520323D

 60 65  0  0  1  0  0  0  0  0999 V2000
   -6.3390    1.0810  -30.6010 C   0  0  0  0  0  0  0  0  0  0  0  0
   -6.7140    1.1930  -29.1450 C   0  0  0  0  0  0  0  0  0  0  0  0
   -6.0760    0.4350  -28.1630 C   0  0  0  0  0  0  0  0  0  0  0  0
   -6.3920    0.4960  -26.8710 N   0  0  0  0  0  0  0  0  0  0  0  0
   -7.3680    1.3450  -26.5310 C   0  0  0  0  0  0  0  0  0  0  0  0
   -7.7300    1.5080  -25.0700 C   0  0  0  0  0  0  0  0  0  0  0  0
   -8.7410    0.5800  -24.5680 N   0  0  0  0  0  0  0  0  0  0  0  0
   -8.3170   -0.7890  -24.3340 C   0  0  0  0  0  0  0  0  0  0  0  0
   -8.8310   -1.3520  -22.9820 C   0  0  2  0  0  0  0  0  0  0  0  0
   -8.2210   -0.5720  -21.8090 C   0  0  0  0  0  0  0  0  0  0  0  0
   -8.4320    0.5830  -21.4920 O   0  0  0  0  0  0  0  0  0  0  0  0
   -7.3620   -1.4020  -21.1410 N   0  0  0  0  0  0  0  0  0  0  0  0
   -6.5450   -0.8500  -20.1350 C   0  0  0  0  0  0  0  0  0  0  0  0
   -6.8620   -1.0660  -18.8220 C   0  0  0  0  0  0  0  0  0  0  0  0
   -6.1670   -0.5580  -17.7790 N   0  0  0  0  0  0  0  0  0  0  0  0
   -5.1380    0.2030  -18.0580 C   0  0  0  0  0  0  0  0  0  0  0  0
   -4.7140    0.5150  -19.3810 C   0  0  0  0  0  0  0  0  0  0  0  0
   -3.5960    1.3540  -19.6240 C   0  0  0  0  0  0  0  0  0  0  0  0
   -3.2110    1.6460  -20.9030 C   0  0  0  0  0  0  0  0  0  0  0  0
   -3.9300    1.1200  -22.0000 C   0  0  0  0  0  0  0  0  0  0  0  0
   -5.0160    0.3060  -21.7940 C   0  0  0  0  0  0  0  0  0  0  0  0
   -5.4360   -0.0180  -20.4670 C   0  0  0  0  0  0  0  0  0  0  0  0
   -5.5720   -0.0810  -22.6460 H   0  0  0  0  0  0  0  0  0  0  0  0
   -3.6160    1.3660  -23.0100 H   0  0  0  0  0  0  0  0  0  0  0  0
   -2.3540    2.2880  -21.0820 H   0  0  0  0  0  0  0  0  0  0  0  0
   -3.0690    1.7630  -18.7670 H   0  0  0  0  0  0  0  0  0  0  0  0
   -4.5820    0.6200  -17.2170 H   0  0  0  0  0  0  0  0  0  0  0  0
   -7.7320   -1.6720  -18.5780 H   0  0  0  0  0  0  0  0  0  0  0  0
   -7.1680   -2.6950  -21.7600 C   0  0  0  0  0  0  0  0  0  0  0  0
   -8.3610   -2.8120  -22.7160 C   0  0  2  0  0  0  0  0  0  0  0  0
   -8.0620   -3.6710  -23.9380 C   0  0  0  0  0  0  0  0  0  0  0  0
   -7.2100   -3.2750  -24.5030 H   0  0  0  0  0  0  0  0  0  0  0  0
   -8.9280   -3.7180  -24.6060 H   0  0  0  0  0  0  0  0  0  0  0  0
   -7.8190   -4.6890  -23.6170 H   0  0  0  0  0  0  0  0  0  0  0  0
   -9.1550   -3.3140  -22.1610 H   0  0  0  0  0  0  0  0  0  0  0  0
   -6.2160   -2.7500  -22.3090 H   0  0  0  0  0  0  0  0  0  0  0  0
   -7.1670   -3.4870  -21.0080 H   0  0  0  0  0  0  0  0  0  0  0  0
  -10.3200   -1.1280  -22.9180 C   0  0  0  0  0  0  0  0  0  0  0  0
  -11.1410   -1.9610  -22.1520 C   0  0  0  0  0  0  0  0  0  0  0  0
  -12.5030   -1.7490  -22.1420 C   0  0  0  0  0  0  0  0  0  0  0  0
  -13.2950   -2.6030  -21.4700 F   0  0  0  0  0  0  0  0  0  0  0  0
  -13.0730   -0.6470  -22.7710 C   0  0  0  0  0  0  0  0  0  0  0  0
  -12.2310    0.2630  -23.3820 C   0  0  0  0  0  0  0  0  0  0  0  0
  -10.8600    0.0330  -23.4830 C   0  0  0  0  0  0  0  0  0  0  0  0
   -9.9860    1.0260  -24.2050 C   0  0  0  0  0  0  0  0  0  0  0  0
  -10.3670    2.1670  -24.4450 O   0  0  0  0  0  0  0  0  0  0  0  0
  -12.6210    1.1900  -23.7720 H   0  0  0  0  0  0  0  0  0  0  0  0
  -14.1520   -0.5210  -22.7450 H   0  0  0  0  0  0  0  0  0  0  0  0
  -10.7360   -2.6960  -21.4650 H   0  0  0  0  0  0  0  0  0  0  0  0
   -7.2240   -0.7920  -24.3410 H   0  0  0  0  0  0  0  0  0  0  0  0
   -8.6580   -1.4420  -25.1490 H   0  0  0  0  0  0  0  0  0  0  0  0
   -6.8150    1.3500  -24.4830 H   0  0  0  0  0  0  0  0  0  0  0  0
   -8.0940    2.5230  -24.8840 H   0  0  0  0  0  0  0  0  0  0  0  0
   -7.9980    2.1080  -27.5060 C   0  0  0  0  0  0  0  0  0  0  0  0
   -7.6860    2.0410  -28.8010 N   0  0  0  0  0  0  0  0  0  0  0  0
   -8.7790    2.8040  -27.2120 H   0  0  0  0  0  0  0  0  0  0  0  0
   -5.2670   -0.2360  -28.4360 H   0  0  0  0  0  0  0  0  0  0  0  0
   -6.5100    0.0590  -30.9660 H   0  0  0  0  0  0  0  0  0  0  0  0
   -6.9480    1.7780  -31.1830 H   0  0  0  0  0  0  0  0  0  0  0  0
   -5.2760    1.3120  -30.7620 H   0  0  0  0  0  0  0  0  0  0  0  0
  1  2  1  0  0  0  0
  1 58  1  0  0  0  0
  1 59  1  0  0  0  0
  1 60  1  0  0  0  0
  2  3  2  0  0  0  0
  2 55  1  0  0  0  0
  3  4  1  0  0  0  0
  3 57  1  0  0  0  0
  4  5  2  0  0  0  0
  5  6  1  0  0  0  0
  5 54  1  0  0  0  0
  6  7  1  0  0  0  0
  6 52  1  0  0  0  0
  6 53  1  0  0  0  0
  7  8  1  0  0  0  0
  7 45  1  0  0  0  0
  8  9  1  0  0  0  0
  8 50  1  0  0  0  0
  8 51  1  0  0  0  0
  9 10  1  1  0  0  0
  9 30  1  0  0  0  0
  9 38  1  0  0  0  0
 10 11  2  0  0  0  0
 10 12  1  0  0  0  0
 12 13  1  0  0  0  0
 12 29  1  0  0  0  0
 13 14  2  0  0  0  0
 13 22  1  0  0  0  0
 14 15  1  0  0  0  0
 14 28  1  0  0  0  0
 15 16  2  0  0  0  0
 16 17  1  0  0  0  0
 16 27  1  0  0  0  0
 17 18  2  0  0  0  0
 17 22  1  0  0  0  0
 18 19  1  0  0  0  0
 18 26  1  0  0  0  0
 19 20  2  0  0  0  0
 19 25  1  0  0  0  0
 20 21  1  0  0  0  0
 20 24  1  0  0  0  0
 21 22  2  0  0  0  0
 21 23  1  0  0  0  0
 29 30  1  0  0  0  0
 29 36  1  0  0  0  0
 29 37  1  0  0  0  0
 30 31  1  0  0  0  0
 30 35  1  1  0  0  0
 31 32  1  0  0  0  0
 31 33  1  0  0  0  0
 31 34  1  0  0  0  0
 38 39  2  0  0  0  0
 38 44  1  0  0  0  0
 39 40  1  0  0  0  0
 39 49  1  0  0  0  0
 40 41  1  0  0  0  0
 40 42  2  0  0  0  0
 42 43  1  0  0  0  0
 42 48  1  0  0  0  0
 43 44  2  0  0  0  0
 43 47  1  0  0  0  0
 44 45  1  0  0  0  0
 45 46  2  0  0  0  0
 54 55  2  0  0  0  0
 54 56  1  0  0  0  0
M  END
>  <MODEL>
       1

$$$$
