tmp_first_model_2_11.pdb
 OpenBabel08272517383D

 48 52  0  0  0  0  0  0  0  0999 V2000
   -9.7920   -0.9360  -23.8780 C   0  0  0  0  0  0  0  0  0  0  0  0
   -8.7450   -1.3910  -22.9890 N   0  0  0  0  0  0  0  0  0  0  0  0
   -8.4990   -0.7710  -21.7950 C   0  0  0  0  0  0  0  0  0  0  0  0
   -9.1180    0.1360  -21.2860 O   0  0  0  0  0  0  0  0  0  0  0  0
   -7.3570   -1.4030  -21.2650 N   0  0  0  0  0  0  0  0  0  0  0  0
   -6.5820   -0.8270  -20.2230 C   0  0  0  0  0  0  0  0  0  0  0  0
   -6.9290   -1.0600  -18.9210 C   0  0  0  0  0  0  0  0  0  0  0  0
   -6.2520   -0.5680  -17.8520 N   0  0  0  0  0  0  0  0  0  0  0  0
   -5.2100    0.1880  -18.1050 C   0  0  0  0  0  0  0  0  0  0  0  0
   -4.7480    0.5150  -19.4150 C   0  0  0  0  0  0  0  0  0  0  0  0
   -3.6170    1.3510  -19.6310 C   0  0  0  0  0  0  0  0  0  0  0  0
   -3.2150    1.6530  -20.9040 C   0  0  0  0  0  0  0  0  0  0  0  0
   -3.9200    1.1420  -22.0200 C   0  0  0  0  0  0  0  0  0  0  0  0
   -5.0170    0.3390  -21.8370 C   0  0  0  0  0  0  0  0  0  0  0  0
   -5.4540    0.0010  -20.5210 C   0  0  0  0  0  0  0  0  0  0  0  0
   -5.5650   -0.0320  -22.6970 H   0  0  0  0  0  0  0  0  0  0  0  0
   -3.5980    1.3960  -23.0280 H   0  0  0  0  0  0  0  0  0  0  0  0
   -2.3540    2.2970  -21.0710 H   0  0  0  0  0  0  0  0  0  0  0  0
   -3.0960    1.7480  -18.7610 H   0  0  0  0  0  0  0  0  0  0  0  0
   -4.6660    0.5870  -17.2480 H   0  0  0  0  0  0  0  0  0  0  0  0
   -7.7900   -1.6930  -18.7170 H   0  0  0  0  0  0  0  0  0  0  0  0
   -6.8980   -2.4330  -22.0880 C   0  0  0  0  0  0  0  0  0  0  0  0
   -5.9350   -3.1330  -21.8860 O   0  0  0  0  0  0  0  0  0  0  0  0
   -7.8290   -2.4660  -23.2810 C   0  0  0  0  0  0  0  0  0  0  0  0
   -7.1120   -2.4870  -24.6560 C   0  0  0  0  0  0  0  0  0  0  0  0
   -7.6480   -3.8410  -24.9070 N   0  0  0  0  0  0  0  0  0  0  0  0
   -8.4330   -4.0210  -26.3770 S   0  0  0  0  0  0  0  0  0  0  0  0
   -9.7450   -3.3870  -26.2950 O   0  0  0  0  0  0  0  0  0  0  0  0
   -7.5180   -3.6080  -27.4190 O   0  0  0  0  0  0  0  0  0  0  0  0
   -8.6230   -5.7690  -26.4500 C   0  0  0  0  0  0  0  0  0  0  0  0
   -9.5760   -6.3810  -25.6470 C   0  0  0  0  0  0  0  0  0  0  0  0
   -9.8460   -7.7220  -25.8580 C   0  0  0  0  0  0  0  0  0  0  0  0
   -9.1880   -8.4060  -26.8720 C   0  0  0  0  0  0  0  0  0  0  0  0
   -8.1850   -7.7940  -27.6180 C   0  0  0  0  0  0  0  0  0  0  0  0
   -7.8620   -6.4680  -27.3790 C   0  0  0  0  0  0  0  0  0  0  0  0
   -7.0460   -5.9540  -27.8700 H   0  0  0  0  0  0  0  0  0  0  0  0
   -7.6520   -8.3790  -28.3600 H   0  0  0  0  0  0  0  0  0  0  0  0
   -9.4310   -9.4410  -27.0810 H   0  0  0  0  0  0  0  0  0  0  0  0
  -10.5600   -8.2330  -25.2260 H   0  0  0  0  0  0  0  0  0  0  0  0
  -10.1340   -5.8200  -24.8960 H   0  0  0  0  0  0  0  0  0  0  0  0
   -8.4110   -3.8570  -23.6430 C   0  0  0  0  0  0  0  0  0  0  0  0
   -8.0860   -4.6780  -23.0040 H   0  0  0  0  0  0  0  0  0  0  0  0
   -9.4970   -3.8780  -23.7600 H   0  0  0  0  0  0  0  0  0  0  0  0
   -7.4570   -1.7280  -25.3640 H   0  0  0  0  0  0  0  0  0  0  0  0
   -6.0200   -2.5010  -24.6220 H   0  0  0  0  0  0  0  0  0  0  0  0
  -10.7680   -1.1140  -23.4220 H   0  0  0  0  0  0  0  0  0  0  0  0
   -9.7220   -1.4750  -24.8230 H   0  0  0  0  0  0  0  0  0  0  0  0
   -9.6740    0.1340  -24.0630 H   0  0  0  0  0  0  0  0  0  0  0  0
  1  2  1  0  0  0  0
  1 46  1  0  0  0  0
  1 47  1  0  0  0  0
  1 48  1  0  0  0  0
  2  3  1  0  0  0  0
  2 24  1  0  0  0  0
  3  4  2  0  0  0  0
  3  5  1  0  0  0  0
  5  6  1  0  0  0  0
  5 22  1  0  0  0  0
  6  7  2  0  0  0  0
  6 15  1  0  0  0  0
  7  8  1  0  0  0  0
  7 21  1  0  0  0  0
  8  9  2  0  0  0  0
  9 10  1  0  0  0  0
  9 20  1  0  0  0  0
 10 11  2  0  0  0  0
 10 15  1  0  0  0  0
 11 12  1  0  0  0  0
 11 19  1  0  0  0  0
 12 13  2  0  0  0  0
 12 18  1  0  0  0  0
 13 14  1  0  0  0  0
 13 17  1  0  0  0  0
 14 15  2  0  0  0  0
 14 16  1  0  0  0  0
 22 23  2  0  0  0  0
 22 24  1  0  0  0  0
 24 25  1  0  0  0  0
 24 41  1  0  0  0  0
 25 26  1  0  0  0  0
 25 44  1  0  0  0  0
 25 45  1  0  0  0  0
 26 27  1  0  0  0  0
 26 41  1  0  0  0  0
 27 28  2  0  0  0  0
 27 29  2  0  0  0  0
 27 30  1  0  0  0  0
 30 31  2  0  0  0  0
 30 35  1  0  0  0  0
 31 32  1  0  0  0  0
 31 40  1  0  0  0  0
 32 33  2  0  0  0  0
 32 39  1  0  0  0  0
 33 34  1  0  0  0  0
 33 38  1  0  0  0  0
 34 35  2  0  0  0  0
 34 37  1  0  0  0  0
 35 36  1  0  0  0  0
 41 42  1  0  0  0  0
 41 43  1  0  0  0  0
M  END
>  <MODEL>
       1

$$$$
