tmp_first_model_10_40.pdb
 OpenBabel08272522163D

 40 42  0  0  0  0  0  0  0  0999 V2000
  -12.8800   -1.7660  -25.2540 C   0  0  0  0  0  0  0  0  0  0  0  0
  -11.9790   -1.7100  -24.0240 C   0  0  0  0  0  0  0  0  0  0  0  0
  -10.6510   -2.4580  -24.1910 C   0  0  0  0  0  0  0  0  0  0  0  0
   -9.7760   -2.3440  -22.9320 C   0  0  0  0  0  0  0  0  0  0  0  0
   -9.5530   -0.9380  -22.5740 N   0  0  0  0  0  0  0  0  0  0  0  0
   -8.5570   -0.4760  -21.7340 C   0  0  0  0  0  0  0  0  0  0  0  0
   -8.5690    0.6770  -21.3310 O   0  0  0  0  0  0  0  0  0  0  0  0
   -7.4620   -1.4430  -21.2730 C   0  0  0  0  0  0  0  0  0  0  0  0
   -6.6330   -0.8260  -20.1860 C   0  0  0  0  0  0  0  0  0  0  0  0
   -6.9250   -1.0890  -18.8750 C   0  0  0  0  0  0  0  0  0  0  0  0
   -6.2460   -0.6020  -17.8050 N   0  0  0  0  0  0  0  0  0  0  0  0
   -5.2250    0.1790  -18.0590 C   0  0  0  0  0  0  0  0  0  0  0  0
   -4.8240    0.5670  -19.3690 C   0  0  0  0  0  0  0  0  0  0  0  0
   -3.7370    1.4510  -19.5950 C   0  0  0  0  0  0  0  0  0  0  0  0
   -3.4960    1.9500  -20.8450 C   0  0  0  0  0  0  0  0  0  0  0  0
   -4.3020    1.5440  -21.9360 C   0  0  0  0  0  0  0  0  0  0  0  0
   -5.3150    0.6350  -21.7580 C   0  0  0  0  0  0  0  0  0  0  0  0
   -5.5930    0.1090  -20.4650 C   0  0  0  0  0  0  0  0  0  0  0  0
   -5.9160    0.3320  -22.6100 H   0  0  0  0  0  0  0  0  0  0  0  0
   -4.1180    1.9690  -22.9190 H   0  0  0  0  0  0  0  0  0  0  0  0
   -2.7020    2.6720  -21.0090 H   0  0  0  0  0  0  0  0  0  0  0  0
   -3.1300    1.7630  -18.7450 H   0  0  0  0  0  0  0  0  0  0  0  0
   -4.6650    0.5560  -17.2000 H   0  0  0  0  0  0  0  0  0  0  0  0
   -7.7540   -1.7530  -18.6290 H   0  0  0  0  0  0  0  0  0  0  0  0
   -6.8350   -1.7450  -22.1200 H   0  0  0  0  0  0  0  0  0  0  0  0
   -7.9600   -2.3420  -20.8850 H   0  0  0  0  0  0  0  0  0  0  0  0
  -10.8270   -0.2520  -22.3750 C   0  0  0  0  0  0  0  0  0  0  0  0
  -11.6730   -0.2670  -23.6240 C   0  0  0  0  0  0  0  0  0  0  0  0
  -12.6010    0.2960  -23.4470 H   0  0  0  0  0  0  0  0  0  0  0  0
  -11.1200    0.2430  -24.4240 H   0  0  0  0  0  0  0  0  0  0  0  0
  -11.3590   -0.8260  -21.5960 H   0  0  0  0  0  0  0  0  0  0  0  0
  -10.6220    0.7630  -22.0360 H   0  0  0  0  0  0  0  0  0  0  0  0
   -8.8290   -2.8590  -23.1080 H   0  0  0  0  0  0  0  0  0  0  0  0
  -10.2860   -2.8640  -22.0990 H   0  0  0  0  0  0  0  0  0  0  0  0
  -10.1010   -2.0490  -25.0500 H   0  0  0  0  0  0  0  0  0  0  0  0
  -10.8450   -3.5170  -24.4150 H   0  0  0  0  0  0  0  0  0  0  0  0
  -12.5270   -2.1890  -23.1930 H   0  0  0  0  0  0  0  0  0  0  0  0
  -12.4080   -1.2780  -26.1150 H   0  0  0  0  0  0  0  0  0  0  0  0
  -13.8250   -1.2490  -25.0560 H   0  0  0  0  0  0  0  0  0  0  0  0
  -13.1090   -2.8000  -25.5310 H   0  0  0  0  0  0  0  0  0  0  0  0
  1  2  1  0  0  0  0
  1 38  1  0  0  0  0
  1 39  1  0  0  0  0
  1 40  1  0  0  0  0
  2  3  1  0  0  0  0
  2 28  1  0  0  0  0
  2 37  1  0  0  0  0
  3  4  1  0  0  0  0
  3 35  1  0  0  0  0
  3 36  1  0  0  0  0
  4  5  1  0  0  0  0
  4 33  1  0  0  0  0
  4 34  1  0  0  0  0
  5  6  1  0  0  0  0
  5 27  1  0  0  0  0
  6  7  2  0  0  0  0
  6  8  1  0  0  0  0
  8  9  1  0  0  0  0
  8 25  1  0  0  0  0
  8 26  1  0  0  0  0
  9 10  2  0  0  0  0
  9 18  1  0  0  0  0
 10 11  1  0  0  0  0
 10 24  1  0  0  0  0
 11 12  2  0  0  0  0
 12 13  1  0  0  0  0
 12 23  1  0  0  0  0
 13 14  2  0  0  0  0
 13 18  1  0  0  0  0
 14 15  1  0  0  0  0
 14 22  1  0  0  0  0
 15 16  2  0  0  0  0
 15 21  1  0  0  0  0
 16 17  1  0  0  0  0
 16 20  1  0  0  0  0
 17 18  2  0  0  0  0
 17 19  1  0  0  0  0
 27 28  1  0  0  0  0
 27 31  1  0  0  0  0
 27 32  1  0  0  0  0
 28 29  1  0  0  0  0
 28 30  1  0  0  0  0
M  END
>  <MODEL>
       1

$$$$
