tmp_first_model_7_13.pdb
 OpenBabel08272520323D

 69 74  0  0  1  0  0  0  0  0999 V2000
   -4.9870   -4.0290  -19.4040 C   0  0  0  0  0  0  0  0  0  0  0  0
   -6.1270   -4.7250  -19.9690 N   0  0  0  0  0  0  0  0  0  0  0  0
   -5.9440   -5.7400  -20.8650 C   0  0  0  0  0  0  0  0  0  0  0  0
   -4.8520   -6.2480  -21.0600 O   0  0  0  0  0  0  0  0  0  0  0  0
   -7.2040   -6.2140  -21.6190 C   0  0  0  0  0  0  0  0  0  0  0  0
   -7.5580   -5.3060  -22.6960 N   0  0  0  0  0  0  0  0  0  0  0  0
   -8.4860   -4.2150  -22.4950 C   0  0  0  0  0  0  0  0  0  0  0  0
   -7.9270   -2.8610  -23.0110 C   0  0  2  0  0  0  0  0  0  0  0  0
   -6.7930   -2.3590  -22.0950 C   0  0  0  0  0  0  0  0  0  0  0  0
   -5.6330   -2.7290  -22.0840 O   0  0  0  0  0  0  0  0  0  0  0  0
   -7.3040   -1.4140  -21.2380 N   0  0  0  0  0  0  0  0  0  0  0  0
   -6.5520   -0.8410  -20.1990 C   0  0  0  0  0  0  0  0  0  0  0  0
   -6.9040   -1.0540  -18.8890 C   0  0  0  0  0  0  0  0  0  0  0  0
   -6.2160   -0.5650  -17.8320 N   0  0  0  0  0  0  0  0  0  0  0  0
   -5.1660    0.1800  -18.0850 C   0  0  0  0  0  0  0  0  0  0  0  0
   -4.7130    0.4970  -19.3970 C   0  0  0  0  0  0  0  0  0  0  0  0
   -3.5870    1.3310  -19.6220 C   0  0  0  0  0  0  0  0  0  0  0  0
   -3.2090    1.6600  -20.8940 C   0  0  0  0  0  0  0  0  0  0  0  0
   -3.9340    1.1710  -22.0030 C   0  0  0  0  0  0  0  0  0  0  0  0
   -5.0190    0.3520  -21.8150 C   0  0  0  0  0  0  0  0  0  0  0  0
   -5.4260   -0.0140  -20.5000 C   0  0  0  0  0  0  0  0  0  0  0  0
   -5.5730   -0.0270  -22.6680 H   0  0  0  0  0  0  0  0  0  0  0  0
   -3.6340    1.4490  -23.0100 H   0  0  0  0  0  0  0  0  0  0  0  0
   -2.3580    2.3140  -21.0590 H   0  0  0  0  0  0  0  0  0  0  0  0
   -3.0600    1.7230  -18.7570 H   0  0  0  0  0  0  0  0  0  0  0  0
   -4.6200    0.5740  -17.2290 H   0  0  0  0  0  0  0  0  0  0  0  0
   -7.7760   -1.6610  -18.6490 H   0  0  0  0  0  0  0  0  0  0  0  0
   -8.7250   -1.2030  -21.3950 C   0  0  0  0  0  0  0  0  0  0  0  0
   -8.9720   -1.7470  -22.8050 C   0  0  2  0  0  0  0  0  0  0  0  0
  -10.4110   -2.1560  -23.0280 C   0  0  0  0  0  0  0  0  0  0  0  0
  -11.2520   -0.9920  -23.0020 N   0  0  0  0  0  0  0  0  0  0  0  0
  -12.5840   -1.1200  -23.1330 C   0  0  0  0  0  0  0  0  0  0  0  0
  -13.4370   -0.0040  -23.0030 C   0  0  0  0  0  0  0  0  0  0  0  0
  -14.7720   -0.3070  -22.9760 C   0  0  0  0  0  0  0  0  0  0  0  0
  -15.2570   -1.5380  -23.1560 N   0  0  0  0  0  0  0  0  0  0  0  0
  -14.3830   -2.4940  -23.4220 C   0  0  0  0  0  0  0  0  0  0  0  0
  -14.9450   -3.8320  -23.8220 C   0  0  0  0  0  0  0  0  0  0  0  0
  -14.7790   -4.0160  -24.8890 H   0  0  0  0  0  0  0  0  0  0  0  0
  -14.4790   -4.6260  -23.2350 H   0  0  0  0  0  0  0  0  0  0  0  0
  -16.0210   -3.8620  -23.6880 H   0  0  0  0  0  0  0  0  0  0  0  0
  -13.0530   -2.3570  -23.3660 N   0  0  0  0  0  0  0  0  0  0  0  0
  -15.5110    0.4700  -22.8030 H   0  0  0  0  0  0  0  0  0  0  0  0
  -13.0700    1.0140  -22.8790 H   0  0  0  0  0  0  0  0  0  0  0  0
  -10.8490   -0.0720  -22.9210 H   0  0  0  0  0  0  0  0  0  0  0  0
  -10.5410   -2.7070  -23.9680 H   0  0  0  0  0  0  0  0  0  0  0  0
  -10.7330   -2.8510  -22.2410 H   0  0  0  0  0  0  0  0  0  0  0  0
   -8.7310   -0.9370  -23.4920 H   0  0  0  0  0  0  0  0  0  0  0  0
   -9.3110   -1.7590  -20.6500 H   0  0  0  0  0  0  0  0  0  0  0  0
   -8.9680   -0.1400  -21.2980 H   0  0  0  0  0  0  0  0  0  0  0  0
   -7.4380   -3.0590  -24.4290 C   0  0  0  0  0  0  0  0  0  0  0  0
   -7.3270   -1.9840  -25.3240 C   0  0  0  0  0  0  0  0  0  0  0  0
   -6.8140   -2.1830  -26.5930 C   0  0  0  0  0  0  0  0  0  0  0  0
   -6.6610   -0.8160  -27.6670 Cl  0  0  0  0  0  0  0  0  0  0  0  0
   -6.4030   -3.4450  -27.0200 C   0  0  0  0  0  0  0  0  0  0  0  0
   -6.4920   -4.5060  -26.1400 C   0  0  0  0  0  0  0  0  0  0  0  0
   -6.9870   -4.3180  -24.8490 C   0  0  0  0  0  0  0  0  0  0  0  0
   -6.9470   -5.4900  -23.9120 C   0  0  0  0  0  0  0  0  0  0  0  0
   -6.3820   -6.5340  -24.2010 O   0  0  0  0  0  0  0  0  0  0  0  0
   -6.1630   -5.5010  -26.4210 H   0  0  0  0  0  0  0  0  0  0  0  0
   -6.0100   -3.5780  -28.0220 H   0  0  0  0  0  0  0  0  0  0  0  0
   -7.6240   -0.9780  -25.0510 H   0  0  0  0  0  0  0  0  0  0  0  0
   -9.4140   -4.4330  -23.0420 H   0  0  0  0  0  0  0  0  0  0  0  0
   -8.7360   -4.1370  -21.4320 H   0  0  0  0  0  0  0  0  0  0  0  0
   -6.9720   -7.1750  -22.0760 H   0  0  0  0  0  0  0  0  0  0  0  0
   -8.0680   -6.3510  -20.9550 H   0  0  0  0  0  0  0  0  0  0  0  0
   -6.9780   -4.1810  -20.0360 H   0  0  0  0  0  0  0  0  0  0  0  0
   -4.2320   -4.7820  -19.2460 H   0  0  0  0  0  0  0  0  0  0  0  0
   -5.2570   -3.5570  -18.4510 H   0  0  0  0  0  0  0  0  0  0  0  0
   -4.6050   -3.2660  -20.0930 H   0  0  0  0  0  0  0  0  0  0  0  0
  1  2  1  0  0  0  0
  1 67  1  0  0  0  0
  1 68  1  0  0  0  0
  1 69  1  0  0  0  0
  2  3  1  0  0  0  0
  2 66  1  0  0  0  0
  3  4  2  0  0  0  0
  3  5  1  0  0  0  0
  5  6  1  0  0  0  0
  5 64  1  0  0  0  0
  5 65  1  0  0  0  0
  6  7  1  0  0  0  0
  6 57  1  0  0  0  0
  7  8  1  0  0  0  0
  7 62  1  0  0  0  0
  7 63  1  0  0  0  0
  8  9  1  1  0  0  0
  8 29  1  0  0  0  0
  8 50  1  0  0  0  0
  9 10  2  0  0  0  0
  9 11  1  0  0  0  0
 11 12  1  0  0  0  0
 11 28  1  0  0  0  0
 12 13  2  0  0  0  0
 12 21  1  0  0  0  0
 13 14  1  0  0  0  0
 13 27  1  0  0  0  0
 14 15  2  0  0  0  0
 15 16  1  0  0  0  0
 15 26  1  0  0  0  0
 16 17  2  0  0  0  0
 16 21  1  0  0  0  0
 17 18  1  0  0  0  0
 17 25  1  0  0  0  0
 18 19  2  0  0  0  0
 18 24  1  0  0  0  0
 19 20  1  0  0  0  0
 19 23  1  0  0  0  0
 20 21  2  0  0  0  0
 20 22  1  0  0  0  0
 28 29  1  0  0  0  0
 28 48  1  0  0  0  0
 28 49  1  0  0  0  0
 29 30  1  0  0  0  0
 29 47  1  6  0  0  0
 30 31  1  0  0  0  0
 30 45  1  0  0  0  0
 30 46  1  0  0  0  0
 31 32  1  0  0  0  0
 31 44  1  0  0  0  0
 32 33  2  0  0  0  0
 32 41  1  0  0  0  0
 33 34  1  0  0  0  0
 33 43  1  0  0  0  0
 34 35  2  0  0  0  0
 34 42  1  0  0  0  0
 35 36  1  0  0  0  0
 36 37  1  0  0  0  0
 36 41  2  0  0  0  0
 37 38  1  0  0  0  0
 37 39  1  0  0  0  0
 37 40  1  0  0  0  0
 50 51  2  0  0  0  0
 50 56  1  0  0  0  0
 51 52  1  0  0  0  0
 51 61  1  0  0  0  0
 52 53  1  0  0  0  0
 52 54  2  0  0  0  0
 54 55  1  0  0  0  0
 54 60  1  0  0  0  0
 55 56  2  0  0  0  0
 55 59  1  0  0  0  0
 56 57  1  0  0  0  0
 57 58  2  0  0  0  0
M  END
>  <MODEL>
       1

$$$$
