tmp_first_model_2_82.pdb
 OpenBabel08272517383D

 54 57  0  0  1  0  0  0  0  0999 V2000
  -10.6470    0.3600  -25.3590 C   0  0  0  0  0  0  0  0  0  0  0  0
   -9.7790   -0.6060  -24.8360 O   0  0  0  0  0  0  0  0  0  0  0  0
   -8.4700   -0.5250  -25.1880 C   0  0  0  0  0  0  0  0  0  0  0  0
   -7.9460    0.5010  -25.9760 C   0  0  0  0  0  0  0  0  0  0  0  0
   -6.5790    0.5340  -26.2410 C   0  0  0  0  0  0  0  0  0  0  0  0
   -5.7560   -0.4580  -25.7250 C   0  0  0  0  0  0  0  0  0  0  0  0
   -6.2990   -1.4810  -24.9450 C   0  0  0  0  0  0  0  0  0  0  0  0
   -7.6580   -1.5520  -24.6740 C   0  0  0  0  0  0  0  0  0  0  0  0
   -8.3020   -2.6650  -23.8350 C   0  0  1  0  0  0  0  0  0  0  0  0
   -9.1470   -3.6460  -24.6860 C   0  0  0  0  0  0  0  0  0  0  0  0
   -8.4070   -4.8550  -25.2720 C   0  0  1  0  0  0  0  0  0  0  0  0
   -7.5050   -4.5300  -26.4670 C   0  0  0  0  0  0  0  0  0  0  0  0
   -6.6810   -3.8640  -26.1920 H   0  0  0  0  0  0  0  0  0  0  0  0
   -7.0710   -5.4460  -26.8860 H   0  0  0  0  0  0  0  0  0  0  0  0
   -8.0760   -4.0360  -27.2620 H   0  0  0  0  0  0  0  0  0  0  0  0
   -7.6710   -5.5490  -24.1230 C   0  0  0  0  0  0  0  0  0  0  0  0
   -6.7120   -4.6070  -23.4060 C   0  0  0  0  0  0  0  0  0  0  0  0
   -7.3570   -3.3690  -22.9600 N   0  0  0  0  0  0  0  0  0  0  0  0
   -6.7410   -2.7500  -21.8880 C   0  0  0  0  0  0  0  0  0  0  0  0
   -5.7210   -3.2100  -21.4000 O   0  0  0  0  0  0  0  0  0  0  0  0
   -7.3950   -1.4850  -21.2890 C   0  0  0  0  0  0  0  0  0  0  0  0
   -6.5730   -0.8500  -20.1940 C   0  0  0  0  0  0  0  0  0  0  0  0
   -6.8770   -1.0600  -18.8720 C   0  0  0  0  0  0  0  0  0  0  0  0
   -6.2010   -0.5450  -17.8080 N   0  0  0  0  0  0  0  0  0  0  0  0
   -5.1670    0.2150  -18.0720 C   0  0  0  0  0  0  0  0  0  0  0  0
   -4.7240    0.5220  -19.3880 C   0  0  0  0  0  0  0  0  0  0  0  0
   -3.5990    1.3520  -19.6230 C   0  0  0  0  0  0  0  0  0  0  0  0
   -3.1980    1.6270  -20.9010 C   0  0  0  0  0  0  0  0  0  0  0  0
   -3.9070    1.0860  -21.9980 C   0  0  0  0  0  0  0  0  0  0  0  0
   -5.0020    0.2810  -21.7960 C   0  0  0  0  0  0  0  0  0  0  0  0
   -5.4420   -0.0240  -20.4800 C   0  0  0  0  0  0  0  0  0  0  0  0
   -5.5420   -0.1220  -22.6500 H   0  0  0  0  0  0  0  0  0  0  0  0
   -3.5870    1.3190  -23.0100 H   0  0  0  0  0  0  0  0  0  0  0  0
   -2.3420    2.2680  -21.0820 H   0  0  0  0  0  0  0  0  0  0  0  0
   -3.0750    1.7660  -18.7650 H   0  0  0  0  0  0  0  0  0  0  0  0
   -4.6200    0.6270  -17.2210 H   0  0  0  0  0  0  0  0  0  0  0  0
   -7.7290   -1.6800  -18.5970 H   0  0  0  0  0  0  0  0  0  0  0  0
   -7.6110   -0.7650  -22.0890 H   0  0  0  0  0  0  0  0  0  0  0  0
   -8.3700   -1.7850  -20.8800 H   0  0  0  0  0  0  0  0  0  0  0  0
   -6.3190   -5.0800  -22.5050 H   0  0  0  0  0  0  0  0  0  0  0  0
   -5.8420   -4.3930  -24.0480 H   0  0  0  0  0  0  0  0  0  0  0  0
   -8.4110   -5.9160  -23.4000 H   0  0  0  0  0  0  0  0  0  0  0  0
   -7.1080   -6.4180  -24.4960 H   0  0  0  0  0  0  0  0  0  0  0  0
   -9.1800   -5.5490  -25.6320 H   0  0  0  0  0  0  0  0  0  0  0  0
   -9.6240   -3.0700  -25.4870 H   0  0  0  0  0  0  0  0  0  0  0  0
   -9.9460   -4.0270  -24.0350 H   0  0  0  0  0  0  0  0  0  0  0  0
   -9.0270   -2.1650  -23.1810 H   0  0  0  0  0  0  0  0  0  0  0  0
   -5.6470   -2.2590  -24.5520 H   0  0  0  0  0  0  0  0  0  0  0  0
   -4.6900   -0.4550  -25.9250 H   0  0  0  0  0  0  0  0  0  0  0  0
   -6.1630    1.3400  -26.8430 H   0  0  0  0  0  0  0  0  0  0  0  0
   -8.5880    1.2800  -26.3720 H   0  0  0  0  0  0  0  0  0  0  0  0
  -11.6450    0.0510  -25.0420 H   0  0  0  0  0  0  0  0  0  0  0  0
  -10.5780    0.3910  -26.4560 H   0  0  0  0  0  0  0  0  0  0  0  0
  -10.4210    1.3610  -24.9650 H   0  0  0  0  0  0  0  0  0  0  0  0
  1  2  1  0  0  0  0
  1 52  1  0  0  0  0
  1 53  1  0  0  0  0
  1 54  1  0  0  0  0
  2  3  1  0  0  0  0
  3  4  2  0  0  0  0
  3  8  1  0  0  0  0
  4  5  1  0  0  0  0
  4 51  1  0  0  0  0
  5  6  2  0  0  0  0
  5 50  1  0  0  0  0
  6  7  1  0  0  0  0
  6 49  1  0  0  0  0
  7  8  2  0  0  0  0
  7 48  1  0  0  0  0
  8  9  1  0  0  0  0
  9 10  1  0  0  0  0
  9 18  1  0  0  0  0
  9 47  1  1  0  0  0
 10 11  1  0  0  0  0
 10 45  1  0  0  0  0
 10 46  1  0  0  0  0
 11 12  1  0  0  0  0
 11 16  1  0  0  0  0
 11 44  1  6  0  0  0
 12 13  1  0  0  0  0
 12 14  1  0  0  0  0
 12 15  1  0  0  0  0
 16 17  1  0  0  0  0
 16 42  1  0  0  0  0
 16 43  1  0  0  0  0
 17 18  1  0  0  0  0
 17 40  1  0  0  0  0
 17 41  1  0  0  0  0
 18 19  1  0  0  0  0
 19 20  2  0  0  0  0
 19 21  1  0  0  0  0
 21 22  1  0  0  0  0
 21 38  1  0  0  0  0
 21 39  1  0  0  0  0
 22 23  2  0  0  0  0
 22 31  1  0  0  0  0
 23 24  1  0  0  0  0
 23 37  1  0  0  0  0
 24 25  2  0  0  0  0
 25 26  1  0  0  0  0
 25 36  1  0  0  0  0
 26 27  2  0  0  0  0
 26 31  1  0  0  0  0
 27 28  1  0  0  0  0
 27 35  1  0  0  0  0
 28 29  2  0  0  0  0
 28 34  1  0  0  0  0
 29 30  1  0  0  0  0
 29 33  1  0  0  0  0
 30 31  2  0  0  0  0
 30 32  1  0  0  0  0
M  END
>  <MODEL>
       1

$$$$
