tmp_first_model_7_11.pdb
 OpenBabel08272520323D

 48 52  0  0  0  0  0  0  0  0999 V2000
   -9.6810   -0.9310  -24.0220 C   0  0  0  0  0  0  0  0  0  0  0  0
   -8.6800   -1.3720  -23.0790 N   0  0  0  0  0  0  0  0  0  0  0  0
   -8.4410   -0.7220  -21.8930 C   0  0  0  0  0  0  0  0  0  0  0  0
   -9.0220    0.2410  -21.4460 O   0  0  0  0  0  0  0  0  0  0  0  0
   -7.3660   -1.3930  -21.2800 N   0  0  0  0  0  0  0  0  0  0  0  0
   -6.5880   -0.8260  -20.2230 C   0  0  0  0  0  0  0  0  0  0  0  0
   -6.9090   -1.0610  -18.9120 C   0  0  0  0  0  0  0  0  0  0  0  0
   -6.2140   -0.5580  -17.8600 N   0  0  0  0  0  0  0  0  0  0  0  0
   -5.1770    0.2010  -18.1030 C   0  0  0  0  0  0  0  0  0  0  0  0
   -4.7240    0.5230  -19.4100 C   0  0  0  0  0  0  0  0  0  0  0  0
   -3.5950    1.3520  -19.6370 C   0  0  0  0  0  0  0  0  0  0  0  0
   -3.2030    1.6500  -20.9130 C   0  0  0  0  0  0  0  0  0  0  0  0
   -3.9270    1.1330  -22.0100 C   0  0  0  0  0  0  0  0  0  0  0  0
   -5.0190    0.3280  -21.8120 C   0  0  0  0  0  0  0  0  0  0  0  0
   -5.4480   -0.0020  -20.5020 C   0  0  0  0  0  0  0  0  0  0  0  0
   -5.5760   -0.0590  -22.6560 H   0  0  0  0  0  0  0  0  0  0  0  0
   -3.6260    1.3770  -23.0210 H   0  0  0  0  0  0  0  0  0  0  0  0
   -2.3520    2.3000  -21.0910 H   0  0  0  0  0  0  0  0  0  0  0  0
   -3.0740    1.7630  -18.7780 H   0  0  0  0  0  0  0  0  0  0  0  0
   -4.6400    0.6010  -17.2440 H   0  0  0  0  0  0  0  0  0  0  0  0
   -7.7580   -1.6830  -18.6410 H   0  0  0  0  0  0  0  0  0  0  0  0
   -6.9230   -2.4600  -22.0700 C   0  0  0  0  0  0  0  0  0  0  0  0
   -6.0090   -3.1920  -21.7940 O   0  0  0  0  0  0  0  0  0  0  0  0
   -7.7880   -2.4700  -23.3270 C   0  0  0  0  0  0  0  0  0  0  0  0
   -7.0000   -2.5100  -24.6630 C   0  0  0  0  0  0  0  0  0  0  0  0
   -7.5810   -3.8570  -24.9800 N   0  0  0  0  0  0  0  0  0  0  0  0
   -8.4210   -3.9160  -26.4420 S   0  0  0  0  0  0  0  0  0  0  0  0
   -9.4710   -2.8990  -26.4040 O   0  0  0  0  0  0  0  0  0  0  0  0
   -7.4260   -3.9070  -27.5020 O   0  0  0  0  0  0  0  0  0  0  0  0
   -9.2590   -5.4700  -26.4390 C   0  0  0  0  0  0  0  0  0  0  0  0
   -8.6670   -6.6250  -25.9500 C   0  0  0  0  0  0  0  0  0  0  0  0
   -9.3680   -7.8240  -26.0410 C   0  0  0  0  0  0  0  0  0  0  0  0
  -10.6290   -7.8760  -26.6310 C   0  0  0  0  0  0  0  0  0  0  0  0
  -11.2040   -6.7050  -27.1200 C   0  0  0  0  0  0  0  0  0  0  0  0
  -10.5180   -5.5070  -27.0260 C   0  0  0  0  0  0  0  0  0  0  0  0
  -10.9590   -4.6050  -27.4240 H   0  0  0  0  0  0  0  0  0  0  0  0
  -12.1710   -6.6730  -27.6040 H   0  0  0  0  0  0  0  0  0  0  0  0
  -11.1340   -8.8350  -26.7300 H   0  0  0  0  0  0  0  0  0  0  0  0
   -8.9160   -8.7370  -25.6790 H   0  0  0  0  0  0  0  0  0  0  0  0
   -7.6670   -6.5860  -25.5290 H   0  0  0  0  0  0  0  0  0  0  0  0
   -8.3910   -3.8390  -23.7360 C   0  0  0  0  0  0  0  0  0  0  0  0
   -9.4800   -3.8600  -23.8740 H   0  0  0  0  0  0  0  0  0  0  0  0
   -8.0860   -4.6560  -23.0830 H   0  0  0  0  0  0  0  0  0  0  0  0
   -5.9210   -2.5880  -24.5350 H   0  0  0  0  0  0  0  0  0  0  0  0
   -7.2310   -1.7110  -25.3790 H   0  0  0  0  0  0  0  0  0  0  0  0
   -9.2140   -0.5560  -24.9420 H   0  0  0  0  0  0  0  0  0  0  0  0
  -10.3420   -1.7640  -24.2830 H   0  0  0  0  0  0  0  0  0  0  0  0
  -10.2360   -0.1260  -23.5350 H   0  0  0  0  0  0  0  0  0  0  0  0
  1  2  1  0  0  0  0
  1 46  1  0  0  0  0
  1 47  1  0  0  0  0
  1 48  1  0  0  0  0
  2  3  1  0  0  0  0
  2 24  1  0  0  0  0
  3  4  2  0  0  0  0
  3  5  1  0  0  0  0
  5  6  1  0  0  0  0
  5 22  1  0  0  0  0
  6  7  2  0  0  0  0
  6 15  1  0  0  0  0
  7  8  1  0  0  0  0
  7 21  1  0  0  0  0
  8  9  2  0  0  0  0
  9 10  1  0  0  0  0
  9 20  1  0  0  0  0
 10 11  2  0  0  0  0
 10 15  1  0  0  0  0
 11 12  1  0  0  0  0
 11 19  1  0  0  0  0
 12 13  2  0  0  0  0
 12 18  1  0  0  0  0
 13 14  1  0  0  0  0
 13 17  1  0  0  0  0
 14 15  2  0  0  0  0
 14 16  1  0  0  0  0
 22 23  2  0  0  0  0
 22 24  1  0  0  0  0
 24 25  1  0  0  0  0
 24 41  1  0  0  0  0
 25 26  1  0  0  0  0
 25 44  1  0  0  0  0
 25 45  1  0  0  0  0
 26 27  1  0  0  0  0
 26 41  1  0  0  0  0
 27 28  2  0  0  0  0
 27 29  2  0  0  0  0
 27 30  1  0  0  0  0
 30 31  2  0  0  0  0
 30 35  1  0  0  0  0
 31 32  1  0  0  0  0
 31 40  1  0  0  0  0
 32 33  2  0  0  0  0
 32 39  1  0  0  0  0
 33 34  1  0  0  0  0
 33 38  1  0  0  0  0
 34 35  2  0  0  0  0
 34 37  1  0  0  0  0
 35 36  1  0  0  0  0
 41 42  1  0  0  0  0
 41 43  1  0  0  0  0
M  END
>  <MODEL>
       1

$$$$
