tmp_first_model_10_41.pdb
 OpenBabel08272522163D

 67 71  0  0  1  0  0  0  0  0999 V2000
   -7.6730    2.9890  -21.9720 C   0  0  0  0  0  0  0  0  0  0  0  0
   -8.8340    2.5190  -22.7110 N   0  0  0  0  0  0  0  0  0  0  0  0
   -8.5630    1.7170  -23.7810 C   0  0  0  0  0  0  0  0  0  0  0  0
   -7.4130    1.4680  -24.1270 O   0  0  0  0  0  0  0  0  0  0  0  0
   -9.7410    1.1150  -24.5400 C   0  0  0  0  0  0  0  0  0  0  0  0
  -10.1550   -0.1070  -23.8860 N   0  0  0  0  0  0  0  0  0  0  0  0
   -9.2430   -1.2440  -23.8790 C   0  0  0  0  0  0  0  0  0  0  0  0
   -9.2890   -1.9850  -22.5160 C   0  0  2  0  0  0  0  0  0  0  0  0
   -8.6960   -1.0400  -21.4400 C   0  0  0  0  0  0  0  0  0  0  0  0
   -9.2320   -0.0620  -20.9600 O   0  0  0  0  0  0  0  0  0  0  0  0
   -7.4100   -1.4540  -21.1550 N   0  0  0  0  0  0  0  0  0  0  0  0
   -6.6370   -0.8310  -20.1450 C   0  0  0  0  0  0  0  0  0  0  0  0
   -6.9340   -1.0660  -18.8250 C   0  0  0  0  0  0  0  0  0  0  0  0
   -6.2260   -0.5770  -17.7810 N   0  0  0  0  0  0  0  0  0  0  0  0
   -5.1990    0.1910  -18.0580 C   0  0  0  0  0  0  0  0  0  0  0  0
   -4.7990    0.5420  -19.3790 C   0  0  0  0  0  0  0  0  0  0  0  0
   -3.7030    1.4130  -19.6210 C   0  0  0  0  0  0  0  0  0  0  0  0
   -3.4280    1.8510  -20.8880 C   0  0  0  0  0  0  0  0  0  0  0  0
   -4.2230    1.4240  -21.9740 C   0  0  0  0  0  0  0  0  0  0  0  0
   -5.2280    0.5010  -21.7800 C   0  0  0  0  0  0  0  0  0  0  0  0
   -5.5560    0.0480  -20.4690 C   0  0  0  0  0  0  0  0  0  0  0  0
   -5.8090    0.1720  -22.6370 H   0  0  0  0  0  0  0  0  0  0  0  0
   -4.0450    1.8370  -22.9630 H   0  0  0  0  0  0  0  0  0  0  0  0
   -2.6040    2.5380  -21.0610 H   0  0  0  0  0  0  0  0  0  0  0  0
   -3.1080    1.7380  -18.7710 H   0  0  0  0  0  0  0  0  0  0  0  0
   -4.6230    0.5760  -17.2150 H   0  0  0  0  0  0  0  0  0  0  0  0
   -7.7840   -1.6970  -18.5770 H   0  0  0  0  0  0  0  0  0  0  0  0
   -6.9630   -2.5760  -21.9590 C   0  0  0  0  0  0  0  0  0  0  0  0
   -8.2920   -3.1790  -22.4480 C   0  0  2  0  0  0  0  0  0  0  0  0
   -8.1860   -3.9820  -23.7440 C   0  0  0  0  0  0  0  0  0  0  0  0
   -7.2080   -5.4720  -23.5550 S   0  0  0  0  0  0  0  0  0  0  0  0
   -5.8150   -5.0850  -23.4100 O   0  0  0  0  0  0  0  0  0  0  0  0
   -7.8200   -6.3120  -22.5380 O   0  0  0  0  0  0  0  0  0  0  0  0
   -7.3890   -6.2270  -25.0300 N   0  0  0  0  0  0  0  0  0  0  0  0
   -8.5980   -6.9920  -25.3130 C   0  0  0  0  0  0  0  0  0  0  0  0
   -9.4930   -6.3740  -25.4980 H   0  0  0  0  0  0  0  0  0  0  0  0
   -8.4170   -7.5820  -26.2150 H   0  0  0  0  0  0  0  0  0  0  0  0
   -8.7880   -7.6830  -24.4890 H   0  0  0  0  0  0  0  0  0  0  0  0
   -6.7270   -5.6250  -26.1800 C   0  0  0  0  0  0  0  0  0  0  0  0
   -7.2780   -4.7770  -26.6190 H   0  0  0  0  0  0  0  0  0  0  0  0
   -6.6250   -6.3920  -26.9540 H   0  0  0  0  0  0  0  0  0  0  0  0
   -5.7290   -5.2990  -25.8800 H   0  0  0  0  0  0  0  0  0  0  0  0
   -9.1820   -4.2770  -24.0920 H   0  0  0  0  0  0  0  0  0  0  0  0
   -7.7080   -3.3890  -24.5320 H   0  0  0  0  0  0  0  0  0  0  0  0
   -8.6250   -3.8600  -21.6590 H   0  0  0  0  0  0  0  0  0  0  0  0
   -6.3410   -2.2470  -22.8060 H   0  0  0  0  0  0  0  0  0  0  0  0
   -6.3820   -3.2930  -21.3730 H   0  0  0  0  0  0  0  0  0  0  0  0
  -10.7540   -2.3250  -22.2690 C   0  0  0  0  0  0  0  0  0  0  0  0
  -11.1650   -3.4730  -21.5850 C   0  0  0  0  0  0  0  0  0  0  0  0
  -12.4980   -3.6370  -21.2570 C   0  0  0  0  0  0  0  0  0  0  0  0
  -12.8520   -4.6940  -20.5090 F   0  0  0  0  0  0  0  0  0  0  0  0
  -13.4900   -2.7420  -21.6290 C   0  0  0  0  0  0  0  0  0  0  0  0
  -13.1020   -1.6390  -22.3560 C   0  0  0  0  0  0  0  0  0  0  0  0
  -11.7610   -1.4340  -22.6700 C   0  0  0  0  0  0  0  0  0  0  0  0
  -11.4330   -0.1910  -23.4240 C   0  0  0  0  0  0  0  0  0  0  0  0
  -12.2640    0.6930  -23.6120 O   0  0  0  0  0  0  0  0  0  0  0  0
  -13.8150   -0.8950  -22.6910 H   0  0  0  0  0  0  0  0  0  0  0  0
  -14.5180   -2.9110  -21.3350 H   0  0  0  0  0  0  0  0  0  0  0  0
  -10.4710   -4.2280  -21.2490 H   0  0  0  0  0  0  0  0  0  0  0  0
   -9.5210   -1.9400  -24.6820 H   0  0  0  0  0  0  0  0  0  0  0  0
   -8.2330   -0.8730  -24.0850 H   0  0  0  0  0  0  0  0  0  0  0  0
   -9.4110    0.8880  -25.5610 H   0  0  0  0  0  0  0  0  0  0  0  0
  -10.6150    1.7730  -24.5870 H   0  0  0  0  0  0  0  0  0  0  0  0
   -9.6740    2.3660  -22.1610 H   0  0  0  0  0  0  0  0  0  0  0  0
   -7.9640    3.7010  -21.1980 H   0  0  0  0  0  0  0  0  0  0  0  0
   -7.1450    2.1370  -21.5210 H   0  0  0  0  0  0  0  0  0  0  0  0
   -7.0060    3.5130  -22.6620 H   0  0  0  0  0  0  0  0  0  0  0  0
  1  2  1  0  0  0  0
  1 65  1  0  0  0  0
  1 66  1  0  0  0  0
  1 67  1  0  0  0  0
  2  3  1  0  0  0  0
  2 64  1  0  0  0  0
  3  4  2  0  0  0  0
  3  5  1  0  0  0  0
  5  6  1  0  0  0  0
  5 62  1  0  0  0  0
  5 63  1  0  0  0  0
  6  7  1  0  0  0  0
  6 55  1  0  0  0  0
  7  8  1  0  0  0  0
  7 60  1  0  0  0  0
  7 61  1  0  0  0  0
  8  9  1  1  0  0  0
  8 29  1  0  0  0  0
  8 48  1  0  0  0  0
  9 10  2  0  0  0  0
  9 11  1  0  0  0  0
 11 12  1  0  0  0  0
 11 28  1  0  0  0  0
 12 13  2  0  0  0  0
 12 21  1  0  0  0  0
 13 14  1  0  0  0  0
 13 27  1  0  0  0  0
 14 15  2  0  0  0  0
 15 16  1  0  0  0  0
 15 26  1  0  0  0  0
 16 17  2  0  0  0  0
 16 21  1  0  0  0  0
 17 18  1  0  0  0  0
 17 25  1  0  0  0  0
 18 19  2  0  0  0  0
 18 24  1  0  0  0  0
 19 20  1  0  0  0  0
 19 23  1  0  0  0  0
 20 21  2  0  0  0  0
 20 22  1  0  0  0  0
 28 29  1  0  0  0  0
 28 46  1  0  0  0  0
 28 47  1  0  0  0  0
 29 30  1  0  0  0  0
 29 45  1  1  0  0  0
 30 31  1  0  0  0  0
 30 43  1  0  0  0  0
 30 44  1  0  0  0  0
 31 32  2  0  0  0  0
 31 33  2  0  0  0  0
 31 34  1  0  0  0  0
 34 35  1  0  0  0  0
 34 39  1  0  0  0  0
 35 36  1  0  0  0  0
 35 37  1  0  0  0  0
 35 38  1  0  0  0  0
 39 40  1  0  0  0  0
 39 41  1  0  0  0  0
 39 42  1  0  0  0  0
 48 49  2  0  0  0  0
 48 54  1  0  0  0  0
 49 50  1  0  0  0  0
 49 59  1  0  0  0  0
 50 51  1  0  0  0  0
 50 52  2  0  0  0  0
 52 53  1  0  0  0  0
 52 58  1  0  0  0  0
 53 54  2  0  0  0  0
 53 57  1  0  0  0  0
 54 55  1  0  0  0  0
 55 56  2  0  0  0  0
M  END
>  <MODEL>
       1

$$$$
