tmp_first_model_20_73.pdb
 OpenBabel08282503553D

 50 53  0  0  1  0  0  0  0  0999 V2000
   -5.5990   -3.0190  -21.5810 O   0  0  0  0  0  0  0  0  0  0  0  0
   -6.7560   -2.7510  -21.8610 C   0  0  0  0  0  0  0  0  0  0  0  0
   -7.4150   -1.4790  -21.2670 C   0  0  0  0  0  0  0  0  0  0  0  0
   -6.5810   -0.8310  -20.1830 C   0  0  0  0  0  0  0  0  0  0  0  0
   -6.8740   -1.0440  -18.8600 C   0  0  0  0  0  0  0  0  0  0  0  0
   -6.1930   -0.5390  -17.7960 N   0  0  0  0  0  0  0  0  0  0  0  0
   -5.1580    0.2200  -18.0640 C   0  0  0  0  0  0  0  0  0  0  0  0
   -4.7210    0.5290  -19.3830 C   0  0  0  0  0  0  0  0  0  0  0  0
   -3.5920    1.3570  -19.6200 C   0  0  0  0  0  0  0  0  0  0  0  0
   -3.1890    1.6320  -20.9010 C   0  0  0  0  0  0  0  0  0  0  0  0
   -3.9000    1.0870  -21.9920 C   0  0  0  0  0  0  0  0  0  0  0  0
   -4.9980    0.2860  -21.7870 C   0  0  0  0  0  0  0  0  0  0  0  0
   -5.4440   -0.0130  -20.4720 C   0  0  0  0  0  0  0  0  0  0  0  0
   -5.5280   -0.1280  -22.6370 H   0  0  0  0  0  0  0  0  0  0  0  0
   -3.5770    1.3120  -23.0040 H   0  0  0  0  0  0  0  0  0  0  0  0
   -2.3290    2.2700  -21.0880 H   0  0  0  0  0  0  0  0  0  0  0  0
   -3.0520    1.7710  -18.7720 H   0  0  0  0  0  0  0  0  0  0  0  0
   -4.6020    0.6260  -17.2170 H   0  0  0  0  0  0  0  0  0  0  0  0
   -7.7200   -1.6690  -18.5850 H   0  0  0  0  0  0  0  0  0  0  0  0
   -7.6150   -0.7470  -22.0630 H   0  0  0  0  0  0  0  0  0  0  0  0
   -8.3960   -1.7460  -20.8470 H   0  0  0  0  0  0  0  0  0  0  0  0
   -7.5160   -3.5800  -22.6620 N   0  0  0  0  0  0  0  0  0  0  0  0
   -8.6620   -3.1210  -23.4520 C   0  0  0  0  0  0  0  0  0  0  0  0
   -9.7300   -4.1960  -23.5650 C   0  0  0  0  0  0  0  0  0  0  0  0
   -9.1370   -5.4800  -24.1140 C   0  0  0  0  0  0  0  0  0  0  0  0
   -7.9690   -5.9290  -23.2500 C   0  0  0  0  0  0  0  0  0  0  0  0
   -6.9030   -4.8480  -23.1050 C   0  0  1  0  0  0  0  0  0  0  0  0
   -6.0400   -4.6950  -24.3730 C   0  0  0  0  0  0  0  0  0  0  0  0
   -5.2070   -5.9200  -24.6890 C   0  0  0  0  0  0  0  0  0  0  0  0
   -4.0480   -6.1880  -23.9570 C   0  0  0  0  0  0  0  0  0  0  0  0
   -3.2850   -7.3200  -24.2190 C   0  0  0  0  0  0  0  0  0  0  0  0
   -3.6710   -8.2100  -25.2170 C   0  0  0  0  0  0  0  0  0  0  0  0
   -4.8270   -7.9600  -25.9500 C   0  0  0  0  0  0  0  0  0  0  0  0
   -5.5860   -6.8240  -25.6830 C   0  0  0  0  0  0  0  0  0  0  0  0
   -6.4940   -6.6400  -26.2540 H   0  0  0  0  0  0  0  0  0  0  0  0
   -5.1400   -8.6450  -26.7330 H   0  0  0  0  0  0  0  0  0  0  0  0
   -3.0720   -9.0910  -25.4250 H   0  0  0  0  0  0  0  0  0  0  0  0
   -2.3820   -7.5080  -23.6440 H   0  0  0  0  0  0  0  0  0  0  0  0
   -3.7380   -5.4990  -23.1740 H   0  0  0  0  0  0  0  0  0  0  0  0
   -6.6850   -4.4570  -25.2250 H   0  0  0  0  0  0  0  0  0  0  0  0
   -5.3820   -3.8380  -24.2180 H   0  0  0  0  0  0  0  0  0  0  0  0
   -6.2370   -5.1570  -22.2990 H   0  0  0  0  0  0  0  0  0  0  0  0
   -8.3000   -6.1640  -22.2380 H   0  0  0  0  0  0  0  0  0  0  0  0
   -7.5390   -6.8560  -23.6410 H   0  0  0  0  0  0  0  0  0  0  0  0
   -9.8900   -6.2530  -24.1950 H   0  0  0  0  0  0  0  0  0  0  0  0
   -8.8200   -5.3570  -25.1550 H   0  0  0  0  0  0  0  0  0  0  0  0
  -10.1650   -4.3770  -22.5790 H   0  0  0  0  0  0  0  0  0  0  0  0
  -10.5510   -3.8510  -24.2010 H   0  0  0  0  0  0  0  0  0  0  0  0
   -9.0880   -2.2300  -22.9940 H   0  0  0  0  0  0  0  0  0  0  0  0
   -8.3560   -2.8290  -24.4670 H   0  0  0  0  0  0  0  0  0  0  0  0
  1  2  2  0  0  0  0
  2  3  1  0  0  0  0
  2 22  1  0  0  0  0
  3  4  1  0  0  0  0
  3 20  1  0  0  0  0
  3 21  1  0  0  0  0
  4  5  2  0  0  0  0
  4 13  1  0  0  0  0
  5  6  1  0  0  0  0
  5 19  1  0  0  0  0
  6  7  2  0  0  0  0
  7  8  1  0  0  0  0
  7 18  1  0  0  0  0
  8  9  2  0  0  0  0
  8 13  1  0  0  0  0
  9 10  1  0  0  0  0
  9 17  1  0  0  0  0
 10 11  2  0  0  0  0
 10 16  1  0  0  0  0
 11 12  1  0  0  0  0
 11 15  1  0  0  0  0
 12 13  2  0  0  0  0
 12 14  1  0  0  0  0
 22 23  1  0  0  0  0
 22 27  1  0  0  0  0
 23 24  1  0  0  0  0
 23 49  1  0  0  0  0
 23 50  1  0  0  0  0
 24 25  1  0  0  0  0
 24 47  1  0  0  0  0
 24 48  1  0  0  0  0
 25 26  1  0  0  0  0
 25 45  1  0  0  0  0
 25 46  1  0  0  0  0
 26 27  1  0  0  0  0
 26 43  1  0  0  0  0
 26 44  1  0  0  0  0
 27 28  1  0  0  0  0
 27 42  1  1  0  0  0
 28 29  1  0  0  0  0
 28 40  1  0  0  0  0
 28 41  1  0  0  0  0
 29 30  2  0  0  0  0
 29 34  1  0  0  0  0
 30 31  1  0  0  0  0
 30 39  1  0  0  0  0
 31 32  2  0  0  0  0
 31 38  1  0  0  0  0
 32 33  1  0  0  0  0
 32 37  1  0  0  0  0
 33 34  2  0  0  0  0
 33 36  1  0  0  0  0
 34 35  1  0  0  0  0
M  END
>  <MODEL>
       1

$$$$
