tmp_first_model_14_40.pdb
 OpenBabel08282500413D

 40 42  0  0  0  0  0  0  0  0999 V2000
   -6.4970    1.4270  -26.8580 C   0  0  0  0  0  0  0  0  0  0  0  0
   -7.5010    1.0190  -25.7820 C   0  0  0  0  0  0  0  0  0  0  0  0
   -7.3100   -0.4350  -25.3650 C   0  0  0  0  0  0  0  0  0  0  0  0
   -8.2790   -0.8310  -24.2610 C   0  0  0  0  0  0  0  0  0  0  0  0
   -8.1760    0.0880  -23.1320 N   0  0  0  0  0  0  0  0  0  0  0  0
   -8.3760   -0.3120  -21.8080 C   0  0  0  0  0  0  0  0  0  0  0  0
   -9.1750    0.2290  -21.0750 O   0  0  0  0  0  0  0  0  0  0  0  0
   -7.4440   -1.4130  -21.2750 C   0  0  0  0  0  0  0  0  0  0  0  0
   -6.5690   -0.8350  -20.1820 C   0  0  0  0  0  0  0  0  0  0  0  0
   -6.8790   -1.0330  -18.8640 C   0  0  0  0  0  0  0  0  0  0  0  0
   -6.2000   -0.5060  -17.8130 N   0  0  0  0  0  0  0  0  0  0  0  0
   -5.1530    0.2320  -18.0740 C   0  0  0  0  0  0  0  0  0  0  0  0
   -4.7170    0.5350  -19.3880 C   0  0  0  0  0  0  0  0  0  0  0  0
   -3.5960    1.3680  -19.6270 C   0  0  0  0  0  0  0  0  0  0  0  0
   -3.2090    1.6630  -20.9050 C   0  0  0  0  0  0  0  0  0  0  0  0
   -3.9310    1.1290  -21.9960 C   0  0  0  0  0  0  0  0  0  0  0  0
   -5.0180    0.3170  -21.7880 C   0  0  0  0  0  0  0  0  0  0  0  0
   -5.4480   -0.0020  -20.4760 C   0  0  0  0  0  0  0  0  0  0  0  0
   -5.5540   -0.0870  -22.6390 H   0  0  0  0  0  0  0  0  0  0  0  0
   -3.6170    1.3680  -23.0070 H   0  0  0  0  0  0  0  0  0  0  0  0
   -2.3580    2.3130  -21.0860 H   0  0  0  0  0  0  0  0  0  0  0  0
   -3.0630    1.7810  -18.7740 H   0  0  0  0  0  0  0  0  0  0  0  0
   -4.6020    0.6280  -17.2190 H   0  0  0  0  0  0  0  0  0  0  0  0
   -7.7260   -1.6580  -18.5810 H   0  0  0  0  0  0  0  0  0  0  0  0
   -8.0690   -2.2040  -20.8450 H   0  0  0  0  0  0  0  0  0  0  0  0
   -6.8340   -1.8490  -22.0750 H   0  0  0  0  0  0  0  0  0  0  0  0
   -8.3910    1.4920  -23.4640 C   0  0  0  0  0  0  0  0  0  0  0  0
   -7.4160    1.9210  -24.5560 C   0  0  0  0  0  0  0  0  0  0  0  0
   -7.6020    2.9620  -24.8410 H   0  0  0  0  0  0  0  0  0  0  0  0
   -6.3940    1.8970  -24.1550 H   0  0  0  0  0  0  0  0  0  0  0  0
   -9.4240    1.6920  -23.7880 H   0  0  0  0  0  0  0  0  0  0  0  0
   -8.2310    2.0730  -22.5560 H   0  0  0  0  0  0  0  0  0  0  0  0
   -8.0800   -1.8410  -23.9080 H   0  0  0  0  0  0  0  0  0  0  0  0
   -9.3010   -0.8420  -24.6790 H   0  0  0  0  0  0  0  0  0  0  0  0
   -7.4340   -1.0950  -26.2310 H   0  0  0  0  0  0  0  0  0  0  0  0
   -6.2850   -0.5780  -25.0070 H   0  0  0  0  0  0  0  0  0  0  0  0
   -8.5120    1.1200  -26.2020 H   0  0  0  0  0  0  0  0  0  0  0  0
   -5.4710    1.3390  -26.4820 H   0  0  0  0  0  0  0  0  0  0  0  0
   -6.5760    0.7870  -27.7450 H   0  0  0  0  0  0  0  0  0  0  0  0
   -6.6430    2.4660  -27.1750 H   0  0  0  0  0  0  0  0  0  0  0  0
  1  2  1  0  0  0  0
  1 38  1  0  0  0  0
  1 39  1  0  0  0  0
  1 40  1  0  0  0  0
  2  3  1  0  0  0  0
  2 28  1  0  0  0  0
  2 37  1  0  0  0  0
  3  4  1  0  0  0  0
  3 35  1  0  0  0  0
  3 36  1  0  0  0  0
  4  5  1  0  0  0  0
  4 33  1  0  0  0  0
  4 34  1  0  0  0  0
  5  6  1  0  0  0  0
  5 27  1  0  0  0  0
  6  7  2  0  0  0  0
  6  8  1  0  0  0  0
  8  9  1  0  0  0  0
  8 25  1  0  0  0  0
  8 26  1  0  0  0  0
  9 10  2  0  0  0  0
  9 18  1  0  0  0  0
 10 11  1  0  0  0  0
 10 24  1  0  0  0  0
 11 12  2  0  0  0  0
 12 13  1  0  0  0  0
 12 23  1  0  0  0  0
 13 14  2  0  0  0  0
 13 18  1  0  0  0  0
 14 15  1  0  0  0  0
 14 22  1  0  0  0  0
 15 16  2  0  0  0  0
 15 21  1  0  0  0  0
 16 17  1  0  0  0  0
 16 20  1  0  0  0  0
 17 18  2  0  0  0  0
 17 19  1  0  0  0  0
 27 28  1  0  0  0  0
 27 31  1  0  0  0  0
 27 32  1  0  0  0  0
 28 29  1  0  0  0  0
 28 30  1  0  0  0  0
M  END
>  <MODEL>
       1

$$$$
