tmp_first_model_3_26.pdb
 OpenBabel08272518143D

 55 60  0  0  1  0  0  0  0  0999 V2000
  -10.0230   -0.8790  -23.4790 C   0  0  0  0  0  0  0  0  0  0  0  0
   -8.6440   -1.2360  -22.9200 C   0  0  1  0  0  0  0  0  0  0  0  0
   -8.1780   -0.3040  -21.7840 C   0  0  0  0  0  0  0  0  0  0  0  0
   -7.2230   -1.1210  -21.0430 N   0  0  0  0  0  0  0  0  0  0  0  0
   -6.3920   -0.6290  -20.0020 C   0  0  0  0  0  0  0  0  0  0  0  0
   -6.6710   -0.8890  -18.6820 C   0  0  0  0  0  0  0  0  0  0  0  0
   -6.0000   -0.3360  -17.6370 N   0  0  0  0  0  0  0  0  0  0  0  0
   -5.0020    0.4670  -17.9150 C   0  0  0  0  0  0  0  0  0  0  0  0
   -4.5600    0.7610  -19.2330 C   0  0  0  0  0  0  0  0  0  0  0  0
   -3.4310    1.5850  -19.4710 C   0  0  0  0  0  0  0  0  0  0  0  0
   -3.0090    1.8260  -20.7470 C   0  0  0  0  0  0  0  0  0  0  0  0
   -3.7030    1.2610  -21.8400 C   0  0  0  0  0  0  0  0  0  0  0  0
   -4.8130    0.4760  -21.6340 C   0  0  0  0  0  0  0  0  0  0  0  0
   -5.2690    0.2030  -20.3180 C   0  0  0  0  0  0  0  0  0  0  0  0
   -5.3490    0.0490  -22.4750 H   0  0  0  0  0  0  0  0  0  0  0  0
   -3.3600    1.4560  -22.8510 H   0  0  0  0  0  0  0  0  0  0  0  0
   -2.1390    2.4530  -20.9290 H   0  0  0  0  0  0  0  0  0  0  0  0
   -2.9290    2.0240  -18.6130 H   0  0  0  0  0  0  0  0  0  0  0  0
   -4.4680    0.9130  -17.0740 H   0  0  0  0  0  0  0  0  0  0  0  0
   -7.4830   -1.5600  -18.4080 H   0  0  0  0  0  0  0  0  0  0  0  0
   -7.3700   -2.4730  -21.2810 C   0  0  0  0  0  0  0  0  0  0  0  0
   -6.7300   -3.3460  -20.7350 O   0  0  0  0  0  0  0  0  0  0  0  0
   -8.4940   -2.6750  -22.3120 C   0  0  1  0  0  0  0  0  0  0  0  0
   -9.7380   -3.1520  -21.5280 C   0  0  0  0  0  0  0  0  0  0  0  0
  -10.7920   -3.6080  -22.4200 N   0  0  0  0  0  0  0  0  0  0  0  0
  -12.1820   -3.4560  -22.0010 C   0  0  0  0  0  0  0  0  0  0  0  0
  -12.9670   -2.3570  -22.6670 C   0  0  0  0  0  0  0  0  0  0  0  0
  -13.6140   -2.2480  -23.9110 C   0  0  0  0  0  0  0  0  0  0  0  0
  -14.2810   -1.0960  -23.9690 N   0  0  0  0  0  0  0  0  0  0  0  0
  -14.0010   -0.5490  -22.8050 N   0  0  0  0  0  0  0  0  0  0  0  0
  -13.2240   -1.2390  -21.9900 N   0  0  0  0  0  0  0  0  0  0  0  0
  -14.3330    0.3730  -22.5780 H   0  0  0  0  0  0  0  0  0  0  0  0
  -13.6440   -2.9510  -24.7260 H   0  0  0  0  0  0  0  0  0  0  0  0
  -12.1760   -3.2210  -20.9360 H   0  0  0  0  0  0  0  0  0  0  0  0
  -12.6810   -4.4170  -22.1420 H   0  0  0  0  0  0  0  0  0  0  0  0
  -10.4780   -4.5880  -23.3290 C   0  0  0  0  0  0  0  0  0  0  0  0
  -11.2720   -5.3900  -23.7700 O   0  0  0  0  0  0  0  0  0  0  0  0
   -9.0720   -4.6390  -23.8070 C   0  0  0  0  0  0  0  0  0  0  0  0
   -8.7480   -5.6130  -24.7550 C   0  0  0  0  0  0  0  0  0  0  0  0
   -7.4670   -5.6970  -25.2650 C   0  0  0  0  0  0  0  0  0  0  0  0
   -6.5270   -4.7860  -24.7910 C   0  0  0  0  0  0  0  0  0  0  0  0
   -5.2780   -4.8520  -25.2840 F   0  0  0  0  0  0  0  0  0  0  0  0
   -6.8210   -3.8350  -23.8310 C   0  0  0  0  0  0  0  0  0  0  0  0
   -8.1270   -3.7360  -23.3290 C   0  0  0  0  0  0  0  0  0  0  0  0
   -6.0210   -3.2030  -23.4570 H   0  0  0  0  0  0  0  0  0  0  0  0
   -7.1940   -6.4410  -26.0080 H   0  0  0  0  0  0  0  0  0  0  0  0
   -9.5280   -6.2980  -25.0750 H   0  0  0  0  0  0  0  0  0  0  0  0
  -10.1200   -2.3270  -20.9200 H   0  0  0  0  0  0  0  0  0  0  0  0
   -9.4160   -3.9540  -20.8450 H   0  0  0  0  0  0  0  0  0  0  0  0
   -9.0340   -0.0020  -21.1530 H   0  0  0  0  0  0  0  0  0  0  0  0
   -7.7070    0.6100  -22.1580 H   0  0  0  0  0  0  0  0  0  0  0  0
   -7.9120   -1.1880  -23.7450 H   0  0  0  0  0  0  0  0  0  0  0  0
  -10.0010    0.0820  -24.0020 H   0  0  0  0  0  0  0  0  0  0  0  0
  -10.3570   -1.6420  -24.1890 H   0  0  0  0  0  0  0  0  0  0  0  0
  -10.7800   -0.8120  -22.6900 H   0  0  0  0  0  0  0  0  0  0  0  0
  1  2  1  0  0  0  0
  1 53  1  0  0  0  0
  1 54  1  0  0  0  0
  1 55  1  0  0  0  0
  2  3  1  0  0  0  0
  2 23  1  0  0  0  0
  2 52  1  6  0  0  0
  3  4  1  0  0  0  0
  3 50  1  0  0  0  0
  3 51  1  0  0  0  0
  4  5  1  0  0  0  0
  4 21  1  0  0  0  0
  5  6  2  0  0  0  0
  5 14  1  0  0  0  0
  6  7  1  0  0  0  0
  6 20  1  0  0  0  0
  7  8  2  0  0  0  0
  8  9  1  0  0  0  0
  8 19  1  0  0  0  0
  9 10  2  0  0  0  0
  9 14  1  0  0  0  0
 10 11  1  0  0  0  0
 10 18  1  0  0  0  0
 11 12  2  0  0  0  0
 11 17  1  0  0  0  0
 12 13  1  0  0  0  0
 12 16  1  0  0  0  0
 13 14  2  0  0  0  0
 13 15  1  0  0  0  0
 21 22  2  0  0  0  0
 23 21  1  1  0  0  0
 23 24  1  0  0  0  0
 23 44  1  0  0  0  0
 24 25  1  0  0  0  0
 24 48  1  0  0  0  0
 24 49  1  0  0  0  0
 25 26  1  0  0  0  0
 25 36  1  0  0  0  0
 26 27  1  0  0  0  0
 26 34  1  0  0  0  0
 26 35  1  0  0  0  0
 27 28  1  0  0  0  0
 27 31  2  0  0  0  0
 28 29  2  0  0  0  0
 28 33  1  0  0  0  0
 29 30  1  0  0  0  0
 30 31  1  0  0  0  0
 30 32  1  0  0  0  0
 36 37  2  0  0  0  0
 36 38  1  0  0  0  0
 38 39  2  0  0  0  0
 38 44  1  0  0  0  0
 39 40  1  0  0  0  0
 39 47  1  0  0  0  0
 40 41  2  0  0  0  0
 40 46  1  0  0  0  0
 41 42  1  0  0  0  0
 41 43  1  0  0  0  0
 43 44  2  0  0  0  0
 43 45  1  0  0  0  0
M  END
>  <MODEL>
       1

$$$$
