tmp_first_model_1_47.pdb
 OpenBabel08272517043D

 58 63  0  0  1  0  0  0  0  0999 V2000
   -8.5730    0.5680  -21.0500 O   0  0  0  0  0  0  0  0  0  0  0  0
   -8.1260   -0.2380  -21.8430 C   0  0  0  0  0  0  0  0  0  0  0  0
   -7.3520   -1.4470  -21.3030 C   0  0  0  0  0  0  0  0  0  0  0  0
   -6.4940   -0.9240  -20.1850 C   0  0  0  0  0  0  0  0  0  0  0  0
   -6.8500   -1.1010  -18.8750 C   0  0  0  0  0  0  0  0  0  0  0  0
   -6.2010   -0.5640  -17.8120 N   0  0  0  0  0  0  0  0  0  0  0  0
   -5.1750    0.2110  -18.0750 C   0  0  0  0  0  0  0  0  0  0  0  0
   -4.7230    0.5220  -19.3860 C   0  0  0  0  0  0  0  0  0  0  0  0
   -3.6140    1.3740  -19.6230 C   0  0  0  0  0  0  0  0  0  0  0  0
   -3.2170    1.6640  -20.9000 C   0  0  0  0  0  0  0  0  0  0  0  0
   -3.9280    1.1340  -22.0000 C   0  0  0  0  0  0  0  0  0  0  0  0
   -5.0190    0.3240  -21.7960 C   0  0  0  0  0  0  0  0  0  0  0  0
   -5.4200   -0.0380  -20.4800 C   0  0  0  0  0  0  0  0  0  0  0  0
   -5.5810   -0.0400  -22.6530 H   0  0  0  0  0  0  0  0  0  0  0  0
   -3.6080    1.3700  -23.0130 H   0  0  0  0  0  0  0  0  0  0  0  0
   -2.3600    2.3080  -21.0790 H   0  0  0  0  0  0  0  0  0  0  0  0
   -3.0910    1.7840  -18.7610 H   0  0  0  0  0  0  0  0  0  0  0  0
   -4.6360    0.6270  -17.2220 H   0  0  0  0  0  0  0  0  0  0  0  0
   -7.7320   -1.6910  -18.6290 H   0  0  0  0  0  0  0  0  0  0  0  0
   -6.7560   -1.9500  -22.0670 H   0  0  0  0  0  0  0  0  0  0  0  0
   -8.0710   -2.1830  -20.9270 H   0  0  0  0  0  0  0  0  0  0  0  0
   -8.2180   -0.0320  -23.2090 N   0  0  0  0  0  0  0  0  0  0  0  0
   -8.1210   -1.0800  -24.2230 C   0  0  0  0  0  0  0  0  0  0  0  0
   -9.1910   -2.1550  -24.1230 C   0  0  0  0  0  0  0  0  0  0  0  0
  -10.5360   -1.9440  -24.4380 C   0  0  0  0  0  0  0  0  0  0  0  0
  -11.4520   -2.9830  -24.3150 C   0  0  0  0  0  0  0  0  0  0  0  0
  -11.0800   -4.2390  -23.8560 C   0  0  0  0  0  0  0  0  0  0  0  0
   -9.7390   -4.4540  -23.5800 C   0  0  0  0  0  0  0  0  0  0  0  0
   -9.2040   -6.0480  -23.1210 Cl  0  0  0  0  0  0  0  0  0  0  0  0
   -8.8080   -3.4320  -23.7090 C   0  0  0  0  0  0  0  0  0  0  0  0
   -7.7680   -3.6490  -23.4800 H   0  0  0  0  0  0  0  0  0  0  0  0
  -11.8100   -5.0330  -23.7330 H   0  0  0  0  0  0  0  0  0  0  0  0
  -12.4820   -2.8700  -24.6040 H   0  0  0  0  0  0  0  0  0  0  0  0
  -10.8780   -0.9670  -24.7870 H   0  0  0  0  0  0  0  0  0  0  0  0
   -7.1380   -1.5670  -24.1780 H   0  0  0  0  0  0  0  0  0  0  0  0
   -8.1410   -0.5860  -25.1960 H   0  0  0  0  0  0  0  0  0  0  0  0
   -8.4620    1.3410  -23.5840 C   0  0  2  0  0  0  0  0  0  0  0  0
   -7.4140    2.3700  -23.1250 C   0  0  0  0  0  0  0  0  0  0  0  0
   -8.0450    3.6260  -23.6860 N   0  3  1  0  0  0  0  0  0  0  0  0
   -7.2010    4.4430  -24.5630 C   0  0  0  0  0  0  0  0  0  0  0  0
   -7.5660    5.8780  -24.7640 C   0  0  0  0  0  0  0  0  0  0  0  0
   -6.3540    5.5070  -23.9510 C   0  0  0  0  0  0  0  0  0  0  0  0
   -6.4130    5.5880  -22.8720 H   0  0  0  0  0  0  0  0  0  0  0  0
   -5.3670    5.6860  -24.3600 H   0  0  0  0  0  0  0  0  0  0  0  0
   -7.4230    6.3090  -25.7470 H   0  0  0  0  0  0  0  0  0  0  0  0
   -8.4500    6.2360  -24.2470 H   0  0  0  0  0  0  0  0  0  0  0  0
   -6.8010    3.9180  -25.4180 H   0  0  0  0  0  0  0  0  0  0  0  0
   -9.2650    3.0230  -24.3640 C   0  0  2  0  0  0  0  0  0  0  0  0
   -9.7750    2.1000  -23.2580 C   0  0  0  0  0  0  0  0  0  0  0  0
  -10.6760    1.5530  -23.5310 H   0  0  0  0  0  0  0  0  0  0  0  0
   -9.8480    2.5330  -22.2600 H   0  0  0  0  0  0  0  0  0  0  0  0
   -8.6820    1.7760  -25.0410 C   0  0  0  0  0  0  0  0  0  0  0  0
   -9.4230    1.1580  -25.5390 H   0  0  0  0  0  0  0  0  0  0  0  0
   -7.7960    1.9120  -25.6680 H   0  0  0  0  0  0  0  0  0  0  0  0
   -9.8780    3.7540  -24.8770 H   0  0  0  0  0  0  0  0  0  0  0  0
   -8.3640    4.2240  -22.8980 H   0  0  0  0  0  0  0  0  0  0  0  0
   -7.3440    2.4230  -22.0420 H   0  0  0  0  0  0  0  0  0  0  0  0
   -6.4280    2.2160  -23.5580 H   0  0  0  0  0  0  0  0  0  0  0  0
  1  2  2  0  0  0  0
  2  3  1  0  0  0  0
  2 22  1  0  0  0  0
  3  4  1  0  0  0  0
  3 20  1  0  0  0  0
  3 21  1  0  0  0  0
  4  5  2  0  0  0  0
  4 13  1  0  0  0  0
  5  6  1  0  0  0  0
  5 19  1  0  0  0  0
  6  7  2  0  0  0  0
  7  8  1  0  0  0  0
  7 18  1  0  0  0  0
  8  9  2  0  0  0  0
  8 13  1  0  0  0  0
  9 10  1  0  0  0  0
  9 17  1  0  0  0  0
 10 11  2  0  0  0  0
 10 16  1  0  0  0  0
 11 12  1  0  0  0  0
 11 15  1  0  0  0  0
 12 13  2  0  0  0  0
 12 14  1  0  0  0  0
 22 23  1  0  0  0  0
 23 24  1  0  0  0  0
 23 35  1  0  0  0  0
 23 36  1  0  0  0  0
 24 25  2  0  0  0  0
 24 30  1  0  0  0  0
 25 26  1  0  0  0  0
 25 34  1  0  0  0  0
 26 27  2  0  0  0  0
 26 33  1  0  0  0  0
 27 28  1  0  0  0  0
 27 32  1  0  0  0  0
 28 29  1  0  0  0  0
 28 30  2  0  0  0  0
 30 31  1  0  0  0  0
 37 22  1  1  0  0  0
 37 38  1  0  0  0  0
 37 49  1  0  0  0  0
 37 52  1  0  0  0  0
 38 39  1  0  0  0  0
 38 57  1  0  0  0  0
 38 58  1  0  0  0  0
 39 40  1  0  0  0  0
 39 48  1  0  0  0  0
 39 56  1  1  0  0  0
 40 41  1  0  0  0  0
 40 42  1  0  0  0  0
 40 47  1  0  0  0  0
 41 42  1  0  0  0  0
 41 45  1  0  0  0  0
 41 46  1  0  0  0  0
 42 43  1  0  0  0  0
 42 44  1  0  0  0  0
 48 49  1  0  0  0  0
 48 52  1  0  0  0  0
 48 55  1  6  0  0  0
 49 50  1  0  0  0  0
 49 51  1  0  0  0  0
 52 53  1  0  0  0  0
 52 54  1  0  0  0  0
M  CHG  1  39   1
M  END
>  <MODEL>
       1

$$$$
