tmp_first_model_13_21.pdb
 OpenBabel08282500103D

 63 68  0  0  1  0  0  0  0  0999 V2000
  -10.4030   -1.0350  -23.3860 C   0  0  0  0  0  0  0  0  0  0  0  0
   -8.9820   -1.4080  -22.9840 C   0  0  1  0  0  0  0  0  0  0  0  0
   -8.3950   -0.4860  -21.9030 C   0  0  0  0  0  0  0  0  0  0  0  0
   -7.4100   -1.3270  -21.2510 N   0  0  0  0  0  0  0  0  0  0  0  0
   -6.5810   -0.8510  -20.2070 C   0  0  0  0  0  0  0  0  0  0  0  0
   -6.8840   -1.1140  -18.8960 C   0  0  0  0  0  0  0  0  0  0  0  0
   -6.2090   -0.5830  -17.8470 N   0  0  0  0  0  0  0  0  0  0  0  0
   -5.1990    0.2100  -18.0990 C   0  0  0  0  0  0  0  0  0  0  0  0
   -4.7510    0.5330  -19.4120 C   0  0  0  0  0  0  0  0  0  0  0  0
   -3.6240    1.3650  -19.6490 C   0  0  0  0  0  0  0  0  0  0  0  0
   -3.2190    1.6280  -20.9290 C   0  0  0  0  0  0  0  0  0  0  0  0
   -3.9150    1.0710  -22.0280 C   0  0  0  0  0  0  0  0  0  0  0  0
   -5.0090    0.2650  -21.8230 C   0  0  0  0  0  0  0  0  0  0  0  0
   -5.4570   -0.0150  -20.5060 C   0  0  0  0  0  0  0  0  0  0  0  0
   -5.5340   -0.1830  -22.6620 H   0  0  0  0  0  0  0  0  0  0  0  0
   -3.5820    1.2750  -23.0410 H   0  0  0  0  0  0  0  0  0  0  0  0
   -2.3570    2.2640  -21.1130 H   0  0  0  0  0  0  0  0  0  0  0  0
   -3.0950    1.7780  -18.7940 H   0  0  0  0  0  0  0  0  0  0  0  0
   -4.6710    0.6340  -17.2420 H   0  0  0  0  0  0  0  0  0  0  0  0
   -7.7140   -1.7700  -18.6390 H   0  0  0  0  0  0  0  0  0  0  0  0
   -7.6010   -2.6720  -21.4760 C   0  0  0  0  0  0  0  0  0  0  0  0
   -6.8920   -3.5400  -21.0050 O   0  0  0  0  0  0  0  0  0  0  0  0
   -8.7970   -2.8650  -22.4280 C   0  0  1  0  0  0  0  0  0  0  0  0
  -10.0240   -3.3140  -21.5940 C   0  0  0  0  0  0  0  0  0  0  0  0
  -11.1330   -3.8220  -22.3930 N   0  0  0  0  0  0  0  0  0  0  0  0
  -12.4900   -3.8670  -21.8640 C   0  0  0  0  0  0  0  0  0  0  0  0
  -13.3740   -2.8130  -22.5130 C   0  0  0  0  0  0  0  0  0  0  0  0
  -13.5580   -2.8400  -23.7220 O   0  0  0  0  0  0  0  0  0  0  0  0
  -13.9870   -1.8810  -21.7360 N   0  0  0  0  0  0  0  0  0  0  0  0
  -14.8020   -0.8760  -22.4030 C   0  0  0  0  0  0  0  0  0  0  0  0
  -14.0090    0.1080  -23.2410 C   0  0  0  0  0  0  0  0  0  0  0  0
  -14.3670    1.5710  -23.2770 C   0  0  0  0  0  0  0  0  0  0  0  0
  -13.0890    1.1250  -22.6220 C   0  0  0  0  0  0  0  0  0  0  0  0
  -12.1610    1.3290  -23.1520 H   0  0  0  0  0  0  0  0  0  0  0  0
  -12.9910    1.1860  -21.5380 H   0  0  0  0  0  0  0  0  0  0  0  0
  -15.1820    1.8990  -22.6290 H   0  0  0  0  0  0  0  0  0  0  0  0
  -14.3040    2.1380  -24.2050 H   0  0  0  0  0  0  0  0  0  0  0  0
  -13.6390   -0.3580  -24.1540 H   0  0  0  0  0  0  0  0  0  0  0  0
  -15.4710   -1.4340  -23.0550 H   0  0  0  0  0  0  0  0  0  0  0  0
  -15.4090   -0.3640  -21.6540 H   0  0  0  0  0  0  0  0  0  0  0  0
  -13.6330   -1.6890  -20.8160 H   0  0  0  0  0  0  0  0  0  0  0  0
  -12.5170   -3.9020  -20.7670 H   0  0  0  0  0  0  0  0  0  0  0  0
  -12.9250   -4.7850  -22.2720 H   0  0  0  0  0  0  0  0  0  0  0  0
  -10.9130   -4.6370  -23.4720 C   0  0  0  0  0  0  0  0  0  0  0  0
  -11.8090   -5.2640  -24.0150 O   0  0  0  0  0  0  0  0  0  0  0  0
   -9.5140   -4.7450  -23.9530 C   0  0  0  0  0  0  0  0  0  0  0  0
   -9.2780   -5.7300  -24.9070 C   0  0  0  0  0  0  0  0  0  0  0  0
   -8.0180   -5.9110  -25.4330 C   0  0  0  0  0  0  0  0  0  0  0  0
   -7.0090   -5.0650  -24.9860 C   0  0  0  0  0  0  0  0  0  0  0  0
   -5.7750   -5.2210  -25.4910 F   0  0  0  0  0  0  0  0  0  0  0  0
   -7.2110   -4.0930  -24.0220 C   0  0  0  0  0  0  0  0  0  0  0  0
   -8.4950   -3.9150  -23.4820 C   0  0  0  0  0  0  0  0  0  0  0  0
   -6.3560   -3.5260  -23.6670 H   0  0  0  0  0  0  0  0  0  0  0  0
   -7.8110   -6.6870  -26.1610 H   0  0  0  0  0  0  0  0  0  0  0  0
  -10.1130   -6.3550  -25.2060 H   0  0  0  0  0  0  0  0  0  0  0  0
   -9.7060   -4.0810  -20.8890 H   0  0  0  0  0  0  0  0  0  0  0  0
  -10.3490   -2.4560  -21.0010 H   0  0  0  0  0  0  0  0  0  0  0  0
   -9.1630   -0.1470  -21.1900 H   0  0  0  0  0  0  0  0  0  0  0  0
   -7.9360    0.4210  -22.3100 H   0  0  0  0  0  0  0  0  0  0  0  0
   -8.3330   -1.3500  -23.8650 H   0  0  0  0  0  0  0  0  0  0  0  0
  -10.8300   -1.7970  -24.0410 H   0  0  0  0  0  0  0  0  0  0  0  0
  -10.4450   -0.0730  -23.9060 H   0  0  0  0  0  0  0  0  0  0  0  0
  -11.0530   -0.9500  -22.5100 H   0  0  0  0  0  0  0  0  0  0  0  0
  1  2  1  0  0  0  0
  1 61  1  0  0  0  0
  1 62  1  0  0  0  0
  1 63  1  0  0  0  0
  2  3  1  0  0  0  0
  2 23  1  0  0  0  0
  2 60  1  6  0  0  0
  3  4  1  0  0  0  0
  3 58  1  0  0  0  0
  3 59  1  0  0  0  0
  4  5  1  0  0  0  0
  4 21  1  0  0  0  0
  5  6  2  0  0  0  0
  5 14  1  0  0  0  0
  6  7  1  0  0  0  0
  6 20  1  0  0  0  0
  7  8  2  0  0  0  0
  8  9  1  0  0  0  0
  8 19  1  0  0  0  0
  9 10  2  0  0  0  0
  9 14  1  0  0  0  0
 10 11  1  0  0  0  0
 10 18  1  0  0  0  0
 11 12  2  0  0  0  0
 11 17  1  0  0  0  0
 12 13  1  0  0  0  0
 12 16  1  0  0  0  0
 13 14  2  0  0  0  0
 13 15  1  0  0  0  0
 21 22  2  0  0  0  0
 23 21  1  1  0  0  0
 23 24  1  0  0  0  0
 23 52  1  0  0  0  0
 24 25  1  0  0  0  0
 24 56  1  0  0  0  0
 24 57  1  0  0  0  0
 25 26  1  0  0  0  0
 25 44  1  0  0  0  0
 26 27  1  0  0  0  0
 26 42  1  0  0  0  0
 26 43  1  0  0  0  0
 27 28  2  0  0  0  0
 27 29  1  0  0  0  0
 29 30  1  0  0  0  0
 29 41  1  0  0  0  0
 30 31  1  0  0  0  0
 30 39  1  0  0  0  0
 30 40  1  0  0  0  0
 31 32  1  0  0  0  0
 31 33  1  0  0  0  0
 31 38  1  0  0  0  0
 32 33  1  0  0  0  0
 32 36  1  0  0  0  0
 32 37  1  0  0  0  0
 33 34  1  0  0  0  0
 33 35  1  0  0  0  0
 44 45  2  0  0  0  0
 44 46  1  0  0  0  0
 46 47  2  0  0  0  0
 46 52  1  0  0  0  0
 47 48  1  0  0  0  0
 47 55  1  0  0  0  0
 48 49  2  0  0  0  0
 48 54  1  0  0  0  0
 49 50  1  0  0  0  0
 49 51  1  0  0  0  0
 51 52  2  0  0  0  0
 51 53  1  0  0  0  0
M  END
>  <MODEL>
       1

$$$$
