tmp_first_model_2_51.pdb
 OpenBabel08272517383D

 50 52  0  0  0  0  0  0  0  0999 V2000
   -9.4330   -1.1880  -26.2970 C   0  0  0  0  0  0  0  0  0  0  0  0
   -9.0480   -0.3460  -25.3400 C   0  0  0  0  0  0  0  0  0  0  0  0
   -9.6280   -0.4430  -23.9480 C   0  0  0  0  0  0  0  0  0  0  0  0
   -8.7710   -1.2400  -23.0710 N   0  0  0  0  0  0  0  0  0  0  0  0
   -8.0190   -0.5530  -22.1360 C   0  0  0  0  0  0  0  0  0  0  0  0
   -7.9850    0.6660  -22.0780 O   0  0  0  0  0  0  0  0  0  0  0  0
   -7.3130   -1.3670  -21.2750 N   0  0  0  0  0  0  0  0  0  0  0  0
   -6.5750   -0.8050  -20.2180 C   0  0  0  0  0  0  0  0  0  0  0  0
   -6.9150   -1.0520  -18.9150 C   0  0  0  0  0  0  0  0  0  0  0  0
   -6.2560   -0.5500  -17.8430 N   0  0  0  0  0  0  0  0  0  0  0  0
   -5.2190    0.2180  -18.0890 C   0  0  0  0  0  0  0  0  0  0  0  0
   -4.7520    0.5400  -19.3960 C   0  0  0  0  0  0  0  0  0  0  0  0
   -3.6120    1.3530  -19.6250 C   0  0  0  0  0  0  0  0  0  0  0  0
   -3.1830    1.6110  -20.8990 C   0  0  0  0  0  0  0  0  0  0  0  0
   -3.8720    1.0750  -22.0090 C   0  0  0  0  0  0  0  0  0  0  0  0
   -4.9800    0.2970  -21.8170 C   0  0  0  0  0  0  0  0  0  0  0  0
   -5.4510    0.0170  -20.5030 C   0  0  0  0  0  0  0  0  0  0  0  0
   -5.5250   -0.0970  -22.6680 H   0  0  0  0  0  0  0  0  0  0  0  0
   -3.5280    1.2960  -23.0170 H   0  0  0  0  0  0  0  0  0  0  0  0
   -2.3030    2.2240  -21.0610 H   0  0  0  0  0  0  0  0  0  0  0  0
   -3.0930    1.7640  -18.7640 H   0  0  0  0  0  0  0  0  0  0  0  0
   -4.6850    0.6170  -17.2260 H   0  0  0  0  0  0  0  0  0  0  0  0
   -7.7760   -1.6820  -18.6950 H   0  0  0  0  0  0  0  0  0  0  0  0
   -7.6510   -2.3140  -21.1470 H   0  0  0  0  0  0  0  0  0  0  0  0
   -8.4430   -2.5640  -23.4910 C   0  0  0  0  0  0  0  0  0  0  0  0
   -9.4570   -3.4970  -23.6870 C   0  0  0  0  0  0  0  0  0  0  0  0
   -9.1490   -4.7840  -24.1140 C   0  0  0  0  0  0  0  0  0  0  0  0
   -7.8370   -5.1520  -24.3900 C   0  0  0  0  0  0  0  0  0  0  0  0
   -6.8440   -4.1900  -24.2550 C   0  0  0  0  0  0  0  0  0  0  0  0
   -5.1980   -4.6120  -24.6420 Cl  0  0  0  0  0  0  0  0  0  0  0  0
   -7.1300   -2.9020  -23.8240 C   0  0  0  0  0  0  0  0  0  0  0  0
   -6.3370   -2.1630  -23.7680 H   0  0  0  0  0  0  0  0  0  0  0  0
   -7.5950   -6.1540  -24.7350 H   0  0  0  0  0  0  0  0  0  0  0  0
   -9.9470   -5.5080  -24.2520 H   0  0  0  0  0  0  0  0  0  0  0  0
  -10.4900   -3.2160  -23.5020 H   0  0  0  0  0  0  0  0  0  0  0  0
   -9.7390    0.5270  -23.4660 H   0  0  0  0  0  0  0  0  0  0  0  0
  -10.6180   -0.9170  -23.9890 H   0  0  0  0  0  0  0  0  0  0  0  0
   -7.8460    0.5080  -25.6610 C   0  0  0  0  0  0  0  0  0  0  0  0
   -7.1930    0.2680  -26.6670 O   0  0  0  0  0  0  0  0  0  0  0  0
   -7.5170    1.5310  -24.8250 N   0  0  0  0  0  0  0  0  0  0  0  0
   -6.1910    2.1180  -24.9690 C   0  0  0  0  0  0  0  0  0  0  0  0
   -6.0260    3.2020  -23.9160 C   0  0  0  0  0  0  0  0  0  0  0  0
   -6.7260    4.0280  -24.0990 H   0  0  0  0  0  0  0  0  0  0  0  0
   -6.2140    2.7710  -22.9200 H   0  0  0  0  0  0  0  0  0  0  0  0
   -5.0150    3.6180  -23.9160 H   0  0  0  0  0  0  0  0  0  0  0  0
   -6.0750    2.5080  -25.9900 H   0  0  0  0  0  0  0  0  0  0  0  0
   -5.4150    1.3410  -24.8410 H   0  0  0  0  0  0  0  0  0  0  0  0
   -7.9250    1.5990  -23.8900 H   0  0  0  0  0  0  0  0  0  0  0  0
   -8.9460   -1.1980  -27.2700 H   0  0  0  0  0  0  0  0  0  0  0  0
  -10.2500   -1.8830  -26.1170 H   0  0  0  0  0  0  0  0  0  0  0  0
  1  2  2  0  0  0  0
  1 49  1  0  0  0  0
  1 50  1  0  0  0  0
  2  3  1  0  0  0  0
  2 38  1  0  0  0  0
  3  4  1  0  0  0  0
  3 36  1  0  0  0  0
  3 37  1  0  0  0  0
  4  5  1  0  0  0  0
  4 25  1  0  0  0  0
  5  6  2  0  0  0  0
  5  7  1  0  0  0  0
  7  8  1  0  0  0  0
  7 24  1  0  0  0  0
  8  9  2  0  0  0  0
  8 17  1  0  0  0  0
  9 10  1  0  0  0  0
  9 23  1  0  0  0  0
 10 11  2  0  0  0  0
 11 12  1  0  0  0  0
 11 22  1  0  0  0  0
 12 13  2  0  0  0  0
 12 17  1  0  0  0  0
 13 14  1  0  0  0  0
 13 21  1  0  0  0  0
 14 15  2  0  0  0  0
 14 20  1  0  0  0  0
 15 16  1  0  0  0  0
 15 19  1  0  0  0  0
 16 17  2  0  0  0  0
 16 18  1  0  0  0  0
 25 26  2  0  0  0  0
 25 31  1  0  0  0  0
 26 27  1  0  0  0  0
 26 35  1  0  0  0  0
 27 28  2  0  0  0  0
 27 34  1  0  0  0  0
 28 29  1  0  0  0  0
 28 33  1  0  0  0  0
 29 30  1  0  0  0  0
 29 31  2  0  0  0  0
 31 32  1  0  0  0  0
 38 39  2  0  0  0  0
 38 40  1  0  0  0  0
 40 41  1  0  0  0  0
 40 48  1  0  0  0  0
 41 42  1  0  0  0  0
 41 46  1  0  0  0  0
 41 47  1  0  0  0  0
 42 43  1  0  0  0  0
 42 44  1  0  0  0  0
 42 45  1  0  0  0  0
M  END
>  <MODEL>
       1

$$$$
