tmp_first_model_2_5.pdb
 OpenBabel08272517383D

 58 61  0  0  1  0  0  0  0  0999 V2000
   -8.1550   -4.6240  -21.7070 C   0  0  0  0  0  0  0  0  0  0  0  0
   -7.1170   -3.8400  -21.4230 C   0  0  0  0  0  0  0  0  0  0  0  0
   -6.7940   -2.5010  -22.0060 C   0  0  0  0  0  0  0  0  0  0  0  0
   -7.3680   -1.3950  -21.2360 N   0  0  0  0  0  0  0  0  0  0  0  0
   -8.6010   -0.7910  -21.4630 C   0  0  0  0  0  0  0  0  0  0  0  0
   -9.0440    0.0230  -20.6770 O   0  0  0  0  0  0  0  0  0  0  0  0
   -9.3260   -1.0980  -22.7780 C   0  0  2  0  0  0  0  0  0  0  0  0
   -8.7310   -0.2280  -23.9000 C   0  0  0  0  0  0  0  0  0  0  0  0
   -9.0720    1.1740  -23.6640 N   0  0  0  0  0  0  0  0  0  0  0  0
   -8.0260    2.1820  -23.7220 C   0  0  0  0  0  0  0  0  0  0  0  0
   -7.5150    2.3320  -25.1530 C   0  0  0  0  0  0  0  0  0  0  0  0
   -6.4740    1.8170  -25.5270 O   0  0  0  0  0  0  0  0  0  0  0  0
   -8.3350    3.0250  -25.9870 N   0  0  0  0  0  0  0  0  0  0  0  0
   -7.9450    3.2080  -27.3720 C   0  0  0  0  0  0  0  0  0  0  0  0
   -6.9930    3.7480  -27.4230 H   0  0  0  0  0  0  0  0  0  0  0  0
   -7.8180    2.2390  -27.8680 H   0  0  0  0  0  0  0  0  0  0  0  0
   -8.7070    3.7830  -27.9040 H   0  0  0  0  0  0  0  0  0  0  0  0
   -9.2350    3.3520  -25.6650 H   0  0  0  0  0  0  0  0  0  0  0  0
   -7.2000    1.8880  -23.0610 H   0  0  0  0  0  0  0  0  0  0  0  0
   -8.4390    3.1320  -23.3670 H   0  0  0  0  0  0  0  0  0  0  0  0
  -10.3680    1.5660  -23.4550 C   0  0  0  0  0  0  0  0  0  0  0  0
  -10.7500    2.7140  -23.6440 O   0  0  0  0  0  0  0  0  0  0  0  0
  -11.2890    0.4860  -22.9780 C   0  0  0  0  0  0  0  0  0  0  0  0
  -12.6480    0.7820  -22.8570 C   0  0  0  0  0  0  0  0  0  0  0  0
  -13.5460   -0.2020  -22.4850 C   0  0  0  0  0  0  0  0  0  0  0  0
  -13.0620   -1.4730  -22.1740 C   0  0  0  0  0  0  0  0  0  0  0  0
  -14.1790   -2.6960  -21.6360 Cl  0  0  0  0  0  0  0  0  0  0  0  0
  -11.7070   -1.7660  -22.2650 C   0  0  0  0  0  0  0  0  0  0  0  0
  -10.8020   -0.7860  -22.6760 C   0  0  0  0  0  0  0  0  0  0  0  0
  -11.3530   -2.7610  -22.0080 H   0  0  0  0  0  0  0  0  0  0  0  0
  -14.6110    0.0090  -22.4300 H   0  0  0  0  0  0  0  0  0  0  0  0
  -12.9760    1.7950  -23.0650 H   0  0  0  0  0  0  0  0  0  0  0  0
   -9.1250   -0.5680  -24.8680 H   0  0  0  0  0  0  0  0  0  0  0  0
   -7.6390   -0.3150  -23.9520 H   0  0  0  0  0  0  0  0  0  0  0  0
   -9.2060   -2.1580  -23.0160 H   0  0  0  0  0  0  0  0  0  0  0  0
   -6.5960   -0.8500  -20.1790 C   0  0  0  0  0  0  0  0  0  0  0  0
   -6.8940   -1.1300  -18.8700 C   0  0  0  0  0  0  0  0  0  0  0  0
   -6.2080   -0.6270  -17.8150 N   0  0  0  0  0  0  0  0  0  0  0  0
   -5.1960    0.1680  -18.0750 C   0  0  0  0  0  0  0  0  0  0  0  0
   -4.7620    0.5080  -19.3890 C   0  0  0  0  0  0  0  0  0  0  0  0
   -3.6390    1.3430  -19.6270 C   0  0  0  0  0  0  0  0  0  0  0  0
   -3.2450    1.6360  -20.9030 C   0  0  0  0  0  0  0  0  0  0  0  0
   -3.9540    1.1180  -22.0080 C   0  0  0  0  0  0  0  0  0  0  0  0
   -5.0510    0.3160  -21.8070 C   0  0  0  0  0  0  0  0  0  0  0  0
   -5.4750   -0.0190  -20.4860 C   0  0  0  0  0  0  0  0  0  0  0  0
   -5.5890   -0.0630  -22.6730 H   0  0  0  0  0  0  0  0  0  0  0  0
   -3.6330    1.3590  -23.0180 H   0  0  0  0  0  0  0  0  0  0  0  0
   -2.3840    2.2740  -21.0760 H   0  0  0  0  0  0  0  0  0  0  0  0
   -3.1090    1.7450  -18.7690 H   0  0  0  0  0  0  0  0  0  0  0  0
   -4.6490    0.5810  -17.2260 H   0  0  0  0  0  0  0  0  0  0  0  0
   -7.7190   -1.8030  -18.6400 H   0  0  0  0  0  0  0  0  0  0  0  0
   -7.0560   -2.4130  -23.0650 H   0  0  0  0  0  0  0  0  0  0  0  0
   -5.7150   -2.4490  -21.8420 H   0  0  0  0  0  0  0  0  0  0  0  0
   -5.9700   -4.1690  -20.4290 C   0  0  0  0  0  0  0  0  0  0  0  0
   -5.0860   -3.2810  -20.4280 O   0  0  0  0  0  0  0  0  0  0  0  0
   -5.9560   -5.2350  -19.8010 O   0  5  0  0  0  0  0  0  0  0  0  0
   -8.9140   -4.2970  -22.4210 H   0  0  0  0  0  0  0  0  0  0  0  0
   -8.3040   -5.6220  -21.3020 H   0  0  0  0  0  0  0  0  0  0  0  0
  1  2  2  0  0  0  0
  1 57  1  0  0  0  0
  1 58  1  0  0  0  0
  2  3  1  0  0  0  0
  2 54  1  0  0  0  0
  3  4  1  0  0  0  0
  3 52  1  0  0  0  0
  3 53  1  0  0  0  0
  4  5  1  0  0  0  0
  4 36  1  0  0  0  0
  5  6  2  0  0  0  0
  5  7  1  0  0  0  0
  7  8  1  0  0  0  0
  7 29  1  0  0  0  0
  7 35  1  6  0  0  0
  8  9  1  0  0  0  0
  8 33  1  0  0  0  0
  8 34  1  0  0  0  0
  9 10  1  0  0  0  0
  9 21  1  0  0  0  0
 10 11  1  0  0  0  0
 10 19  1  0  0  0  0
 10 20  1  0  0  0  0
 11 12  2  0  0  0  0
 11 13  1  0  0  0  0
 13 14  1  0  0  0  0
 13 18  1  0  0  0  0
 14 15  1  0  0  0  0
 14 16  1  0  0  0  0
 14 17  1  0  0  0  0
 21 22  2  0  0  0  0
 21 23  1  0  0  0  0
 23 24  2  0  0  0  0
 23 29  1  0  0  0  0
 24 25  1  0  0  0  0
 24 32  1  0  0  0  0
 25 26  2  0  0  0  0
 25 31  1  0  0  0  0
 26 27  1  0  0  0  0
 26 28  1  0  0  0  0
 28 29  2  0  0  0  0
 28 30  1  0  0  0  0
 36 37  2  0  0  0  0
 36 45  1  0  0  0  0
 37 38  1  0  0  0  0
 37 51  1  0  0  0  0
 38 39  2  0  0  0  0
 39 40  1  0  0  0  0
 39 50  1  0  0  0  0
 40 41  2  0  0  0  0
 40 45  1  0  0  0  0
 41 42  1  0  0  0  0
 41 49  1  0  0  0  0
 42 43  2  0  0  0  0
 42 48  1  0  0  0  0
 43 44  1  0  0  0  0
 43 47  1  0  0  0  0
 44 45  2  0  0  0  0
 44 46  1  0  0  0  0
 54 55  2  0  0  0  0
 54 56  1  0  0  0  0
M  CHG  1  56  -1
M  END
>  <MODEL>
       1

$$$$
