tmp_first_model_5_13.pdb
 OpenBabel08272519223D

 69 74  0  0  1  0  0  0  0  0999 V2000
   -7.3370    3.2130  -21.6530 C   0  0  0  0  0  0  0  0  0  0  0  0
   -8.3340    2.7510  -22.6050 N   0  0  0  0  0  0  0  0  0  0  0  0
   -7.9440    2.1350  -23.7450 C   0  0  0  0  0  0  0  0  0  0  0  0
   -6.7610    1.9850  -24.0400 O   0  0  0  0  0  0  0  0  0  0  0  0
   -9.0630    1.6220  -24.6480 C   0  0  0  0  0  0  0  0  0  0  0  0
   -9.6800    0.4290  -24.0990 N   0  0  0  0  0  0  0  0  0  0  0  0
   -8.8820   -0.7880  -24.0730 C   0  0  0  0  0  0  0  0  0  0  0  0
   -9.1880   -1.6090  -22.7990 C   0  0  2  0  0  0  0  0  0  0  0  0
   -8.6300   -0.8880  -21.5440 C   0  0  0  0  0  0  0  0  0  0  0  0
   -9.0990    0.0610  -20.9490 O   0  0  0  0  0  0  0  0  0  0  0  0
   -7.4500   -1.5010  -21.2010 N   0  0  0  0  0  0  0  0  0  0  0  0
   -6.5920   -0.9900  -20.2040 C   0  0  0  0  0  0  0  0  0  0  0  0
   -6.8520   -1.2350  -18.8800 C   0  0  0  0  0  0  0  0  0  0  0  0
   -5.9660   -0.9880  -17.8860 N   0  0  0  0  0  0  0  0  0  0  0  0
   -4.8140   -0.4530  -18.2260 C   0  0  0  0  0  0  0  0  0  0  0  0
   -4.4740   -0.0450  -19.5490 C   0  0  0  0  0  0  0  0  0  0  0  0
   -3.3140    0.7300  -19.8330 C   0  0  0  0  0  0  0  0  0  0  0  0
   -3.2090    1.4040  -21.0170 C   0  0  0  0  0  0  0  0  0  0  0  0
   -4.1500    1.1820  -22.0510 C   0  0  0  0  0  0  0  0  0  0  0  0
   -5.2100    0.3320  -21.8470 C   0  0  0  0  0  0  0  0  0  0  0  0
   -5.4230   -0.2580  -20.5700 C   0  0  0  0  0  0  0  0  0  0  0  0
   -5.9270    0.1760  -22.6480 H   0  0  0  0  0  0  0  0  0  0  0  0
   -4.0360    1.6790  -23.0100 H   0  0  0  0  0  0  0  0  0  0  0  0
   -2.3600    2.0560  -21.1980 H   0  0  0  0  0  0  0  0  0  0  0  0
   -2.5960    0.8830  -19.0350 H   0  0  0  0  0  0  0  0  0  0  0  0
   -4.1020   -0.2630  -17.4240 H   0  0  0  0  0  0  0  0  0  0  0  0
   -7.8050   -1.6750  -18.5890 H   0  0  0  0  0  0  0  0  0  0  0  0
   -7.0710   -2.5970  -22.0690 C   0  0  0  0  0  0  0  0  0  0  0  0
   -8.3930   -2.9540  -22.7570 C   0  0  2  0  0  0  0  0  0  0  0  0
   -8.1850   -3.7010  -24.0720 C   0  0  0  0  0  0  0  0  0  0  0  0
   -9.4390   -4.0960  -24.6690 N   0  0  0  0  0  0  0  0  0  0  0  0
   -9.4710   -4.7530  -25.8560 C   0  0  0  0  0  0  0  0  0  0  0  0
  -10.6830   -5.2110  -26.4110 C   0  0  0  0  0  0  0  0  0  0  0  0
  -10.5970   -5.8120  -27.6450 C   0  0  0  0  0  0  0  0  0  0  0  0
   -9.4440   -5.9850  -28.3070 N   0  0  0  0  0  0  0  0  0  0  0  0
   -8.3530   -5.5540  -27.6770 C   0  0  0  0  0  0  0  0  0  0  0  0
   -7.0350   -5.7990  -28.3580 C   0  0  0  0  0  0  0  0  0  0  0  0
   -7.1610   -5.7560  -29.4430 H   0  0  0  0  0  0  0  0  0  0  0  0
   -6.6630   -6.8000  -28.1070 H   0  0  0  0  0  0  0  0  0  0  0  0
   -6.2950   -5.0660  -28.0290 H   0  0  0  0  0  0  0  0  0  0  0  0
   -8.3060   -4.9280  -26.4940 N   0  0  0  0  0  0  0  0  0  0  0  0
  -11.4940   -6.1790  -28.1440 H   0  0  0  0  0  0  0  0  0  0  0  0
  -11.6280   -5.1070  -25.8850 H   0  0  0  0  0  0  0  0  0  0  0  0
  -10.2900   -4.0420  -24.1290 H   0  0  0  0  0  0  0  0  0  0  0  0
   -7.5580   -4.5870  -23.9170 H   0  0  0  0  0  0  0  0  0  0  0  0
   -7.6410   -3.0790  -24.7930 H   0  0  0  0  0  0  0  0  0  0  0  0
   -8.9360   -3.6260  -22.0810 H   0  0  0  0  0  0  0  0  0  0  0  0
   -6.3060   -2.2880  -22.8000 H   0  0  0  0  0  0  0  0  0  0  0  0
   -6.6580   -3.4210  -21.4790 H   0  0  0  0  0  0  0  0  0  0  0  0
  -10.6900   -1.7700  -22.7110 C   0  0  0  0  0  0  0  0  0  0  0  0
  -11.2500   -2.7400  -21.8730 C   0  0  0  0  0  0  0  0  0  0  0  0
  -12.6120   -2.9740  -21.9050 C   0  0  0  0  0  0  0  0  0  0  0  0
  -13.3380   -3.9720  -20.6860 Cl  0  0  0  0  0  0  0  0  0  0  0  0
  -13.4420   -2.3290  -22.8200 C   0  0  0  0  0  0  0  0  0  0  0  0
  -12.9150   -1.2660  -23.5420 C   0  0  0  0  0  0  0  0  0  0  0  0
  -11.5670   -0.9240  -23.4080 C   0  0  0  0  0  0  0  0  0  0  0  0
  -11.0510    0.3660  -23.9870 C   0  0  0  0  0  0  0  0  0  0  0  0
  -11.7920    1.2820  -24.3160 O   0  0  0  0  0  0  0  0  0  0  0  0
  -13.5430   -0.6250  -24.1520 H   0  0  0  0  0  0  0  0  0  0  0  0
  -14.5000   -2.5870  -22.8500 H   0  0  0  0  0  0  0  0  0  0  0  0
  -10.6430   -3.3210  -21.1880 H   0  0  0  0  0  0  0  0  0  0  0  0
   -7.8230   -0.5140  -24.1080 H   0  0  0  0  0  0  0  0  0  0  0  0
   -9.1080   -1.4090  -24.9540 H   0  0  0  0  0  0  0  0  0  0  0  0
   -8.6210    1.4170  -25.6290 H   0  0  0  0  0  0  0  0  0  0  0  0
   -9.8620    2.3570  -24.7660 H   0  0  0  0  0  0  0  0  0  0  0  0
   -9.2870    2.6470  -22.2850 H   0  0  0  0  0  0  0  0  0  0  0  0
   -6.7690    2.3680  -21.2370 H   0  0  0  0  0  0  0  0  0  0  0  0
   -6.6330    3.8880  -22.1480 H   0  0  0  0  0  0  0  0  0  0  0  0
   -7.8330    3.7580  -20.8470 H   0  0  0  0  0  0  0  0  0  0  0  0
  1  2  1  0  0  0  0
  1 67  1  0  0  0  0
  1 68  1  0  0  0  0
  1 69  1  0  0  0  0
  2  3  1  0  0  0  0
  2 66  1  0  0  0  0
  3  4  2  0  0  0  0
  3  5  1  0  0  0  0
  5  6  1  0  0  0  0
  5 64  1  0  0  0  0
  5 65  1  0  0  0  0
  6  7  1  0  0  0  0
  6 57  1  0  0  0  0
  7  8  1  0  0  0  0
  7 62  1  0  0  0  0
  7 63  1  0  0  0  0
  8  9  1  1  0  0  0
  8 29  1  0  0  0  0
  8 50  1  0  0  0  0
  9 10  2  0  0  0  0
  9 11  1  0  0  0  0
 11 12  1  0  0  0  0
 11 28  1  0  0  0  0
 12 13  2  0  0  0  0
 12 21  1  0  0  0  0
 13 14  1  0  0  0  0
 13 27  1  0  0  0  0
 14 15  2  0  0  0  0
 15 16  1  0  0  0  0
 15 26  1  0  0  0  0
 16 17  2  0  0  0  0
 16 21  1  0  0  0  0
 17 18  1  0  0  0  0
 17 25  1  0  0  0  0
 18 19  2  0  0  0  0
 18 24  1  0  0  0  0
 19 20  1  0  0  0  0
 19 23  1  0  0  0  0
 20 21  2  0  0  0  0
 20 22  1  0  0  0  0
 28 29  1  0  0  0  0
 28 48  1  0  0  0  0
 28 49  1  0  0  0  0
 29 30  1  0  0  0  0
 29 47  1  1  0  0  0
 30 31  1  0  0  0  0
 30 45  1  0  0  0  0
 30 46  1  0  0  0  0
 31 32  1  0  0  0  0
 31 44  1  0  0  0  0
 32 33  2  0  0  0  0
 32 41  1  0  0  0  0
 33 34  1  0  0  0  0
 33 43  1  0  0  0  0
 34 35  2  0  0  0  0
 34 42  1  0  0  0  0
 35 36  1  0  0  0  0
 36 37  1  0  0  0  0
 36 41  2  0  0  0  0
 37 38  1  0  0  0  0
 37 39  1  0  0  0  0
 37 40  1  0  0  0  0
 50 51  2  0  0  0  0
 50 56  1  0  0  0  0
 51 52  1  0  0  0  0
 51 61  1  0  0  0  0
 52 53  1  0  0  0  0
 52 54  2  0  0  0  0
 54 55  1  0  0  0  0
 54 60  1  0  0  0  0
 55 56  2  0  0  0  0
 55 59  1  0  0  0  0
 56 57  1  0  0  0  0
 57 58  2  0  0  0  0
M  END
>  <MODEL>
       1

$$$$
