tmp_first_model_15_89.pdb
 OpenBabel08282501153D

 43 45  0  0  0  0  0  0  0  0999 V2000
   -8.7210    1.3570  -26.5380 C   0  0  0  0  0  0  0  0  0  0  0  0
   -7.4240    1.1170  -25.7540 C   0  0  0  0  0  0  0  0  0  0  0  0
   -6.2430    1.4930  -26.6550 C   0  0  0  0  0  0  0  0  0  0  0  0
   -6.2930    2.5450  -26.9590 H   0  0  0  0  0  0  0  0  0  0  0  0
   -6.2310    0.8850  -27.5670 H   0  0  0  0  0  0  0  0  0  0  0  0
   -5.2850    1.3410  -26.1450 H   0  0  0  0  0  0  0  0  0  0  0  0
   -7.2940   -0.3580  -25.3510 C   0  0  0  0  0  0  0  0  0  0  0  0
   -8.2740   -0.7740  -24.2600 C   0  0  0  0  0  0  0  0  0  0  0  0
   -8.1730    0.1180  -23.1110 N   0  0  0  0  0  0  0  0  0  0  0  0
   -8.3850   -0.3130  -21.7970 C   0  0  0  0  0  0  0  0  0  0  0  0
   -9.1950    0.2070  -21.0610 O   0  0  0  0  0  0  0  0  0  0  0  0
   -7.4460   -1.4120  -21.2710 C   0  0  0  0  0  0  0  0  0  0  0  0
   -6.5720   -0.8340  -20.1760 C   0  0  0  0  0  0  0  0  0  0  0  0
   -6.8780   -1.0400  -18.8550 C   0  0  0  0  0  0  0  0  0  0  0  0
   -6.1920   -0.5360  -17.7940 N   0  0  0  0  0  0  0  0  0  0  0  0
   -5.1570    0.2220  -18.0640 C   0  0  0  0  0  0  0  0  0  0  0  0
   -4.7230    0.5350  -19.3810 C   0  0  0  0  0  0  0  0  0  0  0  0
   -3.6020    1.3690  -19.6220 C   0  0  0  0  0  0  0  0  0  0  0  0
   -3.2120    1.6630  -20.9010 C   0  0  0  0  0  0  0  0  0  0  0  0
   -3.9310    1.1290  -21.9940 C   0  0  0  0  0  0  0  0  0  0  0  0
   -5.0190    0.3170  -21.7850 C   0  0  0  0  0  0  0  0  0  0  0  0
   -5.4500   -0.0020  -20.4710 C   0  0  0  0  0  0  0  0  0  0  0  0
   -5.5530   -0.0860  -22.6380 H   0  0  0  0  0  0  0  0  0  0  0  0
   -3.6150    1.3670  -23.0060 H   0  0  0  0  0  0  0  0  0  0  0  0
   -2.3590    2.3110  -21.0840 H   0  0  0  0  0  0  0  0  0  0  0  0
   -3.0660    1.7820  -18.7710 H   0  0  0  0  0  0  0  0  0  0  0  0
   -4.6030    0.6280  -17.2150 H   0  0  0  0  0  0  0  0  0  0  0  0
   -7.7290   -1.6610  -18.5820 H   0  0  0  0  0  0  0  0  0  0  0  0
   -6.8370   -1.8410  -22.0770 H   0  0  0  0  0  0  0  0  0  0  0  0
   -8.0660   -2.2080  -20.8440 H   0  0  0  0  0  0  0  0  0  0  0  0
   -8.3840    1.5280  -23.4120 C   0  0  0  0  0  0  0  0  0  0  0  0
   -7.3930    1.9820  -24.4850 C   0  0  0  0  0  0  0  0  0  0  0  0
   -7.5790    3.0270  -24.7520 H   0  0  0  0  0  0  0  0  0  0  0  0
   -6.3830    1.9550  -24.0540 H   0  0  0  0  0  0  0  0  0  0  0  0
   -9.4180    1.7510  -23.7170 H   0  0  0  0  0  0  0  0  0  0  0  0
   -8.2170    2.0830  -22.4900 H   0  0  0  0  0  0  0  0  0  0  0  0
   -8.0670   -1.7880  -23.9240 H   0  0  0  0  0  0  0  0  0  0  0  0
   -9.2980   -0.7970  -24.6730 H   0  0  0  0  0  0  0  0  0  0  0  0
   -6.2780   -0.5390  -24.9820 H   0  0  0  0  0  0  0  0  0  0  0  0
   -7.4230   -0.9920  -26.2350 H   0  0  0  0  0  0  0  0  0  0  0  0
   -9.6200    1.1190  -25.9640 H   0  0  0  0  0  0  0  0  0  0  0  0
   -8.7450    0.7470  -27.4470 H   0  0  0  0  0  0  0  0  0  0  0  0
   -8.8010    2.4060  -26.8450 H   0  0  0  0  0  0  0  0  0  0  0  0
  1  2  1  0  0  0  0
  1 41  1  0  0  0  0
  1 42  1  0  0  0  0
  1 43  1  0  0  0  0
  2  3  1  0  0  0  0
  2  7  1  0  0  0  0
  2 32  1  0  0  0  0
  3  4  1  0  0  0  0
  3  5  1  0  0  0  0
  3  6  1  0  0  0  0
  7  8  1  0  0  0  0
  7 39  1  0  0  0  0
  7 40  1  0  0  0  0
  8  9  1  0  0  0  0
  8 37  1  0  0  0  0
  8 38  1  0  0  0  0
  9 10  1  0  0  0  0
  9 31  1  0  0  0  0
 10 11  2  0  0  0  0
 10 12  1  0  0  0  0
 12 13  1  0  0  0  0
 12 29  1  0  0  0  0
 12 30  1  0  0  0  0
 13 14  2  0  0  0  0
 13 22  1  0  0  0  0
 14 15  1  0  0  0  0
 14 28  1  0  0  0  0
 15 16  2  0  0  0  0
 16 17  1  0  0  0  0
 16 27  1  0  0  0  0
 17 18  2  0  0  0  0
 17 22  1  0  0  0  0
 18 19  1  0  0  0  0
 18 26  1  0  0  0  0
 19 20  2  0  0  0  0
 19 25  1  0  0  0  0
 20 21  1  0  0  0  0
 20 24  1  0  0  0  0
 21 22  2  0  0  0  0
 21 23  1  0  0  0  0
 31 32  1  0  0  0  0
 31 35  1  0  0  0  0
 31 36  1  0  0  0  0
 32 33  1  0  0  0  0
 32 34  1  0  0  0  0
M  END
>  <MODEL>
       1

$$$$
