tmp_first_model_5_5.pdb
 OpenBabel08272519223D

 58 61  0  0  1  0  0  0  0  0999 V2000
   -5.7010   -4.3310  -20.2470 C   0  0  0  0  0  0  0  0  0  0  0  0
   -6.1490   -3.5190  -21.1950 C   0  0  0  0  0  0  0  0  0  0  0  0
   -7.5010   -2.8680  -21.2530 C   0  0  0  0  0  0  0  0  0  0  0  0
   -7.3550   -1.4480  -20.9190 N   0  0  0  0  0  0  0  0  0  0  0  0
   -8.0150   -0.4000  -21.5530 C   0  0  0  0  0  0  0  0  0  0  0  0
   -8.2260    0.6530  -20.9830 O   0  0  0  0  0  0  0  0  0  0  0  0
   -8.4290   -0.6490  -22.9840 C   0  0  2  0  0  0  0  0  0  0  0  0
   -8.1490    0.6180  -23.8060 C   0  0  0  0  0  0  0  0  0  0  0  0
   -8.6150    0.4000  -25.1590 N   0  0  0  0  0  0  0  0  0  0  0  0
   -7.8830    0.8910  -26.3180 C   0  0  0  0  0  0  0  0  0  0  0  0
   -8.2410    2.3160  -26.7670 C   0  0  0  0  0  0  0  0  0  0  0  0
   -8.8560    2.5570  -27.7890 O   0  0  0  0  0  0  0  0  0  0  0  0
   -7.8040    3.3150  -25.9570 N   0  0  0  0  0  0  0  0  0  0  0  0
   -8.1570    4.6820  -26.2770 C   0  0  0  0  0  0  0  0  0  0  0  0
   -7.6500    5.3610  -25.5900 H   0  0  0  0  0  0  0  0  0  0  0  0
   -9.2380    4.8310  -26.1960 H   0  0  0  0  0  0  0  0  0  0  0  0
   -7.8600    4.9160  -27.3030 H   0  0  0  0  0  0  0  0  0  0  0  0
   -7.2690    3.1220  -25.1270 H   0  0  0  0  0  0  0  0  0  0  0  0
   -8.1060    0.2360  -27.1590 H   0  0  0  0  0  0  0  0  0  0  0  0
   -6.8120    0.8260  -26.0950 H   0  0  0  0  0  0  0  0  0  0  0  0
   -9.8730   -0.0930  -25.3760 C   0  0  0  0  0  0  0  0  0  0  0  0
  -10.4030    0.0010  -26.4680 O   0  0  0  0  0  0  0  0  0  0  0  0
  -10.5550   -0.7740  -24.2350 C   0  0  0  0  0  0  0  0  0  0  0  0
  -11.8810   -1.1600  -24.3870 C   0  0  0  0  0  0  0  0  0  0  0  0
  -12.5470   -1.8480  -23.3960 C   0  0  0  0  0  0  0  0  0  0  0  0
  -11.8610   -2.1740  -22.2340 C   0  0  0  0  0  0  0  0  0  0  0  0
  -12.7180   -3.1040  -21.0390 Cl  0  0  0  0  0  0  0  0  0  0  0  0
  -10.5400   -1.7890  -22.0490 C   0  0  0  0  0  0  0  0  0  0  0  0
   -9.8800   -1.0700  -23.0590 C   0  0  0  0  0  0  0  0  0  0  0  0
  -10.0320   -2.0450  -21.1240 H   0  0  0  0  0  0  0  0  0  0  0  0
  -13.5860   -2.1340  -23.5000 H   0  0  0  0  0  0  0  0  0  0  0  0
  -12.3720   -0.9250  -25.3090 H   0  0  0  0  0  0  0  0  0  0  0  0
   -8.6350    1.4750  -23.3220 H   0  0  0  0  0  0  0  0  0  0  0  0
   -7.0690    0.8080  -23.8380 H   0  0  0  0  0  0  0  0  0  0  0  0
   -7.7950   -1.4240  -23.4360 H   0  0  0  0  0  0  0  0  0  0  0  0
   -6.4000   -1.0870  -19.9580 C   0  0  0  0  0  0  0  0  0  0  0  0
   -6.5630   -1.4100  -18.6340 C   0  0  0  0  0  0  0  0  0  0  0  0
   -5.6210   -1.1870  -17.6920 N   0  0  0  0  0  0  0  0  0  0  0  0
   -4.5220   -0.5720  -18.0710 C   0  0  0  0  0  0  0  0  0  0  0  0
   -4.2760   -0.1310  -19.4030 C   0  0  0  0  0  0  0  0  0  0  0  0
   -3.2180    0.7590  -19.7220 C   0  0  0  0  0  0  0  0  0  0  0  0
   -3.1960    1.4020  -20.9300 C   0  0  0  0  0  0  0  0  0  0  0  0
   -4.0810    1.0080  -21.9650 C   0  0  0  0  0  0  0  0  0  0  0  0
   -5.0040    0.0230  -21.7300 C   0  0  0  0  0  0  0  0  0  0  0  0
   -5.2260   -0.4220  -20.3940 C   0  0  0  0  0  0  0  0  0  0  0  0
   -5.5320   -0.4550  -22.5560 H   0  0  0  0  0  0  0  0  0  0  0  0
   -3.9690    1.4190  -22.9650 H   0  0  0  0  0  0  0  0  0  0  0  0
   -2.4620    2.1740  -21.1320 H   0  0  0  0  0  0  0  0  0  0  0  0
   -2.5360    1.0370  -18.9250 H   0  0  0  0  0  0  0  0  0  0  0  0
   -3.7730   -0.3490  -17.3080 H   0  0  0  0  0  0  0  0  0  0  0  0
   -7.4850   -1.8920  -18.3080 H   0  0  0  0  0  0  0  0  0  0  0  0
   -7.9290   -2.9570  -22.2530 H   0  0  0  0  0  0  0  0  0  0  0  0
   -8.2030   -3.3290  -20.5570 H   0  0  0  0  0  0  0  0  0  0  0  0
   -5.1900   -3.0090  -22.2770 C   0  0  0  0  0  0  0  0  0  0  0  0
   -3.9850   -3.2410  -22.0620 O   0  0  0  0  0  0  0  0  0  0  0  0
   -5.7060   -2.4810  -23.2880 O   0  5  0  0  0  0  0  0  0  0  0  0
   -4.6690   -4.6590  -20.2330 H   0  0  0  0  0  0  0  0  0  0  0  0
   -6.3350   -4.6540  -19.4250 H   0  0  0  0  0  0  0  0  0  0  0  0
  1  2  2  0  0  0  0
  1 57  1  0  0  0  0
  1 58  1  0  0  0  0
  2  3  1  0  0  0  0
  2 54  1  0  0  0  0
  3  4  1  0  0  0  0
  3 52  1  0  0  0  0
  3 53  1  0  0  0  0
  4  5  1  0  0  0  0
  4 36  1  0  0  0  0
  5  6  2  0  0  0  0
  5  7  1  0  0  0  0
  7  8  1  0  0  0  0
  7 29  1  0  0  0  0
  7 35  1  6  0  0  0
  8  9  1  0  0  0  0
  8 33  1  0  0  0  0
  8 34  1  0  0  0  0
  9 10  1  0  0  0  0
  9 21  1  0  0  0  0
 10 11  1  0  0  0  0
 10 19  1  0  0  0  0
 10 20  1  0  0  0  0
 11 12  2  0  0  0  0
 11 13  1  0  0  0  0
 13 14  1  0  0  0  0
 13 18  1  0  0  0  0
 14 15  1  0  0  0  0
 14 16  1  0  0  0  0
 14 17  1  0  0  0  0
 21 22  2  0  0  0  0
 21 23  1  0  0  0  0
 23 24  2  0  0  0  0
 23 29  1  0  0  0  0
 24 25  1  0  0  0  0
 24 32  1  0  0  0  0
 25 26  2  0  0  0  0
 25 31  1  0  0  0  0
 26 27  1  0  0  0  0
 26 28  1  0  0  0  0
 28 29  2  0  0  0  0
 28 30  1  0  0  0  0
 36 37  2  0  0  0  0
 36 45  1  0  0  0  0
 37 38  1  0  0  0  0
 37 51  1  0  0  0  0
 38 39  2  0  0  0  0
 39 40  1  0  0  0  0
 39 50  1  0  0  0  0
 40 41  2  0  0  0  0
 40 45  1  0  0  0  0
 41 42  1  0  0  0  0
 41 49  1  0  0  0  0
 42 43  2  0  0  0  0
 42 48  1  0  0  0  0
 43 44  1  0  0  0  0
 43 47  1  0  0  0  0
 44 45  2  0  0  0  0
 44 46  1  0  0  0  0
 54 55  2  0  0  0  0
 54 56  1  0  0  0  0
M  CHG  1  56  -1
M  END
>  <MODEL>
       1

$$$$
