tmp_first_model_10_30.pdb
 OpenBabel08272522163D

 58 63  0  0  1  0  0  0  0  0999 V2000
   -8.2790   -4.1310  -23.5130 C   0  0  0  0  0  0  0  0  0  0  0  0
   -8.5140   -2.9900  -22.5360 C   0  0  1  0  0  0  0  0  0  0  0  0
   -7.3870   -2.8080  -21.5080 C   0  0  0  0  0  0  0  0  0  0  0  0
   -7.4380   -1.3900  -21.1960 N   0  0  0  0  0  0  0  0  0  0  0  0
   -6.6530   -0.7930  -20.1800 C   0  0  0  0  0  0  0  0  0  0  0  0
   -6.9140   -1.0930  -18.8660 C   0  0  0  0  0  0  0  0  0  0  0  0
   -6.2220   -0.6050  -17.8090 N   0  0  0  0  0  0  0  0  0  0  0  0
   -5.2120    0.1920  -18.0710 C   0  0  0  0  0  0  0  0  0  0  0  0
   -4.8210    0.5720  -19.3870 C   0  0  0  0  0  0  0  0  0  0  0  0
   -3.7050    1.4220  -19.6070 C   0  0  0  0  0  0  0  0  0  0  0  0
   -3.4130    1.8690  -20.8650 C   0  0  0  0  0  0  0  0  0  0  0  0
   -4.2020    1.4540  -21.9620 C   0  0  0  0  0  0  0  0  0  0  0  0
   -5.2020    0.5310  -21.7930 C   0  0  0  0  0  0  0  0  0  0  0  0
   -5.5730    0.0970  -20.4850 C   0  0  0  0  0  0  0  0  0  0  0  0
   -5.7270    0.1540  -22.6670 H   0  0  0  0  0  0  0  0  0  0  0  0
   -3.9880    1.8510  -22.9500 H   0  0  0  0  0  0  0  0  0  0  0  0
   -2.5920    2.5620  -21.0250 H   0  0  0  0  0  0  0  0  0  0  0  0
   -3.1060    1.7190  -18.7510 H   0  0  0  0  0  0  0  0  0  0  0  0
   -4.6380    0.5690  -17.2230 H   0  0  0  0  0  0  0  0  0  0  0  0
   -7.7510   -1.7470  -18.6260 H   0  0  0  0  0  0  0  0  0  0  0  0
   -8.1570   -0.6440  -22.1050 C   0  0  0  0  0  0  0  0  0  0  0  0
   -8.2730    0.5630  -22.0580 O   0  0  0  0  0  0  0  0  0  0  0  0
   -8.7300   -1.5760  -23.1870 C   0  0  1  0  0  0  0  0  0  0  0  0
   -7.9300   -1.2870  -24.4820 C   0  0  0  0  0  0  0  0  0  0  0  0
   -8.5600   -1.8070  -25.6920 N   0  0  0  0  0  0  0  0  0  0  0  0
   -7.7220   -2.1500  -26.8280 C   0  0  0  0  0  0  0  0  0  0  0  0
   -7.3190   -3.5970  -26.7830 C   0  0  0  0  0  0  0  0  0  0  0  0
   -8.1770   -4.5950  -27.1370 C   0  0  0  0  0  0  0  0  0  0  0  0
   -7.7600   -5.9750  -27.0970 C   0  0  0  0  0  0  0  0  0  0  0  0
   -8.4260   -6.9550  -27.3660 O   0  0  0  0  0  0  0  0  0  0  0  0
   -6.4150   -6.1150  -26.7000 N   0  0  0  0  0  0  0  0  0  0  0  0
   -5.6360   -5.0550  -26.3470 C   0  0  0  0  0  0  0  0  0  0  0  0
   -6.0350   -3.8290  -26.3400 N   0  0  0  0  0  0  0  0  0  0  0  0
   -4.6060   -5.2820  -26.0710 H   0  0  0  0  0  0  0  0  0  0  0  0
   -6.0600   -7.0620  -26.6630 H   0  0  0  0  0  0  0  0  0  0  0  0
   -9.1850   -4.3930  -27.4730 H   0  0  0  0  0  0  0  0  0  0  0  0
   -8.3010   -1.9300  -27.7300 H   0  0  0  0  0  0  0  0  0  0  0  0
   -6.8220   -1.5320  -26.8050 H   0  0  0  0  0  0  0  0  0  0  0  0
   -9.9100   -1.8270  -25.9030 C   0  0  0  0  0  0  0  0  0  0  0  0
  -10.4060   -2.1440  -26.9760 O   0  0  0  0  0  0  0  0  0  0  0  0
  -10.7490   -1.4470  -24.7410 C   0  0  0  0  0  0  0  0  0  0  0  0
  -12.1140   -1.2830  -24.9680 C   0  0  0  0  0  0  0  0  0  0  0  0
  -12.9610   -0.9600  -23.9310 C   0  0  0  0  0  0  0  0  0  0  0  0
  -12.4010   -0.8410  -22.6660 C   0  0  0  0  0  0  0  0  0  0  0  0
  -13.2320   -0.5850  -21.6530 F   0  0  0  0  0  0  0  0  0  0  0  0
  -11.0510   -1.0040  -22.4110 C   0  0  0  0  0  0  0  0  0  0  0  0
  -10.1930   -1.3020  -23.4680 C   0  0  0  0  0  0  0  0  0  0  0  0
  -10.6510   -0.9150  -21.4090 H   0  0  0  0  0  0  0  0  0  0  0  0
  -14.0280   -0.8110  -24.0720 H   0  0  0  0  0  0  0  0  0  0  0  0
  -12.4760   -1.4290  -25.9790 H   0  0  0  0  0  0  0  0  0  0  0  0
   -7.8160   -0.1970  -24.5650 H   0  0  0  0  0  0  0  0  0  0  0  0
   -6.9200   -1.7090  -24.4030 H   0  0  0  0  0  0  0  0  0  0  0  0
   -7.5520   -3.4050  -20.6060 H   0  0  0  0  0  0  0  0  0  0  0  0
   -6.4030   -3.0860  -21.9150 H   0  0  0  0  0  0  0  0  0  0  0  0
   -9.4330   -3.1970  -21.9650 H   0  0  0  0  0  0  0  0  0  0  0  0
   -8.2320   -5.0870  -22.9840 H   0  0  0  0  0  0  0  0  0  0  0  0
   -9.0930   -4.1730  -24.2460 H   0  0  0  0  0  0  0  0  0  0  0  0
   -7.3380   -3.9890  -24.0530 H   0  0  0  0  0  0  0  0  0  0  0  0
  1  2  1  0  0  0  0
  1 56  1  0  0  0  0
  1 57  1  0  0  0  0
  1 58  1  0  0  0  0
  2  3  1  0  0  0  0
  2 23  1  0  0  0  0
  2 55  1  1  0  0  0
  3  4  1  0  0  0  0
  3 53  1  0  0  0  0
  3 54  1  0  0  0  0
  4  5  1  0  0  0  0
  4 21  1  0  0  0  0
  5  6  2  0  0  0  0
  5 14  1  0  0  0  0
  6  7  1  0  0  0  0
  6 20  1  0  0  0  0
  7  8  2  0  0  0  0
  8  9  1  0  0  0  0
  8 19  1  0  0  0  0
  9 10  2  0  0  0  0
  9 14  1  0  0  0  0
 10 11  1  0  0  0  0
 10 18  1  0  0  0  0
 11 12  2  0  0  0  0
 11 17  1  0  0  0  0
 12 13  1  0  0  0  0
 12 16  1  0  0  0  0
 13 14  2  0  0  0  0
 13 15  1  0  0  0  0
 21 22  2  0  0  0  0
 23 21  1  1  0  0  0
 23 24  1  0  0  0  0
 23 47  1  0  0  0  0
 24 25  1  0  0  0  0
 24 51  1  0  0  0  0
 24 52  1  0  0  0  0
 25 26  1  0  0  0  0
 25 39  1  0  0  0  0
 26 27  1  0  0  0  0
 26 37  1  0  0  0  0
 26 38  1  0  0  0  0
 27 28  2  0  0  0  0
 27 33  1  0  0  0  0
 28 29  1  0  0  0  0
 28 36  1  0  0  0  0
 29 30  2  0  0  0  0
 29 31  1  0  0  0  0
 31 32  1  0  0  0  0
 31 35  1  0  0  0  0
 32 33  2  0  0  0  0
 32 34  1  0  0  0  0
 39 40  2  0  0  0  0
 39 41  1  0  0  0  0
 41 42  2  0  0  0  0
 41 47  1  0  0  0  0
 42 43  1  0  0  0  0
 42 50  1  0  0  0  0
 43 44  2  0  0  0  0
 43 49  1  0  0  0  0
 44 45  1  0  0  0  0
 44 46  1  0  0  0  0
 46 47  2  0  0  0  0
 46 48  1  0  0  0  0
M  END
>  <MODEL>
       1

$$$$
