tmp_first_model_15_92.pdb
 OpenBabel08282501153D

 60 65  0  0  1  0  0  0  0  0999 V2000
  -12.3750   -2.0520  -22.6440 C   0  0  0  0  0  0  0  0  0  0  0  0
  -11.3610   -2.1700  -21.6770 O   0  0  0  0  0  0  0  0  0  0  0  0
  -10.2350   -2.9090  -22.0970 C   0  0  0  0  0  0  0  0  0  0  0  0
   -9.1420   -1.9810  -22.6650 C   0  0  1  0  0  0  0  0  0  0  0  0
   -8.6830   -0.9880  -21.5770 C   0  0  0  0  0  0  0  0  0  0  0  0
   -7.3690   -1.4490  -21.1960 N   0  0  0  0  0  0  0  0  0  0  0  0
   -6.5890   -0.8430  -20.1840 C   0  0  0  0  0  0  0  0  0  0  0  0
   -6.9220   -1.0450  -18.8700 C   0  0  0  0  0  0  0  0  0  0  0  0
   -6.2400   -0.5390  -17.8160 N   0  0  0  0  0  0  0  0  0  0  0  0
   -5.1960    0.2110  -18.0860 C   0  0  0  0  0  0  0  0  0  0  0  0
   -4.7520    0.5160  -19.4050 C   0  0  0  0  0  0  0  0  0  0  0  0
   -3.6250    1.3500  -19.6300 C   0  0  0  0  0  0  0  0  0  0  0  0
   -3.2340    1.6580  -20.9030 C   0  0  0  0  0  0  0  0  0  0  0  0
   -3.9540    1.1500  -22.0100 C   0  0  0  0  0  0  0  0  0  0  0  0
   -5.0470    0.3400  -21.8240 C   0  0  0  0  0  0  0  0  0  0  0  0
   -5.4670   -0.0110  -20.5040 C   0  0  0  0  0  0  0  0  0  0  0  0
   -5.5940   -0.0360  -22.6920 H   0  0  0  0  0  0  0  0  0  0  0  0
   -3.6380    1.4120  -23.0150 H   0  0  0  0  0  0  0  0  0  0  0  0
   -2.3770    2.3040  -21.0740 H   0  0  0  0  0  0  0  0  0  0  0  0
   -3.1000    1.7500  -18.7660 H   0  0  0  0  0  0  0  0  0  0  0  0
   -4.6420    0.6210  -17.2410 H   0  0  0  0  0  0  0  0  0  0  0  0
   -7.7780   -1.6740  -18.6280 H   0  0  0  0  0  0  0  0  0  0  0  0
   -6.8440   -2.4160  -22.0140 C   0  0  0  0  0  0  0  0  0  0  0  0
   -5.7490   -2.9140  -21.8520 O   0  0  0  0  0  0  0  0  0  0  0  0
   -7.8430   -2.6930  -23.1550 C   0  0  1  0  0  0  0  0  0  0  0  0
   -8.0190   -4.2150  -23.3580 C   0  0  0  0  0  0  0  0  0  0  0  0
   -6.8220   -4.8400  -23.8930 N   0  0  0  0  0  0  0  0  0  0  0  0
   -6.3660   -6.1270  -23.3590 C   0  0  0  0  0  0  0  0  0  0  0  0
   -5.1940   -6.0650  -22.4330 C   0  0  0  0  0  0  0  0  0  0  0  0
   -3.7710   -5.9350  -22.7040 C   0  0  0  0  0  0  0  0  0  0  0  0
   -3.8060   -5.9870  -22.7510 N   0  0  0  0  0  0  0  0  0  0  0  0
   -4.8790   -5.6530  -20.0760 N   0  0  0  0  0  0  0  0  0  0  0  0
   -5.5830   -5.8810  -21.1260 C   0  0  0  0  0  0  0  0  0  0  0  0
   -6.6750   -5.9300  -20.9820 H   0  0  0  0  0  0  0  0  0  0  0  0
   -5.5050   -5.6130  -19.2840 H   0  0  0  0  0  0  0  0  0  0  0  0
   -3.7070   -5.9910  -23.8740 H   0  0  0  0  0  0  0  0  0  0  0  0
   -7.1850   -6.5640  -22.7860 H   0  0  0  0  0  0  0  0  0  0  0  0
   -6.1460   -6.7690  -24.2210 H   0  0  0  0  0  0  0  0  0  0  0  0
   -6.1820   -4.3190  -24.9830 C   0  0  0  0  0  0  0  0  0  0  0  0
   -5.3610   -4.9610  -25.6330 O   0  0  0  0  0  0  0  0  0  0  0  0
   -6.5180   -2.8900  -25.3170 C   0  0  0  0  0  0  0  0  0  0  0  0
   -5.9850   -2.3470  -26.4870 C   0  0  0  0  0  0  0  0  0  0  0  0
   -6.1780   -1.0150  -26.8000 C   0  0  0  0  0  0  0  0  0  0  0  0
   -6.9100   -0.2200  -25.9210 C   0  0  0  0  0  0  0  0  0  0  0  0
   -7.1290    1.4720  -26.2870 Cl  0  0  0  0  0  0  0  0  0  0  0  0
   -7.4580   -0.7460  -24.7620 C   0  0  0  0  0  0  0  0  0  0  0  0
   -7.2930   -2.1040  -24.4540 C   0  0  0  0  0  0  0  0  0  0  0  0
   -8.0080   -0.0710  -24.1150 H   0  0  0  0  0  0  0  0  0  0  0  0
   -5.7590   -0.5830  -27.7000 H   0  0  0  0  0  0  0  0  0  0  0  0
   -5.4000   -2.9980  -27.1300 H   0  0  0  0  0  0  0  0  0  0  0  0
   -8.2570   -4.6870  -22.4030 H   0  0  0  0  0  0  0  0  0  0  0  0
   -8.8540   -4.3770  -24.0580 H   0  0  0  0  0  0  0  0  0  0  0  0
   -8.6510    0.0490  -21.9330 H   0  0  0  0  0  0  0  0  0  0  0  0
   -9.3600   -1.0080  -20.7290 H   0  0  0  0  0  0  0  0  0  0  0  0
   -9.6110   -1.4570  -23.5050 H   0  0  0  0  0  0  0  0  0  0  0  0
  -10.5400   -3.6690  -22.8310 H   0  0  0  0  0  0  0  0  0  0  0  0
   -9.8560   -3.4310  -21.2110 H   0  0  0  0  0  0  0  0  0  0  0  0
  -12.8400   -3.0260  -22.8670 H   0  0  0  0  0  0  0  0  0  0  0  0
  -13.1360   -1.3860  -22.2270 H   0  0  0  0  0  0  0  0  0  0  0  0
  -12.0080   -1.6190  -23.5880 H   0  0  0  0  0  0  0  0  0  0  0  0
  1  2  1  0  0  0  0
  1 58  1  0  0  0  0
  1 59  1  0  0  0  0
  1 60  1  0  0  0  0
  2  3  1  0  0  0  0
  3  4  1  0  0  0  0
  3 56  1  0  0  0  0
  3 57  1  0  0  0  0
  4  5  1  0  0  0  0
  4 25  1  0  0  0  0
  4 55  1  6  0  0  0
  5  6  1  0  0  0  0
  5 53  1  0  0  0  0
  5 54  1  0  0  0  0
  6  7  1  0  0  0  0
  6 23  1  0  0  0  0
  7  8  2  0  0  0  0
  7 16  1  0  0  0  0
  8  9  1  0  0  0  0
  8 22  1  0  0  0  0
  9 10  2  0  0  0  0
 10 11  1  0  0  0  0
 10 21  1  0  0  0  0
 11 12  2  0  0  0  0
 11 16  1  0  0  0  0
 12 13  1  0  0  0  0
 12 20  1  0  0  0  0
 13 14  2  0  0  0  0
 13 19  1  0  0  0  0
 14 15  1  0  0  0  0
 14 18  1  0  0  0  0
 15 16  2  0  0  0  0
 15 17  1  0  0  0  0
 23 24  2  0  0  0  0
 25 23  1  1  0  0  0
 25 26  1  0  0  0  0
 25 47  1  0  0  0  0
 26 27  1  0  0  0  0
 26 51  1  0  0  0  0
 26 52  1  0  0  0  0
 27 28  1  0  0  0  0
 27 39  1  0  0  0  0
 28 29  1  0  0  0  0
 28 37  1  0  0  0  0
 28 38  1  0  0  0  0
 29 30  1  0  0  0  0
 29 33  2  0  0  0  0
 30 31  2  0  0  0  0
 30 36  1  0  0  0  0
 31 32  1  0  0  0  0
 32 33  1  0  0  0  0
 32 35  1  0  0  0  0
 33 34  1  0  0  0  0
 39 40  2  0  0  0  0
 39 41  1  0  0  0  0
 41 42  2  0  0  0  0
 41 47  1  0  0  0  0
 42 43  1  0  0  0  0
 42 50  1  0  0  0  0
 43 44  2  0  0  0  0
 43 49  1  0  0  0  0
 44 45  1  0  0  0  0
 44 46  1  0  0  0  0
 46 47  2  0  0  0  0
 46 48  1  0  0  0  0
M  END
>  <MODEL>
       1

$$$$
