tmp_first_model_15_54.pdb
 OpenBabel08282501153D

 40 43  0  0  0  0  0  0  0  0999 V2000
   -7.9550   -3.5570  -24.0440 C   0  0  0  0  0  0  0  0  0  0  0  0
   -7.9920   -2.7050  -22.8690 N   0  0  0  0  0  0  0  0  0  0  0  0
   -9.0590   -2.0260  -22.3370 C   0  0  0  0  0  0  0  0  0  0  0  0
  -10.4370   -2.0560  -22.9160 C   0  0  0  0  0  0  0  0  0  0  0  0
  -10.5450   -1.1580  -24.1310 C   0  0  0  0  0  0  0  0  0  0  0  0
  -10.5380    0.2260  -23.9640 C   0  0  0  0  0  0  0  0  0  0  0  0
  -10.6110    1.0680  -25.0680 C   0  0  0  0  0  0  0  0  0  0  0  0
  -10.6780    0.5340  -26.3520 C   0  0  0  0  0  0  0  0  0  0  0  0
  -10.6700   -0.8450  -26.5270 C   0  0  0  0  0  0  0  0  0  0  0  0
  -10.6010   -1.6850  -25.4190 C   0  0  0  0  0  0  0  0  0  0  0  0
  -10.5890   -2.7640  -25.5570 H   0  0  0  0  0  0  0  0  0  0  0  0
  -10.7200   -1.2710  -27.5240 H   0  0  0  0  0  0  0  0  0  0  0  0
  -10.7310    1.1910  -27.2140 H   0  0  0  0  0  0  0  0  0  0  0  0
  -10.6140    2.1450  -24.9270 H   0  0  0  0  0  0  0  0  0  0  0  0
  -10.4780    0.6440  -22.9620 H   0  0  0  0  0  0  0  0  0  0  0  0
  -10.7190   -3.0850  -23.1710 H   0  0  0  0  0  0  0  0  0  0  0  0
  -11.1210   -1.7260  -22.1280 H   0  0  0  0  0  0  0  0  0  0  0  0
   -8.7110   -1.2850  -21.3270 N   0  0  0  0  0  0  0  0  0  0  0  0
   -7.3540   -1.4540  -21.2110 N   0  0  0  0  0  0  0  0  0  0  0  0
   -6.5840   -0.8300  -20.1830 C   0  0  0  0  0  0  0  0  0  0  0  0
   -6.8960   -1.0490  -18.8640 C   0  0  0  0  0  0  0  0  0  0  0  0
   -6.1970   -0.5450  -17.8160 N   0  0  0  0  0  0  0  0  0  0  0  0
   -5.1590    0.2170  -18.0720 C   0  0  0  0  0  0  0  0  0  0  0  0
   -4.7240    0.5330  -19.3890 C   0  0  0  0  0  0  0  0  0  0  0  0
   -3.5990    1.3720  -19.6250 C   0  0  0  0  0  0  0  0  0  0  0  0
   -3.2260    1.6780  -20.9050 C   0  0  0  0  0  0  0  0  0  0  0  0
   -3.9600    1.1670  -21.9990 C   0  0  0  0  0  0  0  0  0  0  0  0
   -5.0500    0.3610  -21.7950 C   0  0  0  0  0  0  0  0  0  0  0  0
   -5.4550    0.0070  -20.4790 C   0  0  0  0  0  0  0  0  0  0  0  0
   -5.6150   -0.0170  -22.6390 H   0  0  0  0  0  0  0  0  0  0  0  0
   -3.6660    1.4230  -23.0120 H   0  0  0  0  0  0  0  0  0  0  0  0
   -2.3730    2.3230  -21.0960 H   0  0  0  0  0  0  0  0  0  0  0  0
   -3.0540    1.7790  -18.7750 H   0  0  0  0  0  0  0  0  0  0  0  0
   -4.6050    0.6250  -17.2210 H   0  0  0  0  0  0  0  0  0  0  0  0
   -7.7410   -1.6750  -18.5930 H   0  0  0  0  0  0  0  0  0  0  0  0
   -6.8600   -2.3630  -22.1370 C   0  0  0  0  0  0  0  0  0  0  0  0
   -5.7200   -2.7540  -22.2840 O   0  0  0  0  0  0  0  0  0  0  0  0
   -8.8220   -4.2210  -24.0880 H   0  0  0  0  0  0  0  0  0  0  0  0
   -7.0650   -4.1810  -24.0000 H   0  0  0  0  0  0  0  0  0  0  0  0
   -7.9100   -2.9790  -24.9730 H   0  0  0  0  0  0  0  0  0  0  0  0
  1  2  1  0  0  0  0
  1 38  1  0  0  0  0
  1 39  1  0  0  0  0
  1 40  1  0  0  0  0
  2  3  1  0  0  0  0
  2 36  1  0  0  0  0
  3  4  1  0  0  0  0
  3 18  2  0  0  0  0
  4  5  1  0  0  0  0
  4 16  1  0  0  0  0
  4 17  1  0  0  0  0
  5  6  2  0  0  0  0
  5 10  1  0  0  0  0
  6  7  1  0  0  0  0
  6 15  1  0  0  0  0
  7  8  2  0  0  0  0
  7 14  1  0  0  0  0
  8  9  1  0  0  0  0
  8 13  1  0  0  0  0
  9 10  2  0  0  0  0
  9 12  1  0  0  0  0
 10 11  1  0  0  0  0
 18 19  1  0  0  0  0
 19 20  1  0  0  0  0
 19 36  1  0  0  0  0
 20 21  2  0  0  0  0
 20 29  1  0  0  0  0
 21 22  1  0  0  0  0
 21 35  1  0  0  0  0
 22 23  2  0  0  0  0
 23 24  1  0  0  0  0
 23 34  1  0  0  0  0
 24 25  2  0  0  0  0
 24 29  1  0  0  0  0
 25 26  1  0  0  0  0
 25 33  1  0  0  0  0
 26 27  2  0  0  0  0
 26 32  1  0  0  0  0
 27 28  1  0  0  0  0
 27 31  1  0  0  0  0
 28 29  2  0  0  0  0
 28 30  1  0  0  0  0
 36 37  2  0  0  0  0
M  END
>  <MODEL>
       1

$$$$
