tmp_first_model_8_4.pdb
 OpenBabel08272521063D

 59 64  0  0  1  0  0  0  0  0999 V2000
   -8.2670   -4.1090  -23.5380 C   0  0  0  0  0  0  0  0  0  0  0  0
   -8.5200   -2.9650  -22.5580 C   0  0  1  0  0  0  0  0  0  0  0  0
   -7.3910   -2.7920  -21.5290 C   0  0  0  0  0  0  0  0  0  0  0  0
   -7.4210   -1.3770  -21.2070 N   0  0  0  0  0  0  0  0  0  0  0  0
   -6.6160   -0.8020  -20.1860 C   0  0  0  0  0  0  0  0  0  0  0  0
   -6.8980   -1.0580  -18.8690 C   0  0  0  0  0  0  0  0  0  0  0  0
   -6.1980   -0.5650  -17.8180 N   0  0  0  0  0  0  0  0  0  0  0  0
   -5.1700    0.2050  -18.0820 C   0  0  0  0  0  0  0  0  0  0  0  0
   -4.7380    0.5290  -19.3970 C   0  0  0  0  0  0  0  0  0  0  0  0
   -3.6050    1.3570  -19.6280 C   0  0  0  0  0  0  0  0  0  0  0  0
   -3.2090    1.6460  -20.9040 C   0  0  0  0  0  0  0  0  0  0  0  0
   -3.9310    1.1190  -22.0000 C   0  0  0  0  0  0  0  0  0  0  0  0
   -5.0090    0.2980  -21.8020 C   0  0  0  0  0  0  0  0  0  0  0  0
   -5.4690    0.0050  -20.4900 C   0  0  0  0  0  0  0  0  0  0  0  0
   -5.5160   -0.1380  -22.6560 H   0  0  0  0  0  0  0  0  0  0  0  0
   -3.5930    1.3270  -23.0100 H   0  0  0  0  0  0  0  0  0  0  0  0
   -2.3340    2.2620  -21.0900 H   0  0  0  0  0  0  0  0  0  0  0  0
   -3.0720    1.7610  -18.7710 H   0  0  0  0  0  0  0  0  0  0  0  0
   -4.6250    0.6140  -17.2310 H   0  0  0  0  0  0  0  0  0  0  0  0
   -7.7460   -1.6880  -18.6070 H   0  0  0  0  0  0  0  0  0  0  0  0
   -8.1430   -0.6180  -22.1030 C   0  0  0  0  0  0  0  0  0  0  0  0
   -8.2430    0.5920  -22.0350 O   0  0  0  0  0  0  0  0  0  0  0  0
   -8.7450   -1.5420  -23.1860 C   0  0  1  0  0  0  0  0  0  0  0  0
   -7.9770   -1.2640  -24.5010 C   0  0  0  0  0  0  0  0  0  0  0  0
   -8.6110   -1.8220  -25.6950 N   0  0  0  0  0  0  0  0  0  0  0  0
   -7.7380   -2.0650  -26.8390 C   0  0  0  0  0  0  0  0  0  0  0  0
   -6.9420   -3.3380  -26.7140 C   0  0  0  0  0  0  0  0  0  0  0  0
   -5.7070   -3.3980  -26.2580 N   0  0  0  0  0  0  0  0  0  0  0  0
   -5.3750   -4.7310  -26.2690 C   0  0  0  0  0  0  0  0  0  0  0  0
   -6.4300   -5.4770  -26.7170 C   0  0  0  0  0  0  0  0  0  0  0  0
   -7.4330   -4.5740  -27.0170 N   0  0  0  0  0  0  0  0  0  0  0  0
   -8.7730   -4.8940  -27.4760 C   0  0  0  0  0  0  0  0  0  0  0  0
   -9.0380   -4.2890  -28.3500 H   0  0  0  0  0  0  0  0  0  0  0  0
   -9.5190   -4.7210  -26.6910 H   0  0  0  0  0  0  0  0  0  0  0  0
   -8.7850   -5.9510  -27.7520 H   0  0  0  0  0  0  0  0  0  0  0  0
   -6.5850   -6.5400  -26.8250 H   0  0  0  0  0  0  0  0  0  0  0  0
   -4.3970   -5.0590  -25.9390 H   0  0  0  0  0  0  0  0  0  0  0  0
   -8.3700   -2.0530  -27.7300 H   0  0  0  0  0  0  0  0  0  0  0  0
   -7.0150   -1.2450  -26.9100 H   0  0  0  0  0  0  0  0  0  0  0  0
   -9.9670   -1.8060  -25.8840 C   0  0  0  0  0  0  0  0  0  0  0  0
  -10.4960   -2.1130  -26.9480 O   0  0  0  0  0  0  0  0  0  0  0  0
  -10.7890   -1.4190  -24.6990 C   0  0  0  0  0  0  0  0  0  0  0  0
  -12.1630   -1.2570  -24.8860 C   0  0  0  0  0  0  0  0  0  0  0  0
  -12.9740   -0.9250  -23.8220 C   0  0  0  0  0  0  0  0  0  0  0  0
  -12.4050   -0.7790  -22.5670 C   0  0  0  0  0  0  0  0  0  0  0  0
  -13.2510   -0.4570  -21.5780 F   0  0  0  0  0  0  0  0  0  0  0  0
  -11.0520   -0.9670  -22.3430 C   0  0  0  0  0  0  0  0  0  0  0  0
  -10.2200   -1.2670  -23.4290 C   0  0  0  0  0  0  0  0  0  0  0  0
  -10.6200   -0.8820  -21.3530 H   0  0  0  0  0  0  0  0  0  0  0  0
  -14.0430   -0.7720  -23.9050 H   0  0  0  0  0  0  0  0  0  0  0  0
  -12.5680   -1.4060  -25.8800 H   0  0  0  0  0  0  0  0  0  0  0  0
   -6.9710   -1.6980  -24.4570 H   0  0  0  0  0  0  0  0  0  0  0  0
   -7.8830   -0.1690  -24.5840 H   0  0  0  0  0  0  0  0  0  0  0  0
   -6.4160   -3.0900  -21.9460 H   0  0  0  0  0  0  0  0  0  0  0  0
   -7.5520   -3.3850  -20.6250 H   0  0  0  0  0  0  0  0  0  0  0  0
   -9.4460   -3.1720  -22.0010 H   0  0  0  0  0  0  0  0  0  0  0  0
   -7.3130   -3.9740  -24.0590 H   0  0  0  0  0  0  0  0  0  0  0  0
   -8.2310   -5.0690  -23.0130 H   0  0  0  0  0  0  0  0  0  0  0  0
   -9.0620   -4.1600  -24.2880 H   0  0  0  0  0  0  0  0  0  0  0  0
  1  2  1  0  0  0  0
  1 57  1  0  0  0  0
  1 58  1  0  0  0  0
  1 59  1  0  0  0  0
  2  3  1  0  0  0  0
  2 23  1  0  0  0  0
  2 56  1  1  0  0  0
  3  4  1  0  0  0  0
  3 54  1  0  0  0  0
  3 55  1  0  0  0  0
  4  5  1  0  0  0  0
  4 21  1  0  0  0  0
  5  6  2  0  0  0  0
  5 14  1  0  0  0  0
  6  7  1  0  0  0  0
  6 20  1  0  0  0  0
  7  8  2  0  0  0  0
  8  9  1  0  0  0  0
  8 19  1  0  0  0  0
  9 10  2  0  0  0  0
  9 14  1  0  0  0  0
 10 11  1  0  0  0  0
 10 18  1  0  0  0  0
 11 12  2  0  0  0  0
 11 17  1  0  0  0  0
 12 13  1  0  0  0  0
 12 16  1  0  0  0  0
 13 14  2  0  0  0  0
 13 15  1  0  0  0  0
 21 22  2  0  0  0  0
 23 21  1  1  0  0  0
 23 24  1  0  0  0  0
 23 48  1  0  0  0  0
 24 25  1  0  0  0  0
 24 52  1  0  0  0  0
 24 53  1  0  0  0  0
 25 26  1  0  0  0  0
 25 40  1  0  0  0  0
 26 27  1  0  0  0  0
 26 38  1  0  0  0  0
 26 39  1  0  0  0  0
 27 28  2  0  0  0  0
 27 31  1  0  0  0  0
 28 29  1  0  0  0  0
 29 30  2  0  0  0  0
 29 37  1  0  0  0  0
 30 31  1  0  0  0  0
 30 36  1  0  0  0  0
 31 32  1  0  0  0  0
 32 33  1  0  0  0  0
 32 34  1  0  0  0  0
 32 35  1  0  0  0  0
 40 41  2  0  0  0  0
 40 42  1  0  0  0  0
 42 43  2  0  0  0  0
 42 48  1  0  0  0  0
 43 44  1  0  0  0  0
 43 51  1  0  0  0  0
 44 45  2  0  0  0  0
 44 50  1  0  0  0  0
 45 46  1  0  0  0  0
 45 47  1  0  0  0  0
 47 48  2  0  0  0  0
 47 49  1  0  0  0  0
M  END
>  <MODEL>
       1

$$$$
