tmp_first_model_5_71.pdb
 OpenBabel08272519233D

 50 54  0  0  1  0  0  0  0  0999 V2000
  -10.3780   -0.9830  -23.4430 C   0  0  0  0  0  0  0  0  0  0  0  0
   -8.9840   -1.4260  -23.0050 C   0  0  1  0  0  0  0  0  0  0  0  0
   -8.4070   -0.5490  -21.8790 C   0  0  0  0  0  0  0  0  0  0  0  0
   -7.4460   -1.4280  -21.2340 N   0  0  0  0  0  0  0  0  0  0  0  0
   -6.5120   -1.0550  -20.2390 C   0  0  0  0  0  0  0  0  0  0  0  0
   -6.7090   -1.4290  -18.9320 C   0  0  0  0  0  0  0  0  0  0  0  0
   -5.7960   -1.2530  -17.9430 N   0  0  0  0  0  0  0  0  0  0  0  0
   -4.6660   -0.6700  -18.2740 C   0  0  0  0  0  0  0  0  0  0  0  0
   -4.3840   -0.1230  -19.5640 C   0  0  0  0  0  0  0  0  0  0  0  0
   -3.2370    0.6920  -19.8160 C   0  0  0  0  0  0  0  0  0  0  0  0
   -3.1630    1.4100  -20.9740 C   0  0  0  0  0  0  0  0  0  0  0  0
   -4.1110    1.2090  -22.0060 C   0  0  0  0  0  0  0  0  0  0  0  0
   -5.1570    0.3490  -21.8340 C   0  0  0  0  0  0  0  0  0  0  0  0
   -5.3580   -0.2820  -20.5790 C   0  0  0  0  0  0  0  0  0  0  0  0
   -5.8630    0.2050  -22.6430 H   0  0  0  0  0  0  0  0  0  0  0  0
   -3.9990    1.7360  -22.9460 H   0  0  0  0  0  0  0  0  0  0  0  0
   -2.3120    2.0560  -21.1590 H   0  0  0  0  0  0  0  0  0  0  0  0
   -2.4830    0.8140  -19.0400 H   0  0  0  0  0  0  0  0  0  0  0  0
   -3.9180   -0.5820  -17.4860 H   0  0  0  0  0  0  0  0  0  0  0  0
   -7.6590   -1.8740  -18.6430 H   0  0  0  0  0  0  0  0  0  0  0  0
   -7.6800   -2.7620  -21.4900 C   0  0  0  0  0  0  0  0  0  0  0  0
   -7.0250   -3.6680  -21.0100 O   0  0  0  0  0  0  0  0  0  0  0  0
   -8.8730   -2.8890  -22.4570 C   0  0  1  0  0  0  0  0  0  0  0  0
  -10.1050   -3.3140  -21.6220 C   0  0  0  0  0  0  0  0  0  0  0  0
  -11.2390   -3.7420  -22.4400 N   0  0  0  0  0  0  0  0  0  0  0  0
  -12.5970   -3.6430  -21.9320 C   0  0  0  0  0  0  0  0  0  0  0  0
  -13.4450   -2.6680  -22.6470 C   0  0  0  0  0  0  0  0  0  0  0  0
  -14.1580   -1.9540  -23.2150 N   0  0  0  0  0  0  0  0  0  0  0  0
  -12.5680   -3.3920  -20.8690 H   0  0  0  0  0  0  0  0  0  0  0  0
  -13.0940   -4.6070  -22.0620 H   0  0  0  0  0  0  0  0  0  0  0  0
  -11.0690   -4.5830  -23.5130 C   0  0  0  0  0  0  0  0  0  0  0  0
  -12.0110   -5.1350  -24.0560 O   0  0  0  0  0  0  0  0  0  0  0  0
   -9.6660   -4.7650  -23.9780 C   0  0  0  0  0  0  0  0  0  0  0  0
   -9.4280   -5.7850  -24.8980 C   0  0  0  0  0  0  0  0  0  0  0  0
   -8.1580   -6.0100  -25.3910 C   0  0  0  0  0  0  0  0  0  0  0  0
   -7.1450   -5.1620  -24.9580 C   0  0  0  0  0  0  0  0  0  0  0  0
   -5.9120   -5.3410  -25.4550 F   0  0  0  0  0  0  0  0  0  0  0  0
   -7.3520   -4.1470  -24.0430 C   0  0  0  0  0  0  0  0  0  0  0  0
   -8.6300   -3.9450  -23.5150 C   0  0  0  0  0  0  0  0  0  0  0  0
   -6.5170   -3.5290  -23.7320 H   0  0  0  0  0  0  0  0  0  0  0  0
   -7.9280   -6.8050  -26.0950 H   0  0  0  0  0  0  0  0  0  0  0  0
  -10.2680   -6.4020  -25.2000 H   0  0  0  0  0  0  0  0  0  0  0  0
   -9.7760   -4.1120  -20.9440 H   0  0  0  0  0  0  0  0  0  0  0  0
  -10.4300   -2.4620  -21.0180 H   0  0  0  0  0  0  0  0  0  0  0  0
   -9.1930   -0.2400  -21.1710 H   0  0  0  0  0  0  0  0  0  0  0  0
   -7.9280    0.3600  -22.2530 H   0  0  0  0  0  0  0  0  0  0  0  0
   -8.3010   -1.3660  -23.8660 H   0  0  0  0  0  0  0  0  0  0  0  0
  -10.3490    0.0340  -23.8470 H   0  0  0  0  0  0  0  0  0  0  0  0
  -11.0780   -0.9910  -22.5990 H   0  0  0  0  0  0  0  0  0  0  0  0
  -10.7980   -1.6530  -24.2010 H   0  0  0  0  0  0  0  0  0  0  0  0
  1  2  1  0  0  0  0
  1 48  1  0  0  0  0
  1 49  1  0  0  0  0
  1 50  1  0  0  0  0
  2  3  1  0  0  0  0
  2 23  1  0  0  0  0
  2 47  1  6  0  0  0
  3  4  1  0  0  0  0
  3 45  1  0  0  0  0
  3 46  1  0  0  0  0
  4  5  1  0  0  0  0
  4 21  1  0  0  0  0
  5  6  2  0  0  0  0
  5 14  1  0  0  0  0
  6  7  1  0  0  0  0
  6 20  1  0  0  0  0
  7  8  2  0  0  0  0
  8  9  1  0  0  0  0
  8 19  1  0  0  0  0
  9 10  2  0  0  0  0
  9 14  1  0  0  0  0
 10 11  1  0  0  0  0
 10 18  1  0  0  0  0
 11 12  2  0  0  0  0
 11 17  1  0  0  0  0
 12 13  1  0  0  0  0
 12 16  1  0  0  0  0
 13 14  2  0  0  0  0
 13 15  1  0  0  0  0
 21 22  2  0  0  0  0
 23 21  1  1  0  0  0
 23 24  1  0  0  0  0
 23 39  1  0  0  0  0
 24 25  1  0  0  0  0
 24 43  1  0  0  0  0
 24 44  1  0  0  0  0
 25 26  1  0  0  0  0
 25 31  1  0  0  0  0
 26 27  1  0  0  0  0
 26 29  1  0  0  0  0
 26 30  1  0  0  0  0
 27 28  3  0  0  0  0
 31 32  2  0  0  0  0
 31 33  1  0  0  0  0
 33 34  2  0  0  0  0
 33 39  1  0  0  0  0
 34 35  1  0  0  0  0
 34 42  1  0  0  0  0
 35 36  2  0  0  0  0
 35 41  1  0  0  0  0
 36 37  1  0  0  0  0
 36 38  1  0  0  0  0
 38 39  2  0  0  0  0
 38 40  1  0  0  0  0
M  END
>  <MODEL>
       1

$$$$
