tmp_first_model_10_79.pdb
 OpenBabel08272522163D

 45 49  0  0  0  0  0  0  0  0999 V2000
   -9.4460   -4.0220  -22.5230 C   0  0  0  0  0  0  0  0  0  0  0  0
   -8.8300   -2.7580  -22.2010 N   0  0  0  0  0  0  0  0  0  0  0  0
   -7.8780   -2.6380  -21.2290 C   0  0  0  0  0  0  0  0  0  0  0  0
   -7.4020   -3.5150  -20.5400 O   0  0  0  0  0  0  0  0  0  0  0  0
   -7.5260   -1.2820  -21.1750 N   0  0  0  0  0  0  0  0  0  0  0  0
   -6.6780   -0.7720  -20.1670 C   0  0  0  0  0  0  0  0  0  0  0  0
   -6.9250   -1.1030  -18.8570 C   0  0  0  0  0  0  0  0  0  0  0  0
   -6.2260   -0.6210  -17.8060 N   0  0  0  0  0  0  0  0  0  0  0  0
   -5.2160    0.1690  -18.0800 C   0  0  0  0  0  0  0  0  0  0  0  0
   -4.8250    0.5430  -19.3950 C   0  0  0  0  0  0  0  0  0  0  0  0
   -3.7200    1.4010  -19.6150 C   0  0  0  0  0  0  0  0  0  0  0  0
   -3.4390    1.8520  -20.8720 C   0  0  0  0  0  0  0  0  0  0  0  0
   -4.2210    1.4340  -21.9700 C   0  0  0  0  0  0  0  0  0  0  0  0
   -5.2190    0.5100  -21.8020 C   0  0  0  0  0  0  0  0  0  0  0  0
   -5.5860    0.0870  -20.4900 C   0  0  0  0  0  0  0  0  0  0  0  0
   -5.7320    0.1180  -22.6760 H   0  0  0  0  0  0  0  0  0  0  0  0
   -4.0150    1.8340  -22.9580 H   0  0  0  0  0  0  0  0  0  0  0  0
   -2.6220    2.5480  -21.0300 H   0  0  0  0  0  0  0  0  0  0  0  0
   -3.1320    1.6940  -18.7510 H   0  0  0  0  0  0  0  0  0  0  0  0
   -4.6580    0.5690  -17.2360 H   0  0  0  0  0  0  0  0  0  0  0  0
   -7.7430   -1.7770  -18.6150 H   0  0  0  0  0  0  0  0  0  0  0  0
   -8.2870   -0.5220  -22.0640 C   0  0  0  0  0  0  0  0  0  0  0  0
   -8.2220    0.6720  -22.2220 O   0  0  0  0  0  0  0  0  0  0  0  0
   -9.2110   -1.4910  -22.7720 C   0  0  0  0  0  0  0  0  0  0  0  0
   -9.2640   -1.3870  -24.3090 C   0  0  0  0  0  0  0  0  0  0  0  0
  -10.7060   -1.0050  -24.2430 N   0  0  0  0  0  0  0  0  0  0  0  0
  -11.7550   -1.9890  -25.1250 S   0  0  0  0  0  0  0  0  0  0  0  0
  -11.7140   -3.3530  -24.6040 O   0  0  0  0  0  0  0  0  0  0  0  0
  -11.4750   -1.7530  -26.5270 O   0  0  0  0  0  0  0  0  0  0  0  0
  -13.3520   -1.3280  -24.7350 C   0  0  0  0  0  0  0  0  0  0  0  0
  -14.1390   -1.9460  -23.6140 C   0  0  0  0  0  0  0  0  0  0  0  0
  -14.4840   -2.2690  -25.0310 C   0  0  0  0  0  0  0  0  0  0  0  0
  -14.2070   -3.2520  -25.4000 H   0  0  0  0  0  0  0  0  0  0  0  0
  -15.3770   -1.8370  -25.4650 H   0  0  0  0  0  0  0  0  0  0  0  0
  -13.6440   -2.7220  -23.0370 H   0  0  0  0  0  0  0  0  0  0  0  0
  -14.8140   -1.2950  -23.0670 H   0  0  0  0  0  0  0  0  0  0  0  0
  -13.4820   -0.2730  -24.9420 H   0  0  0  0  0  0  0  0  0  0  0  0
  -10.7020   -1.0810  -22.7620 C   0  0  0  0  0  0  0  0  0  0  0  0
  -11.3790   -1.8120  -22.3120 H   0  0  0  0  0  0  0  0  0  0  0  0
  -10.8620   -0.0900  -22.3350 H   0  0  0  0  0  0  0  0  0  0  0  0
   -9.0700   -2.3320  -24.8230 H   0  0  0  0  0  0  0  0  0  0  0  0
   -8.6710   -0.5800  -24.7410 H   0  0  0  0  0  0  0  0  0  0  0  0
   -8.8610   -4.7820  -22.0060 H   0  0  0  0  0  0  0  0  0  0  0  0
   -9.3950   -4.2200  -23.5980 H   0  0  0  0  0  0  0  0  0  0  0  0
  -10.4950   -4.0520  -22.1970 H   0  0  0  0  0  0  0  0  0  0  0  0
  1  2  1  0  0  0  0
  1 43  1  0  0  0  0
  1 44  1  0  0  0  0
  1 45  1  0  0  0  0
  2  3  1  0  0  0  0
  2 24  1  0  0  0  0
  3  4  2  0  0  0  0
  3  5  1  0  0  0  0
  5  6  1  0  0  0  0
  5 22  1  0  0  0  0
  6  7  2  0  0  0  0
  6 15  1  0  0  0  0
  7  8  1  0  0  0  0
  7 21  1  0  0  0  0
  8  9  2  0  0  0  0
  9 10  1  0  0  0  0
  9 20  1  0  0  0  0
 10 11  2  0  0  0  0
 10 15  1  0  0  0  0
 11 12  1  0  0  0  0
 11 19  1  0  0  0  0
 12 13  2  0  0  0  0
 12 18  1  0  0  0  0
 13 14  1  0  0  0  0
 13 17  1  0  0  0  0
 14 15  2  0  0  0  0
 14 16  1  0  0  0  0
 22 23  2  0  0  0  0
 22 24  1  0  0  0  0
 24 25  1  0  0  0  0
 24 38  1  0  0  0  0
 25 26  1  0  0  0  0
 25 41  1  0  0  0  0
 25 42  1  0  0  0  0
 26 27  1  0  0  0  0
 26 38  1  0  0  0  0
 27 28  2  0  0  0  0
 27 29  2  0  0  0  0
 27 30  1  0  0  0  0
 30 31  1  0  0  0  0
 30 32  1  0  0  0  0
 30 37  1  0  0  0  0
 31 32  1  0  0  0  0
 31 35  1  0  0  0  0
 31 36  1  0  0  0  0
 32 33  1  0  0  0  0
 32 34  1  0  0  0  0
 38 39  1  0  0  0  0
 38 40  1  0  0  0  0
M  END
>  <MODEL>
       1

$$$$
