tmp_first_model_12_84.pdb
 OpenBabel08272523333D

 63 68  0  0  1  0  0  0  0  0999 V2000
   -8.2330   -3.6440  -23.9400 C   0  0  0  0  0  0  0  0  0  0  0  0
   -8.4080   -2.9020  -22.6200 C   0  0  1  0  0  0  0  0  0  0  0  0
   -7.0810   -2.4540  -21.9770 C   0  0  0  0  0  0  0  0  0  0  0  0
   -7.4740   -1.3040  -21.1890 N   0  0  0  0  0  0  0  0  0  0  0  0
   -6.6750   -0.7370  -20.1600 C   0  0  0  0  0  0  0  0  0  0  0  0
   -6.9540   -1.0220  -18.8470 C   0  0  0  0  0  0  0  0  0  0  0  0
   -6.2300   -0.5700  -17.7930 N   0  0  0  0  0  0  0  0  0  0  0  0
   -5.1940    0.1920  -18.0510 C   0  0  0  0  0  0  0  0  0  0  0  0
   -4.7830    0.5590  -19.3660 C   0  0  0  0  0  0  0  0  0  0  0  0
   -3.6620    1.4020  -19.5920 C   0  0  0  0  0  0  0  0  0  0  0  0
   -3.3270    1.7830  -20.8650 C   0  0  0  0  0  0  0  0  0  0  0  0
   -4.1010    1.3530  -21.9630 C   0  0  0  0  0  0  0  0  0  0  0  0
   -5.1790    0.5150  -21.7690 C   0  0  0  0  0  0  0  0  0  0  0  0
   -5.5490    0.0950  -20.4610 C   0  0  0  0  0  0  0  0  0  0  0  0
   -5.7920    0.2350  -22.6210 H   0  0  0  0  0  0  0  0  0  0  0  0
   -3.8400    1.6770  -22.9670 H   0  0  0  0  0  0  0  0  0  0  0  0
   -2.4720    2.4320  -21.0370 H   0  0  0  0  0  0  0  0  0  0  0  0
   -3.1030    1.7550  -18.7290 H   0  0  0  0  0  0  0  0  0  0  0  0
   -4.6220    0.5700  -17.2020 H   0  0  0  0  0  0  0  0  0  0  0  0
   -7.7980   -1.6630  -18.6010 H   0  0  0  0  0  0  0  0  0  0  0  0
   -8.6880   -0.7630  -21.5550 C   0  0  0  0  0  0  0  0  0  0  0  0
   -9.1540    0.2540  -21.0760 O   0  0  0  0  0  0  0  0  0  0  0  0
   -9.3080   -1.6310  -22.6840 C   0  0  1  0  0  0  0  0  0  0  0  0
   -9.1430   -0.8970  -24.0490 C   0  0  0  0  0  0  0  0  0  0  0  0
   -9.9960    0.2750  -24.1710 N   0  0  0  0  0  0  0  0  0  0  0  0
   -9.4790    1.4190  -24.9150 C   0  0  0  0  0  0  0  0  0  0  0  0
   -8.2360    1.9290  -24.1800 C   0  0  0  0  0  0  0  0  0  0  0  0
   -7.0980    1.5800  -24.4530 O   0  0  0  0  0  0  0  0  0  0  0  0
   -8.5460    2.7270  -23.1230 N   0  0  0  0  0  0  0  0  0  0  0  0
   -7.5870    3.0190  -22.0820 C   0  0  0  0  0  0  0  0  0  0  0  0
   -6.8930    4.3480  -22.2210 C   0  0  0  0  0  0  0  0  0  0  0  0
   -6.2170    4.4250  -23.4160 F   0  0  0  0  0  0  0  0  0  0  0  0
   -6.2250    5.0170  -21.0750 C   0  0  0  0  0  0  0  0  0  0  0  0
   -7.4400    5.6440  -21.7250 C   0  0  0  0  0  0  0  0  0  0  0  0
   -8.3840    5.6690  -21.1810 H   0  0  0  0  0  0  0  0  0  0  0  0
   -7.2430    6.4960  -22.3710 H   0  0  0  0  0  0  0  0  0  0  0  0
   -6.3440    4.5830  -20.0880 H   0  0  0  0  0  0  0  0  0  0  0  0
   -5.2690    5.4790  -21.2950 H   0  0  0  0  0  0  0  0  0  0  0  0
   -6.8380    2.2310  -22.0900 H   0  0  0  0  0  0  0  0  0  0  0  0
   -8.1170    2.9420  -21.1350 H   0  0  0  0  0  0  0  0  0  0  0  0
   -9.5200    2.8550  -22.8930 H   0  0  0  0  0  0  0  0  0  0  0  0
   -9.2450    1.1460  -25.9520 H   0  0  0  0  0  0  0  0  0  0  0  0
  -10.2620    2.1800  -24.9250 H   0  0  0  0  0  0  0  0  0  0  0  0
  -11.2880    0.2870  -23.7320 C   0  0  0  0  0  0  0  0  0  0  0  0
  -12.0580    1.2060  -23.9840 O   0  0  0  0  0  0  0  0  0  0  0  0
  -11.7200   -0.8950  -22.9090 C   0  0  0  0  0  0  0  0  0  0  0  0
  -13.0760   -0.9800  -22.5910 C   0  0  0  0  0  0  0  0  0  0  0  0
  -13.5540   -2.0240  -21.8300 C   0  0  0  0  0  0  0  0  0  0  0  0
  -12.6560   -3.0030  -21.4260 C   0  0  0  0  0  0  0  0  0  0  0  0
  -13.1200   -4.0110  -20.6670 F   0  0  0  0  0  0  0  0  0  0  0  0
  -11.3110   -2.9530  -21.7410 C   0  0  0  0  0  0  0  0  0  0  0  0
  -10.8020   -1.8600  -22.4610 C   0  0  0  0  0  0  0  0  0  0  0  0
  -10.6820   -3.7620  -21.3850 H   0  0  0  0  0  0  0  0  0  0  0  0
  -14.5980   -2.1020  -21.5530 H   0  0  0  0  0  0  0  0  0  0  0  0
  -13.7410   -0.2070  -22.9590 H   0  0  0  0  0  0  0  0  0  0  0  0
   -9.3750   -1.5870  -24.8720 H   0  0  0  0  0  0  0  0  0  0  0  0
   -8.1050   -0.5680  -24.1580 H   0  0  0  0  0  0  0  0  0  0  0  0
   -6.3290   -2.1830  -22.7350 H   0  0  0  0  0  0  0  0  0  0  0  0
   -6.6410   -3.2320  -21.3430 H   0  0  0  0  0  0  0  0  0  0  0  0
   -8.8700   -3.5790  -21.8990 H   0  0  0  0  0  0  0  0  0  0  0  0
   -7.6800   -3.0300  -24.6610 H   0  0  0  0  0  0  0  0  0  0  0  0
   -7.6760   -4.5760  -23.8070 H   0  0  0  0  0  0  0  0  0  0  0  0
   -9.2060   -3.8840  -24.3830 H   0  0  0  0  0  0  0  0  0  0  0  0
  1  2  1  0  0  0  0
  1 61  1  0  0  0  0
  1 62  1  0  0  0  0
  1 63  1  0  0  0  0
  2  3  1  0  0  0  0
  2 23  1  0  0  0  0
  2 60  1  1  0  0  0
  3  4  1  0  0  0  0
  3 58  1  0  0  0  0
  3 59  1  0  0  0  0
  4  5  1  0  0  0  0
  4 21  1  0  0  0  0
  5  6  2  0  0  0  0
  5 14  1  0  0  0  0
  6  7  1  0  0  0  0
  6 20  1  0  0  0  0
  7  8  2  0  0  0  0
  8  9  1  0  0  0  0
  8 19  1  0  0  0  0
  9 10  2  0  0  0  0
  9 14  1  0  0  0  0
 10 11  1  0  0  0  0
 10 18  1  0  0  0  0
 11 12  2  0  0  0  0
 11 17  1  0  0  0  0
 12 13  1  0  0  0  0
 12 16  1  0  0  0  0
 13 14  2  0  0  0  0
 13 15  1  0  0  0  0
 21 22  2  0  0  0  0
 23 21  1  1  0  0  0
 23 24  1  0  0  0  0
 23 52  1  0  0  0  0
 24 25  1  0  0  0  0
 24 56  1  0  0  0  0
 24 57  1  0  0  0  0
 25 26  1  0  0  0  0
 25 44  1  0  0  0  0
 26 27  1  0  0  0  0
 26 42  1  0  0  0  0
 26 43  1  0  0  0  0
 27 28  2  0  0  0  0
 27 29  1  0  0  0  0
 29 30  1  0  0  0  0
 29 41  1  0  0  0  0
 30 31  1  0  0  0  0
 30 39  1  0  0  0  0
 30 40  1  0  0  0  0
 31 32  1  0  0  0  0
 31 33  1  0  0  0  0
 31 34  1  0  0  0  0
 33 34  1  0  0  0  0
 33 37  1  0  0  0  0
 33 38  1  0  0  0  0
 34 35  1  0  0  0  0
 34 36  1  0  0  0  0
 44 45  2  0  0  0  0
 44 46  1  0  0  0  0
 46 47  2  0  0  0  0
 46 52  1  0  0  0  0
 47 48  1  0  0  0  0
 47 55  1  0  0  0  0
 48 49  2  0  0  0  0
 48 54  1  0  0  0  0
 49 50  1  0  0  0  0
 49 51  1  0  0  0  0
 51 52  2  0  0  0  0
 51 53  1  0  0  0  0
M  END
>  <MODEL>
       1

$$$$
