tmp_first_model_1_48.pdb
 OpenBabel08272517043D

 46 48  0  0  0  0  0  0  0  0999 V2000
   -8.5210   -6.7750  -25.9040 C   0  0  0  0  0  0  0  0  0  0  0  0
   -9.6180   -6.7230  -24.8440 C   0  0  0  0  0  0  0  0  0  0  0  0
  -10.9830   -6.5490  -25.5090 C   0  0  0  0  0  0  0  0  0  0  0  0
  -11.7890   -6.5200  -24.7710 H   0  0  0  0  0  0  0  0  0  0  0  0
  -11.1920   -7.3740  -26.1980 H   0  0  0  0  0  0  0  0  0  0  0  0
  -11.0370   -5.6270  -26.0950 H   0  0  0  0  0  0  0  0  0  0  0  0
   -9.3750   -5.6730  -23.7310 C   0  0  0  0  0  0  0  0  0  0  0  0
   -9.2860   -4.2310  -24.2390 C   0  0  0  0  0  0  0  0  0  0  0  0
   -8.8350   -3.2510  -23.1580 C   0  0  0  0  0  0  0  0  0  0  0  0
   -7.5550   -3.6300  -22.5670 N   0  0  0  0  0  0  0  0  0  0  0  0
   -6.7700   -2.7730  -21.8330 C   0  0  0  0  0  0  0  0  0  0  0  0
   -5.5950   -3.0220  -21.6040 O   0  0  0  0  0  0  0  0  0  0  0  0
   -7.4180   -1.4850  -21.2650 C   0  0  0  0  0  0  0  0  0  0  0  0
   -6.5820   -0.8300  -20.1850 C   0  0  0  0  0  0  0  0  0  0  0  0
   -6.8740   -1.0440  -18.8650 C   0  0  0  0  0  0  0  0  0  0  0  0
   -6.1840   -0.5500  -17.8020 N   0  0  0  0  0  0  0  0  0  0  0  0
   -5.1590    0.2220  -18.0660 C   0  0  0  0  0  0  0  0  0  0  0  0
   -4.7220    0.5320  -19.3810 C   0  0  0  0  0  0  0  0  0  0  0  0
   -3.5930    1.3590  -19.6210 C   0  0  0  0  0  0  0  0  0  0  0  0
   -3.1900    1.6330  -20.8990 C   0  0  0  0  0  0  0  0  0  0  0  0
   -3.9010    1.0880  -21.9920 C   0  0  0  0  0  0  0  0  0  0  0  0
   -4.9980    0.2880  -21.7860 C   0  0  0  0  0  0  0  0  0  0  0  0
   -5.4460   -0.0120  -20.4740 C   0  0  0  0  0  0  0  0  0  0  0  0
   -5.5230   -0.1340  -22.6370 H   0  0  0  0  0  0  0  0  0  0  0  0
   -3.5720    1.3090  -23.0040 H   0  0  0  0  0  0  0  0  0  0  0  0
   -2.3280    2.2700  -21.0870 H   0  0  0  0  0  0  0  0  0  0  0  0
   -3.0550    1.7750  -18.7700 H   0  0  0  0  0  0  0  0  0  0  0  0
   -4.6030    0.6280  -17.2160 H   0  0  0  0  0  0  0  0  0  0  0  0
   -7.7200   -1.6690  -18.5860 H   0  0  0  0  0  0  0  0  0  0  0  0
   -8.4100   -1.7190  -20.8490 H   0  0  0  0  0  0  0  0  0  0  0  0
   -7.5940   -0.7630  -22.0740 H   0  0  0  0  0  0  0  0  0  0  0  0
   -7.0450   -4.9610  -22.8920 C   0  0  0  0  0  0  0  0  0  0  0  0
   -8.1580   -6.0050  -22.8400 C   0  0  0  0  0  0  0  0  0  0  0  0
   -7.7500   -6.9870  -23.1010 H   0  0  0  0  0  0  0  0  0  0  0  0
   -8.4820   -6.1010  -21.7990 H   0  0  0  0  0  0  0  0  0  0  0  0
   -6.2610   -5.2120  -22.1790 H   0  0  0  0  0  0  0  0  0  0  0  0
   -6.5670   -4.9640  -23.8800 H   0  0  0  0  0  0  0  0  0  0  0  0
   -8.7480   -2.2550  -23.6050 H   0  0  0  0  0  0  0  0  0  0  0  0
   -9.6120   -3.1740  -22.3870 H   0  0  0  0  0  0  0  0  0  0  0  0
  -10.2650   -3.9090  -24.6040 H   0  0  0  0  0  0  0  0  0  0  0  0
   -8.6180   -4.1500  -25.1010 H   0  0  0  0  0  0  0  0  0  0  0  0
  -10.2580   -5.7140  -23.0780 H   0  0  0  0  0  0  0  0  0  0  0  0
   -9.6320   -7.7020  -24.3470 H   0  0  0  0  0  0  0  0  0  0  0  0
   -7.5190   -6.8330  -25.4680 H   0  0  0  0  0  0  0  0  0  0  0  0
   -8.5440   -5.8930  -26.5510 H   0  0  0  0  0  0  0  0  0  0  0  0
   -8.6460   -7.6480  -26.5530 H   0  0  0  0  0  0  0  0  0  0  0  0
  1  2  1  0  0  0  0
  1 44  1  0  0  0  0
  1 45  1  0  0  0  0
  1 46  1  0  0  0  0
  2  3  1  0  0  0  0
  2  7  1  0  0  0  0
  2 43  1  0  0  0  0
  3  4  1  0  0  0  0
  3  5  1  0  0  0  0
  3  6  1  0  0  0  0
  7  8  1  0  0  0  0
  7 33  1  0  0  0  0
  7 42  1  0  0  0  0
  8  9  1  0  0  0  0
  8 40  1  0  0  0  0
  8 41  1  0  0  0  0
  9 10  1  0  0  0  0
  9 38  1  0  0  0  0
  9 39  1  0  0  0  0
 10 11  1  0  0  0  0
 10 32  1  0  0  0  0
 11 12  2  0  0  0  0
 11 13  1  0  0  0  0
 13 14  1  0  0  0  0
 13 30  1  0  0  0  0
 13 31  1  0  0  0  0
 14 15  2  0  0  0  0
 14 23  1  0  0  0  0
 15 16  1  0  0  0  0
 15 29  1  0  0  0  0
 16 17  2  0  0  0  0
 17 18  1  0  0  0  0
 17 28  1  0  0  0  0
 18 19  2  0  0  0  0
 18 23  1  0  0  0  0
 19 20  1  0  0  0  0
 19 27  1  0  0  0  0
 20 21  2  0  0  0  0
 20 26  1  0  0  0  0
 21 22  1  0  0  0  0
 21 25  1  0  0  0  0
 22 23  2  0  0  0  0
 22 24  1  0  0  0  0
 32 33  1  0  0  0  0
 32 36  1  0  0  0  0
 32 37  1  0  0  0  0
 33 34  1  0  0  0  0
 33 35  1  0  0  0  0
M  END
>  <MODEL>
       1

$$$$
