tmp_first_model_13_4.pdb
 OpenBabel08282500103D

 59 64  0  0  1  0  0  0  0  0999 V2000
   -8.0730   -3.8370  -23.8630 C   0  0  0  0  0  0  0  0  0  0  0  0
   -8.4150   -2.8530  -22.7350 C   0  0  1  0  0  0  0  0  0  0  0  0
   -7.2610   -2.7010  -21.7210 C   0  0  0  0  0  0  0  0  0  0  0  0
   -7.4330   -1.3580  -21.1970 N   0  0  0  0  0  0  0  0  0  0  0  0
   -6.6120   -0.7990  -20.1830 C   0  0  0  0  0  0  0  0  0  0  0  0
   -6.8960   -1.0490  -18.8650 C   0  0  0  0  0  0  0  0  0  0  0  0
   -6.1880   -0.5560  -17.8230 N   0  0  0  0  0  0  0  0  0  0  0  0
   -5.1600    0.2110  -18.0880 C   0  0  0  0  0  0  0  0  0  0  0  0
   -4.7340    0.5340  -19.4070 C   0  0  0  0  0  0  0  0  0  0  0  0
   -3.6000    1.3600  -19.6450 C   0  0  0  0  0  0  0  0  0  0  0  0
   -3.2020    1.6390  -20.9250 C   0  0  0  0  0  0  0  0  0  0  0  0
   -3.9120    1.0960  -22.0200 C   0  0  0  0  0  0  0  0  0  0  0  0
   -5.0100    0.2970  -21.8140 C   0  0  0  0  0  0  0  0  0  0  0  0
   -5.4670    0.0100  -20.4940 C   0  0  0  0  0  0  0  0  0  0  0  0
   -5.5390   -0.1190  -22.6680 H   0  0  0  0  0  0  0  0  0  0  0  0
   -3.6070    1.3150  -23.0400 H   0  0  0  0  0  0  0  0  0  0  0  0
   -2.3470    2.2880  -21.0980 H   0  0  0  0  0  0  0  0  0  0  0  0
   -3.0730    1.7690  -18.7880 H   0  0  0  0  0  0  0  0  0  0  0  0
   -4.6170    0.6150  -17.2340 H   0  0  0  0  0  0  0  0  0  0  0  0
   -7.7430   -1.6780  -18.5980 H   0  0  0  0  0  0  0  0  0  0  0  0
   -8.2410   -0.5600  -21.9730 C   0  0  0  0  0  0  0  0  0  0  0  0
   -8.4380    0.6200  -21.7500 O   0  0  0  0  0  0  0  0  0  0  0  0
   -8.7930   -1.3930  -23.1520 C   0  0  1  0  0  0  0  0  0  0  0  0
   -8.0680   -0.9690  -24.4550 C   0  0  0  0  0  0  0  0  0  0  0  0
   -8.4360    0.3710  -24.8660 N   0  0  0  0  0  0  0  0  0  0  0  0
   -7.3860    1.3710  -25.0200 C   0  0  0  0  0  0  0  0  0  0  0  0
   -6.2950    0.9680  -25.9720 C   0  0  0  0  0  0  0  0  0  0  0  0
   -5.0450    0.7300  -25.6280 N   0  0  0  0  0  0  0  0  0  0  0  0
   -4.4150    0.3490  -26.7840 C   0  0  0  0  0  0  0  0  0  0  0  0
   -5.2920    0.3660  -27.8300 C   0  0  0  0  0  0  0  0  0  0  0  0
   -6.5000    0.7710  -27.3050 N   0  0  0  0  0  0  0  0  0  0  0  0
   -7.7500    0.9190  -28.0290 C   0  0  0  0  0  0  0  0  0  0  0  0
   -8.4590    0.1320  -27.7540 H   0  0  0  0  0  0  0  0  0  0  0  0
   -8.2050    1.8950  -27.8260 H   0  0  0  0  0  0  0  0  0  0  0  0
   -7.5260    0.8460  -29.0960 H   0  0  0  0  0  0  0  0  0  0  0  0
   -5.1930    0.1270  -28.8800 H   0  0  0  0  0  0  0  0  0  0  0  0
   -3.3640    0.0710  -26.7790 H   0  0  0  0  0  0  0  0  0  0  0  0
   -7.8930    2.2860  -25.3420 H   0  0  0  0  0  0  0  0  0  0  0  0
   -6.9080    1.5530  -24.0470 H   0  0  0  0  0  0  0  0  0  0  0  0
   -9.7520    0.7120  -25.0090 C   0  0  0  0  0  0  0  0  0  0  0  0
  -10.1250    1.6640  -25.6850 O   0  0  0  0  0  0  0  0  0  0  0  0
  -10.7230   -0.1450  -24.2440 C   0  0  0  0  0  0  0  0  0  0  0  0
  -12.0850    0.1230  -24.3930 C   0  0  0  0  0  0  0  0  0  0  0  0
  -13.0220   -0.5300  -23.6180 C   0  0  0  0  0  0  0  0  0  0  0  0
  -12.5630   -1.4210  -22.6570 C   0  0  0  0  0  0  0  0  0  0  0  0
  -13.4600   -2.0160  -21.8530 F   0  0  0  0  0  0  0  0  0  0  0  0
  -11.2230   -1.7100  -22.4880 C   0  0  0  0  0  0  0  0  0  0  0  0
  -10.2770   -1.1120  -23.3300 C   0  0  0  0  0  0  0  0  0  0  0  0
  -10.9480   -2.3760  -21.6770 H   0  0  0  0  0  0  0  0  0  0  0  0
  -14.0860   -0.3440  -23.7110 H   0  0  0  0  0  0  0  0  0  0  0  0
  -12.3740    0.8840  -25.1060 H   0  0  0  0  0  0  0  0  0  0  0  0
   -6.9870   -0.9770  -24.3020 H   0  0  0  0  0  0  0  0  0  0  0  0
   -8.3190   -1.6780  -25.2580 H   0  0  0  0  0  0  0  0  0  0  0  0
   -7.3060   -3.4330  -20.9090 H   0  0  0  0  0  0  0  0  0  0  0  0
   -6.2830   -2.8240  -22.2140 H   0  0  0  0  0  0  0  0  0  0  0  0
   -9.2790   -3.2480  -22.1930 H   0  0  0  0  0  0  0  0  0  0  0  0
   -7.9020   -4.8460  -23.4670 H   0  0  0  0  0  0  0  0  0  0  0  0
   -8.8750   -3.9020  -24.6080 H   0  0  0  0  0  0  0  0  0  0  0  0
   -7.1580   -3.5350  -24.3900 H   0  0  0  0  0  0  0  0  0  0  0  0
  1  2  1  0  0  0  0
  1 57  1  0  0  0  0
  1 58  1  0  0  0  0
  1 59  1  0  0  0  0
  2  3  1  0  0  0  0
  2 23  1  0  0  0  0
  2 56  1  1  0  0  0
  3  4  1  0  0  0  0
  3 54  1  0  0  0  0
  3 55  1  0  0  0  0
  4  5  1  0  0  0  0
  4 21  1  0  0  0  0
  5  6  2  0  0  0  0
  5 14  1  0  0  0  0
  6  7  1  0  0  0  0
  6 20  1  0  0  0  0
  7  8  2  0  0  0  0
  8  9  1  0  0  0  0
  8 19  1  0  0  0  0
  9 10  2  0  0  0  0
  9 14  1  0  0  0  0
 10 11  1  0  0  0  0
 10 18  1  0  0  0  0
 11 12  2  0  0  0  0
 11 17  1  0  0  0  0
 12 13  1  0  0  0  0
 12 16  1  0  0  0  0
 13 14  2  0  0  0  0
 13 15  1  0  0  0  0
 21 22  2  0  0  0  0
 23 21  1  1  0  0  0
 23 24  1  0  0  0  0
 23 48  1  0  0  0  0
 24 25  1  0  0  0  0
 24 52  1  0  0  0  0
 24 53  1  0  0  0  0
 25 26  1  0  0  0  0
 25 40  1  0  0  0  0
 26 27  1  0  0  0  0
 26 38  1  0  0  0  0
 26 39  1  0  0  0  0
 27 28  2  0  0  0  0
 27 31  1  0  0  0  0
 28 29  1  0  0  0  0
 29 30  2  0  0  0  0
 29 37  1  0  0  0  0
 30 31  1  0  0  0  0
 30 36  1  0  0  0  0
 31 32  1  0  0  0  0
 32 33  1  0  0  0  0
 32 34  1  0  0  0  0
 32 35  1  0  0  0  0
 40 41  2  0  0  0  0
 40 42  1  0  0  0  0
 42 43  2  0  0  0  0
 42 48  1  0  0  0  0
 43 44  1  0  0  0  0
 43 51  1  0  0  0  0
 44 45  2  0  0  0  0
 44 50  1  0  0  0  0
 45 46  1  0  0  0  0
 45 47  1  0  0  0  0
 47 48  2  0  0  0  0
 47 49  1  0  0  0  0
M  END
>  <MODEL>
       1

$$$$
