tmp_first_model_4_12.pdb
 OpenBabel08272518513D

 76 82  0  0  1  0  0  0  0  0999 V2000
  -10.3790   -1.9450  -27.0810 O   0  0  0  0  0  0  0  0  0  0  0  0
   -9.8840   -1.7070  -25.9840 C   0  0  0  0  0  0  0  0  0  0  0  0
  -10.6620   -1.0370  -24.9100 C   0  0  0  0  0  0  0  0  0  0  0  0
  -11.9160   -0.5410  -25.2540 C   0  0  0  0  0  0  0  0  0  0  0  0
  -12.8130   -0.2020  -24.2710 C   0  0  0  0  0  0  0  0  0  0  0  0
  -12.4110   -0.3690  -22.9460 C   0  0  0  0  0  0  0  0  0  0  0  0
  -13.6770   -0.3570  -21.7700 Cl  0  0  0  0  0  0  0  0  0  0  0  0
  -11.1180   -0.7210  -22.5900 C   0  0  0  0  0  0  0  0  0  0  0  0
  -10.2000   -1.0520  -23.5850 C   0  0  0  0  0  0  0  0  0  0  0  0
   -8.7950   -1.4820  -23.1980 C   0  0  1  0  0  0  0  0  0  0  0  0
   -7.9420   -1.4480  -24.4980 C   0  0  0  0  0  0  0  0  0  0  0  0
   -8.6110   -2.0650  -25.6400 N   0  0  0  0  0  0  0  0  0  0  0  0
   -7.8310   -2.7660  -26.6490 C   0  0  0  0  0  0  0  0  0  0  0  0
   -7.5420   -1.9450  -27.9060 C   0  0  0  0  0  0  0  0  0  0  0  0
   -6.7420   -0.7020  -27.5990 N   0  3  0  0  0  0  0  0  0  0  0  0
   -5.6070   -0.4810  -28.5690 C   0  0  0  0  0  0  0  0  0  0  0  0
   -6.1210    0.0480  -29.9020 C   0  0  0  0  0  0  0  0  0  0  0  0
   -6.8120    1.2710  -29.7330 O   0  0  0  0  0  0  0  0  0  0  0  0
   -7.9470    1.1020  -28.9090 C   0  0  0  0  0  0  0  0  0  0  0  0
   -7.5780    0.5730  -27.5270 C   0  0  0  0  0  0  0  0  0  0  0  0
   -6.9860    1.3230  -26.9980 H   0  0  0  0  0  0  0  0  0  0  0  0
   -8.4820    0.3640  -26.9490 H   0  0  0  0  0  0  0  0  0  0  0  0
   -8.6750    0.4300  -29.3920 H   0  0  0  0  0  0  0  0  0  0  0  0
   -8.4140    2.0860  -28.8080 H   0  0  0  0  0  0  0  0  0  0  0  0
   -6.7810   -0.7010  -30.3710 H   0  0  0  0  0  0  0  0  0  0  0  0
   -5.2880    0.2440  -30.5820 H   0  0  0  0  0  0  0  0  0  0  0  0
   -4.9270    0.2470  -28.1250 H   0  0  0  0  0  0  0  0  0  0  0  0
   -5.0710   -1.4250  -28.7080 H   0  0  0  0  0  0  0  0  0  0  0  0
   -6.3250   -0.8420  -26.6640 H   0  0  0  0  0  0  0  0  0  0  0  0
   -8.4790   -1.6620  -28.3810 H   0  0  0  0  0  0  0  0  0  0  0  0
   -6.9680   -2.5580  -28.6050 H   0  0  0  0  0  0  0  0  0  0  0  0
   -8.3620   -3.6750  -26.9460 H   0  0  0  0  0  0  0  0  0  0  0  0
   -6.8850   -3.0530  -26.1800 H   0  0  0  0  0  0  0  0  0  0  0  0
   -7.7130   -0.3900  -24.7120 H   0  0  0  0  0  0  0  0  0  0  0  0
   -6.9920   -1.9700  -24.3480 H   0  0  0  0  0  0  0  0  0  0  0  0
   -8.1430   -0.5570  -22.1360 C   0  0  0  0  0  0  0  0  0  0  0  0
   -8.3100    0.6330  -21.9770 O   0  0  0  0  0  0  0  0  0  0  0  0
   -7.2970   -1.3330  -21.3600 N   0  0  0  0  0  0  0  0  0  0  0  0
   -6.4230   -0.8970  -20.3380 C   0  0  0  0  0  0  0  0  0  0  0  0
   -6.6270   -1.3480  -19.0540 C   0  0  0  0  0  0  0  0  0  0  0  0
   -5.7690   -1.1640  -18.0270 N   0  0  0  0  0  0  0  0  0  0  0  0
   -4.6490   -0.5350  -18.2840 C   0  0  0  0  0  0  0  0  0  0  0  0
   -4.2990   -0.0360  -19.5690 C   0  0  0  0  0  0  0  0  0  0  0  0
   -3.0590    0.6110  -19.7980 C   0  0  0  0  0  0  0  0  0  0  0  0
   -2.7360    1.0710  -21.0430 C   0  0  0  0  0  0  0  0  0  0  0  0
   -3.6600    0.9560  -22.1040 C   0  0  0  0  0  0  0  0  0  0  0  0
   -4.8840    0.3700  -21.8990 C   0  0  0  0  0  0  0  0  0  0  0  0
   -5.2190   -0.1810  -20.6320 C   0  0  0  0  0  0  0  0  0  0  0  0
   -5.6200    0.3510  -22.6960 H   0  0  0  0  0  0  0  0  0  0  0  0
   -3.4020    1.3390  -23.0860 H   0  0  0  0  0  0  0  0  0  0  0  0
   -1.7800    1.5570  -21.2160 H   0  0  0  0  0  0  0  0  0  0  0  0
   -2.3980    0.7540  -18.9490 H   0  0  0  0  0  0  0  0  0  0  0  0
   -3.9480   -0.3990  -17.4590 H   0  0  0  0  0  0  0  0  0  0  0  0
   -7.5430   -1.8860  -18.8110 H   0  0  0  0  0  0  0  0  0  0  0  0
   -7.3350   -2.7320  -21.7160 C   0  0  0  0  0  0  0  0  0  0  0  0
   -8.6920   -2.8300  -22.3940 C   0  0  2  0  0  0  0  0  0  0  0  0
   -8.8860   -4.1520  -23.1250 C   0  0  0  0  0  0  0  0  0  0  0  0
  -10.0440   -4.1430  -23.9820 N   0  0  0  0  0  0  0  0  0  0  0  0
  -11.3210   -4.5710  -23.4680 C   0  0  0  0  0  0  0  0  0  0  0  0
  -11.5490   -3.9680  -22.1580 N   0  0  0  0  0  0  0  0  0  0  0  0
  -12.7160   -3.9320  -21.6740 C   0  0  0  0  0  0  0  0  0  0  0  0
  -14.0830   -4.6940  -22.4390 C   0  0  0  0  0  0  0  0  0  0  0  0
  -14.2860   -4.4680  -22.4850 C   0  0  0  0  0  0  0  0  0  0  0  0
  -12.0880   -5.2950  -24.1230 N   0  0  0  0  0  0  0  0  0  0  0  0
  -14.7840   -4.9810  -23.4330 H   0  0  0  0  0  0  0  0  0  0  0  0
  -15.0470   -4.9020  -21.6820 H   0  0  0  0  0  0  0  0  0  0  0  0
  -12.7720   -3.4420  -20.6610 H   0  0  0  0  0  0  0  0  0  0  0  0
   -9.8720   -4.5470  -24.8990 H   0  0  0  0  0  0  0  0  0  0  0  0
   -8.9460   -4.9650  -22.3790 H   0  0  0  0  0  0  0  0  0  0  0  0
   -7.9990   -4.3320  -23.7560 H   0  0  0  0  0  0  0  0  0  0  0  0
   -9.4530   -2.7410  -21.6140 H   0  0  0  0  0  0  0  0  0  0  0  0
   -6.5080   -3.0030  -22.3950 H   0  0  0  0  0  0  0  0  0  0  0  0
   -7.2310   -3.3570  -20.8290 H   0  0  0  0  0  0  0  0  0  0  0  0
  -10.8130   -0.7710  -21.5520 H   0  0  0  0  0  0  0  0  0  0  0  0
  -13.8350    0.0890  -24.4920 H   0  0  0  0  0  0  0  0  0  0  0  0
  -12.1830   -0.4890  -26.3030 H   0  0  0  0  0  0  0  0  0  0  0  0
  1  2  2  0  0  0  0
  2  3  1  0  0  0  0
  2 12  1  0  0  0  0
  3  4  2  0  0  0  0
  3  9  1  0  0  0  0
  4  5  1  0  0  0  0
  4 76  1  0  0  0  0
  5  6  2  0  0  0  0
  5 75  1  0  0  0  0
  6  7  1  0  0  0  0
  6  8  1  0  0  0  0
  8  9  2  0  0  0  0
  8 74  1  0  0  0  0
 10  9  1  6  0  0  0
 10 11  1  0  0  0  0
 10 36  1  0  0  0  0
 10 56  1  0  0  0  0
 11 12  1  0  0  0  0
 11 34  1  0  0  0  0
 11 35  1  0  0  0  0
 12 13  1  0  0  0  0
 13 14  1  0  0  0  0
 13 32  1  0  0  0  0
 13 33  1  0  0  0  0
 14 15  1  0  0  0  0
 14 30  1  0  0  0  0
 14 31  1  0  0  0  0
 15 16  1  0  0  0  0
 15 20  1  0  0  0  0
 15 29  1  0  0  0  0
 16 17  1  0  0  0  0
 16 27  1  0  0  0  0
 16 28  1  0  0  0  0
 17 18  1  0  0  0  0
 17 25  1  0  0  0  0
 17 26  1  0  0  0  0
 18 19  1  0  0  0  0
 19 20  1  0  0  0  0
 19 23  1  0  0  0  0
 19 24  1  0  0  0  0
 20 21  1  0  0  0  0
 20 22  1  0  0  0  0
 36 37  2  0  0  0  0
 36 38  1  0  0  0  0
 38 39  1  0  0  0  0
 38 55  1  0  0  0  0
 39 40  2  0  0  0  0
 39 48  1  0  0  0  0
 40 41  1  0  0  0  0
 40 54  1  0  0  0  0
 41 42  2  0  0  0  0
 42 43  1  0  0  0  0
 42 53  1  0  0  0  0
 43 44  2  0  0  0  0
 43 48  1  0  0  0  0
 44 45  1  0  0  0  0
 44 52  1  0  0  0  0
 45 46  2  0  0  0  0
 45 51  1  0  0  0  0
 46 47  1  0  0  0  0
 46 50  1  0  0  0  0
 47 48  2  0  0  0  0
 47 49  1  0  0  0  0
 55 56  1  0  0  0  0
 55 72  1  0  0  0  0
 55 73  1  0  0  0  0
 56 57  1  0  0  0  0
 56 71  1  1  0  0  0
 57 58  1  0  0  0  0
 57 69  1  0  0  0  0
 57 70  1  0  0  0  0
 58 59  1  0  0  0  0
 58 68  1  0  0  0  0
 59 60  2  0  0  0  0
 59 64  1  0  0  0  0
 60 61  1  0  0  0  0
 61 62  2  0  0  0  0
 61 67  1  0  0  0  0
 62 63  1  0  0  0  0
 62 66  1  0  0  0  0
 63 64  2  0  0  0  0
 63 65  1  0  0  0  0
M  CHG  1  15   1
M  END
>  <MODEL>
       1

$$$$
