tmp_first_model_11_28.pdb
 OpenBabel08272522543D

 64 68  0  0  1  0  0  0  0  0999 V2000
   -7.4300    3.3540  -21.7900 C   0  0  0  0  0  0  0  0  0  0  0  0
   -8.3690    2.9170  -22.8060 N   0  0  0  0  0  0  0  0  0  0  0  0
   -7.8420    2.1950  -23.8350 C   0  0  0  0  0  0  0  0  0  0  0  0
   -6.6340    2.0440  -23.9660 O   0  0  0  0  0  0  0  0  0  0  0  0
   -8.8260    1.5880  -24.8260 C   0  0  0  0  0  0  0  0  0  0  0  0
   -9.4860    0.4170  -24.2930 N   0  0  0  0  0  0  0  0  0  0  0  0
   -8.7310   -0.8150  -24.1550 C   0  0  0  0  0  0  0  0  0  0  0  0
   -9.0880   -1.5630  -22.8540 C   0  0  2  0  0  0  0  0  0  0  0  0
   -8.5530   -0.7840  -21.6320 C   0  0  0  0  0  0  0  0  0  0  0  0
   -9.0330    0.2110  -21.1230 O   0  0  0  0  0  0  0  0  0  0  0  0
   -7.4010   -1.3970  -21.1990 N   0  0  0  0  0  0  0  0  0  0  0  0
   -6.6030   -0.8220  -20.1760 C   0  0  0  0  0  0  0  0  0  0  0  0
   -6.9220   -1.0470  -18.8620 C   0  0  0  0  0  0  0  0  0  0  0  0
   -6.2260   -0.5480  -17.8100 N   0  0  0  0  0  0  0  0  0  0  0  0
   -5.1850    0.2030  -18.0800 C   0  0  0  0  0  0  0  0  0  0  0  0
   -4.7420    0.5160  -19.3950 C   0  0  0  0  0  0  0  0  0  0  0  0
   -3.6190    1.3500  -19.6390 C   0  0  0  0  0  0  0  0  0  0  0  0
   -3.2340    1.6490  -20.9170 C   0  0  0  0  0  0  0  0  0  0  0  0
   -3.9560    1.1330  -22.0180 C   0  0  0  0  0  0  0  0  0  0  0  0
   -5.0480    0.3230  -21.8100 C   0  0  0  0  0  0  0  0  0  0  0  0
   -5.4680   -0.0090  -20.4920 C   0  0  0  0  0  0  0  0  0  0  0  0
   -5.6100   -0.0410  -22.6670 H   0  0  0  0  0  0  0  0  0  0  0  0
   -3.6600    1.3870  -23.0310 H   0  0  0  0  0  0  0  0  0  0  0  0
   -2.3790    2.3000  -21.0940 H   0  0  0  0  0  0  0  0  0  0  0  0
   -3.0880    1.7610  -18.7850 H   0  0  0  0  0  0  0  0  0  0  0  0
   -4.6230    0.6020  -17.2340 H   0  0  0  0  0  0  0  0  0  0  0  0
   -7.7870   -1.6620  -18.6160 H   0  0  0  0  0  0  0  0  0  0  0  0
   -7.0410   -2.5900  -21.9350 C   0  0  0  0  0  0  0  0  0  0  0  0
   -8.3170   -2.9170  -22.7390 C   0  0  2  0  0  0  0  0  0  0  0  0
   -8.0420   -3.6890  -24.0410 C   0  0  0  0  0  0  0  0  0  0  0  0
   -7.4450   -5.3350  -23.6820 S   0  0  0  0  0  0  0  0  0  0  0  0
   -6.0850   -5.2550  -23.1710 O   0  0  0  0  0  0  0  0  0  0  0  0
   -8.4740   -6.0330  -22.9260 O   0  0  0  0  0  0  0  0  0  0  0  0
   -7.2860   -5.9850  -25.2110 N   0  0  0  0  0  0  0  0  0  0  0  0
   -8.4760   -6.3720  -25.9630 C   0  0  0  0  0  0  0  0  0  0  0  0
   -9.0000   -5.4790  -26.3120 H   0  0  0  0  0  0  0  0  0  0  0  0
   -9.1750   -6.9840  -25.3840 H   0  0  0  0  0  0  0  0  0  0  0  0
   -8.1570   -6.9310  -26.8500 H   0  0  0  0  0  0  0  0  0  0  0  0
   -6.6090   -6.7330  -25.1270 H   0  0  0  0  0  0  0  0  0  0  0  0
   -8.9570   -3.7990  -24.6350 H   0  0  0  0  0  0  0  0  0  0  0  0
   -7.2750   -3.2090  -24.6570 H   0  0  0  0  0  0  0  0  0  0  0  0
   -8.9300   -3.5790  -22.1280 H   0  0  0  0  0  0  0  0  0  0  0  0
   -6.1840   -2.4020  -22.5980 H   0  0  0  0  0  0  0  0  0  0  0  0
   -6.7590   -3.3950  -21.2500 H   0  0  0  0  0  0  0  0  0  0  0  0
  -10.6000   -1.6480  -22.7690 C   0  0  0  0  0  0  0  0  0  0  0  0
  -11.2170   -2.5580  -21.9040 C   0  0  0  0  0  0  0  0  0  0  0  0
  -12.5970   -2.5680  -21.7860 C   0  0  0  0  0  0  0  0  0  0  0  0
  -13.3480   -3.6360  -20.6350 Cl  0  0  0  0  0  0  0  0  0  0  0  0
  -13.4130   -1.7170  -22.5340 C   0  0  0  0  0  0  0  0  0  0  0  0
  -12.8100   -0.7920  -23.3590 C   0  0  0  0  0  0  0  0  0  0  0  0
  -11.4220   -0.7270  -23.4340 C   0  0  0  0  0  0  0  0  0  0  0  0
  -10.8460    0.4320  -24.1760 C   0  0  0  0  0  0  0  0  0  0  0  0
  -11.5440    1.3390  -24.6150 O   0  0  0  0  0  0  0  0  0  0  0  0
  -13.3840   -0.0620  -23.9190 H   0  0  0  0  0  0  0  0  0  0  0  0
  -14.4900   -1.7780  -22.4220 H   0  0  0  0  0  0  0  0  0  0  0  0
  -10.6240   -3.2430  -21.3040 H   0  0  0  0  0  0  0  0  0  0  0  0
   -7.6670   -0.5610  -24.1740 H   0  0  0  0  0  0  0  0  0  0  0  0
   -8.9490   -1.4720  -25.0050 H   0  0  0  0  0  0  0  0  0  0  0  0
   -9.6190    2.2920  -25.0940 H   0  0  0  0  0  0  0  0  0  0  0  0
   -8.2280    1.3250  -25.7030 H   0  0  0  0  0  0  0  0  0  0  0  0
   -9.3250    2.7720  -22.5130 H   0  0  0  0  0  0  0  0  0  0  0  0
   -6.8090    2.5130  -21.4590 H   0  0  0  0  0  0  0  0  0  0  0  0
   -6.7580    4.1070  -22.2020 H   0  0  0  0  0  0  0  0  0  0  0  0
   -7.9630    3.7810  -20.9400 H   0  0  0  0  0  0  0  0  0  0  0  0
  1  2  1  0  0  0  0
  1 62  1  0  0  0  0
  1 63  1  0  0  0  0
  1 64  1  0  0  0  0
  2  3  1  0  0  0  0
  2 61  1  0  0  0  0
  3  4  2  0  0  0  0
  3  5  1  0  0  0  0
  5  6  1  0  0  0  0
  5 59  1  0  0  0  0
  5 60  1  0  0  0  0
  6  7  1  0  0  0  0
  6 52  1  0  0  0  0
  7  8  1  0  0  0  0
  7 57  1  0  0  0  0
  7 58  1  0  0  0  0
  8  9  1  1  0  0  0
  8 29  1  0  0  0  0
  8 45  1  0  0  0  0
  9 10  2  0  0  0  0
  9 11  1  0  0  0  0
 11 12  1  0  0  0  0
 11 28  1  0  0  0  0
 12 13  2  0  0  0  0
 12 21  1  0  0  0  0
 13 14  1  0  0  0  0
 13 27  1  0  0  0  0
 14 15  2  0  0  0  0
 15 16  1  0  0  0  0
 15 26  1  0  0  0  0
 16 17  2  0  0  0  0
 16 21  1  0  0  0  0
 17 18  1  0  0  0  0
 17 25  1  0  0  0  0
 18 19  2  0  0  0  0
 18 24  1  0  0  0  0
 19 20  1  0  0  0  0
 19 23  1  0  0  0  0
 20 21  2  0  0  0  0
 20 22  1  0  0  0  0
 28 29  1  0  0  0  0
 28 43  1  0  0  0  0
 28 44  1  0  0  0  0
 29 30  1  0  0  0  0
 29 42  1  1  0  0  0
 30 31  1  0  0  0  0
 30 40  1  0  0  0  0
 30 41  1  0  0  0  0
 31 32  2  0  0  0  0
 31 33  2  0  0  0  0
 31 34  1  0  0  0  0
 34 35  1  0  0  0  0
 34 39  1  0  0  0  0
 35 36  1  0  0  0  0
 35 37  1  0  0  0  0
 35 38  1  0  0  0  0
 45 46  2  0  0  0  0
 45 51  1  0  0  0  0
 46 47  1  0  0  0  0
 46 56  1  0  0  0  0
 47 48  1  0  0  0  0
 47 49  2  0  0  0  0
 49 50  1  0  0  0  0
 49 55  1  0  0  0  0
 50 51  2  0  0  0  0
 50 54  1  0  0  0  0
 51 52  1  0  0  0  0
 52 53  2  0  0  0  0
M  END
>  <MODEL>
       1

$$$$
