tmp_first_model_3_50.pdb
 OpenBabel08272518143D

 66 70  0  0  1  0  0  0  0  0999 V2000
   -7.4520    3.3580  -21.8250 C   0  0  0  0  0  0  0  0  0  0  0  0
   -8.3570    2.8820  -22.8520 N   0  0  0  0  0  0  0  0  0  0  0  0
   -7.8390    2.1570  -23.8700 C   0  0  0  0  0  0  0  0  0  0  0  0
   -6.6300    2.0120  -24.0200 O   0  0  0  0  0  0  0  0  0  0  0  0
   -8.8440    1.5410  -24.8500 C   0  0  0  0  0  0  0  0  0  0  0  0
   -9.5400    0.3830  -24.3190 N   0  0  0  0  0  0  0  0  0  0  0  0
   -8.8050   -0.8620  -24.1800 C   0  0  0  0  0  0  0  0  0  0  0  0
   -9.1220   -1.5670  -22.8380 C   0  0  2  0  0  0  0  0  0  0  0  0
   -8.5390   -0.7490  -21.6530 C   0  0  0  0  0  0  0  0  0  0  0  0
   -8.9780    0.2790  -21.1820 O   0  0  0  0  0  0  0  0  0  0  0  0
   -7.4030   -1.3850  -21.2000 N   0  0  0  0  0  0  0  0  0  0  0  0
   -6.6060   -0.8090  -20.1730 C   0  0  0  0  0  0  0  0  0  0  0  0
   -6.9110   -1.0380  -18.8560 C   0  0  0  0  0  0  0  0  0  0  0  0
   -6.2080   -0.5430  -17.8060 N   0  0  0  0  0  0  0  0  0  0  0  0
   -5.1680    0.2100  -18.0770 C   0  0  0  0  0  0  0  0  0  0  0  0
   -4.7290    0.5270  -19.3930 C   0  0  0  0  0  0  0  0  0  0  0  0
   -3.6010    1.3580  -19.6410 C   0  0  0  0  0  0  0  0  0  0  0  0
   -3.2140    1.6470  -20.9210 C   0  0  0  0  0  0  0  0  0  0  0  0
   -3.9380    1.1190  -22.0150 C   0  0  0  0  0  0  0  0  0  0  0  0
   -5.0330    0.3140  -21.8000 C   0  0  0  0  0  0  0  0  0  0  0  0
   -5.4640    0.0000  -20.4840 C   0  0  0  0  0  0  0  0  0  0  0  0
   -5.5950   -0.0690  -22.6470 H   0  0  0  0  0  0  0  0  0  0  0  0
   -3.6440    1.3630  -23.0290 H   0  0  0  0  0  0  0  0  0  0  0  0
   -2.3610    2.2950  -21.1020 H   0  0  0  0  0  0  0  0  0  0  0  0
   -3.0720    1.7720  -18.7860 H   0  0  0  0  0  0  0  0  0  0  0  0
   -4.6180    0.6140  -17.2260 H   0  0  0  0  0  0  0  0  0  0  0  0
   -7.7600   -1.6660  -18.5970 H   0  0  0  0  0  0  0  0  0  0  0  0
   -7.0770   -2.6090  -21.9090 C   0  0  0  0  0  0  0  0  0  0  0  0
   -8.3660   -2.9280  -22.6980 C   0  0  2  0  0  0  0  0  0  0  0  0
   -8.0850   -3.6760  -24.0010 C   0  0  0  0  0  0  0  0  0  0  0  0
   -7.4670   -4.9170  -23.7080 O   0  0  0  0  0  0  0  0  0  0  0  0
   -7.3030   -5.7630  -24.8500 C   0  0  0  0  0  0  0  0  0  0  0  0
   -8.4380   -6.7860  -24.9200 C   0  0  0  0  0  0  0  0  0  0  0  0
   -8.4370   -7.4070  -24.0180 H   0  0  0  0  0  0  0  0  0  0  0  0
   -8.3140   -7.4380  -25.7940 H   0  0  0  0  0  0  0  0  0  0  0  0
   -9.4140   -6.2930  -25.0010 H   0  0  0  0  0  0  0  0  0  0  0  0
   -5.9400   -6.4430  -24.7580 C   0  0  0  0  0  0  0  0  0  0  0  0
   -5.8880   -7.0660  -23.8590 H   0  0  0  0  0  0  0  0  0  0  0  0
   -5.7720   -7.0810  -25.6340 H   0  0  0  0  0  0  0  0  0  0  0  0
   -5.1410   -5.6970  -24.7130 H   0  0  0  0  0  0  0  0  0  0  0  0
   -7.3280   -5.1360  -25.7590 H   0  0  0  0  0  0  0  0  0  0  0  0
   -9.0200   -3.8350  -24.5630 H   0  0  0  0  0  0  0  0  0  0  0  0
   -7.4130   -3.0830  -24.6450 H   0  0  0  0  0  0  0  0  0  0  0  0
   -8.9760   -3.5940  -22.0860 H   0  0  0  0  0  0  0  0  0  0  0  0
   -6.8060   -3.4020  -21.2020 H   0  0  0  0  0  0  0  0  0  0  0  0
   -6.2170   -2.4630  -22.5810 H   0  0  0  0  0  0  0  0  0  0  0  0
  -10.6330   -1.6250  -22.7110 C   0  0  0  0  0  0  0  0  0  0  0  0
  -11.2100   -2.5160  -21.8100 C   0  0  0  0  0  0  0  0  0  0  0  0
  -12.5730   -2.5290  -21.6270 C   0  0  0  0  0  0  0  0  0  0  0  0
  -13.0560   -3.3620  -20.6910 F   0  0  0  0  0  0  0  0  0  0  0  0
  -13.4290   -1.6910  -22.3360 C   0  0  0  0  0  0  0  0  0  0  0  0
  -12.8600   -0.7690  -23.1940 C   0  0  0  0  0  0  0  0  0  0  0  0
  -11.4740   -0.7050  -23.3570 C   0  0  0  0  0  0  0  0  0  0  0  0
  -10.9030    0.4210  -24.1640 C   0  0  0  0  0  0  0  0  0  0  0  0
  -11.5990    1.3180  -24.6170 O   0  0  0  0  0  0  0  0  0  0  0  0
  -13.4610   -0.0490  -23.7390 H   0  0  0  0  0  0  0  0  0  0  0  0
  -14.5020   -1.7440  -22.1910 H   0  0  0  0  0  0  0  0  0  0  0  0
  -10.6220   -3.1940  -21.2060 H   0  0  0  0  0  0  0  0  0  0  0  0
   -9.0510   -1.5470  -25.0080 H   0  0  0  0  0  0  0  0  0  0  0  0
   -7.7410   -0.6130  -24.2220 H   0  0  0  0  0  0  0  0  0  0  0  0
   -8.2550    1.2720  -25.7350 H   0  0  0  0  0  0  0  0  0  0  0  0
   -9.6280    2.2470  -25.1400 H   0  0  0  0  0  0  0  0  0  0  0  0
   -9.3520    2.8440  -22.6690 H   0  0  0  0  0  0  0  0  0  0  0  0
   -8.0420    3.8630  -21.0610 H   0  0  0  0  0  0  0  0  0  0  0  0
   -6.8770    2.5140  -21.4040 H   0  0  0  0  0  0  0  0  0  0  0  0
   -6.7390    4.0830  -22.2350 H   0  0  0  0  0  0  0  0  0  0  0  0
  1  2  1  0  0  0  0
  1 64  1  0  0  0  0
  1 65  1  0  0  0  0
  1 66  1  0  0  0  0
  2  3  1  0  0  0  0
  2 63  1  0  0  0  0
  3  4  2  0  0  0  0
  3  5  1  0  0  0  0
  5  6  1  0  0  0  0
  5 61  1  0  0  0  0
  5 62  1  0  0  0  0
  6  7  1  0  0  0  0
  6 54  1  0  0  0  0
  7  8  1  0  0  0  0
  7 59  1  0  0  0  0
  7 60  1  0  0  0  0
  8  9  1  1  0  0  0
  8 29  1  0  0  0  0
  8 47  1  0  0  0  0
  9 10  2  0  0  0  0
  9 11  1  0  0  0  0
 11 12  1  0  0  0  0
 11 28  1  0  0  0  0
 12 13  2  0  0  0  0
 12 21  1  0  0  0  0
 13 14  1  0  0  0  0
 13 27  1  0  0  0  0
 14 15  2  0  0  0  0
 15 16  1  0  0  0  0
 15 26  1  0  0  0  0
 16 17  2  0  0  0  0
 16 21  1  0  0  0  0
 17 18  1  0  0  0  0
 17 25  1  0  0  0  0
 18 19  2  0  0  0  0
 18 24  1  0  0  0  0
 19 20  1  0  0  0  0
 19 23  1  0  0  0  0
 20 21  2  0  0  0  0
 20 22  1  0  0  0  0
 28 29  1  0  0  0  0
 28 45  1  0  0  0  0
 28 46  1  0  0  0  0
 29 30  1  0  0  0  0
 29 44  1  1  0  0  0
 30 31  1  0  0  0  0
 30 42  1  0  0  0  0
 30 43  1  0  0  0  0
 31 32  1  0  0  0  0
 32 33  1  0  0  0  0
 32 37  1  0  0  0  0
 32 41  1  0  0  0  0
 33 34  1  0  0  0  0
 33 35  1  0  0  0  0
 33 36  1  0  0  0  0
 37 38  1  0  0  0  0
 37 39  1  0  0  0  0
 37 40  1  0  0  0  0
 47 48  2  0  0  0  0
 47 53  1  0  0  0  0
 48 49  1  0  0  0  0
 48 58  1  0  0  0  0
 49 50  1  0  0  0  0
 49 51  2  0  0  0  0
 51 52  1  0  0  0  0
 51 57  1  0  0  0  0
 52 53  2  0  0  0  0
 52 56  1  0  0  0  0
 53 54  1  0  0  0  0
 54 55  2  0  0  0  0
M  END
>  <MODEL>
       1

$$$$
