tmp_first_model_18_63.pdb
 OpenBabel08282502533D

 57 61  0  0  1  0  0  0  0  0999 V2000
   -8.0390    4.5350  -24.3870 C   0  0  0  0  0  0  0  0  0  0  0  0
   -8.0480    3.3100  -25.1580 N   0  0  0  0  0  0  0  0  0  0  0  0
   -7.2940    2.2570  -24.7450 C   0  0  0  0  0  0  0  0  0  0  0  0
   -6.5230    2.3180  -23.8000 O   0  0  0  0  0  0  0  0  0  0  0  0
   -7.4710    0.9810  -25.5690 C   0  0  0  0  0  0  0  0  0  0  0  0
   -8.4400    0.0920  -24.9470 N   0  0  0  0  0  0  0  0  0  0  0  0
   -8.0270   -1.1960  -24.4070 C   0  0  0  0  0  0  0  0  0  0  0  0
   -8.8230   -1.5570  -23.1180 C   0  0  2  0  0  0  0  0  0  0  0  0
   -8.3630   -0.6560  -21.9420 C   0  0  0  0  0  0  0  0  0  0  0  0
   -8.7190    0.4710  -21.6760 O   0  0  0  0  0  0  0  0  0  0  0  0
   -7.4320   -1.3710  -21.2130 N   0  0  0  0  0  0  0  0  0  0  0  0
   -6.6390   -0.7970  -20.1920 C   0  0  0  0  0  0  0  0  0  0  0  0
   -6.9290   -1.0730  -18.8830 C   0  0  0  0  0  0  0  0  0  0  0  0
   -6.2440   -0.5830  -17.8200 N   0  0  0  0  0  0  0  0  0  0  0  0
   -5.2170    0.1900  -18.0840 C   0  0  0  0  0  0  0  0  0  0  0  0
   -4.7760    0.5150  -19.3960 C   0  0  0  0  0  0  0  0  0  0  0  0
   -3.6390    1.3330  -19.6190 C   0  0  0  0  0  0  0  0  0  0  0  0
   -3.2160    1.6070  -20.8870 C   0  0  0  0  0  0  0  0  0  0  0  0
   -3.9170    1.0820  -22.0000 C   0  0  0  0  0  0  0  0  0  0  0  0
   -5.0270    0.2980  -21.8120 C   0  0  0  0  0  0  0  0  0  0  0  0
   -5.4920   -0.0000  -20.5030 C   0  0  0  0  0  0  0  0  0  0  0  0
   -5.5660   -0.0780  -22.6810 H   0  0  0  0  0  0  0  0  0  0  0  0
   -3.5850    1.3190  -23.0060 H   0  0  0  0  0  0  0  0  0  0  0  0
   -2.3430    2.2320  -21.0510 H   0  0  0  0  0  0  0  0  0  0  0  0
   -3.1210    1.7330  -18.7500 H   0  0  0  0  0  0  0  0  0  0  0  0
   -4.6690    0.6000  -17.2350 H   0  0  0  0  0  0  0  0  0  0  0  0
   -7.7760   -1.7220  -18.6560 H   0  0  0  0  0  0  0  0  0  0  0  0
   -7.2170   -2.7270  -21.6670 C   0  0  0  0  0  0  0  0  0  0  0  0
   -8.4250   -2.9600  -22.5840 C   0  0  2  0  0  0  0  0  0  0  0  0
   -8.2070   -4.0310  -23.6470 C   0  0  0  0  0  0  0  0  0  0  0  0
   -8.1050   -5.3240  -23.0810 O   0  0  0  0  0  0  0  0  0  0  0  0
   -7.2610   -5.3660  -22.6150 H   0  0  0  0  0  0  0  0  0  0  0  0
   -9.0670   -4.0410  -24.3280 H   0  0  0  0  0  0  0  0  0  0  0  0
   -7.3050   -3.7930  -24.2380 H   0  0  0  0  0  0  0  0  0  0  0  0
   -9.2230   -3.3180  -21.9300 H   0  0  0  0  0  0  0  0  0  0  0  0
   -7.1980   -3.4130  -20.8140 H   0  0  0  0  0  0  0  0  0  0  0  0
   -6.2540   -2.8340  -22.1940 H   0  0  0  0  0  0  0  0  0  0  0  0
  -10.2980   -1.3760  -23.4220 C   0  0  0  0  0  0  0  0  0  0  0  0
  -11.2760   -2.0130  -22.6460 C   0  0  0  0  0  0  0  0  0  0  0  0
  -12.6160   -1.7380  -22.8440 C   0  0  0  0  0  0  0  0  0  0  0  0
  -13.7710   -2.4410  -21.7480 Cl  0  0  0  0  0  0  0  0  0  0  0  0
  -13.0490   -0.9170  -23.8870 C   0  0  0  0  0  0  0  0  0  0  0  0
  -12.0900   -0.3140  -24.6800 C   0  0  0  0  0  0  0  0  0  0  0  0
  -10.7320   -0.4880  -24.4170 C   0  0  0  0  0  0  0  0  0  0  0  0
   -9.7560    0.3720  -25.1580 C   0  0  0  0  0  0  0  0  0  0  0  0
  -10.1140    1.3060  -25.8770 O   0  0  0  0  0  0  0  0  0  0  0  0
  -12.3720    0.2840  -25.5400 H   0  0  0  0  0  0  0  0  0  0  0  0
  -14.1050   -0.7370  -24.0530 H   0  0  0  0  0  0  0  0  0  0  0  0
  -11.0240   -2.7330  -21.8780 H   0  0  0  0  0  0  0  0  0  0  0  0
   -8.1960   -1.9760  -25.1670 H   0  0  0  0  0  0  0  0  0  0  0  0
   -6.9520   -1.1440  -24.1930 H   0  0  0  0  0  0  0  0  0  0  0  0
   -6.5160    0.4600  -25.6500 H   0  0  0  0  0  0  0  0  0  0  0  0
   -7.8110    1.2400  -26.5750 H   0  0  0  0  0  0  0  0  0  0  0  0
   -8.8800    3.0680  -25.6790 H   0  0  0  0  0  0  0  0  0  0  0  0
   -8.4720    4.3840  -23.3910 H   0  0  0  0  0  0  0  0  0  0  0  0
   -8.6110    5.2890  -24.9300 H   0  0  0  0  0  0  0  0  0  0  0  0
   -7.0090    4.8810  -24.2690 H   0  0  0  0  0  0  0  0  0  0  0  0
  1  2  1  0  0  0  0
  1 55  1  0  0  0  0
  1 56  1  0  0  0  0
  1 57  1  0  0  0  0
  2  3  1  0  0  0  0
  2 54  1  0  0  0  0
  3  4  2  0  0  0  0
  3  5  1  0  0  0  0
  5  6  1  0  0  0  0
  5 52  1  0  0  0  0
  5 53  1  0  0  0  0
  6  7  1  0  0  0  0
  6 45  1  0  0  0  0
  7  8  1  0  0  0  0
  7 50  1  0  0  0  0
  7 51  1  0  0  0  0
  8  9  1  1  0  0  0
  8 29  1  0  0  0  0
  8 38  1  0  0  0  0
  9 10  2  0  0  0  0
  9 11  1  0  0  0  0
 11 12  1  0  0  0  0
 11 28  1  0  0  0  0
 12 13  2  0  0  0  0
 12 21  1  0  0  0  0
 13 14  1  0  0  0  0
 13 27  1  0  0  0  0
 14 15  2  0  0  0  0
 15 16  1  0  0  0  0
 15 26  1  0  0  0  0
 16 17  2  0  0  0  0
 16 21  1  0  0  0  0
 17 18  1  0  0  0  0
 17 25  1  0  0  0  0
 18 19  2  0  0  0  0
 18 24  1  0  0  0  0
 19 20  1  0  0  0  0
 19 23  1  0  0  0  0
 20 21  2  0  0  0  0
 20 22  1  0  0  0  0
 28 29  1  0  0  0  0
 28 36  1  0  0  0  0
 28 37  1  0  0  0  0
 29 30  1  0  0  0  0
 29 35  1  1  0  0  0
 30 31  1  0  0  0  0
 30 33  1  0  0  0  0
 30 34  1  0  0  0  0
 31 32  1  0  0  0  0
 38 39  2  0  0  0  0
 38 44  1  0  0  0  0
 39 40  1  0  0  0  0
 39 49  1  0  0  0  0
 40 41  1  0  0  0  0
 40 42  2  0  0  0  0
 42 43  1  0  0  0  0
 42 48  1  0  0  0  0
 43 44  2  0  0  0  0
 43 47  1  0  0  0  0
 44 45  1  0  0  0  0
 45 46  2  0  0  0  0
M  END
>  <MODEL>
       1

$$$$
