tmp_first_model_14_60.pdb
 OpenBabel08282500413D

 62 67  0  0  1  0  0  0  0  0999 V2000
  -11.3120    4.3970  -25.1790 C   0  0  0  0  0  0  0  0  0  0  0  0
   -9.8310    4.1690  -25.5050 C   0  0  0  0  0  0  0  0  0  0  0  0
   -9.0600    3.5800  -24.4130 N   0  0  0  0  0  0  0  0  0  0  0  0
   -8.4940    4.4170  -23.5240 N   0  0  0  0  0  0  0  0  0  0  0  0
   -7.9010    3.6400  -22.6280 C   0  0  0  0  0  0  0  0  0  0  0  0
   -8.0890    2.2780  -22.9410 C   0  0  0  0  0  0  0  0  0  0  0  0
   -8.8420    2.2710  -24.0910 C   0  0  0  0  0  0  0  0  0  0  0  0
   -9.2280    1.0620  -24.8870 C   0  0  0  0  0  0  0  0  0  0  0  0
   -9.8280   -0.0070  -24.0960 N   0  0  0  0  0  0  0  0  0  0  0  0
   -9.0390   -1.2190  -23.9700 C   0  0  0  0  0  0  0  0  0  0  0  0
   -9.2250   -1.9260  -22.6080 C   0  0  2  0  0  0  0  0  0  0  0  0
   -8.6640   -1.0340  -21.4650 C   0  0  0  0  0  0  0  0  0  0  0  0
   -9.2280   -0.1130  -20.9100 O   0  0  0  0  0  0  0  0  0  0  0  0
   -7.3750   -1.4350  -21.1960 N   0  0  0  0  0  0  0  0  0  0  0  0
   -6.6000   -0.8230  -20.1770 C   0  0  0  0  0  0  0  0  0  0  0  0
   -6.9140   -1.0320  -18.8580 C   0  0  0  0  0  0  0  0  0  0  0  0
   -6.2170   -0.5100  -17.8230 N   0  0  0  0  0  0  0  0  0  0  0  0
   -5.1690    0.2250  -18.0910 C   0  0  0  0  0  0  0  0  0  0  0  0
   -4.7290    0.5270  -19.4090 C   0  0  0  0  0  0  0  0  0  0  0  0
   -3.6020    1.3600  -19.6460 C   0  0  0  0  0  0  0  0  0  0  0  0
   -3.2240    1.6610  -20.9250 C   0  0  0  0  0  0  0  0  0  0  0  0
   -3.9540    1.1380  -22.0160 C   0  0  0  0  0  0  0  0  0  0  0  0
   -5.0460    0.3270  -21.8090 C   0  0  0  0  0  0  0  0  0  0  0  0
   -5.4630   -0.0050  -20.4930 C   0  0  0  0  0  0  0  0  0  0  0  0
   -5.6020   -0.0600  -22.6570 H   0  0  0  0  0  0  0  0  0  0  0  0
   -3.6560    1.3910  -23.0290 H   0  0  0  0  0  0  0  0  0  0  0  0
   -2.3760    2.3170  -21.1060 H   0  0  0  0  0  0  0  0  0  0  0  0
   -3.0730    1.7700  -18.7890 H   0  0  0  0  0  0  0  0  0  0  0  0
   -4.6150    0.6210  -17.2400 H   0  0  0  0  0  0  0  0  0  0  0  0
   -7.7550   -1.6650  -18.5840 H   0  0  0  0  0  0  0  0  0  0  0  0
   -6.9630   -2.6160  -21.9350 C   0  0  0  0  0  0  0  0  0  0  0  0
   -8.2900   -3.1680  -22.5040 C   0  0  2  0  0  0  0  0  0  0  0  0
   -8.0940   -3.9890  -23.7810 C   0  0  0  0  0  0  0  0  0  0  0  0
   -7.5570   -3.4110  -24.5430 H   0  0  0  0  0  0  0  0  0  0  0  0
   -7.5060   -4.8910  -23.5830 H   0  0  0  0  0  0  0  0  0  0  0  0
   -9.0490   -4.3000  -24.2190 H   0  0  0  0  0  0  0  0  0  0  0  0
   -8.7270   -3.8060  -21.7300 H   0  0  0  0  0  0  0  0  0  0  0  0
   -6.4590   -3.3250  -21.2690 H   0  0  0  0  0  0  0  0  0  0  0  0
   -6.2560   -2.3640  -22.7410 H   0  0  0  0  0  0  0  0  0  0  0  0
  -10.7130   -2.1600  -22.4290 C   0  0  0  0  0  0  0  0  0  0  0  0
  -11.2320   -3.2370  -21.6980 C   0  0  0  0  0  0  0  0  0  0  0  0
  -12.5890   -3.2830  -21.4460 C   0  0  0  0  0  0  0  0  0  0  0  0
  -13.0870   -4.2320  -20.6390 F   0  0  0  0  0  0  0  0  0  0  0  0
  -13.4830   -2.3470  -21.9430 C   0  0  0  0  0  0  0  0  0  0  0  0
  -12.9760   -1.2810  -22.6560 C   0  0  0  0  0  0  0  0  0  0  0  0
  -11.6020   -1.1790  -22.8930 C   0  0  0  0  0  0  0  0  0  0  0  0
  -11.1060    0.0510  -23.6090 C   0  0  0  0  0  0  0  0  0  0  0  0
  -11.8410    1.0220  -23.7190 O   0  0  0  0  0  0  0  0  0  0  0  0
  -13.6250   -0.4920  -23.0190 H   0  0  0  0  0  0  0  0  0  0  0  0
  -14.5370   -2.4780  -21.7220 H   0  0  0  0  0  0  0  0  0  0  0  0
  -10.5980   -3.9990  -21.2590 H   0  0  0  0  0  0  0  0  0  0  0  0
   -9.2990   -1.9250  -24.7730 H   0  0  0  0  0  0  0  0  0  0  0  0
   -7.9880   -0.9320  -24.0720 H   0  0  0  0  0  0  0  0  0  0  0  0
   -9.8280    1.3410  -25.7430 H   0  0  0  0  0  0  0  0  0  0  0  0
   -8.3260    0.6150  -25.3160 H   0  0  0  0  0  0  0  0  0  0  0  0
   -7.7570    1.3870  -22.4260 H   0  0  0  0  0  0  0  0  0  0  0  0
   -7.3620    4.1050  -21.8070 H   0  0  0  0  0  0  0  0  0  0  0  0
   -9.3400    5.1260  -25.7070 H   0  0  0  0  0  0  0  0  0  0  0  0
   -9.6860    3.5450  -26.3950 H   0  0  0  0  0  0  0  0  0  0  0  0
  -11.8330    3.4900  -24.8630 H   0  0  0  0  0  0  0  0  0  0  0  0
  -11.4210    5.1270  -24.3720 H   0  0  0  0  0  0  0  0  0  0  0  0
  -11.8120    4.7950  -26.0680 H   0  0  0  0  0  0  0  0  0  0  0  0
  1  2  1  0  0  0  0
  1 60  1  0  0  0  0
  1 61  1  0  0  0  0
  1 62  1  0  0  0  0
  2  3  1  0  0  0  0
  2 58  1  0  0  0  0
  2 59  1  0  0  0  0
  3  4  1  0  0  0  0
  3  7  1  0  0  0  0
  4  5  2  0  0  0  0
  5  6  1  0  0  0  0
  5 57  1  0  0  0  0
  6  7  2  0  0  0  0
  6 56  1  0  0  0  0
  7  8  1  0  0  0  0
  8  9  1  0  0  0  0
  8 54  1  0  0  0  0
  8 55  1  0  0  0  0
  9 10  1  0  0  0  0
  9 47  1  0  0  0  0
 10 11  1  0  0  0  0
 10 52  1  0  0  0  0
 10 53  1  0  0  0  0
 11 12  1  1  0  0  0
 11 32  1  0  0  0  0
 11 40  1  0  0  0  0
 12 13  2  0  0  0  0
 12 14  1  0  0  0  0
 14 15  1  0  0  0  0
 14 31  1  0  0  0  0
 15 16  2  0  0  0  0
 15 24  1  0  0  0  0
 16 17  1  0  0  0  0
 16 30  1  0  0  0  0
 17 18  2  0  0  0  0
 18 19  1  0  0  0  0
 18 29  1  0  0  0  0
 19 20  2  0  0  0  0
 19 24  1  0  0  0  0
 20 21  1  0  0  0  0
 20 28  1  0  0  0  0
 21 22  2  0  0  0  0
 21 27  1  0  0  0  0
 22 23  1  0  0  0  0
 22 26  1  0  0  0  0
 23 24  2  0  0  0  0
 23 25  1  0  0  0  0
 31 32  1  0  0  0  0
 31 38  1  0  0  0  0
 31 39  1  0  0  0  0
 32 33  1  0  0  0  0
 32 37  1  1  0  0  0
 33 34  1  0  0  0  0
 33 35  1  0  0  0  0
 33 36  1  0  0  0  0
 40 41  2  0  0  0  0
 40 46  1  0  0  0  0
 41 42  1  0  0  0  0
 41 51  1  0  0  0  0
 42 43  1  0  0  0  0
 42 44  2  0  0  0  0
 44 45  1  0  0  0  0
 44 50  1  0  0  0  0
 45 46  2  0  0  0  0
 45 49  1  0  0  0  0
 46 47  1  0  0  0  0
 47 48  2  0  0  0  0
M  END
>  <MODEL>
       1

$$$$
