tmp_first_model_5_36.pdb
 OpenBabel08272519233D

 47 50  0  0  1  0  0  0  0  0999 V2000
   -8.8250    0.4790  -21.0760 O   0  0  0  0  0  0  0  0  0  0  0  0
   -8.4540   -0.4400  -21.7910 C   0  0  0  0  0  0  0  0  0  0  0  0
   -7.4640   -1.4940  -21.2650 C   0  0  0  0  0  0  0  0  0  0  0  0
   -6.5730   -0.9870  -20.1840 C   0  0  0  0  0  0  0  0  0  0  0  0
   -6.8220   -1.2380  -18.8610 C   0  0  0  0  0  0  0  0  0  0  0  0
   -5.9250   -1.0310  -17.8650 N   0  0  0  0  0  0  0  0  0  0  0  0
   -4.7740   -0.5060  -18.2120 C   0  0  0  0  0  0  0  0  0  0  0  0
   -4.4470   -0.0560  -19.5220 C   0  0  0  0  0  0  0  0  0  0  0  0
   -3.2830    0.7090  -19.7910 C   0  0  0  0  0  0  0  0  0  0  0  0
   -3.1620    1.3900  -20.9680 C   0  0  0  0  0  0  0  0  0  0  0  0
   -4.0930    1.1680  -22.0150 C   0  0  0  0  0  0  0  0  0  0  0  0
   -5.1500    0.3130  -21.8320 C   0  0  0  0  0  0  0  0  0  0  0  0
   -5.3960   -0.2590  -20.5450 C   0  0  0  0  0  0  0  0  0  0  0  0
   -5.7950    0.1090  -22.6880 H   0  0  0  0  0  0  0  0  0  0  0  0
   -3.9420    1.6730  -22.9670 H   0  0  0  0  0  0  0  0  0  0  0  0
   -2.2880    2.0020  -21.1580 H   0  0  0  0  0  0  0  0  0  0  0  0
   -2.5530    0.8430  -19.0020 H   0  0  0  0  0  0  0  0  0  0  0  0
   -4.0440   -0.4000  -17.4130 H   0  0  0  0  0  0  0  0  0  0  0  0
   -7.7740   -1.6770  -18.5540 H   0  0  0  0  0  0  0  0  0  0  0  0
   -6.8050   -1.8730  -22.0540 H   0  0  0  0  0  0  0  0  0  0  0  0
   -8.0620   -2.3470  -20.9050 H   0  0  0  0  0  0  0  0  0  0  0  0
   -8.9280   -0.6040  -23.0640 N   0  0  0  0  0  0  0  0  0  0  0  0
   -9.7820    0.4460  -23.6110 C   0  0  0  0  0  0  0  0  0  0  0  0
  -10.9400   -0.1900  -24.3570 C   0  0  0  0  0  0  0  0  0  0  0  0
  -10.4380   -1.1590  -25.4250 C   0  0  0  0  0  0  0  0  0  0  0  0
   -9.4910   -2.2130  -24.8570 C   0  0  0  0  0  0  0  0  0  0  0  0
   -8.4070   -1.6530  -23.9330 C   0  0  1  0  0  0  0  0  0  0  0  0
   -7.1010   -1.2640  -24.6340 C   0  0  0  0  0  0  0  0  0  0  0  0
   -6.0830   -2.2160  -24.7610 C   0  0  0  0  0  0  0  0  0  0  0  0
   -4.8730   -1.9070  -25.3790 C   0  0  0  0  0  0  0  0  0  0  0  0
   -4.6540   -0.6230  -25.8730 C   0  0  0  0  0  0  0  0  0  0  0  0
   -5.6620    0.3310  -25.7580 C   0  0  0  0  0  0  0  0  0  0  0  0
   -6.8700    0.0120  -25.1490 C   0  0  0  0  0  0  0  0  0  0  0  0
   -7.6220    0.7880  -25.0720 H   0  0  0  0  0  0  0  0  0  0  0  0
   -5.5140    1.3430  -26.1280 H   0  0  0  0  0  0  0  0  0  0  0  0
   -3.7110   -0.3630  -26.3470 H   0  0  0  0  0  0  0  0  0  0  0  0
   -4.0970   -2.6660  -25.4590 H   0  0  0  0  0  0  0  0  0  0  0  0
   -6.2320   -3.2190  -24.3620 H   0  0  0  0  0  0  0  0  0  0  0  0
   -8.1510   -2.4860  -23.2740 H   0  0  0  0  0  0  0  0  0  0  0  0
   -8.9980   -2.7670  -25.6640 H   0  0  0  0  0  0  0  0  0  0  0  0
  -10.0630   -2.9540  -24.2860 H   0  0  0  0  0  0  0  0  0  0  0  0
   -9.9270   -0.6060  -26.2280 H   0  0  0  0  0  0  0  0  0  0  0  0
  -11.2990   -1.6830  -25.8490 H   0  0  0  0  0  0  0  0  0  0  0  0
  -11.5460    0.5950  -24.8210 H   0  0  0  0  0  0  0  0  0  0  0  0
  -11.5750   -0.7160  -23.6330 H   0  0  0  0  0  0  0  0  0  0  0  0
  -10.1300    1.0610  -22.7800 H   0  0  0  0  0  0  0  0  0  0  0  0
   -9.2300    1.1170  -24.2840 H   0  0  0  0  0  0  0  0  0  0  0  0
  1  2  2  0  0  0  0
  2  3  1  0  0  0  0
  2 22  1  0  0  0  0
  3  4  1  0  0  0  0
  3 20  1  0  0  0  0
  3 21  1  0  0  0  0
  4  5  2  0  0  0  0
  4 13  1  0  0  0  0
  5  6  1  0  0  0  0
  5 19  1  0  0  0  0
  6  7  2  0  0  0  0
  7  8  1  0  0  0  0
  7 18  1  0  0  0  0
  8  9  2  0  0  0  0
  8 13  1  0  0  0  0
  9 10  1  0  0  0  0
  9 17  1  0  0  0  0
 10 11  2  0  0  0  0
 10 16  1  0  0  0  0
 11 12  1  0  0  0  0
 11 15  1  0  0  0  0
 12 13  2  0  0  0  0
 12 14  1  0  0  0  0
 22 23  1  0  0  0  0
 22 27  1  0  0  0  0
 23 24  1  0  0  0  0
 23 46  1  0  0  0  0
 23 47  1  0  0  0  0
 24 25  1  0  0  0  0
 24 44  1  0  0  0  0
 24 45  1  0  0  0  0
 25 26  1  0  0  0  0
 25 42  1  0  0  0  0
 25 43  1  0  0  0  0
 26 27  1  0  0  0  0
 26 40  1  0  0  0  0
 26 41  1  0  0  0  0
 27 28  1  0  0  0  0
 27 39  1  1  0  0  0
 28 29  2  0  0  0  0
 28 33  1  0  0  0  0
 29 30  1  0  0  0  0
 29 38  1  0  0  0  0
 30 31  2  0  0  0  0
 30 37  1  0  0  0  0
 31 32  1  0  0  0  0
 31 36  1  0  0  0  0
 32 33  2  0  0  0  0
 32 35  1  0  0  0  0
 33 34  1  0  0  0  0
M  END
>  <MODEL>
       1

$$$$
