tmp_first_model_1_88.pdb
 OpenBabel08272517043D

 40 42  0  0  0  0  0  0  0  0999 V2000
   -5.5910   -2.9750  -21.6790 O   0  0  0  0  0  0  0  0  0  0  0  0
   -6.7930   -2.8000  -21.7770 C   0  0  0  0  0  0  0  0  0  0  0  0
   -7.4240   -1.4830  -21.2560 C   0  0  0  0  0  0  0  0  0  0  0  0
   -6.5830   -0.8240  -20.1820 C   0  0  0  0  0  0  0  0  0  0  0  0
   -6.8730   -1.0420  -18.8620 C   0  0  0  0  0  0  0  0  0  0  0  0
   -6.1830   -0.5490  -17.8010 N   0  0  0  0  0  0  0  0  0  0  0  0
   -5.1580    0.2220  -18.0650 C   0  0  0  0  0  0  0  0  0  0  0  0
   -4.7210    0.5330  -19.3800 C   0  0  0  0  0  0  0  0  0  0  0  0
   -3.5920    1.3600  -19.6200 C   0  0  0  0  0  0  0  0  0  0  0  0
   -3.1890    1.6340  -20.8980 C   0  0  0  0  0  0  0  0  0  0  0  0
   -3.8990    1.0890  -21.9910 C   0  0  0  0  0  0  0  0  0  0  0  0
   -4.9960    0.2900  -21.7860 C   0  0  0  0  0  0  0  0  0  0  0  0
   -5.4440   -0.0090  -20.4730 C   0  0  0  0  0  0  0  0  0  0  0  0
   -5.5170   -0.1370  -22.6360 H   0  0  0  0  0  0  0  0  0  0  0  0
   -3.5700    1.3090  -23.0030 H   0  0  0  0  0  0  0  0  0  0  0  0
   -2.3270    2.2710  -21.0850 H   0  0  0  0  0  0  0  0  0  0  0  0
   -3.0550    1.7750  -18.7680 H   0  0  0  0  0  0  0  0  0  0  0  0
   -4.6030    0.6280  -17.2160 H   0  0  0  0  0  0  0  0  0  0  0  0
   -7.7190   -1.6690  -18.5860 H   0  0  0  0  0  0  0  0  0  0  0  0
   -8.4250   -1.6860  -20.8470 H   0  0  0  0  0  0  0  0  0  0  0  0
   -7.5650   -0.7900  -22.0960 H   0  0  0  0  0  0  0  0  0  0  0  0
   -7.6220   -3.7650  -22.3130 N   0  0  0  0  0  0  0  0  0  0  0  0
   -7.2640   -5.1760  -22.1480 C   0  0  0  0  0  0  0  0  0  0  0  0
   -7.5550   -6.0030  -23.3930 C   0  0  0  0  0  0  0  0  0  0  0  0
   -9.0000   -5.8130  -23.8420 C   0  0  0  0  0  0  0  0  0  0  0  0
   -9.3380   -6.6250  -25.0770 C   0  0  0  0  0  0  0  0  0  0  0  0
   -8.5100   -6.2790  -26.1060 F   0  0  0  0  0  0  0  0  0  0  0  0
   -9.1470   -7.9590  -24.8530 F   0  0  0  0  0  0  0  0  0  0  0  0
  -10.3710   -6.4890  -25.4260 H   0  0  0  0  0  0  0  0  0  0  0  0
   -9.2790   -4.3320  -24.0550 C   0  0  0  0  0  0  0  0  0  0  0  0
   -8.9710   -3.5170  -22.8030 C   0  0  0  0  0  0  0  0  0  0  0  0
   -9.7200   -3.7520  -22.0320 H   0  0  0  0  0  0  0  0  0  0  0  0
   -9.0770   -2.4580  -23.0360 H   0  0  0  0  0  0  0  0  0  0  0  0
   -8.6820   -3.9670  -24.8960 H   0  0  0  0  0  0  0  0  0  0  0  0
  -10.3270   -4.1840  -24.3390 H   0  0  0  0  0  0  0  0  0  0  0  0
   -9.6680   -6.1930  -23.0640 H   0  0  0  0  0  0  0  0  0  0  0  0
   -6.8800   -5.7050  -24.1980 H   0  0  0  0  0  0  0  0  0  0  0  0
   -7.3570   -7.0620  -23.1960 H   0  0  0  0  0  0  0  0  0  0  0  0
   -6.2080   -5.2330  -21.8910 H   0  0  0  0  0  0  0  0  0  0  0  0
   -7.8180   -5.6140  -21.3060 H   0  0  0  0  0  0  0  0  0  0  0  0
  1  2  2  0  0  0  0
  2  3  1  0  0  0  0
  2 22  1  0  0  0  0
  3  4  1  0  0  0  0
  3 20  1  0  0  0  0
  3 21  1  0  0  0  0
  4  5  2  0  0  0  0
  4 13  1  0  0  0  0
  5  6  1  0  0  0  0
  5 19  1  0  0  0  0
  6  7  2  0  0  0  0
  7  8  1  0  0  0  0
  7 18  1  0  0  0  0
  8  9  2  0  0  0  0
  8 13  1  0  0  0  0
  9 10  1  0  0  0  0
  9 17  1  0  0  0  0
 10 11  2  0  0  0  0
 10 16  1  0  0  0  0
 11 12  1  0  0  0  0
 11 15  1  0  0  0  0
 12 13  2  0  0  0  0
 12 14  1  0  0  0  0
 22 23  1  0  0  0  0
 22 31  1  0  0  0  0
 23 24  1  0  0  0  0
 23 39  1  0  0  0  0
 23 40  1  0  0  0  0
 24 25  1  0  0  0  0
 24 37  1  0  0  0  0
 24 38  1  0  0  0  0
 25 26  1  0  0  0  0
 25 30  1  0  0  0  0
 25 36  1  0  0  0  0
 26 27  1  0  0  0  0
 26 28  1  0  0  0  0
 26 29  1  0  0  0  0
 30 31  1  0  0  0  0
 30 34  1  0  0  0  0
 30 35  1  0  0  0  0
 31 32  1  0  0  0  0
 31 33  1  0  0  0  0
M  END
>  <MODEL>
       1

$$$$
