tmp_first_model_5_50.pdb
 OpenBabel08272519233D

 66 70  0  0  1  0  0  0  0  0999 V2000
   -8.0650    4.5680  -24.3040 C   0  0  0  0  0  0  0  0  0  0  0  0
   -8.0970    3.3470  -25.0720 N   0  0  0  0  0  0  0  0  0  0  0  0
   -7.1780    2.3760  -24.8580 C   0  0  0  0  0  0  0  0  0  0  0  0
   -6.1630    2.5380  -24.1950 O   0  0  0  0  0  0  0  0  0  0  0  0
   -7.4930    1.0400  -25.5470 C   0  0  0  0  0  0  0  0  0  0  0  0
   -8.4240    0.2130  -24.7880 N   0  0  0  0  0  0  0  0  0  0  0  0
   -7.9810   -1.0870  -24.2960 C   0  0  0  0  0  0  0  0  0  0  0  0
   -8.7810   -1.5750  -23.0470 C   0  0  2  0  0  0  0  0  0  0  0  0
   -8.3110   -0.7740  -21.7950 C   0  0  0  0  0  0  0  0  0  0  0  0
   -8.6810    0.3250  -21.4490 O   0  0  0  0  0  0  0  0  0  0  0  0
   -7.3790   -1.5470  -21.1230 N   0  0  0  0  0  0  0  0  0  0  0  0
   -6.4660   -1.0710  -20.1390 C   0  0  0  0  0  0  0  0  0  0  0  0
   -6.6070   -1.4700  -18.8350 C   0  0  0  0  0  0  0  0  0  0  0  0
   -5.6330   -1.3660  -17.8950 N   0  0  0  0  0  0  0  0  0  0  0  0
   -4.5140   -0.7740  -18.2360 C   0  0  0  0  0  0  0  0  0  0  0  0
   -4.3000   -0.1670  -19.5010 C   0  0  0  0  0  0  0  0  0  0  0  0
   -3.1710    0.6610  -19.7540 C   0  0  0  0  0  0  0  0  0  0  0  0
   -3.1250    1.4300  -20.8830 C   0  0  0  0  0  0  0  0  0  0  0  0
   -4.1320    1.3160  -21.8670 C   0  0  0  0  0  0  0  0  0  0  0  0
   -5.2060    0.4890  -21.6640 C   0  0  0  0  0  0  0  0  0  0  0  0
   -5.3270   -0.2650  -20.4680 C   0  0  0  0  0  0  0  0  0  0  0  0
   -5.9990    0.4490  -22.4000 H   0  0  0  0  0  0  0  0  0  0  0  0
   -4.0670    1.8700  -22.7960 H   0  0  0  0  0  0  0  0  0  0  0  0
   -2.2920    2.1030  -21.0550 H   0  0  0  0  0  0  0  0  0  0  0  0
   -2.4220    0.7570  -18.9750 H   0  0  0  0  0  0  0  0  0  0  0  0
   -3.7210   -0.7020  -17.4840 H   0  0  0  0  0  0  0  0  0  0  0  0
   -7.5420   -1.9240  -18.5070 H   0  0  0  0  0  0  0  0  0  0  0  0
   -7.1200   -2.8200  -21.7730 C   0  0  0  0  0  0  0  0  0  0  0  0
   -8.3600   -3.0040  -22.6450 C   0  0  2  0  0  0  0  0  0  0  0  0
   -8.1910   -4.0070  -23.7740 C   0  0  0  0  0  0  0  0  0  0  0  0
   -8.0170   -5.2640  -23.1630 O   0  0  0  0  0  0  0  0  0  0  0  0
   -7.7110   -6.3580  -24.0130 C   0  0  0  0  0  0  0  0  0  0  0  0
   -8.9850   -7.1480  -24.2990 C   0  0  0  0  0  0  0  0  0  0  0  0
   -8.8300   -7.8890  -25.0900 H   0  0  0  0  0  0  0  0  0  0  0  0
   -9.3150   -7.6650  -23.3930 H   0  0  0  0  0  0  0  0  0  0  0  0
   -9.7920   -6.4760  -24.6120 H   0  0  0  0  0  0  0  0  0  0  0  0
   -6.6540   -7.1620  -23.2680 C   0  0  0  0  0  0  0  0  0  0  0  0
   -5.8730   -6.4800  -22.9180 H   0  0  0  0  0  0  0  0  0  0  0  0
   -6.1870   -7.9310  -23.8910 H   0  0  0  0  0  0  0  0  0  0  0  0
   -7.1030   -7.6400  -22.3910 H   0  0  0  0  0  0  0  0  0  0  0  0
   -7.2880   -5.9860  -24.9600 H   0  0  0  0  0  0  0  0  0  0  0  0
   -9.0800   -3.9890  -24.4290 H   0  0  0  0  0  0  0  0  0  0  0  0
   -7.3110   -3.7570  -24.3960 H   0  0  0  0  0  0  0  0  0  0  0  0
   -9.1350   -3.4060  -21.9900 H   0  0  0  0  0  0  0  0  0  0  0  0
   -7.0120   -3.6130  -21.0330 H   0  0  0  0  0  0  0  0  0  0  0  0
   -6.1980   -2.7840  -22.3710 H   0  0  0  0  0  0  0  0  0  0  0  0
  -10.2590   -1.4310  -23.3530 C   0  0  0  0  0  0  0  0  0  0  0  0
  -11.2470   -2.2530  -22.7950 C   0  0  0  0  0  0  0  0  0  0  0  0
  -12.5730   -2.0500  -23.1180 C   0  0  0  0  0  0  0  0  0  0  0  0
  -13.4770   -2.8800  -22.5680 F   0  0  0  0  0  0  0  0  0  0  0  0
  -13.0110   -1.0350  -23.9630 C   0  0  0  0  0  0  0  0  0  0  0  0
  -12.0420   -0.1870  -24.4600 C   0  0  0  0  0  0  0  0  0  0  0  0
  -10.6920   -0.4020  -24.1990 C   0  0  0  0  0  0  0  0  0  0  0  0
   -9.7420    0.5230  -24.8720 C   0  0  0  0  0  0  0  0  0  0  0  0
  -10.1570    1.5120  -25.4850 O   0  0  0  0  0  0  0  0  0  0  0  0
  -12.2790    0.6850  -25.0550 H   0  0  0  0  0  0  0  0  0  0  0  0
  -14.0730   -0.9210  -24.1750 H   0  0  0  0  0  0  0  0  0  0  0  0
  -11.0100   -3.0380  -22.0830 H   0  0  0  0  0  0  0  0  0  0  0  0
   -6.9170   -1.0020  -24.0480 H   0  0  0  0  0  0  0  0  0  0  0  0
   -8.0750   -1.8250  -25.1040 H   0  0  0  0  0  0  0  0  0  0  0  0
   -7.9310    1.2260  -26.5320 H   0  0  0  0  0  0  0  0  0  0  0  0
   -6.5620    0.4840  -25.6700 H   0  0  0  0  0  0  0  0  0  0  0  0
   -8.9730    3.0510  -25.4840 H   0  0  0  0  0  0  0  0  0  0  0  0
   -8.6230    5.3370  -24.8390 H   0  0  0  0  0  0  0  0  0  0  0  0
   -7.0270    4.8750  -24.1900 H   0  0  0  0  0  0  0  0  0  0  0  0
   -8.4980    4.4410  -23.3050 H   0  0  0  0  0  0  0  0  0  0  0  0
  1  2  1  0  0  0  0
  1 64  1  0  0  0  0
  1 65  1  0  0  0  0
  1 66  1  0  0  0  0
  2  3  1  0  0  0  0
  2 63  1  0  0  0  0
  3  4  2  0  0  0  0
  3  5  1  0  0  0  0
  5  6  1  0  0  0  0
  5 61  1  0  0  0  0
  5 62  1  0  0  0  0
  6  7  1  0  0  0  0
  6 54  1  0  0  0  0
  7  8  1  0  0  0  0
  7 59  1  0  0  0  0
  7 60  1  0  0  0  0
  8  9  1  1  0  0  0
  8 29  1  0  0  0  0
  8 47  1  0  0  0  0
  9 10  2  0  0  0  0
  9 11  1  0  0  0  0
 11 12  1  0  0  0  0
 11 28  1  0  0  0  0
 12 13  2  0  0  0  0
 12 21  1  0  0  0  0
 13 14  1  0  0  0  0
 13 27  1  0  0  0  0
 14 15  2  0  0  0  0
 15 16  1  0  0  0  0
 15 26  1  0  0  0  0
 16 17  2  0  0  0  0
 16 21  1  0  0  0  0
 17 18  1  0  0  0  0
 17 25  1  0  0  0  0
 18 19  2  0  0  0  0
 18 24  1  0  0  0  0
 19 20  1  0  0  0  0
 19 23  1  0  0  0  0
 20 21  2  0  0  0  0
 20 22  1  0  0  0  0
 28 29  1  0  0  0  0
 28 45  1  0  0  0  0
 28 46  1  0  0  0  0
 29 30  1  0  0  0  0
 29 44  1  1  0  0  0
 30 31  1  0  0  0  0
 30 42  1  0  0  0  0
 30 43  1  0  0  0  0
 31 32  1  0  0  0  0
 32 33  1  0  0  0  0
 32 37  1  0  0  0  0
 32 41  1  0  0  0  0
 33 34  1  0  0  0  0
 33 35  1  0  0  0  0
 33 36  1  0  0  0  0
 37 38  1  0  0  0  0
 37 39  1  0  0  0  0
 37 40  1  0  0  0  0
 47 48  2  0  0  0  0
 47 53  1  0  0  0  0
 48 49  1  0  0  0  0
 48 58  1  0  0  0  0
 49 50  1  0  0  0  0
 49 51  2  0  0  0  0
 51 52  1  0  0  0  0
 51 57  1  0  0  0  0
 52 53  2  0  0  0  0
 52 56  1  0  0  0  0
 53 54  1  0  0  0  0
 54 55  2  0  0  0  0
M  END
>  <MODEL>
       1

$$$$
