tmp_first_model_5_95.pdb
 OpenBabel08272519233D

 66 71  0  0  1  0  0  0  0  0999 V2000
   -7.2990    3.3470  -21.8140 C   0  0  0  0  0  0  0  0  0  0  0  0
   -8.1790    2.9170  -22.8890 N   0  0  0  0  0  0  0  0  0  0  0  0
   -7.6360    2.2350  -23.9350 C   0  0  0  0  0  0  0  0  0  0  0  0
   -6.4300    2.0750  -24.0550 O   0  0  0  0  0  0  0  0  0  0  0  0
   -8.6230    1.6520  -24.9520 C   0  0  0  0  0  0  0  0  0  0  0  0
   -9.3130    0.4990  -24.4020 N   0  0  0  0  0  0  0  0  0  0  0  0
   -8.5570   -0.7390  -24.2460 C   0  0  0  0  0  0  0  0  0  0  0  0
   -8.9860   -1.5150  -22.9730 C   0  0  2  0  0  0  0  0  0  0  0  0
   -8.4680   -0.7850  -21.7130 C   0  0  0  0  0  0  0  0  0  0  0  0
   -8.8900    0.2440  -21.2210 O   0  0  0  0  0  0  0  0  0  0  0  0
   -7.4000   -1.4940  -21.2160 N   0  0  0  0  0  0  0  0  0  0  0  0
   -6.5540   -0.9710  -20.2180 C   0  0  0  0  0  0  0  0  0  0  0  0
   -6.8560   -1.1320  -18.8960 C   0  0  0  0  0  0  0  0  0  0  0  0
   -5.9980   -0.8550  -17.8850 N   0  0  0  0  0  0  0  0  0  0  0  0
   -4.8260   -0.3670  -18.2160 C   0  0  0  0  0  0  0  0  0  0  0  0
   -4.4420   -0.0400  -19.5480 C   0  0  0  0  0  0  0  0  0  0  0  0
   -3.2650    0.7040  -19.8300 C   0  0  0  0  0  0  0  0  0  0  0  0
   -3.1610    1.3970  -21.0010 C   0  0  0  0  0  0  0  0  0  0  0  0
   -4.0880    1.1630  -22.0510 C   0  0  0  0  0  0  0  0  0  0  0  0
   -5.1210    0.2800  -21.8630 C   0  0  0  0  0  0  0  0  0  0  0  0
   -5.3720   -0.2680  -20.5770 C   0  0  0  0  0  0  0  0  0  0  0  0
   -5.7390   -0.0100  -22.7040 H   0  0  0  0  0  0  0  0  0  0  0  0
   -3.9620    1.6570  -23.0090 H   0  0  0  0  0  0  0  0  0  0  0  0
   -2.2960    2.0280  -21.1780 H   0  0  0  0  0  0  0  0  0  0  0  0
   -2.5340    0.8050  -19.0350 H   0  0  0  0  0  0  0  0  0  0  0  0
   -4.1390   -0.1130  -17.4070 H   0  0  0  0  0  0  0  0  0  0  0  0
   -7.8280   -1.5230  -18.6230 H   0  0  0  0  0  0  0  0  0  0  0  0
   -7.0350   -2.6620  -21.9840 C   0  0  0  0  0  0  0  0  0  0  0  0
   -8.2730   -2.8980  -22.8470 C   0  0  2  0  0  0  0  0  0  0  0  0
   -7.9170   -3.6380  -24.1270 C   0  0  0  0  0  0  0  0  0  0  0  0
   -9.0920   -3.9510  -24.9040 N   0  0  0  0  0  0  0  0  0  0  0  0
   -8.9970   -4.5900  -26.0960 C   0  0  0  0  0  0  0  0  0  0  0  0
  -10.1450   -4.9150  -26.8460 C   0  0  0  0  0  0  0  0  0  0  0  0
   -9.9320   -5.5320  -28.0560 C   0  0  0  0  0  0  0  0  0  0  0  0
   -8.7100   -5.8240  -28.5330 N   0  0  0  0  0  0  0  0  0  0  0  0
   -7.7080   -5.4900  -27.7340 C   0  0  0  0  0  0  0  0  0  0  0  0
   -7.7680   -4.8810  -26.5480 N   0  0  0  0  0  0  0  0  0  0  0  0
   -6.7070   -5.7360  -28.0920 H   0  0  0  0  0  0  0  0  0  0  0  0
  -10.7750   -5.8050  -28.6900 H   0  0  0  0  0  0  0  0  0  0  0  0
  -11.1460   -4.6990  -26.4810 H   0  0  0  0  0  0  0  0  0  0  0  0
  -10.0050   -3.7820  -24.5090 H   0  0  0  0  0  0  0  0  0  0  0  0
   -7.3860   -4.5680  -23.8850 H   0  0  0  0  0  0  0  0  0  0  0  0
   -7.2360   -3.0470  -24.7540 H   0  0  0  0  0  0  0  0  0  0  0  0
   -8.9420   -3.5510  -22.2780 H   0  0  0  0  0  0  0  0  0  0  0  0
   -6.8260   -3.5160  -21.3290 H   0  0  0  0  0  0  0  0  0  0  0  0
   -6.1360   -2.4970  -22.6010 H   0  0  0  0  0  0  0  0  0  0  0  0
  -10.5000   -1.5940  -22.9590 C   0  0  0  0  0  0  0  0  0  0  0  0
  -11.1630   -2.4900  -22.1120 C   0  0  0  0  0  0  0  0  0  0  0  0
  -12.5270   -2.6780  -22.2340 C   0  0  0  0  0  0  0  0  0  0  0  0
  -13.3260   -3.7790  -21.1490 Cl  0  0  0  0  0  0  0  0  0  0  0  0
  -13.2710   -1.9880  -23.1940 C   0  0  0  0  0  0  0  0  0  0  0  0
  -12.6520   -0.9650  -23.8910 C   0  0  0  0  0  0  0  0  0  0  0  0
  -11.2870   -0.7250  -23.7300 C   0  0  0  0  0  0  0  0  0  0  0  0
  -10.6830    0.5000  -24.3500 C   0  0  0  0  0  0  0  0  0  0  0  0
  -11.3630    1.4320  -24.7610 O   0  0  0  0  0  0  0  0  0  0  0  0
  -13.2230   -0.3230  -24.5560 H   0  0  0  0  0  0  0  0  0  0  0  0
  -14.3310   -2.1890  -23.3110 H   0  0  0  0  0  0  0  0  0  0  0  0
  -10.6290   -3.0410  -21.3460 H   0  0  0  0  0  0  0  0  0  0  0  0
   -8.7030   -1.3710  -25.1320 H   0  0  0  0  0  0  0  0  0  0  0  0
   -7.4910   -0.4980  -24.1930 H   0  0  0  0  0  0  0  0  0  0  0  0
   -8.0570    1.3640  -25.8450 H   0  0  0  0  0  0  0  0  0  0  0  0
   -9.3820    2.3850  -25.2430 H   0  0  0  0  0  0  0  0  0  0  0  0
   -9.1510    2.7580  -22.6630 H   0  0  0  0  0  0  0  0  0  0  0  0
   -7.8820    3.8350  -21.0330 H   0  0  0  0  0  0  0  0  0  0  0  0
   -6.5740    4.0670  -22.2010 H   0  0  0  0  0  0  0  0  0  0  0  0
   -6.7550    2.4910  -21.3880 H   0  0  0  0  0  0  0  0  0  0  0  0
  1  2  1  0  0  0  0
  1 64  1  0  0  0  0
  1 65  1  0  0  0  0
  1 66  1  0  0  0  0
  2  3  1  0  0  0  0
  2 63  1  0  0  0  0
  3  4  2  0  0  0  0
  3  5  1  0  0  0  0
  5  6  1  0  0  0  0
  5 61  1  0  0  0  0
  5 62  1  0  0  0  0
  6  7  1  0  0  0  0
  6 54  1  0  0  0  0
  7  8  1  0  0  0  0
  7 59  1  0  0  0  0
  7 60  1  0  0  0  0
  8  9  1  1  0  0  0
  8 29  1  0  0  0  0
  8 47  1  0  0  0  0
  9 10  2  0  0  0  0
  9 11  1  0  0  0  0
 11 12  1  0  0  0  0
 11 28  1  0  0  0  0
 12 13  2  0  0  0  0
 12 21  1  0  0  0  0
 13 14  1  0  0  0  0
 13 27  1  0  0  0  0
 14 15  2  0  0  0  0
 15 16  1  0  0  0  0
 15 26  1  0  0  0  0
 16 17  2  0  0  0  0
 16 21  1  0  0  0  0
 17 18  1  0  0  0  0
 17 25  1  0  0  0  0
 18 19  2  0  0  0  0
 18 24  1  0  0  0  0
 19 20  1  0  0  0  0
 19 23  1  0  0  0  0
 20 21  2  0  0  0  0
 20 22  1  0  0  0  0
 28 29  1  0  0  0  0
 28 45  1  0  0  0  0
 28 46  1  0  0  0  0
 29 30  1  0  0  0  0
 29 44  1  1  0  0  0
 30 31  1  0  0  0  0
 30 42  1  0  0  0  0
 30 43  1  0  0  0  0
 31 32  1  0  0  0  0
 31 41  1  0  0  0  0
 32 33  2  0  0  0  0
 32 37  1  0  0  0  0
 33 34  1  0  0  0  0
 33 40  1  0  0  0  0
 34 35  2  0  0  0  0
 34 39  1  0  0  0  0
 35 36  1  0  0  0  0
 36 37  2  0  0  0  0
 36 38  1  0  0  0  0
 47 48  2  0  0  0  0
 47 53  1  0  0  0  0
 48 49  1  0  0  0  0
 48 58  1  0  0  0  0
 49 50  1  0  0  0  0
 49 51  2  0  0  0  0
 51 52  1  0  0  0  0
 51 57  1  0  0  0  0
 52 53  2  0  0  0  0
 52 56  1  0  0  0  0
 53 54  1  0  0  0  0
 54 55  2  0  0  0  0
M  END
>  <MODEL>
       1

$$$$
