tmp_first_model_12_16.pdb
 OpenBabel08272523333D

 61 66  0  0  1  0  0  0  0  0999 V2000
   -7.8850    2.6740  -21.9570 C   0  0  0  0  0  0  0  0  0  0  0  0
   -8.8070    2.2710  -22.9970 N   0  0  0  0  0  0  0  0  0  0  0  0
   -8.3570    1.8100  -24.1940 C   0  0  0  0  0  0  0  0  0  0  0  0
   -7.1780    1.8360  -24.5260 O   0  0  0  0  0  0  0  0  0  0  0  0
   -9.4670    1.1960  -25.0620 C   0  0  0  0  0  0  0  0  0  0  0  0
  -10.0350    0.0740  -24.3350 N   0  0  0  0  0  0  0  0  0  0  0  0
   -9.1610   -1.0680  -24.1020 C   0  0  0  0  0  0  0  0  0  0  0  0
   -9.4030   -1.7710  -22.7370 C   0  0  2  0  0  0  0  0  0  0  0  0
   -8.9130   -0.8610  -21.5740 C   0  0  0  0  0  0  0  0  0  0  0  0
   -9.5480    0.0200  -21.0260 O   0  0  0  0  0  0  0  0  0  0  0  0
   -7.6250   -1.2240  -21.2570 N   0  0  0  0  0  0  0  0  0  0  0  0
   -6.8600   -0.6660  -20.1970 C   0  0  0  0  0  0  0  0  0  0  0  0
   -7.1360   -0.9950  -18.8930 C   0  0  0  0  0  0  0  0  0  0  0  0
   -6.3820   -0.6100  -17.8360 N   0  0  0  0  0  0  0  0  0  0  0  0
   -5.3350    0.1410  -18.0770 C   0  0  0  0  0  0  0  0  0  0  0  0
   -4.9470    0.5830  -19.3740 C   0  0  0  0  0  0  0  0  0  0  0  0
   -3.8310    1.4380  -19.5800 C   0  0  0  0  0  0  0  0  0  0  0  0
   -3.4980    1.8550  -20.8400 C   0  0  0  0  0  0  0  0  0  0  0  0
   -4.2510    1.4220  -21.9510 C   0  0  0  0  0  0  0  0  0  0  0  0
   -5.3310    0.5860  -21.7750 C   0  0  0  0  0  0  0  0  0  0  0  0
   -5.7180    0.1510  -20.4780 C   0  0  0  0  0  0  0  0  0  0  0  0
   -5.9200    0.2810  -22.6350 H   0  0  0  0  0  0  0  0  0  0  0  0
   -3.9880    1.7640  -22.9470 H   0  0  0  0  0  0  0  0  0  0  0  0
   -2.6540    2.5200  -20.9920 H   0  0  0  0  0  0  0  0  0  0  0  0
   -3.2600    1.7560  -18.7120 H   0  0  0  0  0  0  0  0  0  0  0  0
   -4.7310    0.4340  -17.2190 H   0  0  0  0  0  0  0  0  0  0  0  0
   -7.9860   -1.6340  -18.6680 H   0  0  0  0  0  0  0  0  0  0  0  0
   -7.1610   -2.3720  -22.0070 C   0  0  0  0  0  0  0  0  0  0  0  0
   -8.4610   -2.9950  -22.5490 C   0  0  2  0  0  0  0  0  0  0  0  0
   -8.1100   -3.8780  -23.7490 C   0  0  0  0  0  0  0  0  0  0  0  0
   -9.1920   -4.6820  -24.2860 N   0  0  0  0  0  0  0  0  0  0  0  0
  -10.0550   -4.2780  -25.2040 N   0  0  0  0  0  0  0  0  0  0  0  0
  -10.7690   -5.3780  -25.3960 C   0  0  0  0  0  0  0  0  0  0  0  0
  -10.3510   -6.4000  -24.6230 N   0  0  0  0  0  0  0  0  0  0  0  0
   -9.3520   -5.9390  -23.9270 N   0  0  0  0  0  0  0  0  0  0  0  0
  -11.5820   -5.4450  -26.1110 H   0  0  0  0  0  0  0  0  0  0  0  0
   -7.7050   -3.2730  -24.5620 H   0  0  0  0  0  0  0  0  0  0  0  0
   -7.3360   -4.5830  -23.4410 H   0  0  0  0  0  0  0  0  0  0  0  0
   -8.8830   -3.6260  -21.7620 H   0  0  0  0  0  0  0  0  0  0  0  0
   -6.5080   -2.0760  -22.8470 H   0  0  0  0  0  0  0  0  0  0  0  0
   -6.5920   -3.0500  -21.3630 H   0  0  0  0  0  0  0  0  0  0  0  0
  -10.8950   -1.9620  -22.5700 C   0  0  0  0  0  0  0  0  0  0  0  0
  -11.4430   -3.0210  -21.8410 C   0  0  0  0  0  0  0  0  0  0  0  0
  -12.7540   -2.9370  -21.4040 C   0  0  0  0  0  0  0  0  0  0  0  0
  -13.3730   -4.1330  -20.3200 Cl  0  0  0  0  0  0  0  0  0  0  0  0
  -13.5870   -1.8680  -21.7280 C   0  0  0  0  0  0  0  0  0  0  0  0
  -13.0690   -0.8610  -22.5080 C   0  0  0  0  0  0  0  0  0  0  0  0
  -11.7560   -0.9200  -22.9600 C   0  0  0  0  0  0  0  0  0  0  0  0
  -11.2880    0.2110  -23.8150 C   0  0  0  0  0  0  0  0  0  0  0  0
  -11.9630    1.2190  -24.0030 O   0  0  0  0  0  0  0  0  0  0  0  0
  -13.6720   -0.0040  -22.7790 H   0  0  0  0  0  0  0  0  0  0  0  0
  -14.6040   -1.8370  -21.3480 H   0  0  0  0  0  0  0  0  0  0  0  0
  -10.8480   -3.8890  -21.5750 H   0  0  0  0  0  0  0  0  0  0  0  0
   -9.3110   -1.7990  -24.9040 H   0  0  0  0  0  0  0  0  0  0  0  0
   -8.1230   -0.7110  -24.1460 H   0  0  0  0  0  0  0  0  0  0  0  0
   -9.0790    0.8840  -26.0380 H   0  0  0  0  0  0  0  0  0  0  0  0
  -10.2900    1.8980  -25.2300 H   0  0  0  0  0  0  0  0  0  0  0  0
   -9.7450    2.0330  -22.6980 H   0  0  0  0  0  0  0  0  0  0  0  0
   -7.7910    1.8850  -21.1960 H   0  0  0  0  0  0  0  0  0  0  0  0
   -6.9170    2.8460  -22.4270 H   0  0  0  0  0  0  0  0  0  0  0  0
   -8.2000    3.6040  -21.4830 H   0  0  0  0  0  0  0  0  0  0  0  0
  1  2  1  0  0  0  0
  1 59  1  0  0  0  0
  1 60  1  0  0  0  0
  1 61  1  0  0  0  0
  2  3  1  0  0  0  0
  2 58  1  0  0  0  0
  3  4  2  0  0  0  0
  3  5  1  0  0  0  0
  5  6  1  0  0  0  0
  5 56  1  0  0  0  0
  5 57  1  0  0  0  0
  6  7  1  0  0  0  0
  6 49  1  0  0  0  0
  7  8  1  0  0  0  0
  7 54  1  0  0  0  0
  7 55  1  0  0  0  0
  8  9  1  1  0  0  0
  8 29  1  0  0  0  0
  8 42  1  0  0  0  0
  9 10  2  0  0  0  0
  9 11  1  0  0  0  0
 11 12  1  0  0  0  0
 11 28  1  0  0  0  0
 12 13  2  0  0  0  0
 12 21  1  0  0  0  0
 13 14  1  0  0  0  0
 13 27  1  0  0  0  0
 14 15  2  0  0  0  0
 15 16  1  0  0  0  0
 15 26  1  0  0  0  0
 16 17  2  0  0  0  0
 16 21  1  0  0  0  0
 17 18  1  0  0  0  0
 17 25  1  0  0  0  0
 18 19  2  0  0  0  0
 18 24  1  0  0  0  0
 19 20  1  0  0  0  0
 19 23  1  0  0  0  0
 20 21  2  0  0  0  0
 20 22  1  0  0  0  0
 28 29  1  0  0  0  0
 28 40  1  0  0  0  0
 28 41  1  0  0  0  0
 29 30  1  0  0  0  0
 29 39  1  1  0  0  0
 30 31  1  0  0  0  0
 30 37  1  0  0  0  0
 30 38  1  0  0  0  0
 31 32  1  0  0  0  0
 31 35  1  0  0  0  0
 32 33  2  0  0  0  0
 33 34  1  0  0  0  0
 33 36  1  0  0  0  0
 34 35  2  0  0  0  0
 42 43  2  0  0  0  0
 42 48  1  0  0  0  0
 43 44  1  0  0  0  0
 43 53  1  0  0  0  0
 44 45  1  0  0  0  0
 44 46  2  0  0  0  0
 46 47  1  0  0  0  0
 46 52  1  0  0  0  0
 47 48  2  0  0  0  0
 47 51  1  0  0  0  0
 48 49  1  0  0  0  0
 49 50  2  0  0  0  0
M  END
>  <MODEL>
       1

$$$$
