tmp_first_model_2_95.pdb
 OpenBabel08272517383D

 66 71  0  0  1  0  0  0  0  0999 V2000
  -14.3910   -1.3190  -23.6960 C   0  0  0  0  0  0  0  0  0  0  0  0
  -13.5800   -2.4630  -23.3030 N   0  0  0  0  0  0  0  0  0  0  0  0
  -13.3130   -2.7090  -21.9930 C   0  0  0  0  0  0  0  0  0  0  0  0
  -13.8620   -2.1130  -21.0780 O   0  0  0  0  0  0  0  0  0  0  0  0
  -12.3660   -3.8880  -21.7000 C   0  0  0  0  0  0  0  0  0  0  0  0
  -11.0210   -3.8520  -22.2810 N   0  0  0  0  0  0  0  0  0  0  0  0
   -9.8380   -3.4440  -21.5410 C   0  0  0  0  0  0  0  0  0  0  0  0
   -8.6770   -2.8740  -22.4150 C   0  0  2  0  0  0  0  0  0  0  0  0
   -7.5110   -2.6430  -21.4490 C   0  0  0  0  0  0  0  0  0  0  0  0
   -6.8120   -3.4910  -20.9270 O   0  0  0  0  0  0  0  0  0  0  0  0
   -7.3980   -1.2900  -21.2090 N   0  0  0  0  0  0  0  0  0  0  0  0
   -6.5900   -0.8080  -20.1520 C   0  0  0  0  0  0  0  0  0  0  0  0
   -6.8840   -1.1030  -18.8480 C   0  0  0  0  0  0  0  0  0  0  0  0
   -6.2250   -0.5690  -17.7870 N   0  0  0  0  0  0  0  0  0  0  0  0
   -5.2230    0.2400  -18.0380 C   0  0  0  0  0  0  0  0  0  0  0  0
   -4.7640    0.5640  -19.3500 C   0  0  0  0  0  0  0  0  0  0  0  0
   -3.6350    1.3900  -19.5980 C   0  0  0  0  0  0  0  0  0  0  0  0
   -3.2300    1.6410  -20.8820 C   0  0  0  0  0  0  0  0  0  0  0  0
   -3.9230    1.0810  -21.9790 C   0  0  0  0  0  0  0  0  0  0  0  0
   -5.0160    0.2800  -21.7660 C   0  0  0  0  0  0  0  0  0  0  0  0
   -5.4660    0.0190  -20.4470 C   0  0  0  0  0  0  0  0  0  0  0  0
   -5.5390   -0.1800  -22.5980 H   0  0  0  0  0  0  0  0  0  0  0  0
   -3.5910    1.2850  -22.9930 H   0  0  0  0  0  0  0  0  0  0  0  0
   -2.3660    2.2730  -21.0720 H   0  0  0  0  0  0  0  0  0  0  0  0
   -3.1000    1.8110  -18.7510 H   0  0  0  0  0  0  0  0  0  0  0  0
   -4.7090    0.6660  -17.1760 H   0  0  0  0  0  0  0  0  0  0  0  0
   -7.6940   -1.7900  -18.6110 H   0  0  0  0  0  0  0  0  0  0  0  0
   -8.4010   -0.4800  -21.8890 C   0  0  0  0  0  0  0  0  0  0  0  0
   -8.8910   -1.4350  -22.9900 C   0  0  2  0  0  0  0  0  0  0  0  0
  -10.3120   -1.1750  -23.4920 C   0  0  0  0  0  0  0  0  0  0  0  0
  -10.4710    0.0600  -24.2210 N   0  0  0  0  0  0  0  0  0  0  0  0
  -11.0210    1.1730  -23.6720 C   0  0  0  0  0  0  0  0  0  0  0  0
  -11.0700    2.3820  -24.3990 C   0  0  0  0  0  0  0  0  0  0  0  0
  -11.5890    3.4680  -23.7380 C   0  0  0  0  0  0  0  0  0  0  0  0
  -12.0780    3.4090  -22.4870 N   0  0  0  0  0  0  0  0  0  0  0  0
  -12.0160    2.2170  -21.9170 C   0  0  0  0  0  0  0  0  0  0  0  0
  -11.5210    1.0870  -22.4300 N   0  0  0  0  0  0  0  0  0  0  0  0
  -12.4200    2.1460  -20.9040 H   0  0  0  0  0  0  0  0  0  0  0  0
  -11.6240    4.4470  -24.2190 H   0  0  0  0  0  0  0  0  0  0  0  0
  -10.7100    2.4380  -25.4240 H   0  0  0  0  0  0  0  0  0  0  0  0
  -10.0790    0.1290  -25.1450 H   0  0  0  0  0  0  0  0  0  0  0  0
  -10.5990   -2.0140  -24.1380 H   0  0  0  0  0  0  0  0  0  0  0  0
  -10.9850   -1.1150  -22.6370 H   0  0  0  0  0  0  0  0  0  0  0  0
   -8.1960   -1.3430  -23.8410 H   0  0  0  0  0  0  0  0  0  0  0  0
   -7.9560    0.4380  -22.2890 H   0  0  0  0  0  0  0  0  0  0  0  0
   -9.2070   -0.1760  -21.2020 H   0  0  0  0  0  0  0  0  0  0  0  0
   -8.3930   -3.9090  -23.4800 C   0  0  0  0  0  0  0  0  0  0  0  0
   -7.1080   -4.1200  -24.0080 C   0  0  0  0  0  0  0  0  0  0  0  0
   -6.9050   -5.1290  -24.9370 C   0  0  0  0  0  0  0  0  0  0  0  0
   -5.3120   -5.4120  -25.5830 Cl  0  0  0  0  0  0  0  0  0  0  0  0
   -7.9610   -5.9190  -25.3880 C   0  0  0  0  0  0  0  0  0  0  0  0
   -9.2400   -5.6560  -24.9210 C   0  0  0  0  0  0  0  0  0  0  0  0
   -9.4690   -4.6610  -23.9770 C   0  0  0  0  0  0  0  0  0  0  0  0
  -10.8790   -4.4210  -23.5040 C   0  0  0  0  0  0  0  0  0  0  0  0
  -11.8780   -4.6730  -24.1670 O   0  0  0  0  0  0  0  0  0  0  0  0
  -10.0960   -6.2170  -25.2760 H   0  0  0  0  0  0  0  0  0  0  0  0
   -7.7830   -6.7200  -26.0980 H   0  0  0  0  0  0  0  0  0  0  0  0
   -6.2590   -3.5260  -23.6840 H   0  0  0  0  0  0  0  0  0  0  0  0
  -10.1280   -2.6870  -20.8160 H   0  0  0  0  0  0  0  0  0  0  0  0
   -9.3990   -4.3130  -21.0430 H   0  0  0  0  0  0  0  0  0  0  0  0
  -12.3470   -4.0170  -20.6160 H   0  0  0  0  0  0  0  0  0  0  0  0
  -12.8730   -4.7570  -22.1350 H   0  0  0  0  0  0  0  0  0  0  0  0
  -13.1830   -3.0790  -24.0020 H   0  0  0  0  0  0  0  0  0  0  0  0
  -13.8170   -0.3800  -23.6170 H   0  0  0  0  0  0  0  0  0  0  0  0
  -15.2680   -1.2430  -23.0400 H   0  0  0  0  0  0  0  0  0  0  0  0
  -14.7090   -1.4690  -24.7360 H   0  0  0  0  0  0  0  0  0  0  0  0
  1  2  1  0  0  0  0
  1 64  1  0  0  0  0
  1 65  1  0  0  0  0
  1 66  1  0  0  0  0
  2  3  1  0  0  0  0
  2 63  1  0  0  0  0
  3  4  2  0  0  0  0
  3  5  1  0  0  0  0
  5  6  1  0  0  0  0
  5 61  1  0  0  0  0
  5 62  1  0  0  0  0
  6  7  1  0  0  0  0
  6 54  1  0  0  0  0
  7  8  1  0  0  0  0
  7 59  1  0  0  0  0
  7 60  1  0  0  0  0
  8  9  1  1  0  0  0
  8 29  1  0  0  0  0
  8 47  1  0  0  0  0
  9 10  2  0  0  0  0
  9 11  1  0  0  0  0
 11 12  1  0  0  0  0
 11 28  1  0  0  0  0
 12 13  2  0  0  0  0
 12 21  1  0  0  0  0
 13 14  1  0  0  0  0
 13 27  1  0  0  0  0
 14 15  2  0  0  0  0
 15 16  1  0  0  0  0
 15 26  1  0  0  0  0
 16 17  2  0  0  0  0
 16 21  1  0  0  0  0
 17 18  1  0  0  0  0
 17 25  1  0  0  0  0
 18 19  2  0  0  0  0
 18 24  1  0  0  0  0
 19 20  1  0  0  0  0
 19 23  1  0  0  0  0
 20 21  2  0  0  0  0
 20 22  1  0  0  0  0
 28 29  1  0  0  0  0
 28 45  1  0  0  0  0
 28 46  1  0  0  0  0
 29 30  1  0  0  0  0
 29 44  1  6  0  0  0
 30 31  1  0  0  0  0
 30 42  1  0  0  0  0
 30 43  1  0  0  0  0
 31 32  1  0  0  0  0
 31 41  1  0  0  0  0
 32 33  2  0  0  0  0
 32 37  1  0  0  0  0
 33 34  1  0  0  0  0
 33 40  1  0  0  0  0
 34 35  2  0  0  0  0
 34 39  1  0  0  0  0
 35 36  1  0  0  0  0
 36 37  2  0  0  0  0
 36 38  1  0  0  0  0
 47 48  2  0  0  0  0
 47 53  1  0  0  0  0
 48 49  1  0  0  0  0
 48 58  1  0  0  0  0
 49 50  1  0  0  0  0
 49 51  2  0  0  0  0
 51 52  1  0  0  0  0
 51 57  1  0  0  0  0
 52 53  2  0  0  0  0
 52 56  1  0  0  0  0
 53 54  1  0  0  0  0
 54 55  2  0  0  0  0
M  END
>  <MODEL>
       1

$$$$
