tmp_first_model_15_45.pdb
 OpenBabel08282501153D

 66 71  0  0  1  0  0  0  0  0999 V2000
   -7.4440    3.3830  -21.8280 C   0  0  0  0  0  0  0  0  0  0  0  0
   -8.3400    2.9220  -22.8680 N   0  0  0  0  0  0  0  0  0  0  0  0
   -7.7950    2.1970  -23.8790 C   0  0  0  0  0  0  0  0  0  0  0  0
   -6.5860    2.0560  -23.9980 O   0  0  0  0  0  0  0  0  0  0  0  0
   -8.7610    1.5790  -24.8770 C   0  0  0  0  0  0  0  0  0  0  0  0
   -9.4490    0.4310  -24.3320 N   0  0  0  0  0  0  0  0  0  0  0  0
   -8.7050   -0.8010  -24.1690 C   0  0  0  0  0  0  0  0  0  0  0  0
   -9.0760   -1.5280  -22.8600 C   0  0  2  0  0  0  0  0  0  0  0  0
   -8.5330   -0.7510  -21.6410 C   0  0  0  0  0  0  0  0  0  0  0  0
   -9.0040    0.2500  -21.1360 O   0  0  0  0  0  0  0  0  0  0  0  0
   -7.3970   -1.3810  -21.1970 N   0  0  0  0  0  0  0  0  0  0  0  0
   -6.5990   -0.8150  -20.1730 C   0  0  0  0  0  0  0  0  0  0  0  0
   -6.9190   -1.0460  -18.8590 C   0  0  0  0  0  0  0  0  0  0  0  0
   -6.2240   -0.5520  -17.8070 N   0  0  0  0  0  0  0  0  0  0  0  0
   -5.1850    0.2050  -18.0740 C   0  0  0  0  0  0  0  0  0  0  0  0
   -4.7440    0.5240  -19.3920 C   0  0  0  0  0  0  0  0  0  0  0  0
   -3.6200    1.3590  -19.6340 C   0  0  0  0  0  0  0  0  0  0  0  0
   -3.2320    1.6530  -20.9140 C   0  0  0  0  0  0  0  0  0  0  0  0
   -3.9540    1.1360  -22.0140 C   0  0  0  0  0  0  0  0  0  0  0  0
   -5.0490    0.3290  -21.8070 C   0  0  0  0  0  0  0  0  0  0  0  0
   -5.4680    0.0010  -20.4870 C   0  0  0  0  0  0  0  0  0  0  0  0
   -5.6070   -0.0430  -22.6610 H   0  0  0  0  0  0  0  0  0  0  0  0
   -3.6560    1.3840  -23.0280 H   0  0  0  0  0  0  0  0  0  0  0  0
   -2.3750    2.3000  -21.0920 H   0  0  0  0  0  0  0  0  0  0  0  0
   -3.0890    1.7680  -18.7790 H   0  0  0  0  0  0  0  0  0  0  0  0
   -4.6240    0.6030  -17.2280 H   0  0  0  0  0  0  0  0  0  0  0  0
   -7.7840   -1.6630  -18.6170 H   0  0  0  0  0  0  0  0  0  0  0  0
   -7.0500   -2.5760  -21.9350 C   0  0  0  0  0  0  0  0  0  0  0  0
   -8.3220   -2.8900  -22.7350 C   0  0  2  0  0  0  0  0  0  0  0  0
   -8.0260   -3.6720  -24.0320 C   0  0  0  0  0  0  0  0  0  0  0  0
   -7.4640   -5.0540  -23.7730 C   0  0  0  0  0  0  0  0  0  0  0  0
   -6.0890   -5.3030  -23.7660 C   0  0  0  0  0  0  0  0  0  0  0  0
   -5.5960   -6.5760  -23.4890 C   0  0  0  0  0  0  0  0  0  0  0  0
   -6.4730   -7.6200  -23.2090 C   0  0  0  0  0  0  0  0  0  0  0  0
   -7.8450   -7.3860  -23.2150 C   0  0  0  0  0  0  0  0  0  0  0  0
   -8.3310   -6.1130  -23.4950 C   0  0  0  0  0  0  0  0  0  0  0  0
   -9.4020   -5.9270  -23.5140 H   0  0  0  0  0  0  0  0  0  0  0  0
   -8.5370   -8.1990  -23.0080 H   0  0  0  0  0  0  0  0  0  0  0  0
   -6.0860   -8.6130  -22.9880 H   0  0  0  0  0  0  0  0  0  0  0  0
   -4.5240   -6.7590  -23.4980 H   0  0  0  0  0  0  0  0  0  0  0  0
   -5.3930   -4.4950  -23.9890 H   0  0  0  0  0  0  0  0  0  0  0  0
   -8.9510   -3.7590  -24.6190 H   0  0  0  0  0  0  0  0  0  0  0  0
   -7.3170   -3.0980  -24.6440 H   0  0  0  0  0  0  0  0  0  0  0  0
   -8.9560   -3.5300  -22.1180 H   0  0  0  0  0  0  0  0  0  0  0  0
   -6.7770   -3.3910  -21.2580 H   0  0  0  0  0  0  0  0  0  0  0  0
   -6.1970   -2.3950  -22.6040 H   0  0  0  0  0  0  0  0  0  0  0  0
  -10.5890   -1.6050  -22.7850 C   0  0  0  0  0  0  0  0  0  0  0  0
  -11.2090   -2.5290  -21.9370 C   0  0  0  0  0  0  0  0  0  0  0  0
  -12.5890   -2.5600  -21.8390 C   0  0  0  0  0  0  0  0  0  0  0  0
  -13.3270   -3.7070  -20.7530 Cl  0  0  0  0  0  0  0  0  0  0  0  0
  -13.3970   -1.6860  -22.5690 C   0  0  0  0  0  0  0  0  0  0  0  0
  -12.7940   -0.7400  -23.3760 C   0  0  0  0  0  0  0  0  0  0  0  0
  -11.4030   -0.6820  -23.4570 C   0  0  0  0  0  0  0  0  0  0  0  0
  -10.8130    0.4570  -24.2270 C   0  0  0  0  0  0  0  0  0  0  0  0
  -11.5050    1.3520  -24.6950 O   0  0  0  0  0  0  0  0  0  0  0  0
  -13.3670   -0.0110  -23.9420 H   0  0  0  0  0  0  0  0  0  0  0  0
  -14.4750   -1.7470  -22.4710 H   0  0  0  0  0  0  0  0  0  0  0  0
  -10.6220   -3.2160  -21.3360 H   0  0  0  0  0  0  0  0  0  0  0  0
   -7.6400   -0.5530  -24.1830 H   0  0  0  0  0  0  0  0  0  0  0  0
   -8.9260   -1.4720  -25.0100 H   0  0  0  0  0  0  0  0  0  0  0  0
   -8.1600    1.2960  -25.7460 H   0  0  0  0  0  0  0  0  0  0  0  0
   -9.5420    2.2880  -25.1540 H   0  0  0  0  0  0  0  0  0  0  0  0
   -9.2970    2.7490  -22.6110 H   0  0  0  0  0  0  0  0  0  0  0  0
   -7.9970    3.8970  -21.0450 H   0  0  0  0  0  0  0  0  0  0  0  0
   -6.7130    4.0620  -22.2560 H   0  0  0  0  0  0  0  0  0  0  0  0
   -6.8890    2.5440  -21.4010 H   0  0  0  0  0  0  0  0  0  0  0  0
  1  2  1  0  0  0  0
  1 64  1  0  0  0  0
  1 65  1  0  0  0  0
  1 66  1  0  0  0  0
  2  3  1  0  0  0  0
  2 63  1  0  0  0  0
  3  4  2  0  0  0  0
  3  5  1  0  0  0  0
  5  6  1  0  0  0  0
  5 61  1  0  0  0  0
  5 62  1  0  0  0  0
  6  7  1  0  0  0  0
  6 54  1  0  0  0  0
  7  8  1  0  0  0  0
  7 59  1  0  0  0  0
  7 60  1  0  0  0  0
  8  9  1  1  0  0  0
  8 29  1  0  0  0  0
  8 47  1  0  0  0  0
  9 10  2  0  0  0  0
  9 11  1  0  0  0  0
 11 12  1  0  0  0  0
 11 28  1  0  0  0  0
 12 13  2  0  0  0  0
 12 21  1  0  0  0  0
 13 14  1  0  0  0  0
 13 27  1  0  0  0  0
 14 15  2  0  0  0  0
 15 16  1  0  0  0  0
 15 26  1  0  0  0  0
 16 17  2  0  0  0  0
 16 21  1  0  0  0  0
 17 18  1  0  0  0  0
 17 25  1  0  0  0  0
 18 19  2  0  0  0  0
 18 24  1  0  0  0  0
 19 20  1  0  0  0  0
 19 23  1  0  0  0  0
 20 21  2  0  0  0  0
 20 22  1  0  0  0  0
 28 29  1  0  0  0  0
 28 45  1  0  0  0  0
 28 46  1  0  0  0  0
 29 30  1  0  0  0  0
 29 44  1  1  0  0  0
 30 31  1  0  0  0  0
 30 42  1  0  0  0  0
 30 43  1  0  0  0  0
 31 32  2  0  0  0  0
 31 36  1  0  0  0  0
 32 33  1  0  0  0  0
 32 41  1  0  0  0  0
 33 34  2  0  0  0  0
 33 40  1  0  0  0  0
 34 35  1  0  0  0  0
 34 39  1  0  0  0  0
 35 36  2  0  0  0  0
 35 38  1  0  0  0  0
 36 37  1  0  0  0  0
 47 48  2  0  0  0  0
 47 53  1  0  0  0  0
 48 49  1  0  0  0  0
 48 58  1  0  0  0  0
 49 50  1  0  0  0  0
 49 51  2  0  0  0  0
 51 52  1  0  0  0  0
 51 57  1  0  0  0  0
 52 53  2  0  0  0  0
 52 56  1  0  0  0  0
 53 54  1  0  0  0  0
 54 55  2  0  0  0  0
M  END
>  <MODEL>
       1

$$$$
