tmp_first_model_18_83.pdb
 OpenBabel08282502533D

 46 50  0  0  1  0  0  0  0  0999 V2000
   -3.6210   -1.0060  -25.4590 N   0  0  0  0  0  0  0  0  0  0  0  0
   -4.5400   -2.0040  -26.4110 S   0  0  0  0  0  0  0  0  0  0  0  0
   -4.2920   -3.3420  -25.8930 O   0  0  0  0  0  0  0  0  0  0  0  0
   -4.2740   -1.6400  -27.7880 O   0  0  0  0  0  0  0  0  0  0  0  0
   -6.2280   -1.5730  -26.0950 C   0  0  0  0  0  0  0  0  0  0  0  0
   -6.9810   -0.9820  -27.1110 C   0  0  0  0  0  0  0  0  0  0  0  0
   -8.2970   -0.6400  -26.8580 C   0  0  0  0  0  0  0  0  0  0  0  0
   -8.8460   -0.8930  -25.5970 C   0  0  0  0  0  0  0  0  0  0  0  0
   -8.0850   -1.4830  -24.5780 C   0  0  0  0  0  0  0  0  0  0  0  0
   -6.7630   -1.8260  -24.8400 C   0  0  0  0  0  0  0  0  0  0  0  0
   -6.1640   -2.3000  -24.0610 H   0  0  0  0  0  0  0  0  0  0  0  0
   -8.6620   -1.7310  -23.1940 C   0  0  1  0  0  0  0  0  0  0  0  0
  -10.1930   -1.7090  -23.2920 C   0  0  0  0  0  0  0  0  0  0  0  0
  -10.5950   -0.4800  -24.0880 C   0  0  0  0  0  0  0  0  0  0  0  0
  -10.1640   -0.5920  -25.4430 O   0  0  0  0  0  0  0  0  0  0  0  0
  -10.0870    0.3780  -23.6420 H   0  0  0  0  0  0  0  0  0  0  0  0
  -11.6760   -0.3150  -24.1330 H   0  0  0  0  0  0  0  0  0  0  0  0
  -10.6210   -1.7380  -22.2870 H   0  0  0  0  0  0  0  0  0  0  0  0
  -10.4940   -2.6180  -23.8200 H   0  0  0  0  0  0  0  0  0  0  0  0
   -8.1790   -2.9560  -22.5860 N   0  0  0  0  0  0  0  0  0  0  0  0
   -7.3290   -2.7700  -21.5360 C   0  0  0  0  0  0  0  0  0  0  0  0
   -6.6080   -3.5710  -20.9880 O   0  0  0  0  0  0  0  0  0  0  0  0
   -7.4000   -1.4000  -21.2250 N   0  0  0  0  0  0  0  0  0  0  0  0
   -6.6080   -0.8140  -20.2040 C   0  0  0  0  0  0  0  0  0  0  0  0
   -6.9180   -1.0660  -18.8900 C   0  0  0  0  0  0  0  0  0  0  0  0
   -6.2340   -0.5610  -17.8330 N   0  0  0  0  0  0  0  0  0  0  0  0
   -5.2030    0.2040  -18.1010 C   0  0  0  0  0  0  0  0  0  0  0  0
   -4.7550    0.5110  -19.4190 C   0  0  0  0  0  0  0  0  0  0  0  0
   -3.6160    1.3320  -19.6420 C   0  0  0  0  0  0  0  0  0  0  0  0
   -3.1900    1.5930  -20.9160 C   0  0  0  0  0  0  0  0  0  0  0  0
   -3.8730    1.0380  -22.0260 C   0  0  0  0  0  0  0  0  0  0  0  0
   -4.9800    0.2470  -21.8390 C   0  0  0  0  0  0  0  0  0  0  0  0
   -5.4630   -0.0180  -20.5190 C   0  0  0  0  0  0  0  0  0  0  0  0
   -5.5030   -0.1690  -22.7010 H   0  0  0  0  0  0  0  0  0  0  0  0
   -3.5250    1.2560  -23.0350 H   0  0  0  0  0  0  0  0  0  0  0  0
   -2.3300    2.2360  -21.0840 H   0  0  0  0  0  0  0  0  0  0  0  0
   -3.1090    1.7480  -18.7750 H   0  0  0  0  0  0  0  0  0  0  0  0
   -4.6530    0.6190  -17.2550 H   0  0  0  0  0  0  0  0  0  0  0  0
   -7.7650   -1.7070  -18.6590 H   0  0  0  0  0  0  0  0  0  0  0  0
   -8.1320   -0.6970  -22.1790 C   0  0  0  0  0  0  0  0  0  0  0  0
   -8.2810    0.5000  -22.1920 O   0  0  0  0  0  0  0  0  0  0  0  0
   -8.3540   -3.8760  -22.9550 H   0  0  0  0  0  0  0  0  0  0  0  0
   -8.9260   -0.1660  -27.6060 H   0  0  0  0  0  0  0  0  0  0  0  0
   -6.5130   -0.8030  -28.0770 H   0  0  0  0  0  0  0  0  0  0  0  0
   -3.7520   -0.0150  -25.6320 H   0  0  0  0  0  0  0  0  0  0  0  0
   -3.7210   -1.2290  -24.4720 H   0  0  0  0  0  0  0  0  0  0  0  0
  1  2  1  0  0  0  0
  1 45  1  0  0  0  0
  1 46  1  0  0  0  0
  2  3  2  0  0  0  0
  2  4  2  0  0  0  0
  2  5  1  0  0  0  0
  5  6  2  0  0  0  0
  5 10  1  0  0  0  0
  6  7  1  0  0  0  0
  6 44  1  0  0  0  0
  7  8  2  0  0  0  0
  7 43  1  0  0  0  0
  8  9  1  0  0  0  0
  8 15  1  0  0  0  0
  9 10  2  0  0  0  0
 10 11  1  0  0  0  0
 12  9  1  6  0  0  0
 12 13  1  0  0  0  0
 12 20  1  0  0  0  0
 12 40  1  0  0  0  0
 13 14  1  0  0  0  0
 13 18  1  0  0  0  0
 13 19  1  0  0  0  0
 14 15  1  0  0  0  0
 14 16  1  0  0  0  0
 14 17  1  0  0  0  0
 20 21  1  0  0  0  0
 20 42  1  0  0  0  0
 21 22  2  0  0  0  0
 21 23  1  0  0  0  0
 23 24  1  0  0  0  0
 23 40  1  0  0  0  0
 24 25  2  0  0  0  0
 24 33  1  0  0  0  0
 25 26  1  0  0  0  0
 25 39  1  0  0  0  0
 26 27  2  0  0  0  0
 27 28  1  0  0  0  0
 27 38  1  0  0  0  0
 28 29  2  0  0  0  0
 28 33  1  0  0  0  0
 29 30  1  0  0  0  0
 29 37  1  0  0  0  0
 30 31  2  0  0  0  0
 30 36  1  0  0  0  0
 31 32  1  0  0  0  0
 31 35  1  0  0  0  0
 32 33  2  0  0  0  0
 32 34  1  0  0  0  0
 40 41  2  0  0  0  0
M  END
>  <MODEL>
       1

$$$$
