tmp_first_model_16_15.pdb
 OpenBabel08282501503D

 63 68  0  0  1  0  0  0  0  0999 V2000
   -7.4670    3.3520  -21.7950 C   0  0  0  0  0  0  0  0  0  0  0  0
   -8.3850    2.8650  -22.8080 N   0  0  0  0  0  0  0  0  0  0  0  0
   -7.8590    2.1670  -23.8520 C   0  0  0  0  0  0  0  0  0  0  0  0
   -6.6550    2.0330  -24.0080 O   0  0  0  0  0  0  0  0  0  0  0  0
   -8.8670    1.5680  -24.8250 C   0  0  0  0  0  0  0  0  0  0  0  0
   -9.5150    0.3960  -24.2870 N   0  0  0  0  0  0  0  0  0  0  0  0
   -8.7470   -0.8250  -24.1550 C   0  0  0  0  0  0  0  0  0  0  0  0
   -9.0930   -1.5760  -22.8510 C   0  0  2  0  0  0  0  0  0  0  0  0
   -8.5680   -0.7870  -21.6330 C   0  0  0  0  0  0  0  0  0  0  0  0
   -9.0690    0.1810  -21.1000 O   0  0  0  0  0  0  0  0  0  0  0  0
   -7.3910   -1.3680  -21.2400 N   0  0  0  0  0  0  0  0  0  0  0  0
   -6.6100   -0.8350  -20.2000 C   0  0  0  0  0  0  0  0  0  0  0  0
   -6.9290   -1.1200  -18.8990 C   0  0  0  0  0  0  0  0  0  0  0  0
   -6.1580   -0.7780  -17.8440 N   0  0  0  0  0  0  0  0  0  0  0  0
   -5.0900   -0.0550  -18.0940 C   0  0  0  0  0  0  0  0  0  0  0  0
   -4.7140    0.4040  -19.3910 C   0  0  0  0  0  0  0  0  0  0  0  0
   -3.6210    1.2830  -19.6130 C   0  0  0  0  0  0  0  0  0  0  0  0
   -3.2610    1.6360  -20.8860 C   0  0  0  0  0  0  0  0  0  0  0  0
   -3.9800    1.1460  -22.0000 C   0  0  0  0  0  0  0  0  0  0  0  0
   -5.0710    0.3330  -21.8110 C   0  0  0  0  0  0  0  0  0  0  0  0
   -5.4700   -0.0370  -20.4970 C   0  0  0  0  0  0  0  0  0  0  0  0
   -5.6350   -0.0160  -22.6700 H   0  0  0  0  0  0  0  0  0  0  0  0
   -3.6730    1.4100  -23.0060 H   0  0  0  0  0  0  0  0  0  0  0  0
   -2.4110    2.2910  -21.0530 H   0  0  0  0  0  0  0  0  0  0  0  0
   -3.0970    1.6880  -18.7530 H   0  0  0  0  0  0  0  0  0  0  0  0
   -4.4550    0.2060  -17.2500 H   0  0  0  0  0  0  0  0  0  0  0  0
   -7.8530   -1.6520  -18.6850 H   0  0  0  0  0  0  0  0  0  0  0  0
   -7.0280   -2.5680  -21.9510 C   0  0  0  0  0  0  0  0  0  0  0  0
   -8.3040   -2.9130  -22.7280 C   0  0  2  0  0  0  0  0  0  0  0  0
   -7.9960   -3.6680  -24.0280 C   0  0  0  0  0  0  0  0  0  0  0  0
   -7.4260   -4.9780  -23.7950 N   0  0  0  0  0  0  0  0  0  0  0  0
   -8.0890   -6.1200  -23.5140 C   0  0  0  0  0  0  0  0  0  0  0  0
   -7.1380   -7.0900  -23.2940 C   0  0  0  0  0  0  0  0  0  0  0  0
   -5.9100   -6.4170  -23.4710 C   0  0  0  0  0  0  0  0  0  0  0  0
   -6.0970   -5.1340  -23.7570 N   0  0  0  0  0  0  0  0  0  0  0  0
   -4.8980   -6.8000  -23.4040 H   0  0  0  0  0  0  0  0  0  0  0  0
   -7.3090   -8.1280  -23.0390 H   0  0  0  0  0  0  0  0  0  0  0  0
   -9.1720   -6.1450  -23.5310 H   0  0  0  0  0  0  0  0  0  0  0  0
   -7.2540   -3.1260  -24.6170 H   0  0  0  0  0  0  0  0  0  0  0  0
   -8.8970   -3.7950  -24.6330 H   0  0  0  0  0  0  0  0  0  0  0  0
   -8.9100   -3.5750  -22.1100 H   0  0  0  0  0  0  0  0  0  0  0  0
   -6.1730   -2.4020  -22.6240 H   0  0  0  0  0  0  0  0  0  0  0  0
   -6.7360   -3.3480  -21.2440 H   0  0  0  0  0  0  0  0  0  0  0  0
  -10.5990   -1.6820  -22.7630 C   0  0  0  0  0  0  0  0  0  0  0  0
  -11.1980   -2.6030  -21.9000 C   0  0  0  0  0  0  0  0  0  0  0  0
  -12.5750   -2.6110  -21.7590 C   0  0  0  0  0  0  0  0  0  0  0  0
  -13.3010   -3.6500  -20.5700 Cl  0  0  0  0  0  0  0  0  0  0  0  0
  -13.4070   -1.7650  -22.4930 C   0  0  0  0  0  0  0  0  0  0  0  0
  -12.8170   -0.8270  -23.3120 C   0  0  0  0  0  0  0  0  0  0  0  0
  -11.4310   -0.7600  -23.4110 C   0  0  0  0  0  0  0  0  0  0  0  0
  -10.8730    0.4010  -24.1630 C   0  0  0  0  0  0  0  0  0  0  0  0
  -11.5760    1.3010  -24.5990 O   0  0  0  0  0  0  0  0  0  0  0  0
  -13.3950   -0.0970  -23.8640 H   0  0  0  0  0  0  0  0  0  0  0  0
  -14.4840   -1.8400  -22.3820 H   0  0  0  0  0  0  0  0  0  0  0  0
  -10.5960   -3.3000  -21.3230 H   0  0  0  0  0  0  0  0  0  0  0  0
   -8.9580   -1.4860  -25.0030 H   0  0  0  0  0  0  0  0  0  0  0  0
   -7.6870   -0.5600  -24.1810 H   0  0  0  0  0  0  0  0  0  0  0  0
   -9.6650    2.2770  -25.0590 H   0  0  0  0  0  0  0  0  0  0  0  0
   -8.3110    1.3160  -25.7290 H   0  0  0  0  0  0  0  0  0  0  0  0
   -9.3340    2.6690  -22.5110 H   0  0  0  0  0  0  0  0  0  0  0  0
   -6.9700    2.5270  -21.2620 H   0  0  0  0  0  0  0  0  0  0  0  0
   -7.9790    4.0100  -21.0920 H   0  0  0  0  0  0  0  0  0  0  0  0
   -6.6850    3.9390  -22.2800 H   0  0  0  0  0  0  0  0  0  0  0  0
  1  2  1  0  0  0  0
  1 61  1  0  0  0  0
  1 62  1  0  0  0  0
  1 63  1  0  0  0  0
  2  3  1  0  0  0  0
  2 60  1  0  0  0  0
  3  4  2  0  0  0  0
  3  5  1  0  0  0  0
  5  6  1  0  0  0  0
  5 58  1  0  0  0  0
  5 59  1  0  0  0  0
  6  7  1  0  0  0  0
  6 51  1  0  0  0  0
  7  8  1  0  0  0  0
  7 56  1  0  0  0  0
  7 57  1  0  0  0  0
  8  9  1  1  0  0  0
  8 29  1  0  0  0  0
  8 44  1  0  0  0  0
  9 10  2  0  0  0  0
  9 11  1  0  0  0  0
 11 12  1  0  0  0  0
 11 28  1  0  0  0  0
 12 13  2  0  0  0  0
 12 21  1  0  0  0  0
 13 14  1  0  0  0  0
 13 27  1  0  0  0  0
 14 15  2  0  0  0  0
 15 16  1  0  0  0  0
 15 26  1  0  0  0  0
 16 17  2  0  0  0  0
 16 21  1  0  0  0  0
 17 18  1  0  0  0  0
 17 25  1  0  0  0  0
 18 19  2  0  0  0  0
 18 24  1  0  0  0  0
 19 20  1  0  0  0  0
 19 23  1  0  0  0  0
 20 21  2  0  0  0  0
 20 22  1  0  0  0  0
 28 29  1  0  0  0  0
 28 42  1  0  0  0  0
 28 43  1  0  0  0  0
 29 30  1  0  0  0  0
 29 41  1  1  0  0  0
 30 31  1  0  0  0  0
 30 39  1  0  0  0  0
 30 40  1  0  0  0  0
 31 32  1  0  0  0  0
 31 35  1  0  0  0  0
 32 33  2  0  0  0  0
 32 38  1  0  0  0  0
 33 34  1  0  0  0  0
 33 37  1  0  0  0  0
 34 35  2  0  0  0  0
 34 36  1  0  0  0  0
 44 45  2  0  0  0  0
 44 50  1  0  0  0  0
 45 46  1  0  0  0  0
 45 55  1  0  0  0  0
 46 47  1  0  0  0  0
 46 48  2  0  0  0  0
 48 49  1  0  0  0  0
 48 54  1  0  0  0  0
 49 50  2  0  0  0  0
 49 53  1  0  0  0  0
 50 51  1  0  0  0  0
 51 52  2  0  0  0  0
M  END
>  <MODEL>
       1

$$$$
