tmp_first_model_2_1.pdb
 OpenBabel08272517383D

 68 73  0  0  1  0  0  0  0  0999 V2000
   -7.4460    3.3760  -21.8360 C   0  0  0  0  0  0  0  0  0  0  0  0
   -8.4740    2.8930  -22.7500 N   0  0  0  0  0  0  0  0  0  0  0  0
   -8.0380    2.1490  -23.8110 C   0  0  0  0  0  0  0  0  0  0  0  0
   -6.8530    1.9350  -24.0150 O   0  0  0  0  0  0  0  0  0  0  0  0
   -9.0880    1.5600  -24.7540 C   0  0  0  0  0  0  0  0  0  0  0  0
   -9.6690    0.3700  -24.1690 N   0  0  0  0  0  0  0  0  0  0  0  0
   -8.8640   -0.8360  -24.0720 C   0  0  0  0  0  0  0  0  0  0  0  0
   -9.1520   -1.6160  -22.7660 C   0  0  2  0  0  0  0  0  0  0  0  0
   -8.6060   -0.8230  -21.5550 C   0  0  0  0  0  0  0  0  0  0  0  0
   -9.1040    0.1470  -21.0220 O   0  0  0  0  0  0  0  0  0  0  0  0
   -7.4110   -1.3920  -21.1820 N   0  0  0  0  0  0  0  0  0  0  0  0
   -6.6160   -0.8130  -20.1670 C   0  0  0  0  0  0  0  0  0  0  0  0
   -6.9350   -1.0390  -18.8530 C   0  0  0  0  0  0  0  0  0  0  0  0
   -6.2360   -0.5490  -17.8020 N   0  0  0  0  0  0  0  0  0  0  0  0
   -5.1940    0.2010  -18.0760 C   0  0  0  0  0  0  0  0  0  0  0  0
   -4.7580    0.5200  -19.3940 C   0  0  0  0  0  0  0  0  0  0  0  0
   -3.6350    1.3560  -19.6310 C   0  0  0  0  0  0  0  0  0  0  0  0
   -3.2500    1.6580  -20.9080 C   0  0  0  0  0  0  0  0  0  0  0  0
   -3.9720    1.1450  -22.0090 C   0  0  0  0  0  0  0  0  0  0  0  0
   -5.0690    0.3400  -21.8090 C   0  0  0  0  0  0  0  0  0  0  0  0
   -5.4850   -0.0010  -20.4900 C   0  0  0  0  0  0  0  0  0  0  0  0
   -5.6340   -0.0040  -22.6710 H   0  0  0  0  0  0  0  0  0  0  0  0
   -3.6630    1.3950  -23.0190 H   0  0  0  0  0  0  0  0  0  0  0  0
   -2.3930    2.3000  -21.0830 H   0  0  0  0  0  0  0  0  0  0  0  0
   -3.1050    1.7550  -18.7710 H   0  0  0  0  0  0  0  0  0  0  0  0
   -4.6300    0.5980  -17.2320 H   0  0  0  0  0  0  0  0  0  0  0  0
   -7.8000   -1.6540  -18.6140 H   0  0  0  0  0  0  0  0  0  0  0  0
   -7.0250   -2.5530  -21.9570 C   0  0  0  0  0  0  0  0  0  0  0  0
   -8.3220   -2.9340  -22.6910 C   0  0  2  0  0  0  0  0  0  0  0  0
   -8.0710   -3.6450  -24.0270 C   0  0  0  0  0  0  0  0  0  0  0  0
   -7.4590   -4.9360  -23.8470 N   0  0  0  0  0  0  0  0  0  0  0  0
   -7.1130   -5.7300  -24.9300 C   0  0  0  0  0  0  0  0  0  0  0  0
   -6.4720   -7.0030  -24.8950 C   0  0  0  0  0  0  0  0  0  0  0  0
   -6.2830   -7.4820  -26.1180 N   0  0  0  0  0  0  0  0  0  0  0  0
   -6.7950   -6.5670  -26.9430 N   0  0  0  0  0  0  0  0  0  0  0  0
   -6.7340   -6.7680  -28.3710 C   0  0  0  0  0  0  0  0  0  0  0  0
   -5.8790   -6.2460  -28.8170 H   0  0  0  0  0  0  0  0  0  0  0  0
   -6.6320   -7.8410  -28.5360 H   0  0  0  0  0  0  0  0  0  0  0  0
   -7.6570   -6.4090  -28.8350 H   0  0  0  0  0  0  0  0  0  0  0  0
   -7.3020   -5.4900  -26.2790 C   0  0  0  0  0  0  0  0  0  0  0  0
   -7.7620   -4.6700  -26.8260 H   0  0  0  0  0  0  0  0  0  0  0  0
   -6.1400   -7.6020  -24.0520 H   0  0  0  0  0  0  0  0  0  0  0  0
   -7.2150   -5.2670  -22.9300 H   0  0  0  0  0  0  0  0  0  0  0  0
   -9.0220   -3.7630  -24.5660 H   0  0  0  0  0  0  0  0  0  0  0  0
   -7.4270   -3.0120  -24.6600 H   0  0  0  0  0  0  0  0  0  0  0  0
   -8.8700   -3.6270  -22.0460 H   0  0  0  0  0  0  0  0  0  0  0  0
   -6.2130   -2.3140  -22.6620 H   0  0  0  0  0  0  0  0  0  0  0  0
   -6.6700   -3.3470  -21.2920 H   0  0  0  0  0  0  0  0  0  0  0  0
  -10.6550   -1.7700  -22.6560 C   0  0  0  0  0  0  0  0  0  0  0  0
  -11.2190   -2.7600  -21.8500 C   0  0  0  0  0  0  0  0  0  0  0  0
  -12.5900   -2.8110  -21.6820 C   0  0  0  0  0  0  0  0  0  0  0  0
  -13.2600   -3.9690  -20.5820 Cl  0  0  0  0  0  0  0  0  0  0  0  0
  -13.4580   -1.9320  -22.3270 C   0  0  0  0  0  0  0  0  0  0  0  0
  -12.9060   -0.9440  -23.1080 C   0  0  0  0  0  0  0  0  0  0  0  0
  -11.5270   -0.8430  -23.2410 C   0  0  0  0  0  0  0  0  0  0  0  0
  -11.0180    0.3460  -23.9790 C   0  0  0  0  0  0  0  0  0  0  0  0
  -11.7560    1.2450  -24.3650 O   0  0  0  0  0  0  0  0  0  0  0  0
  -13.5080   -0.1990  -23.6130 H   0  0  0  0  0  0  0  0  0  0  0  0
  -14.5300   -2.0140  -22.1880 H   0  0  0  0  0  0  0  0  0  0  0  0
  -10.6050   -3.4810  -21.3230 H   0  0  0  0  0  0  0  0  0  0  0  0
   -9.0850   -1.4930  -24.9230 H   0  0  0  0  0  0  0  0  0  0  0  0
   -7.8100   -0.5490  -24.1260 H   0  0  0  0  0  0  0  0  0  0  0  0
   -8.5770    1.3060  -25.6930 H   0  0  0  0  0  0  0  0  0  0  0  0
   -9.9220    2.2380  -24.9650 H   0  0  0  0  0  0  0  0  0  0  0  0
   -9.3980    2.7300  -22.3660 H   0  0  0  0  0  0  0  0  0  0  0  0
   -7.9200    3.9250  -21.0170 H   0  0  0  0  0  0  0  0  0  0  0  0
   -6.8560    2.5250  -21.4570 H   0  0  0  0  0  0  0  0  0  0  0  0
   -6.7840    4.0700  -22.3670 H   0  0  0  0  0  0  0  0  0  0  0  0
  1  2  1  0  0  0  0
  1 66  1  0  0  0  0
  1 67  1  0  0  0  0
  1 68  1  0  0  0  0
  2  3  1  0  0  0  0
  2 65  1  0  0  0  0
  3  4  2  0  0  0  0
  3  5  1  0  0  0  0
  5  6  1  0  0  0  0
  5 63  1  0  0  0  0
  5 64  1  0  0  0  0
  6  7  1  0  0  0  0
  6 56  1  0  0  0  0
  7  8  1  0  0  0  0
  7 61  1  0  0  0  0
  7 62  1  0  0  0  0
  8  9  1  1  0  0  0
  8 29  1  0  0  0  0
  8 49  1  0  0  0  0
  9 10  2  0  0  0  0
  9 11  1  0  0  0  0
 11 12  1  0  0  0  0
 11 28  1  0  0  0  0
 12 13  2  0  0  0  0
 12 21  1  0  0  0  0
 13 14  1  0  0  0  0
 13 27  1  0  0  0  0
 14 15  2  0  0  0  0
 15 16  1  0  0  0  0
 15 26  1  0  0  0  0
 16 17  2  0  0  0  0
 16 21  1  0  0  0  0
 17 18  1  0  0  0  0
 17 25  1  0  0  0  0
 18 19  2  0  0  0  0
 18 24  1  0  0  0  0
 19 20  1  0  0  0  0
 19 23  1  0  0  0  0
 20 21  2  0  0  0  0
 20 22  1  0  0  0  0
 28 29  1  0  0  0  0
 28 47  1  0  0  0  0
 28 48  1  0  0  0  0
 29 30  1  0  0  0  0
 29 46  1  1  0  0  0
 30 31  1  0  0  0  0
 30 44  1  0  0  0  0
 30 45  1  0  0  0  0
 31 32  1  0  0  0  0
 31 43  1  0  0  0  0
 32 33  1  0  0  0  0
 32 40  2  0  0  0  0
 33 34  2  0  0  0  0
 33 42  1  0  0  0  0
 34 35  1  0  0  0  0
 35 36  1  0  0  0  0
 35 40  1  0  0  0  0
 36 37  1  0  0  0  0
 36 38  1  0  0  0  0
 36 39  1  0  0  0  0
 40 41  1  0  0  0  0
 49 50  2  0  0  0  0
 49 55  1  0  0  0  0
 50 51  1  0  0  0  0
 50 60  1  0  0  0  0
 51 52  1  0  0  0  0
 51 53  2  0  0  0  0
 53 54  1  0  0  0  0
 53 59  1  0  0  0  0
 54 55  2  0  0  0  0
 54 58  1  0  0  0  0
 55 56  1  0  0  0  0
 56 57  2  0  0  0  0
M  END
>  <MODEL>
       1

$$$$
