tmp_first_model_8_89.pdb
 OpenBabel08272521063D

 43 45  0  0  0  0  0  0  0  0999 V2000
   -6.2430    1.4930  -26.6540 C   0  0  0  0  0  0  0  0  0  0  0  0
   -7.4230    1.1170  -25.7530 C   0  0  0  0  0  0  0  0  0  0  0  0
   -8.7200    1.3570  -26.5360 C   0  0  0  0  0  0  0  0  0  0  0  0
   -9.6200    1.1190  -25.9640 H   0  0  0  0  0  0  0  0  0  0  0  0
   -8.7450    0.7480  -27.4470 H   0  0  0  0  0  0  0  0  0  0  0  0
   -8.7980    2.4050  -26.8420 H   0  0  0  0  0  0  0  0  0  0  0  0
   -7.2930   -0.3580  -25.3500 C   0  0  0  0  0  0  0  0  0  0  0  0
   -8.2740   -0.7740  -24.2600 C   0  0  0  0  0  0  0  0  0  0  0  0
   -8.1740    0.1170  -23.1110 N   0  0  0  0  0  0  0  0  0  0  0  0
   -8.3850   -0.3130  -21.7960 C   0  0  0  0  0  0  0  0  0  0  0  0
   -9.1960    0.2040  -21.0600 O   0  0  0  0  0  0  0  0  0  0  0  0
   -7.4460   -1.4120  -21.2720 C   0  0  0  0  0  0  0  0  0  0  0  0
   -6.5720   -0.8350  -20.1760 C   0  0  0  0  0  0  0  0  0  0  0  0
   -6.8770   -1.0420  -18.8560 C   0  0  0  0  0  0  0  0  0  0  0  0
   -6.1880   -0.5410  -17.7970 N   0  0  0  0  0  0  0  0  0  0  0  0
   -5.1550    0.2210  -18.0650 C   0  0  0  0  0  0  0  0  0  0  0  0
   -4.7240    0.5350  -19.3800 C   0  0  0  0  0  0  0  0  0  0  0  0
   -3.6030    1.3710  -19.6200 C   0  0  0  0  0  0  0  0  0  0  0  0
   -3.2230    1.6750  -20.8980 C   0  0  0  0  0  0  0  0  0  0  0  0
   -3.9580    1.1580  -21.9880 C   0  0  0  0  0  0  0  0  0  0  0  0
   -5.0300    0.3260  -21.7830 C   0  0  0  0  0  0  0  0  0  0  0  0
   -5.4520   -0.0010  -20.4700 C   0  0  0  0  0  0  0  0  0  0  0  0
   -5.5520   -0.0860  -22.6390 H   0  0  0  0  0  0  0  0  0  0  0  0
   -3.6240    1.3760  -22.9990 H   0  0  0  0  0  0  0  0  0  0  0  0
   -2.3610    2.3090  -21.0860 H   0  0  0  0  0  0  0  0  0  0  0  0
   -3.0630    1.7810  -18.7700 H   0  0  0  0  0  0  0  0  0  0  0  0
   -4.6030    0.6270  -17.2160 H   0  0  0  0  0  0  0  0  0  0  0  0
   -7.7290   -1.6600  -18.5820 H   0  0  0  0  0  0  0  0  0  0  0  0
   -8.0660   -2.2080  -20.8450 H   0  0  0  0  0  0  0  0  0  0  0  0
   -6.8370   -1.8400  -22.0770 H   0  0  0  0  0  0  0  0  0  0  0  0
   -8.3840    1.5280  -23.4120 C   0  0  0  0  0  0  0  0  0  0  0  0
   -7.3920    1.9810  -24.4850 C   0  0  0  0  0  0  0  0  0  0  0  0
   -7.5790    3.0270  -24.7520 H   0  0  0  0  0  0  0  0  0  0  0  0
   -6.3830    1.9550  -24.0540 H   0  0  0  0  0  0  0  0  0  0  0  0
   -9.4180    1.7510  -23.7180 H   0  0  0  0  0  0  0  0  0  0  0  0
   -8.2170    2.0830  -22.4900 H   0  0  0  0  0  0  0  0  0  0  0  0
   -9.2980   -0.7960  -24.6740 H   0  0  0  0  0  0  0  0  0  0  0  0
   -8.0670   -1.7880  -23.9240 H   0  0  0  0  0  0  0  0  0  0  0  0
   -6.2780   -0.5390  -24.9810 H   0  0  0  0  0  0  0  0  0  0  0  0
   -7.4230   -0.9920  -26.2350 H   0  0  0  0  0  0  0  0  0  0  0  0
   -5.2850    1.3410  -26.1450 H   0  0  0  0  0  0  0  0  0  0  0  0
   -6.2930    2.5450  -26.9580 H   0  0  0  0  0  0  0  0  0  0  0  0
   -6.2310    0.8850  -27.5670 H   0  0  0  0  0  0  0  0  0  0  0  0
  1  2  1  0  0  0  0
  1 41  1  0  0  0  0
  1 42  1  0  0  0  0
  1 43  1  0  0  0  0
  2  3  1  0  0  0  0
  2  7  1  0  0  0  0
  2 32  1  0  0  0  0
  3  4  1  0  0  0  0
  3  5  1  0  0  0  0
  3  6  1  0  0  0  0
  7  8  1  0  0  0  0
  7 39  1  0  0  0  0
  7 40  1  0  0  0  0
  8  9  1  0  0  0  0
  8 37  1  0  0  0  0
  8 38  1  0  0  0  0
  9 10  1  0  0  0  0
  9 31  1  0  0  0  0
 10 11  2  0  0  0  0
 10 12  1  0  0  0  0
 12 13  1  0  0  0  0
 12 29  1  0  0  0  0
 12 30  1  0  0  0  0
 13 14  2  0  0  0  0
 13 22  1  0  0  0  0
 14 15  1  0  0  0  0
 14 28  1  0  0  0  0
 15 16  2  0  0  0  0
 16 17  1  0  0  0  0
 16 27  1  0  0  0  0
 17 18  2  0  0  0  0
 17 22  1  0  0  0  0
 18 19  1  0  0  0  0
 18 26  1  0  0  0  0
 19 20  2  0  0  0  0
 19 25  1  0  0  0  0
 20 21  1  0  0  0  0
 20 24  1  0  0  0  0
 21 22  2  0  0  0  0
 21 23  1  0  0  0  0
 31 32  1  0  0  0  0
 31 35  1  0  0  0  0
 31 36  1  0  0  0  0
 32 33  1  0  0  0  0
 32 34  1  0  0  0  0
M  END
>  <MODEL>
       1

$$$$
