tmp_first_model_11_90.pdb
 OpenBabel08272522543D

 64 68  0  0  1  0  0  0  0  0999 V2000
   -7.4720    3.3260  -21.8350 C   0  0  0  0  0  0  0  0  0  0  0  0
   -8.5050    2.8330  -22.7320 N   0  0  0  0  0  0  0  0  0  0  0  0
   -8.0910    2.0970  -23.8020 C   0  0  0  0  0  0  0  0  0  0  0  0
   -6.9050    1.8950  -24.0260 O   0  0  0  0  0  0  0  0  0  0  0  0
   -9.1490    1.5060  -24.7310 C   0  0  0  0  0  0  0  0  0  0  0  0
   -9.7180    0.3090  -24.1490 N   0  0  0  0  0  0  0  0  0  0  0  0
   -8.9030   -0.8950  -24.0610 C   0  0  0  0  0  0  0  0  0  0  0  0
   -9.1680   -1.6640  -22.7450 C   0  0  2  0  0  0  0  0  0  0  0  0
   -8.6130   -0.8580  -21.5490 C   0  0  0  0  0  0  0  0  0  0  0  0
   -9.1180    0.1110  -21.0170 O   0  0  0  0  0  0  0  0  0  0  0  0
   -7.4040   -1.4070  -21.1860 N   0  0  0  0  0  0  0  0  0  0  0  0
   -6.6110   -0.8250  -20.1720 C   0  0  0  0  0  0  0  0  0  0  0  0
   -6.9320   -1.0420  -18.8550 C   0  0  0  0  0  0  0  0  0  0  0  0
   -6.2340   -0.5490  -17.8050 N   0  0  0  0  0  0  0  0  0  0  0  0
   -5.1890    0.1960  -18.0790 C   0  0  0  0  0  0  0  0  0  0  0  0
   -4.7500    0.5090  -19.3970 C   0  0  0  0  0  0  0  0  0  0  0  0
   -3.6270    1.3440  -19.6350 C   0  0  0  0  0  0  0  0  0  0  0  0
   -3.2440    1.6480  -20.9130 C   0  0  0  0  0  0  0  0  0  0  0  0
   -3.9670    1.1350  -22.0110 C   0  0  0  0  0  0  0  0  0  0  0  0
   -5.0640    0.3290  -21.8100 C   0  0  0  0  0  0  0  0  0  0  0  0
   -5.4790   -0.0120  -20.4920 C   0  0  0  0  0  0  0  0  0  0  0  0
   -5.6340   -0.0140  -22.6690 H   0  0  0  0  0  0  0  0  0  0  0  0
   -3.6600    1.3870  -23.0220 H   0  0  0  0  0  0  0  0  0  0  0  0
   -2.3900    2.2950  -21.0880 H   0  0  0  0  0  0  0  0  0  0  0  0
   -3.0980    1.7510  -18.7770 H   0  0  0  0  0  0  0  0  0  0  0  0
   -4.6260    0.5960  -17.2340 H   0  0  0  0  0  0  0  0  0  0  0  0
   -7.7970   -1.6540  -18.6140 H   0  0  0  0  0  0  0  0  0  0  0  0
   -7.0110   -2.5660  -21.9550 C   0  0  0  0  0  0  0  0  0  0  0  0
   -8.3210   -2.9680  -22.6530 C   0  0  2  0  0  0  0  0  0  0  0  0
   -8.1110   -3.7380  -23.9570 C   0  0  0  0  0  0  0  0  0  0  0  0
   -7.4180   -5.3500  -23.6340 S   0  0  0  0  0  0  0  0  0  0  0  0
   -6.0330   -5.2100  -23.2150 O   0  0  0  0  0  0  0  0  0  0  0  0
   -8.3480   -6.0760  -22.7760 O   0  0  0  0  0  0  0  0  0  0  0  0
   -7.3460   -5.9880  -25.1750 N   0  0  0  0  0  0  0  0  0  0  0  0
   -8.5580   -6.4540  -25.8440 C   0  0  0  0  0  0  0  0  0  0  0  0
   -9.1520   -5.6060  -26.1990 H   0  0  0  0  0  0  0  0  0  0  0  0
   -8.2480   -7.0110  -26.7310 H   0  0  0  0  0  0  0  0  0  0  0  0
   -9.1800   -7.1010  -25.2150 H   0  0  0  0  0  0  0  0  0  0  0  0
   -6.5810   -6.6530  -25.1840 H   0  0  0  0  0  0  0  0  0  0  0  0
   -7.4230   -3.2360  -24.6420 H   0  0  0  0  0  0  0  0  0  0  0  0
   -9.0600   -3.8940  -24.4790 H   0  0  0  0  0  0  0  0  0  0  0  0
   -8.8440   -3.6530  -21.9840 H   0  0  0  0  0  0  0  0  0  0  0  0
   -6.6370   -3.3610  -21.3060 H   0  0  0  0  0  0  0  0  0  0  0  0
   -6.2140   -2.3310  -22.6790 H   0  0  0  0  0  0  0  0  0  0  0  0
  -10.6680   -1.8430  -22.6180 C   0  0  0  0  0  0  0  0  0  0  0  0
  -11.2170   -2.8290  -21.7960 C   0  0  0  0  0  0  0  0  0  0  0  0
  -12.5830   -2.8710  -21.6050 C   0  0  0  0  0  0  0  0  0  0  0  0
  -13.0840   -3.7670  -20.7440 F   0  0  0  0  0  0  0  0  0  0  0  0
  -13.4740   -2.0260  -22.2510 C   0  0  0  0  0  0  0  0  0  0  0  0
  -12.9370   -1.0650  -23.0750 C   0  0  0  0  0  0  0  0  0  0  0  0
  -11.5580   -0.9350  -23.2100 C   0  0  0  0  0  0  0  0  0  0  0  0
  -11.0670    0.2680  -23.9470 C   0  0  0  0  0  0  0  0  0  0  0  0
  -11.8220    1.1560  -24.3200 O   0  0  0  0  0  0  0  0  0  0  0  0
  -13.5580   -0.3540  -23.6030 H   0  0  0  0  0  0  0  0  0  0  0  0
  -14.5400   -2.1150  -22.0730 H   0  0  0  0  0  0  0  0  0  0  0  0
  -10.6060   -3.5590  -21.2790 H   0  0  0  0  0  0  0  0  0  0  0  0
   -7.8520   -0.6040  -24.1310 H   0  0  0  0  0  0  0  0  0  0  0  0
   -9.1310   -1.5560  -24.9080 H   0  0  0  0  0  0  0  0  0  0  0  0
   -9.9820    2.1860  -24.9310 H   0  0  0  0  0  0  0  0  0  0  0  0
   -8.6590    1.2590  -25.6810 H   0  0  0  0  0  0  0  0  0  0  0  0
   -9.4280    2.6820  -22.3450 H   0  0  0  0  0  0  0  0  0  0  0  0
   -6.8110    4.0090  -22.3730 H   0  0  0  0  0  0  0  0  0  0  0  0
   -6.8840    2.4770  -21.4560 H   0  0  0  0  0  0  0  0  0  0  0  0
   -7.9190    3.9020  -21.0240 H   0  0  0  0  0  0  0  0  0  0  0  0
  1  2  1  0  0  0  0
  1 62  1  0  0  0  0
  1 63  1  0  0  0  0
  1 64  1  0  0  0  0
  2  3  1  0  0  0  0
  2 61  1  0  0  0  0
  3  4  2  0  0  0  0
  3  5  1  0  0  0  0
  5  6  1  0  0  0  0
  5 59  1  0  0  0  0
  5 60  1  0  0  0  0
  6  7  1  0  0  0  0
  6 52  1  0  0  0  0
  7  8  1  0  0  0  0
  7 57  1  0  0  0  0
  7 58  1  0  0  0  0
  8  9  1  1  0  0  0
  8 29  1  0  0  0  0
  8 45  1  0  0  0  0
  9 10  2  0  0  0  0
  9 11  1  0  0  0  0
 11 12  1  0  0  0  0
 11 28  1  0  0  0  0
 12 13  2  0  0  0  0
 12 21  1  0  0  0  0
 13 14  1  0  0  0  0
 13 27  1  0  0  0  0
 14 15  2  0  0  0  0
 15 16  1  0  0  0  0
 15 26  1  0  0  0  0
 16 17  2  0  0  0  0
 16 21  1  0  0  0  0
 17 18  1  0  0  0  0
 17 25  1  0  0  0  0
 18 19  2  0  0  0  0
 18 24  1  0  0  0  0
 19 20  1  0  0  0  0
 19 23  1  0  0  0  0
 20 21  2  0  0  0  0
 20 22  1  0  0  0  0
 28 29  1  0  0  0  0
 28 43  1  0  0  0  0
 28 44  1  0  0  0  0
 29 30  1  0  0  0  0
 29 42  1  1  0  0  0
 30 31  1  0  0  0  0
 30 40  1  0  0  0  0
 30 41  1  0  0  0  0
 31 32  2  0  0  0  0
 31 33  2  0  0  0  0
 31 34  1  0  0  0  0
 34 35  1  0  0  0  0
 34 39  1  0  0  0  0
 35 36  1  0  0  0  0
 35 37  1  0  0  0  0
 35 38  1  0  0  0  0
 45 46  2  0  0  0  0
 45 51  1  0  0  0  0
 46 47  1  0  0  0  0
 46 56  1  0  0  0  0
 47 48  1  0  0  0  0
 47 49  2  0  0  0  0
 49 50  1  0  0  0  0
 49 55  1  0  0  0  0
 50 51  2  0  0  0  0
 50 54  1  0  0  0  0
 51 52  1  0  0  0  0
 52 53  2  0  0  0  0
M  END
>  <MODEL>
       1

$$$$
