tmp_first_model_15_4.pdb
 OpenBabel08282501153D

 59 64  0  0  1  0  0  0  0  0999 V2000
   -8.0730   -3.8360  -23.8630 C   0  0  0  0  0  0  0  0  0  0  0  0
   -8.4150   -2.8540  -22.7340 C   0  0  1  0  0  0  0  0  0  0  0  0
   -7.2620   -2.7010  -21.7200 C   0  0  0  0  0  0  0  0  0  0  0  0
   -7.4330   -1.3590  -21.1970 N   0  0  0  0  0  0  0  0  0  0  0  0
   -6.6120   -0.8000  -20.1810 C   0  0  0  0  0  0  0  0  0  0  0  0
   -6.8990   -1.0510  -18.8640 C   0  0  0  0  0  0  0  0  0  0  0  0
   -6.1980   -0.5590  -17.8140 N   0  0  0  0  0  0  0  0  0  0  0  0
   -5.1680    0.2090  -18.0830 C   0  0  0  0  0  0  0  0  0  0  0  0
   -4.7380    0.5320  -19.4020 C   0  0  0  0  0  0  0  0  0  0  0  0
   -3.6050    1.3590  -19.6420 C   0  0  0  0  0  0  0  0  0  0  0  0
   -3.2050    1.6370  -20.9210 C   0  0  0  0  0  0  0  0  0  0  0  0
   -3.9140    1.0960  -22.0190 C   0  0  0  0  0  0  0  0  0  0  0  0
   -5.0120    0.2970  -21.8130 C   0  0  0  0  0  0  0  0  0  0  0  0
   -5.4690    0.0080  -20.4930 C   0  0  0  0  0  0  0  0  0  0  0  0
   -5.5440   -0.1160  -22.6660 H   0  0  0  0  0  0  0  0  0  0  0  0
   -3.6040    1.3200  -23.0360 H   0  0  0  0  0  0  0  0  0  0  0  0
   -2.3490    2.2840  -21.0940 H   0  0  0  0  0  0  0  0  0  0  0  0
   -3.0780    1.7720  -18.7850 H   0  0  0  0  0  0  0  0  0  0  0  0
   -4.6200    0.6150  -17.2310 H   0  0  0  0  0  0  0  0  0  0  0  0
   -7.7480   -1.6810  -18.6050 H   0  0  0  0  0  0  0  0  0  0  0  0
   -8.2400   -0.5580  -21.9730 C   0  0  0  0  0  0  0  0  0  0  0  0
   -8.4380    0.6180  -21.7520 O   0  0  0  0  0  0  0  0  0  0  0  0
   -8.7930   -1.3930  -23.1520 C   0  0  1  0  0  0  0  0  0  0  0  0
   -8.0670   -0.9680  -24.4540 C   0  0  0  0  0  0  0  0  0  0  0  0
   -8.4360    0.3710  -24.8670 N   0  0  0  0  0  0  0  0  0  0  0  0
   -7.3860    1.3720  -25.0190 C   0  0  0  0  0  0  0  0  0  0  0  0
   -6.2950    0.9670  -25.9710 C   0  0  0  0  0  0  0  0  0  0  0  0
   -5.0470    0.7240  -25.6250 N   0  0  0  0  0  0  0  0  0  0  0  0
   -4.4140    0.3470  -26.7830 C   0  0  0  0  0  0  0  0  0  0  0  0
   -5.2920    0.3670  -27.8300 C   0  0  0  0  0  0  0  0  0  0  0  0
   -6.5000    0.7720  -27.3040 N   0  0  0  0  0  0  0  0  0  0  0  0
   -7.7480    0.9200  -28.0290 C   0  0  0  0  0  0  0  0  0  0  0  0
   -8.4580    0.1330  -27.7540 H   0  0  0  0  0  0  0  0  0  0  0  0
   -8.2030    1.8960  -27.8270 H   0  0  0  0  0  0  0  0  0  0  0  0
   -7.5260    0.8470  -29.0970 H   0  0  0  0  0  0  0  0  0  0  0  0
   -5.1900    0.1280  -28.8800 H   0  0  0  0  0  0  0  0  0  0  0  0
   -3.3650    0.0710  -26.7820 H   0  0  0  0  0  0  0  0  0  0  0  0
   -7.8900    2.2880  -25.3440 H   0  0  0  0  0  0  0  0  0  0  0  0
   -6.9090    1.5550  -24.0460 H   0  0  0  0  0  0  0  0  0  0  0  0
   -9.7520    0.7130  -25.0090 C   0  0  0  0  0  0  0  0  0  0  0  0
  -10.1250    1.6640  -25.6870 O   0  0  0  0  0  0  0  0  0  0  0  0
  -10.7250   -0.1450  -24.2490 C   0  0  0  0  0  0  0  0  0  0  0  0
  -12.0890    0.1150  -24.4090 C   0  0  0  0  0  0  0  0  0  0  0  0
  -13.0240   -0.5320  -23.6240 C   0  0  0  0  0  0  0  0  0  0  0  0
  -12.5640   -1.4190  -22.6580 C   0  0  0  0  0  0  0  0  0  0  0  0
  -13.4620   -2.0140  -21.8550 F   0  0  0  0  0  0  0  0  0  0  0  0
  -11.2250   -1.7080  -22.4880 C   0  0  0  0  0  0  0  0  0  0  0  0
  -10.2780   -1.1090  -23.3300 C   0  0  0  0  0  0  0  0  0  0  0  0
  -10.9500   -2.3740  -21.6780 H   0  0  0  0  0  0  0  0  0  0  0  0
  -14.0880   -0.3450  -23.7130 H   0  0  0  0  0  0  0  0  0  0  0  0
  -12.3840    0.8550  -25.1440 H   0  0  0  0  0  0  0  0  0  0  0  0
   -6.9850   -0.9800  -24.3020 H   0  0  0  0  0  0  0  0  0  0  0  0
   -8.3180   -1.6770  -25.2570 H   0  0  0  0  0  0  0  0  0  0  0  0
   -7.3070   -3.4330  -20.9090 H   0  0  0  0  0  0  0  0  0  0  0  0
   -6.2840   -2.8240  -22.2140 H   0  0  0  0  0  0  0  0  0  0  0  0
   -9.2780   -3.2500  -22.1930 H   0  0  0  0  0  0  0  0  0  0  0  0
   -7.9020   -4.8440  -23.4660 H   0  0  0  0  0  0  0  0  0  0  0  0
   -8.8750   -3.9030  -24.6070 H   0  0  0  0  0  0  0  0  0  0  0  0
   -7.1580   -3.5360  -24.3890 H   0  0  0  0  0  0  0  0  0  0  0  0
  1  2  1  0  0  0  0
  1 57  1  0  0  0  0
  1 58  1  0  0  0  0
  1 59  1  0  0  0  0
  2  3  1  0  0  0  0
  2 23  1  0  0  0  0
  2 56  1  1  0  0  0
  3  4  1  0  0  0  0
  3 54  1  0  0  0  0
  3 55  1  0  0  0  0
  4  5  1  0  0  0  0
  4 21  1  0  0  0  0
  5  6  2  0  0  0  0
  5 14  1  0  0  0  0
  6  7  1  0  0  0  0
  6 20  1  0  0  0  0
  7  8  2  0  0  0  0
  8  9  1  0  0  0  0
  8 19  1  0  0  0  0
  9 10  2  0  0  0  0
  9 14  1  0  0  0  0
 10 11  1  0  0  0  0
 10 18  1  0  0  0  0
 11 12  2  0  0  0  0
 11 17  1  0  0  0  0
 12 13  1  0  0  0  0
 12 16  1  0  0  0  0
 13 14  2  0  0  0  0
 13 15  1  0  0  0  0
 21 22  2  0  0  0  0
 23 21  1  1  0  0  0
 23 24  1  0  0  0  0
 23 48  1  0  0  0  0
 24 25  1  0  0  0  0
 24 52  1  0  0  0  0
 24 53  1  0  0  0  0
 25 26  1  0  0  0  0
 25 40  1  0  0  0  0
 26 27  1  0  0  0  0
 26 38  1  0  0  0  0
 26 39  1  0  0  0  0
 27 28  2  0  0  0  0
 27 31  1  0  0  0  0
 28 29  1  0  0  0  0
 29 30  2  0  0  0  0
 29 37  1  0  0  0  0
 30 31  1  0  0  0  0
 30 36  1  0  0  0  0
 31 32  1  0  0  0  0
 32 33  1  0  0  0  0
 32 34  1  0  0  0  0
 32 35  1  0  0  0  0
 40 41  2  0  0  0  0
 40 42  1  0  0  0  0
 42 43  2  0  0  0  0
 42 48  1  0  0  0  0
 43 44  1  0  0  0  0
 43 51  1  0  0  0  0
 44 45  2  0  0  0  0
 44 50  1  0  0  0  0
 45 46  1  0  0  0  0
 45 47  1  0  0  0  0
 47 48  2  0  0  0  0
 47 49  1  0  0  0  0
M  END
>  <MODEL>
       1

$$$$
