tmp_first_model_14_57.pdb
 OpenBabel08282500413D

 59 63  0  0  1  0  0  0  0  0999 V2000
  -14.5090   -1.2660  -23.5410 C   0  0  0  0  0  0  0  0  0  0  0  0
  -13.7780   -2.4530  -23.1430 N   0  0  0  0  0  0  0  0  0  0  0  0
  -13.4750   -2.6740  -21.8360 C   0  0  0  0  0  0  0  0  0  0  0  0
  -13.9300   -1.9900  -20.9300 O   0  0  0  0  0  0  0  0  0  0  0  0
  -12.5260   -3.8490  -21.5790 C   0  0  0  0  0  0  0  0  0  0  0  0
  -11.2060   -3.7590  -22.1990 N   0  0  0  0  0  0  0  0  0  0  0  0
  -10.0530   -3.2780  -21.4340 C   0  0  0  0  0  0  0  0  0  0  0  0
   -8.8410   -2.9170  -22.3350 C   0  0  2  0  0  0  0  0  0  0  0  0
   -7.5890   -2.6730  -21.4760 C   0  0  0  0  0  0  0  0  0  0  0  0
   -6.7970   -3.5070  -21.0880 O   0  0  0  0  0  0  0  0  0  0  0  0
   -7.4320   -1.3200  -21.2720 N   0  0  0  0  0  0  0  0  0  0  0  0
   -6.6120   -0.8100  -20.2300 C   0  0  0  0  0  0  0  0  0  0  0  0
   -6.9250   -1.0360  -18.9140 C   0  0  0  0  0  0  0  0  0  0  0  0
   -6.2560   -0.4960  -17.8640 N   0  0  0  0  0  0  0  0  0  0  0  0
   -5.2200    0.2580  -18.1230 C   0  0  0  0  0  0  0  0  0  0  0  0
   -4.7620    0.5480  -19.4360 C   0  0  0  0  0  0  0  0  0  0  0  0
   -3.6170    1.3540  -19.6600 C   0  0  0  0  0  0  0  0  0  0  0  0
   -3.2040    1.6210  -20.9350 C   0  0  0  0  0  0  0  0  0  0  0  0
   -3.9110    1.0880  -22.0370 C   0  0  0  0  0  0  0  0  0  0  0  0
   -5.0180    0.3010  -21.8430 C   0  0  0  0  0  0  0  0  0  0  0  0
   -5.4790    0.0120  -20.5320 C   0  0  0  0  0  0  0  0  0  0  0  0
   -5.5490   -0.1110  -22.6950 H   0  0  0  0  0  0  0  0  0  0  0  0
   -3.5690    1.3030  -23.0450 H   0  0  0  0  0  0  0  0  0  0  0  0
   -2.3350    2.2480  -21.1110 H   0  0  0  0  0  0  0  0  0  0  0  0
   -3.0850    1.7560  -18.8010 H   0  0  0  0  0  0  0  0  0  0  0  0
   -4.6780    0.6700  -17.2710 H   0  0  0  0  0  0  0  0  0  0  0  0
   -7.7680   -1.6730  -18.6560 H   0  0  0  0  0  0  0  0  0  0  0  0
   -8.4490   -0.5280  -21.9380 C   0  0  0  0  0  0  0  0  0  0  0  0
   -9.0350   -1.4810  -23.0110 C   0  0  0  0  0  0  0  0  0  0  0  0
  -10.4850   -1.0980  -23.3110 C   0  0  0  0  0  0  0  0  0  0  0  0
  -11.0910   -1.0830  -22.4010 H   0  0  0  0  0  0  0  0  0  0  0  0
  -10.9290   -1.8170  -24.0040 H   0  0  0  0  0  0  0  0  0  0  0  0
  -10.5310   -0.1030  -23.7640 H   0  0  0  0  0  0  0  0  0  0  0  0
   -8.2360   -1.4130  -24.3190 C   0  0  0  0  0  0  0  0  0  0  0  0
   -8.6350   -2.1420  -25.0340 H   0  0  0  0  0  0  0  0  0  0  0  0
   -8.3120   -0.4170  -24.7640 H   0  0  0  0  0  0  0  0  0  0  0  0
   -7.1780   -1.6570  -24.1680 H   0  0  0  0  0  0  0  0  0  0  0  0
   -8.0070    0.3720  -22.3780 H   0  0  0  0  0  0  0  0  0  0  0  0
   -9.2320   -0.2100  -21.2280 H   0  0  0  0  0  0  0  0  0  0  0  0
   -8.6040   -4.0890  -23.2660 C   0  0  0  0  0  0  0  0  0  0  0  0
   -7.3240   -4.4590  -23.7080 C   0  0  0  0  0  0  0  0  0  0  0  0
   -7.1730   -5.4710  -24.6410 C   0  0  0  0  0  0  0  0  0  0  0  0
   -5.5740   -5.8510  -25.2320 Cl  0  0  0  0  0  0  0  0  0  0  0  0
   -8.2640   -6.1810  -25.1410 C   0  0  0  0  0  0  0  0  0  0  0  0
   -9.5230   -5.8320  -24.6940 C   0  0  0  0  0  0  0  0  0  0  0  0
   -9.6920   -4.7980  -23.7790 C   0  0  0  0  0  0  0  0  0  0  0  0
  -11.0740   -4.4500  -23.3670 C   0  0  0  0  0  0  0  0  0  0  0  0
  -12.0600   -4.7900  -24.0250 O   0  0  0  0  0  0  0  0  0  0  0  0
  -10.4050   -6.3570  -25.0400 H   0  0  0  0  0  0  0  0  0  0  0  0
   -8.1200   -6.9810  -25.8600 H   0  0  0  0  0  0  0  0  0  0  0  0
   -6.4380   -3.9700  -23.3240 H   0  0  0  0  0  0  0  0  0  0  0  0
  -10.3410   -2.3780  -20.8830 H   0  0  0  0  0  0  0  0  0  0  0  0
   -9.7700   -4.0390  -20.7010 H   0  0  0  0  0  0  0  0  0  0  0  0
  -12.4580   -4.0400  -20.5040 H   0  0  0  0  0  0  0  0  0  0  0  0
  -13.0120   -4.6970  -22.0630 H   0  0  0  0  0  0  0  0  0  0  0  0
  -13.4520   -3.1120  -23.8370 H   0  0  0  0  0  0  0  0  0  0  0  0
  -13.8730   -0.3700  -23.5270 H   0  0  0  0  0  0  0  0  0  0  0  0
  -14.9030   -1.4190  -24.5500 H   0  0  0  0  0  0  0  0  0  0  0  0
  -15.3310   -1.0850  -22.8460 H   0  0  0  0  0  0  0  0  0  0  0  0
  1  2  1  0  0  0  0
  1 57  1  0  0  0  0
  1 58  1  0  0  0  0
  1 59  1  0  0  0  0
  2  3  1  0  0  0  0
  2 56  1  0  0  0  0
  3  4  2  0  0  0  0
  3  5  1  0  0  0  0
  5  6  1  0  0  0  0
  5 54  1  0  0  0  0
  5 55  1  0  0  0  0
  6  7  1  0  0  0  0
  6 47  1  0  0  0  0
  7  8  1  0  0  0  0
  7 52  1  0  0  0  0
  7 53  1  0  0  0  0
  8  9  1  1  0  0  0
  8 29  1  0  0  0  0
  8 40  1  0  0  0  0
  9 10  2  0  0  0  0
  9 11  1  0  0  0  0
 11 12  1  0  0  0  0
 11 28  1  0  0  0  0
 12 13  2  0  0  0  0
 12 21  1  0  0  0  0
 13 14  1  0  0  0  0
 13 27  1  0  0  0  0
 14 15  2  0  0  0  0
 15 16  1  0  0  0  0
 15 26  1  0  0  0  0
 16 17  2  0  0  0  0
 16 21  1  0  0  0  0
 17 18  1  0  0  0  0
 17 25  1  0  0  0  0
 18 19  2  0  0  0  0
 18 24  1  0  0  0  0
 19 20  1  0  0  0  0
 19 23  1  0  0  0  0
 20 21  2  0  0  0  0
 20 22  1  0  0  0  0
 28 29  1  0  0  0  0
 28 38  1  0  0  0  0
 28 39  1  0  0  0  0
 29 30  1  0  0  0  0
 29 34  1  0  0  0  0
 30 31  1  0  0  0  0
 30 32  1  0  0  0  0
 30 33  1  0  0  0  0
 34 35  1  0  0  0  0
 34 36  1  0  0  0  0
 34 37  1  0  0  0  0
 40 41  2  0  0  0  0
 40 46  1  0  0  0  0
 41 42  1  0  0  0  0
 41 51  1  0  0  0  0
 42 43  1  0  0  0  0
 42 44  2  0  0  0  0
 44 45  1  0  0  0  0
 44 50  1  0  0  0  0
 45 46  2  0  0  0  0
 45 49  1  0  0  0  0
 46 47  1  0  0  0  0
 47 48  2  0  0  0  0
M  END
>  <MODEL>
       1

$$$$
