tmp_first_model_20_8.pdb
 OpenBabel08282503553D

 60 64  0  0  1  0  0  0  0  0999 V2000
   -5.0050   -3.8900  -19.2720 C   0  0  0  0  0  0  0  0  0  0  0  0
   -5.6080   -4.5980  -20.3900 N   0  0  0  0  0  0  0  0  0  0  0  0
   -5.9840   -5.8930  -20.3700 C   0  0  0  0  0  0  0  0  0  0  0  0
   -5.6510   -6.7000  -19.5110 O   0  0  0  0  0  0  0  0  0  0  0  0
   -6.9590   -6.3340  -21.4840 C   0  0  0  0  0  0  0  0  0  0  0  0
   -7.1750   -5.3750  -22.5520 N   0  0  0  0  0  0  0  0  0  0  0  0
   -8.1310   -4.2910  -22.3810 C   0  0  0  0  0  0  0  0  0  0  0  0
   -7.6980   -2.9840  -23.0950 C   0  0  2  0  0  0  0  0  0  0  0  0
   -6.6630   -2.2300  -22.2360 C   0  0  0  0  0  0  0  0  0  0  0  0
   -5.4700   -2.4770  -22.1740 O   0  0  0  0  0  0  0  0  0  0  0  0
   -7.2930   -1.2750  -21.4690 N   0  0  0  0  0  0  0  0  0  0  0  0
   -6.6510   -0.6610  -20.3760 C   0  0  0  0  0  0  0  0  0  0  0  0
   -7.1640   -0.7810  -19.1080 C   0  0  0  0  0  0  0  0  0  0  0  0
   -6.5210   -0.3780  -17.9880 N   0  0  0  0  0  0  0  0  0  0  0  0
   -5.3610    0.2170  -18.1380 C   0  0  0  0  0  0  0  0  0  0  0  0
   -4.7730    0.5010  -19.4010 C   0  0  0  0  0  0  0  0  0  0  0  0
   -3.5620    1.2320  -19.5060 C   0  0  0  0  0  0  0  0  0  0  0  0
   -3.0610    1.5830  -20.7290 C   0  0  0  0  0  0  0  0  0  0  0  0
   -3.7450    1.2020  -21.9080 C   0  0  0  0  0  0  0  0  0  0  0  0
   -4.9060    0.4760  -21.8320 C   0  0  0  0  0  0  0  0  0  0  0  0
   -5.4440    0.0870  -20.5720 C   0  0  0  0  0  0  0  0  0  0  0  0
   -5.4270    0.1960  -22.7430 H   0  0  0  0  0  0  0  0  0  0  0  0
   -3.3570    1.5020  -22.8790 H   0  0  0  0  0  0  0  0  0  0  0  0
   -2.1510    2.1730  -20.8120 H   0  0  0  0  0  0  0  0  0  0  0  0
   -3.0610    1.5380  -18.5890 H   0  0  0  0  0  0  0  0  0  0  0  0
   -4.8370    0.5300  -17.2330 H   0  0  0  0  0  0  0  0  0  0  0  0
   -8.1230   -1.2710  -18.9380 H   0  0  0  0  0  0  0  0  0  0  0  0
   -8.7420   -1.3400  -21.6340 C   0  0  0  0  0  0  0  0  0  0  0  0
   -8.8500   -1.9330  -23.0430 C   0  0  2  0  0  0  0  0  0  0  0  0
  -10.2450   -2.3950  -23.4250 C   0  0  0  0  0  0  0  0  0  0  0  0
  -10.8700   -2.9770  -22.3010 O   0  0  0  0  0  0  0  0  0  0  0  0
  -12.2570   -3.1270  -22.4530 C   0  0  0  0  0  0  0  0  0  0  0  0
  -12.5090   -3.9750  -23.1060 H   0  0  0  0  0  0  0  0  0  0  0  0
  -12.6810   -3.3020  -21.4620 H   0  0  0  0  0  0  0  0  0  0  0  0
  -12.7070   -2.2120  -22.8690 H   0  0  0  0  0  0  0  0  0  0  0  0
  -10.8420   -1.5340  -23.7640 H   0  0  0  0  0  0  0  0  0  0  0  0
  -10.1930   -3.1150  -24.2620 H   0  0  0  0  0  0  0  0  0  0  0  0
   -8.5590   -1.1390  -23.7350 H   0  0  0  0  0  0  0  0  0  0  0  0
   -9.2040   -2.0090  -20.9010 H   0  0  0  0  0  0  0  0  0  0  0  0
   -9.1970   -0.3550  -21.5370 H   0  0  0  0  0  0  0  0  0  0  0  0
   -7.1610   -3.3280  -24.4690 C   0  0  0  0  0  0  0  0  0  0  0  0
   -6.9620   -2.3240  -25.4270 C   0  0  0  0  0  0  0  0  0  0  0  0
   -6.4770   -2.6450  -26.6840 C   0  0  0  0  0  0  0  0  0  0  0  0
   -6.2230   -1.3700  -27.8440 Cl  0  0  0  0  0  0  0  0  0  0  0  0
   -6.1580   -3.9560  -27.0420 C   0  0  0  0  0  0  0  0  0  0  0  0
   -6.3160   -4.9460  -26.0930 C   0  0  0  0  0  0  0  0  0  0  0  0
   -6.7840   -4.6350  -24.8160 C   0  0  0  0  0  0  0  0  0  0  0  0
   -6.8030   -5.7500  -23.8210 C   0  0  0  0  0  0  0  0  0  0  0  0
   -6.4710   -6.8890  -24.1060 O   0  0  0  0  0  0  0  0  0  0  0  0
   -6.0640   -5.9820  -26.3060 H   0  0  0  0  0  0  0  0  0  0  0  0
   -5.7750   -4.1710  -28.0360 H   0  0  0  0  0  0  0  0  0  0  0  0
   -7.1770   -1.2870  -25.1940 H   0  0  0  0  0  0  0  0  0  0  0  0
   -8.2580   -4.0870  -21.3200 H   0  0  0  0  0  0  0  0  0  0  0  0
   -9.1020   -4.6040  -22.7820 H   0  0  0  0  0  0  0  0  0  0  0  0
   -6.5290   -7.2260  -21.9390 H   0  0  0  0  0  0  0  0  0  0  0  0
   -7.9180   -6.6510  -21.0420 H   0  0  0  0  0  0  0  0  0  0  0  0
   -5.6100   -4.1140  -21.2760 H   0  0  0  0  0  0  0  0  0  0  0  0
   -4.0070   -3.5140  -19.5310 H   0  0  0  0  0  0  0  0  0  0  0  0
   -5.6150   -3.0270  -18.9830 H   0  0  0  0  0  0  0  0  0  0  0  0
   -4.9670   -4.5540  -18.4060 H   0  0  0  0  0  0  0  0  0  0  0  0
  1  2  1  0  0  0  0
  1 58  1  0  0  0  0
  1 59  1  0  0  0  0
  1 60  1  0  0  0  0
  2  3  1  0  0  0  0
  2 57  1  0  0  0  0
  3  4  2  0  0  0  0
  3  5  1  0  0  0  0
  5  6  1  0  0  0  0
  5 55  1  0  0  0  0
  5 56  1  0  0  0  0
  6  7  1  0  0  0  0
  6 48  1  0  0  0  0
  7  8  1  0  0  0  0
  7 53  1  0  0  0  0
  7 54  1  0  0  0  0
  8  9  1  1  0  0  0
  8 29  1  0  0  0  0
  8 41  1  0  0  0  0
  9 10  2  0  0  0  0
  9 11  1  0  0  0  0
 11 12  1  0  0  0  0
 11 28  1  0  0  0  0
 12 13  2  0  0  0  0
 12 21  1  0  0  0  0
 13 14  1  0  0  0  0
 13 27  1  0  0  0  0
 14 15  2  0  0  0  0
 15 16  1  0  0  0  0
 15 26  1  0  0  0  0
 16 17  2  0  0  0  0
 16 21  1  0  0  0  0
 17 18  1  0  0  0  0
 17 25  1  0  0  0  0
 18 19  2  0  0  0  0
 18 24  1  0  0  0  0
 19 20  1  0  0  0  0
 19 23  1  0  0  0  0
 20 21  2  0  0  0  0
 20 22  1  0  0  0  0
 28 29  1  0  0  0  0
 28 39  1  0  0  0  0
 28 40  1  0  0  0  0
 29 30  1  0  0  0  0
 29 38  1  6  0  0  0
 30 31  1  0  0  0  0
 30 36  1  0  0  0  0
 30 37  1  0  0  0  0
 31 32  1  0  0  0  0
 32 33  1  0  0  0  0
 32 34  1  0  0  0  0
 32 35  1  0  0  0  0
 41 42  2  0  0  0  0
 41 47  1  0  0  0  0
 42 43  1  0  0  0  0
 42 52  1  0  0  0  0
 43 44  1  0  0  0  0
 43 45  2  0  0  0  0
 45 46  1  0  0  0  0
 45 51  1  0  0  0  0
 46 47  2  0  0  0  0
 46 50  1  0  0  0  0
 47 48  1  0  0  0  0
 48 49  2  0  0  0  0
M  END
>  <MODEL>
       1

$$$$
