tmp_first_model_7_56.pdb
 OpenBabel08272520323D

 57 62  0  0  1  0  0  0  0  0999 V2000
  -10.4590   -1.1460  -23.2270 C   0  0  0  0  0  0  0  0  0  0  0  0
   -9.0110   -1.5040  -22.9070 C   0  0  1  0  0  0  0  0  0  0  0  0
   -8.3630   -0.5390  -21.9050 C   0  0  0  0  0  0  0  0  0  0  0  0
   -7.3680   -1.3540  -21.2310 N   0  0  0  0  0  0  0  0  0  0  0  0
   -6.5680   -0.8490  -20.1840 C   0  0  0  0  0  0  0  0  0  0  0  0
   -6.8870   -1.0890  -18.8690 C   0  0  0  0  0  0  0  0  0  0  0  0
   -6.2070   -0.5640  -17.8200 N   0  0  0  0  0  0  0  0  0  0  0  0
   -5.1810    0.2040  -18.0840 C   0  0  0  0  0  0  0  0  0  0  0  0
   -4.7330    0.5080  -19.4020 C   0  0  0  0  0  0  0  0  0  0  0  0
   -3.6080    1.3360  -19.6410 C   0  0  0  0  0  0  0  0  0  0  0  0
   -3.2170    1.6170  -20.9190 C   0  0  0  0  0  0  0  0  0  0  0  0
   -3.9260    1.0870  -22.0210 C   0  0  0  0  0  0  0  0  0  0  0  0
   -5.0140    0.2710  -21.8170 C   0  0  0  0  0  0  0  0  0  0  0  0
   -5.4440   -0.0250  -20.4950 C   0  0  0  0  0  0  0  0  0  0  0  0
   -5.5500   -0.1510  -22.6620 H   0  0  0  0  0  0  0  0  0  0  0  0
   -3.6130    1.3310  -23.0310 H   0  0  0  0  0  0  0  0  0  0  0  0
   -2.3610    2.2630  -21.0980 H   0  0  0  0  0  0  0  0  0  0  0  0
   -3.0900    1.7550  -18.7840 H   0  0  0  0  0  0  0  0  0  0  0  0
   -4.6400    0.6330  -17.2390 H   0  0  0  0  0  0  0  0  0  0  0  0
   -7.7310   -1.7280  -18.6150 H   0  0  0  0  0  0  0  0  0  0  0  0
   -7.5900   -2.7050  -21.3590 C   0  0  0  0  0  0  0  0  0  0  0  0
   -6.9030   -3.5570  -20.8340 O   0  0  0  0  0  0  0  0  0  0  0  0
   -8.7960   -2.9200  -22.2780 C   0  0  1  0  0  0  0  0  0  0  0  0
   -9.9870   -3.3350  -21.3990 C   0  0  0  0  0  0  0  0  0  0  0  0
  -11.1120   -3.8270  -22.1600 N   0  0  0  0  0  0  0  0  0  0  0  0
  -12.4550   -3.8020  -21.5860 C   0  0  0  0  0  0  0  0  0  0  0  0
  -13.3370   -2.7490  -22.2050 C   0  0  0  0  0  0  0  0  0  0  0  0
  -13.6140   -1.6210  -21.5670 N   0  0  0  0  0  0  0  0  0  0  0  0
  -14.3800   -0.7730  -22.2630 C   0  0  0  0  0  0  0  0  0  0  0  0
  -14.8260   -1.0020  -23.5390 C   0  0  0  0  0  0  0  0  0  0  0  0
  -14.5240   -2.2350  -24.0810 C   0  0  0  0  0  0  0  0  0  0  0  0
  -13.8190   -3.1140  -23.3960 N   0  0  0  0  0  0  0  0  0  0  0  0
  -14.8430   -2.5340  -25.0760 H   0  0  0  0  0  0  0  0  0  0  0  0
  -15.3820   -0.2380  -24.0400 H   0  0  0  0  0  0  0  0  0  0  0  0
  -14.6800    0.1500  -21.8000 H   0  0  0  0  0  0  0  0  0  0  0  0
  -12.4630   -3.7500  -20.5000 H   0  0  0  0  0  0  0  0  0  0  0  0
  -12.8900   -4.7380  -21.9180 H   0  0  0  0  0  0  0  0  0  0  0  0
  -10.9070   -4.7010  -23.1850 C   0  0  0  0  0  0  0  0  0  0  0  0
  -11.8200   -5.3480  -23.6560 O   0  0  0  0  0  0  0  0  0  0  0  0
   -9.5330   -4.8210  -23.7400 C   0  0  0  0  0  0  0  0  0  0  0  0
   -9.3150   -5.7590  -24.7490 C   0  0  0  0  0  0  0  0  0  0  0  0
   -8.0750   -5.8710  -25.3450 C   0  0  0  0  0  0  0  0  0  0  0  0
   -7.0690   -5.0180  -24.9050 C   0  0  0  0  0  0  0  0  0  0  0  0
   -5.8700   -5.0880  -25.5020 F   0  0  0  0  0  0  0  0  0  0  0  0
   -7.2570   -4.0910  -23.9010 C   0  0  0  0  0  0  0  0  0  0  0  0
   -8.5160   -3.9830  -23.3040 C   0  0  0  0  0  0  0  0  0  0  0  0
   -6.4380   -3.4530  -23.5900 H   0  0  0  0  0  0  0  0  0  0  0  0
   -7.8650   -6.5750  -26.1440 H   0  0  0  0  0  0  0  0  0  0  0  0
  -10.1370   -6.3940  -25.0520 H   0  0  0  0  0  0  0  0  0  0  0  0
   -9.6630   -4.1060  -20.7080 H   0  0  0  0  0  0  0  0  0  0  0  0
  -10.3050   -2.4660  -20.8220 H   0  0  0  0  0  0  0  0  0  0  0  0
   -9.1060   -0.1640  -21.1870 H   0  0  0  0  0  0  0  0  0  0  0  0
   -7.9040    0.3240  -22.3950 H   0  0  0  0  0  0  0  0  0  0  0  0
   -8.4270   -1.4840  -23.8360 H   0  0  0  0  0  0  0  0  0  0  0  0
  -11.0500   -1.0750  -22.3070 H   0  0  0  0  0  0  0  0  0  0  0  0
  -10.5280   -0.1830  -23.7390 H   0  0  0  0  0  0  0  0  0  0  0  0
  -10.9200   -1.9170  -23.8550 H   0  0  0  0  0  0  0  0  0  0  0  0
  1  2  1  0  0  0  0
  1 55  1  0  0  0  0
  1 56  1  0  0  0  0
  1 57  1  0  0  0  0
  2  3  1  0  0  0  0
  2 23  1  0  0  0  0
  2 54  1  6  0  0  0
  3  4  1  0  0  0  0
  3 52  1  0  0  0  0
  3 53  1  0  0  0  0
  4  5  1  0  0  0  0
  4 21  1  0  0  0  0
  5  6  2  0  0  0  0
  5 14  1  0  0  0  0
  6  7  1  0  0  0  0
  6 20  1  0  0  0  0
  7  8  2  0  0  0  0
  8  9  1  0  0  0  0
  8 19  1  0  0  0  0
  9 10  2  0  0  0  0
  9 14  1  0  0  0  0
 10 11  1  0  0  0  0
 10 18  1  0  0  0  0
 11 12  2  0  0  0  0
 11 17  1  0  0  0  0
 12 13  1  0  0  0  0
 12 16  1  0  0  0  0
 13 14  2  0  0  0  0
 13 15  1  0  0  0  0
 21 22  2  0  0  0  0
 23 21  1  1  0  0  0
 23 24  1  0  0  0  0
 23 46  1  0  0  0  0
 24 25  1  0  0  0  0
 24 50  1  0  0  0  0
 24 51  1  0  0  0  0
 25 26  1  0  0  0  0
 25 38  1  0  0  0  0
 26 27  1  0  0  0  0
 26 36  1  0  0  0  0
 26 37  1  0  0  0  0
 27 28  2  0  0  0  0
 27 32  1  0  0  0  0
 28 29  1  0  0  0  0
 29 30  2  0  0  0  0
 29 35  1  0  0  0  0
 30 31  1  0  0  0  0
 30 34  1  0  0  0  0
 31 32  2  0  0  0  0
 31 33  1  0  0  0  0
 38 39  2  0  0  0  0
 38 40  1  0  0  0  0
 40 41  2  0  0  0  0
 40 46  1  0  0  0  0
 41 42  1  0  0  0  0
 41 49  1  0  0  0  0
 42 43  2  0  0  0  0
 42 48  1  0  0  0  0
 43 44  1  0  0  0  0
 43 45  1  0  0  0  0
 45 46  2  0  0  0  0
 45 47  1  0  0  0  0
M  END
>  <MODEL>
       1

$$$$
