tmp_first_model_4_73.pdb
 OpenBabel08272518513D

 50 53  0  0  1  0  0  0  0  0999 V2000
   -5.6150   -3.0850  -21.5680 O   0  0  0  0  0  0  0  0  0  0  0  0
   -6.7620   -2.7890  -21.8700 C   0  0  0  0  0  0  0  0  0  0  0  0
   -7.4010   -1.5160  -21.2980 C   0  0  0  0  0  0  0  0  0  0  0  0
   -6.5000   -0.9930  -20.2210 C   0  0  0  0  0  0  0  0  0  0  0  0
   -6.7560   -1.2720  -18.9070 C   0  0  0  0  0  0  0  0  0  0  0  0
   -5.9360   -0.9840  -17.8660 N   0  0  0  0  0  0  0  0  0  0  0  0
   -4.8260   -0.3440  -18.1450 C   0  0  0  0  0  0  0  0  0  0  0  0
   -4.4440    0.0460  -19.4580 C   0  0  0  0  0  0  0  0  0  0  0  0
   -3.2930    0.8380  -19.7060 C   0  0  0  0  0  0  0  0  0  0  0  0
   -3.0500    1.3430  -20.9560 C   0  0  0  0  0  0  0  0  0  0  0  0
   -3.8880    0.9800  -22.0360 C   0  0  0  0  0  0  0  0  0  0  0  0
   -4.9650    0.1550  -21.8390 C   0  0  0  0  0  0  0  0  0  0  0  0
   -5.3050   -0.2880  -20.5320 C   0  0  0  0  0  0  0  0  0  0  0  0
   -5.6270   -0.0780  -22.6680 H   0  0  0  0  0  0  0  0  0  0  0  0
   -3.6940    1.3830  -23.0270 H   0  0  0  0  0  0  0  0  0  0  0  0
   -2.2640    2.0730  -21.1130 H   0  0  0  0  0  0  0  0  0  0  0  0
   -2.6550    1.1030  -18.8660 H   0  0  0  0  0  0  0  0  0  0  0  0
   -4.1930   -0.0780  -17.2980 H   0  0  0  0  0  0  0  0  0  0  0  0
   -7.7090   -1.7200  -18.6340 H   0  0  0  0  0  0  0  0  0  0  0  0
   -7.5840   -0.7840  -22.0970 H   0  0  0  0  0  0  0  0  0  0  0  0
   -8.3830   -1.7650  -20.8770 H   0  0  0  0  0  0  0  0  0  0  0  0
   -7.5250   -3.5940  -22.6680 N   0  0  0  0  0  0  0  0  0  0  0  0
   -8.6670   -3.1130  -23.4410 C   0  0  0  0  0  0  0  0  0  0  0  0
   -9.7450   -4.1860  -23.5500 C   0  0  0  0  0  0  0  0  0  0  0  0
   -9.1500   -5.4830  -24.0990 C   0  0  0  0  0  0  0  0  0  0  0  0
   -7.9760   -5.9290  -23.2230 C   0  0  0  0  0  0  0  0  0  0  0  0
   -6.9040   -4.8530  -23.0900 C   0  0  1  0  0  0  0  0  0  0  0  0
   -6.0450   -4.6930  -24.3650 C   0  0  0  0  0  0  0  0  0  0  0  0
   -5.2090   -5.9190  -24.6840 C   0  0  0  0  0  0  0  0  0  0  0  0
   -4.0530   -6.1870  -23.9430 C   0  0  0  0  0  0  0  0  0  0  0  0
   -3.2820   -7.3160  -24.2020 C   0  0  0  0  0  0  0  0  0  0  0  0
   -3.6470   -8.1980  -25.2150 C   0  0  0  0  0  0  0  0  0  0  0  0
   -4.7850   -7.9370  -25.9700 C   0  0  0  0  0  0  0  0  0  0  0  0
   -5.5700   -6.8190  -25.6920 C   0  0  0  0  0  0  0  0  0  0  0  0
   -6.4800   -6.6460  -26.2670 H   0  0  0  0  0  0  0  0  0  0  0  0
   -5.0530   -8.6040  -26.7860 H   0  0  0  0  0  0  0  0  0  0  0  0
   -3.0500   -9.0830  -25.4180 H   0  0  0  0  0  0  0  0  0  0  0  0
   -2.3830   -7.5050  -23.6180 H   0  0  0  0  0  0  0  0  0  0  0  0
   -3.7500   -5.4930  -23.1590 H   0  0  0  0  0  0  0  0  0  0  0  0
   -6.6920   -4.4450  -25.2180 H   0  0  0  0  0  0  0  0  0  0  0  0
   -5.3930   -3.8270  -24.2040 H   0  0  0  0  0  0  0  0  0  0  0  0
   -6.2300   -5.1220  -22.2700 H   0  0  0  0  0  0  0  0  0  0  0  0
   -8.3480   -6.1530  -22.2160 H   0  0  0  0  0  0  0  0  0  0  0  0
   -7.5000   -6.8370  -23.6140 H   0  0  0  0  0  0  0  0  0  0  0  0
   -9.9120   -6.2680  -24.1320 H   0  0  0  0  0  0  0  0  0  0  0  0
   -8.8160   -5.3440  -25.1380 H   0  0  0  0  0  0  0  0  0  0  0  0
  -10.1690   -4.3800  -22.5570 H   0  0  0  0  0  0  0  0  0  0  0  0
  -10.5600   -3.8100  -24.1820 H   0  0  0  0  0  0  0  0  0  0  0  0
   -9.0680   -2.2170  -22.9610 H   0  0  0  0  0  0  0  0  0  0  0  0
   -8.3390   -2.8210  -24.4520 H   0  0  0  0  0  0  0  0  0  0  0  0
  1  2  2  0  0  0  0
  2  3  1  0  0  0  0
  2 22  1  0  0  0  0
  3  4  1  0  0  0  0
  3 20  1  0  0  0  0
  3 21  1  0  0  0  0
  4  5  2  0  0  0  0
  4 13  1  0  0  0  0
  5  6  1  0  0  0  0
  5 19  1  0  0  0  0
  6  7  2  0  0  0  0
  7  8  1  0  0  0  0
  7 18  1  0  0  0  0
  8  9  2  0  0  0  0
  8 13  1  0  0  0  0
  9 10  1  0  0  0  0
  9 17  1  0  0  0  0
 10 11  2  0  0  0  0
 10 16  1  0  0  0  0
 11 12  1  0  0  0  0
 11 15  1  0  0  0  0
 12 13  2  0  0  0  0
 12 14  1  0  0  0  0
 22 23  1  0  0  0  0
 22 27  1  0  0  0  0
 23 24  1  0  0  0  0
 23 49  1  0  0  0  0
 23 50  1  0  0  0  0
 24 25  1  0  0  0  0
 24 47  1  0  0  0  0
 24 48  1  0  0  0  0
 25 26  1  0  0  0  0
 25 45  1  0  0  0  0
 25 46  1  0  0  0  0
 26 27  1  0  0  0  0
 26 43  1  0  0  0  0
 26 44  1  0  0  0  0
 27 28  1  0  0  0  0
 27 42  1  1  0  0  0
 28 29  1  0  0  0  0
 28 40  1  0  0  0  0
 28 41  1  0  0  0  0
 29 30  2  0  0  0  0
 29 34  1  0  0  0  0
 30 31  1  0  0  0  0
 30 39  1  0  0  0  0
 31 32  2  0  0  0  0
 31 38  1  0  0  0  0
 32 33  1  0  0  0  0
 32 37  1  0  0  0  0
 33 34  2  0  0  0  0
 33 36  1  0  0  0  0
 34 35  1  0  0  0  0
M  END
>  <MODEL>
       1

$$$$
