tmp_first_model_2_53.pdb
 OpenBabel08272517383D

 59 63  0  0  1  0  0  0  0  0999 V2000
  -13.9700   -1.1030  -24.4990 C   0  0  0  0  0  0  0  0  0  0  0  0
  -14.8600   -2.1470  -23.8340 C   0  0  0  0  0  0  0  0  0  0  0  0
  -14.0780   -3.1590  -23.1660 N   0  0  0  0  0  0  0  0  0  0  0  0
  -13.3670   -2.8010  -22.0640 C   0  0  0  0  0  0  0  0  0  0  0  0
  -13.4800   -1.7210  -21.5110 O   0  0  0  0  0  0  0  0  0  0  0  0
  -12.4580   -3.9180  -21.6040 C   0  0  0  0  0  0  0  0  0  0  0  0
  -11.1400   -3.8740  -22.2080 N   0  0  0  0  0  0  0  0  0  0  0  0
  -10.0150   -3.3840  -21.4410 C   0  0  0  0  0  0  0  0  0  0  0  0
   -8.8180   -2.9350  -22.2990 C   0  0  2  0  0  0  0  0  0  0  0  0
   -7.6220   -2.7340  -21.3580 C   0  0  0  0  0  0  0  0  0  0  0  0
   -6.9820   -3.6030  -20.7970 O   0  0  0  0  0  0  0  0  0  0  0  0
   -7.3770   -1.3820  -21.2320 N   0  0  0  0  0  0  0  0  0  0  0  0
   -6.5750   -0.8720  -20.1830 C   0  0  0  0  0  0  0  0  0  0  0  0
   -6.8980   -1.1030  -18.8690 C   0  0  0  0  0  0  0  0  0  0  0  0
   -6.2330   -0.5650  -17.8160 N   0  0  0  0  0  0  0  0  0  0  0  0
   -5.2050    0.2070  -18.0810 C   0  0  0  0  0  0  0  0  0  0  0  0
   -4.7530    0.5090  -19.3980 C   0  0  0  0  0  0  0  0  0  0  0  0
   -3.6280    1.3400  -19.6330 C   0  0  0  0  0  0  0  0  0  0  0  0
   -3.2230    1.6070  -20.9120 C   0  0  0  0  0  0  0  0  0  0  0  0
   -3.9240    1.0630  -22.0110 C   0  0  0  0  0  0  0  0  0  0  0  0
   -5.0180    0.2580  -21.8110 C   0  0  0  0  0  0  0  0  0  0  0  0
   -5.4580   -0.0350  -20.4920 C   0  0  0  0  0  0  0  0  0  0  0  0
   -5.5500   -0.1650  -22.6580 H   0  0  0  0  0  0  0  0  0  0  0  0
   -3.5950    1.2910  -23.0210 H   0  0  0  0  0  0  0  0  0  0  0  0
   -2.3650    2.2480  -21.0900 H   0  0  0  0  0  0  0  0  0  0  0  0
   -3.1100    1.7590  -18.7760 H   0  0  0  0  0  0  0  0  0  0  0  0
   -4.6670    0.6360  -17.2350 H   0  0  0  0  0  0  0  0  0  0  0  0
   -7.7410   -1.7420  -18.6130 H   0  0  0  0  0  0  0  0  0  0  0  0
   -8.3730   -0.5560  -21.8980 C   0  0  0  0  0  0  0  0  0  0  0  0
   -9.0160   -1.5090  -22.9140 C   0  0  2  0  0  0  0  0  0  0  0  0
  -10.4600   -1.1570  -23.2480 C   0  0  0  0  0  0  0  0  0  0  0  0
  -10.5380   -0.1980  -23.7660 H   0  0  0  0  0  0  0  0  0  0  0  0
  -11.0670   -1.1070  -22.3360 H   0  0  0  0  0  0  0  0  0  0  0  0
  -10.9010   -1.9290  -23.8880 H   0  0  0  0  0  0  0  0  0  0  0  0
   -8.4170   -1.4920  -23.8360 H   0  0  0  0  0  0  0  0  0  0  0  0
   -7.9050    0.3090  -22.3780 H   0  0  0  0  0  0  0  0  0  0  0  0
   -9.1180   -0.1800  -21.1780 H   0  0  0  0  0  0  0  0  0  0  0  0
   -8.5580   -3.9760  -23.3540 C   0  0  0  0  0  0  0  0  0  0  0  0
   -7.2840   -4.0950  -23.9100 C   0  0  0  0  0  0  0  0  0  0  0  0
   -7.0590   -5.0210  -24.9100 C   0  0  0  0  0  0  0  0  0  0  0  0
   -5.4890   -5.1030  -25.6350 Cl  0  0  0  0  0  0  0  0  0  0  0  0
   -8.0700   -5.8620  -25.3670 C   0  0  0  0  0  0  0  0  0  0  0  0
   -9.3360   -5.7270  -24.8270 C   0  0  0  0  0  0  0  0  0  0  0  0
   -9.5980   -4.7590  -23.8590 C   0  0  0  0  0  0  0  0  0  0  0  0
  -10.9960   -4.5420  -23.3780 C   0  0  0  0  0  0  0  0  0  0  0  0
  -11.9930   -4.9150  -23.9970 O   0  0  0  0  0  0  0  0  0  0  0  0
  -10.1370   -6.3820  -25.1470 H   0  0  0  0  0  0  0  0  0  0  0  0
   -7.8530   -6.6000  -26.1340 H   0  0  0  0  0  0  0  0  0  0  0  0
   -6.4760   -3.4680  -23.5490 H   0  0  0  0  0  0  0  0  0  0  0  0
   -9.6980   -4.1770  -20.7690 H   0  0  0  0  0  0  0  0  0  0  0  0
  -10.3490   -2.5160  -20.8670 H   0  0  0  0  0  0  0  0  0  0  0  0
  -12.9670   -4.8050  -21.9690 H   0  0  0  0  0  0  0  0  0  0  0  0
  -12.4050   -3.9550  -20.5190 H   0  0  0  0  0  0  0  0  0  0  0  0
  -13.6890   -3.9060  -23.7290 H   0  0  0  0  0  0  0  0  0  0  0  0
  -15.4730   -1.6670  -23.0700 H   0  0  0  0  0  0  0  0  0  0  0  0
  -15.5220   -2.6490  -24.5460 H   0  0  0  0  0  0  0  0  0  0  0  0
  -14.5530   -0.3420  -25.0170 H   0  0  0  0  0  0  0  0  0  0  0  0
  -13.2800   -1.5630  -25.2190 H   0  0  0  0  0  0  0  0  0  0  0  0
  -13.3850   -0.6040  -23.7190 H   0  0  0  0  0  0  0  0  0  0  0  0
  1  2  1  0  0  0  0
  1 57  1  0  0  0  0
  1 58  1  0  0  0  0
  1 59  1  0  0  0  0
  2  3  1  0  0  0  0
  2 55  1  0  0  0  0
  2 56  1  0  0  0  0
  3  4  1  0  0  0  0
  3 54  1  0  0  0  0
  4  5  2  0  0  0  0
  4  6  1  0  0  0  0
  6  7  1  0  0  0  0
  6 52  1  0  0  0  0
  6 53  1  0  0  0  0
  7  8  1  0  0  0  0
  7 45  1  0  0  0  0
  8  9  1  0  0  0  0
  8 50  1  0  0  0  0
  8 51  1  0  0  0  0
  9 10  1  1  0  0  0
  9 30  1  0  0  0  0
  9 38  1  0  0  0  0
 10 11  2  0  0  0  0
 10 12  1  0  0  0  0
 12 13  1  0  0  0  0
 12 29  1  0  0  0  0
 13 14  2  0  0  0  0
 13 22  1  0  0  0  0
 14 15  1  0  0  0  0
 14 28  1  0  0  0  0
 15 16  2  0  0  0  0
 16 17  1  0  0  0  0
 16 27  1  0  0  0  0
 17 18  2  0  0  0  0
 17 22  1  0  0  0  0
 18 19  1  0  0  0  0
 18 26  1  0  0  0  0
 19 20  2  0  0  0  0
 19 25  1  0  0  0  0
 20 21  1  0  0  0  0
 20 24  1  0  0  0  0
 21 22  2  0  0  0  0
 21 23  1  0  0  0  0
 29 30  1  0  0  0  0
 29 36  1  0  0  0  0
 29 37  1  0  0  0  0
 30 31  1  0  0  0  0
 30 35  1  6  0  0  0
 31 32  1  0  0  0  0
 31 33  1  0  0  0  0
 31 34  1  0  0  0  0
 38 39  2  0  0  0  0
 38 44  1  0  0  0  0
 39 40  1  0  0  0  0
 39 49  1  0  0  0  0
 40 41  1  0  0  0  0
 40 42  2  0  0  0  0
 42 43  1  0  0  0  0
 42 48  1  0  0  0  0
 43 44  2  0  0  0  0
 43 47  1  0  0  0  0
 44 45  1  0  0  0  0
 45 46  2  0  0  0  0
M  END
>  <MODEL>
       1

$$$$
