tmp_first_model_17_1.pdb
 OpenBabel08282502223D

 68 73  0  0  1  0  0  0  0  0999 V2000
   -7.2770    3.4350  -21.8170 C   0  0  0  0  0  0  0  0  0  0  0  0
   -8.2510    2.8940  -22.7530 N   0  0  0  0  0  0  0  0  0  0  0  0
   -7.8280    2.2060  -23.8500 C   0  0  0  0  0  0  0  0  0  0  0  0
   -6.6420    2.0120  -24.0930 O   0  0  0  0  0  0  0  0  0  0  0  0
   -8.9510    1.7040  -24.7710 C   0  0  0  0  0  0  0  0  0  0  0  0
   -9.5480    0.4870  -24.2440 N   0  0  0  0  0  0  0  0  0  0  0  0
   -8.7210   -0.6970  -24.0840 C   0  0  0  0  0  0  0  0  0  0  0  0
   -9.0730   -1.5010  -22.7990 C   0  0  2  0  0  0  0  0  0  0  0  0
   -8.5730   -0.7120  -21.5680 C   0  0  0  0  0  0  0  0  0  0  0  0
   -9.0650    0.2830  -21.0830 O   0  0  0  0  0  0  0  0  0  0  0  0
   -7.4270   -1.3110  -21.1030 N   0  0  0  0  0  0  0  0  0  0  0  0
   -6.6390   -0.7380  -20.0900 C   0  0  0  0  0  0  0  0  0  0  0  0
   -6.9460   -0.9830  -18.7800 C   0  0  0  0  0  0  0  0  0  0  0  0
   -6.2220   -0.5170  -17.7360 N   0  0  0  0  0  0  0  0  0  0  0  0
   -5.1700    0.2150  -18.0190 C   0  0  0  0  0  0  0  0  0  0  0  0
   -4.7420    0.5400  -19.3410 C   0  0  0  0  0  0  0  0  0  0  0  0
   -3.6140    1.3630  -19.6010 C   0  0  0  0  0  0  0  0  0  0  0  0
   -3.2570    1.6700  -20.8870 C   0  0  0  0  0  0  0  0  0  0  0  0
   -4.0050    1.1700  -21.9790 C   0  0  0  0  0  0  0  0  0  0  0  0
   -5.1010    0.3730  -21.7550 C   0  0  0  0  0  0  0  0  0  0  0  0
   -5.4960    0.0430  -20.4260 C   0  0  0  0  0  0  0  0  0  0  0  0
   -5.6920    0.0270  -22.5990 H   0  0  0  0  0  0  0  0  0  0  0  0
   -3.7230    1.4310  -22.9960 H   0  0  0  0  0  0  0  0  0  0  0  0
   -2.3950    2.3040  -21.0800 H   0  0  0  0  0  0  0  0  0  0  0  0
   -3.0590    1.7560  -18.7530 H   0  0  0  0  0  0  0  0  0  0  0  0
   -4.5930    0.5990  -17.1780 H   0  0  0  0  0  0  0  0  0  0  0  0
   -7.8130   -1.5950  -18.5420 H   0  0  0  0  0  0  0  0  0  0  0  0
   -6.9800   -2.4420  -21.8650 C   0  0  0  0  0  0  0  0  0  0  0  0
   -8.2320   -2.8100  -22.6610 C   0  0  2  0  0  0  0  0  0  0  0  0
   -7.8640   -3.5350  -23.9350 C   0  0  0  0  0  0  0  0  0  0  0  0
   -9.0310   -4.1470  -24.5160 N   0  0  0  0  0  0  0  0  0  0  0  0
   -8.8820   -4.7290  -25.7680 C   0  0  0  0  0  0  0  0  0  0  0  0
   -7.7070   -4.8220  -26.5570 C   0  0  0  0  0  0  0  0  0  0  0  0
   -7.9440   -5.4240  -27.7140 N   0  0  0  0  0  0  0  0  0  0  0  0
   -9.2310   -5.7720  -27.6640 N   0  0  0  0  0  0  0  0  0  0  0  0
   -9.8990   -6.1780  -28.8710 C   0  0  0  0  0  0  0  0  0  0  0  0
  -10.5940   -5.3960  -29.1840 H   0  0  0  0  0  0  0  0  0  0  0  0
  -10.4510   -7.1070  -28.7280 H   0  0  0  0  0  0  0  0  0  0  0  0
   -9.1410   -6.3070  -29.6430 H   0  0  0  0  0  0  0  0  0  0  0  0
   -9.8420   -5.3710  -26.5170 C   0  0  0  0  0  0  0  0  0  0  0  0
  -10.8740   -5.6180  -26.3110 H   0  0  0  0  0  0  0  0  0  0  0  0
   -6.7120   -4.4740  -26.3120 H   0  0  0  0  0  0  0  0  0  0  0  0
   -9.8990   -3.6370  -24.3850 H   0  0  0  0  0  0  0  0  0  0  0  0
   -7.3470   -2.8380  -24.6180 H   0  0  0  0  0  0  0  0  0  0  0  0
   -7.1220   -4.3160  -23.7340 H   0  0  0  0  0  0  0  0  0  0  0  0
   -8.8100   -3.5070  -22.0500 H   0  0  0  0  0  0  0  0  0  0  0  0
   -6.1310   -2.1870  -22.5200 H   0  0  0  0  0  0  0  0  0  0  0  0
   -6.6480   -3.2560  -21.2090 H   0  0  0  0  0  0  0  0  0  0  0  0
  -10.5810   -1.6740  -22.7230 C   0  0  0  0  0  0  0  0  0  0  0  0
  -11.1640   -2.6220  -21.8700 C   0  0  0  0  0  0  0  0  0  0  0  0
  -12.5340   -2.6320  -21.6680 C   0  0  0  0  0  0  0  0  0  0  0  0
  -13.1710   -3.6820  -20.4380 Cl  0  0  0  0  0  0  0  0  0  0  0  0
  -13.3820   -1.7600  -22.3510 C   0  0  0  0  0  0  0  0  0  0  0  0
  -12.8180   -0.8440  -23.2120 C   0  0  0  0  0  0  0  0  0  0  0  0
  -11.4350   -0.7550  -23.3530 C   0  0  0  0  0  0  0  0  0  0  0  0
  -10.9060    0.4270  -24.1090 C   0  0  0  0  0  0  0  0  0  0  0  0
  -11.6440    1.3030  -24.5380 O   0  0  0  0  0  0  0  0  0  0  0  0
  -13.4300   -0.1490  -23.7750 H   0  0  0  0  0  0  0  0  0  0  0  0
  -14.4520   -1.7690  -22.1690 H   0  0  0  0  0  0  0  0  0  0  0  0
  -10.5780   -3.3300  -21.2930 H   0  0  0  0  0  0  0  0  0  0  0  0
   -7.6810   -0.3640  -24.0260 H   0  0  0  0  0  0  0  0  0  0  0  0
   -8.8280   -1.3300  -24.9780 H   0  0  0  0  0  0  0  0  0  0  0  0
   -9.7630    2.4340  -24.8350 H   0  0  0  0  0  0  0  0  0  0  0  0
   -8.5570    1.5560  -25.7860 H   0  0  0  0  0  0  0  0  0  0  0  0
   -9.1840    2.7230  -22.3990 H   0  0  0  0  0  0  0  0  0  0  0  0
   -6.6440    4.1710  -22.3180 H   0  0  0  0  0  0  0  0  0  0  0  0
   -7.7950    3.9330  -20.9950 H   0  0  0  0  0  0  0  0  0  0  0  0
   -6.6250    2.6530  -21.4120 H   0  0  0  0  0  0  0  0  0  0  0  0
  1  2  1  0  0  0  0
  1 66  1  0  0  0  0
  1 67  1  0  0  0  0
  1 68  1  0  0  0  0
  2  3  1  0  0  0  0
  2 65  1  0  0  0  0
  3  4  2  0  0  0  0
  3  5  1  0  0  0  0
  5  6  1  0  0  0  0
  5 63  1  0  0  0  0
  5 64  1  0  0  0  0
  6  7  1  0  0  0  0
  6 56  1  0  0  0  0
  7  8  1  0  0  0  0
  7 61  1  0  0  0  0
  7 62  1  0  0  0  0
  8  9  1  1  0  0  0
  8 29  1  0  0  0  0
  8 49  1  0  0  0  0
  9 10  2  0  0  0  0
  9 11  1  0  0  0  0
 11 12  1  0  0  0  0
 11 28  1  0  0  0  0
 12 13  2  0  0  0  0
 12 21  1  0  0  0  0
 13 14  1  0  0  0  0
 13 27  1  0  0  0  0
 14 15  2  0  0  0  0
 15 16  1  0  0  0  0
 15 26  1  0  0  0  0
 16 17  2  0  0  0  0
 16 21  1  0  0  0  0
 17 18  1  0  0  0  0
 17 25  1  0  0  0  0
 18 19  2  0  0  0  0
 18 24  1  0  0  0  0
 19 20  1  0  0  0  0
 19 23  1  0  0  0  0
 20 21  2  0  0  0  0
 20 22  1  0  0  0  0
 28 29  1  0  0  0  0
 28 47  1  0  0  0  0
 28 48  1  0  0  0  0
 29 30  1  0  0  0  0
 29 46  1  1  0  0  0
 30 31  1  0  0  0  0
 30 44  1  0  0  0  0
 30 45  1  0  0  0  0
 31 32  1  0  0  0  0
 31 43  1  0  0  0  0
 32 33  1  0  0  0  0
 32 40  2  0  0  0  0
 33 34  2  0  0  0  0
 33 42  1  0  0  0  0
 34 35  1  0  0  0  0
 35 36  1  0  0  0  0
 35 40  1  0  0  0  0
 36 37  1  0  0  0  0
 36 38  1  0  0  0  0
 36 39  1  0  0  0  0
 40 41  1  0  0  0  0
 49 50  2  0  0  0  0
 49 55  1  0  0  0  0
 50 51  1  0  0  0  0
 50 60  1  0  0  0  0
 51 52  1  0  0  0  0
 51 53  2  0  0  0  0
 53 54  1  0  0  0  0
 53 59  1  0  0  0  0
 54 55  2  0  0  0  0
 54 58  1  0  0  0  0
 55 56  1  0  0  0  0
 56 57  2  0  0  0  0
M  END
>  <MODEL>
       1

$$$$
