tmp_first_model_3_79.pdb
 OpenBabel08272518143D

 45 49  0  0  0  0  0  0  0  0999 V2000
  -10.5690   -2.6570  -22.4970 C   0  0  0  0  0  0  0  0  0  0  0  0
   -9.1670   -2.4380  -22.1780 N   0  0  0  0  0  0  0  0  0  0  0  0
   -8.7540   -1.3880  -21.4040 C   0  0  0  0  0  0  0  0  0  0  0  0
   -9.4290   -0.4620  -21.0080 O   0  0  0  0  0  0  0  0  0  0  0  0
   -7.3620   -1.5440  -21.2120 N   0  0  0  0  0  0  0  0  0  0  0  0
   -6.5970   -0.8700  -20.2000 C   0  0  0  0  0  0  0  0  0  0  0  0
   -6.9130   -1.0610  -18.8760 C   0  0  0  0  0  0  0  0  0  0  0  0
   -6.2210   -0.5430  -17.8290 N   0  0  0  0  0  0  0  0  0  0  0  0
   -5.1820    0.2080  -18.0970 C   0  0  0  0  0  0  0  0  0  0  0  0
   -4.7490    0.5190  -19.4150 C   0  0  0  0  0  0  0  0  0  0  0  0
   -3.6170    1.3530  -19.6390 C   0  0  0  0  0  0  0  0  0  0  0  0
   -3.2250    1.6580  -20.9120 C   0  0  0  0  0  0  0  0  0  0  0  0
   -3.9550    1.1450  -22.0080 C   0  0  0  0  0  0  0  0  0  0  0  0
   -5.0500    0.3380  -21.8150 C   0  0  0  0  0  0  0  0  0  0  0  0
   -5.4770   -0.0170  -20.5050 C   0  0  0  0  0  0  0  0  0  0  0  0
   -5.5980   -0.0470  -22.6670 H   0  0  0  0  0  0  0  0  0  0  0  0
   -3.6470    1.3980  -23.0170 H   0  0  0  0  0  0  0  0  0  0  0  0
   -2.3680    2.3040  -21.0890 H   0  0  0  0  0  0  0  0  0  0  0  0
   -3.0870    1.7550  -18.7780 H   0  0  0  0  0  0  0  0  0  0  0  0
   -4.6280    0.6110  -17.2480 H   0  0  0  0  0  0  0  0  0  0  0  0
   -7.7600   -1.6840  -18.6010 H   0  0  0  0  0  0  0  0  0  0  0  0
   -6.8640   -2.5340  -22.0610 C   0  0  0  0  0  0  0  0  0  0  0  0
   -5.7010   -2.8110  -22.2280 O   0  0  0  0  0  0  0  0  0  0  0  0
   -8.0640   -3.1710  -22.7470 C   0  0  0  0  0  0  0  0  0  0  0  0
   -8.0630   -4.7120  -22.6990 C   0  0  0  0  0  0  0  0  0  0  0  0
   -7.8580   -4.7630  -24.1880 N   0  0  0  0  0  0  0  0  0  0  0  0
   -8.9750   -5.7300  -25.0090 S   0  0  0  0  0  0  0  0  0  0  0  0
   -8.5490   -7.1060  -24.8790 O   0  0  0  0  0  0  0  0  0  0  0  0
  -10.2970   -5.3280  -24.5440 O   0  0  0  0  0  0  0  0  0  0  0  0
   -8.8090   -5.3080  -26.7290 C   0  0  0  0  0  0  0  0  0  0  0  0
   -7.7190   -5.9910  -27.5090 C   0  0  0  0  0  0  0  0  0  0  0  0
   -9.1400   -6.4010  -27.7220 C   0  0  0  0  0  0  0  0  0  0  0  0
   -9.6420   -6.1100  -28.6410 H   0  0  0  0  0  0  0  0  0  0  0  0
   -9.4740   -7.3510  -27.3080 H   0  0  0  0  0  0  0  0  0  0  0  0
   -7.2200   -5.4130  -28.2810 H   0  0  0  0  0  0  0  0  0  0  0  0
   -7.0720   -6.6630  -26.9510 H   0  0  0  0  0  0  0  0  0  0  0  0
   -9.0970   -4.2810  -26.9410 H   0  0  0  0  0  0  0  0  0  0  0  0
   -7.9870   -3.2860  -24.2910 C   0  0  0  0  0  0  0  0  0  0  0  0
   -8.8830   -2.9300  -24.8140 H   0  0  0  0  0  0  0  0  0  0  0  0
   -7.0960   -2.8490  -24.7410 H   0  0  0  0  0  0  0  0  0  0  0  0
   -7.2160   -5.1440  -22.1670 H   0  0  0  0  0  0  0  0  0  0  0  0
   -9.0020   -5.1530  -22.3470 H   0  0  0  0  0  0  0  0  0  0  0  0
  -11.1140   -3.0280  -21.6200 H   0  0  0  0  0  0  0  0  0  0  0  0
  -10.6680   -3.3800  -23.3140 H   0  0  0  0  0  0  0  0  0  0  0  0
  -11.0080   -1.7000  -22.7890 H   0  0  0  0  0  0  0  0  0  0  0  0
  1  2  1  0  0  0  0
  1 43  1  0  0  0  0
  1 44  1  0  0  0  0
  1 45  1  0  0  0  0
  2  3  1  0  0  0  0
  2 24  1  0  0  0  0
  3  4  2  0  0  0  0
  3  5  1  0  0  0  0
  5  6  1  0  0  0  0
  5 22  1  0  0  0  0
  6  7  2  0  0  0  0
  6 15  1  0  0  0  0
  7  8  1  0  0  0  0
  7 21  1  0  0  0  0
  8  9  2  0  0  0  0
  9 10  1  0  0  0  0
  9 20  1  0  0  0  0
 10 11  2  0  0  0  0
 10 15  1  0  0  0  0
 11 12  1  0  0  0  0
 11 19  1  0  0  0  0
 12 13  2  0  0  0  0
 12 18  1  0  0  0  0
 13 14  1  0  0  0  0
 13 17  1  0  0  0  0
 14 15  2  0  0  0  0
 14 16  1  0  0  0  0
 22 23  2  0  0  0  0
 22 24  1  0  0  0  0
 24 25  1  0  0  0  0
 24 38  1  0  0  0  0
 25 26  1  0  0  0  0
 25 41  1  0  0  0  0
 25 42  1  0  0  0  0
 26 27  1  0  0  0  0
 26 38  1  0  0  0  0
 27 28  2  0  0  0  0
 27 29  2  0  0  0  0
 27 30  1  0  0  0  0
 30 31  1  0  0  0  0
 30 32  1  0  0  0  0
 30 37  1  0  0  0  0
 31 32  1  0  0  0  0
 31 35  1  0  0  0  0
 31 36  1  0  0  0  0
 32 33  1  0  0  0  0
 32 34  1  0  0  0  0
 38 39  1  0  0  0  0
 38 40  1  0  0  0  0
M  END
>  <MODEL>
       1

$$$$
