tmp_first_model_17_66.pdb
 OpenBabel08282502223D

 44 47  0  0  1  0  0  0  0  0999 V2000
   -7.8630   -0.6310  -24.9380 C   0  0  0  0  0  0  0  0  0  0  0  0
   -8.3880   -2.0410  -25.1100 C   0  0  0  0  0  0  0  0  0  0  0  0
   -8.3390   -2.8840  -23.8290 C   0  0  1  0  0  0  0  0  0  0  0  0
   -8.8940   -4.2630  -24.0850 C   0  0  0  0  0  0  0  0  0  0  0  0
  -10.2750   -4.5710  -24.2970 C   0  0  0  0  0  0  0  0  0  0  0  0
  -10.4750   -5.8910  -24.5620 C   0  0  0  0  0  0  0  0  0  0  0  0
   -8.9960   -6.7810  -24.5540 S   0  0  0  0  0  0  0  0  0  0  0  0
   -8.0870   -5.3550  -24.1820 C   0  0  0  0  0  0  0  0  0  0  0  0
   -6.6070   -5.3360  -23.9380 C   0  0  0  0  0  0  0  0  0  0  0  0
   -6.0940   -3.8950  -23.9610 C   0  0  0  0  0  0  0  0  0  0  0  0
   -6.9910   -2.9800  -23.2500 N   0  0  0  0  0  0  0  0  0  0  0  0
   -6.6870   -2.6720  -21.9310 C   0  0  0  0  0  0  0  0  0  0  0  0
   -5.8370   -3.2870  -21.3130 O   0  0  0  0  0  0  0  0  0  0  0  0
   -7.4050   -1.4680  -21.2740 C   0  0  0  0  0  0  0  0  0  0  0  0
   -6.5810   -0.8280  -20.1780 C   0  0  0  0  0  0  0  0  0  0  0  0
   -6.8730   -1.0460  -18.8550 C   0  0  0  0  0  0  0  0  0  0  0  0
   -6.1910   -0.5380  -17.7920 N   0  0  0  0  0  0  0  0  0  0  0  0
   -5.1570    0.2230  -18.0610 C   0  0  0  0  0  0  0  0  0  0  0  0
   -4.7220    0.5330  -19.3800 C   0  0  0  0  0  0  0  0  0  0  0  0
   -3.5940    1.3620  -19.6200 C   0  0  0  0  0  0  0  0  0  0  0  0
   -3.2000    1.6450  -20.9000 C   0  0  0  0  0  0  0  0  0  0  0  0
   -3.9150    1.1030  -21.9930 C   0  0  0  0  0  0  0  0  0  0  0  0
   -5.0060    0.2950  -21.7860 C   0  0  0  0  0  0  0  0  0  0  0  0
   -5.4480   -0.0080  -20.4690 C   0  0  0  0  0  0  0  0  0  0  0  0
   -5.5350   -0.1130  -22.6410 H   0  0  0  0  0  0  0  0  0  0  0  0
   -3.5840    1.3220  -23.0020 H   0  0  0  0  0  0  0  0  0  0  0  0
   -2.3340    2.2720  -21.0890 H   0  0  0  0  0  0  0  0  0  0  0  0
   -3.0510    1.7740  -18.7730 H   0  0  0  0  0  0  0  0  0  0  0  0
   -4.6000    0.6280  -17.2160 H   0  0  0  0  0  0  0  0  0  0  0  0
   -7.7210   -1.6720  -18.5860 H   0  0  0  0  0  0  0  0  0  0  0  0
   -7.6870   -0.7150  -22.0250 H   0  0  0  0  0  0  0  0  0  0  0  0
   -8.3440   -1.8360  -20.8390 H   0  0  0  0  0  0  0  0  0  0  0  0
   -6.0010   -3.5650  -25.0010 H   0  0  0  0  0  0  0  0  0  0  0  0
   -5.0980   -3.8290  -23.5200 H   0  0  0  0  0  0  0  0  0  0  0  0
   -6.3980   -5.7710  -22.9550 H   0  0  0  0  0  0  0  0  0  0  0  0
   -6.0680   -5.9550  -24.6680 H   0  0  0  0  0  0  0  0  0  0  0  0
  -11.4170   -6.3920  -24.7370 H   0  0  0  0  0  0  0  0  0  0  0  0
  -11.0770   -3.8370  -24.2510 H   0  0  0  0  0  0  0  0  0  0  0  0
   -8.9910   -2.4020  -23.0920 H   0  0  0  0  0  0  0  0  0  0  0  0
   -7.8390   -2.5690  -25.8940 H   0  0  0  0  0  0  0  0  0  0  0  0
   -9.4270   -2.0170  -25.4590 H   0  0  0  0  0  0  0  0  0  0  0  0
   -7.9250   -0.0750  -25.8750 H   0  0  0  0  0  0  0  0  0  0  0  0
   -6.8180   -0.6400  -24.6160 H   0  0  0  0  0  0  0  0  0  0  0  0
   -8.4460   -0.0850  -24.1890 H   0  0  0  0  0  0  0  0  0  0  0  0
  1  2  1  0  0  0  0
  1 42  1  0  0  0  0
  1 43  1  0  0  0  0
  1 44  1  0  0  0  0
  2  3  1  0  0  0  0
  2 40  1  0  0  0  0
  2 41  1  0  0  0  0
  3  4  1  0  0  0  0
  3 11  1  0  0  0  0
  3 39  1  1  0  0  0
  4  5  1  0  0  0  0
  4  8  2  0  0  0  0
  5  6  2  0  0  0  0
  5 38  1  0  0  0  0
  6  7  1  0  0  0  0
  6 37  1  0  0  0  0
  7  8  1  0  0  0  0
  8  9  1  0  0  0  0
  9 10  1  0  0  0  0
  9 35  1  0  0  0  0
  9 36  1  0  0  0  0
 10 11  1  0  0  0  0
 10 33  1  0  0  0  0
 10 34  1  0  0  0  0
 11 12  1  0  0  0  0
 12 13  2  0  0  0  0
 12 14  1  0  0  0  0
 14 15  1  0  0  0  0
 14 31  1  0  0  0  0
 14 32  1  0  0  0  0
 15 16  2  0  0  0  0
 15 24  1  0  0  0  0
 16 17  1  0  0  0  0
 16 30  1  0  0  0  0
 17 18  2  0  0  0  0
 18 19  1  0  0  0  0
 18 29  1  0  0  0  0
 19 20  2  0  0  0  0
 19 24  1  0  0  0  0
 20 21  1  0  0  0  0
 20 28  1  0  0  0  0
 21 22  2  0  0  0  0
 21 27  1  0  0  0  0
 22 23  1  0  0  0  0
 22 26  1  0  0  0  0
 23 24  2  0  0  0  0
 23 25  1  0  0  0  0
M  END
>  <MODEL>
       1

$$$$
