tmp_first_model_4_76.pdb
 OpenBabel08272518513D

 66 71  0  0  1  0  0  0  0  0999 V2000
   -8.2260   -3.4550  -24.0820 C   0  0  0  0  0  0  0  0  0  0  0  0
   -8.4780   -2.7210  -22.7710 C   0  0  1  0  0  0  0  0  0  0  0  0
   -7.1810   -2.5180  -21.9750 C   0  0  0  0  0  0  0  0  0  0  0  0
   -7.4630   -1.3430  -21.1830 N   0  0  0  0  0  0  0  0  0  0  0  0
   -6.5540   -0.9150  -20.1890 C   0  0  0  0  0  0  0  0  0  0  0  0
   -6.7810   -1.2410  -18.8770 C   0  0  0  0  0  0  0  0  0  0  0  0
   -5.8970   -1.0000  -17.8780 N   0  0  0  0  0  0  0  0  0  0  0  0
   -4.7760   -0.3940  -18.1750 C   0  0  0  0  0  0  0  0  0  0  0  0
   -4.4370    0.0320  -19.4930 C   0  0  0  0  0  0  0  0  0  0  0  0
   -3.2800    0.8050  -19.7500 C   0  0  0  0  0  0  0  0  0  0  0  0
   -3.0560    1.3180  -20.9990 C   0  0  0  0  0  0  0  0  0  0  0  0
   -3.9480    1.0390  -22.0620 C   0  0  0  0  0  0  0  0  0  0  0  0
   -5.0470    0.2410  -21.8460 C   0  0  0  0  0  0  0  0  0  0  0  0
   -5.3480   -0.2370  -20.5390 C   0  0  0  0  0  0  0  0  0  0  0  0
   -5.6770   -0.0510  -22.6830 H   0  0  0  0  0  0  0  0  0  0  0  0
   -3.7670    1.4680  -23.0450 H   0  0  0  0  0  0  0  0  0  0  0  0
   -2.2180    1.9840  -21.1660 H   0  0  0  0  0  0  0  0  0  0  0  0
   -2.6240    1.0110  -18.9060 H   0  0  0  0  0  0  0  0  0  0  0  0
   -4.0590   -0.2040  -17.3680 H   0  0  0  0  0  0  0  0  0  0  0  0
   -7.7130   -1.7450  -18.6200 H   0  0  0  0  0  0  0  0  0  0  0  0
   -8.5220   -0.5910  -21.6260 C   0  0  0  0  0  0  0  0  0  0  0  0
   -8.8770    0.4680  -21.1450 O   0  0  0  0  0  0  0  0  0  0  0  0
   -9.1340   -1.3090  -22.8560 C   0  0  1  0  0  0  0  0  0  0  0  0
   -8.7030   -0.5730  -24.1480 C   0  0  0  0  0  0  0  0  0  0  0  0
   -9.3090    0.7420  -24.2440 N   0  0  0  0  0  0  0  0  0  0  0  0
   -8.5420    1.7920  -24.9010 C   0  0  0  0  0  0  0  0  0  0  0  0
   -7.5470    2.4230  -23.9320 C   0  0  0  0  0  0  0  0  0  0  0  0
   -8.2460    3.2170  -22.8630 N   0  3  0  0  0  0  0  0  0  0  0  0
   -7.4460    3.3070  -21.6000 C   0  0  0  0  0  0  0  0  0  0  0  0
   -6.3100    4.3130  -21.6580 C   0  0  0  0  0  0  0  0  0  0  0  0
   -6.7950    5.6020  -21.9840 O   0  0  0  0  0  0  0  0  0  0  0  0
   -7.4450    5.5890  -23.2420 C   0  0  0  0  0  0  0  0  0  0  0  0
   -8.6380    4.6320  -23.2680 C   0  0  0  0  0  0  0  0  0  0  0  0
   -9.3930    4.9780  -22.5570 H   0  0  0  0  0  0  0  0  0  0  0  0
   -9.0880    4.6120  -24.2650 H   0  0  0  0  0  0  0  0  0  0  0  0
   -6.7320    5.3190  -24.0370 H   0  0  0  0  0  0  0  0  0  0  0  0
   -7.7920    6.6080  -23.4260 H   0  0  0  0  0  0  0  0  0  0  0  0
   -5.8470    4.3790  -20.6680 H   0  0  0  0  0  0  0  0  0  0  0  0
   -5.5420    3.9820  -22.3760 H   0  0  0  0  0  0  0  0  0  0  0  0
   -7.0870    2.3060  -21.3330 H   0  0  0  0  0  0  0  0  0  0  0  0
   -8.1320    3.6340  -20.8160 H   0  0  0  0  0  0  0  0  0  0  0  0
   -9.1100    2.7010  -22.6080 H   0  0  0  0  0  0  0  0  0  0  0  0
   -6.9780    1.6370  -23.4230 H   0  0  0  0  0  0  0  0  0  0  0  0
   -6.8300    3.0500  -24.4660 H   0  0  0  0  0  0  0  0  0  0  0  0
   -8.0060    1.3730  -25.7610 H   0  0  0  0  0  0  0  0  0  0  0  0
   -9.2520    2.5340  -25.2700 H   0  0  0  0  0  0  0  0  0  0  0  0
  -10.6610    0.8870  -24.1010 C   0  0  0  0  0  0  0  0  0  0  0  0
  -11.2680    1.8740  -24.4980 O   0  0  0  0  0  0  0  0  0  0  0  0
  -11.3640   -0.2280  -23.3830 C   0  0  0  0  0  0  0  0  0  0  0  0
  -12.7520   -0.1650  -23.2820 C   0  0  0  0  0  0  0  0  0  0  0  0
  -13.4550   -1.1070  -22.5630 C   0  0  0  0  0  0  0  0  0  0  0  0
  -12.7320   -2.1150  -21.9290 C   0  0  0  0  0  0  0  0  0  0  0  0
  -13.5700   -3.2730  -20.9460 Cl  0  0  0  0  0  0  0  0  0  0  0  0
  -11.3570   -2.2030  -22.0250 C   0  0  0  0  0  0  0  0  0  0  0  0
  -10.6470   -1.2740  -22.7860 C   0  0  0  0  0  0  0  0  0  0  0  0
  -10.8540   -2.9920  -21.4770 H   0  0  0  0  0  0  0  0  0  0  0  0
  -14.5340   -1.0550  -22.4660 H   0  0  0  0  0  0  0  0  0  0  0  0
  -13.2570    0.6560  -23.7720 H   0  0  0  0  0  0  0  0  0  0  0  0
   -7.6140   -0.4680  -24.1760 H   0  0  0  0  0  0  0  0  0  0  0  0
   -8.9860   -1.1870  -25.0160 H   0  0  0  0  0  0  0  0  0  0  0  0
   -6.9560   -3.3580  -21.3120 H   0  0  0  0  0  0  0  0  0  0  0  0
   -6.3080   -2.3860  -22.6400 H   0  0  0  0  0  0  0  0  0  0  0  0
   -9.1290   -3.3440  -22.1520 H   0  0  0  0  0  0  0  0  0  0  0  0
   -9.1440   -3.5640  -24.6700 H   0  0  0  0  0  0  0  0  0  0  0  0
   -7.4890   -2.9180  -24.6920 H   0  0  0  0  0  0  0  0  0  0  0  0
   -7.8230   -4.4530  -23.8770 H   0  0  0  0  0  0  0  0  0  0  0  0
  1  2  1  0  0  0  0
  1 64  1  0  0  0  0
  1 65  1  0  0  0  0
  1 66  1  0  0  0  0
  2  3  1  0  0  0  0
  2 23  1  0  0  0  0
  2 63  1  1  0  0  0
  3  4  1  0  0  0  0
  3 61  1  0  0  0  0
  3 62  1  0  0  0  0
  4  5  1  0  0  0  0
  4 21  1  0  0  0  0
  5  6  2  0  0  0  0
  5 14  1  0  0  0  0
  6  7  1  0  0  0  0
  6 20  1  0  0  0  0
  7  8  2  0  0  0  0
  8  9  1  0  0  0  0
  8 19  1  0  0  0  0
  9 10  2  0  0  0  0
  9 14  1  0  0  0  0
 10 11  1  0  0  0  0
 10 18  1  0  0  0  0
 11 12  2  0  0  0  0
 11 17  1  0  0  0  0
 12 13  1  0  0  0  0
 12 16  1  0  0  0  0
 13 14  2  0  0  0  0
 13 15  1  0  0  0  0
 21 22  2  0  0  0  0
 23 21  1  1  0  0  0
 23 24  1  0  0  0  0
 23 55  1  0  0  0  0
 24 25  1  0  0  0  0
 24 59  1  0  0  0  0
 24 60  1  0  0  0  0
 25 26  1  0  0  0  0
 25 47  1  0  0  0  0
 26 27  1  0  0  0  0
 26 45  1  0  0  0  0
 26 46  1  0  0  0  0
 27 28  1  0  0  0  0
 27 43  1  0  0  0  0
 27 44  1  0  0  0  0
 28 29  1  0  0  0  0
 28 33  1  0  0  0  0
 28 42  1  0  0  0  0
 29 30  1  0  0  0  0
 29 40  1  0  0  0  0
 29 41  1  0  0  0  0
 30 31  1  0  0  0  0
 30 38  1  0  0  0  0
 30 39  1  0  0  0  0
 31 32  1  0  0  0  0
 32 33  1  0  0  0  0
 32 36  1  0  0  0  0
 32 37  1  0  0  0  0
 33 34  1  0  0  0  0
 33 35  1  0  0  0  0
 47 48  2  0  0  0  0
 47 49  1  0  0  0  0
 49 50  2  0  0  0  0
 49 55  1  0  0  0  0
 50 51  1  0  0  0  0
 50 58  1  0  0  0  0
 51 52  2  0  0  0  0
 51 57  1  0  0  0  0
 52 53  1  0  0  0  0
 52 54  1  0  0  0  0
 54 55  2  0  0  0  0
 54 56  1  0  0  0  0
M  CHG  1  28   1
M  END
>  <MODEL>
       1

$$$$
