tmp_first_model_3_84.pdb
 OpenBabel08272518143D

 63 68  0  0  1  0  0  0  0  0999 V2000
   -8.3380   -4.1880  -23.4420 C   0  0  0  0  0  0  0  0  0  0  0  0
   -8.5530   -2.9850  -22.5430 C   0  0  1  0  0  0  0  0  0  0  0  0
   -7.3980   -2.7770  -21.5590 C   0  0  0  0  0  0  0  0  0  0  0  0
   -7.4720   -1.3640  -21.2520 N   0  0  0  0  0  0  0  0  0  0  0  0
   -6.6930   -0.7700  -20.2280 C   0  0  0  0  0  0  0  0  0  0  0  0
   -7.0120   -1.0250  -18.9180 C   0  0  0  0  0  0  0  0  0  0  0  0
   -6.3460   -0.5320  -17.8460 N   0  0  0  0  0  0  0  0  0  0  0  0
   -5.3000    0.2220  -18.0880 C   0  0  0  0  0  0  0  0  0  0  0  0
   -4.8280    0.5310  -19.3960 C   0  0  0  0  0  0  0  0  0  0  0  0
   -3.6700    1.3290  -19.5910 C   0  0  0  0  0  0  0  0  0  0  0  0
   -3.2120    1.5890  -20.8520 C   0  0  0  0  0  0  0  0  0  0  0  0
   -3.8920    1.0670  -21.9750 C   0  0  0  0  0  0  0  0  0  0  0  0
   -5.0220    0.3040  -21.8130 C   0  0  0  0  0  0  0  0  0  0  0  0
   -5.5300    0.0210  -20.5120 C   0  0  0  0  0  0  0  0  0  0  0  0
   -5.5410   -0.0830  -22.6860 H   0  0  0  0  0  0  0  0  0  0  0  0
   -3.5190    1.2790  -22.9720 H   0  0  0  0  0  0  0  0  0  0  0  0
   -2.3270    2.2030  -20.9990 H   0  0  0  0  0  0  0  0  0  0  0  0
   -3.1680    1.7310  -18.7140 H   0  0  0  0  0  0  0  0  0  0  0  0
   -4.7580    0.6220  -17.2290 H   0  0  0  0  0  0  0  0  0  0  0  0
   -7.8720   -1.6550  -18.6920 H   0  0  0  0  0  0  0  0  0  0  0  0
   -8.2210   -0.6390  -22.1560 C   0  0  0  0  0  0  0  0  0  0  0  0
   -8.3740    0.5630  -22.1040 O   0  0  0  0  0  0  0  0  0  0  0  0
   -8.7660   -1.5960  -23.2410 C   0  0  1  0  0  0  0  0  0  0  0  0
   -7.8990   -1.3580  -24.5030 C   0  0  0  0  0  0  0  0  0  0  0  0
   -8.5120   -1.7950  -25.7560 N   0  0  0  0  0  0  0  0  0  0  0  0
   -7.6300   -2.1040  -26.8790 C   0  0  0  0  0  0  0  0  0  0  0  0
   -7.5300   -3.6120  -27.1240 C   0  0  0  0  0  0  0  0  0  0  0  0
   -6.5520   -4.2500  -26.7740 O   0  0  0  0  0  0  0  0  0  0  0  0
   -8.6150   -4.1560  -27.7450 N   0  0  0  0  0  0  0  0  0  0  0  0
   -8.8780   -5.5870  -27.7830 C   0  0  0  0  0  0  0  0  0  0  0  0
   -9.7860   -5.9940  -26.7060 C   0  0  0  0  0  0  0  0  0  0  0  0
   -9.2270   -5.8960  -25.4460 F   0  0  0  0  0  0  0  0  0  0  0  0
  -10.6920   -6.9950  -26.7190 C   0  0  0  0  0  0  0  0  0  0  0  0
  -10.8920   -6.9900  -26.9640 C   0  0  0  0  0  0  0  0  0  0  0  0
  -11.2700   -6.8340  -28.4890 H   0  0  0  0  0  0  0  0  0  0  0  0
  -10.5540   -8.2470  -26.9730 H   0  0  0  0  0  0  0  0  0  0  0  0
  -12.0340   -6.5260  -26.9500 H   0  0  0  0  0  0  0  0  0  0  0  0
  -10.8130   -7.2930  -25.5800 H   0  0  0  0  0  0  0  0  0  0  0  0
   -9.2550   -5.8250  -28.7930 H   0  0  0  0  0  0  0  0  0  0  0  0
   -7.9460   -6.1230  -27.6220 H   0  0  0  0  0  0  0  0  0  0  0  0
   -9.4210   -3.5490  -27.8580 H   0  0  0  0  0  0  0  0  0  0  0  0
   -8.0100   -1.5930  -27.7700 H   0  0  0  0  0  0  0  0  0  0  0  0
   -6.6310   -1.7260  -26.6500 H   0  0  0  0  0  0  0  0  0  0  0  0
   -9.8450   -1.6940  -26.0140 C   0  0  0  0  0  0  0  0  0  0  0  0
  -10.3090   -1.9320  -27.1320 O   0  0  0  0  0  0  0  0  0  0  0  0
  -10.7140   -1.3110  -24.8680 C   0  0  0  0  0  0  0  0  0  0  0  0
  -12.0530   -1.0140  -25.1290 C   0  0  0  0  0  0  0  0  0  0  0  0
  -12.9340   -0.7720  -24.0970 C   0  0  0  0  0  0  0  0  0  0  0  0
  -12.4480   -0.8470  -22.7970 C   0  0  0  0  0  0  0  0  0  0  0  0
  -13.3120   -0.6640  -21.7900 F   0  0  0  0  0  0  0  0  0  0  0  0
  -11.1210   -1.1070  -22.5110 C   0  0  0  0  0  0  0  0  0  0  0  0
  -10.2190   -1.3150  -23.5600 C   0  0  0  0  0  0  0  0  0  0  0  0
  -10.7940   -1.1380  -21.4780 H   0  0  0  0  0  0  0  0  0  0  0  0
  -13.9830   -0.5500  -24.2680 H   0  0  0  0  0  0  0  0  0  0  0  0
  -12.3910   -1.0090  -26.1590 H   0  0  0  0  0  0  0  0  0  0  0  0
   -7.6670   -0.2860  -24.5640 H   0  0  0  0  0  0  0  0  0  0  0  0
   -6.9480   -1.8930  -24.3950 H   0  0  0  0  0  0  0  0  0  0  0  0
   -6.4280   -3.0380  -22.0130 H   0  0  0  0  0  0  0  0  0  0  0  0
   -7.5050   -3.3800  -20.6510 H   0  0  0  0  0  0  0  0  0  0  0  0
   -9.4620   -3.1560  -21.9480 H   0  0  0  0  0  0  0  0  0  0  0  0
   -9.2270   -4.3860  -24.0410 H   0  0  0  0  0  0  0  0  0  0  0  0
   -8.1260   -5.0770  -22.8380 H   0  0  0  0  0  0  0  0  0  0  0  0
   -7.4940   -4.0510  -24.1270 H   0  0  0  0  0  0  0  0  0  0  0  0
  1  2  1  0  0  0  0
  1 61  1  0  0  0  0
  1 62  1  0  0  0  0
  1 63  1  0  0  0  0
  2  3  1  0  0  0  0
  2 23  1  0  0  0  0
  2 60  1  1  0  0  0
  3  4  1  0  0  0  0
  3 58  1  0  0  0  0
  3 59  1  0  0  0  0
  4  5  1  0  0  0  0
  4 21  1  0  0  0  0
  5  6  2  0  0  0  0
  5 14  1  0  0  0  0
  6  7  1  0  0  0  0
  6 20  1  0  0  0  0
  7  8  2  0  0  0  0
  8  9  1  0  0  0  0
  8 19  1  0  0  0  0
  9 10  2  0  0  0  0
  9 14  1  0  0  0  0
 10 11  1  0  0  0  0
 10 18  1  0  0  0  0
 11 12  2  0  0  0  0
 11 17  1  0  0  0  0
 12 13  1  0  0  0  0
 12 16  1  0  0  0  0
 13 14  2  0  0  0  0
 13 15  1  0  0  0  0
 21 22  2  0  0  0  0
 23 21  1  1  0  0  0
 23 24  1  0  0  0  0
 23 52  1  0  0  0  0
 24 25  1  0  0  0  0
 24 56  1  0  0  0  0
 24 57  1  0  0  0  0
 25 26  1  0  0  0  0
 25 44  1  0  0  0  0
 26 27  1  0  0  0  0
 26 42  1  0  0  0  0
 26 43  1  0  0  0  0
 27 28  2  0  0  0  0
 27 29  1  0  0  0  0
 29 30  1  0  0  0  0
 29 41  1  0  0  0  0
 30 31  1  0  0  0  0
 30 39  1  0  0  0  0
 30 40  1  0  0  0  0
 31 32  1  0  0  0  0
 31 33  1  0  0  0  0
 31 34  1  0  0  0  0
 33 34  1  0  0  0  0
 33 37  1  0  0  0  0
 33 38  1  0  0  0  0
 34 35  1  0  0  0  0
 34 36  1  0  0  0  0
 44 45  2  0  0  0  0
 44 46  1  0  0  0  0
 46 47  2  0  0  0  0
 46 52  1  0  0  0  0
 47 48  1  0  0  0  0
 47 55  1  0  0  0  0
 48 49  2  0  0  0  0
 48 54  1  0  0  0  0
 49 50  1  0  0  0  0
 49 51  1  0  0  0  0
 51 52  2  0  0  0  0
 51 53  1  0  0  0  0
M  END
>  <MODEL>
       1

$$$$
