tmp_first_model_16_70.pdb
 OpenBabel08282501503D

 52 54  0  0  0  0  0  0  0  0999 V2000
   -6.3910   -6.8860  -26.9890 C   0  0  0  0  0  0  0  0  0  0  0  0
   -5.9450   -5.7140  -26.0970 C   0  0  0  0  0  0  0  0  0  0  0  0
   -4.7440   -5.0030  -26.7440 C   0  0  0  0  0  0  0  0  0  0  0  0
   -4.3690   -4.1810  -26.1210 H   0  0  0  0  0  0  0  0  0  0  0  0
   -3.9190   -5.7090  -26.8980 H   0  0  0  0  0  0  0  0  0  0  0  0
   -5.0080   -4.5860  -27.7270 H   0  0  0  0  0  0  0  0  0  0  0  0
   -7.0550   -4.6830  -25.8230 C   0  0  0  0  0  0  0  0  0  0  0  0
   -8.2970   -5.0790  -24.9820 C   0  0  0  0  0  0  0  0  0  0  0  0
   -9.2650   -5.9520  -25.7990 C   0  0  0  0  0  0  0  0  0  0  0  0
   -9.5050   -5.4800  -26.7600 H   0  0  0  0  0  0  0  0  0  0  0  0
   -8.8710   -6.9520  -26.0030 H   0  0  0  0  0  0  0  0  0  0  0  0
  -10.2050   -6.0870  -25.2500 H   0  0  0  0  0  0  0  0  0  0  0  0
   -9.0410   -3.7720  -24.5770 C   0  0  0  0  0  0  0  0  0  0  0  0
   -8.8680   -3.3470  -23.1030 C   0  0  0  0  0  0  0  0  0  0  0  0
   -7.5270   -3.6160  -22.6080 N   0  0  0  0  0  0  0  0  0  0  0  0
   -6.7650   -2.7820  -21.8440 C   0  0  0  0  0  0  0  0  0  0  0  0
   -5.6030   -3.0630  -21.5740 O   0  0  0  0  0  0  0  0  0  0  0  0
   -7.4170   -1.4930  -21.3000 C   0  0  0  0  0  0  0  0  0  0  0  0
   -6.6010   -0.8490  -20.2130 C   0  0  0  0  0  0  0  0  0  0  0  0
   -6.9100   -1.0970  -18.9010 C   0  0  0  0  0  0  0  0  0  0  0  0
   -6.1670   -0.7030  -17.8310 N   0  0  0  0  0  0  0  0  0  0  0  0
   -5.0960    0.0140  -18.0790 C   0  0  0  0  0  0  0  0  0  0  0  0
   -4.7040    0.4360  -19.3830 C   0  0  0  0  0  0  0  0  0  0  0  0
   -3.6040    1.3080  -19.6120 C   0  0  0  0  0  0  0  0  0  0  0  0
   -3.2150    1.6170  -20.8880 C   0  0  0  0  0  0  0  0  0  0  0  0
   -3.9150    1.0830  -21.9920 C   0  0  0  0  0  0  0  0  0  0  0  0
   -5.0080    0.2740  -21.7970 C   0  0  0  0  0  0  0  0  0  0  0  0
   -5.4490   -0.0490  -20.4860 C   0  0  0  0  0  0  0  0  0  0  0  0
   -5.5330   -0.1430  -22.6500 H   0  0  0  0  0  0  0  0  0  0  0  0
   -3.5760    1.3150  -23.0000 H   0  0  0  0  0  0  0  0  0  0  0  0
   -2.3520    2.2550  -21.0620 H   0  0  0  0  0  0  0  0  0  0  0  0
   -3.0920    1.7330  -18.7490 H   0  0  0  0  0  0  0  0  0  0  0  0
   -4.4810    0.2880  -17.2170 H   0  0  0  0  0  0  0  0  0  0  0  0
   -7.8000   -1.6770  -18.6410 H   0  0  0  0  0  0  0  0  0  0  0  0
   -8.3950   -1.7520  -20.8750 H   0  0  0  0  0  0  0  0  0  0  0  0
   -7.6120   -0.7900  -22.1240 H   0  0  0  0  0  0  0  0  0  0  0  0
   -7.0160   -4.9750  -22.7730 C   0  0  0  0  0  0  0  0  0  0  0  0
   -7.9120   -5.8090  -23.6910 C   0  0  0  0  0  0  0  0  0  0  0  0
   -7.3840   -6.7420  -23.9300 H   0  0  0  0  0  0  0  0  0  0  0  0
   -8.8410   -6.0760  -23.1670 H   0  0  0  0  0  0  0  0  0  0  0  0
   -6.9470   -5.4500  -21.7850 H   0  0  0  0  0  0  0  0  0  0  0  0
   -5.9950   -4.8890  -23.1630 H   0  0  0  0  0  0  0  0  0  0  0  0
   -9.0630   -2.2800  -23.0040 H   0  0  0  0  0  0  0  0  0  0  0  0
   -9.6070   -3.8890  -22.4880 H   0  0  0  0  0  0  0  0  0  0  0  0
  -10.1150   -3.9180  -24.7390 H   0  0  0  0  0  0  0  0  0  0  0  0
   -8.7170   -2.9640  -25.2450 H   0  0  0  0  0  0  0  0  0  0  0  0
   -7.4310   -4.3140  -26.7950 H   0  0  0  0  0  0  0  0  0  0  0  0
   -6.5900   -3.8190  -25.3240 H   0  0  0  0  0  0  0  0  0  0  0  0
   -5.6030   -6.1180  -25.1310 H   0  0  0  0  0  0  0  0  0  0  0  0
   -5.5130   -7.3730  -27.4320 H   0  0  0  0  0  0  0  0  0  0  0  0
   -7.0350   -6.5480  -27.8150 H   0  0  0  0  0  0  0  0  0  0  0  0
   -6.9470   -7.6510  -26.4390 H   0  0  0  0  0  0  0  0  0  0  0  0
  1  2  1  0  0  0  0
  1 50  1  0  0  0  0
  1 51  1  0  0  0  0
  1 52  1  0  0  0  0
  2  3  1  0  0  0  0
  2  7  1  0  0  0  0
  2 49  1  0  0  0  0
  3  4  1  0  0  0  0
  3  5  1  0  0  0  0
  3  6  1  0  0  0  0
  7  8  1  0  0  0  0
  7 47  1  0  0  0  0
  7 48  1  0  0  0  0
  8  9  1  0  0  0  0
  8 13  1  0  0  0  0
  8 38  1  0  0  0  0
  9 10  1  0  0  0  0
  9 11  1  0  0  0  0
  9 12  1  0  0  0  0
 13 14  1  0  0  0  0
 13 45  1  0  0  0  0
 13 46  1  0  0  0  0
 14 15  1  0  0  0  0
 14 43  1  0  0  0  0
 14 44  1  0  0  0  0
 15 16  1  0  0  0  0
 15 37  1  0  0  0  0
 16 17  2  0  0  0  0
 16 18  1  0  0  0  0
 18 19  1  0  0  0  0
 18 35  1  0  0  0  0
 18 36  1  0  0  0  0
 19 20  2  0  0  0  0
 19 28  1  0  0  0  0
 20 21  1  0  0  0  0
 20 34  1  0  0  0  0
 21 22  2  0  0  0  0
 22 23  1  0  0  0  0
 22 33  1  0  0  0  0
 23 24  2  0  0  0  0
 23 28  1  0  0  0  0
 24 25  1  0  0  0  0
 24 32  1  0  0  0  0
 25 26  2  0  0  0  0
 25 31  1  0  0  0  0
 26 27  1  0  0  0  0
 26 30  1  0  0  0  0
 27 28  2  0  0  0  0
 27 29  1  0  0  0  0
 37 38  1  0  0  0  0
 37 41  1  0  0  0  0
 37 42  1  0  0  0  0
 38 39  1  0  0  0  0
 38 40  1  0  0  0  0
M  END
>  <MODEL>
       1

$$$$
