tmp_first_model_7_45.pdb
 OpenBabel08272520323D

 66 71  0  0  1  0  0  0  0  0999 V2000
   -7.6770    2.5380  -22.1780 C   0  0  0  0  0  0  0  0  0  0  0  0
   -8.5810    2.2760  -23.2790 N   0  0  0  0  0  0  0  0  0  0  0  0
   -8.1400    1.5260  -24.3130 C   0  0  0  0  0  0  0  0  0  0  0  0
   -6.9580    1.3300  -24.5800 O   0  0  0  0  0  0  0  0  0  0  0  0
   -9.2610    0.8540  -25.0940 C   0  0  0  0  0  0  0  0  0  0  0  0
   -9.9030   -0.1200  -24.2400 N   0  0  0  0  0  0  0  0  0  0  0  0
   -9.2530   -1.3960  -24.0910 C   0  0  0  0  0  0  0  0  0  0  0  0
   -9.4030   -1.9520  -22.6630 C   0  0  2  0  0  0  0  0  0  0  0  0
   -8.8210   -0.9660  -21.6150 C   0  0  0  0  0  0  0  0  0  0  0  0
   -9.3770    0.0090  -21.1440 O   0  0  0  0  0  0  0  0  0  0  0  0
   -7.5630   -1.3940  -21.2800 N   0  0  0  0  0  0  0  0  0  0  0  0
   -6.7960   -0.8050  -20.2500 C   0  0  0  0  0  0  0  0  0  0  0  0
   -7.1570   -0.9650  -18.9340 C   0  0  0  0  0  0  0  0  0  0  0  0
   -6.4200   -0.5190  -17.8920 N   0  0  0  0  0  0  0  0  0  0  0  0
   -5.3170    0.1330  -18.1630 C   0  0  0  0  0  0  0  0  0  0  0  0
   -4.8540    0.4080  -19.4830 C   0  0  0  0  0  0  0  0  0  0  0  0
   -3.6930    1.1880  -19.7290 C   0  0  0  0  0  0  0  0  0  0  0  0
   -3.3020    1.4610  -21.0100 C   0  0  0  0  0  0  0  0  0  0  0  0
   -4.0450    0.9670  -22.1030 C   0  0  0  0  0  0  0  0  0  0  0  0
   -5.1700    0.2050  -21.8930 C   0  0  0  0  0  0  0  0  0  0  0  0
   -5.6040   -0.0930  -20.5710 C   0  0  0  0  0  0  0  0  0  0  0  0
   -5.7520   -0.1210  -22.7490 H   0  0  0  0  0  0  0  0  0  0  0  0
   -3.7370    1.2050  -23.1170 H   0  0  0  0  0  0  0  0  0  0  0  0
   -2.4280    2.0790  -21.1930 H   0  0  0  0  0  0  0  0  0  0  0  0
   -3.1400    1.5770  -18.8770 H   0  0  0  0  0  0  0  0  0  0  0  0
   -4.7270    0.4850  -17.3160 H   0  0  0  0  0  0  0  0  0  0  0  0
   -8.0770   -1.4910  -18.6910 H   0  0  0  0  0  0  0  0  0  0  0  0
   -7.1560   -2.6040  -21.9630 C   0  0  0  0  0  0  0  0  0  0  0  0
   -8.4970   -3.1960  -22.4340 C   0  0  2  0  0  0  0  0  0  0  0  0
   -8.3530   -4.2770  -23.5380 C   0  0  0  0  0  0  0  0  0  0  0  0
   -7.2970   -4.0770  -24.6160 C   0  0  0  0  0  0  0  0  0  0  0  0
   -7.5990   -3.5540  -25.8780 C   0  0  0  0  0  0  0  0  0  0  0  0
   -6.6020   -3.3090  -26.8190 C   0  0  0  0  0  0  0  0  0  0  0  0
   -5.2800   -3.6360  -26.5420 C   0  0  0  0  0  0  0  0  0  0  0  0
   -4.9680   -4.2180  -25.3190 C   0  0  0  0  0  0  0  0  0  0  0  0
   -5.9650   -4.4400  -24.3730 C   0  0  0  0  0  0  0  0  0  0  0  0
   -5.6970   -4.8750  -23.4110 H   0  0  0  0  0  0  0  0  0  0  0  0
   -3.9410   -4.5010  -25.1020 H   0  0  0  0  0  0  0  0  0  0  0  0
   -4.5010   -3.4440  -27.2740 H   0  0  0  0  0  0  0  0  0  0  0  0
   -6.8650   -2.8610  -27.7730 H   0  0  0  0  0  0  0  0  0  0  0  0
   -8.6270   -3.3040  -26.1310 H   0  0  0  0  0  0  0  0  0  0  0  0
   -9.3370   -4.4320  -23.9990 H   0  0  0  0  0  0  0  0  0  0  0  0
   -8.1020   -5.2110  -23.0190 H   0  0  0  0  0  0  0  0  0  0  0  0
   -8.9250   -3.6880  -21.5520 H   0  0  0  0  0  0  0  0  0  0  0  0
   -6.6150   -3.2650  -21.2820 H   0  0  0  0  0  0  0  0  0  0  0  0
   -6.4860   -2.3630  -22.8020 H   0  0  0  0  0  0  0  0  0  0  0  0
  -10.8920   -2.0490  -22.4230 C   0  0  0  0  0  0  0  0  0  0  0  0
  -11.5290   -3.0730  -21.7200 C   0  0  0  0  0  0  0  0  0  0  0  0
  -12.8870   -2.9740  -21.4460 C   0  0  0  0  0  0  0  0  0  0  0  0
  -13.6610   -4.1970  -20.4750 Cl  0  0  0  0  0  0  0  0  0  0  0  0
  -13.6550   -1.8930  -21.8820 C   0  0  0  0  0  0  0  0  0  0  0  0
  -13.0240   -0.8720  -22.5720 C   0  0  0  0  0  0  0  0  0  0  0  0
  -11.6550   -0.9350  -22.8150 C   0  0  0  0  0  0  0  0  0  0  0  0
  -10.9990    0.2100  -23.5170 C   0  0  0  0  0  0  0  0  0  0  0  0
  -11.4130    1.3700  -23.4500 O   0  0  0  0  0  0  0  0  0  0  0  0
  -13.5820   -0.0130  -22.9310 H   0  0  0  0  0  0  0  0  0  0  0  0
  -14.7170   -1.8580  -21.6530 H   0  0  0  0  0  0  0  0  0  0  0  0
  -10.9750   -3.9330  -21.3560 H   0  0  0  0  0  0  0  0  0  0  0  0
   -8.2010   -1.2800  -24.3460 H   0  0  0  0  0  0  0  0  0  0  0  0
   -9.7000   -2.1160  -24.7820 H   0  0  0  0  0  0  0  0  0  0  0  0
   -8.8190    0.3260  -25.9380 H   0  0  0  0  0  0  0  0  0  0  0  0
  -10.0140    1.5640  -25.4430 H   0  0  0  0  0  0  0  0  0  0  0  0
   -9.5800    2.2190  -23.0800 H   0  0  0  0  0  0  0  0  0  0  0  0
   -7.8290    3.5460  -21.7900 H   0  0  0  0  0  0  0  0  0  0  0  0
   -6.6620    2.4560  -22.5780 H   0  0  0  0  0  0  0  0  0  0  0  0
   -7.8400    1.7910  -21.3890 H   0  0  0  0  0  0  0  0  0  0  0  0
  1  2  1  0  0  0  0
  1 64  1  0  0  0  0
  1 65  1  0  0  0  0
  1 66  1  0  0  0  0
  2  3  1  0  0  0  0
  2 63  1  0  0  0  0
  3  4  2  0  0  0  0
  3  5  1  0  0  0  0
  5  6  1  0  0  0  0
  5 61  1  0  0  0  0
  5 62  1  0  0  0  0
  6  7  1  0  0  0  0
  6 54  1  0  0  0  0
  7  8  1  0  0  0  0
  7 59  1  0  0  0  0
  7 60  1  0  0  0  0
  8  9  1  1  0  0  0
  8 29  1  0  0  0  0
  8 47  1  0  0  0  0
  9 10  2  0  0  0  0
  9 11  1  0  0  0  0
 11 12  1  0  0  0  0
 11 28  1  0  0  0  0
 12 13  2  0  0  0  0
 12 21  1  0  0  0  0
 13 14  1  0  0  0  0
 13 27  1  0  0  0  0
 14 15  2  0  0  0  0
 15 16  1  0  0  0  0
 15 26  1  0  0  0  0
 16 17  2  0  0  0  0
 16 21  1  0  0  0  0
 17 18  1  0  0  0  0
 17 25  1  0  0  0  0
 18 19  2  0  0  0  0
 18 24  1  0  0  0  0
 19 20  1  0  0  0  0
 19 23  1  0  0  0  0
 20 21  2  0  0  0  0
 20 22  1  0  0  0  0
 28 29  1  0  0  0  0
 28 45  1  0  0  0  0
 28 46  1  0  0  0  0
 29 30  1  0  0  0  0
 29 44  1  1  0  0  0
 30 31  1  0  0  0  0
 30 42  1  0  0  0  0
 30 43  1  0  0  0  0
 31 32  2  0  0  0  0
 31 36  1  0  0  0  0
 32 33  1  0  0  0  0
 32 41  1  0  0  0  0
 33 34  2  0  0  0  0
 33 40  1  0  0  0  0
 34 35  1  0  0  0  0
 34 39  1  0  0  0  0
 35 36  2  0  0  0  0
 35 38  1  0  0  0  0
 36 37  1  0  0  0  0
 47 48  2  0  0  0  0
 47 53  1  0  0  0  0
 48 49  1  0  0  0  0
 48 58  1  0  0  0  0
 49 50  1  0  0  0  0
 49 51  2  0  0  0  0
 51 52  1  0  0  0  0
 51 57  1  0  0  0  0
 52 53  2  0  0  0  0
 52 56  1  0  0  0  0
 53 54  1  0  0  0  0
 54 55  2  0  0  0  0
M  END
>  <MODEL>
       1

$$$$
