tmp_first_model_11_23.pdb
 OpenBabel08272522543D

 68 73  0  0  1  0  0  0  0  0999 V2000
  -14.3960   -1.2440  -23.8970 C   0  0  0  0  0  0  0  0  0  0  0  0
  -13.7160   -2.4350  -23.4270 N   0  0  0  0  0  0  0  0  0  0  0  0
  -13.3700   -2.4890  -22.1140 C   0  0  0  0  0  0  0  0  0  0  0  0
  -13.6560   -1.5890  -21.3340 O   0  0  0  0  0  0  0  0  0  0  0  0
  -12.6130   -3.7520  -21.7070 C   0  0  0  0  0  0  0  0  0  0  0  0
  -11.2570   -3.8080  -22.2370 N   0  0  0  0  0  0  0  0  0  0  0  0
  -10.1390   -3.2560  -21.4730 C   0  0  0  0  0  0  0  0  0  0  0  0
   -8.8940   -2.8590  -22.3180 C   0  0  2  0  0  0  0  0  0  0  0  0
   -7.7440   -2.6640  -21.3290 C   0  0  0  0  0  0  0  0  0  0  0  0
   -7.2030   -3.5400  -20.6830 O   0  0  0  0  0  0  0  0  0  0  0  0
   -7.4260   -1.3220  -21.2400 N   0  0  0  0  0  0  0  0  0  0  0  0
   -6.6010   -0.8490  -20.1960 C   0  0  0  0  0  0  0  0  0  0  0  0
   -6.9050   -1.1260  -18.8880 C   0  0  0  0  0  0  0  0  0  0  0  0
   -6.2450   -0.5960  -17.8290 N   0  0  0  0  0  0  0  0  0  0  0  0
   -5.2290    0.1960  -18.0820 C   0  0  0  0  0  0  0  0  0  0  0  0
   -4.7700    0.5130  -19.3950 C   0  0  0  0  0  0  0  0  0  0  0  0
   -3.6400    1.3390  -19.6320 C   0  0  0  0  0  0  0  0  0  0  0  0
   -3.2350    1.6060  -20.9110 C   0  0  0  0  0  0  0  0  0  0  0  0
   -3.9300    1.0580  -22.0140 C   0  0  0  0  0  0  0  0  0  0  0  0
   -5.0240    0.2530  -21.8110 C   0  0  0  0  0  0  0  0  0  0  0  0
   -5.4730   -0.0260  -20.4940 C   0  0  0  0  0  0  0  0  0  0  0  0
   -5.5520   -0.1900  -22.6510 H   0  0  0  0  0  0  0  0  0  0  0  0
   -3.6010    1.2800  -23.0240 H   0  0  0  0  0  0  0  0  0  0  0  0
   -2.3750    2.2470  -21.0910 H   0  0  0  0  0  0  0  0  0  0  0  0
   -3.1150    1.7590  -18.7770 H   0  0  0  0  0  0  0  0  0  0  0  0
   -4.7070    0.6270  -17.2260 H   0  0  0  0  0  0  0  0  0  0  0  0
   -7.7300   -1.7920  -18.6450 H   0  0  0  0  0  0  0  0  0  0  0  0
   -8.3920   -0.4670  -21.9240 C   0  0  0  0  0  0  0  0  0  0  0  0
   -8.9980   -1.4340  -22.9510 C   0  0  2  0  0  0  0  0  0  0  0  0
  -10.4140   -1.1090  -23.4390 C   0  0  0  0  0  0  0  0  0  0  0  0
  -10.5180    0.0390  -24.3060 N   0  0  0  0  0  0  0  0  0  0  0  0
  -10.6090    1.3120  -23.7470 C   0  0  0  0  0  0  0  0  0  0  0  0
  -11.4900    1.6000  -22.6960 C   0  0  0  0  0  0  0  0  0  0  0  0
  -11.6540    2.9170  -22.2770 C   0  0  0  0  0  0  0  0  0  0  0  0
  -10.8950    3.9400  -22.8400 C   0  0  0  0  0  0  0  0  0  0  0  0
   -9.9740    3.6380  -23.8370 C   0  0  0  0  0  0  0  0  0  0  0  0
   -9.8430    2.3420  -24.3000 C   0  0  0  0  0  0  0  0  0  0  0  0
   -9.1310    2.1000  -25.0860 H   0  0  0  0  0  0  0  0  0  0  0  0
   -9.3630    4.4190  -24.2780 H   0  0  0  0  0  0  0  0  0  0  0  0
  -11.0130    4.9600  -22.4900 H   0  0  0  0  0  0  0  0  0  0  0  0
  -12.3650    3.1510  -21.4860 H   0  0  0  0  0  0  0  0  0  0  0  0
  -12.0480    0.7990  -22.2160 H   0  0  0  0  0  0  0  0  0  0  0  0
   -9.8560    0.0020  -25.0680 H   0  0  0  0  0  0  0  0  0  0  0  0
  -11.0680   -0.9520  -22.5800 H   0  0  0  0  0  0  0  0  0  0  0  0
  -10.7820   -1.9860  -23.9820 H   0  0  0  0  0  0  0  0  0  0  0  0
   -8.3220   -1.4350  -23.8190 H   0  0  0  0  0  0  0  0  0  0  0  0
   -7.9020    0.4020  -22.3730 H   0  0  0  0  0  0  0  0  0  0  0  0
   -9.1440   -0.0750  -21.2210 H   0  0  0  0  0  0  0  0  0  0  0  0
   -8.6190   -3.9420  -23.3390 C   0  0  0  0  0  0  0  0  0  0  0  0
   -7.3380   -4.1510  -23.8700 C   0  0  0  0  0  0  0  0  0  0  0  0
   -7.1530   -5.1290  -24.8340 C   0  0  0  0  0  0  0  0  0  0  0  0
   -5.5840   -5.3470  -25.5450 Cl  0  0  0  0  0  0  0  0  0  0  0  0
   -8.2010   -5.9490  -25.2550 C   0  0  0  0  0  0  0  0  0  0  0  0
   -9.4680   -5.7230  -24.7520 C   0  0  0  0  0  0  0  0  0  0  0  0
   -9.6830   -4.6980  -23.8390 C   0  0  0  0  0  0  0  0  0  0  0  0
  -11.0890   -4.4090  -23.4390 C   0  0  0  0  0  0  0  0  0  0  0  0
  -12.0490   -4.6860  -24.1650 O   0  0  0  0  0  0  0  0  0  0  0  0
  -10.3260   -6.3190  -25.0510 H   0  0  0  0  0  0  0  0  0  0  0  0
   -8.0290   -6.7510  -25.9620 H   0  0  0  0  0  0  0  0  0  0  0  0
   -6.4890   -3.5840  -23.5010 H   0  0  0  0  0  0  0  0  0  0  0  0
   -9.7950   -3.9660  -20.7120 H   0  0  0  0  0  0  0  0  0  0  0  0
  -10.4760   -2.3590  -20.9430 H   0  0  0  0  0  0  0  0  0  0  0  0
  -12.5840   -3.8330  -20.6220 H   0  0  0  0  0  0  0  0  0  0  0  0
  -13.1520   -4.6070  -22.1260 H   0  0  0  0  0  0  0  0  0  0  0  0
  -13.3780   -3.1300  -24.0870 H   0  0  0  0  0  0  0  0  0  0  0  0
  -13.7270   -0.3660  -23.8840 H   0  0  0  0  0  0  0  0  0  0  0  0
  -15.2390   -1.0210  -23.2320 H   0  0  0  0  0  0  0  0  0  0  0  0
  -14.7620   -1.4270  -24.9130 H   0  0  0  0  0  0  0  0  0  0  0  0
  1  2  1  0  0  0  0
  1 66  1  0  0  0  0
  1 67  1  0  0  0  0
  1 68  1  0  0  0  0
  2  3  1  0  0  0  0
  2 65  1  0  0  0  0
  3  4  2  0  0  0  0
  3  5  1  0  0  0  0
  5  6  1  0  0  0  0
  5 63  1  0  0  0  0
  5 64  1  0  0  0  0
  6  7  1  0  0  0  0
  6 56  1  0  0  0  0
  7  8  1  0  0  0  0
  7 61  1  0  0  0  0
  7 62  1  0  0  0  0
  8  9  1  1  0  0  0
  8 29  1  0  0  0  0
  8 49  1  0  0  0  0
  9 10  2  0  0  0  0
  9 11  1  0  0  0  0
 11 12  1  0  0  0  0
 11 28  1  0  0  0  0
 12 13  2  0  0  0  0
 12 21  1  0  0  0  0
 13 14  1  0  0  0  0
 13 27  1  0  0  0  0
 14 15  2  0  0  0  0
 15 16  1  0  0  0  0
 15 26  1  0  0  0  0
 16 17  2  0  0  0  0
 16 21  1  0  0  0  0
 17 18  1  0  0  0  0
 17 25  1  0  0  0  0
 18 19  2  0  0  0  0
 18 24  1  0  0  0  0
 19 20  1  0  0  0  0
 19 23  1  0  0  0  0
 20 21  2  0  0  0  0
 20 22  1  0  0  0  0
 28 29  1  0  0  0  0
 28 47  1  0  0  0  0
 28 48  1  0  0  0  0
 29 30  1  0  0  0  0
 29 46  1  6  0  0  0
 30 31  1  0  0  0  0
 30 44  1  0  0  0  0
 30 45  1  0  0  0  0
 31 32  1  0  0  0  0
 31 43  1  0  0  0  0
 32 33  2  0  0  0  0
 32 37  1  0  0  0  0
 33 34  1  0  0  0  0
 33 42  1  0  0  0  0
 34 35  2  0  0  0  0
 34 41  1  0  0  0  0
 35 36  1  0  0  0  0
 35 40  1  0  0  0  0
 36 37  2  0  0  0  0
 36 39  1  0  0  0  0
 37 38  1  0  0  0  0
 49 50  2  0  0  0  0
 49 55  1  0  0  0  0
 50 51  1  0  0  0  0
 50 60  1  0  0  0  0
 51 52  1  0  0  0  0
 51 53  2  0  0  0  0
 53 54  1  0  0  0  0
 53 59  1  0  0  0  0
 54 55  2  0  0  0  0
 54 58  1  0  0  0  0
 55 56  1  0  0  0  0
 56 57  2  0  0  0  0
M  END
>  <MODEL>
       1

$$$$
