tmp_first_model_6_84.pdb
 OpenBabel08272519583D

 63 68  0  0  1  0  0  0  0  0999 V2000
   -7.9560   -3.4600  -24.1280 C   0  0  0  0  0  0  0  0  0  0  0  0
   -8.3120   -2.7650  -22.8130 C   0  0  1  0  0  0  0  0  0  0  0  0
   -7.0750   -2.5120  -21.9310 C   0  0  0  0  0  0  0  0  0  0  0  0
   -7.4370   -1.3370  -21.1710 N   0  0  0  0  0  0  0  0  0  0  0  0
   -6.6300   -0.7790  -20.1450 C   0  0  0  0  0  0  0  0  0  0  0  0
   -6.9300   -1.0390  -18.8350 C   0  0  0  0  0  0  0  0  0  0  0  0
   -6.2180   -0.5710  -17.7810 N   0  0  0  0  0  0  0  0  0  0  0  0
   -5.1870    0.1990  -18.0380 C   0  0  0  0  0  0  0  0  0  0  0  0
   -4.7630    0.5530  -19.3530 C   0  0  0  0  0  0  0  0  0  0  0  0
   -3.6400    1.3910  -19.5940 C   0  0  0  0  0  0  0  0  0  0  0  0
   -3.2850    1.7300  -20.8730 C   0  0  0  0  0  0  0  0  0  0  0  0
   -4.0390    1.2540  -21.9700 C   0  0  0  0  0  0  0  0  0  0  0  0
   -5.1200    0.4310  -21.7620 C   0  0  0  0  0  0  0  0  0  0  0  0
   -5.5100    0.0560  -20.4480 C   0  0  0  0  0  0  0  0  0  0  0  0
   -5.6890    0.0810  -22.6170 H   0  0  0  0  0  0  0  0  0  0  0  0
   -3.7760    1.5340  -22.9860 H   0  0  0  0  0  0  0  0  0  0  0  0
   -2.4290    2.3740  -21.0550 H   0  0  0  0  0  0  0  0  0  0  0  0
   -3.0830    1.7620  -18.7380 H   0  0  0  0  0  0  0  0  0  0  0  0
   -4.6210    0.5810  -17.1880 H   0  0  0  0  0  0  0  0  0  0  0  0
   -7.7940   -1.6560  -18.5930 H   0  0  0  0  0  0  0  0  0  0  0  0
   -8.4880   -0.6240  -21.7010 C   0  0  0  0  0  0  0  0  0  0  0  0
   -8.8690    0.4430  -21.2690 O   0  0  0  0  0  0  0  0  0  0  0  0
   -9.0520   -1.3920  -22.9190 C   0  0  1  0  0  0  0  0  0  0  0  0
   -8.6730   -0.6430  -24.2230 C   0  0  0  0  0  0  0  0  0  0  0  0
   -9.4320    0.5790  -24.4090 N   0  0  0  0  0  0  0  0  0  0  0  0
   -8.7290    1.7530  -24.9000 C   0  0  0  0  0  0  0  0  0  0  0  0
   -7.6820    2.2250  -23.8840 C   0  0  0  0  0  0  0  0  0  0  0  0
   -6.5070    1.9010  -23.9810 O   0  0  0  0  0  0  0  0  0  0  0  0
   -8.1740    3.0040  -22.8790 N   0  0  0  0  0  0  0  0  0  0  0  0
   -7.3060    3.5490  -21.8560 C   0  0  0  0  0  0  0  0  0  0  0  0
   -6.6020    4.8010  -22.3110 C   0  0  0  0  0  0  0  0  0  0  0  0
   -5.8780    4.6330  -23.4630 F   0  0  0  0  0  0  0  0  0  0  0  0
   -7.2540    6.1350  -22.1480 C   0  0  0  0  0  0  0  0  0  0  0  0
   -6.0400    5.7470  -21.3220 C   0  0  0  0  0  0  0  0  0  0  0  0
   -6.1960    5.5020  -20.2780 H   0  0  0  0  0  0  0  0  0  0  0  0
   -5.0680    6.1790  -21.5370 H   0  0  0  0  0  0  0  0  0  0  0  0
   -7.1320    6.8150  -22.9890 H   0  0  0  0  0  0  0  0  0  0  0  0
   -8.2230    6.1620  -21.6460 H   0  0  0  0  0  0  0  0  0  0  0  0
   -7.9020    3.8340  -20.9840 H   0  0  0  0  0  0  0  0  0  0  0  0
   -6.5950    2.7800  -21.5360 H   0  0  0  0  0  0  0  0  0  0  0  0
   -9.1710    3.0310  -22.7180 H   0  0  0  0  0  0  0  0  0  0  0  0
   -9.4880    2.5190  -25.0890 H   0  0  0  0  0  0  0  0  0  0  0  0
   -8.1980    1.5250  -25.8340 H   0  0  0  0  0  0  0  0  0  0  0  0
  -10.7910    0.6130  -24.2700 C   0  0  0  0  0  0  0  0  0  0  0  0
  -11.4780    1.5270  -24.7020 O   0  0  0  0  0  0  0  0  0  0  0  0
  -11.3820   -0.5300  -23.4980 C   0  0  0  0  0  0  0  0  0  0  0  0
  -12.7740   -0.5800  -23.4020 C   0  0  0  0  0  0  0  0  0  0  0  0
  -13.3870   -1.5060  -22.5850 C   0  0  0  0  0  0  0  0  0  0  0  0
  -12.5710   -2.3650  -21.8590 C   0  0  0  0  0  0  0  0  0  0  0  0
  -13.1550   -3.2060  -20.9920 F   0  0  0  0  0  0  0  0  0  0  0  0
  -11.1950   -2.3660  -21.9640 C   0  0  0  0  0  0  0  0  0  0  0  0
  -10.5690   -1.4580  -22.8270 C   0  0  0  0  0  0  0  0  0  0  0  0
  -10.6330   -3.0600  -21.3480 H   0  0  0  0  0  0  0  0  0  0  0  0
  -14.4640   -1.5560  -22.4620 H   0  0  0  0  0  0  0  0  0  0  0  0
  -13.3490    0.1470  -23.9630 H   0  0  0  0  0  0  0  0  0  0  0  0
   -7.6140   -0.3740  -24.1970 H   0  0  0  0  0  0  0  0  0  0  0  0
   -8.8470   -1.3010  -25.0830 H   0  0  0  0  0  0  0  0  0  0  0  0
   -6.8580   -3.3500  -21.2600 H   0  0  0  0  0  0  0  0  0  0  0  0
   -6.1740   -2.3350  -22.5410 H   0  0  0  0  0  0  0  0  0  0  0  0
   -8.9740   -3.4290  -22.2550 H   0  0  0  0  0  0  0  0  0  0  0  0
   -7.2280   -2.8730  -24.6990 H   0  0  0  0  0  0  0  0  0  0  0  0
   -7.5050   -4.4410  -23.9450 H   0  0  0  0  0  0  0  0  0  0  0  0
   -8.8350   -3.6130  -24.7630 H   0  0  0  0  0  0  0  0  0  0  0  0
  1  2  1  0  0  0  0
  1 61  1  0  0  0  0
  1 62  1  0  0  0  0
  1 63  1  0  0  0  0
  2  3  1  0  0  0  0
  2 23  1  0  0  0  0
  2 60  1  1  0  0  0
  3  4  1  0  0  0  0
  3 58  1  0  0  0  0
  3 59  1  0  0  0  0
  4  5  1  0  0  0  0
  4 21  1  0  0  0  0
  5  6  2  0  0  0  0
  5 14  1  0  0  0  0
  6  7  1  0  0  0  0
  6 20  1  0  0  0  0
  7  8  2  0  0  0  0
  8  9  1  0  0  0  0
  8 19  1  0  0  0  0
  9 10  2  0  0  0  0
  9 14  1  0  0  0  0
 10 11  1  0  0  0  0
 10 18  1  0  0  0  0
 11 12  2  0  0  0  0
 11 17  1  0  0  0  0
 12 13  1  0  0  0  0
 12 16  1  0  0  0  0
 13 14  2  0  0  0  0
 13 15  1  0  0  0  0
 21 22  2  0  0  0  0
 23 21  1  1  0  0  0
 23 24  1  0  0  0  0
 23 52  1  0  0  0  0
 24 25  1  0  0  0  0
 24 56  1  0  0  0  0
 24 57  1  0  0  0  0
 25 26  1  0  0  0  0
 25 44  1  0  0  0  0
 26 27  1  0  0  0  0
 26 42  1  0  0  0  0
 26 43  1  0  0  0  0
 27 28  2  0  0  0  0
 27 29  1  0  0  0  0
 29 30  1  0  0  0  0
 29 41  1  0  0  0  0
 30 31  1  0  0  0  0
 30 39  1  0  0  0  0
 30 40  1  0  0  0  0
 31 32  1  0  0  0  0
 31 33  1  0  0  0  0
 31 34  1  0  0  0  0
 33 34  1  0  0  0  0
 33 37  1  0  0  0  0
 33 38  1  0  0  0  0
 34 35  1  0  0  0  0
 34 36  1  0  0  0  0
 44 45  2  0  0  0  0
 44 46  1  0  0  0  0
 46 47  2  0  0  0  0
 46 52  1  0  0  0  0
 47 48  1  0  0  0  0
 47 55  1  0  0  0  0
 48 49  2  0  0  0  0
 48 54  1  0  0  0  0
 49 50  1  0  0  0  0
 49 51  1  0  0  0  0
 51 52  2  0  0  0  0
 51 53  1  0  0  0  0
M  END
>  <MODEL>
       1

$$$$
