tmp_first_model_5_81.pdb
 OpenBabel08272519233D

 36 38  0  0  0  0  0  0  0  0999 V2000
   -8.6860   -3.6730  -21.4200 O   0  0  0  0  0  0  0  0  0  0  0  0
   -7.5960   -3.1320  -21.4680 C   0  0  0  0  0  0  0  0  0  0  0  0
   -7.4740   -1.5970  -21.3860 C   0  0  0  0  0  0  0  0  0  0  0  0
   -6.4970   -1.1200  -20.3350 C   0  0  0  0  0  0  0  0  0  0  0  0
   -6.6610   -1.5700  -19.0470 C   0  0  0  0  0  0  0  0  0  0  0  0
   -5.7420   -1.4790  -18.0620 N   0  0  0  0  0  0  0  0  0  0  0  0
   -4.6240   -0.8580  -18.3630 C   0  0  0  0  0  0  0  0  0  0  0  0
   -4.3900   -0.1830  -19.5880 C   0  0  0  0  0  0  0  0  0  0  0  0
   -3.2470    0.6370  -19.7810 C   0  0  0  0  0  0  0  0  0  0  0  0
   -3.1250    1.4260  -20.8920 C   0  0  0  0  0  0  0  0  0  0  0  0
   -4.0950    1.3380  -21.9140 C   0  0  0  0  0  0  0  0  0  0  0  0
   -5.1970    0.5240  -21.7690 C   0  0  0  0  0  0  0  0  0  0  0  0
   -5.3840   -0.2570  -20.5960 C   0  0  0  0  0  0  0  0  0  0  0  0
   -5.9170    0.4790  -22.5830 H   0  0  0  0  0  0  0  0  0  0  0  0
   -3.9480    1.8960  -22.8350 H   0  0  0  0  0  0  0  0  0  0  0  0
   -2.2520    2.0610  -21.0330 H   0  0  0  0  0  0  0  0  0  0  0  0
   -2.5200    0.6950  -18.9800 H   0  0  0  0  0  0  0  0  0  0  0  0
   -3.8470   -0.8330  -17.6040 H   0  0  0  0  0  0  0  0  0  0  0  0
   -7.5850   -2.0750  -18.7690 H   0  0  0  0  0  0  0  0  0  0  0  0
   -8.4940   -1.2830  -21.1410 H   0  0  0  0  0  0  0  0  0  0  0  0
   -7.2380   -1.1770  -22.3720 H   0  0  0  0  0  0  0  0  0  0  0  0
   -6.4330   -3.8800  -21.6030 N   0  0  0  0  0  0  0  0  0  0  0  0
   -5.2860   -3.3710  -22.3430 C   0  0  0  0  0  0  0  0  0  0  0  0
   -5.5040   -3.3060  -23.8330 C   0  0  0  0  0  0  0  0  0  0  0  0
   -6.3980   -3.9810  -24.5670 C   0  0  0  0  0  0  0  0  0  0  0  0
   -7.2090   -5.1540  -24.1920 C   0  0  0  0  0  0  0  0  0  0  0  0
   -7.2040   -5.8050  -23.0210 C   0  0  0  0  0  0  0  0  0  0  0  0
   -6.6140   -5.3250  -21.7210 C   0  0  0  0  0  0  0  0  0  0  0  0
   -5.6380   -5.7990  -21.5430 H   0  0  0  0  0  0  0  0  0  0  0  0
   -7.2560   -5.6640  -20.9090 H   0  0  0  0  0  0  0  0  0  0  0  0
   -7.7000   -6.7740  -22.9630 H   0  0  0  0  0  0  0  0  0  0  0  0
   -7.8440   -5.5500  -24.9830 H   0  0  0  0  0  0  0  0  0  0  0  0
   -6.5250   -3.6590  -25.6010 H   0  0  0  0  0  0  0  0  0  0  0  0
   -4.8620   -2.5910  -24.3450 H   0  0  0  0  0  0  0  0  0  0  0  0
   -5.0090   -2.3820  -21.9710 H   0  0  0  0  0  0  0  0  0  0  0  0
   -4.4270   -4.0120  -22.1000 H   0  0  0  0  0  0  0  0  0  0  0  0
  1  2  2  0  0  0  0
  2  3  1  0  0  0  0
  2 22  1  0  0  0  0
  3  4  1  0  0  0  0
  3 20  1  0  0  0  0
  3 21  1  0  0  0  0
  4  5  2  0  0  0  0
  4 13  1  0  0  0  0
  5  6  1  0  0  0  0
  5 19  1  0  0  0  0
  6  7  2  0  0  0  0
  7  8  1  0  0  0  0
  7 18  1  0  0  0  0
  8  9  2  0  0  0  0
  8 13  1  0  0  0  0
  9 10  1  0  0  0  0
  9 17  1  0  0  0  0
 10 11  2  0  0  0  0
 10 16  1  0  0  0  0
 11 12  1  0  0  0  0
 11 15  1  0  0  0  0
 12 13  2  0  0  0  0
 12 14  1  0  0  0  0
 22 23  1  0  0  0  0
 22 28  1  0  0  0  0
 23 24  1  0  0  0  0
 23 35  1  0  0  0  0
 23 36  1  0  0  0  0
 24 25  2  0  0  0  0
 24 34  1  0  0  0  0
 25 26  1  0  0  0  0
 25 33  1  0  0  0  0
 26 27  2  0  0  0  0
 26 32  1  0  0  0  0
 27 28  1  0  0  0  0
 27 31  1  0  0  0  0
 28 29  1  0  0  0  0
 28 30  1  0  0  0  0
M  END
>  <MODEL>
       1

$$$$
