tmp_first_model_16_56.pdb
 OpenBabel08282501503D

 57 62  0  0  1  0  0  0  0  0999 V2000
  -10.4150   -0.8890  -23.4470 C   0  0  0  0  0  0  0  0  0  0  0  0
   -9.0180   -1.3640  -23.0420 C   0  0  1  0  0  0  0  0  0  0  0  0
   -8.3890   -0.4900  -21.9370 C   0  0  0  0  0  0  0  0  0  0  0  0
   -7.4300   -1.3800  -21.3010 N   0  0  0  0  0  0  0  0  0  0  0  0
   -6.5740   -0.9920  -20.2420 C   0  0  0  0  0  0  0  0  0  0  0  0
   -6.8370   -1.3750  -18.9510 C   0  0  0  0  0  0  0  0  0  0  0  0
   -6.0970   -0.9930  -17.8820 N   0  0  0  0  0  0  0  0  0  0  0  0
   -5.0660   -0.2120  -18.0970 C   0  0  0  0  0  0  0  0  0  0  0  0
   -4.6810    0.2550  -19.3850 C   0  0  0  0  0  0  0  0  0  0  0  0
   -3.5780    1.1310  -19.5740 C   0  0  0  0  0  0  0  0  0  0  0  0
   -3.2350    1.5470  -20.8310 C   0  0  0  0  0  0  0  0  0  0  0  0
   -3.9550    1.0880  -21.9560 C   0  0  0  0  0  0  0  0  0  0  0  0
   -5.0290    0.2440  -21.7990 C   0  0  0  0  0  0  0  0  0  0  0  0
   -5.4390   -0.1620  -20.5010 C   0  0  0  0  0  0  0  0  0  0  0  0
   -5.5690   -0.1250  -22.6620 H   0  0  0  0  0  0  0  0  0  0  0  0
   -3.6560    1.4080  -22.9500 H   0  0  0  0  0  0  0  0  0  0  0  0
   -2.4020    2.2310  -20.9780 H   0  0  0  0  0  0  0  0  0  0  0  0
   -3.0270    1.4680  -18.6990 H   0  0  0  0  0  0  0  0  0  0  0  0
   -4.4730    0.0810  -17.2280 H   0  0  0  0  0  0  0  0  0  0  0  0
   -7.6840   -2.0220  -18.7290 H   0  0  0  0  0  0  0  0  0  0  0  0
   -7.7400   -2.7090  -21.4880 C   0  0  0  0  0  0  0  0  0  0  0  0
   -7.1760   -3.6220  -20.9200 O   0  0  0  0  0  0  0  0  0  0  0  0
   -8.8900   -2.8380  -22.5060 C   0  0  1  0  0  0  0  0  0  0  0  0
  -10.1260   -3.2930  -21.6970 C   0  0  0  0  0  0  0  0  0  0  0  0
  -11.1880   -3.8930  -22.4970 N   0  0  0  0  0  0  0  0  0  0  0  0
  -12.5610   -3.8420  -22.0120 C   0  0  0  0  0  0  0  0  0  0  0  0
  -13.3600   -2.8020  -22.7000 C   0  0  0  0  0  0  0  0  0  0  0  0
  -13.5400   -1.6830  -22.0060 N   0  0  0  0  0  0  0  0  0  0  0  0
  -14.2590   -0.7570  -22.6280 C   0  0  0  0  0  0  0  0  0  0  0  0
  -14.7420   -0.9350  -23.8990 C   0  0  0  0  0  0  0  0  0  0  0  0
  -14.4920   -2.1410  -24.5280 C   0  0  0  0  0  0  0  0  0  0  0  0
  -13.8030   -3.1010  -23.9300 N   0  0  0  0  0  0  0  0  0  0  0  0
  -14.8370   -2.3650  -25.5350 H   0  0  0  0  0  0  0  0  0  0  0  0
  -15.1960   -0.0890  -24.3490 H   0  0  0  0  0  0  0  0  0  0  0  0
  -14.4570    0.1750  -22.1130 H   0  0  0  0  0  0  0  0  0  0  0  0
  -12.5750   -3.6330  -20.9390 H   0  0  0  0  0  0  0  0  0  0  0  0
  -13.0540   -4.7750  -22.2690 H   0  0  0  0  0  0  0  0  0  0  0  0
  -10.9470   -4.7070  -23.5700 C   0  0  0  0  0  0  0  0  0  0  0  0
  -11.8390   -5.3380  -24.1240 O   0  0  0  0  0  0  0  0  0  0  0  0
   -9.5390   -4.7740  -24.0390 C   0  0  0  0  0  0  0  0  0  0  0  0
   -9.2380   -5.7600  -24.9770 C   0  0  0  0  0  0  0  0  0  0  0  0
   -7.9510   -5.9260  -25.4410 C   0  0  0  0  0  0  0  0  0  0  0  0
   -6.9830   -5.0610  -24.9480 C   0  0  0  0  0  0  0  0  0  0  0  0
   -5.7270   -5.2100  -25.3950 F   0  0  0  0  0  0  0  0  0  0  0  0
   -7.2540   -4.0710  -24.0230 C   0  0  0  0  0  0  0  0  0  0  0  0
   -8.5610   -3.9010  -23.5450 C   0  0  0  0  0  0  0  0  0  0  0  0
   -6.4300   -3.4780  -23.6490 H   0  0  0  0  0  0  0  0  0  0  0  0
   -7.6870   -6.7120  -26.1400 H   0  0  0  0  0  0  0  0  0  0  0  0
  -10.0520   -6.4000  -25.3080 H   0  0  0  0  0  0  0  0  0  0  0  0
   -9.7680   -3.9970  -20.9370 H   0  0  0  0  0  0  0  0  0  0  0  0
  -10.5390   -2.4220  -21.1740 H   0  0  0  0  0  0  0  0  0  0  0  0
   -9.1410   -0.1490  -21.2070 H   0  0  0  0  0  0  0  0  0  0  0  0
   -7.8900    0.3980  -22.3340 H   0  0  0  0  0  0  0  0  0  0  0  0
   -8.3600   -1.3190  -23.9190 H   0  0  0  0  0  0  0  0  0  0  0  0
  -11.0810   -0.7730  -22.5840 H   0  0  0  0  0  0  0  0  0  0  0  0
  -10.3580    0.0850  -23.9450 H   0  0  0  0  0  0  0  0  0  0  0  0
  -10.8950   -1.5960  -24.1300 H   0  0  0  0  0  0  0  0  0  0  0  0
  1  2  1  0  0  0  0
  1 55  1  0  0  0  0
  1 56  1  0  0  0  0
  1 57  1  0  0  0  0
  2  3  1  0  0  0  0
  2 23  1  0  0  0  0
  2 54  1  6  0  0  0
  3  4  1  0  0  0  0
  3 52  1  0  0  0  0
  3 53  1  0  0  0  0
  4  5  1  0  0  0  0
  4 21  1  0  0  0  0
  5  6  2  0  0  0  0
  5 14  1  0  0  0  0
  6  7  1  0  0  0  0
  6 20  1  0  0  0  0
  7  8  2  0  0  0  0
  8  9  1  0  0  0  0
  8 19  1  0  0  0  0
  9 10  2  0  0  0  0
  9 14  1  0  0  0  0
 10 11  1  0  0  0  0
 10 18  1  0  0  0  0
 11 12  2  0  0  0  0
 11 17  1  0  0  0  0
 12 13  1  0  0  0  0
 12 16  1  0  0  0  0
 13 14  2  0  0  0  0
 13 15  1  0  0  0  0
 21 22  2  0  0  0  0
 23 21  1  1  0  0  0
 23 24  1  0  0  0  0
 23 46  1  0  0  0  0
 24 25  1  0  0  0  0
 24 50  1  0  0  0  0
 24 51  1  0  0  0  0
 25 26  1  0  0  0  0
 25 38  1  0  0  0  0
 26 27  1  0  0  0  0
 26 36  1  0  0  0  0
 26 37  1  0  0  0  0
 27 28  2  0  0  0  0
 27 32  1  0  0  0  0
 28 29  1  0  0  0  0
 29 30  2  0  0  0  0
 29 35  1  0  0  0  0
 30 31  1  0  0  0  0
 30 34  1  0  0  0  0
 31 32  2  0  0  0  0
 31 33  1  0  0  0  0
 38 39  2  0  0  0  0
 38 40  1  0  0  0  0
 40 41  2  0  0  0  0
 40 46  1  0  0  0  0
 41 42  1  0  0  0  0
 41 49  1  0  0  0  0
 42 43  2  0  0  0  0
 42 48  1  0  0  0  0
 43 44  1  0  0  0  0
 43 45  1  0  0  0  0
 45 46  2  0  0  0  0
 45 47  1  0  0  0  0
M  END
>  <MODEL>
       1

$$$$
