tmp_first_model_18_15.pdb
 OpenBabel08282502533D

 63 68  0  0  1  0  0  0  0  0999 V2000
   -6.8190    3.3270  -22.1010 C   0  0  0  0  0  0  0  0  0  0  0  0
   -6.9830    2.6990  -23.4000 N   0  0  0  0  0  0  0  0  0  0  0  0
   -8.2270    2.4790  -23.9000 C   0  0  0  0  0  0  0  0  0  0  0  0
   -9.2400    2.9430  -23.3990 O   0  0  0  0  0  0  0  0  0  0  0  0
   -8.3210    1.5870  -25.1360 C   0  0  0  0  0  0  0  0  0  0  0  0
   -8.9680    0.3450  -24.7620 N   0  0  0  0  0  0  0  0  0  0  0  0
   -8.2020   -0.7940  -24.3090 C   0  0  0  0  0  0  0  0  0  0  0  0
   -8.8020   -1.4880  -23.0530 C   0  0  2  0  0  0  0  0  0  0  0  0
   -8.3760   -0.7290  -21.7750 C   0  0  0  0  0  0  0  0  0  0  0  0
   -8.8180    0.3090  -21.3290 O   0  0  0  0  0  0  0  0  0  0  0  0
   -7.3450   -1.4230  -21.1860 N   0  0  0  0  0  0  0  0  0  0  0  0
   -6.5840   -0.8180  -20.1610 C   0  0  0  0  0  0  0  0  0  0  0  0
   -6.9290   -1.0260  -18.8520 C   0  0  0  0  0  0  0  0  0  0  0  0
   -6.2490   -0.5120  -17.8000 N   0  0  0  0  0  0  0  0  0  0  0  0
   -5.2100    0.2400  -18.0760 C   0  0  0  0  0  0  0  0  0  0  0  0
   -4.7570    0.5480  -19.3930 C   0  0  0  0  0  0  0  0  0  0  0  0
   -3.6250    1.3710  -19.6330 C   0  0  0  0  0  0  0  0  0  0  0  0
   -3.2080    1.6270  -20.9110 C   0  0  0  0  0  0  0  0  0  0  0  0
   -3.9090    1.0830  -22.0110 C   0  0  0  0  0  0  0  0  0  0  0  0
   -5.0170    0.2940  -21.8070 C   0  0  0  0  0  0  0  0  0  0  0  0
   -5.4650    0.0030  -20.4850 C   0  0  0  0  0  0  0  0  0  0  0  0
   -5.5480   -0.1140  -22.6640 H   0  0  0  0  0  0  0  0  0  0  0  0
   -3.5730    1.3000  -23.0220 H   0  0  0  0  0  0  0  0  0  0  0  0
   -2.3420    2.2590  -21.0870 H   0  0  0  0  0  0  0  0  0  0  0  0
   -3.1070    1.7840  -18.7730 H   0  0  0  0  0  0  0  0  0  0  0  0
   -4.6630    0.6530  -17.2300 H   0  0  0  0  0  0  0  0  0  0  0  0
   -7.7980   -1.6390  -18.6190 H   0  0  0  0  0  0  0  0  0  0  0  0
   -6.9510   -2.6300  -21.8740 C   0  0  0  0  0  0  0  0  0  0  0  0
   -8.1470   -2.8760  -22.8040 C   0  0  2  0  0  0  0  0  0  0  0  0
   -7.7890   -3.6410  -24.0810 C   0  0  0  0  0  0  0  0  0  0  0  0
   -7.3450   -4.9970  -23.8310 N   0  0  0  0  0  0  0  0  0  0  0  0
   -8.0880   -6.1230  -23.7250 C   0  0  0  0  0  0  0  0  0  0  0  0
   -7.2300   -7.1360  -23.3600 C   0  0  0  0  0  0  0  0  0  0  0  0
   -5.9720   -6.5050  -23.2630 C   0  0  0  0  0  0  0  0  0  0  0  0
   -6.0550   -5.2080  -23.5340 N   0  0  0  0  0  0  0  0  0  0  0  0
   -5.0050   -6.9270  -23.0190 H   0  0  0  0  0  0  0  0  0  0  0  0
   -7.4700   -8.1800  -23.2020 H   0  0  0  0  0  0  0  0  0  0  0  0
   -9.1490   -6.1220  -23.9420 H   0  0  0  0  0  0  0  0  0  0  0  0
   -6.9550   -3.1430  -24.5830 H   0  0  0  0  0  0  0  0  0  0  0  0
   -8.6580   -3.6730  -24.7470 H   0  0  0  0  0  0  0  0  0  0  0  0
   -8.8630   -3.4840  -22.2460 H   0  0  0  0  0  0  0  0  0  0  0  0
   -6.0120   -2.4930  -22.4330 H   0  0  0  0  0  0  0  0  0  0  0  0
   -6.7890   -3.4520  -21.1670 H   0  0  0  0  0  0  0  0  0  0  0  0
  -10.3100   -1.5460  -23.1810 C   0  0  0  0  0  0  0  0  0  0  0  0
  -11.0570   -2.3180  -22.2740 C   0  0  0  0  0  0  0  0  0  0  0  0
  -12.4380   -2.2790  -22.3000 C   0  0  0  0  0  0  0  0  0  0  0  0
  -13.3370   -3.2700  -21.1790 Cl  0  0  0  0  0  0  0  0  0  0  0  0
  -13.1360   -1.4820  -23.2110 C   0  0  0  0  0  0  0  0  0  0  0  0
  -12.4080   -0.7440  -24.1260 C   0  0  0  0  0  0  0  0  0  0  0  0
  -11.0120   -0.7540  -24.0990 C   0  0  0  0  0  0  0  0  0  0  0  0
  -10.3140    0.2200  -25.0000 C   0  0  0  0  0  0  0  0  0  0  0  0
  -10.9110    0.8930  -25.8270 O   0  0  0  0  0  0  0  0  0  0  0  0
  -12.8900   -0.1060  -24.8610 H   0  0  0  0  0  0  0  0  0  0  0  0
  -14.2200   -1.4250  -23.1900 H   0  0  0  0  0  0  0  0  0  0  0  0
  -10.5880   -2.9450  -21.5210 H   0  0  0  0  0  0  0  0  0  0  0  0
   -8.1620   -1.5160  -25.1320 H   0  0  0  0  0  0  0  0  0  0  0  0
   -7.1840   -0.4600  -24.0930 H   0  0  0  0  0  0  0  0  0  0  0  0
   -7.3510    1.4160  -25.6180 H   0  0  0  0  0  0  0  0  0  0  0  0
   -8.9860    2.0500  -25.8680 H   0  0  0  0  0  0  0  0  0  0  0  0
   -6.2010    2.2000  -23.7920 H   0  0  0  0  0  0  0  0  0  0  0  0
   -5.8090    3.1220  -21.7350 H   0  0  0  0  0  0  0  0  0  0  0  0
   -7.5660    2.9000  -21.4310 H   0  0  0  0  0  0  0  0  0  0  0  0
   -6.9870    4.4080  -22.1430 H   0  0  0  0  0  0  0  0  0  0  0  0
  1  2  1  0  0  0  0
  1 61  1  0  0  0  0
  1 62  1  0  0  0  0
  1 63  1  0  0  0  0
  2  3  1  0  0  0  0
  2 60  1  0  0  0  0
  3  4  2  0  0  0  0
  3  5  1  0  0  0  0
  5  6  1  0  0  0  0
  5 58  1  0  0  0  0
  5 59  1  0  0  0  0
  6  7  1  0  0  0  0
  6 51  1  0  0  0  0
  7  8  1  0  0  0  0
  7 56  1  0  0  0  0
  7 57  1  0  0  0  0
  8  9  1  1  0  0  0
  8 29  1  0  0  0  0
  8 44  1  0  0  0  0
  9 10  2  0  0  0  0
  9 11  1  0  0  0  0
 11 12  1  0  0  0  0
 11 28  1  0  0  0  0
 12 13  2  0  0  0  0
 12 21  1  0  0  0  0
 13 14  1  0  0  0  0
 13 27  1  0  0  0  0
 14 15  2  0  0  0  0
 15 16  1  0  0  0  0
 15 26  1  0  0  0  0
 16 17  2  0  0  0  0
 16 21  1  0  0  0  0
 17 18  1  0  0  0  0
 17 25  1  0  0  0  0
 18 19  2  0  0  0  0
 18 24  1  0  0  0  0
 19 20  1  0  0  0  0
 19 23  1  0  0  0  0
 20 21  2  0  0  0  0
 20 22  1  0  0  0  0
 28 29  1  0  0  0  0
 28 42  1  0  0  0  0
 28 43  1  0  0  0  0
 29 30  1  0  0  0  0
 29 41  1  1  0  0  0
 30 31  1  0  0  0  0
 30 39  1  0  0  0  0
 30 40  1  0  0  0  0
 31 32  1  0  0  0  0
 31 35  1  0  0  0  0
 32 33  2  0  0  0  0
 32 38  1  0  0  0  0
 33 34  1  0  0  0  0
 33 37  1  0  0  0  0
 34 35  2  0  0  0  0
 34 36  1  0  0  0  0
 44 45  2  0  0  0  0
 44 50  1  0  0  0  0
 45 46  1  0  0  0  0
 45 55  1  0  0  0  0
 46 47  1  0  0  0  0
 46 48  2  0  0  0  0
 48 49  1  0  0  0  0
 48 54  1  0  0  0  0
 49 50  2  0  0  0  0
 49 53  1  0  0  0  0
 50 51  1  0  0  0  0
 51 52  2  0  0  0  0
M  END
>  <MODEL>
       1

$$$$
