tmp_first_model_14_89.pdb
 OpenBabel08282500413D

 43 45  0  0  0  0  0  0  0  0999 V2000
   -9.7540   -4.1870  -25.8460 C   0  0  0  0  0  0  0  0  0  0  0  0
   -8.2270   -4.2040  -25.7060 C   0  0  0  0  0  0  0  0  0  0  0  0
   -7.6340   -4.8420  -26.9670 C   0  0  0  0  0  0  0  0  0  0  0  0
   -8.0340   -5.8500  -27.1260 H   0  0  0  0  0  0  0  0  0  0  0  0
   -7.8640   -4.2550  -27.8640 H   0  0  0  0  0  0  0  0  0  0  0  0
   -6.5440   -4.9310  -26.9020 H   0  0  0  0  0  0  0  0  0  0  0  0
   -7.6880   -2.7680  -25.5710 C   0  0  0  0  0  0  0  0  0  0  0  0
   -7.7330   -2.2030  -24.1510 C   0  0  0  0  0  0  0  0  0  0  0  0
   -7.0470   -3.0690  -23.2000 N   0  0  0  0  0  0  0  0  0  0  0  0
   -6.6940   -2.6860  -21.9290 C   0  0  0  0  0  0  0  0  0  0  0  0
   -5.8700   -3.3150  -21.2820 O   0  0  0  0  0  0  0  0  0  0  0  0
   -7.3950   -1.4620  -21.2890 C   0  0  0  0  0  0  0  0  0  0  0  0
   -6.5750   -0.8290  -20.1880 C   0  0  0  0  0  0  0  0  0  0  0  0
   -6.8730   -1.0420  -18.8690 C   0  0  0  0  0  0  0  0  0  0  0  0
   -6.1960   -0.5150  -17.8140 N   0  0  0  0  0  0  0  0  0  0  0  0
   -5.1550    0.2310  -18.0720 C   0  0  0  0  0  0  0  0  0  0  0  0
   -4.7150    0.5340  -19.3850 C   0  0  0  0  0  0  0  0  0  0  0  0
   -3.5890    1.3590  -19.6260 C   0  0  0  0  0  0  0  0  0  0  0  0
   -3.1910    1.6380  -20.9020 C   0  0  0  0  0  0  0  0  0  0  0  0
   -3.9080    1.0960  -21.9950 C   0  0  0  0  0  0  0  0  0  0  0  0
   -5.0020    0.2970  -21.7860 C   0  0  0  0  0  0  0  0  0  0  0  0
   -5.4450   -0.0070  -20.4760 C   0  0  0  0  0  0  0  0  0  0  0  0
   -5.5380   -0.1100  -22.6400 H   0  0  0  0  0  0  0  0  0  0  0  0
   -3.5880    1.3230  -23.0050 H   0  0  0  0  0  0  0  0  0  0  0  0
   -2.3330    2.2770  -21.0890 H   0  0  0  0  0  0  0  0  0  0  0  0
   -3.0540    1.7740  -18.7740 H   0  0  0  0  0  0  0  0  0  0  0  0
   -4.6010    0.6290  -17.2170 H   0  0  0  0  0  0  0  0  0  0  0  0
   -7.7180   -1.6690  -18.5870 H   0  0  0  0  0  0  0  0  0  0  0  0
   -8.3330   -1.8270  -20.8470 H   0  0  0  0  0  0  0  0  0  0  0  0
   -7.6870   -0.7030  -22.0240 H   0  0  0  0  0  0  0  0  0  0  0  0
   -6.6850   -4.4080  -23.6630 C   0  0  0  0  0  0  0  0  0  0  0  0
   -7.8330   -5.0230  -24.4570 C   0  0  0  0  0  0  0  0  0  0  0  0
   -7.5790   -6.0460  -24.7500 H   0  0  0  0  0  0  0  0  0  0  0  0
   -8.6880   -5.1210  -23.7800 H   0  0  0  0  0  0  0  0  0  0  0  0
   -6.4510   -5.0170  -22.7930 H   0  0  0  0  0  0  0  0  0  0  0  0
   -5.7710   -4.3810  -24.2690 H   0  0  0  0  0  0  0  0  0  0  0  0
   -8.7720   -2.0380  -23.8460 H   0  0  0  0  0  0  0  0  0  0  0  0
   -7.2550   -1.2170  -24.1660 H   0  0  0  0  0  0  0  0  0  0  0  0
   -8.2550   -2.1090  -26.2340 H   0  0  0  0  0  0  0  0  0  0  0  0
   -6.6580   -2.7140  -25.9420 H   0  0  0  0  0  0  0  0  0  0  0  0
  -10.2340   -3.6980  -24.9920 H   0  0  0  0  0  0  0  0  0  0  0  0
  -10.1580   -5.2030  -25.9150 H   0  0  0  0  0  0  0  0  0  0  0  0
  -10.0660   -3.6500  -26.7480 H   0  0  0  0  0  0  0  0  0  0  0  0
  1  2  1  0  0  0  0
  1 41  1  0  0  0  0
  1 42  1  0  0  0  0
  1 43  1  0  0  0  0
  2  3  1  0  0  0  0
  2  7  1  0  0  0  0
  2 32  1  0  0  0  0
  3  4  1  0  0  0  0
  3  5  1  0  0  0  0
  3  6  1  0  0  0  0
  7  8  1  0  0  0  0
  7 39  1  0  0  0  0
  7 40  1  0  0  0  0
  8  9  1  0  0  0  0
  8 37  1  0  0  0  0
  8 38  1  0  0  0  0
  9 10  1  0  0  0  0
  9 31  1  0  0  0  0
 10 11  2  0  0  0  0
 10 12  1  0  0  0  0
 12 13  1  0  0  0  0
 12 29  1  0  0  0  0
 12 30  1  0  0  0  0
 13 14  2  0  0  0  0
 13 22  1  0  0  0  0
 14 15  1  0  0  0  0
 14 28  1  0  0  0  0
 15 16  2  0  0  0  0
 16 17  1  0  0  0  0
 16 27  1  0  0  0  0
 17 18  2  0  0  0  0
 17 22  1  0  0  0  0
 18 19  1  0  0  0  0
 18 26  1  0  0  0  0
 19 20  2  0  0  0  0
 19 25  1  0  0  0  0
 20 21  1  0  0  0  0
 20 24  1  0  0  0  0
 21 22  2  0  0  0  0
 21 23  1  0  0  0  0
 31 32  1  0  0  0  0
 31 35  1  0  0  0  0
 31 36  1  0  0  0  0
 32 33  1  0  0  0  0
 32 34  1  0  0  0  0
M  END
>  <MODEL>
       1

$$$$
