tmp_first_model_12_92.pdb
 OpenBabel08272523333D

 60 65  0  0  1  0  0  0  0  0999 V2000
   -6.7830   -3.4340  -26.0890 C   0  0  0  0  0  0  0  0  0  0  0  0
   -7.0160   -2.8850  -24.8160 O   0  0  0  0  0  0  0  0  0  0  0  0
   -7.9930   -3.5900  -24.0780 C   0  0  0  0  0  0  0  0  0  0  0  0
   -8.2990   -2.8780  -22.7600 C   0  0  1  0  0  0  0  0  0  0  0  0
   -7.0270   -2.5340  -21.9680 C   0  0  0  0  0  0  0  0  0  0  0  0
   -7.3870   -1.3310  -21.2380 N   0  0  0  0  0  0  0  0  0  0  0  0
   -6.6180   -0.7730  -20.1830 C   0  0  0  0  0  0  0  0  0  0  0  0
   -6.9260   -1.0410  -18.8770 C   0  0  0  0  0  0  0  0  0  0  0  0
   -6.2290   -0.5670  -17.8140 N   0  0  0  0  0  0  0  0  0  0  0  0
   -5.2010    0.2100  -18.0660 C   0  0  0  0  0  0  0  0  0  0  0  0
   -4.7840    0.5880  -19.3730 C   0  0  0  0  0  0  0  0  0  0  0  0
   -3.6610    1.4230  -19.6040 C   0  0  0  0  0  0  0  0  0  0  0  0
   -3.3170    1.7870  -20.8790 C   0  0  0  0  0  0  0  0  0  0  0  0
   -4.0730    1.3330  -21.9790 C   0  0  0  0  0  0  0  0  0  0  0  0
   -5.1280    0.4720  -21.7800 C   0  0  0  0  0  0  0  0  0  0  0  0
   -5.5170    0.0880  -20.4730 C   0  0  0  0  0  0  0  0  0  0  0  0
   -5.6760    0.0730  -22.6300 H   0  0  0  0  0  0  0  0  0  0  0  0
   -3.8000    1.6640  -22.9800 H   0  0  0  0  0  0  0  0  0  0  0  0
   -2.4440    2.4070  -21.0490 H   0  0  0  0  0  0  0  0  0  0  0  0
   -3.0880    1.7630  -18.7470 H   0  0  0  0  0  0  0  0  0  0  0  0
   -4.6360    0.5800  -17.2090 H   0  0  0  0  0  0  0  0  0  0  0  0
   -7.7780   -1.6770  -18.6420 H   0  0  0  0  0  0  0  0  0  0  0  0
   -8.6120   -0.7970  -21.5780 C   0  0  0  0  0  0  0  0  0  0  0  0
   -9.1550    0.1100  -20.9850 O   0  0  0  0  0  0  0  0  0  0  0  0
   -9.1500   -1.5690  -22.8090 C   0  0  1  0  0  0  0  0  0  0  0  0
   -8.8890   -0.7870  -24.1220 C   0  0  0  0  0  0  0  0  0  0  0  0
   -9.7340    0.3880  -24.2390 N   0  0  0  0  0  0  0  0  0  0  0  0
   -9.1520    1.6210  -24.7600 C   0  0  0  0  0  0  0  0  0  0  0  0
   -8.3510    2.3950  -23.7450 C   0  0  0  0  0  0  0  0  0  0  0  0
   -8.8780    3.3060  -22.7950 C   0  0  0  0  0  0  0  0  0  0  0  0
   -7.9380    3.7750  -21.9670 N   0  0  0  0  0  0  0  0  0  0  0  0
   -6.8140    3.1920  -22.3940 N   0  0  0  0  0  0  0  0  0  0  0  0
   -7.0010    2.3600  -23.4500 C   0  0  0  0  0  0  0  0  0  0  0  0
   -6.1470    1.8320  -23.8540 H   0  0  0  0  0  0  0  0  0  0  0  0
   -5.9310    3.3470  -21.9260 H   0  0  0  0  0  0  0  0  0  0  0  0
   -9.8990    3.6440  -22.6670 H   0  0  0  0  0  0  0  0  0  0  0  0
   -8.5380    1.3640  -25.6290 H   0  0  0  0  0  0  0  0  0  0  0  0
   -9.9900    2.2240  -25.1250 H   0  0  0  0  0  0  0  0  0  0  0  0
  -11.0880    0.3170  -24.0490 C   0  0  0  0  0  0  0  0  0  0  0  0
  -11.8590    1.1630  -24.4780 O   0  0  0  0  0  0  0  0  0  0  0  0
  -11.5570   -0.8490  -23.2370 C   0  0  0  0  0  0  0  0  0  0  0  0
  -12.9290   -0.9520  -23.0080 C   0  0  0  0  0  0  0  0  0  0  0  0
  -13.4260   -1.9220  -22.1680 C   0  0  0  0  0  0  0  0  0  0  0  0
  -12.5290   -2.7940  -21.5620 C   0  0  0  0  0  0  0  0  0  0  0  0
  -13.1510   -3.9610  -20.4420 Cl  0  0  0  0  0  0  0  0  0  0  0  0
  -11.1670   -2.7220  -21.7950 C   0  0  0  0  0  0  0  0  0  0  0  0
  -10.6520   -1.7480  -22.6580 C   0  0  0  0  0  0  0  0  0  0  0  0
  -10.5220   -3.4110  -21.2660 H   0  0  0  0  0  0  0  0  0  0  0  0
  -14.4860   -2.0020  -21.9510 H   0  0  0  0  0  0  0  0  0  0  0  0
  -13.5770   -0.2370  -23.4980 H   0  0  0  0  0  0  0  0  0  0  0  0
   -9.0700   -1.4760  -24.9590 H   0  0  0  0  0  0  0  0  0  0  0  0
   -7.8450   -0.4710  -24.1740 H   0  0  0  0  0  0  0  0  0  0  0  0
   -6.1780   -2.3620  -22.6410 H   0  0  0  0  0  0  0  0  0  0  0  0
   -6.7590   -3.3420  -21.2780 H   0  0  0  0  0  0  0  0  0  0  0  0
   -8.8740   -3.5980  -22.1740 H   0  0  0  0  0  0  0  0  0  0  0  0
   -7.6280   -4.6050  -23.8620 H   0  0  0  0  0  0  0  0  0  0  0  0
   -8.9180   -3.6940  -24.6700 H   0  0  0  0  0  0  0  0  0  0  0  0
   -6.0190   -2.8240  -26.5780 H   0  0  0  0  0  0  0  0  0  0  0  0
   -6.4180   -4.4690  -26.0220 H   0  0  0  0  0  0  0  0  0  0  0  0
   -7.6930   -3.4220  -26.7090 H   0  0  0  0  0  0  0  0  0  0  0  0
  1  2  1  0  0  0  0
  1 58  1  0  0  0  0
  1 59  1  0  0  0  0
  1 60  1  0  0  0  0
  2  3  1  0  0  0  0
  3  4  1  0  0  0  0
  3 56  1  0  0  0  0
  3 57  1  0  0  0  0
  4  5  1  0  0  0  0
  4 25  1  0  0  0  0
  4 55  1  1  0  0  0
  5  6  1  0  0  0  0
  5 53  1  0  0  0  0
  5 54  1  0  0  0  0
  6  7  1  0  0  0  0
  6 23  1  0  0  0  0
  7  8  2  0  0  0  0
  7 16  1  0  0  0  0
  8  9  1  0  0  0  0
  8 22  1  0  0  0  0
  9 10  2  0  0  0  0
 10 11  1  0  0  0  0
 10 21  1  0  0  0  0
 11 12  2  0  0  0  0
 11 16  1  0  0  0  0
 12 13  1  0  0  0  0
 12 20  1  0  0  0  0
 13 14  2  0  0  0  0
 13 19  1  0  0  0  0
 14 15  1  0  0  0  0
 14 18  1  0  0  0  0
 15 16  2  0  0  0  0
 15 17  1  0  0  0  0
 23 24  2  0  0  0  0
 25 23  1  1  0  0  0
 25 26  1  0  0  0  0
 25 47  1  0  0  0  0
 26 27  1  0  0  0  0
 26 51  1  0  0  0  0
 26 52  1  0  0  0  0
 27 28  1  0  0  0  0
 27 39  1  0  0  0  0
 28 29  1  0  0  0  0
 28 37  1  0  0  0  0
 28 38  1  0  0  0  0
 29 30  1  0  0  0  0
 29 33  2  0  0  0  0
 30 31  2  0  0  0  0
 30 36  1  0  0  0  0
 31 32  1  0  0  0  0
 32 33  1  0  0  0  0
 32 35  1  0  0  0  0
 33 34  1  0  0  0  0
 39 40  2  0  0  0  0
 39 41  1  0  0  0  0
 41 42  2  0  0  0  0
 41 47  1  0  0  0  0
 42 43  1  0  0  0  0
 42 50  1  0  0  0  0
 43 44  2  0  0  0  0
 43 49  1  0  0  0  0
 44 45  1  0  0  0  0
 44 46  1  0  0  0  0
 46 47  2  0  0  0  0
 46 48  1  0  0  0  0
M  END
>  <MODEL>
       1

$$$$
