tmp_first_model_11_16.pdb
 OpenBabel08272522543D

 61 66  0  0  1  0  0  0  0  0999 V2000
   -7.3720    3.4010  -21.8120 C   0  0  0  0  0  0  0  0  0  0  0  0
   -8.2270    2.9360  -22.8910 N   0  0  0  0  0  0  0  0  0  0  0  0
   -7.6580    2.2440  -23.9030 C   0  0  0  0  0  0  0  0  0  0  0  0
   -6.4440    2.1260  -24.0150 O   0  0  0  0  0  0  0  0  0  0  0  0
   -8.6080    1.6220  -24.9350 C   0  0  0  0  0  0  0  0  0  0  0  0
   -9.3390    0.4710  -24.4360 N   0  0  0  0  0  0  0  0  0  0  0  0
   -8.6270   -0.7850  -24.2590 C   0  0  0  0  0  0  0  0  0  0  0  0
   -9.0310   -1.4950  -22.9390 C   0  0  2  0  0  0  0  0  0  0  0  0
   -8.4820   -0.7060  -21.7230 C   0  0  0  0  0  0  0  0  0  0  0  0
   -8.9120    0.3380  -21.2710 O   0  0  0  0  0  0  0  0  0  0  0  0
   -7.4000   -1.3820  -21.2060 N   0  0  0  0  0  0  0  0  0  0  0  0
   -6.6030   -0.8120  -20.1760 C   0  0  0  0  0  0  0  0  0  0  0  0
   -6.9100   -1.0420  -18.8590 C   0  0  0  0  0  0  0  0  0  0  0  0
   -6.2100   -0.5470  -17.8090 N   0  0  0  0  0  0  0  0  0  0  0  0
   -5.1700    0.2080  -18.0770 C   0  0  0  0  0  0  0  0  0  0  0  0
   -4.7300    0.5270  -19.3940 C   0  0  0  0  0  0  0  0  0  0  0  0
   -3.6020    1.3590  -19.6390 C   0  0  0  0  0  0  0  0  0  0  0  0
   -3.2160    1.6490  -20.9200 C   0  0  0  0  0  0  0  0  0  0  0  0
   -3.9370    1.1220  -22.0130 C   0  0  0  0  0  0  0  0  0  0  0  0
   -5.0320    0.3170  -21.8020 C   0  0  0  0  0  0  0  0  0  0  0  0
   -5.4640    0.0010  -20.4840 C   0  0  0  0  0  0  0  0  0  0  0  0
   -5.5890   -0.0700  -22.6500 H   0  0  0  0  0  0  0  0  0  0  0  0
   -3.6450    1.3680  -23.0290 H   0  0  0  0  0  0  0  0  0  0  0  0
   -2.3640    2.3010  -21.0980 H   0  0  0  0  0  0  0  0  0  0  0  0
   -3.0740    1.7750  -18.7850 H   0  0  0  0  0  0  0  0  0  0  0  0
   -4.6200    0.6120  -17.2270 H   0  0  0  0  0  0  0  0  0  0  0  0
   -7.7630   -1.6670  -18.6050 H   0  0  0  0  0  0  0  0  0  0  0  0
   -7.0700   -2.6050  -21.9070 C   0  0  0  0  0  0  0  0  0  0  0  0
   -8.3130   -2.8710  -22.7770 C   0  0  2  0  0  0  0  0  0  0  0  0
   -7.9520   -3.6330  -24.0710 C   0  0  0  0  0  0  0  0  0  0  0  0
   -7.4240   -4.9620  -23.7750 N   0  0  0  0  0  0  0  0  0  0  0  0
   -6.1350   -5.2350  -23.6760 N   0  0  0  0  0  0  0  0  0  0  0  0
   -6.1660   -6.5180  -23.3480 C   0  0  0  0  0  0  0  0  0  0  0  0
   -7.4250   -6.9940  -23.2530 N   0  0  0  0  0  0  0  0  0  0  0  0
   -8.2070   -5.9890  -23.5300 N   0  0  0  0  0  0  0  0  0  0  0  0
   -5.2810   -7.1140  -23.1690 H   0  0  0  0  0  0  0  0  0  0  0  0
   -7.1680   -3.1190  -24.6350 H   0  0  0  0  0  0  0  0  0  0  0  0
   -8.8320   -3.7840  -24.7050 H   0  0  0  0  0  0  0  0  0  0  0  0
   -8.9880   -3.5230  -22.2170 H   0  0  0  0  0  0  0  0  0  0  0  0
   -6.1670   -2.4800  -22.5270 H   0  0  0  0  0  0  0  0  0  0  0  0
   -6.8720   -3.4220  -21.2050 H   0  0  0  0  0  0  0  0  0  0  0  0
  -10.5490   -1.5250  -22.8670 C   0  0  0  0  0  0  0  0  0  0  0  0
  -11.1930   -2.3840  -21.9670 C   0  0  0  0  0  0  0  0  0  0  0  0
  -12.5730   -2.3930  -21.8820 C   0  0  0  0  0  0  0  0  0  0  0  0
  -13.3620   -3.4650  -20.7630 Cl  0  0  0  0  0  0  0  0  0  0  0  0
  -13.3550   -1.5460  -22.6660 C   0  0  0  0  0  0  0  0  0  0  0  0
  -12.7270   -0.6430  -23.5010 C   0  0  0  0  0  0  0  0  0  0  0  0
  -11.3340   -0.6040  -23.5760 C   0  0  0  0  0  0  0  0  0  0  0  0
  -10.7050    0.5170  -24.3510 C   0  0  0  0  0  0  0  0  0  0  0  0
  -11.3770    1.4200  -24.8340 O   0  0  0  0  0  0  0  0  0  0  0  0
  -13.2860    0.0820  -24.0830 H   0  0  0  0  0  0  0  0  0  0  0  0
  -14.4350   -1.5760  -22.5770 H   0  0  0  0  0  0  0  0  0  0  0  0
  -10.6290   -3.0300  -21.3050 H   0  0  0  0  0  0  0  0  0  0  0  0
   -8.8310   -1.4610  -25.1070 H   0  0  0  0  0  0  0  0  0  0  0  0
   -7.5590   -0.5490  -24.2400 H   0  0  0  0  0  0  0  0  0  0  0  0
   -7.9730    1.3450  -25.7850 H   0  0  0  0  0  0  0  0  0  0  0  0
   -9.3700    2.3340  -25.2660 H   0  0  0  0  0  0  0  0  0  0  0  0
   -9.2240    2.8750  -22.7460 H   0  0  0  0  0  0  0  0  0  0  0  0
   -6.6730    4.1640  -22.1730 H   0  0  0  0  0  0  0  0  0  0  0  0
   -6.7820    2.5620  -21.4130 H   0  0  0  0  0  0  0  0  0  0  0  0
   -7.9970    3.8430  -21.0370 H   0  0  0  0  0  0  0  0  0  0  0  0
  1  2  1  0  0  0  0
  1 59  1  0  0  0  0
  1 60  1  0  0  0  0
  1 61  1  0  0  0  0
  2  3  1  0  0  0  0
  2 58  1  0  0  0  0
  3  4  2  0  0  0  0
  3  5  1  0  0  0  0
  5  6  1  0  0  0  0
  5 56  1  0  0  0  0
  5 57  1  0  0  0  0
  6  7  1  0  0  0  0
  6 49  1  0  0  0  0
  7  8  1  0  0  0  0
  7 54  1  0  0  0  0
  7 55  1  0  0  0  0
  8  9  1  1  0  0  0
  8 29  1  0  0  0  0
  8 42  1  0  0  0  0
  9 10  2  0  0  0  0
  9 11  1  0  0  0  0
 11 12  1  0  0  0  0
 11 28  1  0  0  0  0
 12 13  2  0  0  0  0
 12 21  1  0  0  0  0
 13 14  1  0  0  0  0
 13 27  1  0  0  0  0
 14 15  2  0  0  0  0
 15 16  1  0  0  0  0
 15 26  1  0  0  0  0
 16 17  2  0  0  0  0
 16 21  1  0  0  0  0
 17 18  1  0  0  0  0
 17 25  1  0  0  0  0
 18 19  2  0  0  0  0
 18 24  1  0  0  0  0
 19 20  1  0  0  0  0
 19 23  1  0  0  0  0
 20 21  2  0  0  0  0
 20 22  1  0  0  0  0
 28 29  1  0  0  0  0
 28 40  1  0  0  0  0
 28 41  1  0  0  0  0
 29 30  1  0  0  0  0
 29 39  1  1  0  0  0
 30 31  1  0  0  0  0
 30 37  1  0  0  0  0
 30 38  1  0  0  0  0
 31 32  1  0  0  0  0
 31 35  1  0  0  0  0
 32 33  2  0  0  0  0
 33 34  1  0  0  0  0
 33 36  1  0  0  0  0
 34 35  2  0  0  0  0
 42 43  2  0  0  0  0
 42 48  1  0  0  0  0
 43 44  1  0  0  0  0
 43 53  1  0  0  0  0
 44 45  1  0  0  0  0
 44 46  2  0  0  0  0
 46 47  1  0  0  0  0
 46 52  1  0  0  0  0
 47 48  2  0  0  0  0
 47 51  1  0  0  0  0
 48 49  1  0  0  0  0
 49 50  2  0  0  0  0
M  END
>  <MODEL>
       1

$$$$
