tmp_first_model_3_17.pdb
 OpenBabel08272518143D

 38 41  0  0  1  0  0  0  0  0999 V2000
  -10.8100   -4.6500  -22.9170 C   0  0  0  0  0  0  0  0  0  0  0  0
  -10.5510   -3.3970  -23.7340 C   0  0  2  0  0  0  0  0  0  0  0  0
   -9.3900   -3.6220  -24.7150 C   0  0  0  0  0  0  0  0  0  0  0  0
   -8.0500   -3.7710  -23.9640 C   0  0  0  0  0  0  0  0  0  0  0  0
   -7.9390   -2.7920  -22.8780 C   0  0  0  0  0  0  0  0  0  0  0  0
   -6.7950   -2.4210  -22.0940 C   0  0  0  0  0  0  0  0  0  0  0  0
   -5.6420   -2.7860  -22.1680 O   0  5  0  0  0  0  0  0  0  0  0  0
   -7.3020   -1.4480  -21.1840 N   0  0  0  0  0  0  0  0  0  0  0  0
   -6.5600   -0.8300  -20.1570 C   0  0  0  0  0  0  0  0  0  0  0  0
   -6.8960   -1.0470  -18.8410 C   0  0  0  0  0  0  0  0  0  0  0  0
   -6.2040   -0.5380  -17.7920 N   0  0  0  0  0  0  0  0  0  0  0  0
   -5.1700    0.2130  -18.0760 C   0  0  0  0  0  0  0  0  0  0  0  0
   -4.7280    0.5300  -19.3920 C   0  0  0  0  0  0  0  0  0  0  0  0
   -3.6030    1.3620  -19.6300 C   0  0  0  0  0  0  0  0  0  0  0  0
   -3.2230    1.6660  -20.9040 C   0  0  0  0  0  0  0  0  0  0  0  0
   -3.9540    1.1640  -22.0060 C   0  0  0  0  0  0  0  0  0  0  0  0
   -5.0510    0.3640  -21.8050 C   0  0  0  0  0  0  0  0  0  0  0  0
   -5.4510    0.0100  -20.4840 C   0  0  0  0  0  0  0  0  0  0  0  0
   -5.6170   -0.0040  -22.6570 H   0  0  0  0  0  0  0  0  0  0  0  0
   -3.6480    1.4210  -23.0150 H   0  0  0  0  0  0  0  0  0  0  0  0
   -2.3650    2.3110  -21.0790 H   0  0  0  0  0  0  0  0  0  0  0  0
   -3.0770    1.7560  -18.7650 H   0  0  0  0  0  0  0  0  0  0  0  0
   -4.6170    0.6150  -17.2300 H   0  0  0  0  0  0  0  0  0  0  0  0
   -7.7520   -1.6740  -18.6000 H   0  0  0  0  0  0  0  0  0  0  0  0
   -8.6420   -1.1580  -21.4550 C   0  0  0  0  0  0  0  0  0  0  0  0
   -9.3260   -0.2780  -20.9780 O   0  0  0  0  0  0  0  0  0  0  0  0
   -8.9960   -2.0830  -22.4120 N   0  0  0  0  0  0  0  0  0  0  0  0
  -10.3460   -2.1360  -22.9220 C   0  0  0  0  0  0  0  0  0  0  0  0
  -10.5060   -1.2530  -23.5560 H   0  0  0  0  0  0  0  0  0  0  0  0
  -11.0340   -2.1040  -22.0680 H   0  0  0  0  0  0  0  0  0  0  0  0
   -7.2000   -3.6700  -24.6480 H   0  0  0  0  0  0  0  0  0  0  0  0
   -7.9400   -4.7800  -23.5400 H   0  0  0  0  0  0  0  0  0  0  0  0
   -9.5690   -4.5320  -25.3000 H   0  0  0  0  0  0  0  0  0  0  0  0
   -9.3330   -2.7840  -25.4200 H   0  0  0  0  0  0  0  0  0  0  0  0
  -11.4880   -3.1610  -24.2320 H   0  0  0  0  0  0  0  0  0  0  0  0
  -10.8680   -5.4750  -23.6290 H   0  0  0  0  0  0  0  0  0  0  0  0
  -10.0230   -4.8760  -22.1920 H   0  0  0  0  0  0  0  0  0  0  0  0
  -11.7560   -4.5720  -22.3770 H   0  0  0  0  0  0  0  0  0  0  0  0
  1  2  1  0  0  0  0
  1 36  1  0  0  0  0
  1 37  1  0  0  0  0
  1 38  1  0  0  0  0
  2  3  1  0  0  0  0
  2 28  1  0  0  0  0
  2 35  1  6  0  0  0
  3  4  1  0  0  0  0
  3 33  1  0  0  0  0
  3 34  1  0  0  0  0
  4  5  1  0  0  0  0
  4 31  1  0  0  0  0
  4 32  1  0  0  0  0
  5  6  2  0  0  0  0
  5 27  1  0  0  0  0
  6  7  1  0  0  0  0
  6  8  1  0  0  0  0
  8  9  1  0  0  0  0
  8 25  1  0  0  0  0
  9 10  2  0  0  0  0
  9 18  1  0  0  0  0
 10 11  1  0  0  0  0
 10 24  1  0  0  0  0
 11 12  2  0  0  0  0
 12 13  1  0  0  0  0
 12 23  1  0  0  0  0
 13 14  2  0  0  0  0
 13 18  1  0  0  0  0
 14 15  1  0  0  0  0
 14 22  1  0  0  0  0
 15 16  2  0  0  0  0
 15 21  1  0  0  0  0
 16 17  1  0  0  0  0
 16 20  1  0  0  0  0
 17 18  2  0  0  0  0
 17 19  1  0  0  0  0
 25 26  2  0  0  0  0
 25 27  1  0  0  0  0
 27 28  1  0  0  0  0
 28 29  1  0  0  0  0
 28 30  1  0  0  0  0
M  CHG  1   7  -1
M  END
>  <MODEL>
       1

$$$$
