tmp_first_model_10_1.pdb
 OpenBabel08272522163D

 68 73  0  0  1  0  0  0  0  0999 V2000
   -7.3370    3.3470  -22.0480 C   0  0  0  0  0  0  0  0  0  0  0  0
   -8.2080    2.7250  -23.0250 N   0  0  0  0  0  0  0  0  0  0  0  0
   -7.6640    2.1810  -24.1430 C   0  0  0  0  0  0  0  0  0  0  0  0
   -6.4740    2.2700  -24.4050 O   0  0  0  0  0  0  0  0  0  0  0  0
   -8.6570    1.4640  -25.0670 C   0  0  0  0  0  0  0  0  0  0  0  0
   -9.3410    0.3710  -24.3960 N   0  0  0  0  0  0  0  0  0  0  0  0
   -8.5940   -0.8560  -24.1600 C   0  0  0  0  0  0  0  0  0  0  0  0
   -9.0390   -1.5840  -22.8590 C   0  0  2  0  0  0  0  0  0  0  0  0
   -8.5490   -0.7900  -21.6220 C   0  0  0  0  0  0  0  0  0  0  0  0
   -9.0470    0.2060  -21.1380 O   0  0  0  0  0  0  0  0  0  0  0  0
   -7.4070   -1.3900  -21.1460 N   0  0  0  0  0  0  0  0  0  0  0  0
   -6.6400   -0.7980  -20.1120 C   0  0  0  0  0  0  0  0  0  0  0  0
   -6.9090   -1.1000  -18.8030 C   0  0  0  0  0  0  0  0  0  0  0  0
   -6.2090   -0.6210  -17.7480 N   0  0  0  0  0  0  0  0  0  0  0  0
   -5.2110    0.1910  -18.0000 C   0  0  0  0  0  0  0  0  0  0  0  0
   -4.8410    0.6120  -19.3090 C   0  0  0  0  0  0  0  0  0  0  0  0
   -3.7960    1.5490  -19.5330 C   0  0  0  0  0  0  0  0  0  0  0  0
   -3.5240    1.9990  -20.7960 C   0  0  0  0  0  0  0  0  0  0  0  0
   -4.2740    1.5290  -21.8980 C   0  0  0  0  0  0  0  0  0  0  0  0
   -5.2690    0.5980  -21.7090 C   0  0  0  0  0  0  0  0  0  0  0  0
   -5.5860    0.1190  -20.4070 C   0  0  0  0  0  0  0  0  0  0  0  0
   -5.8420    0.2490  -22.5640 H   0  0  0  0  0  0  0  0  0  0  0  0
   -4.0710    1.9040  -22.8980 H   0  0  0  0  0  0  0  0  0  0  0  0
   -2.7300    2.7230  -20.9590 H   0  0  0  0  0  0  0  0  0  0  0  0
   -3.2480    1.9250  -18.6730 H   0  0  0  0  0  0  0  0  0  0  0  0
   -4.6520    0.5750  -17.1440 H   0  0  0  0  0  0  0  0  0  0  0  0
   -7.7290   -1.7710  -18.5580 H   0  0  0  0  0  0  0  0  0  0  0  0
   -6.9910   -2.5570  -21.8920 C   0  0  0  0  0  0  0  0  0  0  0  0
   -8.2620   -2.9290  -22.6760 C   0  0  2  0  0  0  0  0  0  0  0  0
   -7.9800   -3.6990  -23.9670 C   0  0  0  0  0  0  0  0  0  0  0  0
   -7.4610   -5.0360  -23.7480 N   0  0  0  0  0  0  0  0  0  0  0  0
   -6.9290   -5.7070  -24.8530 C   0  0  0  0  0  0  0  0  0  0  0  0
   -7.1040   -5.4060  -26.2340 C   0  0  0  0  0  0  0  0  0  0  0  0
   -6.4580   -6.2740  -27.0050 N   0  0  0  0  0  0  0  0  0  0  0  0
   -5.8560   -7.1220  -26.1660 N   0  0  0  0  0  0  0  0  0  0  0  0
   -5.0490   -8.1680  -26.7550 C   0  0  0  0  0  0  0  0  0  0  0  0
   -4.3830   -8.6300  -26.0290 H   0  0  0  0  0  0  0  0  0  0  0  0
   -5.6740   -8.9520  -27.1870 H   0  0  0  0  0  0  0  0  0  0  0  0
   -4.4540   -7.7170  -27.5500 H   0  0  0  0  0  0  0  0  0  0  0  0
   -6.1460   -6.8510  -24.8620 C   0  0  0  0  0  0  0  0  0  0  0  0
   -5.8250   -7.4970  -24.0550 H   0  0  0  0  0  0  0  0  0  0  0  0
   -7.6890   -4.6210  -26.7110 H   0  0  0  0  0  0  0  0  0  0  0  0
   -7.0720   -5.2730  -22.8450 H   0  0  0  0  0  0  0  0  0  0  0  0
   -7.2830   -3.1240  -24.6060 H   0  0  0  0  0  0  0  0  0  0  0  0
   -8.9160   -3.8100  -24.5310 H   0  0  0  0  0  0  0  0  0  0  0  0
   -8.8610   -3.5850  -22.0370 H   0  0  0  0  0  0  0  0  0  0  0  0
   -6.1470   -2.3290  -22.5650 H   0  0  0  0  0  0  0  0  0  0  0  0
   -6.6640   -3.3480  -21.2100 H   0  0  0  0  0  0  0  0  0  0  0  0
  -10.5550   -1.6690  -22.8560 C   0  0  0  0  0  0  0  0  0  0  0  0
  -11.2210   -2.5790  -22.0230 C   0  0  0  0  0  0  0  0  0  0  0  0
  -12.6040   -2.5920  -21.9690 C   0  0  0  0  0  0  0  0  0  0  0  0
  -13.4060   -3.7280  -20.9200 Cl  0  0  0  0  0  0  0  0  0  0  0  0
  -13.3730   -1.7010  -22.7170 C   0  0  0  0  0  0  0  0  0  0  0  0
  -12.7250   -0.7770  -23.5090 C   0  0  0  0  0  0  0  0  0  0  0  0
  -11.3320   -0.7430  -23.5700 C   0  0  0  0  0  0  0  0  0  0  0  0
  -10.7120    0.3640  -24.3730 C   0  0  0  0  0  0  0  0  0  0  0  0
  -11.3890    1.2140  -24.9330 O   0  0  0  0  0  0  0  0  0  0  0  0
  -13.2760   -0.0440  -24.0860 H   0  0  0  0  0  0  0  0  0  0  0  0
  -14.4560   -1.7310  -22.6570 H   0  0  0  0  0  0  0  0  0  0  0  0
  -10.6790   -3.2700  -21.3860 H   0  0  0  0  0  0  0  0  0  0  0  0
   -8.7200   -1.5340  -25.0180 H   0  0  0  0  0  0  0  0  0  0  0  0
   -7.5350   -0.5940  -24.0930 H   0  0  0  0  0  0  0  0  0  0  0  0
   -8.1070    1.1140  -25.9460 H   0  0  0  0  0  0  0  0  0  0  0  0
   -9.4400    2.1520  -25.4030 H   0  0  0  0  0  0  0  0  0  0  0  0
   -9.0820    2.3400  -22.6940 H   0  0  0  0  0  0  0  0  0  0  0  0
   -6.8460    2.5940  -21.4200 H   0  0  0  0  0  0  0  0  0  0  0  0
   -7.9080    4.0410  -21.4280 H   0  0  0  0  0  0  0  0  0  0  0  0
   -6.5510    3.8930  -22.5740 H   0  0  0  0  0  0  0  0  0  0  0  0
  1  2  1  0  0  0  0
  1 66  1  0  0  0  0
  1 67  1  0  0  0  0
  1 68  1  0  0  0  0
  2  3  1  0  0  0  0
  2 65  1  0  0  0  0
  3  4  2  0  0  0  0
  3  5  1  0  0  0  0
  5  6  1  0  0  0  0
  5 63  1  0  0  0  0
  5 64  1  0  0  0  0
  6  7  1  0  0  0  0
  6 56  1  0  0  0  0
  7  8  1  0  0  0  0
  7 61  1  0  0  0  0
  7 62  1  0  0  0  0
  8  9  1  1  0  0  0
  8 29  1  0  0  0  0
  8 49  1  0  0  0  0
  9 10  2  0  0  0  0
  9 11  1  0  0  0  0
 11 12  1  0  0  0  0
 11 28  1  0  0  0  0
 12 13  2  0  0  0  0
 12 21  1  0  0  0  0
 13 14  1  0  0  0  0
 13 27  1  0  0  0  0
 14 15  2  0  0  0  0
 15 16  1  0  0  0  0
 15 26  1  0  0  0  0
 16 17  2  0  0  0  0
 16 21  1  0  0  0  0
 17 18  1  0  0  0  0
 17 25  1  0  0  0  0
 18 19  2  0  0  0  0
 18 24  1  0  0  0  0
 19 20  1  0  0  0  0
 19 23  1  0  0  0  0
 20 21  2  0  0  0  0
 20 22  1  0  0  0  0
 28 29  1  0  0  0  0
 28 47  1  0  0  0  0
 28 48  1  0  0  0  0
 29 30  1  0  0  0  0
 29 46  1  1  0  0  0
 30 31  1  0  0  0  0
 30 44  1  0  0  0  0
 30 45  1  0  0  0  0
 31 32  1  0  0  0  0
 31 43  1  0  0  0  0
 32 33  1  0  0  0  0
 32 40  2  0  0  0  0
 33 34  2  0  0  0  0
 33 42  1  0  0  0  0
 34 35  1  0  0  0  0
 35 36  1  0  0  0  0
 35 40  1  0  0  0  0
 36 37  1  0  0  0  0
 36 38  1  0  0  0  0
 36 39  1  0  0  0  0
 40 41  1  0  0  0  0
 49 50  2  0  0  0  0
 49 55  1  0  0  0  0
 50 51  1  0  0  0  0
 50 60  1  0  0  0  0
 51 52  1  0  0  0  0
 51 53  2  0  0  0  0
 53 54  1  0  0  0  0
 53 59  1  0  0  0  0
 54 55  2  0  0  0  0
 54 58  1  0  0  0  0
 55 56  1  0  0  0  0
 56 57  2  0  0  0  0
M  END
>  <MODEL>
       1

$$$$
