tmp_first_model_2_76.pdb
 OpenBabel08272517383D

 66 71  0  0  1  0  0  0  0  0999 V2000
   -8.1960   -3.4700  -24.1010 C   0  0  0  0  0  0  0  0  0  0  0  0
   -8.4650   -2.7340  -22.7820 C   0  0  1  0  0  0  0  0  0  0  0  0
   -7.1830   -2.5240  -21.9480 C   0  0  0  0  0  0  0  0  0  0  0  0
   -7.4550   -1.3160  -21.1900 N   0  0  0  0  0  0  0  0  0  0  0  0
   -6.6160   -0.7950  -20.1670 C   0  0  0  0  0  0  0  0  0  0  0  0
   -6.9150   -1.0380  -18.8500 C   0  0  0  0  0  0  0  0  0  0  0  0
   -6.2050   -0.5540  -17.8020 N   0  0  0  0  0  0  0  0  0  0  0  0
   -5.1720    0.2090  -18.0760 C   0  0  0  0  0  0  0  0  0  0  0  0
   -4.7420    0.5390  -19.3940 C   0  0  0  0  0  0  0  0  0  0  0  0
   -3.6230    1.3830  -19.6390 C   0  0  0  0  0  0  0  0  0  0  0  0
   -3.2410    1.6770  -20.9220 C   0  0  0  0  0  0  0  0  0  0  0  0
   -3.9490    1.1370  -22.0150 C   0  0  0  0  0  0  0  0  0  0  0  0
   -5.0330    0.3140  -21.8040 C   0  0  0  0  0  0  0  0  0  0  0  0
   -5.4730    0.0070  -20.4830 C   0  0  0  0  0  0  0  0  0  0  0  0
   -5.5630   -0.0970  -22.6560 H   0  0  0  0  0  0  0  0  0  0  0  0
   -3.6430    1.3840  -23.0280 H   0  0  0  0  0  0  0  0  0  0  0  0
   -2.3960    2.3410  -21.1020 H   0  0  0  0  0  0  0  0  0  0  0  0
   -3.0940    1.7940  -18.7850 H   0  0  0  0  0  0  0  0  0  0  0  0
   -4.6190    0.6130  -17.2270 H   0  0  0  0  0  0  0  0  0  0  0  0
   -7.7710   -1.6600  -18.5960 H   0  0  0  0  0  0  0  0  0  0  0  0
   -8.5320   -0.5950  -21.6470 C   0  0  0  0  0  0  0  0  0  0  0  0
   -8.9190    0.4500  -21.1570 O   0  0  0  0  0  0  0  0  0  0  0  0
   -9.1320   -1.3230  -22.8750 C   0  0  1  0  0  0  0  0  0  0  0  0
   -8.7110   -0.5870  -24.1690 C   0  0  0  0  0  0  0  0  0  0  0  0
   -9.3140    0.7280  -24.2630 N   0  0  0  0  0  0  0  0  0  0  0  0
   -8.5160    1.7880  -24.8530 C   0  0  0  0  0  0  0  0  0  0  0  0
   -7.5540    2.4200  -23.8560 C   0  0  0  0  0  0  0  0  0  0  0  0
   -8.2760    3.2280  -22.8180 N   0  3  0  0  0  0  0  0  0  0  0  0
   -7.4850    3.3280  -21.5570 C   0  0  0  0  0  0  0  0  0  0  0  0
   -6.3300    4.3100  -21.6210 C   0  0  0  0  0  0  0  0  0  0  0  0
   -6.8000    5.6000  -21.9470 O   0  0  0  0  0  0  0  0  0  0  0  0
   -7.4360    5.5910  -23.2070 C   0  0  0  0  0  0  0  0  0  0  0  0
   -8.6400    4.6450  -23.2440 C   0  0  0  0  0  0  0  0  0  0  0  0
   -9.4020    5.0050  -22.5470 H   0  0  0  0  0  0  0  0  0  0  0  0
   -9.0630    4.6140  -24.2500 H   0  0  0  0  0  0  0  0  0  0  0  0
   -6.7110    5.3060  -23.9840 H   0  0  0  0  0  0  0  0  0  0  0  0
   -7.7610    6.6180  -23.3910 H   0  0  0  0  0  0  0  0  0  0  0  0
   -5.8650    4.3880  -20.6340 H   0  0  0  0  0  0  0  0  0  0  0  0
   -5.5700    3.9700  -22.3440 H   0  0  0  0  0  0  0  0  0  0  0  0
   -7.1360    2.3210  -21.3090 H   0  0  0  0  0  0  0  0  0  0  0  0
   -8.1650    3.6750  -20.7760 H   0  0  0  0  0  0  0  0  0  0  0  0
   -9.1390    2.7080  -22.5630 H   0  0  0  0  0  0  0  0  0  0  0  0
   -6.9890    1.6460  -23.3240 H   0  0  0  0  0  0  0  0  0  0  0  0
   -6.8350    3.0570  -24.3750 H   0  0  0  0  0  0  0  0  0  0  0  0
   -7.9350    1.3810  -25.6880 H   0  0  0  0  0  0  0  0  0  0  0  0
   -9.2140    2.5330  -25.2350 H   0  0  0  0  0  0  0  0  0  0  0  0
  -10.6630    0.8880  -24.0990 C   0  0  0  0  0  0  0  0  0  0  0  0
  -11.2670    1.8890  -24.4630 O   0  0  0  0  0  0  0  0  0  0  0  0
  -11.3660   -0.2390  -23.3940 C   0  0  0  0  0  0  0  0  0  0  0  0
  -12.7550   -0.1750  -23.2950 C   0  0  0  0  0  0  0  0  0  0  0  0
  -13.4470   -1.1240  -22.5670 C   0  0  0  0  0  0  0  0  0  0  0  0
  -12.7320   -2.1310  -21.9200 C   0  0  0  0  0  0  0  0  0  0  0  0
  -13.5820   -3.2550  -20.8970 Cl  0  0  0  0  0  0  0  0  0  0  0  0
  -11.3530   -2.2120  -22.0150 C   0  0  0  0  0  0  0  0  0  0  0  0
  -10.6490   -1.2890  -22.7970 C   0  0  0  0  0  0  0  0  0  0  0  0
  -10.8410   -2.9640  -21.4260 H   0  0  0  0  0  0  0  0  0  0  0  0
  -14.5230   -1.0710  -22.4550 H   0  0  0  0  0  0  0  0  0  0  0  0
  -13.2590    0.6530  -23.7830 H   0  0  0  0  0  0  0  0  0  0  0  0
   -7.6240   -0.4610  -24.1820 H   0  0  0  0  0  0  0  0  0  0  0  0
   -9.0060   -1.2050  -25.0320 H   0  0  0  0  0  0  0  0  0  0  0  0
   -6.9770   -3.3640  -21.2750 H   0  0  0  0  0  0  0  0  0  0  0  0
   -6.3030   -2.4010  -22.6000 H   0  0  0  0  0  0  0  0  0  0  0  0
   -9.1430   -3.3490  -22.1840 H   0  0  0  0  0  0  0  0  0  0  0  0
   -9.1020   -3.5770  -24.7090 H   0  0  0  0  0  0  0  0  0  0  0  0
   -7.4490   -2.9410  -24.7060 H   0  0  0  0  0  0  0  0  0  0  0  0
   -7.8030   -4.4770  -23.9140 H   0  0  0  0  0  0  0  0  0  0  0  0
  1  2  1  0  0  0  0
  1 64  1  0  0  0  0
  1 65  1  0  0  0  0
  1 66  1  0  0  0  0
  2  3  1  0  0  0  0
  2 23  1  0  0  0  0
  2 63  1  1  0  0  0
  3  4  1  0  0  0  0
  3 61  1  0  0  0  0
  3 62  1  0  0  0  0
  4  5  1  0  0  0  0
  4 21  1  0  0  0  0
  5  6  2  0  0  0  0
  5 14  1  0  0  0  0
  6  7  1  0  0  0  0
  6 20  1  0  0  0  0
  7  8  2  0  0  0  0
  8  9  1  0  0  0  0
  8 19  1  0  0  0  0
  9 10  2  0  0  0  0
  9 14  1  0  0  0  0
 10 11  1  0  0  0  0
 10 18  1  0  0  0  0
 11 12  2  0  0  0  0
 11 17  1  0  0  0  0
 12 13  1  0  0  0  0
 12 16  1  0  0  0  0
 13 14  2  0  0  0  0
 13 15  1  0  0  0  0
 21 22  2  0  0  0  0
 23 21  1  1  0  0  0
 23 24  1  0  0  0  0
 23 55  1  0  0  0  0
 24 25  1  0  0  0  0
 24 59  1  0  0  0  0
 24 60  1  0  0  0  0
 25 26  1  0  0  0  0
 25 47  1  0  0  0  0
 26 27  1  0  0  0  0
 26 45  1  0  0  0  0
 26 46  1  0  0  0  0
 27 28  1  0  0  0  0
 27 43  1  0  0  0  0
 27 44  1  0  0  0  0
 28 29  1  0  0  0  0
 28 33  1  0  0  0  0
 28 42  1  0  0  0  0
 29 30  1  0  0  0  0
 29 40  1  0  0  0  0
 29 41  1  0  0  0  0
 30 31  1  0  0  0  0
 30 38  1  0  0  0  0
 30 39  1  0  0  0  0
 31 32  1  0  0  0  0
 32 33  1  0  0  0  0
 32 36  1  0  0  0  0
 32 37  1  0  0  0  0
 33 34  1  0  0  0  0
 33 35  1  0  0  0  0
 47 48  2  0  0  0  0
 47 49  1  0  0  0  0
 49 50  2  0  0  0  0
 49 55  1  0  0  0  0
 50 51  1  0  0  0  0
 50 58  1  0  0  0  0
 51 52  2  0  0  0  0
 51 57  1  0  0  0  0
 52 53  1  0  0  0  0
 52 54  1  0  0  0  0
 54 55  2  0  0  0  0
 54 56  1  0  0  0  0
M  CHG  1  28   1
M  END
>  <MODEL>
       1

$$$$
