tmp_first_model_13_59.pdb
 OpenBabel08282500103D

 60 65  0  0  1  0  0  0  0  0999 V2000
   -7.0860    3.4610  -22.7550 C   0  0  0  0  0  0  0  0  0  0  0  0
   -7.7970    2.7610  -23.8070 N   0  0  0  0  0  0  0  0  0  0  0  0
   -7.1410    1.8560  -24.5770 C   0  0  0  0  0  0  0  0  0  0  0  0
   -5.9260    1.7300  -24.5570 O   0  0  0  0  0  0  0  0  0  0  0  0
   -8.0150    1.0260  -25.5190 C   0  0  0  0  0  0  0  0  0  0  0  0
   -8.9290    0.1510  -24.8240 N   0  0  0  0  0  0  0  0  0  0  0  0
   -8.4500   -1.1330  -24.3550 C   0  0  0  0  0  0  0  0  0  0  0  0
   -8.9900   -1.4900  -22.9550 C   0  0  2  0  0  0  0  0  0  0  0  0
   -8.3070   -0.6100  -21.8920 C   0  0  0  0  0  0  0  0  0  0  0  0
   -8.5010    0.5680  -21.6780 O   0  0  0  0  0  0  0  0  0  0  0  0
   -7.4070   -1.3780  -21.1990 N   0  0  0  0  0  0  0  0  0  0  0  0
   -6.5960   -0.8220  -20.1830 C   0  0  0  0  0  0  0  0  0  0  0  0
   -6.8960   -1.0700  -18.8670 C   0  0  0  0  0  0  0  0  0  0  0  0
   -6.2040   -0.5590  -17.8230 N   0  0  0  0  0  0  0  0  0  0  0  0
   -5.1780    0.2110  -18.0890 C   0  0  0  0  0  0  0  0  0  0  0  0
   -4.7460    0.5260  -19.4090 C   0  0  0  0  0  0  0  0  0  0  0  0
   -3.6130    1.3500  -19.6440 C   0  0  0  0  0  0  0  0  0  0  0  0
   -3.2050    1.6250  -20.9230 C   0  0  0  0  0  0  0  0  0  0  0  0
   -3.9170    1.0940  -22.0230 C   0  0  0  0  0  0  0  0  0  0  0  0
   -5.0180    0.2970  -21.8200 C   0  0  0  0  0  0  0  0  0  0  0  0
   -5.4680   -0.0040  -20.5010 C   0  0  0  0  0  0  0  0  0  0  0  0
   -5.5390   -0.1130  -22.6800 H   0  0  0  0  0  0  0  0  0  0  0  0
   -3.6120    1.3230  -23.0410 H   0  0  0  0  0  0  0  0  0  0  0  0
   -2.3380    2.2570  -21.0970 H   0  0  0  0  0  0  0  0  0  0  0  0
   -3.0840    1.7530  -18.7870 H   0  0  0  0  0  0  0  0  0  0  0  0
   -4.6170    0.6130  -17.2450 H   0  0  0  0  0  0  0  0  0  0  0  0
   -7.7540   -1.6940  -18.6120 H   0  0  0  0  0  0  0  0  0  0  0  0
   -7.3140   -2.7430  -21.6540 C   0  0  0  0  0  0  0  0  0  0  0  0
   -8.5540   -2.9270  -22.5380 C   0  0  2  0  0  0  0  0  0  0  0  0
   -8.3040   -3.9540  -23.6650 C   0  0  0  0  0  0  0  0  0  0  0  0
   -8.0100   -5.3060  -23.1140 C   0  0  0  0  0  0  0  0  0  0  0  0
   -6.7940   -5.7780  -22.8620 N   0  0  0  0  0  0  0  0  0  0  0  0
   -7.0020   -6.9780  -22.3290 N   0  0  0  0  0  0  0  0  0  0  0  0
   -8.2880   -7.2110  -22.2700 N   0  5  0  0  0  0  0  0  0  0  0  0
   -8.9490   -6.1700  -22.7620 N   0  0  0  0  0  0  0  0  0  0  0  0
   -7.4510   -3.6550  -24.2780 H   0  0  0  0  0  0  0  0  0  0  0  0
   -9.1800   -4.0440  -24.3120 H   0  0  0  0  0  0  0  0  0  0  0  0
   -9.3590   -3.3400  -21.9290 H   0  0  0  0  0  0  0  0  0  0  0  0
   -6.3990   -2.9110  -22.2380 H   0  0  0  0  0  0  0  0  0  0  0  0
   -7.2940   -3.4360  -20.8130 H   0  0  0  0  0  0  0  0  0  0  0  0
  -10.4880   -1.2420  -22.9520 C   0  0  0  0  0  0  0  0  0  0  0  0
  -11.3150   -1.8420  -21.9970 C   0  0  0  0  0  0  0  0  0  0  0  0
  -12.6830   -1.6330  -22.0350 C   0  0  0  0  0  0  0  0  0  0  0  0
  -13.6960   -2.5230  -20.9300 Cl  0  0  0  0  0  0  0  0  0  0  0  0
  -13.2680   -0.7410  -22.9360 C   0  0  0  0  0  0  0  0  0  0  0  0
  -12.4520   -0.0870  -23.8390 C   0  0  0  0  0  0  0  0  0  0  0  0
  -11.0770   -0.3240  -23.8310 C   0  0  0  0  0  0  0  0  0  0  0  0
  -10.2430    0.5110  -24.7400 C   0  0  0  0  0  0  0  0  0  0  0  0
  -10.7020    1.4810  -25.3290 O   0  0  0  0  0  0  0  0  0  0  0  0
  -12.8440    0.6280  -24.5590 H   0  0  0  0  0  0  0  0  0  0  0  0
  -14.3340   -0.5410  -22.8780 H   0  0  0  0  0  0  0  0  0  0  0  0
  -10.8980   -2.4330  -21.1890 H   0  0  0  0  0  0  0  0  0  0  0  0
   -7.3570   -1.1010  -24.3320 H   0  0  0  0  0  0  0  0  0  0  0  0
   -8.7640   -1.9170  -25.0500 H   0  0  0  0  0  0  0  0  0  0  0  0
   -8.6370    1.6870  -26.1280 H   0  0  0  0  0  0  0  0  0  0  0  0
   -7.3340    0.4490  -26.1480 H   0  0  0  0  0  0  0  0  0  0  0  0
   -8.7990    2.7090  -23.7290 H   0  0  0  0  0  0  0  0  0  0  0  0
   -7.7790    4.0840  -22.1860 H   0  0  0  0  0  0  0  0  0  0  0  0
   -6.3130    4.1030  -23.1780 H   0  0  0  0  0  0  0  0  0  0  0  0
   -6.5960    2.7570  -22.0750 H   0  0  0  0  0  0  0  0  0  0  0  0
  1  2  1  0  0  0  0
  1 58  1  0  0  0  0
  1 59  1  0  0  0  0
  1 60  1  0  0  0  0
  2  3  1  0  0  0  0
  2 57  1  0  0  0  0
  3  4  2  0  0  0  0
  3  5  1  0  0  0  0
  5  6  1  0  0  0  0
  5 55  1  0  0  0  0
  5 56  1  0  0  0  0
  6  7  1  0  0  0  0
  6 48  1  0  0  0  0
  7  8  1  0  0  0  0
  7 53  1  0  0  0  0
  7 54  1  0  0  0  0
  8  9  1  1  0  0  0
  8 29  1  0  0  0  0
  8 41  1  0  0  0  0
  9 10  2  0  0  0  0
  9 11  1  0  0  0  0
 11 12  1  0  0  0  0
 11 28  1  0  0  0  0
 12 13  2  0  0  0  0
 12 21  1  0  0  0  0
 13 14  1  0  0  0  0
 13 27  1  0  0  0  0
 14 15  2  0  0  0  0
 15 16  1  0  0  0  0
 15 26  1  0  0  0  0
 16 17  2  0  0  0  0
 16 21  1  0  0  0  0
 17 18  1  0  0  0  0
 17 25  1  0  0  0  0
 18 19  2  0  0  0  0
 18 24  1  0  0  0  0
 19 20  1  0  0  0  0
 19 23  1  0  0  0  0
 20 21  2  0  0  0  0
 20 22  1  0  0  0  0
 28 29  1  0  0  0  0
 28 39  1  0  0  0  0
 28 40  1  0  0  0  0
 29 30  1  0  0  0  0
 29 38  1  1  0  0  0
 30 31  1  0  0  0  0
 30 36  1  0  0  0  0
 30 37  1  0  0  0  0
 31 32  1  0  0  0  0
 31 35  2  0  0  0  0
 32 33  2  0  0  0  0
 33 34  1  0  0  0  0
 34 35  1  0  0  0  0
 41 42  2  0  0  0  0
 41 47  1  0  0  0  0
 42 43  1  0  0  0  0
 42 52  1  0  0  0  0
 43 44  1  0  0  0  0
 43 45  2  0  0  0  0
 45 46  1  0  0  0  0
 45 51  1  0  0  0  0
 46 47  2  0  0  0  0
 46 50  1  0  0  0  0
 47 48  1  0  0  0  0
 48 49  2  0  0  0  0
M  CHG  1  34  -1
M  END
>  <MODEL>
       1

$$$$
