tmp_first_model_8_67.pdb
 OpenBabel08272521063D

 58 63  0  0  1  0  0  0  0  0999 V2000
   -8.2790   -7.2190  -27.4850 C   0  0  0  0  0  0  0  0  0  0  0  0
   -7.7470   -5.8500  -27.1850 C   0  0  0  0  0  0  0  0  0  0  0  0
   -8.4660   -4.6280  -27.3260 C   0  0  0  0  0  0  0  0  0  0  0  0
   -7.5850   -3.6820  -26.9250 C   0  0  0  0  0  0  0  0  0  0  0  0
   -7.7340   -2.1970  -26.7920 C   0  0  0  0  0  0  0  0  0  0  0  0
   -8.5880   -1.7960  -25.6800 N   0  0  0  0  0  0  0  0  0  0  0  0
   -7.9640   -1.2520  -24.4820 C   0  0  0  0  0  0  0  0  0  0  0  0
   -8.7440   -1.5430  -23.1790 C   0  0  2  0  0  0  0  0  0  0  0  0
   -8.1410   -0.6160  -22.0970 C   0  0  0  0  0  0  0  0  0  0  0  0
   -8.2360    0.5940  -22.0330 O   0  0  0  0  0  0  0  0  0  0  0  0
   -7.4180   -1.3770  -21.2050 N   0  0  0  0  0  0  0  0  0  0  0  0
   -6.6160   -0.8020  -20.1860 C   0  0  0  0  0  0  0  0  0  0  0  0
   -6.9000   -1.0610  -18.8680 C   0  0  0  0  0  0  0  0  0  0  0  0
   -6.2010   -0.5680  -17.8180 N   0  0  0  0  0  0  0  0  0  0  0  0
   -5.1730    0.2030  -18.0830 C   0  0  0  0  0  0  0  0  0  0  0  0
   -4.7430    0.5290  -19.4000 C   0  0  0  0  0  0  0  0  0  0  0  0
   -3.6090    1.3580  -19.6270 C   0  0  0  0  0  0  0  0  0  0  0  0
   -3.2120    1.6480  -20.9030 C   0  0  0  0  0  0  0  0  0  0  0  0
   -3.9330    1.1250  -21.9990 C   0  0  0  0  0  0  0  0  0  0  0  0
   -5.0120    0.3020  -21.8050 C   0  0  0  0  0  0  0  0  0  0  0  0
   -5.4720    0.0080  -20.4910 C   0  0  0  0  0  0  0  0  0  0  0  0
   -5.5150   -0.1340  -22.6610 H   0  0  0  0  0  0  0  0  0  0  0  0
   -3.5960    1.3370  -23.0100 H   0  0  0  0  0  0  0  0  0  0  0  0
   -2.3360    2.2650  -21.0860 H   0  0  0  0  0  0  0  0  0  0  0  0
   -3.0770    1.7570  -18.7670 H   0  0  0  0  0  0  0  0  0  0  0  0
   -4.6280    0.6120  -17.2320 H   0  0  0  0  0  0  0  0  0  0  0  0
   -7.7490   -1.6910  -18.6100 H   0  0  0  0  0  0  0  0  0  0  0  0
   -7.3940   -2.7920  -21.5230 C   0  0  0  0  0  0  0  0  0  0  0  0
   -8.5230   -2.9660  -22.5500 C   0  0  2  0  0  0  0  0  0  0  0  0
   -8.2590   -4.1080  -23.5250 C   0  0  0  0  0  0  0  0  0  0  0  0
   -7.2980   -3.9650  -24.0280 H   0  0  0  0  0  0  0  0  0  0  0  0
   -9.0380   -4.1680  -24.2930 H   0  0  0  0  0  0  0  0  0  0  0  0
   -8.2200   -5.0680  -23.0000 H   0  0  0  0  0  0  0  0  0  0  0  0
   -9.4500   -3.1720  -21.9960 H   0  0  0  0  0  0  0  0  0  0  0  0
   -7.5530   -3.3810  -20.6170 H   0  0  0  0  0  0  0  0  0  0  0  0
   -6.4190   -3.0900  -21.9400 H   0  0  0  0  0  0  0  0  0  0  0  0
  -10.2130   -1.2650  -23.4380 C   0  0  0  0  0  0  0  0  0  0  0  0
  -11.0480   -0.9680  -22.3550 C   0  0  0  0  0  0  0  0  0  0  0  0
  -12.3970   -0.7730  -22.5870 C   0  0  0  0  0  0  0  0  0  0  0  0
  -13.2440   -0.4520  -21.5980 F   0  0  0  0  0  0  0  0  0  0  0  0
  -12.9570   -0.9080  -23.8480 C   0  0  0  0  0  0  0  0  0  0  0  0
  -12.1440   -1.2410  -24.9120 C   0  0  0  0  0  0  0  0  0  0  0  0
  -10.7730   -1.4080  -24.7130 C   0  0  0  0  0  0  0  0  0  0  0  0
   -9.9400   -1.7920  -25.8920 C   0  0  0  0  0  0  0  0  0  0  0  0
  -10.4410   -2.0960  -26.9680 O   0  0  0  0  0  0  0  0  0  0  0  0
  -12.5370   -1.3850  -25.9130 H   0  0  0  0  0  0  0  0  0  0  0  0
  -14.0240   -0.7480  -23.9360 H   0  0  0  0  0  0  0  0  0  0  0  0
  -10.6190   -0.8900  -21.3630 H   0  0  0  0  0  0  0  0  0  0  0  0
   -6.9660   -1.7020  -24.4190 H   0  0  0  0  0  0  0  0  0  0  0  0
   -7.8690   -0.1570  -24.5510 H   0  0  0  0  0  0  0  0  0  0  0  0
   -8.2090   -1.8200  -27.7020 H   0  0  0  0  0  0  0  0  0  0  0  0
   -6.7560   -1.7280  -26.6670 H   0  0  0  0  0  0  0  0  0  0  0  0
   -6.4260   -4.2620  -26.5850 O   0  0  0  0  0  0  0  0  0  0  0  0
   -6.5270   -5.6380  -26.7520 N   0  0  0  0  0  0  0  0  0  0  0  0
   -9.4840   -4.4740  -27.6500 H   0  0  0  0  0  0  0  0  0  0  0  0
   -9.3470   -7.2550  -27.2470 H   0  0  0  0  0  0  0  0  0  0  0  0
   -7.7620   -7.9950  -26.9140 H   0  0  0  0  0  0  0  0  0  0  0  0
   -8.1780   -7.4350  -28.5540 H   0  0  0  0  0  0  0  0  0  0  0  0
  1  2  1  0  0  0  0
  1 56  1  0  0  0  0
  1 57  1  0  0  0  0
  1 58  1  0  0  0  0
  2  3  1  0  0  0  0
  2 54  2  0  0  0  0
  3  4  2  0  0  0  0
  3 55  1  0  0  0  0
  4  5  1  0  0  0  0
  4 53  1  0  0  0  0
  5  6  1  0  0  0  0
  5 51  1  0  0  0  0
  5 52  1  0  0  0  0
  6  7  1  0  0  0  0
  6 44  1  0  0  0  0
  7  8  1  0  0  0  0
  7 49  1  0  0  0  0
  7 50  1  0  0  0  0
  8  9  1  1  0  0  0
  8 29  1  0  0  0  0
  8 37  1  0  0  0  0
  9 10  2  0  0  0  0
  9 11  1  0  0  0  0
 11 12  1  0  0  0  0
 11 28  1  0  0  0  0
 12 13  2  0  0  0  0
 12 21  1  0  0  0  0
 13 14  1  0  0  0  0
 13 27  1  0  0  0  0
 14 15  2  0  0  0  0
 15 16  1  0  0  0  0
 15 26  1  0  0  0  0
 16 17  2  0  0  0  0
 16 21  1  0  0  0  0
 17 18  1  0  0  0  0
 17 25  1  0  0  0  0
 18 19  2  0  0  0  0
 18 24  1  0  0  0  0
 19 20  1  0  0  0  0
 19 23  1  0  0  0  0
 20 21  2  0  0  0  0
 20 22  1  0  0  0  0
 28 29  1  0  0  0  0
 28 35  1  0  0  0  0
 28 36  1  0  0  0  0
 29 30  1  0  0  0  0
 29 34  1  1  0  0  0
 30 31  1  0  0  0  0
 30 32  1  0  0  0  0
 30 33  1  0  0  0  0
 37 38  2  0  0  0  0
 37 43  1  0  0  0  0
 38 39  1  0  0  0  0
 38 48  1  0  0  0  0
 39 40  1  0  0  0  0
 39 41  2  0  0  0  0
 41 42  1  0  0  0  0
 41 47  1  0  0  0  0
 42 43  2  0  0  0  0
 42 46  1  0  0  0  0
 43 44  1  0  0  0  0
 44 45  2  0  0  0  0
 53 54  1  0  0  0  0
M  END
>  <MODEL>
       1

$$$$
