tmp_first_model_13_13.pdb
 OpenBabel08282500103D

 69 74  0  0  1  0  0  0  0  0999 V2000
   -7.3700    3.2730  -21.7920 C   0  0  0  0  0  0  0  0  0  0  0  0
   -8.2910    2.8450  -22.8360 N   0  0  0  0  0  0  0  0  0  0  0  0
   -7.7490    2.1730  -23.8900 C   0  0  0  0  0  0  0  0  0  0  0  0
   -6.5400    2.0460  -24.0400 O   0  0  0  0  0  0  0  0  0  0  0  0
   -8.7310    1.5720  -24.8940 C   0  0  0  0  0  0  0  0  0  0  0  0
   -9.4070    0.4200  -24.3350 N   0  0  0  0  0  0  0  0  0  0  0  0
   -8.6670   -0.8220  -24.1780 C   0  0  0  0  0  0  0  0  0  0  0  0
   -9.0580   -1.5510  -22.8680 C   0  0  2  0  0  0  0  0  0  0  0  0
   -8.5430   -0.7600  -21.6430 C   0  0  0  0  0  0  0  0  0  0  0  0
   -9.0340    0.2330  -21.1430 O   0  0  0  0  0  0  0  0  0  0  0  0
   -7.3980   -1.3720  -21.1940 N   0  0  0  0  0  0  0  0  0  0  0  0
   -6.6030   -0.8020  -20.1760 C   0  0  0  0  0  0  0  0  0  0  0  0
   -6.9190   -1.0320  -18.8630 C   0  0  0  0  0  0  0  0  0  0  0  0
   -6.2160   -0.5420  -17.8170 N   0  0  0  0  0  0  0  0  0  0  0  0
   -5.1740    0.2060  -18.0840 C   0  0  0  0  0  0  0  0  0  0  0  0
   -4.7380    0.5270  -19.4010 C   0  0  0  0  0  0  0  0  0  0  0  0
   -3.6120    1.3580  -19.6420 C   0  0  0  0  0  0  0  0  0  0  0  0
   -3.2300    1.6560  -20.9220 C   0  0  0  0  0  0  0  0  0  0  0  0
   -3.9510    1.1390  -22.0200 C   0  0  0  0  0  0  0  0  0  0  0  0
   -5.0440    0.3300  -21.8130 C   0  0  0  0  0  0  0  0  0  0  0  0
   -5.4660    0.0020  -20.4940 C   0  0  0  0  0  0  0  0  0  0  0  0
   -5.6070   -0.0270  -22.6700 H   0  0  0  0  0  0  0  0  0  0  0  0
   -3.6560    1.3890  -23.0340 H   0  0  0  0  0  0  0  0  0  0  0  0
   -2.3730    2.2980  -21.0980 H   0  0  0  0  0  0  0  0  0  0  0  0
   -3.0770    1.7560  -18.7860 H   0  0  0  0  0  0  0  0  0  0  0  0
   -4.6130    0.6010  -17.2360 H   0  0  0  0  0  0  0  0  0  0  0  0
   -7.7840   -1.6460  -18.6250 H   0  0  0  0  0  0  0  0  0  0  0  0
   -7.0210   -2.5580  -21.9240 C   0  0  0  0  0  0  0  0  0  0  0  0
   -8.3000   -2.9060  -22.7090 C   0  0  2  0  0  0  0  0  0  0  0  0
   -8.0170   -3.6990  -24.0040 C   0  0  0  0  0  0  0  0  0  0  0  0
   -7.4940   -5.0370  -23.7910 N   0  0  0  0  0  0  0  0  0  0  0  0
   -6.1910   -5.3120  -23.5010 C   0  0  0  0  0  0  0  0  0  0  0  0
   -5.0930   -4.5410  -23.9360 C   0  0  0  0  0  0  0  0  0  0  0  0
   -3.8440   -4.9810  -23.5350 C   0  0  0  0  0  0  0  0  0  0  0  0
   -3.6470   -6.0400  -22.7450 N   0  0  0  0  0  0  0  0  0  0  0  0
   -4.7550   -6.7120  -22.4150 C   0  0  0  0  0  0  0  0  0  0  0  0
   -4.5890   -7.9040  -21.5180 C   0  0  0  0  0  0  0  0  0  0  0  0
   -3.5790   -8.3160  -21.6430 H   0  0  0  0  0  0  0  0  0  0  0  0
   -5.3790   -8.6380  -21.7210 H   0  0  0  0  0  0  0  0  0  0  0  0
   -4.7060   -7.5960  -20.4740 H   0  0  0  0  0  0  0  0  0  0  0  0
   -6.0020   -6.4200  -22.7740 N   0  0  0  0  0  0  0  0  0  0  0  0
   -2.9420   -4.4580  -23.8620 H   0  0  0  0  0  0  0  0  0  0  0  0
   -5.2100   -3.6490  -24.5470 H   0  0  0  0  0  0  0  0  0  0  0  0
   -8.1160   -5.7380  -23.4100 H   0  0  0  0  0  0  0  0  0  0  0  0
   -7.2840   -3.1610  -24.6130 H   0  0  0  0  0  0  0  0  0  0  0  0
   -8.9270   -3.7940  -24.6080 H   0  0  0  0  0  0  0  0  0  0  0  0
   -8.9110   -3.5440  -22.0620 H   0  0  0  0  0  0  0  0  0  0  0  0
   -6.1650   -2.3630  -22.5920 H   0  0  0  0  0  0  0  0  0  0  0  0
   -6.7220   -3.3450  -21.2250 H   0  0  0  0  0  0  0  0  0  0  0  0
  -10.5690   -1.6280  -22.8170 C   0  0  0  0  0  0  0  0  0  0  0  0
  -11.2000   -2.5430  -21.9720 C   0  0  0  0  0  0  0  0  0  0  0  0
  -12.5780   -2.5630  -21.8830 C   0  0  0  0  0  0  0  0  0  0  0  0
  -13.3250   -3.6920  -20.7970 Cl  0  0  0  0  0  0  0  0  0  0  0  0
  -13.3810   -1.6940  -22.6190 C   0  0  0  0  0  0  0  0  0  0  0  0
  -12.7610   -0.7580  -23.4180 C   0  0  0  0  0  0  0  0  0  0  0  0
  -11.3720   -0.7000  -23.4900 C   0  0  0  0  0  0  0  0  0  0  0  0
  -10.7720    0.4370  -24.2510 C   0  0  0  0  0  0  0  0  0  0  0  0
  -11.4530    1.3350  -24.7280 O   0  0  0  0  0  0  0  0  0  0  0  0
  -13.3210   -0.0290  -23.9890 H   0  0  0  0  0  0  0  0  0  0  0  0
  -14.4610   -1.7410  -22.5390 H   0  0  0  0  0  0  0  0  0  0  0  0
  -10.6320   -3.2350  -21.3610 H   0  0  0  0  0  0  0  0  0  0  0  0
   -7.5950   -0.5890  -24.1900 H   0  0  0  0  0  0  0  0  0  0  0  0
   -8.8800   -1.4880  -25.0250 H   0  0  0  0  0  0  0  0  0  0  0  0
   -8.1550    1.2840  -25.7820 H   0  0  0  0  0  0  0  0  0  0  0  0
   -9.5100    2.2870  -25.1800 H   0  0  0  0  0  0  0  0  0  0  0  0
   -9.2540    2.6720  -22.5680 H   0  0  0  0  0  0  0  0  0  0  0  0
   -6.7220    4.0760  -22.1630 H   0  0  0  0  0  0  0  0  0  0  0  0
   -7.9520    3.6350  -20.9490 H   0  0  0  0  0  0  0  0  0  0  0  0
   -6.7460    2.4290  -21.4640 H   0  0  0  0  0  0  0  0  0  0  0  0
  1  2  1  0  0  0  0
  1 67  1  0  0  0  0
  1 68  1  0  0  0  0
  1 69  1  0  0  0  0
  2  3  1  0  0  0  0
  2 66  1  0  0  0  0
  3  4  2  0  0  0  0
  3  5  1  0  0  0  0
  5  6  1  0  0  0  0
  5 64  1  0  0  0  0
  5 65  1  0  0  0  0
  6  7  1  0  0  0  0
  6 57  1  0  0  0  0
  7  8  1  0  0  0  0
  7 62  1  0  0  0  0
  7 63  1  0  0  0  0
  8  9  1  1  0  0  0
  8 29  1  0  0  0  0
  8 50  1  0  0  0  0
  9 10  2  0  0  0  0
  9 11  1  0  0  0  0
 11 12  1  0  0  0  0
 11 28  1  0  0  0  0
 12 13  2  0  0  0  0
 12 21  1  0  0  0  0
 13 14  1  0  0  0  0
 13 27  1  0  0  0  0
 14 15  2  0  0  0  0
 15 16  1  0  0  0  0
 15 26  1  0  0  0  0
 16 17  2  0  0  0  0
 16 21  1  0  0  0  0
 17 18  1  0  0  0  0
 17 25  1  0  0  0  0
 18 19  2  0  0  0  0
 18 24  1  0  0  0  0
 19 20  1  0  0  0  0
 19 23  1  0  0  0  0
 20 21  2  0  0  0  0
 20 22  1  0  0  0  0
 28 29  1  0  0  0  0
 28 48  1  0  0  0  0
 28 49  1  0  0  0  0
 29 30  1  0  0  0  0
 29 47  1  1  0  0  0
 30 31  1  0  0  0  0
 30 45  1  0  0  0  0
 30 46  1  0  0  0  0
 31 32  1  0  0  0  0
 31 44  1  0  0  0  0
 32 33  2  0  0  0  0
 32 41  1  0  0  0  0
 33 34  1  0  0  0  0
 33 43  1  0  0  0  0
 34 35  2  0  0  0  0
 34 42  1  0  0  0  0
 35 36  1  0  0  0  0
 36 37  1  0  0  0  0
 36 41  2  0  0  0  0
 37 38  1  0  0  0  0
 37 39  1  0  0  0  0
 37 40  1  0  0  0  0
 50 51  2  0  0  0  0
 50 56  1  0  0  0  0
 51 52  1  0  0  0  0
 51 61  1  0  0  0  0
 52 53  1  0  0  0  0
 52 54  2  0  0  0  0
 54 55  1  0  0  0  0
 54 60  1  0  0  0  0
 55 56  2  0  0  0  0
 55 59  1  0  0  0  0
 56 57  1  0  0  0  0
 57 58  2  0  0  0  0
M  END
>  <MODEL>
       1

$$$$
