tmp_first_model_5_61.pdb
 OpenBabel08272519233D

 44 47  0  0  0  0  0  0  0  0999 V2000
   -8.7650    0.4640  -21.0360 O   0  0  0  0  0  0  0  0  0  0  0  0
   -8.2560   -0.3010  -21.8360 C   0  0  0  0  0  0  0  0  0  0  0  0
   -7.4670   -1.5160  -21.3290 C   0  0  0  0  0  0  0  0  0  0  0  0
   -6.5150   -1.0620  -20.2500 C   0  0  0  0  0  0  0  0  0  0  0  0
   -6.8060   -1.2190  -18.9200 C   0  0  0  0  0  0  0  0  0  0  0  0
   -5.9640   -0.9070  -17.8970 N   0  0  0  0  0  0  0  0  0  0  0  0
   -4.8020   -0.3960  -18.2180 C   0  0  0  0  0  0  0  0  0  0  0  0
   -4.4240   -0.0680  -19.5440 C   0  0  0  0  0  0  0  0  0  0  0  0
   -3.2530    0.6910  -19.8070 C   0  0  0  0  0  0  0  0  0  0  0  0
   -3.1420    1.3890  -20.9760 C   0  0  0  0  0  0  0  0  0  0  0  0
   -4.0650    1.1570  -22.0280 C   0  0  0  0  0  0  0  0  0  0  0  0
   -5.0840    0.2530  -21.8590 C   0  0  0  0  0  0  0  0  0  0  0  0
   -5.3440   -0.3170  -20.5810 C   0  0  0  0  0  0  0  0  0  0  0  0
   -5.6790   -0.0560  -22.7140 H   0  0  0  0  0  0  0  0  0  0  0  0
   -3.9110    1.6340  -22.9940 H   0  0  0  0  0  0  0  0  0  0  0  0
   -2.2770    2.0140  -21.1640 H   0  0  0  0  0  0  0  0  0  0  0  0
   -2.5380    0.8080  -19.0040 H   0  0  0  0  0  0  0  0  0  0  0  0
   -4.1220   -0.1410  -17.4030 H   0  0  0  0  0  0  0  0  0  0  0  0
   -7.7820   -1.5980  -18.6170 H   0  0  0  0  0  0  0  0  0  0  0  0
   -6.9280   -2.0130  -22.1440 H   0  0  0  0  0  0  0  0  0  0  0  0
   -8.1860   -2.2460  -20.9290 H   0  0  0  0  0  0  0  0  0  0  0  0
   -8.3450   -0.0970  -23.1960 N   0  0  0  0  0  0  0  0  0  0  0  0
   -8.0390   -1.1240  -24.1860 C   0  0  0  0  0  0  0  0  0  0  0  0
   -8.8880   -0.9230  -25.4350 C   0  0  0  0  0  0  0  0  0  0  0  0
   -8.7270    0.4770  -26.0190 C   0  0  0  0  0  0  0  0  0  0  0  0
   -9.4640    0.6370  -27.3680 C   0  0  0  0  0  0  0  0  0  0  0  0
   -8.1510    1.0020  -28.0820 C   0  0  0  0  0  0  0  0  0  0  0  0
   -7.3840    0.7470  -26.7650 C   0  0  0  0  0  0  0  0  0  0  0  0
   -6.8130    1.6060  -26.3990 H   0  0  0  0  0  0  0  0  0  0  0  0
   -6.7260   -0.1300  -26.8070 H   0  0  0  0  0  0  0  0  0  0  0  0
   -7.8830    0.3200  -28.8920 H   0  0  0  0  0  0  0  0  0  0  0  0
   -8.1160    2.0290  -28.4520 H   0  0  0  0  0  0  0  0  0  0  0  0
   -9.8240   -0.3290  -27.7130 H   0  0  0  0  0  0  0  0  0  0  0  0
  -10.2740    1.3730  -27.3930 H   0  0  0  0  0  0  0  0  0  0  0  0
   -9.1110    1.4810  -24.9300 C   0  0  0  0  0  0  0  0  0  0  0  0
   -8.2800    1.2870  -23.6670 C   0  0  0  0  0  0  0  0  0  0  0  0
   -7.2280    1.5730  -23.8500 H   0  0  0  0  0  0  0  0  0  0  0  0
   -8.6470    1.9180  -22.8540 H   0  0  0  0  0  0  0  0  0  0  0  0
   -9.0020    2.5140  -25.2830 H   0  0  0  0  0  0  0  0  0  0  0  0
  -10.1730    1.3380  -24.6820 H   0  0  0  0  0  0  0  0  0  0  0  0
   -8.6310   -1.6840  -26.1810 H   0  0  0  0  0  0  0  0  0  0  0  0
   -9.9490   -1.0650  -25.1830 H   0  0  0  0  0  0  0  0  0  0  0  0
   -6.9640   -1.1130  -24.4510 H   0  0  0  0  0  0  0  0  0  0  0  0
   -8.2700   -2.1090  -23.7720 H   0  0  0  0  0  0  0  0  0  0  0  0
  1  2  2  0  0  0  0
  2  3  1  0  0  0  0
  2 22  1  0  0  0  0
  3  4  1  0  0  0  0
  3 20  1  0  0  0  0
  3 21  1  0  0  0  0
  4  5  2  0  0  0  0
  4 13  1  0  0  0  0
  5  6  1  0  0  0  0
  5 19  1  0  0  0  0
  6  7  2  0  0  0  0
  7  8  1  0  0  0  0
  7 18  1  0  0  0  0
  8  9  2  0  0  0  0
  8 13  1  0  0  0  0
  9 10  1  0  0  0  0
  9 17  1  0  0  0  0
 10 11  2  0  0  0  0
 10 16  1  0  0  0  0
 11 12  1  0  0  0  0
 11 15  1  0  0  0  0
 12 13  2  0  0  0  0
 12 14  1  0  0  0  0
 22 23  1  0  0  0  0
 22 36  1  0  0  0  0
 23 24  1  0  0  0  0
 23 43  1  0  0  0  0
 23 44  1  0  0  0  0
 24 25  1  0  0  0  0
 24 41  1  0  0  0  0
 24 42  1  0  0  0  0
 25 26  1  0  0  0  0
 25 28  1  0  0  0  0
 25 35  1  0  0  0  0
 26 27  1  0  0  0  0
 26 33  1  0  0  0  0
 26 34  1  0  0  0  0
 27 28  1  0  0  0  0
 27 31  1  0  0  0  0
 27 32  1  0  0  0  0
 28 29  1  0  0  0  0
 28 30  1  0  0  0  0
 35 36  1  0  0  0  0
 35 39  1  0  0  0  0
 35 40  1  0  0  0  0
 36 37  1  0  0  0  0
 36 38  1  0  0  0  0
M  END
>  <MODEL>
       1

$$$$
