tmp_first_model_20_18.pdb
 OpenBabel08282503553D

 56 61  0  0  1  0  0  0  0  0999 V2000
  -10.4340   -0.9640  -23.3850 C   0  0  0  0  0  0  0  0  0  0  0  0
   -9.0130   -1.3470  -22.9810 C   0  0  1  0  0  0  0  0  0  0  0  0
   -8.4180   -0.4390  -21.8910 C   0  0  0  0  0  0  0  0  0  0  0  0
   -7.4370   -1.2910  -21.2440 N   0  0  0  0  0  0  0  0  0  0  0  0
   -6.6120   -0.8380  -20.1890 C   0  0  0  0  0  0  0  0  0  0  0  0
   -6.9220   -1.1110  -18.8800 C   0  0  0  0  0  0  0  0  0  0  0  0
   -6.2510   -0.5940  -17.8180 N   0  0  0  0  0  0  0  0  0  0  0  0
   -5.2210    0.1800  -18.0710 C   0  0  0  0  0  0  0  0  0  0  0  0
   -4.7650    0.5030  -19.3850 C   0  0  0  0  0  0  0  0  0  0  0  0
   -3.6290    1.3240  -19.6210 C   0  0  0  0  0  0  0  0  0  0  0  0
   -3.2300    1.6000  -20.9020 C   0  0  0  0  0  0  0  0  0  0  0  0
   -3.9370    1.0700  -22.0040 C   0  0  0  0  0  0  0  0  0  0  0  0
   -5.0380    0.2720  -21.8020 C   0  0  0  0  0  0  0  0  0  0  0  0
   -5.4780   -0.0190  -20.4820 C   0  0  0  0  0  0  0  0  0  0  0  0
   -5.5790   -0.1470  -22.6430 H   0  0  0  0  0  0  0  0  0  0  0  0
   -3.6130    1.3020  -23.0150 H   0  0  0  0  0  0  0  0  0  0  0  0
   -2.3630    2.2310  -21.0830 H   0  0  0  0  0  0  0  0  0  0  0  0
   -3.0860    1.7170  -18.7680 H   0  0  0  0  0  0  0  0  0  0  0  0
   -4.6920    0.6000  -17.2160 H   0  0  0  0  0  0  0  0  0  0  0  0
   -7.7580   -1.7650  -18.6380 H   0  0  0  0  0  0  0  0  0  0  0  0
   -7.6470   -2.6320  -21.4620 C   0  0  0  0  0  0  0  0  0  0  0  0
   -6.9500   -3.5090  -20.9960 O   0  0  0  0  0  0  0  0  0  0  0  0
   -8.8530   -2.7940  -22.4020 C   0  0  1  0  0  0  0  0  0  0  0  0
  -10.0710   -3.2120  -21.5500 C   0  0  0  0  0  0  0  0  0  0  0  0
  -11.2220   -3.6420  -22.3510 N   0  0  0  0  0  0  0  0  0  0  0  0
  -12.5960   -3.6100  -21.8080 C   0  0  0  0  0  0  0  0  0  0  0  0
  -13.5250   -2.5300  -22.3330 C   0  0  0  0  0  0  0  0  0  0  0  0
  -13.9480   -1.2780  -21.8200 C   0  0  0  0  0  0  0  0  0  0  0  0
  -14.8850   -0.8100  -22.7060 C   0  0  0  0  0  0  0  0  0  0  0  0
  -14.9680   -1.7440  -23.6810 N   0  0  0  0  0  0  0  0  0  0  0  0
  -14.1900   -2.7990  -23.4460 N   0  0  0  0  0  0  0  0  0  0  0  0
  -15.6670   -1.8230  -24.3980 H   0  0  0  0  0  0  0  0  0  0  0  0
  -15.5180    0.0680  -22.7090 H   0  0  0  0  0  0  0  0  0  0  0  0
  -13.6970   -0.8230  -20.8840 H   0  0  0  0  0  0  0  0  0  0  0  0
  -13.0630   -4.5310  -22.1660 H   0  0  0  0  0  0  0  0  0  0  0  0
  -12.5880   -3.6400  -20.7110 H   0  0  0  0  0  0  0  0  0  0  0  0
  -11.0360   -4.4750  -23.4330 C   0  0  0  0  0  0  0  0  0  0  0  0
  -11.9610   -5.0380  -23.9990 O   0  0  0  0  0  0  0  0  0  0  0  0
   -9.6400   -4.6450  -23.9270 C   0  0  0  0  0  0  0  0  0  0  0  0
   -9.4150   -5.6370  -24.8820 C   0  0  0  0  0  0  0  0  0  0  0  0
   -8.1450   -5.8670  -25.3710 C   0  0  0  0  0  0  0  0  0  0  0  0
   -7.1220   -5.0560  -24.8980 C   0  0  0  0  0  0  0  0  0  0  0  0
   -5.8850   -5.2480  -25.3800 F   0  0  0  0  0  0  0  0  0  0  0  0
   -7.3140   -4.0690  -23.9520 C   0  0  0  0  0  0  0  0  0  0  0  0
   -8.5960   -3.8610  -23.4370 C   0  0  0  0  0  0  0  0  0  0  0  0
   -6.4660   -3.4820  -23.6160 H   0  0  0  0  0  0  0  0  0  0  0  0
   -7.9350   -6.6370  -26.1080 H   0  0  0  0  0  0  0  0  0  0  0  0
  -10.2630   -6.2120  -25.2370 H   0  0  0  0  0  0  0  0  0  0  0  0
  -10.3640   -2.3750  -20.9100 H   0  0  0  0  0  0  0  0  0  0  0  0
   -9.7340   -4.0130  -20.8850 H   0  0  0  0  0  0  0  0  0  0  0  0
   -9.1830   -0.1150  -21.1680 H   0  0  0  0  0  0  0  0  0  0  0  0
   -7.9420    0.4640  -22.2870 H   0  0  0  0  0  0  0  0  0  0  0  0
   -8.3570   -1.2960  -23.8610 H   0  0  0  0  0  0  0  0  0  0  0  0
  -11.0920   -0.9490  -22.5100 H   0  0  0  0  0  0  0  0  0  0  0  0
  -10.4750    0.0290  -23.8390 H   0  0  0  0  0  0  0  0  0  0  0  0
  -10.8430   -1.6940  -24.0900 H   0  0  0  0  0  0  0  0  0  0  0  0
  1  2  1  0  0  0  0
  1 54  1  0  0  0  0
  1 55  1  0  0  0  0
  1 56  1  0  0  0  0
  2  3  1  0  0  0  0
  2 23  1  0  0  0  0
  2 53  1  6  0  0  0
  3  4  1  0  0  0  0
  3 51  1  0  0  0  0
  3 52  1  0  0  0  0
  4  5  1  0  0  0  0
  4 21  1  0  0  0  0
  5  6  2  0  0  0  0
  5 14  1  0  0  0  0
  6  7  1  0  0  0  0
  6 20  1  0  0  0  0
  7  8  2  0  0  0  0
  8  9  1  0  0  0  0
  8 19  1  0  0  0  0
  9 10  2  0  0  0  0
  9 14  1  0  0  0  0
 10 11  1  0  0  0  0
 10 18  1  0  0  0  0
 11 12  2  0  0  0  0
 11 17  1  0  0  0  0
 12 13  1  0  0  0  0
 12 16  1  0  0  0  0
 13 14  2  0  0  0  0
 13 15  1  0  0  0  0
 21 22  2  0  0  0  0
 23 21  1  1  0  0  0
 23 24  1  0  0  0  0
 23 45  1  0  0  0  0
 24 25  1  0  0  0  0
 24 49  1  0  0  0  0
 24 50  1  0  0  0  0
 25 26  1  0  0  0  0
 25 37  1  0  0  0  0
 26 27  1  0  0  0  0
 26 35  1  0  0  0  0
 26 36  1  0  0  0  0
 27 28  1  0  0  0  0
 27 31  2  0  0  0  0
 28 29  2  0  0  0  0
 28 34  1  0  0  0  0
 29 30  1  0  0  0  0
 29 33  1  0  0  0  0
 30 31  1  0  0  0  0
 30 32  1  0  0  0  0
 37 38  2  0  0  0  0
 37 39  1  0  0  0  0
 39 40  2  0  0  0  0
 39 45  1  0  0  0  0
 40 41  1  0  0  0  0
 40 48  1  0  0  0  0
 41 42  2  0  0  0  0
 41 47  1  0  0  0  0
 42 43  1  0  0  0  0
 42 44  1  0  0  0  0
 44 45  2  0  0  0  0
 44 46  1  0  0  0  0
M  END
>  <MODEL>
       1

$$$$
