tmp_first_model_12_0.pdb
 OpenBabel08272523333D

 66 71  0  0  1  0  0  0  0  0999 V2000
   -7.3550    3.4430  -21.9160 C   0  0  0  0  0  0  0  0  0  0  0  0
   -8.2200    2.9700  -22.9870 N   0  0  0  0  0  0  0  0  0  0  0  0
   -7.6440    2.2260  -23.9790 C   0  0  0  0  0  0  0  0  0  0  0  0
   -6.4400    2.0490  -24.0730 O   0  0  0  0  0  0  0  0  0  0  0  0
   -8.6190    1.6190  -24.9890 C   0  0  0  0  0  0  0  0  0  0  0  0
   -9.3200    0.4920  -24.4160 N   0  0  0  0  0  0  0  0  0  0  0  0
   -8.5830   -0.7470  -24.2390 C   0  0  0  0  0  0  0  0  0  0  0  0
   -9.0100   -1.4810  -22.9490 C   0  0  2  0  0  0  0  0  0  0  0  0
   -8.4830   -0.7170  -21.7150 C   0  0  0  0  0  0  0  0  0  0  0  0
   -8.9170    0.3200  -21.2470 O   0  0  0  0  0  0  0  0  0  0  0  0
   -7.3980   -1.3910  -21.2130 N   0  0  0  0  0  0  0  0  0  0  0  0
   -6.6160   -0.8040  -20.1850 C   0  0  0  0  0  0  0  0  0  0  0  0
   -6.9320   -1.0510  -18.8740 C   0  0  0  0  0  0  0  0  0  0  0  0
   -6.2390   -0.5710  -17.8130 N   0  0  0  0  0  0  0  0  0  0  0  0
   -5.2110    0.2040  -18.0710 C   0  0  0  0  0  0  0  0  0  0  0  0
   -4.7940    0.5710  -19.3830 C   0  0  0  0  0  0  0  0  0  0  0  0
   -3.6570    1.3900  -19.6130 C   0  0  0  0  0  0  0  0  0  0  0  0
   -3.3060    1.7520  -20.8850 C   0  0  0  0  0  0  0  0  0  0  0  0
   -4.0820    1.3320  -21.9860 C   0  0  0  0  0  0  0  0  0  0  0  0
   -5.1660    0.5050  -21.7950 C   0  0  0  0  0  0  0  0  0  0  0  0
   -5.5360    0.0820  -20.4860 C   0  0  0  0  0  0  0  0  0  0  0  0
   -5.7420    0.1780  -22.6570 H   0  0  0  0  0  0  0  0  0  0  0  0
   -3.8270    1.6600  -22.9910 H   0  0  0  0  0  0  0  0  0  0  0  0
   -2.4220    2.3600  -21.0510 H   0  0  0  0  0  0  0  0  0  0  0  0
   -3.0850    1.7220  -18.7500 H   0  0  0  0  0  0  0  0  0  0  0  0
   -4.6350    0.5720  -17.2210 H   0  0  0  0  0  0  0  0  0  0  0  0
   -7.7920   -1.6760  -18.6460 H   0  0  0  0  0  0  0  0  0  0  0  0
   -7.0610   -2.6000  -21.9420 C   0  0  0  0  0  0  0  0  0  0  0  0
   -8.3010   -2.8640  -22.8130 C   0  0  2  0  0  0  0  0  0  0  0  0
   -7.9260   -3.6210  -24.0940 C   0  0  0  0  0  0  0  0  0  0  0  0
   -9.0890   -3.9630  -24.8830 N   0  0  0  0  0  0  0  0  0  0  0  0
   -8.9840   -4.5900  -26.0850 C   0  0  0  0  0  0  0  0  0  0  0  0
  -10.1300   -4.9100  -26.8410 C   0  0  0  0  0  0  0  0  0  0  0  0
   -9.9260   -5.5290  -28.0510 C   0  0  0  0  0  0  0  0  0  0  0  0
   -8.7120   -5.8380  -28.5330 N   0  0  0  0  0  0  0  0  0  0  0  0
   -7.7090   -5.4990  -27.7360 C   0  0  0  0  0  0  0  0  0  0  0  0
   -7.7610   -4.8920  -26.5450 N   0  0  0  0  0  0  0  0  0  0  0  0
   -6.7050   -5.7440  -28.0950 H   0  0  0  0  0  0  0  0  0  0  0  0
  -10.7700   -5.8000  -28.6840 H   0  0  0  0  0  0  0  0  0  0  0  0
  -11.1280   -4.6820  -26.4860 H   0  0  0  0  0  0  0  0  0  0  0  0
  -10.0080   -3.7480  -24.5280 H   0  0  0  0  0  0  0  0  0  0  0  0
   -7.3930   -4.5460  -23.8370 H   0  0  0  0  0  0  0  0  0  0  0  0
   -7.2400   -3.0290  -24.7180 H   0  0  0  0  0  0  0  0  0  0  0  0
   -8.9780   -3.5180  -22.2550 H   0  0  0  0  0  0  0  0  0  0  0  0
   -6.8590   -3.4280  -21.2560 H   0  0  0  0  0  0  0  0  0  0  0  0
   -6.1670   -2.4590  -22.5700 H   0  0  0  0  0  0  0  0  0  0  0  0
  -10.5220   -1.5230  -22.8940 C   0  0  0  0  0  0  0  0  0  0  0  0
  -11.1600   -2.4040  -22.0180 C   0  0  0  0  0  0  0  0  0  0  0  0
  -12.5370   -2.3970  -21.9130 C   0  0  0  0  0  0  0  0  0  0  0  0
  -13.2830   -3.4580  -20.7590 Cl  0  0  0  0  0  0  0  0  0  0  0  0
  -13.3300   -1.5320  -22.6660 C   0  0  0  0  0  0  0  0  0  0  0  0
  -12.7000   -0.6250  -23.4940 C   0  0  0  0  0  0  0  0  0  0  0  0
  -11.3120   -0.5970  -23.5860 C   0  0  0  0  0  0  0  0  0  0  0  0
  -10.6870    0.5140  -24.3660 C   0  0  0  0  0  0  0  0  0  0  0  0
  -11.3530    1.4020  -24.8810 O   0  0  0  0  0  0  0  0  0  0  0  0
  -13.2530    0.1020  -24.0750 H   0  0  0  0  0  0  0  0  0  0  0  0
  -14.4100   -1.5700  -22.5830 H   0  0  0  0  0  0  0  0  0  0  0  0
  -10.5960   -3.0730  -21.3790 H   0  0  0  0  0  0  0  0  0  0  0  0
   -8.7580   -1.4140  -25.0930 H   0  0  0  0  0  0  0  0  0  0  0  0
   -7.5120   -0.5180  -24.2060 H   0  0  0  0  0  0  0  0  0  0  0  0
   -8.0440    1.3000  -25.8650 H   0  0  0  0  0  0  0  0  0  0  0  0
   -9.3800    2.3440  -25.2910 H   0  0  0  0  0  0  0  0  0  0  0  0
   -9.1790    2.7580  -22.7370 H   0  0  0  0  0  0  0  0  0  0  0  0
   -7.9420    4.0050  -21.1840 H   0  0  0  0  0  0  0  0  0  0  0  0
   -6.5940    4.1140  -22.3270 H   0  0  0  0  0  0  0  0  0  0  0  0
   -6.8470    2.5970  -21.4250 H   0  0  0  0  0  0  0  0  0  0  0  0
  1  2  1  0  0  0  0
  1 64  1  0  0  0  0
  1 65  1  0  0  0  0
  1 66  1  0  0  0  0
  2  3  1  0  0  0  0
  2 63  1  0  0  0  0
  3  4  2  0  0  0  0
  3  5  1  0  0  0  0
  5  6  1  0  0  0  0
  5 61  1  0  0  0  0
  5 62  1  0  0  0  0
  6  7  1  0  0  0  0
  6 54  1  0  0  0  0
  7  8  1  0  0  0  0
  7 59  1  0  0  0  0
  7 60  1  0  0  0  0
  8  9  1  1  0  0  0
  8 29  1  0  0  0  0
  8 47  1  0  0  0  0
  9 10  2  0  0  0  0
  9 11  1  0  0  0  0
 11 12  1  0  0  0  0
 11 28  1  0  0  0  0
 12 13  2  0  0  0  0
 12 21  1  0  0  0  0
 13 14  1  0  0  0  0
 13 27  1  0  0  0  0
 14 15  2  0  0  0  0
 15 16  1  0  0  0  0
 15 26  1  0  0  0  0
 16 17  2  0  0  0  0
 16 21  1  0  0  0  0
 17 18  1  0  0  0  0
 17 25  1  0  0  0  0
 18 19  2  0  0  0  0
 18 24  1  0  0  0  0
 19 20  1  0  0  0  0
 19 23  1  0  0  0  0
 20 21  2  0  0  0  0
 20 22  1  0  0  0  0
 28 29  1  0  0  0  0
 28 45  1  0  0  0  0
 28 46  1  0  0  0  0
 29 30  1  0  0  0  0
 29 44  1  1  0  0  0
 30 31  1  0  0  0  0
 30 42  1  0  0  0  0
 30 43  1  0  0  0  0
 31 32  1  0  0  0  0
 31 41  1  0  0  0  0
 32 33  2  0  0  0  0
 32 37  1  0  0  0  0
 33 34  1  0  0  0  0
 33 40  1  0  0  0  0
 34 35  2  0  0  0  0
 34 39  1  0  0  0  0
 35 36  1  0  0  0  0
 36 37  2  0  0  0  0
 36 38  1  0  0  0  0
 47 48  2  0  0  0  0
 47 53  1  0  0  0  0
 48 49  1  0  0  0  0
 48 58  1  0  0  0  0
 49 50  1  0  0  0  0
 49 51  2  0  0  0  0
 51 52  1  0  0  0  0
 51 57  1  0  0  0  0
 52 53  2  0  0  0  0
 52 56  1  0  0  0  0
 53 54  1  0  0  0  0
 54 55  2  0  0  0  0
M  END
>  <MODEL>
       1

$$$$
