tmp_first_model_3_9.pdb
 OpenBabel08272518143D

 41 43  0  0  1  0  0  0  0  0999 V2000
  -13.1600   -2.9150  -22.9120 C   0  0  0  0  0  0  0  0  0  0  0  0
  -11.9610   -2.0410  -23.2230 C   0  0  1  0  0  0  0  0  0  0  0  0
  -12.1540   -0.6560  -22.6460 C   0  0  0  0  0  0  0  0  0  0  0  0
  -11.3200    0.3580  -22.8350 C   0  0  0  0  0  0  0  0  0  0  0  0
  -10.0210    0.2170  -23.6020 C   0  0  0  0  0  0  0  0  0  0  0  0
   -9.0850   -0.7810  -23.0630 N   0  0  0  0  0  0  0  0  0  0  0  0
   -8.3810   -0.4080  -21.9320 C   0  0  0  0  0  0  0  0  0  0  0  0
   -8.4770    0.7170  -21.4740 O   0  0  0  0  0  0  0  0  0  0  0  0
   -7.4330   -1.4330  -21.2730 C   0  0  0  0  0  0  0  0  0  0  0  0
   -6.5790   -0.8300  -20.1820 C   0  0  0  0  0  0  0  0  0  0  0  0
   -6.8780   -1.0380  -18.8610 C   0  0  0  0  0  0  0  0  0  0  0  0
   -6.1960   -0.5340  -17.7970 N   0  0  0  0  0  0  0  0  0  0  0  0
   -5.1580    0.2220  -18.0640 C   0  0  0  0  0  0  0  0  0  0  0  0
   -4.7240    0.5340  -19.3810 C   0  0  0  0  0  0  0  0  0  0  0  0
   -3.5980    1.3640  -19.6220 C   0  0  0  0  0  0  0  0  0  0  0  0
   -3.2100    1.6580  -20.9020 C   0  0  0  0  0  0  0  0  0  0  0  0
   -3.9330    1.1300  -21.9940 C   0  0  0  0  0  0  0  0  0  0  0  0
   -5.0260    0.3220  -21.7870 C   0  0  0  0  0  0  0  0  0  0  0  0
   -5.4540    0.0010  -20.4720 C   0  0  0  0  0  0  0  0  0  0  0  0
   -5.5780   -0.0660  -22.6370 H   0  0  0  0  0  0  0  0  0  0  0  0
   -3.6230    1.3740  -23.0050 H   0  0  0  0  0  0  0  0  0  0  0  0
   -2.3530    2.3030  -21.0870 H   0  0  0  0  0  0  0  0  0  0  0  0
   -3.0580    1.7770  -18.7720 H   0  0  0  0  0  0  0  0  0  0  0  0
   -4.6010    0.6280  -17.2170 H   0  0  0  0  0  0  0  0  0  0  0  0
   -7.7290   -1.6590  -18.5850 H   0  0  0  0  0  0  0  0  0  0  0  0
   -6.7960   -1.9000  -22.0370 H   0  0  0  0  0  0  0  0  0  0  0  0
   -8.0400   -2.2450  -20.8450 H   0  0  0  0  0  0  0  0  0  0  0  0
   -9.3940   -2.1680  -23.3960 C   0  0  0  0  0  0  0  0  0  0  0  0
  -10.6650   -2.7280  -22.7560 C   0  0  0  0  0  0  0  0  0  0  0  0
  -10.5880   -2.6370  -21.6680 H   0  0  0  0  0  0  0  0  0  0  0  0
  -10.7260   -3.8070  -22.9640 H   0  0  0  0  0  0  0  0  0  0  0  0
   -8.5300   -2.7920  -23.1570 H   0  0  0  0  0  0  0  0  0  0  0  0
   -9.5110   -2.2200  -24.4810 H   0  0  0  0  0  0  0  0  0  0  0  0
  -10.2460   -0.0750  -24.6320 H   0  0  0  0  0  0  0  0  0  0  0  0
   -9.5090    1.1780  -23.6540 H   0  0  0  0  0  0  0  0  0  0  0  0
  -11.5330    1.3300  -22.3870 H   0  0  0  0  0  0  0  0  0  0  0  0
  -13.0280   -0.4980  -22.0110 H   0  0  0  0  0  0  0  0  0  0  0  0
  -11.8990   -1.9350  -24.3100 H   0  0  0  0  0  0  0  0  0  0  0  0
  -13.1020   -3.9050  -23.3700 H   0  0  0  0  0  0  0  0  0  0  0  0
  -13.1940   -3.0620  -21.8280 H   0  0  0  0  0  0  0  0  0  0  0  0
  -14.0970   -2.4540  -23.2460 H   0  0  0  0  0  0  0  0  0  0  0  0
  1  2  1  0  0  0  0
  1 39  1  0  0  0  0
  1 40  1  0  0  0  0
  1 41  1  0  0  0  0
  2  3  1  0  0  0  0
  2 29  1  0  0  0  0
  2 38  1  6  0  0  0
  3  4  2  0  0  0  0
  3 37  1  0  0  0  0
  4  5  1  0  0  0  0
  4 36  1  0  0  0  0
  5  6  1  0  0  0  0
  5 34  1  0  0  0  0
  5 35  1  0  0  0  0
  6  7  1  0  0  0  0
  6 28  1  0  0  0  0
  7  8  2  0  0  0  0
  7  9  1  0  0  0  0
  9 10  1  0  0  0  0
  9 26  1  0  0  0  0
  9 27  1  0  0  0  0
 10 11  2  0  0  0  0
 10 19  1  0  0  0  0
 11 12  1  0  0  0  0
 11 25  1  0  0  0  0
 12 13  2  0  0  0  0
 13 14  1  0  0  0  0
 13 24  1  0  0  0  0
 14 15  2  0  0  0  0
 14 19  1  0  0  0  0
 15 16  1  0  0  0  0
 15 23  1  0  0  0  0
 16 17  2  0  0  0  0
 16 22  1  0  0  0  0
 17 18  1  0  0  0  0
 17 21  1  0  0  0  0
 18 19  2  0  0  0  0
 18 20  1  0  0  0  0
 28 29  1  0  0  0  0
 28 32  1  0  0  0  0
 28 33  1  0  0  0  0
 29 30  1  0  0  0  0
 29 31  1  0  0  0  0
M  END
>  <MODEL>
       1

$$$$
