tmp_first_model_4_43.pdb
 OpenBabel08272518513D

 67 72  0  0  1  0  0  0  0  0999 V2000
   -7.7970   -3.3440  -29.1350 C   0  0  0  0  0  0  0  0  0  0  0  0
   -8.5110   -2.4180  -28.2740 N   0  0  0  0  0  0  0  0  0  0  0  0
   -7.8640   -1.7650  -27.2790 C   0  0  0  0  0  0  0  0  0  0  0  0
   -6.7280   -2.0410  -26.9120 O   0  0  0  0  0  0  0  0  0  0  0  0
   -8.6790   -0.6290  -26.6560 C   0  0  0  0  0  0  0  0  0  0  0  0
   -9.2890   -1.0530  -25.4100 N   0  0  0  0  0  0  0  0  0  0  0  0
   -8.6000   -0.7050  -24.1740 C   0  0  0  0  0  0  0  0  0  0  0  0
   -9.0570   -1.5320  -22.9470 C   0  0  2  0  0  0  0  0  0  0  0  0
   -8.5320   -0.7800  -21.6960 C   0  0  0  0  0  0  0  0  0  0  0  0
   -8.9670    0.2460  -21.2140 O   0  0  0  0  0  0  0  0  0  0  0  0
   -7.4080   -1.4400  -21.2410 N   0  0  0  0  0  0  0  0  0  0  0  0
   -6.5390   -0.9620  -20.2270 C   0  0  0  0  0  0  0  0  0  0  0  0
   -6.7840   -1.2630  -18.9150 C   0  0  0  0  0  0  0  0  0  0  0  0
   -5.9140   -1.0310  -17.8990 N   0  0  0  0  0  0  0  0  0  0  0  0
   -4.7820   -0.4400  -18.1900 C   0  0  0  0  0  0  0  0  0  0  0  0
   -4.4330   -0.0060  -19.4990 C   0  0  0  0  0  0  0  0  0  0  0  0
   -3.2550    0.7430  -19.7500 C   0  0  0  0  0  0  0  0  0  0  0  0
   -3.0410    1.2940  -20.9850 C   0  0  0  0  0  0  0  0  0  0  0  0
   -3.9230    1.0120  -22.0540 C   0  0  0  0  0  0  0  0  0  0  0  0
   -5.0280    0.2250  -21.8530 C   0  0  0  0  0  0  0  0  0  0  0  0
   -5.3320   -0.2690  -20.5550 C   0  0  0  0  0  0  0  0  0  0  0  0
   -5.7000   -0.0010  -22.6770 H   0  0  0  0  0  0  0  0  0  0  0  0
   -3.7380    1.4480  -23.0300 H   0  0  0  0  0  0  0  0  0  0  0  0
   -2.1880    1.9450  -21.1520 H   0  0  0  0  0  0  0  0  0  0  0  0
   -2.6030    0.9500  -18.9060 H   0  0  0  0  0  0  0  0  0  0  0  0
   -4.0760   -0.2590  -17.3790 H   0  0  0  0  0  0  0  0  0  0  0  0
   -7.7180   -1.7600  -18.6630 H   0  0  0  0  0  0  0  0  0  0  0  0
   -7.0570   -2.6220  -21.9910 C   0  0  0  0  0  0  0  0  0  0  0  0
   -8.3290   -2.9140  -22.7850 C   0  0  2  0  0  0  0  0  0  0  0  0
   -8.0160   -3.7150  -24.0400 C   0  0  0  0  0  0  0  0  0  0  0  0
   -9.2350   -4.2460  -24.5970 N   0  0  0  0  0  0  0  0  0  0  0  0
   -9.3240   -4.9190  -25.7810 C   0  0  0  0  0  0  0  0  0  0  0  0
  -10.8570   -5.1090  -26.5950 S   0  0  0  0  0  0  0  0  0  0  0  0
  -10.0540   -6.0310  -27.8130 C   0  0  0  0  0  0  0  0  0  0  0  0
   -8.7820   -6.1870  -27.6460 N   0  0  0  0  0  0  0  0  0  0  0  0
   -8.3460   -5.5700  -26.4970 C   0  0  0  0  0  0  0  0  0  0  0  0
   -6.8900   -5.6710  -26.1420 C   0  0  0  0  0  0  0  0  0  0  0  0
   -6.3730   -6.2660  -26.8990 H   0  0  0  0  0  0  0  0  0  0  0  0
   -6.7470   -6.1660  -25.1750 H   0  0  0  0  0  0  0  0  0  0  0  0
   -6.4180   -4.6810  -26.0920 H   0  0  0  0  0  0  0  0  0  0  0  0
  -10.6020   -6.4070  -28.6640 H   0  0  0  0  0  0  0  0  0  0  0  0
  -10.1050   -3.9690  -24.1570 H   0  0  0  0  0  0  0  0  0  0  0  0
   -7.3440   -4.5380  -23.7590 H   0  0  0  0  0  0  0  0  0  0  0  0
   -7.4920   -3.0980  -24.7830 H   0  0  0  0  0  0  0  0  0  0  0  0
   -8.9800   -3.5300  -22.1480 H   0  0  0  0  0  0  0  0  0  0  0  0
   -6.1860   -2.4570  -22.6510 H   0  0  0  0  0  0  0  0  0  0  0  0
   -6.7900   -3.4300  -21.2990 H   0  0  0  0  0  0  0  0  0  0  0  0
  -10.5680   -1.6520  -22.9680 C   0  0  0  0  0  0  0  0  0  0  0  0
  -11.2650   -2.0170  -21.8140 C   0  0  0  0  0  0  0  0  0  0  0  0
  -12.6310   -2.2420  -21.8630 C   0  0  0  0  0  0  0  0  0  0  0  0
  -13.4000   -2.9650  -20.4860 Cl  0  0  0  0  0  0  0  0  0  0  0  0
  -13.3840   -1.9270  -22.9950 C   0  0  0  0  0  0  0  0  0  0  0  0
  -12.6960   -1.5110  -24.1220 C   0  0  0  0  0  0  0  0  0  0  0  0
  -11.3050   -1.4930  -24.1450 C   0  0  0  0  0  0  0  0  0  0  0  0
  -10.6080   -1.4040  -25.4620 C   0  0  0  0  0  0  0  0  0  0  0  0
  -11.1830   -1.6220  -26.5260 O   0  0  0  0  0  0  0  0  0  0  0  0
  -13.2210   -1.2150  -25.0250 H   0  0  0  0  0  0  0  0  0  0  0  0
  -14.4660   -2.0480  -23.0140 H   0  0  0  0  0  0  0  0  0  0  0  0
  -10.7290   -2.1300  -20.8840 H   0  0  0  0  0  0  0  0  0  0  0  0
   -8.7600    0.3590  -23.9490 H   0  0  0  0  0  0  0  0  0  0  0  0
   -7.5200   -0.8410  -24.3390 H   0  0  0  0  0  0  0  0  0  0  0  0
   -8.0190    0.2180  -26.4500 H   0  0  0  0  0  0  0  0  0  0  0  0
   -9.4680   -0.3050  -27.3470 H   0  0  0  0  0  0  0  0  0  0  0  0
   -9.5110   -2.2870  -28.3580 H   0  0  0  0  0  0  0  0  0  0  0  0
   -7.1110   -3.9280  -28.5130 H   0  0  0  0  0  0  0  0  0  0  0  0
   -7.2220   -2.8180  -29.9110 H   0  0  0  0  0  0  0  0  0  0  0  0
   -8.4990   -4.0310  -29.6110 H   0  0  0  0  0  0  0  0  0  0  0  0
  1  2  1  0  0  0  0
  1 65  1  0  0  0  0
  1 66  1  0  0  0  0
  1 67  1  0  0  0  0
  2  3  1  0  0  0  0
  2 64  1  0  0  0  0
  3  4  2  0  0  0  0
  3  5  1  0  0  0  0
  5  6  1  0  0  0  0
  5 62  1  0  0  0  0
  5 63  1  0  0  0  0
  6  7  1  0  0  0  0
  6 55  1  0  0  0  0
  7  8  1  0  0  0  0
  7 60  1  0  0  0  0
  7 61  1  0  0  0  0
  8  9  1  1  0  0  0
  8 29  1  0  0  0  0
  8 48  1  0  0  0  0
  9 10  2  0  0  0  0
  9 11  1  0  0  0  0
 11 12  1  0  0  0  0
 11 28  1  0  0  0  0
 12 13  2  0  0  0  0
 12 21  1  0  0  0  0
 13 14  1  0  0  0  0
 13 27  1  0  0  0  0
 14 15  2  0  0  0  0
 15 16  1  0  0  0  0
 15 26  1  0  0  0  0
 16 17  2  0  0  0  0
 16 21  1  0  0  0  0
 17 18  1  0  0  0  0
 17 25  1  0  0  0  0
 18 19  2  0  0  0  0
 18 24  1  0  0  0  0
 19 20  1  0  0  0  0
 19 23  1  0  0  0  0
 20 21  2  0  0  0  0
 20 22  1  0  0  0  0
 28 29  1  0  0  0  0
 28 46  1  0  0  0  0
 28 47  1  0  0  0  0
 29 30  1  0  0  0  0
 29 45  1  1  0  0  0
 30 31  1  0  0  0  0
 30 43  1  0  0  0  0
 30 44  1  0  0  0  0
 31 32  1  0  0  0  0
 31 42  1  0  0  0  0
 32 33  1  0  0  0  0
 32 36  2  0  0  0  0
 33 34  1  0  0  0  0
 34 35  2  0  0  0  0
 34 41  1  0  0  0  0
 35 36  1  0  0  0  0
 36 37  1  0  0  0  0
 37 38  1  0  0  0  0
 37 39  1  0  0  0  0
 37 40  1  0  0  0  0
 48 49  2  0  0  0  0
 48 54  1  0  0  0  0
 49 50  1  0  0  0  0
 49 59  1  0  0  0  0
 50 51  1  0  0  0  0
 50 52  2  0  0  0  0
 52 53  1  0  0  0  0
 52 58  1  0  0  0  0
 53 54  2  0  0  0  0
 53 57  1  0  0  0  0
 54 55  1  0  0  0  0
 55 56  2  0  0  0  0
M  END
>  <MODEL>
       1

$$$$
