tmp_first_model_18_97.pdb
 OpenBabel08282502533D

 40 43  0  0  1  0  0  0  0  0999 V2000
  -10.3040   -3.7780  -25.0250 C   0  0  0  0  0  0  0  0  0  0  0  0
  -10.6340   -2.3250  -24.6890 C   0  0  2  0  0  0  0  0  0  0  0  0
  -10.1110   -1.3720  -25.7640 C   0  0  0  0  0  0  0  0  0  0  0  0
   -8.7050   -1.2440  -25.7110 O   0  0  0  0  0  0  0  0  0  0  0  0
   -8.3040   -0.6120  -24.5140 C   0  0  0  0  0  0  0  0  0  0  0  0
   -8.6420   -1.4610  -23.2720 C   0  0  1  0  0  0  0  0  0  0  0  0
  -10.1260   -1.8750  -23.3140 C   0  0  0  0  0  0  0  0  0  0  0  0
  -10.7220   -1.0170  -22.9910 H   0  0  0  0  0  0  0  0  0  0  0  0
  -10.2810   -2.6650  -22.5710 H   0  0  0  0  0  0  0  0  0  0  0  0
   -7.7450   -2.5910  -23.1140 N   0  0  0  0  0  0  0  0  0  0  0  0
   -6.9660   -2.5720  -21.9850 C   0  0  0  0  0  0  0  0  0  0  0  0
   -6.1120   -3.3570  -21.6460 O   0  0  0  0  0  0  0  0  0  0  0  0
   -7.3730   -1.4210  -21.2620 N   0  0  0  0  0  0  0  0  0  0  0  0
   -6.5890   -0.8400  -20.2020 C   0  0  0  0  0  0  0  0  0  0  0  0
   -6.8920   -1.0550  -18.8790 C   0  0  0  0  0  0  0  0  0  0  0  0
   -6.1970   -0.5450  -17.8220 N   0  0  0  0  0  0  0  0  0  0  0  0
   -5.1600    0.2210  -18.0690 C   0  0  0  0  0  0  0  0  0  0  0  0
   -4.7250    0.5330  -19.3890 C   0  0  0  0  0  0  0  0  0  0  0  0
   -3.5950    1.3650  -19.6280 C   0  0  0  0  0  0  0  0  0  0  0  0
   -3.2060    1.6450  -20.9120 C   0  0  0  0  0  0  0  0  0  0  0  0
   -3.9230    1.1080  -22.0030 C   0  0  0  0  0  0  0  0  0  0  0  0
   -5.0150    0.3040  -21.7940 C   0  0  0  0  0  0  0  0  0  0  0  0
   -5.4520   -0.0060  -20.4780 C   0  0  0  0  0  0  0  0  0  0  0  0
   -5.5600   -0.1060  -22.6380 H   0  0  0  0  0  0  0  0  0  0  0  0
   -3.6110    1.3310  -23.0180 H   0  0  0  0  0  0  0  0  0  0  0  0
   -2.3480    2.2820  -21.1050 H   0  0  0  0  0  0  0  0  0  0  0  0
   -3.0500    1.7790  -18.7820 H   0  0  0  0  0  0  0  0  0  0  0  0
   -4.6020    0.6280  -17.2180 H   0  0  0  0  0  0  0  0  0  0  0  0
   -7.7400   -1.6770  -18.6080 H   0  0  0  0  0  0  0  0  0  0  0  0
   -8.3260   -0.6850  -21.9930 C   0  0  0  0  0  0  0  0  0  0  0  0
   -8.7890    0.3780  -21.6650 O   0  0  0  0  0  0  0  0  0  0  0  0
   -7.5430   -3.2310  -23.8630 H   0  0  0  0  0  0  0  0  0  0  0  0
   -7.2180   -0.4610  -24.5700 H   0  0  0  0  0  0  0  0  0  0  0  0
   -8.7800    0.3760  -24.4280 H   0  0  0  0  0  0  0  0  0  0  0  0
  -10.5620   -0.3710  -25.6580 H   0  0  0  0  0  0  0  0  0  0  0  0
  -10.3530   -1.7430  -26.7650 H   0  0  0  0  0  0  0  0  0  0  0  0
  -11.7270   -2.2310  -24.6780 H   0  0  0  0  0  0  0  0  0  0  0  0
  -10.5610   -4.4410  -24.1940 H   0  0  0  0  0  0  0  0  0  0  0  0
  -10.8750   -4.1030  -25.9010 H   0  0  0  0  0  0  0  0  0  0  0  0
   -9.2450   -3.9150  -25.2570 H   0  0  0  0  0  0  0  0  0  0  0  0
  1  2  1  0  0  0  0
  1 38  1  0  0  0  0
  1 39  1  0  0  0  0
  1 40  1  0  0  0  0
  2  3  1  0  0  0  0
  2  7  1  0  0  0  0
  2 37  1  1  0  0  0
  3  4  1  0  0  0  0
  3 35  1  0  0  0  0
  3 36  1  0  0  0  0
  4  5  1  0  0  0  0
  5  6  1  0  0  0  0
  5 33  1  0  0  0  0
  5 34  1  0  0  0  0
  6  7  1  0  0  0  0
  6 10  1  0  0  0  0
  6 30  1  1  0  0  0
  7  8  1  0  0  0  0
  7  9  1  0  0  0  0
 10 11  1  0  0  0  0
 10 32  1  0  0  0  0
 11 12  2  0  0  0  0
 11 13  1  0  0  0  0
 13 14  1  0  0  0  0
 13 30  1  0  0  0  0
 14 15  2  0  0  0  0
 14 23  1  0  0  0  0
 15 16  1  0  0  0  0
 15 29  1  0  0  0  0
 16 17  2  0  0  0  0
 17 18  1  0  0  0  0
 17 28  1  0  0  0  0
 18 19  2  0  0  0  0
 18 23  1  0  0  0  0
 19 20  1  0  0  0  0
 19 27  1  0  0  0  0
 20 21  2  0  0  0  0
 20 26  1  0  0  0  0
 21 22  1  0  0  0  0
 21 25  1  0  0  0  0
 22 23  2  0  0  0  0
 22 24  1  0  0  0  0
 30 31  2  0  0  0  0
M  END
>  <MODEL>
       1

$$$$
