tmp_first_model_18_81.pdb
 OpenBabel08282502533D

 36 38  0  0  0  0  0  0  0  0999 V2000
   -6.0260   -3.4260  -21.2220 O   0  0  0  0  0  0  0  0  0  0  0  0
   -6.6650   -2.6710  -21.9290 C   0  0  0  0  0  0  0  0  0  0  0  0
   -7.3880   -1.4610  -21.2850 C   0  0  0  0  0  0  0  0  0  0  0  0
   -6.5730   -0.8290  -20.1790 C   0  0  0  0  0  0  0  0  0  0  0  0
   -6.8710   -1.0480  -18.8580 C   0  0  0  0  0  0  0  0  0  0  0  0
   -6.1880   -0.5410  -17.7930 N   0  0  0  0  0  0  0  0  0  0  0  0
   -5.1580    0.2240  -18.0620 C   0  0  0  0  0  0  0  0  0  0  0  0
   -4.7220    0.5350  -19.3780 C   0  0  0  0  0  0  0  0  0  0  0  0
   -3.5940    1.3600  -19.6200 C   0  0  0  0  0  0  0  0  0  0  0  0
   -3.1950    1.6390  -20.9000 C   0  0  0  0  0  0  0  0  0  0  0  0
   -3.9100    1.0970  -21.9930 C   0  0  0  0  0  0  0  0  0  0  0  0
   -5.0050    0.2950  -21.7860 C   0  0  0  0  0  0  0  0  0  0  0  0
   -5.4450   -0.0050  -20.4700 C   0  0  0  0  0  0  0  0  0  0  0  0
   -5.5340   -0.1170  -22.6420 H   0  0  0  0  0  0  0  0  0  0  0  0
   -3.5900    1.3210  -23.0050 H   0  0  0  0  0  0  0  0  0  0  0  0
   -2.3340    2.2760  -21.0880 H   0  0  0  0  0  0  0  0  0  0  0  0
   -3.0570    1.7730  -18.7700 H   0  0  0  0  0  0  0  0  0  0  0  0
   -4.6020    0.6300  -17.2140 H   0  0  0  0  0  0  0  0  0  0  0  0
   -7.7210   -1.6710  -18.5860 H   0  0  0  0  0  0  0  0  0  0  0  0
   -7.6810   -0.7050  -22.0210 H   0  0  0  0  0  0  0  0  0  0  0  0
   -8.3230   -1.8420  -20.8520 H   0  0  0  0  0  0  0  0  0  0  0  0
   -6.7430   -2.8960  -23.2960 N   0  0  0  0  0  0  0  0  0  0  0  0
   -7.6540   -2.1750  -24.1700 C   0  0  0  0  0  0  0  0  0  0  0  0
   -9.1080   -2.5050  -23.9670 C   0  0  0  0  0  0  0  0  0  0  0  0
   -9.5890   -3.7380  -23.7890 C   0  0  0  0  0  0  0  0  0  0  0  0
   -8.8450   -5.0150  -23.7310 C   0  0  0  0  0  0  0  0  0  0  0  0
   -7.5280   -5.2450  -23.7080 C   0  0  0  0  0  0  0  0  0  0  0  0
   -6.4050   -4.2400  -23.7570 C   0  0  0  0  0  0  0  0  0  0  0  0
   -5.5470   -4.6030  -23.1860 H   0  0  0  0  0  0  0  0  0  0  0  0
   -6.0680   -4.1440  -24.7960 H   0  0  0  0  0  0  0  0  0  0  0  0
   -7.1990   -6.2860  -23.6570 H   0  0  0  0  0  0  0  0  0  0  0  0
   -9.4930   -5.8890  -23.7090 H   0  0  0  0  0  0  0  0  0  0  0  0
  -10.6670   -3.8510  -23.6900 H   0  0  0  0  0  0  0  0  0  0  0  0
   -9.8060   -1.6680  -23.9760 H   0  0  0  0  0  0  0  0  0  0  0  0
   -7.4710   -1.0990  -24.0910 H   0  0  0  0  0  0  0  0  0  0  0  0
   -7.3620   -2.4480  -25.1910 H   0  0  0  0  0  0  0  0  0  0  0  0
  1  2  2  0  0  0  0
  2  3  1  0  0  0  0
  2 22  1  0  0  0  0
  3  4  1  0  0  0  0
  3 20  1  0  0  0  0
  3 21  1  0  0  0  0
  4  5  2  0  0  0  0
  4 13  1  0  0  0  0
  5  6  1  0  0  0  0
  5 19  1  0  0  0  0
  6  7  2  0  0  0  0
  7  8  1  0  0  0  0
  7 18  1  0  0  0  0
  8  9  2  0  0  0  0
  8 13  1  0  0  0  0
  9 10  1  0  0  0  0
  9 17  1  0  0  0  0
 10 11  2  0  0  0  0
 10 16  1  0  0  0  0
 11 12  1  0  0  0  0
 11 15  1  0  0  0  0
 12 13  2  0  0  0  0
 12 14  1  0  0  0  0
 22 23  1  0  0  0  0
 22 28  1  0  0  0  0
 23 24  1  0  0  0  0
 23 35  1  0  0  0  0
 23 36  1  0  0  0  0
 24 25  2  0  0  0  0
 24 34  1  0  0  0  0
 25 26  1  0  0  0  0
 25 33  1  0  0  0  0
 26 27  2  0  0  0  0
 26 32  1  0  0  0  0
 27 28  1  0  0  0  0
 27 31  1  0  0  0  0
 28 29  1  0  0  0  0
 28 30  1  0  0  0  0
M  END
>  <MODEL>
       1

$$$$
