tmp_first_model_6_57.pdb
 OpenBabel08272519583D

 59 63  0  0  1  0  0  0  0  0999 V2000
   -7.3790    3.3250  -21.9650 C   0  0  0  0  0  0  0  0  0  0  0  0
   -8.2650    2.8500  -23.0160 N   0  0  0  0  0  0  0  0  0  0  0  0
   -7.6960    2.1340  -24.0310 C   0  0  0  0  0  0  0  0  0  0  0  0
   -6.4900    1.9730  -24.1340 O   0  0  0  0  0  0  0  0  0  0  0  0
   -8.6700    1.5400  -25.0380 C   0  0  0  0  0  0  0  0  0  0  0  0
   -9.3780    0.4250  -24.4440 N   0  0  0  0  0  0  0  0  0  0  0  0
   -8.6550   -0.8120  -24.1840 C   0  0  0  0  0  0  0  0  0  0  0  0
   -9.1010   -1.5150  -22.8650 C   0  0  2  0  0  0  0  0  0  0  0  0
   -8.5520   -0.7420  -21.6390 C   0  0  0  0  0  0  0  0  0  0  0  0
   -9.0110    0.2730  -21.1460 O   0  0  0  0  0  0  0  0  0  0  0  0
   -7.4190   -1.3730  -21.1900 N   0  0  0  0  0  0  0  0  0  0  0  0
   -6.6170   -0.8010  -20.1690 C   0  0  0  0  0  0  0  0  0  0  0  0
   -6.9270   -1.0470  -18.8590 C   0  0  0  0  0  0  0  0  0  0  0  0
   -6.2240   -0.5710  -17.8050 N   0  0  0  0  0  0  0  0  0  0  0  0
   -5.1940    0.1980  -18.0680 C   0  0  0  0  0  0  0  0  0  0  0  0
   -4.7690    0.5460  -19.3810 C   0  0  0  0  0  0  0  0  0  0  0  0
   -3.6410    1.3750  -19.6180 C   0  0  0  0  0  0  0  0  0  0  0  0
   -3.2740    1.7050  -20.8920 C   0  0  0  0  0  0  0  0  0  0  0  0
   -4.0210    1.2300  -21.9930 C   0  0  0  0  0  0  0  0  0  0  0  0
   -5.1030    0.4040  -21.7930 C   0  0  0  0  0  0  0  0  0  0  0  0
   -5.5030    0.0370  -20.4800 C   0  0  0  0  0  0  0  0  0  0  0  0
   -5.6600    0.0420  -22.6520 H   0  0  0  0  0  0  0  0  0  0  0  0
   -3.7350    1.4980  -23.0040 H   0  0  0  0  0  0  0  0  0  0  0  0
   -2.4030    2.3290  -21.0680 H   0  0  0  0  0  0  0  0  0  0  0  0
   -3.0860    1.7430  -18.7590 H   0  0  0  0  0  0  0  0  0  0  0  0
   -4.6270    0.5820  -17.2200 H   0  0  0  0  0  0  0  0  0  0  0  0
   -7.7870   -1.6700  -18.6220 H   0  0  0  0  0  0  0  0  0  0  0  0
   -7.0680   -2.5630  -21.9320 C   0  0  0  0  0  0  0  0  0  0  0  0
   -8.3650   -2.9330  -22.7150 C   0  0  0  0  0  0  0  0  0  0  0  0
   -7.9750   -3.6210  -24.0380 C   0  0  0  0  0  0  0  0  0  0  0  0
   -7.4950   -4.5850  -23.8250 H   0  0  0  0  0  0  0  0  0  0  0  0
   -7.2610   -3.0330  -24.6260 H   0  0  0  0  0  0  0  0  0  0  0  0
   -8.8540   -3.8210  -24.6620 H   0  0  0  0  0  0  0  0  0  0  0  0
   -9.1520   -3.9870  -21.9150 C   0  0  0  0  0  0  0  0  0  0  0  0
   -9.3170   -3.6800  -20.8780 H   0  0  0  0  0  0  0  0  0  0  0  0
   -8.5930   -4.9300  -21.8860 H   0  0  0  0  0  0  0  0  0  0  0  0
  -10.1200   -4.1920  -22.3810 H   0  0  0  0  0  0  0  0  0  0  0  0
   -6.2220   -2.3820  -22.6190 H   0  0  0  0  0  0  0  0  0  0  0  0
   -6.7540   -3.3620  -21.2480 H   0  0  0  0  0  0  0  0  0  0  0  0
  -10.6200   -1.4420  -22.8190 C   0  0  0  0  0  0  0  0  0  0  0  0
  -11.3150   -2.0310  -21.7710 C   0  0  0  0  0  0  0  0  0  0  0  0
  -12.6900   -2.1530  -21.8200 C   0  0  0  0  0  0  0  0  0  0  0  0
  -13.5020   -3.0310  -20.5600 Cl  0  0  0  0  0  0  0  0  0  0  0  0
  -13.4450   -1.5420  -22.8200 C   0  0  0  0  0  0  0  0  0  0  0  0
  -12.7720   -0.7550  -23.7290 C   0  0  0  0  0  0  0  0  0  0  0  0
  -11.3860   -0.6390  -23.6700 C   0  0  0  0  0  0  0  0  0  0  0  0
  -10.7400    0.4870  -24.3980 C   0  0  0  0  0  0  0  0  0  0  0  0
  -11.3860    1.4240  -24.8490 O   0  0  0  0  0  0  0  0  0  0  0  0
  -13.3010   -0.1770  -24.4760 H   0  0  0  0  0  0  0  0  0  0  0  0
  -14.5250   -1.6260  -22.8180 H   0  0  0  0  0  0  0  0  0  0  0  0
  -10.7650   -2.3890  -20.9220 H   0  0  0  0  0  0  0  0  0  0  0  0
   -7.5890   -0.5750  -24.1270 H   0  0  0  0  0  0  0  0  0  0  0  0
   -8.8320   -1.5100  -25.0110 H   0  0  0  0  0  0  0  0  0  0  0  0
   -9.4290    2.2710  -25.3330 H   0  0  0  0  0  0  0  0  0  0  0  0
   -8.1100    1.2240  -25.9250 H   0  0  0  0  0  0  0  0  0  0  0  0
   -9.2310    2.6750  -22.7660 H   0  0  0  0  0  0  0  0  0  0  0  0
   -7.9550    3.8360  -21.1920 H   0  0  0  0  0  0  0  0  0  0  0  0
   -6.8200    2.4870  -21.5220 H   0  0  0  0  0  0  0  0  0  0  0  0
   -6.6640    4.0390  -22.3850 H   0  0  0  0  0  0  0  0  0  0  0  0
  1  2  1  0  0  0  0
  1 57  1  0  0  0  0
  1 58  1  0  0  0  0
  1 59  1  0  0  0  0
  2  3  1  0  0  0  0
  2 56  1  0  0  0  0
  3  4  2  0  0  0  0
  3  5  1  0  0  0  0
  5  6  1  0  0  0  0
  5 54  1  0  0  0  0
  5 55  1  0  0  0  0
  6  7  1  0  0  0  0
  6 47  1  0  0  0  0
  7  8  1  0  0  0  0
  7 52  1  0  0  0  0
  7 53  1  0  0  0  0
  8  9  1  1  0  0  0
  8 29  1  0  0  0  0
  8 40  1  0  0  0  0
  9 10  2  0  0  0  0
  9 11  1  0  0  0  0
 11 12  1  0  0  0  0
 11 28  1  0  0  0  0
 12 13  2  0  0  0  0
 12 21  1  0  0  0  0
 13 14  1  0  0  0  0
 13 27  1  0  0  0  0
 14 15  2  0  0  0  0
 15 16  1  0  0  0  0
 15 26  1  0  0  0  0
 16 17  2  0  0  0  0
 16 21  1  0  0  0  0
 17 18  1  0  0  0  0
 17 25  1  0  0  0  0
 18 19  2  0  0  0  0
 18 24  1  0  0  0  0
 19 20  1  0  0  0  0
 19 23  1  0  0  0  0
 20 21  2  0  0  0  0
 20 22  1  0  0  0  0
 28 29  1  0  0  0  0
 28 38  1  0  0  0  0
 28 39  1  0  0  0  0
 29 30  1  0  0  0  0
 29 34  1  0  0  0  0
 30 31  1  0  0  0  0
 30 32  1  0  0  0  0
 30 33  1  0  0  0  0
 34 35  1  0  0  0  0
 34 36  1  0  0  0  0
 34 37  1  0  0  0  0
 40 41  2  0  0  0  0
 40 46  1  0  0  0  0
 41 42  1  0  0  0  0
 41 51  1  0  0  0  0
 42 43  1  0  0  0  0
 42 44  2  0  0  0  0
 44 45  1  0  0  0  0
 44 50  1  0  0  0  0
 45 46  2  0  0  0  0
 45 49  1  0  0  0  0
 46 47  1  0  0  0  0
 47 48  2  0  0  0  0
M  END
>  <MODEL>
       1

$$$$
