tmp_first_model_16_43.pdb
 OpenBabel08282501503D

 67 72  0  0  1  0  0  0  0  0999 V2000
  -14.5150   -0.3800  -22.8480 C   0  0  0  0  0  0  0  0  0  0  0  0
  -13.7200   -1.3910  -22.1600 N   0  0  0  0  0  0  0  0  0  0  0  0
  -13.4250   -2.5480  -22.8260 C   0  0  0  0  0  0  0  0  0  0  0  0
  -13.7460   -2.7030  -23.9950 O   0  0  0  0  0  0  0  0  0  0  0  0
  -12.6630   -3.6510  -22.0750 C   0  0  0  0  0  0  0  0  0  0  0  0
  -11.2730   -3.7500  -22.5270 N   0  0  0  0  0  0  0  0  0  0  0  0
  -10.1770   -3.2370  -21.7050 C   0  0  0  0  0  0  0  0  0  0  0  0
   -8.9280   -2.7850  -22.5050 C   0  0  2  0  0  0  0  0  0  0  0  0
   -7.7900   -2.6530  -21.4770 C   0  0  0  0  0  0  0  0  0  0  0  0
   -7.2270   -3.5640  -20.9020 O   0  0  0  0  0  0  0  0  0  0  0  0
   -7.4850   -1.3230  -21.2870 N   0  0  0  0  0  0  0  0  0  0  0  0
   -6.6070   -0.9440  -20.2380 C   0  0  0  0  0  0  0  0  0  0  0  0
   -6.8590   -1.3320  -18.9460 C   0  0  0  0  0  0  0  0  0  0  0  0
   -6.1110   -0.9570  -17.8780 N   0  0  0  0  0  0  0  0  0  0  0  0
   -5.0740   -0.1840  -18.0980 C   0  0  0  0  0  0  0  0  0  0  0  0
   -4.6870    0.2780  -19.3890 C   0  0  0  0  0  0  0  0  0  0  0  0
   -3.5780    1.1460  -19.5810 C   0  0  0  0  0  0  0  0  0  0  0  0
   -3.2270    1.5570  -20.8390 C   0  0  0  0  0  0  0  0  0  0  0  0
   -3.9470    1.0920  -21.9620 C   0  0  0  0  0  0  0  0  0  0  0  0
   -5.0280    0.2600  -21.8000 C   0  0  0  0  0  0  0  0  0  0  0  0
   -5.4530   -0.1350  -20.5030 C   0  0  0  0  0  0  0  0  0  0  0  0
   -5.5660   -0.1120  -22.6640 H   0  0  0  0  0  0  0  0  0  0  0  0
   -3.6400    1.4020  -22.9570 H   0  0  0  0  0  0  0  0  0  0  0  0
   -2.3900    2.2340  -20.9880 H   0  0  0  0  0  0  0  0  0  0  0  0
   -3.0260    1.4820  -18.7070 H   0  0  0  0  0  0  0  0  0  0  0  0
   -4.4750    0.1090  -17.2340 H   0  0  0  0  0  0  0  0  0  0  0  0
   -7.7010   -1.9830  -18.7160 H   0  0  0  0  0  0  0  0  0  0  0  0
   -8.4150   -0.4260  -21.9650 C   0  0  0  0  0  0  0  0  0  0  0  0
   -9.0400   -1.3210  -23.0550 C   0  0  2  0  0  0  0  0  0  0  0  0
  -10.4580   -0.8880  -23.4680 C   0  0  0  0  0  0  0  0  0  0  0  0
  -10.4810    0.3200  -24.2490 N   0  0  0  0  0  0  0  0  0  0  0  0
  -10.8960    1.5360  -23.7720 C   0  0  0  0  0  0  0  0  0  0  0  0
  -11.6360    1.7440  -22.2010 S   0  0  0  0  0  0  0  0  0  0  0  0
  -11.6970    3.4500  -22.5330 C   0  0  0  0  0  0  0  0  0  0  0  0
  -11.2360    3.8230  -23.6780 N   0  0  0  0  0  0  0  0  0  0  0  0
  -10.7740    2.7400  -24.3990 C   0  0  0  0  0  0  0  0  0  0  0  0
  -10.1850    2.8720  -25.7730 C   0  0  0  0  0  0  0  0  0  0  0  0
  -10.7680    2.2940  -26.5040 H   0  0  0  0  0  0  0  0  0  0  0  0
   -9.1530    2.4920  -25.8050 H   0  0  0  0  0  0  0  0  0  0  0  0
  -10.1750    3.9160  -26.0950 H   0  0  0  0  0  0  0  0  0  0  0  0
  -12.1100    4.1300  -21.8010 H   0  0  0  0  0  0  0  0  0  0  0  0
  -10.0450    0.2940  -25.1600 H   0  0  0  0  0  0  0  0  0  0  0  0
  -11.0600   -0.6890  -22.5770 H   0  0  0  0  0  0  0  0  0  0  0  0
  -10.9330   -1.7080  -24.0210 H   0  0  0  0  0  0  0  0  0  0  0  0
   -8.3900   -1.2860  -23.9380 H   0  0  0  0  0  0  0  0  0  0  0  0
   -9.1670   -0.0450  -21.2560 H   0  0  0  0  0  0  0  0  0  0  0  0
   -7.8890    0.4390  -22.3830 H   0  0  0  0  0  0  0  0  0  0  0  0
   -8.6080   -3.8530  -23.5380 C   0  0  0  0  0  0  0  0  0  0  0  0
   -7.3000   -4.0370  -24.0110 C   0  0  0  0  0  0  0  0  0  0  0  0
   -7.0200   -5.0400  -24.9240 C   0  0  0  0  0  0  0  0  0  0  0  0
   -5.4020   -5.2410  -25.5250 Cl  0  0  0  0  0  0  0  0  0  0  0  0
   -8.0110   -5.9060  -25.3780 C   0  0  0  0  0  0  0  0  0  0  0  0
   -9.3010   -5.7270  -24.9210 C   0  0  0  0  0  0  0  0  0  0  0  0
   -9.6030   -4.7180  -24.0100 C   0  0  0  0  0  0  0  0  0  0  0  0
  -11.0280   -4.6090  -23.5660 C   0  0  0  0  0  0  0  0  0  0  0  0
  -11.9250   -5.2360  -24.1140 O   0  0  0  0  0  0  0  0  0  0  0  0
  -10.1160   -6.3690  -25.2370 H   0  0  0  0  0  0  0  0  0  0  0  0
   -7.7570   -6.7290  -26.0360 H   0  0  0  0  0  0  0  0  0  0  0  0
   -6.4850   -3.4410  -23.6170 H   0  0  0  0  0  0  0  0  0  0  0  0
  -10.5380   -2.3920  -21.1110 H   0  0  0  0  0  0  0  0  0  0  0  0
   -9.8310   -3.9940  -20.9940 H   0  0  0  0  0  0  0  0  0  0  0  0
  -12.6770   -3.5560  -20.9810 H   0  0  0  0  0  0  0  0  0  0  0  0
  -13.1650   -4.5770  -22.3820 H   0  0  0  0  0  0  0  0  0  0  0  0
  -13.5110   -1.2680  -21.1790 H   0  0  0  0  0  0  0  0  0  0  0  0
  -15.5610   -0.6880  -22.9470 H   0  0  0  0  0  0  0  0  0  0  0  0
  -14.4690    0.5570  -22.2960 H   0  0  0  0  0  0  0  0  0  0  0  0
  -14.1150   -0.2200  -23.8530 H   0  0  0  0  0  0  0  0  0  0  0  0
  1  2  1  0  0  0  0
  1 65  1  0  0  0  0
  1 66  1  0  0  0  0
  1 67  1  0  0  0  0
  2  3  1  0  0  0  0
  2 64  1  0  0  0  0
  3  4  2  0  0  0  0
  3  5  1  0  0  0  0
  5  6  1  0  0  0  0
  5 62  1  0  0  0  0
  5 63  1  0  0  0  0
  6  7  1  0  0  0  0
  6 55  1  0  0  0  0
  7  8  1  0  0  0  0
  7 60  1  0  0  0  0
  7 61  1  0  0  0  0
  8  9  1  1  0  0  0
  8 29  1  0  0  0  0
  8 48  1  0  0  0  0
  9 10  2  0  0  0  0
  9 11  1  0  0  0  0
 11 12  1  0  0  0  0
 11 28  1  0  0  0  0
 12 13  2  0  0  0  0
 12 21  1  0  0  0  0
 13 14  1  0  0  0  0
 13 27  1  0  0  0  0
 14 15  2  0  0  0  0
 15 16  1  0  0  0  0
 15 26  1  0  0  0  0
 16 17  2  0  0  0  0
 16 21  1  0  0  0  0
 17 18  1  0  0  0  0
 17 25  1  0  0  0  0
 18 19  2  0  0  0  0
 18 24  1  0  0  0  0
 19 20  1  0  0  0  0
 19 23  1  0  0  0  0
 20 21  2  0  0  0  0
 20 22  1  0  0  0  0
 28 29  1  0  0  0  0
 28 46  1  0  0  0  0
 28 47  1  0  0  0  0
 29 30  1  0  0  0  0
 29 45  1  6  0  0  0
 30 31  1  0  0  0  0
 30 43  1  0  0  0  0
 30 44  1  0  0  0  0
 31 32  1  0  0  0  0
 31 42  1  0  0  0  0
 32 33  1  0  0  0  0
 32 36  2  0  0  0  0
 33 34  1  0  0  0  0
 34 35  2  0  0  0  0
 34 41  1  0  0  0  0
 35 36  1  0  0  0  0
 36 37  1  0  0  0  0
 37 38  1  0  0  0  0
 37 39  1  0  0  0  0
 37 40  1  0  0  0  0
 48 49  2  0  0  0  0
 48 54  1  0  0  0  0
 49 50  1  0  0  0  0
 49 59  1  0  0  0  0
 50 51  1  0  0  0  0
 50 52  2  0  0  0  0
 52 53  1  0  0  0  0
 52 58  1  0  0  0  0
 53 54  2  0  0  0  0
 53 57  1  0  0  0  0
 54 55  1  0  0  0  0
 55 56  2  0  0  0  0
M  END
>  <MODEL>
       1

$$$$
