tmp_first_model_11_51.pdb
 OpenBabel08272522543D

 50 52  0  0  0  0  0  0  0  0999 V2000
   -9.3210   -1.2800  -26.2840 C   0  0  0  0  0  0  0  0  0  0  0  0
   -8.9950   -0.3930  -25.3460 C   0  0  0  0  0  0  0  0  0  0  0  0
   -9.5920   -0.4540  -23.9570 C   0  0  0  0  0  0  0  0  0  0  0  0
   -8.7680   -1.2500  -23.0530 N   0  0  0  0  0  0  0  0  0  0  0  0
   -8.0170   -0.5510  -22.1330 C   0  0  0  0  0  0  0  0  0  0  0  0
   -7.9860    0.6740  -22.0940 O   0  0  0  0  0  0  0  0  0  0  0  0
   -7.3120   -1.3570  -21.2750 N   0  0  0  0  0  0  0  0  0  0  0  0
   -6.5740   -0.8020  -20.2190 C   0  0  0  0  0  0  0  0  0  0  0  0
   -6.9160   -1.0510  -18.9170 C   0  0  0  0  0  0  0  0  0  0  0  0
   -6.2540   -0.5490  -17.8470 N   0  0  0  0  0  0  0  0  0  0  0  0
   -5.2130    0.2130  -18.0950 C   0  0  0  0  0  0  0  0  0  0  0  0
   -4.7480    0.5310  -19.4020 C   0  0  0  0  0  0  0  0  0  0  0  0
   -3.6050    1.3430  -19.6300 C   0  0  0  0  0  0  0  0  0  0  0  0
   -3.1770    1.6040  -20.9040 C   0  0  0  0  0  0  0  0  0  0  0  0
   -3.8700    1.0720  -22.0160 C   0  0  0  0  0  0  0  0  0  0  0  0
   -4.9800    0.2950  -21.8220 C   0  0  0  0  0  0  0  0  0  0  0  0
   -5.4490    0.0130  -20.5070 C   0  0  0  0  0  0  0  0  0  0  0  0
   -5.5280   -0.1000  -22.6690 H   0  0  0  0  0  0  0  0  0  0  0  0
   -3.5330    1.3010  -23.0250 H   0  0  0  0  0  0  0  0  0  0  0  0
   -2.3020    2.2260  -21.0640 H   0  0  0  0  0  0  0  0  0  0  0  0
   -3.0900    1.7580  -18.7690 H   0  0  0  0  0  0  0  0  0  0  0  0
   -4.6820    0.6120  -17.2310 H   0  0  0  0  0  0  0  0  0  0  0  0
   -7.7770   -1.6780  -18.6910 H   0  0  0  0  0  0  0  0  0  0  0  0
   -7.6450   -2.3060  -21.1610 H   0  0  0  0  0  0  0  0  0  0  0  0
   -8.4350   -2.5740  -23.4670 C   0  0  0  0  0  0  0  0  0  0  0  0
   -9.4510   -3.5050  -23.6650 C   0  0  0  0  0  0  0  0  0  0  0  0
   -9.1470   -4.7880  -24.1030 C   0  0  0  0  0  0  0  0  0  0  0  0
   -7.8360   -5.1500  -24.3930 C   0  0  0  0  0  0  0  0  0  0  0  0
   -6.8420   -4.1870  -24.2600 C   0  0  0  0  0  0  0  0  0  0  0  0
   -5.1990   -4.6030  -24.6680 Cl  0  0  0  0  0  0  0  0  0  0  0  0
   -7.1240   -2.9050  -23.8130 C   0  0  0  0  0  0  0  0  0  0  0  0
   -6.3290   -2.1670  -23.7570 H   0  0  0  0  0  0  0  0  0  0  0  0
   -7.5910   -6.1510  -24.7380 H   0  0  0  0  0  0  0  0  0  0  0  0
   -9.9490   -5.5100  -24.2400 H   0  0  0  0  0  0  0  0  0  0  0  0
  -10.4820   -3.2120  -23.4910 H   0  0  0  0  0  0  0  0  0  0  0  0
   -9.6990    0.5250  -23.4850 H   0  0  0  0  0  0  0  0  0  0  0  0
  -10.5810   -0.9250  -24.0100 H   0  0  0  0  0  0  0  0  0  0  0  0
   -7.8450    0.5220  -25.6960 C   0  0  0  0  0  0  0  0  0  0  0  0
   -7.2180    0.3440  -26.7310 O   0  0  0  0  0  0  0  0  0  0  0  0
   -7.5240    1.5300  -24.8430 N   0  0  0  0  0  0  0  0  0  0  0  0
   -6.2000    2.1240  -24.9710 C   0  0  0  0  0  0  0  0  0  0  0  0
   -6.0340    3.2030  -23.9160 C   0  0  0  0  0  0  0  0  0  0  0  0
   -6.7300    4.0350  -24.0870 H   0  0  0  0  0  0  0  0  0  0  0  0
   -6.2230    2.7720  -22.9210 H   0  0  0  0  0  0  0  0  0  0  0  0
   -5.0180    3.6100  -23.9210 H   0  0  0  0  0  0  0  0  0  0  0  0
   -6.0790    2.5050  -25.9900 H   0  0  0  0  0  0  0  0  0  0  0  0
   -5.4320    1.3430  -24.8450 H   0  0  0  0  0  0  0  0  0  0  0  0
   -7.9240    1.5620  -23.9100 H   0  0  0  0  0  0  0  0  0  0  0  0
   -8.8250   -1.2910  -27.2500 H   0  0  0  0  0  0  0  0  0  0  0  0
  -10.0850   -2.0370  -26.1150 H   0  0  0  0  0  0  0  0  0  0  0  0
  1  2  2  0  0  0  0
  1 49  1  0  0  0  0
  1 50  1  0  0  0  0
  2  3  1  0  0  0  0
  2 38  1  0  0  0  0
  3  4  1  0  0  0  0
  3 36  1  0  0  0  0
  3 37  1  0  0  0  0
  4  5  1  0  0  0  0
  4 25  1  0  0  0  0
  5  6  2  0  0  0  0
  5  7  1  0  0  0  0
  7  8  1  0  0  0  0
  7 24  1  0  0  0  0
  8  9  2  0  0  0  0
  8 17  1  0  0  0  0
  9 10  1  0  0  0  0
  9 23  1  0  0  0  0
 10 11  2  0  0  0  0
 11 12  1  0  0  0  0
 11 22  1  0  0  0  0
 12 13  2  0  0  0  0
 12 17  1  0  0  0  0
 13 14  1  0  0  0  0
 13 21  1  0  0  0  0
 14 15  2  0  0  0  0
 14 20  1  0  0  0  0
 15 16  1  0  0  0  0
 15 19  1  0  0  0  0
 16 17  2  0  0  0  0
 16 18  1  0  0  0  0
 25 26  2  0  0  0  0
 25 31  1  0  0  0  0
 26 27  1  0  0  0  0
 26 35  1  0  0  0  0
 27 28  2  0  0  0  0
 27 34  1  0  0  0  0
 28 29  1  0  0  0  0
 28 33  1  0  0  0  0
 29 30  1  0  0  0  0
 29 31  2  0  0  0  0
 31 32  1  0  0  0  0
 38 39  2  0  0  0  0
 38 40  1  0  0  0  0
 40 41  1  0  0  0  0
 40 48  1  0  0  0  0
 41 42  1  0  0  0  0
 41 46  1  0  0  0  0
 41 47  1  0  0  0  0
 42 43  1  0  0  0  0
 42 44  1  0  0  0  0
 42 45  1  0  0  0  0
M  END
>  <MODEL>
       1

$$$$
