tmp_first_model_16_17.pdb
 OpenBabel08282501503D

 38 41  0  0  1  0  0  0  0  0999 V2000
  -11.8790   -3.4250  -24.6620 C   0  0  0  0  0  0  0  0  0  0  0  0
  -10.4610   -2.9770  -24.2910 C   0  0  2  0  0  0  0  0  0  0  0  0
   -9.4880   -4.1670  -24.3120 C   0  0  0  0  0  0  0  0  0  0  0  0
   -8.0390   -3.7270  -24.0440 C   0  0  0  0  0  0  0  0  0  0  0  0
   -7.9870   -2.8340  -22.8840 C   0  0  0  0  0  0  0  0  0  0  0  0
   -6.8460   -2.4390  -22.1130 C   0  0  0  0  0  0  0  0  0  0  0  0
   -5.6920   -2.8060  -22.1820 O   0  5  0  0  0  0  0  0  0  0  0  0
   -7.3540   -1.4500  -21.2280 N   0  0  0  0  0  0  0  0  0  0  0  0
   -6.6050   -0.8360  -20.1980 C   0  0  0  0  0  0  0  0  0  0  0  0
   -6.9310   -1.0860  -18.8890 C   0  0  0  0  0  0  0  0  0  0  0  0
   -6.1810   -0.6820  -17.8390 N   0  0  0  0  0  0  0  0  0  0  0  0
   -5.1070    0.0280  -18.0890 C   0  0  0  0  0  0  0  0  0  0  0  0
   -4.7180    0.4610  -19.3940 C   0  0  0  0  0  0  0  0  0  0  0  0
   -3.6110    1.3310  -19.6200 C   0  0  0  0  0  0  0  0  0  0  0  0
   -3.2370    1.6650  -20.8960 C   0  0  0  0  0  0  0  0  0  0  0  0
   -3.9630    1.1660  -22.0000 C   0  0  0  0  0  0  0  0  0  0  0  0
   -5.0610    0.3640  -21.8060 C   0  0  0  0  0  0  0  0  0  0  0  0
   -5.4710   -0.0110  -20.4930 C   0  0  0  0  0  0  0  0  0  0  0  0
   -5.6140   -0.0090  -22.6610 H   0  0  0  0  0  0  0  0  0  0  0  0
   -3.6430    1.4160  -23.0100 H   0  0  0  0  0  0  0  0  0  0  0  0
   -2.3740    2.3050  -21.0730 H   0  0  0  0  0  0  0  0  0  0  0  0
   -3.0830    1.7360  -18.7610 H   0  0  0  0  0  0  0  0  0  0  0  0
   -4.4920    0.2810  -17.2230 H   0  0  0  0  0  0  0  0  0  0  0  0
   -7.8080   -1.6790  -18.6370 H   0  0  0  0  0  0  0  0  0  0  0  0
   -8.6980   -1.1810  -21.4990 C   0  0  0  0  0  0  0  0  0  0  0  0
   -9.3820   -0.3060  -21.0230 O   0  0  0  0  0  0  0  0  0  0  0  0
   -9.0580   -2.1190  -22.4570 N   0  0  0  0  0  0  0  0  0  0  0  0
  -10.4330   -2.3160  -22.9040 C   0  0  0  0  0  0  0  0  0  0  0  0
  -10.8950   -1.3240  -22.9130 H   0  0  0  0  0  0  0  0  0  0  0  0
  -10.9730   -2.9400  -22.1710 H   0  0  0  0  0  0  0  0  0  0  0  0
   -7.6320   -3.2170  -24.9340 H   0  0  0  0  0  0  0  0  0  0  0  0
   -7.3830   -4.5820  -23.8560 H   0  0  0  0  0  0  0  0  0  0  0  0
   -9.8090   -4.8850  -23.5400 H   0  0  0  0  0  0  0  0  0  0  0  0
   -9.5600   -4.6750  -25.2840 H   0  0  0  0  0  0  0  0  0  0  0  0
  -10.1170   -2.2300  -25.0260 H   0  0  0  0  0  0  0  0  0  0  0  0
  -12.2500   -4.1870  -23.9610 H   0  0  0  0  0  0  0  0  0  0  0  0
  -12.5880   -2.5870  -24.6620 H   0  0  0  0  0  0  0  0  0  0  0  0
  -11.8870   -3.8700  -25.6640 H   0  0  0  0  0  0  0  0  0  0  0  0
  1  2  1  0  0  0  0
  1 36  1  0  0  0  0
  1 37  1  0  0  0  0
  1 38  1  0  0  0  0
  2  3  1  0  0  0  0
  2 28  1  0  0  0  0
  2 35  1  6  0  0  0
  3  4  1  0  0  0  0
  3 33  1  0  0  0  0
  3 34  1  0  0  0  0
  4  5  1  0  0  0  0
  4 31  1  0  0  0  0
  4 32  1  0  0  0  0
  5  6  2  0  0  0  0
  5 27  1  0  0  0  0
  6  7  1  0  0  0  0
  6  8  1  0  0  0  0
  8  9  1  0  0  0  0
  8 25  1  0  0  0  0
  9 10  2  0  0  0  0
  9 18  1  0  0  0  0
 10 11  1  0  0  0  0
 10 24  1  0  0  0  0
 11 12  2  0  0  0  0
 12 13  1  0  0  0  0
 12 23  1  0  0  0  0
 13 14  2  0  0  0  0
 13 18  1  0  0  0  0
 14 15  1  0  0  0  0
 14 22  1  0  0  0  0
 15 16  2  0  0  0  0
 15 21  1  0  0  0  0
 16 17  1  0  0  0  0
 16 20  1  0  0  0  0
 17 18  2  0  0  0  0
 17 19  1  0  0  0  0
 25 26  2  0  0  0  0
 25 27  1  0  0  0  0
 27 28  1  0  0  0  0
 28 29  1  0  0  0  0
 28 30  1  0  0  0  0
M  CHG  1   7  -1
M  END
>  <MODEL>
       1

$$$$
