tmp_first_model_10_7.pdb
 OpenBabel08272522163D

 44 47  0  0  0  0  0  0  0  0999 V2000
  -13.9820   -0.8750  -23.5800 C   0  0  0  0  0  0  0  0  0  0  0  0
  -13.4120   -1.1030  -24.9710 C   0  0  0  0  0  0  0  0  0  0  0  0
  -11.8760   -2.0340  -24.9960 S   0  0  0  0  0  0  0  0  0  0  0  0
  -12.0950   -3.2760  -24.2630 O   0  0  0  0  0  0  0  0  0  0  0  0
  -11.4090   -2.0860  -26.3670 O   0  0  0  0  0  0  0  0  0  0  0  0
  -10.7920   -1.0250  -24.1670 N   0  0  0  0  0  0  0  0  0  0  0  0
   -9.3430   -1.3860  -24.2730 C   0  0  0  0  0  0  0  0  0  0  0  0
   -9.2420   -1.4890  -22.7370 C   0  0  0  0  0  0  0  0  0  0  0  0
  -10.7270   -1.0650  -22.6860 C   0  0  0  0  0  0  0  0  0  0  0  0
  -11.3920   -1.7810  -22.1990 H   0  0  0  0  0  0  0  0  0  0  0  0
  -10.8500   -0.0590  -22.2790 H   0  0  0  0  0  0  0  0  0  0  0  0
   -8.2940   -0.5270  -22.0540 C   0  0  0  0  0  0  0  0  0  0  0  0
   -8.2270    0.6690  -22.2150 O   0  0  0  0  0  0  0  0  0  0  0  0
   -7.5180   -1.2870  -21.1790 N   0  0  0  0  0  0  0  0  0  0  0  0
   -6.6730   -0.7740  -20.1660 C   0  0  0  0  0  0  0  0  0  0  0  0
   -6.9230   -1.1000  -18.8550 C   0  0  0  0  0  0  0  0  0  0  0  0
   -6.2210   -0.6180  -17.8030 N   0  0  0  0  0  0  0  0  0  0  0  0
   -5.2140    0.1740  -18.0770 C   0  0  0  0  0  0  0  0  0  0  0  0
   -4.8220    0.5440  -19.3940 C   0  0  0  0  0  0  0  0  0  0  0  0
   -3.7150    1.3980  -19.6150 C   0  0  0  0  0  0  0  0  0  0  0  0
   -3.4330    1.8480  -20.8720 C   0  0  0  0  0  0  0  0  0  0  0  0
   -4.2190    1.4290  -21.9700 C   0  0  0  0  0  0  0  0  0  0  0  0
   -5.2170    0.5040  -21.8000 C   0  0  0  0  0  0  0  0  0  0  0  0
   -5.5810    0.0840  -20.4880 C   0  0  0  0  0  0  0  0  0  0  0  0
   -5.7320    0.1140  -22.6730 H   0  0  0  0  0  0  0  0  0  0  0  0
   -4.0110    1.8270  -22.9580 H   0  0  0  0  0  0  0  0  0  0  0  0
   -2.6160    2.5430  -21.0330 H   0  0  0  0  0  0  0  0  0  0  0  0
   -3.1280    1.6990  -18.7540 H   0  0  0  0  0  0  0  0  0  0  0  0
   -4.6520    0.5740  -17.2340 H   0  0  0  0  0  0  0  0  0  0  0  0
   -7.7410   -1.7720  -18.6130 H   0  0  0  0  0  0  0  0  0  0  0  0
   -7.8800   -2.6420  -21.2230 C   0  0  0  0  0  0  0  0  0  0  0  0
   -7.3960   -3.5210  -20.5410 O   0  0  0  0  0  0  0  0  0  0  0  0
   -8.8540   -2.7600  -22.1740 N   0  0  0  0  0  0  0  0  0  0  0  0
   -9.5220   -4.0150  -22.4310 C   0  0  0  0  0  0  0  0  0  0  0  0
   -9.6570   -4.1710  -23.5040 H   0  0  0  0  0  0  0  0  0  0  0  0
  -10.4970   -4.0720  -21.9260 H   0  0  0  0  0  0  0  0  0  0  0  0
   -8.8640   -4.7980  -22.0540 H   0  0  0  0  0  0  0  0  0  0  0  0
   -8.7700   -0.5660  -24.7090 H   0  0  0  0  0  0  0  0  0  0  0  0
   -9.1470   -2.3250  -24.7980 H   0  0  0  0  0  0  0  0  0  0  0  0
  -14.0870   -1.7220  -25.5730 H   0  0  0  0  0  0  0  0  0  0  0  0
  -13.2220   -0.1710  -25.5090 H   0  0  0  0  0  0  0  0  0  0  0  0
  -14.0580   -1.8220  -23.0430 H   0  0  0  0  0  0  0  0  0  0  0  0
  -13.3720   -0.1780  -22.9940 H   0  0  0  0  0  0  0  0  0  0  0  0
  -14.9830   -0.4450  -23.6650 H   0  0  0  0  0  0  0  0  0  0  0  0
  1  2  1  0  0  0  0
  1 42  1  0  0  0  0
  1 43  1  0  0  0  0
  1 44  1  0  0  0  0
  2  3  1  0  0  0  0
  2 40  1  0  0  0  0
  2 41  1  0  0  0  0
  3  4  2  0  0  0  0
  3  5  2  0  0  0  0
  3  6  1  0  0  0  0
  6  7  1  0  0  0  0
  6  9  1  0  0  0  0
  7  8  1  0  0  0  0
  7 38  1  0  0  0  0
  7 39  1  0  0  0  0
  8  9  1  0  0  0  0
  8 12  1  0  0  0  0
  8 33  1  0  0  0  0
  9 10  1  0  0  0  0
  9 11  1  0  0  0  0
 12 13  2  0  0  0  0
 12 14  1  0  0  0  0
 14 15  1  0  0  0  0
 14 31  1  0  0  0  0
 15 16  2  0  0  0  0
 15 24  1  0  0  0  0
 16 17  1  0  0  0  0
 16 30  1  0  0  0  0
 17 18  2  0  0  0  0
 18 19  1  0  0  0  0
 18 29  1  0  0  0  0
 19 20  2  0  0  0  0
 19 24  1  0  0  0  0
 20 21  1  0  0  0  0
 20 28  1  0  0  0  0
 21 22  2  0  0  0  0
 21 27  1  0  0  0  0
 22 23  1  0  0  0  0
 22 26  1  0  0  0  0
 23 24  2  0  0  0  0
 23 25  1  0  0  0  0
 31 32  2  0  0  0  0
 31 33  1  0  0  0  0
 33 34  1  0  0  0  0
 34 35  1  0  0  0  0
 34 36  1  0  0  0  0
 34 37  1  0  0  0  0
M  END
>  <MODEL>
       1

$$$$
