tmp_first_model_14_67.pdb
 OpenBabel08282500413D

 58 63  0  0  1  0  0  0  0  0999 V2000
   -8.2890   -7.2000  -27.4880 C   0  0  0  0  0  0  0  0  0  0  0  0
   -7.7530   -5.8370  -27.1920 C   0  0  0  0  0  0  0  0  0  0  0  0
   -8.4650   -4.6130  -27.3290 C   0  0  0  0  0  0  0  0  0  0  0  0
   -7.5790   -3.6750  -26.9270 C   0  0  0  0  0  0  0  0  0  0  0  0
   -7.7240   -2.1930  -26.7980 C   0  0  0  0  0  0  0  0  0  0  0  0
   -8.5750   -1.7990  -25.6860 N   0  0  0  0  0  0  0  0  0  0  0  0
   -7.9500   -1.2490  -24.4920 C   0  0  0  0  0  0  0  0  0  0  0  0
   -8.7300   -1.5290  -23.1870 C   0  0  2  0  0  0  0  0  0  0  0  0
   -8.1300   -0.5970  -22.1100 C   0  0  0  0  0  0  0  0  0  0  0  0
   -8.2450    0.6080  -22.0400 O   0  0  0  0  0  0  0  0  0  0  0  0
   -7.3990   -1.3580  -21.2290 N   0  0  0  0  0  0  0  0  0  0  0  0
   -6.6080   -0.7900  -20.1980 C   0  0  0  0  0  0  0  0  0  0  0  0
   -6.9030   -1.0370  -18.8820 C   0  0  0  0  0  0  0  0  0  0  0  0
   -6.2160   -0.5210  -17.8360 N   0  0  0  0  0  0  0  0  0  0  0  0
   -5.1740    0.2250  -18.0960 C   0  0  0  0  0  0  0  0  0  0  0  0
   -4.7280    0.5310  -19.4110 C   0  0  0  0  0  0  0  0  0  0  0  0
   -3.5890    1.3490  -19.6410 C   0  0  0  0  0  0  0  0  0  0  0  0
   -3.1780    1.6180  -20.9160 C   0  0  0  0  0  0  0  0  0  0  0  0
   -3.8780    1.0680  -22.0140 C   0  0  0  0  0  0  0  0  0  0  0  0
   -4.9780    0.2750  -21.8150 C   0  0  0  0  0  0  0  0  0  0  0  0
   -5.4530    0.0040  -20.5010 C   0  0  0  0  0  0  0  0  0  0  0  0
   -5.5090   -0.1400  -22.6660 H   0  0  0  0  0  0  0  0  0  0  0  0
   -3.5520    1.2890  -23.0250 H   0  0  0  0  0  0  0  0  0  0  0  0
   -2.3220    2.2650  -21.0920 H   0  0  0  0  0  0  0  0  0  0  0  0
   -3.0720    1.7650  -18.7800 H   0  0  0  0  0  0  0  0  0  0  0  0
   -4.6250    0.6210  -17.2430 H   0  0  0  0  0  0  0  0  0  0  0  0
   -7.7420   -1.6780  -18.6140 H   0  0  0  0  0  0  0  0  0  0  0  0
   -7.3840   -2.7720  -21.5350 C   0  0  0  0  0  0  0  0  0  0  0  0
   -8.5150   -2.9560  -22.5580 C   0  0  2  0  0  0  0  0  0  0  0  0
   -8.2570   -4.1060  -23.5290 C   0  0  0  0  0  0  0  0  0  0  0  0
   -7.2960   -3.9660  -24.0340 H   0  0  0  0  0  0  0  0  0  0  0  0
   -9.0390   -4.1680  -24.2960 H   0  0  0  0  0  0  0  0  0  0  0  0
   -8.2190   -5.0640  -23.0000 H   0  0  0  0  0  0  0  0  0  0  0  0
   -9.4410   -3.1670  -22.0020 H   0  0  0  0  0  0  0  0  0  0  0  0
   -7.5600   -3.3260  -20.6180 H   0  0  0  0  0  0  0  0  0  0  0  0
   -6.4130   -3.0870  -21.9470 H   0  0  0  0  0  0  0  0  0  0  0  0
  -10.1940   -1.2400  -23.4390 C   0  0  0  0  0  0  0  0  0  0  0  0
  -11.0360   -0.9730  -22.3530 C   0  0  0  0  0  0  0  0  0  0  0  0
  -12.3900   -0.8530  -22.5900 C   0  0  0  0  0  0  0  0  0  0  0  0
  -13.2670   -0.7180  -21.5900 F   0  0  0  0  0  0  0  0  0  0  0  0
  -12.9390   -0.9500  -23.8580 C   0  0  0  0  0  0  0  0  0  0  0  0
  -12.1250   -1.3140  -24.9080 C   0  0  0  0  0  0  0  0  0  0  0  0
  -10.7520   -1.4170  -24.7090 C   0  0  0  0  0  0  0  0  0  0  0  0
   -9.9240   -1.7930  -25.8890 C   0  0  0  0  0  0  0  0  0  0  0  0
  -10.4370   -2.0980  -26.9620 O   0  0  0  0  0  0  0  0  0  0  0  0
  -12.5000   -1.6030  -25.8860 H   0  0  0  0  0  0  0  0  0  0  0  0
  -14.0040   -0.7890  -23.9400 H   0  0  0  0  0  0  0  0  0  0  0  0
  -10.6230   -0.8790  -21.3550 H   0  0  0  0  0  0  0  0  0  0  0  0
   -6.9510   -1.7000  -24.4240 H   0  0  0  0  0  0  0  0  0  0  0  0
   -7.8610   -0.1540  -24.5630 H   0  0  0  0  0  0  0  0  0  0  0  0
   -8.2040   -1.8210  -27.7070 H   0  0  0  0  0  0  0  0  0  0  0  0
   -6.7480   -1.7250  -26.6730 H   0  0  0  0  0  0  0  0  0  0  0  0
   -6.4210   -4.2580  -26.5860 O   0  0  0  0  0  0  0  0  0  0  0  0
   -6.5310   -5.6380  -26.7560 N   0  0  0  0  0  0  0  0  0  0  0  0
   -9.4850   -4.4630  -27.6480 H   0  0  0  0  0  0  0  0  0  0  0  0
   -9.3570   -7.2400  -27.2520 H   0  0  0  0  0  0  0  0  0  0  0  0
   -7.7650   -7.9420  -26.8900 H   0  0  0  0  0  0  0  0  0  0  0  0
   -8.1750   -7.4320  -28.5520 H   0  0  0  0  0  0  0  0  0  0  0  0
  1  2  1  0  0  0  0
  1 56  1  0  0  0  0
  1 57  1  0  0  0  0
  1 58  1  0  0  0  0
  2  3  1  0  0  0  0
  2 54  2  0  0  0  0
  3  4  2  0  0  0  0
  3 55  1  0  0  0  0
  4  5  1  0  0  0  0
  4 53  1  0  0  0  0
  5  6  1  0  0  0  0
  5 51  1  0  0  0  0
  5 52  1  0  0  0  0
  6  7  1  0  0  0  0
  6 44  1  0  0  0  0
  7  8  1  0  0  0  0
  7 49  1  0  0  0  0
  7 50  1  0  0  0  0
  8  9  1  1  0  0  0
  8 29  1  0  0  0  0
  8 37  1  0  0  0  0
  9 10  2  0  0  0  0
  9 11  1  0  0  0  0
 11 12  1  0  0  0  0
 11 28  1  0  0  0  0
 12 13  2  0  0  0  0
 12 21  1  0  0  0  0
 13 14  1  0  0  0  0
 13 27  1  0  0  0  0
 14 15  2  0  0  0  0
 15 16  1  0  0  0  0
 15 26  1  0  0  0  0
 16 17  2  0  0  0  0
 16 21  1  0  0  0  0
 17 18  1  0  0  0  0
 17 25  1  0  0  0  0
 18 19  2  0  0  0  0
 18 24  1  0  0  0  0
 19 20  1  0  0  0  0
 19 23  1  0  0  0  0
 20 21  2  0  0  0  0
 20 22  1  0  0  0  0
 28 29  1  0  0  0  0
 28 35  1  0  0  0  0
 28 36  1  0  0  0  0
 29 30  1  0  0  0  0
 29 34  1  1  0  0  0
 30 31  1  0  0  0  0
 30 32  1  0  0  0  0
 30 33  1  0  0  0  0
 37 38  2  0  0  0  0
 37 43  1  0  0  0  0
 38 39  1  0  0  0  0
 38 48  1  0  0  0  0
 39 40  1  0  0  0  0
 39 41  2  0  0  0  0
 41 42  1  0  0  0  0
 41 47  1  0  0  0  0
 42 43  2  0  0  0  0
 42 46  1  0  0  0  0
 43 44  1  0  0  0  0
 44 45  2  0  0  0  0
 53 54  1  0  0  0  0
M  END
>  <MODEL>
       1

$$$$
