tmp_first_model_18_0.pdb
 OpenBabel08282502533D

 66 71  0  0  1  0  0  0  0  0999 V2000
   -6.8140    0.0960  -29.3770 C   0  0  0  0  0  0  0  0  0  0  0  0
   -7.1590    0.6280  -28.0760 N   0  0  0  0  0  0  0  0  0  0  0  0
   -6.6090    0.0560  -26.9750 C   0  0  0  0  0  0  0  0  0  0  0  0
   -5.8120   -0.8730  -27.0190 O   0  0  0  0  0  0  0  0  0  0  0  0
   -7.1000    0.6570  -25.6610 C   0  0  0  0  0  0  0  0  0  0  0  0
   -8.2070   -0.1080  -25.1330 N   0  0  0  0  0  0  0  0  0  0  0  0
   -7.9390   -1.3930  -24.5200 C   0  0  0  0  0  0  0  0  0  0  0  0
   -8.7740   -1.5710  -23.2280 C   0  0  2  0  0  0  0  0  0  0  0  0
   -8.2260   -0.6140  -22.1290 C   0  0  0  0  0  0  0  0  0  0  0  0
   -8.3960    0.5790  -22.0350 O   0  0  0  0  0  0  0  0  0  0  0  0
   -7.4580   -1.3620  -21.2560 N   0  0  0  0  0  0  0  0  0  0  0  0
   -6.6450   -0.8060  -20.2340 C   0  0  0  0  0  0  0  0  0  0  0  0
   -6.9310   -1.0790  -18.9170 C   0  0  0  0  0  0  0  0  0  0  0  0
   -6.2510   -0.5870  -17.8520 N   0  0  0  0  0  0  0  0  0  0  0  0
   -5.2250    0.1910  -18.1100 C   0  0  0  0  0  0  0  0  0  0  0  0
   -4.7790    0.5100  -19.4240 C   0  0  0  0  0  0  0  0  0  0  0  0
   -3.6400    1.3340  -19.6310 C   0  0  0  0  0  0  0  0  0  0  0  0
   -3.2040    1.6060  -20.8990 C   0  0  0  0  0  0  0  0  0  0  0  0
   -3.8770    1.0610  -22.0140 C   0  0  0  0  0  0  0  0  0  0  0  0
   -4.9870    0.2690  -21.8400 C   0  0  0  0  0  0  0  0  0  0  0  0
   -5.4840   -0.0120  -20.5310 C   0  0  0  0  0  0  0  0  0  0  0  0
   -5.4870   -0.1440  -22.7120 H   0  0  0  0  0  0  0  0  0  0  0  0
   -3.5130    1.2700  -23.0160 H   0  0  0  0  0  0  0  0  0  0  0  0
   -2.3380    2.2410  -21.0560 H   0  0  0  0  0  0  0  0  0  0  0  0
   -3.1350    1.7420  -18.7590 H   0  0  0  0  0  0  0  0  0  0  0  0
   -4.6740    0.5970  -17.2620 H   0  0  0  0  0  0  0  0  0  0  0  0
   -7.7810   -1.7170  -18.6830 H   0  0  0  0  0  0  0  0  0  0  0  0
   -7.4060   -2.7680  -21.5900 C   0  0  0  0  0  0  0  0  0  0  0  0
   -8.5580   -2.9580  -22.5740 C   0  0  2  0  0  0  0  0  0  0  0  0
   -8.3330   -4.1300  -23.5170 C   0  0  0  0  0  0  0  0  0  0  0  0
   -9.4540   -4.3520  -24.3890 N   0  0  0  0  0  0  0  0  0  0  0  0
   -9.4440   -5.2750  -25.3760 C   0  0  0  0  0  0  0  0  0  0  0  0
   -8.3720   -6.1660  -25.5780 C   0  0  0  0  0  0  0  0  0  0  0  0
   -8.4950   -7.0390  -26.6380 C   0  0  0  0  0  0  0  0  0  0  0  0
   -9.5550   -7.0740  -27.4510 N   0  0  0  0  0  0  0  0  0  0  0  0
  -10.5060   -6.2010  -27.1460 C   0  0  0  0  0  0  0  0  0  0  0  0
  -10.5250   -5.3080  -26.1650 N   0  0  0  0  0  0  0  0  0  0  0  0
  -11.3900   -6.2040  -27.7780 H   0  0  0  0  0  0  0  0  0  0  0  0
   -7.7040   -7.7500  -26.8610 H   0  0  0  0  0  0  0  0  0  0  0  0
   -7.4890   -6.1750  -24.9510 H   0  0  0  0  0  0  0  0  0  0  0  0
  -10.2540   -3.7360  -24.3960 H   0  0  0  0  0  0  0  0  0  0  0  0
   -7.4260   -3.9520  -24.1140 H   0  0  0  0  0  0  0  0  0  0  0  0
   -8.1610   -5.0400  -22.9340 H   0  0  0  0  0  0  0  0  0  0  0  0
   -9.4490   -3.1840  -21.9850 H   0  0  0  0  0  0  0  0  0  0  0  0
   -7.5340   -3.3540  -20.6850 H   0  0  0  0  0  0  0  0  0  0  0  0
   -6.4390   -3.0530  -22.0290 H   0  0  0  0  0  0  0  0  0  0  0  0
  -10.2190   -1.2940  -23.5860 C   0  0  0  0  0  0  0  0  0  0  0  0
  -11.2700   -1.7880  -22.8010 C   0  0  0  0  0  0  0  0  0  0  0  0
  -12.5660   -1.3760  -23.0480 C   0  0  0  0  0  0  0  0  0  0  0  0
  -13.8130   -1.8880  -21.9470 Cl  0  0  0  0  0  0  0  0  0  0  0  0
  -12.8960   -0.5490  -24.1240 C   0  0  0  0  0  0  0  0  0  0  0  0
  -11.8680   -0.1040  -24.9310 C   0  0  0  0  0  0  0  0  0  0  0  0
  -10.5440   -0.4320  -24.6470 C   0  0  0  0  0  0  0  0  0  0  0  0
   -9.4810    0.2700  -25.4320 C   0  0  0  0  0  0  0  0  0  0  0  0
   -9.7310    1.1460  -26.2560 O   0  0  0  0  0  0  0  0  0  0  0  0
  -12.0530    0.5340  -25.7860 H   0  0  0  0  0  0  0  0  0  0  0  0
  -13.9290   -0.2640  -24.2990 H   0  0  0  0  0  0  0  0  0  0  0  0
  -11.1030   -2.4760  -21.9770 H   0  0  0  0  0  0  0  0  0  0  0  0
   -8.1770   -2.2050  -25.2220 H   0  0  0  0  0  0  0  0  0  0  0  0
   -6.8670   -1.4580  -24.3090 H   0  0  0  0  0  0  0  0  0  0  0  0
   -7.4360    1.6910  -25.7960 H   0  0  0  0  0  0  0  0  0  0  0  0
   -6.2830    0.6220  -24.9330 H   0  0  0  0  0  0  0  0  0  0  0  0
   -7.9980    1.1860  -27.9650 H   0  0  0  0  0  0  0  0  0  0  0  0
   -5.7370    0.2000  -29.5400 H   0  0  0  0  0  0  0  0  0  0  0  0
   -7.3420    0.6510  -30.1550 H   0  0  0  0  0  0  0  0  0  0  0  0
   -7.0720   -0.9680  -29.4480 H   0  0  0  0  0  0  0  0  0  0  0  0
  1  2  1  0  0  0  0
  1 64  1  0  0  0  0
  1 65  1  0  0  0  0
  1 66  1  0  0  0  0
  2  3  1  0  0  0  0
  2 63  1  0  0  0  0
  3  4  2  0  0  0  0
  3  5  1  0  0  0  0
  5  6  1  0  0  0  0
  5 61  1  0  0  0  0
  5 62  1  0  0  0  0
  6  7  1  0  0  0  0
  6 54  1  0  0  0  0
  7  8  1  0  0  0  0
  7 59  1  0  0  0  0
  7 60  1  0  0  0  0
  8  9  1  1  0  0  0
  8 29  1  0  0  0  0
  8 47  1  0  0  0  0
  9 10  2  0  0  0  0
  9 11  1  0  0  0  0
 11 12  1  0  0  0  0
 11 28  1  0  0  0  0
 12 13  2  0  0  0  0
 12 21  1  0  0  0  0
 13 14  1  0  0  0  0
 13 27  1  0  0  0  0
 14 15  2  0  0  0  0
 15 16  1  0  0  0  0
 15 26  1  0  0  0  0
 16 17  2  0  0  0  0
 16 21  1  0  0  0  0
 17 18  1  0  0  0  0
 17 25  1  0  0  0  0
 18 19  2  0  0  0  0
 18 24  1  0  0  0  0
 19 20  1  0  0  0  0
 19 23  1  0  0  0  0
 20 21  2  0  0  0  0
 20 22  1  0  0  0  0
 28 29  1  0  0  0  0
 28 45  1  0  0  0  0
 28 46  1  0  0  0  0
 29 30  1  0  0  0  0
 29 44  1  1  0  0  0
 30 31  1  0  0  0  0
 30 42  1  0  0  0  0
 30 43  1  0  0  0  0
 31 32  1  0  0  0  0
 31 41  1  0  0  0  0
 32 33  2  0  0  0  0
 32 37  1  0  0  0  0
 33 34  1  0  0  0  0
 33 40  1  0  0  0  0
 34 35  2  0  0  0  0
 34 39  1  0  0  0  0
 35 36  1  0  0  0  0
 36 37  2  0  0  0  0
 36 38  1  0  0  0  0
 47 48  2  0  0  0  0
 47 53  1  0  0  0  0
 48 49  1  0  0  0  0
 48 58  1  0  0  0  0
 49 50  1  0  0  0  0
 49 51  2  0  0  0  0
 51 52  1  0  0  0  0
 51 57  1  0  0  0  0
 52 53  2  0  0  0  0
 52 56  1  0  0  0  0
 53 54  1  0  0  0  0
 54 55  2  0  0  0  0
M  END
>  <MODEL>
       1

$$$$
