tmp_first_model_2_56.pdb
 OpenBabel08272517383D

 57 62  0  0  1  0  0  0  0  0999 V2000
  -10.3630   -0.8880  -23.3940 C   0  0  0  0  0  0  0  0  0  0  0  0
   -8.9690   -1.3370  -22.9690 C   0  0  1  0  0  0  0  0  0  0  0  0
   -8.3600   -0.4440  -21.8750 C   0  0  0  0  0  0  0  0  0  0  0  0
   -7.3910   -1.3160  -21.2360 N   0  0  0  0  0  0  0  0  0  0  0  0
   -6.5790   -0.8640  -20.1730 C   0  0  0  0  0  0  0  0  0  0  0  0
   -6.8910   -1.1460  -18.8670 C   0  0  0  0  0  0  0  0  0  0  0  0
   -6.2430   -0.6010  -17.8060 N   0  0  0  0  0  0  0  0  0  0  0  0
   -5.2390    0.2070  -18.0530 C   0  0  0  0  0  0  0  0  0  0  0  0
   -4.7710    0.5290  -19.3630 C   0  0  0  0  0  0  0  0  0  0  0  0
   -3.6500    1.3690  -19.6060 C   0  0  0  0  0  0  0  0  0  0  0  0
   -3.2410    1.6260  -20.8850 C   0  0  0  0  0  0  0  0  0  0  0  0
   -3.9260    1.0650  -21.9870 C   0  0  0  0  0  0  0  0  0  0  0  0
   -5.0140    0.2520  -21.7780 C   0  0  0  0  0  0  0  0  0  0  0  0
   -5.4610   -0.0250  -20.4610 C   0  0  0  0  0  0  0  0  0  0  0  0
   -5.5380   -0.1990  -22.6130 H   0  0  0  0  0  0  0  0  0  0  0  0
   -3.5930    1.2760  -22.9990 H   0  0  0  0  0  0  0  0  0  0  0  0
   -2.3780    2.2620  -21.0700 H   0  0  0  0  0  0  0  0  0  0  0  0
   -3.1220    1.7920  -18.7550 H   0  0  0  0  0  0  0  0  0  0  0  0
   -4.7340    0.6430  -17.1900 H   0  0  0  0  0  0  0  0  0  0  0  0
   -7.7090   -1.8250  -18.6330 H   0  0  0  0  0  0  0  0  0  0  0  0
   -7.6700   -2.6510  -21.4120 C   0  0  0  0  0  0  0  0  0  0  0  0
   -7.0770   -3.5500  -20.8440 O   0  0  0  0  0  0  0  0  0  0  0  0
   -8.8460   -2.7970  -22.3970 C   0  0  1  0  0  0  0  0  0  0  0  0
  -10.0740   -3.2150  -21.5410 C   0  0  0  0  0  0  0  0  0  0  0  0
  -11.1790   -3.8020  -22.2850 N   0  0  0  0  0  0  0  0  0  0  0  0
  -12.5630   -3.7900  -21.7780 C   0  0  0  0  0  0  0  0  0  0  0  0
  -13.4200   -2.8060  -22.5120 C   0  0  0  0  0  0  0  0  0  0  0  0
  -13.3910   -1.5640  -22.0470 N   0  0  0  0  0  0  0  0  0  0  0  0
  -13.9940   -0.6520  -22.8090 C   0  0  0  0  0  0  0  0  0  0  0  0
  -14.5780   -0.9630  -24.0220 C   0  0  0  0  0  0  0  0  0  0  0  0
  -14.6880   -2.3160  -24.3170 C   0  0  0  0  0  0  0  0  0  0  0  0
  -14.1300   -3.2500  -23.5580 N   0  0  0  0  0  0  0  0  0  0  0  0
  -15.2210   -2.6980  -25.1810 H   0  0  0  0  0  0  0  0  0  0  0  0
  -14.8710   -0.1620  -24.6780 H   0  0  0  0  0  0  0  0  0  0  0  0
  -13.9690    0.3700  -22.4460 H   0  0  0  0  0  0  0  0  0  0  0  0
  -12.5710   -3.5390  -20.7160 H   0  0  0  0  0  0  0  0  0  0  0  0
  -13.0150   -4.7610  -21.9570 H   0  0  0  0  0  0  0  0  0  0  0  0
  -10.9810   -4.5590  -23.4000 C   0  0  0  0  0  0  0  0  0  0  0  0
  -11.9290   -5.0830  -23.9610 O   0  0  0  0  0  0  0  0  0  0  0  0
   -9.5850   -4.6970  -23.9040 C   0  0  0  0  0  0  0  0  0  0  0  0
   -9.3370   -5.6880  -24.8560 C   0  0  0  0  0  0  0  0  0  0  0  0
   -8.0700   -5.8920  -25.3600 C   0  0  0  0  0  0  0  0  0  0  0  0
   -7.0600   -5.0630  -24.8890 C   0  0  0  0  0  0  0  0  0  0  0  0
   -5.8250   -5.2430  -25.3830 F   0  0  0  0  0  0  0  0  0  0  0  0
   -7.2710   -4.0740  -23.9460 C   0  0  0  0  0  0  0  0  0  0  0  0
   -8.5610   -3.8720  -23.4290 C   0  0  0  0  0  0  0  0  0  0  0  0
   -6.4210   -3.4820  -23.6250 H   0  0  0  0  0  0  0  0  0  0  0  0
   -7.8570   -6.6650  -26.0950 H   0  0  0  0  0  0  0  0  0  0  0  0
  -10.1700   -6.2990  -25.1850 H   0  0  0  0  0  0  0  0  0  0  0  0
   -9.7080   -3.9300  -20.8020 H   0  0  0  0  0  0  0  0  0  0  0  0
  -10.4360   -2.3270  -21.0100 H   0  0  0  0  0  0  0  0  0  0  0  0
   -9.1170   -0.1090  -21.1450 H   0  0  0  0  0  0  0  0  0  0  0  0
   -7.8660    0.4470  -22.2730 H   0  0  0  0  0  0  0  0  0  0  0  0
   -8.2970   -1.3060  -23.8380 H   0  0  0  0  0  0  0  0  0  0  0  0
  -11.0270   -0.7780  -22.5290 H   0  0  0  0  0  0  0  0  0  0  0  0
  -10.3250    0.0830  -23.9010 H   0  0  0  0  0  0  0  0  0  0  0  0
  -10.8200   -1.6190  -24.0690 H   0  0  0  0  0  0  0  0  0  0  0  0
  1  2  1  0  0  0  0
  1 55  1  0  0  0  0
  1 56  1  0  0  0  0
  1 57  1  0  0  0  0
  2  3  1  0  0  0  0
  2 23  1  0  0  0  0
  2 54  1  6  0  0  0
  3  4  1  0  0  0  0
  3 52  1  0  0  0  0
  3 53  1  0  0  0  0
  4  5  1  0  0  0  0
  4 21  1  0  0  0  0
  5  6  2  0  0  0  0
  5 14  1  0  0  0  0
  6  7  1  0  0  0  0
  6 20  1  0  0  0  0
  7  8  2  0  0  0  0
  8  9  1  0  0  0  0
  8 19  1  0  0  0  0
  9 10  2  0  0  0  0
  9 14  1  0  0  0  0
 10 11  1  0  0  0  0
 10 18  1  0  0  0  0
 11 12  2  0  0  0  0
 11 17  1  0  0  0  0
 12 13  1  0  0  0  0
 12 16  1  0  0  0  0
 13 14  2  0  0  0  0
 13 15  1  0  0  0  0
 21 22  2  0  0  0  0
 23 21  1  1  0  0  0
 23 24  1  0  0  0  0
 23 46  1  0  0  0  0
 24 25  1  0  0  0  0
 24 50  1  0  0  0  0
 24 51  1  0  0  0  0
 25 26  1  0  0  0  0
 25 38  1  0  0  0  0
 26 27  1  0  0  0  0
 26 36  1  0  0  0  0
 26 37  1  0  0  0  0
 27 28  2  0  0  0  0
 27 32  1  0  0  0  0
 28 29  1  0  0  0  0
 29 30  2  0  0  0  0
 29 35  1  0  0  0  0
 30 31  1  0  0  0  0
 30 34  1  0  0  0  0
 31 32  2  0  0  0  0
 31 33  1  0  0  0  0
 38 39  2  0  0  0  0
 38 40  1  0  0  0  0
 40 41  2  0  0  0  0
 40 46  1  0  0  0  0
 41 42  1  0  0  0  0
 41 49  1  0  0  0  0
 42 43  2  0  0  0  0
 42 48  1  0  0  0  0
 43 44  1  0  0  0  0
 43 45  1  0  0  0  0
 45 46  2  0  0  0  0
 45 47  1  0  0  0  0
M  END
>  <MODEL>
       1

$$$$
