tmp_first_model_19_31.pdb
 OpenBabel08282503233D

 66 71  0  0  1  0  0  0  0  0999 V2000
   -7.4420    3.3640  -21.8200 C   0  0  0  0  0  0  0  0  0  0  0  0
   -8.3370    2.8710  -22.8550 N   0  0  0  0  0  0  0  0  0  0  0  0
   -7.7810    2.1660  -23.8820 C   0  0  0  0  0  0  0  0  0  0  0  0
   -6.5740    2.0340  -24.0200 O   0  0  0  0  0  0  0  0  0  0  0  0
   -8.7680    1.5550  -24.8770 C   0  0  0  0  0  0  0  0  0  0  0  0
   -9.4410    0.4040  -24.3160 N   0  0  0  0  0  0  0  0  0  0  0  0
   -8.6990   -0.8360  -24.1670 C   0  0  0  0  0  0  0  0  0  0  0  0
   -9.0740   -1.5700  -22.8560 C   0  0  2  0  0  0  0  0  0  0  0  0
   -8.5530   -0.7750  -21.6370 C   0  0  0  0  0  0  0  0  0  0  0  0
   -9.0510    0.2110  -21.1350 O   0  0  0  0  0  0  0  0  0  0  0  0
   -7.3980   -1.3770  -21.2010 N   0  0  0  0  0  0  0  0  0  0  0  0
   -6.6060   -0.8070  -20.1810 C   0  0  0  0  0  0  0  0  0  0  0  0
   -6.9220   -1.0460  -18.8700 C   0  0  0  0  0  0  0  0  0  0  0  0
   -6.2210   -0.5650  -17.8170 N   0  0  0  0  0  0  0  0  0  0  0  0
   -5.1830    0.1940  -18.0810 C   0  0  0  0  0  0  0  0  0  0  0  0
   -4.7410    0.5160  -19.3970 C   0  0  0  0  0  0  0  0  0  0  0  0
   -3.6120    1.3420  -19.6410 C   0  0  0  0  0  0  0  0  0  0  0  0
   -3.2320    1.6460  -20.9180 C   0  0  0  0  0  0  0  0  0  0  0  0
   -3.9600    1.1430  -22.0200 C   0  0  0  0  0  0  0  0  0  0  0  0
   -5.0570    0.3400  -21.8130 C   0  0  0  0  0  0  0  0  0  0  0  0
   -5.4730    0.0020  -20.4950 C   0  0  0  0  0  0  0  0  0  0  0  0
   -5.6230   -0.0170  -22.6700 H   0  0  0  0  0  0  0  0  0  0  0  0
   -3.6620    1.3960  -23.0320 H   0  0  0  0  0  0  0  0  0  0  0  0
   -2.3730    2.2860  -21.0930 H   0  0  0  0  0  0  0  0  0  0  0  0
   -3.0760    1.7420  -18.7830 H   0  0  0  0  0  0  0  0  0  0  0  0
   -4.6240    0.5920  -17.2330 H   0  0  0  0  0  0  0  0  0  0  0  0
   -7.7880   -1.6610  -18.6360 H   0  0  0  0  0  0  0  0  0  0  0  0
   -7.0230   -2.5640  -21.9290 C   0  0  0  0  0  0  0  0  0  0  0  0
   -8.3060   -2.9190  -22.7020 C   0  0  2  0  0  0  0  0  0  0  0  0
   -8.0230   -3.7230  -23.9870 C   0  0  0  0  0  0  0  0  0  0  0  0
   -7.4990   -5.0510  -23.7540 N   0  0  0  0  0  0  0  0  0  0  0  0
   -6.2010   -5.3690  -23.5200 C   0  0  0  0  0  0  0  0  0  0  0  0
   -5.1040   -4.5930  -23.9350 C   0  0  0  0  0  0  0  0  0  0  0  0
   -3.8540   -5.0620  -23.5830 C   0  0  0  0  0  0  0  0  0  0  0  0
   -3.6460   -6.1820  -22.8800 N   0  0  0  0  0  0  0  0  0  0  0  0
   -4.7530   -6.8500  -22.5760 C   0  0  0  0  0  0  0  0  0  0  0  0
   -6.0040   -6.5300  -22.8710 N   0  0  0  0  0  0  0  0  0  0  0  0
   -4.6340   -7.7760  -22.0080 H   0  0  0  0  0  0  0  0  0  0  0  0
   -2.9580   -4.5130  -23.8680 H   0  0  0  0  0  0  0  0  0  0  0  0
   -5.2240   -3.6780  -24.5050 H   0  0  0  0  0  0  0  0  0  0  0  0
   -8.1310   -5.7770  -23.4540 H   0  0  0  0  0  0  0  0  0  0  0  0
   -7.3030   -3.1800  -24.6050 H   0  0  0  0  0  0  0  0  0  0  0  0
   -8.9340   -3.8270  -24.5880 H   0  0  0  0  0  0  0  0  0  0  0  0
   -8.9110   -3.5550  -22.0520 H   0  0  0  0  0  0  0  0  0  0  0  0
   -6.1770   -2.3660  -22.6070 H   0  0  0  0  0  0  0  0  0  0  0  0
   -6.7150   -3.3490  -21.2330 H   0  0  0  0  0  0  0  0  0  0  0  0
  -10.5840   -1.6510  -22.7850 C   0  0  0  0  0  0  0  0  0  0  0  0
  -11.2080   -2.5800  -21.9510 C   0  0  0  0  0  0  0  0  0  0  0  0
  -12.5860   -2.6100  -21.8610 C   0  0  0  0  0  0  0  0  0  0  0  0
  -13.3230   -3.7580  -20.7840 Cl  0  0  0  0  0  0  0  0  0  0  0  0
  -13.3950   -1.7330  -22.5840 C   0  0  0  0  0  0  0  0  0  0  0  0
  -12.7820   -0.7740  -23.3620 C   0  0  0  0  0  0  0  0  0  0  0  0
  -11.3930   -0.7070  -23.4300 C   0  0  0  0  0  0  0  0  0  0  0  0
  -10.7940    0.4550  -24.1480 C   0  0  0  0  0  0  0  0  0  0  0  0
  -11.4700    1.4030  -24.5280 O   0  0  0  0  0  0  0  0  0  0  0  0
  -13.3510   -0.0380  -23.9180 H   0  0  0  0  0  0  0  0  0  0  0  0
  -14.4750   -1.7930  -22.5050 H   0  0  0  0  0  0  0  0  0  0  0  0
  -10.6330   -3.2740  -21.3480 H   0  0  0  0  0  0  0  0  0  0  0  0
   -7.6280   -0.6020  -24.1910 H   0  0  0  0  0  0  0  0  0  0  0  0
   -8.9230   -1.5000  -25.0120 H   0  0  0  0  0  0  0  0  0  0  0  0
   -9.5480    2.2750  -25.1460 H   0  0  0  0  0  0  0  0  0  0  0  0
   -8.2020    1.2710  -25.7700 H   0  0  0  0  0  0  0  0  0  0  0  0
   -9.2970    2.6710  -22.5850 H   0  0  0  0  0  0  0  0  0  0  0  0
   -6.9610    2.5310  -21.2750 H   0  0  0  0  0  0  0  0  0  0  0  0
   -7.9850    4.0170  -21.1310 H   0  0  0  0  0  0  0  0  0  0  0  0
   -6.6530    3.9570  -22.2920 H   0  0  0  0  0  0  0  0  0  0  0  0
  1  2  1  0  0  0  0
  1 64  1  0  0  0  0
  1 65  1  0  0  0  0
  1 66  1  0  0  0  0
  2  3  1  0  0  0  0
  2 63  1  0  0  0  0
  3  4  2  0  0  0  0
  3  5  1  0  0  0  0
  5  6  1  0  0  0  0
  5 61  1  0  0  0  0
  5 62  1  0  0  0  0
  6  7  1  0  0  0  0
  6 54  1  0  0  0  0
  7  8  1  0  0  0  0
  7 59  1  0  0  0  0
  7 60  1  0  0  0  0
  8  9  1  1  0  0  0
  8 29  1  0  0  0  0
  8 47  1  0  0  0  0
  9 10  2  0  0  0  0
  9 11  1  0  0  0  0
 11 12  1  0  0  0  0
 11 28  1  0  0  0  0
 12 13  2  0  0  0  0
 12 21  1  0  0  0  0
 13 14  1  0  0  0  0
 13 27  1  0  0  0  0
 14 15  2  0  0  0  0
 15 16  1  0  0  0  0
 15 26  1  0  0  0  0
 16 17  2  0  0  0  0
 16 21  1  0  0  0  0
 17 18  1  0  0  0  0
 17 25  1  0  0  0  0
 18 19  2  0  0  0  0
 18 24  1  0  0  0  0
 19 20  1  0  0  0  0
 19 23  1  0  0  0  0
 20 21  2  0  0  0  0
 20 22  1  0  0  0  0
 28 29  1  0  0  0  0
 28 45  1  0  0  0  0
 28 46  1  0  0  0  0
 29 30  1  0  0  0  0
 29 44  1  1  0  0  0
 30 31  1  0  0  0  0
 30 42  1  0  0  0  0
 30 43  1  0  0  0  0
 31 32  1  0  0  0  0
 31 41  1  0  0  0  0
 32 33  2  0  0  0  0
 32 37  1  0  0  0  0
 33 34  1  0  0  0  0
 33 40  1  0  0  0  0
 34 35  2  0  0  0  0
 34 39  1  0  0  0  0
 35 36  1  0  0  0  0
 36 37  2  0  0  0  0
 36 38  1  0  0  0  0
 47 48  2  0  0  0  0
 47 53  1  0  0  0  0
 48 49  1  0  0  0  0
 48 58  1  0  0  0  0
 49 50  1  0  0  0  0
 49 51  2  0  0  0  0
 51 52  1  0  0  0  0
 51 57  1  0  0  0  0
 52 53  2  0  0  0  0
 52 56  1  0  0  0  0
 53 54  1  0  0  0  0
 54 55  2  0  0  0  0
M  END
>  <MODEL>
       1

$$$$
