tmp_first_model_20_78.pdb
 OpenBabel08282503553D

 56 60  0  0  1  0  0  0  0  0999 V2000
  -14.6190   -0.5690  -22.6530 C   0  0  0  0  0  0  0  0  0  0  0  0
  -13.6610   -1.4510  -21.9980 N   0  0  0  0  0  0  0  0  0  0  0  0
  -13.5830   -2.7390  -22.4480 C   0  0  0  0  0  0  0  0  0  0  0  0
  -14.3560   -3.1220  -23.3150 O   0  0  0  0  0  0  0  0  0  0  0  0
  -12.5640   -3.7330  -21.8650 C   0  0  0  0  0  0  0  0  0  0  0  0
  -11.2030   -3.6970  -22.4250 N   0  0  0  0  0  0  0  0  0  0  0  0
  -10.0630   -3.2820  -21.6060 C   0  0  0  0  0  0  0  0  0  0  0  0
   -8.8260   -2.8210  -22.4280 C   0  0  2  0  0  0  0  0  0  0  0  0
   -7.6330   -2.6500  -21.4670 C   0  0  0  0  0  0  0  0  0  0  0  0
   -6.9420   -3.5280  -20.9920 O   0  0  0  0  0  0  0  0  0  0  0  0
   -7.4260   -1.3070  -21.2430 N   0  0  0  0  0  0  0  0  0  0  0  0
   -6.6060   -0.8490  -20.1850 C   0  0  0  0  0  0  0  0  0  0  0  0
   -6.9170   -1.1150  -18.8760 C   0  0  0  0  0  0  0  0  0  0  0  0
   -6.2450   -0.5950  -17.8160 N   0  0  0  0  0  0  0  0  0  0  0  0
   -5.2190    0.1810  -18.0700 C   0  0  0  0  0  0  0  0  0  0  0  0
   -4.7620    0.5010  -19.3820 C   0  0  0  0  0  0  0  0  0  0  0  0
   -3.6270    1.3220  -19.6190 C   0  0  0  0  0  0  0  0  0  0  0  0
   -3.2300    1.5980  -20.9000 C   0  0  0  0  0  0  0  0  0  0  0  0
   -3.9390    1.0650  -22.0010 C   0  0  0  0  0  0  0  0  0  0  0  0
   -5.0360    0.2650  -21.7970 C   0  0  0  0  0  0  0  0  0  0  0  0
   -5.4760   -0.0250  -20.4790 C   0  0  0  0  0  0  0  0  0  0  0  0
   -5.5770   -0.1570  -22.6370 H   0  0  0  0  0  0  0  0  0  0  0  0
   -3.6170    1.2980  -23.0130 H   0  0  0  0  0  0  0  0  0  0  0  0
   -2.3670    2.2340  -21.0840 H   0  0  0  0  0  0  0  0  0  0  0  0
   -3.0850    1.7220  -18.7670 H   0  0  0  0  0  0  0  0  0  0  0  0
   -4.6910    0.5990  -17.2120 H   0  0  0  0  0  0  0  0  0  0  0  0
   -7.7500   -1.7690  -18.6300 H   0  0  0  0  0  0  0  0  0  0  0  0
   -8.4100   -0.4580  -21.8880 C   0  0  0  0  0  0  0  0  0  0  0  0
   -8.9860   -1.3620  -22.9900 C   0  0  2  0  0  0  0  0  0  0  0  0
  -10.3960   -0.9650  -23.4090 C   0  0  0  0  0  0  0  0  0  0  0  0
  -10.4060    0.0160  -23.8910 H   0  0  0  0  0  0  0  0  0  0  0  0
  -10.8150   -1.7020  -24.1000 H   0  0  0  0  0  0  0  0  0  0  0  0
  -11.0580   -0.9110  -22.5410 H   0  0  0  0  0  0  0  0  0  0  0  0
   -8.3210   -1.3050  -23.8640 H   0  0  0  0  0  0  0  0  0  0  0  0
   -9.1860   -0.1450  -21.1700 H   0  0  0  0  0  0  0  0  0  0  0  0
   -7.9420    0.4520  -22.2770 H   0  0  0  0  0  0  0  0  0  0  0  0
   -8.5290   -3.8710  -23.4770 C   0  0  0  0  0  0  0  0  0  0  0  0
   -7.2410   -4.0500  -24.0020 C   0  0  0  0  0  0  0  0  0  0  0  0
   -7.0120   -5.0250  -24.9570 C   0  0  0  0  0  0  0  0  0  0  0  0
   -5.4150   -5.2330  -25.6060 Cl  0  0  0  0  0  0  0  0  0  0  0  0
   -8.0370   -5.8470  -25.4230 C   0  0  0  0  0  0  0  0  0  0  0  0
   -9.3120   -5.6490  -24.9300 C   0  0  0  0  0  0  0  0  0  0  0  0
   -9.5600   -4.6720  -23.9660 C   0  0  0  0  0  0  0  0  0  0  0  0
  -10.9770   -4.5190  -23.5080 C   0  0  0  0  0  0  0  0  0  0  0  0
  -11.8700   -5.1070  -24.0900 O   0  0  0  0  0  0  0  0  0  0  0  0
  -10.1540   -6.2330  -25.2910 H   0  0  0  0  0  0  0  0  0  0  0  0
   -7.8340   -6.6190  -26.1590 H   0  0  0  0  0  0  0  0  0  0  0  0
   -6.4080   -3.4520  -23.6500 H   0  0  0  0  0  0  0  0  0  0  0  0
   -9.7400   -4.0990  -20.9470 H   0  0  0  0  0  0  0  0  0  0  0  0
  -10.3930   -2.4440  -20.9930 H   0  0  0  0  0  0  0  0  0  0  0  0
  -12.5600   -3.7510  -20.7640 H   0  0  0  0  0  0  0  0  0  0  0  0
  -13.0140   -4.6560  -22.2280 H   0  0  0  0  0  0  0  0  0  0  0  0
  -13.3220   -1.1710  -21.0930 H   0  0  0  0  0  0  0  0  0  0  0  0
  -15.5920   -1.0490  -22.7600 H   0  0  0  0  0  0  0  0  0  0  0  0
  -14.7390    0.3490  -22.0860 H   0  0  0  0  0  0  0  0  0  0  0  0
  -14.2870   -0.2840  -23.6540 H   0  0  0  0  0  0  0  0  0  0  0  0
  1  2  1  0  0  0  0
  1 54  1  0  0  0  0
  1 55  1  0  0  0  0
  1 56  1  0  0  0  0
  2  3  1  0  0  0  0
  2 53  1  0  0  0  0
  3  4  2  0  0  0  0
  3  5  1  0  0  0  0
  5  6  1  0  0  0  0
  5 51  1  0  0  0  0
  5 52  1  0  0  0  0
  6  7  1  0  0  0  0
  6 44  1  0  0  0  0
  7  8  1  0  0  0  0
  7 49  1  0  0  0  0
  7 50  1  0  0  0  0
  8  9  1  1  0  0  0
  8 29  1  0  0  0  0
  8 37  1  0  0  0  0
  9 10  2  0  0  0  0
  9 11  1  0  0  0  0
 11 12  1  0  0  0  0
 11 28  1  0  0  0  0
 12 13  2  0  0  0  0
 12 21  1  0  0  0  0
 13 14  1  0  0  0  0
 13 27  1  0  0  0  0
 14 15  2  0  0  0  0
 15 16  1  0  0  0  0
 15 26  1  0  0  0  0
 16 17  2  0  0  0  0
 16 21  1  0  0  0  0
 17 18  1  0  0  0  0
 17 25  1  0  0  0  0
 18 19  2  0  0  0  0
 18 24  1  0  0  0  0
 19 20  1  0  0  0  0
 19 23  1  0  0  0  0
 20 21  2  0  0  0  0
 20 22  1  0  0  0  0
 28 29  1  0  0  0  0
 28 35  1  0  0  0  0
 28 36  1  0  0  0  0
 29 30  1  0  0  0  0
 29 34  1  6  0  0  0
 30 31  1  0  0  0  0
 30 32  1  0  0  0  0
 30 33  1  0  0  0  0
 37 38  2  0  0  0  0
 37 43  1  0  0  0  0
 38 39  1  0  0  0  0
 38 48  1  0  0  0  0
 39 40  1  0  0  0  0
 39 41  2  0  0  0  0
 41 42  1  0  0  0  0
 41 47  1  0  0  0  0
 42 43  2  0  0  0  0
 42 46  1  0  0  0  0
 43 44  1  0  0  0  0
 44 45  2  0  0  0  0
M  END
>  <MODEL>
       1

$$$$
