tmp_first_model_16_71.pdb
 OpenBabel08282501503D

 50 54  0  0  1  0  0  0  0  0999 V2000
  -10.4020   -0.9820  -23.4100 C   0  0  0  0  0  0  0  0  0  0  0  0
   -8.9930   -1.4120  -23.0110 C   0  0  1  0  0  0  0  0  0  0  0  0
   -8.3710   -0.5080  -21.9330 C   0  0  0  0  0  0  0  0  0  0  0  0
   -7.4090   -1.3820  -21.2810 N   0  0  0  0  0  0  0  0  0  0  0  0
   -6.5660   -0.9560  -20.2280 C   0  0  0  0  0  0  0  0  0  0  0  0
   -6.8570   -1.2910  -18.9290 C   0  0  0  0  0  0  0  0  0  0  0  0
   -6.1260   -0.8870  -17.8620 N   0  0  0  0  0  0  0  0  0  0  0  0
   -5.0810   -0.1280  -18.0900 C   0  0  0  0  0  0  0  0  0  0  0  0
   -4.6820    0.3160  -19.3860 C   0  0  0  0  0  0  0  0  0  0  0  0
   -3.5810    1.1900  -19.5900 C   0  0  0  0  0  0  0  0  0  0  0  0
   -3.2250    1.5760  -20.8550 C   0  0  0  0  0  0  0  0  0  0  0  0
   -3.9380    1.0900  -21.9760 C   0  0  0  0  0  0  0  0  0  0  0  0
   -5.0130    0.2520  -21.8030 C   0  0  0  0  0  0  0  0  0  0  0  0
   -5.4280   -0.1300  -20.4990 C   0  0  0  0  0  0  0  0  0  0  0  0
   -5.5630   -0.1320  -22.6570 H   0  0  0  0  0  0  0  0  0  0  0  0
   -3.6270    1.3770  -22.9770 H   0  0  0  0  0  0  0  0  0  0  0  0
   -2.3860    2.2500  -21.0120 H   0  0  0  0  0  0  0  0  0  0  0  0
   -3.0460    1.5500  -18.7160 H   0  0  0  0  0  0  0  0  0  0  0  0
   -4.4840    0.1600  -17.2230 H   0  0  0  0  0  0  0  0  0  0  0  0
   -7.7160   -1.9180  -18.6940 H   0  0  0  0  0  0  0  0  0  0  0  0
   -7.7080   -2.7190  -21.4480 C   0  0  0  0  0  0  0  0  0  0  0  0
   -7.1140   -3.6170  -20.8850 O   0  0  0  0  0  0  0  0  0  0  0  0
   -8.8760   -2.8690  -22.4400 C   0  0  1  0  0  0  0  0  0  0  0  0
  -10.1240   -3.2830  -21.6280 C   0  0  0  0  0  0  0  0  0  0  0  0
  -11.2420   -3.7140  -22.4550 N   0  0  0  0  0  0  0  0  0  0  0  0
  -12.6100   -3.5120  -22.0180 C   0  0  0  0  0  0  0  0  0  0  0  0
  -13.3080   -2.4540  -22.7690 C   0  0  0  0  0  0  0  0  0  0  0  0
  -13.8760   -1.6190  -23.3320 N   0  0  0  0  0  0  0  0  0  0  0  0
  -12.6430   -3.2740  -20.9520 H   0  0  0  0  0  0  0  0  0  0  0  0
  -13.1650   -4.4380  -22.1670 H   0  0  0  0  0  0  0  0  0  0  0  0
  -11.0460   -4.5680  -23.5160 C   0  0  0  0  0  0  0  0  0  0  0  0
  -11.9750   -5.1090  -24.0910 O   0  0  0  0  0  0  0  0  0  0  0  0
   -9.6200   -4.7620  -23.9410 C   0  0  0  0  0  0  0  0  0  0  0  0
   -9.3570   -5.7700  -24.8650 C   0  0  0  0  0  0  0  0  0  0  0  0
   -8.0800   -5.9600  -25.3570 C   0  0  0  0  0  0  0  0  0  0  0  0
   -7.0670   -5.1070  -24.9280 C   0  0  0  0  0  0  0  0  0  0  0  0
   -5.8260   -5.2780  -25.4170 F   0  0  0  0  0  0  0  0  0  0  0  0
   -7.2920   -4.1170  -23.9900 C   0  0  0  0  0  0  0  0  0  0  0  0
   -8.5870   -3.9400  -23.4740 C   0  0  0  0  0  0  0  0  0  0  0  0
   -6.4440   -3.5460  -23.6190 H   0  0  0  0  0  0  0  0  0  0  0  0
   -7.8590   -6.7650  -26.0470 H   0  0  0  0  0  0  0  0  0  0  0  0
  -10.1930   -6.3960  -25.1620 H   0  0  0  0  0  0  0  0  0  0  0  0
   -9.8350   -4.0900  -20.9530 H   0  0  0  0  0  0  0  0  0  0  0  0
  -10.4080   -2.4310  -21.0010 H   0  0  0  0  0  0  0  0  0  0  0  0
   -9.1310   -0.1570  -21.2170 H   0  0  0  0  0  0  0  0  0  0  0  0
   -7.8940    0.3860  -22.3470 H   0  0  0  0  0  0  0  0  0  0  0  0
   -8.3320   -1.3880  -23.8860 H   0  0  0  0  0  0  0  0  0  0  0  0
  -10.4150    0.0110  -23.8690 H   0  0  0  0  0  0  0  0  0  0  0  0
  -11.0580   -0.9340  -22.5330 H   0  0  0  0  0  0  0  0  0  0  0  0
  -10.8360   -1.7000  -24.1110 H   0  0  0  0  0  0  0  0  0  0  0  0
  1  2  1  0  0  0  0
  1 48  1  0  0  0  0
  1 49  1  0  0  0  0
  1 50  1  0  0  0  0
  2  3  1  0  0  0  0
  2 23  1  0  0  0  0
  2 47  1  6  0  0  0
  3  4  1  0  0  0  0
  3 45  1  0  0  0  0
  3 46  1  0  0  0  0
  4  5  1  0  0  0  0
  4 21  1  0  0  0  0
  5  6  2  0  0  0  0
  5 14  1  0  0  0  0
  6  7  1  0  0  0  0
  6 20  1  0  0  0  0
  7  8  2  0  0  0  0
  8  9  1  0  0  0  0
  8 19  1  0  0  0  0
  9 10  2  0  0  0  0
  9 14  1  0  0  0  0
 10 11  1  0  0  0  0
 10 18  1  0  0  0  0
 11 12  2  0  0  0  0
 11 17  1  0  0  0  0
 12 13  1  0  0  0  0
 12 16  1  0  0  0  0
 13 14  2  0  0  0  0
 13 15  1  0  0  0  0
 21 22  2  0  0  0  0
 23 21  1  1  0  0  0
 23 24  1  0  0  0  0
 23 39  1  0  0  0  0
 24 25  1  0  0  0  0
 24 43  1  0  0  0  0
 24 44  1  0  0  0  0
 25 26  1  0  0  0  0
 25 31  1  0  0  0  0
 26 27  1  0  0  0  0
 26 29  1  0  0  0  0
 26 30  1  0  0  0  0
 27 28  3  0  0  0  0
 31 32  2  0  0  0  0
 31 33  1  0  0  0  0
 33 34  2  0  0  0  0
 33 39  1  0  0  0  0
 34 35  1  0  0  0  0
 34 42  1  0  0  0  0
 35 36  2  0  0  0  0
 35 41  1  0  0  0  0
 36 37  1  0  0  0  0
 36 38  1  0  0  0  0
 38 39  2  0  0  0  0
 38 40  1  0  0  0  0
M  END
>  <MODEL>
       1

$$$$
