tmp_first_model_8_54.pdb
 OpenBabel08272521063D

 40 43  0  0  0  0  0  0  0  0999 V2000
   -7.9690   -3.5410  -24.0100 C   0  0  0  0  0  0  0  0  0  0  0  0
   -8.0180   -2.6960  -22.8340 N   0  0  0  0  0  0  0  0  0  0  0  0
   -9.0740   -2.1080  -22.1900 C   0  0  0  0  0  0  0  0  0  0  0  0
  -10.4770   -2.1580  -22.7020 C   0  0  0  0  0  0  0  0  0  0  0  0
  -10.5910   -1.3120  -23.9600 C   0  0  0  0  0  0  0  0  0  0  0  0
  -10.5840   -1.8980  -25.2240 C   0  0  0  0  0  0  0  0  0  0  0  0
  -10.3370   -1.1390  -26.3640 C   0  0  0  0  0  0  0  0  0  0  0  0
  -10.1520    0.2340  -26.2400 C   0  0  0  0  0  0  0  0  0  0  0  0
  -10.2860    0.8520  -25.0000 C   0  0  0  0  0  0  0  0  0  0  0  0
  -10.5210    0.0820  -23.8640 C   0  0  0  0  0  0  0  0  0  0  0  0
  -10.6090    0.5790  -22.9000 H   0  0  0  0  0  0  0  0  0  0  0  0
  -10.1840    1.9330  -24.9360 H   0  0  0  0  0  0  0  0  0  0  0  0
   -9.8750    0.8240  -27.1030 H   0  0  0  0  0  0  0  0  0  0  0  0
  -10.2980   -1.6290  -27.3330 H   0  0  0  0  0  0  0  0  0  0  0  0
  -10.7090   -2.9720  -25.3260 H   0  0  0  0  0  0  0  0  0  0  0  0
  -11.1210   -1.7810  -21.9080 H   0  0  0  0  0  0  0  0  0  0  0  0
  -10.7640   -3.1990  -22.8880 H   0  0  0  0  0  0  0  0  0  0  0  0
   -8.6970   -1.4030  -21.1710 N   0  0  0  0  0  0  0  0  0  0  0  0
   -7.3330   -1.4870  -21.1710 N   0  0  0  0  0  0  0  0  0  0  0  0
   -6.5670   -0.8380  -20.1820 C   0  0  0  0  0  0  0  0  0  0  0  0
   -6.9180   -1.0470  -18.8760 C   0  0  0  0  0  0  0  0  0  0  0  0
   -6.2300   -0.5630  -17.8230 N   0  0  0  0  0  0  0  0  0  0  0  0
   -5.1870    0.1920  -18.0800 C   0  0  0  0  0  0  0  0  0  0  0  0
   -4.7500    0.5250  -19.3900 C   0  0  0  0  0  0  0  0  0  0  0  0
   -3.6320    1.3710  -19.6070 C   0  0  0  0  0  0  0  0  0  0  0  0
   -3.2640    1.7130  -20.8740 C   0  0  0  0  0  0  0  0  0  0  0  0
   -3.9980    1.2370  -21.9820 C   0  0  0  0  0  0  0  0  0  0  0  0
   -5.0680    0.4010  -21.8080 C   0  0  0  0  0  0  0  0  0  0  0  0
   -5.4610    0.0130  -20.4950 C   0  0  0  0  0  0  0  0  0  0  0  0
   -5.6170    0.0400  -22.6710 H   0  0  0  0  0  0  0  0  0  0  0  0
   -3.6880    1.5210  -22.9820 H   0  0  0  0  0  0  0  0  0  0  0  0
   -2.4040    2.3540  -21.0420 H   0  0  0  0  0  0  0  0  0  0  0  0
   -3.0970    1.7490  -18.7430 H   0  0  0  0  0  0  0  0  0  0  0  0
   -4.6350    0.5860  -17.2270 H   0  0  0  0  0  0  0  0  0  0  0  0
   -7.7900   -1.6590  -18.6520 H   0  0  0  0  0  0  0  0  0  0  0  0
   -6.8690   -2.3720  -22.1240 C   0  0  0  0  0  0  0  0  0  0  0  0
   -5.7410   -2.7820  -22.2970 O   0  0  0  0  0  0  0  0  0  0  0  0
   -8.8050   -4.2470  -24.0040 H   0  0  0  0  0  0  0  0  0  0  0  0
   -7.9740   -2.9510  -24.9360 H   0  0  0  0  0  0  0  0  0  0  0  0
   -7.0320   -4.0970  -23.9550 H   0  0  0  0  0  0  0  0  0  0  0  0
  1  2  1  0  0  0  0
  1 38  1  0  0  0  0
  1 39  1  0  0  0  0
  1 40  1  0  0  0  0
  2  3  1  0  0  0  0
  2 36  1  0  0  0  0
  3  4  1  0  0  0  0
  3 18  2  0  0  0  0
  4  5  1  0  0  0  0
  4 16  1  0  0  0  0
  4 17  1  0  0  0  0
  5  6  2  0  0  0  0
  5 10  1  0  0  0  0
  6  7  1  0  0  0  0
  6 15  1  0  0  0  0
  7  8  2  0  0  0  0
  7 14  1  0  0  0  0
  8  9  1  0  0  0  0
  8 13  1  0  0  0  0
  9 10  2  0  0  0  0
  9 12  1  0  0  0  0
 10 11  1  0  0  0  0
 18 19  1  0  0  0  0
 19 20  1  0  0  0  0
 19 36  1  0  0  0  0
 20 21  2  0  0  0  0
 20 29  1  0  0  0  0
 21 22  1  0  0  0  0
 21 35  1  0  0  0  0
 22 23  2  0  0  0  0
 23 24  1  0  0  0  0
 23 34  1  0  0  0  0
 24 25  2  0  0  0  0
 24 29  1  0  0  0  0
 25 26  1  0  0  0  0
 25 33  1  0  0  0  0
 26 27  2  0  0  0  0
 26 32  1  0  0  0  0
 27 28  1  0  0  0  0
 27 31  1  0  0  0  0
 28 29  2  0  0  0  0
 28 30  1  0  0  0  0
 36 37  2  0  0  0  0
M  END
>  <MODEL>
       1

$$$$
