tmp_first_model_17_47.pdb
 OpenBabel08282502223D

 58 63  0  0  1  0  0  0  0  0999 V2000
   -8.7070    0.5790  -21.2920 O   0  0  0  0  0  0  0  0  0  0  0  0
   -8.4020   -0.4250  -21.9100 C   0  0  0  0  0  0  0  0  0  0  0  0
   -7.4170   -1.4330  -21.2740 C   0  0  0  0  0  0  0  0  0  0  0  0
   -6.5770   -0.8290  -20.1750 C   0  0  0  0  0  0  0  0  0  0  0  0
   -6.8780   -1.0380  -18.8560 C   0  0  0  0  0  0  0  0  0  0  0  0
   -6.1930   -0.5310  -17.7920 N   0  0  0  0  0  0  0  0  0  0  0  0
   -5.1560    0.2210  -18.0640 C   0  0  0  0  0  0  0  0  0  0  0  0
   -4.7220    0.5360  -19.3800 C   0  0  0  0  0  0  0  0  0  0  0  0
   -3.5970    1.3660  -19.6230 C   0  0  0  0  0  0  0  0  0  0  0  0
   -3.2130    1.6590  -20.8980 C   0  0  0  0  0  0  0  0  0  0  0  0
   -3.9400    1.1270  -21.9910 C   0  0  0  0  0  0  0  0  0  0  0  0
   -5.0290    0.3200  -21.7930 C   0  0  0  0  0  0  0  0  0  0  0  0
   -5.4520    0.0010  -20.4740 C   0  0  0  0  0  0  0  0  0  0  0  0
   -5.5750   -0.0680  -22.6540 H   0  0  0  0  0  0  0  0  0  0  0  0
   -3.6160    1.3640  -22.9990 H   0  0  0  0  0  0  0  0  0  0  0  0
   -2.3490    2.2910  -21.0920 H   0  0  0  0  0  0  0  0  0  0  0  0
   -3.0520    1.7730  -18.7730 H   0  0  0  0  0  0  0  0  0  0  0  0
   -4.5990    0.6280  -17.2160 H   0  0  0  0  0  0  0  0  0  0  0  0
   -7.7300   -1.6610  -18.5850 H   0  0  0  0  0  0  0  0  0  0  0  0
   -8.0360   -2.2330  -20.8460 H   0  0  0  0  0  0  0  0  0  0  0  0
   -6.7770   -1.9110  -22.0190 H   0  0  0  0  0  0  0  0  0  0  0  0
   -8.9710   -0.7190  -23.1420 N   0  0  0  0  0  0  0  0  0  0  0  0
   -8.4430   -1.7200  -24.0600 C   0  0  0  0  0  0  0  0  0  0  0  0
   -7.0940   -1.3550  -24.6510 C   0  0  0  0  0  0  0  0  0  0  0  0
   -6.8810   -0.1020  -25.2220 C   0  0  0  0  0  0  0  0  0  0  0  0
   -5.6410    0.2360  -25.7450 C   0  0  0  0  0  0  0  0  0  0  0  0
   -4.5850   -0.6670  -25.7140 C   0  0  0  0  0  0  0  0  0  0  0  0
   -4.8110   -1.9230  -25.1640 C   0  0  0  0  0  0  0  0  0  0  0  0
   -3.5200   -3.0890  -25.1210 Cl  0  0  0  0  0  0  0  0  0  0  0  0
   -6.0490   -2.2750  -24.6410 C   0  0  0  0  0  0  0  0  0  0  0  0
   -6.1880   -3.2690  -24.2210 H   0  0  0  0  0  0  0  0  0  0  0  0
   -3.6110   -0.4030  -26.1100 H   0  0  0  0  0  0  0  0  0  0  0  0
   -5.4910    1.2200  -26.1780 H   0  0  0  0  0  0  0  0  0  0  0  0
   -7.6810    0.6290  -25.2700 H   0  0  0  0  0  0  0  0  0  0  0  0
   -8.3790   -2.6780  -23.5380 H   0  0  0  0  0  0  0  0  0  0  0  0
   -9.1710   -1.8660  -24.8590 H   0  0  0  0  0  0  0  0  0  0  0  0
  -10.1520    0.0260  -23.5070 C   0  0  2  0  0  0  0  0  0  0  0  0
  -11.4320   -0.2450  -22.6950 C   0  0  0  0  0  0  0  0  0  0  0  0
  -12.3800    0.7270  -23.3730 N   0  3  1  0  0  0  0  0  0  0  0  0
  -13.0900    1.6760  -22.4910 C   0  0  0  0  0  0  0  0  0  0  0  0
  -13.0160    3.1620  -22.7110 C   0  0  0  0  0  0  0  0  0  0  0  0
  -14.2700    2.4110  -23.0440 C   0  0  0  0  0  0  0  0  0  0  0  0
  -14.4880    2.2310  -24.0910 H   0  0  0  0  0  0  0  0  0  0  0  0
  -15.1370    2.5400  -22.4070 H   0  0  0  0  0  0  0  0  0  0  0  0
  -12.4550    3.5510  -23.5500 H   0  0  0  0  0  0  0  0  0  0  0  0
  -13.0360    3.8280  -21.8570 H   0  0  0  0  0  0  0  0  0  0  0  0
  -13.1710    1.3330  -21.4670 H   0  0  0  0  0  0  0  0  0  0  0  0
  -11.4290    1.2930  -24.4090 C   0  0  2  0  0  0  0  0  0  0  0  0
  -10.7500    0.0350  -24.9290 C   0  0  0  0  0  0  0  0  0  0  0  0
  -11.4220   -0.7880  -25.1960 H   0  0  0  0  0  0  0  0  0  0  0  0
  -10.0380    0.2430  -25.7250 H   0  0  0  0  0  0  0  0  0  0  0  0
  -10.1830    1.5740  -23.5780 C   0  0  0  0  0  0  0  0  0  0  0  0
  -10.3370    2.0860  -22.6250 H   0  0  0  0  0  0  0  0  0  0  0  0
   -9.3620    2.0070  -24.1450 H   0  0  0  0  0  0  0  0  0  0  0  0
  -11.8690    2.0160  -25.0640 H   0  0  0  0  0  0  0  0  0  0  0  0
  -13.1330    0.1990  -23.8440 H   0  0  0  0  0  0  0  0  0  0  0  0
  -11.3190    0.0310  -21.6510 H   0  0  0  0  0  0  0  0  0  0  0  0
  -11.8140   -1.2640  -22.7870 H   0  0  0  0  0  0  0  0  0  0  0  0
  1  2  2  0  0  0  0
  2  3  1  0  0  0  0
  2 22  1  0  0  0  0
  3  4  1  0  0  0  0
  3 20  1  0  0  0  0
  3 21  1  0  0  0  0
  4  5  2  0  0  0  0
  4 13  1  0  0  0  0
  5  6  1  0  0  0  0
  5 19  1  0  0  0  0
  6  7  2  0  0  0  0
  7  8  1  0  0  0  0
  7 18  1  0  0  0  0
  8  9  2  0  0  0  0
  8 13  1  0  0  0  0
  9 10  1  0  0  0  0
  9 17  1  0  0  0  0
 10 11  2  0  0  0  0
 10 16  1  0  0  0  0
 11 12  1  0  0  0  0
 11 15  1  0  0  0  0
 12 13  2  0  0  0  0
 12 14  1  0  0  0  0
 22 23  1  0  0  0  0
 23 24  1  0  0  0  0
 23 35  1  0  0  0  0
 23 36  1  0  0  0  0
 24 25  2  0  0  0  0
 24 30  1  0  0  0  0
 25 26  1  0  0  0  0
 25 34  1  0  0  0  0
 26 27  2  0  0  0  0
 26 33  1  0  0  0  0
 27 28  1  0  0  0  0
 27 32  1  0  0  0  0
 28 29  1  0  0  0  0
 28 30  2  0  0  0  0
 30 31  1  0  0  0  0
 37 22  1  1  0  0  0
 37 38  1  0  0  0  0
 37 49  1  0  0  0  0
 37 52  1  0  0  0  0
 38 39  1  0  0  0  0
 38 57  1  0  0  0  0
 38 58  1  0  0  0  0
 39 40  1  0  0  0  0
 39 48  1  0  0  0  0
 39 56  1  6  0  0  0
 40 41  1  0  0  0  0
 40 42  1  0  0  0  0
 40 47  1  0  0  0  0
 41 42  1  0  0  0  0
 41 45  1  0  0  0  0
 41 46  1  0  0  0  0
 42 43  1  0  0  0  0
 42 44  1  0  0  0  0
 48 49  1  0  0  0  0
 48 52  1  0  0  0  0
 48 55  1  6  0  0  0
 49 50  1  0  0  0  0
 49 51  1  0  0  0  0
 52 53  1  0  0  0  0
 52 54  1  0  0  0  0
M  CHG  1  39   1
M  END
>  <MODEL>
       1

$$$$
