tmp_first_model_17_18.pdb
 OpenBabel08282502223D

 56 61  0  0  1  0  0  0  0  0999 V2000
  -10.3260   -1.0320  -23.3810 C   0  0  0  0  0  0  0  0  0  0  0  0
   -8.9050   -1.4370  -23.0070 C   0  0  1  0  0  0  0  0  0  0  0  0
   -8.3200   -0.5390  -21.9070 C   0  0  0  0  0  0  0  0  0  0  0  0
   -7.3490   -1.3980  -21.2540 N   0  0  0  0  0  0  0  0  0  0  0  0
   -6.5660   -0.9100  -20.1820 C   0  0  0  0  0  0  0  0  0  0  0  0
   -6.8980   -1.1630  -18.8760 C   0  0  0  0  0  0  0  0  0  0  0  0
   -6.2590   -0.6080  -17.8140 N   0  0  0  0  0  0  0  0  0  0  0  0
   -5.2510    0.1950  -18.0620 C   0  0  0  0  0  0  0  0  0  0  0  0
   -4.7860    0.5200  -19.3700 C   0  0  0  0  0  0  0  0  0  0  0  0
   -3.6700    1.3690  -19.6040 C   0  0  0  0  0  0  0  0  0  0  0  0
   -3.2760    1.6550  -20.8830 C   0  0  0  0  0  0  0  0  0  0  0  0
   -3.9710    1.1080  -21.9870 C   0  0  0  0  0  0  0  0  0  0  0  0
   -5.0410    0.2750  -21.7850 C   0  0  0  0  0  0  0  0  0  0  0  0
   -5.4730   -0.0360  -20.4690 C   0  0  0  0  0  0  0  0  0  0  0  0
   -5.5630   -0.1700  -22.6250 H   0  0  0  0  0  0  0  0  0  0  0  0
   -3.6430    1.3380  -22.9970 H   0  0  0  0  0  0  0  0  0  0  0  0
   -2.4160    2.2940  -21.0650 H   0  0  0  0  0  0  0  0  0  0  0  0
   -3.1340    1.7790  -18.7510 H   0  0  0  0  0  0  0  0  0  0  0  0
   -4.7430    0.6300  -17.2000 H   0  0  0  0  0  0  0  0  0  0  0  0
   -7.7230   -1.8320  -18.6400 H   0  0  0  0  0  0  0  0  0  0  0  0
   -7.6070   -2.7420  -21.4300 C   0  0  0  0  0  0  0  0  0  0  0  0
   -7.0250   -3.6340  -20.8440 O   0  0  0  0  0  0  0  0  0  0  0  0
   -8.7390   -2.9040  -22.4610 C   0  0  1  0  0  0  0  0  0  0  0  0
   -9.9820   -3.3730  -21.6620 C   0  0  0  0  0  0  0  0  0  0  0  0
  -11.0590   -3.8570  -22.5090 N   0  0  0  0  0  0  0  0  0  0  0  0
  -12.4420   -3.6320  -22.1340 C   0  0  0  0  0  0  0  0  0  0  0  0
  -13.1310   -2.5010  -22.8430 C   0  0  0  0  0  0  0  0  0  0  0  0
  -13.7420   -2.4610  -24.1170 C   0  0  0  0  0  0  0  0  0  0  0  0
  -14.4780   -1.2980  -24.1110 C   0  0  0  0  0  0  0  0  0  0  0  0
  -14.2450   -0.7080  -22.9170 N   0  0  0  0  0  0  0  0  0  0  0  0
  -13.4130   -1.4100  -22.1410 N   0  0  0  0  0  0  0  0  0  0  0  0
  -14.6440    0.1300  -22.5350 H   0  0  0  0  0  0  0  0  0  0  0  0
  -15.1870   -0.9110  -24.8180 H   0  0  0  0  0  0  0  0  0  0  0  0
  -13.6630   -3.1920  -24.9080 H   0  0  0  0  0  0  0  0  0  0  0  0
  -12.9980   -4.5440  -22.3650 H   0  0  0  0  0  0  0  0  0  0  0  0
  -12.4920   -3.4150  -21.0650 H   0  0  0  0  0  0  0  0  0  0  0  0
  -10.8510   -4.5830  -23.6490 C   0  0  0  0  0  0  0  0  0  0  0  0
  -11.7720   -5.0400  -24.3090 O   0  0  0  0  0  0  0  0  0  0  0  0
   -9.4240   -4.7590  -24.0610 C   0  0  0  0  0  0  0  0  0  0  0  0
   -9.1370   -5.7420  -25.0130 C   0  0  0  0  0  0  0  0  0  0  0  0
   -7.8510   -5.9200  -25.4850 C   0  0  0  0  0  0  0  0  0  0  0  0
   -6.8650   -5.0710  -24.9970 C   0  0  0  0  0  0  0  0  0  0  0  0
   -5.6160   -5.2100  -25.4680 F   0  0  0  0  0  0  0  0  0  0  0  0
   -7.1140   -4.1090  -24.0330 C   0  0  0  0  0  0  0  0  0  0  0  0
   -8.4140   -3.9450  -23.5300 C   0  0  0  0  0  0  0  0  0  0  0  0
   -6.2790   -3.5330  -23.6510 H   0  0  0  0  0  0  0  0  0  0  0  0
   -7.5970   -6.7030  -26.1940 H   0  0  0  0  0  0  0  0  0  0  0  0
   -9.9490   -6.3710  -25.3670 H   0  0  0  0  0  0  0  0  0  0  0  0
   -9.6560   -4.1390  -20.9530 H   0  0  0  0  0  0  0  0  0  0  0  0
  -10.3660   -2.5310  -21.0760 H   0  0  0  0  0  0  0  0  0  0  0  0
   -9.0990   -0.2080  -21.1990 H   0  0  0  0  0  0  0  0  0  0  0  0
   -7.8450    0.3670  -22.2940 H   0  0  0  0  0  0  0  0  0  0  0  0
   -8.2510   -1.3730  -23.8880 H   0  0  0  0  0  0  0  0  0  0  0  0
  -10.7920   -1.7840  -24.0230 H   0  0  0  0  0  0  0  0  0  0  0  0
  -10.9540   -0.9370  -22.4900 H   0  0  0  0  0  0  0  0  0  0  0  0
  -10.3550   -0.0690  -23.9000 H   0  0  0  0  0  0  0  0  0  0  0  0
  1  2  1  0  0  0  0
  1 54  1  0  0  0  0
  1 55  1  0  0  0  0
  1 56  1  0  0  0  0
  2  3  1  0  0  0  0
  2 23  1  0  0  0  0
  2 53  1  6  0  0  0
  3  4  1  0  0  0  0
  3 51  1  0  0  0  0
  3 52  1  0  0  0  0
  4  5  1  0  0  0  0
  4 21  1  0  0  0  0
  5  6  2  0  0  0  0
  5 14  1  0  0  0  0
  6  7  1  0  0  0  0
  6 20  1  0  0  0  0
  7  8  2  0  0  0  0
  8  9  1  0  0  0  0
  8 19  1  0  0  0  0
  9 10  2  0  0  0  0
  9 14  1  0  0  0  0
 10 11  1  0  0  0  0
 10 18  1  0  0  0  0
 11 12  2  0  0  0  0
 11 17  1  0  0  0  0
 12 13  1  0  0  0  0
 12 16  1  0  0  0  0
 13 14  2  0  0  0  0
 13 15  1  0  0  0  0
 21 22  2  0  0  0  0
 23 21  1  1  0  0  0
 23 24  1  0  0  0  0
 23 45  1  0  0  0  0
 24 25  1  0  0  0  0
 24 49  1  0  0  0  0
 24 50  1  0  0  0  0
 25 26  1  0  0  0  0
 25 37  1  0  0  0  0
 26 27  1  0  0  0  0
 26 35  1  0  0  0  0
 26 36  1  0  0  0  0
 27 28  1  0  0  0  0
 27 31  2  0  0  0  0
 28 29  2  0  0  0  0
 28 34  1  0  0  0  0
 29 30  1  0  0  0  0
 29 33  1  0  0  0  0
 30 31  1  0  0  0  0
 30 32  1  0  0  0  0
 37 38  2  0  0  0  0
 37 39  1  0  0  0  0
 39 40  2  0  0  0  0
 39 45  1  0  0  0  0
 40 41  1  0  0  0  0
 40 48  1  0  0  0  0
 41 42  2  0  0  0  0
 41 47  1  0  0  0  0
 42 43  1  0  0  0  0
 42 44  1  0  0  0  0
 44 45  2  0  0  0  0
 44 46  1  0  0  0  0
M  END
>  <MODEL>
       1

$$$$
