tmp_first_model_11_47.pdb
 OpenBabel08272522543D

 58 63  0  0  1  0  0  0  0  0999 V2000
   -9.0940    0.3020  -21.0900 O   0  0  0  0  0  0  0  0  0  0  0  0
   -8.3630   -0.3100  -21.8430 C   0  0  0  0  0  0  0  0  0  0  0  0
   -7.4400   -1.4030  -21.2740 C   0  0  0  0  0  0  0  0  0  0  0  0
   -6.5720   -0.8300  -20.1710 C   0  0  0  0  0  0  0  0  0  0  0  0
   -6.8760   -1.0390  -18.8520 C   0  0  0  0  0  0  0  0  0  0  0  0
   -6.1900   -0.5340  -17.7900 N   0  0  0  0  0  0  0  0  0  0  0  0
   -5.1560    0.2220  -18.0630 C   0  0  0  0  0  0  0  0  0  0  0  0
   -4.7210    0.5350  -19.3800 C   0  0  0  0  0  0  0  0  0  0  0  0
   -3.5990    1.3710  -19.6250 C   0  0  0  0  0  0  0  0  0  0  0  0
   -3.2140    1.6650  -20.9020 C   0  0  0  0  0  0  0  0  0  0  0  0
   -3.9330    1.1310  -21.9940 C   0  0  0  0  0  0  0  0  0  0  0  0
   -5.0220    0.3210  -21.7860 C   0  0  0  0  0  0  0  0  0  0  0  0
   -5.4490   -0.0020  -20.4700 C   0  0  0  0  0  0  0  0  0  0  0  0
   -5.5580   -0.0740  -22.6440 H   0  0  0  0  0  0  0  0  0  0  0  0
   -3.6220    1.3740  -23.0080 H   0  0  0  0  0  0  0  0  0  0  0  0
   -2.3630    2.3170  -21.0870 H   0  0  0  0  0  0  0  0  0  0  0  0
   -3.0640    1.7870  -18.7740 H   0  0  0  0  0  0  0  0  0  0  0  0
   -4.5990    0.6300  -17.2160 H   0  0  0  0  0  0  0  0  0  0  0  0
   -7.7320   -1.6600  -18.5830 H   0  0  0  0  0  0  0  0  0  0  0  0
   -6.8270   -1.8730  -22.0480 H   0  0  0  0  0  0  0  0  0  0  0  0
   -8.0880   -2.1790  -20.8510 H   0  0  0  0  0  0  0  0  0  0  0  0
   -8.2940   -0.0130  -23.2070 N   0  0  0  0  0  0  0  0  0  0  0  0
   -8.1280   -1.0380  -24.2350 C   0  0  0  0  0  0  0  0  0  0  0  0
   -9.2110   -2.0920  -24.1690 C   0  0  0  0  0  0  0  0  0  0  0  0
   -8.9190   -3.3930  -23.7730 C   0  0  0  0  0  0  0  0  0  0  0  0
   -9.9300   -4.3430  -23.6750 C   0  0  0  0  0  0  0  0  0  0  0  0
  -11.2460   -4.0100  -23.9650 C   0  0  0  0  0  0  0  0  0  0  0  0
  -11.5310   -2.7090  -24.3560 C   0  0  0  0  0  0  0  0  0  0  0  0
  -13.1770   -2.2740  -24.7240 Cl  0  0  0  0  0  0  0  0  0  0  0  0
  -10.5320   -1.7500  -24.4590 C   0  0  0  0  0  0  0  0  0  0  0  0
  -10.8050   -0.7440  -24.7680 H   0  0  0  0  0  0  0  0  0  0  0  0
  -12.0380   -4.7490  -23.8900 H   0  0  0  0  0  0  0  0  0  0  0  0
   -9.6930   -5.3580  -23.3710 H   0  0  0  0  0  0  0  0  0  0  0  0
   -7.8920   -3.6680  -23.5410 H   0  0  0  0  0  0  0  0  0  0  0  0
   -7.1380   -1.4980  -24.1400 H   0  0  0  0  0  0  0  0  0  0  0  0
   -8.1480   -0.5440  -25.2080 H   0  0  0  0  0  0  0  0  0  0  0  0
   -8.5120    1.3660  -23.5700 C   0  0  2  0  0  0  0  0  0  0  0  0
   -7.4480    2.3890  -23.1080 C   0  0  0  0  0  0  0  0  0  0  0  0
   -8.0770    3.6530  -23.6570 N   0  3  1  0  0  0  0  0  0  0  0  0
   -7.2280    4.4680  -24.5320 C   0  0  0  0  0  0  0  0  0  0  0  0
   -6.3740    5.5270  -23.9160 C   0  0  0  0  0  0  0  0  0  0  0  0
   -7.5820    5.9080  -24.7280 C   0  0  0  0  0  0  0  0  0  0  0  0
   -8.4570    6.2630  -24.1900 H   0  0  0  0  0  0  0  0  0  0  0  0
   -7.4250    6.3610  -25.7010 H   0  0  0  0  0  0  0  0  0  0  0  0
   -6.4390    5.6130  -22.8360 H   0  0  0  0  0  0  0  0  0  0  0  0
   -5.3930    5.7140  -24.3420 H   0  0  0  0  0  0  0  0  0  0  0  0
   -6.8230    3.9380  -25.3820 H   0  0  0  0  0  0  0  0  0  0  0  0
   -9.3040    3.0750  -24.3200 C   0  0  2  0  0  0  0  0  0  0  0  0
   -9.8060    2.1350  -23.2200 C   0  0  0  0  0  0  0  0  0  0  0  0
   -9.8580    2.5480  -22.2110 H   0  0  0  0  0  0  0  0  0  0  0  0
  -10.7130    1.5910  -23.4850 H   0  0  0  0  0  0  0  0  0  0  0  0
   -8.7300    1.8380  -25.0260 C   0  0  0  0  0  0  0  0  0  0  0  0
   -7.8310    1.9800  -25.6340 H   0  0  0  0  0  0  0  0  0  0  0  0
   -9.4950    1.2890  -25.5700 H   0  0  0  0  0  0  0  0  0  0  0  0
   -9.9370    3.8100  -24.8060 H   0  0  0  0  0  0  0  0  0  0  0  0
   -8.3750    4.2600  -22.8740 H   0  0  0  0  0  0  0  0  0  0  0  0
   -6.4710    2.2520  -23.5690 H   0  0  0  0  0  0  0  0  0  0  0  0
   -7.3450    2.4470  -22.0230 H   0  0  0  0  0  0  0  0  0  0  0  0
  1  2  2  0  0  0  0
  2  3  1  0  0  0  0
  2 22  1  0  0  0  0
  3  4  1  0  0  0  0
  3 20  1  0  0  0  0
  3 21  1  0  0  0  0
  4  5  2  0  0  0  0
  4 13  1  0  0  0  0
  5  6  1  0  0  0  0
  5 19  1  0  0  0  0
  6  7  2  0  0  0  0
  7  8  1  0  0  0  0
  7 18  1  0  0  0  0
  8  9  2  0  0  0  0
  8 13  1  0  0  0  0
  9 10  1  0  0  0  0
  9 17  1  0  0  0  0
 10 11  2  0  0  0  0
 10 16  1  0  0  0  0
 11 12  1  0  0  0  0
 11 15  1  0  0  0  0
 12 13  2  0  0  0  0
 12 14  1  0  0  0  0
 22 23  1  0  0  0  0
 23 24  1  0  0  0  0
 23 35  1  0  0  0  0
 23 36  1  0  0  0  0
 24 25  2  0  0  0  0
 24 30  1  0  0  0  0
 25 26  1  0  0  0  0
 25 34  1  0  0  0  0
 26 27  2  0  0  0  0
 26 33  1  0  0  0  0
 27 28  1  0  0  0  0
 27 32  1  0  0  0  0
 28 29  1  0  0  0  0
 28 30  2  0  0  0  0
 30 31  1  0  0  0  0
 37 22  1  1  0  0  0
 37 38  1  0  0  0  0
 37 49  1  0  0  0  0
 37 52  1  0  0  0  0
 38 39  1  0  0  0  0
 38 57  1  0  0  0  0
 38 58  1  0  0  0  0
 39 40  1  0  0  0  0
 39 48  1  0  0  0  0
 39 56  1  1  0  0  0
 40 41  1  0  0  0  0
 40 42  1  0  0  0  0
 40 47  1  0  0  0  0
 41 42  1  0  0  0  0
 41 45  1  0  0  0  0
 41 46  1  0  0  0  0
 42 43  1  0  0  0  0
 42 44  1  0  0  0  0
 48 49  1  0  0  0  0
 48 52  1  0  0  0  0
 48 55  1  6  0  0  0
 49 50  1  0  0  0  0
 49 51  1  0  0  0  0
 52 53  1  0  0  0  0
 52 54  1  0  0  0  0
M  CHG  1  39   1
M  END
>  <MODEL>
       1

$$$$
