tmp_first_model_4_70.pdb
 OpenBabel08272518513D

 52 54  0  0  0  0  0  0  0  0999 V2000
   -2.5810   -3.2090  -25.4060 C   0  0  0  0  0  0  0  0  0  0  0  0
   -3.8620   -2.6970  -24.7390 C   0  0  0  0  0  0  0  0  0  0  0  0
   -4.4570   -1.5480  -25.5540 C   0  0  0  0  0  0  0  0  0  0  0  0
   -4.7650   -1.8870  -26.5490 H   0  0  0  0  0  0  0  0  0  0  0  0
   -3.7290   -0.7390  -25.6840 H   0  0  0  0  0  0  0  0  0  0  0  0
   -5.3360   -1.1270  -25.0520 H   0  0  0  0  0  0  0  0  0  0  0  0
   -4.9390   -3.7660  -24.5100 C   0  0  0  0  0  0  0  0  0  0  0  0
   -4.6950   -4.8880  -23.4700 C   0  0  0  0  0  0  0  0  0  0  0  0
   -3.6950   -5.9240  -23.9930 C   0  0  0  0  0  0  0  0  0  0  0  0
   -3.9910   -6.3060  -24.9770 H   0  0  0  0  0  0  0  0  0  0  0  0
   -3.6380   -6.7730  -23.3030 H   0  0  0  0  0  0  0  0  0  0  0  0
   -2.6830   -5.5230  -24.0770 H   0  0  0  0  0  0  0  0  0  0  0  0
   -4.1960   -4.3640  -22.1160 C   0  0  0  0  0  0  0  0  0  0  0  0
   -5.1200   -3.3180  -21.5070 C   0  0  0  0  0  0  0  0  0  0  0  0
   -6.5140   -3.7420  -21.6270 N   0  0  0  0  0  0  0  0  0  0  0  0
   -7.6140   -2.9550  -21.4320 C   0  0  0  0  0  0  0  0  0  0  0  0
   -8.7520   -3.4110  -21.4490 O   0  0  0  0  0  0  0  0  0  0  0  0
   -7.3920   -1.4460  -21.3020 C   0  0  0  0  0  0  0  0  0  0  0  0
   -6.4470   -0.9910  -20.2170 C   0  0  0  0  0  0  0  0  0  0  0  0
   -6.7130   -1.2780  -18.9000 C   0  0  0  0  0  0  0  0  0  0  0  0
   -5.9010   -0.9740  -17.8620 N   0  0  0  0  0  0  0  0  0  0  0  0
   -4.7850   -0.3390  -18.1410 C   0  0  0  0  0  0  0  0  0  0  0  0
   -4.4020    0.0730  -19.4450 C   0  0  0  0  0  0  0  0  0  0  0  0
   -3.2350    0.8360  -19.7010 C   0  0  0  0  0  0  0  0  0  0  0  0
   -2.9940    1.3750  -20.9390 C   0  0  0  0  0  0  0  0  0  0  0  0
   -3.8590    1.0630  -22.0010 C   0  0  0  0  0  0  0  0  0  0  0  0
   -4.9490    0.2490  -21.8060 C   0  0  0  0  0  0  0  0  0  0  0  0
   -5.2750   -0.2400  -20.5170 C   0  0  0  0  0  0  0  0  0  0  0  0
   -5.5970    0.0280  -22.6500 H   0  0  0  0  0  0  0  0  0  0  0  0
   -3.6680    1.4580  -22.9930 H   0  0  0  0  0  0  0  0  0  0  0  0
   -2.1630    2.0560  -21.1080 H   0  0  0  0  0  0  0  0  0  0  0  0
   -2.5890    1.0870  -18.8630 H   0  0  0  0  0  0  0  0  0  0  0  0
   -4.1320   -0.0910  -17.3020 H   0  0  0  0  0  0  0  0  0  0  0  0
   -7.6500   -1.7640  -18.6380 H   0  0  0  0  0  0  0  0  0  0  0  0
   -8.3810   -1.0030  -21.1670 H   0  0  0  0  0  0  0  0  0  0  0  0
   -7.0660   -1.0930  -22.2840 H   0  0  0  0  0  0  0  0  0  0  0  0
   -6.7170   -5.1570  -21.8920 C   0  0  0  0  0  0  0  0  0  0  0  0
   -6.0440   -5.6120  -23.1880 C   0  0  0  0  0  0  0  0  0  0  0  0
   -6.7300   -5.4820  -24.0330 H   0  0  0  0  0  0  0  0  0  0  0  0
   -5.8720   -6.6900  -23.0980 H   0  0  0  0  0  0  0  0  0  0  0  0
   -6.3300   -5.7450  -21.0500 H   0  0  0  0  0  0  0  0  0  0  0  0
   -7.7930   -5.3140  -21.9180 H   0  0  0  0  0  0  0  0  0  0  0  0
   -4.8530   -3.1540  -20.4570 H   0  0  0  0  0  0  0  0  0  0  0  0
   -4.9770   -2.3780  -22.0370 H   0  0  0  0  0  0  0  0  0  0  0  0
   -4.1640   -5.2250  -21.4440 H   0  0  0  0  0  0  0  0  0  0  0  0
   -3.1720   -3.9750  -22.1750 H   0  0  0  0  0  0  0  0  0  0  0  0
   -5.8670   -3.2450  -24.2440 H   0  0  0  0  0  0  0  0  0  0  0  0
   -5.1680   -4.2420  -25.4740 H   0  0  0  0  0  0  0  0  0  0  0  0
   -3.6020   -2.2750  -23.7650 H   0  0  0  0  0  0  0  0  0  0  0  0
   -2.0300   -2.3860  -25.8740 H   0  0  0  0  0  0  0  0  0  0  0  0
   -1.8940   -3.6830  -24.6980 H   0  0  0  0  0  0  0  0  0  0  0  0
   -2.8120   -3.9360  -26.1920 H   0  0  0  0  0  0  0  0  0  0  0  0
  1  2  1  0  0  0  0
  1 50  1  0  0  0  0
  1 51  1  0  0  0  0
  1 52  1  0  0  0  0
  2  3  1  0  0  0  0
  2  7  1  0  0  0  0
  2 49  1  0  0  0  0
  3  4  1  0  0  0  0
  3  5  1  0  0  0  0
  3  6  1  0  0  0  0
  7  8  1  0  0  0  0
  7 47  1  0  0  0  0
  7 48  1  0  0  0  0
  8  9  1  0  0  0  0
  8 13  1  0  0  0  0
  8 38  1  0  0  0  0
  9 10  1  0  0  0  0
  9 11  1  0  0  0  0
  9 12  1  0  0  0  0
 13 14  1  0  0  0  0
 13 45  1  0  0  0  0
 13 46  1  0  0  0  0
 14 15  1  0  0  0  0
 14 43  1  0  0  0  0
 14 44  1  0  0  0  0
 15 16  1  0  0  0  0
 15 37  1  0  0  0  0
 16 17  2  0  0  0  0
 16 18  1  0  0  0  0
 18 19  1  0  0  0  0
 18 35  1  0  0  0  0
 18 36  1  0  0  0  0
 19 20  2  0  0  0  0
 19 28  1  0  0  0  0
 20 21  1  0  0  0  0
 20 34  1  0  0  0  0
 21 22  2  0  0  0  0
 22 23  1  0  0  0  0
 22 33  1  0  0  0  0
 23 24  2  0  0  0  0
 23 28  1  0  0  0  0
 24 25  1  0  0  0  0
 24 32  1  0  0  0  0
 25 26  2  0  0  0  0
 25 31  1  0  0  0  0
 26 27  1  0  0  0  0
 26 30  1  0  0  0  0
 27 28  2  0  0  0  0
 27 29  1  0  0  0  0
 37 38  1  0  0  0  0
 37 41  1  0  0  0  0
 37 42  1  0  0  0  0
 38 39  1  0  0  0  0
 38 40  1  0  0  0  0
M  END
>  <MODEL>
       1

$$$$
