tmp_first_model_16_46.pdb
 OpenBabel08282501503D

 50 54  0  0  1  0  0  0  0  0999 V2000
  -10.3890   -0.9390  -23.4480 C   0  0  0  0  0  0  0  0  0  0  0  0
   -8.9890   -1.3860  -23.0310 C   0  0  1  0  0  0  0  0  0  0  0  0
   -8.3750   -0.4970  -21.9360 C   0  0  0  0  0  0  0  0  0  0  0  0
   -7.4190   -1.3830  -21.2870 N   0  0  0  0  0  0  0  0  0  0  0  0
   -6.5680   -0.9700  -20.2310 C   0  0  0  0  0  0  0  0  0  0  0  0
   -6.8450   -1.3210  -18.9320 C   0  0  0  0  0  0  0  0  0  0  0  0
   -6.1140   -0.9190  -17.8620 N   0  0  0  0  0  0  0  0  0  0  0  0
   -5.0760   -0.1500  -18.0890 C   0  0  0  0  0  0  0  0  0  0  0  0
   -4.6770    0.2950  -19.3830 C   0  0  0  0  0  0  0  0  0  0  0  0
   -3.5760    1.1700  -19.5840 C   0  0  0  0  0  0  0  0  0  0  0  0
   -3.2240    1.5680  -20.8470 C   0  0  0  0  0  0  0  0  0  0  0  0
   -3.9400    1.0920  -21.9680 C   0  0  0  0  0  0  0  0  0  0  0  0
   -5.0140    0.2520  -21.7980 C   0  0  0  0  0  0  0  0  0  0  0  0
   -5.4290   -0.1400  -20.4970 C   0  0  0  0  0  0  0  0  0  0  0  0
   -5.5550   -0.1260  -22.6580 H   0  0  0  0  0  0  0  0  0  0  0  0
   -3.6340    1.3950  -22.9660 H   0  0  0  0  0  0  0  0  0  0  0  0
   -2.3880    2.2450  -21.0010 H   0  0  0  0  0  0  0  0  0  0  0  0
   -3.0300    1.5210  -18.7120 H   0  0  0  0  0  0  0  0  0  0  0  0
   -4.4830    0.1470  -17.2240 H   0  0  0  0  0  0  0  0  0  0  0  0
   -7.6960   -1.9650  -18.7100 H   0  0  0  0  0  0  0  0  0  0  0  0
   -7.7260   -2.7170  -21.4660 C   0  0  0  0  0  0  0  0  0  0  0  0
   -7.1450   -3.6230  -20.9050 O   0  0  0  0  0  0  0  0  0  0  0  0
   -8.8870   -2.8460  -22.4700 C   0  0  1  0  0  0  0  0  0  0  0  0
  -10.1410   -3.2640  -21.6590 C   0  0  0  0  0  0  0  0  0  0  0  0
  -11.2570   -3.6980  -22.4910 N   0  0  0  0  0  0  0  0  0  0  0  0
  -12.6250   -3.4900  -22.0560 C   0  0  0  0  0  0  0  0  0  0  0  0
  -13.3120   -2.3960  -22.7840 C   0  0  0  0  0  0  0  0  0  0  0  0
  -13.8310   -1.5330  -23.3580 N   0  0  0  0  0  0  0  0  0  0  0  0
  -12.6440   -3.2720  -20.9870 H   0  0  0  0  0  0  0  0  0  0  0  0
  -13.1910   -4.4070  -22.2290 H   0  0  0  0  0  0  0  0  0  0  0  0
  -11.0610   -4.5570  -23.5440 C   0  0  0  0  0  0  0  0  0  0  0  0
  -11.9940   -5.1160  -24.1060 O   0  0  0  0  0  0  0  0  0  0  0  0
   -9.6370   -4.7380  -23.9730 C   0  0  0  0  0  0  0  0  0  0  0  0
   -9.3700   -5.7560  -24.8850 C   0  0  0  0  0  0  0  0  0  0  0  0
   -8.0900   -5.9720  -25.3660 C   0  0  0  0  0  0  0  0  0  0  0  0
   -7.0750   -5.1290  -24.9200 C   0  0  0  0  0  0  0  0  0  0  0  0
   -5.8290   -5.3070  -25.4010 F   0  0  0  0  0  0  0  0  0  0  0  0
   -7.3030   -4.1220  -23.9990 C   0  0  0  0  0  0  0  0  0  0  0  0
   -8.6020   -3.9180  -23.5030 C   0  0  0  0  0  0  0  0  0  0  0  0
   -6.4550   -3.5470  -23.6340 H   0  0  0  0  0  0  0  0  0  0  0  0
   -7.8580   -6.7860  -26.0470 H   0  0  0  0  0  0  0  0  0  0  0  0
  -10.2040   -6.3800  -25.1920 H   0  0  0  0  0  0  0  0  0  0  0  0
   -9.8430   -4.0630  -20.9700 H   0  0  0  0  0  0  0  0  0  0  0  0
  -10.4520   -2.4200  -21.0330 H   0  0  0  0  0  0  0  0  0  0  0  0
   -9.1350   -0.1580  -21.2120 H   0  0  0  0  0  0  0  0  0  0  0  0
   -7.8790    0.3950  -22.3350 H   0  0  0  0  0  0  0  0  0  0  0  0
   -8.3170   -1.3570  -23.8970 H   0  0  0  0  0  0  0  0  0  0  0  0
  -10.3750    0.0590  -23.9010 H   0  0  0  0  0  0  0  0  0  0  0  0
  -11.0640   -0.8860  -22.5830 H   0  0  0  0  0  0  0  0  0  0  0  0
  -10.8250   -1.6450  -24.1640 H   0  0  0  0  0  0  0  0  0  0  0  0
  1  2  1  0  0  0  0
  1 48  1  0  0  0  0
  1 49  1  0  0  0  0
  1 50  1  0  0  0  0
  2  3  1  0  0  0  0
  2 23  1  0  0  0  0
  2 47  1  6  0  0  0
  3  4  1  0  0  0  0
  3 45  1  0  0  0  0
  3 46  1  0  0  0  0
  4  5  1  0  0  0  0
  4 21  1  0  0  0  0
  5  6  2  0  0  0  0
  5 14  1  0  0  0  0
  6  7  1  0  0  0  0
  6 20  1  0  0  0  0
  7  8  2  0  0  0  0
  8  9  1  0  0  0  0
  8 19  1  0  0  0  0
  9 10  2  0  0  0  0
  9 14  1  0  0  0  0
 10 11  1  0  0  0  0
 10 18  1  0  0  0  0
 11 12  2  0  0  0  0
 11 17  1  0  0  0  0
 12 13  1  0  0  0  0
 12 16  1  0  0  0  0
 13 14  2  0  0  0  0
 13 15  1  0  0  0  0
 21 22  2  0  0  0  0
 23 21  1  1  0  0  0
 23 24  1  0  0  0  0
 23 39  1  0  0  0  0
 24 25  1  0  0  0  0
 24 43  1  0  0  0  0
 24 44  1  0  0  0  0
 25 26  1  0  0  0  0
 25 31  1  0  0  0  0
 26 27  1  0  0  0  0
 26 29  1  0  0  0  0
 26 30  1  0  0  0  0
 27 28  3  0  0  0  0
 31 32  2  0  0  0  0
 31 33  1  0  0  0  0
 33 34  2  0  0  0  0
 33 39  1  0  0  0  0
 34 35  1  0  0  0  0
 34 42  1  0  0  0  0
 35 36  2  0  0  0  0
 35 41  1  0  0  0  0
 36 37  1  0  0  0  0
 36 38  1  0  0  0  0
 38 39  2  0  0  0  0
 38 40  1  0  0  0  0
M  END
>  <MODEL>
       1

$$$$
