tmp_first_model_11_35.pdb
 OpenBabel08272522543D

 40 42  0  0  0  0  0  0  0  0999 V2000
   -9.2440   -1.8380  -22.5810 O   0  0  0  0  0  0  0  0  0  0  0  0
   -8.3280   -1.0760  -22.2890 C   0  0  0  0  0  0  0  0  0  0  0  0
   -6.9740   -1.6080  -21.8310 C   0  0  0  0  0  0  0  0  0  0  0  0
   -6.3790   -0.9020  -20.6260 C   0  0  0  0  0  0  0  0  0  0  0  0
   -6.9880   -1.0350  -19.4020 C   0  0  0  0  0  0  0  0  0  0  0  0
   -6.5370   -0.4990  -18.2390 N   0  0  0  0  0  0  0  0  0  0  0  0
   -5.4500    0.2320  -18.3040 C   0  0  0  0  0  0  0  0  0  0  0  0
   -4.7270    0.4860  -19.5030 C   0  0  0  0  0  0  0  0  0  0  0  0
   -3.6030    1.3500  -19.5450 C   0  0  0  0  0  0  0  0  0  0  0  0
   -2.9590    1.6050  -20.7260 C   0  0  0  0  0  0  0  0  0  0  0  0
   -3.4060    1.0040  -21.9210 C   0  0  0  0  0  0  0  0  0  0  0  0
   -4.4970    0.1670  -21.9070 C   0  0  0  0  0  0  0  0  0  0  0  0
   -5.1910   -0.1110  -20.7010 C   0  0  0  0  0  0  0  0  0  0  0  0
   -4.8580   -0.2370  -22.8490 H   0  0  0  0  0  0  0  0  0  0  0  0
   -2.8970    1.2170  -22.8560 H   0  0  0  0  0  0  0  0  0  0  0  0
   -2.1140    2.2870  -20.7600 H   0  0  0  0  0  0  0  0  0  0  0  0
   -3.2830    1.8290  -18.6240 H   0  0  0  0  0  0  0  0  0  0  0  0
   -5.0950    0.6710  -17.3690 H   0  0  0  0  0  0  0  0  0  0  0  0
   -7.9080   -1.6200  -19.3210 H   0  0  0  0  0  0  0  0  0  0  0  0
   -7.1580   -2.6570  -21.5880 H   0  0  0  0  0  0  0  0  0  0  0  0
   -6.2740   -1.5940  -22.6700 H   0  0  0  0  0  0  0  0  0  0  0  0
   -8.3990    0.2980  -22.2960 N   0  0  0  0  0  0  0  0  0  0  0  0
   -9.5890    0.9470  -21.6910 C   0  0  0  0  0  0  0  0  0  0  0  0
   -9.5710    1.0980  -21.8690 C   0  0  0  0  0  0  0  0  0  0  0  0
   -9.2430    2.8700  -23.6020 C   0  0  0  0  0  0  0  0  0  0  0  0
   -8.3760    5.3210  -22.8610 C   0  0  0  0  0  0  0  0  0  0  0  0
   -7.4480    5.7000  -23.7190 F   0  0  0  0  0  0  0  0  0  0  0  0
   -9.2110    6.3010  -22.6090 F   0  0  0  0  0  0  0  0  0  0  0  0
   -7.8260    4.8910  -21.7450 F   0  0  0  0  0  0  0  0  0  0  0  0
   -7.9830    2.4430  -23.5980 C   0  0  0  0  0  0  0  0  0  0  0  0
   -7.4400    1.1380  -23.0630 C   0  0  0  0  0  0  0  0  0  0  0  0
   -7.0600    0.5550  -23.9060 H   0  0  0  0  0  0  0  0  0  0  0  0
   -6.5900    1.3640  -22.4070 H   0  0  0  0  0  0  0  0  0  0  0  0
  -10.0580    2.1860  -23.4610 H   0  0  0  0  0  0  0  0  0  0  0  0
   -7.1930    3.0570  -24.0320 H   0  0  0  0  0  0  0  0  0  0  0  0
   -9.4450    3.9320  -23.7620 H   0  0  0  0  0  0  0  0  0  0  0  0
  -10.4890    1.8670  -21.6270 H   0  0  0  0  0  0  0  0  0  0  0  0
   -8.8500    1.9450  -21.3560 H   0  0  0  0  0  0  0  0  0  0  0  0
   -9.8660    0.1190  -20.4070 H   0  0  0  0  0  0  0  0  0  0  0  0
  -10.3400    0.5880  -22.6680 H   0  0  0  0  0  0  0  0  0  0  0  0
  1  2  2  0  0  0  0
  2  3  1  0  0  0  0
  2 22  1  0  0  0  0
  3  4  1  0  0  0  0
  3 20  1  0  0  0  0
  3 21  1  0  0  0  0
  4  5  2  0  0  0  0
  4 13  1  0  0  0  0
  5  6  1  0  0  0  0
  5 19  1  0  0  0  0
  6  7  2  0  0  0  0
  7  8  1  0  0  0  0
  7 18  1  0  0  0  0
  8  9  2  0  0  0  0
  8 13  1  0  0  0  0
  9 10  1  0  0  0  0
  9 17  1  0  0  0  0
 10 11  2  0  0  0  0
 10 16  1  0  0  0  0
 11 12  1  0  0  0  0
 11 15  1  0  0  0  0
 12 13  2  0  0  0  0
 12 14  1  0  0  0  0
 22 23  1  0  0  0  0
 22 31  1  0  0  0  0
 23 24  1  0  0  0  0
 23 39  1  0  0  0  0
 23 40  1  0  0  0  0
 24 25  1  0  0  0  0
 24 37  1  0  0  0  0
 24 38  1  0  0  0  0
 25 26  1  0  0  0  0
 25 30  1  0  0  0  0
 25 36  1  0  0  0  0
 26 27  1  0  0  0  0
 26 28  1  0  0  0  0
 26 29  1  0  0  0  0
 30 31  1  0  0  0  0
 30 34  1  0  0  0  0
 30 35  1  0  0  0  0
 31 32  1  0  0  0  0
 31 33  1  0  0  0  0
M  END
>  <MODEL>
       1

$$$$
