tmp_first_model_13_45.pdb
 OpenBabel08282500103D

 66 71  0  0  1  0  0  0  0  0999 V2000
   -7.4390    3.3250  -21.7330 C   0  0  0  0  0  0  0  0  0  0  0  0
   -8.3070    2.8720  -22.8040 N   0  0  0  0  0  0  0  0  0  0  0  0
   -7.7450    2.2110  -23.8390 C   0  0  0  0  0  0  0  0  0  0  0  0
   -6.5300    2.1190  -23.9740 O   0  0  0  0  0  0  0  0  0  0  0  0
   -8.7010    1.5930  -24.8640 C   0  0  0  0  0  0  0  0  0  0  0  0
   -9.4200    0.4370  -24.3650 N   0  0  0  0  0  0  0  0  0  0  0  0
   -8.6940   -0.8090  -24.2070 C   0  0  0  0  0  0  0  0  0  0  0  0
   -9.0740   -1.5290  -22.8880 C   0  0  2  0  0  0  0  0  0  0  0  0
   -8.5250   -0.7420  -21.6690 C   0  0  0  0  0  0  0  0  0  0  0  0
   -8.9850    0.2710  -21.1810 O   0  0  0  0  0  0  0  0  0  0  0  0
   -7.3990   -1.3820  -21.2040 N   0  0  0  0  0  0  0  0  0  0  0  0
   -6.6020   -0.8110  -20.1760 C   0  0  0  0  0  0  0  0  0  0  0  0
   -6.9080   -1.0420  -18.8590 C   0  0  0  0  0  0  0  0  0  0  0  0
   -6.2000   -0.5460  -17.8160 N   0  0  0  0  0  0  0  0  0  0  0  0
   -5.1650    0.2090  -18.0820 C   0  0  0  0  0  0  0  0  0  0  0  0
   -4.7290    0.5320  -19.3970 C   0  0  0  0  0  0  0  0  0  0  0  0
   -3.6020    1.3660  -19.6430 C   0  0  0  0  0  0  0  0  0  0  0  0
   -3.2170    1.6580  -20.9220 C   0  0  0  0  0  0  0  0  0  0  0  0
   -3.9410    1.1280  -22.0140 C   0  0  0  0  0  0  0  0  0  0  0  0
   -5.0330    0.3210  -21.8020 C   0  0  0  0  0  0  0  0  0  0  0  0
   -5.4640    0.0020  -20.4870 C   0  0  0  0  0  0  0  0  0  0  0  0
   -5.5900   -0.0650  -22.6520 H   0  0  0  0  0  0  0  0  0  0  0  0
   -3.6520    1.3690  -23.0320 H   0  0  0  0  0  0  0  0  0  0  0  0
   -2.3660    2.3100  -21.1020 H   0  0  0  0  0  0  0  0  0  0  0  0
   -3.0720    1.7720  -18.7850 H   0  0  0  0  0  0  0  0  0  0  0  0
   -4.6170    0.6120  -17.2290 H   0  0  0  0  0  0  0  0  0  0  0  0
   -7.7590   -1.6660  -18.5990 H   0  0  0  0  0  0  0  0  0  0  0  0
   -7.0550   -2.5870  -21.9320 C   0  0  0  0  0  0  0  0  0  0  0  0
   -8.3250   -2.8940  -22.7510 C   0  0  2  0  0  0  0  0  0  0  0  0
   -8.0180   -3.6740  -24.0490 C   0  0  0  0  0  0  0  0  0  0  0  0
   -7.4770   -5.0620  -23.7780 C   0  0  0  0  0  0  0  0  0  0  0  0
   -8.3520   -6.1160  -23.5010 C   0  0  0  0  0  0  0  0  0  0  0  0
   -7.8740   -7.3920  -23.2110 C   0  0  0  0  0  0  0  0  0  0  0  0
   -6.5020   -7.6350  -23.1910 C   0  0  0  0  0  0  0  0  0  0  0  0
   -5.6170   -6.5960  -23.4690 C   0  0  0  0  0  0  0  0  0  0  0  0
   -6.1030   -5.3210  -23.7570 C   0  0  0  0  0  0  0  0  0  0  0  0
   -5.4030   -4.5120  -23.9680 H   0  0  0  0  0  0  0  0  0  0  0  0
   -4.5440   -6.7810  -23.4620 H   0  0  0  0  0  0  0  0  0  0  0  0
   -6.1240   -8.6310  -22.9650 H   0  0  0  0  0  0  0  0  0  0  0  0
   -8.5770   -8.1970  -23.0020 H   0  0  0  0  0  0  0  0  0  0  0  0
   -9.4250   -5.9260  -23.5140 H   0  0  0  0  0  0  0  0  0  0  0  0
   -8.9360   -3.7520  -24.6490 H   0  0  0  0  0  0  0  0  0  0  0  0
   -7.2900   -3.1130  -24.6510 H   0  0  0  0  0  0  0  0  0  0  0  0
   -8.9700   -3.5340  -22.1440 H   0  0  0  0  0  0  0  0  0  0  0  0
   -6.7950   -3.4020  -21.2460 H   0  0  0  0  0  0  0  0  0  0  0  0
   -6.1810   -2.4240  -22.5840 H   0  0  0  0  0  0  0  0  0  0  0  0
  -10.5900   -1.5900  -22.8100 C   0  0  0  0  0  0  0  0  0  0  0  0
  -11.2160   -2.4900  -21.9390 C   0  0  0  0  0  0  0  0  0  0  0  0
  -12.5950   -2.5170  -21.8440 C   0  0  0  0  0  0  0  0  0  0  0  0
  -13.3610   -3.6350  -20.7520 Cl  0  0  0  0  0  0  0  0  0  0  0  0
  -13.3930   -1.6540  -22.5940 C   0  0  0  0  0  0  0  0  0  0  0  0
  -12.7830   -0.7210  -23.4090 C   0  0  0  0  0  0  0  0  0  0  0  0
  -11.3920   -0.6650  -23.4950 C   0  0  0  0  0  0  0  0  0  0  0  0
  -10.7860    0.4690  -24.2670 C   0  0  0  0  0  0  0  0  0  0  0  0
  -11.4690    1.3710  -24.7360 O   0  0  0  0  0  0  0  0  0  0  0  0
  -13.3510    0.0070  -23.9810 H   0  0  0  0  0  0  0  0  0  0  0  0
  -14.4720   -1.7060  -22.5090 H   0  0  0  0  0  0  0  0  0  0  0  0
  -10.6370   -3.1580  -21.3110 H   0  0  0  0  0  0  0  0  0  0  0  0
   -8.9050   -1.4840  -25.0540 H   0  0  0  0  0  0  0  0  0  0  0  0
   -7.6290   -0.5600  -24.2010 H   0  0  0  0  0  0  0  0  0  0  0  0
   -9.4770    2.2950  -25.1780 H   0  0  0  0  0  0  0  0  0  0  0  0
   -8.0690    1.3230  -25.7190 H   0  0  0  0  0  0  0  0  0  0  0  0
   -9.3000    2.7940  -22.6460 H   0  0  0  0  0  0  0  0  0  0  0  0
   -6.7640    4.1100  -22.0880 H   0  0  0  0  0  0  0  0  0  0  0  0
   -8.0690    3.7260  -20.9500 H   0  0  0  0  0  0  0  0  0  0  0  0
   -6.8330    2.4920  -21.3540 H   0  0  0  0  0  0  0  0  0  0  0  0
  1  2  1  0  0  0  0
  1 64  1  0  0  0  0
  1 65  1  0  0  0  0
  1 66  1  0  0  0  0
  2  3  1  0  0  0  0
  2 63  1  0  0  0  0
  3  4  2  0  0  0  0
  3  5  1  0  0  0  0
  5  6  1  0  0  0  0
  5 61  1  0  0  0  0
  5 62  1  0  0  0  0
  6  7  1  0  0  0  0
  6 54  1  0  0  0  0
  7  8  1  0  0  0  0
  7 59  1  0  0  0  0
  7 60  1  0  0  0  0
  8  9  1  1  0  0  0
  8 29  1  0  0  0  0
  8 47  1  0  0  0  0
  9 10  2  0  0  0  0
  9 11  1  0  0  0  0
 11 12  1  0  0  0  0
 11 28  1  0  0  0  0
 12 13  2  0  0  0  0
 12 21  1  0  0  0  0
 13 14  1  0  0  0  0
 13 27  1  0  0  0  0
 14 15  2  0  0  0  0
 15 16  1  0  0  0  0
 15 26  1  0  0  0  0
 16 17  2  0  0  0  0
 16 21  1  0  0  0  0
 17 18  1  0  0  0  0
 17 25  1  0  0  0  0
 18 19  2  0  0  0  0
 18 24  1  0  0  0  0
 19 20  1  0  0  0  0
 19 23  1  0  0  0  0
 20 21  2  0  0  0  0
 20 22  1  0  0  0  0
 28 29  1  0  0  0  0
 28 45  1  0  0  0  0
 28 46  1  0  0  0  0
 29 30  1  0  0  0  0
 29 44  1  1  0  0  0
 30 31  1  0  0  0  0
 30 42  1  0  0  0  0
 30 43  1  0  0  0  0
 31 32  2  0  0  0  0
 31 36  1  0  0  0  0
 32 33  1  0  0  0  0
 32 41  1  0  0  0  0
 33 34  2  0  0  0  0
 33 40  1  0  0  0  0
 34 35  1  0  0  0  0
 34 39  1  0  0  0  0
 35 36  2  0  0  0  0
 35 38  1  0  0  0  0
 36 37  1  0  0  0  0
 47 48  2  0  0  0  0
 47 53  1  0  0  0  0
 48 49  1  0  0  0  0
 48 58  1  0  0  0  0
 49 50  1  0  0  0  0
 49 51  2  0  0  0  0
 51 52  1  0  0  0  0
 51 57  1  0  0  0  0
 52 53  2  0  0  0  0
 52 56  1  0  0  0  0
 53 54  1  0  0  0  0
 54 55  2  0  0  0  0
M  END
>  <MODEL>
       1

$$$$
