tmp_first_model_2_55.pdb
 OpenBabel08272517383D

 61 66  0  0  1  0  0  0  0  0999 V2000
   -7.0050   -5.4650  -25.0560 C   0  0  0  0  0  0  0  0  0  0  0  0
   -7.3330   -4.8050  -23.8570 O   0  0  0  0  0  0  0  0  0  0  0  0
   -7.9850   -3.5790  -24.0880 C   0  0  0  0  0  0  0  0  0  0  0  0
   -8.2920   -2.9170  -22.7430 C   0  0  1  0  0  0  0  0  0  0  0  0
   -7.0130   -2.5610  -21.9580 C   0  0  0  0  0  0  0  0  0  0  0  0
   -7.3910   -1.3780  -21.2070 N   0  0  0  0  0  0  0  0  0  0  0  0
   -6.6050   -0.8090  -20.1770 C   0  0  0  0  0  0  0  0  0  0  0  0
   -6.9190   -1.0450  -18.8610 C   0  0  0  0  0  0  0  0  0  0  0  0
   -6.2210   -0.5490  -17.8110 N   0  0  0  0  0  0  0  0  0  0  0  0
   -5.1870    0.2130  -18.0810 C   0  0  0  0  0  0  0  0  0  0  0  0
   -4.7530    0.5380  -19.3990 C   0  0  0  0  0  0  0  0  0  0  0  0
   -3.6290    1.3740  -19.6370 C   0  0  0  0  0  0  0  0  0  0  0  0
   -3.2400    1.6690  -20.9160 C   0  0  0  0  0  0  0  0  0  0  0  0
   -3.9470    1.1350  -22.0150 C   0  0  0  0  0  0  0  0  0  0  0  0
   -5.0290    0.3090  -21.8090 C   0  0  0  0  0  0  0  0  0  0  0  0
   -5.4700    0.0020  -20.4900 C   0  0  0  0  0  0  0  0  0  0  0  0
   -5.5810   -0.0720  -22.6630 H   0  0  0  0  0  0  0  0  0  0  0  0
   -3.6260    1.3850  -23.0250 H   0  0  0  0  0  0  0  0  0  0  0  0
   -2.3800    2.3090  -21.0940 H   0  0  0  0  0  0  0  0  0  0  0  0
   -3.0920    1.7670  -18.7790 H   0  0  0  0  0  0  0  0  0  0  0  0
   -4.6250    0.6110  -17.2360 H   0  0  0  0  0  0  0  0  0  0  0  0
   -7.7780   -1.6660  -18.6120 H   0  0  0  0  0  0  0  0  0  0  0  0
   -8.5890   -0.8170  -21.5820 C   0  0  0  0  0  0  0  0  0  0  0  0
   -9.1000    0.1410  -21.0340 O   0  0  0  0  0  0  0  0  0  0  0  0
   -9.1360   -1.6090  -22.7920 C   0  0  1  0  0  0  0  0  0  0  0  0
   -8.8750   -0.8370  -24.1030 C   0  0  0  0  0  0  0  0  0  0  0  0
   -9.6970    0.3480  -24.2160 N   0  0  0  0  0  0  0  0  0  0  0  0
   -9.0570    1.5730  -24.6530 C   0  0  0  0  0  0  0  0  0  0  0  0
   -8.2740    2.2770  -23.5710 C   0  0  0  0  0  0  0  0  0  0  0  0
   -6.9290    2.3810  -23.3940 C   0  0  0  0  0  0  0  0  0  0  0  0
   -6.7100    3.1260  -22.2550 N   0  3  0  0  0  0  0  0  0  0  0  0
   -7.8830    3.4940  -21.7470 C   0  0  0  0  0  0  0  0  0  0  0  0
   -8.8500    2.9840  -22.5260 N   0  0  0  0  0  0  0  0  0  0  0  0
   -9.8250    2.9320  -22.2580 H   0  0  0  0  0  0  0  0  0  0  0  0
   -8.0260    4.1280  -20.8840 H   0  0  0  0  0  0  0  0  0  0  0  0
   -5.8030    3.1810  -21.8020 H   0  0  0  0  0  0  0  0  0  0  0  0
   -6.0670    2.0140  -23.9430 H   0  0  0  0  0  0  0  0  0  0  0  0
   -9.8720    2.1960  -25.0330 H   0  0  0  0  0  0  0  0  0  0  0  0
   -8.3880    1.3300  -25.4900 H   0  0  0  0  0  0  0  0  0  0  0  0
  -11.0440    0.3140  -24.0070 C   0  0  0  0  0  0  0  0  0  0  0  0
  -11.8080    1.2030  -24.3730 O   0  0  0  0  0  0  0  0  0  0  0  0
  -11.5280   -0.8890  -23.2670 C   0  0  0  0  0  0  0  0  0  0  0  0
  -12.9060   -1.0270  -23.1230 C   0  0  0  0  0  0  0  0  0  0  0  0
  -13.4150   -2.0200  -22.3130 C   0  0  0  0  0  0  0  0  0  0  0  0
  -12.5250   -2.8560  -21.6380 C   0  0  0  0  0  0  0  0  0  0  0  0
  -13.1740   -3.9970  -20.4980 Cl  0  0  0  0  0  0  0  0  0  0  0  0
  -11.1560   -2.7640  -21.8140 C   0  0  0  0  0  0  0  0  0  0  0  0
  -10.6340   -1.7850  -22.6650 C   0  0  0  0  0  0  0  0  0  0  0  0
  -10.4990   -3.4320  -21.2670 H   0  0  0  0  0  0  0  0  0  0  0  0
  -14.4790   -2.1450  -22.1570 H   0  0  0  0  0  0  0  0  0  0  0  0
  -13.5400   -0.3100  -23.6350 H   0  0  0  0  0  0  0  0  0  0  0  0
   -9.0720   -1.5150  -24.9440 H   0  0  0  0  0  0  0  0  0  0  0  0
   -7.8330   -0.5120  -24.1480 H   0  0  0  0  0  0  0  0  0  0  0  0
   -6.1720   -2.3520  -22.6330 H   0  0  0  0  0  0  0  0  0  0  0  0
   -6.7000   -3.3620  -21.2800 H   0  0  0  0  0  0  0  0  0  0  0  0
   -8.8480   -3.6520  -22.1620 H   0  0  0  0  0  0  0  0  0  0  0  0
   -8.9140   -3.7500  -24.6620 H   0  0  0  0  0  0  0  0  0  0  0  0
   -7.3360   -2.9180  -24.6920 H   0  0  0  0  0  0  0  0  0  0  0  0
   -6.5400   -6.4170  -24.7900 H   0  0  0  0  0  0  0  0  0  0  0  0
   -7.8970   -5.6710  -25.6730 H   0  0  0  0  0  0  0  0  0  0  0  0
   -6.2920   -4.8840  -25.6660 H   0  0  0  0  0  0  0  0  0  0  0  0
  1  2  1  0  0  0  0
  1 59  1  0  0  0  0
  1 60  1  0  0  0  0
  1 61  1  0  0  0  0
  2  3  1  0  0  0  0
  3  4  1  0  0  0  0
  3 57  1  0  0  0  0
  3 58  1  0  0  0  0
  4  5  1  0  0  0  0
  4 25  1  0  0  0  0
  4 56  1  1  0  0  0
  5  6  1  0  0  0  0
  5 54  1  0  0  0  0
  5 55  1  0  0  0  0
  6  7  1  0  0  0  0
  6 23  1  0  0  0  0
  7  8  2  0  0  0  0
  7 16  1  0  0  0  0
  8  9  1  0  0  0  0
  8 22  1  0  0  0  0
  9 10  2  0  0  0  0
 10 11  1  0  0  0  0
 10 21  1  0  0  0  0
 11 12  2  0  0  0  0
 11 16  1  0  0  0  0
 12 13  1  0  0  0  0
 12 20  1  0  0  0  0
 13 14  2  0  0  0  0
 13 19  1  0  0  0  0
 14 15  1  0  0  0  0
 14 18  1  0  0  0  0
 15 16  2  0  0  0  0
 15 17  1  0  0  0  0
 23 24  2  0  0  0  0
 25 23  1  1  0  0  0
 25 26  1  0  0  0  0
 25 48  1  0  0  0  0
 26 27  1  0  0  0  0
 26 52  1  0  0  0  0
 26 53  1  0  0  0  0
 27 28  1  0  0  0  0
 27 40  1  0  0  0  0
 28 29  1  0  0  0  0
 28 38  1  0  0  0  0
 28 39  1  0  0  0  0
 29 30  2  0  0  0  0
 29 33  1  0  0  0  0
 30 31  1  0  0  0  0
 30 37  1  0  0  0  0
 31 32  2  0  0  0  0
 31 36  1  0  0  0  0
 32 33  1  0  0  0  0
 32 35  1  0  0  0  0
 33 34  1  0  0  0  0
 40 41  2  0  0  0  0
 40 42  1  0  0  0  0
 42 43  2  0  0  0  0
 42 48  1  0  0  0  0
 43 44  1  0  0  0  0
 43 51  1  0  0  0  0
 44 45  2  0  0  0  0
 44 50  1  0  0  0  0
 45 46  1  0  0  0  0
 45 47  1  0  0  0  0
 47 48  2  0  0  0  0
 47 49  1  0  0  0  0
M  CHG  1  31   1
M  END
>  <MODEL>
       1

$$$$
