tmp_first_model_20_3.pdb
 OpenBabel08282503553D

 66 70  0  0  1  0  0  0  0  0999 V2000
   -7.7420    2.8820  -22.3030 C   0  0  0  0  0  0  0  0  0  0  0  0
   -8.6710    2.3790  -23.2830 N   0  0  0  0  0  0  0  0  0  0  0  0
   -8.2140    1.8440  -24.4400 C   0  0  0  0  0  0  0  0  0  0  0  0
   -7.0360    1.8130  -24.7690 O   0  0  0  0  0  0  0  0  0  0  0  0
   -9.3190    1.1760  -25.2510 C   0  0  0  0  0  0  0  0  0  0  0  0
   -9.8520    0.0570  -24.4900 N   0  0  0  0  0  0  0  0  0  0  0  0
   -8.9130   -1.0030  -24.1660 C   0  0  0  0  0  0  0  0  0  0  0  0
   -9.2080   -1.7380  -22.8220 C   0  0  2  0  0  0  0  0  0  0  0  0
   -8.6950   -0.8790  -21.6310 C   0  0  0  0  0  0  0  0  0  0  0  0
   -9.2640    0.0730  -21.1290 O   0  0  0  0  0  0  0  0  0  0  0  0
   -7.4640   -1.3600  -21.2390 N   0  0  0  0  0  0  0  0  0  0  0  0
   -6.6960   -0.7750  -20.1960 C   0  0  0  0  0  0  0  0  0  0  0  0
   -7.0200   -1.0010  -18.8820 C   0  0  0  0  0  0  0  0  0  0  0  0
   -6.3080   -0.5390  -17.8220 N   0  0  0  0  0  0  0  0  0  0  0  0
   -5.2320    0.1670  -18.0770 C   0  0  0  0  0  0  0  0  0  0  0  0
   -4.7820    0.4870  -19.3900 C   0  0  0  0  0  0  0  0  0  0  0  0
   -3.6230    1.2780  -19.6210 C   0  0  0  0  0  0  0  0  0  0  0  0
   -3.2400    1.5920  -20.8960 C   0  0  0  0  0  0  0  0  0  0  0  0
   -3.9960    1.1410  -21.9980 C   0  0  0  0  0  0  0  0  0  0  0  0
   -5.1200    0.3730  -21.8010 C   0  0  0  0  0  0  0  0  0  0  0  0
   -5.5370    0.0140  -20.4900 C   0  0  0  0  0  0  0  0  0  0  0  0
   -5.7340    0.1090  -22.6580 H   0  0  0  0  0  0  0  0  0  0  0  0
   -3.7040    1.4210  -23.0070 H   0  0  0  0  0  0  0  0  0  0  0  0
   -2.3630    2.2100  -21.0730 H   0  0  0  0  0  0  0  0  0  0  0  0
   -3.0550    1.6360  -18.7670 H   0  0  0  0  0  0  0  0  0  0  0  0
   -4.6570    0.5320  -17.2230 H   0  0  0  0  0  0  0  0  0  0  0  0
   -7.8960   -1.5990  -18.6440 H   0  0  0  0  0  0  0  0  0  0  0  0
   -7.0040   -2.4970  -22.0140 C   0  0  0  0  0  0  0  0  0  0  0  0
   -8.2910   -2.9910  -22.7030 C   0  0  2  0  0  0  0  0  0  0  0  0
   -8.0070   -3.7200  -24.0080 C   0  0  0  0  0  0  0  0  0  0  0  0
   -7.2660   -4.8880  -23.7450 O   0  0  0  0  0  0  0  0  0  0  0  0
   -7.0700   -5.6820  -24.9100 C   0  0  0  0  0  0  0  0  0  0  0  0
   -5.6970   -6.3240  -24.8000 C   0  0  0  0  0  0  0  0  0  0  0  0
   -5.4830   -6.9380  -25.6810 H   0  0  0  0  0  0  0  0  0  0  0  0
   -4.9170   -5.5620  -24.7100 H   0  0  0  0  0  0  0  0  0  0  0  0
   -5.6660   -6.9610  -23.9110 H   0  0  0  0  0  0  0  0  0  0  0  0
   -8.1820   -6.7180  -25.0090 C   0  0  0  0  0  0  0  0  0  0  0  0
   -8.1640   -7.3490  -24.1160 H   0  0  0  0  0  0  0  0  0  0  0  0
   -9.1700   -6.2480  -25.0690 H   0  0  0  0  0  0  0  0  0  0  0  0
   -8.0500   -7.3510  -25.8930 H   0  0  0  0  0  0  0  0  0  0  0  0
   -7.0920   -5.0320  -25.8010 H   0  0  0  0  0  0  0  0  0  0  0  0
   -8.9560   -3.9530  -24.5200 H   0  0  0  0  0  0  0  0  0  0  0  0
   -7.4110   -3.0750  -24.6770 H   0  0  0  0  0  0  0  0  0  0  0  0
   -8.7680   -3.7060  -22.0300 H   0  0  0  0  0  0  0  0  0  0  0  0
   -6.2290   -2.2120  -22.7470 H   0  0  0  0  0  0  0  0  0  0  0  0
   -6.5690   -3.2580  -21.3610 H   0  0  0  0  0  0  0  0  0  0  0  0
  -10.7100   -1.9790  -22.7060 C   0  0  0  0  0  0  0  0  0  0  0  0
  -11.2450   -2.9570  -21.8540 C   0  0  0  0  0  0  0  0  0  0  0  0
  -12.6150   -3.0390  -21.6500 C   0  0  0  0  0  0  0  0  0  0  0  0
  -13.2650   -4.1850  -20.5140 Cl  0  0  0  0  0  0  0  0  0  0  0  0
  -13.5160   -2.2030  -22.3030 C   0  0  0  0  0  0  0  0  0  0  0  0
  -13.0020   -1.2420  -23.1430 C   0  0  0  0  0  0  0  0  0  0  0  0
  -11.6260   -1.1160  -23.3290 C   0  0  0  0  0  0  0  0  0  0  0  0
  -11.1780    0.0340  -24.1750 C   0  0  0  0  0  0  0  0  0  0  0  0
  -11.9530    0.9100  -24.5310 O   0  0  0  0  0  0  0  0  0  0  0  0
  -13.6500   -0.5380  -23.6500 H   0  0  0  0  0  0  0  0  0  0  0  0
  -14.5830   -2.2990  -22.1240 H   0  0  0  0  0  0  0  0  0  0  0  0
  -10.6100   -3.6520  -21.3160 H   0  0  0  0  0  0  0  0  0  0  0  0
   -8.9060   -1.7200  -24.9920 H   0  0  0  0  0  0  0  0  0  0  0  0
   -7.9160   -0.5510  -24.1210 H   0  0  0  0  0  0  0  0  0  0  0  0
   -8.9020    0.8630  -26.2120 H   0  0  0  0  0  0  0  0  0  0  0  0
  -10.1470    1.8670  -25.4240 H   0  0  0  0  0  0  0  0  0  0  0  0
   -9.5870    2.1080  -22.9680 H   0  0  0  0  0  0  0  0  0  0  0  0
   -7.4450    3.9140  -22.5050 H   0  0  0  0  0  0  0  0  0  0  0  0
   -8.2110    2.8400  -21.3250 H   0  0  0  0  0  0  0  0  0  0  0  0
   -6.8560    2.2460  -22.2810 H   0  0  0  0  0  0  0  0  0  0  0  0
  1  2  1  0  0  0  0
  1 64  1  0  0  0  0
  1 65  1  0  0  0  0
  1 66  1  0  0  0  0
  2  3  1  0  0  0  0
  2 63  1  0  0  0  0
  3  4  2  0  0  0  0
  3  5  1  0  0  0  0
  5  6  1  0  0  0  0
  5 61  1  0  0  0  0
  5 62  1  0  0  0  0
  6  7  1  0  0  0  0
  6 54  1  0  0  0  0
  7  8  1  0  0  0  0
  7 59  1  0  0  0  0
  7 60  1  0  0  0  0
  8  9  1  1  0  0  0
  8 29  1  0  0  0  0
  8 47  1  0  0  0  0
  9 10  2  0  0  0  0
  9 11  1  0  0  0  0
 11 12  1  0  0  0  0
 11 28  1  0  0  0  0
 12 13  2  0  0  0  0
 12 21  1  0  0  0  0
 13 14  1  0  0  0  0
 13 27  1  0  0  0  0
 14 15  2  0  0  0  0
 15 16  1  0  0  0  0
 15 26  1  0  0  0  0
 16 17  2  0  0  0  0
 16 21  1  0  0  0  0
 17 18  1  0  0  0  0
 17 25  1  0  0  0  0
 18 19  2  0  0  0  0
 18 24  1  0  0  0  0
 19 20  1  0  0  0  0
 19 23  1  0  0  0  0
 20 21  2  0  0  0  0
 20 22  1  0  0  0  0
 28 29  1  0  0  0  0
 28 45  1  0  0  0  0
 28 46  1  0  0  0  0
 29 30  1  0  0  0  0
 29 44  1  1  0  0  0
 30 31  1  0  0  0  0
 30 42  1  0  0  0  0
 30 43  1  0  0  0  0
 31 32  1  0  0  0  0
 32 33  1  0  0  0  0
 32 37  1  0  0  0  0
 32 41  1  0  0  0  0
 33 34  1  0  0  0  0
 33 35  1  0  0  0  0
 33 36  1  0  0  0  0
 37 38  1  0  0  0  0
 37 39  1  0  0  0  0
 37 40  1  0  0  0  0
 47 48  2  0  0  0  0
 47 53  1  0  0  0  0
 48 49  1  0  0  0  0
 48 58  1  0  0  0  0
 49 50  1  0  0  0  0
 49 51  2  0  0  0  0
 51 52  1  0  0  0  0
 51 57  1  0  0  0  0
 52 53  2  0  0  0  0
 52 56  1  0  0  0  0
 53 54  1  0  0  0  0
 54 55  2  0  0  0  0
M  END
>  <MODEL>
       1

$$$$
