tmp_first_model_6_82.pdb
 OpenBabel08272519583D

 54 57  0  0  1  0  0  0  0  0999 V2000
   -9.4410    1.4480  -24.5530 C   0  0  0  0  0  0  0  0  0  0  0  0
   -8.8990    0.1540  -24.4440 O   0  0  0  0  0  0  0  0  0  0  0  0
   -7.6140   -0.0550  -24.8350 C   0  0  0  0  0  0  0  0  0  0  0  0
   -6.8010    0.9390  -25.3810 C   0  0  0  0  0  0  0  0  0  0  0  0
   -5.4950    0.6320  -25.7580 C   0  0  0  0  0  0  0  0  0  0  0  0
   -5.0110   -0.6620  -25.5980 C   0  0  0  0  0  0  0  0  0  0  0  0
   -5.8300   -1.6420  -25.0410 C   0  0  0  0  0  0  0  0  0  0  0  0
   -7.1250   -1.3570  -24.6340 C   0  0  0  0  0  0  0  0  0  0  0  0
   -8.0050   -2.4550  -24.0320 C   0  0  1  0  0  0  0  0  0  0  0  0
   -8.5380   -3.3670  -25.1490 C   0  0  0  0  0  0  0  0  0  0  0  0
   -9.2390   -4.6070  -24.5850 C   0  0  1  0  0  0  0  0  0  0  0  0
   -9.8530   -5.4700  -25.6900 C   0  0  0  0  0  0  0  0  0  0  0  0
  -10.5600   -4.9010  -26.2930 H   0  0  0  0  0  0  0  0  0  0  0  0
   -9.0830   -5.8460  -26.3750 H   0  0  0  0  0  0  0  0  0  0  0  0
  -10.3830   -6.3330  -25.2740 H   0  0  0  0  0  0  0  0  0  0  0  0
   -8.2660   -5.4350  -23.7170 C   0  0  0  0  0  0  0  0  0  0  0  0
   -6.9990   -4.6540  -23.3490 C   0  0  0  0  0  0  0  0  0  0  0  0
   -7.3100   -3.2630  -23.0270 N   0  0  0  0  0  0  0  0  0  0  0  0
   -6.7430   -2.7410  -21.8860 C   0  0  0  0  0  0  0  0  0  0  0  0
   -5.8240   -3.3070  -21.3160 O   0  0  0  0  0  0  0  0  0  0  0  0
   -7.3860   -1.4720  -21.2930 C   0  0  0  0  0  0  0  0  0  0  0  0
   -6.5740   -0.8370  -20.1960 C   0  0  0  0  0  0  0  0  0  0  0  0
   -6.8710   -1.0640  -18.8760 C   0  0  0  0  0  0  0  0  0  0  0  0
   -6.1920   -0.5590  -17.8120 N   0  0  0  0  0  0  0  0  0  0  0  0
   -5.1650    0.2090  -18.0730 C   0  0  0  0  0  0  0  0  0  0  0  0
   -4.7310    0.5370  -19.3880 C   0  0  0  0  0  0  0  0  0  0  0  0
   -3.6070    1.3690  -19.6150 C   0  0  0  0  0  0  0  0  0  0  0  0
   -3.2240    1.6720  -20.8910 C   0  0  0  0  0  0  0  0  0  0  0  0
   -3.9600    1.1670  -21.9870 C   0  0  0  0  0  0  0  0  0  0  0  0
   -5.0420    0.3440  -21.7990 C   0  0  0  0  0  0  0  0  0  0  0  0
   -5.4590    0.0090  -20.4830 C   0  0  0  0  0  0  0  0  0  0  0  0
   -5.5350   -0.0920  -22.6690 H   0  0  0  0  0  0  0  0  0  0  0  0
   -3.6280    1.3740  -23.0010 H   0  0  0  0  0  0  0  0  0  0  0  0
   -2.3480    2.2840  -21.0760 H   0  0  0  0  0  0  0  0  0  0  0  0
   -3.0680    1.7550  -18.7530 H   0  0  0  0  0  0  0  0  0  0  0  0
   -4.6210    0.6210  -17.2210 H   0  0  0  0  0  0  0  0  0  0  0  0
   -7.7250   -1.6830  -18.6020 H   0  0  0  0  0  0  0  0  0  0  0  0
   -7.6280   -0.7470  -22.0770 H   0  0  0  0  0  0  0  0  0  0  0  0
   -8.3530   -1.7850  -20.8750 H   0  0  0  0  0  0  0  0  0  0  0  0
   -6.2740   -4.7060  -24.1750 H   0  0  0  0  0  0  0  0  0  0  0  0
   -6.5130   -5.0690  -22.4660 H   0  0  0  0  0  0  0  0  0  0  0  0
   -7.9660   -6.3410  -24.2610 H   0  0  0  0  0  0  0  0  0  0  0  0
   -8.7840   -5.7640  -22.8070 H   0  0  0  0  0  0  0  0  0  0  0  0
  -10.0470   -4.2490  -23.9290 H   0  0  0  0  0  0  0  0  0  0  0  0
   -9.2380   -2.7670  -25.7440 H   0  0  0  0  0  0  0  0  0  0  0  0
   -7.7110   -3.6660  -25.8160 H   0  0  0  0  0  0  0  0  0  0  0  0
   -8.8610   -1.9640  -23.5550 H   0  0  0  0  0  0  0  0  0  0  0  0
   -5.4480   -2.6570  -24.9280 H   0  0  0  0  0  0  0  0  0  0  0  0
   -4.0030   -0.9250  -25.8990 H   0  0  0  0  0  0  0  0  0  0  0  0
   -4.8560    1.4090  -26.1730 H   0  0  0  0  0  0  0  0  0  0  0  0
   -7.1760    1.9480  -25.5040 H   0  0  0  0  0  0  0  0  0  0  0  0
   -9.4200    1.8170  -25.5850 H   0  0  0  0  0  0  0  0  0  0  0  0
   -8.8990    2.1670  -23.9230 H   0  0  0  0  0  0  0  0  0  0  0  0
  -10.4700    1.3360  -24.2090 H   0  0  0  0  0  0  0  0  0  0  0  0
  1  2  1  0  0  0  0
  1 52  1  0  0  0  0
  1 53  1  0  0  0  0
  1 54  1  0  0  0  0
  2  3  1  0  0  0  0
  3  4  2  0  0  0  0
  3  8  1  0  0  0  0
  4  5  1  0  0  0  0
  4 51  1  0  0  0  0
  5  6  2  0  0  0  0
  5 50  1  0  0  0  0
  6  7  1  0  0  0  0
  6 49  1  0  0  0  0
  7  8  2  0  0  0  0
  7 48  1  0  0  0  0
  8  9  1  0  0  0  0
  9 10  1  0  0  0  0
  9 18  1  0  0  0  0
  9 47  1  1  0  0  0
 10 11  1  0  0  0  0
 10 45  1  0  0  0  0
 10 46  1  0  0  0  0
 11 12  1  0  0  0  0
 11 16  1  0  0  0  0
 11 44  1  1  0  0  0
 12 13  1  0  0  0  0
 12 14  1  0  0  0  0
 12 15  1  0  0  0  0
 16 17  1  0  0  0  0
 16 42  1  0  0  0  0
 16 43  1  0  0  0  0
 17 18  1  0  0  0  0
 17 40  1  0  0  0  0
 17 41  1  0  0  0  0
 18 19  1  0  0  0  0
 19 20  2  0  0  0  0
 19 21  1  0  0  0  0
 21 22  1  0  0  0  0
 21 38  1  0  0  0  0
 21 39  1  0  0  0  0
 22 23  2  0  0  0  0
 22 31  1  0  0  0  0
 23 24  1  0  0  0  0
 23 37  1  0  0  0  0
 24 25  2  0  0  0  0
 25 26  1  0  0  0  0
 25 36  1  0  0  0  0
 26 27  2  0  0  0  0
 26 31  1  0  0  0  0
 27 28  1  0  0  0  0
 27 35  1  0  0  0  0
 28 29  2  0  0  0  0
 28 34  1  0  0  0  0
 29 30  1  0  0  0  0
 29 33  1  0  0  0  0
 30 31  2  0  0  0  0
 30 32  1  0  0  0  0
M  END
>  <MODEL>
       1

$$$$
