tmp_first_model_10_91.pdb
 OpenBabel08272522163D

 66 71  0  0  1  0  0  0  0  0999 V2000
   -7.3960    3.3980  -21.8780 C   0  0  0  0  0  0  0  0  0  0  0  0
   -8.3330    2.9090  -22.8760 N   0  0  0  0  0  0  0  0  0  0  0  0
   -7.8100    2.1850  -23.9090 C   0  0  0  0  0  0  0  0  0  0  0  0
   -6.6060    2.0180  -24.0530 O   0  0  0  0  0  0  0  0  0  0  0  0
   -8.7950    1.5670  -24.8980 C   0  0  0  0  0  0  0  0  0  0  0  0
   -9.4430    0.4140  -24.3040 N   0  0  0  0  0  0  0  0  0  0  0  0
   -8.6880   -0.8250  -24.1550 C   0  0  0  0  0  0  0  0  0  0  0  0
   -9.0670   -1.5700  -22.8460 C   0  0  2  0  0  0  0  0  0  0  0  0
   -8.5470   -0.7760  -21.6250 C   0  0  0  0  0  0  0  0  0  0  0  0
   -9.0230    0.2280  -21.1390 O   0  0  0  0  0  0  0  0  0  0  0  0
   -7.4050   -1.3930  -21.1720 N   0  0  0  0  0  0  0  0  0  0  0  0
   -6.6240   -0.8040  -20.1530 C   0  0  0  0  0  0  0  0  0  0  0  0
   -6.9280   -1.0580  -18.8410 C   0  0  0  0  0  0  0  0  0  0  0  0
   -6.2300   -0.5740  -17.7890 N   0  0  0  0  0  0  0  0  0  0  0  0
   -5.1980    0.1920  -18.0530 C   0  0  0  0  0  0  0  0  0  0  0  0
   -4.7910    0.5580  -19.3700 C   0  0  0  0  0  0  0  0  0  0  0  0
   -3.6950    1.4290  -19.6120 C   0  0  0  0  0  0  0  0  0  0  0  0
   -3.4180    1.8640  -20.8790 C   0  0  0  0  0  0  0  0  0  0  0  0
   -4.2210    1.4560  -21.9680 C   0  0  0  0  0  0  0  0  0  0  0  0
   -5.2220    0.5290  -21.7740 C   0  0  0  0  0  0  0  0  0  0  0  0
   -5.5520    0.0830  -20.4630 C   0  0  0  0  0  0  0  0  0  0  0  0
   -5.7970    0.1830  -22.6270 H   0  0  0  0  0  0  0  0  0  0  0  0
   -4.0610    1.8830  -22.9510 H   0  0  0  0  0  0  0  0  0  0  0  0
   -2.5900    2.5490  -21.0480 H   0  0  0  0  0  0  0  0  0  0  0  0
   -3.0910    1.7420  -18.7650 H   0  0  0  0  0  0  0  0  0  0  0  0
   -4.6280    0.5650  -17.2020 H   0  0  0  0  0  0  0  0  0  0  0  0
   -7.7830   -1.6870  -18.6120 H   0  0  0  0  0  0  0  0  0  0  0  0
   -7.0120   -2.5620  -21.9260 C   0  0  0  0  0  0  0  0  0  0  0  0
   -8.2930   -2.9200  -22.6980 C   0  0  2  0  0  0  0  0  0  0  0  0
   -8.0070   -3.7090  -23.9910 C   0  0  0  0  0  0  0  0  0  0  0  0
   -7.5030   -5.0510  -23.7640 N   0  0  0  0  0  0  0  0  0  0  0  0
   -6.1920   -5.3740  -23.4950 C   0  0  0  0  0  0  0  0  0  0  0  0
   -5.0710   -4.6030  -23.8900 C   0  0  0  0  0  0  0  0  0  0  0  0
   -3.8250   -4.9670  -23.6130 N   0  0  0  0  0  0  0  0  0  0  0  0
   -3.6600   -6.1080  -22.9410 C   0  0  0  0  0  0  0  0  0  0  0  0
   -4.7520   -6.8740  -22.5650 C   0  0  0  0  0  0  0  0  0  0  0  0
   -6.0070   -6.5230  -22.8420 N   0  0  0  0  0  0  0  0  0  0  0  0
   -4.6210   -7.8020  -22.0110 H   0  0  0  0  0  0  0  0  0  0  0  0
   -2.6410   -6.4120  -22.7060 H   0  0  0  0  0  0  0  0  0  0  0  0
   -5.1900   -3.6780  -24.4470 H   0  0  0  0  0  0  0  0  0  0  0  0
   -8.1350   -5.7080  -23.3260 H   0  0  0  0  0  0  0  0  0  0  0  0
   -7.2710   -3.1700  -24.5990 H   0  0  0  0  0  0  0  0  0  0  0  0
   -8.9190   -3.7840  -24.5990 H   0  0  0  0  0  0  0  0  0  0  0  0
   -8.8890   -3.5690  -22.0450 H   0  0  0  0  0  0  0  0  0  0  0  0
   -6.6840   -3.3610  -21.2550 H   0  0  0  0  0  0  0  0  0  0  0  0
   -6.1740   -2.3410  -22.6070 H   0  0  0  0  0  0  0  0  0  0  0  0
  -10.5800   -1.6570  -22.7840 C   0  0  0  0  0  0  0  0  0  0  0  0
  -11.2060   -2.5910  -21.9540 C   0  0  0  0  0  0  0  0  0  0  0  0
  -12.5840   -2.6190  -21.8550 C   0  0  0  0  0  0  0  0  0  0  0  0
  -13.3180   -3.7800  -20.7930 Cl  0  0  0  0  0  0  0  0  0  0  0  0
  -13.3960   -1.7360  -22.5650 C   0  0  0  0  0  0  0  0  0  0  0  0
  -12.7840   -0.7850  -23.3520 C   0  0  0  0  0  0  0  0  0  0  0  0
  -11.3950   -0.7240  -23.4380 C   0  0  0  0  0  0  0  0  0  0  0  0
  -10.8070    0.4200  -24.2010 C   0  0  0  0  0  0  0  0  0  0  0  0
  -11.5030    1.3070  -24.6750 O   0  0  0  0  0  0  0  0  0  0  0  0
  -13.3530   -0.0490  -23.9060 H   0  0  0  0  0  0  0  0  0  0  0  0
  -14.4760   -1.7810  -22.4780 H   0  0  0  0  0  0  0  0  0  0  0  0
  -10.6380   -3.2940  -21.3580 H   0  0  0  0  0  0  0  0  0  0  0  0
   -8.9020   -1.4880  -25.0050 H   0  0  0  0  0  0  0  0  0  0  0  0
   -7.6170   -0.5910  -24.1730 H   0  0  0  0  0  0  0  0  0  0  0  0
   -8.2470    1.2700  -25.8010 H   0  0  0  0  0  0  0  0  0  0  0  0
   -9.5820    2.2730  -25.1820 H   0  0  0  0  0  0  0  0  0  0  0  0
   -9.2710    2.6990  -22.5570 H   0  0  0  0  0  0  0  0  0  0  0  0
   -6.8380    2.5500  -21.4590 H   0  0  0  0  0  0  0  0  0  0  0  0
   -6.6950    4.0970  -22.3400 H   0  0  0  0  0  0  0  0  0  0  0  0
   -7.9280    3.9330  -21.0900 H   0  0  0  0  0  0  0  0  0  0  0  0
  1  2  1  0  0  0  0
  1 64  1  0  0  0  0
  1 65  1  0  0  0  0
  1 66  1  0  0  0  0
  2  3  1  0  0  0  0
  2 63  1  0  0  0  0
  3  4  2  0  0  0  0
  3  5  1  0  0  0  0
  5  6  1  0  0  0  0
  5 61  1  0  0  0  0
  5 62  1  0  0  0  0
  6  7  1  0  0  0  0
  6 54  1  0  0  0  0
  7  8  1  0  0  0  0
  7 59  1  0  0  0  0
  7 60  1  0  0  0  0
  8  9  1  1  0  0  0
  8 29  1  0  0  0  0
  8 47  1  0  0  0  0
  9 10  2  0  0  0  0
  9 11  1  0  0  0  0
 11 12  1  0  0  0  0
 11 28  1  0  0  0  0
 12 13  2  0  0  0  0
 12 21  1  0  0  0  0
 13 14  1  0  0  0  0
 13 27  1  0  0  0  0
 14 15  2  0  0  0  0
 15 16  1  0  0  0  0
 15 26  1  0  0  0  0
 16 17  2  0  0  0  0
 16 21  1  0  0  0  0
 17 18  1  0  0  0  0
 17 25  1  0  0  0  0
 18 19  2  0  0  0  0
 18 24  1  0  0  0  0
 19 20  1  0  0  0  0
 19 23  1  0  0  0  0
 20 21  2  0  0  0  0
 20 22  1  0  0  0  0
 28 29  1  0  0  0  0
 28 45  1  0  0  0  0
 28 46  1  0  0  0  0
 29 30  1  0  0  0  0
 29 44  1  1  0  0  0
 30 31  1  0  0  0  0
 30 42  1  0  0  0  0
 30 43  1  0  0  0  0
 31 32  1  0  0  0  0
 31 41  1  0  0  0  0
 32 33  2  0  0  0  0
 32 37  1  0  0  0  0
 33 34  1  0  0  0  0
 33 40  1  0  0  0  0
 34 35  2  0  0  0  0
 35 36  1  0  0  0  0
 35 39  1  0  0  0  0
 36 37  2  0  0  0  0
 36 38  1  0  0  0  0
 47 48  2  0  0  0  0
 47 53  1  0  0  0  0
 48 49  1  0  0  0  0
 48 58  1  0  0  0  0
 49 50  1  0  0  0  0
 49 51  2  0  0  0  0
 51 52  1  0  0  0  0
 51 57  1  0  0  0  0
 52 53  2  0  0  0  0
 52 56  1  0  0  0  0
 53 54  1  0  0  0  0
 54 55  2  0  0  0  0
M  END
>  <MODEL>
       1

$$$$
