tmp_first_model_3_20.pdb
 OpenBabel08272518143D

 66 71  0  0  1  0  0  0  0  0999 V2000
   -7.4440    3.3660  -21.7830 C   0  0  0  0  0  0  0  0  0  0  0  0
   -8.3190    2.9010  -22.8380 N   0  0  0  0  0  0  0  0  0  0  0  0
   -7.7580    2.2150  -23.8550 C   0  0  0  0  0  0  0  0  0  0  0  0
   -6.5410    2.1080  -23.9720 O   0  0  0  0  0  0  0  0  0  0  0  0
   -8.7060    1.5940  -24.8770 C   0  0  0  0  0  0  0  0  0  0  0  0
   -9.4200    0.4390  -24.3710 N   0  0  0  0  0  0  0  0  0  0  0  0
   -8.6800   -0.8010  -24.2160 C   0  0  0  0  0  0  0  0  0  0  0  0
   -9.0500   -1.5210  -22.9020 C   0  0  2  0  0  0  0  0  0  0  0  0
   -8.5150   -0.7380  -21.6760 C   0  0  0  0  0  0  0  0  0  0  0  0
   -8.9800    0.2700  -21.1850 O   0  0  0  0  0  0  0  0  0  0  0  0
   -7.3960   -1.3840  -21.2020 N   0  0  0  0  0  0  0  0  0  0  0  0
   -6.6000   -0.8120  -20.1740 C   0  0  0  0  0  0  0  0  0  0  0  0
   -6.9110   -1.0410  -18.8560 C   0  0  0  0  0  0  0  0  0  0  0  0
   -6.2120   -0.5440  -17.8070 N   0  0  0  0  0  0  0  0  0  0  0  0
   -5.1720    0.2100  -18.0760 C   0  0  0  0  0  0  0  0  0  0  0  0
   -4.7320    0.5260  -19.3930 C   0  0  0  0  0  0  0  0  0  0  0  0
   -3.6060    1.3610  -19.6380 C   0  0  0  0  0  0  0  0  0  0  0  0
   -3.2200    1.6530  -20.9190 C   0  0  0  0  0  0  0  0  0  0  0  0
   -3.9430    1.1280  -22.0140 C   0  0  0  0  0  0  0  0  0  0  0  0
   -5.0370    0.3200  -21.8020 C   0  0  0  0  0  0  0  0  0  0  0  0
   -5.4630    0.0000  -20.4840 C   0  0  0  0  0  0  0  0  0  0  0  0
   -5.5980   -0.0600  -22.6500 H   0  0  0  0  0  0  0  0  0  0  0  0
   -3.6520    1.3770  -23.0280 H   0  0  0  0  0  0  0  0  0  0  0  0
   -2.3680    2.3050  -21.0980 H   0  0  0  0  0  0  0  0  0  0  0  0
   -3.0770    1.7750  -18.7840 H   0  0  0  0  0  0  0  0  0  0  0  0
   -4.6200    0.6130  -17.2270 H   0  0  0  0  0  0  0  0  0  0  0  0
   -7.7650   -1.6670  -18.6040 H   0  0  0  0  0  0  0  0  0  0  0  0
   -7.0500   -2.5890  -21.9310 C   0  0  0  0  0  0  0  0  0  0  0  0
   -8.3120   -2.8900  -22.7580 C   0  0  2  0  0  0  0  0  0  0  0  0
   -8.0140   -3.6750  -24.0510 C   0  0  0  0  0  0  0  0  0  0  0  0
   -7.4740   -5.0630  -23.7800 C   0  0  0  0  0  0  0  0  0  0  0  0
   -8.3490   -6.1150  -23.5010 C   0  0  0  0  0  0  0  0  0  0  0  0
   -7.8730   -7.3900  -23.2100 C   0  0  0  0  0  0  0  0  0  0  0  0
   -6.5020   -7.6340  -23.1920 C   0  0  0  0  0  0  0  0  0  0  0  0
   -5.6160   -6.5960  -23.4690 C   0  0  0  0  0  0  0  0  0  0  0  0
   -6.1000   -5.3210  -23.7570 C   0  0  0  0  0  0  0  0  0  0  0  0
   -5.3990   -4.5130  -23.9650 H   0  0  0  0  0  0  0  0  0  0  0  0
   -4.5430   -6.7800  -23.4590 H   0  0  0  0  0  0  0  0  0  0  0  0
   -6.1240   -8.6300  -22.9630 H   0  0  0  0  0  0  0  0  0  0  0  0
   -8.5770   -8.1910  -22.9940 H   0  0  0  0  0  0  0  0  0  0  0  0
   -9.4230   -5.9260  -23.5080 H   0  0  0  0  0  0  0  0  0  0  0  0
   -8.9360   -3.7530  -24.6460 H   0  0  0  0  0  0  0  0  0  0  0  0
   -7.2890   -3.1130  -24.6550 H   0  0  0  0  0  0  0  0  0  0  0  0
   -8.9620   -3.5260  -22.1520 H   0  0  0  0  0  0  0  0  0  0  0  0
   -6.7960   -3.4050  -21.2450 H   0  0  0  0  0  0  0  0  0  0  0  0
   -6.1780   -2.4260  -22.5830 H   0  0  0  0  0  0  0  0  0  0  0  0
  -10.5600   -1.5870  -22.8300 C   0  0  0  0  0  0  0  0  0  0  0  0
  -11.1500   -2.4760  -21.9350 C   0  0  0  0  0  0  0  0  0  0  0  0
  -12.5190   -2.5120  -21.7750 C   0  0  0  0  0  0  0  0  0  0  0  0
  -13.1210   -3.5760  -20.5350 Cl  0  0  0  0  0  0  0  0  0  0  0  0
  -13.3550   -1.6870  -22.5310 C   0  0  0  0  0  0  0  0  0  0  0  0
  -12.7720   -0.7600  -23.3790 C   0  0  0  0  0  0  0  0  0  0  0  0
  -11.3850   -0.6760  -23.5010 C   0  0  0  0  0  0  0  0  0  0  0  0
  -10.7890    0.4670  -24.2740 C   0  0  0  0  0  0  0  0  0  0  0  0
  -11.4740    1.3690  -24.7450 O   0  0  0  0  0  0  0  0  0  0  0  0
  -13.3760   -0.0550  -23.9380 H   0  0  0  0  0  0  0  0  0  0  0  0
  -14.4330   -1.7620  -22.4390 H   0  0  0  0  0  0  0  0  0  0  0  0
  -10.5440   -3.1340  -21.3260 H   0  0  0  0  0  0  0  0  0  0  0  0
   -8.8950   -1.4770  -25.0590 H   0  0  0  0  0  0  0  0  0  0  0  0
   -7.6140   -0.5520  -24.2160 H   0  0  0  0  0  0  0  0  0  0  0  0
   -9.4780    2.3000  -25.1880 H   0  0  0  0  0  0  0  0  0  0  0  0
   -8.0770    1.3200  -25.7300 H   0  0  0  0  0  0  0  0  0  0  0  0
   -9.3060    2.8000  -22.6570 H   0  0  0  0  0  0  0  0  0  0  0  0
   -6.7430    4.1120  -22.1600 H   0  0  0  0  0  0  0  0  0  0  0  0
   -8.0480    3.8290  -21.0080 H   0  0  0  0  0  0  0  0  0  0  0  0
   -6.8590    2.5240  -21.3880 H   0  0  0  0  0  0  0  0  0  0  0  0
  1  2  1  0  0  0  0
  1 64  1  0  0  0  0
  1 65  1  0  0  0  0
  1 66  1  0  0  0  0
  2  3  1  0  0  0  0
  2 63  1  0  0  0  0
  3  4  2  0  0  0  0
  3  5  1  0  0  0  0
  5  6  1  0  0  0  0
  5 61  1  0  0  0  0
  5 62  1  0  0  0  0
  6  7  1  0  0  0  0
  6 54  1  0  0  0  0
  7  8  1  0  0  0  0
  7 59  1  0  0  0  0
  7 60  1  0  0  0  0
  8  9  1  1  0  0  0
  8 29  1  0  0  0  0
  8 47  1  0  0  0  0
  9 10  2  0  0  0  0
  9 11  1  0  0  0  0
 11 12  1  0  0  0  0
 11 28  1  0  0  0  0
 12 13  2  0  0  0  0
 12 21  1  0  0  0  0
 13 14  1  0  0  0  0
 13 27  1  0  0  0  0
 14 15  2  0  0  0  0
 15 16  1  0  0  0  0
 15 26  1  0  0  0  0
 16 17  2  0  0  0  0
 16 21  1  0  0  0  0
 17 18  1  0  0  0  0
 17 25  1  0  0  0  0
 18 19  2  0  0  0  0
 18 24  1  0  0  0  0
 19 20  1  0  0  0  0
 19 23  1  0  0  0  0
 20 21  2  0  0  0  0
 20 22  1  0  0  0  0
 28 29  1  0  0  0  0
 28 45  1  0  0  0  0
 28 46  1  0  0  0  0
 29 30  1  0  0  0  0
 29 44  1  1  0  0  0
 30 31  1  0  0  0  0
 30 42  1  0  0  0  0
 30 43  1  0  0  0  0
 31 32  2  0  0  0  0
 31 36  1  0  0  0  0
 32 33  1  0  0  0  0
 32 41  1  0  0  0  0
 33 34  2  0  0  0  0
 33 40  1  0  0  0  0
 34 35  1  0  0  0  0
 34 39  1  0  0  0  0
 35 36  2  0  0  0  0
 35 38  1  0  0  0  0
 36 37  1  0  0  0  0
 47 48  2  0  0  0  0
 47 53  1  0  0  0  0
 48 49  1  0  0  0  0
 48 58  1  0  0  0  0
 49 50  1  0  0  0  0
 49 51  2  0  0  0  0
 51 52  1  0  0  0  0
 51 57  1  0  0  0  0
 52 53  2  0  0  0  0
 52 56  1  0  0  0  0
 53 54  1  0  0  0  0
 54 55  2  0  0  0  0
M  END
>  <MODEL>
       1

$$$$
