tmp_first_model_7_7.pdb
 OpenBabel08272520323D

 44 47  0  0  0  0  0  0  0  0999 V2000
  -13.2420   -3.8000  -20.7090 C   0  0  0  0  0  0  0  0  0  0  0  0
  -13.6900   -3.4410  -22.1160 C   0  0  0  0  0  0  0  0  0  0  0  0
  -12.6250   -2.2870  -23.0020 S   0  0  0  0  0  0  0  0  0  0  0  0
  -13.1860   -2.1700  -24.3320 O   0  0  0  0  0  0  0  0  0  0  0  0
  -12.4960   -1.1080  -22.1490 O   0  0  0  0  0  0  0  0  0  0  0  0
  -11.0920   -2.9980  -23.2130 N   0  0  0  0  0  0  0  0  0  0  0  0
  -10.2270   -3.3810  -22.0720 C   0  0  0  0  0  0  0  0  0  0  0  0
   -9.0980   -2.4670  -22.5910 C   0  0  0  0  0  0  0  0  0  0  0  0
  -10.0460   -2.0450  -23.7210 C   0  0  0  0  0  0  0  0  0  0  0  0
   -9.6970   -2.2460  -24.7400 H   0  0  0  0  0  0  0  0  0  0  0  0
  -10.3670   -1.0070  -23.6290 H   0  0  0  0  0  0  0  0  0  0  0  0
   -8.7070   -1.3740  -21.6080 C   0  0  0  0  0  0  0  0  0  0  0  0
   -9.4070   -0.5320  -21.0950 O   0  0  0  0  0  0  0  0  0  0  0  0
   -7.3520   -1.5580  -21.3670 N   0  0  0  0  0  0  0  0  0  0  0  0
   -6.6400   -0.9180  -20.3160 C   0  0  0  0  0  0  0  0  0  0  0  0
   -7.0160   -1.1260  -19.0150 C   0  0  0  0  0  0  0  0  0  0  0  0
   -6.3480   -0.6270  -17.9470 N   0  0  0  0  0  0  0  0  0  0  0  0
   -5.2940    0.1170  -18.1780 C   0  0  0  0  0  0  0  0  0  0  0  0
   -4.8160    0.4330  -19.4810 C   0  0  0  0  0  0  0  0  0  0  0  0
   -3.6860    1.2710  -19.6770 C   0  0  0  0  0  0  0  0  0  0  0  0
   -3.2950    1.6130  -20.9430 C   0  0  0  0  0  0  0  0  0  0  0  0
   -4.0080    1.1240  -22.0630 C   0  0  0  0  0  0  0  0  0  0  0  0
   -5.0880    0.2890  -21.9010 C   0  0  0  0  0  0  0  0  0  0  0  0
   -5.5140   -0.0810  -20.5950 C   0  0  0  0  0  0  0  0  0  0  0  0
   -5.6390   -0.0830  -22.7600 H   0  0  0  0  0  0  0  0  0  0  0  0
   -3.7070    1.4250  -23.0630 H   0  0  0  0  0  0  0  0  0  0  0  0
   -2.4510    2.2840  -21.0940 H   0  0  0  0  0  0  0  0  0  0  0  0
   -3.1720    1.6560  -18.7990 H   0  0  0  0  0  0  0  0  0  0  0  0
   -4.7660    0.5240  -17.3130 H   0  0  0  0  0  0  0  0  0  0  0  0
   -7.8870   -1.7380  -18.7890 H   0  0  0  0  0  0  0  0  0  0  0  0
   -6.8320   -2.6540  -22.0880 C   0  0  0  0  0  0  0  0  0  0  0  0
   -5.7230   -3.1190  -21.9660 O   0  0  0  0  0  0  0  0  0  0  0  0
   -7.8300   -3.0730  -22.9280 N   0  0  0  0  0  0  0  0  0  0  0  0
   -7.6650   -4.2350  -23.7830 C   0  0  0  0  0  0  0  0  0  0  0  0
   -7.1590   -5.0350  -23.2390 H   0  0  0  0  0  0  0  0  0  0  0  0
   -8.6370   -4.5980  -24.1330 H   0  0  0  0  0  0  0  0  0  0  0  0
   -7.0440   -3.9890  -24.6470 H   0  0  0  0  0  0  0  0  0  0  0  0
   -9.9500   -4.4400  -22.0490 H   0  0  0  0  0  0  0  0  0  0  0  0
  -10.5870   -3.0300  -21.1120 H   0  0  0  0  0  0  0  0  0  0  0  0
  -14.6310   -2.8820  -22.0760 H   0  0  0  0  0  0  0  0  0  0  0  0
  -13.8630   -4.3020  -22.7690 H   0  0  0  0  0  0  0  0  0  0  0  0
  -12.2800   -4.3180  -20.6950 H   0  0  0  0  0  0  0  0  0  0  0  0
  -13.9920   -4.4630  -20.2620 H   0  0  0  0  0  0  0  0  0  0  0  0
  -13.1460   -2.8880  -20.1100 H   0  0  0  0  0  0  0  0  0  0  0  0
  1  2  1  0  0  0  0
  1 42  1  0  0  0  0
  1 43  1  0  0  0  0
  1 44  1  0  0  0  0
  2  3  1  0  0  0  0
  2 40  1  0  0  0  0
  2 41  1  0  0  0  0
  3  4  2  0  0  0  0
  3  5  2  0  0  0  0
  3  6  1  0  0  0  0
  6  7  1  0  0  0  0
  6  9  1  0  0  0  0
  7  8  1  0  0  0  0
  7 38  1  0  0  0  0
  7 39  1  0  0  0  0
  8  9  1  0  0  0  0
  8 12  1  0  0  0  0
  8 33  1  0  0  0  0
  9 10  1  0  0  0  0
  9 11  1  0  0  0  0
 12 13  2  0  0  0  0
 12 14  1  0  0  0  0
 14 15  1  0  0  0  0
 14 31  1  0  0  0  0
 15 16  2  0  0  0  0
 15 24  1  0  0  0  0
 16 17  1  0  0  0  0
 16 30  1  0  0  0  0
 17 18  2  0  0  0  0
 18 19  1  0  0  0  0
 18 29  1  0  0  0  0
 19 20  2  0  0  0  0
 19 24  1  0  0  0  0
 20 21  1  0  0  0  0
 20 28  1  0  0  0  0
 21 22  2  0  0  0  0
 21 27  1  0  0  0  0
 22 23  1  0  0  0  0
 22 26  1  0  0  0  0
 23 24  2  0  0  0  0
 23 25  1  0  0  0  0
 31 32  2  0  0  0  0
 31 33  1  0  0  0  0
 33 34  1  0  0  0  0
 34 35  1  0  0  0  0
 34 36  1  0  0  0  0
 34 37  1  0  0  0  0
M  END
>  <MODEL>
       1

$$$$
