tmp_first_model_8_53.pdb
 OpenBabel08272521063D

 59 63  0  0  1  0  0  0  0  0999 V2000
   -8.4930   -6.5830  -26.2480 C   0  0  0  0  0  0  0  0  0  0  0  0
   -8.2760   -5.8740  -27.5750 C   0  0  0  0  0  0  0  0  0  0  0  0
   -8.4180   -4.4350  -27.4670 N   0  0  0  0  0  0  0  0  0  0  0  0
   -7.4460   -3.6940  -26.8870 C   0  0  0  0  0  0  0  0  0  0  0  0
   -6.4470   -4.1810  -26.3670 O   0  0  0  0  0  0  0  0  0  0  0  0
   -7.7060   -2.1910  -26.8680 C   0  0  0  0  0  0  0  0  0  0  0  0
   -8.5400   -1.8620  -25.7220 N   0  0  0  0  0  0  0  0  0  0  0  0
   -7.9380   -1.3200  -24.5050 C   0  0  0  0  0  0  0  0  0  0  0  0
   -8.7690   -1.5870  -23.2120 C   0  0  2  0  0  0  0  0  0  0  0  0
   -8.2010   -0.6370  -22.1380 C   0  0  0  0  0  0  0  0  0  0  0  0
   -8.3350    0.5710  -22.0960 O   0  0  0  0  0  0  0  0  0  0  0  0
   -7.4520   -1.3670  -21.2370 N   0  0  0  0  0  0  0  0  0  0  0  0
   -6.6560   -0.7890  -20.2180 C   0  0  0  0  0  0  0  0  0  0  0  0
   -6.9290   -1.0850  -18.9060 C   0  0  0  0  0  0  0  0  0  0  0  0
   -6.2420   -0.6070  -17.8430 N   0  0  0  0  0  0  0  0  0  0  0  0
   -5.2220    0.1790  -18.0960 C   0  0  0  0  0  0  0  0  0  0  0  0
   -4.8010    0.5320  -19.4070 C   0  0  0  0  0  0  0  0  0  0  0  0
   -3.6700    1.3660  -19.6100 C   0  0  0  0  0  0  0  0  0  0  0  0
   -3.2720    1.6910  -20.8760 C   0  0  0  0  0  0  0  0  0  0  0  0
   -3.9840    1.1980  -21.9900 C   0  0  0  0  0  0  0  0  0  0  0  0
   -5.0620    0.3670  -21.8220 C   0  0  0  0  0  0  0  0  0  0  0  0
   -5.5210    0.0350  -20.5150 C   0  0  0  0  0  0  0  0  0  0  0  0
   -5.5690   -0.0350  -22.6940 H   0  0  0  0  0  0  0  0  0  0  0  0
   -3.6500    1.4570  -22.9910 H   0  0  0  0  0  0  0  0  0  0  0  0
   -2.4020    2.3210  -21.0330 H   0  0  0  0  0  0  0  0  0  0  0  0
   -3.1350    1.7310  -18.7380 H   0  0  0  0  0  0  0  0  0  0  0  0
   -4.6660    0.5690  -17.2440 H   0  0  0  0  0  0  0  0  0  0  0  0
   -7.7700   -1.7360  -18.6720 H   0  0  0  0  0  0  0  0  0  0  0  0
   -7.3780   -2.7810  -21.5450 C   0  0  0  0  0  0  0  0  0  0  0  0
   -8.5330   -2.9850  -22.5310 C   0  0  2  0  0  0  0  0  0  0  0  0
   -8.3120   -4.1520  -23.4750 C   0  0  0  0  0  0  0  0  0  0  0  0
   -9.1290   -4.2200  -24.2000 H   0  0  0  0  0  0  0  0  0  0  0  0
   -7.3760   -4.0290  -24.0310 H   0  0  0  0  0  0  0  0  0  0  0  0
   -8.2650   -5.0980  -22.9250 H   0  0  0  0  0  0  0  0  0  0  0  0
   -9.4350   -3.1740  -21.9330 H   0  0  0  0  0  0  0  0  0  0  0  0
   -6.4020   -3.0440  -21.9850 H   0  0  0  0  0  0  0  0  0  0  0  0
   -7.4860   -3.3740  -20.6320 H   0  0  0  0  0  0  0  0  0  0  0  0
  -10.2410   -1.3360  -23.5270 C   0  0  0  0  0  0  0  0  0  0  0  0
  -11.1640   -1.0870  -22.5060 C   0  0  0  0  0  0  0  0  0  0  0  0
  -12.5130   -0.9600  -22.8020 C   0  0  0  0  0  0  0  0  0  0  0  0
  -13.6950   -0.8270  -21.5480 Cl  0  0  0  0  0  0  0  0  0  0  0  0
  -12.9820   -1.0060  -24.1110 C   0  0  0  0  0  0  0  0  0  0  0  0
  -12.0900   -1.2790  -25.1200 C   0  0  0  0  0  0  0  0  0  0  0  0
  -10.7440   -1.4720  -24.8240 C   0  0  0  0  0  0  0  0  0  0  0  0
   -9.8770   -1.9020  -25.9410 C   0  0  0  0  0  0  0  0  0  0  0  0
  -10.3540   -2.2900  -27.0110 O   0  0  0  0  0  0  0  0  0  0  0  0
  -12.4020   -1.3770  -26.1560 H   0  0  0  0  0  0  0  0  0  0  0  0
  -14.0340   -0.8540  -24.3170 H   0  0  0  0  0  0  0  0  0  0  0  0
  -10.8170   -0.9940  -21.4870 H   0  0  0  0  0  0  0  0  0  0  0  0
   -7.8390   -0.2300  -24.6160 H   0  0  0  0  0  0  0  0  0  0  0  0
   -6.9270   -1.7440  -24.4040 H   0  0  0  0  0  0  0  0  0  0  0  0
   -8.2480   -1.8970  -27.7710 H   0  0  0  0  0  0  0  0  0  0  0  0
   -6.7750   -1.6240  -26.8100 H   0  0  0  0  0  0  0  0  0  0  0  0
   -9.3130   -3.9980  -27.6490 H   0  0  0  0  0  0  0  0  0  0  0  0
   -8.9830   -6.2280  -28.3310 H   0  0  0  0  0  0  0  0  0  0  0  0
   -7.2640   -6.0730  -27.9430 H   0  0  0  0  0  0  0  0  0  0  0  0
   -7.7370   -6.2460  -25.5330 H   0  0  0  0  0  0  0  0  0  0  0  0
   -9.4850   -6.3640  -25.8370 H   0  0  0  0  0  0  0  0  0  0  0  0
   -8.4000   -7.6650  -26.3740 H   0  0  0  0  0  0  0  0  0  0  0  0
  1  2  1  0  0  0  0
  1 57  1  0  0  0  0
  1 58  1  0  0  0  0
  1 59  1  0  0  0  0
  2  3  1  0  0  0  0
  2 55  1  0  0  0  0
  2 56  1  0  0  0  0
  3  4  1  0  0  0  0
  3 54  1  0  0  0  0
  4  5  2  0  0  0  0
  4  6  1  0  0  0  0
  6  7  1  0  0  0  0
  6 52  1  0  0  0  0
  6 53  1  0  0  0  0
  7  8  1  0  0  0  0
  7 45  1  0  0  0  0
  8  9  1  0  0  0  0
  8 50  1  0  0  0  0
  8 51  1  0  0  0  0
  9 10  1  1  0  0  0
  9 30  1  0  0  0  0
  9 38  1  0  0  0  0
 10 11  2  0  0  0  0
 10 12  1  0  0  0  0
 12 13  1  0  0  0  0
 12 29  1  0  0  0  0
 13 14  2  0  0  0  0
 13 22  1  0  0  0  0
 14 15  1  0  0  0  0
 14 28  1  0  0  0  0
 15 16  2  0  0  0  0
 16 17  1  0  0  0  0
 16 27  1  0  0  0  0
 17 18  2  0  0  0  0
 17 22  1  0  0  0  0
 18 19  1  0  0  0  0
 18 26  1  0  0  0  0
 19 20  2  0  0  0  0
 19 25  1  0  0  0  0
 20 21  1  0  0  0  0
 20 24  1  0  0  0  0
 21 22  2  0  0  0  0
 21 23  1  0  0  0  0
 29 30  1  0  0  0  0
 29 36  1  0  0  0  0
 29 37  1  0  0  0  0
 30 31  1  0  0  0  0
 30 35  1  1  0  0  0
 31 32  1  0  0  0  0
 31 33  1  0  0  0  0
 31 34  1  0  0  0  0
 38 39  2  0  0  0  0
 38 44  1  0  0  0  0
 39 40  1  0  0  0  0
 39 49  1  0  0  0  0
 40 41  1  0  0  0  0
 40 42  2  0  0  0  0
 42 43  1  0  0  0  0
 42 48  1  0  0  0  0
 43 44  2  0  0  0  0
 43 47  1  0  0  0  0
 44 45  1  0  0  0  0
 45 46  2  0  0  0  0
M  END
>  <MODEL>
       1

$$$$
