tmp_first_model_13_16.pdb
 OpenBabel08282500103D

 61 66  0  0  1  0  0  0  0  0999 V2000
  -12.4430    3.4790  -21.4120 C   0  0  0  0  0  0  0  0  0  0  0  0
  -12.4460    2.5520  -22.5290 N   0  0  0  0  0  0  0  0  0  0  0  0
  -11.3430    2.4100  -23.3030 C   0  0  0  0  0  0  0  0  0  0  0  0
  -10.3880    3.1710  -23.2640 O   0  0  0  0  0  0  0  0  0  0  0  0
  -11.3830    1.2290  -24.2910 C   0  0  0  0  0  0  0  0  0  0  0  0
  -11.2570   -0.0690  -23.6470 N   0  0  0  0  0  0  0  0  0  0  0  0
  -10.0760   -0.8770  -23.9290 C   0  0  0  0  0  0  0  0  0  0  0  0
   -9.6590   -1.8140  -22.7630 C   0  0  2  0  0  0  0  0  0  0  0  0
   -9.0530   -0.9430  -21.6250 C   0  0  0  0  0  0  0  0  0  0  0  0
   -9.5710   -0.0040  -21.0630 O   0  0  0  0  0  0  0  0  0  0  0  0
   -7.7650   -1.3520  -21.3800 N   0  0  0  0  0  0  0  0  0  0  0  0
   -6.9980   -0.7860  -20.3320 C   0  0  0  0  0  0  0  0  0  0  0  0
   -7.3850   -0.9320  -19.0250 C   0  0  0  0  0  0  0  0  0  0  0  0
   -6.6810   -0.4600  -17.9680 N   0  0  0  0  0  0  0  0  0  0  0  0
   -5.5620    0.1740  -18.2040 C   0  0  0  0  0  0  0  0  0  0  0  0
   -5.0420    0.4000  -19.5090 C   0  0  0  0  0  0  0  0  0  0  0  0
   -3.8340    1.1120  -19.7270 C   0  0  0  0  0  0  0  0  0  0  0  0
   -3.3850    1.3360  -21.0000 C   0  0  0  0  0  0  0  0  0  0  0  0
   -4.1190    0.8570  -22.1100 C   0  0  0  0  0  0  0  0  0  0  0  0
   -5.2870    0.1580  -21.9220 C   0  0  0  0  0  0  0  0  0  0  0  0
   -5.7770   -0.0930  -20.6120 C   0  0  0  0  0  0  0  0  0  0  0  0
   -5.8550   -0.1980  -22.7760 H   0  0  0  0  0  0  0  0  0  0  0  0
   -3.7600    1.0480  -23.1180 H   0  0  0  0  0  0  0  0  0  0  0  0
   -2.4670    1.8940  -21.1680 H   0  0  0  0  0  0  0  0  0  0  0  0
   -3.2870    1.4830  -18.8640 H   0  0  0  0  0  0  0  0  0  0  0  0
   -5.0120    0.5460  -17.3390 H   0  0  0  0  0  0  0  0  0  0  0  0
   -8.3040   -1.4580  -18.7750 H   0  0  0  0  0  0  0  0  0  0  0  0
   -7.4050   -2.5920  -22.0200 C   0  0  0  0  0  0  0  0  0  0  0  0
   -8.4540   -2.7590  -23.1330 C   0  0  2  0  0  0  0  0  0  0  0  0
   -7.8250   -2.5280  -24.5290 C   0  0  0  0  0  0  0  0  0  0  0  0
   -6.6930   -3.4150  -24.7700 N   0  0  0  0  0  0  0  0  0  0  0  0
   -6.8110   -4.7280  -24.8700 N   0  0  0  0  0  0  0  0  0  0  0  0
   -5.5480   -5.0890  -25.0450 C   0  0  0  0  0  0  0  0  0  0  0  0
   -4.7010   -4.0410  -25.0380 N   0  0  0  0  0  0  0  0  0  0  0  0
   -5.4500   -2.9870  -24.8570 N   0  0  0  0  0  0  0  0  0  0  0  0
   -5.2330   -6.1130  -25.1740 H   0  0  0  0  0  0  0  0  0  0  0  0
   -8.5590   -2.7440  -25.3080 H   0  0  0  0  0  0  0  0  0  0  0  0
   -7.4450   -1.5130  -24.6590 H   0  0  0  0  0  0  0  0  0  0  0  0
   -8.7830   -3.7990  -23.1670 H   0  0  0  0  0  0  0  0  0  0  0  0
   -7.4520   -3.4180  -21.2990 H   0  0  0  0  0  0  0  0  0  0  0  0
   -6.3810   -2.5510  -22.3950 H   0  0  0  0  0  0  0  0  0  0  0  0
  -10.9570   -2.5510  -22.3400 C   0  0  0  0  0  0  0  0  0  0  0  0
  -11.0840   -3.6680  -21.6190 C   0  0  0  0  0  0  0  0  0  0  0  0
  -12.9940   -3.7800  -21.1330 C   0  0  0  0  0  0  0  0  0  0  0  0
  -14.2130   -3.6550  -23.3370 Cl  0  0  0  0  0  0  0  0  0  0  0  0
  -13.0560   -3.7440  -20.7830 C   0  0  0  0  0  0  0  0  0  0  0  0
  -13.3820   -2.6720  -22.0610 C   0  0  0  0  0  0  0  0  0  0  0  0
  -12.2370   -1.9370  -22.5560 C   0  0  0  0  0  0  0  0  0  0  0  0
  -12.3950   -0.6210  -23.1280 C   0  0  0  0  0  0  0  0  0  0  0  0
  -13.4760   -0.0120  -23.1480 O   0  0  0  0  0  0  0  0  0  0  0  0
  -14.0500   -2.1970  -21.4280 H   0  0  0  0  0  0  0  0  0  0  0  0
  -13.1160   -3.0200  -19.9640 H   0  0  0  0  0  0  0  0  0  0  0  0
  -10.3880   -4.4330  -21.3300 H   0  0  0  0  0  0  0  0  0  0  0  0
   -9.2640   -0.1800  -24.1230 H   0  0  0  0  0  0  0  0  0  0  0  0
  -10.2580   -1.4890  -24.8200 H   0  0  0  0  0  0  0  0  0  0  0  0
  -12.3250    1.2360  -24.8450 H   0  0  0  0  0  0  0  0  0  0  0  0
  -10.5730    1.3670  -25.0090 H   0  0  0  0  0  0  0  0  0  0  0  0
  -13.1830    1.8550  -22.6070 H   0  0  0  0  0  0  0  0  0  0  0  0
  -13.4770    3.6810  -21.1140 H   0  0  0  0  0  0  0  0  0  0  0  0
  -11.9470    4.4100  -21.7050 H   0  0  0  0  0  0  0  0  0  0  0  0
  -11.8990    3.0780  -20.5480 H   0  0  0  0  0  0  0  0  0  0  0  0
  1  2  1  0  0  0  0
  1 59  1  0  0  0  0
  1 60  1  0  0  0  0
  1 61  1  0  0  0  0
  2  3  1  0  0  0  0
  2 58  1  0  0  0  0
  3  4  2  0  0  0  0
  3  5  1  0  0  0  0
  5  6  1  0  0  0  0
  5 56  1  0  0  0  0
  5 57  1  0  0  0  0
  6  7  1  0  0  0  0
  6 49  1  0  0  0  0
  7  8  1  0  0  0  0
  7 54  1  0  0  0  0
  7 55  1  0  0  0  0
  8  9  1  1  0  0  0
  8 29  1  0  0  0  0
  8 42  1  0  0  0  0
  9 10  2  0  0  0  0
  9 11  1  0  0  0  0
 11 12  1  0  0  0  0
 11 28  1  0  0  0  0
 12 13  2  0  0  0  0
 12 21  1  0  0  0  0
 13 14  1  0  0  0  0
 13 27  1  0  0  0  0
 14 15  2  0  0  0  0
 15 16  1  0  0  0  0
 15 26  1  0  0  0  0
 16 17  2  0  0  0  0
 16 21  1  0  0  0  0
 17 18  1  0  0  0  0
 17 25  1  0  0  0  0
 18 19  2  0  0  0  0
 18 24  1  0  0  0  0
 19 20  1  0  0  0  0
 19 23  1  0  0  0  0
 20 21  2  0  0  0  0
 20 22  1  0  0  0  0
 28 29  1  0  0  0  0
 28 40  1  0  0  0  0
 28 41  1  0  0  0  0
 29 30  1  0  0  0  0
 29 39  1  1  0  0  0
 30 31  1  0  0  0  0
 30 37  1  0  0  0  0
 30 38  1  0  0  0  0
 31 32  1  0  0  0  0
 31 35  1  0  0  0  0
 32 33  2  0  0  0  0
 33 34  1  0  0  0  0
 33 36  1  0  0  0  0
 34 35  2  0  0  0  0
 42 43  2  0  0  0  0
 42 48  1  0  0  0  0
 43 44  1  0  0  0  0
 43 53  1  0  0  0  0
 44 45  1  0  0  0  0
 44 46  2  0  0  0  0
 46 47  1  0  0  0  0
 46 52  1  0  0  0  0
 47 48  2  0  0  0  0
 47 51  1  0  0  0  0
 48 49  1  0  0  0  0
 49 50  2  0  0  0  0
M  END
>  <MODEL>
       1

$$$$
