tmp_first_model_14_87.pdb
 OpenBabel08282500413D

 59 64  0  0  1  0  0  0  0  0999 V2000
   -8.1710   -4.0970  -23.5560 C   0  0  0  0  0  0  0  0  0  0  0  0
   -8.4260   -2.9520  -22.5890 C   0  0  1  0  0  0  0  0  0  0  0  0
   -7.2970   -2.7430  -21.5760 C   0  0  0  0  0  0  0  0  0  0  0  0
   -7.3880   -1.3370  -21.2630 N   0  0  0  0  0  0  0  0  0  0  0  0
   -6.6060   -0.7630  -20.2440 C   0  0  0  0  0  0  0  0  0  0  0  0
   -6.9230   -1.0140  -18.9340 C   0  0  0  0  0  0  0  0  0  0  0  0
   -6.2610   -0.4980  -17.8760 N   0  0  0  0  0  0  0  0  0  0  0  0
   -5.2140    0.2480  -18.1300 C   0  0  0  0  0  0  0  0  0  0  0  0
   -4.7520    0.5440  -19.4440 C   0  0  0  0  0  0  0  0  0  0  0  0
   -3.6050    1.3500  -19.6530 C   0  0  0  0  0  0  0  0  0  0  0  0
   -3.1730    1.6210  -20.9220 C   0  0  0  0  0  0  0  0  0  0  0  0
   -3.8540    1.0870  -22.0380 C   0  0  0  0  0  0  0  0  0  0  0  0
   -4.9650    0.3000  -21.8620 C   0  0  0  0  0  0  0  0  0  0  0  0
   -5.4540    0.0250  -20.5490 C   0  0  0  0  0  0  0  0  0  0  0  0
   -5.4730   -0.1000  -22.7340 H   0  0  0  0  0  0  0  0  0  0  0  0
   -3.4960    1.3080  -23.0380 H   0  0  0  0  0  0  0  0  0  0  0  0
   -2.3070    2.2540  -21.0770 H   0  0  0  0  0  0  0  0  0  0  0  0
   -3.0950    1.7490  -18.7830 H   0  0  0  0  0  0  0  0  0  0  0  0
   -4.6630    0.6470  -17.2790 H   0  0  0  0  0  0  0  0  0  0  0  0
   -7.7760   -1.6520  -18.7070 H   0  0  0  0  0  0  0  0  0  0  0  0
   -8.1410   -0.5940  -22.1360 C   0  0  0  0  0  0  0  0  0  0  0  0
   -8.2980    0.6080  -22.0480 O   0  0  0  0  0  0  0  0  0  0  0  0
   -8.6760   -1.5340  -23.2310 C   0  0  1  0  0  0  0  0  0  0  0  0
   -7.8630   -1.1950  -24.5090 C   0  0  0  0  0  0  0  0  0  0  0  0
   -8.4230   -1.7500  -25.7330 N   0  0  0  0  0  0  0  0  0  0  0  0
   -7.5020   -2.2860  -26.7330 C   0  0  0  0  0  0  0  0  0  0  0  0
   -6.5400   -1.2630  -27.2650 C   0  0  0  0  0  0  0  0  0  0  0  0
   -5.2500   -0.8980  -26.9130 C   0  0  0  0  0  0  0  0  0  0  0  0
   -4.9720    0.2340  -27.7110 C   0  0  0  0  0  0  0  0  0  0  0  0
   -5.9930    0.5270  -28.5080 N   0  0  0  0  0  0  0  0  0  0  0  0
   -6.9260   -0.3960  -28.2400 N   0  0  0  0  0  0  0  0  0  0  0  0
   -8.2400   -0.2840  -28.8480 C   0  0  0  0  0  0  0  0  0  0  0  0
   -8.5060   -1.2040  -29.3820 H   0  0  0  0  0  0  0  0  0  0  0  0
   -8.1860    0.5650  -29.5310 H   0  0  0  0  0  0  0  0  0  0  0  0
   -8.9820   -0.1040  -28.0750 H   0  0  0  0  0  0  0  0  0  0  0  0
   -4.1240    0.9100  -27.6950 H   0  0  0  0  0  0  0  0  0  0  0  0
   -4.6050   -1.3470  -26.1630 H   0  0  0  0  0  0  0  0  0  0  0  0
   -6.9720   -3.1430  -26.3030 H   0  0  0  0  0  0  0  0  0  0  0  0
   -8.1340   -2.6700  -27.5350 H   0  0  0  0  0  0  0  0  0  0  0  0
   -9.7640   -1.7940  -25.9810 C   0  0  0  0  0  0  0  0  0  0  0  0
  -10.2350   -2.0900  -27.0750 O   0  0  0  0  0  0  0  0  0  0  0  0
  -10.6460   -1.4920  -24.8190 C   0  0  0  0  0  0  0  0  0  0  0  0
  -12.0160   -1.4360  -25.0580 C   0  0  0  0  0  0  0  0  0  0  0  0
  -12.9030   -1.1590  -24.0410 C   0  0  0  0  0  0  0  0  0  0  0  0
  -12.3920   -1.0160  -22.7600 C   0  0  0  0  0  0  0  0  0  0  0  0
  -13.2720   -0.8230  -21.7710 F   0  0  0  0  0  0  0  0  0  0  0  0
  -11.0390   -1.0840  -22.4810 C   0  0  0  0  0  0  0  0  0  0  0  0
  -10.1430   -1.3220  -23.5280 C   0  0  0  0  0  0  0  0  0  0  0  0
  -10.6680   -0.9400  -21.4710 H   0  0  0  0  0  0  0  0  0  0  0  0
  -13.9650   -1.0270  -24.2220 H   0  0  0  0  0  0  0  0  0  0  0  0
  -12.3510   -1.6240  -26.0670 H   0  0  0  0  0  0  0  0  0  0  0  0
   -6.8370   -1.5570  -24.4040 H   0  0  0  0  0  0  0  0  0  0  0  0
   -7.7990   -0.0980  -24.5710 H   0  0  0  0  0  0  0  0  0  0  0  0
   -7.4200   -3.3040  -20.6520 H   0  0  0  0  0  0  0  0  0  0  0  0
   -6.3110   -3.0090  -21.9880 H   0  0  0  0  0  0  0  0  0  0  0  0
   -9.3380   -3.1740  -22.0150 H   0  0  0  0  0  0  0  0  0  0  0  0
   -8.9790   -4.1780  -24.2870 H   0  0  0  0  0  0  0  0  0  0  0  0
   -8.0920   -5.0440  -23.0130 H   0  0  0  0  0  0  0  0  0  0  0  0
   -7.2310   -3.9410  -24.0950 H   0  0  0  0  0  0  0  0  0  0  0  0
  1  2  1  0  0  0  0
  1 57  1  0  0  0  0
  1 58  1  0  0  0  0
  1 59  1  0  0  0  0
  2  3  1  0  0  0  0
  2 23  1  0  0  0  0
  2 56  1  1  0  0  0
  3  4  1  0  0  0  0
  3 54  1  0  0  0  0
  3 55  1  0  0  0  0
  4  5  1  0  0  0  0
  4 21  1  0  0  0  0
  5  6  2  0  0  0  0
  5 14  1  0  0  0  0
  6  7  1  0  0  0  0
  6 20  1  0  0  0  0
  7  8  2  0  0  0  0
  8  9  1  0  0  0  0
  8 19  1  0  0  0  0
  9 10  2  0  0  0  0
  9 14  1  0  0  0  0
 10 11  1  0  0  0  0
 10 18  1  0  0  0  0
 11 12  2  0  0  0  0
 11 17  1  0  0  0  0
 12 13  1  0  0  0  0
 12 16  1  0  0  0  0
 13 14  2  0  0  0  0
 13 15  1  0  0  0  0
 21 22  2  0  0  0  0
 23 21  1  1  0  0  0
 23 24  1  0  0  0  0
 23 48  1  0  0  0  0
 24 25  1  0  0  0  0
 24 52  1  0  0  0  0
 24 53  1  0  0  0  0
 25 26  1  0  0  0  0
 25 40  1  0  0  0  0
 26 27  1  0  0  0  0
 26 38  1  0  0  0  0
 26 39  1  0  0  0  0
 27 28  2  0  0  0  0
 27 31  1  0  0  0  0
 28 29  1  0  0  0  0
 28 37  1  0  0  0  0
 29 30  2  0  0  0  0
 29 36  1  0  0  0  0
 30 31  1  0  0  0  0
 31 32  1  0  0  0  0
 32 33  1  0  0  0  0
 32 34  1  0  0  0  0
 32 35  1  0  0  0  0
 40 41  2  0  0  0  0
 40 42  1  0  0  0  0
 42 43  2  0  0  0  0
 42 48  1  0  0  0  0
 43 44  1  0  0  0  0
 43 51  1  0  0  0  0
 44 45  2  0  0  0  0
 44 50  1  0  0  0  0
 45 46  1  0  0  0  0
 45 47  1  0  0  0  0
 47 48  2  0  0  0  0
 47 49  1  0  0  0  0
M  END
>  <MODEL>
       1

$$$$
