tmp_first_model_15_71.pdb
 OpenBabel08282501153D

 50 54  0  0  1  0  0  0  0  0999 V2000
  -10.4560   -1.1430  -23.2820 C   0  0  0  0  0  0  0  0  0  0  0  0
   -9.0080   -1.4620  -22.9440 C   0  0  1  0  0  0  0  0  0  0  0  0
   -8.3990   -0.5120  -21.9050 C   0  0  0  0  0  0  0  0  0  0  0  0
   -7.4080   -1.3350  -21.2350 N   0  0  0  0  0  0  0  0  0  0  0  0
   -6.5930   -0.8470  -20.1900 C   0  0  0  0  0  0  0  0  0  0  0  0
   -6.9050   -1.1020  -18.8790 C   0  0  0  0  0  0  0  0  0  0  0  0
   -6.2380   -0.5770  -17.8190 N   0  0  0  0  0  0  0  0  0  0  0  0
   -5.2170    0.2040  -18.0820 C   0  0  0  0  0  0  0  0  0  0  0  0
   -4.7660    0.5140  -19.3990 C   0  0  0  0  0  0  0  0  0  0  0  0
   -3.6380    1.3410  -19.6320 C   0  0  0  0  0  0  0  0  0  0  0  0
   -3.2280    1.6060  -20.9090 C   0  0  0  0  0  0  0  0  0  0  0  0
   -3.9240    1.0640  -22.0130 C   0  0  0  0  0  0  0  0  0  0  0  0
   -5.0230    0.2650  -21.8160 C   0  0  0  0  0  0  0  0  0  0  0  0
   -5.4710   -0.0210  -20.4980 C   0  0  0  0  0  0  0  0  0  0  0  0
   -5.5470   -0.1590  -22.6670 H   0  0  0  0  0  0  0  0  0  0  0  0
   -3.5900    1.2910  -23.0210 H   0  0  0  0  0  0  0  0  0  0  0  0
   -2.3700    2.2460  -21.0840 H   0  0  0  0  0  0  0  0  0  0  0  0
   -3.1240    1.7610  -18.7710 H   0  0  0  0  0  0  0  0  0  0  0  0
   -4.6780    0.6320  -17.2330 H   0  0  0  0  0  0  0  0  0  0  0  0
   -7.7430   -1.7520  -18.6370 H   0  0  0  0  0  0  0  0  0  0  0  0
   -7.5520   -2.6850  -21.4650 C   0  0  0  0  0  0  0  0  0  0  0  0
   -6.7940   -3.5340  -21.0520 O   0  0  0  0  0  0  0  0  0  0  0  0
   -8.7810   -2.8960  -22.3590 C   0  0  1  0  0  0  0  0  0  0  0  0
   -9.9690   -3.3700  -21.4940 C   0  0  0  0  0  0  0  0  0  0  0  0
  -11.1090   -3.8040  -22.2910 N   0  0  0  0  0  0  0  0  0  0  0  0
  -12.4580   -3.7090  -21.7800 C   0  0  0  0  0  0  0  0  0  0  0  0
  -13.3720   -2.8790  -22.5900 C   0  0  0  0  0  0  0  0  0  0  0  0
  -14.1550   -2.2810  -23.1930 N   0  0  0  0  0  0  0  0  0  0  0  0
  -12.4390   -3.3070  -20.7710 H   0  0  0  0  0  0  0  0  0  0  0  0
  -12.8940   -4.7070  -21.7560 H   0  0  0  0  0  0  0  0  0  0  0  0
  -10.9750   -4.5070  -23.4540 C   0  0  0  0  0  0  0  0  0  0  0  0
  -11.9460   -4.9460  -24.0570 O   0  0  0  0  0  0  0  0  0  0  0  0
   -9.5750   -4.7060  -23.9230 C   0  0  0  0  0  0  0  0  0  0  0  0
   -9.3380   -5.6840  -24.8820 C   0  0  0  0  0  0  0  0  0  0  0  0
   -8.0680   -5.8990  -25.3770 C   0  0  0  0  0  0  0  0  0  0  0  0
   -7.0560   -5.0650  -24.9200 C   0  0  0  0  0  0  0  0  0  0  0  0
   -5.8300   -5.2190  -25.4390 F   0  0  0  0  0  0  0  0  0  0  0  0
   -7.2480   -4.1050  -23.9490 C   0  0  0  0  0  0  0  0  0  0  0  0
   -8.5250   -3.9370  -23.4140 C   0  0  0  0  0  0  0  0  0  0  0  0
   -6.4040   -3.5310  -23.5840 H   0  0  0  0  0  0  0  0  0  0  0  0
   -7.8500   -6.6970  -26.0790 H   0  0  0  0  0  0  0  0  0  0  0  0
  -10.1890   -6.2600  -25.2210 H   0  0  0  0  0  0  0  0  0  0  0  0
   -9.6450   -4.1710  -20.8230 H   0  0  0  0  0  0  0  0  0  0  0  0
  -10.2910   -2.5210  -20.8890 H   0  0  0  0  0  0  0  0  0  0  0  0
   -9.1590   -0.1530  -21.1960 H   0  0  0  0  0  0  0  0  0  0  0  0
   -7.9350    0.3680  -22.3640 H   0  0  0  0  0  0  0  0  0  0  0  0
   -8.3960   -1.4140  -23.8540 H   0  0  0  0  0  0  0  0  0  0  0  0
  -10.5520   -0.1650  -23.7540 H   0  0  0  0  0  0  0  0  0  0  0  0
  -11.0580   -1.1530  -22.3690 H   0  0  0  0  0  0  0  0  0  0  0  0
  -10.8660   -1.9060  -23.9480 H   0  0  0  0  0  0  0  0  0  0  0  0
  1  2  1  0  0  0  0
  1 48  1  0  0  0  0
  1 49  1  0  0  0  0
  1 50  1  0  0  0  0
  2  3  1  0  0  0  0
  2 23  1  0  0  0  0
  2 47  1  6  0  0  0
  3  4  1  0  0  0  0
  3 45  1  0  0  0  0
  3 46  1  0  0  0  0
  4  5  1  0  0  0  0
  4 21  1  0  0  0  0
  5  6  2  0  0  0  0
  5 14  1  0  0  0  0
  6  7  1  0  0  0  0
  6 20  1  0  0  0  0
  7  8  2  0  0  0  0
  8  9  1  0  0  0  0
  8 19  1  0  0  0  0
  9 10  2  0  0  0  0
  9 14  1  0  0  0  0
 10 11  1  0  0  0  0
 10 18  1  0  0  0  0
 11 12  2  0  0  0  0
 11 17  1  0  0  0  0
 12 13  1  0  0  0  0
 12 16  1  0  0  0  0
 13 14  2  0  0  0  0
 13 15  1  0  0  0  0
 21 22  2  0  0  0  0
 23 21  1  1  0  0  0
 23 24  1  0  0  0  0
 23 39  1  0  0  0  0
 24 25  1  0  0  0  0
 24 43  1  0  0  0  0
 24 44  1  0  0  0  0
 25 26  1  0  0  0  0
 25 31  1  0  0  0  0
 26 27  1  0  0  0  0
 26 29  1  0  0  0  0
 26 30  1  0  0  0  0
 27 28  3  0  0  0  0
 31 32  2  0  0  0  0
 31 33  1  0  0  0  0
 33 34  2  0  0  0  0
 33 39  1  0  0  0  0
 34 35  1  0  0  0  0
 34 42  1  0  0  0  0
 35 36  2  0  0  0  0
 35 41  1  0  0  0  0
 36 37  1  0  0  0  0
 36 38  1  0  0  0  0
 38 39  2  0  0  0  0
 38 40  1  0  0  0  0
M  END
>  <MODEL>
       1

$$$$
