tmp_first_model_5_65.pdb
 OpenBabel08272519233D

 55 60  0  0  1  0  0  0  0  0999 V2000
   -7.9090   -3.6110  -24.1180 C   0  0  0  0  0  0  0  0  0  0  0  0
   -8.2710   -2.8670  -22.8370 C   0  0  1  0  0  0  0  0  0  0  0  0
   -7.0480   -2.6520  -21.9360 C   0  0  0  0  0  0  0  0  0  0  0  0
   -7.4070   -1.4670  -21.1870 N   0  0  0  0  0  0  0  0  0  0  0  0
   -6.5510   -0.9460  -20.1880 C   0  0  0  0  0  0  0  0  0  0  0  0
   -6.8360   -1.1460  -18.8630 C   0  0  0  0  0  0  0  0  0  0  0  0
   -5.9760   -0.8690  -17.8490 N   0  0  0  0  0  0  0  0  0  0  0  0
   -4.8010   -0.3830  -18.1850 C   0  0  0  0  0  0  0  0  0  0  0  0
   -4.4250   -0.0400  -19.5190 C   0  0  0  0  0  0  0  0  0  0  0  0
   -3.2530    0.7160  -19.8060 C   0  0  0  0  0  0  0  0  0  0  0  0
   -3.1400    1.3910  -20.9890 C   0  0  0  0  0  0  0  0  0  0  0  0
   -4.0530    1.1330  -22.0410 C   0  0  0  0  0  0  0  0  0  0  0  0
   -5.0690    0.2320  -21.8570 C   0  0  0  0  0  0  0  0  0  0  0  0
   -5.3490   -0.2660  -20.5530 C   0  0  0  0  0  0  0  0  0  0  0  0
   -5.6910   -0.0700  -22.6940 H   0  0  0  0  0  0  0  0  0  0  0  0
   -3.9320    1.6160  -23.0070 H   0  0  0  0  0  0  0  0  0  0  0  0
   -2.2840    2.0300  -21.1740 H   0  0  0  0  0  0  0  0  0  0  0  0
   -2.5320    0.8520  -19.0100 H   0  0  0  0  0  0  0  0  0  0  0  0
   -4.1030   -0.1580  -17.3790 H   0  0  0  0  0  0  0  0  0  0  0  0
   -7.8140   -1.5310  -18.5730 H   0  0  0  0  0  0  0  0  0  0  0  0
   -8.4390   -0.7290  -21.7250 C   0  0  0  0  0  0  0  0  0  0  0  0
   -8.8350    0.3130  -21.2450 O   0  0  0  0  0  0  0  0  0  0  0  0
   -8.9500   -1.4640  -22.9910 C   0  0  1  0  0  0  0  0  0  0  0  0
   -8.4670   -0.7600  -24.2920 C   0  0  0  0  0  0  0  0  0  0  0  0
   -9.1780    0.4730  -24.5740 N   0  0  0  0  0  0  0  0  0  0  0  0
   -8.4570    1.6840  -24.9350 C   0  0  0  0  0  0  0  0  0  0  0  0
   -8.1600    2.5430  -23.7450 C   0  0  0  0  0  0  0  0  0  0  0  0
   -8.9300    3.4390  -23.0910 C   0  0  0  0  0  0  0  0  0  0  0  0
   -8.1990    3.9490  -22.0600 O   0  0  0  0  0  0  0  0  0  0  0  0
   -7.0250    3.2980  -22.1230 C   0  0  0  0  0  0  0  0  0  0  0  0
   -6.9330    2.4580  -23.1010 N   0  0  0  0  0  0  0  0  0  0  0  0
   -6.2820    3.5420  -21.3750 H   0  0  0  0  0  0  0  0  0  0  0  0
   -9.9430    3.7970  -23.1960 H   0  0  0  0  0  0  0  0  0  0  0  0
   -9.0670    2.2270  -25.6650 H   0  0  0  0  0  0  0  0  0  0  0  0
   -7.5070    1.4100  -25.4000 H   0  0  0  0  0  0  0  0  0  0  0  0
  -10.5350    0.5750  -24.4340 C   0  0  0  0  0  0  0  0  0  0  0  0
  -11.1520    1.5660  -24.8040 O   0  0  0  0  0  0  0  0  0  0  0  0
  -11.2020   -0.6100  -23.8120 C   0  0  0  0  0  0  0  0  0  0  0  0
  -12.5720   -0.7920  -23.9990 C   0  0  0  0  0  0  0  0  0  0  0  0
  -13.2360   -1.8040  -23.3320 C   0  0  0  0  0  0  0  0  0  0  0  0
  -12.5280   -2.5520  -22.3950 C   0  0  0  0  0  0  0  0  0  0  0  0
  -13.1880   -3.4690  -21.6680 F   0  0  0  0  0  0  0  0  0  0  0  0
  -11.1720   -2.3890  -22.1960 C   0  0  0  0  0  0  0  0  0  0  0  0
  -10.4670   -1.4970  -23.0150 C   0  0  0  0  0  0  0  0  0  0  0  0
  -10.6880   -2.9680  -21.4180 H   0  0  0  0  0  0  0  0  0  0  0  0
  -14.2970   -1.9760  -23.4650 H   0  0  0  0  0  0  0  0  0  0  0  0
  -13.1030   -0.1270  -24.6690 H   0  0  0  0  0  0  0  0  0  0  0  0
   -8.6200   -1.4480  -25.1330 H   0  0  0  0  0  0  0  0  0  0  0  0
   -7.3980   -0.5340  -24.2150 H   0  0  0  0  0  0  0  0  0  0  0  0
   -6.1280   -2.5070  -22.5290 H   0  0  0  0  0  0  0  0  0  0  0  0
   -6.8690   -3.5060  -21.2670 H   0  0  0  0  0  0  0  0  0  0  0  0
   -8.9690   -3.4910  -22.2720 H   0  0  0  0  0  0  0  0  0  0  0  0
   -8.7760   -3.7490  -24.7710 H   0  0  0  0  0  0  0  0  0  0  0  0
   -7.1400   -3.0700  -24.6830 H   0  0  0  0  0  0  0  0  0  0  0  0
   -7.5010   -4.5990  -23.8770 H   0  0  0  0  0  0  0  0  0  0  0  0
  1  2  1  0  0  0  0
  1 53  1  0  0  0  0
  1 54  1  0  0  0  0
  1 55  1  0  0  0  0
  2  3  1  0  0  0  0
  2 23  1  0  0  0  0
  2 52  1  1  0  0  0
  3  4  1  0  0  0  0
  3 50  1  0  0  0  0
  3 51  1  0  0  0  0
  4  5  1  0  0  0  0
  4 21  1  0  0  0  0
  5  6  2  0  0  0  0
  5 14  1  0  0  0  0
  6  7  1  0  0  0  0
  6 20  1  0  0  0  0
  7  8  2  0  0  0  0
  8  9  1  0  0  0  0
  8 19  1  0  0  0  0
  9 10  2  0  0  0  0
  9 14  1  0  0  0  0
 10 11  1  0  0  0  0
 10 18  1  0  0  0  0
 11 12  2  0  0  0  0
 11 17  1  0  0  0  0
 12 13  1  0  0  0  0
 12 16  1  0  0  0  0
 13 14  2  0  0  0  0
 13 15  1  0  0  0  0
 21 22  2  0  0  0  0
 23 21  1  1  0  0  0
 23 24  1  0  0  0  0
 23 44  1  0  0  0  0
 24 25  1  0  0  0  0
 24 48  1  0  0  0  0
 24 49  1  0  0  0  0
 25 26  1  0  0  0  0
 25 36  1  0  0  0  0
 26 27  1  0  0  0  0
 26 34  1  0  0  0  0
 26 35  1  0  0  0  0
 27 28  2  0  0  0  0
 27 31  1  0  0  0  0
 28 29  1  0  0  0  0
 28 33  1  0  0  0  0
 29 30  1  0  0  0  0
 30 31  2  0  0  0  0
 30 32  1  0  0  0  0
 36 37  2  0  0  0  0
 36 38  1  0  0  0  0
 38 39  2  0  0  0  0
 38 44  1  0  0  0  0
 39 40  1  0  0  0  0
 39 47  1  0  0  0  0
 40 41  2  0  0  0  0
 40 46  1  0  0  0  0
 41 42  1  0  0  0  0
 41 43  1  0  0  0  0
 43 44  2  0  0  0  0
 43 45  1  0  0  0  0
M  END
>  <MODEL>
       1

$$$$
