tmp_first_model_1_2.pdb
 OpenBabel08272517043D

 60 65  0  0  1  0  0  0  0  0999 V2000
   -4.8520   -1.7210  -30.9650 C   0  0  0  0  0  0  0  0  0  0  0  0
   -4.7670   -1.2500  -29.5440 C   0  0  0  0  0  0  0  0  0  0  0  0
   -4.2860   -2.0790  -28.5240 C   0  0  0  0  0  0  0  0  0  0  0  0
   -4.3640   -1.7520  -27.2360 N   0  0  0  0  0  0  0  0  0  0  0  0
   -4.8950   -0.5620  -26.9580 C   0  0  0  0  0  0  0  0  0  0  0  0
   -5.1410   -0.2250  -25.5020 C   0  0  0  0  0  0  0  0  0  0  0  0
   -6.3590   -0.8220  -24.9380 N   0  0  0  0  0  0  0  0  0  0  0  0
   -6.3000   -2.0200  -24.1040 C   0  0  0  0  0  0  0  0  0  0  0  0
   -7.5030   -2.1390  -23.1040 C   0  0  2  0  0  0  0  0  0  0  0  0
   -7.3110   -1.1670  -21.9140 C   0  0  0  0  0  0  0  0  0  0  0  0
   -7.7610   -0.0510  -21.7800 O   0  0  0  0  0  0  0  0  0  0  0  0
   -6.5470   -1.8240  -20.9710 N   0  0  0  0  0  0  0  0  0  0  0  0
   -6.0130   -1.0960  -19.8930 C   0  0  0  0  0  0  0  0  0  0  0  0
   -6.4590   -1.2910  -18.6130 C   0  0  0  0  0  0  0  0  0  0  0  0
   -6.0010   -0.6090  -17.5340 N   0  0  0  0  0  0  0  0  0  0  0  0
   -5.0480    0.2710  -17.7350 C   0  0  0  0  0  0  0  0  0  0  0  0
   -4.4770    0.5450  -19.0110 C   0  0  0  0  0  0  0  0  0  0  0  0
   -3.4040    1.4610  -19.1840 C   0  0  0  0  0  0  0  0  0  0  0  0
   -2.9730    1.7980  -20.4370 C   0  0  0  0  0  0  0  0  0  0  0  0
   -3.6080    1.2490  -21.5780 C   0  0  0  0  0  0  0  0  0  0  0  0
   -4.6140    0.3300  -21.4390 C   0  0  0  0  0  0  0  0  0  0  0  0
   -5.0350   -0.0860  -20.1420 C   0  0  0  0  0  0  0  0  0  0  0  0
   -5.1110   -0.0620  -22.3240 H   0  0  0  0  0  0  0  0  0  0  0  0
   -3.3140    1.5720  -22.5730 H   0  0  0  0  0  0  0  0  0  0  0  0
   -2.1630    2.5100  -20.5720 H   0  0  0  0  0  0  0  0  0  0  0  0
   -2.9480    1.8980  -18.3000 H   0  0  0  0  0  0  0  0  0  0  0  0
   -4.6890    0.8330  -16.8700 H   0  0  0  0  0  0  0  0  0  0  0  0
   -7.2620   -2.0050  -18.4240 H   0  0  0  0  0  0  0  0  0  0  0  0
   -6.3350   -3.2330  -21.2820 C   0  0  0  0  0  0  0  0  0  0  0  0
   -7.4710   -3.4770  -22.2930 C   0  0  2  0  0  0  0  0  0  0  0  0
   -7.3530   -4.7500  -23.1240 C   0  0  0  0  0  0  0  0  0  0  0  0
   -8.1850   -4.8420  -23.8350 H   0  0  0  0  0  0  0  0  0  0  0  0
   -7.3280   -5.6550  -22.5030 H   0  0  0  0  0  0  0  0  0  0  0  0
   -6.4260   -4.7400  -23.7110 H   0  0  0  0  0  0  0  0  0  0  0  0
   -8.4020   -3.4950  -21.7060 H   0  0  0  0  0  0  0  0  0  0  0  0
   -5.3560   -3.4040  -21.7660 H   0  0  0  0  0  0  0  0  0  0  0  0
   -6.3690   -3.8490  -20.3760 H   0  0  0  0  0  0  0  0  0  0  0  0
   -8.7890   -1.8130  -23.8070 C   0  0  0  0  0  0  0  0  0  0  0  0
  -10.0170   -2.2410  -23.2820 C   0  0  0  0  0  0  0  0  0  0  0  0
  -11.1890   -1.7390  -23.8080 C   0  0  0  0  0  0  0  0  0  0  0  0
  -12.3560   -2.1020  -23.2490 F   0  0  0  0  0  0  0  0  0  0  0  0
  -11.2020   -0.8500  -24.8740 C   0  0  0  0  0  0  0  0  0  0  0  0
   -9.9980   -0.4590  -25.4190 C   0  0  0  0  0  0  0  0  0  0  0  0
   -8.7940   -0.9060  -24.8760 C   0  0  0  0  0  0  0  0  0  0  0  0
   -7.5310   -0.3350  -25.4380 C   0  0  0  0  0  0  0  0  0  0  0  0
   -7.5480    0.5490  -26.2910 O   0  0  0  0  0  0  0  0  0  0  0  0
   -9.9550    0.2040  -26.2720 H   0  0  0  0  0  0  0  0  0  0  0  0
  -12.1310   -0.4130  -25.2150 H   0  0  0  0  0  0  0  0  0  0  0  0
  -10.0960   -2.9530  -22.4710 H   0  0  0  0  0  0  0  0  0  0  0  0
   -5.3690   -1.9900  -23.5290 H   0  0  0  0  0  0  0  0  0  0  0  0
   -6.2510   -2.9040  -24.7560 H   0  0  0  0  0  0  0  0  0  0  0  0
   -5.2610    0.8570  -25.4140 H   0  0  0  0  0  0  0  0  0  0  0  0
   -4.2760   -0.5550  -24.9180 H   0  0  0  0  0  0  0  0  0  0  0  0
   -5.2000    0.3350  -27.9870 C   0  0  0  0  0  0  0  0  0  0  0  0
   -5.1750   -0.0080  -29.2740 N   0  0  0  0  0  0  0  0  0  0  0  0
   -5.5270    1.3430  -27.7480 H   0  0  0  0  0  0  0  0  0  0  0  0
   -3.8470   -3.0450  -28.7650 H   0  0  0  0  0  0  0  0  0  0  0  0
   -5.3200   -2.7070  -31.0240 H   0  0  0  0  0  0  0  0  0  0  0  0
   -3.8660   -1.8180  -31.4260 H   0  0  0  0  0  0  0  0  0  0  0  0
   -5.4420   -1.0190  -31.5570 H   0  0  0  0  0  0  0  0  0  0  0  0
  1  2  1  0  0  0  0
  1 58  1  0  0  0  0
  1 59  1  0  0  0  0
  1 60  1  0  0  0  0
  2  3  2  0  0  0  0
  2 55  1  0  0  0  0
  3  4  1  0  0  0  0
  3 57  1  0  0  0  0
  4  5  2  0  0  0  0
  5  6  1  0  0  0  0
  5 54  1  0  0  0  0
  6  7  1  0  0  0  0
  6 52  1  0  0  0  0
  6 53  1  0  0  0  0
  7  8  1  0  0  0  0
  7 45  1  0  0  0  0
  8  9  1  0  0  0  0
  8 50  1  0  0  0  0
  8 51  1  0  0  0  0
  9 10  1  1  0  0  0
  9 30  1  0  0  0  0
  9 38  1  0  0  0  0
 10 11  2  0  0  0  0
 10 12  1  0  0  0  0
 12 13  1  0  0  0  0
 12 29  1  0  0  0  0
 13 14  2  0  0  0  0
 13 22  1  0  0  0  0
 14 15  1  0  0  0  0
 14 28  1  0  0  0  0
 15 16  2  0  0  0  0
 16 17  1  0  0  0  0
 16 27  1  0  0  0  0
 17 18  2  0  0  0  0
 17 22  1  0  0  0  0
 18 19  1  0  0  0  0
 18 26  1  0  0  0  0
 19 20  2  0  0  0  0
 19 25  1  0  0  0  0
 20 21  1  0  0  0  0
 20 24  1  0  0  0  0
 21 22  2  0  0  0  0
 21 23  1  0  0  0  0
 29 30  1  0  0  0  0
 29 36  1  0  0  0  0
 29 37  1  0  0  0  0
 30 31  1  0  0  0  0
 30 35  1  1  0  0  0
 31 32  1  0  0  0  0
 31 33  1  0  0  0  0
 31 34  1  0  0  0  0
 38 39  2  0  0  0  0
 38 44  1  0  0  0  0
 39 40  1  0  0  0  0
 39 49  1  0  0  0  0
 40 41  1  0  0  0  0
 40 42  2  0  0  0  0
 42 43  1  0  0  0  0
 42 48  1  0  0  0  0
 43 44  2  0  0  0  0
 43 47  1  0  0  0  0
 44 45  1  0  0  0  0
 45 46  2  0  0  0  0
 54 55  2  0  0  0  0
 54 56  1  0  0  0  0
M  END
>  <MODEL>
       1

$$$$
