tmp_first_model_20_21.pdb
 OpenBabel08282503553D

 63 68  0  0  1  0  0  0  0  0999 V2000
  -10.1960   -2.9820  -22.0660 C   0  0  0  0  0  0  0  0  0  0  0  0
   -9.1290   -2.0380  -22.6330 C   0  0  1  0  0  0  0  0  0  0  0  0
   -8.6690   -1.0370  -21.5600 C   0  0  0  0  0  0  0  0  0  0  0  0
   -7.3480   -1.4890  -21.1870 N   0  0  0  0  0  0  0  0  0  0  0  0
   -6.5790   -0.8640  -20.1860 C   0  0  0  0  0  0  0  0  0  0  0  0
   -6.9310   -1.0460  -18.8760 C   0  0  0  0  0  0  0  0  0  0  0  0
   -6.2560   -0.5350  -17.8200 N   0  0  0  0  0  0  0  0  0  0  0  0
   -5.2000    0.1920  -18.0980 C   0  0  0  0  0  0  0  0  0  0  0  0
   -4.7480    0.4890  -19.4170 C   0  0  0  0  0  0  0  0  0  0  0  0
   -3.6210    1.3220  -19.6380 C   0  0  0  0  0  0  0  0  0  0  0  0
   -3.2350    1.6430  -20.9080 C   0  0  0  0  0  0  0  0  0  0  0  0
   -3.9570    1.1470  -22.0180 C   0  0  0  0  0  0  0  0  0  0  0  0
   -5.0450    0.3300  -21.8380 C   0  0  0  0  0  0  0  0  0  0  0  0
   -5.4610   -0.0330  -20.5180 C   0  0  0  0  0  0  0  0  0  0  0  0
   -5.5940   -0.0270  -22.7120 H   0  0  0  0  0  0  0  0  0  0  0  0
   -3.6500    1.4340  -23.0200 H   0  0  0  0  0  0  0  0  0  0  0  0
   -2.3860    2.3000  -21.0720 H   0  0  0  0  0  0  0  0  0  0  0  0
   -3.0920    1.7060  -18.7710 H   0  0  0  0  0  0  0  0  0  0  0  0
   -4.6470    0.6070  -17.2550 H   0  0  0  0  0  0  0  0  0  0  0  0
   -7.7960   -1.6680  -18.6490 H   0  0  0  0  0  0  0  0  0  0  0  0
   -6.8010   -2.4370  -22.0130 C   0  0  0  0  0  0  0  0  0  0  0  0
   -5.7060   -2.9310  -21.8610 O   0  0  0  0  0  0  0  0  0  0  0  0
   -7.8160   -2.7100  -23.1420 C   0  0  1  0  0  0  0  0  0  0  0  0
   -7.9800   -4.2190  -23.3560 C   0  0  0  0  0  0  0  0  0  0  0  0
   -6.8020   -4.8030  -23.9670 N   0  0  0  0  0  0  0  0  0  0  0  0
   -6.4490   -6.1540  -23.5860 C   0  0  0  0  0  0  0  0  0  0  0  0
   -7.4870   -7.1200  -24.1670 C   0  0  0  0  0  0  0  0  0  0  0  0
   -8.4260   -7.5540  -23.5250 O   0  0  0  0  0  0  0  0  0  0  0  0
   -7.2810   -7.3620  -25.4920 N   0  0  0  0  0  0  0  0  0  0  0  0
   -8.3990   -7.7730  -26.3280 C   0  0  0  0  0  0  0  0  0  0  0  0
   -9.4290   -6.6780  -26.4750 C   0  0  0  0  0  0  0  0  0  0  0  0
   -9.0570   -5.4800  -27.2930 C   0  0  0  0  0  0  0  0  0  0  0  0
  -10.1070   -6.4430  -27.7860 C   0  0  0  0  0  0  0  0  0  0  0  0
  -11.1470   -6.1240  -27.7760 H   0  0  0  0  0  0  0  0  0  0  0  0
   -9.8420   -7.0940  -28.6180 H   0  0  0  0  0  0  0  0  0  0  0  0
   -8.0860   -5.5200  -27.7870 H   0  0  0  0  0  0  0  0  0  0  0  0
   -9.3580   -4.5010  -26.9260 H   0  0  0  0  0  0  0  0  0  0  0  0
  -10.0390   -6.5150  -25.5880 H   0  0  0  0  0  0  0  0  0  0  0  0
   -7.9910   -8.0460  -27.3070 H   0  0  0  0  0  0  0  0  0  0  0  0
   -8.8750   -8.6640  -25.9280 H   0  0  0  0  0  0  0  0  0  0  0  0
   -6.5450   -6.8210  -25.9370 H   0  0  0  0  0  0  0  0  0  0  0  0
   -5.4530   -6.3610  -23.9850 H   0  0  0  0  0  0  0  0  0  0  0  0
   -6.4420   -6.2100  -22.4940 H   0  0  0  0  0  0  0  0  0  0  0  0
   -6.2770   -4.2930  -25.1110 C   0  0  0  0  0  0  0  0  0  0  0  0
   -5.5790   -4.9680  -25.8660 O   0  0  0  0  0  0  0  0  0  0  0  0
   -6.5880   -2.8570  -25.3700 C   0  0  0  0  0  0  0  0  0  0  0  0
   -6.1200   -2.3020  -26.5580 C   0  0  0  0  0  0  0  0  0  0  0  0
   -6.3550   -0.9760  -26.8550 C   0  0  0  0  0  0  0  0  0  0  0  0
   -7.0570   -0.2250  -25.9220 C   0  0  0  0  0  0  0  0  0  0  0  0
   -7.2950    1.0660  -26.2000 F   0  0  0  0  0  0  0  0  0  0  0  0
   -7.5300   -0.7460  -24.7330 C   0  0  0  0  0  0  0  0  0  0  0  0
   -7.3140   -2.0980  -24.4450 C   0  0  0  0  0  0  0  0  0  0  0  0
   -8.0910   -0.0940  -24.0700 H   0  0  0  0  0  0  0  0  0  0  0  0
   -6.0090   -0.5170  -27.7750 H   0  0  0  0  0  0  0  0  0  0  0  0
   -5.5730   -2.9550  -27.2260 H   0  0  0  0  0  0  0  0  0  0  0  0
   -8.1460   -4.7230  -22.4060 H   0  0  0  0  0  0  0  0  0  0  0  0
   -8.8740   -4.3760  -23.9740 H   0  0  0  0  0  0  0  0  0  0  0  0
   -8.6510    0.0010  -21.9220 H   0  0  0  0  0  0  0  0  0  0  0  0
   -9.3290   -1.0580  -20.6980 H   0  0  0  0  0  0  0  0  0  0  0  0
   -9.5950   -1.5180  -23.4750 H   0  0  0  0  0  0  0  0  0  0  0  0
  -10.5760   -3.6670  -22.8280 H   0  0  0  0  0  0  0  0  0  0  0  0
   -9.8100   -3.5740  -21.2300 H   0  0  0  0  0  0  0  0  0  0  0  0
  -11.0450   -2.3990  -21.7020 H   0  0  0  0  0  0  0  0  0  0  0  0
  1  2  1  0  0  0  0
  1 61  1  0  0  0  0
  1 62  1  0  0  0  0
  1 63  1  0  0  0  0
  2  3  1  0  0  0  0
  2 23  1  0  0  0  0
  2 60  1  6  0  0  0
  3  4  1  0  0  0  0
  3 58  1  0  0  0  0
  3 59  1  0  0  0  0
  4  5  1  0  0  0  0
  4 21  1  0  0  0  0
  5  6  2  0  0  0  0
  5 14  1  0  0  0  0
  6  7  1  0  0  0  0
  6 20  1  0  0  0  0
  7  8  2  0  0  0  0
  8  9  1  0  0  0  0
  8 19  1  0  0  0  0
  9 10  2  0  0  0  0
  9 14  1  0  0  0  0
 10 11  1  0  0  0  0
 10 18  1  0  0  0  0
 11 12  2  0  0  0  0
 11 17  1  0  0  0  0
 12 13  1  0  0  0  0
 12 16  1  0  0  0  0
 13 14  2  0  0  0  0
 13 15  1  0  0  0  0
 21 22  2  0  0  0  0
 23 21  1  1  0  0  0
 23 24  1  0  0  0  0
 23 52  1  0  0  0  0
 24 25  1  0  0  0  0
 24 56  1  0  0  0  0
 24 57  1  0  0  0  0
 25 26  1  0  0  0  0
 25 44  1  0  0  0  0
 26 27  1  0  0  0  0
 26 42  1  0  0  0  0
 26 43  1  0  0  0  0
 27 28  2  0  0  0  0
 27 29  1  0  0  0  0
 29 30  1  0  0  0  0
 29 41  1  0  0  0  0
 30 31  1  0  0  0  0
 30 39  1  0  0  0  0
 30 40  1  0  0  0  0
 31 32  1  0  0  0  0
 31 33  1  0  0  0  0
 31 38  1  0  0  0  0
 32 33  1  0  0  0  0
 32 36  1  0  0  0  0
 32 37  1  0  0  0  0
 33 34  1  0  0  0  0
 33 35  1  0  0  0  0
 44 45  2  0  0  0  0
 44 46  1  0  0  0  0
 46 47  2  0  0  0  0
 46 52  1  0  0  0  0
 47 48  1  0  0  0  0
 47 55  1  0  0  0  0
 48 49  2  0  0  0  0
 48 54  1  0  0  0  0
 49 50  1  0  0  0  0
 49 51  1  0  0  0  0
 51 52  2  0  0  0  0
 51 53  1  0  0  0  0
M  END
>  <MODEL>
       1

$$$$
