tmp_first_model_13_30.pdb
 OpenBabel08282500103D

 58 63  0  0  1  0  0  0  0  0999 V2000
  -10.4210   -0.9840  -23.3960 C   0  0  0  0  0  0  0  0  0  0  0  0
   -8.9920   -1.3640  -23.0080 C   0  0  1  0  0  0  0  0  0  0  0  0
   -8.4010   -0.4650  -21.9070 C   0  0  0  0  0  0  0  0  0  0  0  0
   -7.4150   -1.3160  -21.2680 N   0  0  0  0  0  0  0  0  0  0  0  0
   -6.5860   -0.8560  -20.2160 C   0  0  0  0  0  0  0  0  0  0  0  0
   -6.8860   -1.1270  -18.9060 C   0  0  0  0  0  0  0  0  0  0  0  0
   -6.2160   -0.5940  -17.8540 N   0  0  0  0  0  0  0  0  0  0  0  0
   -5.2090    0.2040  -18.1050 C   0  0  0  0  0  0  0  0  0  0  0  0
   -4.7570    0.5260  -19.4170 C   0  0  0  0  0  0  0  0  0  0  0  0
   -3.6350    1.3620  -19.6530 C   0  0  0  0  0  0  0  0  0  0  0  0
   -3.2250    1.6240  -20.9330 C   0  0  0  0  0  0  0  0  0  0  0  0
   -3.9170    1.0660  -22.0320 C   0  0  0  0  0  0  0  0  0  0  0  0
   -5.0090    0.2590  -21.8280 C   0  0  0  0  0  0  0  0  0  0  0  0
   -5.4610   -0.0220  -20.5120 C   0  0  0  0  0  0  0  0  0  0  0  0
   -5.5310   -0.1860  -22.6690 H   0  0  0  0  0  0  0  0  0  0  0  0
   -3.5820    1.2740  -23.0440 H   0  0  0  0  0  0  0  0  0  0  0  0
   -2.3650    2.2630  -21.1130 H   0  0  0  0  0  0  0  0  0  0  0  0
   -3.1100    1.7780  -18.7970 H   0  0  0  0  0  0  0  0  0  0  0  0
   -4.6880    0.6320  -17.2470 H   0  0  0  0  0  0  0  0  0  0  0  0
   -7.7120   -1.7900  -18.6520 H   0  0  0  0  0  0  0  0  0  0  0  0
   -7.6170   -2.6580  -21.4950 C   0  0  0  0  0  0  0  0  0  0  0  0
   -6.9270   -3.5360  -21.0170 O   0  0  0  0  0  0  0  0  0  0  0  0
   -8.8060   -2.8260  -22.4620 C   0  0  1  0  0  0  0  0  0  0  0  0
  -10.0450   -3.2750  -21.6400 C   0  0  0  0  0  0  0  0  0  0  0  0
  -11.1590   -3.7720  -22.4620 N   0  0  0  0  0  0  0  0  0  0  0  0
  -12.5510   -3.7480  -21.9700 C   0  0  0  0  0  0  0  0  0  0  0  0
  -13.4600   -2.7460  -22.6480 C   0  0  0  0  0  0  0  0  0  0  0  0
  -13.9240   -1.6050  -22.0620 C   0  0  0  0  0  0  0  0  0  0  0  0
  -14.7220   -0.6680  -22.8220 C   0  0  0  0  0  0  0  0  0  0  0  0
  -15.2390    0.3650  -22.4440 O   0  0  0  0  0  0  0  0  0  0  0  0
  -14.8850   -1.0730  -24.1540 N   0  0  0  0  0  0  0  0  0  0  0  0
  -14.5260   -2.2960  -24.6030 C   0  0  0  0  0  0  0  0  0  0  0  0
  -13.8540   -3.1420  -23.9090 N   0  0  0  0  0  0  0  0  0  0  0  0
  -14.8020   -2.5360  -25.6230 H   0  0  0  0  0  0  0  0  0  0  0  0
  -15.4880   -0.4760  -24.6960 H   0  0  0  0  0  0  0  0  0  0  0  0
  -13.7310   -1.3710  -21.0260 H   0  0  0  0  0  0  0  0  0  0  0  0
  -12.9850   -4.7130  -22.2440 H   0  0  0  0  0  0  0  0  0  0  0  0
  -12.5590   -3.6330  -20.8820 H   0  0  0  0  0  0  0  0  0  0  0  0
  -10.9110   -4.6380  -23.4960 C   0  0  0  0  0  0  0  0  0  0  0  0
  -11.7910   -5.3080  -24.0190 O   0  0  0  0  0  0  0  0  0  0  0  0
   -9.5040   -4.7310  -23.9770 C   0  0  0  0  0  0  0  0  0  0  0  0
   -9.2400   -5.7220  -24.9210 C   0  0  0  0  0  0  0  0  0  0  0  0
   -7.9750   -5.8880  -25.4400 C   0  0  0  0  0  0  0  0  0  0  0  0
   -6.9840   -5.0310  -24.9820 C   0  0  0  0  0  0  0  0  0  0  0  0
   -5.7470   -5.1820  -25.4790 F   0  0  0  0  0  0  0  0  0  0  0  0
   -7.2090   -4.0510  -24.0330 C   0  0  0  0  0  0  0  0  0  0  0  0
   -8.4980   -3.8810  -23.5090 C   0  0  0  0  0  0  0  0  0  0  0  0
   -6.3610   -3.4720  -23.6830 H   0  0  0  0  0  0  0  0  0  0  0  0
   -7.7430   -6.6710  -26.1550 H   0  0  0  0  0  0  0  0  0  0  0  0
  -10.0620   -6.3580  -25.2240 H   0  0  0  0  0  0  0  0  0  0  0  0
   -9.7230   -4.0450  -20.9320 H   0  0  0  0  0  0  0  0  0  0  0  0
  -10.3920   -2.4250  -21.0460 H   0  0  0  0  0  0  0  0  0  0  0  0
   -9.1660   -0.1460  -21.1790 H   0  0  0  0  0  0  0  0  0  0  0  0
   -7.9280    0.4430  -22.2960 H   0  0  0  0  0  0  0  0  0  0  0  0
   -8.3440   -1.2940  -23.8910 H   0  0  0  0  0  0  0  0  0  0  0  0
  -11.0740   -0.9640  -22.5160 H   0  0  0  0  0  0  0  0  0  0  0  0
  -10.8390   -1.7160  -24.0940 H   0  0  0  0  0  0  0  0  0  0  0  0
  -10.4620    0.0080  -23.8550 H   0  0  0  0  0  0  0  0  0  0  0  0
  1  2  1  0  0  0  0
  1 56  1  0  0  0  0
  1 57  1  0  0  0  0
  1 58  1  0  0  0  0
  2  3  1  0  0  0  0
  2 23  1  0  0  0  0
  2 55  1  6  0  0  0
  3  4  1  0  0  0  0
  3 53  1  0  0  0  0
  3 54  1  0  0  0  0
  4  5  1  0  0  0  0
  4 21  1  0  0  0  0
  5  6  2  0  0  0  0
  5 14  1  0  0  0  0
  6  7  1  0  0  0  0
  6 20  1  0  0  0  0
  7  8  2  0  0  0  0
  8  9  1  0  0  0  0
  8 19  1  0  0  0  0
  9 10  2  0  0  0  0
  9 14  1  0  0  0  0
 10 11  1  0  0  0  0
 10 18  1  0  0  0  0
 11 12  2  0  0  0  0
 11 17  1  0  0  0  0
 12 13  1  0  0  0  0
 12 16  1  0  0  0  0
 13 14  2  0  0  0  0
 13 15  1  0  0  0  0
 21 22  2  0  0  0  0
 23 21  1  1  0  0  0
 23 24  1  0  0  0  0
 23 47  1  0  0  0  0
 24 25  1  0  0  0  0
 24 51  1  0  0  0  0
 24 52  1  0  0  0  0
 25 26  1  0  0  0  0
 25 39  1  0  0  0  0
 26 27  1  0  0  0  0
 26 37  1  0  0  0  0
 26 38  1  0  0  0  0
 27 28  2  0  0  0  0
 27 33  1  0  0  0  0
 28 29  1  0  0  0  0
 28 36  1  0  0  0  0
 29 30  2  0  0  0  0
 29 31  1  0  0  0  0
 31 32  1  0  0  0  0
 31 35  1  0  0  0  0
 32 33  2  0  0  0  0
 32 34  1  0  0  0  0
 39 40  2  0  0  0  0
 39 41  1  0  0  0  0
 41 42  2  0  0  0  0
 41 47  1  0  0  0  0
 42 43  1  0  0  0  0
 42 50  1  0  0  0  0
 43 44  2  0  0  0  0
 43 49  1  0  0  0  0
 44 45  1  0  0  0  0
 44 46  1  0  0  0  0
 46 47  2  0  0  0  0
 46 48  1  0  0  0  0
M  END
>  <MODEL>
       1

$$$$
