tmp_first_model_16_23.pdb
 OpenBabel08282501503D

 68 73  0  0  1  0  0  0  0  0999 V2000
  -14.4090   -1.1980  -23.8190 C   0  0  0  0  0  0  0  0  0  0  0  0
  -13.7320   -2.3890  -23.3580 N   0  0  0  0  0  0  0  0  0  0  0  0
  -13.4720   -2.5520  -22.0360 C   0  0  0  0  0  0  0  0  0  0  0  0
  -13.9190   -1.7990  -21.1770 O   0  0  0  0  0  0  0  0  0  0  0  0
  -12.6270   -3.7860  -21.7060 C   0  0  0  0  0  0  0  0  0  0  0  0
  -11.2870   -3.8000  -22.2810 N   0  0  0  0  0  0  0  0  0  0  0  0
  -10.1650   -3.2540  -21.5240 C   0  0  0  0  0  0  0  0  0  0  0  0
   -8.9280   -2.8640  -22.3750 C   0  0  2  0  0  0  0  0  0  0  0  0
   -7.7510   -2.6910  -21.4130 C   0  0  0  0  0  0  0  0  0  0  0  0
   -7.1530   -3.5810  -20.8440 O   0  0  0  0  0  0  0  0  0  0  0  0
   -7.4570   -1.3480  -21.2750 N   0  0  0  0  0  0  0  0  0  0  0  0
   -6.6030   -0.9270  -20.2330 C   0  0  0  0  0  0  0  0  0  0  0  0
   -6.8830   -1.2730  -18.9350 C   0  0  0  0  0  0  0  0  0  0  0  0
   -6.1300   -0.9040  -17.8730 N   0  0  0  0  0  0  0  0  0  0  0  0
   -5.0810   -0.1500  -18.1020 C   0  0  0  0  0  0  0  0  0  0  0  0
   -4.7010    0.3100  -19.3960 C   0  0  0  0  0  0  0  0  0  0  0  0
   -3.6040    1.1890  -19.5970 C   0  0  0  0  0  0  0  0  0  0  0  0
   -3.2430    1.5660  -20.8620 C   0  0  0  0  0  0  0  0  0  0  0  0
   -3.9490    1.0710  -21.9830 C   0  0  0  0  0  0  0  0  0  0  0  0
   -5.0310    0.2420  -21.8130 C   0  0  0  0  0  0  0  0  0  0  0  0
   -5.4540   -0.1240  -20.5090 C   0  0  0  0  0  0  0  0  0  0  0  0
   -5.5750   -0.1460  -22.6690 H   0  0  0  0  0  0  0  0  0  0  0  0
   -3.6310    1.3510  -22.9830 H   0  0  0  0  0  0  0  0  0  0  0  0
   -2.4060    2.2410  -21.0170 H   0  0  0  0  0  0  0  0  0  0  0  0
   -3.0790    1.5630  -18.7210 H   0  0  0  0  0  0  0  0  0  0  0  0
   -4.4680    0.1220  -17.2400 H   0  0  0  0  0  0  0  0  0  0  0  0
   -7.7550   -1.8810  -18.7020 H   0  0  0  0  0  0  0  0  0  0  0  0
   -8.4170   -0.4800  -21.9540 C   0  0  0  0  0  0  0  0  0  0  0  0
   -9.0310   -1.4330  -22.9920 C   0  0  2  0  0  0  0  0  0  0  0  0
  -10.4490   -1.0970  -23.4700 C   0  0  0  0  0  0  0  0  0  0  0  0
  -10.5640    0.0630  -24.3190 N   0  0  0  0  0  0  0  0  0  0  0  0
  -10.6530    1.3300  -23.7440 C   0  0  0  0  0  0  0  0  0  0  0  0
  -11.5480    1.6190  -22.7030 C   0  0  0  0  0  0  0  0  0  0  0  0
  -11.6690    2.9300  -22.2500 C   0  0  0  0  0  0  0  0  0  0  0  0
  -10.8870    3.9480  -22.7910 C   0  0  0  0  0  0  0  0  0  0  0  0
   -9.9680    3.6470  -23.7910 C   0  0  0  0  0  0  0  0  0  0  0  0
   -9.8600    2.3550  -24.2720 C   0  0  0  0  0  0  0  0  0  0  0  0
   -9.1410    2.1130  -25.0530 H   0  0  0  0  0  0  0  0  0  0  0  0
   -9.3440    4.4250  -24.2230 H   0  0  0  0  0  0  0  0  0  0  0  0
  -10.9790    4.9640  -22.4200 H   0  0  0  0  0  0  0  0  0  0  0  0
  -12.3740    3.1560  -21.4500 H   0  0  0  0  0  0  0  0  0  0  0  0
  -12.1750    0.8420  -22.2620 H   0  0  0  0  0  0  0  0  0  0  0  0
   -9.9230    0.0440  -25.1000 H   0  0  0  0  0  0  0  0  0  0  0  0
  -11.0980   -0.9450  -22.6050 H   0  0  0  0  0  0  0  0  0  0  0  0
  -10.8200   -1.9680  -24.0210 H   0  0  0  0  0  0  0  0  0  0  0  0
   -8.3560   -1.4330  -23.8600 H   0  0  0  0  0  0  0  0  0  0  0  0
   -7.9210    0.3870  -22.4010 H   0  0  0  0  0  0  0  0  0  0  0  0
   -9.1680   -0.0880  -21.2520 H   0  0  0  0  0  0  0  0  0  0  0  0
   -8.6640   -3.9460  -23.3980 C   0  0  0  0  0  0  0  0  0  0  0  0
   -7.3800   -4.1500  -23.9210 C   0  0  0  0  0  0  0  0  0  0  0  0
   -7.1780   -5.1350  -24.8730 C   0  0  0  0  0  0  0  0  0  0  0  0
   -5.5910   -5.3590  -25.5480 Cl  0  0  0  0  0  0  0  0  0  0  0  0
   -8.2200   -5.9690  -25.2830 C   0  0  0  0  0  0  0  0  0  0  0  0
   -9.4940   -5.7470  -24.7910 C   0  0  0  0  0  0  0  0  0  0  0  0
   -9.7230   -4.7140  -23.8870 C   0  0  0  0  0  0  0  0  0  0  0  0
  -11.1290   -4.4320  -23.4750 C   0  0  0  0  0  0  0  0  0  0  0  0
  -12.0940   -4.7300  -24.1780 O   0  0  0  0  0  0  0  0  0  0  0  0
  -10.3430   -6.3570  -25.0910 H   0  0  0  0  0  0  0  0  0  0  0  0
   -8.0310   -6.7780  -25.9780 H   0  0  0  0  0  0  0  0  0  0  0  0
   -6.5410   -3.5730  -23.5460 H   0  0  0  0  0  0  0  0  0  0  0  0
   -9.8220   -3.9660  -20.7720 H   0  0  0  0  0  0  0  0  0  0  0  0
  -10.4990   -2.3630  -20.9850 H   0  0  0  0  0  0  0  0  0  0  0  0
  -12.5630   -3.9080  -20.6240 H   0  0  0  0  0  0  0  0  0  0  0  0
  -13.1570   -4.6390  -22.1460 H   0  0  0  0  0  0  0  0  0  0  0  0
  -13.3640   -3.0480  -24.0360 H   0  0  0  0  0  0  0  0  0  0  0  0
  -13.7390   -0.3240  -23.8030 H   0  0  0  0  0  0  0  0  0  0  0  0
  -15.2620   -0.9830  -23.1690 H   0  0  0  0  0  0  0  0  0  0  0  0
  -14.7580   -1.3750  -24.8410 H   0  0  0  0  0  0  0  0  0  0  0  0
  1  2  1  0  0  0  0
  1 66  1  0  0  0  0
  1 67  1  0  0  0  0
  1 68  1  0  0  0  0
  2  3  1  0  0  0  0
  2 65  1  0  0  0  0
  3  4  2  0  0  0  0
  3  5  1  0  0  0  0
  5  6  1  0  0  0  0
  5 63  1  0  0  0  0
  5 64  1  0  0  0  0
  6  7  1  0  0  0  0
  6 56  1  0  0  0  0
  7  8  1  0  0  0  0
  7 61  1  0  0  0  0
  7 62  1  0  0  0  0
  8  9  1  1  0  0  0
  8 29  1  0  0  0  0
  8 49  1  0  0  0  0
  9 10  2  0  0  0  0
  9 11  1  0  0  0  0
 11 12  1  0  0  0  0
 11 28  1  0  0  0  0
 12 13  2  0  0  0  0
 12 21  1  0  0  0  0
 13 14  1  0  0  0  0
 13 27  1  0  0  0  0
 14 15  2  0  0  0  0
 15 16  1  0  0  0  0
 15 26  1  0  0  0  0
 16 17  2  0  0  0  0
 16 21  1  0  0  0  0
 17 18  1  0  0  0  0
 17 25  1  0  0  0  0
 18 19  2  0  0  0  0
 18 24  1  0  0  0  0
 19 20  1  0  0  0  0
 19 23  1  0  0  0  0
 20 21  2  0  0  0  0
 20 22  1  0  0  0  0
 28 29  1  0  0  0  0
 28 47  1  0  0  0  0
 28 48  1  0  0  0  0
 29 30  1  0  0  0  0
 29 46  1  6  0  0  0
 30 31  1  0  0  0  0
 30 44  1  0  0  0  0
 30 45  1  0  0  0  0
 31 32  1  0  0  0  0
 31 43  1  0  0  0  0
 32 33  2  0  0  0  0
 32 37  1  0  0  0  0
 33 34  1  0  0  0  0
 33 42  1  0  0  0  0
 34 35  2  0  0  0  0
 34 41  1  0  0  0  0
 35 36  1  0  0  0  0
 35 40  1  0  0  0  0
 36 37  2  0  0  0  0
 36 39  1  0  0  0  0
 37 38  1  0  0  0  0
 49 50  2  0  0  0  0
 49 55  1  0  0  0  0
 50 51  1  0  0  0  0
 50 60  1  0  0  0  0
 51 52  1  0  0  0  0
 51 53  2  0  0  0  0
 53 54  1  0  0  0  0
 53 59  1  0  0  0  0
 54 55  2  0  0  0  0
 54 58  1  0  0  0  0
 55 56  1  0  0  0  0
 56 57  2  0  0  0  0
M  END
>  <MODEL>
       1

$$$$
