tmp_first_model_19_10.pdb
 OpenBabel08282503233D

 57 62  0  0  1  0  0  0  0  0999 V2000
   -9.8550   -0.6520  -23.6920 C   0  0  0  0  0  0  0  0  0  0  0  0
   -8.5350   -1.0150  -23.0240 C   0  0  1  0  0  0  0  0  0  0  0  0
   -8.1870   -0.1180  -21.8330 C   0  0  0  0  0  0  0  0  0  0  0  0
   -7.2040   -0.9080  -21.1010 N   0  0  0  0  0  0  0  0  0  0  0  0
   -6.3610   -0.4420  -20.0660 C   0  0  0  0  0  0  0  0  0  0  0  0
   -6.6290   -0.7640  -18.7580 C   0  0  0  0  0  0  0  0  0  0  0  0
   -5.9110   -0.3210  -17.6950 N   0  0  0  0  0  0  0  0  0  0  0  0
   -4.8810    0.4490  -17.9480 C   0  0  0  0  0  0  0  0  0  0  0  0
   -4.4540    0.8030  -19.2570 C   0  0  0  0  0  0  0  0  0  0  0  0
   -3.2940    1.5920  -19.4580 C   0  0  0  0  0  0  0  0  0  0  0  0
   -2.8580    1.8770  -20.7200 C   0  0  0  0  0  0  0  0  0  0  0  0
   -3.5790    1.3980  -21.8370 C   0  0  0  0  0  0  0  0  0  0  0  0
   -4.7260    0.6570  -21.6680 C   0  0  0  0  0  0  0  0  0  0  0  0
   -5.2000    0.3460  -20.3640 C   0  0  0  0  0  0  0  0  0  0  0  0
   -5.2700    0.2980  -22.5340 H   0  0  0  0  0  0  0  0  0  0  0  0
   -3.2120    1.6080  -22.8380 H   0  0  0  0  0  0  0  0  0  0  0  0
   -1.9620    2.4730  -20.8710 H   0  0  0  0  0  0  0  0  0  0  0  0
   -2.7750    1.9520  -18.5740 H   0  0  0  0  0  0  0  0  0  0  0  0
   -4.2960    0.8200  -17.1050 H   0  0  0  0  0  0  0  0  0  0  0  0
   -7.4700   -1.4070  -18.5110 H   0  0  0  0  0  0  0  0  0  0  0  0
   -7.2630   -2.2470  -21.4140 C   0  0  0  0  0  0  0  0  0  0  0  0
   -6.5720   -3.1200  -20.9230 O   0  0  0  0  0  0  0  0  0  0  0  0
   -8.3820   -2.4530  -22.4280 C   0  0  1  0  0  0  0  0  0  0  0  0
   -9.6220   -2.9090  -21.6240 C   0  0  0  0  0  0  0  0  0  0  0  0
  -10.7020   -3.3570  -22.4820 N   0  0  0  0  0  0  0  0  0  0  0  0
  -12.0760   -3.3460  -21.9630 C   0  0  0  0  0  0  0  0  0  0  0  0
  -13.0330   -2.4640  -22.7110 C   0  0  0  0  0  0  0  0  0  0  0  0
  -13.5220   -1.2150  -22.5020 C   0  0  0  0  0  0  0  0  0  0  0  0
  -14.4070   -0.9550  -23.5340 N   0  3  0  0  0  0  0  0  0  0  0  0
  -14.4690   -2.0250  -24.3380 C   0  0  0  0  0  0  0  0  0  0  0  0
  -13.6550   -2.9610  -23.8350 N   0  0  0  0  0  0  0  0  0  0  0  0
  -13.5050   -3.9170  -24.1590 H   0  0  0  0  0  0  0  0  0  0  0  0
  -15.0430   -2.1140  -25.2510 H   0  0  0  0  0  0  0  0  0  0  0  0
  -14.9760   -0.1180  -23.5900 H   0  0  0  0  0  0  0  0  0  0  0  0
  -13.3570   -0.4760  -21.7210 H   0  0  0  0  0  0  0  0  0  0  0  0
  -12.4660   -4.3700  -22.0230 H   0  0  0  0  0  0  0  0  0  0  0  0
  -12.0460   -3.0290  -20.9220 H   0  0  0  0  0  0  0  0  0  0  0  0
  -10.4200   -4.2130  -23.5090 C   0  0  0  0  0  0  0  0  0  0  0  0
  -11.2610   -4.9420  -23.9940 O   0  0  0  0  0  0  0  0  0  0  0  0
   -9.0240   -4.2500  -24.0330 C   0  0  0  0  0  0  0  0  0  0  0  0
   -8.7540   -5.0910  -25.1150 C   0  0  0  0  0  0  0  0  0  0  0  0
   -7.4540   -5.2730  -25.5490 C   0  0  0  0  0  0  0  0  0  0  0  0
   -6.4420   -4.5760  -24.8930 C   0  0  0  0  0  0  0  0  0  0  0  0
   -5.1760   -4.7340  -25.3140 F   0  0  0  0  0  0  0  0  0  0  0  0
   -6.6900   -3.7290  -23.8320 C   0  0  0  0  0  0  0  0  0  0  0  0
   -8.0140   -3.5110  -23.4290 C   0  0  0  0  0  0  0  0  0  0  0  0
   -5.8620   -3.2580  -23.3130 H   0  0  0  0  0  0  0  0  0  0  0  0
   -7.2150   -5.9350  -26.3760 H   0  0  0  0  0  0  0  0  0  0  0  0
   -9.5880   -5.5860  -25.6050 H   0  0  0  0  0  0  0  0  0  0  0  0
   -9.3070   -3.7180  -20.9520 H   0  0  0  0  0  0  0  0  0  0  0  0
   -9.9850   -2.0740  -21.0140 H   0  0  0  0  0  0  0  0  0  0  0  0
   -7.7990    0.8560  -22.1430 H   0  0  0  0  0  0  0  0  0  0  0  0
   -9.0870    0.0500  -21.2240 H   0  0  0  0  0  0  0  0  0  0  0  0
   -7.7320   -0.9360  -23.7660 H   0  0  0  0  0  0  0  0  0  0  0  0
  -10.6860   -0.7850  -22.9950 H   0  0  0  0  0  0  0  0  0  0  0  0
  -10.0520   -1.2860  -24.5630 H   0  0  0  0  0  0  0  0  0  0  0  0
   -9.8470    0.3980  -24.0080 H   0  0  0  0  0  0  0  0  0  0  0  0
  1  2  1  0  0  0  0
  1 55  1  0  0  0  0
  1 56  1  0  0  0  0
  1 57  1  0  0  0  0
  2  3  1  0  0  0  0
  2 23  1  0  0  0  0
  2 54  1  6  0  0  0
  3  4  1  0  0  0  0
  3 52  1  0  0  0  0
  3 53  1  0  0  0  0
  4  5  1  0  0  0  0
  4 21  1  0  0  0  0
  5  6  2  0  0  0  0
  5 14  1  0  0  0  0
  6  7  1  0  0  0  0
  6 20  1  0  0  0  0
  7  8  2  0  0  0  0
  8  9  1  0  0  0  0
  8 19  1  0  0  0  0
  9 10  2  0  0  0  0
  9 14  1  0  0  0  0
 10 11  1  0  0  0  0
 10 18  1  0  0  0  0
 11 12  2  0  0  0  0
 11 17  1  0  0  0  0
 12 13  1  0  0  0  0
 12 16  1  0  0  0  0
 13 14  2  0  0  0  0
 13 15  1  0  0  0  0
 21 22  2  0  0  0  0
 23 21  1  1  0  0  0
 23 24  1  0  0  0  0
 23 46  1  0  0  0  0
 24 25  1  0  0  0  0
 24 50  1  0  0  0  0
 24 51  1  0  0  0  0
 25 26  1  0  0  0  0
 25 38  1  0  0  0  0
 26 27  1  0  0  0  0
 26 36  1  0  0  0  0
 26 37  1  0  0  0  0
 27 28  2  0  0  0  0
 27 31  1  0  0  0  0
 28 29  1  0  0  0  0
 28 35  1  0  0  0  0
 29 30  2  0  0  0  0
 29 34  1  0  0  0  0
 30 31  1  0  0  0  0
 30 33  1  0  0  0  0
 31 32  1  0  0  0  0
 38 39  2  0  0  0  0
 38 40  1  0  0  0  0
 40 41  2  0  0  0  0
 40 46  1  0  0  0  0
 41 42  1  0  0  0  0
 41 49  1  0  0  0  0
 42 43  2  0  0  0  0
 42 48  1  0  0  0  0
 43 44  1  0  0  0  0
 43 45  1  0  0  0  0
 45 46  2  0  0  0  0
 45 47  1  0  0  0  0
M  CHG  1  29   1
M  END
>  <MODEL>
       1

$$$$
