tmp_first_model_1_0.pdb
 OpenBabel08272517043D

 66 71  0  0  1  0  0  0  0  0999 V2000
   -6.9930    3.0700  -22.1260 C   0  0  0  0  0  0  0  0  0  0  0  0
   -7.5210    2.4520  -23.3260 N   0  0  0  0  0  0  0  0  0  0  0  0
   -6.6740    1.7880  -24.1480 C   0  0  0  0  0  0  0  0  0  0  0  0
   -5.4570    1.8690  -24.0550 O   0  0  0  0  0  0  0  0  0  0  0  0
   -7.3510    0.8840  -25.1840 C   0  0  0  0  0  0  0  0  0  0  0  0
   -8.0830   -0.1820  -24.5210 N   0  0  0  0  0  0  0  0  0  0  0  0
   -7.4040   -1.4060  -24.1460 C   0  0  0  0  0  0  0  0  0  0  0  0
   -7.9860   -2.0760  -22.8580 C   0  0  2  0  0  0  0  0  0  0  0  0
   -7.5950   -1.2820  -21.6010 C   0  0  0  0  0  0  0  0  0  0  0  0
   -8.1590   -0.3110  -21.1420 O   0  0  0  0  0  0  0  0  0  0  0  0
   -6.4780   -1.8680  -21.0530 N   0  0  0  0  0  0  0  0  0  0  0  0
   -5.8320   -1.2010  -19.9880 C   0  0  0  0  0  0  0  0  0  0  0  0
   -6.1480   -1.5190  -18.6940 C   0  0  0  0  0  0  0  0  0  0  0  0
   -5.6280   -0.8960  -17.6110 N   0  0  0  0  0  0  0  0  0  0  0  0
   -4.7880    0.0900  -17.8260 C   0  0  0  0  0  0  0  0  0  0  0  0
   -4.3730    0.5210  -19.1190 C   0  0  0  0  0  0  0  0  0  0  0  0
   -3.4390    1.5750  -19.3130 C   0  0  0  0  0  0  0  0  0  0  0  0
   -3.0380    1.9250  -20.5750 C   0  0  0  0  0  0  0  0  0  0  0  0
   -3.5750    1.2700  -21.7060 C   0  0  0  0  0  0  0  0  0  0  0  0
   -4.5080    0.2750  -21.5450 C   0  0  0  0  0  0  0  0  0  0  0  0
   -4.9140   -0.1400  -20.2450 C   0  0  0  0  0  0  0  0  0  0  0  0
   -4.9590   -0.1880  -22.4180 H   0  0  0  0  0  0  0  0  0  0  0  0
   -3.2680    1.5620  -22.7060 H   0  0  0  0  0  0  0  0  0  0  0  0
   -2.3050    2.7140  -20.7160 H   0  0  0  0  0  0  0  0  0  0  0  0
   -3.0600    2.0950  -18.4360 H   0  0  0  0  0  0  0  0  0  0  0  0
   -4.3870    0.6000  -16.9510 H   0  0  0  0  0  0  0  0  0  0  0  0
   -6.8650   -2.3150  -18.5000 H   0  0  0  0  0  0  0  0  0  0  0  0
   -5.9860   -3.0100  -21.8130 C   0  0  0  0  0  0  0  0  0  0  0  0
   -7.2470   -3.4220  -22.6020 C   0  0  2  0  0  0  0  0  0  0  0  0
   -7.0020   -4.2920  -23.8420 C   0  0  0  0  0  0  0  0  0  0  0  0
   -8.2700   -4.5420  -24.5000 N   0  0  0  0  0  0  0  0  0  0  0  0
   -8.4440   -4.9070  -25.7940 C   0  0  0  0  0  0  0  0  0  0  0  0
   -9.7360   -4.8790  -26.3540 C   0  0  0  0  0  0  0  0  0  0  0  0
   -9.8430   -5.2680  -27.6690 C   0  0  0  0  0  0  0  0  0  0  0  0
   -8.7940   -5.6580  -28.4110 N   0  0  0  0  0  0  0  0  0  0  0  0
   -7.6350   -5.6420  -27.7730 C   0  0  0  0  0  0  0  0  0  0  0  0
   -7.3780   -5.2820  -26.5140 N   0  0  0  0  0  0  0  0  0  0  0  0
   -6.7710   -5.9570  -28.3530 H   0  0  0  0  0  0  0  0  0  0  0  0
  -10.8120   -5.2720  -28.1610 H   0  0  0  0  0  0  0  0  0  0  0  0
  -10.5920   -4.5490  -25.7640 H   0  0  0  0  0  0  0  0  0  0  0  0
   -9.0980   -4.2200  -24.0250 H   0  0  0  0  0  0  0  0  0  0  0  0
   -6.5280   -5.2430  -23.5750 H   0  0  0  0  0  0  0  0  0  0  0  0
   -6.3100   -3.8020  -24.5380 H   0  0  0  0  0  0  0  0  0  0  0  0
   -7.8690   -4.0010  -21.9080 H   0  0  0  0  0  0  0  0  0  0  0  0
   -5.6240   -3.7970  -21.1450 H   0  0  0  0  0  0  0  0  0  0  0  0
   -5.1530   -2.7180  -22.4760 H   0  0  0  0  0  0  0  0  0  0  0  0
   -9.4970   -2.1150  -22.9430 C   0  0  0  0  0  0  0  0  0  0  0  0
  -10.3110   -2.8410  -22.0570 C   0  0  0  0  0  0  0  0  0  0  0  0
  -11.6920   -2.7560  -22.1870 C   0  0  0  0  0  0  0  0  0  0  0  0
  -12.7760   -3.3980  -20.9960 Cl  0  0  0  0  0  0  0  0  0  0  0  0
  -12.2940   -2.0390  -23.2150 C   0  0  0  0  0  0  0  0  0  0  0  0
  -11.4970   -1.2230  -23.9930 C   0  0  0  0  0  0  0  0  0  0  0  0
  -10.1330   -1.1770  -23.7620 C   0  0  0  0  0  0  0  0  0  0  0  0
   -9.3830    0.0250  -24.2250 C   0  0  0  0  0  0  0  0  0  0  0  0
   -9.9010    1.1420  -24.3180 O   0  0  0  0  0  0  0  0  0  0  0  0
  -11.9020   -0.4930  -24.6880 H   0  0  0  0  0  0  0  0  0  0  0  0
  -13.3780   -2.0320  -23.2810 H   0  0  0  0  0  0  0  0  0  0  0  0
   -9.9120   -3.3980  -21.2190 H   0  0  0  0  0  0  0  0  0  0  0  0
   -7.4740   -2.1000  -24.9890 H   0  0  0  0  0  0  0  0  0  0  0  0
   -6.3420   -1.1940  -23.9930 H   0  0  0  0  0  0  0  0  0  0  0  0
   -6.5790    0.4730  -25.8390 H   0  0  0  0  0  0  0  0  0  0  0  0
   -8.0680    1.4500  -25.7890 H   0  0  0  0  0  0  0  0  0  0  0  0
   -8.5200    2.3320  -23.4540 H   0  0  0  0  0  0  0  0  0  0  0  0
   -7.7690    3.6750  -21.6480 H   0  0  0  0  0  0  0  0  0  0  0  0
   -6.1540    3.7130  -22.4040 H   0  0  0  0  0  0  0  0  0  0  0  0
   -6.6270    2.3060  -21.4210 H   0  0  0  0  0  0  0  0  0  0  0  0
  1  2  1  0  0  0  0
  1 64  1  0  0  0  0
  1 65  1  0  0  0  0
  1 66  1  0  0  0  0
  2  3  1  0  0  0  0
  2 63  1  0  0  0  0
  3  4  2  0  0  0  0
  3  5  1  0  0  0  0
  5  6  1  0  0  0  0
  5 61  1  0  0  0  0
  5 62  1  0  0  0  0
  6  7  1  0  0  0  0
  6 54  1  0  0  0  0
  7  8  1  0  0  0  0
  7 59  1  0  0  0  0
  7 60  1  0  0  0  0
  8  9  1  1  0  0  0
  8 29  1  0  0  0  0
  8 47  1  0  0  0  0
  9 10  2  0  0  0  0
  9 11  1  0  0  0  0
 11 12  1  0  0  0  0
 11 28  1  0  0  0  0
 12 13  2  0  0  0  0
 12 21  1  0  0  0  0
 13 14  1  0  0  0  0
 13 27  1  0  0  0  0
 14 15  2  0  0  0  0
 15 16  1  0  0  0  0
 15 26  1  0  0  0  0
 16 17  2  0  0  0  0
 16 21  1  0  0  0  0
 17 18  1  0  0  0  0
 17 25  1  0  0  0  0
 18 19  2  0  0  0  0
 18 24  1  0  0  0  0
 19 20  1  0  0  0  0
 19 23  1  0  0  0  0
 20 21  2  0  0  0  0
 20 22  1  0  0  0  0
 28 29  1  0  0  0  0
 28 45  1  0  0  0  0
 28 46  1  0  0  0  0
 29 30  1  0  0  0  0
 29 44  1  1  0  0  0
 30 31  1  0  0  0  0
 30 42  1  0  0  0  0
 30 43  1  0  0  0  0
 31 32  1  0  0  0  0
 31 41  1  0  0  0  0
 32 33  2  0  0  0  0
 32 37  1  0  0  0  0
 33 34  1  0  0  0  0
 33 40  1  0  0  0  0
 34 35  2  0  0  0  0
 34 39  1  0  0  0  0
 35 36  1  0  0  0  0
 36 37  2  0  0  0  0
 36 38  1  0  0  0  0
 47 48  2  0  0  0  0
 47 53  1  0  0  0  0
 48 49  1  0  0  0  0
 48 58  1  0  0  0  0
 49 50  1  0  0  0  0
 49 51  2  0  0  0  0
 51 52  1  0  0  0  0
 51 57  1  0  0  0  0
 52 53  2  0  0  0  0
 52 56  1  0  0  0  0
 53 54  1  0  0  0  0
 54 55  2  0  0  0  0
M  END
>  <MODEL>
       1

$$$$
