tmp_first_model_1_7.pdb
 OpenBabel08272517043D

 44 47  0  0  0  0  0  0  0  0999 V2000
   -9.6220   -6.3970  -25.6830 C   0  0  0  0  0  0  0  0  0  0  0  0
  -10.9500   -6.2310  -24.9610 C   0  0  0  0  0  0  0  0  0  0  0  0
  -11.2130   -4.6040  -24.2580 S   0  0  0  0  0  0  0  0  0  0  0  0
  -12.5010   -4.6080  -23.5900 O   0  0  0  0  0  0  0  0  0  0  0  0
  -10.9480   -3.6270  -25.3070 O   0  0  0  0  0  0  0  0  0  0  0  0
  -10.0020   -4.5220  -23.0820 N   0  0  0  0  0  0  0  0  0  0  0  0
  -10.1330   -3.6120  -21.9000 C   0  0  0  0  0  0  0  0  0  0  0  0
   -8.8750   -2.8360  -22.3660 C   0  0  0  0  0  0  0  0  0  0  0  0
   -8.7170   -3.8980  -23.4660 C   0  0  0  0  0  0  0  0  0  0  0  0
   -8.6420   -3.5200  -24.4860 H   0  0  0  0  0  0  0  0  0  0  0  0
   -7.9020   -4.5820  -23.2260 H   0  0  0  0  0  0  0  0  0  0  0  0
   -7.6790   -2.7430  -21.4360 C   0  0  0  0  0  0  0  0  0  0  0  0
   -6.9950   -3.6390  -20.9970 O   0  0  0  0  0  0  0  0  0  0  0  0
   -7.4540   -1.3900  -21.2300 N   0  0  0  0  0  0  0  0  0  0  0  0
   -6.6210   -0.8570  -20.2140 C   0  0  0  0  0  0  0  0  0  0  0  0
   -6.9290   -1.0980  -18.9010 C   0  0  0  0  0  0  0  0  0  0  0  0
   -6.2490   -0.5910  -17.8470 N   0  0  0  0  0  0  0  0  0  0  0  0
   -5.2280    0.1870  -18.1120 C   0  0  0  0  0  0  0  0  0  0  0  0
   -4.7940    0.5100  -19.4250 C   0  0  0  0  0  0  0  0  0  0  0  0
   -3.6580    1.3330  -19.6350 C   0  0  0  0  0  0  0  0  0  0  0  0
   -3.2250    1.5910  -20.9060 C   0  0  0  0  0  0  0  0  0  0  0  0
   -3.9120    1.0440  -22.0140 C   0  0  0  0  0  0  0  0  0  0  0  0
   -5.0260    0.2590  -21.8370 C   0  0  0  0  0  0  0  0  0  0  0  0
   -5.4990   -0.0270  -20.5240 C   0  0  0  0  0  0  0  0  0  0  0  0
   -5.5520   -0.1440  -22.6970 H   0  0  0  0  0  0  0  0  0  0  0  0
   -3.5440    1.2390  -23.0190 H   0  0  0  0  0  0  0  0  0  0  0  0
   -2.3450    2.2060  -21.0730 H   0  0  0  0  0  0  0  0  0  0  0  0
   -3.1420    1.7320  -18.7650 H   0  0  0  0  0  0  0  0  0  0  0  0
   -4.6730    0.5860  -17.2630 H   0  0  0  0  0  0  0  0  0  0  0  0
   -7.7790   -1.7260  -18.6510 H   0  0  0  0  0  0  0  0  0  0  0  0
   -8.3050   -0.5960  -22.0090 C   0  0  0  0  0  0  0  0  0  0  0  0
   -8.3090    0.6110  -22.0250 O   0  0  0  0  0  0  0  0  0  0  0  0
   -9.0970   -1.4520  -22.7230 N   0  0  0  0  0  0  0  0  0  0  0  0
   -9.9730   -0.9740  -23.7780 C   0  0  0  0  0  0  0  0  0  0  0  0
  -10.2640    0.0480  -23.5390 H   0  0  0  0  0  0  0  0  0  0  0  0
   -9.4710   -0.9650  -24.7520 H   0  0  0  0  0  0  0  0  0  0  0  0
  -10.8570   -1.6100  -23.8550 H   0  0  0  0  0  0  0  0  0  0  0  0
  -11.0430   -3.0110  -21.8440 H   0  0  0  0  0  0  0  0  0  0  0  0
   -9.9770   -4.1600  -20.9720 H   0  0  0  0  0  0  0  0  0  0  0  0
  -11.7940   -6.3850  -25.6440 H   0  0  0  0  0  0  0  0  0  0  0  0
  -11.0480   -6.9300  -24.1380 H   0  0  0  0  0  0  0  0  0  0  0  0
   -8.7670   -6.3250  -25.0010 H   0  0  0  0  0  0  0  0  0  0  0  0
   -9.5220   -5.6360  -26.4590 H   0  0  0  0  0  0  0  0  0  0  0  0
   -9.5700   -7.3870  -26.1480 H   0  0  0  0  0  0  0  0  0  0  0  0
  1  2  1  0  0  0  0
  1 42  1  0  0  0  0
  1 43  1  0  0  0  0
  1 44  1  0  0  0  0
  2  3  1  0  0  0  0
  2 40  1  0  0  0  0
  2 41  1  0  0  0  0
  3  4  2  0  0  0  0
  3  5  2  0  0  0  0
  3  6  1  0  0  0  0
  6  7  1  0  0  0  0
  6  9  1  0  0  0  0
  7  8  1  0  0  0  0
  7 38  1  0  0  0  0
  7 39  1  0  0  0  0
  8  9  1  0  0  0  0
  8 12  1  0  0  0  0
  8 33  1  0  0  0  0
  9 10  1  0  0  0  0
  9 11  1  0  0  0  0
 12 13  2  0  0  0  0
 12 14  1  0  0  0  0
 14 15  1  0  0  0  0
 14 31  1  0  0  0  0
 15 16  2  0  0  0  0
 15 24  1  0  0  0  0
 16 17  1  0  0  0  0
 16 30  1  0  0  0  0
 17 18  2  0  0  0  0
 18 19  1  0  0  0  0
 18 29  1  0  0  0  0
 19 20  2  0  0  0  0
 19 24  1  0  0  0  0
 20 21  1  0  0  0  0
 20 28  1  0  0  0  0
 21 22  2  0  0  0  0
 21 27  1  0  0  0  0
 22 23  1  0  0  0  0
 22 26  1  0  0  0  0
 23 24  2  0  0  0  0
 23 25  1  0  0  0  0
 31 32  2  0  0  0  0
 31 33  1  0  0  0  0
 33 34  1  0  0  0  0
 34 35  1  0  0  0  0
 34 36  1  0  0  0  0
 34 37  1  0  0  0  0
M  END
>  <MODEL>
       1

$$$$
