tmp_first_model_12_60.pdb
 OpenBabel08272523333D

 62 67  0  0  1  0  0  0  0  0999 V2000
  -11.4260    2.5490  -22.0980 C   0  0  0  0  0  0  0  0  0  0  0  0
  -10.4590    3.2830  -23.0160 C   0  0  0  0  0  0  0  0  0  0  0  0
   -9.1500    2.6810  -23.2650 N   0  0  0  0  0  0  0  0  0  0  0  0
   -6.9360    2.8460  -23.5330 N   0  0  0  0  0  0  0  0  0  0  0  0
   -7.9610    3.1920  -22.8010 C   0  0  0  0  0  0  0  0  0  0  0  0
   -7.4640    2.0830  -24.5470 C   0  0  0  0  0  0  0  0  0  0  0  0
   -8.8180    1.9490  -24.3940 C   0  0  0  0  0  0  0  0  0  0  0  0
   -9.8140    1.1440  -25.1400 C   0  0  0  0  0  0  0  0  0  0  0  0
  -10.2770   -0.0080  -24.3680 N   0  0  0  0  0  0  0  0  0  0  0  0
   -9.3210   -1.0750  -24.1380 C   0  0  0  0  0  0  0  0  0  0  0  0
   -9.4810   -1.7550  -22.7560 C   0  0  2  0  0  0  0  0  0  0  0  0
   -8.9920   -0.8210  -21.6030 C   0  0  0  0  0  0  0  0  0  0  0  0
   -9.6160    0.0650  -21.0590 O   0  0  0  0  0  0  0  0  0  0  0  0
   -7.6960   -1.1610  -21.2910 N   0  0  0  0  0  0  0  0  0  0  0  0
   -6.9670   -0.6150  -20.2090 C   0  0  0  0  0  0  0  0  0  0  0  0
   -7.2300   -1.0010  -18.9200 C   0  0  0  0  0  0  0  0  0  0  0  0
   -6.4490   -0.6750  -17.8600 N   0  0  0  0  0  0  0  0  0  0  0  0
   -5.3880    0.0620  -18.0820 C   0  0  0  0  0  0  0  0  0  0  0  0
   -5.0250    0.5670  -19.3600 C   0  0  0  0  0  0  0  0  0  0  0  0
   -3.8960    1.4040  -19.5590 C   0  0  0  0  0  0  0  0  0  0  0  0
   -3.6490    1.9510  -20.7880 C   0  0  0  0  0  0  0  0  0  0  0  0
   -4.5050    1.6710  -21.8780 C   0  0  0  0  0  0  0  0  0  0  0  0
   -5.5680    0.8150  -21.7180 C   0  0  0  0  0  0  0  0  0  0  0  0
   -5.8530    0.2440  -20.4540 C   0  0  0  0  0  0  0  0  0  0  0  0
   -6.2380    0.6190  -22.5500 H   0  0  0  0  0  0  0  0  0  0  0  0
   -4.3420    2.1440  -22.8410 H   0  0  0  0  0  0  0  0  0  0  0  0
   -2.8070    2.6250  -20.9240 H   0  0  0  0  0  0  0  0  0  0  0  0
   -3.2580    1.6220  -18.7050 H   0  0  0  0  0  0  0  0  0  0  0  0
   -4.7580    0.3050  -17.2260 H   0  0  0  0  0  0  0  0  0  0  0  0
   -8.0910   -1.6300  -18.7020 H   0  0  0  0  0  0  0  0  0  0  0  0
   -7.1740   -2.2210  -22.1230 C   0  0  0  0  0  0  0  0  0  0  0  0
   -8.4520   -2.9170  -22.6250 C   0  0  2  0  0  0  0  0  0  0  0  0
   -8.1820   -3.7560  -23.8680 C   0  0  0  0  0  0  0  0  0  0  0  0
   -7.6770   -3.1530  -24.6320 H   0  0  0  0  0  0  0  0  0  0  0  0
   -9.1050   -4.1490  -24.3090 H   0  0  0  0  0  0  0  0  0  0  0  0
   -7.5210   -4.5980  -23.6350 H   0  0  0  0  0  0  0  0  0  0  0  0
   -8.8000   -3.5680  -21.8150 H   0  0  0  0  0  0  0  0  0  0  0  0
   -6.5170   -2.8800  -21.5490 H   0  0  0  0  0  0  0  0  0  0  0  0
   -6.5900   -1.8160  -22.9690 H   0  0  0  0  0  0  0  0  0  0  0  0
  -10.9520   -2.0810  -22.5660 C   0  0  0  0  0  0  0  0  0  0  0  0
  -11.4020   -3.1460  -21.7770 C   0  0  0  0  0  0  0  0  0  0  0  0
  -12.7020   -3.1290  -21.3030 C   0  0  0  0  0  0  0  0  0  0  0  0
  -13.1100   -4.0920  -20.4610 F   0  0  0  0  0  0  0  0  0  0  0  0
  -13.6050   -2.1140  -21.6070 C   0  0  0  0  0  0  0  0  0  0  0  0
  -13.2110   -1.1550  -22.5120 C   0  0  0  0  0  0  0  0  0  0  0  0
  -11.9220   -1.1800  -23.0440 C   0  0  0  0  0  0  0  0  0  0  0  0
  -11.6020   -0.1690  -24.1040 C   0  0  0  0  0  0  0  0  0  0  0  0
  -12.4760    0.5220  -24.6200 O   0  0  0  0  0  0  0  0  0  0  0  0
  -13.8860   -0.3670  -22.8340 H   0  0  0  0  0  0  0  0  0  0  0  0
  -14.5940   -2.1220  -21.1600 H   0  0  0  0  0  0  0  0  0  0  0  0
  -10.7610   -3.9790  -21.5020 H   0  0  0  0  0  0  0  0  0  0  0  0
   -8.3190   -0.6470  -24.2210 H   0  0  0  0  0  0  0  0  0  0  0  0
   -9.4340   -1.8380  -24.9200 H   0  0  0  0  0  0  0  0  0  0  0  0
  -10.7060    1.7290  -25.3950 H   0  0  0  0  0  0  0  0  0  0  0  0
   -9.3450    0.7890  -26.0670 H   0  0  0  0  0  0  0  0  0  0  0  0
   -6.8420    1.6400  -25.3170 H   0  0  0  0  0  0  0  0  0  0  0  0
   -7.9450    3.8650  -21.9510 H   0  0  0  0  0  0  0  0  0  0  0  0
  -10.9910    3.4290  -23.9710 H   0  0  0  0  0  0  0  0  0  0  0  0
  -10.2630    4.2770  -22.6020 H   0  0  0  0  0  0  0  0  0  0  0  0
  -11.0290    2.2690  -21.1210 H   0  0  0  0  0  0  0  0  0  0  0  0
  -12.2760    3.2280  -21.9690 H   0  0  0  0  0  0  0  0  0  0  0  0
  -11.7890    1.6340  -22.5620 H   0  0  0  0  0  0  0  0  0  0  0  0
  1  2  1  0  0  0  0
  1 60  1  0  0  0  0
  1 61  1  0  0  0  0
  1 62  1  0  0  0  0
  2  3  1  0  0  0  0
  2 58  1  0  0  0  0
  2 59  1  0  0  0  0
  3  4  1  0  0  0  0
  3  7  1  0  0  0  0
  4  5  2  0  0  0  0
  5  6  1  0  0  0  0
  5 57  1  0  0  0  0
  6  7  2  0  0  0  0
  6 56  1  0  0  0  0
  7  8  1  0  0  0  0
  8  9  1  0  0  0  0
  8 54  1  0  0  0  0
  8 55  1  0  0  0  0
  9 10  1  0  0  0  0
  9 47  1  0  0  0  0
 10 11  1  0  0  0  0
 10 52  1  0  0  0  0
 10 53  1  0  0  0  0
 11 12  1  1  0  0  0
 11 32  1  0  0  0  0
 11 40  1  0  0  0  0
 12 13  2  0  0  0  0
 12 14  1  0  0  0  0
 14 15  1  0  0  0  0
 14 31  1  0  0  0  0
 15 16  2  0  0  0  0
 15 24  1  0  0  0  0
 16 17  1  0  0  0  0
 16 30  1  0  0  0  0
 17 18  2  0  0  0  0
 18 19  1  0  0  0  0
 18 29  1  0  0  0  0
 19 20  2  0  0  0  0
 19 24  1  0  0  0  0
 20 21  1  0  0  0  0
 20 28  1  0  0  0  0
 21 22  2  0  0  0  0
 21 27  1  0  0  0  0
 22 23  1  0  0  0  0
 22 26  1  0  0  0  0
 23 24  2  0  0  0  0
 23 25  1  0  0  0  0
 31 32  1  0  0  0  0
 31 38  1  0  0  0  0
 31 39  1  0  0  0  0
 32 33  1  0  0  0  0
 32 37  1  1  0  0  0
 33 34  1  0  0  0  0
 33 35  1  0  0  0  0
 33 36  1  0  0  0  0
 40 41  2  0  0  0  0
 40 46  1  0  0  0  0
 41 42  1  0  0  0  0
 41 51  1  0  0  0  0
 42 43  1  0  0  0  0
 42 44  2  0  0  0  0
 44 45  1  0  0  0  0
 44 50  1  0  0  0  0
 45 46  2  0  0  0  0
 45 49  1  0  0  0  0
 46 47  1  0  0  0  0
 47 48  2  0  0  0  0
M  END
>  <MODEL>
       1

$$$$
