tmp_first_model_13_85.pdb
 OpenBabel08282500103D

 57 62  0  0  1  0  0  0  0  0999 V2000
   -9.2830    1.0400  -29.3260 C   0  0  0  0  0  0  0  0  0  0  0  0
   -9.1680    1.3810  -27.9200 N   0  0  0  0  0  0  0  0  0  0  0  0
   -8.2900    0.7040  -27.1370 C   0  0  0  0  0  0  0  0  0  0  0  0
   -7.5160   -0.1330  -27.5730 O   0  0  0  0  0  0  0  0  0  0  0  0
   -8.3140    1.0740  -25.6510 C   0  0  0  0  0  0  0  0  0  0  0  0
   -9.1520    0.2030  -24.8570 N   0  0  0  0  0  0  0  0  0  0  0  0
   -8.6690   -1.1210  -24.5090 C   0  0  0  0  0  0  0  0  0  0  0  0
   -8.9660   -1.4880  -23.0350 C   0  0  2  0  0  0  0  0  0  0  0  0
   -8.1490   -0.5770  -22.0880 C   0  0  0  0  0  0  0  0  0  0  0  0
   -8.1530    0.6350  -22.0780 O   0  0  0  0  0  0  0  0  0  0  0  0
   -7.3820   -1.3540  -21.2450 N   0  0  0  0  0  0  0  0  0  0  0  0
   -6.5940   -0.8080  -20.1990 C   0  0  0  0  0  0  0  0  0  0  0  0
   -6.8930   -1.0600  -18.8820 C   0  0  0  0  0  0  0  0  0  0  0  0
   -6.2020   -0.5550  -17.8310 N   0  0  0  0  0  0  0  0  0  0  0  0
   -5.1710    0.2100  -18.0880 C   0  0  0  0  0  0  0  0  0  0  0  0
   -4.7280    0.5260  -19.4030 C   0  0  0  0  0  0  0  0  0  0  0  0
   -3.5960    1.3530  -19.6320 C   0  0  0  0  0  0  0  0  0  0  0  0
   -3.1800    1.6210  -20.9080 C   0  0  0  0  0  0  0  0  0  0  0  0
   -3.8700    1.0670  -22.0100 C   0  0  0  0  0  0  0  0  0  0  0  0
   -4.9650    0.2640  -21.8120 C   0  0  0  0  0  0  0  0  0  0  0  0
   -5.4410   -0.0070  -20.4980 C   0  0  0  0  0  0  0  0  0  0  0  0
   -5.4840   -0.1620  -22.6640 H   0  0  0  0  0  0  0  0  0  0  0  0
   -3.5410    1.2810  -23.0220 H   0  0  0  0  0  0  0  0  0  0  0  0
   -2.3250    2.2680  -21.0840 H   0  0  0  0  0  0  0  0  0  0  0  0
   -3.0770    1.7660  -18.7710 H   0  0  0  0  0  0  0  0  0  0  0  0
   -4.6250    0.6160  -17.2370 H   0  0  0  0  0  0  0  0  0  0  0  0
   -7.7520   -1.6770  -18.6180 H   0  0  0  0  0  0  0  0  0  0  0  0
   -7.6280   -2.7670  -21.3870 C   0  0  0  0  0  0  0  0  0  0  0  0
   -8.4800   -2.8950  -22.6460 C   0  0  0  0  0  0  0  0  0  0  0  0
   -9.3500   -4.1070  -22.8330 C   0  0  0  0  0  0  0  0  0  0  0  0
   -8.0960   -3.9560  -23.6470 C   0  0  0  0  0  0  0  0  0  0  0  0
   -7.2430   -4.5900  -23.4090 H   0  0  0  0  0  0  0  0  0  0  0  0
   -8.1860   -3.7370  -24.7070 H   0  0  0  0  0  0  0  0  0  0  0  0
   -9.3990   -4.8450  -22.0350 H   0  0  0  0  0  0  0  0  0  0  0  0
  -10.3070   -3.9620  -23.3300 H   0  0  0  0  0  0  0  0  0  0  0  0
   -6.6780   -3.3020  -21.4710 H   0  0  0  0  0  0  0  0  0  0  0  0
   -8.1810   -3.1400  -20.5230 H   0  0  0  0  0  0  0  0  0  0  0  0
  -10.4540   -1.2290  -22.8300 C   0  0  0  0  0  0  0  0  0  0  0  0
  -11.1640   -1.9420  -21.8640 C   0  0  0  0  0  0  0  0  0  0  0  0
  -12.5300   -1.7650  -21.7620 C   0  0  0  0  0  0  0  0  0  0  0  0
  -13.4320   -2.8670  -20.7540 Cl  0  0  0  0  0  0  0  0  0  0  0  0
  -13.1870   -0.7210  -22.4070 C   0  0  0  0  0  0  0  0  0  0  0  0
  -12.4770    0.0370  -23.3150 C   0  0  0  0  0  0  0  0  0  0  0  0
  -11.1350   -0.2410  -23.5560 C   0  0  0  0  0  0  0  0  0  0  0  0
  -10.4380    0.5730  -24.5970 C   0  0  0  0  0  0  0  0  0  0  0  0
  -10.9840    1.5140  -25.1640 O   0  0  0  0  0  0  0  0  0  0  0  0
  -12.9530    0.8530  -23.8500 H   0  0  0  0  0  0  0  0  0  0  0  0
  -14.2090   -0.4650  -22.1600 H   0  0  0  0  0  0  0  0  0  0  0  0
  -10.6490   -2.5880  -21.1600 H   0  0  0  0  0  0  0  0  0  0  0  0
   -7.5960   -1.1390  -24.6990 H   0  0  0  0  0  0  0  0  0  0  0  0
   -9.1550   -1.8640  -25.1540 H   0  0  0  0  0  0  0  0  0  0  0  0
   -8.6690    2.0960  -25.5060 H   0  0  0  0  0  0  0  0  0  0  0  0
   -7.2850    0.9880  -25.2840 H   0  0  0  0  0  0  0  0  0  0  0  0
   -9.8680    1.9590  -27.4760 H   0  0  0  0  0  0  0  0  0  0  0  0
   -9.5300   -0.0200  -29.4500 H   0  0  0  0  0  0  0  0  0  0  0  0
  -10.0610    1.6550  -29.7880 H   0  0  0  0  0  0  0  0  0  0  0  0
   -8.3310    1.2140  -29.8400 H   0  0  0  0  0  0  0  0  0  0  0  0
  1  2  1  0  0  0  0
  1 55  1  0  0  0  0
  1 56  1  0  0  0  0
  1 57  1  0  0  0  0
  2  3  1  0  0  0  0
  2 54  1  0  0  0  0
  3  4  2  0  0  0  0
  3  5  1  0  0  0  0
  5  6  1  0  0  0  0
  5 52  1  0  0  0  0
  5 53  1  0  0  0  0
  6  7  1  0  0  0  0
  6 45  1  0  0  0  0
  7  8  1  0  0  0  0
  7 50  1  0  0  0  0
  7 51  1  0  0  0  0
  8  9  1  1  0  0  0
  8 29  1  0  0  0  0
  8 38  1  0  0  0  0
  9 10  2  0  0  0  0
  9 11  1  0  0  0  0
 11 12  1  0  0  0  0
 11 28  1  0  0  0  0
 12 13  2  0  0  0  0
 12 21  1  0  0  0  0
 13 14  1  0  0  0  0
 13 27  1  0  0  0  0
 14 15  2  0  0  0  0
 15 16  1  0  0  0  0
 15 26  1  0  0  0  0
 16 17  2  0  0  0  0
 16 21  1  0  0  0  0
 17 18  1  0  0  0  0
 17 25  1  0  0  0  0
 18 19  2  0  0  0  0
 18 24  1  0  0  0  0
 19 20  1  0  0  0  0
 19 23  1  0  0  0  0
 20 21  2  0  0  0  0
 20 22  1  0  0  0  0
 28 29  1  0  0  0  0
 28 36  1  0  0  0  0
 28 37  1  0  0  0  0
 29 30  1  0  0  0  0
 29 31  1  0  0  0  0
 30 31  1  0  0  0  0
 30 34  1  0  0  0  0
 30 35  1  0  0  0  0
 31 32  1  0  0  0  0
 31 33  1  0  0  0  0
 38 39  2  0  0  0  0
 38 44  1  0  0  0  0
 39 40  1  0  0  0  0
 39 49  1  0  0  0  0
 40 41  1  0  0  0  0
 40 42  2  0  0  0  0
 42 43  1  0  0  0  0
 42 48  1  0  0  0  0
 43 44  2  0  0  0  0
 43 47  1  0  0  0  0
 44 45  1  0  0  0  0
 45 46  2  0  0  0  0
M  END
>  <MODEL>
       1

$$$$
