tmp_first_model_1_44.pdb
 OpenBabel08272517043D

 60 64  0  0  1  0  0  0  0  0999 V2000
   -5.1890   -3.9270  -19.1760 C   0  0  0  0  0  0  0  0  0  0  0  0
   -6.2090   -4.5870  -19.9470 N   0  0  0  0  0  0  0  0  0  0  0  0
   -6.1070   -5.8540  -20.3930 C   0  0  0  0  0  0  0  0  0  0  0  0
   -5.1550   -6.5690  -20.1160 O   0  0  0  0  0  0  0  0  0  0  0  0
   -7.3260   -6.3410  -21.2110 C   0  0  0  0  0  0  0  0  0  0  0  0
   -7.6490   -5.4680  -22.3260 N   0  0  0  0  0  0  0  0  0  0  0  0
   -8.5540   -4.3150  -22.2970 C   0  0  0  0  0  0  0  0  0  0  0  0
   -7.9020   -3.0480  -22.9390 C   0  0  2  0  0  0  0  0  0  0  0  0
   -6.7870   -2.4490  -22.0490 C   0  0  0  0  0  0  0  0  0  0  0  0
   -5.6150   -2.7750  -22.0160 O   0  0  0  0  0  0  0  0  0  0  0  0
   -7.3240   -1.4550  -21.2620 N   0  0  0  0  0  0  0  0  0  0  0  0
   -6.5870   -0.8380  -20.2250 C   0  0  0  0  0  0  0  0  0  0  0  0
   -6.9710   -1.0090  -18.9180 C   0  0  0  0  0  0  0  0  0  0  0  0
   -6.2800   -0.5400  -17.8530 N   0  0  0  0  0  0  0  0  0  0  0  0
   -5.2130    0.1860  -18.0960 C   0  0  0  0  0  0  0  0  0  0  0  0
   -4.7400    0.4870  -19.4030 C   0  0  0  0  0  0  0  0  0  0  0  0
   -3.6100    1.3210  -19.6150 C   0  0  0  0  0  0  0  0  0  0  0  0
   -3.1970    1.6240  -20.8820 C   0  0  0  0  0  0  0  0  0  0  0  0
   -3.8900    1.1060  -21.9990 C   0  0  0  0  0  0  0  0  0  0  0  0
   -4.9830    0.2970  -21.8210 C   0  0  0  0  0  0  0  0  0  0  0  0
   -5.4380   -0.0360  -20.5140 C   0  0  0  0  0  0  0  0  0  0  0  0
   -5.5080   -0.0970  -22.6850 H   0  0  0  0  0  0  0  0  0  0  0  0
   -3.5590    1.3550  -23.0030 H   0  0  0  0  0  0  0  0  0  0  0  0
   -2.3460    2.2790  -21.0440 H   0  0  0  0  0  0  0  0  0  0  0  0
   -3.1040    1.7330  -18.7450 H   0  0  0  0  0  0  0  0  0  0  0  0
   -4.6640    0.5700  -17.2360 H   0  0  0  0  0  0  0  0  0  0  0  0
   -7.8380   -1.6200  -18.6660 H   0  0  0  0  0  0  0  0  0  0  0  0
   -8.6990   -1.1250  -21.5930 C   0  0  0  0  0  0  0  0  0  0  0  0
   -8.8620   -1.8090  -22.9580 C   0  0  2  0  0  0  0  0  0  0  0  0
  -10.3120   -2.0050  -23.3580 C   0  0  0  0  0  0  0  0  0  0  0  0
  -11.0300   -2.5690  -22.2820 O   0  0  0  0  0  0  0  0  0  0  0  0
  -12.3660   -2.8530  -22.6050 C   0  0  0  0  0  0  0  0  0  0  0  0
  -12.4350   -3.5890  -23.4220 H   0  0  0  0  0  0  0  0  0  0  0  0
  -12.8340   -3.2700  -21.7090 H   0  0  0  0  0  0  0  0  0  0  0  0
  -12.9150   -1.9470  -22.9040 H   0  0  0  0  0  0  0  0  0  0  0  0
  -10.7520   -1.0300  -23.6290 H   0  0  0  0  0  0  0  0  0  0  0  0
  -10.3750   -2.6570  -24.2450 H   0  0  0  0  0  0  0  0  0  0  0  0
   -8.4270   -1.1240  -23.6890 H   0  0  0  0  0  0  0  0  0  0  0  0
   -9.4190   -1.5060  -20.8610 H   0  0  0  0  0  0  0  0  0  0  0  0
   -8.8330   -0.0380  -21.6640 H   0  0  0  0  0  0  0  0  0  0  0  0
   -7.3140   -3.4620  -24.2810 C   0  0  0  0  0  0  0  0  0  0  0  0
   -6.9600   -2.5140  -25.2540 C   0  0  0  0  0  0  0  0  0  0  0  0
   -6.3300   -2.9050  -26.4250 C   0  0  0  0  0  0  0  0  0  0  0  0
   -5.8900   -1.6900  -27.5960 Cl  0  0  0  0  0  0  0  0  0  0  0  0
   -6.0220   -4.2400  -26.6860 C   0  0  0  0  0  0  0  0  0  0  0  0
   -6.3440   -5.1760  -25.7290 C   0  0  0  0  0  0  0  0  0  0  0  0
   -6.9620   -4.7950  -24.5420 C   0  0  0  0  0  0  0  0  0  0  0  0
   -7.0920   -5.8630  -23.5130 C   0  0  0  0  0  0  0  0  0  0  0  0
   -6.6560   -6.9920  -23.6880 O   0  0  0  0  0  0  0  0  0  0  0  0
   -6.1030   -6.2260  -25.8560 H   0  0  0  0  0  0  0  0  0  0  0  0
   -5.5250   -4.5280  -27.6060 H   0  0  0  0  0  0  0  0  0  0  0  0
   -7.1480   -1.4570  -25.1100 H   0  0  0  0  0  0  0  0  0  0  0  0
   -8.8980   -4.1070  -21.2810 H   0  0  0  0  0  0  0  0  0  0  0  0
   -9.4470   -4.5490  -22.8920 H   0  0  0  0  0  0  0  0  0  0  0  0
   -7.0520   -7.3130  -21.6240 H   0  0  0  0  0  0  0  0  0  0  0  0
   -8.2200   -6.5060  -20.6080 H   0  0  0  0  0  0  0  0  0  0  0  0
   -6.9870   -4.0390  -20.2790 H   0  0  0  0  0  0  0  0  0  0  0  0
   -4.2980   -3.7760  -19.7870 H   0  0  0  0  0  0  0  0  0  0  0  0
   -5.5530   -2.9610  -18.8280 H   0  0  0  0  0  0  0  0  0  0  0  0
   -4.9610   -4.4890  -18.2760 H   0  0  0  0  0  0  0  0  0  0  0  0
  1  2  1  0  0  0  0
  1 58  1  0  0  0  0
  1 59  1  0  0  0  0
  1 60  1  0  0  0  0
  2  3  1  0  0  0  0
  2 57  1  0  0  0  0
  3  4  2  0  0  0  0
  3  5  1  0  0  0  0
  5  6  1  0  0  0  0
  5 55  1  0  0  0  0
  5 56  1  0  0  0  0
  6  7  1  0  0  0  0
  6 48  1  0  0  0  0
  7  8  1  0  0  0  0
  7 53  1  0  0  0  0
  7 54  1  0  0  0  0
  8  9  1  1  0  0  0
  8 29  1  0  0  0  0
  8 41  1  0  0  0  0
  9 10  2  0  0  0  0
  9 11  1  0  0  0  0
 11 12  1  0  0  0  0
 11 28  1  0  0  0  0
 12 13  2  0  0  0  0
 12 21  1  0  0  0  0
 13 14  1  0  0  0  0
 13 27  1  0  0  0  0
 14 15  2  0  0  0  0
 15 16  1  0  0  0  0
 15 26  1  0  0  0  0
 16 17  2  0  0  0  0
 16 21  1  0  0  0  0
 17 18  1  0  0  0  0
 17 25  1  0  0  0  0
 18 19  2  0  0  0  0
 18 24  1  0  0  0  0
 19 20  1  0  0  0  0
 19 23  1  0  0  0  0
 20 21  2  0  0  0  0
 20 22  1  0  0  0  0
 28 29  1  0  0  0  0
 28 39  1  0  0  0  0
 28 40  1  0  0  0  0
 29 30  1  0  0  0  0
 29 38  1  6  0  0  0
 30 31  1  0  0  0  0
 30 36  1  0  0  0  0
 30 37  1  0  0  0  0
 31 32  1  0  0  0  0
 32 33  1  0  0  0  0
 32 34  1  0  0  0  0
 32 35  1  0  0  0  0
 41 42  2  0  0  0  0
 41 47  1  0  0  0  0
 42 43  1  0  0  0  0
 42 52  1  0  0  0  0
 43 44  1  0  0  0  0
 43 45  2  0  0  0  0
 45 46  1  0  0  0  0
 45 51  1  0  0  0  0
 46 47  2  0  0  0  0
 46 50  1  0  0  0  0
 47 48  1  0  0  0  0
 48 49  2  0  0  0  0
M  END
>  <MODEL>
       1

$$$$
