tmp_first_model_2_63.pdb
 OpenBabel08272517383D

 57 61  0  0  1  0  0  0  0  0999 V2000
  -14.9180   -0.4770  -22.7630 C   0  0  0  0  0  0  0  0  0  0  0  0
  -13.9770   -1.3860  -22.1510 N   0  0  0  0  0  0  0  0  0  0  0  0
  -13.1420   -2.1700  -22.8840 C   0  0  0  0  0  0  0  0  0  0  0  0
  -12.9890   -2.0320  -24.0880 O   0  0  0  0  0  0  0  0  0  0  0  0
  -12.4740   -3.2420  -22.0210 C   0  0  0  0  0  0  0  0  0  0  0  0
  -11.1370   -3.5520  -22.4240 N   0  0  0  0  0  0  0  0  0  0  0  0
  -10.0380   -3.0810  -21.6060 C   0  0  0  0  0  0  0  0  0  0  0  0
   -8.8180   -2.6880  -22.4550 C   0  0  2  0  0  0  0  0  0  0  0  0
   -7.6460   -2.5870  -21.4480 C   0  0  0  0  0  0  0  0  0  0  0  0
   -7.0570   -3.5040  -20.9120 O   0  0  0  0  0  0  0  0  0  0  0  0
   -7.3540   -1.2560  -21.2320 N   0  0  0  0  0  0  0  0  0  0  0  0
   -6.5490   -0.8190  -20.1490 C   0  0  0  0  0  0  0  0  0  0  0  0
   -6.8530   -1.1250  -18.8450 C   0  0  0  0  0  0  0  0  0  0  0  0
   -6.2140   -0.5920  -17.7690 N   0  0  0  0  0  0  0  0  0  0  0  0
   -5.2260    0.2390  -18.0090 C   0  0  0  0  0  0  0  0  0  0  0  0
   -4.7590    0.5810  -19.3120 C   0  0  0  0  0  0  0  0  0  0  0  0
   -3.6540    1.4450  -19.5230 C   0  0  0  0  0  0  0  0  0  0  0  0
   -3.2140    1.7030  -20.7920 C   0  0  0  0  0  0  0  0  0  0  0  0
   -3.8660    1.1310  -21.9070 C   0  0  0  0  0  0  0  0  0  0  0  0
   -4.9530    0.3140  -21.7300 C   0  0  0  0  0  0  0  0  0  0  0  0
   -5.4310    0.0310  -20.4240 C   0  0  0  0  0  0  0  0  0  0  0  0
   -5.4560   -0.1290  -22.5850 H   0  0  0  0  0  0  0  0  0  0  0  0
   -3.5010    1.3400  -22.9070 H   0  0  0  0  0  0  0  0  0  0  0  0
   -2.3590    2.3520  -20.9490 H   0  0  0  0  0  0  0  0  0  0  0  0
   -3.1700    1.8790  -18.6510 H   0  0  0  0  0  0  0  0  0  0  0  0
   -4.7220    0.6760  -17.1480 H   0  0  0  0  0  0  0  0  0  0  0  0
   -7.6570   -1.8230  -18.6120 H   0  0  0  0  0  0  0  0  0  0  0  0
   -8.2980   -0.3610  -21.8810 C   0  0  0  0  0  0  0  0  0  0  0  0
   -8.8770   -1.2130  -23.0110 C   0  0  2  0  0  0  0  0  0  0  0  0
  -10.1950   -0.6090  -23.4780 C   0  0  0  0  0  0  0  0  0  0  0  0
  -11.0210   -0.3550  -22.3530 O   0  0  0  0  0  0  0  0  0  0  0  0
  -11.6650    0.3240  -22.5900 H   0  0  0  0  0  0  0  0  0  0  0  0
  -10.7230   -1.2660  -24.1730 H   0  0  0  0  0  0  0  0  0  0  0  0
   -9.9830    0.3410  -23.9880 H   0  0  0  0  0  0  0  0  0  0  0  0
   -8.1880   -1.1920  -23.8630 H   0  0  0  0  0  0  0  0  0  0  0  0
   -7.8050    0.5520  -22.2340 H   0  0  0  0  0  0  0  0  0  0  0  0
   -9.1010   -0.0740  -21.1880 H   0  0  0  0  0  0  0  0  0  0  0  0
   -8.5780   -3.7740  -23.4910 C   0  0  0  0  0  0  0  0  0  0  0  0
   -7.2860   -3.9720  -23.9950 C   0  0  0  0  0  0  0  0  0  0  0  0
   -7.0280   -4.9800  -24.9070 C   0  0  0  0  0  0  0  0  0  0  0  0
   -5.3880   -5.2920  -25.4090 Cl  0  0  0  0  0  0  0  0  0  0  0  0
   -8.0550   -5.7920  -25.3880 C   0  0  0  0  0  0  0  0  0  0  0  0
   -9.3380   -5.5890  -24.9160 C   0  0  0  0  0  0  0  0  0  0  0  0
   -9.6040   -4.6040  -23.9640 C   0  0  0  0  0  0  0  0  0  0  0  0
  -10.9970   -4.4310  -23.4610 C   0  0  0  0  0  0  0  0  0  0  0  0
  -11.9650   -5.0050  -23.9360 O   0  0  0  0  0  0  0  0  0  0  0  0
  -10.1580   -6.2160  -25.2530 H   0  0  0  0  0  0  0  0  0  0  0  0
   -7.8400   -6.5620  -26.1230 H   0  0  0  0  0  0  0  0  0  0  0  0
   -6.4670   -3.3600  -23.6360 H   0  0  0  0  0  0  0  0  0  0  0  0
   -9.7160   -3.8530  -20.8930 H   0  0  0  0  0  0  0  0  0  0  0  0
  -10.3770   -2.1940  -21.0630 H   0  0  0  0  0  0  0  0  0  0  0  0
  -13.0900   -4.1450  -22.0990 H   0  0  0  0  0  0  0  0  0  0  0  0
  -12.4410   -2.9010  -20.9850 H   0  0  0  0  0  0  0  0  0  0  0  0
  -13.9730   -1.4960  -21.1560 H   0  0  0  0  0  0  0  0  0  0  0  0
  -15.8760   -0.5370  -22.2410 H   0  0  0  0  0  0  0  0  0  0  0  0
  -14.5770    0.5630  -22.7550 H   0  0  0  0  0  0  0  0  0  0  0  0
  -15.0320   -0.8020  -23.7940 H   0  0  0  0  0  0  0  0  0  0  0  0
  1  2  1  0  0  0  0
  1 55  1  0  0  0  0
  1 56  1  0  0  0  0
  1 57  1  0  0  0  0
  2  3  1  0  0  0  0
  2 54  1  0  0  0  0
  3  4  2  0  0  0  0
  3  5  1  0  0  0  0
  5  6  1  0  0  0  0
  5 52  1  0  0  0  0
  5 53  1  0  0  0  0
  6  7  1  0  0  0  0
  6 45  1  0  0  0  0
  7  8  1  0  0  0  0
  7 50  1  0  0  0  0
  7 51  1  0  0  0  0
  8  9  1  1  0  0  0
  8 29  1  0  0  0  0
  8 38  1  0  0  0  0
  9 10  2  0  0  0  0
  9 11  1  0  0  0  0
 11 12  1  0  0  0  0
 11 28  1  0  0  0  0
 12 13  2  0  0  0  0
 12 21  1  0  0  0  0
 13 14  1  0  0  0  0
 13 27  1  0  0  0  0
 14 15  2  0  0  0  0
 15 16  1  0  0  0  0
 15 26  1  0  0  0  0
 16 17  2  0  0  0  0
 16 21  1  0  0  0  0
 17 18  1  0  0  0  0
 17 25  1  0  0  0  0
 18 19  2  0  0  0  0
 18 24  1  0  0  0  0
 19 20  1  0  0  0  0
 19 23  1  0  0  0  0
 20 21  2  0  0  0  0
 20 22  1  0  0  0  0
 28 29  1  0  0  0  0
 28 36  1  0  0  0  0
 28 37  1  0  0  0  0
 29 30  1  0  0  0  0
 29 35  1  6  0  0  0
 30 31  1  0  0  0  0
 30 33  1  0  0  0  0
 30 34  1  0  0  0  0
 31 32  1  0  0  0  0
 38 39  2  0  0  0  0
 38 44  1  0  0  0  0
 39 40  1  0  0  0  0
 39 49  1  0  0  0  0
 40 41  1  0  0  0  0
 40 42  2  0  0  0  0
 42 43  1  0  0  0  0
 42 48  1  0  0  0  0
 43 44  2  0  0  0  0
 43 47  1  0  0  0  0
 44 45  1  0  0  0  0
 45 46  2  0  0  0  0
M  END
>  <MODEL>
       1

$$$$
