tmp_first_model_17_8.pdb
 OpenBabel08282502223D

 60 64  0  0  1  0  0  0  0  0999 V2000
   -7.2170    3.1900  -22.0530 C   0  0  0  0  0  0  0  0  0  0  0  0
   -8.2010    2.5470  -22.8980 N   0  0  0  0  0  0  0  0  0  0  0  0
   -7.8540    1.9030  -24.0370 C   0  0  0  0  0  0  0  0  0  0  0  0
   -6.6960    1.7610  -24.4150 O   0  0  0  0  0  0  0  0  0  0  0  0
   -9.0430    1.4240  -24.8630 C   0  0  0  0  0  0  0  0  0  0  0  0
   -9.7360    0.2970  -24.2790 N   0  0  0  0  0  0  0  0  0  0  0  0
   -9.0180   -0.9440  -24.1140 C   0  0  0  0  0  0  0  0  0  0  0  0
   -9.3750   -1.6220  -22.7750 C   0  0  2  0  0  0  0  0  0  0  0  0
   -8.8250   -0.7810  -21.5840 C   0  0  0  0  0  0  0  0  0  0  0  0
   -9.3480    0.1840  -21.0620 O   0  0  0  0  0  0  0  0  0  0  0  0
   -7.6150   -1.3180  -21.2050 N   0  0  0  0  0  0  0  0  0  0  0  0
   -6.7970   -0.7660  -20.1810 C   0  0  0  0  0  0  0  0  0  0  0  0
   -7.0870   -1.0210  -18.8630 C   0  0  0  0  0  0  0  0  0  0  0  0
   -6.3520   -0.5750  -17.8140 N   0  0  0  0  0  0  0  0  0  0  0  0
   -5.2910    0.1510  -18.0750 C   0  0  0  0  0  0  0  0  0  0  0  0
   -4.8600    0.4820  -19.3910 C   0  0  0  0  0  0  0  0  0  0  0  0
   -3.7120    1.2870  -19.6300 C   0  0  0  0  0  0  0  0  0  0  0  0
   -3.3310    1.5970  -20.9070 C   0  0  0  0  0  0  0  0  0  0  0  0
   -4.0720    1.1060  -22.0050 C   0  0  0  0  0  0  0  0  0  0  0  0
   -5.1850    0.3210  -21.8010 C   0  0  0  0  0  0  0  0  0  0  0  0
   -5.6210   -0.0040  -20.4870 C   0  0  0  0  0  0  0  0  0  0  0  0
   -5.7670   -0.0030  -22.6580 H   0  0  0  0  0  0  0  0  0  0  0  0
   -3.7760    1.3640  -23.0180 H   0  0  0  0  0  0  0  0  0  0  0  0
   -2.4560    2.2170  -21.0870 H   0  0  0  0  0  0  0  0  0  0  0  0
   -3.1490    1.6590  -18.7780 H   0  0  0  0  0  0  0  0  0  0  0  0
   -4.7030    0.5130  -17.2260 H   0  0  0  0  0  0  0  0  0  0  0  0
   -7.9510   -1.6300  -18.6090 H   0  0  0  0  0  0  0  0  0  0  0  0
   -7.2530   -2.4990  -21.9620 C   0  0  0  0  0  0  0  0  0  0  0  0
   -8.5760   -2.9500  -22.6100 C   0  0  2  0  0  0  0  0  0  0  0  0
   -8.3010   -3.7870  -23.8740 C   0  0  0  0  0  0  0  0  0  0  0  0
   -7.4600   -4.8940  -23.6130 O   0  0  0  0  0  0  0  0  0  0  0  0
   -8.1480   -6.0810  -23.3280 C   0  0  0  0  0  0  0  0  0  0  0  0
   -8.7590   -6.4160  -24.1810 H   0  0  0  0  0  0  0  0  0  0  0  0
   -8.7970   -5.9640  -22.4510 H   0  0  0  0  0  0  0  0  0  0  0  0
   -7.3990   -6.8480  -23.1180 H   0  0  0  0  0  0  0  0  0  0  0  0
   -7.7510   -3.1770  -24.6010 H   0  0  0  0  0  0  0  0  0  0  0  0
   -9.2420   -4.1090  -24.3510 H   0  0  0  0  0  0  0  0  0  0  0  0
   -9.1170   -3.5810  -21.8970 H   0  0  0  0  0  0  0  0  0  0  0  0
   -6.5160   -2.2540  -22.7410 H   0  0  0  0  0  0  0  0  0  0  0  0
   -6.8120   -3.2590  -21.3160 H   0  0  0  0  0  0  0  0  0  0  0  0
  -10.8850   -1.7030  -22.7030 C   0  0  0  0  0  0  0  0  0  0  0  0
  -11.5010   -2.5910  -21.8260 C   0  0  0  0  0  0  0  0  0  0  0  0
  -12.8620   -2.5200  -21.6070 C   0  0  0  0  0  0  0  0  0  0  0  0
  -13.4900   -3.3550  -20.2250 Cl  0  0  0  0  0  0  0  0  0  0  0  0
  -13.6960   -1.6960  -22.3670 C   0  0  0  0  0  0  0  0  0  0  0  0
  -13.0980   -0.8520  -23.2860 C   0  0  0  0  0  0  0  0  0  0  0  0
  -11.7040   -0.7990  -23.3940 C   0  0  0  0  0  0  0  0  0  0  0  0
  -11.1040    0.3010  -24.2150 C   0  0  0  0  0  0  0  0  0  0  0  0
  -11.7920    1.1480  -24.7640 O   0  0  0  0  0  0  0  0  0  0  0  0
  -13.6830   -0.1780  -23.9050 H   0  0  0  0  0  0  0  0  0  0  0  0
  -14.7760   -1.7210  -22.2250 H   0  0  0  0  0  0  0  0  0  0  0  0
  -10.9340   -3.3140  -21.2610 H   0  0  0  0  0  0  0  0  0  0  0  0
   -7.9500   -0.7250  -24.1680 H   0  0  0  0  0  0  0  0  0  0  0  0
   -9.2640   -1.6320  -24.9360 H   0  0  0  0  0  0  0  0  0  0  0  0
   -9.7880    2.2170  -24.9190 H   0  0  0  0  0  0  0  0  0  0  0  0
   -8.6700    1.2210  -25.8700 H   0  0  0  0  0  0  0  0  0  0  0  0
   -9.1310    2.4020  -22.5330 H   0  0  0  0  0  0  0  0  0  0  0  0
   -7.7190    3.9430  -21.4420 H   0  0  0  0  0  0  0  0  0  0  0  0
   -6.4690    3.6880  -22.6760 H   0  0  0  0  0  0  0  0  0  0  0  0
   -6.7060    2.4610  -21.4120 H   0  0  0  0  0  0  0  0  0  0  0  0
  1  2  1  0  0  0  0
  1 58  1  0  0  0  0
  1 59  1  0  0  0  0
  1 60  1  0  0  0  0
  2  3  1  0  0  0  0
  2 57  1  0  0  0  0
  3  4  2  0  0  0  0
  3  5  1  0  0  0  0
  5  6  1  0  0  0  0
  5 55  1  0  0  0  0
  5 56  1  0  0  0  0
  6  7  1  0  0  0  0
  6 48  1  0  0  0  0
  7  8  1  0  0  0  0
  7 53  1  0  0  0  0
  7 54  1  0  0  0  0
  8  9  1  1  0  0  0
  8 29  1  0  0  0  0
  8 41  1  0  0  0  0
  9 10  2  0  0  0  0
  9 11  1  0  0  0  0
 11 12  1  0  0  0  0
 11 28  1  0  0  0  0
 12 13  2  0  0  0  0
 12 21  1  0  0  0  0
 13 14  1  0  0  0  0
 13 27  1  0  0  0  0
 14 15  2  0  0  0  0
 15 16  1  0  0  0  0
 15 26  1  0  0  0  0
 16 17  2  0  0  0  0
 16 21  1  0  0  0  0
 17 18  1  0  0  0  0
 17 25  1  0  0  0  0
 18 19  2  0  0  0  0
 18 24  1  0  0  0  0
 19 20  1  0  0  0  0
 19 23  1  0  0  0  0
 20 21  2  0  0  0  0
 20 22  1  0  0  0  0
 28 29  1  0  0  0  0
 28 39  1  0  0  0  0
 28 40  1  0  0  0  0
 29 30  1  0  0  0  0
 29 38  1  1  0  0  0
 30 31  1  0  0  0  0
 30 36  1  0  0  0  0
 30 37  1  0  0  0  0
 31 32  1  0  0  0  0
 32 33  1  0  0  0  0
 32 34  1  0  0  0  0
 32 35  1  0  0  0  0
 41 42  2  0  0  0  0
 41 47  1  0  0  0  0
 42 43  1  0  0  0  0
 42 52  1  0  0  0  0
 43 44  1  0  0  0  0
 43 45  2  0  0  0  0
 45 46  1  0  0  0  0
 45 51  1  0  0  0  0
 46 47  2  0  0  0  0
 46 50  1  0  0  0  0
 47 48  1  0  0  0  0
 48 49  2  0  0  0  0
M  END
>  <MODEL>
       1

$$$$
