tmp_first_model_17_81.pdb
 OpenBabel08282502223D

 36 38  0  0  0  0  0  0  0  0999 V2000
   -8.5010    0.7120  -21.4650 O   0  0  0  0  0  0  0  0  0  0  0  0
   -8.3860   -0.4020  -21.9320 C   0  0  0  0  0  0  0  0  0  0  0  0
   -7.4390   -1.4330  -21.2740 C   0  0  0  0  0  0  0  0  0  0  0  0
   -6.5820   -0.8290  -20.1820 C   0  0  0  0  0  0  0  0  0  0  0  0
   -6.8800   -1.0390  -18.8600 C   0  0  0  0  0  0  0  0  0  0  0  0
   -6.1960   -0.5330  -17.7970 N   0  0  0  0  0  0  0  0  0  0  0  0
   -5.1570    0.2210  -18.0640 C   0  0  0  0  0  0  0  0  0  0  0  0
   -4.7250    0.5350  -19.3810 C   0  0  0  0  0  0  0  0  0  0  0  0
   -3.6010    1.3670  -19.6200 C   0  0  0  0  0  0  0  0  0  0  0  0
   -3.2170    1.6640  -20.9000 C   0  0  0  0  0  0  0  0  0  0  0  0
   -3.9400    1.1360  -21.9920 C   0  0  0  0  0  0  0  0  0  0  0  0
   -5.0300    0.3240  -21.7870 C   0  0  0  0  0  0  0  0  0  0  0  0
   -5.4560    0.0010  -20.4720 C   0  0  0  0  0  0  0  0  0  0  0  0
   -5.5770   -0.0680  -22.6370 H   0  0  0  0  0  0  0  0  0  0  0  0
   -3.6210    1.3720  -23.0020 H   0  0  0  0  0  0  0  0  0  0  0  0
   -2.3540    2.2990  -21.0880 H   0  0  0  0  0  0  0  0  0  0  0  0
   -3.0550    1.7740  -18.7720 H   0  0  0  0  0  0  0  0  0  0  0  0
   -4.6010    0.6260  -17.2160 H   0  0  0  0  0  0  0  0  0  0  0  0
   -7.7290   -1.6600  -18.5840 H   0  0  0  0  0  0  0  0  0  0  0  0
   -6.8030   -1.8990  -22.0390 H   0  0  0  0  0  0  0  0  0  0  0  0
   -8.0420   -2.2460  -20.8440 H   0  0  0  0  0  0  0  0  0  0  0  0
   -9.0610   -0.7710  -23.0900 N   0  0  0  0  0  0  0  0  0  0  0  0
  -10.0060    0.1970  -23.6440 C   0  0  0  0  0  0  0  0  0  0  0  0
  -11.3800    0.2180  -23.0250 C   0  0  0  0  0  0  0  0  0  0  0  0
  -12.0240   -0.7940  -22.4360 C   0  0  0  0  0  0  0  0  0  0  0  0
  -11.5730   -2.1780  -22.1690 C   0  0  0  0  0  0  0  0  0  0  0  0
  -10.4460   -2.7820  -22.5540 C   0  0  0  0  0  0  0  0  0  0  0  0
   -9.3680   -2.1610  -23.4060 C   0  0  0  0  0  0  0  0  0  0  0  0
   -8.4500   -2.7540  -23.3600 H   0  0  0  0  0  0  0  0  0  0  0  0
   -9.6860   -2.1780  -24.4540 H   0  0  0  0  0  0  0  0  0  0  0  0
  -10.2830   -3.8160  -22.2440 H   0  0  0  0  0  0  0  0  0  0  0  0
  -12.2770   -2.7630  -21.5790 H   0  0  0  0  0  0  0  0  0  0  0  0
  -13.0190   -0.5820  -22.0480 H   0  0  0  0  0  0  0  0  0  0  0  0
  -11.8930    1.1810  -23.0820 H   0  0  0  0  0  0  0  0  0  0  0  0
  -10.1150   -0.0410  -24.7090 H   0  0  0  0  0  0  0  0  0  0  0  0
   -9.5580    1.1930  -23.5970 H   0  0  0  0  0  0  0  0  0  0  0  0
  1  2  2  0  0  0  0
  2  3  1  0  0  0  0
  2 22  1  0  0  0  0
  3  4  1  0  0  0  0
  3 20  1  0  0  0  0
  3 21  1  0  0  0  0
  4  5  2  0  0  0  0
  4 13  1  0  0  0  0
  5  6  1  0  0  0  0
  5 19  1  0  0  0  0
  6  7  2  0  0  0  0
  7  8  1  0  0  0  0
  7 18  1  0  0  0  0
  8  9  2  0  0  0  0
  8 13  1  0  0  0  0
  9 10  1  0  0  0  0
  9 17  1  0  0  0  0
 10 11  2  0  0  0  0
 10 16  1  0  0  0  0
 11 12  1  0  0  0  0
 11 15  1  0  0  0  0
 12 13  2  0  0  0  0
 12 14  1  0  0  0  0
 22 23  1  0  0  0  0
 22 28  1  0  0  0  0
 23 24  1  0  0  0  0
 23 35  1  0  0  0  0
 23 36  1  0  0  0  0
 24 25  2  0  0  0  0
 24 34  1  0  0  0  0
 25 26  1  0  0  0  0
 25 33  1  0  0  0  0
 26 27  2  0  0  0  0
 26 32  1  0  0  0  0
 27 28  1  0  0  0  0
 27 31  1  0  0  0  0
 28 29  1  0  0  0  0
 28 30  1  0  0  0  0
M  END
>  <MODEL>
       1

$$$$
