tmp_first_model_20_2.pdb
 OpenBabel08282503553D

 60 65  0  0  1  0  0  0  0  0999 V2000
   -9.2500    0.5090  -30.6280 C   0  0  0  0  0  0  0  0  0  0  0  0
   -8.4620    0.4150  -29.3460 C   0  0  0  0  0  0  0  0  0  0  0  0
   -6.7790   -0.6580  -28.2430 C   0  0  0  0  0  0  0  0  0  0  0  0
   -7.0950   -0.1890  -27.0390 N   0  0  0  0  0  0  0  0  0  0  0  0
   -8.1130    0.6830  -27.0030 C   0  0  0  0  0  0  0  0  0  0  0  0
   -8.5470    1.1570  -25.6370 C   0  0  0  0  0  0  0  0  0  0  0  0
   -9.3410    0.1690  -24.9040 N   0  0  0  0  0  0  0  0  0  0  0  0
   -8.7500   -1.1230  -24.5690 C   0  0  0  0  0  0  0  0  0  0  0  0
   -9.0070   -1.5410  -23.0970 C   0  0  2  0  0  0  0  0  0  0  0  0
   -8.2130   -0.5880  -22.1630 C   0  0  0  0  0  0  0  0  0  0  0  0
   -8.2420    0.6230  -22.1890 O   0  0  0  0  0  0  0  0  0  0  0  0
   -7.4350   -1.3430  -21.3040 N   0  0  0  0  0  0  0  0  0  0  0  0
   -6.6390   -0.7910  -20.2650 C   0  0  0  0  0  0  0  0  0  0  0  0
   -6.9570   -1.0540  -18.9550 C   0  0  0  0  0  0  0  0  0  0  0  0
   -6.2880   -0.5790  -17.8760 N   0  0  0  0  0  0  0  0  0  0  0  0
   -5.2370    0.1690  -18.1060 C   0  0  0  0  0  0  0  0  0  0  0  0
   -4.7660    0.4970  -19.4080 C   0  0  0  0  0  0  0  0  0  0  0  0
   -3.6110    1.3070  -19.5880 C   0  0  0  0  0  0  0  0  0  0  0  0
   -3.1550    1.5900  -20.8460 C   0  0  0  0  0  0  0  0  0  0  0  0
   -3.8240    1.0680  -21.9740 C   0  0  0  0  0  0  0  0  0  0  0  0
   -4.9450    0.2880  -21.8260 C   0  0  0  0  0  0  0  0  0  0  0  0
   -5.4650   -0.0030  -20.5320 C   0  0  0  0  0  0  0  0  0  0  0  0
   -5.4500   -0.1010  -22.7030 H   0  0  0  0  0  0  0  0  0  0  0  0
   -3.4510    1.2970  -22.9690 H   0  0  0  0  0  0  0  0  0  0  0  0
   -2.2810    2.2200  -20.9870 H   0  0  0  0  0  0  0  0  0  0  0  0
   -3.1040    1.6940  -18.7080 H   0  0  0  0  0  0  0  0  0  0  0  0
   -4.6940    0.5510  -17.2400 H   0  0  0  0  0  0  0  0  0  0  0  0
   -7.8220   -1.6740  -18.7240 H   0  0  0  0  0  0  0  0  0  0  0  0
   -7.8010   -2.7470  -21.3330 C   0  0  0  0  0  0  0  0  0  0  0  0
   -8.4310   -2.9450  -22.7280 C   0  0  2  0  0  0  0  0  0  0  0  0
   -7.4320   -3.5420  -23.7250 C   0  0  0  0  0  0  0  0  0  0  0  0
   -6.5550   -2.9030  -23.8690 H   0  0  0  0  0  0  0  0  0  0  0  0
   -7.9000   -3.6990  -24.7010 H   0  0  0  0  0  0  0  0  0  0  0  0
   -7.0870   -4.5190  -23.3690 H   0  0  0  0  0  0  0  0  0  0  0  0
   -9.2490   -3.6680  -22.6710 H   0  0  0  0  0  0  0  0  0  0  0  0
   -6.9140   -3.3680  -21.1750 H   0  0  0  0  0  0  0  0  0  0  0  0
   -8.5300   -2.9800  -20.5430 H   0  0  0  0  0  0  0  0  0  0  0  0
  -10.5150   -1.4300  -22.8720 C   0  0  0  0  0  0  0  0  0  0  0  0
  -11.2190   -2.2900  -22.0180 C   0  0  0  0  0  0  0  0  0  0  0  0
  -12.5780   -2.1160  -21.8470 C   0  0  0  0  0  0  0  0  0  0  0  0
  -13.2350   -2.9760  -21.0480 F   0  0  0  0  0  0  0  0  0  0  0  0
  -13.2880   -1.0790  -22.4330 C   0  0  0  0  0  0  0  0  0  0  0  0
  -12.5990   -0.2220  -23.2640 C   0  0  0  0  0  0  0  0  0  0  0  0
  -11.2400   -0.4120  -23.5090 C   0  0  0  0  0  0  0  0  0  0  0  0
  -10.5760    0.5380  -24.4560 C   0  0  0  0  0  0  0  0  0  0  0  0
  -11.1170    1.5840  -24.8000 O   0  0  0  0  0  0  0  0  0  0  0  0
  -13.0910    0.6170  -23.7460 H   0  0  0  0  0  0  0  0  0  0  0  0
  -14.3400   -0.9460  -22.2030 H   0  0  0  0  0  0  0  0  0  0  0  0
  -10.7440   -3.0850  -21.4550 H   0  0  0  0  0  0  0  0  0  0  0  0
   -9.1570   -1.8950  -25.2360 H   0  0  0  0  0  0  0  0  0  0  0  0
   -7.6790   -1.0450  -24.7580 H   0  0  0  0  0  0  0  0  0  0  0  0
   -9.1670    2.0560  -25.7130 H   0  0  0  0  0  0  0  0  0  0  0  0
   -7.6520    1.3950  -25.0490 H   0  0  0  0  0  0  0  0  0  0  0  0
   -8.7480    1.1080  -28.1700 C   0  0  0  0  0  0  0  0  0  0  0  0
   -7.4320   -0.4410  -29.3810 N   0  0  0  0  0  0  0  0  0  0  0  0
   -9.3870    1.9910  -28.1690 H   0  0  0  0  0  0  0  0  0  0  0  0
   -5.8880   -1.2720  -28.2930 H   0  0  0  0  0  0  0  0  0  0  0  0
   -8.5600    0.4760  -31.4670 H   0  0  0  0  0  0  0  0  0  0  0  0
   -9.9230   -0.3530  -30.7150 H   0  0  0  0  0  0  0  0  0  0  0  0
   -9.8500    1.4180  -30.6950 H   0  0  0  0  0  0  0  0  0  0  0  0
  1  2  1  0  0  0  0
  1 58  1  0  0  0  0
  1 59  1  0  0  0  0
  1 60  1  0  0  0  0
  2  3  2  0  0  0  0
  2 55  1  0  0  0  0
  3  4  1  0  0  0  0
  3 57  1  0  0  0  0
  4  5  2  0  0  0  0
  5  6  1  0  0  0  0
  5 54  1  0  0  0  0
  6  7  1  0  0  0  0
  6 52  1  0  0  0  0
  6 53  1  0  0  0  0
  7  8  1  0  0  0  0
  7 45  1  0  0  0  0
  8  9  1  0  0  0  0
  8 50  1  0  0  0  0
  8 51  1  0  0  0  0
  9 10  1  1  0  0  0
  9 30  1  0  0  0  0
  9 38  1  0  0  0  0
 10 11  2  0  0  0  0
 10 12  1  0  0  0  0
 12 13  1  0  0  0  0
 12 29  1  0  0  0  0
 13 14  2  0  0  0  0
 13 22  1  0  0  0  0
 14 15  1  0  0  0  0
 14 28  1  0  0  0  0
 15 16  2  0  0  0  0
 16 17  1  0  0  0  0
 16 27  1  0  0  0  0
 17 18  2  0  0  0  0
 17 22  1  0  0  0  0
 18 19  1  0  0  0  0
 18 26  1  0  0  0  0
 19 20  2  0  0  0  0
 19 25  1  0  0  0  0
 20 21  1  0  0  0  0
 20 24  1  0  0  0  0
 21 22  2  0  0  0  0
 21 23  1  0  0  0  0
 29 30  1  0  0  0  0
 29 36  1  0  0  0  0
 29 37  1  0  0  0  0
 30 31  1  0  0  0  0
 30 35  1  1  0  0  0
 31 32  1  0  0  0  0
 31 33  1  0  0  0  0
 31 34  1  0  0  0  0
 38 39  2  0  0  0  0
 38 44  1  0  0  0  0
 39 40  1  0  0  0  0
 39 49  1  0  0  0  0
 40 41  1  0  0  0  0
 40 42  2  0  0  0  0
 42 43  1  0  0  0  0
 42 48  1  0  0  0  0
 43 44  2  0  0  0  0
 43 47  1  0  0  0  0
 44 45  1  0  0  0  0
 45 46  2  0  0  0  0
 54 55  2  0  0  0  0
 54 56  1  0  0  0  0
M  END
>  <MODEL>
       1

$$$$
