tmp_first_model_11_18.pdb
 OpenBabel08272522543D

 56 61  0  0  1  0  0  0  0  0999 V2000
   -7.8950   -3.5680  -24.1190 C   0  0  0  0  0  0  0  0  0  0  0  0
   -8.2870   -2.8410  -22.8250 C   0  0  1  0  0  0  0  0  0  0  0  0
   -7.0700   -2.5950  -21.9070 C   0  0  0  0  0  0  0  0  0  0  0  0
   -7.4000   -1.3740  -21.2020 N   0  0  0  0  0  0  0  0  0  0  0  0
   -6.5980   -0.8120  -20.1720 C   0  0  0  0  0  0  0  0  0  0  0  0
   -6.9100   -1.0420  -18.8580 C   0  0  0  0  0  0  0  0  0  0  0  0
   -6.2080   -0.5470  -17.8080 N   0  0  0  0  0  0  0  0  0  0  0  0
   -5.1730    0.2090  -18.0800 C   0  0  0  0  0  0  0  0  0  0  0  0
   -4.7320    0.5290  -19.3970 C   0  0  0  0  0  0  0  0  0  0  0  0
   -3.6040    1.3610  -19.6420 C   0  0  0  0  0  0  0  0  0  0  0  0
   -3.2080    1.6380  -20.9190 C   0  0  0  0  0  0  0  0  0  0  0  0
   -3.9140    1.0880  -22.0120 C   0  0  0  0  0  0  0  0  0  0  0  0
   -5.0050    0.2770  -21.8030 C   0  0  0  0  0  0  0  0  0  0  0  0
   -5.4540   -0.0120  -20.4850 C   0  0  0  0  0  0  0  0  0  0  0  0
   -5.5700   -0.0880  -22.6570 H   0  0  0  0  0  0  0  0  0  0  0  0
   -3.6210    1.3460  -23.0270 H   0  0  0  0  0  0  0  0  0  0  0  0
   -2.3620    2.2980  -21.0990 H   0  0  0  0  0  0  0  0  0  0  0  0
   -3.0820    1.7790  -18.7850 H   0  0  0  0  0  0  0  0  0  0  0  0
   -4.6210    0.6140  -17.2300 H   0  0  0  0  0  0  0  0  0  0  0  0
   -7.7660   -1.6640  -18.6020 H   0  0  0  0  0  0  0  0  0  0  0  0
   -8.4590   -0.6730  -21.7310 C   0  0  0  0  0  0  0  0  0  0  0  0
   -8.8800    0.3620  -21.2660 O   0  0  0  0  0  0  0  0  0  0  0  0
   -8.9960   -1.4530  -22.9670 C   0  0  1  0  0  0  0  0  0  0  0  0
   -8.5690   -0.7570  -24.2830 C   0  0  0  0  0  0  0  0  0  0  0  0
   -9.2800    0.4820  -24.5150 N   0  0  0  0  0  0  0  0  0  0  0  0
   -8.5230    1.6870  -24.8170 C   0  0  0  0  0  0  0  0  0  0  0  0
   -8.1620    2.4920  -23.5920 C   0  0  0  0  0  0  0  0  0  0  0  0
   -8.9540    3.4630  -22.9420 C   0  0  0  0  0  0  0  0  0  0  0  0
   -8.1290    3.9750  -21.9640 C   0  0  0  0  0  0  0  0  0  0  0  0
   -6.9640    3.3030  -22.0480 N   0  0  0  0  0  0  0  0  0  0  0  0
   -6.9650    2.3750  -23.0190 N   0  0  0  0  0  0  0  0  0  0  0  0
   -6.2250    3.3360  -21.3650 H   0  0  0  0  0  0  0  0  0  0  0  0
   -8.2740    4.7190  -21.1930 H   0  0  0  0  0  0  0  0  0  0  0  0
  -10.0080    3.6270  -23.1150 H   0  0  0  0  0  0  0  0  0  0  0  0
   -7.6000    1.3950  -25.3330 H   0  0  0  0  0  0  0  0  0  0  0  0
   -9.1400    2.2830  -25.4980 H   0  0  0  0  0  0  0  0  0  0  0  0
  -10.6360    0.5780  -24.3850 C   0  0  0  0  0  0  0  0  0  0  0  0
  -11.2730    1.5260  -24.8250 O   0  0  0  0  0  0  0  0  0  0  0  0
  -11.2850   -0.5420  -23.6270 C   0  0  0  0  0  0  0  0  0  0  0  0
  -12.6780   -0.5660  -23.5650 C   0  0  0  0  0  0  0  0  0  0  0  0
  -13.3230   -1.4790  -22.7550 C   0  0  0  0  0  0  0  0  0  0  0  0
  -12.5510   -2.3430  -21.9860 C   0  0  0  0  0  0  0  0  0  0  0  0
  -13.1730   -3.1930  -21.1520 F   0  0  0  0  0  0  0  0  0  0  0  0
  -11.1750   -2.3500  -22.0430 C   0  0  0  0  0  0  0  0  0  0  0  0
  -10.5150   -1.4770  -22.9170 C   0  0  0  0  0  0  0  0  0  0  0  0
  -10.6430   -3.0220  -21.3800 H   0  0  0  0  0  0  0  0  0  0  0  0
  -14.4000   -1.5140  -22.6660 H   0  0  0  0  0  0  0  0  0  0  0  0
  -13.2180    0.1770  -24.1440 H   0  0  0  0  0  0  0  0  0  0  0  0
   -7.5020   -0.5130  -24.2240 H   0  0  0  0  0  0  0  0  0  0  0  0
   -8.7510   -1.4440  -25.1240 H   0  0  0  0  0  0  0  0  0  0  0  0
   -6.9060   -3.4150  -21.1970 H   0  0  0  0  0  0  0  0  0  0  0  0
   -6.1450   -2.4760  -22.4930 H   0  0  0  0  0  0  0  0  0  0  0  0
   -8.9900   -3.4780  -22.2850 H   0  0  0  0  0  0  0  0  0  0  0  0
   -8.7500   -3.7180  -24.7880 H   0  0  0  0  0  0  0  0  0  0  0  0
   -7.1330   -3.0060  -24.6740 H   0  0  0  0  0  0  0  0  0  0  0  0
   -7.4710   -4.5530  -23.8980 H   0  0  0  0  0  0  0  0  0  0  0  0
  1  2  1  0  0  0  0
  1 54  1  0  0  0  0
  1 55  1  0  0  0  0
  1 56  1  0  0  0  0
  2  3  1  0  0  0  0
  2 23  1  0  0  0  0
  2 53  1  1  0  0  0
  3  4  1  0  0  0  0
  3 51  1  0  0  0  0
  3 52  1  0  0  0  0
  4  5  1  0  0  0  0
  4 21  1  0  0  0  0
  5  6  2  0  0  0  0
  5 14  1  0  0  0  0
  6  7  1  0  0  0  0
  6 20  1  0  0  0  0
  7  8  2  0  0  0  0
  8  9  1  0  0  0  0
  8 19  1  0  0  0  0
  9 10  2  0  0  0  0
  9 14  1  0  0  0  0
 10 11  1  0  0  0  0
 10 18  1  0  0  0  0
 11 12  2  0  0  0  0
 11 17  1  0  0  0  0
 12 13  1  0  0  0  0
 12 16  1  0  0  0  0
 13 14  2  0  0  0  0
 13 15  1  0  0  0  0
 21 22  2  0  0  0  0
 23 21  1  1  0  0  0
 23 24  1  0  0  0  0
 23 45  1  0  0  0  0
 24 25  1  0  0  0  0
 24 49  1  0  0  0  0
 24 50  1  0  0  0  0
 25 26  1  0  0  0  0
 25 37  1  0  0  0  0
 26 27  1  0  0  0  0
 26 35  1  0  0  0  0
 26 36  1  0  0  0  0
 27 28  1  0  0  0  0
 27 31  2  0  0  0  0
 28 29  2  0  0  0  0
 28 34  1  0  0  0  0
 29 30  1  0  0  0  0
 29 33  1  0  0  0  0
 30 31  1  0  0  0  0
 30 32  1  0  0  0  0
 37 38  2  0  0  0  0
 37 39  1  0  0  0  0
 39 40  2  0  0  0  0
 39 45  1  0  0  0  0
 40 41  1  0  0  0  0
 40 48  1  0  0  0  0
 41 42  2  0  0  0  0
 41 47  1  0  0  0  0
 42 43  1  0  0  0  0
 42 44  1  0  0  0  0
 44 45  2  0  0  0  0
 44 46  1  0  0  0  0
M  END
>  <MODEL>
       1

$$$$
