tmp_first_model_14_16.pdb
 OpenBabel08282500413D

 61 66  0  0  1  0  0  0  0  0999 V2000
   -8.4050   -5.3610  -28.5060 C   0  0  0  0  0  0  0  0  0  0  0  0
   -8.3010   -3.9660  -28.1260 N   0  0  0  0  0  0  0  0  0  0  0  0
   -7.3580   -3.5640  -27.2320 C   0  0  0  0  0  0  0  0  0  0  0  0
   -6.5250   -4.3040  -26.7280 O   0  0  0  0  0  0  0  0  0  0  0  0
   -7.4050   -2.0660  -26.8940 C   0  0  0  0  0  0  0  0  0  0  0  0
   -8.3250   -1.7990  -25.7880 N   0  0  0  0  0  0  0  0  0  0  0  0
   -7.7860   -1.3700  -24.5000 C   0  0  0  0  0  0  0  0  0  0  0  0
   -8.7250   -1.5810  -23.2750 C   0  0  2  0  0  0  0  0  0  0  0  0
   -8.2050   -0.6100  -22.2010 C   0  0  0  0  0  0  0  0  0  0  0  0
   -8.4040    0.5840  -22.1260 O   0  0  0  0  0  0  0  0  0  0  0  0
   -7.4000   -1.3220  -21.3310 N   0  0  0  0  0  0  0  0  0  0  0  0
   -6.6290   -0.7330  -20.3000 C   0  0  0  0  0  0  0  0  0  0  0  0
   -6.9540   -0.9880  -18.9920 C   0  0  0  0  0  0  0  0  0  0  0  0
   -6.2960   -0.4810  -17.9240 N   0  0  0  0  0  0  0  0  0  0  0  0
   -5.2460    0.2650  -18.1630 C   0  0  0  0  0  0  0  0  0  0  0  0
   -4.7600    0.5660  -19.4660 C   0  0  0  0  0  0  0  0  0  0  0  0
   -3.6010    1.3610  -19.6640 C   0  0  0  0  0  0  0  0  0  0  0  0
   -3.1520    1.6240  -20.9280 C   0  0  0  0  0  0  0  0  0  0  0  0
   -3.8300    1.0950  -22.0490 C   0  0  0  0  0  0  0  0  0  0  0  0
   -4.9520    0.3240  -21.8810 C   0  0  0  0  0  0  0  0  0  0  0  0
   -5.4610    0.0510  -20.5800 C   0  0  0  0  0  0  0  0  0  0  0  0
   -5.4630   -0.0840  -22.7490 H   0  0  0  0  0  0  0  0  0  0  0  0
   -3.4650    1.3120  -23.0490 H   0  0  0  0  0  0  0  0  0  0  0  0
   -2.2770    2.2490  -21.0790 H   0  0  0  0  0  0  0  0  0  0  0  0
   -3.0960    1.7650  -18.7900 H   0  0  0  0  0  0  0  0  0  0  0  0
   -4.7210    0.6660  -17.2980 H   0  0  0  0  0  0  0  0  0  0  0  0
   -7.8140   -1.6210  -18.7690 H   0  0  0  0  0  0  0  0  0  0  0  0
   -7.3460   -2.7430  -21.6140 C   0  0  0  0  0  0  0  0  0  0  0  0
   -8.5560   -2.9500  -22.5280 C   0  0  2  0  0  0  0  0  0  0  0  0
   -8.4450   -4.2120  -23.3760 C   0  0  0  0  0  0  0  0  0  0  0  0
   -9.6850   -4.5380  -24.0590 N   0  0  0  0  0  0  0  0  0  0  0  0
   -9.7210   -5.0300  -25.2760 N   0  0  0  0  0  0  0  0  0  0  0  0
  -11.0300   -5.1840  -25.4550 C   0  0  0  0  0  0  0  0  0  0  0  0
  -11.7370   -4.8410  -24.3580 N   0  0  0  0  0  0  0  0  0  0  0  0
  -10.8510   -4.4370  -23.4750 N   0  0  0  0  0  0  0  0  0  0  0  0
  -11.4900   -5.5500  -26.3700 H   0  0  0  0  0  0  0  0  0  0  0  0
   -7.6970   -4.0980  -24.1570 H   0  0  0  0  0  0  0  0  0  0  0  0
   -8.1690   -5.0740  -22.7580 H   0  0  0  0  0  0  0  0  0  0  0  0
   -9.4410   -3.0440  -21.8860 H   0  0  0  0  0  0  0  0  0  0  0  0
   -7.4160   -3.3060  -20.6830 H   0  0  0  0  0  0  0  0  0  0  0  0
   -6.4000   -3.0240  -22.1090 H   0  0  0  0  0  0  0  0  0  0  0  0
  -10.1650   -1.3410  -23.6650 C   0  0  0  0  0  0  0  0  0  0  0  0
  -11.1430   -1.2080  -22.6670 C   0  0  0  0  0  0  0  0  0  0  0  0
  -12.4800   -1.2250  -23.0160 C   0  0  0  0  0  0  0  0  0  0  0  0
  -13.7000   -1.2340  -21.7760 Cl  0  0  0  0  0  0  0  0  0  0  0  0
  -12.8970   -1.3400  -24.3390 C   0  0  0  0  0  0  0  0  0  0  0  0
  -11.9380   -1.4570  -25.3220 C   0  0  0  0  0  0  0  0  0  0  0  0
  -10.5930   -1.4610  -24.9870 C   0  0  0  0  0  0  0  0  0  0  0  0
   -9.6470   -1.7400  -26.0990 C   0  0  0  0  0  0  0  0  0  0  0  0
  -10.0600   -1.9610  -27.2410 O   0  0  0  0  0  0  0  0  0  0  0  0
  -12.1900   -1.5980  -26.3660 H   0  0  0  0  0  0  0  0  0  0  0  0
  -13.9580   -1.3850  -24.5510 H   0  0  0  0  0  0  0  0  0  0  0  0
  -10.8640   -1.1620  -21.6170 H   0  0  0  0  0  0  0  0  0  0  0  0
   -6.8410   -1.9060  -24.3240 H   0  0  0  0  0  0  0  0  0  0  0  0
   -7.5570   -0.2960  -24.5330 H   0  0  0  0  0  0  0  0  0  0  0  0
   -6.3980   -1.7370  -26.6190 H   0  0  0  0  0  0  0  0  0  0  0  0
   -7.7380   -1.4970  -27.7690 H   0  0  0  0  0  0  0  0  0  0  0  0
   -9.1190   -3.3710  -28.2150 H   0  0  0  0  0  0  0  0  0  0  0  0
   -7.4230   -5.7310  -28.8010 H   0  0  0  0  0  0  0  0  0  0  0  0
   -9.0730   -5.4410  -29.3670 H   0  0  0  0  0  0  0  0  0  0  0  0
   -8.7800   -5.9810  -27.6840 H   0  0  0  0  0  0  0  0  0  0  0  0
  1  2  1  0  0  0  0
  1 59  1  0  0  0  0
  1 60  1  0  0  0  0
  1 61  1  0  0  0  0
  2  3  1  0  0  0  0
  2 58  1  0  0  0  0
  3  4  2  0  0  0  0
  3  5  1  0  0  0  0
  5  6  1  0  0  0  0
  5 56  1  0  0  0  0
  5 57  1  0  0  0  0
  6  7  1  0  0  0  0
  6 49  1  0  0  0  0
  7  8  1  0  0  0  0
  7 54  1  0  0  0  0
  7 55  1  0  0  0  0
  8  9  1  1  0  0  0
  8 29  1  0  0  0  0
  8 42  1  0  0  0  0
  9 10  2  0  0  0  0
  9 11  1  0  0  0  0
 11 12  1  0  0  0  0
 11 28  1  0  0  0  0
 12 13  2  0  0  0  0
 12 21  1  0  0  0  0
 13 14  1  0  0  0  0
 13 27  1  0  0  0  0
 14 15  2  0  0  0  0
 15 16  1  0  0  0  0
 15 26  1  0  0  0  0
 16 17  2  0  0  0  0
 16 21  1  0  0  0  0
 17 18  1  0  0  0  0
 17 25  1  0  0  0  0
 18 19  2  0  0  0  0
 18 24  1  0  0  0  0
 19 20  1  0  0  0  0
 19 23  1  0  0  0  0
 20 21  2  0  0  0  0
 20 22  1  0  0  0  0
 28 29  1  0  0  0  0
 28 40  1  0  0  0  0
 28 41  1  0  0  0  0
 29 30  1  0  0  0  0
 29 39  1  1  0  0  0
 30 31  1  0  0  0  0
 30 37  1  0  0  0  0
 30 38  1  0  0  0  0
 31 32  1  0  0  0  0
 31 35  1  0  0  0  0
 32 33  2  0  0  0  0
 33 34  1  0  0  0  0
 33 36  1  0  0  0  0
 34 35  2  0  0  0  0
 42 43  2  0  0  0  0
 42 48  1  0  0  0  0
 43 44  1  0  0  0  0
 43 53  1  0  0  0  0
 44 45  1  0  0  0  0
 44 46  2  0  0  0  0
 46 47  1  0  0  0  0
 46 52  1  0  0  0  0
 47 48  2  0  0  0  0
 47 51  1  0  0  0  0
 48 49  1  0  0  0  0
 49 50  2  0  0  0  0
M  END
>  <MODEL>
       1

$$$$
