tmp_first_model_3_57.pdb
 OpenBabel08272518143D

 59 63  0  0  1  0  0  0  0  0999 V2000
   -7.7120   -0.3230  -29.7930 C   0  0  0  0  0  0  0  0  0  0  0  0
   -7.9260   -1.4150  -28.8630 N   0  0  0  0  0  0  0  0  0  0  0  0
   -7.2260   -1.3880  -27.6940 C   0  0  0  0  0  0  0  0  0  0  0  0
   -6.3900   -0.5320  -27.4400 O   0  0  0  0  0  0  0  0  0  0  0  0
   -7.5540   -2.5210  -26.7220 C   0  0  0  0  0  0  0  0  0  0  0  0
   -8.4350   -2.0630  -25.6580 N   0  0  0  0  0  0  0  0  0  0  0  0
   -7.8760   -1.3730  -24.5010 C   0  0  0  0  0  0  0  0  0  0  0  0
   -8.7250   -1.6070  -23.2150 C   0  0  2  0  0  0  0  0  0  0  0  0
   -8.1440   -0.6640  -22.1430 C   0  0  0  0  0  0  0  0  0  0  0  0
   -8.2600    0.5460  -22.1160 O   0  0  0  0  0  0  0  0  0  0  0  0
   -7.4280   -1.4030  -21.2240 N   0  0  0  0  0  0  0  0  0  0  0  0
   -6.6190   -0.8190  -20.2110 C   0  0  0  0  0  0  0  0  0  0  0  0
   -6.9160   -1.0670  -18.8950 C   0  0  0  0  0  0  0  0  0  0  0  0
   -6.2390   -0.5610  -17.8360 N   0  0  0  0  0  0  0  0  0  0  0  0
   -5.2070    0.2030  -18.0990 C   0  0  0  0  0  0  0  0  0  0  0  0
   -4.7620    0.5130  -19.4140 C   0  0  0  0  0  0  0  0  0  0  0  0
   -3.6250    1.3350  -19.6290 C   0  0  0  0  0  0  0  0  0  0  0  0
   -3.2000    1.6070  -20.8990 C   0  0  0  0  0  0  0  0  0  0  0  0
   -3.8870    1.0670  -22.0080 C   0  0  0  0  0  0  0  0  0  0  0  0
   -4.9930    0.2760  -21.8250 C   0  0  0  0  0  0  0  0  0  0  0  0
   -5.4720   -0.0150  -20.5160 C   0  0  0  0  0  0  0  0  0  0  0  0
   -5.5190   -0.1180  -22.6880 H   0  0  0  0  0  0  0  0  0  0  0  0
   -3.5370    1.2860  -23.0110 H   0  0  0  0  0  0  0  0  0  0  0  0
   -2.3320    2.2390  -21.0620 H   0  0  0  0  0  0  0  0  0  0  0  0
   -3.1140    1.7480  -18.7630 H   0  0  0  0  0  0  0  0  0  0  0  0
   -4.6540    0.6110  -17.2520 H   0  0  0  0  0  0  0  0  0  0  0  0
   -7.7680   -1.6990  -18.6520 H   0  0  0  0  0  0  0  0  0  0  0  0
   -7.3590   -2.8150  -21.5570 C   0  0  0  0  0  0  0  0  0  0  0  0
   -8.5520   -3.0350  -22.5200 C   0  0  0  0  0  0  0  0  0  0  0  0
   -8.2710   -4.1900  -23.4820 C   0  0  0  0  0  0  0  0  0  0  0  0
   -7.3580   -4.0220  -24.0650 H   0  0  0  0  0  0  0  0  0  0  0  0
   -9.1080   -4.3140  -24.1760 H   0  0  0  0  0  0  0  0  0  0  0  0
   -8.1450   -5.1210  -22.9170 H   0  0  0  0  0  0  0  0  0  0  0  0
   -9.7970   -3.3990  -21.6890 C   0  0  0  0  0  0  0  0  0  0  0  0
  -10.0230   -2.6310  -20.9420 H   0  0  0  0  0  0  0  0  0  0  0  0
  -10.6760   -3.4990  -22.3320 H   0  0  0  0  0  0  0  0  0  0  0  0
   -9.6430   -4.3530  -21.1720 H   0  0  0  0  0  0  0  0  0  0  0  0
   -6.3970   -3.0710  -22.0330 H   0  0  0  0  0  0  0  0  0  0  0  0
   -7.4340   -3.4210  -20.6480 H   0  0  0  0  0  0  0  0  0  0  0  0
  -10.1450   -1.2210  -23.6030 C   0  0  0  0  0  0  0  0  0  0  0  0
  -10.9940   -0.5710  -22.7040 C   0  0  0  0  0  0  0  0  0  0  0  0
  -12.2640   -0.1740  -23.0770 C   0  0  0  0  0  0  0  0  0  0  0  0
  -13.1460    0.9160  -22.0500 Cl  0  0  0  0  0  0  0  0  0  0  0  0
  -12.8100   -0.5570  -24.2970 C   0  0  0  0  0  0  0  0  0  0  0  0
  -11.9670   -1.1590  -25.2060 C   0  0  0  0  0  0  0  0  0  0  0  0
  -10.6430   -1.4460  -24.8890 C   0  0  0  0  0  0  0  0  0  0  0  0
   -9.7600   -1.9580  -25.9720 C   0  0  0  0  0  0  0  0  0  0  0  0
  -10.1910   -2.2610  -27.0820 O   0  0  0  0  0  0  0  0  0  0  0  0
  -12.3170   -1.4020  -26.1980 H   0  0  0  0  0  0  0  0  0  0  0  0
  -13.8540   -0.3810  -24.5320 H   0  0  0  0  0  0  0  0  0  0  0  0
  -10.6360   -0.3620  -21.7100 H   0  0  0  0  0  0  0  0  0  0  0  0
   -6.8470   -1.7210  -24.3590 H   0  0  0  0  0  0  0  0  0  0  0  0
   -7.8290   -0.2810  -24.6660 H   0  0  0  0  0  0  0  0  0  0  0  0
   -8.0440   -3.3500  -27.2420 H   0  0  0  0  0  0  0  0  0  0  0  0
   -6.6280   -2.8980  -26.2770 H   0  0  0  0  0  0  0  0  0  0  0  0
   -8.8000   -1.9310  -28.8880 H   0  0  0  0  0  0  0  0  0  0  0  0
   -8.3910   -0.4190  -30.6410 H   0  0  0  0  0  0  0  0  0  0  0  0
   -6.6800   -0.3600  -30.1570 H   0  0  0  0  0  0  0  0  0  0  0  0
   -7.8830    0.6480  -29.3100 H   0  0  0  0  0  0  0  0  0  0  0  0
  1  2  1  0  0  0  0
  1 57  1  0  0  0  0
  1 58  1  0  0  0  0
  1 59  1  0  0  0  0
  2  3  1  0  0  0  0
  2 56  1  0  0  0  0
  3  4  2  0  0  0  0
  3  5  1  0  0  0  0
  5  6  1  0  0  0  0
  5 54  1  0  0  0  0
  5 55  1  0  0  0  0
  6  7  1  0  0  0  0
  6 47  1  0  0  0  0
  7  8  1  0  0  0  0
  7 52  1  0  0  0  0
  7 53  1  0  0  0  0
  8  9  1  1  0  0  0
  8 29  1  0  0  0  0
  8 40  1  0  0  0  0
  9 10  2  0  0  0  0
  9 11  1  0  0  0  0
 11 12  1  0  0  0  0
 11 28  1  0  0  0  0
 12 13  2  0  0  0  0
 12 21  1  0  0  0  0
 13 14  1  0  0  0  0
 13 27  1  0  0  0  0
 14 15  2  0  0  0  0
 15 16  1  0  0  0  0
 15 26  1  0  0  0  0
 16 17  2  0  0  0  0
 16 21  1  0  0  0  0
 17 18  1  0  0  0  0
 17 25  1  0  0  0  0
 18 19  2  0  0  0  0
 18 24  1  0  0  0  0
 19 20  1  0  0  0  0
 19 23  1  0  0  0  0
 20 21  2  0  0  0  0
 20 22  1  0  0  0  0
 28 29  1  0  0  0  0
 28 38  1  0  0  0  0
 28 39  1  0  0  0  0
 29 30  1  0  0  0  0
 29 34  1  0  0  0  0
 30 31  1  0  0  0  0
 30 32  1  0  0  0  0
 30 33  1  0  0  0  0
 34 35  1  0  0  0  0
 34 36  1  0  0  0  0
 34 37  1  0  0  0  0
 40 41  2  0  0  0  0
 40 46  1  0  0  0  0
 41 42  1  0  0  0  0
 41 51  1  0  0  0  0
 42 43  1  0  0  0  0
 42 44  2  0  0  0  0
 44 45  1  0  0  0  0
 44 50  1  0  0  0  0
 45 46  2  0  0  0  0
 45 49  1  0  0  0  0
 46 47  1  0  0  0  0
 47 48  2  0  0  0  0
M  END
>  <MODEL>
       1

$$$$
