tmp_first_model_16_37.pdb
 OpenBabel08282501503D

 56 60  0  0  1  0  0  0  0  0999 V2000
  -14.6100   -1.3260  -23.9960 C   0  0  0  0  0  0  0  0  0  0  0  0
  -13.7580   -2.4170  -23.5720 N   0  0  0  0  0  0  0  0  0  0  0  0
  -13.4600   -2.5590  -22.2550 C   0  0  0  0  0  0  0  0  0  0  0  0
  -13.8800   -1.8040  -21.3870 O   0  0  0  0  0  0  0  0  0  0  0  0
  -12.5900   -3.7660  -21.9010 C   0  0  0  0  0  0  0  0  0  0  0  0
  -11.2470   -3.7650  -22.4640 N   0  0  0  0  0  0  0  0  0  0  0  0
  -10.1380   -3.2540  -21.6640 C   0  0  0  0  0  0  0  0  0  0  0  0
   -8.9020   -2.8190  -22.4900 C   0  0  2  0  0  0  0  0  0  0  0  0
   -7.7460   -2.7010  -21.4920 C   0  0  0  0  0  0  0  0  0  0  0  0
   -7.1780   -3.6200  -20.9290 O   0  0  0  0  0  0  0  0  0  0  0  0
   -7.4370   -1.3730  -21.3030 N   0  0  0  0  0  0  0  0  0  0  0  0
   -6.5770   -0.9950  -20.2490 C   0  0  0  0  0  0  0  0  0  0  0  0
   -6.8490   -1.3800  -18.9610 C   0  0  0  0  0  0  0  0  0  0  0  0
   -6.1020   -1.0150  -17.8920 N   0  0  0  0  0  0  0  0  0  0  0  0
   -5.0620   -0.2450  -18.1050 C   0  0  0  0  0  0  0  0  0  0  0  0
   -4.6800    0.2360  -19.3910 C   0  0  0  0  0  0  0  0  0  0  0  0
   -3.5880    1.1230  -19.5780 C   0  0  0  0  0  0  0  0  0  0  0  0
   -3.2450    1.5440  -20.8350 C   0  0  0  0  0  0  0  0  0  0  0  0
   -3.9580    1.0790  -21.9630 C   0  0  0  0  0  0  0  0  0  0  0  0
   -5.0290    0.2330  -21.8060 C   0  0  0  0  0  0  0  0  0  0  0  0
   -5.4380   -0.1740  -20.5090 C   0  0  0  0  0  0  0  0  0  0  0  0
   -5.5740   -0.1360  -22.6680 H   0  0  0  0  0  0  0  0  0  0  0  0
   -3.6590    1.4000  -22.9570 H   0  0  0  0  0  0  0  0  0  0  0  0
   -2.4190    2.2350  -20.9790 H   0  0  0  0  0  0  0  0  0  0  0  0
   -3.0480    1.4670  -18.7000 H   0  0  0  0  0  0  0  0  0  0  0  0
   -4.4600    0.0270  -17.2360 H   0  0  0  0  0  0  0  0  0  0  0  0
   -7.7050   -2.0170  -18.7430 H   0  0  0  0  0  0  0  0  0  0  0  0
   -8.4010   -0.4780  -21.9280 C   0  0  0  0  0  0  0  0  0  0  0  0
   -9.0180   -1.3530  -23.0340 C   0  0  2  0  0  0  0  0  0  0  0  0
  -10.4130   -0.9100  -23.4640 C   0  0  0  0  0  0  0  0  0  0  0  0
  -10.8110   -1.5860  -24.2280 H   0  0  0  0  0  0  0  0  0  0  0  0
  -10.4010    0.1040  -23.8740 H   0  0  0  0  0  0  0  0  0  0  0  0
  -11.1150   -0.9070  -22.6220 H   0  0  0  0  0  0  0  0  0  0  0  0
   -8.3450   -1.3110  -23.9000 H   0  0  0  0  0  0  0  0  0  0  0  0
   -9.1570   -0.1490  -21.1970 H   0  0  0  0  0  0  0  0  0  0  0  0
   -7.9100    0.4200  -22.3180 H   0  0  0  0  0  0  0  0  0  0  0  0
   -8.6160   -3.8740  -23.5400 C   0  0  0  0  0  0  0  0  0  0  0  0
   -7.3190   -4.1180  -24.0080 C   0  0  0  0  0  0  0  0  0  0  0  0
   -7.0750   -5.1260  -24.9280 C   0  0  0  0  0  0  0  0  0  0  0  0
   -8.1200   -5.9270  -25.3910 C   0  0  0  0  0  0  0  0  0  0  0  0
   -9.4110   -5.6740  -24.9620 C   0  0  0  0  0  0  0  0  0  0  0  0
   -9.6590   -4.6380  -24.0670 C   0  0  0  0  0  0  0  0  0  0  0  0
  -11.0720   -4.3700  -23.6720 C   0  0  0  0  0  0  0  0  0  0  0  0
  -12.0290   -4.6600  -24.3930 O   0  0  0  0  0  0  0  0  0  0  0  0
  -10.2610   -6.2680  -25.2810 H   0  0  0  0  0  0  0  0  0  0  0  0
   -7.9230   -6.7570  -26.0630 H   0  0  0  0  0  0  0  0  0  0  0  0
   -6.0640   -5.2970  -25.2870 H   0  0  0  0  0  0  0  0  0  0  0  0
   -6.4910   -3.5450  -23.6010 H   0  0  0  0  0  0  0  0  0  0  0  0
  -10.4980   -2.3960  -21.0860 H   0  0  0  0  0  0  0  0  0  0  0  0
   -9.7950   -4.0060  -20.9460 H   0  0  0  0  0  0  0  0  0  0  0  0
  -12.5380   -3.8430  -20.8110 H   0  0  0  0  0  0  0  0  0  0  0  0
  -13.0990   -4.6480  -22.3020 H   0  0  0  0  0  0  0  0  0  0  0  0
  -13.3370   -3.0440  -24.2510 H   0  0  0  0  0  0  0  0  0  0  0  0
  -14.0510   -0.3830  -24.0770 H   0  0  0  0  0  0  0  0  0  0  0  0
  -15.3930   -1.1940  -23.2440 H   0  0  0  0  0  0  0  0  0  0  0  0
  -15.0430   -1.5870  -24.9650 H   0  0  0  0  0  0  0  0  0  0  0  0
  1  2  1  0  0  0  0
  1 54  1  0  0  0  0
  1 55  1  0  0  0  0
  1 56  1  0  0  0  0
  2  3  1  0  0  0  0
  2 53  1  0  0  0  0
  3  4  2  0  0  0  0
  3  5  1  0  0  0  0
  5  6  1  0  0  0  0
  5 51  1  0  0  0  0
  5 52  1  0  0  0  0
  6  7  1  0  0  0  0
  6 43  1  0  0  0  0
  7  8  1  0  0  0  0
  7 49  1  0  0  0  0
  7 50  1  0  0  0  0
  8  9  1  1  0  0  0
  8 29  1  0  0  0  0
  8 37  1  0  0  0  0
  9 10  2  0  0  0  0
  9 11  1  0  0  0  0
 11 12  1  0  0  0  0
 11 28  1  0  0  0  0
 12 13  2  0  0  0  0
 12 21  1  0  0  0  0
 13 14  1  0  0  0  0
 13 27  1  0  0  0  0
 14 15  2  0  0  0  0
 15 16  1  0  0  0  0
 15 26  1  0  0  0  0
 16 17  2  0  0  0  0
 16 21  1  0  0  0  0
 17 18  1  0  0  0  0
 17 25  1  0  0  0  0
 18 19  2  0  0  0  0
 18 24  1  0  0  0  0
 19 20  1  0  0  0  0
 19 23  1  0  0  0  0
 20 21  2  0  0  0  0
 20 22  1  0  0  0  0
 28 29  1  0  0  0  0
 28 35  1  0  0  0  0
 28 36  1  0  0  0  0
 29 30  1  0  0  0  0
 29 34  1  6  0  0  0
 30 31  1  0  0  0  0
 30 32  1  0  0  0  0
 30 33  1  0  0  0  0
 37 38  2  0  0  0  0
 37 42  1  0  0  0  0
 38 39  1  0  0  0  0
 38 48  1  0  0  0  0
 39 40  2  0  0  0  0
 39 47  1  0  0  0  0
 40 41  1  0  0  0  0
 40 46  1  0  0  0  0
 41 42  2  0  0  0  0
 41 45  1  0  0  0  0
 42 43  1  0  0  0  0
 43 44  2  0  0  0  0
M  END
>  <MODEL>
       1

$$$$
