tmp_first_model_5_23.pdb
 OpenBabel08272519233D

 68 73  0  0  1  0  0  0  0  0999 V2000
   -7.3370    3.2570  -21.7300 C   0  0  0  0  0  0  0  0  0  0  0  0
   -8.2850    2.8310  -22.7470 N   0  0  0  0  0  0  0  0  0  0  0  0
   -7.7900    2.1730  -23.8280 C   0  0  0  0  0  0  0  0  0  0  0  0
   -6.5860    2.0370  -24.0010 O   0  0  0  0  0  0  0  0  0  0  0  0
   -8.7980    1.5900  -24.8220 C   0  0  0  0  0  0  0  0  0  0  0  0
   -9.4430    0.4070  -24.2820 N   0  0  0  0  0  0  0  0  0  0  0  0
   -8.6690   -0.8240  -24.1660 C   0  0  0  0  0  0  0  0  0  0  0  0
   -9.0470   -1.6010  -22.8750 C   0  0  2  0  0  0  0  0  0  0  0  0
   -8.5200   -0.8410  -21.6340 C   0  0  0  0  0  0  0  0  0  0  0  0
   -8.9780    0.1620  -21.1220 O   0  0  0  0  0  0  0  0  0  0  0  0
   -7.3880   -1.4840  -21.1910 N   0  0  0  0  0  0  0  0  0  0  0  0
   -6.5490   -0.9490  -20.1970 C   0  0  0  0  0  0  0  0  0  0  0  0
   -6.8460   -1.1220  -18.8710 C   0  0  0  0  0  0  0  0  0  0  0  0
   -5.9850   -0.8410  -17.8640 N   0  0  0  0  0  0  0  0  0  0  0  0
   -4.8170   -0.3420  -18.1990 C   0  0  0  0  0  0  0  0  0  0  0  0
   -4.4360   -0.0200  -19.5360 C   0  0  0  0  0  0  0  0  0  0  0  0
   -3.2590    0.7260  -19.8260 C   0  0  0  0  0  0  0  0  0  0  0  0
   -3.1560    1.4130  -21.0020 C   0  0  0  0  0  0  0  0  0  0  0  0
   -4.0860    1.1770  -22.0460 C   0  0  0  0  0  0  0  0  0  0  0  0
   -5.1170    0.2950  -21.8530 C   0  0  0  0  0  0  0  0  0  0  0  0
   -5.3700   -0.2410  -20.5620 C   0  0  0  0  0  0  0  0  0  0  0  0
   -5.7600    0.0220  -22.6810 H   0  0  0  0  0  0  0  0  0  0  0  0
   -3.9600    1.6560  -23.0100 H   0  0  0  0  0  0  0  0  0  0  0  0
   -2.2930    2.0430  -21.1860 H   0  0  0  0  0  0  0  0  0  0  0  0
   -2.5410    0.8550  -19.0230 H   0  0  0  0  0  0  0  0  0  0  0  0
   -4.1290   -0.0920  -17.3900 H   0  0  0  0  0  0  0  0  0  0  0  0
   -7.8140   -1.5260  -18.5950 H   0  0  0  0  0  0  0  0  0  0  0  0
   -6.9910   -2.6290  -21.9760 C   0  0  0  0  0  0  0  0  0  0  0  0
   -8.2750   -2.9530  -22.7460 C   0  0  2  0  0  0  0  0  0  0  0  0
   -8.0070   -3.7320  -24.0440 C   0  0  0  0  0  0  0  0  0  0  0  0
   -7.5120   -5.0810  -23.8430 N   0  0  0  0  0  0  0  0  0  0  0  0
   -6.2070   -5.3790  -23.4570 C   0  0  0  0  0  0  0  0  0  0  0  0
   -5.1000   -4.6300  -23.8860 C   0  0  0  0  0  0  0  0  0  0  0  0
   -3.8120   -4.9880  -23.4990 C   0  0  0  0  0  0  0  0  0  0  0  0
   -3.5860   -6.0860  -22.6780 C   0  0  0  0  0  0  0  0  0  0  0  0
   -4.6780   -6.8350  -22.2510 C   0  0  0  0  0  0  0  0  0  0  0  0
   -5.9680   -6.4930  -22.6360 C   0  0  0  0  0  0  0  0  0  0  0  0
   -6.8100   -7.0960  -22.3020 H   0  0  0  0  0  0  0  0  0  0  0  0
   -4.5240   -7.7050  -21.6180 H   0  0  0  0  0  0  0  0  0  0  0  0
   -2.5760   -6.3610  -22.3850 H   0  0  0  0  0  0  0  0  0  0  0  0
   -2.9700   -4.3980  -23.8490 H   0  0  0  0  0  0  0  0  0  0  0  0
   -5.2350   -3.7640  -24.5290 H   0  0  0  0  0  0  0  0  0  0  0  0
   -8.1990   -5.7240  -23.4780 H   0  0  0  0  0  0  0  0  0  0  0  0
   -8.9360   -3.7970  -24.6230 H   0  0  0  0  0  0  0  0  0  0  0  0
   -7.2790   -3.1880  -24.6560 H   0  0  0  0  0  0  0  0  0  0  0  0
   -8.8690   -3.5920  -22.0840 H   0  0  0  0  0  0  0  0  0  0  0  0
   -6.1450   -2.4010  -22.6470 H   0  0  0  0  0  0  0  0  0  0  0  0
   -6.6640   -3.4560  -21.3350 H   0  0  0  0  0  0  0  0  0  0  0  0
  -10.5560   -1.7170  -22.8340 C   0  0  0  0  0  0  0  0  0  0  0  0
  -11.1790   -2.6550  -22.0080 C   0  0  0  0  0  0  0  0  0  0  0  0
  -12.5430   -2.8540  -22.0970 C   0  0  0  0  0  0  0  0  0  0  0  0
  -13.2980   -3.9660  -21.0040 Cl  0  0  0  0  0  0  0  0  0  0  0  0
  -13.3270   -2.1620  -23.0190 C   0  0  0  0  0  0  0  0  0  0  0  0
  -12.7360   -1.1370  -23.7340 C   0  0  0  0  0  0  0  0  0  0  0  0
  -11.3740   -0.8690  -23.5930 C   0  0  0  0  0  0  0  0  0  0  0  0
  -10.8110    0.3700  -24.2240 C   0  0  0  0  0  0  0  0  0  0  0  0
  -11.5200    1.2710  -24.6470 O   0  0  0  0  0  0  0  0  0  0  0  0
  -13.3240   -0.4920  -24.3780 H   0  0  0  0  0  0  0  0  0  0  0  0
  -14.3860   -2.3870  -23.1230 H   0  0  0  0  0  0  0  0  0  0  0  0
  -10.6130   -3.2570  -21.3090 H   0  0  0  0  0  0  0  0  0  0  0  0
   -7.6050   -0.5670  -24.1650 H   0  0  0  0  0  0  0  0  0  0  0  0
   -8.8520   -1.4590  -25.0450 H   0  0  0  0  0  0  0  0  0  0  0  0
   -8.2490    1.3440  -25.7390 H   0  0  0  0  0  0  0  0  0  0  0  0
   -9.5850    2.3060  -25.0810 H   0  0  0  0  0  0  0  0  0  0  0  0
   -9.2430    2.6790  -22.4630 H   0  0  0  0  0  0  0  0  0  0  0  0
   -6.7560    2.4000  -21.3600 H   0  0  0  0  0  0  0  0  0  0  0  0
   -7.8750    3.7200  -20.9050 H   0  0  0  0  0  0  0  0  0  0  0  0
   -6.6520    3.9980  -22.1520 H   0  0  0  0  0  0  0  0  0  0  0  0
  1  2  1  0  0  0  0
  1 66  1  0  0  0  0
  1 67  1  0  0  0  0
  1 68  1  0  0  0  0
  2  3  1  0  0  0  0
  2 65  1  0  0  0  0
  3  4  2  0  0  0  0
  3  5  1  0  0  0  0
  5  6  1  0  0  0  0
  5 63  1  0  0  0  0
  5 64  1  0  0  0  0
  6  7  1  0  0  0  0
  6 56  1  0  0  0  0
  7  8  1  0  0  0  0
  7 61  1  0  0  0  0
  7 62  1  0  0  0  0
  8  9  1  1  0  0  0
  8 29  1  0  0  0  0
  8 49  1  0  0  0  0
  9 10  2  0  0  0  0
  9 11  1  0  0  0  0
 11 12  1  0  0  0  0
 11 28  1  0  0  0  0
 12 13  2  0  0  0  0
 12 21  1  0  0  0  0
 13 14  1  0  0  0  0
 13 27  1  0  0  0  0
 14 15  2  0  0  0  0
 15 16  1  0  0  0  0
 15 26  1  0  0  0  0
 16 17  2  0  0  0  0
 16 21  1  0  0  0  0
 17 18  1  0  0  0  0
 17 25  1  0  0  0  0
 18 19  2  0  0  0  0
 18 24  1  0  0  0  0
 19 20  1  0  0  0  0
 19 23  1  0  0  0  0
 20 21  2  0  0  0  0
 20 22  1  0  0  0  0
 28 29  1  0  0  0  0
 28 47  1  0  0  0  0
 28 48  1  0  0  0  0
 29 30  1  0  0  0  0
 29 46  1  1  0  0  0
 30 31  1  0  0  0  0
 30 44  1  0  0  0  0
 30 45  1  0  0  0  0
 31 32  1  0  0  0  0
 31 43  1  0  0  0  0
 32 33  2  0  0  0  0
 32 37  1  0  0  0  0
 33 34  1  0  0  0  0
 33 42  1  0  0  0  0
 34 35  2  0  0  0  0
 34 41  1  0  0  0  0
 35 36  1  0  0  0  0
 35 40  1  0  0  0  0
 36 37  2  0  0  0  0
 36 39  1  0  0  0  0
 37 38  1  0  0  0  0
 49 50  2  0  0  0  0
 49 55  1  0  0  0  0
 50 51  1  0  0  0  0
 50 60  1  0  0  0  0
 51 52  1  0  0  0  0
 51 53  2  0  0  0  0
 53 54  1  0  0  0  0
 53 59  1  0  0  0  0
 54 55  2  0  0  0  0
 54 58  1  0  0  0  0
 55 56  1  0  0  0  0
 56 57  2  0  0  0  0
M  END
>  <MODEL>
       1

$$$$
