tmp_first_model_13_7.pdb
 OpenBabel08282500103D

 44 47  0  0  0  0  0  0  0  0999 V2000
  -13.9400   -2.1660  -24.3900 C   0  0  0  0  0  0  0  0  0  0  0  0
  -12.9070   -3.1230  -24.9740 C   0  0  0  0  0  0  0  0  0  0  0  0
  -12.0910   -4.0830  -23.7160 S   0  0  0  0  0  0  0  0  0  0  0  0
  -13.1330   -4.5670  -22.8320 O   0  0  0  0  0  0  0  0  0  0  0  0
  -11.1990   -5.0130  -24.3950 O   0  0  0  0  0  0  0  0  0  0  0  0
  -11.1720   -2.9570  -22.8590 N   0  0  0  0  0  0  0  0  0  0  0  0
  -10.1670   -2.0780  -23.5060 C   0  0  0  0  0  0  0  0  0  0  0  0
   -9.1130   -2.4850  -22.4460 C   0  0  0  0  0  0  0  0  0  0  0  0
  -10.1590   -3.5090  -21.9290 C   0  0  0  0  0  0  0  0  0  0  0  0
  -10.3970   -3.4440  -20.8820 H   0  0  0  0  0  0  0  0  0  0  0  0
   -9.8930   -4.5470  -22.1410 H   0  0  0  0  0  0  0  0  0  0  0  0
   -8.6890   -1.3770  -21.4880 C   0  0  0  0  0  0  0  0  0  0  0  0
   -9.3500   -0.4560  -21.0700 O   0  0  0  0  0  0  0  0  0  0  0  0
   -7.3300   -1.5810  -21.2290 N   0  0  0  0  0  0  0  0  0  0  0  0
   -6.5890   -0.9040  -20.2180 C   0  0  0  0  0  0  0  0  0  0  0  0
   -6.9370   -1.0850  -18.8990 C   0  0  0  0  0  0  0  0  0  0  0  0
   -6.2540   -0.5580  -17.8560 N   0  0  0  0  0  0  0  0  0  0  0  0
   -5.2120    0.1840  -18.1270 C   0  0  0  0  0  0  0  0  0  0  0  0
   -4.7730    0.4870  -19.4440 C   0  0  0  0  0  0  0  0  0  0  0  0
   -3.6510    1.3280  -19.6540 C   0  0  0  0  0  0  0  0  0  0  0  0
   -3.2520    1.6460  -20.9220 C   0  0  0  0  0  0  0  0  0  0  0  0
   -3.9650    1.1340  -22.0300 C   0  0  0  0  0  0  0  0  0  0  0  0
   -5.0540    0.3130  -21.8540 C   0  0  0  0  0  0  0  0  0  0  0  0
   -5.4790   -0.0530  -20.5390 C   0  0  0  0  0  0  0  0  0  0  0  0
   -5.5880   -0.0540  -22.7270 H   0  0  0  0  0  0  0  0  0  0  0  0
   -3.6470    1.3960  -23.0360 H   0  0  0  0  0  0  0  0  0  0  0  0
   -2.3940    2.2930  -21.0840 H   0  0  0  0  0  0  0  0  0  0  0  0
   -3.1360    1.7140  -18.7810 H   0  0  0  0  0  0  0  0  0  0  0  0
   -4.6510    0.6000  -17.2900 H   0  0  0  0  0  0  0  0  0  0  0  0
   -7.8010   -1.6940  -18.6350 H   0  0  0  0  0  0  0  0  0  0  0  0
   -6.7870   -2.5610  -22.0810 C   0  0  0  0  0  0  0  0  0  0  0  0
   -5.6300   -2.9180  -22.1370 O   0  0  0  0  0  0  0  0  0  0  0  0
   -7.8330   -3.0260  -22.8300 N   0  0  0  0  0  0  0  0  0  0  0  0
   -7.6950   -4.1490  -23.7270 C   0  0  0  0  0  0  0  0  0  0  0  0
   -7.2620   -5.0070  -23.2040 H   0  0  0  0  0  0  0  0  0  0  0  0
   -8.6840   -4.4180  -24.1020 H   0  0  0  0  0  0  0  0  0  0  0  0
   -7.0480   -3.8850  -24.5640 H   0  0  0  0  0  0  0  0  0  0  0  0
  -10.4810   -1.0420  -23.4050 H   0  0  0  0  0  0  0  0  0  0  0  0
   -9.9220   -2.2870  -24.5500 H   0  0  0  0  0  0  0  0  0  0  0  0
  -13.3820   -3.9130  -25.5640 H   0  0  0  0  0  0  0  0  0  0  0  0
  -12.1460   -2.6520  -25.6060 H   0  0  0  0  0  0  0  0  0  0  0  0
  -13.4680   -1.4000  -23.7630 H   0  0  0  0  0  0  0  0  0  0  0  0
  -14.6300   -2.7360  -23.7640 H   0  0  0  0  0  0  0  0  0  0  0  0
  -14.5090   -1.6710  -25.1870 H   0  0  0  0  0  0  0  0  0  0  0  0
  1  2  1  0  0  0  0
  1 42  1  0  0  0  0
  1 43  1  0  0  0  0
  1 44  1  0  0  0  0
  2  3  1  0  0  0  0
  2 40  1  0  0  0  0
  2 41  1  0  0  0  0
  3  4  2  0  0  0  0
  3  5  2  0  0  0  0
  3  6  1  0  0  0  0
  6  7  1  0  0  0  0
  6  9  1  0  0  0  0
  7  8  1  0  0  0  0
  7 38  1  0  0  0  0
  7 39  1  0  0  0  0
  8  9  1  0  0  0  0
  8 12  1  0  0  0  0
  8 33  1  0  0  0  0
  9 10  1  0  0  0  0
  9 11  1  0  0  0  0
 12 13  2  0  0  0  0
 12 14  1  0  0  0  0
 14 15  1  0  0  0  0
 14 31  1  0  0  0  0
 15 16  2  0  0  0  0
 15 24  1  0  0  0  0
 16 17  1  0  0  0  0
 16 30  1  0  0  0  0
 17 18  2  0  0  0  0
 18 19  1  0  0  0  0
 18 29  1  0  0  0  0
 19 20  2  0  0  0  0
 19 24  1  0  0  0  0
 20 21  1  0  0  0  0
 20 28  1  0  0  0  0
 21 22  2  0  0  0  0
 21 27  1  0  0  0  0
 22 23  1  0  0  0  0
 22 26  1  0  0  0  0
 23 24  2  0  0  0  0
 23 25  1  0  0  0  0
 31 32  2  0  0  0  0
 31 33  1  0  0  0  0
 33 34  1  0  0  0  0
 34 35  1  0  0  0  0
 34 36  1  0  0  0  0
 34 37  1  0  0  0  0
M  END
>  <MODEL>
       1

$$$$
