tmp_first_model_14_53.pdb
 OpenBabel08282500413D

 59 63  0  0  1  0  0  0  0  0999 V2000
  -13.9620   -1.0110  -24.5550 C   0  0  0  0  0  0  0  0  0  0  0  0
  -14.8490   -2.0550  -23.9050 C   0  0  0  0  0  0  0  0  0  0  0  0
  -14.0570   -3.0940  -23.2890 N   0  0  0  0  0  0  0  0  0  0  0  0
  -13.3310   -2.7650  -22.1800 C   0  0  0  0  0  0  0  0  0  0  0  0
  -13.4090   -1.6780  -21.6270 O   0  0  0  0  0  0  0  0  0  0  0  0
  -12.4370   -3.8950  -21.7080 C   0  0  0  0  0  0  0  0  0  0  0  0
  -11.1090   -3.8540  -22.3050 N   0  0  0  0  0  0  0  0  0  0  0  0
   -9.9720   -3.3280  -21.5470 C   0  0  0  0  0  0  0  0  0  0  0  0
   -8.7930   -2.8580  -22.4280 C   0  0  2  0  0  0  0  0  0  0  0  0
   -7.5650   -2.6410  -21.5230 C   0  0  0  0  0  0  0  0  0  0  0  0
   -6.7930   -3.4770  -21.0980 O   0  0  0  0  0  0  0  0  0  0  0  0
   -7.4220   -1.2950  -21.2800 N   0  0  0  0  0  0  0  0  0  0  0  0
   -6.6030   -0.8120  -20.2320 C   0  0  0  0  0  0  0  0  0  0  0  0
   -6.9310   -1.0430  -18.9200 C   0  0  0  0  0  0  0  0  0  0  0  0
   -6.2680   -0.4940  -17.8730 N   0  0  0  0  0  0  0  0  0  0  0  0
   -5.2300    0.2600  -18.1320 C   0  0  0  0  0  0  0  0  0  0  0  0
   -4.7610    0.5490  -19.4430 C   0  0  0  0  0  0  0  0  0  0  0  0
   -3.6210    1.3600  -19.6720 C   0  0  0  0  0  0  0  0  0  0  0  0
   -3.2120    1.6220  -20.9500 C   0  0  0  0  0  0  0  0  0  0  0  0
   -3.9170    1.0810  -22.0510 C   0  0  0  0  0  0  0  0  0  0  0  0
   -5.0210    0.2860  -21.8540 C   0  0  0  0  0  0  0  0  0  0  0  0
   -5.4680    0.0050  -20.5360 C   0  0  0  0  0  0  0  0  0  0  0  0
   -5.5570   -0.1410  -22.6960 H   0  0  0  0  0  0  0  0  0  0  0  0
   -3.5800    1.2930  -23.0600 H   0  0  0  0  0  0  0  0  0  0  0  0
   -2.3390    2.2440  -21.1280 H   0  0  0  0  0  0  0  0  0  0  0  0
   -3.0930    1.7640  -18.8120 H   0  0  0  0  0  0  0  0  0  0  0  0
   -4.7020    0.6890  -17.2800 H   0  0  0  0  0  0  0  0  0  0  0  0
   -7.7760   -1.6760  -18.6550 H   0  0  0  0  0  0  0  0  0  0  0  0
   -8.4320   -0.4730  -21.9120 C   0  0  0  0  0  0  0  0  0  0  0  0
   -9.0230   -1.4050  -22.9860 C   0  0  2  0  0  0  0  0  0  0  0  0
  -10.4620   -1.0540  -23.3500 C   0  0  0  0  0  0  0  0  0  0  0  0
  -10.5440   -0.0830  -23.8460 H   0  0  0  0  0  0  0  0  0  0  0  0
  -11.1030   -1.0130  -22.4620 H   0  0  0  0  0  0  0  0  0  0  0  0
  -10.8780   -1.8050  -24.0280 H   0  0  0  0  0  0  0  0  0  0  0  0
   -8.3970   -1.3350  -23.8860 H   0  0  0  0  0  0  0  0  0  0  0  0
   -7.9870    0.4410  -22.3210 H   0  0  0  0  0  0  0  0  0  0  0  0
   -9.1970   -0.1510  -21.1850 H   0  0  0  0  0  0  0  0  0  0  0  0
   -8.5320   -3.9120  -23.4790 C   0  0  0  0  0  0  0  0  0  0  0  0
   -7.2580   -4.0730  -24.0350 C   0  0  0  0  0  0  0  0  0  0  0  0
   -7.0470   -5.0390  -25.0050 C   0  0  0  0  0  0  0  0  0  0  0  0
   -5.4480   -5.2310  -25.6790 Cl  0  0  0  0  0  0  0  0  0  0  0  0
   -8.0740   -5.8900  -25.4200 C   0  0  0  0  0  0  0  0  0  0  0  0
   -9.3420   -5.7080  -24.9030 C   0  0  0  0  0  0  0  0  0  0  0  0
   -9.5700   -4.7200  -23.9520 C   0  0  0  0  0  0  0  0  0  0  0  0
  -10.9630   -4.5360  -23.4740 C   0  0  0  0  0  0  0  0  0  0  0  0
  -11.9290   -4.9740  -24.1000 O   0  0  0  0  0  0  0  0  0  0  0  0
  -10.1850   -6.3130  -25.2280 H   0  0  0  0  0  0  0  0  0  0  0  0
   -7.8700   -6.6780  -26.1360 H   0  0  0  0  0  0  0  0  0  0  0  0
   -6.4200   -3.4900  -23.6700 H   0  0  0  0  0  0  0  0  0  0  0  0
   -9.6010   -4.0890  -20.8600 H   0  0  0  0  0  0  0  0  0  0  0  0
  -10.2840   -2.4670  -20.9500 H   0  0  0  0  0  0  0  0  0  0  0  0
  -12.9530   -4.7720  -22.0880 H   0  0  0  0  0  0  0  0  0  0  0  0
  -12.3660   -3.9340  -20.6200 H   0  0  0  0  0  0  0  0  0  0  0  0
  -13.6430   -3.7760  -23.9190 H   0  0  0  0  0  0  0  0  0  0  0  0
  -15.4500   -1.5950  -23.1200 H   0  0  0  0  0  0  0  0  0  0  0  0
  -15.5150   -2.5330  -24.6300 H   0  0  0  0  0  0  0  0  0  0  0  0
  -14.5300   -0.2570  -25.0930 H   0  0  0  0  0  0  0  0  0  0  0  0
  -13.2780   -1.4970  -25.2560 H   0  0  0  0  0  0  0  0  0  0  0  0
  -13.3640   -0.5050  -23.7940 H   0  0  0  0  0  0  0  0  0  0  0  0
  1  2  1  0  0  0  0
  1 57  1  0  0  0  0
  1 58  1  0  0  0  0
  1 59  1  0  0  0  0
  2  3  1  0  0  0  0
  2 55  1  0  0  0  0
  2 56  1  0  0  0  0
  3  4  1  0  0  0  0
  3 54  1  0  0  0  0
  4  5  2  0  0  0  0
  4  6  1  0  0  0  0
  6  7  1  0  0  0  0
  6 52  1  0  0  0  0
  6 53  1  0  0  0  0
  7  8  1  0  0  0  0
  7 45  1  0  0  0  0
  8  9  1  0  0  0  0
  8 50  1  0  0  0  0
  8 51  1  0  0  0  0
  9 10  1  1  0  0  0
  9 30  1  0  0  0  0
  9 38  1  0  0  0  0
 10 11  2  0  0  0  0
 10 12  1  0  0  0  0
 12 13  1  0  0  0  0
 12 29  1  0  0  0  0
 13 14  2  0  0  0  0
 13 22  1  0  0  0  0
 14 15  1  0  0  0  0
 14 28  1  0  0  0  0
 15 16  2  0  0  0  0
 16 17  1  0  0  0  0
 16 27  1  0  0  0  0
 17 18  2  0  0  0  0
 17 22  1  0  0  0  0
 18 19  1  0  0  0  0
 18 26  1  0  0  0  0
 19 20  2  0  0  0  0
 19 25  1  0  0  0  0
 20 21  1  0  0  0  0
 20 24  1  0  0  0  0
 21 22  2  0  0  0  0
 21 23  1  0  0  0  0
 29 30  1  0  0  0  0
 29 36  1  0  0  0  0
 29 37  1  0  0  0  0
 30 31  1  0  0  0  0
 30 35  1  6  0  0  0
 31 32  1  0  0  0  0
 31 33  1  0  0  0  0
 31 34  1  0  0  0  0
 38 39  2  0  0  0  0
 38 44  1  0  0  0  0
 39 40  1  0  0  0  0
 39 49  1  0  0  0  0
 40 41  1  0  0  0  0
 40 42  2  0  0  0  0
 42 43  1  0  0  0  0
 42 48  1  0  0  0  0
 43 44  2  0  0  0  0
 43 47  1  0  0  0  0
 44 45  1  0  0  0  0
 45 46  2  0  0  0  0
M  END
>  <MODEL>
       1

$$$$
