tmp_first_model_16_21.pdb
 OpenBabel08282501503D

 63 68  0  0  1  0  0  0  0  0999 V2000
   -8.2140   -3.7990  -23.9210 C   0  0  0  0  0  0  0  0  0  0  0  0
   -8.3950   -3.0400  -22.6130 C   0  0  1  0  0  0  0  0  0  0  0  0
   -7.0620   -2.4740  -22.0830 C   0  0  0  0  0  0  0  0  0  0  0  0
   -7.4810   -1.3550  -21.2670 N   0  0  0  0  0  0  0  0  0  0  0  0
   -6.6710   -0.8680  -20.2080 C   0  0  0  0  0  0  0  0  0  0  0  0
   -6.9570   -1.1800  -18.9000 C   0  0  0  0  0  0  0  0  0  0  0  0
   -6.1610   -0.8570  -17.8510 N   0  0  0  0  0  0  0  0  0  0  0  0
   -5.0830   -0.1580  -18.1050 C   0  0  0  0  0  0  0  0  0  0  0  0
   -4.7000    0.2870  -19.4030 C   0  0  0  0  0  0  0  0  0  0  0  0
   -3.5920    1.1520  -19.6100 C   0  0  0  0  0  0  0  0  0  0  0  0
   -3.2590    1.5640  -20.8720 C   0  0  0  0  0  0  0  0  0  0  0  0
   -3.9950    1.1030  -21.9840 C   0  0  0  0  0  0  0  0  0  0  0  0
   -5.0810    0.2730  -21.8040 C   0  0  0  0  0  0  0  0  0  0  0  0
   -5.4850   -0.1250  -20.5020 C   0  0  0  0  0  0  0  0  0  0  0  0
   -5.6950    0.0040  -22.6570 H   0  0  0  0  0  0  0  0  0  0  0  0
   -3.7290    1.4450  -22.9800 H   0  0  0  0  0  0  0  0  0  0  0  0
   -2.4400    2.2630  -21.0230 H   0  0  0  0  0  0  0  0  0  0  0  0
   -3.0480    1.4970  -18.7360 H   0  0  0  0  0  0  0  0  0  0  0  0
   -4.4510    0.1030  -17.2570 H   0  0  0  0  0  0  0  0  0  0  0  0
   -7.8540   -1.7430  -18.6530 H   0  0  0  0  0  0  0  0  0  0  0  0
   -8.7730   -0.9410  -21.5110 C   0  0  0  0  0  0  0  0  0  0  0  0
   -9.3070    0.0030  -20.9590 O   0  0  0  0  0  0  0  0  0  0  0  0
   -9.3750   -1.8280  -22.6470 C   0  0  1  0  0  0  0  0  0  0  0  0
   -9.2890   -1.0540  -23.9920 C   0  0  0  0  0  0  0  0  0  0  0  0
  -10.1720    0.0990  -24.0160 N   0  0  0  0  0  0  0  0  0  0  0  0
   -9.7010    1.3420  -24.6030 C   0  0  0  0  0  0  0  0  0  0  0  0
   -8.3820    1.7520  -23.9380 C   0  0  0  0  0  0  0  0  0  0  0  0
   -7.2890    1.5270  -24.4370 O   0  0  0  0  0  0  0  0  0  0  0  0
   -8.5570    2.3350  -22.7210 N   0  0  0  0  0  0  0  0  0  0  0  0
   -7.4600    2.7090  -21.8500 C   0  0  0  0  0  0  0  0  0  0  0  0
   -7.1730    4.2010  -21.8710 C   0  0  0  0  0  0  0  0  0  0  0  0
   -6.1380    4.8310  -20.9810 C   0  0  0  0  0  0  0  0  0  0  0  0
   -5.8670    4.6850  -22.4540 C   0  0  0  0  0  0  0  0  0  0  0  0
   -5.1560    3.9240  -22.7800 H   0  0  0  0  0  0  0  0  0  0  0  0
   -5.8840    5.5620  -23.0930 H   0  0  0  0  0  0  0  0  0  0  0  0
   -5.5880    4.1990  -20.2850 H   0  0  0  0  0  0  0  0  0  0  0  0
   -6.3460    5.8240  -20.5840 H   0  0  0  0  0  0  0  0  0  0  0  0
   -8.0440    4.8120  -22.1000 H   0  0  0  0  0  0  0  0  0  0  0  0
   -7.6650    2.2970  -20.8540 H   0  0  0  0  0  0  0  0  0  0  0  0
   -6.5920    2.1650  -22.2180 H   0  0  0  0  0  0  0  0  0  0  0  0
   -9.4690    2.2980  -22.2910 H   0  0  0  0  0  0  0  0  0  0  0  0
  -10.4870    2.0830  -24.4280 H   0  0  0  0  0  0  0  0  0  0  0  0
   -9.5620    1.2580  -25.6860 H   0  0  0  0  0  0  0  0  0  0  0  0
  -11.4620    0.0250  -23.5840 C   0  0  0  0  0  0  0  0  0  0  0  0
  -12.2820    0.9060  -23.8020 O   0  0  0  0  0  0  0  0  0  0  0  0
  -11.8260   -1.2190  -22.8360 C   0  0  0  0  0  0  0  0  0  0  0  0
  -13.1790   -1.3970  -22.5440 C   0  0  0  0  0  0  0  0  0  0  0  0
  -13.5780   -2.3860  -21.6770 C   0  0  0  0  0  0  0  0  0  0  0  0
  -12.6010   -3.2360  -21.1820 C   0  0  0  0  0  0  0  0  0  0  0  0
  -12.9730   -4.0670  -20.1940 F   0  0  0  0  0  0  0  0  0  0  0  0
  -11.2820   -3.1960  -21.5950 C   0  0  0  0  0  0  0  0  0  0  0  0
  -10.8490   -2.1330  -22.4020 C   0  0  0  0  0  0  0  0  0  0  0  0
  -10.5980   -3.9540  -21.2230 H   0  0  0  0  0  0  0  0  0  0  0  0
  -14.6040   -2.5170  -21.3480 H   0  0  0  0  0  0  0  0  0  0  0  0
  -13.8980   -0.6910  -22.9460 H   0  0  0  0  0  0  0  0  0  0  0  0
   -8.2690   -0.6930  -24.1490 H   0  0  0  0  0  0  0  0  0  0  0  0
   -9.5610   -1.7260  -24.8170 H   0  0  0  0  0  0  0  0  0  0  0  0
   -6.4110   -2.1490  -22.9130 H   0  0  0  0  0  0  0  0  0  0  0  0
   -6.4920   -3.1950  -21.4820 H   0  0  0  0  0  0  0  0  0  0  0  0
   -8.7590   -3.7310  -21.8460 H   0  0  0  0  0  0  0  0  0  0  0  0
   -7.7650   -3.1490  -24.6800 H   0  0  0  0  0  0  0  0  0  0  0  0
   -7.5440   -4.6560  -23.7960 H   0  0  0  0  0  0  0  0  0  0  0  0
   -9.1680   -4.1630  -24.3140 H   0  0  0  0  0  0  0  0  0  0  0  0
  1  2  1  0  0  0  0
  1 61  1  0  0  0  0
  1 62  1  0  0  0  0
  1 63  1  0  0  0  0
  2  3  1  0  0  0  0
  2 23  1  0  0  0  0
  2 60  1  1  0  0  0
  3  4  1  0  0  0  0
  3 58  1  0  0  0  0
  3 59  1  0  0  0  0
  4  5  1  0  0  0  0
  4 21  1  0  0  0  0
  5  6  2  0  0  0  0
  5 14  1  0  0  0  0
  6  7  1  0  0  0  0
  6 20  1  0  0  0  0
  7  8  2  0  0  0  0
  8  9  1  0  0  0  0
  8 19  1  0  0  0  0
  9 10  2  0  0  0  0
  9 14  1  0  0  0  0
 10 11  1  0  0  0  0
 10 18  1  0  0  0  0
 11 12  2  0  0  0  0
 11 17  1  0  0  0  0
 12 13  1  0  0  0  0
 12 16  1  0  0  0  0
 13 14  2  0  0  0  0
 13 15  1  0  0  0  0
 21 22  2  0  0  0  0
 23 21  1  1  0  0  0
 23 24  1  0  0  0  0
 23 52  1  0  0  0  0
 24 25  1  0  0  0  0
 24 56  1  0  0  0  0
 24 57  1  0  0  0  0
 25 26  1  0  0  0  0
 25 44  1  0  0  0  0
 26 27  1  0  0  0  0
 26 42  1  0  0  0  0
 26 43  1  0  0  0  0
 27 28  2  0  0  0  0
 27 29  1  0  0  0  0
 29 30  1  0  0  0  0
 29 41  1  0  0  0  0
 30 31  1  0  0  0  0
 30 39  1  0  0  0  0
 30 40  1  0  0  0  0
 31 32  1  0  0  0  0
 31 33  1  0  0  0  0
 31 38  1  0  0  0  0
 32 33  1  0  0  0  0
 32 36  1  0  0  0  0
 32 37  1  0  0  0  0
 33 34  1  0  0  0  0
 33 35  1  0  0  0  0
 44 45  2  0  0  0  0
 44 46  1  0  0  0  0
 46 47  2  0  0  0  0
 46 52  1  0  0  0  0
 47 48  1  0  0  0  0
 47 55  1  0  0  0  0
 48 49  2  0  0  0  0
 48 54  1  0  0  0  0
 49 50  1  0  0  0  0
 49 51  1  0  0  0  0
 51 52  2  0  0  0  0
 51 53  1  0  0  0  0
M  END
>  <MODEL>
       1

$$$$
