tmp_first_model_19_1.pdb
 OpenBabel08282503233D

 68 73  0  0  1  0  0  0  0  0999 V2000
   -7.4010    3.4290  -21.8650 C   0  0  0  0  0  0  0  0  0  0  0  0
   -8.3710    2.9310  -22.8200 N   0  0  0  0  0  0  0  0  0  0  0  0
   -7.9030    2.2230  -23.8860 C   0  0  0  0  0  0  0  0  0  0  0  0
   -6.7080    2.0470  -24.0850 O   0  0  0  0  0  0  0  0  0  0  0  0
   -8.9740    1.6620  -24.8220 C   0  0  0  0  0  0  0  0  0  0  0  0
   -9.5820    0.4800  -24.2350 N   0  0  0  0  0  0  0  0  0  0  0  0
   -8.7720   -0.7230  -24.1020 C   0  0  0  0  0  0  0  0  0  0  0  0
   -9.1030   -1.5200  -22.8080 C   0  0  2  0  0  0  0  0  0  0  0  0
   -8.5920   -0.7310  -21.5840 C   0  0  0  0  0  0  0  0  0  0  0  0
   -9.1000    0.2440  -21.0710 O   0  0  0  0  0  0  0  0  0  0  0  0
   -7.4250   -1.3110  -21.1520 N   0  0  0  0  0  0  0  0  0  0  0  0
   -6.6340   -0.7460  -20.1400 C   0  0  0  0  0  0  0  0  0  0  0  0
   -6.9300   -1.0090  -18.8310 C   0  0  0  0  0  0  0  0  0  0  0  0
   -6.2050   -0.5530  -17.7860 N   0  0  0  0  0  0  0  0  0  0  0  0
   -5.1640    0.1990  -18.0590 C   0  0  0  0  0  0  0  0  0  0  0  0
   -4.7390    0.5300  -19.3800 C   0  0  0  0  0  0  0  0  0  0  0  0
   -3.6030    1.3440  -19.6340 C   0  0  0  0  0  0  0  0  0  0  0  0
   -3.2360    1.6500  -20.9160 C   0  0  0  0  0  0  0  0  0  0  0  0
   -3.9850    1.1600  -22.0110 C   0  0  0  0  0  0  0  0  0  0  0  0
   -5.0910    0.3740  -21.7940 C   0  0  0  0  0  0  0  0  0  0  0  0
   -5.4930    0.0420  -20.4690 C   0  0  0  0  0  0  0  0  0  0  0  0
   -5.6730    0.0220  -22.6420 H   0  0  0  0  0  0  0  0  0  0  0  0
   -3.6960    1.4190  -23.0270 H   0  0  0  0  0  0  0  0  0  0  0  0
   -2.3740    2.2850  -21.1000 H   0  0  0  0  0  0  0  0  0  0  0  0
   -3.0540    1.7340  -18.7800 H   0  0  0  0  0  0  0  0  0  0  0  0
   -4.5950    0.5840  -17.2130 H   0  0  0  0  0  0  0  0  0  0  0  0
   -7.7910   -1.6310  -18.5950 H   0  0  0  0  0  0  0  0  0  0  0  0
   -7.0020   -2.4630  -21.8940 C   0  0  0  0  0  0  0  0  0  0  0  0
   -8.2590   -2.8310  -22.6780 C   0  0  2  0  0  0  0  0  0  0  0  0
   -7.8770   -3.5550  -23.9500 C   0  0  0  0  0  0  0  0  0  0  0  0
   -9.0330   -4.2060  -24.5190 N   0  0  0  0  0  0  0  0  0  0  0  0
   -8.8590   -4.7030  -25.8160 C   0  0  0  0  0  0  0  0  0  0  0  0
   -7.7070   -4.7310  -26.6390 C   0  0  0  0  0  0  0  0  0  0  0  0
   -7.9600   -5.3100  -27.8050 N   0  0  0  0  0  0  0  0  0  0  0  0
   -9.2410   -5.6690  -27.7430 N   0  0  0  0  0  0  0  0  0  0  0  0
   -9.9480   -6.0420  -28.9310 C   0  0  0  0  0  0  0  0  0  0  0  0
  -10.6920   -5.2750  -29.1410 H   0  0  0  0  0  0  0  0  0  0  0  0
  -10.4460   -7.0020  -28.8080 H   0  0  0  0  0  0  0  0  0  0  0  0
   -9.2290   -6.0910  -29.7460 H   0  0  0  0  0  0  0  0  0  0  0  0
   -9.8250   -5.3210  -26.5700 C   0  0  0  0  0  0  0  0  0  0  0  0
  -10.8530   -5.5480  -26.3470 H   0  0  0  0  0  0  0  0  0  0  0  0
   -6.7260   -4.3130  -26.4430 H   0  0  0  0  0  0  0  0  0  0  0  0
   -9.8450   -3.5960  -24.4920 H   0  0  0  0  0  0  0  0  0  0  0  0
   -7.4280   -2.8500  -24.6670 H   0  0  0  0  0  0  0  0  0  0  0  0
   -7.1030   -4.3010  -23.7350 H   0  0  0  0  0  0  0  0  0  0  0  0
   -8.8310   -3.5330  -22.0680 H   0  0  0  0  0  0  0  0  0  0  0  0
   -6.1520   -2.2370  -22.5580 H   0  0  0  0  0  0  0  0  0  0  0  0
   -6.6820   -3.2700  -21.2280 H   0  0  0  0  0  0  0  0  0  0  0  0
  -10.6120   -1.6860  -22.7250 C   0  0  0  0  0  0  0  0  0  0  0  0
  -11.1900   -2.6780  -21.9230 C   0  0  0  0  0  0  0  0  0  0  0  0
  -12.5650   -2.7710  -21.8070 C   0  0  0  0  0  0  0  0  0  0  0  0
  -13.2480   -3.9880  -20.7670 Cl  0  0  0  0  0  0  0  0  0  0  0  0
  -13.4120   -1.8930  -22.4820 C   0  0  0  0  0  0  0  0  0  0  0  0
  -12.8510   -0.8800  -23.2310 C   0  0  0  0  0  0  0  0  0  0  0  0
  -11.4670   -0.7510  -23.3300 C   0  0  0  0  0  0  0  0  0  0  0  0
  -10.9340    0.4590  -24.0360 C   0  0  0  0  0  0  0  0  0  0  0  0
  -11.6640    1.3800  -24.3870 O   0  0  0  0  0  0  0  0  0  0  0  0
  -13.4690   -0.1470  -23.7380 H   0  0  0  0  0  0  0  0  0  0  0  0
  -14.4870   -1.9960  -22.3990 H   0  0  0  0  0  0  0  0  0  0  0  0
  -10.5860   -3.3690  -21.3460 H   0  0  0  0  0  0  0  0  0  0  0  0
   -7.7200   -0.4200  -24.0920 H   0  0  0  0  0  0  0  0  0  0  0  0
   -8.9360   -1.3610  -24.9820 H   0  0  0  0  0  0  0  0  0  0  0  0
   -9.7810    2.3810  -25.0000 H   0  0  0  0  0  0  0  0  0  0  0  0
   -8.5030    1.4310  -25.7860 H   0  0  0  0  0  0  0  0  0  0  0  0
   -9.2980    2.7340  -22.4660 H   0  0  0  0  0  0  0  0  0  0  0  0
   -6.5560    3.8450  -22.4120 H   0  0  0  0  0  0  0  0  0  0  0  0
   -7.8580    4.2190  -21.2670 H   0  0  0  0  0  0  0  0  0  0  0  0
   -7.0110    2.6220  -21.2300 H   0  0  0  0  0  0  0  0  0  0  0  0
  1  2  1  0  0  0  0
  1 66  1  0  0  0  0
  1 67  1  0  0  0  0
  1 68  1  0  0  0  0
  2  3  1  0  0  0  0
  2 65  1  0  0  0  0
  3  4  2  0  0  0  0
  3  5  1  0  0  0  0
  5  6  1  0  0  0  0
  5 63  1  0  0  0  0
  5 64  1  0  0  0  0
  6  7  1  0  0  0  0
  6 56  1  0  0  0  0
  7  8  1  0  0  0  0
  7 61  1  0  0  0  0
  7 62  1  0  0  0  0
  8  9  1  1  0  0  0
  8 29  1  0  0  0  0
  8 49  1  0  0  0  0
  9 10  2  0  0  0  0
  9 11  1  0  0  0  0
 11 12  1  0  0  0  0
 11 28  1  0  0  0  0
 12 13  2  0  0  0  0
 12 21  1  0  0  0  0
 13 14  1  0  0  0  0
 13 27  1  0  0  0  0
 14 15  2  0  0  0  0
 15 16  1  0  0  0  0
 15 26  1  0  0  0  0
 16 17  2  0  0  0  0
 16 21  1  0  0  0  0
 17 18  1  0  0  0  0
 17 25  1  0  0  0  0
 18 19  2  0  0  0  0
 18 24  1  0  0  0  0
 19 20  1  0  0  0  0
 19 23  1  0  0  0  0
 20 21  2  0  0  0  0
 20 22  1  0  0  0  0
 28 29  1  0  0  0  0
 28 47  1  0  0  0  0
 28 48  1  0  0  0  0
 29 30  1  0  0  0  0
 29 46  1  1  0  0  0
 30 31  1  0  0  0  0
 30 44  1  0  0  0  0
 30 45  1  0  0  0  0
 31 32  1  0  0  0  0
 31 43  1  0  0  0  0
 32 33  1  0  0  0  0
 32 40  2  0  0  0  0
 33 34  2  0  0  0  0
 33 42  1  0  0  0  0
 34 35  1  0  0  0  0
 35 36  1  0  0  0  0
 35 40  1  0  0  0  0
 36 37  1  0  0  0  0
 36 38  1  0  0  0  0
 36 39  1  0  0  0  0
 40 41  1  0  0  0  0
 49 50  2  0  0  0  0
 49 55  1  0  0  0  0
 50 51  1  0  0  0  0
 50 60  1  0  0  0  0
 51 52  1  0  0  0  0
 51 53  2  0  0  0  0
 53 54  1  0  0  0  0
 53 59  1  0  0  0  0
 54 55  2  0  0  0  0
 54 58  1  0  0  0  0
 55 56  1  0  0  0  0
 56 57  2  0  0  0  0
M  END
>  <MODEL>
       1

$$$$
