tmp_first_model_1_36.pdb
 OpenBabel08272517043D

 47 50  0  0  1  0  0  0  0  0999 V2000
   -6.2360   -3.5710  -21.1790 O   0  0  0  0  0  0  0  0  0  0  0  0
   -6.6120   -2.6640  -21.8980 C   0  0  0  0  0  0  0  0  0  0  0  0
   -7.3830   -1.4740  -21.2880 C   0  0  0  0  0  0  0  0  0  0  0  0
   -6.5790   -0.8210  -20.1820 C   0  0  0  0  0  0  0  0  0  0  0  0
   -6.8720   -1.0470  -18.8620 C   0  0  0  0  0  0  0  0  0  0  0  0
   -6.1830   -0.5500  -17.7990 N   0  0  0  0  0  0  0  0  0  0  0  0
   -5.1570    0.2220  -18.0640 C   0  0  0  0  0  0  0  0  0  0  0  0
   -4.7230    0.5360  -19.3790 C   0  0  0  0  0  0  0  0  0  0  0  0
   -3.5910    1.3560  -19.6210 C   0  0  0  0  0  0  0  0  0  0  0  0
   -3.1880    1.6320  -20.9000 C   0  0  0  0  0  0  0  0  0  0  0  0
   -3.9050    1.0960  -21.9930 C   0  0  0  0  0  0  0  0  0  0  0  0
   -5.0060    0.3020  -21.7860 C   0  0  0  0  0  0  0  0  0  0  0  0
   -5.4480   -0.0000  -20.4710 C   0  0  0  0  0  0  0  0  0  0  0  0
   -5.5430   -0.0980  -22.6400 H   0  0  0  0  0  0  0  0  0  0  0  0
   -3.5820    1.3180  -23.0050 H   0  0  0  0  0  0  0  0  0  0  0  0
   -2.3270    2.2670  -21.0860 H   0  0  0  0  0  0  0  0  0  0  0  0
   -3.0550    1.7680  -18.7690 H   0  0  0  0  0  0  0  0  0  0  0  0
   -4.6060    0.6280  -17.2140 H   0  0  0  0  0  0  0  0  0  0  0  0
   -7.7210   -1.6700  -18.5860 H   0  0  0  0  0  0  0  0  0  0  0  0
   -8.3080   -1.8740  -20.8560 H   0  0  0  0  0  0  0  0  0  0  0  0
   -7.6780   -0.7410  -22.0460 H   0  0  0  0  0  0  0  0  0  0  0  0
   -6.3030   -2.6340  -23.2500 N   0  0  0  0  0  0  0  0  0  0  0  0
   -5.1370   -3.3830  -23.7020 C   0  0  0  0  0  0  0  0  0  0  0  0
   -4.3440   -2.5700  -24.7240 C   0  0  0  0  0  0  0  0  0  0  0  0
   -5.2360   -1.9740  -25.8280 C   0  0  0  0  0  0  0  0  0  0  0  0
   -6.6920   -2.3970  -25.6730 C   0  0  0  0  0  0  0  0  0  0  0  0
   -7.2270   -2.1220  -24.2640 C   0  0  1  0  0  0  0  0  0  0  0  0
   -8.6390   -2.6730  -24.1110 C   0  0  0  0  0  0  0  0  0  0  0  0
   -8.8650   -4.0470  -24.0160 C   0  0  0  0  0  0  0  0  0  0  0  0
  -10.1540   -4.5520  -23.8900 C   0  0  0  0  0  0  0  0  0  0  0  0
  -11.2450   -3.6870  -23.8650 C   0  0  0  0  0  0  0  0  0  0  0  0
  -11.0290   -2.3170  -23.9760 C   0  0  0  0  0  0  0  0  0  0  0  0
   -9.7360   -1.8150  -24.1070 C   0  0  0  0  0  0  0  0  0  0  0  0
   -9.5930   -0.7400  -24.2030 H   0  0  0  0  0  0  0  0  0  0  0  0
  -11.8610   -1.6240  -23.9380 H   0  0  0  0  0  0  0  0  0  0  0  0
  -12.2520   -4.0820  -23.7600 H   0  0  0  0  0  0  0  0  0  0  0  0
  -10.3060   -5.6240  -23.8080 H   0  0  0  0  0  0  0  0  0  0  0  0
   -8.0250   -4.7360  -24.0400 H   0  0  0  0  0  0  0  0  0  0  0  0
   -7.2760   -1.0340  -24.1410 H   0  0  0  0  0  0  0  0  0  0  0  0
   -6.8240   -3.4550  -25.9230 H   0  0  0  0  0  0  0  0  0  0  0  0
   -7.3120   -1.8550  -26.3880 H   0  0  0  0  0  0  0  0  0  0  0  0
   -4.8750   -2.2660  -26.8200 H   0  0  0  0  0  0  0  0  0  0  0  0
   -5.1770   -0.8800  -25.8070 H   0  0  0  0  0  0  0  0  0  0  0  0
   -3.8180   -1.7650  -24.2010 H   0  0  0  0  0  0  0  0  0  0  0  0
   -3.5720   -3.2090  -25.1580 H   0  0  0  0  0  0  0  0  0  0  0  0
   -5.4130   -4.3630  -24.1170 H   0  0  0  0  0  0  0  0  0  0  0  0
   -4.5340   -3.5920  -22.8220 H   0  0  0  0  0  0  0  0  0  0  0  0
  1  2  2  0  0  0  0
  2  3  1  0  0  0  0
  2 22  1  0  0  0  0
  3  4  1  0  0  0  0
  3 20  1  0  0  0  0
  3 21  1  0  0  0  0
  4  5  2  0  0  0  0
  4 13  1  0  0  0  0
  5  6  1  0  0  0  0
  5 19  1  0  0  0  0
  6  7  2  0  0  0  0
  7  8  1  0  0  0  0
  7 18  1  0  0  0  0
  8  9  2  0  0  0  0
  8 13  1  0  0  0  0
  9 10  1  0  0  0  0
  9 17  1  0  0  0  0
 10 11  2  0  0  0  0
 10 16  1  0  0  0  0
 11 12  1  0  0  0  0
 11 15  1  0  0  0  0
 12 13  2  0  0  0  0
 12 14  1  0  0  0  0
 22 23  1  0  0  0  0
 22 27  1  0  0  0  0
 23 24  1  0  0  0  0
 23 46  1  0  0  0  0
 23 47  1  0  0  0  0
 24 25  1  0  0  0  0
 24 44  1  0  0  0  0
 24 45  1  0  0  0  0
 25 26  1  0  0  0  0
 25 42  1  0  0  0  0
 25 43  1  0  0  0  0
 26 27  1  0  0  0  0
 26 40  1  0  0  0  0
 26 41  1  0  0  0  0
 27 28  1  0  0  0  0
 27 39  1  1  0  0  0
 28 29  2  0  0  0  0
 28 33  1  0  0  0  0
 29 30  1  0  0  0  0
 29 38  1  0  0  0  0
 30 31  2  0  0  0  0
 30 37  1  0  0  0  0
 31 32  1  0  0  0  0
 31 36  1  0  0  0  0
 32 33  2  0  0  0  0
 32 35  1  0  0  0  0
 33 34  1  0  0  0  0
M  END
>  <MODEL>
       1

$$$$
