tmp_first_model_7_34.pdb
 OpenBabel08272520323D

 66 70  0  0  1  0  0  0  0  0999 V2000
   -6.8060    3.4530  -23.0550 C   0  0  0  0  0  0  0  0  0  0  0  0
   -7.4960    2.7520  -24.1240 N   0  0  0  0  0  0  0  0  0  0  0  0
   -6.9790    1.6480  -24.7120 C   0  0  0  0  0  0  0  0  0  0  0  0
   -5.8080    1.2970  -24.6210 O   0  0  0  0  0  0  0  0  0  0  0  0
   -7.9880    0.8120  -25.5140 C   0  0  0  0  0  0  0  0  0  0  0  0
   -8.8750    0.0760  -24.6320 N   0  0  0  0  0  0  0  0  0  0  0  0
   -8.5210   -1.2820  -24.2630 C   0  0  0  0  0  0  0  0  0  0  0  0
   -8.9460   -1.6090  -22.8030 C   0  0  2  0  0  0  0  0  0  0  0  0
   -8.1600   -0.6900  -21.8430 C   0  0  0  0  0  0  0  0  0  0  0  0
   -8.2830    0.5140  -21.7080 O   0  0  0  0  0  0  0  0  0  0  0  0
   -7.2740   -1.4530  -21.1220 N   0  0  0  0  0  0  0  0  0  0  0  0
   -6.4830   -0.8760  -20.0950 C   0  0  0  0  0  0  0  0  0  0  0  0
   -6.7820   -1.1040  -18.7760 C   0  0  0  0  0  0  0  0  0  0  0  0
   -6.1010   -0.5640  -17.7360 N   0  0  0  0  0  0  0  0  0  0  0  0
   -5.0870    0.2170  -18.0180 C   0  0  0  0  0  0  0  0  0  0  0  0
   -4.6580    0.5250  -19.3390 C   0  0  0  0  0  0  0  0  0  0  0  0
   -3.5470    1.3690  -19.6020 C   0  0  0  0  0  0  0  0  0  0  0  0
   -3.1910    1.6740  -20.8870 C   0  0  0  0  0  0  0  0  0  0  0  0
   -3.9310    1.1530  -21.9710 C   0  0  0  0  0  0  0  0  0  0  0  0
   -4.9990    0.3240  -21.7440 C   0  0  0  0  0  0  0  0  0  0  0  0
   -5.3870   -0.0200  -20.4200 C   0  0  0  0  0  0  0  0  0  0  0  0
   -5.5760   -0.0400  -22.5870 H   0  0  0  0  0  0  0  0  0  0  0  0
   -3.6900    1.4240  -22.9940 H   0  0  0  0  0  0  0  0  0  0  0  0
   -2.3520    2.3370  -21.0780 H   0  0  0  0  0  0  0  0  0  0  0  0
   -3.0030    1.7840  -18.7600 H   0  0  0  0  0  0  0  0  0  0  0  0
   -4.5550    0.6540  -17.1740 H   0  0  0  0  0  0  0  0  0  0  0  0
   -7.6330   -1.7360  -18.5120 H   0  0  0  0  0  0  0  0  0  0  0  0
   -7.2210   -2.8470  -21.5090 C   0  0  0  0  0  0  0  0  0  0  0  0
   -8.4940   -3.0230  -22.3690 C   0  0  2  0  0  0  0  0  0  0  0  0
   -8.3260   -4.0370  -23.4930 C   0  0  0  0  0  0  0  0  0  0  0  0
   -8.0500   -5.2840  -22.9010 O   0  0  0  0  0  0  0  0  0  0  0  0
   -7.5280   -6.2460  -23.8010 C   0  0  0  0  0  0  0  0  0  0  0  0
   -8.0690   -7.5930  -23.3680 C   0  0  0  0  0  0  0  0  0  0  0  0
   -9.1550   -7.5890  -23.3880 H   0  0  0  0  0  0  0  0  0  0  0  0
   -7.7400   -7.8300  -22.3520 H   0  0  0  0  0  0  0  0  0  0  0  0
   -7.7260   -8.3620  -24.0590 H   0  0  0  0  0  0  0  0  0  0  0  0
   -6.0060   -6.2090  -23.7770 C   0  0  0  0  0  0  0  0  0  0  0  0
   -5.5950   -6.9530  -24.4670 H   0  0  0  0  0  0  0  0  0  0  0  0
   -5.6600   -6.4390  -22.7650 H   0  0  0  0  0  0  0  0  0  0  0  0
   -5.6160   -5.2240  -24.0560 H   0  0  0  0  0  0  0  0  0  0  0  0
   -7.8910   -6.0310  -24.8190 H   0  0  0  0  0  0  0  0  0  0  0  0
   -7.5110   -3.7350  -24.1730 H   0  0  0  0  0  0  0  0  0  0  0  0
   -9.2420   -4.1050  -24.1060 H   0  0  0  0  0  0  0  0  0  0  0  0
   -9.2530   -3.4290  -21.7030 H   0  0  0  0  0  0  0  0  0  0  0  0
   -6.2950   -3.0840  -22.0580 H   0  0  0  0  0  0  0  0  0  0  0  0
   -7.2380   -3.4800  -20.6180 H   0  0  0  0  0  0  0  0  0  0  0  0
  -10.4340   -1.3090  -22.6830 C   0  0  0  0  0  0  0  0  0  0  0  0
  -11.3560   -2.1070  -21.9870 C   0  0  0  0  0  0  0  0  0  0  0  0
  -12.6880   -1.7240  -21.9400 C   0  0  0  0  0  0  0  0  0  0  0  0
  -13.8400   -2.7490  -21.1310 Cl  0  0  0  0  0  0  0  0  0  0  0  0
  -13.1330   -0.5330  -22.5080 C   0  0  0  0  0  0  0  0  0  0  0  0
  -12.2220    0.2830  -23.1450 C   0  0  0  0  0  0  0  0  0  0  0  0
  -10.8980   -0.1320  -23.2960 C   0  0  0  0  0  0  0  0  0  0  0  0
   -9.9950    0.6920  -24.1740 C   0  0  0  0  0  0  0  0  0  0  0  0
  -10.2600    1.8630  -24.4620 O   0  0  0  0  0  0  0  0  0  0  0  0
  -12.5410    1.2390  -23.5430 H   0  0  0  0  0  0  0  0  0  0  0  0
  -14.1840   -0.2700  -22.4630 H   0  0  0  0  0  0  0  0  0  0  0  0
  -11.0700   -3.0360  -21.4980 H   0  0  0  0  0  0  0  0  0  0  0  0
   -7.4300   -1.3690  -24.3570 H   0  0  0  0  0  0  0  0  0  0  0  0
   -9.0260   -1.9740  -24.9520 H   0  0  0  0  0  0  0  0  0  0  0  0
   -7.4170    0.0980  -26.1140 H   0  0  0  0  0  0  0  0  0  0  0  0
   -8.6060    1.4360  -26.1680 H   0  0  0  0  0  0  0  0  0  0  0  0
   -8.4980    2.8780  -24.2120 H   0  0  0  0  0  0  0  0  0  0  0  0
   -6.4840    2.7550  -22.2670 H   0  0  0  0  0  0  0  0  0  0  0  0
   -7.5000    4.1740  -22.6160 H   0  0  0  0  0  0  0  0  0  0  0  0
   -5.9370    4.0030  -23.4300 H   0  0  0  0  0  0  0  0  0  0  0  0
  1  2  1  0  0  0  0
  1 64  1  0  0  0  0
  1 65  1  0  0  0  0
  1 66  1  0  0  0  0
  2  3  1  0  0  0  0
  2 63  1  0  0  0  0
  3  4  2  0  0  0  0
  3  5  1  0  0  0  0
  5  6  1  0  0  0  0
  5 61  1  0  0  0  0
  5 62  1  0  0  0  0
  6  7  1  0  0  0  0
  6 54  1  0  0  0  0
  7  8  1  0  0  0  0
  7 59  1  0  0  0  0
  7 60  1  0  0  0  0
  8  9  1  1  0  0  0
  8 29  1  0  0  0  0
  8 47  1  0  0  0  0
  9 10  2  0  0  0  0
  9 11  1  0  0  0  0
 11 12  1  0  0  0  0
 11 28  1  0  0  0  0
 12 13  2  0  0  0  0
 12 21  1  0  0  0  0
 13 14  1  0  0  0  0
 13 27  1  0  0  0  0
 14 15  2  0  0  0  0
 15 16  1  0  0  0  0
 15 26  1  0  0  0  0
 16 17  2  0  0  0  0
 16 21  1  0  0  0  0
 17 18  1  0  0  0  0
 17 25  1  0  0  0  0
 18 19  2  0  0  0  0
 18 24  1  0  0  0  0
 19 20  1  0  0  0  0
 19 23  1  0  0  0  0
 20 21  2  0  0  0  0
 20 22  1  0  0  0  0
 28 29  1  0  0  0  0
 28 45  1  0  0  0  0
 28 46  1  0  0  0  0
 29 30  1  0  0  0  0
 29 44  1  1  0  0  0
 30 31  1  0  0  0  0
 30 42  1  0  0  0  0
 30 43  1  0  0  0  0
 31 32  1  0  0  0  0
 32 33  1  0  0  0  0
 32 37  1  0  0  0  0
 32 41  1  0  0  0  0
 33 34  1  0  0  0  0
 33 35  1  0  0  0  0
 33 36  1  0  0  0  0
 37 38  1  0  0  0  0
 37 39  1  0  0  0  0
 37 40  1  0  0  0  0
 47 48  2  0  0  0  0
 47 53  1  0  0  0  0
 48 49  1  0  0  0  0
 48 58  1  0  0  0  0
 49 50  1  0  0  0  0
 49 51  2  0  0  0  0
 51 52  1  0  0  0  0
 51 57  1  0  0  0  0
 52 53  2  0  0  0  0
 52 56  1  0  0  0  0
 53 54  1  0  0  0  0
 54 55  2  0  0  0  0
M  END
>  <MODEL>
       1

$$$$
