tmp_first_model_18_91.pdb
 OpenBabel08282502533D

 66 71  0  0  1  0  0  0  0  0999 V2000
   -6.7990    0.0840  -29.3700 C   0  0  0  0  0  0  0  0  0  0  0  0
   -7.1530    0.6190  -28.0740 N   0  0  0  0  0  0  0  0  0  0  0  0
   -6.6000    0.0590  -26.9690 C   0  0  0  0  0  0  0  0  0  0  0  0
   -5.7940   -0.8610  -27.0100 O   0  0  0  0  0  0  0  0  0  0  0  0
   -7.0990    0.6620  -25.6590 C   0  0  0  0  0  0  0  0  0  0  0  0
   -8.2050   -0.1040  -25.1310 N   0  0  0  0  0  0  0  0  0  0  0  0
   -7.9350   -1.3920  -24.5230 C   0  0  0  0  0  0  0  0  0  0  0  0
   -8.7730   -1.5730  -23.2320 C   0  0  2  0  0  0  0  0  0  0  0  0
   -8.2290   -0.6160  -22.1310 C   0  0  0  0  0  0  0  0  0  0  0  0
   -8.4030    0.5750  -22.0340 O   0  0  0  0  0  0  0  0  0  0  0  0
   -7.4580   -1.3650  -21.2610 N   0  0  0  0  0  0  0  0  0  0  0  0
   -6.6470   -0.8070  -20.2380 C   0  0  0  0  0  0  0  0  0  0  0  0
   -6.9340   -1.0800  -18.9220 C   0  0  0  0  0  0  0  0  0  0  0  0
   -6.2540   -0.5890  -17.8560 N   0  0  0  0  0  0  0  0  0  0  0  0
   -5.2280    0.1880  -18.1130 C   0  0  0  0  0  0  0  0  0  0  0  0
   -4.7820    0.5090  -19.4260 C   0  0  0  0  0  0  0  0  0  0  0  0
   -3.6430    1.3330  -19.6320 C   0  0  0  0  0  0  0  0  0  0  0  0
   -3.2050    1.6050  -20.8980 C   0  0  0  0  0  0  0  0  0  0  0  0
   -3.8780    1.0600  -22.0140 C   0  0  0  0  0  0  0  0  0  0  0  0
   -4.9870    0.2690  -21.8410 C   0  0  0  0  0  0  0  0  0  0  0  0
   -5.4870   -0.0130  -20.5350 C   0  0  0  0  0  0  0  0  0  0  0  0
   -5.4860   -0.1440  -22.7140 H   0  0  0  0  0  0  0  0  0  0  0  0
   -3.5110    1.2690  -23.0150 H   0  0  0  0  0  0  0  0  0  0  0  0
   -2.3390    2.2410  -21.0540 H   0  0  0  0  0  0  0  0  0  0  0  0
   -3.1390    1.7410  -18.7590 H   0  0  0  0  0  0  0  0  0  0  0  0
   -4.6780    0.5950  -17.2630 H   0  0  0  0  0  0  0  0  0  0  0  0
   -7.7830   -1.7190  -18.6870 H   0  0  0  0  0  0  0  0  0  0  0  0
   -7.4030   -2.7710  -21.5960 C   0  0  0  0  0  0  0  0  0  0  0  0
   -8.5540   -2.9620  -22.5820 C   0  0  2  0  0  0  0  0  0  0  0  0
   -8.3370   -4.1310  -23.5340 C   0  0  0  0  0  0  0  0  0  0  0  0
   -9.4670   -4.3390  -24.3990 N   0  0  0  0  0  0  0  0  0  0  0  0
   -9.4690   -5.2600  -25.4020 C   0  0  0  0  0  0  0  0  0  0  0  0
   -8.3890   -6.1550  -25.6140 C   0  0  0  0  0  0  0  0  0  0  0  0
   -8.3850   -7.0390  -26.5970 N   0  0  0  0  0  0  0  0  0  0  0  0
   -9.4670   -7.0550  -27.3810 C   0  0  0  0  0  0  0  0  0  0  0  0
  -10.5290   -6.1870  -27.1660 C   0  0  0  0  0  0  0  0  0  0  0  0
  -10.5480   -5.2860  -26.1860 N   0  0  0  0  0  0  0  0  0  0  0  0
  -11.4060   -6.2020  -27.8060 H   0  0  0  0  0  0  0  0  0  0  0  0
   -9.4740   -7.7700  -28.1960 H   0  0  0  0  0  0  0  0  0  0  0  0
   -7.5130   -6.1490  -24.9750 H   0  0  0  0  0  0  0  0  0  0  0  0
  -10.2610   -3.7120  -24.3940 H   0  0  0  0  0  0  0  0  0  0  0  0
   -8.1620   -5.0440  -22.9550 H   0  0  0  0  0  0  0  0  0  0  0  0
   -7.4290   -3.9530  -24.1310 H   0  0  0  0  0  0  0  0  0  0  0  0
   -9.4460   -3.1890  -21.9970 H   0  0  0  0  0  0  0  0  0  0  0  0
   -6.4340   -3.0540  -22.0340 H   0  0  0  0  0  0  0  0  0  0  0  0
   -7.5330   -3.3600  -20.6930 H   0  0  0  0  0  0  0  0  0  0  0  0
  -10.2180   -1.2940  -23.5930 C   0  0  0  0  0  0  0  0  0  0  0  0
  -11.2700   -1.7960  -22.8150 C   0  0  0  0  0  0  0  0  0  0  0  0
  -12.5660   -1.3860  -23.0620 C   0  0  0  0  0  0  0  0  0  0  0  0
  -13.8150   -1.9010  -21.9670 Cl  0  0  0  0  0  0  0  0  0  0  0  0
  -12.8940   -0.5600  -24.1370 C   0  0  0  0  0  0  0  0  0  0  0  0
  -11.8660   -0.1080  -24.9410 C   0  0  0  0  0  0  0  0  0  0  0  0
  -10.5420   -0.4290  -24.6510 C   0  0  0  0  0  0  0  0  0  0  0  0
   -9.4780    0.2700  -25.4350 C   0  0  0  0  0  0  0  0  0  0  0  0
   -9.7240    1.1450  -26.2660 O   0  0  0  0  0  0  0  0  0  0  0  0
  -12.0470    0.5290  -25.7970 H   0  0  0  0  0  0  0  0  0  0  0  0
  -13.9260   -0.2690  -24.3140 H   0  0  0  0  0  0  0  0  0  0  0  0
  -11.1040   -2.4830  -21.9910 H   0  0  0  0  0  0  0  0  0  0  0  0
   -8.1660   -2.2050  -25.2290 H   0  0  0  0  0  0  0  0  0  0  0  0
   -6.8630   -1.4510  -24.3100 H   0  0  0  0  0  0  0  0  0  0  0  0
   -7.4380    1.6940  -25.7980 H   0  0  0  0  0  0  0  0  0  0  0  0
   -6.2870    0.6340  -24.9270 H   0  0  0  0  0  0  0  0  0  0  0  0
   -7.9970    1.1670  -27.9620 H   0  0  0  0  0  0  0  0  0  0  0  0
   -7.3310    0.6330  -30.1490 H   0  0  0  0  0  0  0  0  0  0  0  0
   -5.7230    0.1980  -29.5290 H   0  0  0  0  0  0  0  0  0  0  0  0
   -7.0460   -0.9820  -29.4370 H   0  0  0  0  0  0  0  0  0  0  0  0
  1  2  1  0  0  0  0
  1 64  1  0  0  0  0
  1 65  1  0  0  0  0
  1 66  1  0  0  0  0
  2  3  1  0  0  0  0
  2 63  1  0  0  0  0
  3  4  2  0  0  0  0
  3  5  1  0  0  0  0
  5  6  1  0  0  0  0
  5 61  1  0  0  0  0
  5 62  1  0  0  0  0
  6  7  1  0  0  0  0
  6 54  1  0  0  0  0
  7  8  1  0  0  0  0
  7 59  1  0  0  0  0
  7 60  1  0  0  0  0
  8  9  1  1  0  0  0
  8 29  1  0  0  0  0
  8 47  1  0  0  0  0
  9 10  2  0  0  0  0
  9 11  1  0  0  0  0
 11 12  1  0  0  0  0
 11 28  1  0  0  0  0
 12 13  2  0  0  0  0
 12 21  1  0  0  0  0
 13 14  1  0  0  0  0
 13 27  1  0  0  0  0
 14 15  2  0  0  0  0
 15 16  1  0  0  0  0
 15 26  1  0  0  0  0
 16 17  2  0  0  0  0
 16 21  1  0  0  0  0
 17 18  1  0  0  0  0
 17 25  1  0  0  0  0
 18 19  2  0  0  0  0
 18 24  1  0  0  0  0
 19 20  1  0  0  0  0
 19 23  1  0  0  0  0
 20 21  2  0  0  0  0
 20 22  1  0  0  0  0
 28 29  1  0  0  0  0
 28 45  1  0  0  0  0
 28 46  1  0  0  0  0
 29 30  1  0  0  0  0
 29 44  1  1  0  0  0
 30 31  1  0  0  0  0
 30 42  1  0  0  0  0
 30 43  1  0  0  0  0
 31 32  1  0  0  0  0
 31 41  1  0  0  0  0
 32 33  2  0  0  0  0
 32 37  1  0  0  0  0
 33 34  1  0  0  0  0
 33 40  1  0  0  0  0
 34 35  2  0  0  0  0
 35 36  1  0  0  0  0
 35 39  1  0  0  0  0
 36 37  2  0  0  0  0
 36 38  1  0  0  0  0
 47 48  2  0  0  0  0
 47 53  1  0  0  0  0
 48 49  1  0  0  0  0
 48 58  1  0  0  0  0
 49 50  1  0  0  0  0
 49 51  2  0  0  0  0
 51 52  1  0  0  0  0
 51 57  1  0  0  0  0
 52 53  2  0  0  0  0
 52 56  1  0  0  0  0
 53 54  1  0  0  0  0
 54 55  2  0  0  0  0
M  END
>  <MODEL>
       1

$$$$
