tmp_first_model_13_80.pdb
 OpenBabel08282500103D

 60 65  0  0  1  0  0  0  0  0999 V2000
   -8.4900    2.2000  -28.9510 C   0  0  0  0  0  0  0  0  0  0  0  0
   -8.7280    2.2360  -27.5130 N   0  0  0  0  0  0  0  0  0  0  0  0
   -7.9110    1.5380  -26.6790 C   0  0  0  0  0  0  0  0  0  0  0  0
   -6.9230    0.9400  -27.0900 O   0  0  0  0  0  0  0  0  0  0  0  0
   -8.2720    1.5930  -25.1920 C   0  0  0  0  0  0  0  0  0  0  0  0
   -9.0370    0.4970  -24.6560 N   0  0  0  0  0  0  0  0  0  0  0  0
   -8.3820   -0.7710  -24.3830 C   0  0  0  0  0  0  0  0  0  0  0  0
   -8.8880   -1.4250  -23.0690 C   0  0  2  0  0  0  0  0  0  0  0  0
   -8.3660   -0.6340  -21.8440 C   0  0  0  0  0  0  0  0  0  0  0  0
   -8.7080    0.4780  -21.4840 O   0  0  0  0  0  0  0  0  0  0  0  0
   -7.4130   -1.3850  -21.1950 N   0  0  0  0  0  0  0  0  0  0  0  0
   -6.6050   -0.8130  -20.1730 C   0  0  0  0  0  0  0  0  0  0  0  0
   -6.9030   -1.0480  -18.8590 C   0  0  0  0  0  0  0  0  0  0  0  0
   -6.1930   -0.5510  -17.8170 N   0  0  0  0  0  0  0  0  0  0  0  0
   -5.1640    0.2090  -18.0870 C   0  0  0  0  0  0  0  0  0  0  0  0
   -4.7330    0.5310  -19.4040 C   0  0  0  0  0  0  0  0  0  0  0  0
   -3.6030    1.3600  -19.6450 C   0  0  0  0  0  0  0  0  0  0  0  0
   -3.2080    1.6430  -20.9220 C   0  0  0  0  0  0  0  0  0  0  0  0
   -3.9200    1.0980  -22.0150 C   0  0  0  0  0  0  0  0  0  0  0  0
   -5.0090    0.2870  -21.8070 C   0  0  0  0  0  0  0  0  0  0  0  0
   -5.4640   -0.0040  -20.4900 C   0  0  0  0  0  0  0  0  0  0  0  0
   -5.5330   -0.1350  -22.6610 H   0  0  0  0  0  0  0  0  0  0  0  0
   -3.6160    1.3300  -23.0320 H   0  0  0  0  0  0  0  0  0  0  0  0
   -2.3570    2.2950  -21.1020 H   0  0  0  0  0  0  0  0  0  0  0  0
   -3.0770    1.7680  -18.7850 H   0  0  0  0  0  0  0  0  0  0  0  0
   -4.6170    0.6140  -17.2340 H   0  0  0  0  0  0  0  0  0  0  0  0
   -7.7520   -1.6720  -18.5890 H   0  0  0  0  0  0  0  0  0  0  0  0
   -7.1010   -2.6410  -21.8470 C   0  0  0  0  0  0  0  0  0  0  0  0
   -8.2660   -2.8480  -22.8400 C   0  0  2  0  0  0  0  0  0  0  0  0
   -7.8280   -3.6350  -24.0820 C   0  0  0  0  0  0  0  0  0  0  0  0
   -8.6470   -3.7740  -24.7970 H   0  0  0  0  0  0  0  0  0  0  0  0
   -7.0120   -3.1220  -24.6060 H   0  0  0  0  0  0  0  0  0  0  0  0
   -7.4590   -4.6280  -23.8030 H   0  0  0  0  0  0  0  0  0  0  0  0
   -9.0400   -3.4250  -22.3300 H   0  0  0  0  0  0  0  0  0  0  0  0
   -7.0190   -3.4440  -21.1050 H   0  0  0  0  0  0  0  0  0  0  0  0
   -6.1380   -2.5870  -22.3780 H   0  0  0  0  0  0  0  0  0  0  0  0
  -10.4100   -1.3810  -23.0710 C   0  0  0  0  0  0  0  0  0  0  0  0
  -11.1300   -2.1660  -22.1570 C   0  0  0  0  0  0  0  0  0  0  0  0
  -12.5110   -2.1210  -22.1410 C   0  0  0  0  0  0  0  0  0  0  0  0
  -13.3930   -3.1110  -21.0140 Cl  0  0  0  0  0  0  0  0  0  0  0  0
  -13.2160   -1.2870  -23.0090 C   0  0  0  0  0  0  0  0  0  0  0  0
  -12.5130   -0.4570  -23.8600 C   0  0  0  0  0  0  0  0  0  0  0  0
  -11.1170   -0.4670  -23.8720 C   0  0  0  0  0  0  0  0  0  0  0  0
  -10.4060    0.5780  -24.6780 C   0  0  0  0  0  0  0  0  0  0  0  0
  -10.9830    1.4830  -25.2700 O   0  0  0  0  0  0  0  0  0  0  0  0
  -13.0140    0.2480  -24.5150 H   0  0  0  0  0  0  0  0  0  0  0  0
  -14.2990   -1.2800  -22.9820 H   0  0  0  0  0  0  0  0  0  0  0  0
  -10.6340   -2.7980  -21.4270 H   0  0  0  0  0  0  0  0  0  0  0  0
   -8.5700   -1.4660  -25.2150 H   0  0  0  0  0  0  0  0  0  0  0  0
   -7.3130   -0.5650  -24.3180 H   0  0  0  0  0  0  0  0  0  0  0  0
   -8.4360    2.9440  -24.5490 C   0  0  0  0  0  0  0  0  0  0  0  0
   -7.1860    2.1470  -24.3050 C   0  0  0  0  0  0  0  0  0  0  0  0
   -6.2600    2.4380  -24.7980 H   0  0  0  0  0  0  0  0  0  0  0  0
   -7.0760    1.6660  -23.3360 H   0  0  0  0  0  0  0  0  0  0  0  0
   -8.4020    3.8250  -25.1860 H   0  0  0  0  0  0  0  0  0  0  0  0
   -9.1550    3.0150  -23.7380 H   0  0  0  0  0  0  0  0  0  0  0  0
   -9.5990    2.5870  -27.1350 H   0  0  0  0  0  0  0  0  0  0  0  0
   -9.2780    2.7720  -29.4500 H   0  0  0  0  0  0  0  0  0  0  0  0
   -8.4840    1.1710  -29.3350 H   0  0  0  0  0  0  0  0  0  0  0  0
   -7.5140    2.6360  -29.2040 H   0  0  0  0  0  0  0  0  0  0  0  0
  1  2  1  0  0  0  0
  1 58  1  0  0  0  0
  1 59  1  0  0  0  0
  1 60  1  0  0  0  0
  2  3  1  0  0  0  0
  2 57  1  0  0  0  0
  3  4  2  0  0  0  0
  3  5  1  0  0  0  0
  5  6  1  0  0  0  0
  5 51  1  0  0  0  0
  5 52  1  0  0  0  0
  6  7  1  0  0  0  0
  6 44  1  0  0  0  0
  7  8  1  0  0  0  0
  7 49  1  0  0  0  0
  7 50  1  0  0  0  0
  8  9  1  1  0  0  0
  8 29  1  0  0  0  0
  8 37  1  0  0  0  0
  9 10  2  0  0  0  0
  9 11  1  0  0  0  0
 11 12  1  0  0  0  0
 11 28  1  0  0  0  0
 12 13  2  0  0  0  0
 12 21  1  0  0  0  0
 13 14  1  0  0  0  0
 13 27  1  0  0  0  0
 14 15  2  0  0  0  0
 15 16  1  0  0  0  0
 15 26  1  0  0  0  0
 16 17  2  0  0  0  0
 16 21  1  0  0  0  0
 17 18  1  0  0  0  0
 17 25  1  0  0  0  0
 18 19  2  0  0  0  0
 18 24  1  0  0  0  0
 19 20  1  0  0  0  0
 19 23  1  0  0  0  0
 20 21  2  0  0  0  0
 20 22  1  0  0  0  0
 28 29  1  0  0  0  0
 28 35  1  0  0  0  0
 28 36  1  0  0  0  0
 29 30  1  0  0  0  0
 29 34  1  1  0  0  0
 30 31  1  0  0  0  0
 30 32  1  0  0  0  0
 30 33  1  0  0  0  0
 37 38  2  0  0  0  0
 37 43  1  0  0  0  0
 38 39  1  0  0  0  0
 38 48  1  0  0  0  0
 39 40  1  0  0  0  0
 39 41  2  0  0  0  0
 41 42  1  0  0  0  0
 41 47  1  0  0  0  0
 42 43  2  0  0  0  0
 42 46  1  0  0  0  0
 43 44  1  0  0  0  0
 44 45  2  0  0  0  0
 51 52  1  0  0  0  0
 51 55  1  0  0  0  0
 51 56  1  0  0  0  0
 52 53  1  0  0  0  0
 52 54  1  0  0  0  0
M  END
>  <MODEL>
       1

$$$$
