tmp_first_model_9_69.pdb
 OpenBabel08272521403D

 63 67  0  0  0  0  0  0  0  0999 V2000
  -10.6740   -5.9960  -28.2260 C   0  0  0  0  0  0  0  0  0  0  0  0
  -10.3060   -5.4720  -27.0610 C   0  0  0  0  0  0  0  0  0  0  0  0
   -9.9980   -4.0170  -27.0130 C   0  0  0  0  0  0  0  0  0  0  0  0
   -9.8110   -3.3910  -28.0430 O   0  0  0  0  0  0  0  0  0  0  0  0
   -9.9570   -3.4280  -25.7540 N   0  0  0  0  0  0  0  0  0  0  0  0
  -10.7270   -3.9990  -24.6470 C   0  0  0  0  0  0  0  0  0  0  0  0
  -11.4390   -2.8870  -23.9080 C   0  0  0  0  0  0  0  0  0  0  0  0
  -10.3800   -1.9870  -23.3000 C   0  0  0  0  0  0  0  0  0  0  0  0
   -9.3270   -1.5620  -24.3110 C   0  0  0  0  0  0  0  0  0  0  0  0
   -9.1470   -2.2890  -25.5090 C   0  0  0  0  0  0  0  0  0  0  0  0
   -8.1300   -1.9280  -26.4110 C   0  0  0  0  0  0  0  0  0  0  0  0
   -7.2840   -0.8710  -26.1360 C   0  0  0  0  0  0  0  0  0  0  0  0
   -7.4430   -0.1470  -24.9600 C   0  0  0  0  0  0  0  0  0  0  0  0
   -8.4480   -0.5080  -24.0720 C   0  0  0  0  0  0  0  0  0  0  0  0
   -8.5530    0.3830  -22.7910 N   0  3  0  0  0  0  0  0  0  0  0  0
   -9.6900    1.4530  -22.8890 C   0  0  0  0  0  0  0  0  0  0  0  0
   -9.4220    2.3530  -24.0530 C   0  0  0  0  0  0  0  0  0  0  0  0
  -10.0920    2.1710  -25.2630 C   0  0  0  0  0  0  0  0  0  0  0  0
   -9.8340    3.0070  -26.3400 C   0  0  0  0  0  0  0  0  0  0  0  0
   -8.9060    4.0350  -26.2220 C   0  0  0  0  0  0  0  0  0  0  0  0
   -8.2380    4.2070  -25.0150 C   0  0  0  0  0  0  0  0  0  0  0  0
   -7.0800    5.4970  -24.8540 Cl  0  0  0  0  0  0  0  0  0  0  0  0
   -8.4770    3.3730  -23.9320 C   0  0  0  0  0  0  0  0  0  0  0  0
   -7.9400    3.5180  -22.9960 H   0  0  0  0  0  0  0  0  0  0  0  0
   -8.6990    4.6950  -27.0570 H   0  0  0  0  0  0  0  0  0  0  0  0
  -10.3580    2.8540  -27.2790 H   0  0  0  0  0  0  0  0  0  0  0  0
  -10.8010    1.3490  -25.3480 H   0  0  0  0  0  0  0  0  0  0  0  0
   -9.7060    1.9970  -21.9420 H   0  0  0  0  0  0  0  0  0  0  0  0
  -10.6360    0.9210  -23.0100 H   0  0  0  0  0  0  0  0  0  0  0  0
   -8.5700   -0.2970  -21.5140 C   0  0  0  0  0  0  0  0  0  0  0  0
   -9.4330   -0.0320  -20.7110 O   0  0  0  0  0  0  0  0  0  0  0  0
   -7.4690   -1.3230  -21.2590 C   0  0  0  0  0  0  0  0  0  0  0  0
   -6.5530   -0.8190  -20.1720 C   0  0  0  0  0  0  0  0  0  0  0  0
   -6.8600   -1.0410  -18.8560 C   0  0  0  0  0  0  0  0  0  0  0  0
   -6.1710   -0.5420  -17.8000 N   0  0  0  0  0  0  0  0  0  0  0  0
   -5.1470    0.2300  -18.0640 C   0  0  0  0  0  0  0  0  0  0  0  0
   -4.7060    0.5440  -19.3770 C   0  0  0  0  0  0  0  0  0  0  0  0
   -3.5930    1.3910  -19.6130 C   0  0  0  0  0  0  0  0  0  0  0  0
   -3.2000    1.6780  -20.8910 C   0  0  0  0  0  0  0  0  0  0  0  0
   -3.9000    1.1260  -21.9870 C   0  0  0  0  0  0  0  0  0  0  0  0
   -4.9780    0.3000  -21.7830 C   0  0  0  0  0  0  0  0  0  0  0  0
   -5.4220   -0.0040  -20.4690 C   0  0  0  0  0  0  0  0  0  0  0  0
   -5.4820   -0.1320  -22.6470 H   0  0  0  0  0  0  0  0  0  0  0  0
   -3.5760    1.3510  -23.0000 H   0  0  0  0  0  0  0  0  0  0  0  0
   -2.3550    2.3350  -21.0730 H   0  0  0  0  0  0  0  0  0  0  0  0
   -3.0730    1.8160  -18.7580 H   0  0  0  0  0  0  0  0  0  0  0  0
   -4.5990    0.6350  -17.2110 H   0  0  0  0  0  0  0  0  0  0  0  0
   -7.7280   -1.6470  -18.5960 H   0  0  0  0  0  0  0  0  0  0  0  0
   -6.9390   -1.5530  -22.1870 H   0  0  0  0  0  0  0  0  0  0  0  0
   -7.9750   -2.2380  -20.9250 H   0  0  0  0  0  0  0  0  0  0  0  0
   -7.6560    0.9350  -22.8360 H   0  0  0  0  0  0  0  0  0  0  0  0
   -6.8060    0.7110  -24.7570 H   0  0  0  0  0  0  0  0  0  0  0  0
   -6.4930   -0.6060  -26.8400 H   0  0  0  0  0  0  0  0  0  0  0  0
   -8.0050   -2.4900  -27.3260 H   0  0  0  0  0  0  0  0  0  0  0  0
  -10.8400   -1.1220  -22.8120 H   0  0  0  0  0  0  0  0  0  0  0  0
   -9.8670   -2.5540  -22.5100 H   0  0  0  0  0  0  0  0  0  0  0  0
  -12.0690   -2.3260  -24.6030 H   0  0  0  0  0  0  0  0  0  0  0  0
  -12.0950   -3.3090  -23.1390 H   0  0  0  0  0  0  0  0  0  0  0  0
  -11.4430   -4.7140  -25.0480 H   0  0  0  0  0  0  0  0  0  0  0  0
  -10.0730   -4.5470  -23.9520 H   0  0  0  0  0  0  0  0  0  0  0  0
  -10.2250   -6.0720  -26.1610 H   0  0  0  0  0  0  0  0  0  0  0  0
  -10.6260   -5.3680  -29.1100 H   0  0  0  0  0  0  0  0  0  0  0  0
  -10.9890   -7.0270  -28.3290 H   0  0  0  0  0  0  0  0  0  0  0  0
  1  2  2  0  0  0  0
  1 62  1  0  0  0  0
  1 63  1  0  0  0  0
  2  3  1  0  0  0  0
  2 61  1  0  0  0  0
  3  4  2  0  0  0  0
  3  5  1  0  0  0  0
  5  6  1  0  0  0  0
  5 10  1  0  0  0  0
  6  7  1  0  0  0  0
  6 59  1  0  0  0  0
  6 60  1  0  0  0  0
  7  8  1  0  0  0  0
  7 57  1  0  0  0  0
  7 58  1  0  0  0  0
  8  9  1  0  0  0  0
  8 55  1  0  0  0  0
  8 56  1  0  0  0  0
  9 10  2  0  0  0  0
  9 14  1  0  0  0  0
 10 11  1  0  0  0  0
 11 12  2  0  0  0  0
 11 54  1  0  0  0  0
 12 13  1  0  0  0  0
 12 53  1  0  0  0  0
 13 14  2  0  0  0  0
 13 52  1  0  0  0  0
 14 15  1  0  0  0  0
 15 16  1  0  0  0  0
 15 30  1  0  0  0  0
 15 51  1  0  0  0  0
 16 17  1  0  0  0  0
 16 28  1  0  0  0  0
 16 29  1  0  0  0  0
 17 18  2  0  0  0  0
 17 23  1  0  0  0  0
 18 19  1  0  0  0  0
 18 27  1  0  0  0  0
 19 20  2  0  0  0  0
 19 26  1  0  0  0  0
 20 21  1  0  0  0  0
 20 25  1  0  0  0  0
 21 22  1  0  0  0  0
 21 23  2  0  0  0  0
 23 24  1  0  0  0  0
 30 31  2  0  0  0  0
 30 32  1  0  0  0  0
 32 33  1  0  0  0  0
 32 49  1  0  0  0  0
 32 50  1  0  0  0  0
 33 34  2  0  0  0  0
 33 42  1  0  0  0  0
 34 35  1  0  0  0  0
 34 48  1  0  0  0  0
 35 36  2  0  0  0  0
 36 37  1  0  0  0  0
 36 47  1  0  0  0  0
 37 38  2  0  0  0  0
 37 42  1  0  0  0  0
 38 39  1  0  0  0  0
 38 46  1  0  0  0  0
 39 40  2  0  0  0  0
 39 45  1  0  0  0  0
 40 41  1  0  0  0  0
 40 44  1  0  0  0  0
 41 42  2  0  0  0  0
 41 43  1  0  0  0  0
M  CHG  1  15   1
M  END
>  <MODEL>
       1

$$$$
