tmp_first_model_6_62.pdb
 OpenBabel08272519583D

 44 47  0  0  0  0  0  0  0  0999 V2000
   -8.6140    0.7120  -21.2880 O   0  0  0  0  0  0  0  0  0  0  0  0
   -8.5680   -0.4350  -21.7010 C   0  0  0  0  0  0  0  0  0  0  0  0
   -7.4830   -1.4160  -21.2600 C   0  0  0  0  0  0  0  0  0  0  0  0
   -6.6240   -0.8270  -20.1910 C   0  0  0  0  0  0  0  0  0  0  0  0
   -6.9270   -1.0760  -18.8810 C   0  0  0  0  0  0  0  0  0  0  0  0
   -6.2560   -0.5890  -17.8090 N   0  0  0  0  0  0  0  0  0  0  0  0
   -5.2360    0.1940  -18.0660 C   0  0  0  0  0  0  0  0  0  0  0  0
   -4.8130    0.5540  -19.3750 C   0  0  0  0  0  0  0  0  0  0  0  0
   -3.6810    1.3730  -19.5950 C   0  0  0  0  0  0  0  0  0  0  0  0
   -3.3090    1.7180  -20.8640 C   0  0  0  0  0  0  0  0  0  0  0  0
   -4.0680    1.2690  -21.9660 C   0  0  0  0  0  0  0  0  0  0  0  0
   -5.1580    0.4580  -21.7820 C   0  0  0  0  0  0  0  0  0  0  0  0
   -5.5480    0.0600  -20.4760 C   0  0  0  0  0  0  0  0  0  0  0  0
   -5.7100    0.0950  -22.6440 H   0  0  0  0  0  0  0  0  0  0  0  0
   -3.7540    1.5370  -22.9710 H   0  0  0  0  0  0  0  0  0  0  0  0
   -2.4360    2.3400  -21.0310 H   0  0  0  0  0  0  0  0  0  0  0  0
   -3.1200    1.7200  -18.7320 H   0  0  0  0  0  0  0  0  0  0  0  0
   -4.6800    0.5730  -17.2090 H   0  0  0  0  0  0  0  0  0  0  0  0
   -7.7730   -1.7190  -18.6430 H   0  0  0  0  0  0  0  0  0  0  0  0
   -7.9880   -2.3100  -20.8650 H   0  0  0  0  0  0  0  0  0  0  0  0
   -6.8850   -1.7210  -22.1300 H   0  0  0  0  0  0  0  0  0  0  0  0
   -9.4990   -0.9210  -22.5710 N   0  0  0  0  0  0  0  0  0  0  0  0
   -9.5360   -2.2410  -23.1850 C   0  0  0  0  0  0  0  0  0  0  0  0
  -10.8200   -2.9660  -22.7680 C   0  0  0  0  0  0  0  0  0  0  0  0
  -12.0330   -2.0030  -22.7770 C   0  0  0  0  0  0  0  0  0  0  0  0
  -13.2920   -2.6680  -23.3010 C   0  0  0  0  0  0  0  0  0  0  0  0
  -14.6820   -2.1990  -22.9710 C   0  0  0  0  0  0  0  0  0  0  0  0
  -14.1670   -3.4920  -22.4100 C   0  0  0  0  0  0  0  0  0  0  0  0
  -13.9200   -3.4860  -21.3520 H   0  0  0  0  0  0  0  0  0  0  0  0
  -14.5280   -4.4440  -22.7810 H   0  0  0  0  0  0  0  0  0  0  0  0
  -14.8410   -1.3640  -22.2870 H   0  0  0  0  0  0  0  0  0  0  0  0
  -15.3680   -2.2170  -23.8120 H   0  0  0  0  0  0  0  0  0  0  0  0
  -13.2200   -3.0210  -24.3300 H   0  0  0  0  0  0  0  0  0  0  0  0
  -11.7270   -0.7180  -23.5650 C   0  0  0  0  0  0  0  0  0  0  0  0
  -10.4880    0.0300  -23.0600 C   0  0  0  0  0  0  0  0  0  0  0  0
  -10.0540    0.6130  -23.8870 H   0  0  0  0  0  0  0  0  0  0  0  0
  -10.7060    0.7410  -22.2530 H   0  0  0  0  0  0  0  0  0  0  0  0
  -12.5830   -0.0430  -23.4990 H   0  0  0  0  0  0  0  0  0  0  0  0
  -11.6030   -0.9430  -24.6360 H   0  0  0  0  0  0  0  0  0  0  0  0
  -12.2070   -1.7150  -21.7290 H   0  0  0  0  0  0  0  0  0  0  0  0
  -10.7040   -3.3800  -21.7590 H   0  0  0  0  0  0  0  0  0  0  0  0
  -10.9710   -3.8290  -23.4230 H   0  0  0  0  0  0  0  0  0  0  0  0
   -9.5340   -2.1100  -24.2770 H   0  0  0  0  0  0  0  0  0  0  0  0
   -8.6480   -2.8270  -22.9350 H   0  0  0  0  0  0  0  0  0  0  0  0
  1  2  2  0  0  0  0
  2  3  1  0  0  0  0
  2 22  1  0  0  0  0
  3  4  1  0  0  0  0
  3 20  1  0  0  0  0
  3 21  1  0  0  0  0
  4  5  2  0  0  0  0
  4 13  1  0  0  0  0
  5  6  1  0  0  0  0
  5 19  1  0  0  0  0
  6  7  2  0  0  0  0
  7  8  1  0  0  0  0
  7 18  1  0  0  0  0
  8  9  2  0  0  0  0
  8 13  1  0  0  0  0
  9 10  1  0  0  0  0
  9 17  1  0  0  0  0
 10 11  2  0  0  0  0
 10 16  1  0  0  0  0
 11 12  1  0  0  0  0
 11 15  1  0  0  0  0
 12 13  2  0  0  0  0
 12 14  1  0  0  0  0
 22 23  1  0  0  0  0
 22 35  1  0  0  0  0
 23 24  1  0  0  0  0
 23 43  1  0  0  0  0
 23 44  1  0  0  0  0
 24 25  1  0  0  0  0
 24 41  1  0  0  0  0
 24 42  1  0  0  0  0
 25 26  1  0  0  0  0
 25 34  1  0  0  0  0
 25 40  1  0  0  0  0
 26 27  1  0  0  0  0
 26 28  1  0  0  0  0
 26 33  1  0  0  0  0
 27 28  1  0  0  0  0
 27 31  1  0  0  0  0
 27 32  1  0  0  0  0
 28 29  1  0  0  0  0
 28 30  1  0  0  0  0
 34 35  1  0  0  0  0
 34 38  1  0  0  0  0
 34 39  1  0  0  0  0
 35 36  1  0  0  0  0
 35 37  1  0  0  0  0
M  END
>  <MODEL>
       1

$$$$
