tmp_first_model_12_20.pdb
 OpenBabel08272523333D

 66 71  0  0  1  0  0  0  0  0999 V2000
   -7.9750    2.4860  -21.9320 C   0  0  0  0  0  0  0  0  0  0  0  0
   -8.8590    2.1670  -23.0300 N   0  0  0  0  0  0  0  0  0  0  0  0
   -8.4120    1.5570  -24.1450 C   0  0  0  0  0  0  0  0  0  0  0  0
   -7.2240    1.3850  -24.3780 O   0  0  0  0  0  0  0  0  0  0  0  0
   -9.5360    0.9860  -25.0230 C   0  0  0  0  0  0  0  0  0  0  0  0
  -10.1220   -0.1280  -24.3010 N   0  0  0  0  0  0  0  0  0  0  0  0
   -9.2950   -1.3030  -24.1000 C   0  0  0  0  0  0  0  0  0  0  0  0
   -9.4450   -1.9130  -22.6800 C   0  0  2  0  0  0  0  0  0  0  0  0
   -8.8970   -0.9660  -21.5720 C   0  0  0  0  0  0  0  0  0  0  0  0
   -9.5250   -0.1030  -20.9930 O   0  0  0  0  0  0  0  0  0  0  0  0
   -7.5790   -1.2860  -21.3270 N   0  0  0  0  0  0  0  0  0  0  0  0
   -6.8260   -0.7280  -20.2560 C   0  0  0  0  0  0  0  0  0  0  0  0
   -7.1210   -1.0560  -18.9530 C   0  0  0  0  0  0  0  0  0  0  0  0
   -6.3910   -0.6480  -17.8870 N   0  0  0  0  0  0  0  0  0  0  0  0
   -5.3470    0.1140  -18.1100 C   0  0  0  0  0  0  0  0  0  0  0  0
   -4.9450    0.5500  -19.4040 C   0  0  0  0  0  0  0  0  0  0  0  0
   -3.8340    1.4150  -19.6000 C   0  0  0  0  0  0  0  0  0  0  0  0
   -3.5070    1.8480  -20.8560 C   0  0  0  0  0  0  0  0  0  0  0  0
   -4.2500    1.4190  -21.9740 C   0  0  0  0  0  0  0  0  0  0  0  0
   -5.3030    0.5430  -21.8150 C   0  0  0  0  0  0  0  0  0  0  0  0
   -5.6940    0.1080  -20.5200 C   0  0  0  0  0  0  0  0  0  0  0  0
   -5.8630    0.2130  -22.6860 H   0  0  0  0  0  0  0  0  0  0  0  0
   -3.9860    1.7700  -22.9670 H   0  0  0  0  0  0  0  0  0  0  0  0
   -2.6680    2.5220  -21.0020 H   0  0  0  0  0  0  0  0  0  0  0  0
   -3.2630    1.7280  -18.7300 H   0  0  0  0  0  0  0  0  0  0  0  0
   -4.7590    0.4280  -17.2440 H   0  0  0  0  0  0  0  0  0  0  0  0
   -7.9740   -1.6930  -18.7250 H   0  0  0  0  0  0  0  0  0  0  0  0
   -7.1480   -2.4590  -22.0700 C   0  0  0  0  0  0  0  0  0  0  0  0
   -8.4810   -3.1220  -22.4750 C   0  0  2  0  0  0  0  0  0  0  0  0
   -8.3340   -4.1220  -23.6400 C   0  0  0  0  0  0  0  0  0  0  0  0
   -7.4450   -5.3220  -23.3570 C   0  0  0  0  0  0  0  0  0  0  0  0
   -6.0740   -5.2840  -23.6390 C   0  0  0  0  0  0  0  0  0  0  0  0
   -5.2720   -6.4100  -23.4720 C   0  0  0  0  0  0  0  0  0  0  0  0
   -5.8210   -7.5950  -22.9910 C   0  0  0  0  0  0  0  0  0  0  0  0
   -7.1730   -7.6380  -22.6720 C   0  0  0  0  0  0  0  0  0  0  0  0
   -7.9730   -6.5130  -22.8510 C   0  0  0  0  0  0  0  0  0  0  0  0
   -9.0340   -6.5780  -22.6180 H   0  0  0  0  0  0  0  0  0  0  0  0
   -7.6160   -8.5570  -22.2970 H   0  0  0  0  0  0  0  0  0  0  0  0
   -5.2020   -8.4810  -22.8780 H   0  0  0  0  0  0  0  0  0  0  0  0
   -4.2180   -6.3680  -23.7350 H   0  0  0  0  0  0  0  0  0  0  0  0
   -5.6280   -4.3630  -24.0170 H   0  0  0  0  0  0  0  0  0  0  0  0
   -9.3390   -4.4600  -23.9310 H   0  0  0  0  0  0  0  0  0  0  0  0
   -7.9220   -3.5890  -24.5090 H   0  0  0  0  0  0  0  0  0  0  0  0
   -8.8370   -3.6640  -21.5920 H   0  0  0  0  0  0  0  0  0  0  0  0
   -6.5170   -3.1100  -21.4560 H   0  0  0  0  0  0  0  0  0  0  0  0
   -6.5740   -2.1650  -22.9650 H   0  0  0  0  0  0  0  0  0  0  0  0
  -10.9320   -2.0990  -22.4610 C   0  0  0  0  0  0  0  0  0  0  0  0
  -11.4720   -3.1460  -21.7110 C   0  0  0  0  0  0  0  0  0  0  0  0
  -12.7920   -3.0700  -21.2910 C   0  0  0  0  0  0  0  0  0  0  0  0
  -13.4530   -4.2480  -20.2080 Cl  0  0  0  0  0  0  0  0  0  0  0  0
  -13.6200   -1.9990  -21.6290 C   0  0  0  0  0  0  0  0  0  0  0  0
  -13.1040   -0.9840  -22.3980 C   0  0  0  0  0  0  0  0  0  0  0  0
  -11.7860   -1.0490  -22.8320 C   0  0  0  0  0  0  0  0  0  0  0  0
  -11.3060    0.0740  -23.6730 C   0  0  0  0  0  0  0  0  0  0  0  0
  -11.9260    1.1290  -23.7620 O   0  0  0  0  0  0  0  0  0  0  0  0
  -13.6860   -0.1060  -22.6620 H   0  0  0  0  0  0  0  0  0  0  0  0
  -14.6370   -1.9660  -21.2530 H   0  0  0  0  0  0  0  0  0  0  0  0
  -10.8500   -3.9760  -21.3870 H   0  0  0  0  0  0  0  0  0  0  0  0
   -8.2620   -0.9950  -24.2840 H   0  0  0  0  0  0  0  0  0  0  0  0
   -9.5770   -2.0640  -24.8390 H   0  0  0  0  0  0  0  0  0  0  0  0
   -9.1460    0.6300  -25.9780 H   0  0  0  0  0  0  0  0  0  0  0  0
  -10.3350    1.7180  -25.1760 H   0  0  0  0  0  0  0  0  0  0  0  0
   -9.8450    2.0940  -22.8220 H   0  0  0  0  0  0  0  0  0  0  0  0
   -8.2720    3.4340  -21.4920 H   0  0  0  0  0  0  0  0  0  0  0  0
   -8.0110    1.7140  -21.1500 H   0  0  0  0  0  0  0  0  0  0  0  0
   -6.9650    2.5790  -22.3340 H   0  0  0  0  0  0  0  0  0  0  0  0
  1  2  1  0  0  0  0
  1 64  1  0  0  0  0
  1 65  1  0  0  0  0
  1 66  1  0  0  0  0
  2  3  1  0  0  0  0
  2 63  1  0  0  0  0
  3  4  2  0  0  0  0
  3  5  1  0  0  0  0
  5  6  1  0  0  0  0
  5 61  1  0  0  0  0
  5 62  1  0  0  0  0
  6  7  1  0  0  0  0
  6 54  1  0  0  0  0
  7  8  1  0  0  0  0
  7 59  1  0  0  0  0
  7 60  1  0  0  0  0
  8  9  1  1  0  0  0
  8 29  1  0  0  0  0
  8 47  1  0  0  0  0
  9 10  2  0  0  0  0
  9 11  1  0  0  0  0
 11 12  1  0  0  0  0
 11 28  1  0  0  0  0
 12 13  2  0  0  0  0
 12 21  1  0  0  0  0
 13 14  1  0  0  0  0
 13 27  1  0  0  0  0
 14 15  2  0  0  0  0
 15 16  1  0  0  0  0
 15 26  1  0  0  0  0
 16 17  2  0  0  0  0
 16 21  1  0  0  0  0
 17 18  1  0  0  0  0
 17 25  1  0  0  0  0
 18 19  2  0  0  0  0
 18 24  1  0  0  0  0
 19 20  1  0  0  0  0
 19 23  1  0  0  0  0
 20 21  2  0  0  0  0
 20 22  1  0  0  0  0
 28 29  1  0  0  0  0
 28 45  1  0  0  0  0
 28 46  1  0  0  0  0
 29 30  1  0  0  0  0
 29 44  1  1  0  0  0
 30 31  1  0  0  0  0
 30 42  1  0  0  0  0
 30 43  1  0  0  0  0
 31 32  2  0  0  0  0
 31 36  1  0  0  0  0
 32 33  1  0  0  0  0
 32 41  1  0  0  0  0
 33 34  2  0  0  0  0
 33 40  1  0  0  0  0
 34 35  1  0  0  0  0
 34 39  1  0  0  0  0
 35 36  2  0  0  0  0
 35 38  1  0  0  0  0
 36 37  1  0  0  0  0
 47 48  2  0  0  0  0
 47 53  1  0  0  0  0
 48 49  1  0  0  0  0
 48 58  1  0  0  0  0
 49 50  1  0  0  0  0
 49 51  2  0  0  0  0
 51 52  1  0  0  0  0
 51 57  1  0  0  0  0
 52 53  2  0  0  0  0
 52 56  1  0  0  0  0
 53 54  1  0  0  0  0
 54 55  2  0  0  0  0
M  END
>  <MODEL>
       1

$$$$
