tmp_first_model_14_71.pdb
 OpenBabel08282500413D

 50 54  0  0  1  0  0  0  0  0999 V2000
  -10.4450   -1.0460  -23.3760 C   0  0  0  0  0  0  0  0  0  0  0  0
   -9.0020   -1.3950  -23.0010 C   0  0  1  0  0  0  0  0  0  0  0  0
   -8.4220   -0.4690  -21.9170 C   0  0  0  0  0  0  0  0  0  0  0  0
   -7.4120   -1.2920  -21.2790 N   0  0  0  0  0  0  0  0  0  0  0  0
   -6.6010   -0.7980  -20.2310 C   0  0  0  0  0  0  0  0  0  0  0  0
   -6.9290   -1.0300  -18.9200 C   0  0  0  0  0  0  0  0  0  0  0  0
   -6.2600   -0.4900  -17.8730 N   0  0  0  0  0  0  0  0  0  0  0  0
   -5.2240    0.2670  -18.1300 C   0  0  0  0  0  0  0  0  0  0  0  0
   -4.7570    0.5590  -19.4410 C   0  0  0  0  0  0  0  0  0  0  0  0
   -3.6150    1.3690  -19.6700 C   0  0  0  0  0  0  0  0  0  0  0  0
   -3.2060    1.6280  -20.9500 C   0  0  0  0  0  0  0  0  0  0  0  0
   -3.9130    1.0860  -22.0490 C   0  0  0  0  0  0  0  0  0  0  0  0
   -5.0170    0.2940  -21.8510 C   0  0  0  0  0  0  0  0  0  0  0  0
   -5.4670    0.0180  -20.5330 C   0  0  0  0  0  0  0  0  0  0  0  0
   -5.5530   -0.1350  -22.6920 H   0  0  0  0  0  0  0  0  0  0  0  0
   -3.5730    1.2940  -23.0590 H   0  0  0  0  0  0  0  0  0  0  0  0
   -2.3290    2.2460  -21.1290 H   0  0  0  0  0  0  0  0  0  0  0  0
   -3.0810    1.7720  -18.8120 H   0  0  0  0  0  0  0  0  0  0  0  0
   -4.6970    0.6960  -17.2760 H   0  0  0  0  0  0  0  0  0  0  0  0
   -7.7740   -1.6640  -18.6550 H   0  0  0  0  0  0  0  0  0  0  0  0
   -7.5610   -2.6410  -21.5200 C   0  0  0  0  0  0  0  0  0  0  0  0
   -6.8080   -3.4930  -21.0900 O   0  0  0  0  0  0  0  0  0  0  0  0
   -8.7870   -2.8480  -22.4320 C   0  0  1  0  0  0  0  0  0  0  0  0
   -9.9860   -3.2840  -21.5550 C   0  0  0  0  0  0  0  0  0  0  0  0
  -11.1460   -3.6720  -22.3580 N   0  0  0  0  0  0  0  0  0  0  0  0
  -12.5090   -3.4880  -21.8800 C   0  0  0  0  0  0  0  0  0  0  0  0
  -13.3510   -2.6390  -22.7380 C   0  0  0  0  0  0  0  0  0  0  0  0
  -14.0500   -1.9660  -23.3700 N   0  0  0  0  0  0  0  0  0  0  0  0
  -12.5190   -3.0470  -20.8820 H   0  0  0  0  0  0  0  0  0  0  0  0
  -12.9990   -4.4610  -21.8240 H   0  0  0  0  0  0  0  0  0  0  0  0
  -10.9990   -4.5320  -23.4220 C   0  0  0  0  0  0  0  0  0  0  0  0
  -11.9510   -5.0760  -23.9600 O   0  0  0  0  0  0  0  0  0  0  0  0
   -9.5990   -4.7320  -23.9170 C   0  0  0  0  0  0  0  0  0  0  0  0
   -9.3700   -5.7470  -24.8450 C   0  0  0  0  0  0  0  0  0  0  0  0
   -8.1070   -5.9480  -25.3720 C   0  0  0  0  0  0  0  0  0  0  0  0
   -7.0810   -5.1010  -24.9690 C   0  0  0  0  0  0  0  0  0  0  0  0
   -5.8510   -5.2900  -25.4750 F   0  0  0  0  0  0  0  0  0  0  0  0
   -7.2710   -4.1060  -24.0310 C   0  0  0  0  0  0  0  0  0  0  0  0
   -8.5440   -3.9230  -23.4730 C   0  0  0  0  0  0  0  0  0  0  0  0
   -6.4130   -3.5410  -23.6850 H   0  0  0  0  0  0  0  0  0  0  0  0
   -7.9090   -6.7530  -26.0690 H   0  0  0  0  0  0  0  0  0  0  0  0
  -10.2150   -6.3570  -25.1490 H   0  0  0  0  0  0  0  0  0  0  0  0
   -9.6750   -4.1270  -20.9300 H   0  0  0  0  0  0  0  0  0  0  0  0
  -10.2280   -2.4460  -20.8900 H   0  0  0  0  0  0  0  0  0  0  0  0
   -9.2020   -0.1430  -21.2080 H   0  0  0  0  0  0  0  0  0  0  0  0
   -7.9920    0.4530  -22.3230 H   0  0  0  0  0  0  0  0  0  0  0  0
   -8.3780   -1.3300  -23.9020 H   0  0  0  0  0  0  0  0  0  0  0  0
  -10.5420   -0.0640  -23.8510 H   0  0  0  0  0  0  0  0  0  0  0  0
  -11.0830   -1.0370  -22.4850 H   0  0  0  0  0  0  0  0  0  0  0  0
  -10.8540   -1.7970  -24.0600 H   0  0  0  0  0  0  0  0  0  0  0  0
  1  2  1  0  0  0  0
  1 48  1  0  0  0  0
  1 49  1  0  0  0  0
  1 50  1  0  0  0  0
  2  3  1  0  0  0  0
  2 23  1  0  0  0  0
  2 47  1  6  0  0  0
  3  4  1  0  0  0  0
  3 45  1  0  0  0  0
  3 46  1  0  0  0  0
  4  5  1  0  0  0  0
  4 21  1  0  0  0  0
  5  6  2  0  0  0  0
  5 14  1  0  0  0  0
  6  7  1  0  0  0  0
  6 20  1  0  0  0  0
  7  8  2  0  0  0  0
  8  9  1  0  0  0  0
  8 19  1  0  0  0  0
  9 10  2  0  0  0  0
  9 14  1  0  0  0  0
 10 11  1  0  0  0  0
 10 18  1  0  0  0  0
 11 12  2  0  0  0  0
 11 17  1  0  0  0  0
 12 13  1  0  0  0  0
 12 16  1  0  0  0  0
 13 14  2  0  0  0  0
 13 15  1  0  0  0  0
 21 22  2  0  0  0  0
 23 21  1  1  0  0  0
 23 24  1  0  0  0  0
 23 39  1  0  0  0  0
 24 25  1  0  0  0  0
 24 43  1  0  0  0  0
 24 44  1  0  0  0  0
 25 26  1  0  0  0  0
 25 31  1  0  0  0  0
 26 27  1  0  0  0  0
 26 29  1  0  0  0  0
 26 30  1  0  0  0  0
 27 28  3  0  0  0  0
 31 32  2  0  0  0  0
 31 33  1  0  0  0  0
 33 34  2  0  0  0  0
 33 39  1  0  0  0  0
 34 35  1  0  0  0  0
 34 42  1  0  0  0  0
 35 36  2  0  0  0  0
 35 41  1  0  0  0  0
 36 37  1  0  0  0  0
 36 38  1  0  0  0  0
 38 39  2  0  0  0  0
 38 40  1  0  0  0  0
M  END
>  <MODEL>
       1

$$$$
