tmp_first_model_9_67.pdb
 OpenBabel08272521403D

 58 63  0  0  1  0  0  0  0  0999 V2000
  -15.0130    0.2240  -22.8030 C   0  0  0  0  0  0  0  0  0  0  0  0
  -14.3170   -1.0770  -22.6840 C   0  0  0  0  0  0  0  0  0  0  0  0
  -13.7750   -1.8000  -21.5950 C   0  0  0  0  0  0  0  0  0  0  0  0
  -13.2480   -2.9030  -22.1900 C   0  0  0  0  0  0  0  0  0  0  0  0
  -12.3790   -4.0540  -21.8160 C   0  0  0  0  0  0  0  0  0  0  0  0
  -11.0340   -3.9790  -22.3960 N   0  0  0  0  0  0  0  0  0  0  0  0
   -9.9400   -3.3790  -21.6320 C   0  0  0  0  0  0  0  0  0  0  0  0
   -8.7430   -2.8750  -22.4890 C   0  0  2  0  0  0  0  0  0  0  0  0
   -7.5560   -2.6850  -21.5160 C   0  0  0  0  0  0  0  0  0  0  0  0
   -6.8810   -3.5580  -21.0150 O   0  0  0  0  0  0  0  0  0  0  0  0
   -7.3740   -1.3390  -21.2830 N   0  0  0  0  0  0  0  0  0  0  0  0
   -6.5700   -0.8630  -20.2150 C   0  0  0  0  0  0  0  0  0  0  0  0
   -6.8730   -1.1380  -18.9050 C   0  0  0  0  0  0  0  0  0  0  0  0
   -6.2110   -0.6050  -17.8470 N   0  0  0  0  0  0  0  0  0  0  0  0
   -5.2120    0.2060  -18.0890 C   0  0  0  0  0  0  0  0  0  0  0  0
   -4.7600    0.5380  -19.4000 C   0  0  0  0  0  0  0  0  0  0  0  0
   -3.6430    1.3830  -19.6310 C   0  0  0  0  0  0  0  0  0  0  0  0
   -3.2330    1.6550  -20.9090 C   0  0  0  0  0  0  0  0  0  0  0  0
   -3.9240    1.1020  -22.0100 C   0  0  0  0  0  0  0  0  0  0  0  0
   -5.0100    0.2880  -21.8100 C   0  0  0  0  0  0  0  0  0  0  0  0
   -5.4590   -0.0090  -20.4980 C   0  0  0  0  0  0  0  0  0  0  0  0
   -5.5290   -0.1530  -22.6540 H   0  0  0  0  0  0  0  0  0  0  0  0
   -3.5870    1.3160  -23.0220 H   0  0  0  0  0  0  0  0  0  0  0  0
   -2.3750    2.2960  -21.0880 H   0  0  0  0  0  0  0  0  0  0  0  0
   -3.1230    1.8100  -18.7770 H   0  0  0  0  0  0  0  0  0  0  0  0
   -4.6980    0.6330  -17.2250 H   0  0  0  0  0  0  0  0  0  0  0  0
   -7.6920   -1.8100  -18.6610 H   0  0  0  0  0  0  0  0  0  0  0  0
   -8.3870   -0.5080  -21.9110 C   0  0  0  0  0  0  0  0  0  0  0  0
   -8.9570   -1.4080  -23.0230 C   0  0  2  0  0  0  0  0  0  0  0  0
  -10.3810   -1.0270  -23.4250 C   0  0  0  0  0  0  0  0  0  0  0  0
  -10.3860   -0.0360  -23.8900 H   0  0  0  0  0  0  0  0  0  0  0  0
  -11.0560   -0.9970  -22.5610 H   0  0  0  0  0  0  0  0  0  0  0  0
  -10.7920   -1.7490  -24.1350 H   0  0  0  0  0  0  0  0  0  0  0  0
   -8.3050   -1.3100  -23.9040 H   0  0  0  0  0  0  0  0  0  0  0  0
   -7.9350    0.4110  -22.2980 H   0  0  0  0  0  0  0  0  0  0  0  0
   -9.1600   -0.2210  -21.1780 H   0  0  0  0  0  0  0  0  0  0  0  0
   -8.4280   -3.9150  -23.5550 C   0  0  0  0  0  0  0  0  0  0  0  0
   -7.1380   -4.0770  -24.0860 C   0  0  0  0  0  0  0  0  0  0  0  0
   -6.8980   -5.0660  -25.0250 C   0  0  0  0  0  0  0  0  0  0  0  0
   -5.6570   -5.2190  -25.5130 F   0  0  0  0  0  0  0  0  0  0  0  0
   -7.8830   -5.9250  -25.4900 C   0  0  0  0  0  0  0  0  0  0  0  0
   -9.1560   -5.7490  -24.9910 C   0  0  0  0  0  0  0  0  0  0  0  0
   -9.4270   -4.7680  -24.0390 C   0  0  0  0  0  0  0  0  0  0  0  0
  -10.8280   -4.7090  -23.5360 C   0  0  0  0  0  0  0  0  0  0  0  0
  -11.7350   -5.2990  -24.1120 O   0  0  0  0  0  0  0  0  0  0  0  0
   -9.9800   -6.3760  -25.3110 H   0  0  0  0  0  0  0  0  0  0  0  0
   -7.6430   -6.7080  -26.2020 H   0  0  0  0  0  0  0  0  0  0  0  0
   -6.3030   -3.4650  -23.7660 H   0  0  0  0  0  0  0  0  0  0  0  0
   -9.5530   -4.1060  -20.9110 H   0  0  0  0  0  0  0  0  0  0  0  0
  -10.3380   -2.5290  -21.0680 H   0  0  0  0  0  0  0  0  0  0  0  0
  -12.8710   -4.8920  -22.3030 H   0  0  0  0  0  0  0  0  0  0  0  0
  -12.3500   -4.2070  -20.7360 H   0  0  0  0  0  0  0  0  0  0  0  0
  -13.5440   -2.8960  -23.4980 O   0  0  0  0  0  0  0  0  0  0  0  0
  -14.2190   -1.7480  -23.8040 N   0  0  0  0  0  0  0  0  0  0  0  0
  -13.8860   -1.5690  -20.5490 H   0  0  0  0  0  0  0  0  0  0  0  0
  -15.6100    0.0120  -23.6650 H   0  0  0  0  0  0  0  0  0  0  0  0
  -14.3360    1.0550  -23.0190 H   0  0  0  0  0  0  0  0  0  0  0  0
  -15.6630    0.4660  -21.9680 H   0  0  0  0  0  0  0  0  0  0  0  0
  1  2  1  0  0  0  0
  1 56  1  0  0  0  0
  1 57  1  0  0  0  0
  1 58  1  0  0  0  0
  2  3  1  0  0  0  0
  2 54  2  0  0  0  0
  3  4  2  0  0  0  0
  3 55  1  0  0  0  0
  4  5  1  0  0  0  0
  4 53  1  0  0  0  0
  5  6  1  0  0  0  0
  5 51  1  0  0  0  0
  5 52  1  0  0  0  0
  6  7  1  0  0  0  0
  6 44  1  0  0  0  0
  7  8  1  0  0  0  0
  7 49  1  0  0  0  0
  7 50  1  0  0  0  0
  8  9  1  1  0  0  0
  8 29  1  0  0  0  0
  8 37  1  0  0  0  0
  9 10  2  0  0  0  0
  9 11  1  0  0  0  0
 11 12  1  0  0  0  0
 11 28  1  0  0  0  0
 12 13  2  0  0  0  0
 12 21  1  0  0  0  0
 13 14  1  0  0  0  0
 13 27  1  0  0  0  0
 14 15  2  0  0  0  0
 15 16  1  0  0  0  0
 15 26  1  0  0  0  0
 16 17  2  0  0  0  0
 16 21  1  0  0  0  0
 17 18  1  0  0  0  0
 17 25  1  0  0  0  0
 18 19  2  0  0  0  0
 18 24  1  0  0  0  0
 19 20  1  0  0  0  0
 19 23  1  0  0  0  0
 20 21  2  0  0  0  0
 20 22  1  0  0  0  0
 28 29  1  0  0  0  0
 28 35  1  0  0  0  0
 28 36  1  0  0  0  0
 29 30  1  0  0  0  0
 29 34  1  6  0  0  0
 30 31  1  0  0  0  0
 30 32  1  0  0  0  0
 30 33  1  0  0  0  0
 37 38  2  0  0  0  0
 37 43  1  0  0  0  0
 38 39  1  0  0  0  0
 38 48  1  0  0  0  0
 39 40  1  0  0  0  0
 39 41  2  0  0  0  0
 41 42  1  0  0  0  0
 41 47  1  0  0  0  0
 42 43  2  0  0  0  0
 42 46  1  0  0  0  0
 43 44  1  0  0  0  0
 44 45  2  0  0  0  0
 53 54  1  0  0  0  0
M  END
>  <MODEL>
       1

$$$$
