tmp_first_model_13_38.pdb
 OpenBabel08282500103D

 46 48  0  0  1  0  0  0  0  0999 V2000
   -8.0120   -4.5680  -26.4530 C   0  0  0  0  0  0  0  0  0  0  0  0
   -8.6080   -4.9230  -25.0820 C   0  0  1  0  0  0  0  0  0  0  0  0
   -7.5760   -5.5240  -24.1340 C   0  0  0  0  0  0  0  0  0  0  0  0
   -6.6090   -4.5100  -23.5250 C   0  0  1  0  0  0  0  0  0  0  0  0
   -5.4170   -4.1430  -24.4230 C   0  0  0  0  0  0  0  0  0  0  0  0
   -4.6100   -3.7200  -23.8200 H   0  0  0  0  0  0  0  0  0  0  0  0
   -5.6670   -3.4130  -25.1990 H   0  0  0  0  0  0  0  0  0  0  0  0
   -5.0360   -5.0460  -24.9140 H   0  0  0  0  0  0  0  0  0  0  0  0
   -7.3270   -3.3390  -22.9970 N   0  0  0  0  0  0  0  0  0  0  0  0
   -6.7140   -2.7160  -21.9310 C   0  0  0  0  0  0  0  0  0  0  0  0
   -5.6680   -3.1470  -21.4740 O   0  0  0  0  0  0  0  0  0  0  0  0
   -7.3960   -1.4880  -21.2920 C   0  0  0  0  0  0  0  0  0  0  0  0
   -6.5730   -0.8500  -20.2000 C   0  0  0  0  0  0  0  0  0  0  0  0
   -6.8730   -1.0580  -18.8790 C   0  0  0  0  0  0  0  0  0  0  0  0
   -6.1930   -0.5460  -17.8220 N   0  0  0  0  0  0  0  0  0  0  0  0
   -5.1610    0.2150  -18.0790 C   0  0  0  0  0  0  0  0  0  0  0  0
   -4.7200    0.5200  -19.3940 C   0  0  0  0  0  0  0  0  0  0  0  0
   -3.5950    1.3510  -19.6260 C   0  0  0  0  0  0  0  0  0  0  0  0
   -3.1930    1.6290  -20.9070 C   0  0  0  0  0  0  0  0  0  0  0  0
   -3.9020    1.0860  -21.9990 C   0  0  0  0  0  0  0  0  0  0  0  0
   -4.9950    0.2780  -21.7970 C   0  0  0  0  0  0  0  0  0  0  0  0
   -5.4390   -0.0270  -20.4840 C   0  0  0  0  0  0  0  0  0  0  0  0
   -5.5330   -0.1330  -22.6460 H   0  0  0  0  0  0  0  0  0  0  0  0
   -3.5860    1.3120  -23.0140 H   0  0  0  0  0  0  0  0  0  0  0  0
   -2.3370    2.2750  -21.0840 H   0  0  0  0  0  0  0  0  0  0  0  0
   -3.0740    1.7630  -18.7660 H   0  0  0  0  0  0  0  0  0  0  0  0
   -4.6190    0.6240  -17.2250 H   0  0  0  0  0  0  0  0  0  0  0  0
   -7.7240   -1.6770  -18.5950 H   0  0  0  0  0  0  0  0  0  0  0  0
   -7.6590   -0.7520  -22.0640 H   0  0  0  0  0  0  0  0  0  0  0  0
   -8.3530   -1.8230  -20.8660 H   0  0  0  0  0  0  0  0  0  0  0  0
   -8.4050   -2.7070  -23.7670 C   0  0  1  0  0  0  0  0  0  0  0  0
   -7.9320   -1.6630  -24.7910 C   0  0  0  0  0  0  0  0  0  0  0  0
   -7.4370   -2.0990  -25.6660 H   0  0  0  0  0  0  0  0  0  0  0  0
   -8.8010   -1.1090  -25.1630 H   0  0  0  0  0  0  0  0  0  0  0  0
   -7.2360   -0.9410  -24.3510 H   0  0  0  0  0  0  0  0  0  0  0  0
   -9.3270   -3.7650  -24.3860 C   0  0  0  0  0  0  0  0  0  0  0  0
   -9.9680   -4.1720  -23.5940 H   0  0  0  0  0  0  0  0  0  0  0  0
   -9.9800   -3.2630  -25.1110 H   0  0  0  0  0  0  0  0  0  0  0  0
   -9.0110   -2.1760  -23.0240 H   0  0  0  0  0  0  0  0  0  0  0  0
   -6.1830   -4.9780  -22.6360 H   0  0  0  0  0  0  0  0  0  0  0  0
   -8.0950   -6.0420  -23.3180 H   0  0  0  0  0  0  0  0  0  0  0  0
   -6.9900   -6.2750  -24.6760 H   0  0  0  0  0  0  0  0  0  0  0  0
   -9.3710   -5.6860  -25.2820 H   0  0  0  0  0  0  0  0  0  0  0  0
   -7.9880   -5.4470  -27.1180 H   0  0  0  0  0  0  0  0  0  0  0  0
   -8.6120   -3.7810  -26.9370 H   0  0  0  0  0  0  0  0  0  0  0  0
   -6.9950   -4.1890  -26.3810 H   0  0  0  0  0  0  0  0  0  0  0  0
  1  2  1  0  0  0  0
  1 44  1  0  0  0  0
  1 45  1  0  0  0  0
  1 46  1  0  0  0  0
  2  3  1  0  0  0  0
  2 36  1  0  0  0  0
  2 43  1  6  0  0  0
  3  4  1  0  0  0  0
  3 41  1  0  0  0  0
  3 42  1  0  0  0  0
  4  5  1  0  0  0  0
  4  9  1  0  0  0  0
  4 40  1  1  0  0  0
  5  6  1  0  0  0  0
  5  7  1  0  0  0  0
  5  8  1  0  0  0  0
  9 10  1  0  0  0  0
  9 31  1  0  0  0  0
 10 11  2  0  0  0  0
 10 12  1  0  0  0  0
 12 13  1  0  0  0  0
 12 29  1  0  0  0  0
 12 30  1  0  0  0  0
 13 14  2  0  0  0  0
 13 22  1  0  0  0  0
 14 15  1  0  0  0  0
 14 28  1  0  0  0  0
 15 16  2  0  0  0  0
 16 17  1  0  0  0  0
 16 27  1  0  0  0  0
 17 18  2  0  0  0  0
 17 22  1  0  0  0  0
 18 19  1  0  0  0  0
 18 26  1  0  0  0  0
 19 20  2  0  0  0  0
 19 25  1  0  0  0  0
 20 21  1  0  0  0  0
 20 24  1  0  0  0  0
 21 22  2  0  0  0  0
 21 23  1  0  0  0  0
 31 32  1  0  0  0  0
 31 36  1  0  0  0  0
 31 39  1  1  0  0  0
 32 33  1  0  0  0  0
 32 34  1  0  0  0  0
 32 35  1  0  0  0  0
 36 37  1  0  0  0  0
 36 38  1  0  0  0  0
M  END
>  <MODEL>
       1

$$$$
