tmp_first_model_8_30.pdb
 OpenBabel08272521063D

 58 63  0  0  1  0  0  0  0  0999 V2000
  -10.3920   -0.9340  -23.5340 C   0  0  0  0  0  0  0  0  0  0  0  0
   -9.0090   -1.4090  -23.1050 C   0  0  1  0  0  0  0  0  0  0  0  0
   -8.4710   -0.5310  -21.9620 C   0  0  0  0  0  0  0  0  0  0  0  0
   -7.4910   -1.3750  -21.3030 N   0  0  0  0  0  0  0  0  0  0  0  0
   -6.6760   -0.9080  -20.2390 C   0  0  0  0  0  0  0  0  0  0  0  0
   -6.9300   -1.2540  -18.9360 C   0  0  0  0  0  0  0  0  0  0  0  0
   -6.2600   -0.7530  -17.8650 N   0  0  0  0  0  0  0  0  0  0  0  0
   -5.2920    0.1010  -18.0900 C   0  0  0  0  0  0  0  0  0  0  0  0
   -4.8920    0.5110  -19.3910 C   0  0  0  0  0  0  0  0  0  0  0  0
   -3.8050    1.4040  -19.5870 C   0  0  0  0  0  0  0  0  0  0  0  0
   -3.4340    1.7630  -20.8530 C   0  0  0  0  0  0  0  0  0  0  0  0
   -4.1320    1.2550  -21.9730 C   0  0  0  0  0  0  0  0  0  0  0  0
   -5.1860    0.3900  -21.8050 C   0  0  0  0  0  0  0  0  0  0  0  0
   -5.5990    0.0010  -20.5040 C   0  0  0  0  0  0  0  0  0  0  0  0
   -5.7020   -0.0140  -22.6690 H   0  0  0  0  0  0  0  0  0  0  0  0
   -3.8220    1.5430  -22.9730 H   0  0  0  0  0  0  0  0  0  0  0  0
   -2.6030    2.4460  -21.0100 H   0  0  0  0  0  0  0  0  0  0  0  0
   -3.2850    1.7940  -18.7140 H   0  0  0  0  0  0  0  0  0  0  0  0
   -4.7610    0.5030  -17.2240 H   0  0  0  0  0  0  0  0  0  0  0  0
   -7.7180   -1.9650  -18.6980 H   0  0  0  0  0  0  0  0  0  0  0  0
   -7.7290   -2.7160  -21.5220 C   0  0  0  0  0  0  0  0  0  0  0  0
   -7.1260   -3.6160  -20.9670 O   0  0  0  0  0  0  0  0  0  0  0  0
   -8.8580   -2.8870  -22.5720 C   0  0  1  0  0  0  0  0  0  0  0  0
  -10.1070   -3.4140  -21.8190 C   0  0  0  0  0  0  0  0  0  0  0  0
  -11.1360   -3.9840  -22.6870 N   0  0  0  0  0  0  0  0  0  0  0  0
  -12.5320   -3.9530  -22.2400 C   0  0  0  0  0  0  0  0  0  0  0  0
  -13.2820   -2.7270  -22.6800 C   0  0  0  0  0  0  0  0  0  0  0  0
  -13.9120   -2.6540  -23.8790 C   0  0  0  0  0  0  0  0  0  0  0  0
  -14.3030   -1.3840  -24.4430 C   0  0  0  0  0  0  0  0  0  0  0  0
  -14.6580   -1.1860  -25.5900 O   0  0  0  0  0  0  0  0  0  0  0  0
  -14.2540   -0.3550  -23.4860 N   0  0  0  0  0  0  0  0  0  0  0  0
  -13.7640   -0.5730  -22.2320 C   0  0  0  0  0  0  0  0  0  0  0  0
  -13.2620   -1.6780  -21.7920 N   0  0  0  0  0  0  0  0  0  0  0  0
  -13.7620    0.2920  -21.6010 H   0  0  0  0  0  0  0  0  0  0  0  0
  -14.6620    0.5480  -23.7080 H   0  0  0  0  0  0  0  0  0  0  0  0
  -14.1410   -3.5360  -24.4560 H   0  0  0  0  0  0  0  0  0  0  0  0
  -12.5440   -3.9760  -21.1500 H   0  0  0  0  0  0  0  0  0  0  0  0
  -13.0200   -4.8390  -22.6440 H   0  0  0  0  0  0  0  0  0  0  0  0
  -10.8420   -4.7580  -23.7820 C   0  0  0  0  0  0  0  0  0  0  0  0
  -11.7070   -5.3530  -24.4050 O   0  0  0  0  0  0  0  0  0  0  0  0
   -9.4020   -4.8060  -24.1810 C   0  0  0  0  0  0  0  0  0  0  0  0
   -9.0160   -5.7410  -25.1450 C   0  0  0  0  0  0  0  0  0  0  0  0
   -7.6920   -5.8720  -25.5190 C   0  0  0  0  0  0  0  0  0  0  0  0
   -6.7660   -5.0300  -24.9160 C   0  0  0  0  0  0  0  0  0  0  0  0
   -5.4730   -5.1660  -25.2510 F   0  0  0  0  0  0  0  0  0  0  0  0
   -7.1300   -4.0530  -24.0090 C   0  0  0  0  0  0  0  0  0  0  0  0
   -8.4660   -3.9330  -23.6090 C   0  0  0  0  0  0  0  0  0  0  0  0
   -6.3640   -3.4060  -23.5970 H   0  0  0  0  0  0  0  0  0  0  0  0
   -7.3690   -6.6060  -26.2520 H   0  0  0  0  0  0  0  0  0  0  0  0
   -9.7890   -6.3600  -25.5920 H   0  0  0  0  0  0  0  0  0  0  0  0
  -10.5750   -2.6040  -21.2520 H   0  0  0  0  0  0  0  0  0  0  0  0
   -9.7590   -4.1650  -21.0980 H   0  0  0  0  0  0  0  0  0  0  0  0
   -9.2790   -0.2650  -21.2600 H   0  0  0  0  0  0  0  0  0  0  0  0
   -8.0290    0.4090  -22.3040 H   0  0  0  0  0  0  0  0  0  0  0  0
   -8.3240   -1.3240  -23.9590 H   0  0  0  0  0  0  0  0  0  0  0  0
  -11.0590   -0.8630  -22.6690 H   0  0  0  0  0  0  0  0  0  0  0  0
  -10.8530   -1.6050  -24.2640 H   0  0  0  0  0  0  0  0  0  0  0  0
  -10.3210    0.0670  -23.9780 H   0  0  0  0  0  0  0  0  0  0  0  0
  1  2  1  0  0  0  0
  1 56  1  0  0  0  0
  1 57  1  0  0  0  0
  1 58  1  0  0  0  0
  2  3  1  0  0  0  0
  2 23  1  0  0  0  0
  2 55  1  6  0  0  0
  3  4  1  0  0  0  0
  3 53  1  0  0  0  0
  3 54  1  0  0  0  0
  4  5  1  0  0  0  0
  4 21  1  0  0  0  0
  5  6  2  0  0  0  0
  5 14  1  0  0  0  0
  6  7  1  0  0  0  0
  6 20  1  0  0  0  0
  7  8  2  0  0  0  0
  8  9  1  0  0  0  0
  8 19  1  0  0  0  0
  9 10  2  0  0  0  0
  9 14  1  0  0  0  0
 10 11  1  0  0  0  0
 10 18  1  0  0  0  0
 11 12  2  0  0  0  0
 11 17  1  0  0  0  0
 12 13  1  0  0  0  0
 12 16  1  0  0  0  0
 13 14  2  0  0  0  0
 13 15  1  0  0  0  0
 21 22  2  0  0  0  0
 23 21  1  1  0  0  0
 23 24  1  0  0  0  0
 23 47  1  0  0  0  0
 24 25  1  0  0  0  0
 24 51  1  0  0  0  0
 24 52  1  0  0  0  0
 25 26  1  0  0  0  0
 25 39  1  0  0  0  0
 26 27  1  0  0  0  0
 26 37  1  0  0  0  0
 26 38  1  0  0  0  0
 27 28  2  0  0  0  0
 27 33  1  0  0  0  0
 28 29  1  0  0  0  0
 28 36  1  0  0  0  0
 29 30  2  0  0  0  0
 29 31  1  0  0  0  0
 31 32  1  0  0  0  0
 31 35  1  0  0  0  0
 32 33  2  0  0  0  0
 32 34  1  0  0  0  0
 39 40  2  0  0  0  0
 39 41  1  0  0  0  0
 41 42  2  0  0  0  0
 41 47  1  0  0  0  0
 42 43  1  0  0  0  0
 42 50  1  0  0  0  0
 43 44  2  0  0  0  0
 43 49  1  0  0  0  0
 44 45  1  0  0  0  0
 44 46  1  0  0  0  0
 46 47  2  0  0  0  0
 46 48  1  0  0  0  0
M  END
>  <MODEL>
       1

$$$$
