tmp_first_model_20_80.pdb
 OpenBabel08282503553D

 60 65  0  0  1  0  0  0  0  0999 V2000
   -8.7980   -7.9840  -25.9040 C   0  0  0  0  0  0  0  0  0  0  0  0
   -8.0810   -7.0100  -25.1110 N   0  0  0  0  0  0  0  0  0  0  0  0
   -7.3440   -7.2650  -24.0080 C   0  0  0  0  0  0  0  0  0  0  0  0
   -7.3600   -8.3210  -23.3940 O   0  0  0  0  0  0  0  0  0  0  0  0
   -6.5170   -6.0950  -23.5130 C   0  0  0  0  0  0  0  0  0  0  0  0
   -6.8790   -4.7930  -23.9660 N   0  0  0  0  0  0  0  0  0  0  0  0
   -8.0400   -4.1810  -23.3660 C   0  0  0  0  0  0  0  0  0  0  0  0
   -7.8460   -2.6720  -23.1660 C   0  0  2  0  0  0  0  0  0  0  0  0
   -6.8330   -2.4040  -22.0400 C   0  0  0  0  0  0  0  0  0  0  0  0
   -5.7360   -2.9100  -21.8990 O   0  0  0  0  0  0  0  0  0  0  0  0
   -7.3540   -1.4630  -21.1940 N   0  0  0  0  0  0  0  0  0  0  0  0
   -6.5730   -0.8570  -20.1820 C   0  0  0  0  0  0  0  0  0  0  0  0
   -6.9150   -1.0480  -18.8690 C   0  0  0  0  0  0  0  0  0  0  0  0
   -6.2330   -0.5350  -17.8150 N   0  0  0  0  0  0  0  0  0  0  0  0
   -5.1840    0.2020  -18.0900 C   0  0  0  0  0  0  0  0  0  0  0  0
   -4.7380    0.5050  -19.4080 C   0  0  0  0  0  0  0  0  0  0  0  0
   -3.6140    1.3420  -19.6380 C   0  0  0  0  0  0  0  0  0  0  0  0
   -3.2310    1.6560  -20.9100 C   0  0  0  0  0  0  0  0  0  0  0  0
   -3.9540    1.1490  -22.0170 C   0  0  0  0  0  0  0  0  0  0  0  0
   -5.0420    0.3330  -21.8280 C   0  0  0  0  0  0  0  0  0  0  0  0
   -5.4530   -0.0250  -20.5070 C   0  0  0  0  0  0  0  0  0  0  0  0
   -5.5980   -0.0290  -22.6950 H   0  0  0  0  0  0  0  0  0  0  0  0
   -3.6470    1.4210  -23.0230 H   0  0  0  0  0  0  0  0  0  0  0  0
   -2.3780    2.3070  -21.0870 H   0  0  0  0  0  0  0  0  0  0  0  0
   -3.0810    1.7360  -18.7770 H   0  0  0  0  0  0  0  0  0  0  0  0
   -4.6290    0.6120  -17.2450 H   0  0  0  0  0  0  0  0  0  0  0  0
   -7.7720   -1.6760  -18.6260 H   0  0  0  0  0  0  0  0  0  0  0  0
   -8.6700   -0.9960  -21.5590 C   0  0  0  0  0  0  0  0  0  0  0  0
   -9.1410   -1.9640  -22.6640 C   0  0  2  0  0  0  0  0  0  0  0  0
  -10.2540   -2.8790  -22.1250 C   0  0  0  0  0  0  0  0  0  0  0  0
  -11.0990   -2.2790  -21.7670 H   0  0  0  0  0  0  0  0  0  0  0  0
  -10.6450   -3.5480  -22.8970 H   0  0  0  0  0  0  0  0  0  0  0  0
   -9.9060   -3.4910  -21.2840 H   0  0  0  0  0  0  0  0  0  0  0  0
   -9.5810   -1.4160  -23.5020 H   0  0  0  0  0  0  0  0  0  0  0  0
   -9.3360   -1.0340  -20.7010 H   0  0  0  0  0  0  0  0  0  0  0  0
   -8.6350    0.0490  -21.8910 H   0  0  0  0  0  0  0  0  0  0  0  0
   -7.3090   -2.0800  -24.4650 C   0  0  0  0  0  0  0  0  0  0  0  0
   -7.4620   -0.7170  -24.7480 C   0  0  0  0  0  0  0  0  0  0  0  0
   -6.9280   -0.1870  -25.9110 C   0  0  0  0  0  0  0  0  0  0  0  0
   -7.1240    1.5170  -26.2350 Cl  0  0  0  0  0  0  0  0  0  0  0  0
   -6.2300   -0.9770  -26.8260 C   0  0  0  0  0  0  0  0  0  0  0  0
   -6.0500   -2.3150  -26.5380 C   0  0  0  0  0  0  0  0  0  0  0  0
   -6.5670   -2.8560  -25.3620 C   0  0  0  0  0  0  0  0  0  0  0  0
   -6.2570   -4.2800  -25.0750 C   0  0  0  0  0  0  0  0  0  0  0  0
   -5.4960   -4.9490  -25.7610 O   0  0  0  0  0  0  0  0  0  0  0  0
   -5.4920   -2.9730  -27.1990 H   0  0  0  0  0  0  0  0  0  0  0  0
   -5.8240   -0.5250  -27.7240 H   0  0  0  0  0  0  0  0  0  0  0  0
   -7.9940   -0.0570  -24.0680 H   0  0  0  0  0  0  0  0  0  0  0  0
   -8.2160   -4.6660  -22.4070 H   0  0  0  0  0  0  0  0  0  0  0  0
   -8.9210   -4.3290  -24.0040 H   0  0  0  0  0  0  0  0  0  0  0  0
   -6.1420   -6.2440  -22.0640 C   0  0  0  0  0  0  0  0  0  0  0  0
   -5.0890   -6.3410  -23.1180 C   0  0  0  0  0  0  0  0  0  0  0  0
   -4.6750   -7.3080  -23.3780 H   0  0  0  0  0  0  0  0  0  0  0  0
   -4.4030   -5.5050  -23.2290 H   0  0  0  0  0  0  0  0  0  0  0  0
   -6.1800   -5.3400  -21.4640 H   0  0  0  0  0  0  0  0  0  0  0  0
   -6.4810   -7.1760  -21.6250 H   0  0  0  0  0  0  0  0  0  0  0  0
   -7.9570   -6.1130  -25.5440 H   0  0  0  0  0  0  0  0  0  0  0  0
   -8.1270   -8.7230  -26.3380 H   0  0  0  0  0  0  0  0  0  0  0  0
   -9.5530   -8.5150  -25.3200 H   0  0  0  0  0  0  0  0  0  0  0  0
   -9.2830   -7.4520  -26.7250 H   0  0  0  0  0  0  0  0  0  0  0  0
  1  2  1  0  0  0  0
  1 58  1  0  0  0  0
  1 59  1  0  0  0  0
  1 60  1  0  0  0  0
  2  3  1  0  0  0  0
  2 57  1  0  0  0  0
  3  4  2  0  0  0  0
  3  5  1  0  0  0  0
  5  6  1  0  0  0  0
  5 51  1  0  0  0  0
  5 52  1  0  0  0  0
  6  7  1  0  0  0  0
  6 44  1  0  0  0  0
  7  8  1  0  0  0  0
  7 49  1  0  0  0  0
  7 50  1  0  0  0  0
  8  9  1  1  0  0  0
  8 29  1  0  0  0  0
  8 37  1  0  0  0  0
  9 10  2  0  0  0  0
  9 11  1  0  0  0  0
 11 12  1  0  0  0  0
 11 28  1  0  0  0  0
 12 13  2  0  0  0  0
 12 21  1  0  0  0  0
 13 14  1  0  0  0  0
 13 27  1  0  0  0  0
 14 15  2  0  0  0  0
 15 16  1  0  0  0  0
 15 26  1  0  0  0  0
 16 17  2  0  0  0  0
 16 21  1  0  0  0  0
 17 18  1  0  0  0  0
 17 25  1  0  0  0  0
 18 19  2  0  0  0  0
 18 24  1  0  0  0  0
 19 20  1  0  0  0  0
 19 23  1  0  0  0  0
 20 21  2  0  0  0  0
 20 22  1  0  0  0  0
 28 29  1  0  0  0  0
 28 35  1  0  0  0  0
 28 36  1  0  0  0  0
 29 30  1  0  0  0  0
 29 34  1  6  0  0  0
 30 31  1  0  0  0  0
 30 32  1  0  0  0  0
 30 33  1  0  0  0  0
 37 38  2  0  0  0  0
 37 43  1  0  0  0  0
 38 39  1  0  0  0  0
 38 48  1  0  0  0  0
 39 40  1  0  0  0  0
 39 41  2  0  0  0  0
 41 42  1  0  0  0  0
 41 47  1  0  0  0  0
 42 43  2  0  0  0  0
 42 46  1  0  0  0  0
 43 44  1  0  0  0  0
 44 45  2  0  0  0  0
 51 52  1  0  0  0  0
 51 55  1  0  0  0  0
 51 56  1  0  0  0  0
 52 53  1  0  0  0  0
 52 54  1  0  0  0  0
M  END
>  <MODEL>
       1

$$$$
