tmp_first_model_10_9.pdb
 OpenBabel08272522163D

 41 43  0  0  1  0  0  0  0  0999 V2000
  -13.1800   -2.9340  -22.8920 C   0  0  0  0  0  0  0  0  0  0  0  0
  -11.9720   -2.0510  -23.2120 C   0  0  1  0  0  0  0  0  0  0  0  0
  -12.1580   -0.6650  -22.6340 C   0  0  0  0  0  0  0  0  0  0  0  0
  -11.3090    0.3420  -22.8170 C   0  0  0  0  0  0  0  0  0  0  0  0
  -10.0000    0.2060  -23.5660 C   0  0  0  0  0  0  0  0  0  0  0  0
   -9.0910   -0.7840  -23.0020 N   0  0  0  0  0  0  0  0  0  0  0  0
   -8.3800   -0.3870  -21.8930 C   0  0  0  0  0  0  0  0  0  0  0  0
   -8.4730    0.7420  -21.4350 O   0  0  0  0  0  0  0  0  0  0  0  0
   -7.4330   -1.4150  -21.2760 C   0  0  0  0  0  0  0  0  0  0  0  0
   -6.6050   -0.8190  -20.1750 C   0  0  0  0  0  0  0  0  0  0  0  0
   -6.9040   -1.0550  -18.8570 C   0  0  0  0  0  0  0  0  0  0  0  0
   -6.2130   -0.5750  -17.7890 N   0  0  0  0  0  0  0  0  0  0  0  0
   -5.1930    0.2100  -18.0520 C   0  0  0  0  0  0  0  0  0  0  0  0
   -4.7980    0.5860  -19.3670 C   0  0  0  0  0  0  0  0  0  0  0  0
   -3.6710    1.4180  -19.6030 C   0  0  0  0  0  0  0  0  0  0  0  0
   -3.3640    1.8220  -20.8780 C   0  0  0  0  0  0  0  0  0  0  0  0
   -4.1750    1.4180  -21.9660 C   0  0  0  0  0  0  0  0  0  0  0  0
   -5.1610    0.4790  -21.7740 C   0  0  0  0  0  0  0  0  0  0  0  0
   -5.5300    0.0750  -20.4600 C   0  0  0  0  0  0  0  0  0  0  0  0
   -5.6930    0.0620  -22.6240 H   0  0  0  0  0  0  0  0  0  0  0  0
   -3.9550    1.7820  -22.9700 H   0  0  0  0  0  0  0  0  0  0  0  0
   -2.5030    2.4630  -21.0570 H   0  0  0  0  0  0  0  0  0  0  0  0
   -3.0710    1.7170  -18.7470 H   0  0  0  0  0  0  0  0  0  0  0  0
   -4.6280    0.5970  -17.2030 H   0  0  0  0  0  0  0  0  0  0  0  0
   -7.7550   -1.6830  -18.5950 H   0  0  0  0  0  0  0  0  0  0  0  0
   -6.8140   -1.8750  -22.0600 H   0  0  0  0  0  0  0  0  0  0  0  0
   -8.0650   -2.2160  -20.8750 H   0  0  0  0  0  0  0  0  0  0  0  0
   -9.3790   -2.1640  -23.3640 C   0  0  0  0  0  0  0  0  0  0  0  0
  -10.6650   -2.7240  -22.7420 C   0  0  0  0  0  0  0  0  0  0  0  0
  -10.6100   -2.6630  -21.6450 H   0  0  0  0  0  0  0  0  0  0  0  0
  -10.7250   -3.7860  -23.0050 H   0  0  0  0  0  0  0  0  0  0  0  0
   -8.5170   -2.7930  -23.1220 H   0  0  0  0  0  0  0  0  0  0  0  0
   -9.4720   -2.1930  -24.4580 H   0  0  0  0  0  0  0  0  0  0  0  0
  -10.1790   -0.1080  -24.6040 H   0  0  0  0  0  0  0  0  0  0  0  0
   -9.4700    1.1610  -23.5690 H   0  0  0  0  0  0  0  0  0  0  0  0
  -11.5370    1.3280  -22.4110 H   0  0  0  0  0  0  0  0  0  0  0  0
  -13.0640   -0.4900  -22.0490 H   0  0  0  0  0  0  0  0  0  0  0  0
  -11.9010   -1.9520  -24.3100 H   0  0  0  0  0  0  0  0  0  0  0  0
  -13.0980   -3.9170  -23.3660 H   0  0  0  0  0  0  0  0  0  0  0  0
  -13.2650   -3.0950  -21.8110 H   0  0  0  0  0  0  0  0  0  0  0  0
  -14.1130   -2.4750  -23.2350 H   0  0  0  0  0  0  0  0  0  0  0  0
  1  2  1  0  0  0  0
  1 39  1  0  0  0  0
  1 40  1  0  0  0  0
  1 41  1  0  0  0  0
  2  3  1  0  0  0  0
  2 29  1  0  0  0  0
  2 38  1  6  0  0  0
  3  4  2  0  0  0  0
  3 37  1  0  0  0  0
  4  5  1  0  0  0  0
  4 36  1  0  0  0  0
  5  6  1  0  0  0  0
  5 34  1  0  0  0  0
  5 35  1  0  0  0  0
  6  7  1  0  0  0  0
  6 28  1  0  0  0  0
  7  8  2  0  0  0  0
  7  9  1  0  0  0  0
  9 10  1  0  0  0  0
  9 26  1  0  0  0  0
  9 27  1  0  0  0  0
 10 11  2  0  0  0  0
 10 19  1  0  0  0  0
 11 12  1  0  0  0  0
 11 25  1  0  0  0  0
 12 13  2  0  0  0  0
 13 14  1  0  0  0  0
 13 24  1  0  0  0  0
 14 15  2  0  0  0  0
 14 19  1  0  0  0  0
 15 16  1  0  0  0  0
 15 23  1  0  0  0  0
 16 17  2  0  0  0  0
 16 22  1  0  0  0  0
 17 18  1  0  0  0  0
 17 21  1  0  0  0  0
 18 19  2  0  0  0  0
 18 20  1  0  0  0  0
 28 29  1  0  0  0  0
 28 32  1  0  0  0  0
 28 33  1  0  0  0  0
 29 30  1  0  0  0  0
 29 31  1  0  0  0  0
M  END
>  <MODEL>
       1

$$$$
