tmp_first_model_19_24.pdb
 OpenBabel08282503233D

 65 70  0  0  1  0  0  0  0  0999 V2000
   -5.9550   -7.5240  -25.2510 O   0  0  0  0  0  0  0  0  0  0  0  0
   -5.8830   -7.0890  -24.1150 C   0  0  0  0  0  0  0  0  0  0  0  0
   -7.0740   -6.4340  -23.4270 C   0  0  0  0  0  0  0  0  0  0  0  0
   -7.0970   -4.9830  -23.6920 N   0  3  1  0  0  0  0  0  0  0  0  0
   -7.2230   -4.7280  -25.1830 C   0  0  0  0  0  0  0  0  0  0  0  0
   -7.1850   -3.2570  -25.4940 C   0  0  0  0  0  0  0  0  0  0  0  0
   -6.8340   -2.7870  -26.7620 C   0  0  0  0  0  0  0  0  0  0  0  0
   -6.7800   -1.4260  -27.0370 C   0  0  0  0  0  0  0  0  0  0  0  0
   -7.0820   -0.5250  -26.0210 C   0  0  0  0  0  0  0  0  0  0  0  0
   -6.9870    1.1880  -26.3300 Cl  0  0  0  0  0  0  0  0  0  0  0  0
   -7.4710   -0.9750  -24.7690 C   0  0  0  0  0  0  0  0  0  0  0  0
   -7.5680   -2.3480  -24.5090 C   0  0  0  0  0  0  0  0  0  0  0  0
   -8.0230   -2.8150  -23.1400 C   0  0  2  0  0  0  0  0  0  0  0  0
   -9.2170   -2.0420  -22.5770 C   0  0  0  0  0  0  0  0  0  0  0  0
   -8.6640   -1.1370  -21.4710 C   0  0  0  0  0  0  0  0  0  0  0  0
   -7.2790   -1.5430  -21.3040 N   0  0  0  0  0  0  0  0  0  0  0  0
   -6.5010   -0.9640  -20.2760 C   0  0  0  0  0  0  0  0  0  0  0  0
   -6.8980   -1.1200  -18.9730 C   0  0  0  0  0  0  0  0  0  0  0  0
   -6.2590   -0.5940  -17.9050 N   0  0  0  0  0  0  0  0  0  0  0  0
   -5.2160    0.1640  -18.1460 C   0  0  0  0  0  0  0  0  0  0  0  0
   -4.7310    0.4530  -19.4520 C   0  0  0  0  0  0  0  0  0  0  0  0
   -3.6190    1.3110  -19.6510 C   0  0  0  0  0  0  0  0  0  0  0  0
   -3.2230    1.6450  -20.9160 C   0  0  0  0  0  0  0  0  0  0  0  0
   -3.9190    1.1380  -22.0380 C   0  0  0  0  0  0  0  0  0  0  0  0
   -4.9850    0.2850  -21.8770 C   0  0  0  0  0  0  0  0  0  0  0  0
   -5.4040   -0.0950  -20.5680 C   0  0  0  0  0  0  0  0  0  0  0  0
   -5.5200   -0.0920  -22.7480 H   0  0  0  0  0  0  0  0  0  0  0  0
   -3.6120    1.4380  -23.0350 H   0  0  0  0  0  0  0  0  0  0  0  0
   -2.3860    2.3210  -21.0650 H   0  0  0  0  0  0  0  0  0  0  0  0
   -3.1210    1.7180  -18.7750 H   0  0  0  0  0  0  0  0  0  0  0  0
   -4.7030    0.5930  -17.2850 H   0  0  0  0  0  0  0  0  0  0  0  0
   -7.7810   -1.7160  -18.7470 H   0  0  0  0  0  0  0  0  0  0  0  0
   -6.8880   -2.5400  -22.1520 C   0  0  0  0  0  0  0  0  0  0  0  0
   -5.8380   -3.1660  -22.1470 O   0  0  0  0  0  0  0  0  0  0  0  0
   -9.2060   -1.3010  -20.5480 H   0  0  0  0  0  0  0  0  0  0  0  0
   -8.7340   -0.0710  -21.7150 H   0  0  0  0  0  0  0  0  0  0  0  0
   -9.9330   -2.7530  -22.1510 H   0  0  0  0  0  0  0  0  0  0  0  0
   -9.7510   -1.4820  -23.3480 H   0  0  0  0  0  0  0  0  0  0  0  0
   -8.2580   -4.3220  -23.0490 C   0  0  0  0  0  0  0  0  0  0  0  0
   -8.3180   -4.6100  -21.9930 H   0  0  0  0  0  0  0  0  0  0  0  0
   -9.1970   -4.6190  -23.5380 H   0  0  0  0  0  0  0  0  0  0  0  0
   -7.6940   -0.2440  -23.9970 H   0  0  0  0  0  0  0  0  0  0  0  0
   -6.5030   -1.0640  -28.0220 H   0  0  0  0  0  0  0  0  0  0  0  0
   -6.6010   -3.4900  -27.5610 H   0  0  0  0  0  0  0  0  0  0  0  0
   -6.4470   -5.2830  -25.7060 H   0  0  0  0  0  0  0  0  0  0  0  0
   -8.1880   -5.1500  -25.5050 H   0  0  0  0  0  0  0  0  0  0  0  0
   -6.2430   -4.5110  -23.2990 H   0  0  0  0  0  0  0  0  0  0  0  0
   -7.0520   -6.6400  -22.3520 H   0  0  0  0  0  0  0  0  0  0  0  0
   -7.9860   -6.8790  -23.8430 H   0  0  0  0  0  0  0  0  0  0  0  0
   -4.7180   -7.1220  -23.4310 N   0  0  0  0  0  0  0  0  0  0  0  0
   -3.6220   -7.8610  -24.0240 C   0  0  0  0  0  0  0  0  0  0  0  0
   -2.3290   -7.5980  -23.2980 C   0  0  1  0  0  0  0  0  0  0  0  0
   -1.0660   -8.0400  -24.0710 C   0  0  0  0  0  0  0  0  0  0  0  0
   -0.5920   -6.5770  -24.1220 C   0  0  1  0  0  0  0  0  0  0  0  0
   -0.4670   -6.0750  -25.4110 F   0  0  0  0  0  0  0  0  0  0  0  0
   -1.8840   -6.1250  -23.4260 C   0  0  0  0  0  0  0  0  0  0  0  0
   -1.8090   -5.5700  -22.4900 H   0  0  0  0  0  0  0  0  0  0  0  0
   -2.5090   -5.5580  -24.1260 H   0  0  0  0  0  0  0  0  0  0  0  0
    0.3460   -6.3600  -23.6000 H   0  0  0  0  0  0  0  0  0  0  0  0
   -1.2690   -8.4370  -25.0720 H   0  0  0  0  0  0  0  0  0  0  0  0
   -0.4090   -8.7350  -23.5460 H   0  0  0  0  0  0  0  0  0  0  0  0
   -2.3670   -7.9730  -22.2650 H   0  0  0  0  0  0  0  0  0  0  0  0
   -3.5520   -7.5130  -25.0590 H   0  0  0  0  0  0  0  0  0  0  0  0
   -3.8680   -8.9250  -24.0900 H   0  0  0  0  0  0  0  0  0  0  0  0
   -4.6730   -6.7510  -22.4990 H   0  0  0  0  0  0  0  0  0  0  0  0
  1  2  2  0  0  0  0
  2  3  1  0  0  0  0
  2 50  1  0  0  0  0
  3  4  1  0  0  0  0
  3 48  1  0  0  0  0
  3 49  1  0  0  0  0
  4  5  1  0  0  0  0
  4 39  1  0  0  0  0
  4 47  1  1  0  0  0
  5  6  1  0  0  0  0
  5 45  1  0  0  0  0
  5 46  1  0  0  0  0
  6  7  2  0  0  0  0
  6 12  1  0  0  0  0
  7  8  1  0  0  0  0
  7 44  1  0  0  0  0
  8  9  2  0  0  0  0
  8 43  1  0  0  0  0
  9 10  1  0  0  0  0
  9 11  1  0  0  0  0
 11 12  2  0  0  0  0
 11 42  1  0  0  0  0
 13 12  1  6  0  0  0
 13 14  1  0  0  0  0
 13 33  1  0  0  0  0
 13 39  1  0  0  0  0
 14 15  1  0  0  0  0
 14 37  1  0  0  0  0
 14 38  1  0  0  0  0
 15 16  1  0  0  0  0
 15 35  1  0  0  0  0
 15 36  1  0  0  0  0
 16 17  1  0  0  0  0
 16 33  1  0  0  0  0
 17 18  2  0  0  0  0
 17 26  1  0  0  0  0
 18 19  1  0  0  0  0
 18 32  1  0  0  0  0
 19 20  2  0  0  0  0
 20 21  1  0  0  0  0
 20 31  1  0  0  0  0
 21 22  2  0  0  0  0
 21 26  1  0  0  0  0
 22 23  1  0  0  0  0
 22 30  1  0  0  0  0
 23 24  2  0  0  0  0
 23 29  1  0  0  0  0
 24 25  1  0  0  0  0
 24 28  1  0  0  0  0
 25 26  2  0  0  0  0
 25 27  1  0  0  0  0
 33 34  2  0  0  0  0
 39 40  1  0  0  0  0
 39 41  1  0  0  0  0
 50 51  1  0  0  0  0
 50 65  1  0  0  0  0
 51 52  1  0  0  0  0
 51 63  1  0  0  0  0
 51 64  1  0  0  0  0
 52 53  1  0  0  0  0
 52 56  1  0  0  0  0
 52 62  1  1  0  0  0
 53 54  1  0  0  0  0
 53 60  1  0  0  0  0
 53 61  1  0  0  0  0
 54 55  1  0  0  0  0
 54 56  1  0  0  0  0
 54 59  1  1  0  0  0
 56 57  1  0  0  0  0
 56 58  1  0  0  0  0
M  CHG  1   4   1
M  END
>  <MODEL>
       1

$$$$
