tmp_first_model_10_78.pdb
 OpenBabel08272522163D

 56 60  0  0  1  0  0  0  0  0999 V2000
   -8.0110   -5.9720  -27.0110 C   0  0  0  0  0  0  0  0  0  0  0  0
   -8.2480   -4.5470  -27.1160 N   0  0  0  0  0  0  0  0  0  0  0  0
   -7.2740   -3.6880  -26.7250 C   0  0  0  0  0  0  0  0  0  0  0  0
   -6.2050   -4.0640  -26.2610 O   0  0  0  0  0  0  0  0  0  0  0  0
   -7.6340   -2.2020  -26.8440 C   0  0  0  0  0  0  0  0  0  0  0  0
   -8.4960   -1.7990  -25.7350 N   0  0  0  0  0  0  0  0  0  0  0  0
   -7.9280   -1.3140  -24.4830 C   0  0  0  0  0  0  0  0  0  0  0  0
   -8.7940   -1.6010  -23.2170 C   0  0  2  0  0  0  0  0  0  0  0  0
   -8.2660   -0.6390  -22.1320 C   0  0  0  0  0  0  0  0  0  0  0  0
   -8.4340    0.5600  -22.0870 O   0  0  0  0  0  0  0  0  0  0  0  0
   -7.4980   -1.3500  -21.2280 N   0  0  0  0  0  0  0  0  0  0  0  0
   -6.7060   -0.7570  -20.2130 C   0  0  0  0  0  0  0  0  0  0  0  0
   -6.9400   -1.1090  -18.9060 C   0  0  0  0  0  0  0  0  0  0  0  0
   -6.2350   -0.6570  -17.8420 N   0  0  0  0  0  0  0  0  0  0  0  0
   -5.2370    0.1580  -18.0850 C   0  0  0  0  0  0  0  0  0  0  0  0
   -4.8630    0.5830  -19.3910 C   0  0  0  0  0  0  0  0  0  0  0  0
   -3.7750    1.4740  -19.5890 C   0  0  0  0  0  0  0  0  0  0  0  0
   -3.5050    1.9760  -20.8320 C   0  0  0  0  0  0  0  0  0  0  0  0
   -4.2750    1.5620  -21.9430 C   0  0  0  0  0  0  0  0  0  0  0  0
   -5.2900    0.6520  -21.7880 C   0  0  0  0  0  0  0  0  0  0  0  0
   -5.6280    0.1470  -20.4980 C   0  0  0  0  0  0  0  0  0  0  0  0
   -5.8600    0.3380  -22.6580 H   0  0  0  0  0  0  0  0  0  0  0  0
   -4.0510    1.9550  -22.9310 H   0  0  0  0  0  0  0  0  0  0  0  0
   -2.7070    2.7000  -20.9750 H   0  0  0  0  0  0  0  0  0  0  0  0
   -3.1890    1.7700  -18.7230 H   0  0  0  0  0  0  0  0  0  0  0  0
   -4.6650    0.5320  -17.2330 H   0  0  0  0  0  0  0  0  0  0  0  0
   -7.7550   -1.7940  -18.6730 H   0  0  0  0  0  0  0  0  0  0  0  0
   -7.4100   -2.7650  -21.5290 C   0  0  0  0  0  0  0  0  0  0  0  0
   -8.5470   -2.9850  -22.5300 C   0  0  2  0  0  0  0  0  0  0  0  0
   -8.3170   -4.1640  -23.4610 C   0  0  0  0  0  0  0  0  0  0  0  0
   -8.2590   -5.0960  -22.8900 H   0  0  0  0  0  0  0  0  0  0  0  0
   -7.3810   -4.0620  -24.0240 H   0  0  0  0  0  0  0  0  0  0  0  0
   -9.1450   -4.2530  -24.1710 H   0  0  0  0  0  0  0  0  0  0  0  0
   -9.4600   -3.1660  -21.9420 H   0  0  0  0  0  0  0  0  0  0  0  0
   -7.5430   -3.3630  -20.6220 H   0  0  0  0  0  0  0  0  0  0  0  0
   -6.4260   -3.0230  -21.9500 H   0  0  0  0  0  0  0  0  0  0  0  0
  -10.2670   -1.4020  -23.5340 C   0  0  0  0  0  0  0  0  0  0  0  0
  -11.2170   -1.2970  -22.4990 C   0  0  0  0  0  0  0  0  0  0  0  0
  -12.5630   -1.2210  -22.8220 C   0  0  0  0  0  0  0  0  0  0  0  0
  -13.7970   -1.3400  -21.6050 Cl  0  0  0  0  0  0  0  0  0  0  0  0
  -12.9940   -1.1280  -24.1460 C   0  0  0  0  0  0  0  0  0  0  0  0
  -12.0650   -1.2200  -25.1610 C   0  0  0  0  0  0  0  0  0  0  0  0
  -10.7260   -1.4450  -24.8590 C   0  0  0  0  0  0  0  0  0  0  0  0
   -9.8310   -1.8630  -25.9770 C   0  0  0  0  0  0  0  0  0  0  0  0
  -10.2580   -2.2850  -27.0530 O   0  0  0  0  0  0  0  0  0  0  0  0
  -12.3530   -1.1590  -26.2080 H   0  0  0  0  0  0  0  0  0  0  0  0
  -14.0570   -1.0540  -24.3470 H   0  0  0  0  0  0  0  0  0  0  0  0
  -10.9120   -1.2960  -21.4530 H   0  0  0  0  0  0  0  0  0  0  0  0
   -6.9350   -1.7630  -24.3650 H   0  0  0  0  0  0  0  0  0  0  0  0
   -7.7690   -0.2280  -24.5300 H   0  0  0  0  0  0  0  0  0  0  0  0
   -6.7140   -1.6110  -26.8570 H   0  0  0  0  0  0  0  0  0  0  0  0
   -8.2060   -2.0310  -27.7650 H   0  0  0  0  0  0  0  0  0  0  0  0
   -9.1530   -4.1800  -27.3850 H   0  0  0  0  0  0  0  0  0  0  0  0
   -8.9200   -6.5160  -27.2720 H   0  0  0  0  0  0  0  0  0  0  0  0
   -7.6960   -6.2370  -25.9960 H   0  0  0  0  0  0  0  0  0  0  0  0
   -7.1990   -6.2800  -27.6770 H   0  0  0  0  0  0  0  0  0  0  0  0
  1  2  1  0  0  0  0
  1 54  1  0  0  0  0
  1 55  1  0  0  0  0
  1 56  1  0  0  0  0
  2  3  1  0  0  0  0
  2 53  1  0  0  0  0
  3  4  2  0  0  0  0
  3  5  1  0  0  0  0
  5  6  1  0  0  0  0
  5 51  1  0  0  0  0
  5 52  1  0  0  0  0
  6  7  1  0  0  0  0
  6 44  1  0  0  0  0
  7  8  1  0  0  0  0
  7 49  1  0  0  0  0
  7 50  1  0  0  0  0
  8  9  1  1  0  0  0
  8 29  1  0  0  0  0
  8 37  1  0  0  0  0
  9 10  2  0  0  0  0
  9 11  1  0  0  0  0
 11 12  1  0  0  0  0
 11 28  1  0  0  0  0
 12 13  2  0  0  0  0
 12 21  1  0  0  0  0
 13 14  1  0  0  0  0
 13 27  1  0  0  0  0
 14 15  2  0  0  0  0
 15 16  1  0  0  0  0
 15 26  1  0  0  0  0
 16 17  2  0  0  0  0
 16 21  1  0  0  0  0
 17 18  1  0  0  0  0
 17 25  1  0  0  0  0
 18 19  2  0  0  0  0
 18 24  1  0  0  0  0
 19 20  1  0  0  0  0
 19 23  1  0  0  0  0
 20 21  2  0  0  0  0
 20 22  1  0  0  0  0
 28 29  1  0  0  0  0
 28 35  1  0  0  0  0
 28 36  1  0  0  0  0
 29 30  1  0  0  0  0
 29 34  1  1  0  0  0
 30 31  1  0  0  0  0
 30 32  1  0  0  0  0
 30 33  1  0  0  0  0
 37 38  2  0  0  0  0
 37 43  1  0  0  0  0
 38 39  1  0  0  0  0
 38 48  1  0  0  0  0
 39 40  1  0  0  0  0
 39 41  2  0  0  0  0
 41 42  1  0  0  0  0
 41 47  1  0  0  0  0
 42 43  2  0  0  0  0
 42 46  1  0  0  0  0
 43 44  1  0  0  0  0
 44 45  2  0  0  0  0
M  END
>  <MODEL>
       1

$$$$
