tmp_first_model_13_44.pdb
 OpenBabel08282500103D

 60 64  0  0  1  0  0  0  0  0999 V2000
  -14.9040   -2.1140  -23.9510 C   0  0  0  0  0  0  0  0  0  0  0  0
  -13.9690   -3.0420  -23.3690 N   0  0  0  0  0  0  0  0  0  0  0  0
  -13.2000   -2.7010  -22.3010 C   0  0  0  0  0  0  0  0  0  0  0  0
  -13.1420   -1.5690  -21.8410 O   0  0  0  0  0  0  0  0  0  0  0  0
  -12.3980   -3.8710  -21.7550 C   0  0  0  0  0  0  0  0  0  0  0  0
  -11.0540   -3.8980  -22.3010 N   0  0  0  0  0  0  0  0  0  0  0  0
   -9.9310   -3.3590  -21.5370 C   0  0  0  0  0  0  0  0  0  0  0  0
   -8.7450   -2.8880  -22.4120 C   0  0  2  0  0  0  0  0  0  0  0  0
   -7.5420   -2.6740  -21.4790 C   0  0  0  0  0  0  0  0  0  0  0  0
   -6.8110   -3.5240  -21.0060 O   0  0  0  0  0  0  0  0  0  0  0  0
   -7.3950   -1.3240  -21.2460 N   0  0  0  0  0  0  0  0  0  0  0  0
   -6.5780   -0.8420  -20.1990 C   0  0  0  0  0  0  0  0  0  0  0  0
   -6.8850   -1.1100  -18.8900 C   0  0  0  0  0  0  0  0  0  0  0  0
   -6.2120   -0.5800  -17.8400 N   0  0  0  0  0  0  0  0  0  0  0  0
   -5.2010    0.2100  -18.0980 C   0  0  0  0  0  0  0  0  0  0  0  0
   -4.7520    0.5330  -19.4110 C   0  0  0  0  0  0  0  0  0  0  0  0
   -3.6260    1.3610  -19.6500 C   0  0  0  0  0  0  0  0  0  0  0  0
   -3.2230    1.6220  -20.9310 C   0  0  0  0  0  0  0  0  0  0  0  0
   -3.9200    1.0680  -22.0290 C   0  0  0  0  0  0  0  0  0  0  0  0
   -5.0140    0.2640  -21.8250 C   0  0  0  0  0  0  0  0  0  0  0  0
   -5.4560   -0.0120  -20.5040 C   0  0  0  0  0  0  0  0  0  0  0  0
   -5.5410   -0.1810  -22.6640 H   0  0  0  0  0  0  0  0  0  0  0  0
   -3.5870    1.2730  -23.0420 H   0  0  0  0  0  0  0  0  0  0  0  0
   -2.3620    2.2580  -21.1130 H   0  0  0  0  0  0  0  0  0  0  0  0
   -3.0980    1.7710  -18.7940 H   0  0  0  0  0  0  0  0  0  0  0  0
   -4.6700    0.6320  -17.2440 H   0  0  0  0  0  0  0  0  0  0  0  0
   -7.7180   -1.7650  -18.6390 H   0  0  0  0  0  0  0  0  0  0  0  0
   -8.3950   -0.4960  -21.8970 C   0  0  0  0  0  0  0  0  0  0  0  0
   -8.9620   -1.4390  -22.9710 C   0  0  2  0  0  0  0  0  0  0  0  0
  -10.4010   -1.1190  -23.3350 C   0  0  0  0  0  0  0  0  0  0  0  0
  -10.5070    0.1440  -23.9490 O   0  0  0  0  0  0  0  0  0  0  0  0
  -11.8610    0.3580  -24.2780 C   0  0  0  0  0  0  0  0  0  0  0  0
  -12.4980    0.3310  -23.3790 H   0  0  0  0  0  0  0  0  0  0  0  0
  -12.2110   -0.4340  -24.9590 H   0  0  0  0  0  0  0  0  0  0  0  0
  -11.9540    1.3240  -24.7780 H   0  0  0  0  0  0  0  0  0  0  0  0
  -10.7730   -1.8960  -24.0210 H   0  0  0  0  0  0  0  0  0  0  0  0
  -11.0400   -1.1290  -22.4380 H   0  0  0  0  0  0  0  0  0  0  0  0
   -8.3470   -1.3500  -23.8750 H   0  0  0  0  0  0  0  0  0  0  0  0
   -9.1670   -0.1630  -21.1830 H   0  0  0  0  0  0  0  0  0  0  0  0
   -7.9490    0.4090  -22.3210 H   0  0  0  0  0  0  0  0  0  0  0  0
   -8.4770   -3.9350  -23.4700 C   0  0  0  0  0  0  0  0  0  0  0  0
   -7.2040   -4.0900  -24.0330 C   0  0  0  0  0  0  0  0  0  0  0  0
   -6.9950   -5.0480  -25.0110 C   0  0  0  0  0  0  0  0  0  0  0  0
   -5.4060   -5.2270  -25.7050 Cl  0  0  0  0  0  0  0  0  0  0  0  0
   -8.0200   -5.8970  -25.4280 C   0  0  0  0  0  0  0  0  0  0  0  0
   -9.2850   -5.7240  -24.9050 C   0  0  0  0  0  0  0  0  0  0  0  0
   -9.5150   -4.7410  -23.9500 C   0  0  0  0  0  0  0  0  0  0  0  0
  -10.9090   -4.5670  -23.4730 C   0  0  0  0  0  0  0  0  0  0  0  0
  -11.8810   -5.0110  -24.0900 O   0  0  0  0  0  0  0  0  0  0  0  0
  -10.1260   -6.3380  -25.2180 H   0  0  0  0  0  0  0  0  0  0  0  0
   -7.8230   -6.6800  -26.1480 H   0  0  0  0  0  0  0  0  0  0  0  0
   -6.3670   -3.4990  -23.6770 H   0  0  0  0  0  0  0  0  0  0  0  0
   -9.5630   -4.1110  -20.8420 H   0  0  0  0  0  0  0  0  0  0  0  0
  -10.2530   -2.5000  -20.9370 H   0  0  0  0  0  0  0  0  0  0  0  0
  -12.9350   -4.7560  -22.0880 H   0  0  0  0  0  0  0  0  0  0  0  0
  -12.3520   -3.8460  -20.6710 H   0  0  0  0  0  0  0  0  0  0  0  0
  -13.6710   -3.8230  -23.9360 H   0  0  0  0  0  0  0  0  0  0  0  0
  -15.4400   -1.6040  -23.1500 H   0  0  0  0  0  0  0  0  0  0  0  0
  -15.6090   -2.6640  -24.5790 H   0  0  0  0  0  0  0  0  0  0  0  0
  -14.4170   -1.3440  -24.5560 H   0  0  0  0  0  0  0  0  0  0  0  0
  1  2  1  0  0  0  0
  1 58  1  0  0  0  0
  1 59  1  0  0  0  0
  1 60  1  0  0  0  0
  2  3  1  0  0  0  0
  2 57  1  0  0  0  0
  3  4  2  0  0  0  0
  3  5  1  0  0  0  0
  5  6  1  0  0  0  0
  5 55  1  0  0  0  0
  5 56  1  0  0  0  0
  6  7  1  0  0  0  0
  6 48  1  0  0  0  0
  7  8  1  0  0  0  0
  7 53  1  0  0  0  0
  7 54  1  0  0  0  0
  8  9  1  1  0  0  0
  8 29  1  0  0  0  0
  8 41  1  0  0  0  0
  9 10  2  0  0  0  0
  9 11  1  0  0  0  0
 11 12  1  0  0  0  0
 11 28  1  0  0  0  0
 12 13  2  0  0  0  0
 12 21  1  0  0  0  0
 13 14  1  0  0  0  0
 13 27  1  0  0  0  0
 14 15  2  0  0  0  0
 15 16  1  0  0  0  0
 15 26  1  0  0  0  0
 16 17  2  0  0  0  0
 16 21  1  0  0  0  0
 17 18  1  0  0  0  0
 17 25  1  0  0  0  0
 18 19  2  0  0  0  0
 18 24  1  0  0  0  0
 19 20  1  0  0  0  0
 19 23  1  0  0  0  0
 20 21  2  0  0  0  0
 20 22  1  0  0  0  0
 28 29  1  0  0  0  0
 28 39  1  0  0  0  0
 28 40  1  0  0  0  0
 29 30  1  0  0  0  0
 29 38  1  6  0  0  0
 30 31  1  0  0  0  0
 30 36  1  0  0  0  0
 30 37  1  0  0  0  0
 31 32  1  0  0  0  0
 32 33  1  0  0  0  0
 32 34  1  0  0  0  0
 32 35  1  0  0  0  0
 41 42  2  0  0  0  0
 41 47  1  0  0  0  0
 42 43  1  0  0  0  0
 42 52  1  0  0  0  0
 43 44  1  0  0  0  0
 43 45  2  0  0  0  0
 45 46  1  0  0  0  0
 45 51  1  0  0  0  0
 46 47  2  0  0  0  0
 46 50  1  0  0  0  0
 47 48  1  0  0  0  0
 48 49  2  0  0  0  0
M  END
>  <MODEL>
       1

$$$$
