tmp_first_model_13_86.pdb
 OpenBabel08282500103D

 43 45  0  0  1  0  0  0  0  0999 V2000
   -8.0640    0.6690  -26.8270 C   0  0  0  0  0  0  0  0  0  0  0  0
   -9.2920    0.3000  -25.9940 C   0  0  1  0  0  0  0  0  0  0  0  0
   -9.1820   -1.0850  -25.3640 C   0  0  0  0  0  0  0  0  0  0  0  0
   -8.2220   -1.1250  -24.1720 C   0  0  0  0  0  0  0  0  0  0  0  0
   -8.5860   -0.1320  -23.1710 N   0  0  0  0  0  0  0  0  0  0  0  0
   -8.4510   -0.3540  -21.8120 C   0  0  0  0  0  0  0  0  0  0  0  0
   -9.1120    0.2730  -20.9960 O   0  0  0  0  0  0  0  0  0  0  0  0
   -7.4390   -1.4020  -21.2800 C   0  0  0  0  0  0  0  0  0  0  0  0
   -6.5730   -0.8310  -20.1760 C   0  0  0  0  0  0  0  0  0  0  0  0
   -6.8770   -1.0410  -18.8530 C   0  0  0  0  0  0  0  0  0  0  0  0
   -6.1830   -0.5330  -17.7980 N   0  0  0  0  0  0  0  0  0  0  0  0
   -5.1530    0.2240  -18.0660 C   0  0  0  0  0  0  0  0  0  0  0  0
   -4.7170    0.5370  -19.3810 C   0  0  0  0  0  0  0  0  0  0  0  0
   -3.5970    1.3710  -19.6240 C   0  0  0  0  0  0  0  0  0  0  0  0
   -3.2070    1.6640  -20.9010 C   0  0  0  0  0  0  0  0  0  0  0  0
   -3.9310    1.1280  -21.9950 C   0  0  0  0  0  0  0  0  0  0  0  0
   -5.0180    0.3160  -21.7830 C   0  0  0  0  0  0  0  0  0  0  0  0
   -5.4490   -0.0040  -20.4700 C   0  0  0  0  0  0  0  0  0  0  0  0
   -5.5550   -0.0780  -22.6450 H   0  0  0  0  0  0  0  0  0  0  0  0
   -3.6190    1.3640  -23.0060 H   0  0  0  0  0  0  0  0  0  0  0  0
   -2.3560    2.3080  -21.0880 H   0  0  0  0  0  0  0  0  0  0  0  0
   -3.0570    1.7810  -18.7720 H   0  0  0  0  0  0  0  0  0  0  0  0
   -4.5990    0.6290  -17.2150 H   0  0  0  0  0  0  0  0  0  0  0  0
   -7.7280   -1.6590  -18.5810 H   0  0  0  0  0  0  0  0  0  0  0  0
   -6.8120   -1.8250  -22.0730 H   0  0  0  0  0  0  0  0  0  0  0  0
   -8.0310   -2.2250  -20.8580 H   0  0  0  0  0  0  0  0  0  0  0  0
   -8.7950    1.2580  -23.6200 C   0  0  1  0  0  0  0  0  0  0  0  0
   -7.4730    2.0340  -23.7180 C   0  0  0  0  0  0  0  0  0  0  0  0
   -7.6260    3.0170  -24.1760 H   0  0  0  0  0  0  0  0  0  0  0  0
   -6.7280    1.5030  -24.3160 H   0  0  0  0  0  0  0  0  0  0  0  0
   -7.0460    2.2010  -22.7230 H   0  0  0  0  0  0  0  0  0  0  0  0
   -9.6450    1.3120  -24.9010 C   0  0  0  0  0  0  0  0  0  0  0  0
  -10.6930    1.1670  -24.6170 H   0  0  0  0  0  0  0  0  0  0  0  0
   -9.5940    2.3250  -25.3170 H   0  0  0  0  0  0  0  0  0  0  0  0
   -9.3800    1.7400  -22.8370 H   0  0  0  0  0  0  0  0  0  0  0  0
   -7.1830   -1.0090  -24.5230 H   0  0  0  0  0  0  0  0  0  0  0  0
   -8.2850   -2.1110  -23.7150 H   0  0  0  0  0  0  0  0  0  0  0  0
   -8.8580   -1.8120  -26.1150 H   0  0  0  0  0  0  0  0  0  0  0  0
  -10.1680   -1.4140  -25.0260 H   0  0  0  0  0  0  0  0  0  0  0  0
  -10.1380    0.2790  -26.6920 H   0  0  0  0  0  0  0  0  0  0  0  0
   -7.1270    0.5590  -26.2760 H   0  0  0  0  0  0  0  0  0  0  0  0
   -8.1180    1.7040  -27.1730 H   0  0  0  0  0  0  0  0  0  0  0  0
   -7.9940    0.0260  -27.7100 H   0  0  0  0  0  0  0  0  0  0  0  0
  1  2  1  0  0  0  0
  1 41  1  0  0  0  0
  1 42  1  0  0  0  0
  1 43  1  0  0  0  0
  2  3  1  0  0  0  0
  2 32  1  0  0  0  0
  2 40  1  6  0  0  0
  3  4  1  0  0  0  0
  3 38  1  0  0  0  0
  3 39  1  0  0  0  0
  4  5  1  0  0  0  0
  4 36  1  0  0  0  0
  4 37  1  0  0  0  0
  5  6  1  0  0  0  0
  5 27  1  0  0  0  0
  6  7  2  0  0  0  0
  6  8  1  0  0  0  0
  8  9  1  0  0  0  0
  8 25  1  0  0  0  0
  8 26  1  0  0  0  0
  9 10  2  0  0  0  0
  9 18  1  0  0  0  0
 10 11  1  0  0  0  0
 10 24  1  0  0  0  0
 11 12  2  0  0  0  0
 12 13  1  0  0  0  0
 12 23  1  0  0  0  0
 13 14  2  0  0  0  0
 13 18  1  0  0  0  0
 14 15  1  0  0  0  0
 14 22  1  0  0  0  0
 15 16  2  0  0  0  0
 15 21  1  0  0  0  0
 16 17  1  0  0  0  0
 16 20  1  0  0  0  0
 17 18  2  0  0  0  0
 17 19  1  0  0  0  0
 27 28  1  0  0  0  0
 27 32  1  0  0  0  0
 27 35  1  1  0  0  0
 28 29  1  0  0  0  0
 28 30  1  0  0  0  0
 28 31  1  0  0  0  0
 32 33  1  0  0  0  0
 32 34  1  0  0  0  0
M  END
>  <MODEL>
       1

$$$$
