tmp_first_model_10_47.pdb
 OpenBabel08272522163D

 58 63  0  0  1  0  0  0  0  0999 V2000
   -8.5960    0.7230  -21.3450 O   0  0  0  0  0  0  0  0  0  0  0  0
   -8.5110   -0.3950  -21.8230 C   0  0  0  0  0  0  0  0  0  0  0  0
   -7.4940   -1.3950  -21.2660 C   0  0  0  0  0  0  0  0  0  0  0  0
   -6.6410   -0.7990  -20.1800 C   0  0  0  0  0  0  0  0  0  0  0  0
   -6.9190   -1.0610  -18.8630 C   0  0  0  0  0  0  0  0  0  0  0  0
   -6.2180   -0.5920  -17.7950 N   0  0  0  0  0  0  0  0  0  0  0  0
   -5.2150    0.2100  -18.0540 C   0  0  0  0  0  0  0  0  0  0  0  0
   -4.8260    0.5920  -19.3710 C   0  0  0  0  0  0  0  0  0  0  0  0
   -3.6990    1.4220  -19.6090 C   0  0  0  0  0  0  0  0  0  0  0  0
   -3.4130    1.8700  -20.8710 C   0  0  0  0  0  0  0  0  0  0  0  0
   -4.2210    1.4640  -21.9620 C   0  0  0  0  0  0  0  0  0  0  0  0
   -5.2180    0.5370  -21.7770 C   0  0  0  0  0  0  0  0  0  0  0  0
   -5.5660    0.0950  -20.4670 C   0  0  0  0  0  0  0  0  0  0  0  0
   -5.7740    0.1550  -22.6310 H   0  0  0  0  0  0  0  0  0  0  0  0
   -4.0430    1.8900  -22.9480 H   0  0  0  0  0  0  0  0  0  0  0  0
   -2.5730    2.5400  -21.0430 H   0  0  0  0  0  0  0  0  0  0  0  0
   -3.0960    1.7160  -18.7530 H   0  0  0  0  0  0  0  0  0  0  0  0
   -4.6380    0.5840  -17.2050 H   0  0  0  0  0  0  0  0  0  0  0  0
   -7.7600   -1.7020  -18.6010 H   0  0  0  0  0  0  0  0  0  0  0  0
   -6.8990   -1.7810  -22.1040 H   0  0  0  0  0  0  0  0  0  0  0  0
   -8.0460   -2.2500  -20.8560 H   0  0  0  0  0  0  0  0  0  0  0  0
   -9.3080   -0.8130  -22.8730 N   0  0  0  0  0  0  0  0  0  0  0  0
   -9.2580   -2.1280  -23.5080 C   0  0  0  0  0  0  0  0  0  0  0  0
   -8.5130   -2.1660  -24.8340 C   0  0  0  0  0  0  0  0  0  0  0  0
   -7.4180   -1.3390  -25.0940 C   0  0  0  0  0  0  0  0  0  0  0  0
   -6.7600   -1.4030  -26.3180 C   0  0  0  0  0  0  0  0  0  0  0  0
   -7.1820   -2.2840  -27.3090 C   0  0  0  0  0  0  0  0  0  0  0  0
   -8.2770   -3.0970  -27.0490 C   0  0  0  0  0  0  0  0  0  0  0  0
   -8.8370   -4.1990  -28.2810 Cl  0  0  0  0  0  0  0  0  0  0  0  0
   -8.9390   -3.0510  -25.8280 C   0  0  0  0  0  0  0  0  0  0  0  0
   -9.8030   -3.6920  -25.6710 H   0  0  0  0  0  0  0  0  0  0  0  0
   -6.6740   -2.3530  -28.2660 H   0  0  0  0  0  0  0  0  0  0  0  0
   -5.9060   -0.7550  -26.5000 H   0  0  0  0  0  0  0  0  0  0  0  0
   -7.0700   -0.6240  -24.3500 H   0  0  0  0  0  0  0  0  0  0  0  0
  -10.2840   -2.4710  -23.6770 H   0  0  0  0  0  0  0  0  0  0  0  0
   -8.8360   -2.8440  -22.8010 H   0  0  0  0  0  0  0  0  0  0  0  0
  -10.2240    0.1650  -23.4090 C   0  0  2  0  0  0  0  0  0  0  0  0
  -11.3490    0.6590  -22.4910 C   0  0  0  0  0  0  0  0  0  0  0  0
  -12.0470    1.6060  -23.4310 N   0  3  1  0  0  0  0  0  0  0  0  0
  -12.2650    2.9530  -22.9010 C   0  0  0  0  0  0  0  0  0  0  0  0
  -13.5460    3.2510  -22.1950 C   0  0  0  0  0  0  0  0  0  0  0  0
  -13.2770    3.8270  -23.5620 C   0  0  0  0  0  0  0  0  0  0  0  0
  -13.0600    4.8830  -23.6560 H   0  0  0  0  0  0  0  0  0  0  0  0
  -13.8070    3.3960  -24.4070 H   0  0  0  0  0  0  0  0  0  0  0  0
  -13.5090    3.9010  -21.3320 H   0  0  0  0  0  0  0  0  0  0  0  0
  -14.2520    2.4320  -22.1090 H   0  0  0  0  0  0  0  0  0  0  0  0
  -11.3730    3.4330  -22.5180 H   0  0  0  0  0  0  0  0  0  0  0  0
  -11.1230    1.5000  -24.6370 C   0  0  2  0  0  0  0  0  0  0  0  0
  -10.9920   -0.0280  -24.7340 C   0  0  0  0  0  0  0  0  0  0  0  0
  -10.3550   -0.3940  -25.5310 H   0  0  0  0  0  0  0  0  0  0  0  0
  -11.9290   -0.5970  -24.6760 H   0  0  0  0  0  0  0  0  0  0  0  0
   -9.7280    1.5120  -23.9950 C   0  0  0  0  0  0  0  0  0  0  0  0
   -8.9150    1.3770  -24.7030 H   0  0  0  0  0  0  0  0  0  0  0  0
   -9.4820    2.2850  -23.2590 H   0  0  0  0  0  0  0  0  0  0  0  0
  -11.4110    2.1570  -25.4550 H   0  0  0  0  0  0  0  0  0  0  0  0
  -12.9820    1.2200  -23.6760 H   0  0  0  0  0  0  0  0  0  0  0  0
  -10.9570    1.2130  -21.6450 H   0  0  0  0  0  0  0  0  0  0  0  0
  -12.0310   -0.1180  -22.1490 H   0  0  0  0  0  0  0  0  0  0  0  0
  1  2  2  0  0  0  0
  2  3  1  0  0  0  0
  2 22  1  0  0  0  0
  3  4  1  0  0  0  0
  3 20  1  0  0  0  0
  3 21  1  0  0  0  0
  4  5  2  0  0  0  0
  4 13  1  0  0  0  0
  5  6  1  0  0  0  0
  5 19  1  0  0  0  0
  6  7  2  0  0  0  0
  7  8  1  0  0  0  0
  7 18  1  0  0  0  0
  8  9  2  0  0  0  0
  8 13  1  0  0  0  0
  9 10  1  0  0  0  0
  9 17  1  0  0  0  0
 10 11  2  0  0  0  0
 10 16  1  0  0  0  0
 11 12  1  0  0  0  0
 11 15  1  0  0  0  0
 12 13  2  0  0  0  0
 12 14  1  0  0  0  0
 22 23  1  0  0  0  0
 23 24  1  0  0  0  0
 23 35  1  0  0  0  0
 23 36  1  0  0  0  0
 24 25  2  0  0  0  0
 24 30  1  0  0  0  0
 25 26  1  0  0  0  0
 25 34  1  0  0  0  0
 26 27  2  0  0  0  0
 26 33  1  0  0  0  0
 27 28  1  0  0  0  0
 27 32  1  0  0  0  0
 28 29  1  0  0  0  0
 28 30  2  0  0  0  0
 30 31  1  0  0  0  0
 37 22  1  1  0  0  0
 37 38  1  0  0  0  0
 37 49  1  0  0  0  0
 37 52  1  0  0  0  0
 38 39  1  0  0  0  0
 38 57  1  0  0  0  0
 38 58  1  0  0  0  0
 39 40  1  0  0  0  0
 39 48  1  0  0  0  0
 39 56  1  6  0  0  0
 40 41  1  0  0  0  0
 40 42  1  0  0  0  0
 40 47  1  0  0  0  0
 41 42  1  0  0  0  0
 41 45  1  0  0  0  0
 41 46  1  0  0  0  0
 42 43  1  0  0  0  0
 42 44  1  0  0  0  0
 48 49  1  0  0  0  0
 48 52  1  0  0  0  0
 48 55  1  6  0  0  0
 49 50  1  0  0  0  0
 49 51  1  0  0  0  0
 52 53  1  0  0  0  0
 52 54  1  0  0  0  0
M  CHG  1  39   1
M  END
>  <MODEL>
       1

$$$$
