tmp_first_model_12_61.pdb
 OpenBabel08272523333D

 44 47  0  0  0  0  0  0  0  0999 V2000
   -9.0500    0.3350  -21.1200 O   0  0  0  0  0  0  0  0  0  0  0  0
   -8.3590   -0.3330  -21.8680 C   0  0  0  0  0  0  0  0  0  0  0  0
   -7.4330   -1.4150  -21.2760 C   0  0  0  0  0  0  0  0  0  0  0  0
   -6.5690   -0.8370  -20.1740 C   0  0  0  0  0  0  0  0  0  0  0  0
   -6.8760   -1.0410  -18.8530 C   0  0  0  0  0  0  0  0  0  0  0  0
   -6.1900   -0.5360  -17.7920 N   0  0  0  0  0  0  0  0  0  0  0  0
   -5.1550    0.2220  -18.0600 C   0  0  0  0  0  0  0  0  0  0  0  0
   -4.7210    0.5360  -19.3780 C   0  0  0  0  0  0  0  0  0  0  0  0
   -3.5980    1.3690  -19.6160 C   0  0  0  0  0  0  0  0  0  0  0  0
   -3.2260    1.6910  -20.8940 C   0  0  0  0  0  0  0  0  0  0  0  0
   -3.9960    1.2260  -21.9830 C   0  0  0  0  0  0  0  0  0  0  0  0
   -5.0770    0.3970  -21.7780 C   0  0  0  0  0  0  0  0  0  0  0  0
   -5.4600    0.0140  -20.4670 C   0  0  0  0  0  0  0  0  0  0  0  0
   -5.5670   -0.0620  -22.6340 H   0  0  0  0  0  0  0  0  0  0  0  0
   -3.6300    1.3950  -22.9920 H   0  0  0  0  0  0  0  0  0  0  0  0
   -2.3470    2.3060  -21.0840 H   0  0  0  0  0  0  0  0  0  0  0  0
   -3.0570    1.7760  -18.7640 H   0  0  0  0  0  0  0  0  0  0  0  0
   -4.6010    0.6290  -17.2130 H   0  0  0  0  0  0  0  0  0  0  0  0
   -7.7300   -1.6610  -18.5820 H   0  0  0  0  0  0  0  0  0  0  0  0
   -6.8090   -1.8940  -22.0430 H   0  0  0  0  0  0  0  0  0  0  0  0
   -8.0790   -2.1890  -20.8450 H   0  0  0  0  0  0  0  0  0  0  0  0
   -8.3430   -0.1180  -23.2350 N   0  0  0  0  0  0  0  0  0  0  0  0
   -8.0800   -1.1540  -24.2230 C   0  0  0  0  0  0  0  0  0  0  0  0
   -8.9620   -0.9700  -25.4560 C   0  0  0  0  0  0  0  0  0  0  0  0
   -8.8550    0.4320  -26.0380 C   0  0  0  0  0  0  0  0  0  0  0  0
   -9.6600    0.6390  -27.3410 C   0  0  0  0  0  0  0  0  0  0  0  0
   -8.3580    0.9030  -28.1270 C   0  0  0  0  0  0  0  0  0  0  0  0
   -7.5490    0.6980  -26.8310 C   0  0  0  0  0  0  0  0  0  0  0  0
   -6.9880    1.5730  -26.4980 H   0  0  0  0  0  0  0  0  0  0  0  0
   -6.8550   -0.1450  -26.8510 H   0  0  0  0  0  0  0  0  0  0  0  0
   -8.1470    0.1790  -28.9160 H   0  0  0  0  0  0  0  0  0  0  0  0
   -8.2800    1.9030  -28.5600 H   0  0  0  0  0  0  0  0  0  0  0  0
  -10.2250   -0.2370  -27.6660 H   0  0  0  0  0  0  0  0  0  0  0  0
  -10.3560    1.4790  -27.3090 H   0  0  0  0  0  0  0  0  0  0  0  0
   -9.1550    1.4550  -24.9540 C   0  0  0  0  0  0  0  0  0  0  0  0
   -8.2790    1.2560  -23.7280 C   0  0  0  0  0  0  0  0  0  0  0  0
   -7.2380    1.5340  -23.9730 H   0  0  0  0  0  0  0  0  0  0  0  0
   -8.5950    1.9130  -22.9180 H   0  0  0  0  0  0  0  0  0  0  0  0
   -9.0130    2.4640  -25.3540 H   0  0  0  0  0  0  0  0  0  0  0  0
  -10.2130    1.3970  -24.6710 H   0  0  0  0  0  0  0  0  0  0  0  0
   -8.6860   -1.7040  -26.2170 H   0  0  0  0  0  0  0  0  0  0  0  0
  -10.0080   -1.1860  -25.2100 H   0  0  0  0  0  0  0  0  0  0  0  0
   -7.0210   -1.1750  -24.5300 H   0  0  0  0  0  0  0  0  0  0  0  0
   -8.2970   -2.1230  -23.7720 H   0  0  0  0  0  0  0  0  0  0  0  0
  1  2  2  0  0  0  0
  2  3  1  0  0  0  0
  2 22  1  0  0  0  0
  3  4  1  0  0  0  0
  3 20  1  0  0  0  0
  3 21  1  0  0  0  0
  4  5  2  0  0  0  0
  4 13  1  0  0  0  0
  5  6  1  0  0  0  0
  5 19  1  0  0  0  0
  6  7  2  0  0  0  0
  7  8  1  0  0  0  0
  7 18  1  0  0  0  0
  8  9  2  0  0  0  0
  8 13  1  0  0  0  0
  9 10  1  0  0  0  0
  9 17  1  0  0  0  0
 10 11  2  0  0  0  0
 10 16  1  0  0  0  0
 11 12  1  0  0  0  0
 11 15  1  0  0  0  0
 12 13  2  0  0  0  0
 12 14  1  0  0  0  0
 22 23  1  0  0  0  0
 22 36  1  0  0  0  0
 23 24  1  0  0  0  0
 23 43  1  0  0  0  0
 23 44  1  0  0  0  0
 24 25  1  0  0  0  0
 24 41  1  0  0  0  0
 24 42  1  0  0  0  0
 25 26  1  0  0  0  0
 25 28  1  0  0  0  0
 25 35  1  0  0  0  0
 26 27  1  0  0  0  0
 26 33  1  0  0  0  0
 26 34  1  0  0  0  0
 27 28  1  0  0  0  0
 27 31  1  0  0  0  0
 27 32  1  0  0  0  0
 28 29  1  0  0  0  0
 28 30  1  0  0  0  0
 35 36  1  0  0  0  0
 35 39  1  0  0  0  0
 35 40  1  0  0  0  0
 36 37  1  0  0  0  0
 36 38  1  0  0  0  0
M  END
>  <MODEL>
       1

$$$$
