tmp_first_model_10_53.pdb
 OpenBabel08272522163D

 59 63  0  0  1  0  0  0  0  0999 V2000
   -8.5020   -6.5850  -26.2490 C   0  0  0  0  0  0  0  0  0  0  0  0
   -8.2840   -5.8770  -27.5790 C   0  0  0  0  0  0  0  0  0  0  0  0
   -8.4050   -4.4330  -27.4670 N   0  0  0  0  0  0  0  0  0  0  0  0
   -7.4240   -3.7080  -26.8800 C   0  0  0  0  0  0  0  0  0  0  0  0
   -6.4320   -4.2180  -26.3760 O   0  0  0  0  0  0  0  0  0  0  0  0
   -7.6540   -2.1990  -26.8670 C   0  0  0  0  0  0  0  0  0  0  0  0
   -8.4980   -1.8230  -25.7390 N   0  0  0  0  0  0  0  0  0  0  0  0
   -7.9170   -1.3150  -24.4940 C   0  0  0  0  0  0  0  0  0  0  0  0
   -8.7750   -1.5930  -23.2160 C   0  0  2  0  0  0  0  0  0  0  0  0
   -8.2350   -0.6410  -22.1360 C   0  0  0  0  0  0  0  0  0  0  0  0
   -8.3710    0.5660  -22.1100 O   0  0  0  0  0  0  0  0  0  0  0  0
   -7.4820   -1.3620  -21.2300 N   0  0  0  0  0  0  0  0  0  0  0  0
   -6.6940   -0.7700  -20.2120 C   0  0  0  0  0  0  0  0  0  0  0  0
   -6.9390   -1.1030  -18.9020 C   0  0  0  0  0  0  0  0  0  0  0  0
   -6.2430   -0.6360  -17.8380 N   0  0  0  0  0  0  0  0  0  0  0  0
   -5.2290    0.1580  -18.0870 C   0  0  0  0  0  0  0  0  0  0  0  0
   -4.8480    0.5690  -19.3970 C   0  0  0  0  0  0  0  0  0  0  0  0
   -3.7530    1.4520  -19.5970 C   0  0  0  0  0  0  0  0  0  0  0  0
   -3.4750    1.9390  -20.8450 C   0  0  0  0  0  0  0  0  0  0  0  0
   -4.2480    1.5240  -21.9540 C   0  0  0  0  0  0  0  0  0  0  0  0
   -5.2610    0.6130  -21.7980 C   0  0  0  0  0  0  0  0  0  0  0  0
   -5.6120    0.1280  -20.5020 C   0  0  0  0  0  0  0  0  0  0  0  0
   -5.8160    0.2800  -22.6700 H   0  0  0  0  0  0  0  0  0  0  0  0
   -4.0270    1.9230  -22.9420 H   0  0  0  0  0  0  0  0  0  0  0  0
   -2.6760    2.6620  -20.9900 H   0  0  0  0  0  0  0  0  0  0  0  0
   -3.1590    1.7390  -18.7330 H   0  0  0  0  0  0  0  0  0  0  0  0
   -4.6670    0.5430  -17.2340 H   0  0  0  0  0  0  0  0  0  0  0  0
   -7.7540   -1.7860  -18.6640 H   0  0  0  0  0  0  0  0  0  0  0  0
   -7.4110   -2.7800  -21.5300 C   0  0  0  0  0  0  0  0  0  0  0  0
   -8.5390   -2.9860  -22.5420 C   0  0  2  0  0  0  0  0  0  0  0  0
   -8.3050   -4.1550  -23.4810 C   0  0  0  0  0  0  0  0  0  0  0  0
   -9.1260   -4.2450  -24.2000 H   0  0  0  0  0  0  0  0  0  0  0  0
   -7.3720   -4.0390  -24.0430 H   0  0  0  0  0  0  0  0  0  0  0  0
   -8.2510   -5.0930  -22.9200 H   0  0  0  0  0  0  0  0  0  0  0  0
   -9.4510   -3.1750  -21.9610 H   0  0  0  0  0  0  0  0  0  0  0  0
   -6.4280   -3.0460  -21.9430 H   0  0  0  0  0  0  0  0  0  0  0  0
   -7.5580   -3.3770  -20.6240 H   0  0  0  0  0  0  0  0  0  0  0  0
  -10.2470   -1.3740  -23.5290 C   0  0  0  0  0  0  0  0  0  0  0  0
  -11.1960   -1.2520  -22.5000 C   0  0  0  0  0  0  0  0  0  0  0  0
  -12.5470   -1.2090  -22.8150 C   0  0  0  0  0  0  0  0  0  0  0  0
  -13.7520   -1.3330  -21.5520 Cl  0  0  0  0  0  0  0  0  0  0  0  0
  -12.9940   -1.1210  -24.1340 C   0  0  0  0  0  0  0  0  0  0  0  0
  -12.0680   -1.2310  -25.1510 C   0  0  0  0  0  0  0  0  0  0  0  0
  -10.7240   -1.4470  -24.8440 C   0  0  0  0  0  0  0  0  0  0  0  0
   -9.8370   -1.8580  -25.9670 C   0  0  0  0  0  0  0  0  0  0  0  0
  -10.3060   -2.2350  -27.0480 O   0  0  0  0  0  0  0  0  0  0  0  0
  -12.3500   -1.1760  -26.2020 H   0  0  0  0  0  0  0  0  0  0  0  0
  -14.0500   -1.0020  -24.3430 H   0  0  0  0  0  0  0  0  0  0  0  0
  -10.9170   -1.1930  -21.4550 H   0  0  0  0  0  0  0  0  0  0  0  0
   -7.7770   -0.2280  -24.5710 H   0  0  0  0  0  0  0  0  0  0  0  0
   -6.9190   -1.7550  -24.3720 H   0  0  0  0  0  0  0  0  0  0  0  0
   -8.1740   -1.9070  -27.7840 H   0  0  0  0  0  0  0  0  0  0  0  0
   -6.7000   -1.6740  -26.8100 H   0  0  0  0  0  0  0  0  0  0  0  0
   -9.2830   -3.9730  -27.6630 H   0  0  0  0  0  0  0  0  0  0  0  0
   -9.0000   -6.2200  -28.3360 H   0  0  0  0  0  0  0  0  0  0  0  0
   -7.2750   -6.0930  -27.9440 H   0  0  0  0  0  0  0  0  0  0  0  0
   -7.7490   -6.2550  -25.5290 H   0  0  0  0  0  0  0  0  0  0  0  0
   -9.4930   -6.3630  -25.8410 H   0  0  0  0  0  0  0  0  0  0  0  0
   -8.4150   -7.6680  -26.3670 H   0  0  0  0  0  0  0  0  0  0  0  0
  1  2  1  0  0  0  0
  1 57  1  0  0  0  0
  1 58  1  0  0  0  0
  1 59  1  0  0  0  0
  2  3  1  0  0  0  0
  2 55  1  0  0  0  0
  2 56  1  0  0  0  0
  3  4  1  0  0  0  0
  3 54  1  0  0  0  0
  4  5  2  0  0  0  0
  4  6  1  0  0  0  0
  6  7  1  0  0  0  0
  6 52  1  0  0  0  0
  6 53  1  0  0  0  0
  7  8  1  0  0  0  0
  7 45  1  0  0  0  0
  8  9  1  0  0  0  0
  8 50  1  0  0  0  0
  8 51  1  0  0  0  0
  9 10  1  1  0  0  0
  9 30  1  0  0  0  0
  9 38  1  0  0  0  0
 10 11  2  0  0  0  0
 10 12  1  0  0  0  0
 12 13  1  0  0  0  0
 12 29  1  0  0  0  0
 13 14  2  0  0  0  0
 13 22  1  0  0  0  0
 14 15  1  0  0  0  0
 14 28  1  0  0  0  0
 15 16  2  0  0  0  0
 16 17  1  0  0  0  0
 16 27  1  0  0  0  0
 17 18  2  0  0  0  0
 17 22  1  0  0  0  0
 18 19  1  0  0  0  0
 18 26  1  0  0  0  0
 19 20  2  0  0  0  0
 19 25  1  0  0  0  0
 20 21  1  0  0  0  0
 20 24  1  0  0  0  0
 21 22  2  0  0  0  0
 21 23  1  0  0  0  0
 29 30  1  0  0  0  0
 29 36  1  0  0  0  0
 29 37  1  0  0  0  0
 30 31  1  0  0  0  0
 30 35  1  1  0  0  0
 31 32  1  0  0  0  0
 31 33  1  0  0  0  0
 31 34  1  0  0  0  0
 38 39  2  0  0  0  0
 38 44  1  0  0  0  0
 39 40  1  0  0  0  0
 39 49  1  0  0  0  0
 40 41  1  0  0  0  0
 40 42  2  0  0  0  0
 42 43  1  0  0  0  0
 42 48  1  0  0  0  0
 43 44  2  0  0  0  0
 43 47  1  0  0  0  0
 44 45  1  0  0  0  0
 45 46  2  0  0  0  0
M  END
>  <MODEL>
       1

$$$$
