tmp_first_model_16_29.pdb
 OpenBabel08282501503D

 55 60  0  0  1  0  0  0  0  0999 V2000
  -10.4470   -1.0440  -23.3450 C   0  0  0  0  0  0  0  0  0  0  0  0
   -9.0130   -1.4300  -23.0010 C   0  0  1  0  0  0  0  0  0  0  0  0
   -8.3840   -0.5120  -21.9390 C   0  0  0  0  0  0  0  0  0  0  0  0
   -7.4020   -1.3740  -21.3000 N   0  0  0  0  0  0  0  0  0  0  0  0
   -6.5760   -0.9470  -20.2420 C   0  0  0  0  0  0  0  0  0  0  0  0
   -6.8740   -1.2870  -18.9480 C   0  0  0  0  0  0  0  0  0  0  0  0
   -6.1220   -0.9270  -17.8830 N   0  0  0  0  0  0  0  0  0  0  0  0
   -5.0720   -0.1740  -18.1060 C   0  0  0  0  0  0  0  0  0  0  0  0
   -4.6930    0.2990  -19.3950 C   0  0  0  0  0  0  0  0  0  0  0  0
   -3.6040    1.1850  -19.5900 C   0  0  0  0  0  0  0  0  0  0  0  0
   -3.2440    1.5650  -20.8540 C   0  0  0  0  0  0  0  0  0  0  0  0
   -3.9460    1.0760  -21.9800 C   0  0  0  0  0  0  0  0  0  0  0  0
   -5.0270    0.2470  -21.8150 C   0  0  0  0  0  0  0  0  0  0  0  0
   -5.4400   -0.1310  -20.5110 C   0  0  0  0  0  0  0  0  0  0  0  0
   -5.5770   -0.1330  -22.6710 H   0  0  0  0  0  0  0  0  0  0  0  0
   -3.6270    1.3600  -22.9780 H   0  0  0  0  0  0  0  0  0  0  0  0
   -2.4080    2.2420  -21.0050 H   0  0  0  0  0  0  0  0  0  0  0  0
   -3.0860    1.5620  -18.7120 H   0  0  0  0  0  0  0  0  0  0  0  0
   -4.4580    0.0940  -17.2440 H   0  0  0  0  0  0  0  0  0  0  0  0
   -7.7620   -1.8760  -18.7220 H   0  0  0  0  0  0  0  0  0  0  0  0
   -7.6790   -2.7170  -21.4550 C   0  0  0  0  0  0  0  0  0  0  0  0
   -7.0900   -3.6120  -20.8860 O   0  0  0  0  0  0  0  0  0  0  0  0
   -8.8440   -2.8820  -22.4280 C   0  0  1  0  0  0  0  0  0  0  0  0
  -10.0660   -3.3410  -21.5980 C   0  0  0  0  0  0  0  0  0  0  0  0
  -11.1630   -3.8110  -22.4190 N   0  0  0  0  0  0  0  0  0  0  0  0
  -12.5300   -3.7310  -21.9190 C   0  0  0  0  0  0  0  0  0  0  0  0
  -13.3590   -2.5950  -22.4380 C   0  0  0  0  0  0  0  0  0  0  0  0
  -14.0660   -2.4890  -23.6470 C   0  0  0  0  0  0  0  0  0  0  0  0
  -14.7690   -1.3620  -23.6490 N   0  0  0  0  0  0  0  0  0  0  0  0
  -14.4660   -0.8330  -22.4820 N   0  0  0  0  0  0  0  0  0  0  0  0
  -13.6600   -1.5310  -21.7000 N   0  0  0  0  0  0  0  0  0  0  0  0
  -14.9460   -0.0160  -22.1310 H   0  0  0  0  0  0  0  0  0  0  0  0
  -14.1140   -3.1940  -24.4630 H   0  0  0  0  0  0  0  0  0  0  0  0
  -12.5400   -3.6680  -20.8280 H   0  0  0  0  0  0  0  0  0  0  0  0
  -13.0380   -4.6420  -22.2410 H   0  0  0  0  0  0  0  0  0  0  0  0
  -10.9780   -4.5050  -23.5810 C   0  0  0  0  0  0  0  0  0  0  0  0
  -11.9360   -4.8830  -24.2500 O   0  0  0  0  0  0  0  0  0  0  0  0
   -9.5610   -4.7460  -23.9820 C   0  0  0  0  0  0  0  0  0  0  0  0
   -9.2860   -5.7580  -24.9020 C   0  0  0  0  0  0  0  0  0  0  0  0
   -8.0070   -5.9230  -25.3990 C   0  0  0  0  0  0  0  0  0  0  0  0
   -7.0150   -5.0540  -24.9550 C   0  0  0  0  0  0  0  0  0  0  0  0
   -5.7790   -5.1820  -25.4610 F   0  0  0  0  0  0  0  0  0  0  0  0
   -7.2440   -4.0960  -23.9860 C   0  0  0  0  0  0  0  0  0  0  0  0
   -8.5390   -3.9360  -23.4750 C   0  0  0  0  0  0  0  0  0  0  0  0
   -6.4070   -3.5250  -23.5970 H   0  0  0  0  0  0  0  0  0  0  0  0
   -7.7710   -6.6990  -26.1190 H   0  0  0  0  0  0  0  0  0  0  0  0
  -10.0970   -6.4130  -25.2060 H   0  0  0  0  0  0  0  0  0  0  0  0
  -10.4560   -2.5110  -21.0060 H   0  0  0  0  0  0  0  0  0  0  0  0
   -9.7360   -4.1050  -20.8860 H   0  0  0  0  0  0  0  0  0  0  0  0
   -9.1400   -0.1630  -21.2180 H   0  0  0  0  0  0  0  0  0  0  0  0
   -7.9190    0.3830  -22.3640 H   0  0  0  0  0  0  0  0  0  0  0  0
   -8.3860   -1.3860  -23.9010 H   0  0  0  0  0  0  0  0  0  0  0  0
  -10.5050   -0.0730  -23.8440 H   0  0  0  0  0  0  0  0  0  0  0  0
  -10.9060   -1.8040  -23.9880 H   0  0  0  0  0  0  0  0  0  0  0  0
  -11.0380   -0.9780  -22.4270 H   0  0  0  0  0  0  0  0  0  0  0  0
  1  2  1  0  0  0  0
  1 53  1  0  0  0  0
  1 54  1  0  0  0  0
  1 55  1  0  0  0  0
  2  3  1  0  0  0  0
  2 23  1  0  0  0  0
  2 52  1  6  0  0  0
  3  4  1  0  0  0  0
  3 50  1  0  0  0  0
  3 51  1  0  0  0  0
  4  5  1  0  0  0  0
  4 21  1  0  0  0  0
  5  6  2  0  0  0  0
  5 14  1  0  0  0  0
  6  7  1  0  0  0  0
  6 20  1  0  0  0  0
  7  8  2  0  0  0  0
  8  9  1  0  0  0  0
  8 19  1  0  0  0  0
  9 10  2  0  0  0  0
  9 14  1  0  0  0  0
 10 11  1  0  0  0  0
 10 18  1  0  0  0  0
 11 12  2  0  0  0  0
 11 17  1  0  0  0  0
 12 13  1  0  0  0  0
 12 16  1  0  0  0  0
 13 14  2  0  0  0  0
 13 15  1  0  0  0  0
 21 22  2  0  0  0  0
 23 21  1  1  0  0  0
 23 24  1  0  0  0  0
 23 44  1  0  0  0  0
 24 25  1  0  0  0  0
 24 48  1  0  0  0  0
 24 49  1  0  0  0  0
 25 26  1  0  0  0  0
 25 36  1  0  0  0  0
 26 27  1  0  0  0  0
 26 34  1  0  0  0  0
 26 35  1  0  0  0  0
 27 28  1  0  0  0  0
 27 31  2  0  0  0  0
 28 29  2  0  0  0  0
 28 33  1  0  0  0  0
 29 30  1  0  0  0  0
 30 31  1  0  0  0  0
 30 32  1  0  0  0  0
 36 37  2  0  0  0  0
 36 38  1  0  0  0  0
 38 39  2  0  0  0  0
 38 44  1  0  0  0  0
 39 40  1  0  0  0  0
 39 47  1  0  0  0  0
 40 41  2  0  0  0  0
 40 46  1  0  0  0  0
 41 42  1  0  0  0  0
 41 43  1  0  0  0  0
 43 44  2  0  0  0  0
 43 45  1  0  0  0  0
M  END
>  <MODEL>
       1

$$$$
