tmp_first_model_13_12.pdb
 OpenBabel08282500103D

 76 82  0  0  1  0  0  0  0  0999 V2000
  -11.3120    1.5750  -24.7420 O   0  0  0  0  0  0  0  0  0  0  0  0
  -10.7140    0.5800  -24.3390 C   0  0  0  0  0  0  0  0  0  0  0  0
  -11.3200   -0.3600  -23.3370 C   0  0  0  0  0  0  0  0  0  0  0  0
  -12.6730   -0.1950  -23.0400 C   0  0  0  0  0  0  0  0  0  0  0  0
  -13.3240   -1.0910  -22.2140 C   0  0  0  0  0  0  0  0  0  0  0  0
  -12.5890   -2.1430  -21.6740 C   0  0  0  0  0  0  0  0  0  0  0  0
  -13.4040   -3.3050  -20.6660 Cl  0  0  0  0  0  0  0  0  0  0  0  0
  -11.2280   -2.2710  -21.8920 C   0  0  0  0  0  0  0  0  0  0  0  0
  -10.5600   -1.3800  -22.7410 C   0  0  0  0  0  0  0  0  0  0  0  0
   -9.0570   -1.4710  -23.0220 C   0  0  1  0  0  0  0  0  0  0  0  0
   -8.8740   -1.0450  -24.5040 C   0  0  0  0  0  0  0  0  0  0  0  0
   -9.4800    0.2390  -24.8050 N   0  0  0  0  0  0  0  0  0  0  0  0
   -8.6760    1.2420  -25.4890 C   0  0  0  0  0  0  0  0  0  0  0  0
   -8.4000    0.8800  -26.9450 C   0  0  0  0  0  0  0  0  0  0  0  0
   -9.6850    0.6330  -27.6930 N   0  3  0  0  0  0  0  0  0  0  0  0
   -9.5190   -0.2360  -28.9140 C   0  0  0  0  0  0  0  0  0  0  0  0
   -8.9880    0.5500  -30.1100 C   0  0  0  0  0  0  0  0  0  0  0  0
   -9.7760    1.6920  -30.3930 O   0  0  0  0  0  0  0  0  0  0  0  0
   -9.7930    2.5790  -29.2920 C   0  0  0  0  0  0  0  0  0  0  0  0
  -10.4160    1.9080  -28.0780 C   0  0  0  0  0  0  0  0  0  0  0  0
  -10.4480    2.5720  -27.2130 H   0  0  0  0  0  0  0  0  0  0  0  0
  -11.4410    1.6380  -28.3400 H   0  0  0  0  0  0  0  0  0  0  0  0
   -8.7760    2.9360  -29.0670 H   0  0  0  0  0  0  0  0  0  0  0  0
  -10.4010    3.4380  -29.5890 H   0  0  0  0  0  0  0  0  0  0  0  0
   -9.0200   -0.0770  -31.0050 H   0  0  0  0  0  0  0  0  0  0  0  0
   -7.9420    0.8470  -29.9300 H   0  0  0  0  0  0  0  0  0  0  0  0
   -8.8470   -1.0630  -28.6690 H   0  0  0  0  0  0  0  0  0  0  0  0
  -10.4870   -0.6650  -29.1670 H   0  0  0  0  0  0  0  0  0  0  0  0
  -10.2840    0.1080  -27.0300 H   0  0  0  0  0  0  0  0  0  0  0  0
   -7.8300    1.6790  -27.4250 H   0  0  0  0  0  0  0  0  0  0  0  0
   -7.7950   -0.0320  -27.0040 H   0  0  0  0  0  0  0  0  0  0  0  0
   -7.7310    1.3700  -24.9460 H   0  0  0  0  0  0  0  0  0  0  0  0
   -9.2390    2.1730  -25.4280 H   0  0  0  0  0  0  0  0  0  0  0  0
   -9.3280   -1.8170  -25.1450 H   0  0  0  0  0  0  0  0  0  0  0  0
   -7.8120   -0.9700  -24.7470 H   0  0  0  0  0  0  0  0  0  0  0  0
   -8.2380   -0.5280  -22.1000 C   0  0  0  0  0  0  0  0  0  0  0  0
   -8.2680    0.6830  -22.0880 O   0  0  0  0  0  0  0  0  0  0  0  0
   -7.4370   -1.2990  -21.2780 N   0  0  0  0  0  0  0  0  0  0  0  0
   -6.6220   -0.7660  -20.2470 C   0  0  0  0  0  0  0  0  0  0  0  0
   -6.9090   -1.0440  -18.9320 C   0  0  0  0  0  0  0  0  0  0  0  0
   -6.2200   -0.5610  -17.8710 N   0  0  0  0  0  0  0  0  0  0  0  0
   -5.1910    0.2100  -18.1160 C   0  0  0  0  0  0  0  0  0  0  0  0
   -4.7440    0.5390  -19.4260 C   0  0  0  0  0  0  0  0  0  0  0  0
   -3.6070    1.3630  -19.6320 C   0  0  0  0  0  0  0  0  0  0  0  0
   -3.1650    1.6270  -20.8990 C   0  0  0  0  0  0  0  0  0  0  0  0
   -3.8340    1.0710  -22.0110 C   0  0  0  0  0  0  0  0  0  0  0  0
   -4.9440    0.2800  -21.8380 C   0  0  0  0  0  0  0  0  0  0  0  0
   -5.4510    0.0180  -20.5340 C   0  0  0  0  0  0  0  0  0  0  0  0
   -5.4420   -0.1490  -22.7010 H   0  0  0  0  0  0  0  0  0  0  0  0
   -3.4710    1.2710  -23.0150 H   0  0  0  0  0  0  0  0  0  0  0  0
   -2.3020    2.2650  -21.0580 H   0  0  0  0  0  0  0  0  0  0  0  0
   -3.1040    1.7740  -18.7620 H   0  0  0  0  0  0  0  0  0  0  0  0
   -4.6460    0.6010  -17.2580 H   0  0  0  0  0  0  0  0  0  0  0  0
   -7.7620   -1.6740  -18.6830 H   0  0  0  0  0  0  0  0  0  0  0  0
   -7.7660   -2.7080  -21.3380 C   0  0  0  0  0  0  0  0  0  0  0  0
   -8.4510   -2.8720  -22.7070 C   0  0  2  0  0  0  0  0  0  0  0  0
   -7.4990   -3.4420  -23.7780 C   0  0  0  0  0  0  0  0  0  0  0  0
   -7.1020   -4.8160  -23.5180 N   0  0  0  0  0  0  0  0  0  0  0  0
   -7.9190   -5.8520  -23.7460 C   0  0  0  0  0  0  0  0  0  0  0  0
  -10.0970   -6.4220  -24.8000 N   0  0  0  0  0  0  0  0  0  0  0  0
   -9.0880   -5.8640  -24.4670 C   0  0  0  0  0  0  0  0  0  0  0  0
   -8.4640   -8.0750  -23.3680 C   0  0  0  0  0  0  0  0  0  0  0  0
   -8.5500   -8.0130  -23.3590 C   0  0  0  0  0  0  0  0  0  0  0  0
   -7.5260   -7.0280  -23.2170 N   0  0  0  0  0  0  0  0  0  0  0  0
   -7.8120   -9.0880  -23.1930 H   0  0  0  0  0  0  0  0  0  0  0  0
   -9.3940   -8.3940  -24.1350 H   0  0  0  0  0  0  0  0  0  0  0  0
  -10.9240   -6.0910  -25.2890 H   0  0  0  0  0  0  0  0  0  0  0  0
   -6.3940   -5.0120  -22.8210 H   0  0  0  0  0  0  0  0  0  0  0  0
   -8.0120   -3.4630  -24.7430 H   0  0  0  0  0  0  0  0  0  0  0  0
   -6.6020   -2.8180  -23.8910 H   0  0  0  0  0  0  0  0  0  0  0  0
   -9.2480   -3.6160  -22.6560 H   0  0  0  0  0  0  0  0  0  0  0  0
   -8.4560   -2.9820  -20.5270 H   0  0  0  0  0  0  0  0  0  0  0  0
   -6.8520   -3.2980  -21.2170 H   0  0  0  0  0  0  0  0  0  0  0  0
  -10.7100   -3.0740  -21.3810 H   0  0  0  0  0  0  0  0  0  0  0  0
  -14.3800   -0.9850  -21.9850 H   0  0  0  0  0  0  0  0  0  0  0  0
  -13.1960    0.6460  -23.4830 H   0  0  0  0  0  0  0  0  0  0  0  0
  1  2  2  0  0  0  0
  2  3  1  0  0  0  0
  2 12  1  0  0  0  0
  3  4  2  0  0  0  0
  3  9  1  0  0  0  0
  4  5  1  0  0  0  0
  4 76  1  0  0  0  0
  5  6  2  0  0  0  0
  5 75  1  0  0  0  0
  6  7  1  0  0  0  0
  6  8  1  0  0  0  0
  8  9  2  0  0  0  0
  8 74  1  0  0  0  0
 10  9  1  1  0  0  0
 10 11  1  0  0  0  0
 10 36  1  0  0  0  0
 10 56  1  0  0  0  0
 11 12  1  0  0  0  0
 11 34  1  0  0  0  0
 11 35  1  0  0  0  0
 12 13  1  0  0  0  0
 13 14  1  0  0  0  0
 13 32  1  0  0  0  0
 13 33  1  0  0  0  0
 14 15  1  0  0  0  0
 14 30  1  0  0  0  0
 14 31  1  0  0  0  0
 15 16  1  0  0  0  0
 15 20  1  0  0  0  0
 15 29  1  0  0  0  0
 16 17  1  0  0  0  0
 16 27  1  0  0  0  0
 16 28  1  0  0  0  0
 17 18  1  0  0  0  0
 17 25  1  0  0  0  0
 17 26  1  0  0  0  0
 18 19  1  0  0  0  0
 19 20  1  0  0  0  0
 19 23  1  0  0  0  0
 19 24  1  0  0  0  0
 20 21  1  0  0  0  0
 20 22  1  0  0  0  0
 36 37  2  0  0  0  0
 36 38  1  0  0  0  0
 38 39  1  0  0  0  0
 38 55  1  0  0  0  0
 39 40  2  0  0  0  0
 39 48  1  0  0  0  0
 40 41  1  0  0  0  0
 40 54  1  0  0  0  0
 41 42  2  0  0  0  0
 42 43  1  0  0  0  0
 42 53  1  0  0  0  0
 43 44  2  0  0  0  0
 43 48  1  0  0  0  0
 44 45  1  0  0  0  0
 44 52  1  0  0  0  0
 45 46  2  0  0  0  0
 45 51  1  0  0  0  0
 46 47  1  0  0  0  0
 46 50  1  0  0  0  0
 47 48  2  0  0  0  0
 47 49  1  0  0  0  0
 55 56  1  0  0  0  0
 55 72  1  0  0  0  0
 55 73  1  0  0  0  0
 56 57  1  0  0  0  0
 56 71  1  1  0  0  0
 57 58  1  0  0  0  0
 57 69  1  0  0  0  0
 57 70  1  0  0  0  0
 58 59  1  0  0  0  0
 58 68  1  0  0  0  0
 59 60  2  0  0  0  0
 59 64  1  0  0  0  0
 60 61  1  0  0  0  0
 61 62  2  0  0  0  0
 61 67  1  0  0  0  0
 62 63  1  0  0  0  0
 62 66  1  0  0  0  0
 63 64  2  0  0  0  0
 63 65  1  0  0  0  0
M  CHG  1  15   1
M  END
>  <MODEL>
       1

$$$$
