tmp_first_model_4_7.pdb
 OpenBabel08272518513D

 44 47  0  0  0  0  0  0  0  0999 V2000
  -10.0830   -5.9830  -27.5610 C   0  0  0  0  0  0  0  0  0  0  0  0
   -8.9730   -5.3020  -26.7650 C   0  0  0  0  0  0  0  0  0  0  0  0
   -9.2920   -5.5350  -25.0210 S   0  0  0  0  0  0  0  0  0  0  0  0
   -9.1030   -6.9360  -24.6820 O   0  0  0  0  0  0  0  0  0  0  0  0
  -10.5500   -4.8620  -24.7240 O   0  0  0  0  0  0  0  0  0  0  0  0
   -8.0210   -4.7110  -24.2780 N   0  0  0  0  0  0  0  0  0  0  0  0
   -8.0790   -4.7030  -22.7840 C   0  0  0  0  0  0  0  0  0  0  0  0
   -8.0580   -3.1600  -22.7850 C   0  0  0  0  0  0  0  0  0  0  0  0
   -7.9990   -3.2290  -24.3290 C   0  0  0  0  0  0  0  0  0  0  0  0
   -7.0520   -2.8550  -24.7230 H   0  0  0  0  0  0  0  0  0  0  0  0
   -8.8490   -2.7530  -24.8290 H   0  0  0  0  0  0  0  0  0  0  0  0
   -6.8410   -2.5670  -22.1110 C   0  0  0  0  0  0  0  0  0  0  0  0
   -5.6900   -2.9220  -22.2160 O   0  0  0  0  0  0  0  0  0  0  0  0
   -7.3110   -1.5260  -21.3120 N   0  0  0  0  0  0  0  0  0  0  0  0
   -6.5200   -1.0010  -20.2600 C   0  0  0  0  0  0  0  0  0  0  0  0
   -6.8090   -1.2700  -18.9460 C   0  0  0  0  0  0  0  0  0  0  0  0
   -5.9830   -0.9700  -17.9120 N   0  0  0  0  0  0  0  0  0  0  0  0
   -4.8550   -0.3650  -18.1960 C   0  0  0  0  0  0  0  0  0  0  0  0
   -4.4850    0.0320  -19.5110 C   0  0  0  0  0  0  0  0  0  0  0  0
   -3.3270    0.8100  -19.7370 C   0  0  0  0  0  0  0  0  0  0  0  0
   -3.0820    1.3330  -20.9780 C   0  0  0  0  0  0  0  0  0  0  0  0
   -3.9470    1.0390  -22.0560 C   0  0  0  0  0  0  0  0  0  0  0  0
   -5.0460    0.2420  -21.8760 C   0  0  0  0  0  0  0  0  0  0  0  0
   -5.3410   -0.2750  -20.5830 C   0  0  0  0  0  0  0  0  0  0  0  0
   -5.7010    0.0080  -22.7100 H   0  0  0  0  0  0  0  0  0  0  0  0
   -3.7620    1.4790  -23.0330 H   0  0  0  0  0  0  0  0  0  0  0  0
   -2.2550    2.0180  -21.1300 H   0  0  0  0  0  0  0  0  0  0  0  0
   -2.6910    1.0160  -18.8820 H   0  0  0  0  0  0  0  0  0  0  0  0
   -4.1730   -0.1200  -17.3770 H   0  0  0  0  0  0  0  0  0  0  0  0
   -7.7430   -1.7590  -18.6790 H   0  0  0  0  0  0  0  0  0  0  0  0
   -8.6980   -1.3290  -21.4630 C   0  0  0  0  0  0  0  0  0  0  0  0
   -9.3450   -0.3970  -21.0450 O   0  0  0  0  0  0  0  0  0  0  0  0
   -9.1390   -2.4160  -22.1810 N   0  0  0  0  0  0  0  0  0  0  0  0
  -10.5350   -2.6580  -22.4690 C   0  0  0  0  0  0  0  0  0  0  0  0
  -10.7940   -3.6940  -22.2340 H   0  0  0  0  0  0  0  0  0  0  0  0
  -10.7630   -2.4780  -23.5230 H   0  0  0  0  0  0  0  0  0  0  0  0
  -11.1320   -1.9870  -21.8520 H   0  0  0  0  0  0  0  0  0  0  0  0
   -7.1720   -5.1370  -22.3620 H   0  0  0  0  0  0  0  0  0  0  0  0
   -8.9650   -5.1730  -22.3470 H   0  0  0  0  0  0  0  0  0  0  0  0
   -8.9520   -4.2220  -26.9460 H   0  0  0  0  0  0  0  0  0  0  0  0
   -7.9820   -5.7100  -26.9860 H   0  0  0  0  0  0  0  0  0  0  0  0
   -9.9370   -5.8430  -28.6370 H   0  0  0  0  0  0  0  0  0  0  0  0
  -11.0550   -5.5660  -27.2840 H   0  0  0  0  0  0  0  0  0  0  0  0
  -10.0990   -7.0550  -27.3480 H   0  0  0  0  0  0  0  0  0  0  0  0
  1  2  1  0  0  0  0
  1 42  1  0  0  0  0
  1 43  1  0  0  0  0
  1 44  1  0  0  0  0
  2  3  1  0  0  0  0
  2 40  1  0  0  0  0
  2 41  1  0  0  0  0
  3  4  2  0  0  0  0
  3  5  2  0  0  0  0
  3  6  1  0  0  0  0
  6  7  1  0  0  0  0
  6  9  1  0  0  0  0
  7  8  1  0  0  0  0
  7 38  1  0  0  0  0
  7 39  1  0  0  0  0
  8  9  1  0  0  0  0
  8 12  1  0  0  0  0
  8 33  1  0  0  0  0
  9 10  1  0  0  0  0
  9 11  1  0  0  0  0
 12 13  2  0  0  0  0
 12 14  1  0  0  0  0
 14 15  1  0  0  0  0
 14 31  1  0  0  0  0
 15 16  2  0  0  0  0
 15 24  1  0  0  0  0
 16 17  1  0  0  0  0
 16 30  1  0  0  0  0
 17 18  2  0  0  0  0
 18 19  1  0  0  0  0
 18 29  1  0  0  0  0
 19 20  2  0  0  0  0
 19 24  1  0  0  0  0
 20 21  1  0  0  0  0
 20 28  1  0  0  0  0
 21 22  2  0  0  0  0
 21 27  1  0  0  0  0
 22 23  1  0  0  0  0
 22 26  1  0  0  0  0
 23 24  2  0  0  0  0
 23 25  1  0  0  0  0
 31 32  2  0  0  0  0
 31 33  1  0  0  0  0
 33 34  1  0  0  0  0
 34 35  1  0  0  0  0
 34 36  1  0  0  0  0
 34 37  1  0  0  0  0
M  END
>  <MODEL>
       1

$$$$
