tmp_first_model_8_37.pdb
 OpenBabel08272521063D

 56 60  0  0  1  0  0  0  0  0999 V2000
  -14.5320   -1.4820  -23.7950 C   0  0  0  0  0  0  0  0  0  0  0  0
  -13.7710   -2.6220  -23.3360 N   0  0  0  0  0  0  0  0  0  0  0  0
  -13.3910   -2.6690  -22.0380 C   0  0  0  0  0  0  0  0  0  0  0  0
  -13.7420   -1.8390  -21.2160 O   0  0  0  0  0  0  0  0  0  0  0  0
  -12.4930   -3.8500  -21.6980 C   0  0  0  0  0  0  0  0  0  0  0  0
  -11.1590   -3.8040  -22.2810 N   0  0  0  0  0  0  0  0  0  0  0  0
  -10.0380   -3.3410  -21.4750 C   0  0  0  0  0  0  0  0  0  0  0  0
   -8.8200   -2.9080  -22.3230 C   0  0  2  0  0  0  0  0  0  0  0  0
   -7.6240   -2.7150  -21.3850 C   0  0  0  0  0  0  0  0  0  0  0  0
   -6.9580   -3.5930  -20.8670 O   0  0  0  0  0  0  0  0  0  0  0  0
   -7.3860   -1.3660  -21.2350 N   0  0  0  0  0  0  0  0  0  0  0  0
   -6.5870   -0.8660  -20.1840 C   0  0  0  0  0  0  0  0  0  0  0  0
   -6.8970   -1.1240  -18.8730 C   0  0  0  0  0  0  0  0  0  0  0  0
   -6.2250   -0.6020  -17.8170 N   0  0  0  0  0  0  0  0  0  0  0  0
   -5.2120    0.1900  -18.0750 C   0  0  0  0  0  0  0  0  0  0  0  0
   -4.7760    0.5220  -19.3890 C   0  0  0  0  0  0  0  0  0  0  0  0
   -3.6560    1.3580  -19.6230 C   0  0  0  0  0  0  0  0  0  0  0  0
   -3.2830    1.6690  -20.9000 C   0  0  0  0  0  0  0  0  0  0  0  0
   -4.0110    1.1630  -21.9990 C   0  0  0  0  0  0  0  0  0  0  0  0
   -5.0760    0.3210  -21.8030 C   0  0  0  0  0  0  0  0  0  0  0  0
   -5.4880   -0.0080  -20.4850 C   0  0  0  0  0  0  0  0  0  0  0  0
   -5.5960   -0.1120  -22.6520 H   0  0  0  0  0  0  0  0  0  0  0  0
   -3.7020    1.4200  -23.0080 H   0  0  0  0  0  0  0  0  0  0  0  0
   -2.4230    2.3070  -21.0810 H   0  0  0  0  0  0  0  0  0  0  0  0
   -3.1170    1.7510  -18.7660 H   0  0  0  0  0  0  0  0  0  0  0  0
   -4.6740    0.6100  -17.2240 H   0  0  0  0  0  0  0  0  0  0  0  0
   -7.7350   -1.7730  -18.6250 H   0  0  0  0  0  0  0  0  0  0  0  0
   -8.3730   -0.5310  -21.9000 C   0  0  0  0  0  0  0  0  0  0  0  0
   -9.0040   -1.4730  -22.9310 C   0  0  2  0  0  0  0  0  0  0  0  0
  -10.4410   -1.1080  -23.2790 C   0  0  0  0  0  0  0  0  0  0  0  0
  -10.8670   -1.8650  -23.9420 H   0  0  0  0  0  0  0  0  0  0  0  0
  -10.5130   -0.1330  -23.7690 H   0  0  0  0  0  0  0  0  0  0  0  0
  -11.0520   -1.0840  -22.3710 H   0  0  0  0  0  0  0  0  0  0  0  0
   -8.3950   -1.4480  -23.8450 H   0  0  0  0  0  0  0  0  0  0  0  0
   -9.1260   -0.1630  -21.1850 H   0  0  0  0  0  0  0  0  0  0  0  0
   -7.9030    0.3430  -22.3600 H   0  0  0  0  0  0  0  0  0  0  0  0
   -8.5460   -3.9550  -23.3730 C   0  0  0  0  0  0  0  0  0  0  0  0
   -7.2720   -4.1080  -23.9250 C   0  0  0  0  0  0  0  0  0  0  0  0
   -7.0440   -5.0460  -24.9180 C   0  0  0  0  0  0  0  0  0  0  0  0
   -8.0700   -5.8780  -25.3610 C   0  0  0  0  0  0  0  0  0  0  0  0
   -9.3360   -5.7270  -24.8300 C   0  0  0  0  0  0  0  0  0  0  0  0
   -9.5800   -4.7440  -23.8750 C   0  0  0  0  0  0  0  0  0  0  0  0
  -10.9810   -4.5140  -23.4280 C   0  0  0  0  0  0  0  0  0  0  0  0
  -11.9500   -4.9200  -24.0640 O   0  0  0  0  0  0  0  0  0  0  0  0
  -10.1510   -6.3710  -25.1360 H   0  0  0  0  0  0  0  0  0  0  0  0
   -7.8780   -6.6360  -26.1160 H   0  0  0  0  0  0  0  0  0  0  0  0
   -6.0640   -5.1220  -25.3690 H   0  0  0  0  0  0  0  0  0  0  0  0
   -6.4480   -3.5030  -23.5570 H   0  0  0  0  0  0  0  0  0  0  0  0
  -10.3610   -2.4780  -20.8840 H   0  0  0  0  0  0  0  0  0  0  0  0
   -9.7590   -4.1420  -20.7880 H   0  0  0  0  0  0  0  0  0  0  0  0
  -12.4390   -3.9790  -20.6170 H   0  0  0  0  0  0  0  0  0  0  0  0
  -12.9980   -4.7110  -22.1330 H   0  0  0  0  0  0  0  0  0  0  0  0
  -13.4600   -3.3610  -23.9520 H   0  0  0  0  0  0  0  0  0  0  0  0
  -13.9110   -0.5750  -23.8060 H   0  0  0  0  0  0  0  0  0  0  0  0
  -15.3840   -1.3160  -23.1270 H   0  0  0  0  0  0  0  0  0  0  0  0
  -14.8920   -1.6780  -24.8040 H   0  0  0  0  0  0  0  0  0  0  0  0
  1  2  1  0  0  0  0
  1 54  1  0  0  0  0
  1 55  1  0  0  0  0
  1 56  1  0  0  0  0
  2  3  1  0  0  0  0
  2 53  1  0  0  0  0
  3  4  2  0  0  0  0
  3  5  1  0  0  0  0
  5  6  1  0  0  0  0
  5 51  1  0  0  0  0
  5 52  1  0  0  0  0
  6  7  1  0  0  0  0
  6 43  1  0  0  0  0
  7  8  1  0  0  0  0
  7 49  1  0  0  0  0
  7 50  1  0  0  0  0
  8  9  1  1  0  0  0
  8 29  1  0  0  0  0
  8 37  1  0  0  0  0
  9 10  2  0  0  0  0
  9 11  1  0  0  0  0
 11 12  1  0  0  0  0
 11 28  1  0  0  0  0
 12 13  2  0  0  0  0
 12 21  1  0  0  0  0
 13 14  1  0  0  0  0
 13 27  1  0  0  0  0
 14 15  2  0  0  0  0
 15 16  1  0  0  0  0
 15 26  1  0  0  0  0
 16 17  2  0  0  0  0
 16 21  1  0  0  0  0
 17 18  1  0  0  0  0
 17 25  1  0  0  0  0
 18 19  2  0  0  0  0
 18 24  1  0  0  0  0
 19 20  1  0  0  0  0
 19 23  1  0  0  0  0
 20 21  2  0  0  0  0
 20 22  1  0  0  0  0
 28 29  1  0  0  0  0
 28 35  1  0  0  0  0
 28 36  1  0  0  0  0
 29 30  1  0  0  0  0
 29 34  1  6  0  0  0
 30 31  1  0  0  0  0
 30 32  1  0  0  0  0
 30 33  1  0  0  0  0
 37 38  2  0  0  0  0
 37 42  1  0  0  0  0
 38 39  1  0  0  0  0
 38 48  1  0  0  0  0
 39 40  2  0  0  0  0
 39 47  1  0  0  0  0
 40 41  1  0  0  0  0
 40 46  1  0  0  0  0
 41 42  2  0  0  0  0
 41 45  1  0  0  0  0
 42 43  1  0  0  0  0
 43 44  2  0  0  0  0
M  END
>  <MODEL>
       1

$$$$
