tmp_first_model_1_95.pdb
 OpenBabel08272517043D

 66 71  0  0  1  0  0  0  0  0999 V2000
   -5.6150   -0.1190  -29.4330 C   0  0  0  0  0  0  0  0  0  0  0  0
   -5.6200    0.1110  -28.0070 N   0  0  0  0  0  0  0  0  0  0  0  0
   -5.0470   -0.7780  -27.1580 C   0  0  0  0  0  0  0  0  0  0  0  0
   -4.4390   -1.7700  -27.5270 O   0  0  0  0  0  0  0  0  0  0  0  0
   -5.1910   -0.3910  -25.6760 C   0  0  0  0  0  0  0  0  0  0  0  0
   -6.4300   -0.8690  -25.0760 N   0  0  0  0  0  0  0  0  0  0  0  0
   -6.3960   -2.0690  -24.2590 C   0  0  0  0  0  0  0  0  0  0  0  0
   -7.4860   -2.0840  -23.1410 C   0  0  2  0  0  0  0  0  0  0  0  0
   -7.1080   -1.0870  -22.0200 C   0  0  0  0  0  0  0  0  0  0  0  0
   -7.4250    0.0760  -21.9160 O   0  0  0  0  0  0  0  0  0  0  0  0
   -6.3500   -1.7780  -21.0910 N   0  0  0  0  0  0  0  0  0  0  0  0
   -5.7900   -1.0920  -19.9880 C   0  0  0  0  0  0  0  0  0  0  0  0
   -6.2390   -1.3700  -18.7190 C   0  0  0  0  0  0  0  0  0  0  0  0
   -5.8340   -0.7320  -17.5940 N   0  0  0  0  0  0  0  0  0  0  0  0
   -4.9390    0.2180  -17.7270 C   0  0  0  0  0  0  0  0  0  0  0  0
   -4.3650    0.5910  -18.9750 C   0  0  0  0  0  0  0  0  0  0  0  0
   -3.3760    1.6090  -19.0420 C   0  0  0  0  0  0  0  0  0  0  0  0
   -2.8080    1.9560  -20.2370 C   0  0  0  0  0  0  0  0  0  0  0  0
   -3.2020    1.2880  -21.4200 C   0  0  0  0  0  0  0  0  0  0  0  0
   -4.1600    0.3030  -21.3810 C   0  0  0  0  0  0  0  0  0  0  0  0
   -4.7810   -0.0770  -20.1510 C   0  0  0  0  0  0  0  0  0  0  0  0
   -4.4610   -0.1850  -22.3050 H   0  0  0  0  0  0  0  0  0  0  0  0
   -2.7540    1.5680  -22.3710 H   0  0  0  0  0  0  0  0  0  0  0  0
   -2.0560    2.7410  -20.2860 H   0  0  0  0  0  0  0  0  0  0  0  0
   -3.0930    2.1070  -18.1180 H   0  0  0  0  0  0  0  0  0  0  0  0
   -4.6220    0.7510  -16.8270 H   0  0  0  0  0  0  0  0  0  0  0  0
   -6.9990   -2.1370  -18.5700 H   0  0  0  0  0  0  0  0  0  0  0  0
   -6.2950   -3.2190  -21.3570 C   0  0  0  0  0  0  0  0  0  0  0  0
   -7.4870   -3.3910  -22.3070 C   0  0  2  0  0  0  0  0  0  0  0  0
   -7.6740   -4.7090  -23.0760 C   0  0  0  0  0  0  0  0  0  0  0  0
   -6.5270   -5.2210  -23.8000 N   0  0  0  0  0  0  0  0  0  0  0  0
   -5.5060   -5.9500  -23.2800 C   0  0  0  0  0  0  0  0  0  0  0  0
   -5.5370   -6.4470  -21.9660 C   0  0  0  0  0  0  0  0  0  0  0  0
   -4.4780   -7.2470  -21.5980 C   0  0  0  0  0  0  0  0  0  0  0  0
   -3.4020   -7.4500  -22.3730 N   0  0  0  0  0  0  0  0  0  0  0  0
   -3.4580   -6.8830  -23.5710 C   0  0  0  0  0  0  0  0  0  0  0  0
   -4.4550   -6.1700  -24.0870 N   0  0  0  0  0  0  0  0  0  0  0  0
   -2.5930   -7.0330  -24.2200 H   0  0  0  0  0  0  0  0  0  0  0  0
   -4.4580   -7.7290  -20.6170 H   0  0  0  0  0  0  0  0  0  0  0  0
   -6.3490   -6.1970  -21.2870 H   0  0  0  0  0  0  0  0  0  0  0  0
   -6.5020   -5.1340  -24.8040 H   0  0  0  0  0  0  0  0  0  0  0  0
   -8.4780   -4.5520  -23.8080 H   0  0  0  0  0  0  0  0  0  0  0  0
   -8.0430   -5.4810  -22.3890 H   0  0  0  0  0  0  0  0  0  0  0  0
   -8.3720   -3.3000  -21.6680 H   0  0  0  0  0  0  0  0  0  0  0  0
   -6.3970   -3.8020  -20.4360 H   0  0  0  0  0  0  0  0  0  0  0  0
   -5.3480   -3.4820  -21.8480 H   0  0  0  0  0  0  0  0  0  0  0  0
   -8.8160   -1.7230  -23.7530 C   0  0  0  0  0  0  0  0  0  0  0  0
  -10.0490   -2.0710  -23.1800 C   0  0  0  0  0  0  0  0  0  0  0  0
  -11.2360   -1.6080  -23.7240 C   0  0  0  0  0  0  0  0  0  0  0  0
  -12.7120   -2.1020  -22.9240 Cl  0  0  0  0  0  0  0  0  0  0  0  0
  -11.2500   -0.7770  -24.8480 C   0  0  0  0  0  0  0  0  0  0  0  0
  -10.0380   -0.4360  -25.4110 C   0  0  0  0  0  0  0  0  0  0  0  0
   -8.8400   -0.8620  -24.8530 C   0  0  0  0  0  0  0  0  0  0  0  0
   -7.5940   -0.2710  -25.4260 C   0  0  0  0  0  0  0  0  0  0  0  0
   -7.6240    0.7180  -26.1650 O   0  0  0  0  0  0  0  0  0  0  0  0
   -9.9770    0.1960  -26.2860 H   0  0  0  0  0  0  0  0  0  0  0  0
  -12.1690   -0.3790  -25.2620 H   0  0  0  0  0  0  0  0  0  0  0  0
  -10.1220   -2.6820  -22.2880 H   0  0  0  0  0  0  0  0  0  0  0  0
   -5.4010   -2.1050  -23.8070 H   0  0  0  0  0  0  0  0  0  0  0  0
   -6.5200   -2.9510  -24.8950 H   0  0  0  0  0  0  0  0  0  0  0  0
   -4.3370   -0.8120  -25.1340 H   0  0  0  0  0  0  0  0  0  0  0  0
   -5.1630    0.6990  -25.5880 H   0  0  0  0  0  0  0  0  0  0  0  0
   -6.3300    0.7090  -27.6020 H   0  0  0  0  0  0  0  0  0  0  0  0
   -4.5980   -0.3580  -29.7580 H   0  0  0  0  0  0  0  0  0  0  0  0
   -5.9550    0.7960  -29.9310 H   0  0  0  0  0  0  0  0  0  0  0  0
   -6.2660   -0.9550  -29.7170 H   0  0  0  0  0  0  0  0  0  0  0  0
  1  2  1  0  0  0  0
  1 64  1  0  0  0  0
  1 65  1  0  0  0  0
  1 66  1  0  0  0  0
  2  3  1  0  0  0  0
  2 63  1  0  0  0  0
  3  4  2  0  0  0  0
  3  5  1  0  0  0  0
  5  6  1  0  0  0  0
  5 61  1  0  0  0  0
  5 62  1  0  0  0  0
  6  7  1  0  0  0  0
  6 54  1  0  0  0  0
  7  8  1  0  0  0  0
  7 59  1  0  0  0  0
  7 60  1  0  0  0  0
  8  9  1  1  0  0  0
  8 29  1  0  0  0  0
  8 47  1  0  0  0  0
  9 10  2  0  0  0  0
  9 11  1  0  0  0  0
 11 12  1  0  0  0  0
 11 28  1  0  0  0  0
 12 13  2  0  0  0  0
 12 21  1  0  0  0  0
 13 14  1  0  0  0  0
 13 27  1  0  0  0  0
 14 15  2  0  0  0  0
 15 16  1  0  0  0  0
 15 26  1  0  0  0  0
 16 17  2  0  0  0  0
 16 21  1  0  0  0  0
 17 18  1  0  0  0  0
 17 25  1  0  0  0  0
 18 19  2  0  0  0  0
 18 24  1  0  0  0  0
 19 20  1  0  0  0  0
 19 23  1  0  0  0  0
 20 21  2  0  0  0  0
 20 22  1  0  0  0  0
 28 29  1  0  0  0  0
 28 45  1  0  0  0  0
 28 46  1  0  0  0  0
 29 30  1  0  0  0  0
 29 44  1  1  0  0  0
 30 31  1  0  0  0  0
 30 42  1  0  0  0  0
 30 43  1  0  0  0  0
 31 32  1  0  0  0  0
 31 41  1  0  0  0  0
 32 33  2  0  0  0  0
 32 37  1  0  0  0  0
 33 34  1  0  0  0  0
 33 40  1  0  0  0  0
 34 35  2  0  0  0  0
 34 39  1  0  0  0  0
 35 36  1  0  0  0  0
 36 37  2  0  0  0  0
 36 38  1  0  0  0  0
 47 48  2  0  0  0  0
 47 53  1  0  0  0  0
 48 49  1  0  0  0  0
 48 58  1  0  0  0  0
 49 50  1  0  0  0  0
 49 51  2  0  0  0  0
 51 52  1  0  0  0  0
 51 57  1  0  0  0  0
 52 53  2  0  0  0  0
 52 56  1  0  0  0  0
 53 54  1  0  0  0  0
 54 55  2  0  0  0  0
M  END
>  <MODEL>
       1

$$$$
