tmp_first_model_19_11.pdb
 OpenBabel08282503233D

 48 52  0  0  0  0  0  0  0  0999 V2000
   -9.6830   -0.9150  -23.9970 C   0  0  0  0  0  0  0  0  0  0  0  0
   -8.6740   -1.3840  -23.0710 N   0  0  0  0  0  0  0  0  0  0  0  0
   -8.4530   -0.7720  -21.8670 C   0  0  0  0  0  0  0  0  0  0  0  0
   -9.0640    0.1440  -21.3620 O   0  0  0  0  0  0  0  0  0  0  0  0
   -7.3450   -1.4210  -21.2980 N   0  0  0  0  0  0  0  0  0  0  0  0
   -6.5740   -0.8400  -20.2610 C   0  0  0  0  0  0  0  0  0  0  0  0
   -6.9360   -1.0700  -18.9650 C   0  0  0  0  0  0  0  0  0  0  0  0
   -6.2660   -0.5860  -17.8920 N   0  0  0  0  0  0  0  0  0  0  0  0
   -5.2210    0.1680  -18.1270 C   0  0  0  0  0  0  0  0  0  0  0  0
   -4.7450    0.4990  -19.4290 C   0  0  0  0  0  0  0  0  0  0  0  0
   -3.6070    1.3250  -19.6270 C   0  0  0  0  0  0  0  0  0  0  0  0
   -3.1940    1.6410  -20.8910 C   0  0  0  0  0  0  0  0  0  0  0  0
   -3.8980    1.1490  -22.0140 C   0  0  0  0  0  0  0  0  0  0  0  0
   -5.0000    0.3500  -21.8490 C   0  0  0  0  0  0  0  0  0  0  0  0
   -5.4450   -0.0070  -20.5440 C   0  0  0  0  0  0  0  0  0  0  0  0
   -5.5460   -0.0020  -22.7190 H   0  0  0  0  0  0  0  0  0  0  0  0
   -3.5660    1.4130  -23.0140 H   0  0  0  0  0  0  0  0  0  0  0  0
   -2.3310    2.2840  -21.0420 H   0  0  0  0  0  0  0  0  0  0  0  0
   -3.0930    1.7130  -18.7510 H   0  0  0  0  0  0  0  0  0  0  0  0
   -4.6900    0.5550  -17.2580 H   0  0  0  0  0  0  0  0  0  0  0  0
   -7.8050   -1.6880  -18.7570 H   0  0  0  0  0  0  0  0  0  0  0  0
   -6.9120   -2.4990  -22.0640 C   0  0  0  0  0  0  0  0  0  0  0  0
   -6.0120   -3.2480  -21.7840 O   0  0  0  0  0  0  0  0  0  0  0  0
   -7.7770   -2.4870  -23.3080 C   0  0  0  0  0  0  0  0  0  0  0  0
   -6.9430   -2.5240  -24.6010 C   0  0  0  0  0  0  0  0  0  0  0  0
   -7.5150   -3.8590  -24.9360 N   0  0  0  0  0  0  0  0  0  0  0  0
   -8.2290   -3.8610  -26.4680 S   0  0  0  0  0  0  0  0  0  0  0  0
   -9.2930   -2.8590  -26.4920 O   0  0  0  0  0  0  0  0  0  0  0  0
   -7.1240   -3.7670  -27.4010 O   0  0  0  0  0  0  0  0  0  0  0  0
   -9.0110   -5.4610  -26.5350 C   0  0  0  0  0  0  0  0  0  0  0  0
   -8.6620   -6.5470  -25.7300 C   0  0  0  0  0  0  0  0  0  0  0  0
   -9.4590   -7.6880  -25.7640 C   0  0  0  0  0  0  0  0  0  0  0  0
  -10.5350   -7.7560  -26.6420 C   0  0  0  0  0  0  0  0  0  0  0  0
  -10.8570   -6.6860  -27.4700 C   0  0  0  0  0  0  0  0  0  0  0  0
  -10.0890   -5.5320  -27.4170 C   0  0  0  0  0  0  0  0  0  0  0  0
  -10.3170   -4.6680  -28.0270 H   0  0  0  0  0  0  0  0  0  0  0  0
  -11.6860   -6.7740  -28.1670 H   0  0  0  0  0  0  0  0  0  0  0  0
  -11.1000   -8.6730  -26.7330 H   0  0  0  0  0  0  0  0  0  0  0  0
   -9.2000   -8.5540  -25.1510 H   0  0  0  0  0  0  0  0  0  0  0  0
   -7.7990   -6.4960  -25.0690 H   0  0  0  0  0  0  0  0  0  0  0  0
   -8.3800   -3.8450  -23.7290 C   0  0  0  0  0  0  0  0  0  0  0  0
   -9.4590   -3.8470  -23.9180 H   0  0  0  0  0  0  0  0  0  0  0  0
   -8.1100   -4.6570  -23.0500 H   0  0  0  0  0  0  0  0  0  0  0  0
   -5.8650   -2.5880  -24.4550 H   0  0  0  0  0  0  0  0  0  0  0  0
   -7.1870   -1.7410  -25.3210 H   0  0  0  0  0  0  0  0  0  0  0  0
   -9.2330   -0.5040  -24.9070 H   0  0  0  0  0  0  0  0  0  0  0  0
  -10.3650   -1.7220  -24.2740 H   0  0  0  0  0  0  0  0  0  0  0  0
  -10.2340   -0.1260  -23.4820 H   0  0  0  0  0  0  0  0  0  0  0  0
  1  2  1  0  0  0  0
  1 46  1  0  0  0  0
  1 47  1  0  0  0  0
  1 48  1  0  0  0  0
  2  3  1  0  0  0  0
  2 24  1  0  0  0  0
  3  4  2  0  0  0  0
  3  5  1  0  0  0  0
  5  6  1  0  0  0  0
  5 22  1  0  0  0  0
  6  7  2  0  0  0  0
  6 15  1  0  0  0  0
  7  8  1  0  0  0  0
  7 21  1  0  0  0  0
  8  9  2  0  0  0  0
  9 10  1  0  0  0  0
  9 20  1  0  0  0  0
 10 11  2  0  0  0  0
 10 15  1  0  0  0  0
 11 12  1  0  0  0  0
 11 19  1  0  0  0  0
 12 13  2  0  0  0  0
 12 18  1  0  0  0  0
 13 14  1  0  0  0  0
 13 17  1  0  0  0  0
 14 15  2  0  0  0  0
 14 16  1  0  0  0  0
 22 23  2  0  0  0  0
 22 24  1  0  0  0  0
 24 25  1  0  0  0  0
 24 41  1  0  0  0  0
 25 26  1  0  0  0  0
 25 44  1  0  0  0  0
 25 45  1  0  0  0  0
 26 27  1  0  0  0  0
 26 41  1  0  0  0  0
 27 28  2  0  0  0  0
 27 29  2  0  0  0  0
 27 30  1  0  0  0  0
 30 31  2  0  0  0  0
 30 35  1  0  0  0  0
 31 32  1  0  0  0  0
 31 40  1  0  0  0  0
 32 33  2  0  0  0  0
 32 39  1  0  0  0  0
 33 34  1  0  0  0  0
 33 38  1  0  0  0  0
 34 35  2  0  0  0  0
 34 37  1  0  0  0  0
 35 36  1  0  0  0  0
 41 42  1  0  0  0  0
 41 43  1  0  0  0  0
M  END
>  <MODEL>
       1

$$$$
