tmp_first_model_18_88.pdb
 OpenBabel08282502533D

 40 42  0  0  0  0  0  0  0  0999 V2000
   -9.0130    0.3110  -21.0250 O   0  0  0  0  0  0  0  0  0  0  0  0
   -8.3020   -0.2880  -21.8020 C   0  0  0  0  0  0  0  0  0  0  0  0
   -7.4180   -1.4240  -21.2820 C   0  0  0  0  0  0  0  0  0  0  0  0
   -6.5590   -0.8470  -20.1760 C   0  0  0  0  0  0  0  0  0  0  0  0
   -6.8730   -1.0450  -18.8580 C   0  0  0  0  0  0  0  0  0  0  0  0
   -6.1930   -0.5360  -17.7960 N   0  0  0  0  0  0  0  0  0  0  0  0
   -5.1600    0.2240  -18.0650 C   0  0  0  0  0  0  0  0  0  0  0  0
   -4.7260    0.5360  -19.3810 C   0  0  0  0  0  0  0  0  0  0  0  0
   -3.6050    1.3680  -19.6250 C   0  0  0  0  0  0  0  0  0  0  0  0
   -3.2150    1.6610  -20.9010 C   0  0  0  0  0  0  0  0  0  0  0  0
   -3.9330    1.1290  -21.9940 C   0  0  0  0  0  0  0  0  0  0  0  0
   -5.0190    0.3180  -21.7870 C   0  0  0  0  0  0  0  0  0  0  0  0
   -5.4490   -0.0040  -20.4730 C   0  0  0  0  0  0  0  0  0  0  0  0
   -5.5490   -0.0920  -22.6410 H   0  0  0  0  0  0  0  0  0  0  0  0
   -3.6170    1.3610  -23.0090 H   0  0  0  0  0  0  0  0  0  0  0  0
   -2.3590    2.3110  -21.0820 H   0  0  0  0  0  0  0  0  0  0  0  0
   -3.0730    1.7760  -18.7680 H   0  0  0  0  0  0  0  0  0  0  0  0
   -4.6080    0.6280  -17.2140 H   0  0  0  0  0  0  0  0  0  0  0  0
   -7.7270   -1.6620  -18.5760 H   0  0  0  0  0  0  0  0  0  0  0  0
   -6.8210   -1.8640  -22.0920 H   0  0  0  0  0  0  0  0  0  0  0  0
   -8.0710   -2.1940  -20.8500 H   0  0  0  0  0  0  0  0  0  0  0  0
   -8.1690    0.0930  -23.1310 N   0  0  0  0  0  0  0  0  0  0  0  0
   -8.2660   -0.8170  -24.2640 C   0  0  0  0  0  0  0  0  0  0  0  0
   -7.2890   -0.4220  -25.3620 C   0  0  0  0  0  0  0  0  0  0  0  0
   -7.4940    1.0410  -25.7580 C   0  0  0  0  0  0  0  0  0  0  0  0
   -6.5110    1.4810  -26.8260 C   0  0  0  0  0  0  0  0  0  0  0  0
   -6.6560    0.7090  -27.9460 F   0  0  0  0  0  0  0  0  0  0  0  0
   -5.2280    1.3140  -26.3800 F   0  0  0  0  0  0  0  0  0  0  0  0
   -6.6290    2.5330  -27.1290 H   0  0  0  0  0  0  0  0  0  0  0  0
   -7.4060    1.9380  -24.5250 C   0  0  0  0  0  0  0  0  0  0  0  0
   -8.3900    1.4940  -23.4510 C   0  0  0  0  0  0  0  0  0  0  0  0
   -9.4210    1.6890  -23.7800 H   0  0  0  0  0  0  0  0  0  0  0  0
   -8.2500    2.0530  -22.5260 H   0  0  0  0  0  0  0  0  0  0  0  0
   -7.5950    2.9770  -24.8080 H   0  0  0  0  0  0  0  0  0  0  0  0
   -6.3840    1.9080  -24.1250 H   0  0  0  0  0  0  0  0  0  0  0  0
   -8.4860    1.1480  -26.2190 H   0  0  0  0  0  0  0  0  0  0  0  0
   -6.2650   -0.5570  -24.9980 H   0  0  0  0  0  0  0  0  0  0  0  0
   -7.4110   -1.0700  -26.2350 H   0  0  0  0  0  0  0  0  0  0  0  0
   -9.2870   -0.8190  -24.6830 H   0  0  0  0  0  0  0  0  0  0  0  0
   -8.0770   -1.8250  -23.8970 H   0  0  0  0  0  0  0  0  0  0  0  0
  1  2  2  0  0  0  0
  2  3  1  0  0  0  0
  2 22  1  0  0  0  0
  3  4  1  0  0  0  0
  3 20  1  0  0  0  0
  3 21  1  0  0  0  0
  4  5  2  0  0  0  0
  4 13  1  0  0  0  0
  5  6  1  0  0  0  0
  5 19  1  0  0  0  0
  6  7  2  0  0  0  0
  7  8  1  0  0  0  0
  7 18  1  0  0  0  0
  8  9  2  0  0  0  0
  8 13  1  0  0  0  0
  9 10  1  0  0  0  0
  9 17  1  0  0  0  0
 10 11  2  0  0  0  0
 10 16  1  0  0  0  0
 11 12  1  0  0  0  0
 11 15  1  0  0  0  0
 12 13  2  0  0  0  0
 12 14  1  0  0  0  0
 22 23  1  0  0  0  0
 22 31  1  0  0  0  0
 23 24  1  0  0  0  0
 23 39  1  0  0  0  0
 23 40  1  0  0  0  0
 24 25  1  0  0  0  0
 24 37  1  0  0  0  0
 24 38  1  0  0  0  0
 25 26  1  0  0  0  0
 25 30  1  0  0  0  0
 25 36  1  0  0  0  0
 26 27  1  0  0  0  0
 26 28  1  0  0  0  0
 26 29  1  0  0  0  0
 30 31  1  0  0  0  0
 30 34  1  0  0  0  0
 30 35  1  0  0  0  0
 31 32  1  0  0  0  0
 31 33  1  0  0  0  0
M  END
>  <MODEL>
       1

$$$$
