tmp_first_model_15_75.pdb
 OpenBabel08282501153D

 66 71  0  0  1  0  0  0  0  0999 V2000
   -7.5690    3.3140  -21.8550 C   0  0  0  0  0  0  0  0  0  0  0  0
   -8.6300    2.8670  -22.7430 N   0  0  0  0  0  0  0  0  0  0  0  0
   -8.2380    2.0590  -23.7740 C   0  0  0  0  0  0  0  0  0  0  0  0
   -7.0580    1.8100  -23.9930 O   0  0  0  0  0  0  0  0  0  0  0  0
   -9.3440    1.4860  -24.6530 C   0  0  0  0  0  0  0  0  0  0  0  0
   -9.9060    0.2970  -24.0550 N   0  0  0  0  0  0  0  0  0  0  0  0
   -9.0990   -0.9060  -24.0120 C   0  0  0  0  0  0  0  0  0  0  0  0
   -9.2790   -1.6610  -22.6790 C   0  0  2  0  0  0  0  0  0  0  0  0
   -8.6550   -0.8440  -21.5240 C   0  0  0  0  0  0  0  0  0  0  0  0
   -9.1300    0.1450  -20.9960 O   0  0  0  0  0  0  0  0  0  0  0  0
   -7.4330   -1.3920  -21.2040 N   0  0  0  0  0  0  0  0  0  0  0  0
   -6.6210   -0.8250  -20.1830 C   0  0  0  0  0  0  0  0  0  0  0  0
   -6.9300   -1.0530  -18.8650 C   0  0  0  0  0  0  0  0  0  0  0  0
   -6.2280   -0.5600  -17.8130 N   0  0  0  0  0  0  0  0  0  0  0  0
   -5.1920    0.1960  -18.0850 C   0  0  0  0  0  0  0  0  0  0  0  0
   -4.7580    0.5180  -19.4010 C   0  0  0  0  0  0  0  0  0  0  0  0
   -3.6360    1.3560  -19.6380 C   0  0  0  0  0  0  0  0  0  0  0  0
   -3.2490    1.6560  -20.9130 C   0  0  0  0  0  0  0  0  0  0  0  0
   -3.9680    1.1390  -22.0140 C   0  0  0  0  0  0  0  0  0  0  0  0
   -5.0660    0.3360  -21.8150 C   0  0  0  0  0  0  0  0  0  0  0  0
   -5.4870   -0.0070  -20.5000 C   0  0  0  0  0  0  0  0  0  0  0  0
   -5.6280   -0.0160  -22.6770 H   0  0  0  0  0  0  0  0  0  0  0  0
   -3.6530    1.3830  -23.0250 H   0  0  0  0  0  0  0  0  0  0  0  0
   -2.3910    2.3000  -21.0900 H   0  0  0  0  0  0  0  0  0  0  0  0
   -3.1060    1.7580  -18.7780 H   0  0  0  0  0  0  0  0  0  0  0  0
   -4.6230    0.5940  -17.2430 H   0  0  0  0  0  0  0  0  0  0  0  0
   -7.7940   -1.6660  -18.6110 H   0  0  0  0  0  0  0  0  0  0  0  0
   -7.1090   -2.5820  -21.9740 C   0  0  0  0  0  0  0  0  0  0  0  0
   -8.4450   -2.9690  -22.6280 C   0  0  2  0  0  0  0  0  0  0  0  0
   -8.2500   -3.7510  -23.9300 C   0  0  0  0  0  0  0  0  0  0  0  0
   -9.4910   -4.2330  -24.4850 N   0  0  0  0  0  0  0  0  0  0  0  0
   -9.5810   -4.8920  -25.6820 C   0  0  0  0  0  0  0  0  0  0  0  0
   -8.4470   -5.2100  -26.4760 C   0  0  0  0  0  0  0  0  0  0  0  0
   -8.5680   -5.8390  -27.6370 N   0  0  0  0  0  0  0  0  0  0  0  0
   -9.8030   -6.1720  -28.0310 C   0  0  0  0  0  0  0  0  0  0  0  0
  -10.9060   -5.8670  -27.2520 C   0  0  0  0  0  0  0  0  0  0  0  0
  -10.8070   -5.2330  -26.0830 N   0  0  0  0  0  0  0  0  0  0  0  0
  -11.9160   -6.1330  -27.5640 H   0  0  0  0  0  0  0  0  0  0  0  0
   -9.9130   -6.6900  -28.9810 H   0  0  0  0  0  0  0  0  0  0  0  0
   -7.4330   -4.9490  -26.1620 H   0  0  0  0  0  0  0  0  0  0  0  0
  -10.3800   -4.0370  -24.0410 H   0  0  0  0  0  0  0  0  0  0  0  0
   -7.5950   -4.6120  -23.7400 H   0  0  0  0  0  0  0  0  0  0  0  0
   -7.7230   -3.1300  -24.6700 H   0  0  0  0  0  0  0  0  0  0  0  0
   -8.9510   -3.6460  -21.9400 H   0  0  0  0  0  0  0  0  0  0  0  0
   -6.3430   -2.3650  -22.7350 H   0  0  0  0  0  0  0  0  0  0  0  0
   -6.7280   -3.3740  -21.3180 H   0  0  0  0  0  0  0  0  0  0  0  0
  -10.7690   -1.8450  -22.4760 C   0  0  0  0  0  0  0  0  0  0  0  0
  -11.2720   -2.8980  -21.7090 C   0  0  0  0  0  0  0  0  0  0  0  0
  -12.6250   -2.9760  -21.4360 C   0  0  0  0  0  0  0  0  0  0  0  0
  -13.1860   -4.2860  -20.4380 Cl  0  0  0  0  0  0  0  0  0  0  0  0
  -13.5350   -2.0250  -21.8930 C   0  0  0  0  0  0  0  0  0  0  0  0
  -13.0500   -0.9980  -22.6780 C   0  0  0  0  0  0  0  0  0  0  0  0
  -11.6890   -0.9010  -22.9620 C   0  0  0  0  0  0  0  0  0  0  0  0
  -11.2390    0.2730  -23.7700 C   0  0  0  0  0  0  0  0  0  0  0  0
  -12.0040    1.1570  -24.1350 O   0  0  0  0  0  0  0  0  0  0  0  0
  -13.7140   -0.2360  -23.0670 H   0  0  0  0  0  0  0  0  0  0  0  0
  -14.5740   -2.0850  -21.5810 H   0  0  0  0  0  0  0  0  0  0  0  0
  -10.6330   -3.6390  -21.2360 H   0  0  0  0  0  0  0  0  0  0  0  0
   -8.0580   -0.6130  -24.1590 H   0  0  0  0  0  0  0  0  0  0  0  0
   -9.3860   -1.5680  -24.8380 H   0  0  0  0  0  0  0  0  0  0  0  0
  -10.1640    2.1970  -24.7950 H   0  0  0  0  0  0  0  0  0  0  0  0
   -8.8780    1.2400  -25.6140 H   0  0  0  0  0  0  0  0  0  0  0  0
   -9.5440    2.7300  -22.3240 H   0  0  0  0  0  0  0  0  0  0  0  0
   -7.9530    3.9770  -21.0750 H   0  0  0  0  0  0  0  0  0  0  0  0
   -7.0500    2.4580  -21.3960 H   0  0  0  0  0  0  0  0  0  0  0  0
   -6.8330    3.8590  -22.4470 H   0  0  0  0  0  0  0  0  0  0  0  0
  1  2  1  0  0  0  0
  1 64  1  0  0  0  0
  1 65  1  0  0  0  0
  1 66  1  0  0  0  0
  2  3  1  0  0  0  0
  2 63  1  0  0  0  0
  3  4  2  0  0  0  0
  3  5  1  0  0  0  0
  5  6  1  0  0  0  0
  5 61  1  0  0  0  0
  5 62  1  0  0  0  0
  6  7  1  0  0  0  0
  6 54  1  0  0  0  0
  7  8  1  0  0  0  0
  7 59  1  0  0  0  0
  7 60  1  0  0  0  0
  8  9  1  1  0  0  0
  8 29  1  0  0  0  0
  8 47  1  0  0  0  0
  9 10  2  0  0  0  0
  9 11  1  0  0  0  0
 11 12  1  0  0  0  0
 11 28  1  0  0  0  0
 12 13  2  0  0  0  0
 12 21  1  0  0  0  0
 13 14  1  0  0  0  0
 13 27  1  0  0  0  0
 14 15  2  0  0  0  0
 15 16  1  0  0  0  0
 15 26  1  0  0  0  0
 16 17  2  0  0  0  0
 16 21  1  0  0  0  0
 17 18  1  0  0  0  0
 17 25  1  0  0  0  0
 18 19  2  0  0  0  0
 18 24  1  0  0  0  0
 19 20  1  0  0  0  0
 19 23  1  0  0  0  0
 20 21  2  0  0  0  0
 20 22  1  0  0  0  0
 28 29  1  0  0  0  0
 28 45  1  0  0  0  0
 28 46  1  0  0  0  0
 29 30  1  0  0  0  0
 29 44  1  1  0  0  0
 30 31  1  0  0  0  0
 30 42  1  0  0  0  0
 30 43  1  0  0  0  0
 31 32  1  0  0  0  0
 31 41  1  0  0  0  0
 32 33  2  0  0  0  0
 32 37  1  0  0  0  0
 33 34  1  0  0  0  0
 33 40  1  0  0  0  0
 34 35  2  0  0  0  0
 35 36  1  0  0  0  0
 35 39  1  0  0  0  0
 36 37  2  0  0  0  0
 36 38  1  0  0  0  0
 47 48  2  0  0  0  0
 47 53  1  0  0  0  0
 48 49  1  0  0  0  0
 48 58  1  0  0  0  0
 49 50  1  0  0  0  0
 49 51  2  0  0  0  0
 51 52  1  0  0  0  0
 51 57  1  0  0  0  0
 52 53  2  0  0  0  0
 52 56  1  0  0  0  0
 53 54  1  0  0  0  0
 54 55  2  0  0  0  0
M  END
>  <MODEL>
       1

$$$$
