tmp_first_model_13_58.pdb
 OpenBabel08282500103D

 42 45  0  0  1  0  0  0  0  0999 V2000
  -12.0150   -4.1630  -22.9380 C   0  0  0  0  0  0  0  0  0  0  0  0
  -10.5910   -4.4370  -22.9130 N   0  0  0  0  0  0  0  0  0  0  0  0
   -9.7390   -3.9700  -21.8420 C   0  0  0  0  0  0  0  0  0  0  0  0
   -8.6030   -3.1060  -22.4250 C   0  0  1  0  0  0  0  0  0  0  0  0
   -7.5940   -2.6500  -21.3760 C   0  0  0  0  0  0  0  0  0  0  0  0
   -6.9020   -3.4260  -20.7490 O   0  0  0  0  0  0  0  0  0  0  0  0
   -7.4580   -1.2840  -21.2170 N   0  0  0  0  0  0  0  0  0  0  0  0
   -6.6210   -0.7670  -20.2020 C   0  0  0  0  0  0  0  0  0  0  0  0
   -6.9070   -1.0400  -18.8890 C   0  0  0  0  0  0  0  0  0  0  0  0
   -6.2130   -0.5430  -17.8390 N   0  0  0  0  0  0  0  0  0  0  0  0
   -5.1800    0.2200  -18.0980 C   0  0  0  0  0  0  0  0  0  0  0  0
   -4.7490    0.5540  -19.4130 C   0  0  0  0  0  0  0  0  0  0  0  0
   -3.6060    1.3570  -19.6460 C   0  0  0  0  0  0  0  0  0  0  0  0
   -3.1920    1.6230  -20.9230 C   0  0  0  0  0  0  0  0  0  0  0  0
   -3.8980    1.0810  -22.0210 C   0  0  0  0  0  0  0  0  0  0  0  0
   -5.0110    0.3060  -21.8240 C   0  0  0  0  0  0  0  0  0  0  0  0
   -5.4780    0.0390  -20.5100 C   0  0  0  0  0  0  0  0  0  0  0  0
   -5.5220   -0.1280  -22.6810 H   0  0  0  0  0  0  0  0  0  0  0  0
   -3.5560    1.2910  -23.0310 H   0  0  0  0  0  0  0  0  0  0  0  0
   -2.3310    2.2600  -21.0990 H   0  0  0  0  0  0  0  0  0  0  0  0
   -3.0730    1.7550  -18.7880 H   0  0  0  0  0  0  0  0  0  0  0  0
   -4.6190    0.6050  -17.2450 H   0  0  0  0  0  0  0  0  0  0  0  0
   -7.7490   -1.6890  -18.6530 H   0  0  0  0  0  0  0  0  0  0  0  0
   -7.7820   -0.6480  -21.9360 H   0  0  0  0  0  0  0  0  0  0  0  0
   -7.8930   -3.9270  -23.4780 C   0  0  0  0  0  0  0  0  0  0  0  0
   -6.5460   -3.7170  -23.7550 C   0  0  0  0  0  0  0  0  0  0  0  0
   -5.9280   -4.4490  -24.7510 C   0  0  0  0  0  0  0  0  0  0  0  0
   -4.2580   -4.1330  -25.1040 Cl  0  0  0  0  0  0  0  0  0  0  0  0
   -6.6130   -5.4220  -25.4760 C   0  0  0  0  0  0  0  0  0  0  0  0
   -7.9470   -5.6470  -25.1800 C   0  0  0  0  0  0  0  0  0  0  0  0
   -8.5860   -4.9070  -24.1860 C   0  0  0  0  0  0  0  0  0  0  0  0
  -10.0500   -5.1280  -23.9630 C   0  0  0  0  0  0  0  0  0  0  0  0
  -10.7070   -5.8570  -24.6930 O   0  0  0  0  0  0  0  0  0  0  0  0
   -8.5260   -6.3960  -25.7120 H   0  0  0  0  0  0  0  0  0  0  0  0
   -6.1060   -5.9840  -26.2540 H   0  0  0  0  0  0  0  0  0  0  0  0
   -5.9820   -2.9900  -23.1820 H   0  0  0  0  0  0  0  0  0  0  0  0
   -9.0550   -2.2080  -22.8730 H   0  0  0  0  0  0  0  0  0  0  0  0
  -10.3470   -3.3890  -21.1500 H   0  0  0  0  0  0  0  0  0  0  0  0
   -9.3300   -4.8250  -21.2880 H   0  0  0  0  0  0  0  0  0  0  0  0
  -12.3790   -3.9670  -21.9220 H   0  0  0  0  0  0  0  0  0  0  0  0
  -12.2280   -3.3020  -23.5840 H   0  0  0  0  0  0  0  0  0  0  0  0
  -12.5110   -5.0390  -23.3560 H   0  0  0  0  0  0  0  0  0  0  0  0
  1  2  1  0  0  0  0
  1 40  1  0  0  0  0
  1 41  1  0  0  0  0
  1 42  1  0  0  0  0
  2  3  1  0  0  0  0
  2 32  1  0  0  0  0
  3  4  1  0  0  0  0
  3 38  1  0  0  0  0
  3 39  1  0  0  0  0
  4  5  1  0  0  0  0
  4 25  1  0  0  0  0
  4 37  1  6  0  0  0
  5  6  2  0  0  0  0
  5  7  1  0  0  0  0
  7  8  1  0  0  0  0
  7 24  1  0  0  0  0
  8  9  2  0  0  0  0
  8 17  1  0  0  0  0
  9 10  1  0  0  0  0
  9 23  1  0  0  0  0
 10 11  2  0  0  0  0
 11 12  1  0  0  0  0
 11 22  1  0  0  0  0
 12 13  2  0  0  0  0
 12 17  1  0  0  0  0
 13 14  1  0  0  0  0
 13 21  1  0  0  0  0
 14 15  2  0  0  0  0
 14 20  1  0  0  0  0
 15 16  1  0  0  0  0
 15 19  1  0  0  0  0
 16 17  2  0  0  0  0
 16 18  1  0  0  0  0
 25 26  2  0  0  0  0
 25 31  1  0  0  0  0
 26 27  1  0  0  0  0
 26 36  1  0  0  0  0
 27 28  1  0  0  0  0
 27 29  2  0  0  0  0
 29 30  1  0  0  0  0
 29 35  1  0  0  0  0
 30 31  2  0  0  0  0
 30 34  1  0  0  0  0
 31 32  1  0  0  0  0
 32 33  2  0  0  0  0
M  END
>  <MODEL>
       1

$$$$
