tmp_first_model_18_78.pdb
 OpenBabel08282502533D

 56 60  0  0  1  0  0  0  0  0999 V2000
   -8.2020    4.5060  -24.1050 C   0  0  0  0  0  0  0  0  0  0  0  0
   -8.2410    3.3290  -24.9460 N   0  0  0  0  0  0  0  0  0  0  0  0
   -7.4190    2.2840  -24.6630 C   0  0  0  0  0  0  0  0  0  0  0  0
   -6.5710    2.3200  -23.7860 O   0  0  0  0  0  0  0  0  0  0  0  0
   -7.6300    1.0540  -25.5470 C   0  0  0  0  0  0  0  0  0  0  0  0
   -8.5530    0.1180  -24.9280 N   0  0  0  0  0  0  0  0  0  0  0  0
   -8.0830   -1.1550  -24.4040 C   0  0  0  0  0  0  0  0  0  0  0  0
   -8.8350   -1.5550  -23.1020 C   0  0  2  0  0  0  0  0  0  0  0  0
   -8.3700   -0.6580  -21.9220 C   0  0  0  0  0  0  0  0  0  0  0  0
   -8.7180    0.4680  -21.6440 O   0  0  0  0  0  0  0  0  0  0  0  0
   -7.4290   -1.3730  -21.2090 N   0  0  0  0  0  0  0  0  0  0  0  0
   -6.6350   -0.8010  -20.1910 C   0  0  0  0  0  0  0  0  0  0  0  0
   -6.9260   -1.0760  -18.8800 C   0  0  0  0  0  0  0  0  0  0  0  0
   -6.2420   -0.5840  -17.8180 N   0  0  0  0  0  0  0  0  0  0  0  0
   -5.2170    0.1910  -18.0850 C   0  0  0  0  0  0  0  0  0  0  0  0
   -4.7760    0.5140  -19.3990 C   0  0  0  0  0  0  0  0  0  0  0  0
   -3.6390    1.3340  -19.6190 C   0  0  0  0  0  0  0  0  0  0  0  0
   -3.2170    1.6080  -20.8880 C   0  0  0  0  0  0  0  0  0  0  0  0
   -3.9150    1.0830  -21.9990 C   0  0  0  0  0  0  0  0  0  0  0  0
   -5.0260    0.2950  -21.8140 C   0  0  0  0  0  0  0  0  0  0  0  0
   -5.4890   -0.0030  -20.5030 C   0  0  0  0  0  0  0  0  0  0  0  0
   -5.5630   -0.0780  -22.6840 H   0  0  0  0  0  0  0  0  0  0  0  0
   -3.5830    1.3180  -23.0050 H   0  0  0  0  0  0  0  0  0  0  0  0
   -2.3440    2.2330  -21.0500 H   0  0  0  0  0  0  0  0  0  0  0  0
   -3.1250    1.7340  -18.7490 H   0  0  0  0  0  0  0  0  0  0  0  0
   -4.6700    0.6030  -17.2380 H   0  0  0  0  0  0  0  0  0  0  0  0
   -7.7700   -1.7250  -18.6530 H   0  0  0  0  0  0  0  0  0  0  0  0
   -7.2060   -2.7240  -21.6700 C   0  0  0  0  0  0  0  0  0  0  0  0
   -8.3890   -2.9660  -22.6130 C   0  0  2  0  0  0  0  0  0  0  0  0
   -8.1020   -3.9890  -23.7010 C   0  0  0  0  0  0  0  0  0  0  0  0
   -8.9490   -4.0610  -24.3940 H   0  0  0  0  0  0  0  0  0  0  0  0
   -7.9210   -4.9740  -23.2570 H   0  0  0  0  0  0  0  0  0  0  0  0
   -7.2110   -3.7060  -24.2750 H   0  0  0  0  0  0  0  0  0  0  0  0
   -9.1960   -3.3520  -21.9870 H   0  0  0  0  0  0  0  0  0  0  0  0
   -7.2040   -3.4190  -20.8240 H   0  0  0  0  0  0  0  0  0  0  0  0
   -6.2350   -2.8330  -22.1780 H   0  0  0  0  0  0  0  0  0  0  0  0
  -10.3220   -1.4110  -23.3660 C   0  0  0  0  0  0  0  0  0  0  0  0
  -11.2590   -2.0840  -22.5760 C   0  0  0  0  0  0  0  0  0  0  0  0
  -12.6110   -1.8560  -22.7450 C   0  0  0  0  0  0  0  0  0  0  0  0
  -13.7090   -2.6390  -21.6490 Cl  0  0  0  0  0  0  0  0  0  0  0  0
  -13.0980   -1.0320  -23.7610 C   0  0  0  0  0  0  0  0  0  0  0  0
  -12.1790   -0.3840  -24.5630 C   0  0  0  0  0  0  0  0  0  0  0  0
  -10.8090   -0.5290  -24.3410 C   0  0  0  0  0  0  0  0  0  0  0  0
   -9.8790    0.3740  -25.0820 C   0  0  0  0  0  0  0  0  0  0  0  0
  -10.2800    1.3290  -25.7550 O   0  0  0  0  0  0  0  0  0  0  0  0
  -12.4910    0.2300  -25.4000 H   0  0  0  0  0  0  0  0  0  0  0  0
  -14.1620   -0.8820  -23.8980 H   0  0  0  0  0  0  0  0  0  0  0  0
  -10.9670   -2.7940  -21.8140 H   0  0  0  0  0  0  0  0  0  0  0  0
   -8.2330   -1.9440  -25.1570 H   0  0  0  0  0  0  0  0  0  0  0  0
   -7.0080   -1.0580  -24.2080 H   0  0  0  0  0  0  0  0  0  0  0  0
   -6.6760    0.5470  -25.7040 H   0  0  0  0  0  0  0  0  0  0  0  0
   -8.0310    1.3620  -26.5150 H   0  0  0  0  0  0  0  0  0  0  0  0
   -9.0900    3.0950  -25.4360 H   0  0  0  0  0  0  0  0  0  0  0  0
   -8.8550    5.2620  -24.5440 H   0  0  0  0  0  0  0  0  0  0  0  0
   -7.1800    4.8920  -24.0660 H   0  0  0  0  0  0  0  0  0  0  0  0
   -8.5320    4.2780  -23.0850 H   0  0  0  0  0  0  0  0  0  0  0  0
  1  2  1  0  0  0  0
  1 54  1  0  0  0  0
  1 55  1  0  0  0  0
  1 56  1  0  0  0  0
  2  3  1  0  0  0  0
  2 53  1  0  0  0  0
  3  4  2  0  0  0  0
  3  5  1  0  0  0  0
  5  6  1  0  0  0  0
  5 51  1  0  0  0  0
  5 52  1  0  0  0  0
  6  7  1  0  0  0  0
  6 44  1  0  0  0  0
  7  8  1  0  0  0  0
  7 49  1  0  0  0  0
  7 50  1  0  0  0  0
  8  9  1  1  0  0  0
  8 29  1  0  0  0  0
  8 37  1  0  0  0  0
  9 10  2  0  0  0  0
  9 11  1  0  0  0  0
 11 12  1  0  0  0  0
 11 28  1  0  0  0  0
 12 13  2  0  0  0  0
 12 21  1  0  0  0  0
 13 14  1  0  0  0  0
 13 27  1  0  0  0  0
 14 15  2  0  0  0  0
 15 16  1  0  0  0  0
 15 26  1  0  0  0  0
 16 17  2  0  0  0  0
 16 21  1  0  0  0  0
 17 18  1  0  0  0  0
 17 25  1  0  0  0  0
 18 19  2  0  0  0  0
 18 24  1  0  0  0  0
 19 20  1  0  0  0  0
 19 23  1  0  0  0  0
 20 21  2  0  0  0  0
 20 22  1  0  0  0  0
 28 29  1  0  0  0  0
 28 35  1  0  0  0  0
 28 36  1  0  0  0  0
 29 30  1  0  0  0  0
 29 34  1  1  0  0  0
 30 31  1  0  0  0  0
 30 32  1  0  0  0  0
 30 33  1  0  0  0  0
 37 38  2  0  0  0  0
 37 43  1  0  0  0  0
 38 39  1  0  0  0  0
 38 48  1  0  0  0  0
 39 40  1  0  0  0  0
 39 41  2  0  0  0  0
 41 42  1  0  0  0  0
 41 47  1  0  0  0  0
 42 43  2  0  0  0  0
 42 46  1  0  0  0  0
 43 44  1  0  0  0  0
 44 45  2  0  0  0  0
M  END
>  <MODEL>
       1

$$$$
