tmp_first_model_16_41.pdb
 OpenBabel08282501503D

 67 71  0  0  1  0  0  0  0  0999 V2000
   -7.3560    3.3940  -21.8770 C   0  0  0  0  0  0  0  0  0  0  0  0
   -8.2950    2.8740  -22.8550 N   0  0  0  0  0  0  0  0  0  0  0  0
   -7.8100    2.1960  -23.9340 C   0  0  0  0  0  0  0  0  0  0  0  0
   -6.6110    2.0380  -24.1380 O   0  0  0  0  0  0  0  0  0  0  0  0
   -8.8730    1.6440  -24.8880 C   0  0  0  0  0  0  0  0  0  0  0  0
   -9.5450    0.4990  -24.2950 N   0  0  0  0  0  0  0  0  0  0  0  0
   -8.7770   -0.7220  -24.1330 C   0  0  0  0  0  0  0  0  0  0  0  0
   -9.1480   -1.4820  -22.8310 C   0  0  2  0  0  0  0  0  0  0  0  0
   -8.6120   -0.7150  -21.6030 C   0  0  0  0  0  0  0  0  0  0  0  0
   -9.1080    0.2500  -21.0570 O   0  0  0  0  0  0  0  0  0  0  0  0
   -7.4380   -1.3120  -21.2150 N   0  0  0  0  0  0  0  0  0  0  0  0
   -6.6380   -0.8130  -20.1720 C   0  0  0  0  0  0  0  0  0  0  0  0
   -6.9250   -1.1400  -18.8740 C   0  0  0  0  0  0  0  0  0  0  0  0
   -6.1350   -0.8170  -17.8250 N   0  0  0  0  0  0  0  0  0  0  0  0
   -5.0590   -0.1070  -18.0750 C   0  0  0  0  0  0  0  0  0  0  0  0
   -4.6830    0.3500  -19.3740 C   0  0  0  0  0  0  0  0  0  0  0  0
   -3.5740    1.2110  -19.5920 C   0  0  0  0  0  0  0  0  0  0  0  0
   -3.2430    1.6130  -20.8600 C   0  0  0  0  0  0  0  0  0  0  0  0
   -3.9970    1.1690  -21.9710 C   0  0  0  0  0  0  0  0  0  0  0  0
   -5.0910    0.3590  -21.7830 C   0  0  0  0  0  0  0  0  0  0  0  0
   -5.4740   -0.0450  -20.4720 C   0  0  0  0  0  0  0  0  0  0  0  0
   -5.6860    0.0460  -22.6350 H   0  0  0  0  0  0  0  0  0  0  0  0
   -3.7240    1.4810  -22.9750 H   0  0  0  0  0  0  0  0  0  0  0  0
   -2.4020    2.2810  -21.0190 H   0  0  0  0  0  0  0  0  0  0  0  0
   -3.0310    1.5640  -18.7210 H   0  0  0  0  0  0  0  0  0  0  0  0
   -4.4210    0.1400  -17.2250 H   0  0  0  0  0  0  0  0  0  0  0  0
   -7.8210   -1.7110  -18.6370 H   0  0  0  0  0  0  0  0  0  0  0  0
   -7.0640   -2.4870  -21.9600 C   0  0  0  0  0  0  0  0  0  0  0  0
   -8.3550   -2.8130  -22.7290 C   0  0  2  0  0  0  0  0  0  0  0  0
   -8.0960   -3.4980  -24.0630 C   0  0  0  0  0  0  0  0  0  0  0  0
   -7.2500   -5.0340  -23.7800 S   0  0  0  0  0  0  0  0  0  0  0  0
   -8.0930   -5.8420  -22.9100 O   0  0  0  0  0  0  0  0  0  0  0  0
   -5.8560   -4.7660  -23.4300 O   0  0  0  0  0  0  0  0  0  0  0  0
   -7.2920   -5.7000  -25.3140 N   0  0  0  0  0  0  0  0  0  0  0  0
   -6.4670   -5.0200  -26.3010 C   0  0  0  0  0  0  0  0  0  0  0  0
   -5.4240   -4.8970  -25.9890 H   0  0  0  0  0  0  0  0  0  0  0  0
   -6.5130   -5.6010  -27.2240 H   0  0  0  0  0  0  0  0  0  0  0  0
   -6.8960   -4.0420  -26.5200 H   0  0  0  0  0  0  0  0  0  0  0  0
   -7.0850   -7.1380  -25.2550 C   0  0  0  0  0  0  0  0  0  0  0  0
   -6.0680   -7.4170  -24.9380 H   0  0  0  0  0  0  0  0  0  0  0  0
   -7.8040   -7.5540  -24.5480 H   0  0  0  0  0  0  0  0  0  0  0  0
   -7.2870   -7.5640  -26.2430 H   0  0  0  0  0  0  0  0  0  0  0  0
   -7.4440   -2.8820  -24.6950 H   0  0  0  0  0  0  0  0  0  0  0  0
   -9.0350   -3.7190  -24.5830 H   0  0  0  0  0  0  0  0  0  0  0  0
   -8.9210   -3.5090  -22.1070 H   0  0  0  0  0  0  0  0  0  0  0  0
   -6.2150   -2.2810  -22.6260 H   0  0  0  0  0  0  0  0  0  0  0  0
   -6.7560   -3.2940  -21.2860 H   0  0  0  0  0  0  0  0  0  0  0  0
  -10.6560   -1.6080  -22.7560 C   0  0  0  0  0  0  0  0  0  0  0  0
  -11.2600   -2.5840  -21.9510 C   0  0  0  0  0  0  0  0  0  0  0  0
  -12.6340   -2.6190  -21.8370 C   0  0  0  0  0  0  0  0  0  0  0  0
  -13.1940   -3.5530  -21.0490 F   0  0  0  0  0  0  0  0  0  0  0  0
  -13.4580   -1.7130  -22.4960 C   0  0  0  0  0  0  0  0  0  0  0  0
  -12.8680   -0.7350  -23.2700 C   0  0  0  0  0  0  0  0  0  0  0  0
  -11.4790   -0.6610  -23.3850 C   0  0  0  0  0  0  0  0  0  0  0  0
  -10.9080    0.5000  -24.1550 C   0  0  0  0  0  0  0  0  0  0  0  0
  -11.6150    1.3930  -24.5950 O   0  0  0  0  0  0  0  0  0  0  0  0
  -13.4640    0.0080  -23.7890 H   0  0  0  0  0  0  0  0  0  0  0  0
  -14.5320   -1.7760  -22.3720 H   0  0  0  0  0  0  0  0  0  0  0  0
  -10.6850   -3.3100  -21.3860 H   0  0  0  0  0  0  0  0  0  0  0  0
   -7.7130   -0.4590  -24.1210 H   0  0  0  0  0  0  0  0  0  0  0  0
   -8.9630   -1.3650  -25.0030 H   0  0  0  0  0  0  0  0  0  0  0  0
   -9.6530    2.3810  -25.1050 H   0  0  0  0  0  0  0  0  0  0  0  0
   -8.3670    1.3830  -25.8270 H   0  0  0  0  0  0  0  0  0  0  0  0
   -9.2300    2.6680  -22.5180 H   0  0  0  0  0  0  0  0  0  0  0  0
   -7.8260    4.1980  -21.2990 H   0  0  0  0  0  0  0  0  0  0  0  0
   -6.4940    3.7870  -22.4200 H   0  0  0  0  0  0  0  0  0  0  0  0
   -6.9870    2.6040  -21.2040 H   0  0  0  0  0  0  0  0  0  0  0  0
  1  2  1  0  0  0  0
  1 65  1  0  0  0  0
  1 66  1  0  0  0  0
  1 67  1  0  0  0  0
  2  3  1  0  0  0  0
  2 64  1  0  0  0  0
  3  4  2  0  0  0  0
  3  5  1  0  0  0  0
  5  6  1  0  0  0  0
  5 62  1  0  0  0  0
  5 63  1  0  0  0  0
  6  7  1  0  0  0  0
  6 55  1  0  0  0  0
  7  8  1  0  0  0  0
  7 60  1  0  0  0  0
  7 61  1  0  0  0  0
  8  9  1  1  0  0  0
  8 29  1  0  0  0  0
  8 48  1  0  0  0  0
  9 10  2  0  0  0  0
  9 11  1  0  0  0  0
 11 12  1  0  0  0  0
 11 28  1  0  0  0  0
 12 13  2  0  0  0  0
 12 21  1  0  0  0  0
 13 14  1  0  0  0  0
 13 27  1  0  0  0  0
 14 15  2  0  0  0  0
 15 16  1  0  0  0  0
 15 26  1  0  0  0  0
 16 17  2  0  0  0  0
 16 21  1  0  0  0  0
 17 18  1  0  0  0  0
 17 25  1  0  0  0  0
 18 19  2  0  0  0  0
 18 24  1  0  0  0  0
 19 20  1  0  0  0  0
 19 23  1  0  0  0  0
 20 21  2  0  0  0  0
 20 22  1  0  0  0  0
 28 29  1  0  0  0  0
 28 46  1  0  0  0  0
 28 47  1  0  0  0  0
 29 30  1  0  0  0  0
 29 45  1  1  0  0  0
 30 31  1  0  0  0  0
 30 43  1  0  0  0  0
 30 44  1  0  0  0  0
 31 32  2  0  0  0  0
 31 33  2  0  0  0  0
 31 34  1  0  0  0  0
 34 35  1  0  0  0  0
 34 39  1  0  0  0  0
 35 36  1  0  0  0  0
 35 37  1  0  0  0  0
 35 38  1  0  0  0  0
 39 40  1  0  0  0  0
 39 41  1  0  0  0  0
 39 42  1  0  0  0  0
 48 49  2  0  0  0  0
 48 54  1  0  0  0  0
 49 50  1  0  0  0  0
 49 59  1  0  0  0  0
 50 51  1  0  0  0  0
 50 52  2  0  0  0  0
 52 53  1  0  0  0  0
 52 58  1  0  0  0  0
 53 54  2  0  0  0  0
 53 57  1  0  0  0  0
 54 55  1  0  0  0  0
 55 56  2  0  0  0  0
M  END
>  <MODEL>
       1

$$$$
