tmp_first_model_13_72.pdb
 OpenBabel08282500103D

 41 44  0  0  0  0  0  0  0  0999 V2000
   -8.5130    0.7260  -21.4690 O   0  0  0  0  0  0  0  0  0  0  0  0
   -8.3660   -0.3900  -21.9340 C   0  0  0  0  0  0  0  0  0  0  0  0
   -7.4300   -1.4220  -21.2790 C   0  0  0  0  0  0  0  0  0  0  0  0
   -6.5810   -0.8260  -20.1870 C   0  0  0  0  0  0  0  0  0  0  0  0
   -6.8840   -1.0380  -18.8690 C   0  0  0  0  0  0  0  0  0  0  0  0
   -6.1960   -0.5330  -17.8130 N   0  0  0  0  0  0  0  0  0  0  0  0
   -5.1600    0.2210  -18.0760 C   0  0  0  0  0  0  0  0  0  0  0  0
   -4.7250    0.5350  -19.3890 C   0  0  0  0  0  0  0  0  0  0  0  0
   -3.5990    1.3640  -19.6250 C   0  0  0  0  0  0  0  0  0  0  0  0
   -3.2110    1.6550  -20.9050 C   0  0  0  0  0  0  0  0  0  0  0  0
   -3.9340    1.1270  -21.9970 C   0  0  0  0  0  0  0  0  0  0  0  0
   -5.0280    0.3220  -21.7940 C   0  0  0  0  0  0  0  0  0  0  0  0
   -5.4550    0.0040  -20.4780 C   0  0  0  0  0  0  0  0  0  0  0  0
   -5.5790   -0.0740  -22.6410 H   0  0  0  0  0  0  0  0  0  0  0  0
   -3.6260    1.3620  -23.0120 H   0  0  0  0  0  0  0  0  0  0  0  0
   -2.3580    2.3030  -21.0840 H   0  0  0  0  0  0  0  0  0  0  0  0
   -3.0700    1.7650  -18.7650 H   0  0  0  0  0  0  0  0  0  0  0  0
   -4.6110    0.6210  -17.2220 H   0  0  0  0  0  0  0  0  0  0  0  0
   -7.7340   -1.6590  -18.5850 H   0  0  0  0  0  0  0  0  0  0  0  0
   -6.8140   -1.8980  -22.0540 H   0  0  0  0  0  0  0  0  0  0  0  0
   -8.0550   -2.2240  -20.8580 H   0  0  0  0  0  0  0  0  0  0  0  0
   -9.0270   -0.7790  -23.0790 N   0  0  0  0  0  0  0  0  0  0  0  0
   -9.3520   -2.1620  -23.4060 C   0  0  0  0  0  0  0  0  0  0  0  0
  -10.6130   -2.7040  -22.7160 C   0  0  0  0  0  0  0  0  0  0  0  0
  -11.9240   -2.0720  -23.2210 C   0  0  0  0  0  0  0  0  0  0  0  0
  -12.0900   -0.6230  -22.8340 C   0  0  0  0  0  0  0  0  0  0  0  0
  -13.5540   -0.0680  -22.1160 S   0  0  0  0  0  0  0  0  0  0  0  0
  -12.9300    1.5200  -21.9080 C   0  0  0  0  0  0  0  0  0  0  0  0
  -11.6930    1.6400  -22.4550 C   0  0  0  0  0  0  0  0  0  0  0  0
  -11.2080    0.4030  -22.9910 C   0  0  0  0  0  0  0  0  0  0  0  0
   -9.8810    0.2330  -23.6900 C   0  0  0  0  0  0  0  0  0  0  0  0
   -9.3450    1.1860  -23.6810 H   0  0  0  0  0  0  0  0  0  0  0  0
  -10.0380   -0.0820  -24.7310 H   0  0  0  0  0  0  0  0  0  0  0  0
  -11.1500    2.5770  -22.4990 H   0  0  0  0  0  0  0  0  0  0  0  0
  -13.5030    2.2500  -21.3490 H   0  0  0  0  0  0  0  0  0  0  0  0
  -12.7810   -2.6380  -22.8410 H   0  0  0  0  0  0  0  0  0  0  0  0
  -11.9720   -2.1330  -24.3210 H   0  0  0  0  0  0  0  0  0  0  0  0
  -10.6670   -3.7810  -22.9090 H   0  0  0  0  0  0  0  0  0  0  0  0
  -10.5400   -2.5830  -21.6240 H   0  0  0  0  0  0  0  0  0  0  0  0
   -8.4840   -2.7920  -23.1810 H   0  0  0  0  0  0  0  0  0  0  0  0
   -9.5070   -2.1920  -24.4970 H   0  0  0  0  0  0  0  0  0  0  0  0
  1  2  2  0  0  0  0
  2  3  1  0  0  0  0
  2 22  1  0  0  0  0
  3  4  1  0  0  0  0
  3 20  1  0  0  0  0
  3 21  1  0  0  0  0
  4  5  2  0  0  0  0
  4 13  1  0  0  0  0
  5  6  1  0  0  0  0
  5 19  1  0  0  0  0
  6  7  2  0  0  0  0
  7  8  1  0  0  0  0
  7 18  1  0  0  0  0
  8  9  2  0  0  0  0
  8 13  1  0  0  0  0
  9 10  1  0  0  0  0
  9 17  1  0  0  0  0
 10 11  2  0  0  0  0
 10 16  1  0  0  0  0
 11 12  1  0  0  0  0
 11 15  1  0  0  0  0
 12 13  2  0  0  0  0
 12 14  1  0  0  0  0
 22 23  1  0  0  0  0
 22 31  1  0  0  0  0
 23 24  1  0  0  0  0
 23 40  1  0  0  0  0
 23 41  1  0  0  0  0
 24 25  1  0  0  0  0
 24 38  1  0  0  0  0
 24 39  1  0  0  0  0
 25 26  1  0  0  0  0
 25 36  1  0  0  0  0
 25 37  1  0  0  0  0
 26 27  1  0  0  0  0
 26 30  2  0  0  0  0
 27 28  1  0  0  0  0
 28 29  2  0  0  0  0
 28 35  1  0  0  0  0
 29 30  1  0  0  0  0
 29 34  1  0  0  0  0
 30 31  1  0  0  0  0
 31 32  1  0  0  0  0
 31 33  1  0  0  0  0
M  END
>  <MODEL>
       1

$$$$
