tmp_first_model_9_90.pdb
 OpenBabel08272521403D

 64 68  0  0  1  0  0  0  0  0999 V2000
   -7.4760    3.3090  -21.8060 C   0  0  0  0  0  0  0  0  0  0  0  0
   -8.5120    2.8290  -22.7080 N   0  0  0  0  0  0  0  0  0  0  0  0
   -8.0900    2.1010  -23.7840 C   0  0  0  0  0  0  0  0  0  0  0  0
   -6.9030    1.9170  -24.0140 O   0  0  0  0  0  0  0  0  0  0  0  0
   -9.1490    1.5060  -24.7130 C   0  0  0  0  0  0  0  0  0  0  0  0
   -9.7220    0.3090  -24.1350 N   0  0  0  0  0  0  0  0  0  0  0  0
   -8.9100   -0.8960  -24.0530 C   0  0  0  0  0  0  0  0  0  0  0  0
   -9.1720   -1.6660  -22.7390 C   0  0  2  0  0  0  0  0  0  0  0  0
   -8.6150   -0.8590  -21.5450 C   0  0  0  0  0  0  0  0  0  0  0  0
   -9.1210    0.1090  -21.0080 O   0  0  0  0  0  0  0  0  0  0  0  0
   -7.4030   -1.4040  -21.1900 N   0  0  0  0  0  0  0  0  0  0  0  0
   -6.6070   -0.8220  -20.1770 C   0  0  0  0  0  0  0  0  0  0  0  0
   -6.9200   -1.0450  -18.8610 C   0  0  0  0  0  0  0  0  0  0  0  0
   -6.2150   -0.5530  -17.8160 N   0  0  0  0  0  0  0  0  0  0  0  0
   -5.1810    0.2020  -18.0850 C   0  0  0  0  0  0  0  0  0  0  0  0
   -4.7470    0.5200  -19.4020 C   0  0  0  0  0  0  0  0  0  0  0  0
   -3.6270    1.3590  -19.6410 C   0  0  0  0  0  0  0  0  0  0  0  0
   -3.2410    1.6590  -20.9150 C   0  0  0  0  0  0  0  0  0  0  0  0
   -3.9620    1.1410  -22.0150 C   0  0  0  0  0  0  0  0  0  0  0  0
   -5.0570    0.3340  -21.8130 C   0  0  0  0  0  0  0  0  0  0  0  0
   -5.4760   -0.0070  -20.4980 C   0  0  0  0  0  0  0  0  0  0  0  0
   -5.6200   -0.0160  -22.6750 H   0  0  0  0  0  0  0  0  0  0  0  0
   -3.6480    1.3800  -23.0260 H   0  0  0  0  0  0  0  0  0  0  0  0
   -2.3870    2.3040  -21.0930 H   0  0  0  0  0  0  0  0  0  0  0  0
   -3.1000    1.7640  -18.7790 H   0  0  0  0  0  0  0  0  0  0  0  0
   -4.6170    0.6010  -17.2390 H   0  0  0  0  0  0  0  0  0  0  0  0
   -7.7830   -1.6590  -18.6140 H   0  0  0  0  0  0  0  0  0  0  0  0
   -7.0160   -2.5670  -21.9560 C   0  0  0  0  0  0  0  0  0  0  0  0
   -8.3270   -2.9710  -22.6510 C   0  0  2  0  0  0  0  0  0  0  0  0
   -8.1190   -3.7520  -23.9460 C   0  0  0  0  0  0  0  0  0  0  0  0
   -7.4440   -5.3740  -23.6160 S   0  0  0  0  0  0  0  0  0  0  0  0
   -6.0610   -5.2440  -23.1840 O   0  0  0  0  0  0  0  0  0  0  0  0
   -8.3960   -6.1110  -22.7910 O   0  0  0  0  0  0  0  0  0  0  0  0
   -7.3550   -5.9960  -25.1620 N   0  0  0  0  0  0  0  0  0  0  0  0
   -8.5590   -6.4530  -25.8490 C   0  0  0  0  0  0  0  0  0  0  0  0
   -9.1500   -5.6020  -26.2010 H   0  0  0  0  0  0  0  0  0  0  0  0
   -8.2480   -7.0060  -26.7400 H   0  0  0  0  0  0  0  0  0  0  0  0
   -9.1880   -7.0990  -25.2300 H   0  0  0  0  0  0  0  0  0  0  0  0
   -6.5920   -6.6620  -25.1750 H   0  0  0  0  0  0  0  0  0  0  0  0
   -7.4240   -3.2620  -24.6310 H   0  0  0  0  0  0  0  0  0  0  0  0
   -9.0630   -3.8980  -24.4780 H   0  0  0  0  0  0  0  0  0  0  0  0
   -8.8480   -3.6520  -21.9780 H   0  0  0  0  0  0  0  0  0  0  0  0
   -6.6410   -3.3570  -21.3020 H   0  0  0  0  0  0  0  0  0  0  0  0
   -6.2210   -2.3360  -22.6820 H   0  0  0  0  0  0  0  0  0  0  0  0
  -10.6710   -1.8350  -22.6060 C   0  0  0  0  0  0  0  0  0  0  0  0
  -11.2170   -2.8390  -21.8060 C   0  0  0  0  0  0  0  0  0  0  0  0
  -12.5830   -2.8950  -21.6230 C   0  0  0  0  0  0  0  0  0  0  0  0
  -13.0790   -3.8410  -20.8130 F   0  0  0  0  0  0  0  0  0  0  0  0
  -13.4760   -2.0160  -22.2240 C   0  0  0  0  0  0  0  0  0  0  0  0
  -12.9390   -1.0200  -23.0070 C   0  0  0  0  0  0  0  0  0  0  0  0
  -11.5610   -0.9090  -23.1710 C   0  0  0  0  0  0  0  0  0  0  0  0
  -11.0690    0.2760  -23.9300 C   0  0  0  0  0  0  0  0  0  0  0  0
  -11.8170    1.1650  -24.3210 O   0  0  0  0  0  0  0  0  0  0  0  0
  -13.5610   -0.2830  -23.4970 H   0  0  0  0  0  0  0  0  0  0  0  0
  -14.5430   -2.1170  -22.0540 H   0  0  0  0  0  0  0  0  0  0  0  0
  -10.6030   -3.5750  -21.3000 H   0  0  0  0  0  0  0  0  0  0  0  0
   -7.8580   -0.6080  -24.1290 H   0  0  0  0  0  0  0  0  0  0  0  0
   -9.1420   -1.5530  -24.8990 H   0  0  0  0  0  0  0  0  0  0  0  0
   -9.9820    2.1880  -24.9160 H   0  0  0  0  0  0  0  0  0  0  0  0
   -8.6420    1.2610  -25.6550 H   0  0  0  0  0  0  0  0  0  0  0  0
   -9.4350    2.6780  -22.3150 H   0  0  0  0  0  0  0  0  0  0  0  0
   -6.8340    4.0310  -22.3220 H   0  0  0  0  0  0  0  0  0  0  0  0
   -6.8680    2.4580  -21.4580 H   0  0  0  0  0  0  0  0  0  0  0  0
   -7.9340    3.8360  -20.9650 H   0  0  0  0  0  0  0  0  0  0  0  0
  1  2  1  0  0  0  0
  1 62  1  0  0  0  0
  1 63  1  0  0  0  0
  1 64  1  0  0  0  0
  2  3  1  0  0  0  0
  2 61  1  0  0  0  0
  3  4  2  0  0  0  0
  3  5  1  0  0  0  0
  5  6  1  0  0  0  0
  5 59  1  0  0  0  0
  5 60  1  0  0  0  0
  6  7  1  0  0  0  0
  6 52  1  0  0  0  0
  7  8  1  0  0  0  0
  7 57  1  0  0  0  0
  7 58  1  0  0  0  0
  8  9  1  1  0  0  0
  8 29  1  0  0  0  0
  8 45  1  0  0  0  0
  9 10  2  0  0  0  0
  9 11  1  0  0  0  0
 11 12  1  0  0  0  0
 11 28  1  0  0  0  0
 12 13  2  0  0  0  0
 12 21  1  0  0  0  0
 13 14  1  0  0  0  0
 13 27  1  0  0  0  0
 14 15  2  0  0  0  0
 15 16  1  0  0  0  0
 15 26  1  0  0  0  0
 16 17  2  0  0  0  0
 16 21  1  0  0  0  0
 17 18  1  0  0  0  0
 17 25  1  0  0  0  0
 18 19  2  0  0  0  0
 18 24  1  0  0  0  0
 19 20  1  0  0  0  0
 19 23  1  0  0  0  0
 20 21  2  0  0  0  0
 20 22  1  0  0  0  0
 28 29  1  0  0  0  0
 28 43  1  0  0  0  0
 28 44  1  0  0  0  0
 29 30  1  0  0  0  0
 29 42  1  1  0  0  0
 30 31  1  0  0  0  0
 30 40  1  0  0  0  0
 30 41  1  0  0  0  0
 31 32  2  0  0  0  0
 31 33  2  0  0  0  0
 31 34  1  0  0  0  0
 34 35  1  0  0  0  0
 34 39  1  0  0  0  0
 35 36  1  0  0  0  0
 35 37  1  0  0  0  0
 35 38  1  0  0  0  0
 45 46  2  0  0  0  0
 45 51  1  0  0  0  0
 46 47  1  0  0  0  0
 46 56  1  0  0  0  0
 47 48  1  0  0  0  0
 47 49  2  0  0  0  0
 49 50  1  0  0  0  0
 49 55  1  0  0  0  0
 50 51  2  0  0  0  0
 50 54  1  0  0  0  0
 51 52  1  0  0  0  0
 52 53  2  0  0  0  0
M  END
>  <MODEL>
       1

$$$$
