tmp_first_model_7_21.pdb
 OpenBabel08272520323D

 63 68  0  0  1  0  0  0  0  0999 V2000
  -10.3060   -2.7310  -22.1920 C   0  0  0  0  0  0  0  0  0  0  0  0
   -9.0960   -1.9340  -22.7090 C   0  0  1  0  0  0  0  0  0  0  0  0
   -8.6170   -0.9340  -21.6330 C   0  0  0  0  0  0  0  0  0  0  0  0
   -7.3540   -1.4660  -21.1910 N   0  0  0  0  0  0  0  0  0  0  0  0
   -6.5710   -0.8580  -20.1860 C   0  0  0  0  0  0  0  0  0  0  0  0
   -6.9080   -1.0560  -18.8720 C   0  0  0  0  0  0  0  0  0  0  0  0
   -6.2210   -0.5430  -17.8250 N   0  0  0  0  0  0  0  0  0  0  0  0
   -5.1800    0.2030  -18.1000 C   0  0  0  0  0  0  0  0  0  0  0  0
   -4.7370    0.5000  -19.4210 C   0  0  0  0  0  0  0  0  0  0  0  0
   -3.6200    1.3430  -19.6490 C   0  0  0  0  0  0  0  0  0  0  0  0
   -3.2370    1.6610  -20.9220 C   0  0  0  0  0  0  0  0  0  0  0  0
   -3.9540    1.1470  -22.0280 C   0  0  0  0  0  0  0  0  0  0  0  0
   -5.0320    0.3150  -21.8410 C   0  0  0  0  0  0  0  0  0  0  0  0
   -5.4470   -0.0350  -20.5160 C   0  0  0  0  0  0  0  0  0  0  0  0
   -5.5750   -0.0630  -22.7100 H   0  0  0  0  0  0  0  0  0  0  0  0
   -3.6490    1.4270  -23.0330 H   0  0  0  0  0  0  0  0  0  0  0  0
   -2.3890    2.3200  -21.0900 H   0  0  0  0  0  0  0  0  0  0  0  0
   -3.1040    1.7520  -18.7850 H   0  0  0  0  0  0  0  0  0  0  0  0
   -4.6310    0.6260  -17.2600 H   0  0  0  0  0  0  0  0  0  0  0  0
   -7.7660   -1.6840  -18.6270 H   0  0  0  0  0  0  0  0  0  0  0  0
   -6.8540   -2.4930  -21.9490 C   0  0  0  0  0  0  0  0  0  0  0  0
   -5.8010   -3.0490  -21.7280 O   0  0  0  0  0  0  0  0  0  0  0  0
   -7.8360   -2.7710  -23.0980 C   0  0  1  0  0  0  0  0  0  0  0  0
   -8.1410   -4.2760  -23.2120 C   0  0  0  0  0  0  0  0  0  0  0  0
   -7.0230   -5.0310  -23.7460 N   0  0  0  0  0  0  0  0  0  0  0  0
   -6.7350   -6.3250  -23.1630 C   0  0  0  0  0  0  0  0  0  0  0  0
   -7.8530   -7.3170  -23.4690 C   0  0  0  0  0  0  0  0  0  0  0  0
   -8.6570   -7.6590  -22.6140 O   0  0  0  0  0  0  0  0  0  0  0  0
   -7.9100   -7.7100  -24.7750 N   0  0  0  0  0  0  0  0  0  0  0  0
   -9.1820   -8.1170  -25.3460 C   0  0  0  0  0  0  0  0  0  0  0  0
  -10.1170   -6.9510  -25.5570 C   0  0  0  0  0  0  0  0  0  0  0  0
   -9.9180   -5.9710  -26.6660 C   0  0  0  0  0  0  0  0  0  0  0  0
  -11.0710   -6.9400  -26.7000 C   0  0  0  0  0  0  0  0  0  0  0  0
  -12.0910   -6.5960  -26.5550 H   0  0  0  0  0  0  0  0  0  0  0  0
  -10.9900   -7.7770  -27.3780 H   0  0  0  0  0  0  0  0  0  0  0  0
  -10.1270   -4.9300  -26.4340 H   0  0  0  0  0  0  0  0  0  0  0  0
   -9.0990   -6.1120  -27.3650 H   0  0  0  0  0  0  0  0  0  0  0  0
  -10.4800   -6.4910  -24.6480 H   0  0  0  0  0  0  0  0  0  0  0  0
   -8.9980   -8.6390  -26.2930 H   0  0  0  0  0  0  0  0  0  0  0  0
   -9.6450   -8.8180  -24.6540 H   0  0  0  0  0  0  0  0  0  0  0  0
   -7.2100   -7.3470  -25.4060 H   0  0  0  0  0  0  0  0  0  0  0  0
   -6.6630   -6.2230  -22.0730 H   0  0  0  0  0  0  0  0  0  0  0  0
   -5.7880   -6.6460  -23.6030 H   0  0  0  0  0  0  0  0  0  0  0  0
   -6.3780   -4.6560  -24.8840 C   0  0  0  0  0  0  0  0  0  0  0  0
   -5.7000   -5.4380  -25.5500 O   0  0  0  0  0  0  0  0  0  0  0  0
   -6.5300   -3.2170  -25.2470 C   0  0  0  0  0  0  0  0  0  0  0  0
   -5.9460   -2.8050  -26.4410 C   0  0  0  0  0  0  0  0  0  0  0  0
   -6.0160   -1.4810  -26.8280 C   0  0  0  0  0  0  0  0  0  0  0  0
   -6.6660   -0.5850  -25.9850 C   0  0  0  0  0  0  0  0  0  0  0  0
   -6.7240    0.7110  -26.3450 F   0  0  0  0  0  0  0  0  0  0  0  0
   -7.2520   -0.9700  -24.7930 C   0  0  0  0  0  0  0  0  0  0  0  0
   -7.2120   -2.3190  -24.4140 C   0  0  0  0  0  0  0  0  0  0  0  0
   -7.7520   -0.2130  -24.1930 H   0  0  0  0  0  0  0  0  0  0  0  0
   -5.5730   -1.1140  -27.7460 H   0  0  0  0  0  0  0  0  0  0  0  0
   -5.4380   -3.5660  -27.0290 H   0  0  0  0  0  0  0  0  0  0  0  0
   -9.0090   -4.3920  -23.8750 H   0  0  0  0  0  0  0  0  0  0  0  0
   -8.3740   -4.6990  -22.2340 H   0  0  0  0  0  0  0  0  0  0  0  0
   -9.3200   -0.8660  -20.7970 H   0  0  0  0  0  0  0  0  0  0  0  0
   -8.4940    0.0840  -22.0280 H   0  0  0  0  0  0  0  0  0  0  0  0
   -9.4480   -1.4070  -23.6020 H   0  0  0  0  0  0  0  0  0  0  0  0
  -10.0520   -3.3280  -21.3080 H   0  0  0  0  0  0  0  0  0  0  0  0
  -11.1170   -2.0480  -21.9090 H   0  0  0  0  0  0  0  0  0  0  0  0
  -10.7100   -3.4030  -22.9580 H   0  0  0  0  0  0  0  0  0  0  0  0
  1  2  1  0  0  0  0
  1 61  1  0  0  0  0
  1 62  1  0  0  0  0
  1 63  1  0  0  0  0
  2  3  1  0  0  0  0
  2 23  1  0  0  0  0
  2 60  1  6  0  0  0
  3  4  1  0  0  0  0
  3 58  1  0  0  0  0
  3 59  1  0  0  0  0
  4  5  1  0  0  0  0
  4 21  1  0  0  0  0
  5  6  2  0  0  0  0
  5 14  1  0  0  0  0
  6  7  1  0  0  0  0
  6 20  1  0  0  0  0
  7  8  2  0  0  0  0
  8  9  1  0  0  0  0
  8 19  1  0  0  0  0
  9 10  2  0  0  0  0
  9 14  1  0  0  0  0
 10 11  1  0  0  0  0
 10 18  1  0  0  0  0
 11 12  2  0  0  0  0
 11 17  1  0  0  0  0
 12 13  1  0  0  0  0
 12 16  1  0  0  0  0
 13 14  2  0  0  0  0
 13 15  1  0  0  0  0
 21 22  2  0  0  0  0
 23 21  1  1  0  0  0
 23 24  1  0  0  0  0
 23 52  1  0  0  0  0
 24 25  1  0  0  0  0
 24 56  1  0  0  0  0
 24 57  1  0  0  0  0
 25 26  1  0  0  0  0
 25 44  1  0  0  0  0
 26 27  1  0  0  0  0
 26 42  1  0  0  0  0
 26 43  1  0  0  0  0
 27 28  2  0  0  0  0
 27 29  1  0  0  0  0
 29 30  1  0  0  0  0
 29 41  1  0  0  0  0
 30 31  1  0  0  0  0
 30 39  1  0  0  0  0
 30 40  1  0  0  0  0
 31 32  1  0  0  0  0
 31 33  1  0  0  0  0
 31 38  1  0  0  0  0
 32 33  1  0  0  0  0
 32 36  1  0  0  0  0
 32 37  1  0  0  0  0
 33 34  1  0  0  0  0
 33 35  1  0  0  0  0
 44 45  2  0  0  0  0
 44 46  1  0  0  0  0
 46 47  2  0  0  0  0
 46 52  1  0  0  0  0
 47 48  1  0  0  0  0
 47 55  1  0  0  0  0
 48 49  2  0  0  0  0
 48 54  1  0  0  0  0
 49 50  1  0  0  0  0
 49 51  1  0  0  0  0
 51 52  2  0  0  0  0
 51 53  1  0  0  0  0
M  END
>  <MODEL>
       1

$$$$
