tmp_first_model_3_32.pdb
 OpenBabel08272518143D

 57 62  0  0  1  0  0  0  0  0999 V2000
  -10.0070   -0.8180  -23.5360 C   0  0  0  0  0  0  0  0  0  0  0  0
   -8.6770   -1.2460  -22.9300 C   0  0  1  0  0  0  0  0  0  0  0  0
   -8.2050   -0.3320  -21.7940 C   0  0  0  0  0  0  0  0  0  0  0  0
   -7.2370   -1.1610  -21.0960 N   0  0  0  0  0  0  0  0  0  0  0  0
   -6.4270   -0.6640  -20.0510 C   0  0  0  0  0  0  0  0  0  0  0  0
   -6.7540   -0.9050  -18.7410 C   0  0  0  0  0  0  0  0  0  0  0  0
   -6.0980   -0.3680  -17.6820 N   0  0  0  0  0  0  0  0  0  0  0  0
   -5.0680    0.4050  -17.9360 C   0  0  0  0  0  0  0  0  0  0  0  0
   -4.6040    0.7090  -19.2470 C   0  0  0  0  0  0  0  0  0  0  0  0
   -3.4710    1.5370  -19.4650 C   0  0  0  0  0  0  0  0  0  0  0  0
   -3.0490    1.8110  -20.7360 C   0  0  0  0  0  0  0  0  0  0  0  0
   -3.7370    1.2700  -21.8450 C   0  0  0  0  0  0  0  0  0  0  0  0
   -4.8370    0.4640  -21.6610 C   0  0  0  0  0  0  0  0  0  0  0  0
   -5.2990    0.1670  -20.3490 C   0  0  0  0  0  0  0  0  0  0  0  0
   -5.3560    0.0480  -22.5180 H   0  0  0  0  0  0  0  0  0  0  0  0
   -3.3990    1.4970  -22.8510 H   0  0  0  0  0  0  0  0  0  0  0  0
   -2.1890    2.4560  -20.9030 H   0  0  0  0  0  0  0  0  0  0  0  0
   -2.9620    1.9530  -18.5990 H   0  0  0  0  0  0  0  0  0  0  0  0
   -4.5370    0.8310  -17.0830 H   0  0  0  0  0  0  0  0  0  0  0  0
   -7.5970   -1.5470  -18.4910 H   0  0  0  0  0  0  0  0  0  0  0  0
   -7.5300   -2.5050  -21.2200 C   0  0  0  0  0  0  0  0  0  0  0  0
   -7.0450   -3.3850  -20.5370 O   0  0  0  0  0  0  0  0  0  0  0  0
   -8.5660   -2.6960  -22.3400 C   0  0  1  0  0  0  0  0  0  0  0  0
   -9.8500   -3.2280  -21.6500 C   0  0  0  0  0  0  0  0  0  0  0  0
  -10.8080   -3.8330  -22.5810 N   0  0  0  0  0  0  0  0  0  0  0  0
  -12.2130   -3.8750  -22.1750 C   0  0  0  0  0  0  0  0  0  0  0  0
  -12.9770   -2.6320  -22.5260 C   0  0  0  0  0  0  0  0  0  0  0  0
  -12.9430   -1.4960  -21.8640 N   0  0  0  0  0  0  0  0  0  0  0  0
  -13.7810   -0.6510  -22.5010 N   0  0  0  0  0  0  0  0  0  0  0  0
  -14.3220   -1.2250  -23.5160 N   0  0  0  0  0  0  0  0  0  0  0  0
  -13.8340   -2.4800  -23.5570 N   0  0  0  0  0  0  0  0  0  0  0  0
  -14.3380   -3.3980  -24.5610 C   0  0  0  0  0  0  0  0  0  0  0  0
  -14.0090   -4.4120  -24.3130 H   0  0  0  0  0  0  0  0  0  0  0  0
  -15.4300   -3.3700  -24.5900 H   0  0  0  0  0  0  0  0  0  0  0  0
  -13.9710   -3.0760  -25.5360 H   0  0  0  0  0  0  0  0  0  0  0  0
  -12.2790   -4.0080  -21.0850 H   0  0  0  0  0  0  0  0  0  0  0  0
  -12.6800   -4.7340  -22.6650 H   0  0  0  0  0  0  0  0  0  0  0  0
  -10.3800   -4.7220  -23.5380 C   0  0  0  0  0  0  0  0  0  0  0  0
  -11.0930   -5.5530  -24.0750 O   0  0  0  0  0  0  0  0  0  0  0  0
   -8.9540   -4.6330  -23.9370 C   0  0  0  0  0  0  0  0  0  0  0  0
   -8.5440   -5.5420  -24.9090 C   0  0  0  0  0  0  0  0  0  0  0  0
   -7.2310   -5.5910  -25.3210 C   0  0  0  0  0  0  0  0  0  0  0  0
   -6.3600   -4.6590  -24.7700 C   0  0  0  0  0  0  0  0  0  0  0  0
   -5.0730   -4.7030  -25.1540 F   0  0  0  0  0  0  0  0  0  0  0  0
   -6.7600   -3.7080  -23.8430 C   0  0  0  0  0  0  0  0  0  0  0  0
   -8.0830   -3.7070  -23.3730 C   0  0  0  0  0  0  0  0  0  0  0  0
   -6.0330   -2.9840  -23.4920 H   0  0  0  0  0  0  0  0  0  0  0  0
   -6.8910   -6.3280  -26.0430 H   0  0  0  0  0  0  0  0  0  0  0  0
   -9.3070   -6.1950  -25.3140 H   0  0  0  0  0  0  0  0  0  0  0  0
  -10.3820   -2.4250  -21.1270 H   0  0  0  0  0  0  0  0  0  0  0  0
   -9.5250   -3.9570  -20.8900 H   0  0  0  0  0  0  0  0  0  0  0  0
   -9.0410   -0.0490  -21.1320 H   0  0  0  0  0  0  0  0  0  0  0  0
   -7.7430    0.5920  -22.1540 H   0  0  0  0  0  0  0  0  0  0  0  0
   -7.9180   -1.2020  -23.7220 H   0  0  0  0  0  0  0  0  0  0  0  0
  -10.7980   -0.8310  -22.7820 H   0  0  0  0  0  0  0  0  0  0  0  0
   -9.9350    0.2060  -23.9280 H   0  0  0  0  0  0  0  0  0  0  0  0
  -10.3030   -1.4790  -24.3560 H   0  0  0  0  0  0  0  0  0  0  0  0
  1  2  1  0  0  0  0
  1 55  1  0  0  0  0
  1 56  1  0  0  0  0
  1 57  1  0  0  0  0
  2  3  1  0  0  0  0
  2 23  1  0  0  0  0
  2 54  1  6  0  0  0
  3  4  1  0  0  0  0
  3 52  1  0  0  0  0
  3 53  1  0  0  0  0
  4  5  1  0  0  0  0
  4 21  1  0  0  0  0
  5  6  2  0  0  0  0
  5 14  1  0  0  0  0
  6  7  1  0  0  0  0
  6 20  1  0  0  0  0
  7  8  2  0  0  0  0
  8  9  1  0  0  0  0
  8 19  1  0  0  0  0
  9 10  2  0  0  0  0
  9 14  1  0  0  0  0
 10 11  1  0  0  0  0
 10 18  1  0  0  0  0
 11 12  2  0  0  0  0
 11 17  1  0  0  0  0
 12 13  1  0  0  0  0
 12 16  1  0  0  0  0
 13 14  2  0  0  0  0
 13 15  1  0  0  0  0
 21 22  2  0  0  0  0
 23 21  1  1  0  0  0
 23 24  1  0  0  0  0
 23 46  1  0  0  0  0
 24 25  1  0  0  0  0
 24 50  1  0  0  0  0
 24 51  1  0  0  0  0
 25 26  1  0  0  0  0
 25 38  1  0  0  0  0
 26 27  1  0  0  0  0
 26 36  1  0  0  0  0
 26 37  1  0  0  0  0
 27 28  2  0  0  0  0
 27 31  1  0  0  0  0
 28 29  1  0  0  0  0
 29 30  2  0  0  0  0
 30 31  1  0  0  0  0
 31 32  1  0  0  0  0
 32 33  1  0  0  0  0
 32 34  1  0  0  0  0
 32 35  1  0  0  0  0
 38 39  2  0  0  0  0
 38 40  1  0  0  0  0
 40 41  2  0  0  0  0
 40 46  1  0  0  0  0
 41 42  1  0  0  0  0
 41 49  1  0  0  0  0
 42 43  2  0  0  0  0
 42 48  1  0  0  0  0
 43 44  1  0  0  0  0
 43 45  1  0  0  0  0
 45 46  2  0  0  0  0
 45 47  1  0  0  0  0
M  END
>  <MODEL>
       1

$$$$
