tmp_first_model_16_36.pdb
 OpenBabel08282501503D

 47 50  0  0  1  0  0  0  0  0999 V2000
   -8.6860    0.6160  -21.3600 O   0  0  0  0  0  0  0  0  0  0  0  0
   -8.3400   -0.3840  -21.9600 C   0  0  0  0  0  0  0  0  0  0  0  0
   -7.4370   -1.4330  -21.2790 C   0  0  0  0  0  0  0  0  0  0  0  0
   -6.5830   -0.8350  -20.1910 C   0  0  0  0  0  0  0  0  0  0  0  0
   -6.9000   -1.0470  -18.8770 C   0  0  0  0  0  0  0  0  0  0  0  0
   -6.1980   -0.5940  -17.8110 N   0  0  0  0  0  0  0  0  0  0  0  0
   -5.1280    0.1100  -18.0730 C   0  0  0  0  0  0  0  0  0  0  0  0
   -4.7180    0.5030  -19.3810 C   0  0  0  0  0  0  0  0  0  0  0  0
   -3.6020    1.3550  -19.6190 C   0  0  0  0  0  0  0  0  0  0  0  0
   -3.2140    1.6580  -20.8980 C   0  0  0  0  0  0  0  0  0  0  0  0
   -3.9320    1.1290  -21.9930 C   0  0  0  0  0  0  0  0  0  0  0  0
   -5.0250    0.3220  -21.7900 C   0  0  0  0  0  0  0  0  0  0  0  0
   -5.4590   -0.0040  -20.4780 C   0  0  0  0  0  0  0  0  0  0  0  0
   -5.5670   -0.0730  -22.6450 H   0  0  0  0  0  0  0  0  0  0  0  0
   -3.6140    1.3660  -23.0030 H   0  0  0  0  0  0  0  0  0  0  0  0
   -2.3490    2.2940  -21.0860 H   0  0  0  0  0  0  0  0  0  0  0  0
   -3.0630    1.7680  -18.7680 H   0  0  0  0  0  0  0  0  0  0  0  0
   -4.5370    0.3880  -17.2000 H   0  0  0  0  0  0  0  0  0  0  0  0
   -7.7480   -1.6630  -18.5940 H   0  0  0  0  0  0  0  0  0  0  0  0
   -8.0850   -2.1980  -20.8330 H   0  0  0  0  0  0  0  0  0  0  0  0
   -6.8060   -1.9540  -22.0110 H   0  0  0  0  0  0  0  0  0  0  0  0
   -8.6780   -0.6050  -23.2880 N   0  0  0  0  0  0  0  0  0  0  0  0
   -9.1610    0.5330  -24.0700 C   0  0  0  0  0  0  0  0  0  0  0  0
  -10.6760    0.5420  -24.2230 C   0  0  0  0  0  0  0  0  0  0  0  0
  -11.1720   -0.7910  -24.7690 C   0  0  0  0  0  0  0  0  0  0  0  0
  -10.6200   -1.9430  -23.9350 C   0  0  0  0  0  0  0  0  0  0  0  0
   -9.0830   -1.9130  -23.8230 C   0  0  1  0  0  0  0  0  0  0  0  0
   -8.3320   -2.2550  -25.1130 C   0  0  0  0  0  0  0  0  0  0  0  0
   -6.9760   -1.9280  -25.2100 C   0  0  0  0  0  0  0  0  0  0  0  0
   -6.2260   -2.2420  -26.3370 C   0  0  0  0  0  0  0  0  0  0  0  0
   -6.8150   -2.9050  -27.4070 C   0  0  0  0  0  0  0  0  0  0  0  0
   -8.1560   -3.2570  -27.3200 C   0  0  0  0  0  0  0  0  0  0  0  0
   -8.9050   -2.9420  -26.1870 C   0  0  0  0  0  0  0  0  0  0  0  0
   -9.9450   -3.2520  -26.1590 H   0  0  0  0  0  0  0  0  0  0  0  0
   -8.6290   -3.7880  -28.1400 H   0  0  0  0  0  0  0  0  0  0  0  0
   -6.2340   -3.1490  -28.2930 H   0  0  0  0  0  0  0  0  0  0  0  0
   -5.1770   -1.9650  -26.3820 H   0  0  0  0  0  0  0  0  0  0  0  0
   -6.4810   -1.4160  -24.3910 H   0  0  0  0  0  0  0  0  0  0  0  0
   -8.7920   -2.6570  -23.0750 H   0  0  0  0  0  0  0  0  0  0  0  0
  -10.9610   -2.9110  -24.3130 H   0  0  0  0  0  0  0  0  0  0  0  0
  -11.0260   -1.8740  -22.9200 H   0  0  0  0  0  0  0  0  0  0  0  0
  -10.8530   -0.9090  -25.8110 H   0  0  0  0  0  0  0  0  0  0  0  0
  -12.2670   -0.8150  -24.7740 H   0  0  0  0  0  0  0  0  0  0  0  0
  -10.9900    1.3650  -24.8780 H   0  0  0  0  0  0  0  0  0  0  0  0
  -11.1150    0.7400  -23.2410 H   0  0  0  0  0  0  0  0  0  0  0  0
   -8.8060    1.4510  -23.6020 H   0  0  0  0  0  0  0  0  0  0  0  0
   -8.7020    0.4740  -25.0620 H   0  0  0  0  0  0  0  0  0  0  0  0
  1  2  2  0  0  0  0
  2  3  1  0  0  0  0
  2 22  1  0  0  0  0
  3  4  1  0  0  0  0
  3 20  1  0  0  0  0
  3 21  1  0  0  0  0
  4  5  2  0  0  0  0
  4 13  1  0  0  0  0
  5  6  1  0  0  0  0
  5 19  1  0  0  0  0
  6  7  2  0  0  0  0
  7  8  1  0  0  0  0
  7 18  1  0  0  0  0
  8  9  2  0  0  0  0
  8 13  1  0  0  0  0
  9 10  1  0  0  0  0
  9 17  1  0  0  0  0
 10 11  2  0  0  0  0
 10 16  1  0  0  0  0
 11 12  1  0  0  0  0
 11 15  1  0  0  0  0
 12 13  2  0  0  0  0
 12 14  1  0  0  0  0
 22 23  1  0  0  0  0
 22 27  1  0  0  0  0
 23 24  1  0  0  0  0
 23 46  1  0  0  0  0
 23 47  1  0  0  0  0
 24 25  1  0  0  0  0
 24 44  1  0  0  0  0
 24 45  1  0  0  0  0
 25 26  1  0  0  0  0
 25 42  1  0  0  0  0
 25 43  1  0  0  0  0
 26 27  1  0  0  0  0
 26 40  1  0  0  0  0
 26 41  1  0  0  0  0
 27 28  1  0  0  0  0
 27 39  1  1  0  0  0
 28 29  2  0  0  0  0
 28 33  1  0  0  0  0
 29 30  1  0  0  0  0
 29 38  1  0  0  0  0
 30 31  2  0  0  0  0
 30 37  1  0  0  0  0
 31 32  1  0  0  0  0
 31 36  1  0  0  0  0
 32 33  2  0  0  0  0
 32 35  1  0  0  0  0
 33 34  1  0  0  0  0
M  END
>  <MODEL>
       1

$$$$
