tmp_first_model_12_9.pdb
 OpenBabel08272523333D

 41 43  0  0  1  0  0  0  0  0999 V2000
   -8.3110   -7.3320  -23.4980 C   0  0  0  0  0  0  0  0  0  0  0  0
   -8.1220   -5.8250  -23.7180 C   0  0  1  0  0  0  0  0  0  0  0  0
   -9.1570   -4.9970  -22.9930 C   0  0  0  0  0  0  0  0  0  0  0  0
   -9.2950   -3.6730  -23.0630 C   0  0  0  0  0  0  0  0  0  0  0  0
   -8.2780   -2.7370  -23.6610 C   0  0  0  0  0  0  0  0  0  0  0  0
   -6.9080   -2.9510  -23.2150 N   0  0  0  0  0  0  0  0  0  0  0  0
   -6.4980   -2.5380  -21.9650 C   0  0  0  0  0  0  0  0  0  0  0  0
   -5.4950   -2.9820  -21.4320 O   0  0  0  0  0  0  0  0  0  0  0  0
   -7.3460   -1.4500  -21.2810 C   0  0  0  0  0  0  0  0  0  0  0  0
   -6.6130   -0.7860  -20.1620 C   0  0  0  0  0  0  0  0  0  0  0  0
   -6.8960   -1.0820  -18.8570 C   0  0  0  0  0  0  0  0  0  0  0  0
   -6.2290   -0.5920  -17.7810 N   0  0  0  0  0  0  0  0  0  0  0  0
   -5.2090    0.1970  -18.0300 C   0  0  0  0  0  0  0  0  0  0  0  0
   -4.7940    0.5770  -19.3370 C   0  0  0  0  0  0  0  0  0  0  0  0
   -3.6700    1.4160  -19.5580 C   0  0  0  0  0  0  0  0  0  0  0  0
   -3.3570    1.8370  -20.8220 C   0  0  0  0  0  0  0  0  0  0  0  0
   -4.1680    1.4660  -21.9170 C   0  0  0  0  0  0  0  0  0  0  0  0
   -5.2460    0.6310  -21.7330 C   0  0  0  0  0  0  0  0  0  0  0  0
   -5.5570    0.1300  -20.4380 C   0  0  0  0  0  0  0  0  0  0  0  0
   -5.8550    0.3500  -22.5870 H   0  0  0  0  0  0  0  0  0  0  0  0
   -3.9250    1.8290  -22.9120 H   0  0  0  0  0  0  0  0  0  0  0  0
   -2.4970    2.4800  -20.9890 H   0  0  0  0  0  0  0  0  0  0  0  0
   -3.0840    1.7370  -18.7010 H   0  0  0  0  0  0  0  0  0  0  0  0
   -4.6580    0.5770  -17.1700 H   0  0  0  0  0  0  0  0  0  0  0  0
   -7.7070   -1.7710  -18.6190 H   0  0  0  0  0  0  0  0  0  0  0  0
   -8.2700   -1.9080  -20.9010 H   0  0  0  0  0  0  0  0  0  0  0  0
   -7.6430   -0.6960  -22.0160 H   0  0  0  0  0  0  0  0  0  0  0  0
   -6.2140   -4.0830  -23.8220 C   0  0  0  0  0  0  0  0  0  0  0  0
   -6.6820   -5.4480  -23.3270 C   0  0  0  0  0  0  0  0  0  0  0  0
   -6.0060   -6.2160  -23.7310 H   0  0  0  0  0  0  0  0  0  0  0  0
   -6.5780   -5.4830  -22.2370 H   0  0  0  0  0  0  0  0  0  0  0  0
   -6.3740   -4.0210  -24.9050 H   0  0  0  0  0  0  0  0  0  0  0  0
   -5.1440   -3.9740  -23.6390 H   0  0  0  0  0  0  0  0  0  0  0  0
   -8.2620   -2.7840  -24.7550 H   0  0  0  0  0  0  0  0  0  0  0  0
   -8.5840   -1.7230  -23.4210 H   0  0  0  0  0  0  0  0  0  0  0  0
  -10.1840   -3.2100  -22.6310 H   0  0  0  0  0  0  0  0  0  0  0  0
   -9.8460   -5.5260  -22.3500 H   0  0  0  0  0  0  0  0  0  0  0  0
   -8.2510   -5.6240  -24.7930 H   0  0  0  0  0  0  0  0  0  0  0  0
   -8.4960   -7.5490  -22.4410 H   0  0  0  0  0  0  0  0  0  0  0  0
   -9.1490   -7.7350  -24.0800 H   0  0  0  0  0  0  0  0  0  0  0  0
   -7.4000   -7.8780  -23.7780 H   0  0  0  0  0  0  0  0  0  0  0  0
  1  2  1  0  0  0  0
  1 39  1  0  0  0  0
  1 40  1  0  0  0  0
  1 41  1  0  0  0  0
  2  3  1  0  0  0  0
  2 29  1  0  0  0  0
  2 38  1  6  0  0  0
  3  4  2  0  0  0  0
  3 37  1  0  0  0  0
  4  5  1  0  0  0  0
  4 36  1  0  0  0  0
  5  6  1  0  0  0  0
  5 34  1  0  0  0  0
  5 35  1  0  0  0  0
  6  7  1  0  0  0  0
  6 28  1  0  0  0  0
  7  8  2  0  0  0  0
  7  9  1  0  0  0  0
  9 10  1  0  0  0  0
  9 26  1  0  0  0  0
  9 27  1  0  0  0  0
 10 11  2  0  0  0  0
 10 19  1  0  0  0  0
 11 12  1  0  0  0  0
 11 25  1  0  0  0  0
 12 13  2  0  0  0  0
 13 14  1  0  0  0  0
 13 24  1  0  0  0  0
 14 15  2  0  0  0  0
 14 19  1  0  0  0  0
 15 16  1  0  0  0  0
 15 23  1  0  0  0  0
 16 17  2  0  0  0  0
 16 22  1  0  0  0  0
 17 18  1  0  0  0  0
 17 21  1  0  0  0  0
 18 19  2  0  0  0  0
 18 20  1  0  0  0  0
 28 29  1  0  0  0  0
 28 32  1  0  0  0  0
 28 33  1  0  0  0  0
 29 30  1  0  0  0  0
 29 31  1  0  0  0  0
M  END
>  <MODEL>
       1

$$$$
