tmp_first_model_10_5.pdb
 OpenBabel08272522163D

 58 61  0  0  1  0  0  0  0  0999 V2000
   -5.7470   -4.0740  -20.3190 C   0  0  0  0  0  0  0  0  0  0  0  0
   -6.2600   -3.3290  -21.2920 C   0  0  0  0  0  0  0  0  0  0  0  0
   -7.6560   -2.8010  -21.3250 C   0  0  0  0  0  0  0  0  0  0  0  0
   -7.5810   -1.3530  -21.1070 N   0  0  0  0  0  0  0  0  0  0  0  0
   -8.3870   -0.4040  -21.7570 C   0  0  0  0  0  0  0  0  0  0  0  0
   -8.7980    0.5630  -21.1480 O   0  0  0  0  0  0  0  0  0  0  0  0
   -8.6430   -0.6020  -23.2450 C   0  0  2  0  0  0  0  0  0  0  0  0
   -8.4700    0.7470  -23.9600 C   0  0  0  0  0  0  0  0  0  0  0  0
   -8.7170    0.5780  -25.3810 N   0  0  0  0  0  0  0  0  0  0  0  0
   -7.8020    1.1270  -26.3660 C   0  0  0  0  0  0  0  0  0  0  0  0
   -6.8050    0.1000  -26.9290 C   0  0  0  0  0  0  0  0  0  0  0  0
   -6.9000   -0.3650  -28.0540 O   0  0  0  0  0  0  0  0  0  0  0  0
   -5.7760   -0.2260  -26.0890 N   0  0  0  0  0  0  0  0  0  0  0  0
   -4.8320   -1.2660  -26.4680 C   0  0  0  0  0  0  0  0  0  0  0  0
   -5.3410   -2.2250  -26.6330 H   0  0  0  0  0  0  0  0  0  0  0  0
   -4.2980   -0.9910  -27.3850 H   0  0  0  0  0  0  0  0  0  0  0  0
   -4.1050   -1.3890  -25.6600 H   0  0  0  0  0  0  0  0  0  0  0  0
   -5.7570    0.0860  -25.1280 H   0  0  0  0  0  0  0  0  0  0  0  0
   -8.3900    1.4890  -27.2070 H   0  0  0  0  0  0  0  0  0  0  0  0
   -7.2610    1.9670  -25.9100 H   0  0  0  0  0  0  0  0  0  0  0  0
   -9.8420   -0.0660  -25.8420 C   0  0  0  0  0  0  0  0  0  0  0  0
  -10.2320    0.0370  -26.9940 O   0  0  0  0  0  0  0  0  0  0  0  0
  -10.5500   -0.9190  -24.8410 C   0  0  0  0  0  0  0  0  0  0  0  0
  -11.7630   -1.4880  -25.2270 C   0  0  0  0  0  0  0  0  0  0  0  0
  -12.4580   -2.3050  -24.3540 C   0  0  0  0  0  0  0  0  0  0  0  0
  -11.9170   -2.5440  -23.0940 C   0  0  0  0  0  0  0  0  0  0  0  0
  -12.7710   -3.5750  -21.9840 Cl  0  0  0  0  0  0  0  0  0  0  0  0
  -10.7080   -1.9900  -22.6990 C   0  0  0  0  0  0  0  0  0  0  0  0
  -10.0080   -1.1670  -23.5780 C   0  0  0  0  0  0  0  0  0  0  0  0
  -10.3160   -2.2050  -21.7110 H   0  0  0  0  0  0  0  0  0  0  0  0
  -13.4030   -2.7570  -24.6300 H   0  0  0  0  0  0  0  0  0  0  0  0
  -12.1310   -1.2780  -26.2260 H   0  0  0  0  0  0  0  0  0  0  0  0
   -9.1520    1.4820  -23.5120 H   0  0  0  0  0  0  0  0  0  0  0  0
   -7.4480    1.1180  -23.8240 H   0  0  0  0  0  0  0  0  0  0  0  0
   -7.8680   -1.2790  -23.6260 H   0  0  0  0  0  0  0  0  0  0  0  0
   -6.7360   -0.8440  -20.0960 C   0  0  0  0  0  0  0  0  0  0  0  0
   -6.9460   -1.1680  -18.7780 C   0  0  0  0  0  0  0  0  0  0  0  0
   -6.1990   -0.7080  -17.7450 N   0  0  0  0  0  0  0  0  0  0  0  0
   -5.2480    0.1460  -18.0310 C   0  0  0  0  0  0  0  0  0  0  0  0
   -4.9370    0.5840  -19.3520 C   0  0  0  0  0  0  0  0  0  0  0  0
   -3.9470    1.5730  -19.5930 C   0  0  0  0  0  0  0  0  0  0  0  0
   -3.7050    2.0120  -20.8630 C   0  0  0  0  0  0  0  0  0  0  0  0
   -4.3860    1.4310  -21.9610 C   0  0  0  0  0  0  0  0  0  0  0  0
   -5.2850    0.4050  -21.7640 C   0  0  0  0  0  0  0  0  0  0  0  0
   -5.6630    0.0430  -20.4330 C   0  0  0  0  0  0  0  0  0  0  0  0
   -5.6560   -0.1930  -22.6050 H   0  0  0  0  0  0  0  0  0  0  0  0
   -4.1700    1.7960  -22.9620 H   0  0  0  0  0  0  0  0  0  0  0  0
   -2.9700    2.7930  -21.0400 H   0  0  0  0  0  0  0  0  0  0  0  0
   -3.4090    1.9800  -18.7380 H   0  0  0  0  0  0  0  0  0  0  0  0
   -4.6500    0.5310  -17.2030 H   0  0  0  0  0  0  0  0  0  0  0  0
   -7.7710   -1.8240  -18.5120 H   0  0  0  0  0  0  0  0  0  0  0  0
   -8.2660   -3.2820  -20.5440 H   0  0  0  0  0  0  0  0  0  0  0  0
   -8.1290   -2.9750  -22.2940 H   0  0  0  0  0  0  0  0  0  0  0  0
   -5.3380   -2.6750  -22.3260 C   0  0  0  0  0  0  0  0  0  0  0  0
   -4.1250   -2.8220  -22.0940 O   0  0  0  0  0  0  0  0  0  0  0  0
   -5.8500   -2.1210  -23.3310 O   0  5  0  0  0  0  0  0  0  0  0  0
   -6.3690   -4.4530  -19.5100 H   0  0  0  0  0  0  0  0  0  0  0  0
   -4.6880   -4.2850  -20.2870 H   0  0  0  0  0  0  0  0  0  0  0  0
  1  2  2  0  0  0  0
  1 57  1  0  0  0  0
  1 58  1  0  0  0  0
  2  3  1  0  0  0  0
  2 54  1  0  0  0  0
  3  4  1  0  0  0  0
  3 52  1  0  0  0  0
  3 53  1  0  0  0  0
  4  5  1  0  0  0  0
  4 36  1  0  0  0  0
  5  6  2  0  0  0  0
  5  7  1  0  0  0  0
  7  8  1  0  0  0  0
  7 29  1  0  0  0  0
  7 35  1  6  0  0  0
  8  9  1  0  0  0  0
  8 33  1  0  0  0  0
  8 34  1  0  0  0  0
  9 10  1  0  0  0  0
  9 21  1  0  0  0  0
 10 11  1  0  0  0  0
 10 19  1  0  0  0  0
 10 20  1  0  0  0  0
 11 12  2  0  0  0  0
 11 13  1  0  0  0  0
 13 14  1  0  0  0  0
 13 18  1  0  0  0  0
 14 15  1  0  0  0  0
 14 16  1  0  0  0  0
 14 17  1  0  0  0  0
 21 22  2  0  0  0  0
 21 23  1  0  0  0  0
 23 24  2  0  0  0  0
 23 29  1  0  0  0  0
 24 25  1  0  0  0  0
 24 32  1  0  0  0  0
 25 26  2  0  0  0  0
 25 31  1  0  0  0  0
 26 27  1  0  0  0  0
 26 28  1  0  0  0  0
 28 29  2  0  0  0  0
 28 30  1  0  0  0  0
 36 37  2  0  0  0  0
 36 45  1  0  0  0  0
 37 38  1  0  0  0  0
 37 51  1  0  0  0  0
 38 39  2  0  0  0  0
 39 40  1  0  0  0  0
 39 50  1  0  0  0  0
 40 41  2  0  0  0  0
 40 45  1  0  0  0  0
 41 42  1  0  0  0  0
 41 49  1  0  0  0  0
 42 43  2  0  0  0  0
 42 48  1  0  0  0  0
 43 44  1  0  0  0  0
 43 47  1  0  0  0  0
 44 45  2  0  0  0  0
 44 46  1  0  0  0  0
 54 55  2  0  0  0  0
 54 56  1  0  0  0  0
M  CHG  1  56  -1
M  END
>  <MODEL>
       1

$$$$
