tmp_first_model_13_26.pdb
 OpenBabel08282500103D

 55 60  0  0  1  0  0  0  0  0999 V2000
  -10.4360   -1.0330  -23.3570 C   0  0  0  0  0  0  0  0  0  0  0  0
   -8.9950   -1.3920  -22.9990 C   0  0  1  0  0  0  0  0  0  0  0  0
   -8.3970   -0.4780  -21.9120 C   0  0  0  0  0  0  0  0  0  0  0  0
   -7.3990   -1.3170  -21.2740 N   0  0  0  0  0  0  0  0  0  0  0  0
   -6.5810   -0.8450  -20.2180 C   0  0  0  0  0  0  0  0  0  0  0  0
   -6.8850   -1.1170  -18.9080 C   0  0  0  0  0  0  0  0  0  0  0  0
   -6.2140   -0.5890  -17.8550 N   0  0  0  0  0  0  0  0  0  0  0  0
   -5.2040    0.2060  -18.1040 C   0  0  0  0  0  0  0  0  0  0  0  0
   -4.7500    0.5340  -19.4150 C   0  0  0  0  0  0  0  0  0  0  0  0
   -3.6260    1.3680  -19.6520 C   0  0  0  0  0  0  0  0  0  0  0  0
   -3.2200    1.6300  -20.9330 C   0  0  0  0  0  0  0  0  0  0  0  0
   -3.9120    1.0730  -22.0320 C   0  0  0  0  0  0  0  0  0  0  0  0
   -5.0050    0.2670  -21.8290 C   0  0  0  0  0  0  0  0  0  0  0  0
   -5.4540   -0.0120  -20.5110 C   0  0  0  0  0  0  0  0  0  0  0  0
   -5.5310   -0.1790  -22.6670 H   0  0  0  0  0  0  0  0  0  0  0  0
   -3.5770    1.2790  -23.0460 H   0  0  0  0  0  0  0  0  0  0  0  0
   -2.3560    2.2650  -21.1130 H   0  0  0  0  0  0  0  0  0  0  0  0
   -3.0990    1.7790  -18.7950 H   0  0  0  0  0  0  0  0  0  0  0  0
   -4.6820    0.6320  -17.2450 H   0  0  0  0  0  0  0  0  0  0  0  0
   -7.7120   -1.7810  -18.6590 H   0  0  0  0  0  0  0  0  0  0  0  0
   -7.5820   -2.6620  -21.5030 C   0  0  0  0  0  0  0  0  0  0  0  0
   -6.8760   -3.5280  -21.0230 O   0  0  0  0  0  0  0  0  0  0  0  0
   -8.7780   -2.8500  -22.4520 C   0  0  1  0  0  0  0  0  0  0  0  0
   -9.9880   -3.3010  -21.5940 C   0  0  0  0  0  0  0  0  0  0  0  0
  -11.1150   -3.7930  -22.3830 N   0  0  0  0  0  0  0  0  0  0  0  0
  -12.4880   -3.7630  -21.8750 C   0  0  0  0  0  0  0  0  0  0  0  0
  -13.3520   -2.6520  -22.4140 C   0  0  0  0  0  0  0  0  0  0  0  0
  -14.0210   -2.5490  -23.6460 C   0  0  0  0  0  0  0  0  0  0  0  0
  -14.7150   -1.4130  -23.6710 N   0  0  0  0  0  0  0  0  0  0  0  0
  -14.4300   -0.8730  -22.5030 N   0  0  0  0  0  0  0  0  0  0  0  0
  -13.6400   -1.5660  -21.7020 N   0  0  0  0  0  0  0  0  0  0  0  0
  -14.8930   -0.0440  -22.1520 H   0  0  0  0  0  0  0  0  0  0  0  0
  -14.0870   -3.2540  -24.4690 H   0  0  0  0  0  0  0  0  0  0  0  0
  -12.4900   -3.7110  -20.7860 H   0  0  0  0  0  0  0  0  0  0  0  0
  -12.9570   -4.6970  -22.1930 H   0  0  0  0  0  0  0  0  0  0  0  0
  -10.9360   -4.5330  -23.5200 C   0  0  0  0  0  0  0  0  0  0  0  0
  -11.8870   -5.0330  -24.1160 O   0  0  0  0  0  0  0  0  0  0  0  0
   -9.5330   -4.7070  -23.9840 C   0  0  0  0  0  0  0  0  0  0  0  0
   -9.2960   -5.7060  -24.9230 C   0  0  0  0  0  0  0  0  0  0  0  0
   -8.0300   -5.9120  -25.4320 C   0  0  0  0  0  0  0  0  0  0  0  0
   -7.0100   -5.0760  -24.9940 C   0  0  0  0  0  0  0  0  0  0  0  0
   -5.7790   -5.2470  -25.5050 F   0  0  0  0  0  0  0  0  0  0  0  0
   -7.2080   -4.0880  -24.0470 C   0  0  0  0  0  0  0  0  0  0  0  0
   -8.4930   -3.9010  -23.5080 C   0  0  0  0  0  0  0  0  0  0  0  0
   -6.3480   -3.5180  -23.7070 H   0  0  0  0  0  0  0  0  0  0  0  0
   -7.8200   -6.7060  -26.1400 H   0  0  0  0  0  0  0  0  0  0  0  0
  -10.1380   -6.3160  -25.2310 H   0  0  0  0  0  0  0  0  0  0  0  0
  -10.3070   -2.4510  -20.9810 H   0  0  0  0  0  0  0  0  0  0  0  0
   -9.6500   -4.0690  -20.8970 H   0  0  0  0  0  0  0  0  0  0  0  0
   -9.1580   -0.1590  -21.1830 H   0  0  0  0  0  0  0  0  0  0  0  0
   -7.9440    0.4350  -22.3160 H   0  0  0  0  0  0  0  0  0  0  0  0
   -8.3650   -1.3100  -23.8930 H   0  0  0  0  0  0  0  0  0  0  0  0
  -10.5010   -0.0660  -23.8610 H   0  0  0  0  0  0  0  0  0  0  0  0
  -10.8740   -1.7920  -24.0130 H   0  0  0  0  0  0  0  0  0  0  0  0
  -11.0670   -0.9700  -22.4650 H   0  0  0  0  0  0  0  0  0  0  0  0
  1  2  1  0  0  0  0
  1 53  1  0  0  0  0
  1 54  1  0  0  0  0
  1 55  1  0  0  0  0
  2  3  1  0  0  0  0
  2 23  1  0  0  0  0
  2 52  1  6  0  0  0
  3  4  1  0  0  0  0
  3 50  1  0  0  0  0
  3 51  1  0  0  0  0
  4  5  1  0  0  0  0
  4 21  1  0  0  0  0
  5  6  2  0  0  0  0
  5 14  1  0  0  0  0
  6  7  1  0  0  0  0
  6 20  1  0  0  0  0
  7  8  2  0  0  0  0
  8  9  1  0  0  0  0
  8 19  1  0  0  0  0
  9 10  2  0  0  0  0
  9 14  1  0  0  0  0
 10 11  1  0  0  0  0
 10 18  1  0  0  0  0
 11 12  2  0  0  0  0
 11 17  1  0  0  0  0
 12 13  1  0  0  0  0
 12 16  1  0  0  0  0
 13 14  2  0  0  0  0
 13 15  1  0  0  0  0
 21 22  2  0  0  0  0
 23 21  1  1  0  0  0
 23 24  1  0  0  0  0
 23 44  1  0  0  0  0
 24 25  1  0  0  0  0
 24 48  1  0  0  0  0
 24 49  1  0  0  0  0
 25 26  1  0  0  0  0
 25 36  1  0  0  0  0
 26 27  1  0  0  0  0
 26 34  1  0  0  0  0
 26 35  1  0  0  0  0
 27 28  1  0  0  0  0
 27 31  2  0  0  0  0
 28 29  2  0  0  0  0
 28 33  1  0  0  0  0
 29 30  1  0  0  0  0
 30 31  1  0  0  0  0
 30 32  1  0  0  0  0
 36 37  2  0  0  0  0
 36 38  1  0  0  0  0
 38 39  2  0  0  0  0
 38 44  1  0  0  0  0
 39 40  1  0  0  0  0
 39 47  1  0  0  0  0
 40 41  2  0  0  0  0
 40 46  1  0  0  0  0
 41 42  1  0  0  0  0
 41 43  1  0  0  0  0
 43 44  2  0  0  0  0
 43 45  1  0  0  0  0
M  END
>  <MODEL>
       1

$$$$
