tmp_first_model_18_41.pdb
 OpenBabel08282502533D

 67 71  0  0  1  0  0  0  0  0999 V2000
   -7.9380    2.3940  -22.0060 C   0  0  0  0  0  0  0  0  0  0  0  0
   -8.8070    1.9560  -23.0790 N   0  0  0  0  0  0  0  0  0  0  0  0
   -8.3680    1.3780  -24.2190 C   0  0  0  0  0  0  0  0  0  0  0  0
   -7.1900    1.2750  -24.5330 O   0  0  0  0  0  0  0  0  0  0  0  0
   -9.5050    0.7240  -25.0200 C   0  0  0  0  0  0  0  0  0  0  0  0
   -9.9910   -0.4000  -24.2310 N   0  0  0  0  0  0  0  0  0  0  0  0
   -9.0290   -1.4490  -23.9680 C   0  0  0  0  0  0  0  0  0  0  0  0
   -9.2010   -2.0860  -22.5620 C   0  0  2  0  0  0  0  0  0  0  0  0
   -8.6190   -1.1340  -21.4700 C   0  0  0  0  0  0  0  0  0  0  0  0
   -9.1350   -0.1670  -20.9390 O   0  0  0  0  0  0  0  0  0  0  0  0
   -7.3320   -1.5320  -21.1880 N   0  0  0  0  0  0  0  0  0  0  0  0
   -6.5800   -0.9050  -20.1600 C   0  0  0  0  0  0  0  0  0  0  0  0
   -6.9360   -1.0690  -18.8420 C   0  0  0  0  0  0  0  0  0  0  0  0
   -6.2530   -0.5420  -17.7960 N   0  0  0  0  0  0  0  0  0  0  0  0
   -5.2080    0.2010  -18.0680 C   0  0  0  0  0  0  0  0  0  0  0  0
   -4.7520    0.4880  -19.3860 C   0  0  0  0  0  0  0  0  0  0  0  0
   -3.6370    1.3330  -19.6270 C   0  0  0  0  0  0  0  0  0  0  0  0
   -3.2510    1.6280  -20.9060 C   0  0  0  0  0  0  0  0  0  0  0  0
   -3.9550    1.0830  -22.0020 C   0  0  0  0  0  0  0  0  0  0  0  0
   -5.0270    0.2440  -21.7930 C   0  0  0  0  0  0  0  0  0  0  0  0
   -5.4530   -0.0800  -20.4750 C   0  0  0  0  0  0  0  0  0  0  0  0
   -5.5940   -0.1120  -22.6490 H   0  0  0  0  0  0  0  0  0  0  0  0
   -3.6660    1.3430  -23.0160 H   0  0  0  0  0  0  0  0  0  0  0  0
   -2.4120    2.2950  -21.0870 H   0  0  0  0  0  0  0  0  0  0  0  0
   -3.1140    1.7490  -18.7710 H   0  0  0  0  0  0  0  0  0  0  0  0
   -4.6620    0.6240  -17.2230 H   0  0  0  0  0  0  0  0  0  0  0  0
   -7.8030   -1.6720  -18.5790 H   0  0  0  0  0  0  0  0  0  0  0  0
   -6.8880   -2.6600  -21.9840 C   0  0  0  0  0  0  0  0  0  0  0  0
   -8.2250   -3.2940  -22.4220 C   0  0  2  0  0  0  0  0  0  0  0  0
   -8.1890   -4.1380  -23.6950 C   0  0  0  0  0  0  0  0  0  0  0  0
   -7.4000   -5.7140  -23.5390 S   0  0  0  0  0  0  0  0  0  0  0  0
   -7.9270   -6.3810  -22.3590 O   0  0  0  0  0  0  0  0  0  0  0  0
   -7.4790   -6.3640  -24.8400 O   0  0  0  0  0  0  0  0  0  0  0  0
   -5.7990   -5.2920  -23.2330 N   0  0  0  0  0  0  0  0  0  0  0  0
   -5.1170   -4.6650  -24.3680 C   0  0  0  0  0  0  0  0  0  0  0  0
   -5.5120   -3.6590  -24.5560 H   0  0  0  0  0  0  0  0  0  0  0  0
   -4.0710   -4.5580  -24.0780 H   0  0  0  0  0  0  0  0  0  0  0  0
   -5.1900   -5.2630  -25.2860 H   0  0  0  0  0  0  0  0  0  0  0  0
   -5.0450   -6.4110  -22.6580 C   0  0  0  0  0  0  0  0  0  0  0  0
   -4.0800   -6.0140  -22.3330 H   0  0  0  0  0  0  0  0  0  0  0  0
   -4.8830   -7.2350  -23.3700 H   0  0  0  0  0  0  0  0  0  0  0  0
   -5.5970   -6.7850  -21.7940 H   0  0  0  0  0  0  0  0  0  0  0  0
   -7.6830   -3.6240  -24.5180 H   0  0  0  0  0  0  0  0  0  0  0  0
   -9.2080   -4.3740  -24.0270 H   0  0  0  0  0  0  0  0  0  0  0  0
   -8.5750   -3.9260  -21.6010 H   0  0  0  0  0  0  0  0  0  0  0  0
   -6.3060   -2.3320  -22.8630 H   0  0  0  0  0  0  0  0  0  0  0  0
   -6.2640   -3.3330  -21.3950 H   0  0  0  0  0  0  0  0  0  0  0  0
  -10.6800   -2.4170  -22.3970 C   0  0  0  0  0  0  0  0  0  0  0  0
  -11.1290   -3.4430  -21.5520 C   0  0  0  0  0  0  0  0  0  0  0  0
  -12.4670   -3.5020  -21.2060 C   0  0  0  0  0  0  0  0  0  0  0  0
  -12.8710   -4.3770  -20.2680 F   0  0  0  0  0  0  0  0  0  0  0  0
  -13.4340   -2.6610  -21.7350 C   0  0  0  0  0  0  0  0  0  0  0  0
  -13.0220   -1.7680  -22.7000 C   0  0  0  0  0  0  0  0  0  0  0  0
  -11.6730   -1.6530  -23.0400 C   0  0  0  0  0  0  0  0  0  0  0  0
  -11.3320   -0.6290  -24.0810 C   0  0  0  0  0  0  0  0  0  0  0  0
  -12.1850   -0.0130  -24.7000 O   0  0  0  0  0  0  0  0  0  0  0  0
  -13.7280   -1.1180  -23.2000 H   0  0  0  0  0  0  0  0  0  0  0  0
  -14.4530   -2.7240  -21.3660 H   0  0  0  0  0  0  0  0  0  0  0  0
  -10.4610   -4.1830  -21.1240 H   0  0  0  0  0  0  0  0  0  0  0  0
   -8.0370   -1.0020  -24.0460 H   0  0  0  0  0  0  0  0  0  0  0  0
   -9.1220   -2.2200  -24.7460 H   0  0  0  0  0  0  0  0  0  0  0  0
  -10.3510    1.3920  -25.1800 H   0  0  0  0  0  0  0  0  0  0  0  0
   -9.1380    0.4080  -26.0020 H   0  0  0  0  0  0  0  0  0  0  0  0
   -9.7900    1.8750  -22.8770 H   0  0  0  0  0  0  0  0  0  0  0  0
   -8.3990    2.0810  -21.0680 H   0  0  0  0  0  0  0  0  0  0  0  0
   -6.9760    1.8930  -22.1170 H   0  0  0  0  0  0  0  0  0  0  0  0
   -7.7740    3.4790  -22.0120 H   0  0  0  0  0  0  0  0  0  0  0  0
  1  2  1  0  0  0  0
  1 65  1  0  0  0  0
  1 66  1  0  0  0  0
  1 67  1  0  0  0  0
  2  3  1  0  0  0  0
  2 64  1  0  0  0  0
  3  4  2  0  0  0  0
  3  5  1  0  0  0  0
  5  6  1  0  0  0  0
  5 62  1  0  0  0  0
  5 63  1  0  0  0  0
  6  7  1  0  0  0  0
  6 55  1  0  0  0  0
  7  8  1  0  0  0  0
  7 60  1  0  0  0  0
  7 61  1  0  0  0  0
  8  9  1  1  0  0  0
  8 29  1  0  0  0  0
  8 48  1  0  0  0  0
  9 10  2  0  0  0  0
  9 11  1  0  0  0  0
 11 12  1  0  0  0  0
 11 28  1  0  0  0  0
 12 13  2  0  0  0  0
 12 21  1  0  0  0  0
 13 14  1  0  0  0  0
 13 27  1  0  0  0  0
 14 15  2  0  0  0  0
 15 16  1  0  0  0  0
 15 26  1  0  0  0  0
 16 17  2  0  0  0  0
 16 21  1  0  0  0  0
 17 18  1  0  0  0  0
 17 25  1  0  0  0  0
 18 19  2  0  0  0  0
 18 24  1  0  0  0  0
 19 20  1  0  0  0  0
 19 23  1  0  0  0  0
 20 21  2  0  0  0  0
 20 22  1  0  0  0  0
 28 29  1  0  0  0  0
 28 46  1  0  0  0  0
 28 47  1  0  0  0  0
 29 30  1  0  0  0  0
 29 45  1  1  0  0  0
 30 31  1  0  0  0  0
 30 43  1  0  0  0  0
 30 44  1  0  0  0  0
 31 32  2  0  0  0  0
 31 33  2  0  0  0  0
 31 34  1  0  0  0  0
 34 35  1  0  0  0  0
 34 39  1  0  0  0  0
 35 36  1  0  0  0  0
 35 37  1  0  0  0  0
 35 38  1  0  0  0  0
 39 40  1  0  0  0  0
 39 41  1  0  0  0  0
 39 42  1  0  0  0  0
 48 49  2  0  0  0  0
 48 54  1  0  0  0  0
 49 50  1  0  0  0  0
 49 59  1  0  0  0  0
 50 51  1  0  0  0  0
 50 52  2  0  0  0  0
 52 53  1  0  0  0  0
 52 58  1  0  0  0  0
 53 54  2  0  0  0  0
 53 57  1  0  0  0  0
 54 55  1  0  0  0  0
 55 56  2  0  0  0  0
M  END
>  <MODEL>
       1

$$$$
