tmp_first_model_8_66.pdb
 OpenBabel08272521063D

 44 47  0  0  1  0  0  0  0  0999 V2000
   -9.8430    1.4060  -24.4120 C   0  0  0  0  0  0  0  0  0  0  0  0
  -10.9830    0.4970  -23.9760 C   0  0  0  0  0  0  0  0  0  0  0  0
  -10.7920   -0.1460  -22.5930 C   0  0  1  0  0  0  0  0  0  0  0  0
  -12.0090   -0.9690  -22.2420 C   0  0  0  0  0  0  0  0  0  0  0  0
  -13.3580   -0.4950  -22.1090 C   0  0  0  0  0  0  0  0  0  0  0  0
  -14.2140   -1.5030  -21.7820 C   0  0  0  0  0  0  0  0  0  0  0  0
  -13.4160   -3.0220  -21.6350 S   0  0  0  0  0  0  0  0  0  0  0  0
  -11.8980   -2.3160  -22.0460 C   0  0  0  0  0  0  0  0  0  0  0  0
  -10.6650   -3.1530  -22.2490 C   0  0  0  0  0  0  0  0  0  0  0  0
   -9.6600   -2.2940  -23.0110 C   0  0  0  0  0  0  0  0  0  0  0  0
   -9.5800   -0.9560  -22.4500 N   0  0  0  0  0  0  0  0  0  0  0  0
   -8.5140   -0.4210  -21.7690 C   0  0  0  0  0  0  0  0  0  0  0  0
   -8.4290    0.7700  -21.5250 O   0  0  0  0  0  0  0  0  0  0  0  0
   -7.4570   -1.4130  -21.2640 C   0  0  0  0  0  0  0  0  0  0  0  0
   -6.5910   -0.8330  -20.1820 C   0  0  0  0  0  0  0  0  0  0  0  0
   -6.8950   -1.0560  -18.8640 C   0  0  0  0  0  0  0  0  0  0  0  0
   -6.2100   -0.5600  -17.8010 N   0  0  0  0  0  0  0  0  0  0  0  0
   -5.1790    0.2070  -18.0680 C   0  0  0  0  0  0  0  0  0  0  0  0
   -4.7520    0.5360  -19.3820 C   0  0  0  0  0  0  0  0  0  0  0  0
   -3.6290    1.3680  -19.6140 C   0  0  0  0  0  0  0  0  0  0  0  0
   -3.2520    1.6800  -20.8930 C   0  0  0  0  0  0  0  0  0  0  0  0
   -3.9920    1.1810  -21.9890 C   0  0  0  0  0  0  0  0  0  0  0  0
   -5.0720    0.3580  -21.7900 C   0  0  0  0  0  0  0  0  0  0  0  0
   -5.4820    0.0130  -20.4750 C   0  0  0  0  0  0  0  0  0  0  0  0
   -5.6230   -0.0280  -22.6420 H   0  0  0  0  0  0  0  0  0  0  0  0
   -3.6730    1.4260  -22.9990 H   0  0  0  0  0  0  0  0  0  0  0  0
   -2.3850    2.3090  -21.0750 H   0  0  0  0  0  0  0  0  0  0  0  0
   -3.0850    1.7530  -18.7540 H   0  0  0  0  0  0  0  0  0  0  0  0
   -4.6230    0.6130  -17.2220 H   0  0  0  0  0  0  0  0  0  0  0  0
   -7.7470   -1.6820  -18.5970 H   0  0  0  0  0  0  0  0  0  0  0  0
   -7.9940   -2.2860  -20.8700 H   0  0  0  0  0  0  0  0  0  0  0  0
   -6.8680   -1.7740  -22.1180 H   0  0  0  0  0  0  0  0  0  0  0  0
   -8.6690   -2.7450  -23.0520 H   0  0  0  0  0  0  0  0  0  0  0  0
  -10.0100   -2.1840  -24.0430 H   0  0  0  0  0  0  0  0  0  0  0  0
  -10.2480   -3.4840  -21.2850 H   0  0  0  0  0  0  0  0  0  0  0  0
  -10.9040   -4.0670  -22.8130 H   0  0  0  0  0  0  0  0  0  0  0  0
  -15.2680   -1.4250  -21.5990 H   0  0  0  0  0  0  0  0  0  0  0  0
  -13.6720    0.5440  -22.2600 H   0  0  0  0  0  0  0  0  0  0  0  0
  -10.6400    0.6840  -21.8940 H   0  0  0  0  0  0  0  0  0  0  0  0
  -11.9160    1.0670  -23.8880 H   0  0  0  0  0  0  0  0  0  0  0  0
  -11.1900   -0.2830  -24.7190 H   0  0  0  0  0  0  0  0  0  0  0  0
   -8.9050    0.8530  -24.5270 H   0  0  0  0  0  0  0  0  0  0  0  0
  -10.0670    1.8880  -25.3690 H   0  0  0  0  0  0  0  0  0  0  0  0
   -9.6690    2.1940  -23.6720 H   0  0  0  0  0  0  0  0  0  0  0  0
  1  2  1  0  0  0  0
  1 42  1  0  0  0  0
  1 43  1  0  0  0  0
  1 44  1  0  0  0  0
  2  3  1  0  0  0  0
  2 40  1  0  0  0  0
  2 41  1  0  0  0  0
  3  4  1  0  0  0  0
  3 11  1  0  0  0  0
  3 39  1  1  0  0  0
  4  5  1  0  0  0  0
  4  8  2  0  0  0  0
  5  6  2  0  0  0  0
  5 38  1  0  0  0  0
  6  7  1  0  0  0  0
  6 37  1  0  0  0  0
  7  8  1  0  0  0  0
  8  9  1  0  0  0  0
  9 10  1  0  0  0  0
  9 35  1  0  0  0  0
  9 36  1  0  0  0  0
 10 11  1  0  0  0  0
 10 33  1  0  0  0  0
 10 34  1  0  0  0  0
 11 12  1  0  0  0  0
 12 13  2  0  0  0  0
 12 14  1  0  0  0  0
 14 15  1  0  0  0  0
 14 31  1  0  0  0  0
 14 32  1  0  0  0  0
 15 16  2  0  0  0  0
 15 24  1  0  0  0  0
 16 17  1  0  0  0  0
 16 30  1  0  0  0  0
 17 18  2  0  0  0  0
 18 19  1  0  0  0  0
 18 29  1  0  0  0  0
 19 20  2  0  0  0  0
 19 24  1  0  0  0  0
 20 21  1  0  0  0  0
 20 28  1  0  0  0  0
 21 22  2  0  0  0  0
 21 27  1  0  0  0  0
 22 23  1  0  0  0  0
 22 26  1  0  0  0  0
 23 24  2  0  0  0  0
 23 25  1  0  0  0  0
M  END
>  <MODEL>
       1

$$$$
