tmp_first_model_17_3.pdb
 OpenBabel08282502223D

 66 70  0  0  1  0  0  0  0  0999 V2000
   -7.4560    3.3430  -21.6830 C   0  0  0  0  0  0  0  0  0  0  0  0
   -8.3730    2.9330  -22.7280 N   0  0  0  0  0  0  0  0  0  0  0  0
   -7.8250    2.2590  -23.7670 C   0  0  0  0  0  0  0  0  0  0  0  0
   -6.6120    2.1600  -23.9030 O   0  0  0  0  0  0  0  0  0  0  0  0
   -8.7720    1.6470  -24.7940 C   0  0  0  0  0  0  0  0  0  0  0  0
   -9.4590    0.4600  -24.3280 N   0  0  0  0  0  0  0  0  0  0  0  0
   -8.6960   -0.7680  -24.1950 C   0  0  0  0  0  0  0  0  0  0  0  0
   -9.0550   -1.5250  -22.8960 C   0  0  2  0  0  0  0  0  0  0  0  0
   -8.5310   -0.7520  -21.6590 C   0  0  0  0  0  0  0  0  0  0  0  0
   -9.0090    0.2480  -21.1540 O   0  0  0  0  0  0  0  0  0  0  0  0
   -7.4000   -1.3840  -21.1970 N   0  0  0  0  0  0  0  0  0  0  0  0
   -6.6040   -0.8110  -20.1690 C   0  0  0  0  0  0  0  0  0  0  0  0
   -6.9130   -1.0410  -18.8520 C   0  0  0  0  0  0  0  0  0  0  0  0
   -6.2110   -0.5450  -17.8020 N   0  0  0  0  0  0  0  0  0  0  0  0
   -5.1710    0.2070  -18.0730 C   0  0  0  0  0  0  0  0  0  0  0  0
   -4.7340    0.5300  -19.3900 C   0  0  0  0  0  0  0  0  0  0  0  0
   -3.6100    1.3670  -19.6360 C   0  0  0  0  0  0  0  0  0  0  0  0
   -3.2310    1.6650  -20.9160 C   0  0  0  0  0  0  0  0  0  0  0  0
   -3.9560    1.1420  -22.0110 C   0  0  0  0  0  0  0  0  0  0  0  0
   -5.0450    0.3300  -21.8000 C   0  0  0  0  0  0  0  0  0  0  0  0
   -5.4680    0.0040  -20.4810 C   0  0  0  0  0  0  0  0  0  0  0  0
   -5.6040   -0.0490  -22.6500 H   0  0  0  0  0  0  0  0  0  0  0  0
   -3.6540    1.3860  -23.0230 H   0  0  0  0  0  0  0  0  0  0  0  0
   -2.3720    2.3050  -21.0980 H   0  0  0  0  0  0  0  0  0  0  0  0
   -3.0690    1.7680  -18.7820 H   0  0  0  0  0  0  0  0  0  0  0  0
   -4.6170    0.6090  -17.2250 H   0  0  0  0  0  0  0  0  0  0  0  0
   -7.7650   -1.6670  -18.6010 H   0  0  0  0  0  0  0  0  0  0  0  0
   -7.0390   -2.5760  -21.9410 C   0  0  0  0  0  0  0  0  0  0  0  0
   -8.2940   -2.8820  -22.7750 C   0  0  2  0  0  0  0  0  0  0  0  0
   -7.9660   -3.6190  -24.0780 C   0  0  0  0  0  0  0  0  0  0  0  0
   -9.1230   -3.9180  -24.8290 O   0  0  0  0  0  0  0  0  0  0  0  0
   -9.6970   -5.1980  -24.5630 C   0  0  0  0  0  0  0  0  0  0  0  0
  -11.1990   -5.0780  -24.7350 C   0  0  0  0  0  0  0  0  0  0  0  0
  -11.6760   -6.0360  -24.5130 H   0  0  0  0  0  0  0  0  0  0  0  0
  -11.6100   -4.3080  -24.0770 H   0  0  0  0  0  0  0  0  0  0  0  0
  -11.4350   -4.8230  -25.7670 H   0  0  0  0  0  0  0  0  0  0  0  0
   -9.0930   -6.2340  -25.5070 C   0  0  0  0  0  0  0  0  0  0  0  0
   -9.5460   -7.2150  -25.3400 H   0  0  0  0  0  0  0  0  0  0  0  0
   -8.0120   -6.3290  -25.3620 H   0  0  0  0  0  0  0  0  0  0  0  0
   -9.2740   -5.9350  -26.5450 H   0  0  0  0  0  0  0  0  0  0  0  0
   -9.4710   -5.4770  -23.5210 H   0  0  0  0  0  0  0  0  0  0  0  0
   -7.4020   -4.5380  -23.8550 H   0  0  0  0  0  0  0  0  0  0  0  0
   -7.3230   -2.9910  -24.7090 H   0  0  0  0  0  0  0  0  0  0  0  0
   -8.9460   -3.5400  -22.1960 H   0  0  0  0  0  0  0  0  0  0  0  0
   -6.1680   -2.3870  -22.5870 H   0  0  0  0  0  0  0  0  0  0  0  0
   -6.7740   -3.3920  -21.2580 H   0  0  0  0  0  0  0  0  0  0  0  0
  -10.5660   -1.6220  -22.8330 C   0  0  0  0  0  0  0  0  0  0  0  0
  -11.1530   -2.5240  -21.9440 C   0  0  0  0  0  0  0  0  0  0  0  0
  -12.5220   -2.5680  -21.7840 C   0  0  0  0  0  0  0  0  0  0  0  0
  -13.1410   -3.5910  -20.5160 Cl  0  0  0  0  0  0  0  0  0  0  0  0
  -13.3660   -1.7580  -22.5480 C   0  0  0  0  0  0  0  0  0  0  0  0
  -12.7930   -0.8210  -23.3880 C   0  0  0  0  0  0  0  0  0  0  0  0
  -11.4050   -0.7180  -23.4970 C   0  0  0  0  0  0  0  0  0  0  0  0
  -10.8290    0.4510  -24.2380 C   0  0  0  0  0  0  0  0  0  0  0  0
  -11.5310    1.3450  -24.6860 O   0  0  0  0  0  0  0  0  0  0  0  0
  -13.3940   -0.1090  -23.9460 H   0  0  0  0  0  0  0  0  0  0  0  0
  -14.4430   -1.8370  -22.4610 H   0  0  0  0  0  0  0  0  0  0  0  0
  -10.5480   -3.1540  -21.3050 H   0  0  0  0  0  0  0  0  0  0  0  0
   -8.8980   -1.4430  -25.0400 H   0  0  0  0  0  0  0  0  0  0  0  0
   -7.6340   -0.4970  -24.1810 H   0  0  0  0  0  0  0  0  0  0  0  0
   -9.5590    2.3500  -25.0580 H   0  0  0  0  0  0  0  0  0  0  0  0
   -8.1510    1.4200  -25.6700 H   0  0  0  0  0  0  0  0  0  0  0  0
   -9.3570    2.8150  -22.5300 H   0  0  0  0  0  0  0  0  0  0  0  0
   -6.8220    2.4920  -21.4030 H   0  0  0  0  0  0  0  0  0  0  0  0
   -6.8040    4.1410  -22.0480 H   0  0  0  0  0  0  0  0  0  0  0  0
   -8.0120    3.6950  -20.8200 H   0  0  0  0  0  0  0  0  0  0  0  0
  1  2  1  0  0  0  0
  1 64  1  0  0  0  0
  1 65  1  0  0  0  0
  1 66  1  0  0  0  0
  2  3  1  0  0  0  0
  2 63  1  0  0  0  0
  3  4  2  0  0  0  0
  3  5  1  0  0  0  0
  5  6  1  0  0  0  0
  5 61  1  0  0  0  0
  5 62  1  0  0  0  0
  6  7  1  0  0  0  0
  6 54  1  0  0  0  0
  7  8  1  0  0  0  0
  7 59  1  0  0  0  0
  7 60  1  0  0  0  0
  8  9  1  1  0  0  0
  8 29  1  0  0  0  0
  8 47  1  0  0  0  0
  9 10  2  0  0  0  0
  9 11  1  0  0  0  0
 11 12  1  0  0  0  0
 11 28  1  0  0  0  0
 12 13  2  0  0  0  0
 12 21  1  0  0  0  0
 13 14  1  0  0  0  0
 13 27  1  0  0  0  0
 14 15  2  0  0  0  0
 15 16  1  0  0  0  0
 15 26  1  0  0  0  0
 16 17  2  0  0  0  0
 16 21  1  0  0  0  0
 17 18  1  0  0  0  0
 17 25  1  0  0  0  0
 18 19  2  0  0  0  0
 18 24  1  0  0  0  0
 19 20  1  0  0  0  0
 19 23  1  0  0  0  0
 20 21  2  0  0  0  0
 20 22  1  0  0  0  0
 28 29  1  0  0  0  0
 28 45  1  0  0  0  0
 28 46  1  0  0  0  0
 29 30  1  0  0  0  0
 29 44  1  1  0  0  0
 30 31  1  0  0  0  0
 30 42  1  0  0  0  0
 30 43  1  0  0  0  0
 31 32  1  0  0  0  0
 32 33  1  0  0  0  0
 32 37  1  0  0  0  0
 32 41  1  0  0  0  0
 33 34  1  0  0  0  0
 33 35  1  0  0  0  0
 33 36  1  0  0  0  0
 37 38  1  0  0  0  0
 37 39  1  0  0  0  0
 37 40  1  0  0  0  0
 47 48  2  0  0  0  0
 47 53  1  0  0  0  0
 48 49  1  0  0  0  0
 48 58  1  0  0  0  0
 49 50  1  0  0  0  0
 49 51  2  0  0  0  0
 51 52  1  0  0  0  0
 51 57  1  0  0  0  0
 52 53  2  0  0  0  0
 52 56  1  0  0  0  0
 53 54  1  0  0  0  0
 54 55  2  0  0  0  0
M  END
>  <MODEL>
       1

$$$$
