tmp_first_model_14_10.pdb
 OpenBabel08282500413D

 57 62  0  0  1  0  0  0  0  0999 V2000
  -10.4470   -1.0580  -23.4070 C   0  0  0  0  0  0  0  0  0  0  0  0
   -9.0110   -1.3930  -23.0110 C   0  0  1  0  0  0  0  0  0  0  0  0
   -8.4330   -0.4710  -21.9210 C   0  0  0  0  0  0  0  0  0  0  0  0
   -7.4210   -1.2950  -21.2900 N   0  0  0  0  0  0  0  0  0  0  0  0
   -6.6030   -0.8100  -20.2390 C   0  0  0  0  0  0  0  0  0  0  0  0
   -6.9320   -1.0370  -18.9260 C   0  0  0  0  0  0  0  0  0  0  0  0
   -6.2710   -0.4860  -17.8770 N   0  0  0  0  0  0  0  0  0  0  0  0
   -5.2330    0.2700  -18.1310 C   0  0  0  0  0  0  0  0  0  0  0  0
   -4.7600    0.5570  -19.4430 C   0  0  0  0  0  0  0  0  0  0  0  0
   -3.6220    1.3710  -19.6770 C   0  0  0  0  0  0  0  0  0  0  0  0
   -3.2100    1.6270  -20.9570 C   0  0  0  0  0  0  0  0  0  0  0  0
   -3.9130    1.0840  -22.0560 C   0  0  0  0  0  0  0  0  0  0  0  0
   -5.0180    0.2910  -21.8540 C   0  0  0  0  0  0  0  0  0  0  0  0
   -5.4690    0.0120  -20.5360 C   0  0  0  0  0  0  0  0  0  0  0  0
   -5.5530   -0.1390  -22.6940 H   0  0  0  0  0  0  0  0  0  0  0  0
   -3.5760    1.2970  -23.0670 H   0  0  0  0  0  0  0  0  0  0  0  0
   -2.3380    2.2520  -21.1340 H   0  0  0  0  0  0  0  0  0  0  0  0
   -3.0960    1.7800  -18.8190 H   0  0  0  0  0  0  0  0  0  0  0  0
   -4.7070    0.7030  -17.2780 H   0  0  0  0  0  0  0  0  0  0  0  0
   -7.7770   -1.6730  -18.6640 H   0  0  0  0  0  0  0  0  0  0  0  0
   -7.5750   -2.6410  -21.5270 C   0  0  0  0  0  0  0  0  0  0  0  0
   -6.8290   -3.4850  -21.0750 O   0  0  0  0  0  0  0  0  0  0  0  0
   -8.7870   -2.8490  -22.4590 C   0  0  1  0  0  0  0  0  0  0  0  0
   -9.9790   -3.3330  -21.5910 C   0  0  0  0  0  0  0  0  0  0  0  0
  -11.1240   -3.8250  -22.3600 N   0  0  0  0  0  0  0  0  0  0  0  0
  -12.4790   -3.8580  -21.7940 C   0  0  0  0  0  0  0  0  0  0  0  0
  -13.3720   -2.7290  -22.2180 C   0  0  0  0  0  0  0  0  0  0  0  0
  -13.9960   -1.7490  -21.5260 C   0  0  0  0  0  0  0  0  0  0  0  0
  -14.7720   -1.0480  -22.4280 N   0  3  0  0  0  0  0  0  0  0  0  0
  -14.6080   -1.5780  -23.6480 C   0  0  0  0  0  0  0  0  0  0  0  0
  -13.7500   -2.5990  -23.5430 N   0  0  0  0  0  0  0  0  0  0  0  0
  -13.3890   -3.2320  -24.2600 H   0  0  0  0  0  0  0  0  0  0  0  0
  -15.0520   -1.2370  -24.5700 H   0  0  0  0  0  0  0  0  0  0  0  0
  -15.3750   -0.2770  -22.1610 H   0  0  0  0  0  0  0  0  0  0  0  0
  -13.9620   -1.4680  -20.4780 H   0  0  0  0  0  0  0  0  0  0  0  0
  -12.9590   -4.7560  -22.1970 H   0  0  0  0  0  0  0  0  0  0  0  0
  -12.4310   -3.9510  -20.7050 H   0  0  0  0  0  0  0  0  0  0  0  0
  -10.9640   -4.4750  -23.5460 C   0  0  0  0  0  0  0  0  0  0  0  0
  -11.9310   -4.8620  -24.2040 O   0  0  0  0  0  0  0  0  0  0  0  0
   -9.5580   -4.6810  -24.0040 C   0  0  0  0  0  0  0  0  0  0  0  0
   -9.3270   -5.6770  -24.9470 C   0  0  0  0  0  0  0  0  0  0  0  0
   -8.0560   -5.8940  -25.4430 C   0  0  0  0  0  0  0  0  0  0  0  0
   -7.0320   -5.0680  -24.9970 C   0  0  0  0  0  0  0  0  0  0  0  0
   -5.7980   -5.2480  -25.4960 F   0  0  0  0  0  0  0  0  0  0  0  0
   -7.2260   -4.0780  -24.0540 C   0  0  0  0  0  0  0  0  0  0  0  0
   -8.5080   -3.8910  -23.5190 C   0  0  0  0  0  0  0  0  0  0  0  0
   -6.3700   -3.5090  -23.7050 H   0  0  0  0  0  0  0  0  0  0  0  0
   -7.8410   -6.6930  -26.1450 H   0  0  0  0  0  0  0  0  0  0  0  0
  -10.1720   -6.2730  -25.2740 H   0  0  0  0  0  0  0  0  0  0  0  0
   -9.6140   -4.1220  -20.9310 H   0  0  0  0  0  0  0  0  0  0  0  0
  -10.2870   -2.4930  -20.9610 H   0  0  0  0  0  0  0  0  0  0  0  0
   -7.9910    0.4520  -22.3110 H   0  0  0  0  0  0  0  0  0  0  0  0
   -9.1980   -0.1650  -21.1920 H   0  0  0  0  0  0  0  0  0  0  0  0
   -8.3650   -1.3100  -23.8950 H   0  0  0  0  0  0  0  0  0  0  0  0
  -11.1180   -1.0850  -22.5410 H   0  0  0  0  0  0  0  0  0  0  0  0
  -10.8100   -1.7830  -24.1410 H   0  0  0  0  0  0  0  0  0  0  0  0
  -10.5330   -0.0630  -23.8500 H   0  0  0  0  0  0  0  0  0  0  0  0
  1  2  1  0  0  0  0
  1 55  1  0  0  0  0
  1 56  1  0  0  0  0
  1 57  1  0  0  0  0
  2  3  1  0  0  0  0
  2 23  1  0  0  0  0
  2 54  1  6  0  0  0
  3  4  1  0  0  0  0
  3 52  1  0  0  0  0
  3 53  1  0  0  0  0
  4  5  1  0  0  0  0
  4 21  1  0  0  0  0
  5  6  2  0  0  0  0
  5 14  1  0  0  0  0
  6  7  1  0  0  0  0
  6 20  1  0  0  0  0
  7  8  2  0  0  0  0
  8  9  1  0  0  0  0
  8 19  1  0  0  0  0
  9 10  2  0  0  0  0
  9 14  1  0  0  0  0
 10 11  1  0  0  0  0
 10 18  1  0  0  0  0
 11 12  2  0  0  0  0
 11 17  1  0  0  0  0
 12 13  1  0  0  0  0
 12 16  1  0  0  0  0
 13 14  2  0  0  0  0
 13 15  1  0  0  0  0
 21 22  2  0  0  0  0
 23 21  1  1  0  0  0
 23 24  1  0  0  0  0
 23 46  1  0  0  0  0
 24 25  1  0  0  0  0
 24 50  1  0  0  0  0
 24 51  1  0  0  0  0
 25 26  1  0  0  0  0
 25 38  1  0  0  0  0
 26 27  1  0  0  0  0
 26 36  1  0  0  0  0
 26 37  1  0  0  0  0
 27 28  2  0  0  0  0
 27 31  1  0  0  0  0
 28 29  1  0  0  0  0
 28 35  1  0  0  0  0
 29 30  2  0  0  0  0
 29 34  1  0  0  0  0
 30 31  1  0  0  0  0
 30 33  1  0  0  0  0
 31 32  1  0  0  0  0
 38 39  2  0  0  0  0
 38 40  1  0  0  0  0
 40 41  2  0  0  0  0
 40 46  1  0  0  0  0
 41 42  1  0  0  0  0
 41 49  1  0  0  0  0
 42 43  2  0  0  0  0
 42 48  1  0  0  0  0
 43 44  1  0  0  0  0
 43 45  1  0  0  0  0
 45 46  2  0  0  0  0
 45 47  1  0  0  0  0
M  CHG  1  29   1
M  END
>  <MODEL>
       1

$$$$
