tmp_first_model_11_58.pdb
 OpenBabel08272522543D

 42 45  0  0  1  0  0  0  0  0999 V2000
  -12.0270   -4.0940  -22.9260 C   0  0  0  0  0  0  0  0  0  0  0  0
  -10.6380   -4.5040  -22.9220 N   0  0  0  0  0  0  0  0  0  0  0  0
   -9.8150   -4.0470  -21.8210 C   0  0  0  0  0  0  0  0  0  0  0  0
   -8.6610   -3.1970  -22.3680 C   0  0  1  0  0  0  0  0  0  0  0  0
   -7.7530   -2.7330  -21.2310 C   0  0  0  0  0  0  0  0  0  0  0  0
   -7.3570   -3.5070  -20.3780 O   0  0  0  0  0  0  0  0  0  0  0  0
   -7.3650   -1.4040  -21.2220 N   0  0  0  0  0  0  0  0  0  0  0  0
   -6.5800   -0.8430  -20.1790 C   0  0  0  0  0  0  0  0  0  0  0  0
   -6.8920   -1.0590  -18.8580 C   0  0  0  0  0  0  0  0  0  0  0  0
   -6.2100   -0.5360  -17.8080 N   0  0  0  0  0  0  0  0  0  0  0  0
   -5.1700    0.2170  -18.0760 C   0  0  0  0  0  0  0  0  0  0  0  0
   -4.7280    0.5240  -19.3910 C   0  0  0  0  0  0  0  0  0  0  0  0
   -3.5980    1.3490  -19.6330 C   0  0  0  0  0  0  0  0  0  0  0  0
   -3.1970    1.6190  -20.9110 C   0  0  0  0  0  0  0  0  0  0  0  0
   -3.9060    1.0760  -22.0080 C   0  0  0  0  0  0  0  0  0  0  0  0
   -5.0050    0.2770  -21.8000 C   0  0  0  0  0  0  0  0  0  0  0  0
   -5.4490   -0.0140  -20.4850 C   0  0  0  0  0  0  0  0  0  0  0  0
   -5.5350   -0.1390  -22.6520 H   0  0  0  0  0  0  0  0  0  0  0  0
   -3.5800    1.2980  -23.0190 H   0  0  0  0  0  0  0  0  0  0  0  0
   -2.3380    2.2600  -21.0950 H   0  0  0  0  0  0  0  0  0  0  0  0
   -3.0700    1.7680  -18.7790 H   0  0  0  0  0  0  0  0  0  0  0  0
   -4.6150    0.6220  -17.2280 H   0  0  0  0  0  0  0  0  0  0  0  0
   -7.7480   -1.6760  -18.5940 H   0  0  0  0  0  0  0  0  0  0  0  0
   -7.6490   -0.7940  -21.9760 H   0  0  0  0  0  0  0  0  0  0  0  0
   -7.9160   -4.0010  -23.4240 C   0  0  0  0  0  0  0  0  0  0  0  0
   -6.5760   -3.7350  -23.7170 C   0  0  0  0  0  0  0  0  0  0  0  0
   -5.9340   -4.4350  -24.7260 C   0  0  0  0  0  0  0  0  0  0  0  0
   -4.2680   -4.0820  -25.0880 Cl  0  0  0  0  0  0  0  0  0  0  0  0
   -6.6010   -5.4120  -25.4600 C   0  0  0  0  0  0  0  0  0  0  0  0
   -7.9360   -5.6710  -25.1780 C   0  0  0  0  0  0  0  0  0  0  0  0
   -8.6040   -4.9690  -24.1690 C   0  0  0  0  0  0  0  0  0  0  0  0
  -10.0870   -5.1840  -23.9830 C   0  0  0  0  0  0  0  0  0  0  0  0
  -10.7410   -5.8840  -24.7410 O   0  0  0  0  0  0  0  0  0  0  0  0
   -8.4840   -6.4080  -25.7600 H   0  0  0  0  0  0  0  0  0  0  0  0
   -6.0770   -5.9410  -26.2500 H   0  0  0  0  0  0  0  0  0  0  0  0
   -6.0310   -2.9780  -23.1630 H   0  0  0  0  0  0  0  0  0  0  0  0
   -9.1080   -2.3200  -22.8530 H   0  0  0  0  0  0  0  0  0  0  0  0
  -10.4450   -3.4540  -21.1530 H   0  0  0  0  0  0  0  0  0  0  0  0
   -9.3940   -4.8760  -21.2340 H   0  0  0  0  0  0  0  0  0  0  0  0
  -12.4940   -4.2560  -21.9510 H   0  0  0  0  0  0  0  0  0  0  0  0
  -12.5850   -4.6730  -23.6550 H   0  0  0  0  0  0  0  0  0  0  0  0
  -12.1170   -3.0250  -23.1410 H   0  0  0  0  0  0  0  0  0  0  0  0
  1  2  1  0  0  0  0
  1 40  1  0  0  0  0
  1 41  1  0  0  0  0
  1 42  1  0  0  0  0
  2  3  1  0  0  0  0
  2 32  1  0  0  0  0
  3  4  1  0  0  0  0
  3 38  1  0  0  0  0
  3 39  1  0  0  0  0
  4  5  1  0  0  0  0
  4 25  1  0  0  0  0
  4 37  1  6  0  0  0
  5  6  2  0  0  0  0
  5  7  1  0  0  0  0
  7  8  1  0  0  0  0
  7 24  1  0  0  0  0
  8  9  2  0  0  0  0
  8 17  1  0  0  0  0
  9 10  1  0  0  0  0
  9 23  1  0  0  0  0
 10 11  2  0  0  0  0
 11 12  1  0  0  0  0
 11 22  1  0  0  0  0
 12 13  2  0  0  0  0
 12 17  1  0  0  0  0
 13 14  1  0  0  0  0
 13 21  1  0  0  0  0
 14 15  2  0  0  0  0
 14 20  1  0  0  0  0
 15 16  1  0  0  0  0
 15 19  1  0  0  0  0
 16 17  2  0  0  0  0
 16 18  1  0  0  0  0
 25 26  2  0  0  0  0
 25 31  1  0  0  0  0
 26 27  1  0  0  0  0
 26 36  1  0  0  0  0
 27 28  1  0  0  0  0
 27 29  2  0  0  0  0
 29 30  1  0  0  0  0
 29 35  1  0  0  0  0
 30 31  2  0  0  0  0
 30 34  1  0  0  0  0
 31 32  1  0  0  0  0
 32 33  2  0  0  0  0
M  END
>  <MODEL>
       1

$$$$
