tmp_first_model_8_61.pdb
 OpenBabel08272521063D

 44 47  0  0  0  0  0  0  0  0999 V2000
   -8.4230    0.7680  -21.5570 O   0  0  0  0  0  0  0  0  0  0  0  0
   -8.5400   -0.4290  -21.7660 C   0  0  0  0  0  0  0  0  0  0  0  0
   -7.4780   -1.4160  -21.2660 C   0  0  0  0  0  0  0  0  0  0  0  0
   -6.6070   -0.8310  -20.1830 C   0  0  0  0  0  0  0  0  0  0  0  0
   -6.9010   -1.0570  -18.8640 C   0  0  0  0  0  0  0  0  0  0  0  0
   -6.2140   -0.5640  -17.8010 N   0  0  0  0  0  0  0  0  0  0  0  0
   -5.1820    0.2040  -18.0680 C   0  0  0  0  0  0  0  0  0  0  0  0
   -4.7580    0.5330  -19.3820 C   0  0  0  0  0  0  0  0  0  0  0  0
   -3.6340    1.3640  -19.6140 C   0  0  0  0  0  0  0  0  0  0  0  0
   -3.2540    1.6780  -20.8910 C   0  0  0  0  0  0  0  0  0  0  0  0
   -3.9960    1.1800  -21.9890 C   0  0  0  0  0  0  0  0  0  0  0  0
   -5.0770    0.3580  -21.7900 C   0  0  0  0  0  0  0  0  0  0  0  0
   -5.4930    0.0120  -20.4770 C   0  0  0  0  0  0  0  0  0  0  0  0
   -5.6280   -0.0240  -22.6440 H   0  0  0  0  0  0  0  0  0  0  0  0
   -3.6770    1.4270  -22.9980 H   0  0  0  0  0  0  0  0  0  0  0  0
   -2.3880    2.3070  -21.0730 H   0  0  0  0  0  0  0  0  0  0  0  0
   -3.0900    1.7480  -18.7530 H   0  0  0  0  0  0  0  0  0  0  0  0
   -4.6240    0.6120  -17.2240 H   0  0  0  0  0  0  0  0  0  0  0  0
   -7.7510   -1.6860  -18.5930 H   0  0  0  0  0  0  0  0  0  0  0  0
   -7.9970   -2.2990  -20.8730 H   0  0  0  0  0  0  0  0  0  0  0  0
   -6.8770   -1.7590  -22.1200 H   0  0  0  0  0  0  0  0  0  0  0  0
   -9.6310   -0.9510  -22.4120 N   0  0  0  0  0  0  0  0  0  0  0  0
  -10.7260   -0.0390  -22.7120 C   0  0  0  0  0  0  0  0  0  0  0  0
  -12.0510   -0.7790  -22.5800 C   0  0  0  0  0  0  0  0  0  0  0  0
  -12.2290   -1.9650  -23.5330 C   0  0  0  0  0  0  0  0  0  0  0  0
  -13.2670   -1.7400  -24.6700 C   0  0  0  0  0  0  0  0  0  0  0  0
  -14.2470   -2.7300  -23.9980 C   0  0  0  0  0  0  0  0  0  0  0  0
  -13.1680   -3.0540  -22.9400 C   0  0  0  0  0  0  0  0  0  0  0  0
  -13.4610   -2.8530  -21.9030 H   0  0  0  0  0  0  0  0  0  0  0  0
  -12.7510   -4.0630  -22.9840 H   0  0  0  0  0  0  0  0  0  0  0  0
  -15.1290   -2.2390  -23.5850 H   0  0  0  0  0  0  0  0  0  0  0  0
  -14.6210   -3.5540  -24.6120 H   0  0  0  0  0  0  0  0  0  0  0  0
  -13.6610   -0.7210  -24.7140 H   0  0  0  0  0  0  0  0  0  0  0  0
  -12.9190   -2.0070  -25.6720 H   0  0  0  0  0  0  0  0  0  0  0  0
  -10.8420   -2.4500  -23.9610 C   0  0  0  0  0  0  0  0  0  0  0  0
   -9.7770   -2.3350  -22.8620 C   0  0  0  0  0  0  0  0  0  0  0  0
   -8.8170   -2.6730  -23.2660 H   0  0  0  0  0  0  0  0  0  0  0  0
  -10.0230   -2.9980  -22.0200 H   0  0  0  0  0  0  0  0  0  0  0  0
  -10.8880   -3.4800  -24.3350 H   0  0  0  0  0  0  0  0  0  0  0  0
  -10.5190   -1.8200  -24.7960 H   0  0  0  0  0  0  0  0  0  0  0  0
  -12.0250   -1.2170  -21.5850 H   0  0  0  0  0  0  0  0  0  0  0  0
  -12.9040   -0.0910  -22.6180 H   0  0  0  0  0  0  0  0  0  0  0  0
  -10.5790    0.3980  -23.7060 H   0  0  0  0  0  0  0  0  0  0  0  0
  -10.6480    0.7780  -21.9950 H   0  0  0  0  0  0  0  0  0  0  0  0
  1  2  2  0  0  0  0
  2  3  1  0  0  0  0
  2 22  1  0  0  0  0
  3  4  1  0  0  0  0
  3 20  1  0  0  0  0
  3 21  1  0  0  0  0
  4  5  2  0  0  0  0
  4 13  1  0  0  0  0
  5  6  1  0  0  0  0
  5 19  1  0  0  0  0
  6  7  2  0  0  0  0
  7  8  1  0  0  0  0
  7 18  1  0  0  0  0
  8  9  2  0  0  0  0
  8 13  1  0  0  0  0
  9 10  1  0  0  0  0
  9 17  1  0  0  0  0
 10 11  2  0  0  0  0
 10 16  1  0  0  0  0
 11 12  1  0  0  0  0
 11 15  1  0  0  0  0
 12 13  2  0  0  0  0
 12 14  1  0  0  0  0
 22 23  1  0  0  0  0
 22 36  1  0  0  0  0
 23 24  1  0  0  0  0
 23 43  1  0  0  0  0
 23 44  1  0  0  0  0
 24 25  1  0  0  0  0
 24 41  1  0  0  0  0
 24 42  1  0  0  0  0
 25 26  1  0  0  0  0
 25 28  1  0  0  0  0
 25 35  1  0  0  0  0
 26 27  1  0  0  0  0
 26 33  1  0  0  0  0
 26 34  1  0  0  0  0
 27 28  1  0  0  0  0
 27 31  1  0  0  0  0
 27 32  1  0  0  0  0
 28 29  1  0  0  0  0
 28 30  1  0  0  0  0
 35 36  1  0  0  0  0
 35 39  1  0  0  0  0
 35 40  1  0  0  0  0
 36 37  1  0  0  0  0
 36 38  1  0  0  0  0
M  END
>  <MODEL>
       1

$$$$
