tmp_first_model_5_41.pdb
 OpenBabel08272519233D

 67 71  0  0  1  0  0  0  0  0999 V2000
   -7.2860    3.2560  -21.6760 C   0  0  0  0  0  0  0  0  0  0  0  0
   -8.2540    2.8210  -22.6680 N   0  0  0  0  0  0  0  0  0  0  0  0
   -7.8120    2.2010  -23.7920 C   0  0  0  0  0  0  0  0  0  0  0  0
   -6.6200    2.0500  -24.0310 O   0  0  0  0  0  0  0  0  0  0  0  0
   -8.8910    1.6850  -24.7530 C   0  0  0  0  0  0  0  0  0  0  0  0
   -9.5200    0.4760  -24.2400 N   0  0  0  0  0  0  0  0  0  0  0  0
   -8.7170   -0.7300  -24.1240 C   0  0  0  0  0  0  0  0  0  0  0  0
   -9.0810   -1.5460  -22.8530 C   0  0  2  0  0  0  0  0  0  0  0  0
   -8.5440   -0.8350  -21.5910 C   0  0  0  0  0  0  0  0  0  0  0  0
   -8.9930    0.1560  -21.0500 O   0  0  0  0  0  0  0  0  0  0  0  0
   -7.4070   -1.4900  -21.1760 N   0  0  0  0  0  0  0  0  0  0  0  0
   -6.5610   -0.9640  -20.1770 C   0  0  0  0  0  0  0  0  0  0  0  0
   -6.8330   -1.1710  -18.8500 C   0  0  0  0  0  0  0  0  0  0  0  0
   -5.9290   -0.9590  -17.8630 N   0  0  0  0  0  0  0  0  0  0  0  0
   -4.7630   -0.4580  -18.2030 C   0  0  0  0  0  0  0  0  0  0  0  0
   -4.4300   -0.0340  -19.5250 C   0  0  0  0  0  0  0  0  0  0  0  0
   -3.2590    0.7270  -19.8200 C   0  0  0  0  0  0  0  0  0  0  0  0
   -3.1500    1.4020  -21.0060 C   0  0  0  0  0  0  0  0  0  0  0  0
   -4.1050    1.1950  -22.0340 C   0  0  0  0  0  0  0  0  0  0  0  0
   -5.1550    0.3310  -21.8300 C   0  0  0  0  0  0  0  0  0  0  0  0
   -5.3840   -0.2430  -20.5450 C   0  0  0  0  0  0  0  0  0  0  0  0
   -5.8340    0.1240  -22.6540 H   0  0  0  0  0  0  0  0  0  0  0  0
   -4.0090    1.7250  -22.9800 H   0  0  0  0  0  0  0  0  0  0  0  0
   -2.2700    2.0090  -21.2060 H   0  0  0  0  0  0  0  0  0  0  0  0
   -2.5020    0.8400  -19.0510 H   0  0  0  0  0  0  0  0  0  0  0  0
   -4.0290   -0.3390  -17.4040 H   0  0  0  0  0  0  0  0  0  0  0  0
   -7.7880   -1.5860  -18.5360 H   0  0  0  0  0  0  0  0  0  0  0  0
   -7.0140   -2.6010  -22.0120 C   0  0  0  0  0  0  0  0  0  0  0  0
   -8.3030   -2.8920  -22.7900 C   0  0  2  0  0  0  0  0  0  0  0  0
   -8.0690   -3.6070  -24.1180 C   0  0  0  0  0  0  0  0  0  0  0  0
   -7.2690   -5.1690  -23.7950 S   0  0  0  0  0  0  0  0  0  0  0  0
   -8.1380   -5.9210  -22.8970 O   0  0  0  0  0  0  0  0  0  0  0  0
   -5.8720   -4.9270  -23.4410 O   0  0  0  0  0  0  0  0  0  0  0  0
   -7.3030   -5.9150  -25.2980 N   0  0  0  0  0  0  0  0  0  0  0  0
   -6.4820   -5.2570  -26.3110 C   0  0  0  0  0  0  0  0  0  0  0  0
   -5.4440   -5.1070  -25.9890 H   0  0  0  0  0  0  0  0  0  0  0  0
   -6.5040   -5.8840  -27.2060 H   0  0  0  0  0  0  0  0  0  0  0  0
   -6.9230   -4.2950  -26.5790 H   0  0  0  0  0  0  0  0  0  0  0  0
   -7.0070   -7.3410  -25.1640 C   0  0  0  0  0  0  0  0  0  0  0  0
   -5.9760   -7.5410  -24.8310 H   0  0  0  0  0  0  0  0  0  0  0  0
   -7.7020   -7.7660  -24.4380 H   0  0  0  0  0  0  0  0  0  0  0  0
   -7.1740   -7.8170  -26.1350 H   0  0  0  0  0  0  0  0  0  0  0  0
   -7.4060   -3.0260  -24.7690 H   0  0  0  0  0  0  0  0  0  0  0  0
   -9.0130   -3.8220  -24.6310 H   0  0  0  0  0  0  0  0  0  0  0  0
   -8.8900   -3.5750  -22.1740 H   0  0  0  0  0  0  0  0  0  0  0  0
   -6.1750   -2.3380  -22.6690 H   0  0  0  0  0  0  0  0  0  0  0  0
   -6.6900   -3.4540  -21.4120 H   0  0  0  0  0  0  0  0  0  0  0  0
  -10.5870   -1.7040  -22.8110 C   0  0  0  0  0  0  0  0  0  0  0  0
  -11.1860   -2.6960  -22.0220 C   0  0  0  0  0  0  0  0  0  0  0  0
  -12.5370   -2.9370  -22.1580 C   0  0  0  0  0  0  0  0  0  0  0  0
  -13.0980   -3.9270  -21.4460 F   0  0  0  0  0  0  0  0  0  0  0  0
  -13.3340   -2.2350  -23.0510 C   0  0  0  0  0  0  0  0  0  0  0  0
  -12.7660   -1.1900  -23.7530 C   0  0  0  0  0  0  0  0  0  0  0  0
  -11.4190   -0.8760  -23.5790 C   0  0  0  0  0  0  0  0  0  0  0  0
  -10.8870    0.3800  -24.2130 C   0  0  0  0  0  0  0  0  0  0  0  0
  -11.6240    1.2610  -24.6310 O   0  0  0  0  0  0  0  0  0  0  0  0
  -13.3590   -0.5880  -24.4340 H   0  0  0  0  0  0  0  0  0  0  0  0
  -14.3830   -2.4920  -23.1500 H   0  0  0  0  0  0  0  0  0  0  0  0
  -10.6310   -3.2780  -21.2940 H   0  0  0  0  0  0  0  0  0  0  0  0
   -7.6660   -0.4320  -24.0940 H   0  0  0  0  0  0  0  0  0  0  0  0
   -8.8700   -1.3530  -25.0200 H   0  0  0  0  0  0  0  0  0  0  0  0
   -9.6970    2.4090  -24.9030 H   0  0  0  0  0  0  0  0  0  0  0  0
   -8.4000    1.5110  -25.7220 H   0  0  0  0  0  0  0  0  0  0  0  0
   -9.2100    2.6840  -22.3710 H   0  0  0  0  0  0  0  0  0  0  0  0
   -7.8090    3.7260  -20.8450 H   0  0  0  0  0  0  0  0  0  0  0  0
   -6.5990    3.9840  -22.1120 H   0  0  0  0  0  0  0  0  0  0  0  0
   -6.6890    2.4150  -21.3040 H   0  0  0  0  0  0  0  0  0  0  0  0
  1  2  1  0  0  0  0
  1 65  1  0  0  0  0
  1 66  1  0  0  0  0
  1 67  1  0  0  0  0
  2  3  1  0  0  0  0
  2 64  1  0  0  0  0
  3  4  2  0  0  0  0
  3  5  1  0  0  0  0
  5  6  1  0  0  0  0
  5 62  1  0  0  0  0
  5 63  1  0  0  0  0
  6  7  1  0  0  0  0
  6 55  1  0  0  0  0
  7  8  1  0  0  0  0
  7 60  1  0  0  0  0
  7 61  1  0  0  0  0
  8  9  1  1  0  0  0
  8 29  1  0  0  0  0
  8 48  1  0  0  0  0
  9 10  2  0  0  0  0
  9 11  1  0  0  0  0
 11 12  1  0  0  0  0
 11 28  1  0  0  0  0
 12 13  2  0  0  0  0
 12 21  1  0  0  0  0
 13 14  1  0  0  0  0
 13 27  1  0  0  0  0
 14 15  2  0  0  0  0
 15 16  1  0  0  0  0
 15 26  1  0  0  0  0
 16 17  2  0  0  0  0
 16 21  1  0  0  0  0
 17 18  1  0  0  0  0
 17 25  1  0  0  0  0
 18 19  2  0  0  0  0
 18 24  1  0  0  0  0
 19 20  1  0  0  0  0
 19 23  1  0  0  0  0
 20 21  2  0  0  0  0
 20 22  1  0  0  0  0
 28 29  1  0  0  0  0
 28 46  1  0  0  0  0
 28 47  1  0  0  0  0
 29 30  1  0  0  0  0
 29 45  1  1  0  0  0
 30 31  1  0  0  0  0
 30 43  1  0  0  0  0
 30 44  1  0  0  0  0
 31 32  2  0  0  0  0
 31 33  2  0  0  0  0
 31 34  1  0  0  0  0
 34 35  1  0  0  0  0
 34 39  1  0  0  0  0
 35 36  1  0  0  0  0
 35 37  1  0  0  0  0
 35 38  1  0  0  0  0
 39 40  1  0  0  0  0
 39 41  1  0  0  0  0
 39 42  1  0  0  0  0
 48 49  2  0  0  0  0
 48 54  1  0  0  0  0
 49 50  1  0  0  0  0
 49 59  1  0  0  0  0
 50 51  1  0  0  0  0
 50 52  2  0  0  0  0
 52 53  1  0  0  0  0
 52 58  1  0  0  0  0
 53 54  2  0  0  0  0
 53 57  1  0  0  0  0
 54 55  1  0  0  0  0
 55 56  2  0  0  0  0
M  END
>  <MODEL>
       1

$$$$
