tmp_first_model_14_13.pdb
 OpenBabel08282500413D

 69 74  0  0  1  0  0  0  0  0999 V2000
   -7.4150    3.3410  -21.7570 C   0  0  0  0  0  0  0  0  0  0  0  0
   -8.4430    2.8400  -22.6450 N   0  0  0  0  0  0  0  0  0  0  0  0
   -8.0370    2.1030  -23.7090 C   0  0  0  0  0  0  0  0  0  0  0  0
   -6.8610    1.8470  -23.9240 O   0  0  0  0  0  0  0  0  0  0  0  0
   -9.1380    1.5840  -24.6210 C   0  0  0  0  0  0  0  0  0  0  0  0
   -9.7570    0.4130  -24.0440 N   0  0  0  0  0  0  0  0  0  0  0  0
   -9.0050   -0.8300  -24.0490 C   0  0  0  0  0  0  0  0  0  0  0  0
   -9.2320   -1.6300  -22.7390 C   0  0  2  0  0  0  0  0  0  0  0  0
   -8.6360   -0.8260  -21.5560 C   0  0  0  0  0  0  0  0  0  0  0  0
   -9.1110    0.1560  -21.0190 O   0  0  0  0  0  0  0  0  0  0  0  0
   -7.4270   -1.3870  -21.2180 N   0  0  0  0  0  0  0  0  0  0  0  0
   -6.6220   -0.8070  -20.2060 C   0  0  0  0  0  0  0  0  0  0  0  0
   -6.9530   -1.0010  -18.8890 C   0  0  0  0  0  0  0  0  0  0  0  0
   -6.2600   -0.4930  -17.8460 N   0  0  0  0  0  0  0  0  0  0  0  0
   -5.2000    0.2280  -18.1140 C   0  0  0  0  0  0  0  0  0  0  0  0
   -4.7510    0.5230  -19.4300 C   0  0  0  0  0  0  0  0  0  0  0  0
   -3.6230    1.3520  -19.6620 C   0  0  0  0  0  0  0  0  0  0  0  0
   -3.2380    1.6560  -20.9380 C   0  0  0  0  0  0  0  0  0  0  0  0
   -3.9620    1.1430  -22.0370 C   0  0  0  0  0  0  0  0  0  0  0  0
   -5.0590    0.3360  -21.8390 C   0  0  0  0  0  0  0  0  0  0  0  0
   -5.4810   -0.0030  -20.5240 C   0  0  0  0  0  0  0  0  0  0  0  0
   -5.6280   -0.0040  -22.6990 H   0  0  0  0  0  0  0  0  0  0  0  0
   -3.6560    1.4000  -23.0460 H   0  0  0  0  0  0  0  0  0  0  0  0
   -2.3830    2.3030  -21.1100 H   0  0  0  0  0  0  0  0  0  0  0  0
   -3.0920    1.7490  -18.8010 H   0  0  0  0  0  0  0  0  0  0  0  0
   -4.6390    0.6260  -17.2690 H   0  0  0  0  0  0  0  0  0  0  0  0
   -7.8220   -1.6050  -18.6410 H   0  0  0  0  0  0  0  0  0  0  0  0
   -7.0810   -2.5630  -21.9950 C   0  0  0  0  0  0  0  0  0  0  0  0
   -8.4000   -2.9440  -22.6910 C   0  0  2  0  0  0  0  0  0  0  0  0
   -8.1580   -3.6930  -24.0070 C   0  0  0  0  0  0  0  0  0  0  0  0
   -9.3990   -4.1220  -24.6110 N   0  0  0  0  0  0  0  0  0  0  0  0
   -9.4340   -4.7530  -25.8150 C   0  0  0  0  0  0  0  0  0  0  0  0
  -10.6580   -5.1740  -26.3790 C   0  0  0  0  0  0  0  0  0  0  0  0
  -10.5840   -5.7810  -27.6120 C   0  0  0  0  0  0  0  0  0  0  0  0
   -9.4340   -5.9810  -28.2710 N   0  0  0  0  0  0  0  0  0  0  0  0
   -8.3320   -5.5640  -27.6470 C   0  0  0  0  0  0  0  0  0  0  0  0
   -7.0310   -5.8180  -28.3670 C   0  0  0  0  0  0  0  0  0  0  0  0
   -7.2060   -5.7700  -29.4470 H   0  0  0  0  0  0  0  0  0  0  0  0
   -6.6710   -6.8300  -28.1360 H   0  0  0  0  0  0  0  0  0  0  0  0
   -6.2630   -5.0960  -28.0700 H   0  0  0  0  0  0  0  0  0  0  0  0
   -8.2700   -4.9620  -26.4500 N   0  0  0  0  0  0  0  0  0  0  0  0
  -11.4850   -6.1310  -28.1210 H   0  0  0  0  0  0  0  0  0  0  0  0
  -11.6080   -5.0350  -25.8690 H   0  0  0  0  0  0  0  0  0  0  0  0
  -10.2730   -3.9340  -24.1400 H   0  0  0  0  0  0  0  0  0  0  0  0
   -7.5290   -4.5750  -23.8220 H   0  0  0  0  0  0  0  0  0  0  0  0
   -7.6130   -3.0630  -24.7260 H   0  0  0  0  0  0  0  0  0  0  0  0
   -8.9250   -3.6340  -22.0220 H   0  0  0  0  0  0  0  0  0  0  0  0
   -6.2910   -2.3400  -22.7280 H   0  0  0  0  0  0  0  0  0  0  0  0
   -6.7200   -3.3680  -21.3460 H   0  0  0  0  0  0  0  0  0  0  0  0
  -10.7260   -1.7810  -22.5370 C   0  0  0  0  0  0  0  0  0  0  0  0
  -11.2860   -2.8370  -21.8110 C   0  0  0  0  0  0  0  0  0  0  0  0
  -12.6510   -2.8710  -21.5870 C   0  0  0  0  0  0  0  0  0  0  0  0
  -13.3110   -4.0860  -20.5390 Cl  0  0  0  0  0  0  0  0  0  0  0  0
  -13.5140   -1.9350  -22.1490 C   0  0  0  0  0  0  0  0  0  0  0  0
  -12.9650   -0.8720  -22.8360 C   0  0  0  0  0  0  0  0  0  0  0  0
  -11.5800   -0.7470  -22.9540 C   0  0  0  0  0  0  0  0  0  0  0  0
  -10.9880    0.5370  -23.4710 C   0  0  0  0  0  0  0  0  0  0  0  0
  -11.5460    1.6270  -23.3650 O   0  0  0  0  0  0  0  0  0  0  0  0
  -13.6040   -0.1150  -23.2760 H   0  0  0  0  0  0  0  0  0  0  0  0
  -14.5830   -2.0150  -21.9810 H   0  0  0  0  0  0  0  0  0  0  0  0
  -10.6890   -3.6100  -21.3410 H   0  0  0  0  0  0  0  0  0  0  0  0
   -7.9410   -0.5970  -24.1580 H   0  0  0  0  0  0  0  0  0  0  0  0
   -9.3070   -1.4370  -24.9110 H   0  0  0  0  0  0  0  0  0  0  0  0
   -8.7180    1.3480  -25.6070 H   0  0  0  0  0  0  0  0  0  0  0  0
   -9.9070    2.3420  -24.7210 H   0  0  0  0  0  0  0  0  0  0  0  0
   -9.4010    2.8060  -22.3150 H   0  0  0  0  0  0  0  0  0  0  0  0
   -6.7660    2.5080  -21.4550 H   0  0  0  0  0  0  0  0  0  0  0  0
   -6.8120    4.1060  -22.2570 H   0  0  0  0  0  0  0  0  0  0  0  0
   -7.8890    3.8040  -20.8940 H   0  0  0  0  0  0  0  0  0  0  0  0
  1  2  1  0  0  0  0
  1 67  1  0  0  0  0
  1 68  1  0  0  0  0
  1 69  1  0  0  0  0
  2  3  1  0  0  0  0
  2 66  1  0  0  0  0
  3  4  2  0  0  0  0
  3  5  1  0  0  0  0
  5  6  1  0  0  0  0
  5 64  1  0  0  0  0
  5 65  1  0  0  0  0
  6  7  1  0  0  0  0
  6 57  1  0  0  0  0
  7  8  1  0  0  0  0
  7 62  1  0  0  0  0
  7 63  1  0  0  0  0
  8  9  1  1  0  0  0
  8 29  1  0  0  0  0
  8 50  1  0  0  0  0
  9 10  2  0  0  0  0
  9 11  1  0  0  0  0
 11 12  1  0  0  0  0
 11 28  1  0  0  0  0
 12 13  2  0  0  0  0
 12 21  1  0  0  0  0
 13 14  1  0  0  0  0
 13 27  1  0  0  0  0
 14 15  2  0  0  0  0
 15 16  1  0  0  0  0
 15 26  1  0  0  0  0
 16 17  2  0  0  0  0
 16 21  1  0  0  0  0
 17 18  1  0  0  0  0
 17 25  1  0  0  0  0
 18 19  2  0  0  0  0
 18 24  1  0  0  0  0
 19 20  1  0  0  0  0
 19 23  1  0  0  0  0
 20 21  2  0  0  0  0
 20 22  1  0  0  0  0
 28 29  1  0  0  0  0
 28 48  1  0  0  0  0
 28 49  1  0  0  0  0
 29 30  1  0  0  0  0
 29 47  1  1  0  0  0
 30 31  1  0  0  0  0
 30 45  1  0  0  0  0
 30 46  1  0  0  0  0
 31 32  1  0  0  0  0
 31 44  1  0  0  0  0
 32 33  2  0  0  0  0
 32 41  1  0  0  0  0
 33 34  1  0  0  0  0
 33 43  1  0  0  0  0
 34 35  2  0  0  0  0
 34 42  1  0  0  0  0
 35 36  1  0  0  0  0
 36 37  1  0  0  0  0
 36 41  2  0  0  0  0
 37 38  1  0  0  0  0
 37 39  1  0  0  0  0
 37 40  1  0  0  0  0
 50 51  2  0  0  0  0
 50 56  1  0  0  0  0
 51 52  1  0  0  0  0
 51 61  1  0  0  0  0
 52 53  1  0  0  0  0
 52 54  2  0  0  0  0
 54 55  1  0  0  0  0
 54 60  1  0  0  0  0
 55 56  2  0  0  0  0
 55 59  1  0  0  0  0
 56 57  1  0  0  0  0
 57 58  2  0  0  0  0
M  END
>  <MODEL>
       1

$$$$
