tmp_first_model_9_23.pdb
 OpenBabel08272521403D

 68 73  0  0  1  0  0  0  0  0999 V2000
   -7.2490    3.4160  -21.9080 C   0  0  0  0  0  0  0  0  0  0  0  0
   -8.2050    2.9090  -22.8770 N   0  0  0  0  0  0  0  0  0  0  0  0
   -7.7450    2.2190  -23.9560 C   0  0  0  0  0  0  0  0  0  0  0  0
   -6.5550    2.0430  -24.1660 O   0  0  0  0  0  0  0  0  0  0  0  0
   -8.8260    1.6750  -24.9000 C   0  0  0  0  0  0  0  0  0  0  0  0
   -9.4970    0.5220  -24.3210 N   0  0  0  0  0  0  0  0  0  0  0  0
   -8.7210   -0.6950  -24.1420 C   0  0  0  0  0  0  0  0  0  0  0  0
   -9.1060   -1.4810  -22.8580 C   0  0  2  0  0  0  0  0  0  0  0  0
   -8.5910   -0.7010  -21.6190 C   0  0  0  0  0  0  0  0  0  0  0  0
   -9.0800    0.2960  -21.1280 O   0  0  0  0  0  0  0  0  0  0  0  0
   -7.4520   -1.3130  -21.1540 N   0  0  0  0  0  0  0  0  0  0  0  0
   -6.6480   -0.7480  -20.1420 C   0  0  0  0  0  0  0  0  0  0  0  0
   -6.9450   -1.0010  -18.8280 C   0  0  0  0  0  0  0  0  0  0  0  0
   -6.2150   -0.5390  -17.7900 N   0  0  0  0  0  0  0  0  0  0  0  0
   -5.1700    0.2040  -18.0630 C   0  0  0  0  0  0  0  0  0  0  0  0
   -4.7440    0.5300  -19.3840 C   0  0  0  0  0  0  0  0  0  0  0  0
   -3.6120    1.3520  -19.6330 C   0  0  0  0  0  0  0  0  0  0  0  0
   -3.2370    1.6500  -20.9160 C   0  0  0  0  0  0  0  0  0  0  0  0
   -3.9770    1.1430  -22.0090 C   0  0  0  0  0  0  0  0  0  0  0  0
   -5.0800    0.3510  -21.7930 C   0  0  0  0  0  0  0  0  0  0  0  0
   -5.4950    0.0290  -20.4690 C   0  0  0  0  0  0  0  0  0  0  0  0
   -5.6600   -0.0010  -22.6410 H   0  0  0  0  0  0  0  0  0  0  0  0
   -3.6930    1.3960  -23.0260 H   0  0  0  0  0  0  0  0  0  0  0  0
   -2.3820    2.2950  -21.1010 H   0  0  0  0  0  0  0  0  0  0  0  0
   -3.0800    1.7570  -18.7780 H   0  0  0  0  0  0  0  0  0  0  0  0
   -4.5980    0.5870  -17.2190 H   0  0  0  0  0  0  0  0  0  0  0  0
   -7.8120   -1.6100  -18.5790 H   0  0  0  0  0  0  0  0  0  0  0  0
   -7.0450   -2.4780  -21.8970 C   0  0  0  0  0  0  0  0  0  0  0  0
   -8.2910   -2.8200  -22.7260 C   0  0  2  0  0  0  0  0  0  0  0  0
   -7.8910   -3.5850  -23.9930 C   0  0  0  0  0  0  0  0  0  0  0  0
   -9.0600   -4.1820  -24.5910 N   0  0  0  0  0  0  0  0  0  0  0  0
   -9.0560   -4.7920  -25.8430 C   0  0  0  0  0  0  0  0  0  0  0  0
  -10.2770   -5.2700  -26.3410 C   0  0  0  0  0  0  0  0  0  0  0  0
  -10.3660   -5.7960  -27.6280 C   0  0  0  0  0  0  0  0  0  0  0  0
   -9.2250   -5.8840  -28.4240 C   0  0  0  0  0  0  0  0  0  0  0  0
   -8.0000   -5.4930  -27.8980 C   0  0  0  0  0  0  0  0  0  0  0  0
   -7.9020   -4.9560  -26.6180 C   0  0  0  0  0  0  0  0  0  0  0  0
   -6.9310   -4.6730  -26.2300 H   0  0  0  0  0  0  0  0  0  0  0  0
   -7.1070   -5.6080  -28.5000 H   0  0  0  0  0  0  0  0  0  0  0  0
   -9.3100   -6.2540  -29.4420 H   0  0  0  0  0  0  0  0  0  0  0  0
  -11.3370   -6.1290  -28.0030 H   0  0  0  0  0  0  0  0  0  0  0  0
  -11.1450   -5.2290  -25.6770 H   0  0  0  0  0  0  0  0  0  0  0  0
   -9.9220   -3.6870  -24.3960 H   0  0  0  0  0  0  0  0  0  0  0  0
   -7.1740   -4.3730  -23.7230 H   0  0  0  0  0  0  0  0  0  0  0  0
   -7.3360   -2.9090  -24.6700 H   0  0  0  0  0  0  0  0  0  0  0  0
   -8.9050   -3.4930  -22.1220 H   0  0  0  0  0  0  0  0  0  0  0  0
   -6.7590   -3.2920  -21.2180 H   0  0  0  0  0  0  0  0  0  0  0  0
   -6.1690   -2.2620  -22.5310 H   0  0  0  0  0  0  0  0  0  0  0  0
  -10.6300   -1.5790  -22.7850 C   0  0  0  0  0  0  0  0  0  0  0  0
  -11.2690   -2.5320  -21.9750 C   0  0  0  0  0  0  0  0  0  0  0  0
  -12.6490   -2.5170  -21.8300 C   0  0  0  0  0  0  0  0  0  0  0  0
  -13.4160   -3.6850  -20.7900 Cl  0  0  0  0  0  0  0  0  0  0  0  0
  -13.4440   -1.5700  -22.4730 C   0  0  0  0  0  0  0  0  0  0  0  0
  -12.8260   -0.6160  -23.2550 C   0  0  0  0  0  0  0  0  0  0  0  0
  -11.4380   -0.6040  -23.3980 C   0  0  0  0  0  0  0  0  0  0  0  0
  -10.8550    0.5380  -24.1780 C   0  0  0  0  0  0  0  0  0  0  0  0
  -11.5600    1.4360  -24.6270 O   0  0  0  0  0  0  0  0  0  0  0  0
  -13.3950    0.1560  -23.7620 H   0  0  0  0  0  0  0  0  0  0  0  0
  -14.5210   -1.5720  -22.3430 H   0  0  0  0  0  0  0  0  0  0  0  0
  -10.7060   -3.2700  -21.4130 H   0  0  0  0  0  0  0  0  0  0  0  0
   -7.6710   -0.3970  -24.0770 H   0  0  0  0  0  0  0  0  0  0  0  0
   -8.8460   -1.3320  -25.0280 H   0  0  0  0  0  0  0  0  0  0  0  0
   -8.3370    1.4230  -25.8490 H   0  0  0  0  0  0  0  0  0  0  0  0
   -9.6110    2.4120  -25.0980 H   0  0  0  0  0  0  0  0  0  0  0  0
   -9.1490    2.7380  -22.5580 H   0  0  0  0  0  0  0  0  0  0  0  0
   -6.6280    2.6090  -21.5000 H   0  0  0  0  0  0  0  0  0  0  0  0
   -7.7830    3.9120  -21.0950 H   0  0  0  0  0  0  0  0  0  0  0  0
   -6.5800    4.1360  -22.3850 H   0  0  0  0  0  0  0  0  0  0  0  0
  1  2  1  0  0  0  0
  1 66  1  0  0  0  0
  1 67  1  0  0  0  0
  1 68  1  0  0  0  0
  2  3  1  0  0  0  0
  2 65  1  0  0  0  0
  3  4  2  0  0  0  0
  3  5  1  0  0  0  0
  5  6  1  0  0  0  0
  5 63  1  0  0  0  0
  5 64  1  0  0  0  0
  6  7  1  0  0  0  0
  6 56  1  0  0  0  0
  7  8  1  0  0  0  0
  7 61  1  0  0  0  0
  7 62  1  0  0  0  0
  8  9  1  1  0  0  0
  8 29  1  0  0  0  0
  8 49  1  0  0  0  0
  9 10  2  0  0  0  0
  9 11  1  0  0  0  0
 11 12  1  0  0  0  0
 11 28  1  0  0  0  0
 12 13  2  0  0  0  0
 12 21  1  0  0  0  0
 13 14  1  0  0  0  0
 13 27  1  0  0  0  0
 14 15  2  0  0  0  0
 15 16  1  0  0  0  0
 15 26  1  0  0  0  0
 16 17  2  0  0  0  0
 16 21  1  0  0  0  0
 17 18  1  0  0  0  0
 17 25  1  0  0  0  0
 18 19  2  0  0  0  0
 18 24  1  0  0  0  0
 19 20  1  0  0  0  0
 19 23  1  0  0  0  0
 20 21  2  0  0  0  0
 20 22  1  0  0  0  0
 28 29  1  0  0  0  0
 28 47  1  0  0  0  0
 28 48  1  0  0  0  0
 29 30  1  0  0  0  0
 29 46  1  1  0  0  0
 30 31  1  0  0  0  0
 30 44  1  0  0  0  0
 30 45  1  0  0  0  0
 31 32  1  0  0  0  0
 31 43  1  0  0  0  0
 32 33  2  0  0  0  0
 32 37  1  0  0  0  0
 33 34  1  0  0  0  0
 33 42  1  0  0  0  0
 34 35  2  0  0  0  0
 34 41  1  0  0  0  0
 35 36  1  0  0  0  0
 35 40  1  0  0  0  0
 36 37  2  0  0  0  0
 36 39  1  0  0  0  0
 37 38  1  0  0  0  0
 49 50  2  0  0  0  0
 49 55  1  0  0  0  0
 50 51  1  0  0  0  0
 50 60  1  0  0  0  0
 51 52  1  0  0  0  0
 51 53  2  0  0  0  0
 53 54  1  0  0  0  0
 53 59  1  0  0  0  0
 54 55  2  0  0  0  0
 54 58  1  0  0  0  0
 55 56  1  0  0  0  0
 56 57  2  0  0  0  0
M  END
>  <MODEL>
       1

$$$$
