tmp_first_model_2_52.pdb
 OpenBabel08272517383D

 57 60  0  0  0  0  0  0  0  0999 V2000
   -2.7770   -4.2470  -29.8330 C   0  0  0  0  0  0  0  0  0  0  0  0
   -2.7450   -3.2910  -28.6420 C   0  0  0  0  0  0  0  0  0  0  0  0
   -3.8760   -3.5840  -27.6570 C   0  0  0  0  0  0  0  0  0  0  0  0
   -4.9620   -3.0460  -27.7690 O   0  0  0  0  0  0  0  0  0  0  0  0
   -3.6310   -4.5090  -26.6600 N   0  0  0  0  0  0  0  0  0  0  0  0
   -4.5000   -4.7710  -25.5660 C   0  0  0  0  0  0  0  0  0  0  0  0
   -4.5870   -6.0660  -25.0410 C   0  0  0  0  0  0  0  0  0  0  0  0
   -5.4500   -6.3200  -23.9800 C   0  0  0  0  0  0  0  0  0  0  0  0
   -6.2020   -5.3060  -23.3940 C   0  0  0  0  0  0  0  0  0  0  0  0
   -6.0730   -4.0040  -23.8810 C   0  0  0  0  0  0  0  0  0  0  0  0
   -6.8370   -2.9230  -23.3070 N   0  0  0  0  0  0  0  0  0  0  0  0
   -7.8250   -2.2410  -24.1360 C   0  0  0  0  0  0  0  0  0  0  0  0
   -9.2600   -2.5010  -23.7240 C   0  0  0  0  0  0  0  0  0  0  0  0
  -10.1230   -1.4560  -23.3920 C   0  0  0  0  0  0  0  0  0  0  0  0
  -11.4300   -1.7110  -22.9860 C   0  0  0  0  0  0  0  0  0  0  0  0
  -11.8930   -3.0210  -22.9200 C   0  0  0  0  0  0  0  0  0  0  0  0
  -11.0430   -4.0660  -23.2680 C   0  0  0  0  0  0  0  0  0  0  0  0
   -9.7360   -3.8100  -23.6690 C   0  0  0  0  0  0  0  0  0  0  0  0
   -9.0790   -4.6340  -23.9420 H   0  0  0  0  0  0  0  0  0  0  0  0
  -11.4040   -5.0860  -23.2320 H   0  0  0  0  0  0  0  0  0  0  0  0
  -12.9120   -3.2260  -22.6050 H   0  0  0  0  0  0  0  0  0  0  0  0
  -12.0850   -0.8860  -22.7200 H   0  0  0  0  0  0  0  0  0  0  0  0
   -9.7720   -0.4270  -23.4440 H   0  0  0  0  0  0  0  0  0  0  0  0
   -7.6270   -1.1620  -24.1580 H   0  0  0  0  0  0  0  0  0  0  0  0
   -7.6690   -2.6020  -25.1560 H   0  0  0  0  0  0  0  0  0  0  0  0
   -6.6600   -2.6540  -21.9540 C   0  0  0  0  0  0  0  0  0  0  0  0
   -5.9120   -3.3350  -21.2810 O   0  0  0  0  0  0  0  0  0  0  0  0
   -7.3910   -1.4620  -21.2900 C   0  0  0  0  0  0  0  0  0  0  0  0
   -6.5750   -0.8300  -20.1800 C   0  0  0  0  0  0  0  0  0  0  0  0
   -6.8730   -1.0470  -18.8590 C   0  0  0  0  0  0  0  0  0  0  0  0
   -6.1910   -0.5390  -17.7950 N   0  0  0  0  0  0  0  0  0  0  0  0
   -5.1580    0.2230  -18.0630 C   0  0  0  0  0  0  0  0  0  0  0  0
   -4.7210    0.5340  -19.3780 C   0  0  0  0  0  0  0  0  0  0  0  0
   -3.5940    1.3590  -19.6220 C   0  0  0  0  0  0  0  0  0  0  0  0
   -3.1940    1.6370  -20.9000 C   0  0  0  0  0  0  0  0  0  0  0  0
   -3.9080    1.0970  -21.9930 C   0  0  0  0  0  0  0  0  0  0  0  0
   -5.0040    0.2970  -21.7850 C   0  0  0  0  0  0  0  0  0  0  0  0
   -5.4460   -0.0070  -20.4730 C   0  0  0  0  0  0  0  0  0  0  0  0
   -5.5360   -0.1100  -22.6410 H   0  0  0  0  0  0  0  0  0  0  0  0
   -3.5880    1.3230  -23.0060 H   0  0  0  0  0  0  0  0  0  0  0  0
   -2.3320    2.2750  -21.0880 H   0  0  0  0  0  0  0  0  0  0  0  0
   -3.0550    1.7730  -18.7710 H   0  0  0  0  0  0  0  0  0  0  0  0
   -4.6020    0.6290  -17.2150 H   0  0  0  0  0  0  0  0  0  0  0  0
   -7.7220   -1.6720  -18.5860 H   0  0  0  0  0  0  0  0  0  0  0  0
   -7.6860   -0.6970  -22.0170 H   0  0  0  0  0  0  0  0  0  0  0  0
   -8.3240   -1.8500  -20.8580 H   0  0  0  0  0  0  0  0  0  0  0  0
   -5.2450   -3.7470  -24.9760 C   0  0  0  0  0  0  0  0  0  0  0  0
   -5.1600   -2.7370  -25.3550 H   0  0  0  0  0  0  0  0  0  0  0  0
   -6.8660   -5.5210  -22.5590 H   0  0  0  0  0  0  0  0  0  0  0  0
   -5.5220   -7.3280  -23.5810 H   0  0  0  0  0  0  0  0  0  0  0  0
   -4.0090   -6.8840  -25.4680 H   0  0  0  0  0  0  0  0  0  0  0  0
   -2.8190   -5.1010  -26.7470 H   0  0  0  0  0  0  0  0  0  0  0  0
   -1.7600   -3.3110  -28.1570 H   0  0  0  0  0  0  0  0  0  0  0  0
   -2.9100   -2.2710  -29.0000 H   0  0  0  0  0  0  0  0  0  0  0  0
   -2.6270   -5.2780  -29.5010 H   0  0  0  0  0  0  0  0  0  0  0  0
   -1.9920   -4.0080  -30.5590 H   0  0  0  0  0  0  0  0  0  0  0  0
   -3.7390   -4.1970  -30.3550 H   0  0  0  0  0  0  0  0  0  0  0  0
  1  2  1  0  0  0  0
  1 55  1  0  0  0  0
  1 56  1  0  0  0  0
  1 57  1  0  0  0  0
  2  3  1  0  0  0  0
  2 53  1  0  0  0  0
  2 54  1  0  0  0  0
  3  4  2  0  0  0  0
  3  5  1  0  0  0  0
  5  6  1  0  0  0  0
  5 52  1  0  0  0  0
  6  7  2  0  0  0  0
  6 47  1  0  0  0  0
  7  8  1  0  0  0  0
  7 51  1  0  0  0  0
  8  9  2  0  0  0  0
  8 50  1  0  0  0  0
  9 10  1  0  0  0  0
  9 49  1  0  0  0  0
 10 11  1  0  0  0  0
 10 47  2  0  0  0  0
 11 12  1  0  0  0  0
 11 26  1  0  0  0  0
 12 13  1  0  0  0  0
 12 24  1  0  0  0  0
 12 25  1  0  0  0  0
 13 14  2  0  0  0  0
 13 18  1  0  0  0  0
 14 15  1  0  0  0  0
 14 23  1  0  0  0  0
 15 16  2  0  0  0  0
 15 22  1  0  0  0  0
 16 17  1  0  0  0  0
 16 21  1  0  0  0  0
 17 18  2  0  0  0  0
 17 20  1  0  0  0  0
 18 19  1  0  0  0  0
 26 27  2  0  0  0  0
 26 28  1  0  0  0  0
 28 29  1  0  0  0  0
 28 45  1  0  0  0  0
 28 46  1  0  0  0  0
 29 30  2  0  0  0  0
 29 38  1  0  0  0  0
 30 31  1  0  0  0  0
 30 44  1  0  0  0  0
 31 32  2  0  0  0  0
 32 33  1  0  0  0  0
 32 43  1  0  0  0  0
 33 34  2  0  0  0  0
 33 38  1  0  0  0  0
 34 35  1  0  0  0  0
 34 42  1  0  0  0  0
 35 36  2  0  0  0  0
 35 41  1  0  0  0  0
 36 37  1  0  0  0  0
 36 40  1  0  0  0  0
 37 38  2  0  0  0  0
 37 39  1  0  0  0  0
 47 48  1  0  0  0  0
M  END
>  <MODEL>
       1

$$$$
