tmp_first_model_16_39.pdb
 OpenBabel08282501503D

 40 44  0  0  1  0  0  0  0  0999 V2000
   -7.2350    0.9270  -25.5990 C   0  0  0  0  0  0  0  0  0  0  0  0
   -6.5110   -0.3950  -25.4030 C   0  0  0  0  0  0  0  0  0  0  0  0
   -5.2980   -0.5060  -25.5200 O   0  0  0  0  0  0  0  0  0  0  0  0
   -7.2730   -1.4780  -25.0910 N   0  0  0  0  0  0  0  0  0  0  0  0
   -6.6370   -2.7690  -24.7440 C   0  0  0  0  0  0  0  0  0  0  0  0
   -7.8120   -3.4930  -24.0540 C   0  0  2  0  0  0  0  0  0  0  0  0
   -9.0080   -2.9640  -24.8640 C   0  0  0  0  0  0  0  0  0  0  0  0
   -8.6620   -1.4910  -24.5640 C   0  0  1  0  0  0  0  0  0  0  0  0
   -8.5680   -1.5510  -23.1000 C   0  0  0  0  0  0  0  0  0  0  0  0
   -8.1710   -0.6110  -22.0950 C   0  0  0  0  0  0  0  0  0  0  0  0
   -8.3540    0.5770  -21.9810 O   0  5  0  0  0  0  0  0  0  0  0  0
   -7.4050   -1.3880  -21.2020 N   0  0  0  0  0  0  0  0  0  0  0  0
   -6.5980   -0.8320  -20.1840 C   0  0  0  0  0  0  0  0  0  0  0  0
   -6.9230   -1.0980  -18.8810 C   0  0  0  0  0  0  0  0  0  0  0  0
   -6.1710   -0.7030  -17.8310 N   0  0  0  0  0  0  0  0  0  0  0  0
   -5.1010    0.0130  -18.0860 C   0  0  0  0  0  0  0  0  0  0  0  0
   -4.7090    0.4460  -19.3920 C   0  0  0  0  0  0  0  0  0  0  0  0
   -3.6010    1.3140  -19.6210 C   0  0  0  0  0  0  0  0  0  0  0  0
   -3.2040    1.6180  -20.8950 C   0  0  0  0  0  0  0  0  0  0  0  0
   -3.8950    1.0750  -22.0030 C   0  0  0  0  0  0  0  0  0  0  0  0
   -4.9900    0.2700  -21.8120 C   0  0  0  0  0  0  0  0  0  0  0  0
   -5.4510   -0.0300  -20.4930 C   0  0  0  0  0  0  0  0  0  0  0  0
   -5.4880   -0.1500  -22.6840 H   0  0  0  0  0  0  0  0  0  0  0  0
   -3.5550    1.2950  -23.0120 H   0  0  0  0  0  0  0  0  0  0  0  0
   -2.3410    2.2570  -21.0700 H   0  0  0  0  0  0  0  0  0  0  0  0
   -3.0890    1.7370  -18.7620 H   0  0  0  0  0  0  0  0  0  0  0  0
   -4.4840    0.2700  -17.2230 H   0  0  0  0  0  0  0  0  0  0  0  0
   -7.8100   -1.6890  -18.6520 H   0  0  0  0  0  0  0  0  0  0  0  0
   -7.2600   -2.7090  -21.6430 C   0  0  0  0  0  0  0  0  0  0  0  0
   -6.5460   -3.5560  -21.1660 O   0  0  0  0  0  0  0  0  0  0  0  0
   -8.0690   -2.7840  -22.7720 N   0  0  0  0  0  0  0  0  0  0  0  0
   -9.2780   -0.6920  -24.9790 H   0  0  0  0  0  0  0  0  0  0  0  0
   -9.9690   -3.2760  -24.4590 H   0  0  0  0  0  0  0  0  0  0  0  0
   -8.9290   -3.1940  -25.9280 H   0  0  0  0  0  0  0  0  0  0  0  0
   -7.6980   -4.5610  -23.9050 H   0  0  0  0  0  0  0  0  0  0  0  0
   -5.7930   -2.6170  -24.0590 H   0  0  0  0  0  0  0  0  0  0  0  0
   -6.2910   -3.2730  -25.6510 H   0  0  0  0  0  0  0  0  0  0  0  0
   -6.4850    1.6600  -25.9030 H   0  0  0  0  0  0  0  0  0  0  0  0
   -7.7200    1.2460  -24.6690 H   0  0  0  0  0  0  0  0  0  0  0  0
   -8.0170    0.8520  -26.3650 H   0  0  0  0  0  0  0  0  0  0  0  0
  1  2  1  0  0  0  0
  1 38  1  0  0  0  0
  1 39  1  0  0  0  0
  1 40  1  0  0  0  0
  2  3  2  0  0  0  0
  2  4  1  0  0  0  0
  4  5  1  0  0  0  0
  4  8  1  0  0  0  0
  5  6  1  0  0  0  0
  5 36  1  0  0  0  0
  5 37  1  0  0  0  0
  6  7  1  0  0  0  0
  6 31  1  0  0  0  0
  6 35  1  1  0  0  0
  7  8  1  0  0  0  0
  7 33  1  0  0  0  0
  7 34  1  0  0  0  0
  8  9  1  0  0  0  0
  8 32  1  6  0  0  0
  9 10  2  0  0  0  0
  9 31  1  0  0  0  0
 10 11  1  0  0  0  0
 10 12  1  0  0  0  0
 12 13  1  0  0  0  0
 12 29  1  0  0  0  0
 13 14  2  0  0  0  0
 13 22  1  0  0  0  0
 14 15  1  0  0  0  0
 14 28  1  0  0  0  0
 15 16  2  0  0  0  0
 16 17  1  0  0  0  0
 16 27  1  0  0  0  0
 17 18  2  0  0  0  0
 17 22  1  0  0  0  0
 18 19  1  0  0  0  0
 18 26  1  0  0  0  0
 19 20  2  0  0  0  0
 19 25  1  0  0  0  0
 20 21  1  0  0  0  0
 20 24  1  0  0  0  0
 21 22  2  0  0  0  0
 21 23  1  0  0  0  0
 29 30  2  0  0  0  0
 29 31  1  0  0  0  0
M  CHG  1  11  -1
M  END
>  <MODEL>
       1

$$$$
