tmp_first_model_12_28.pdb
 OpenBabel08272523333D

 64 68  0  0  1  0  0  0  0  0999 V2000
   -7.9500    2.5290  -21.9950 C   0  0  0  0  0  0  0  0  0  0  0  0
   -8.8240    2.1710  -23.1030 N   0  0  0  0  0  0  0  0  0  0  0  0
   -8.3620    1.5610  -24.2230 C   0  0  0  0  0  0  0  0  0  0  0  0
   -7.1690    1.4130  -24.4670 O   0  0  0  0  0  0  0  0  0  0  0  0
   -9.4700    0.9480  -25.1010 C   0  0  0  0  0  0  0  0  0  0  0  0
  -10.0880   -0.1280  -24.3470 N   0  0  0  0  0  0  0  0  0  0  0  0
   -9.2810   -1.3070  -24.1100 C   0  0  0  0  0  0  0  0  0  0  0  0
   -9.4400   -1.8860  -22.6780 C   0  0  2  0  0  0  0  0  0  0  0  0
   -8.8860   -0.9390  -21.5850 C   0  0  0  0  0  0  0  0  0  0  0  0
   -9.5110   -0.0660  -21.0100 O   0  0  0  0  0  0  0  0  0  0  0  0
   -7.5690   -1.2620  -21.3400 N   0  0  0  0  0  0  0  0  0  0  0  0
   -6.8170   -0.7110  -20.2620 C   0  0  0  0  0  0  0  0  0  0  0  0
   -7.1210   -1.0320  -18.9590 C   0  0  0  0  0  0  0  0  0  0  0  0
   -6.3930   -0.6300  -17.8890 N   0  0  0  0  0  0  0  0  0  0  0  0
   -5.3430    0.1260  -18.1070 C   0  0  0  0  0  0  0  0  0  0  0  0
   -4.9250    0.5530  -19.4010 C   0  0  0  0  0  0  0  0  0  0  0  0
   -3.8200    1.4280  -19.5920 C   0  0  0  0  0  0  0  0  0  0  0  0
   -3.4870    1.8550  -20.8490 C   0  0  0  0  0  0  0  0  0  0  0  0
   -4.2100    1.4010  -21.9720 C   0  0  0  0  0  0  0  0  0  0  0  0
   -5.2540    0.5160  -21.8140 C   0  0  0  0  0  0  0  0  0  0  0  0
   -5.6660    0.1030  -20.5190 C   0  0  0  0  0  0  0  0  0  0  0  0
   -5.7840    0.1430  -22.6850 H   0  0  0  0  0  0  0  0  0  0  0  0
   -3.9450    1.7500  -22.9660 H   0  0  0  0  0  0  0  0  0  0  0  0
   -2.6660    2.5510  -20.9920 H   0  0  0  0  0  0  0  0  0  0  0  0
   -3.2690    1.7640  -18.7170 H   0  0  0  0  0  0  0  0  0  0  0  0
   -4.7600    0.4400  -17.2390 H   0  0  0  0  0  0  0  0  0  0  0  0
   -7.9720   -1.6720  -18.7280 H   0  0  0  0  0  0  0  0  0  0  0  0
   -7.1490   -2.4710  -22.0290 C   0  0  0  0  0  0  0  0  0  0  0  0
   -8.4920   -3.1040  -22.4730 C   0  0  2  0  0  0  0  0  0  0  0  0
   -8.3760   -4.0180  -23.6890 C   0  0  0  0  0  0  0  0  0  0  0  0
   -7.3140   -5.4360  -23.4730 S   0  0  0  0  0  0  0  0  0  0  0  0
   -6.0250   -5.0010  -22.9550 O   0  0  0  0  0  0  0  0  0  0  0  0
   -7.3680   -6.1970  -24.7130 O   0  0  0  0  0  0  0  0  0  0  0  0
   -8.0690   -6.3080  -22.2460 N   0  0  0  0  0  0  0  0  0  0  0  0
   -7.3310   -7.5390  -21.9110 C   0  0  0  0  0  0  0  0  0  0  0  0
   -7.2240   -8.2310  -22.7580 H   0  0  0  0  0  0  0  0  0  0  0  0
   -7.8670   -8.0150  -21.0900 H   0  0  0  0  0  0  0  0  0  0  0  0
   -6.3310   -7.2710  -21.5700 H   0  0  0  0  0  0  0  0  0  0  0  0
   -9.0260   -6.5310  -22.5230 H   0  0  0  0  0  0  0  0  0  0  0  0
   -9.3580   -4.3840  -24.0140 H   0  0  0  0  0  0  0  0  0  0  0  0
   -7.9170   -3.4950  -24.5350 H   0  0  0  0  0  0  0  0  0  0  0  0
   -8.8640   -3.6890  -21.6230 H   0  0  0  0  0  0  0  0  0  0  0  0
   -6.5810   -3.1200  -21.3580 H   0  0  0  0  0  0  0  0  0  0  0  0
   -6.5130   -2.2270  -22.8940 H   0  0  0  0  0  0  0  0  0  0  0  0
  -10.9260   -2.0520  -22.4560 C   0  0  0  0  0  0  0  0  0  0  0  0
  -11.4720   -3.0850  -21.6930 C   0  0  0  0  0  0  0  0  0  0  0  0
  -12.7990   -3.0130  -21.3040 C   0  0  0  0  0  0  0  0  0  0  0  0
  -13.4710   -4.2240  -20.2680 Cl  0  0  0  0  0  0  0  0  0  0  0  0
  -13.6250   -1.9530  -21.6740 C   0  0  0  0  0  0  0  0  0  0  0  0
  -13.1000   -0.9430  -22.4480 C   0  0  0  0  0  0  0  0  0  0  0  0
  -11.7740   -1.0070  -22.8600 C   0  0  0  0  0  0  0  0  0  0  0  0
  -11.2830    0.0920  -23.7400 C   0  0  0  0  0  0  0  0  0  0  0  0
  -11.9100    1.1360  -23.8930 O   0  0  0  0  0  0  0  0  0  0  0  0
  -13.6900   -0.0740  -22.7230 H   0  0  0  0  0  0  0  0  0  0  0  0
  -14.6560   -1.9360  -21.3440 H   0  0  0  0  0  0  0  0  0  0  0  0
  -10.8620   -3.9130  -21.3500 H   0  0  0  0  0  0  0  0  0  0  0  0
   -8.2370   -1.0370  -24.2990 H   0  0  0  0  0  0  0  0  0  0  0  0
   -9.5790   -2.0700  -24.8380 H   0  0  0  0  0  0  0  0  0  0  0  0
  -10.2710    1.6550  -25.3350 H   0  0  0  0  0  0  0  0  0  0  0  0
   -9.0400    0.5450  -26.0240 H   0  0  0  0  0  0  0  0  0  0  0  0
   -9.8140    2.0970  -22.8990 H   0  0  0  0  0  0  0  0  0  0  0  0
   -8.0440    1.8050  -21.1710 H   0  0  0  0  0  0  0  0  0  0  0  0
   -6.9220    2.5390  -22.3590 H   0  0  0  0  0  0  0  0  0  0  0  0
   -8.1950    3.5290  -21.6320 H   0  0  0  0  0  0  0  0  0  0  0  0
  1  2  1  0  0  0  0
  1 62  1  0  0  0  0
  1 63  1  0  0  0  0
  1 64  1  0  0  0  0
  2  3  1  0  0  0  0
  2 61  1  0  0  0  0
  3  4  2  0  0  0  0
  3  5  1  0  0  0  0
  5  6  1  0  0  0  0
  5 59  1  0  0  0  0
  5 60  1  0  0  0  0
  6  7  1  0  0  0  0
  6 52  1  0  0  0  0
  7  8  1  0  0  0  0
  7 57  1  0  0  0  0
  7 58  1  0  0  0  0
  8  9  1  1  0  0  0
  8 29  1  0  0  0  0
  8 45  1  0  0  0  0
  9 10  2  0  0  0  0
  9 11  1  0  0  0  0
 11 12  1  0  0  0  0
 11 28  1  0  0  0  0
 12 13  2  0  0  0  0
 12 21  1  0  0  0  0
 13 14  1  0  0  0  0
 13 27  1  0  0  0  0
 14 15  2  0  0  0  0
 15 16  1  0  0  0  0
 15 26  1  0  0  0  0
 16 17  2  0  0  0  0
 16 21  1  0  0  0  0
 17 18  1  0  0  0  0
 17 25  1  0  0  0  0
 18 19  2  0  0  0  0
 18 24  1  0  0  0  0
 19 20  1  0  0  0  0
 19 23  1  0  0  0  0
 20 21  2  0  0  0  0
 20 22  1  0  0  0  0
 28 29  1  0  0  0  0
 28 43  1  0  0  0  0
 28 44  1  0  0  0  0
 29 30  1  0  0  0  0
 29 42  1  1  0  0  0
 30 31  1  0  0  0  0
 30 40  1  0  0  0  0
 30 41  1  0  0  0  0
 31 32  2  0  0  0  0
 31 33  2  0  0  0  0
 31 34  1  0  0  0  0
 34 35  1  0  0  0  0
 34 39  1  0  0  0  0
 35 36  1  0  0  0  0
 35 37  1  0  0  0  0
 35 38  1  0  0  0  0
 45 46  2  0  0  0  0
 45 51  1  0  0  0  0
 46 47  1  0  0  0  0
 46 56  1  0  0  0  0
 47 48  1  0  0  0  0
 47 49  2  0  0  0  0
 49 50  1  0  0  0  0
 49 55  1  0  0  0  0
 50 51  2  0  0  0  0
 50 54  1  0  0  0  0
 51 52  1  0  0  0  0
 52 53  2  0  0  0  0
M  END
>  <MODEL>
       1

$$$$
