tmp_first_model_8_64.pdb
 OpenBabel08272521063D

 55 60  0  0  1  0  0  0  0  0999 V2000
  -10.4030   -0.9810  -23.3950 C   0  0  0  0  0  0  0  0  0  0  0  0
   -8.9850   -1.3870  -22.9930 C   0  0  1  0  0  0  0  0  0  0  0  0
   -8.3950   -0.4840  -21.8970 C   0  0  0  0  0  0  0  0  0  0  0  0
   -7.4180   -1.3380  -21.2450 N   0  0  0  0  0  0  0  0  0  0  0  0
   -6.6030   -0.8680  -20.1880 C   0  0  0  0  0  0  0  0  0  0  0  0
   -6.8930   -1.1720  -18.8830 C   0  0  0  0  0  0  0  0  0  0  0  0
   -6.2280   -0.6510  -17.8210 N   0  0  0  0  0  0  0  0  0  0  0  0
   -5.2340    0.1700  -18.0640 C   0  0  0  0  0  0  0  0  0  0  0  0
   -4.8020    0.5370  -19.3700 C   0  0  0  0  0  0  0  0  0  0  0  0
   -3.6950    1.3990  -19.5980 C   0  0  0  0  0  0  0  0  0  0  0  0
   -3.3370    1.7380  -20.8750 C   0  0  0  0  0  0  0  0  0  0  0  0
   -4.0600    1.2310  -21.9780 C   0  0  0  0  0  0  0  0  0  0  0  0
   -5.1160    0.3760  -21.7840 C   0  0  0  0  0  0  0  0  0  0  0  0
   -5.5140    0.0140  -20.4710 C   0  0  0  0  0  0  0  0  0  0  0  0
   -5.6490   -0.0460  -22.6290 H   0  0  0  0  0  0  0  0  0  0  0  0
   -3.7590    1.4950  -22.9870 H   0  0  0  0  0  0  0  0  0  0  0  0
   -2.4900    2.3930  -21.0540 H   0  0  0  0  0  0  0  0  0  0  0  0
   -3.1440    1.7800  -18.7430 H   0  0  0  0  0  0  0  0  0  0  0  0
   -4.7100    0.5830  -17.2000 H   0  0  0  0  0  0  0  0  0  0  0  0
   -7.7070   -1.8530  -18.6430 H   0  0  0  0  0  0  0  0  0  0  0  0
   -7.6520   -2.6820  -21.4450 C   0  0  0  0  0  0  0  0  0  0  0  0
   -7.0220   -3.5690  -20.9050 O   0  0  0  0  0  0  0  0  0  0  0  0
   -8.8210   -2.8440  -22.4350 C   0  0  1  0  0  0  0  0  0  0  0  0
  -10.0630   -3.2790  -21.6210 C   0  0  0  0  0  0  0  0  0  0  0  0
  -11.1710   -3.7350  -22.4550 N   0  0  0  0  0  0  0  0  0  0  0  0
  -12.5540   -3.6210  -22.0060 C   0  0  0  0  0  0  0  0  0  0  0  0
  -13.3720   -2.5220  -22.6160 C   0  0  0  0  0  0  0  0  0  0  0  0
  -13.8840   -2.5950  -23.8800 N   0  0  0  0  0  0  0  0  0  0  0  0
  -14.6330   -1.5130  -23.9510 C   0  0  0  0  0  0  0  0  0  0  0  0
  -14.5680   -0.8330  -22.7990 N   0  0  0  0  0  0  0  0  0  0  0  0
  -13.7670   -1.4730  -21.9220 N   0  0  0  0  0  0  0  0  0  0  0  0
  -15.0530    0.0010  -22.5010 H   0  0  0  0  0  0  0  0  0  0  0  0
  -15.2180   -1.1860  -24.8010 H   0  0  0  0  0  0  0  0  0  0  0  0
  -12.5850   -3.4990  -20.9220 H   0  0  0  0  0  0  0  0  0  0  0  0
  -13.0630   -4.5390  -22.3110 H   0  0  0  0  0  0  0  0  0  0  0  0
  -10.9430   -4.5830  -23.5090 C   0  0  0  0  0  0  0  0  0  0  0  0
  -11.8550   -5.1750  -24.0680 O   0  0  0  0  0  0  0  0  0  0  0  0
   -9.5290   -4.7370  -23.9580 C   0  0  0  0  0  0  0  0  0  0  0  0
   -9.2580   -5.7250  -24.9060 C   0  0  0  0  0  0  0  0  0  0  0  0
   -7.9800   -5.9110  -25.3970 C   0  0  0  0  0  0  0  0  0  0  0  0
   -6.9820   -5.0670  -24.9320 C   0  0  0  0  0  0  0  0  0  0  0  0
   -5.7350   -5.2170  -25.4130 F   0  0  0  0  0  0  0  0  0  0  0  0
   -7.2200   -4.0880  -23.9860 C   0  0  0  0  0  0  0  0  0  0  0  0
   -8.5140   -3.9070  -23.4760 C   0  0  0  0  0  0  0  0  0  0  0  0
   -6.3810   -3.5040  -23.6260 H   0  0  0  0  0  0  0  0  0  0  0  0
   -7.7400   -6.6980  -26.1070 H   0  0  0  0  0  0  0  0  0  0  0  0
  -10.0730   -6.3550  -25.2440 H   0  0  0  0  0  0  0  0  0  0  0  0
   -9.7480   -4.0750  -20.9430 H   0  0  0  0  0  0  0  0  0  0  0  0
  -10.3890   -2.4320  -21.0080 H   0  0  0  0  0  0  0  0  0  0  0  0
   -7.9230    0.4180  -22.2990 H   0  0  0  0  0  0  0  0  0  0  0  0
   -9.1630   -0.1510  -21.1770 H   0  0  0  0  0  0  0  0  0  0  0  0
   -8.3260   -1.3350  -23.8700 H   0  0  0  0  0  0  0  0  0  0  0  0
  -11.0670   -0.9210  -22.5240 H   0  0  0  0  0  0  0  0  0  0  0  0
  -10.4120   -0.0010  -23.8820 H   0  0  0  0  0  0  0  0  0  0  0  0
  -10.8380   -1.7160  -24.0780 H   0  0  0  0  0  0  0  0  0  0  0  0
  1  2  1  0  0  0  0
  1 53  1  0  0  0  0
  1 54  1  0  0  0  0
  1 55  1  0  0  0  0
  2  3  1  0  0  0  0
  2 23  1  0  0  0  0
  2 52  1  6  0  0  0
  3  4  1  0  0  0  0
  3 50  1  0  0  0  0
  3 51  1  0  0  0  0
  4  5  1  0  0  0  0
  4 21  1  0  0  0  0
  5  6  2  0  0  0  0
  5 14  1  0  0  0  0
  6  7  1  0  0  0  0
  6 20  1  0  0  0  0
  7  8  2  0  0  0  0
  8  9  1  0  0  0  0
  8 19  1  0  0  0  0
  9 10  2  0  0  0  0
  9 14  1  0  0  0  0
 10 11  1  0  0  0  0
 10 18  1  0  0  0  0
 11 12  2  0  0  0  0
 11 17  1  0  0  0  0
 12 13  1  0  0  0  0
 12 16  1  0  0  0  0
 13 14  2  0  0  0  0
 13 15  1  0  0  0  0
 21 22  2  0  0  0  0
 23 21  1  1  0  0  0
 23 24  1  0  0  0  0
 23 44  1  0  0  0  0
 24 25  1  0  0  0  0
 24 48  1  0  0  0  0
 24 49  1  0  0  0  0
 25 26  1  0  0  0  0
 25 36  1  0  0  0  0
 26 27  1  0  0  0  0
 26 34  1  0  0  0  0
 26 35  1  0  0  0  0
 27 28  1  0  0  0  0
 27 31  2  0  0  0  0
 28 29  2  0  0  0  0
 29 30  1  0  0  0  0
 29 33  1  0  0  0  0
 30 31  1  0  0  0  0
 30 32  1  0  0  0  0
 36 37  2  0  0  0  0
 36 38  1  0  0  0  0
 38 39  2  0  0  0  0
 38 44  1  0  0  0  0
 39 40  1  0  0  0  0
 39 47  1  0  0  0  0
 40 41  2  0  0  0  0
 40 46  1  0  0  0  0
 41 42  1  0  0  0  0
 41 43  1  0  0  0  0
 43 44  2  0  0  0  0
 43 45  1  0  0  0  0
M  END
>  <MODEL>
       1

$$$$
