tmp_first_model_13_67.pdb
 OpenBabel08282500103D

 58 63  0  0  1  0  0  0  0  0999 V2000
  -15.0980    0.2740  -22.6740 C   0  0  0  0  0  0  0  0  0  0  0  0
  -14.3420   -1.0160  -22.7230 C   0  0  0  0  0  0  0  0  0  0  0  0
  -13.8160   -1.7940  -21.6550 C   0  0  0  0  0  0  0  0  0  0  0  0
  -13.1580   -2.7920  -22.2970 C   0  0  0  0  0  0  0  0  0  0  0  0
  -12.3650   -3.9890  -21.9050 C   0  0  0  0  0  0  0  0  0  0  0  0
  -11.0250   -3.9910  -22.4540 N   0  0  0  0  0  0  0  0  0  0  0  0
   -9.9580   -3.3840  -21.6800 C   0  0  0  0  0  0  0  0  0  0  0  0
   -8.7560   -2.8740  -22.5150 C   0  0  2  0  0  0  0  0  0  0  0  0
   -7.5750   -2.6900  -21.5310 C   0  0  0  0  0  0  0  0  0  0  0  0
   -6.9020   -3.5730  -21.0400 O   0  0  0  0  0  0  0  0  0  0  0  0
   -7.3720   -1.3440  -21.2970 N   0  0  0  0  0  0  0  0  0  0  0  0
   -6.5570   -0.8690  -20.2350 C   0  0  0  0  0  0  0  0  0  0  0  0
   -6.8630   -1.1380  -18.9240 C   0  0  0  0  0  0  0  0  0  0  0  0
   -6.2020   -0.6010  -17.8660 N   0  0  0  0  0  0  0  0  0  0  0  0
   -5.1990    0.2030  -18.1090 C   0  0  0  0  0  0  0  0  0  0  0  0
   -4.7440    0.5310  -19.4180 C   0  0  0  0  0  0  0  0  0  0  0  0
   -3.6260    1.3780  -19.6440 C   0  0  0  0  0  0  0  0  0  0  0  0
   -3.2150    1.6400  -20.9240 C   0  0  0  0  0  0  0  0  0  0  0  0
   -3.8970    1.0780  -22.0260 C   0  0  0  0  0  0  0  0  0  0  0  0
   -4.9860    0.2630  -21.8320 C   0  0  0  0  0  0  0  0  0  0  0  0
   -5.4380   -0.0220  -20.5180 C   0  0  0  0  0  0  0  0  0  0  0  0
   -5.5030   -0.1810  -22.6760 H   0  0  0  0  0  0  0  0  0  0  0  0
   -3.5630    1.2900  -23.0370 H   0  0  0  0  0  0  0  0  0  0  0  0
   -2.3670    2.2930  -21.1000 H   0  0  0  0  0  0  0  0  0  0  0  0
   -3.1170    1.8110  -18.7870 H   0  0  0  0  0  0  0  0  0  0  0  0
   -4.6800    0.6290  -17.2490 H   0  0  0  0  0  0  0  0  0  0  0  0
   -7.6830   -1.8060  -18.6700 H   0  0  0  0  0  0  0  0  0  0  0  0
   -8.3770   -0.5090  -21.9280 C   0  0  0  0  0  0  0  0  0  0  0  0
   -8.9280   -1.4050  -23.0490 C   0  0  2  0  0  0  0  0  0  0  0  0
  -10.3190   -0.9790  -23.4940 C   0  0  0  0  0  0  0  0  0  0  0  0
  -10.2930    0.0220  -23.9370 H   0  0  0  0  0  0  0  0  0  0  0  0
  -11.0080   -0.9440  -22.6450 H   0  0  0  0  0  0  0  0  0  0  0  0
  -10.7250   -1.6670  -24.2370 H   0  0  0  0  0  0  0  0  0  0  0  0
   -8.2510   -1.3200  -23.9080 H   0  0  0  0  0  0  0  0  0  0  0  0
   -7.9470    0.4310  -22.2960 H   0  0  0  0  0  0  0  0  0  0  0  0
   -9.1660   -0.2300  -21.2110 H   0  0  0  0  0  0  0  0  0  0  0  0
   -8.4260   -3.9180  -23.5750 C   0  0  0  0  0  0  0  0  0  0  0  0
   -7.1290   -4.0510  -24.0970 C   0  0  0  0  0  0  0  0  0  0  0  0
   -6.8640   -5.0420  -25.0260 C   0  0  0  0  0  0  0  0  0  0  0  0
   -5.6040   -5.2000  -25.4670 F   0  0  0  0  0  0  0  0  0  0  0  0
   -7.8490   -5.8920  -25.5210 C   0  0  0  0  0  0  0  0  0  0  0  0
   -9.1360   -5.7270  -25.0520 C   0  0  0  0  0  0  0  0  0  0  0  0
   -9.4160   -4.7750  -24.0730 C   0  0  0  0  0  0  0  0  0  0  0  0
  -10.8180   -4.7360  -23.5800 C   0  0  0  0  0  0  0  0  0  0  0  0
  -11.7100   -5.3530  -24.1420 O   0  0  0  0  0  0  0  0  0  0  0  0
   -9.9610   -6.3330  -25.4150 H   0  0  0  0  0  0  0  0  0  0  0  0
   -7.5950   -6.6530  -26.2520 H   0  0  0  0  0  0  0  0  0  0  0  0
   -6.3120   -3.4170  -23.7630 H   0  0  0  0  0  0  0  0  0  0  0  0
   -9.5690   -4.1110  -20.9630 H   0  0  0  0  0  0  0  0  0  0  0  0
  -10.4020   -2.5610  -21.1100 H   0  0  0  0  0  0  0  0  0  0  0  0
  -12.8660   -4.8360  -22.3680 H   0  0  0  0  0  0  0  0  0  0  0  0
  -12.3390   -4.1070  -20.8210 H   0  0  0  0  0  0  0  0  0  0  0  0
  -13.3140   -2.6690  -23.6230 O   0  0  0  0  0  0  0  0  0  0  0  0
  -14.0790   -1.5560  -23.8870 N   0  0  0  0  0  0  0  0  0  0  0  0
  -13.9700   -1.6370  -20.5960 H   0  0  0  0  0  0  0  0  0  0  0  0
  -15.9930    0.1360  -23.2560 H   0  0  0  0  0  0  0  0  0  0  0  0
  -14.5130    1.1100  -23.0820 H   0  0  0  0  0  0  0  0  0  0  0  0
  -15.4520    0.5350  -21.6840 H   0  0  0  0  0  0  0  0  0  0  0  0
  1  2  1  0  0  0  0
  1 56  1  0  0  0  0
  1 57  1  0  0  0  0
  1 58  1  0  0  0  0
  2  3  1  0  0  0  0
  2 54  2  0  0  0  0
  3  4  2  0  0  0  0
  3 55  1  0  0  0  0
  4  5  1  0  0  0  0
  4 53  1  0  0  0  0
  5  6  1  0  0  0  0
  5 51  1  0  0  0  0
  5 52  1  0  0  0  0
  6  7  1  0  0  0  0
  6 44  1  0  0  0  0
  7  8  1  0  0  0  0
  7 49  1  0  0  0  0
  7 50  1  0  0  0  0
  8  9  1  1  0  0  0
  8 29  1  0  0  0  0
  8 37  1  0  0  0  0
  9 10  2  0  0  0  0
  9 11  1  0  0  0  0
 11 12  1  0  0  0  0
 11 28  1  0  0  0  0
 12 13  2  0  0  0  0
 12 21  1  0  0  0  0
 13 14  1  0  0  0  0
 13 27  1  0  0  0  0
 14 15  2  0  0  0  0
 15 16  1  0  0  0  0
 15 26  1  0  0  0  0
 16 17  2  0  0  0  0
 16 21  1  0  0  0  0
 17 18  1  0  0  0  0
 17 25  1  0  0  0  0
 18 19  2  0  0  0  0
 18 24  1  0  0  0  0
 19 20  1  0  0  0  0
 19 23  1  0  0  0  0
 20 21  2  0  0  0  0
 20 22  1  0  0  0  0
 28 29  1  0  0  0  0
 28 35  1  0  0  0  0
 28 36  1  0  0  0  0
 29 30  1  0  0  0  0
 29 34  1  6  0  0  0
 30 31  1  0  0  0  0
 30 32  1  0  0  0  0
 30 33  1  0  0  0  0
 37 38  2  0  0  0  0
 37 43  1  0  0  0  0
 38 39  1  0  0  0  0
 38 48  1  0  0  0  0
 39 40  1  0  0  0  0
 39 41  2  0  0  0  0
 41 42  1  0  0  0  0
 41 47  1  0  0  0  0
 42 43  2  0  0  0  0
 42 46  1  0  0  0  0
 43 44  1  0  0  0  0
 44 45  2  0  0  0  0
 53 54  1  0  0  0  0
M  END
>  <MODEL>
       1

$$$$
