tmp_first_model_2_50.pdb
 OpenBabel08272517383D

 66 70  0  0  1  0  0  0  0  0999 V2000
   -7.4440    3.3510  -21.8190 C   0  0  0  0  0  0  0  0  0  0  0  0
   -8.3570    2.8840  -22.8460 N   0  0  0  0  0  0  0  0  0  0  0  0
   -7.8400    2.1580  -23.8640 C   0  0  0  0  0  0  0  0  0  0  0  0
   -6.6310    2.0150  -24.0120 O   0  0  0  0  0  0  0  0  0  0  0  0
   -8.8460    1.5410  -24.8450 C   0  0  0  0  0  0  0  0  0  0  0  0
   -9.5420    0.3800  -24.3190 N   0  0  0  0  0  0  0  0  0  0  0  0
   -8.8110   -0.8650  -24.1760 C   0  0  0  0  0  0  0  0  0  0  0  0
   -9.1300   -1.5710  -22.8320 C   0  0  2  0  0  0  0  0  0  0  0  0
   -8.5440   -0.7500  -21.6500 C   0  0  0  0  0  0  0  0  0  0  0  0
   -8.9810    0.2780  -21.1800 O   0  0  0  0  0  0  0  0  0  0  0  0
   -7.4060   -1.3840  -21.2000 N   0  0  0  0  0  0  0  0  0  0  0  0
   -6.6080   -0.8080  -20.1730 C   0  0  0  0  0  0  0  0  0  0  0  0
   -6.9110   -1.0390  -18.8550 C   0  0  0  0  0  0  0  0  0  0  0  0
   -6.2060   -0.5460  -17.8060 N   0  0  0  0  0  0  0  0  0  0  0  0
   -5.1690    0.2090  -18.0760 C   0  0  0  0  0  0  0  0  0  0  0  0
   -4.7310    0.5290  -19.3920 C   0  0  0  0  0  0  0  0  0  0  0  0
   -3.6030    1.3610  -19.6400 C   0  0  0  0  0  0  0  0  0  0  0  0
   -3.2150    1.6490  -20.9190 C   0  0  0  0  0  0  0  0  0  0  0  0
   -3.9390    1.1200  -22.0130 C   0  0  0  0  0  0  0  0  0  0  0  0
   -5.0330    0.3150  -21.7990 C   0  0  0  0  0  0  0  0  0  0  0  0
   -5.4660    0.0010  -20.4840 C   0  0  0  0  0  0  0  0  0  0  0  0
   -5.5920   -0.0690  -22.6480 H   0  0  0  0  0  0  0  0  0  0  0  0
   -3.6430    1.3600  -23.0280 H   0  0  0  0  0  0  0  0  0  0  0  0
   -2.3610    2.2950  -21.1020 H   0  0  0  0  0  0  0  0  0  0  0  0
   -3.0720    1.7710  -18.7840 H   0  0  0  0  0  0  0  0  0  0  0  0
   -4.6200    0.6140  -17.2250 H   0  0  0  0  0  0  0  0  0  0  0  0
   -7.7600   -1.6670  -18.5950 H   0  0  0  0  0  0  0  0  0  0  0  0
   -7.0780   -2.6080  -21.9090 C   0  0  0  0  0  0  0  0  0  0  0  0
   -8.3680   -2.9290  -22.6960 C   0  0  2  0  0  0  0  0  0  0  0  0
   -8.0850   -3.6770  -23.9990 C   0  0  0  0  0  0  0  0  0  0  0  0
   -7.4690   -4.9190  -23.7050 O   0  0  0  0  0  0  0  0  0  0  0  0
   -7.3040   -5.7630  -24.8490 C   0  0  0  0  0  0  0  0  0  0  0  0
   -8.4380   -6.7870  -24.9230 C   0  0  0  0  0  0  0  0  0  0  0  0
   -8.4350   -7.4110  -24.0240 H   0  0  0  0  0  0  0  0  0  0  0  0
   -8.3150   -7.4370  -25.7970 H   0  0  0  0  0  0  0  0  0  0  0  0
   -9.4150   -6.2960  -25.0000 H   0  0  0  0  0  0  0  0  0  0  0  0
   -5.9400   -6.4430  -24.7570 C   0  0  0  0  0  0  0  0  0  0  0  0
   -5.8880   -7.0670  -23.8600 H   0  0  0  0  0  0  0  0  0  0  0  0
   -5.7720   -7.0810  -25.6340 H   0  0  0  0  0  0  0  0  0  0  0  0
   -5.1410   -5.6970  -24.7140 H   0  0  0  0  0  0  0  0  0  0  0  0
   -7.3290   -5.1340  -25.7570 H   0  0  0  0  0  0  0  0  0  0  0  0
   -9.0190   -3.8340  -24.5640 H   0  0  0  0  0  0  0  0  0  0  0  0
   -7.4130   -3.0840  -24.6450 H   0  0  0  0  0  0  0  0  0  0  0  0
   -8.9780   -3.5940  -22.0830 H   0  0  0  0  0  0  0  0  0  0  0  0
   -6.8050   -3.4000  -21.2030 H   0  0  0  0  0  0  0  0  0  0  0  0
   -6.2180   -2.4620  -22.5810 H   0  0  0  0  0  0  0  0  0  0  0  0
  -10.6440   -1.6340  -22.7020 C   0  0  0  0  0  0  0  0  0  0  0  0
  -11.2340   -2.5360  -21.8140 C   0  0  0  0  0  0  0  0  0  0  0  0
  -12.6060   -2.5530  -21.6640 C   0  0  0  0  0  0  0  0  0  0  0  0
  -13.1560   -3.4070  -20.7860 F   0  0  0  0  0  0  0  0  0  0  0  0
  -13.4440   -1.6910  -22.3610 C   0  0  0  0  0  0  0  0  0  0  0  0
  -12.8630   -0.7630  -23.2010 C   0  0  0  0  0  0  0  0  0  0  0  0
  -11.4760   -0.7080  -23.3520 C   0  0  0  0  0  0  0  0  0  0  0  0
  -10.9000    0.4240  -24.1480 C   0  0  0  0  0  0  0  0  0  0  0  0
  -11.5960    1.3320  -24.5780 O   0  0  0  0  0  0  0  0  0  0  0  0
  -13.4570   -0.0360  -23.7440 H   0  0  0  0  0  0  0  0  0  0  0  0
  -14.5150   -1.7430  -22.2050 H   0  0  0  0  0  0  0  0  0  0  0  0
  -10.6360   -3.2030  -21.2060 H   0  0  0  0  0  0  0  0  0  0  0  0
   -9.0500   -1.5490  -25.0070 H   0  0  0  0  0  0  0  0  0  0  0  0
   -7.7480   -0.6120  -24.2170 H   0  0  0  0  0  0  0  0  0  0  0  0
   -8.2540    1.2740  -25.7280 H   0  0  0  0  0  0  0  0  0  0  0  0
   -9.6310    2.2440  -25.1380 H   0  0  0  0  0  0  0  0  0  0  0  0
   -9.3530    2.8460  -22.6660 H   0  0  0  0  0  0  0  0  0  0  0  0
   -8.0220    3.8300  -21.0300 H   0  0  0  0  0  0  0  0  0  0  0  0
   -6.8540    2.5050  -21.4280 H   0  0  0  0  0  0  0  0  0  0  0  0
   -6.7450    4.0920  -22.2270 H   0  0  0  0  0  0  0  0  0  0  0  0
  1  2  1  0  0  0  0
  1 64  1  0  0  0  0
  1 65  1  0  0  0  0
  1 66  1  0  0  0  0
  2  3  1  0  0  0  0
  2 63  1  0  0  0  0
  3  4  2  0  0  0  0
  3  5  1  0  0  0  0
  5  6  1  0  0  0  0
  5 61  1  0  0  0  0
  5 62  1  0  0  0  0
  6  7  1  0  0  0  0
  6 54  1  0  0  0  0
  7  8  1  0  0  0  0
  7 59  1  0  0  0  0
  7 60  1  0  0  0  0
  8  9  1  1  0  0  0
  8 29  1  0  0  0  0
  8 47  1  0  0  0  0
  9 10  2  0  0  0  0
  9 11  1  0  0  0  0
 11 12  1  0  0  0  0
 11 28  1  0  0  0  0
 12 13  2  0  0  0  0
 12 21  1  0  0  0  0
 13 14  1  0  0  0  0
 13 27  1  0  0  0  0
 14 15  2  0  0  0  0
 15 16  1  0  0  0  0
 15 26  1  0  0  0  0
 16 17  2  0  0  0  0
 16 21  1  0  0  0  0
 17 18  1  0  0  0  0
 17 25  1  0  0  0  0
 18 19  2  0  0  0  0
 18 24  1  0  0  0  0
 19 20  1  0  0  0  0
 19 23  1  0  0  0  0
 20 21  2  0  0  0  0
 20 22  1  0  0  0  0
 28 29  1  0  0  0  0
 28 45  1  0  0  0  0
 28 46  1  0  0  0  0
 29 30  1  0  0  0  0
 29 44  1  1  0  0  0
 30 31  1  0  0  0  0
 30 42  1  0  0  0  0
 30 43  1  0  0  0  0
 31 32  1  0  0  0  0
 32 33  1  0  0  0  0
 32 37  1  0  0  0  0
 32 41  1  0  0  0  0
 33 34  1  0  0  0  0
 33 35  1  0  0  0  0
 33 36  1  0  0  0  0
 37 38  1  0  0  0  0
 37 39  1  0  0  0  0
 37 40  1  0  0  0  0
 47 48  2  0  0  0  0
 47 53  1  0  0  0  0
 48 49  1  0  0  0  0
 48 58  1  0  0  0  0
 49 50  1  0  0  0  0
 49 51  2  0  0  0  0
 51 52  1  0  0  0  0
 51 57  1  0  0  0  0
 52 53  2  0  0  0  0
 52 56  1  0  0  0  0
 53 54  1  0  0  0  0
 54 55  2  0  0  0  0
M  END
>  <MODEL>
       1

$$$$
