tmp_first_model_13_36.pdb
 OpenBabel08282500103D

 47 50  0  0  1  0  0  0  0  0999 V2000
   -6.0890   -3.4680  -21.2140 O   0  0  0  0  0  0  0  0  0  0  0  0
   -6.6470   -2.6600  -21.9360 C   0  0  0  0  0  0  0  0  0  0  0  0
   -7.3870   -1.4620  -21.2920 C   0  0  0  0  0  0  0  0  0  0  0  0
   -6.5770   -0.8240  -20.1820 C   0  0  0  0  0  0  0  0  0  0  0  0
   -6.8710   -1.0460  -18.8610 C   0  0  0  0  0  0  0  0  0  0  0  0
   -6.1820   -0.5380  -17.8040 N   0  0  0  0  0  0  0  0  0  0  0  0
   -5.1540    0.2250  -18.0680 C   0  0  0  0  0  0  0  0  0  0  0  0
   -4.7190    0.5360  -19.3830 C   0  0  0  0  0  0  0  0  0  0  0  0
   -3.5900    1.3600  -19.6230 C   0  0  0  0  0  0  0  0  0  0  0  0
   -3.1920    1.6370  -20.9020 C   0  0  0  0  0  0  0  0  0  0  0  0
   -3.9090    1.0960  -21.9930 C   0  0  0  0  0  0  0  0  0  0  0  0
   -5.0050    0.2970  -21.7880 C   0  0  0  0  0  0  0  0  0  0  0  0
   -5.4470   -0.0030  -20.4730 C   0  0  0  0  0  0  0  0  0  0  0  0
   -5.5370   -0.1110  -22.6420 H   0  0  0  0  0  0  0  0  0  0  0  0
   -3.5920    1.3210  -23.0060 H   0  0  0  0  0  0  0  0  0  0  0  0
   -2.3330    2.2770  -21.0880 H   0  0  0  0  0  0  0  0  0  0  0  0
   -3.0550    1.7710  -18.7710 H   0  0  0  0  0  0  0  0  0  0  0  0
   -4.6020    0.6280  -17.2150 H   0  0  0  0  0  0  0  0  0  0  0  0
   -7.7190   -1.6690  -18.5820 H   0  0  0  0  0  0  0  0  0  0  0  0
   -8.3130   -1.8620  -20.8610 H   0  0  0  0  0  0  0  0  0  0  0  0
   -7.6900   -0.7090  -22.0280 H   0  0  0  0  0  0  0  0  0  0  0  0
   -6.6110   -2.7880  -23.3140 N   0  0  0  0  0  0  0  0  0  0  0  0
   -5.5560   -3.6030  -23.9120 C   0  0  0  0  0  0  0  0  0  0  0  0
   -6.0970   -4.6260  -24.9090 C   0  0  0  0  0  0  0  0  0  0  0  0
   -7.0960   -4.0160  -25.9090 C   0  0  0  0  0  0  0  0  0  0  0  0
   -7.2810   -2.5180  -25.6780 C   0  0  0  0  0  0  0  0  0  0  0  0
   -7.5710   -2.1520  -24.2130 C   0  0  1  0  0  0  0  0  0  0  0  0
   -9.0170   -2.4570  -23.8360 C   0  0  0  0  0  0  0  0  0  0  0  0
   -9.4040   -3.7240  -23.4000 C   0  0  0  0  0  0  0  0  0  0  0  0
  -10.7320   -3.9930  -23.0900 C   0  0  0  0  0  0  0  0  0  0  0  0
  -11.7020   -3.0050  -23.2250 C   0  0  0  0  0  0  0  0  0  0  0  0
  -11.3330   -1.7450  -23.6860 C   0  0  0  0  0  0  0  0  0  0  0  0
  -10.0000   -1.4780  -23.9940 C   0  0  0  0  0  0  0  0  0  0  0  0
   -9.7320   -0.4910  -24.3660 H   0  0  0  0  0  0  0  0  0  0  0  0
  -12.0840   -0.9690  -23.8000 H   0  0  0  0  0  0  0  0  0  0  0  0
  -12.7370   -3.2200  -22.9740 H   0  0  0  0  0  0  0  0  0  0  0  0
  -11.0090   -4.9800  -22.7340 H   0  0  0  0  0  0  0  0  0  0  0  0
   -8.6600   -4.5080  -23.2920 H   0  0  0  0  0  0  0  0  0  0  0  0
   -7.4410   -1.0640  -24.1370 H   0  0  0  0  0  0  0  0  0  0  0  0
   -6.4030   -1.9660  -26.0310 H   0  0  0  0  0  0  0  0  0  0  0  0
   -8.1080   -2.1560  -26.2920 H   0  0  0  0  0  0  0  0  0  0  0  0
   -8.0670   -4.5160  -25.8220 H   0  0  0  0  0  0  0  0  0  0  0  0
   -6.7650   -4.1820  -26.9400 H   0  0  0  0  0  0  0  0  0  0  0  0
   -5.2520   -5.0740  -25.4390 H   0  0  0  0  0  0  0  0  0  0  0  0
   -6.5710   -5.4440  -24.3600 H   0  0  0  0  0  0  0  0  0  0  0  0
   -4.8310   -2.9440  -24.4100 H   0  0  0  0  0  0  0  0  0  0  0  0
   -5.0290   -4.0990  -23.1010 H   0  0  0  0  0  0  0  0  0  0  0  0
  1  2  2  0  0  0  0
  2  3  1  0  0  0  0
  2 22  1  0  0  0  0
  3  4  1  0  0  0  0
  3 20  1  0  0  0  0
  3 21  1  0  0  0  0
  4  5  2  0  0  0  0
  4 13  1  0  0  0  0
  5  6  1  0  0  0  0
  5 19  1  0  0  0  0
  6  7  2  0  0  0  0
  7  8  1  0  0  0  0
  7 18  1  0  0  0  0
  8  9  2  0  0  0  0
  8 13  1  0  0  0  0
  9 10  1  0  0  0  0
  9 17  1  0  0  0  0
 10 11  2  0  0  0  0
 10 16  1  0  0  0  0
 11 12  1  0  0  0  0
 11 15  1  0  0  0  0
 12 13  2  0  0  0  0
 12 14  1  0  0  0  0
 22 23  1  0  0  0  0
 22 27  1  0  0  0  0
 23 24  1  0  0  0  0
 23 46  1  0  0  0  0
 23 47  1  0  0  0  0
 24 25  1  0  0  0  0
 24 44  1  0  0  0  0
 24 45  1  0  0  0  0
 25 26  1  0  0  0  0
 25 42  1  0  0  0  0
 25 43  1  0  0  0  0
 26 27  1  0  0  0  0
 26 40  1  0  0  0  0
 26 41  1  0  0  0  0
 27 28  1  0  0  0  0
 27 39  1  1  0  0  0
 28 29  2  0  0  0  0
 28 33  1  0  0  0  0
 29 30  1  0  0  0  0
 29 38  1  0  0  0  0
 30 31  2  0  0  0  0
 30 37  1  0  0  0  0
 31 32  1  0  0  0  0
 31 36  1  0  0  0  0
 32 33  2  0  0  0  0
 32 35  1  0  0  0  0
 33 34  1  0  0  0  0
M  END
>  <MODEL>
       1

$$$$
