tmp_first_model_16_6.pdb
 OpenBabel08282501503D

 43 45  0  0  0  0  0  0  0  0999 V2000
  -13.1970   -3.1670  -24.9640 C   0  0  0  0  0  0  0  0  0  0  0  0
  -11.6680   -3.2010  -24.8940 C   0  0  0  0  0  0  0  0  0  0  0  0
  -11.0170   -1.8140  -25.0580 C   0  0  0  0  0  0  0  0  0  0  0  0
  -11.3920   -0.8560  -23.9010 C   0  0  0  0  0  0  0  0  0  0  0  0
  -10.2250    0.0410  -23.4770 C   0  0  0  0  0  0  0  0  0  0  0  0
   -9.0920   -0.7770  -23.0560 N   0  0  0  0  0  0  0  0  0  0  0  0
   -8.4220   -0.4000  -21.9270 C   0  0  0  0  0  0  0  0  0  0  0  0
   -8.6280    0.6760  -21.3810 O   0  0  0  0  0  0  0  0  0  0  0  0
   -7.4460   -1.4120  -21.3150 C   0  0  0  0  0  0  0  0  0  0  0  0
   -6.6060   -0.8260  -20.2160 C   0  0  0  0  0  0  0  0  0  0  0  0
   -6.9200   -1.0760  -18.9060 C   0  0  0  0  0  0  0  0  0  0  0  0
   -6.1760   -0.6940  -17.8360 N   0  0  0  0  0  0  0  0  0  0  0  0
   -5.1020    0.0180  -18.0790 C   0  0  0  0  0  0  0  0  0  0  0  0
   -4.7090    0.4520  -19.3820 C   0  0  0  0  0  0  0  0  0  0  0  0
   -3.6070    1.3220  -19.6100 C   0  0  0  0  0  0  0  0  0  0  0  0
   -3.2300    1.6450  -20.8870 C   0  0  0  0  0  0  0  0  0  0  0  0
   -3.9420    1.1310  -21.9930 C   0  0  0  0  0  0  0  0  0  0  0  0
   -5.0360    0.3270  -21.7960 C   0  0  0  0  0  0  0  0  0  0  0  0
   -5.4640   -0.0150  -20.4850 C   0  0  0  0  0  0  0  0  0  0  0  0
   -5.5810   -0.0620  -22.6490 H   0  0  0  0  0  0  0  0  0  0  0  0
   -3.6150    1.3700  -23.0010 H   0  0  0  0  0  0  0  0  0  0  0  0
   -2.3700    2.2850  -21.0620 H   0  0  0  0  0  0  0  0  0  0  0  0
   -3.0870    1.7350  -18.7490 H   0  0  0  0  0  0  0  0  0  0  0  0
   -4.4810    0.2770  -17.2160 H   0  0  0  0  0  0  0  0  0  0  0  0
   -7.8060   -1.6630  -18.6530 H   0  0  0  0  0  0  0  0  0  0  0  0
   -6.8200   -1.8900  -22.0800 H   0  0  0  0  0  0  0  0  0  0  0  0
   -8.0520   -2.2150  -20.8760 H   0  0  0  0  0  0  0  0  0  0  0  0
   -8.7320   -1.9330  -23.8720 C   0  0  0  0  0  0  0  0  0  0  0  0
   -9.4850   -1.9050  -25.2060 C   0  0  0  0  0  0  0  0  0  0  0  0
   -9.2300   -2.8130  -25.7640 H   0  0  0  0  0  0  0  0  0  0  0  0
   -9.1280   -1.0460  -25.7960 H   0  0  0  0  0  0  0  0  0  0  0  0
   -7.6560   -1.9060  -24.0950 H   0  0  0  0  0  0  0  0  0  0  0  0
   -8.9380   -2.8750  -23.3360 H   0  0  0  0  0  0  0  0  0  0  0  0
  -10.4840    0.6670  -22.6220 H   0  0  0  0  0  0  0  0  0  0  0  0
   -9.9180    0.7090  -24.2990 H   0  0  0  0  0  0  0  0  0  0  0  0
  -11.7050   -1.4520  -23.0280 H   0  0  0  0  0  0  0  0  0  0  0  0
  -12.2440   -0.2270  -24.1950 H   0  0  0  0  0  0  0  0  0  0  0  0
  -11.4000   -1.3850  -25.9950 H   0  0  0  0  0  0  0  0  0  0  0  0
  -11.2790   -3.8580  -25.6830 H   0  0  0  0  0  0  0  0  0  0  0  0
  -11.3300   -3.6390  -23.9410 H   0  0  0  0  0  0  0  0  0  0  0  0
  -13.6300   -2.5690  -24.1550 H   0  0  0  0  0  0  0  0  0  0  0  0
  -13.6230   -4.1720  -24.8930 H   0  0  0  0  0  0  0  0  0  0  0  0
  -13.5390   -2.7310  -25.9110 H   0  0  0  0  0  0  0  0  0  0  0  0
  1  2  1  0  0  0  0
  1 41  1  0  0  0  0
  1 42  1  0  0  0  0
  1 43  1  0  0  0  0
  2  3  1  0  0  0  0
  2 39  1  0  0  0  0
  2 40  1  0  0  0  0
  3  4  1  0  0  0  0
  3 29  1  0  0  0  0
  3 38  1  0  0  0  0
  4  5  1  0  0  0  0
  4 36  1  0  0  0  0
  4 37  1  0  0  0  0
  5  6  1  0  0  0  0
  5 34  1  0  0  0  0
  5 35  1  0  0  0  0
  6  7  1  0  0  0  0
  6 28  1  0  0  0  0
  7  8  2  0  0  0  0
  7  9  1  0  0  0  0
  9 10  1  0  0  0  0
  9 26  1  0  0  0  0
  9 27  1  0  0  0  0
 10 11  2  0  0  0  0
 10 19  1  0  0  0  0
 11 12  1  0  0  0  0
 11 25  1  0  0  0  0
 12 13  2  0  0  0  0
 13 14  1  0  0  0  0
 13 24  1  0  0  0  0
 14 15  2  0  0  0  0
 14 19  1  0  0  0  0
 15 16  1  0  0  0  0
 15 23  1  0  0  0  0
 16 17  2  0  0  0  0
 16 22  1  0  0  0  0
 17 18  1  0  0  0  0
 17 21  1  0  0  0  0
 18 19  2  0  0  0  0
 18 20  1  0  0  0  0
 28 29  1  0  0  0  0
 28 32  1  0  0  0  0
 28 33  1  0  0  0  0
 29 30  1  0  0  0  0
 29 31  1  0  0  0  0
M  END
>  <MODEL>
       1

$$$$
