tmp_first_model_12_6.pdb
 OpenBabel08272523333D

 43 45  0  0  0  0  0  0  0  0999 V2000
  -10.4060   -6.7680  -25.6790 C   0  0  0  0  0  0  0  0  0  0  0  0
   -9.2110   -6.8130  -24.7300 C   0  0  0  0  0  0  0  0  0  0  0  0
   -9.2510   -5.7690  -23.6050 C   0  0  0  0  0  0  0  0  0  0  0  0
   -9.2340   -4.2960  -24.0630 C   0  0  0  0  0  0  0  0  0  0  0  0
   -8.9130   -3.4020  -22.8670 C   0  0  0  0  0  0  0  0  0  0  0  0
   -7.5930   -3.7110  -22.3120 N   0  0  0  0  0  0  0  0  0  0  0  0
   -6.7450   -2.8120  -21.7240 C   0  0  0  0  0  0  0  0  0  0  0  0
   -5.5570   -3.0410  -21.5620 O   0  0  0  0  0  0  0  0  0  0  0  0
   -7.3920   -1.5050  -21.2570 C   0  0  0  0  0  0  0  0  0  0  0  0
   -6.6150   -0.8090  -20.1770 C   0  0  0  0  0  0  0  0  0  0  0  0
   -6.8990   -1.0640  -18.8600 C   0  0  0  0  0  0  0  0  0  0  0  0
   -6.2100   -0.5860  -17.7910 N   0  0  0  0  0  0  0  0  0  0  0  0
   -5.1990    0.2120  -18.0500 C   0  0  0  0  0  0  0  0  0  0  0  0
   -4.7980    0.5790  -19.3640 C   0  0  0  0  0  0  0  0  0  0  0  0
   -3.6620    1.3980  -19.5870 C   0  0  0  0  0  0  0  0  0  0  0  0
   -3.2990    1.7460  -20.8610 C   0  0  0  0  0  0  0  0  0  0  0  0
   -4.0720    1.3110  -21.9640 C   0  0  0  0  0  0  0  0  0  0  0  0
   -5.1450    0.4700  -21.7730 C   0  0  0  0  0  0  0  0  0  0  0  0
   -5.5260    0.0700  -20.4630 C   0  0  0  0  0  0  0  0  0  0  0  0
   -5.7020    0.1020  -22.6300 H   0  0  0  0  0  0  0  0  0  0  0  0
   -3.8070    1.6430  -22.9670 H   0  0  0  0  0  0  0  0  0  0  0  0
   -2.4140    2.3550  -21.0340 H   0  0  0  0  0  0  0  0  0  0  0  0
   -3.0790    1.7110  -18.7230 H   0  0  0  0  0  0  0  0  0  0  0  0
   -4.6270    0.6000  -17.2060 H   0  0  0  0  0  0  0  0  0  0  0  0
   -7.7400   -1.7100  -18.5970 H   0  0  0  0  0  0  0  0  0  0  0  0
   -8.3880   -1.7670  -20.8810 H   0  0  0  0  0  0  0  0  0  0  0  0
   -7.5380   -0.8660  -22.1390 H   0  0  0  0  0  0  0  0  0  0  0  0
   -7.0610   -5.0420  -22.5440 C   0  0  0  0  0  0  0  0  0  0  0  0
   -8.1670   -6.0830  -22.5450 C   0  0  0  0  0  0  0  0  0  0  0  0
   -8.6320   -6.1600  -21.5570 H   0  0  0  0  0  0  0  0  0  0  0  0
   -7.7240   -7.0710  -22.7320 H   0  0  0  0  0  0  0  0  0  0  0  0
   -6.3130   -5.2230  -21.7730 H   0  0  0  0  0  0  0  0  0  0  0  0
   -6.5380   -5.0710  -23.5080 H   0  0  0  0  0  0  0  0  0  0  0  0
   -9.6990   -3.5750  -22.1190 H   0  0  0  0  0  0  0  0  0  0  0  0
   -8.9490   -2.3450  -23.1460 H   0  0  0  0  0  0  0  0  0  0  0  0
  -10.2260   -4.0290  -24.4560 H   0  0  0  0  0  0  0  0  0  0  0  0
   -8.5230   -4.1070  -24.8740 H   0  0  0  0  0  0  0  0  0  0  0  0
  -10.2170   -5.8550  -23.1140 H   0  0  0  0  0  0  0  0  0  0  0  0
   -8.2770   -6.6910  -25.2900 H   0  0  0  0  0  0  0  0  0  0  0  0
   -9.1540   -7.8120  -24.2690 H   0  0  0  0  0  0  0  0  0  0  0  0
  -10.3510   -7.5500  -26.4470 H   0  0  0  0  0  0  0  0  0  0  0  0
  -10.4720   -5.8030  -26.1960 H   0  0  0  0  0  0  0  0  0  0  0  0
  -11.3390   -6.9150  -25.1210 H   0  0  0  0  0  0  0  0  0  0  0  0
  1  2  1  0  0  0  0
  1 41  1  0  0  0  0
  1 42  1  0  0  0  0
  1 43  1  0  0  0  0
  2  3  1  0  0  0  0
  2 39  1  0  0  0  0
  2 40  1  0  0  0  0
  3  4  1  0  0  0  0
  3 29  1  0  0  0  0
  3 38  1  0  0  0  0
  4  5  1  0  0  0  0
  4 36  1  0  0  0  0
  4 37  1  0  0  0  0
  5  6  1  0  0  0  0
  5 34  1  0  0  0  0
  5 35  1  0  0  0  0
  6  7  1  0  0  0  0
  6 28  1  0  0  0  0
  7  8  2  0  0  0  0
  7  9  1  0  0  0  0
  9 10  1  0  0  0  0
  9 26  1  0  0  0  0
  9 27  1  0  0  0  0
 10 11  2  0  0  0  0
 10 19  1  0  0  0  0
 11 12  1  0  0  0  0
 11 25  1  0  0  0  0
 12 13  2  0  0  0  0
 13 14  1  0  0  0  0
 13 24  1  0  0  0  0
 14 15  2  0  0  0  0
 14 19  1  0  0  0  0
 15 16  1  0  0  0  0
 15 23  1  0  0  0  0
 16 17  2  0  0  0  0
 16 22  1  0  0  0  0
 17 18  1  0  0  0  0
 17 21  1  0  0  0  0
 18 19  2  0  0  0  0
 18 20  1  0  0  0  0
 28 29  1  0  0  0  0
 28 32  1  0  0  0  0
 28 33  1  0  0  0  0
 29 30  1  0  0  0  0
 29 31  1  0  0  0  0
M  END
>  <MODEL>
       1

$$$$
