tmp_first_model_14_52.pdb
 OpenBabel08282500413D

 57 60  0  0  0  0  0  0  0  0999 V2000
  -13.9550   -1.1880  -24.0000 C   0  0  0  0  0  0  0  0  0  0  0  0
  -12.9450   -2.2610  -23.5920 C   0  0  0  0  0  0  0  0  0  0  0  0
  -11.4750   -1.8810  -23.6280 C   0  0  0  0  0  0  0  0  0  0  0  0
  -10.8600   -1.6820  -22.5910 O   0  0  0  0  0  0  0  0  0  0  0  0
  -10.8680   -1.8360  -24.8640 N   0  0  0  0  0  0  0  0  0  0  0  0
   -9.4650   -1.6980  -25.0170 C   0  0  0  0  0  0  0  0  0  0  0  0
   -8.9060   -0.9690  -26.0720 C   0  0  0  0  0  0  0  0  0  0  0  0
   -7.5390   -0.7100  -26.0980 C   0  0  0  0  0  0  0  0  0  0  0  0
   -6.7050   -1.2740  -25.1400 C   0  0  0  0  0  0  0  0  0  0  0  0
   -7.2540   -2.0830  -24.1490 C   0  0  0  0  0  0  0  0  0  0  0  0
   -6.4020   -2.7220  -23.2010 N   0  0  0  0  0  0  0  0  0  0  0  0
   -5.4250   -3.6830  -23.7090 C   0  0  0  0  0  0  0  0  0  0  0  0
   -6.0480   -5.0180  -24.0670 C   0  0  0  0  0  0  0  0  0  0  0  0
   -6.6810   -5.1890  -25.2990 C   0  0  0  0  0  0  0  0  0  0  0  0
   -7.3130   -6.3880  -25.6070 C   0  0  0  0  0  0  0  0  0  0  0  0
   -7.3170   -7.4270  -24.6850 C   0  0  0  0  0  0  0  0  0  0  0  0
   -6.6660   -7.2780  -23.4650 C   0  0  0  0  0  0  0  0  0  0  0  0
   -6.0410   -6.0740  -23.1570 C   0  0  0  0  0  0  0  0  0  0  0  0
   -5.5520   -5.9490  -22.1930 H   0  0  0  0  0  0  0  0  0  0  0  0
   -6.6290   -8.1040  -22.7570 H   0  0  0  0  0  0  0  0  0  0  0  0
   -7.8530   -8.3410  -24.9220 H   0  0  0  0  0  0  0  0  0  0  0  0
   -7.7970   -6.5200  -26.5730 H   0  0  0  0  0  0  0  0  0  0  0  0
   -6.6830   -4.3740  -26.0210 H   0  0  0  0  0  0  0  0  0  0  0  0
   -4.6730   -3.7920  -22.9240 H   0  0  0  0  0  0  0  0  0  0  0  0
   -4.9490   -3.2480  -24.5960 H   0  0  0  0  0  0  0  0  0  0  0  0
   -6.6110   -2.6910  -21.8350 C   0  0  0  0  0  0  0  0  0  0  0  0
   -6.1440   -3.5390  -21.0900 O   0  0  0  0  0  0  0  0  0  0  0  0
   -7.3780   -1.4920  -21.2770 C   0  0  0  0  0  0  0  0  0  0  0  0
   -6.5840   -0.8140  -20.1890 C   0  0  0  0  0  0  0  0  0  0  0  0
   -6.8940   -1.0170  -18.8770 C   0  0  0  0  0  0  0  0  0  0  0  0
   -6.2240   -0.4840  -17.8210 N   0  0  0  0  0  0  0  0  0  0  0  0
   -5.1770    0.2500  -18.0900 C   0  0  0  0  0  0  0  0  0  0  0  0
   -4.7230    0.5380  -19.4030 C   0  0  0  0  0  0  0  0  0  0  0  0
   -3.5890    1.3540  -19.6380 C   0  0  0  0  0  0  0  0  0  0  0  0
   -3.1870    1.6340  -20.9120 C   0  0  0  0  0  0  0  0  0  0  0  0
   -3.9000    1.1000  -22.0090 C   0  0  0  0  0  0  0  0  0  0  0  0
   -4.9990    0.3030  -21.8100 C   0  0  0  0  0  0  0  0  0  0  0  0
   -5.4480   -0.0020  -20.4950 C   0  0  0  0  0  0  0  0  0  0  0  0
   -5.5340   -0.0920  -22.6730 H   0  0  0  0  0  0  0  0  0  0  0  0
   -3.5800    1.3380  -23.0210 H   0  0  0  0  0  0  0  0  0  0  0  0
   -2.3270    2.2770  -21.0910 H   0  0  0  0  0  0  0  0  0  0  0  0
   -3.0620    1.7640  -18.7770 H   0  0  0  0  0  0  0  0  0  0  0  0
   -4.6220    0.6580  -17.2410 H   0  0  0  0  0  0  0  0  0  0  0  0
   -7.7430   -1.6510  -18.6140 H   0  0  0  0  0  0  0  0  0  0  0  0
   -7.6210   -0.7910  -22.0800 H   0  0  0  0  0  0  0  0  0  0  0  0
   -8.3330   -1.8690  -20.8850 H   0  0  0  0  0  0  0  0  0  0  0  0
   -8.6220   -2.3000  -24.0880 C   0  0  0  0  0  0  0  0  0  0  0  0
   -9.0240   -2.9630  -23.3320 H   0  0  0  0  0  0  0  0  0  0  0  0
   -5.6310   -1.1110  -25.1400 H   0  0  0  0  0  0  0  0  0  0  0  0
   -7.1150   -0.0680  -26.8710 H   0  0  0  0  0  0  0  0  0  0  0  0
   -9.5330   -0.6300  -26.8840 H   0  0  0  0  0  0  0  0  0  0  0  0
  -11.4390   -1.8670  -25.6970 H   0  0  0  0  0  0  0  0  0  0  0  0
  -13.1010   -2.5310  -22.5470 H   0  0  0  0  0  0  0  0  0  0  0  0
  -13.1030   -3.1630  -24.1850 H   0  0  0  0  0  0  0  0  0  0  0  0
  -14.9390   -1.6530  -24.1160 H   0  0  0  0  0  0  0  0  0  0  0  0
  -14.0430   -0.4210  -23.2240 H   0  0  0  0  0  0  0  0  0  0  0  0
  -13.7040   -0.6970  -24.9410 H   0  0  0  0  0  0  0  0  0  0  0  0
  1  2  1  0  0  0  0
  1 55  1  0  0  0  0
  1 56  1  0  0  0  0
  1 57  1  0  0  0  0
  2  3  1  0  0  0  0
  2 53  1  0  0  0  0
  2 54  1  0  0  0  0
  3  4  2  0  0  0  0
  3  5  1  0  0  0  0
  5  6  1  0  0  0  0
  5 52  1  0  0  0  0
  6  7  2  0  0  0  0
  6 47  1  0  0  0  0
  7  8  1  0  0  0  0
  7 51  1  0  0  0  0
  8  9  2  0  0  0  0
  8 50  1  0  0  0  0
  9 10  1  0  0  0  0
  9 49  1  0  0  0  0
 10 11  1  0  0  0  0
 10 47  2  0  0  0  0
 11 12  1  0  0  0  0
 11 26  1  0  0  0  0
 12 13  1  0  0  0  0
 12 24  1  0  0  0  0
 12 25  1  0  0  0  0
 13 14  2  0  0  0  0
 13 18  1  0  0  0  0
 14 15  1  0  0  0  0
 14 23  1  0  0  0  0
 15 16  2  0  0  0  0
 15 22  1  0  0  0  0
 16 17  1  0  0  0  0
 16 21  1  0  0  0  0
 17 18  2  0  0  0  0
 17 20  1  0  0  0  0
 18 19  1  0  0  0  0
 26 27  2  0  0  0  0
 26 28  1  0  0  0  0
 28 29  1  0  0  0  0
 28 45  1  0  0  0  0
 28 46  1  0  0  0  0
 29 30  2  0  0  0  0
 29 38  1  0  0  0  0
 30 31  1  0  0  0  0
 30 44  1  0  0  0  0
 31 32  2  0  0  0  0
 32 33  1  0  0  0  0
 32 43  1  0  0  0  0
 33 34  2  0  0  0  0
 33 38  1  0  0  0  0
 34 35  1  0  0  0  0
 34 42  1  0  0  0  0
 35 36  2  0  0  0  0
 35 41  1  0  0  0  0
 36 37  1  0  0  0  0
 36 40  1  0  0  0  0
 37 38  2  0  0  0  0
 37 39  1  0  0  0  0
 47 48  1  0  0  0  0
M  END
>  <MODEL>
       1

$$$$
