tmp_first_model_11_9.pdb
 OpenBabel08272522543D

 41 43  0  0  1  0  0  0  0  0999 V2000
   -6.9080    2.2870  -24.2470 C   0  0  0  0  0  0  0  0  0  0  0  0
   -7.5670    1.3640  -25.2750 C   0  0  1  0  0  0  0  0  0  0  0  0
   -6.8310    0.0410  -25.3370 C   0  0  0  0  0  0  0  0  0  0  0  0
   -7.1960   -1.1350  -24.8340 C   0  0  0  0  0  0  0  0  0  0  0  0
   -8.4790   -1.3810  -24.0830 C   0  0  0  0  0  0  0  0  0  0  0  0
   -8.8150   -0.3390  -23.1320 N   0  0  0  0  0  0  0  0  0  0  0  0
   -8.4970   -0.3780  -21.7940 C   0  0  0  0  0  0  0  0  0  0  0  0
   -9.0380    0.3700  -21.0000 O   0  0  0  0  0  0  0  0  0  0  0  0
   -7.4450   -1.3960  -21.2840 C   0  0  0  0  0  0  0  0  0  0  0  0
   -6.5780   -0.8260  -20.1780 C   0  0  0  0  0  0  0  0  0  0  0  0
   -6.8780   -1.0400  -18.8560 C   0  0  0  0  0  0  0  0  0  0  0  0
   -6.1920   -0.5360  -17.7930 N   0  0  0  0  0  0  0  0  0  0  0  0
   -5.1560    0.2220  -18.0630 C   0  0  0  0  0  0  0  0  0  0  0  0
   -4.7200    0.5330  -19.3790 C   0  0  0  0  0  0  0  0  0  0  0  0
   -3.5960    1.3660  -19.6230 C   0  0  0  0  0  0  0  0  0  0  0  0
   -3.2080    1.6610  -20.9010 C   0  0  0  0  0  0  0  0  0  0  0  0
   -3.9310    1.1260  -21.9910 C   0  0  0  0  0  0  0  0  0  0  0  0
   -5.0170    0.3100  -21.7850 C   0  0  0  0  0  0  0  0  0  0  0  0
   -5.4470   -0.0060  -20.4710 C   0  0  0  0  0  0  0  0  0  0  0  0
   -5.5550   -0.0800  -22.6470 H   0  0  0  0  0  0  0  0  0  0  0  0
   -3.6160    1.3660  -23.0020 H   0  0  0  0  0  0  0  0  0  0  0  0
   -2.3550    2.3080  -21.0850 H   0  0  0  0  0  0  0  0  0  0  0  0
   -3.0610    1.7820  -18.7720 H   0  0  0  0  0  0  0  0  0  0  0  0
   -4.6010    0.6280  -17.2150 H   0  0  0  0  0  0  0  0  0  0  0  0
   -7.7290   -1.6610  -18.5810 H   0  0  0  0  0  0  0  0  0  0  0  0
   -6.8230   -1.8040  -22.0910 H   0  0  0  0  0  0  0  0  0  0  0  0
   -8.0110   -2.2390  -20.8640 H   0  0  0  0  0  0  0  0  0  0  0  0
   -9.5320    0.8260  -23.6490 C   0  0  0  0  0  0  0  0  0  0  0  0
   -9.0810    1.2460  -25.0510 C   0  0  0  0  0  0  0  0  0  0  0  0
   -9.5330    2.2230  -25.2660 H   0  0  0  0  0  0  0  0  0  0  0  0
   -9.5080    0.5750  -25.8050 H   0  0  0  0  0  0  0  0  0  0  0  0
  -10.6120    0.6220  -23.6600 H   0  0  0  0  0  0  0  0  0  0  0  0
   -9.3910    1.6540  -22.9520 H   0  0  0  0  0  0  0  0  0  0  0  0
   -9.3080   -1.4500  -24.7920 H   0  0  0  0  0  0  0  0  0  0  0  0
   -8.4580   -2.3410  -23.5670 H   0  0  0  0  0  0  0  0  0  0  0  0
   -6.5250   -1.9880  -24.9380 H   0  0  0  0  0  0  0  0  0  0  0  0
   -5.8720    0.0880  -25.8520 H   0  0  0  0  0  0  0  0  0  0  0  0
   -7.4280    1.8350  -26.2590 H   0  0  0  0  0  0  0  0  0  0  0  0
   -5.8470    2.4320  -24.4730 H   0  0  0  0  0  0  0  0  0  0  0  0
   -6.9630    1.8790  -23.2330 H   0  0  0  0  0  0  0  0  0  0  0  0
   -7.3900    3.2700  -24.2300 H   0  0  0  0  0  0  0  0  0  0  0  0
  1  2  1  0  0  0  0
  1 39  1  0  0  0  0
  1 40  1  0  0  0  0
  1 41  1  0  0  0  0
  2  3  1  0  0  0  0
  2 29  1  0  0  0  0
  2 38  1  6  0  0  0
  3  4  2  0  0  0  0
  3 37  1  0  0  0  0
  4  5  1  0  0  0  0
  4 36  1  0  0  0  0
  5  6  1  0  0  0  0
  5 34  1  0  0  0  0
  5 35  1  0  0  0  0
  6  7  1  0  0  0  0
  6 28  1  0  0  0  0
  7  8  2  0  0  0  0
  7  9  1  0  0  0  0
  9 10  1  0  0  0  0
  9 26  1  0  0  0  0
  9 27  1  0  0  0  0
 10 11  2  0  0  0  0
 10 19  1  0  0  0  0
 11 12  1  0  0  0  0
 11 25  1  0  0  0  0
 12 13  2  0  0  0  0
 13 14  1  0  0  0  0
 13 24  1  0  0  0  0
 14 15  2  0  0  0  0
 14 19  1  0  0  0  0
 15 16  1  0  0  0  0
 15 23  1  0  0  0  0
 16 17  2  0  0  0  0
 16 22  1  0  0  0  0
 17 18  1  0  0  0  0
 17 21  1  0  0  0  0
 18 19  2  0  0  0  0
 18 20  1  0  0  0  0
 28 29  1  0  0  0  0
 28 32  1  0  0  0  0
 28 33  1  0  0  0  0
 29 30  1  0  0  0  0
 29 31  1  0  0  0  0
M  END
>  <MODEL>
       1

$$$$
