tmp_first_model_7_54.pdb
 OpenBabel08272520323D

 40 43  0  0  0  0  0  0  0  0999 V2000
   -9.5750   -1.3390  -24.0580 C   0  0  0  0  0  0  0  0  0  0  0  0
   -8.7820   -1.6250  -22.8770 N   0  0  0  0  0  0  0  0  0  0  0  0
   -8.4640   -2.8430  -22.3330 C   0  0  0  0  0  0  0  0  0  0  0  0
   -8.9110   -4.1510  -22.9020 C   0  0  0  0  0  0  0  0  0  0  0  0
   -8.0830   -4.5390  -24.1090 C   0  0  0  0  0  0  0  0  0  0  0  0
   -8.5960   -4.4430  -25.4000 C   0  0  0  0  0  0  0  0  0  0  0  0
   -7.8120   -4.7740  -26.5010 C   0  0  0  0  0  0  0  0  0  0  0  0
   -6.5010   -5.2000  -26.3160 C   0  0  0  0  0  0  0  0  0  0  0  0
   -5.9780   -5.2880  -25.0290 C   0  0  0  0  0  0  0  0  0  0  0  0
   -6.7630   -4.9520  -23.9320 C   0  0  0  0  0  0  0  0  0  0  0  0
   -6.3510   -5.0120  -22.9280 H   0  0  0  0  0  0  0  0  0  0  0  0
   -4.9530   -5.6170  -24.8830 H   0  0  0  0  0  0  0  0  0  0  0  0
   -5.8880   -5.4610  -27.1740 H   0  0  0  0  0  0  0  0  0  0  0  0
   -8.2280   -4.7030  -27.5020 H   0  0  0  0  0  0  0  0  0  0  0  0
   -9.6180   -4.1030  -25.5460 H   0  0  0  0  0  0  0  0  0  0  0  0
   -9.9750   -4.1070  -23.1630 H   0  0  0  0  0  0  0  0  0  0  0  0
   -8.8090   -4.8960  -22.1070 H   0  0  0  0  0  0  0  0  0  0  0  0
   -7.6560   -2.7300  -21.3210 N   0  0  0  0  0  0  0  0  0  0  0  0
   -7.4050   -1.3860  -21.2120 N   0  0  0  0  0  0  0  0  0  0  0  0
   -6.5810   -0.8350  -20.1840 C   0  0  0  0  0  0  0  0  0  0  0  0
   -6.8870   -1.0590  -18.8640 C   0  0  0  0  0  0  0  0  0  0  0  0
   -6.1920   -0.5420  -17.8220 N   0  0  0  0  0  0  0  0  0  0  0  0
   -5.1600    0.2240  -18.0740 C   0  0  0  0  0  0  0  0  0  0  0  0
   -4.7210    0.5310  -19.3910 C   0  0  0  0  0  0  0  0  0  0  0  0
   -3.5840    1.3530  -19.6260 C   0  0  0  0  0  0  0  0  0  0  0  0
   -3.1780    1.6150  -20.9060 C   0  0  0  0  0  0  0  0  0  0  0  0
   -3.8820    1.0620  -21.9980 C   0  0  0  0  0  0  0  0  0  0  0  0
   -4.9730    0.2570  -21.7940 C   0  0  0  0  0  0  0  0  0  0  0  0
   -5.4400   -0.0130  -20.4800 C   0  0  0  0  0  0  0  0  0  0  0  0
   -5.4990   -0.1750  -22.6370 H   0  0  0  0  0  0  0  0  0  0  0  0
   -3.5500    1.2660  -23.0100 H   0  0  0  0  0  0  0  0  0  0  0  0
   -2.3170    2.2480  -21.0950 H   0  0  0  0  0  0  0  0  0  0  0  0
   -3.0520    1.7760  -18.7780 H   0  0  0  0  0  0  0  0  0  0  0  0
   -4.6050    0.6250  -17.2210 H   0  0  0  0  0  0  0  0  0  0  0  0
   -7.7380   -1.6770  -18.5910 H   0  0  0  0  0  0  0  0  0  0  0  0
   -8.1140   -0.6460  -22.1480 C   0  0  0  0  0  0  0  0  0  0  0  0
   -8.1380    0.5570  -22.3070 O   0  0  0  0  0  0  0  0  0  0  0  0
   -9.0060   -1.4810  -24.9820 H   0  0  0  0  0  0  0  0  0  0  0  0
   -9.8980   -0.3000  -24.0240 H   0  0  0  0  0  0  0  0  0  0  0  0
  -10.4720   -1.9610  -24.1010 H   0  0  0  0  0  0  0  0  0  0  0  0
  1  2  1  0  0  0  0
  1 38  1  0  0  0  0
  1 39  1  0  0  0  0
  1 40  1  0  0  0  0
  2  3  1  0  0  0  0
  2 36  1  0  0  0  0
  3  4  1  0  0  0  0
  3 18  2  0  0  0  0
  4  5  1  0  0  0  0
  4 16  1  0  0  0  0
  4 17  1  0  0  0  0
  5  6  2  0  0  0  0
  5 10  1  0  0  0  0
  6  7  1  0  0  0  0
  6 15  1  0  0  0  0
  7  8  2  0  0  0  0
  7 14  1  0  0  0  0
  8  9  1  0  0  0  0
  8 13  1  0  0  0  0
  9 10  2  0  0  0  0
  9 12  1  0  0  0  0
 10 11  1  0  0  0  0
 18 19  1  0  0  0  0
 19 20  1  0  0  0  0
 19 36  1  0  0  0  0
 20 21  2  0  0  0  0
 20 29  1  0  0  0  0
 21 22  1  0  0  0  0
 21 35  1  0  0  0  0
 22 23  2  0  0  0  0
 23 24  1  0  0  0  0
 23 34  1  0  0  0  0
 24 25  2  0  0  0  0
 24 29  1  0  0  0  0
 25 26  1  0  0  0  0
 25 33  1  0  0  0  0
 26 27  2  0  0  0  0
 26 32  1  0  0  0  0
 27 28  1  0  0  0  0
 27 31  1  0  0  0  0
 28 29  2  0  0  0  0
 28 30  1  0  0  0  0
 36 37  2  0  0  0  0
M  END
>  <MODEL>
       1

$$$$
