tmp_first_model_4_74.pdb
 OpenBabel08272518513D

 43 47  0  0  1  0  0  0  0  0999 V2000
   -5.6030   -3.2120  -21.8900 O   0  0  0  0  0  0  0  0  0  0  0  0
   -6.6570   -2.6330  -21.9950 C   0  0  0  0  0  0  0  0  0  0  0  0
   -7.6140   -2.7650  -22.9710 N   0  0  0  0  0  0  0  0  0  0  0  0
   -8.6460   -1.7550  -22.8730 C   0  0  1  0  0  0  0  0  0  0  0  0
   -8.7960   -0.7870  -24.0700 C   0  0  0  0  0  0  0  0  0  0  0  0
  -10.1820   -1.4060  -24.3700 C   0  0  2  0  0  0  0  0  0  0  0  0
  -11.3320   -0.4610  -24.3700 C   0  0  0  0  0  0  0  0  0  0  0  0
  -11.4690    0.4570  -23.3280 C   0  0  0  0  0  0  0  0  0  0  0  0
  -12.6590    1.1480  -23.1420 C   0  0  0  0  0  0  0  0  0  0  0  0
  -13.7520    0.8990  -23.9630 C   0  0  0  0  0  0  0  0  0  0  0  0
  -13.6160    0.0120  -25.0270 C   0  0  0  0  0  0  0  0  0  0  0  0
  -12.3830   -0.5740  -25.2650 C   0  0  0  0  0  0  0  0  0  0  0  0
  -12.1630   -1.4760  -26.7370 Cl  0  0  0  0  0  0  0  0  0  0  0  0
  -14.4200   -0.3100  -25.6630 H   0  0  0  0  0  0  0  0  0  0  0  0
  -14.6860    1.4080  -23.7480 H   0  0  0  0  0  0  0  0  0  0  0  0
  -12.7760    1.8460  -22.3180 H   0  0  0  0  0  0  0  0  0  0  0  0
  -10.6500    0.6080  -22.6250 H   0  0  0  0  0  0  0  0  0  0  0  0
  -10.0870   -2.2470  -23.0600 C   0  0  0  0  0  0  0  0  0  0  0  0
  -10.7440   -1.8920  -22.2610 H   0  0  0  0  0  0  0  0  0  0  0  0
  -10.1800   -3.3320  -23.1230 H   0  0  0  0  0  0  0  0  0  0  0  0
  -10.1730   -2.0260  -25.2600 H   0  0  0  0  0  0  0  0  0  0  0  0
   -8.8420    0.2570  -23.7530 H   0  0  0  0  0  0  0  0  0  0  0  0
   -8.0120   -0.8780  -24.8270 H   0  0  0  0  0  0  0  0  0  0  0  0
   -8.3440   -1.0890  -21.5450 C   0  0  0  0  0  0  0  0  0  0  0  0
   -8.9750   -0.2270  -20.9820 O   0  0  0  0  0  0  0  0  0  0  0  0
   -7.1480   -1.6530  -21.1110 N   0  0  0  0  0  0  0  0  0  0  0  0
   -6.3170   -1.0920  -20.1080 C   0  0  0  0  0  0  0  0  0  0  0  0
   -6.5640   -1.3890  -18.7930 C   0  0  0  0  0  0  0  0  0  0  0  0
   -5.6570   -1.1770  -17.8120 N   0  0  0  0  0  0  0  0  0  0  0  0
   -4.5370   -0.5800  -18.1370 C   0  0  0  0  0  0  0  0  0  0  0  0
   -4.2400   -0.0770  -19.4380 C   0  0  0  0  0  0  0  0  0  0  0  0
   -3.0530    0.6410  -19.7280 C   0  0  0  0  0  0  0  0  0  0  0  0
   -2.8320    1.1640  -20.9690 C   0  0  0  0  0  0  0  0  0  0  0  0
   -3.8000    1.0090  -21.9820 C   0  0  0  0  0  0  0  0  0  0  0  0
   -4.9450    0.2890  -21.7450 C   0  0  0  0  0  0  0  0  0  0  0  0
   -5.1810   -0.2930  -20.4630 C   0  0  0  0  0  0  0  0  0  0  0  0
   -5.6660    0.1570  -22.5470 H   0  0  0  0  0  0  0  0  0  0  0  0
   -3.6390    1.4770  -22.9480 H   0  0  0  0  0  0  0  0  0  0  0  0
   -1.9100    1.6970  -21.1800 H   0  0  0  0  0  0  0  0  0  0  0  0
   -2.3390    0.7850  -18.9310 H   0  0  0  0  0  0  0  0  0  0  0  0
   -3.7930   -0.4750  -17.3470 H   0  0  0  0  0  0  0  0  0  0  0  0
   -7.5050   -1.8460  -18.4860 H   0  0  0  0  0  0  0  0  0  0  0  0
   -7.3410   -3.1540  -23.8620 H   0  0  0  0  0  0  0  0  0  0  0  0
  1  2  2  0  0  0  0
  2  3  1  0  0  0  0
  2 26  1  0  0  0  0
  3  4  1  0  0  0  0
  3 43  1  0  0  0  0
  4  5  1  0  0  0  0
  4 18  1  0  0  0  0
  4 24  1  1  0  0  0
  5  6  1  0  0  0  0
  5 22  1  0  0  0  0
  5 23  1  0  0  0  0
  6  7  1  0  0  0  0
  6 18  1  0  0  0  0
  6 21  1  6  0  0  0
  7  8  2  0  0  0  0
  7 12  1  0  0  0  0
  8  9  1  0  0  0  0
  8 17  1  0  0  0  0
  9 10  2  0  0  0  0
  9 16  1  0  0  0  0
 10 11  1  0  0  0  0
 10 15  1  0  0  0  0
 11 12  2  0  0  0  0
 11 14  1  0  0  0  0
 12 13  1  0  0  0  0
 18 19  1  0  0  0  0
 18 20  1  0  0  0  0
 24 25  2  0  0  0  0
 24 26  1  0  0  0  0
 26 27  1  0  0  0  0
 27 28  2  0  0  0  0
 27 36  1  0  0  0  0
 28 29  1  0  0  0  0
 28 42  1  0  0  0  0
 29 30  2  0  0  0  0
 30 31  1  0  0  0  0
 30 41  1  0  0  0  0
 31 32  2  0  0  0  0
 31 36  1  0  0  0  0
 32 33  1  0  0  0  0
 32 40  1  0  0  0  0
 33 34  2  0  0  0  0
 33 39  1  0  0  0  0
 34 35  1  0  0  0  0
 34 38  1  0  0  0  0
 35 36  2  0  0  0  0
 35 37  1  0  0  0  0
M  END
>  <MODEL>
       1

$$$$
