tmp_first_model_20_7.pdb
 OpenBabel08282503553D

 44 47  0  0  0  0  0  0  0  0999 V2000
  -10.0990   -5.9870  -27.5760 C   0  0  0  0  0  0  0  0  0  0  0  0
   -8.9770   -5.2910  -26.8010 C   0  0  0  0  0  0  0  0  0  0  0  0
   -9.2310   -5.5150  -25.0460 S   0  0  0  0  0  0  0  0  0  0  0  0
   -9.0460   -6.9200  -24.7290 O   0  0  0  0  0  0  0  0  0  0  0  0
  -10.4770   -4.8280  -24.7200 O   0  0  0  0  0  0  0  0  0  0  0  0
   -7.9600   -4.6940  -24.2750 N   0  0  0  0  0  0  0  0  0  0  0  0
   -7.9930   -3.2100  -24.3160 C   0  0  0  0  0  0  0  0  0  0  0  0
   -8.0640   -3.1460  -22.7700 C   0  0  0  0  0  0  0  0  0  0  0  0
   -8.0660   -4.6850  -22.7740 C   0  0  0  0  0  0  0  0  0  0  0  0
   -7.1830   -5.1280  -22.3100 H   0  0  0  0  0  0  0  0  0  0  0  0
   -8.9740   -5.1350  -22.3640 H   0  0  0  0  0  0  0  0  0  0  0  0
   -6.8670   -2.5240  -22.0680 C   0  0  0  0  0  0  0  0  0  0  0  0
   -5.7060   -2.8090  -22.2270 O   0  0  0  0  0  0  0  0  0  0  0  0
   -7.3660   -1.5380  -21.2130 N   0  0  0  0  0  0  0  0  0  0  0  0
   -6.5990   -0.8690  -20.2000 C   0  0  0  0  0  0  0  0  0  0  0  0
   -6.9170   -1.0620  -18.8760 C   0  0  0  0  0  0  0  0  0  0  0  0
   -6.2250   -0.5430  -17.8290 N   0  0  0  0  0  0  0  0  0  0  0  0
   -5.1840    0.2030  -18.0990 C   0  0  0  0  0  0  0  0  0  0  0  0
   -4.7490    0.5160  -19.4150 C   0  0  0  0  0  0  0  0  0  0  0  0
   -3.6180    1.3510  -19.6380 C   0  0  0  0  0  0  0  0  0  0  0  0
   -3.2270    1.6580  -20.9120 C   0  0  0  0  0  0  0  0  0  0  0  0
   -3.9560    1.1450  -22.0070 C   0  0  0  0  0  0  0  0  0  0  0  0
   -5.0510    0.3370  -21.8160 C   0  0  0  0  0  0  0  0  0  0  0  0
   -5.4780   -0.0190  -20.5060 C   0  0  0  0  0  0  0  0  0  0  0  0
   -5.6000   -0.0390  -22.6720 H   0  0  0  0  0  0  0  0  0  0  0  0
   -3.6490    1.4020  -23.0160 H   0  0  0  0  0  0  0  0  0  0  0  0
   -2.3710    2.3050  -21.0900 H   0  0  0  0  0  0  0  0  0  0  0  0
   -3.0810    1.7440  -18.7790 H   0  0  0  0  0  0  0  0  0  0  0  0
   -4.6290    0.6030  -17.2500 H   0  0  0  0  0  0  0  0  0  0  0  0
   -7.7640   -1.6850  -18.6010 H   0  0  0  0  0  0  0  0  0  0  0  0
   -8.7590   -1.3830  -21.4050 C   0  0  0  0  0  0  0  0  0  0  0  0
   -9.4350   -0.4620  -21.0080 O   0  0  0  0  0  0  0  0  0  0  0  0
   -9.1710   -2.4470  -22.1720 N   0  0  0  0  0  0  0  0  0  0  0  0
  -10.5610   -2.6980  -22.4960 C   0  0  0  0  0  0  0  0  0  0  0  0
  -10.7620   -2.4920  -23.5540 H   0  0  0  0  0  0  0  0  0  0  0  0
  -10.8340   -3.7400  -22.2830 H   0  0  0  0  0  0  0  0  0  0  0  0
  -11.1470   -2.0250  -21.8700 H   0  0  0  0  0  0  0  0  0  0  0  0
   -7.0640   -2.8220  -24.7350 H   0  0  0  0  0  0  0  0  0  0  0  0
   -8.8530   -2.7780  -24.8400 H   0  0  0  0  0  0  0  0  0  0  0  0
   -8.9700   -4.2080  -26.9710 H   0  0  0  0  0  0  0  0  0  0  0  0
   -7.9880   -5.7040  -27.0240 H   0  0  0  0  0  0  0  0  0  0  0  0
  -11.0760   -5.5760  -27.3050 H   0  0  0  0  0  0  0  0  0  0  0  0
   -9.9530   -5.8510  -28.6520 H   0  0  0  0  0  0  0  0  0  0  0  0
  -10.1100   -7.0610  -27.3610 H   0  0  0  0  0  0  0  0  0  0  0  0
  1  2  1  0  0  0  0
  1 42  1  0  0  0  0
  1 43  1  0  0  0  0
  1 44  1  0  0  0  0
  2  3  1  0  0  0  0
  2 40  1  0  0  0  0
  2 41  1  0  0  0  0
  3  4  2  0  0  0  0
  3  5  2  0  0  0  0
  3  6  1  0  0  0  0
  6  7  1  0  0  0  0
  6  9  1  0  0  0  0
  7  8  1  0  0  0  0
  7 38  1  0  0  0  0
  7 39  1  0  0  0  0
  8  9  1  0  0  0  0
  8 12  1  0  0  0  0
  8 33  1  0  0  0  0
  9 10  1  0  0  0  0
  9 11  1  0  0  0  0
 12 13  2  0  0  0  0
 12 14  1  0  0  0  0
 14 15  1  0  0  0  0
 14 31  1  0  0  0  0
 15 16  2  0  0  0  0
 15 24  1  0  0  0  0
 16 17  1  0  0  0  0
 16 30  1  0  0  0  0
 17 18  2  0  0  0  0
 18 19  1  0  0  0  0
 18 29  1  0  0  0  0
 19 20  2  0  0  0  0
 19 24  1  0  0  0  0
 20 21  1  0  0  0  0
 20 28  1  0  0  0  0
 21 22  2  0  0  0  0
 21 27  1  0  0  0  0
 22 23  1  0  0  0  0
 22 26  1  0  0  0  0
 23 24  2  0  0  0  0
 23 25  1  0  0  0  0
 31 32  2  0  0  0  0
 31 33  1  0  0  0  0
 33 34  1  0  0  0  0
 34 35  1  0  0  0  0
 34 36  1  0  0  0  0
 34 37  1  0  0  0  0
M  END
>  <MODEL>
       1

$$$$
