tmp_first_model_9_14.pdb
 OpenBabel08272521403D

 73 78  0  0  1  0  0  0  0  0999 V2000
   -7.9430   -3.7510  -24.0050 C   0  0  0  0  0  0  0  0  0  0  0  0
   -8.2980   -2.8750  -22.7990 C   0  0  1  0  0  0  0  0  0  0  0  0
   -7.1000   -2.6530  -21.8500 C   0  0  0  0  0  0  0  0  0  0  0  0
   -7.4070   -1.3930  -21.1990 N   0  0  0  0  0  0  0  0  0  0  0  0
   -6.6040   -0.8120  -20.1780 C   0  0  0  0  0  0  0  0  0  0  0  0
   -6.8980   -1.0500  -18.8610 C   0  0  0  0  0  0  0  0  0  0  0  0
   -6.1910   -0.5540  -17.8160 N   0  0  0  0  0  0  0  0  0  0  0  0
   -5.1640    0.2140  -18.0820 C   0  0  0  0  0  0  0  0  0  0  0  0
   -4.7350    0.5400  -19.4000 C   0  0  0  0  0  0  0  0  0  0  0  0
   -3.6080    1.3740  -19.6430 C   0  0  0  0  0  0  0  0  0  0  0  0
   -3.2180    1.6640  -20.9220 C   0  0  0  0  0  0  0  0  0  0  0  0
   -3.9370    1.1320  -22.0150 C   0  0  0  0  0  0  0  0  0  0  0  0
   -5.0300    0.3260  -21.8040 C   0  0  0  0  0  0  0  0  0  0  0  0
   -5.4700    0.0090  -20.4880 C   0  0  0  0  0  0  0  0  0  0  0  0
   -5.5600   -0.0880  -22.6560 H   0  0  0  0  0  0  0  0  0  0  0  0
   -3.6340    1.3710  -23.0310 H   0  0  0  0  0  0  0  0  0  0  0  0
   -2.3650    2.3120  -21.1010 H   0  0  0  0  0  0  0  0  0  0  0  0
   -3.0800    1.7840  -18.7860 H   0  0  0  0  0  0  0  0  0  0  0  0
   -4.6160    0.6190  -17.2310 H   0  0  0  0  0  0  0  0  0  0  0  0
   -7.7500   -1.6730  -18.5970 H   0  0  0  0  0  0  0  0  0  0  0  0
   -8.3910   -0.6650  -21.8330 C   0  0  0  0  0  0  0  0  0  0  0  0
   -8.8050    0.4050  -21.4390 O   0  0  0  0  0  0  0  0  0  0  0  0
   -8.8400   -1.4420  -23.1010 C   0  0  1  0  0  0  0  0  0  0  0  0
   -8.1530   -0.8420  -24.3600 C   0  0  0  0  0  0  0  0  0  0  0  0
   -8.5970    0.5080  -24.6290 N   0  0  0  0  0  0  0  0  0  0  0  0
   -7.6370    1.5720  -24.8900 C   0  0  0  0  0  0  0  0  0  0  0  0
   -7.5120    2.5190  -23.6950 C   0  0  0  0  0  0  0  0  0  0  0  0
   -6.4220    3.5570  -23.8580 N   0  3  0  0  0  0  0  0  0  0  0  0
   -6.7550    4.6770  -24.8350 C   0  0  0  0  0  0  0  0  0  0  0  0
   -7.7590    5.6770  -24.2560 C   0  0  0  0  0  0  0  0  0  0  0  0
   -7.3570    6.1570  -22.9340 N   0  0  0  0  0  0  0  0  0  0  0  0
   -6.5510    7.6010  -22.8290 S   0  0  0  0  0  0  0  0  0  0  0  0
   -6.0360    7.6900  -21.4760 O   0  0  0  0  0  0  0  0  0  0  0  0
   -7.4110    8.6230  -23.3950 O   0  0  0  0  0  0  0  0  0  0  0  0
   -5.1460    7.5250  -23.9310 C   0  0  0  0  0  0  0  0  0  0  0  0
   -5.5130    7.5000  -24.9620 H   0  0  0  0  0  0  0  0  0  0  0  0
   -4.5150    6.6680  -23.6900 H   0  0  0  0  0  0  0  0  0  0  0  0
   -4.6080    8.4630  -23.7600 H   0  0  0  0  0  0  0  0  0  0  0  0
   -7.0450    5.0940  -21.9730 C   0  0  0  0  0  0  0  0  0  0  0  0
   -5.9870    4.1520  -22.5330 C   0  0  0  0  0  0  0  0  0  0  0  0
   -5.0600    4.7040  -22.7070 H   0  0  0  0  0  0  0  0  0  0  0  0
   -5.7760    3.3320  -21.8410 H   0  0  0  0  0  0  0  0  0  0  0  0
   -7.9770    4.5500  -21.7880 H   0  0  0  0  0  0  0  0  0  0  0  0
   -6.7220    5.5570  -21.0420 H   0  0  0  0  0  0  0  0  0  0  0  0
   -8.7370    5.2020  -24.1340 H   0  0  0  0  0  0  0  0  0  0  0  0
   -7.8930    6.5370  -24.9160 H   0  0  0  0  0  0  0  0  0  0  0  0
   -7.1490    4.2430  -25.7530 H   0  0  0  0  0  0  0  0  0  0  0  0
   -5.8190    5.1860  -25.0790 H   0  0  0  0  0  0  0  0  0  0  0  0
   -5.5910    3.0530  -24.2220 H   0  0  0  0  0  0  0  0  0  0  0  0
   -7.2840    1.9430  -22.7930 H   0  0  0  0  0  0  0  0  0  0  0  0
   -8.4700    3.0200  -23.5410 H   0  0  0  0  0  0  0  0  0  0  0  0
   -6.6640    1.1100  -25.0940 H   0  0  0  0  0  0  0  0  0  0  0  0
   -7.9550    2.1130  -25.7850 H   0  0  0  0  0  0  0  0  0  0  0  0
   -9.9310    0.7960  -24.6750 C   0  0  0  0  0  0  0  0  0  0  0  0
  -10.3650    1.8320  -25.1670 O   0  0  0  0  0  0  0  0  0  0  0  0
  -10.8480   -0.2270  -24.0520 C   0  0  0  0  0  0  0  0  0  0  0  0
  -12.2260   -0.0460  -24.1900 C   0  0  0  0  0  0  0  0  0  0  0  0
  -13.1160   -0.8990  -23.5670 C   0  0  0  0  0  0  0  0  0  0  0  0
  -12.6120   -1.9180  -22.7620 C   0  0  0  0  0  0  0  0  0  0  0  0
  -13.7270   -2.9510  -21.9150 Cl  0  0  0  0  0  0  0  0  0  0  0  0
  -11.2510   -2.1130  -22.6070 C   0  0  0  0  0  0  0  0  0  0  0  0
  -10.3420   -1.2930  -23.2890 C   0  0  0  0  0  0  0  0  0  0  0  0
  -10.9180   -2.8910  -21.9280 H   0  0  0  0  0  0  0  0  0  0  0  0
  -14.1880   -0.7700  -23.6740 H   0  0  0  0  0  0  0  0  0  0  0  0
  -12.5740    0.7970  -24.7760 H   0  0  0  0  0  0  0  0  0  0  0  0
   -8.3780   -1.4910  -25.2210 H   0  0  0  0  0  0  0  0  0  0  0  0
   -7.0670   -0.8210  -24.2120 H   0  0  0  0  0  0  0  0  0  0  0  0
   -6.1520   -2.6040  -22.4100 H   0  0  0  0  0  0  0  0  0  0  0  0
   -6.9960   -3.4530  -21.1080 H   0  0  0  0  0  0  0  0  0  0  0  0
   -9.0720   -3.3840  -22.2190 H   0  0  0  0  0  0  0  0  0  0  0  0
   -7.0890   -3.3400  -24.5580 H   0  0  0  0  0  0  0  0  0  0  0  0
   -7.6630   -4.7610  -23.6860 H   0  0  0  0  0  0  0  0  0  0  0  0
   -8.7800   -3.8410  -24.7050 H   0  0  0  0  0  0  0  0  0  0  0  0
  1  2  1  0  0  0  0
  1 71  1  0  0  0  0
  1 72  1  0  0  0  0
  1 73  1  0  0  0  0
  2  3  1  0  0  0  0
  2 23  1  0  0  0  0
  2 70  1  1  0  0  0
  3  4  1  0  0  0  0
  3 68  1  0  0  0  0
  3 69  1  0  0  0  0
  4  5  1  0  0  0  0
  4 21  1  0  0  0  0
  5  6  2  0  0  0  0
  5 14  1  0  0  0  0
  6  7  1  0  0  0  0
  6 20  1  0  0  0  0
  7  8  2  0  0  0  0
  8  9  1  0  0  0  0
  8 19  1  0  0  0  0
  9 10  2  0  0  0  0
  9 14  1  0  0  0  0
 10 11  1  0  0  0  0
 10 18  1  0  0  0  0
 11 12  2  0  0  0  0
 11 17  1  0  0  0  0
 12 13  1  0  0  0  0
 12 16  1  0  0  0  0
 13 14  2  0  0  0  0
 13 15  1  0  0  0  0
 21 22  2  0  0  0  0
 23 21  1  1  0  0  0
 23 24  1  0  0  0  0
 23 62  1  0  0  0  0
 24 25  1  0  0  0  0
 24 66  1  0  0  0  0
 24 67  1  0  0  0  0
 25 26  1  0  0  0  0
 25 54  1  0  0  0  0
 26 27  1  0  0  0  0
 26 52  1  0  0  0  0
 26 53  1  0  0  0  0
 27 28  1  0  0  0  0
 27 50  1  0  0  0  0
 27 51  1  0  0  0  0
 28 29  1  0  0  0  0
 28 40  1  0  0  0  0
 28 49  1  0  0  0  0
 29 30  1  0  0  0  0
 29 47  1  0  0  0  0
 29 48  1  0  0  0  0
 30 31  1  0  0  0  0
 30 45  1  0  0  0  0
 30 46  1  0  0  0  0
 31 32  1  0  0  0  0
 31 39  1  0  0  0  0
 32 33  2  0  0  0  0
 32 34  2  0  0  0  0
 32 35  1  0  0  0  0
 35 36  1  0  0  0  0
 35 37  1  0  0  0  0
 35 38  1  0  0  0  0
 39 40  1  0  0  0  0
 39 43  1  0  0  0  0
 39 44  1  0  0  0  0
 40 41  1  0  0  0  0
 40 42  1  0  0  0  0
 54 55  2  0  0  0  0
 54 56  1  0  0  0  0
 56 57  2  0  0  0  0
 56 62  1  0  0  0  0
 57 58  1  0  0  0  0
 57 65  1  0  0  0  0
 58 59  2  0  0  0  0
 58 64  1  0  0  0  0
 59 60  1  0  0  0  0
 59 61  1  0  0  0  0
 61 62  2  0  0  0  0
 61 63  1  0  0  0  0
M  CHG  1  28   1
M  END
>  <MODEL>
       1

$$$$
