tmp_first_model_19_50.pdb
 OpenBabel08282503233D

 66 70  0  0  1  0  0  0  0  0999 V2000
   -7.6970    2.6340  -21.7720 C   0  0  0  0  0  0  0  0  0  0  0  0
   -8.7500    2.3720  -22.7370 N   0  0  0  0  0  0  0  0  0  0  0  0
   -8.4660    1.6730  -23.8640 C   0  0  0  0  0  0  0  0  0  0  0  0
   -7.3240    1.4330  -24.2300 O   0  0  0  0  0  0  0  0  0  0  0  0
   -9.6930    1.1270  -24.6040 C   0  0  0  0  0  0  0  0  0  0  0  0
  -10.1480   -0.0770  -23.9250 N   0  0  0  0  0  0  0  0  0  0  0  0
   -9.2560   -1.2260  -23.9000 C   0  0  0  0  0  0  0  0  0  0  0  0
   -9.3060   -1.9530  -22.5310 C   0  0  2  0  0  0  0  0  0  0  0  0
   -8.7070   -1.0170  -21.4440 C   0  0  0  0  0  0  0  0  0  0  0  0
   -9.2440   -0.0570  -20.9220 O   0  0  0  0  0  0  0  0  0  0  0  0
   -7.4130   -1.4220  -21.1890 N   0  0  0  0  0  0  0  0  0  0  0  0
   -6.6220   -0.8320  -20.1750 C   0  0  0  0  0  0  0  0  0  0  0  0
   -6.9390   -1.0460  -18.8550 C   0  0  0  0  0  0  0  0  0  0  0  0
   -6.2270   -0.5620  -17.8130 N   0  0  0  0  0  0  0  0  0  0  0  0
   -5.1830    0.1820  -18.0890 C   0  0  0  0  0  0  0  0  0  0  0  0
   -4.7430    0.4860  -19.4080 C   0  0  0  0  0  0  0  0  0  0  0  0
   -3.6210    1.3230  -19.6480 C   0  0  0  0  0  0  0  0  0  0  0  0
   -3.2440    1.6310  -20.9280 C   0  0  0  0  0  0  0  0  0  0  0  0
   -3.9680    1.1170  -22.0230 C   0  0  0  0  0  0  0  0  0  0  0  0
   -5.0580    0.2960  -21.8160 C   0  0  0  0  0  0  0  0  0  0  0  0
   -5.4740   -0.0430  -20.4970 C   0  0  0  0  0  0  0  0  0  0  0  0
   -5.6580   -0.0080  -22.6680 H   0  0  0  0  0  0  0  0  0  0  0  0
   -3.6850    1.3910  -23.0340 H   0  0  0  0  0  0  0  0  0  0  0  0
   -2.4010    2.2930  -21.1030 H   0  0  0  0  0  0  0  0  0  0  0  0
   -3.0950    1.7330  -18.7910 H   0  0  0  0  0  0  0  0  0  0  0  0
   -4.6290    0.5910  -17.2440 H   0  0  0  0  0  0  0  0  0  0  0  0
   -7.8000   -1.6600  -18.6040 H   0  0  0  0  0  0  0  0  0  0  0  0
   -6.9820   -2.5530  -21.9870 C   0  0  0  0  0  0  0  0  0  0  0  0
   -8.3200   -3.1470  -22.4580 C   0  0  2  0  0  0  0  0  0  0  0  0
   -8.2060   -3.9970  -23.7190 C   0  0  0  0  0  0  0  0  0  0  0  0
   -7.4380   -5.1490  -23.4620 O   0  0  0  0  0  0  0  0  0  0  0  0
   -6.1610   -5.2190  -24.0840 C   0  0  0  0  0  0  0  0  0  0  0  0
   -6.2690   -5.7340  -25.5150 C   0  0  0  0  0  0  0  0  0  0  0  0
   -6.8760   -5.0730  -26.1420 H   0  0  0  0  0  0  0  0  0  0  0  0
   -5.2740   -5.8100  -25.9670 H   0  0  0  0  0  0  0  0  0  0  0  0
   -6.7290   -6.7270  -25.5220 H   0  0  0  0  0  0  0  0  0  0  0  0
   -5.3310   -6.1340  -23.2030 C   0  0  0  0  0  0  0  0  0  0  0  0
   -5.7800   -7.1330  -23.1870 H   0  0  0  0  0  0  0  0  0  0  0  0
   -5.3170   -5.7460  -22.1790 H   0  0  0  0  0  0  0  0  0  0  0  0
   -4.3000   -6.2170  -23.5650 H   0  0  0  0  0  0  0  0  0  0  0  0
   -5.7070   -4.2130  -24.1020 H   0  0  0  0  0  0  0  0  0  0  0  0
   -7.7630   -3.3950  -24.5310 H   0  0  0  0  0  0  0  0  0  0  0  0
   -9.2110   -4.3100  -24.0400 H   0  0  0  0  0  0  0  0  0  0  0  0
   -8.6480   -3.8050  -21.6490 H   0  0  0  0  0  0  0  0  0  0  0  0
   -6.3510   -2.2400  -22.8350 H   0  0  0  0  0  0  0  0  0  0  0  0
   -6.3980   -3.2570  -21.3840 H   0  0  0  0  0  0  0  0  0  0  0  0
  -10.7680   -2.2890  -22.2860 C   0  0  0  0  0  0  0  0  0  0  0  0
  -11.1780   -3.4450  -21.6090 C   0  0  0  0  0  0  0  0  0  0  0  0
  -12.5090   -3.6080  -21.2820 C   0  0  0  0  0  0  0  0  0  0  0  0
  -12.8750   -4.6450  -20.5120 F   0  0  0  0  0  0  0  0  0  0  0  0
  -13.4970   -2.7190  -21.6710 C   0  0  0  0  0  0  0  0  0  0  0  0
  -13.1080   -1.5970  -22.3710 C   0  0  0  0  0  0  0  0  0  0  0  0
  -11.7650   -1.3790  -22.6760 C   0  0  0  0  0  0  0  0  0  0  0  0
  -11.4260   -0.1400  -23.4480 C   0  0  0  0  0  0  0  0  0  0  0  0
  -12.2470    0.7500  -23.6390 O   0  0  0  0  0  0  0  0  0  0  0  0
  -13.8350   -0.8750  -22.7190 H   0  0  0  0  0  0  0  0  0  0  0  0
  -14.5290   -2.9360  -21.4240 H   0  0  0  0  0  0  0  0  0  0  0  0
  -10.4880   -4.2090  -21.2770 H   0  0  0  0  0  0  0  0  0  0  0  0
   -9.5380   -1.9300  -24.6980 H   0  0  0  0  0  0  0  0  0  0  0  0
   -8.2460   -0.8610  -24.1000 H   0  0  0  0  0  0  0  0  0  0  0  0
  -10.5270    1.8320  -24.5910 H   0  0  0  0  0  0  0  0  0  0  0  0
   -9.4280    0.9080  -25.6480 H   0  0  0  0  0  0  0  0  0  0  0  0
   -9.6680    2.2350  -22.3430 H   0  0  0  0  0  0  0  0  0  0  0  0
   -6.9430    1.8530  -21.8360 H   0  0  0  0  0  0  0  0  0  0  0  0
   -8.1380    2.5540  -20.7830 H   0  0  0  0  0  0  0  0  0  0  0  0
   -7.2290    3.6150  -21.9220 H   0  0  0  0  0  0  0  0  0  0  0  0
  1  2  1  0  0  0  0
  1 64  1  0  0  0  0
  1 65  1  0  0  0  0
  1 66  1  0  0  0  0
  2  3  1  0  0  0  0
  2 63  1  0  0  0  0
  3  4  2  0  0  0  0
  3  5  1  0  0  0  0
  5  6  1  0  0  0  0
  5 61  1  0  0  0  0
  5 62  1  0  0  0  0
  6  7  1  0  0  0  0
  6 54  1  0  0  0  0
  7  8  1  0  0  0  0
  7 59  1  0  0  0  0
  7 60  1  0  0  0  0
  8  9  1  1  0  0  0
  8 29  1  0  0  0  0
  8 47  1  0  0  0  0
  9 10  2  0  0  0  0
  9 11  1  0  0  0  0
 11 12  1  0  0  0  0
 11 28  1  0  0  0  0
 12 13  2  0  0  0  0
 12 21  1  0  0  0  0
 13 14  1  0  0  0  0
 13 27  1  0  0  0  0
 14 15  2  0  0  0  0
 15 16  1  0  0  0  0
 15 26  1  0  0  0  0
 16 17  2  0  0  0  0
 16 21  1  0  0  0  0
 17 18  1  0  0  0  0
 17 25  1  0  0  0  0
 18 19  2  0  0  0  0
 18 24  1  0  0  0  0
 19 20  1  0  0  0  0
 19 23  1  0  0  0  0
 20 21  2  0  0  0  0
 20 22  1  0  0  0  0
 28 29  1  0  0  0  0
 28 45  1  0  0  0  0
 28 46  1  0  0  0  0
 29 30  1  0  0  0  0
 29 44  1  1  0  0  0
 30 31  1  0  0  0  0
 30 42  1  0  0  0  0
 30 43  1  0  0  0  0
 31 32  1  0  0  0  0
 32 33  1  0  0  0  0
 32 37  1  0  0  0  0
 32 41  1  0  0  0  0
 33 34  1  0  0  0  0
 33 35  1  0  0  0  0
 33 36  1  0  0  0  0
 37 38  1  0  0  0  0
 37 39  1  0  0  0  0
 37 40  1  0  0  0  0
 47 48  2  0  0  0  0
 47 53  1  0  0  0  0
 48 49  1  0  0  0  0
 48 58  1  0  0  0  0
 49 50  1  0  0  0  0
 49 51  2  0  0  0  0
 51 52  1  0  0  0  0
 51 57  1  0  0  0  0
 52 53  2  0  0  0  0
 52 56  1  0  0  0  0
 53 54  1  0  0  0  0
 54 55  2  0  0  0  0
M  END
>  <MODEL>
       1

$$$$
