tmp_first_model_15_10.pdb
 OpenBabel08282501153D

 57 62  0  0  1  0  0  0  0  0999 V2000
  -10.4540   -1.1570  -23.2790 C   0  0  0  0  0  0  0  0  0  0  0  0
   -9.0070   -1.4800  -22.9350 C   0  0  1  0  0  0  0  0  0  0  0  0
   -8.3940   -0.5240  -21.9030 C   0  0  0  0  0  0  0  0  0  0  0  0
   -7.4020   -1.3470  -21.2330 N   0  0  0  0  0  0  0  0  0  0  0  0
   -6.5880   -0.8500  -20.1890 C   0  0  0  0  0  0  0  0  0  0  0  0
   -6.9010   -1.1000  -18.8770 C   0  0  0  0  0  0  0  0  0  0  0  0
   -6.2340   -0.5730  -17.8190 N   0  0  0  0  0  0  0  0  0  0  0  0
   -5.2120    0.2070  -18.0800 C   0  0  0  0  0  0  0  0  0  0  0  0
   -4.7620    0.5180  -19.3950 C   0  0  0  0  0  0  0  0  0  0  0  0
   -3.6350    1.3460  -19.6300 C   0  0  0  0  0  0  0  0  0  0  0  0
   -3.2260    1.6100  -20.9080 C   0  0  0  0  0  0  0  0  0  0  0  0
   -3.9230    1.0670  -22.0100 C   0  0  0  0  0  0  0  0  0  0  0  0
   -5.0200    0.2660  -21.8120 C   0  0  0  0  0  0  0  0  0  0  0  0
   -5.4660   -0.0220  -20.4930 C   0  0  0  0  0  0  0  0  0  0  0  0
   -5.5450   -0.1600  -22.6620 H   0  0  0  0  0  0  0  0  0  0  0  0
   -3.5890    1.2900  -23.0190 H   0  0  0  0  0  0  0  0  0  0  0  0
   -2.3670    2.2500  -21.0860 H   0  0  0  0  0  0  0  0  0  0  0  0
   -3.1180    1.7670  -18.7730 H   0  0  0  0  0  0  0  0  0  0  0  0
   -4.6730    0.6340  -17.2310 H   0  0  0  0  0  0  0  0  0  0  0  0
   -7.7430   -1.7450  -18.6330 H   0  0  0  0  0  0  0  0  0  0  0  0
   -7.5640   -2.6990  -21.4490 C   0  0  0  0  0  0  0  0  0  0  0  0
   -6.8200   -3.5600  -21.0190 O   0  0  0  0  0  0  0  0  0  0  0  0
   -8.7860   -2.9160  -22.3470 C   0  0  1  0  0  0  0  0  0  0  0  0
   -9.9780   -3.3990  -21.4860 C   0  0  0  0  0  0  0  0  0  0  0  0
  -11.0990   -3.9020  -22.2740 N   0  0  0  0  0  0  0  0  0  0  0  0
  -12.4270   -3.9800  -21.6600 C   0  0  0  0  0  0  0  0  0  0  0  0
  -13.3600   -2.8660  -22.0450 C   0  0  0  0  0  0  0  0  0  0  0  0
  -13.9540   -1.8370  -21.3980 C   0  0  0  0  0  0  0  0  0  0  0  0
  -14.6670   -1.1160  -22.3370 N   0  3  0  0  0  0  0  0  0  0  0  0
  -14.5300   -1.7220  -23.5220 C   0  0  0  0  0  0  0  0  0  0  0  0
  -13.7560   -2.7930  -23.3640 N   0  0  0  0  0  0  0  0  0  0  0  0
  -13.3990   -3.4590  -24.0530 H   0  0  0  0  0  0  0  0  0  0  0  0
  -14.9450   -1.3950  -24.4540 H   0  0  0  0  0  0  0  0  0  0  0  0
  -15.1220   -0.2270  -22.1640 H   0  0  0  0  0  0  0  0  0  0  0  0
  -13.9920   -1.5490  -20.3580 H   0  0  0  0  0  0  0  0  0  0  0  0
  -12.8790   -4.8840  -22.0640 H   0  0  0  0  0  0  0  0  0  0  0  0
  -12.3430   -4.1240  -20.5790 H   0  0  0  0  0  0  0  0  0  0  0  0
  -10.9490   -4.4890  -23.4930 C   0  0  0  0  0  0  0  0  0  0  0  0
  -11.9180   -4.7850  -24.2000 O   0  0  0  0  0  0  0  0  0  0  0  0
   -9.5490   -4.7110  -23.9440 C   0  0  0  0  0  0  0  0  0  0  0  0
   -9.2980   -5.6810  -24.9100 C   0  0  0  0  0  0  0  0  0  0  0  0
   -8.0250   -5.8620  -25.4150 C   0  0  0  0  0  0  0  0  0  0  0  0
   -7.0230   -5.0200  -24.9490 C   0  0  0  0  0  0  0  0  0  0  0  0
   -5.7960   -5.1340  -25.4800 F   0  0  0  0  0  0  0  0  0  0  0  0
   -7.2290   -4.0860  -23.9530 C   0  0  0  0  0  0  0  0  0  0  0  0
   -8.5100   -3.9440  -23.4130 C   0  0  0  0  0  0  0  0  0  0  0  0
   -6.3970   -3.4910  -23.5910 H   0  0  0  0  0  0  0  0  0  0  0  0
   -7.7990   -6.6190  -26.1620 H   0  0  0  0  0  0  0  0  0  0  0  0
  -10.1220   -6.2910  -25.2570 H   0  0  0  0  0  0  0  0  0  0  0  0
   -9.6470   -4.1880  -20.8080 H   0  0  0  0  0  0  0  0  0  0  0  0
  -10.3240   -2.5520  -20.8850 H   0  0  0  0  0  0  0  0  0  0  0  0
   -7.9280    0.3510  -22.3710 H   0  0  0  0  0  0  0  0  0  0  0  0
   -9.1490   -0.1560  -21.1890 H   0  0  0  0  0  0  0  0  0  0  0  0
   -8.3970   -1.4290  -23.8490 H   0  0  0  0  0  0  0  0  0  0  0  0
  -11.0650   -1.1530  -22.3700 H   0  0  0  0  0  0  0  0  0  0  0  0
  -10.8510   -1.9260  -23.9470 H   0  0  0  0  0  0  0  0  0  0  0  0
  -10.5410   -0.1810  -23.7630 H   0  0  0  0  0  0  0  0  0  0  0  0
  1  2  1  0  0  0  0
  1 55  1  0  0  0  0
  1 56  1  0  0  0  0
  1 57  1  0  0  0  0
  2  3  1  0  0  0  0
  2 23  1  0  0  0  0
  2 54  1  6  0  0  0
  3  4  1  0  0  0  0
  3 52  1  0  0  0  0
  3 53  1  0  0  0  0
  4  5  1  0  0  0  0
  4 21  1  0  0  0  0
  5  6  2  0  0  0  0
  5 14  1  0  0  0  0
  6  7  1  0  0  0  0
  6 20  1  0  0  0  0
  7  8  2  0  0  0  0
  8  9  1  0  0  0  0
  8 19  1  0  0  0  0
  9 10  2  0  0  0  0
  9 14  1  0  0  0  0
 10 11  1  0  0  0  0
 10 18  1  0  0  0  0
 11 12  2  0  0  0  0
 11 17  1  0  0  0  0
 12 13  1  0  0  0  0
 12 16  1  0  0  0  0
 13 14  2  0  0  0  0
 13 15  1  0  0  0  0
 21 22  2  0  0  0  0
 23 21  1  1  0  0  0
 23 24  1  0  0  0  0
 23 46  1  0  0  0  0
 24 25  1  0  0  0  0
 24 50  1  0  0  0  0
 24 51  1  0  0  0  0
 25 26  1  0  0  0  0
 25 38  1  0  0  0  0
 26 27  1  0  0  0  0
 26 36  1  0  0  0  0
 26 37  1  0  0  0  0
 27 28  2  0  0  0  0
 27 31  1  0  0  0  0
 28 29  1  0  0  0  0
 28 35  1  0  0  0  0
 29 30  2  0  0  0  0
 29 34  1  0  0  0  0
 30 31  1  0  0  0  0
 30 33  1  0  0  0  0
 31 32  1  0  0  0  0
 38 39  2  0  0  0  0
 38 40  1  0  0  0  0
 40 41  2  0  0  0  0
 40 46  1  0  0  0  0
 41 42  1  0  0  0  0
 41 49  1  0  0  0  0
 42 43  2  0  0  0  0
 42 48  1  0  0  0  0
 43 44  1  0  0  0  0
 43 45  1  0  0  0  0
 45 46  2  0  0  0  0
 45 47  1  0  0  0  0
M  CHG  1  29   1
M  END
>  <MODEL>
       1

$$$$
