tmp_first_model_16_45.pdb
 OpenBabel08282501503D

 66 71  0  0  1  0  0  0  0  0999 V2000
   -7.4270    3.3660  -21.8180 C   0  0  0  0  0  0  0  0  0  0  0  0
   -8.2980    2.8830  -22.8760 N   0  0  0  0  0  0  0  0  0  0  0  0
   -7.7370    2.1850  -23.9010 C   0  0  0  0  0  0  0  0  0  0  0  0
   -6.5280    2.0490  -24.0260 O   0  0  0  0  0  0  0  0  0  0  0  0
   -8.7220    1.5830  -24.9040 C   0  0  0  0  0  0  0  0  0  0  0  0
   -9.4160    0.4420  -24.3490 N   0  0  0  0  0  0  0  0  0  0  0  0
   -8.6800   -0.7940  -24.1810 C   0  0  0  0  0  0  0  0  0  0  0  0
   -9.0740   -1.5230  -22.8790 C   0  0  2  0  0  0  0  0  0  0  0  0
   -8.5460   -0.7410  -21.6550 C   0  0  0  0  0  0  0  0  0  0  0  0
   -9.0210    0.2520  -21.1470 O   0  0  0  0  0  0  0  0  0  0  0  0
   -7.4040   -1.3680  -21.2280 N   0  0  0  0  0  0  0  0  0  0  0  0
   -6.6090   -0.8380  -20.1960 C   0  0  0  0  0  0  0  0  0  0  0  0
   -6.9250   -1.1170  -18.8960 C   0  0  0  0  0  0  0  0  0  0  0  0
   -6.1570   -0.7710  -17.8400 N   0  0  0  0  0  0  0  0  0  0  0  0
   -5.0910   -0.0470  -18.0920 C   0  0  0  0  0  0  0  0  0  0  0  0
   -4.7120    0.4020  -19.3910 C   0  0  0  0  0  0  0  0  0  0  0  0
   -3.6170    1.2780  -19.6120 C   0  0  0  0  0  0  0  0  0  0  0  0
   -3.2550    1.6250  -20.8840 C   0  0  0  0  0  0  0  0  0  0  0  0
   -3.9730    1.1350  -21.9970 C   0  0  0  0  0  0  0  0  0  0  0  0
   -5.0660    0.3250  -21.8100 C   0  0  0  0  0  0  0  0  0  0  0  0
   -5.4670   -0.0430  -20.4960 C   0  0  0  0  0  0  0  0  0  0  0  0
   -5.6310   -0.0240  -22.6690 H   0  0  0  0  0  0  0  0  0  0  0  0
   -3.6660    1.3990  -23.0030 H   0  0  0  0  0  0  0  0  0  0  0  0
   -2.4030    2.2770  -21.0510 H   0  0  0  0  0  0  0  0  0  0  0  0
   -3.0930    1.6800  -18.7500 H   0  0  0  0  0  0  0  0  0  0  0  0
   -4.4600    0.2270  -17.2490 H   0  0  0  0  0  0  0  0  0  0  0  0
   -7.8510   -1.6450  -18.6820 H   0  0  0  0  0  0  0  0  0  0  0  0
   -7.0580   -2.5680  -21.9480 C   0  0  0  0  0  0  0  0  0  0  0  0
   -8.3290   -2.8870  -22.7420 C   0  0  2  0  0  0  0  0  0  0  0  0
   -8.0310   -3.6810  -24.0280 C   0  0  0  0  0  0  0  0  0  0  0  0
   -7.4760   -5.0660  -23.7700 C   0  0  0  0  0  0  0  0  0  0  0  0
   -8.3410   -6.1350  -23.5290 C   0  0  0  0  0  0  0  0  0  0  0  0
   -7.8500   -7.4110  -23.2690 C   0  0  0  0  0  0  0  0  0  0  0  0
   -6.4810   -7.6360  -23.2200 C   0  0  0  0  0  0  0  0  0  0  0  0
   -5.6050   -6.5850  -23.4660 C   0  0  0  0  0  0  0  0  0  0  0  0
   -6.0990   -5.3130  -23.7440 C   0  0  0  0  0  0  0  0  0  0  0  0
   -5.4000   -4.5030  -23.9500 H   0  0  0  0  0  0  0  0  0  0  0  0
   -4.5340   -6.7620  -23.4530 H   0  0  0  0  0  0  0  0  0  0  0  0
   -6.0970   -8.6260  -22.9890 H   0  0  0  0  0  0  0  0  0  0  0  0
   -8.5410   -8.2350  -23.1150 H   0  0  0  0  0  0  0  0  0  0  0  0
   -9.4170   -5.9670  -23.5520 H   0  0  0  0  0  0  0  0  0  0  0  0
   -8.9520   -3.7600  -24.6190 H   0  0  0  0  0  0  0  0  0  0  0  0
   -7.3180   -3.1120  -24.6370 H   0  0  0  0  0  0  0  0  0  0  0  0
   -8.9600   -3.5210  -22.1170 H   0  0  0  0  0  0  0  0  0  0  0  0
   -6.7960   -3.3690  -21.2510 H   0  0  0  0  0  0  0  0  0  0  0  0
   -6.1940   -2.4130  -22.6130 H   0  0  0  0  0  0  0  0  0  0  0  0
  -10.5820   -1.5880  -22.8160 C   0  0  0  0  0  0  0  0  0  0  0  0
  -11.2150   -2.4950  -21.9630 C   0  0  0  0  0  0  0  0  0  0  0  0
  -12.5950   -2.4970  -21.8660 C   0  0  0  0  0  0  0  0  0  0  0  0
  -13.3540   -3.5830  -20.7420 Cl  0  0  0  0  0  0  0  0  0  0  0  0
  -13.3940   -1.6310  -22.6120 C   0  0  0  0  0  0  0  0  0  0  0  0
  -12.7710   -0.7050  -23.4210 C   0  0  0  0  0  0  0  0  0  0  0  0
  -11.3810   -0.6580  -23.4930 C   0  0  0  0  0  0  0  0  0  0  0  0
  -10.7780    0.4750  -24.2600 C   0  0  0  0  0  0  0  0  0  0  0  0
  -11.4520    1.3740  -24.7380 O   0  0  0  0  0  0  0  0  0  0  0  0
  -13.3330    0.0220  -23.9930 H   0  0  0  0  0  0  0  0  0  0  0  0
  -14.4750   -1.6800  -22.5210 H   0  0  0  0  0  0  0  0  0  0  0  0
  -10.6400   -3.1880  -21.3570 H   0  0  0  0  0  0  0  0  0  0  0  0
   -8.8870   -1.4600  -25.0270 H   0  0  0  0  0  0  0  0  0  0  0  0
   -7.6100   -0.5620  -24.1850 H   0  0  0  0  0  0  0  0  0  0  0  0
   -9.4880    2.3100  -25.1930 H   0  0  0  0  0  0  0  0  0  0  0  0
   -8.1440    1.2890  -25.7840 H   0  0  0  0  0  0  0  0  0  0  0  0
   -9.2650    2.7050  -22.6300 H   0  0  0  0  0  0  0  0  0  0  0  0
   -6.6510    4.0000  -22.2510 H   0  0  0  0  0  0  0  0  0  0  0  0
   -7.9890    3.9860  -21.1180 H   0  0  0  0  0  0  0  0  0  0  0  0
   -6.9310    2.5390  -21.2840 H   0  0  0  0  0  0  0  0  0  0  0  0
  1  2  1  0  0  0  0
  1 64  1  0  0  0  0
  1 65  1  0  0  0  0
  1 66  1  0  0  0  0
  2  3  1  0  0  0  0
  2 63  1  0  0  0  0
  3  4  2  0  0  0  0
  3  5  1  0  0  0  0
  5  6  1  0  0  0  0
  5 61  1  0  0  0  0
  5 62  1  0  0  0  0
  6  7  1  0  0  0  0
  6 54  1  0  0  0  0
  7  8  1  0  0  0  0
  7 59  1  0  0  0  0
  7 60  1  0  0  0  0
  8  9  1  1  0  0  0
  8 29  1  0  0  0  0
  8 47  1  0  0  0  0
  9 10  2  0  0  0  0
  9 11  1  0  0  0  0
 11 12  1  0  0  0  0
 11 28  1  0  0  0  0
 12 13  2  0  0  0  0
 12 21  1  0  0  0  0
 13 14  1  0  0  0  0
 13 27  1  0  0  0  0
 14 15  2  0  0  0  0
 15 16  1  0  0  0  0
 15 26  1  0  0  0  0
 16 17  2  0  0  0  0
 16 21  1  0  0  0  0
 17 18  1  0  0  0  0
 17 25  1  0  0  0  0
 18 19  2  0  0  0  0
 18 24  1  0  0  0  0
 19 20  1  0  0  0  0
 19 23  1  0  0  0  0
 20 21  2  0  0  0  0
 20 22  1  0  0  0  0
 28 29  1  0  0  0  0
 28 45  1  0  0  0  0
 28 46  1  0  0  0  0
 29 30  1  0  0  0  0
 29 44  1  1  0  0  0
 30 31  1  0  0  0  0
 30 42  1  0  0  0  0
 30 43  1  0  0  0  0
 31 32  2  0  0  0  0
 31 36  1  0  0  0  0
 32 33  1  0  0  0  0
 32 41  1  0  0  0  0
 33 34  2  0  0  0  0
 33 40  1  0  0  0  0
 34 35  1  0  0  0  0
 34 39  1  0  0  0  0
 35 36  2  0  0  0  0
 35 38  1  0  0  0  0
 36 37  1  0  0  0  0
 47 48  2  0  0  0  0
 47 53  1  0  0  0  0
 48 49  1  0  0  0  0
 48 58  1  0  0  0  0
 49 50  1  0  0  0  0
 49 51  2  0  0  0  0
 51 52  1  0  0  0  0
 51 57  1  0  0  0  0
 52 53  2  0  0  0  0
 52 56  1  0  0  0  0
 53 54  1  0  0  0  0
 54 55  2  0  0  0  0
M  END
>  <MODEL>
       1

$$$$
