tmp_first_model_18_69.pdb
 OpenBabel08282502533D

 63 67  0  0  0  0  0  0  0  0999 V2000
   -9.7620   -6.5010  -28.0810 C   0  0  0  0  0  0  0  0  0  0  0  0
  -10.0750   -5.4840  -27.2730 C   0  0  0  0  0  0  0  0  0  0  0  0
   -9.0250   -4.6180  -26.6510 C   0  0  0  0  0  0  0  0  0  0  0  0
   -7.8450   -4.7780  -26.9150 O   0  0  0  0  0  0  0  0  0  0  0  0
   -9.4690   -3.6380  -25.7610 N   0  0  0  0  0  0  0  0  0  0  0  0
  -10.8130   -3.7670  -25.1930 C   0  0  0  0  0  0  0  0  0  0  0  0
  -11.1830   -2.6200  -24.2680 C   0  0  0  0  0  0  0  0  0  0  0  0
  -10.0060   -2.1700  -23.4200 C   0  0  0  0  0  0  0  0  0  0  0  0
   -8.8710   -1.7490  -24.3210 C   0  0  0  0  0  0  0  0  0  0  0  0
   -8.6710   -2.4920  -25.5040 C   0  0  0  0  0  0  0  0  0  0  0  0
   -7.7470   -2.0510  -26.4580 C   0  0  0  0  0  0  0  0  0  0  0  0
   -7.0250   -0.8910  -26.2430 C   0  0  0  0  0  0  0  0  0  0  0  0
   -7.1470   -0.1910  -25.0460 C   0  0  0  0  0  0  0  0  0  0  0  0
   -8.0520   -0.6450  -24.0920 C   0  0  0  0  0  0  0  0  0  0  0  0
   -8.1570    0.2040  -22.7940 N   0  3  0  0  0  0  0  0  0  0  0  0
   -9.2780    1.3460  -22.8140 C   0  0  0  0  0  0  0  0  0  0  0  0
   -9.1160    2.2540  -23.9910 C   0  0  0  0  0  0  0  0  0  0  0  0
   -8.4490    3.4710  -23.8600 C   0  0  0  0  0  0  0  0  0  0  0  0
   -8.2070    4.2630  -24.9740 C   0  0  0  0  0  0  0  0  0  0  0  0
   -8.6430    3.8590  -26.2290 C   0  0  0  0  0  0  0  0  0  0  0  0
   -9.3630    2.6750  -26.3450 C   0  0  0  0  0  0  0  0  0  0  0  0
   -9.9640    2.2230  -27.9180 Cl  0  0  0  0  0  0  0  0  0  0  0  0
   -9.6100    1.8710  -25.2430 C   0  0  0  0  0  0  0  0  0  0  0  0
  -10.0870    0.8980  -25.3500 H   0  0  0  0  0  0  0  0  0  0  0  0
   -8.4290    4.4450  -27.1160 H   0  0  0  0  0  0  0  0  0  0  0  0
   -7.6610    5.1960  -24.8620 H   0  0  0  0  0  0  0  0  0  0  0  0
   -8.0800    3.7750  -22.8830 H   0  0  0  0  0  0  0  0  0  0  0  0
   -9.2180    1.8760  -21.8610 H   0  0  0  0  0  0  0  0  0  0  0  0
  -10.2260    0.8100  -22.8660 H   0  0  0  0  0  0  0  0  0  0  0  0
   -8.2010   -0.5050  -21.5190 C   0  0  0  0  0  0  0  0  0  0  0  0
   -9.0460   -0.2180  -20.7070 O   0  0  0  0  0  0  0  0  0  0  0  0
   -7.1320   -1.5490  -21.2120 C   0  0  0  0  0  0  0  0  0  0  0  0
   -6.2710   -1.0190  -20.0960 C   0  0  0  0  0  0  0  0  0  0  0  0
   -6.6220   -1.2080  -18.7840 C   0  0  0  0  0  0  0  0  0  0  0  0
   -6.0230   -0.6120  -17.7200 N   0  0  0  0  0  0  0  0  0  0  0  0
   -5.0380    0.2160  -17.9780 C   0  0  0  0  0  0  0  0  0  0  0  0
   -4.5640    0.5020  -19.2900 C   0  0  0  0  0  0  0  0  0  0  0  0
   -3.5220    1.4310  -19.5340 C   0  0  0  0  0  0  0  0  0  0  0  0
   -3.1390    1.7300  -20.8120 C   0  0  0  0  0  0  0  0  0  0  0  0
   -3.7630    1.0940  -21.9090 C   0  0  0  0  0  0  0  0  0  0  0  0
   -4.7530    0.1680  -21.6960 C   0  0  0  0  0  0  0  0  0  0  0  0
   -5.1930   -0.1390  -20.3810 C   0  0  0  0  0  0  0  0  0  0  0  0
   -5.2090   -0.3160  -22.5560 H   0  0  0  0  0  0  0  0  0  0  0  0
   -3.4660    1.3420  -22.9250 H   0  0  0  0  0  0  0  0  0  0  0  0
   -2.3470    2.4480  -20.9970 H   0  0  0  0  0  0  0  0  0  0  0  0
   -3.0330    1.8930  -18.6790 H   0  0  0  0  0  0  0  0  0  0  0  0
   -4.5670    0.7180  -17.1300 H   0  0  0  0  0  0  0  0  0  0  0  0
   -7.4590   -1.8640  -18.5470 H   0  0  0  0  0  0  0  0  0  0  0  0
   -6.5710   -1.8000  -22.1120 H   0  0  0  0  0  0  0  0  0  0  0  0
   -7.6650   -2.4450  -20.8780 H   0  0  0  0  0  0  0  0  0  0  0  0
   -7.2460    0.7270  -22.8150 H   0  0  0  0  0  0  0  0  0  0  0  0
   -6.5870    0.7320  -24.8980 H   0  0  0  0  0  0  0  0  0  0  0  0
   -6.3560   -0.5460  -27.0310 H   0  0  0  0  0  0  0  0  0  0  0  0
   -7.6070   -2.6070  -27.3760 H   0  0  0  0  0  0  0  0  0  0  0  0
   -9.6610   -2.9690  -22.7490 H   0  0  0  0  0  0  0  0  0  0  0  0
  -10.3140   -1.3380  -22.7830 H   0  0  0  0  0  0  0  0  0  0  0  0
  -11.5330   -1.7690  -24.8680 H   0  0  0  0  0  0  0  0  0  0  0  0
  -12.0220   -2.9330  -23.6390 H   0  0  0  0  0  0  0  0  0  0  0  0
  -10.8810   -4.7360  -24.6780 H   0  0  0  0  0  0  0  0  0  0  0  0
  -11.5290   -3.7780  -26.0170 H   0  0  0  0  0  0  0  0  0  0  0  0
  -11.1200   -5.2760  -27.0930 H   0  0  0  0  0  0  0  0  0  0  0  0
   -8.7330   -6.7620  -28.3100 H   0  0  0  0  0  0  0  0  0  0  0  0
  -10.5530   -7.1050  -28.5170 H   0  0  0  0  0  0  0  0  0  0  0  0
  1  2  2  0  0  0  0
  1 62  1  0  0  0  0
  1 63  1  0  0  0  0
  2  3  1  0  0  0  0
  2 61  1  0  0  0  0
  3  4  2  0  0  0  0
  3  5  1  0  0  0  0
  5  6  1  0  0  0  0
  5 10  1  0  0  0  0
  6  7  1  0  0  0  0
  6 59  1  0  0  0  0
  6 60  1  0  0  0  0
  7  8  1  0  0  0  0
  7 57  1  0  0  0  0
  7 58  1  0  0  0  0
  8  9  1  0  0  0  0
  8 55  1  0  0  0  0
  8 56  1  0  0  0  0
  9 10  2  0  0  0  0
  9 14  1  0  0  0  0
 10 11  1  0  0  0  0
 11 12  2  0  0  0  0
 11 54  1  0  0  0  0
 12 13  1  0  0  0  0
 12 53  1  0  0  0  0
 13 14  2  0  0  0  0
 13 52  1  0  0  0  0
 14 15  1  0  0  0  0
 15 16  1  0  0  0  0
 15 30  1  0  0  0  0
 15 51  1  0  0  0  0
 16 17  1  0  0  0  0
 16 28  1  0  0  0  0
 16 29  1  0  0  0  0
 17 18  2  0  0  0  0
 17 23  1  0  0  0  0
 18 19  1  0  0  0  0
 18 27  1  0  0  0  0
 19 20  2  0  0  0  0
 19 26  1  0  0  0  0
 20 21  1  0  0  0  0
 20 25  1  0  0  0  0
 21 22  1  0  0  0  0
 21 23  2  0  0  0  0
 23 24  1  0  0  0  0
 30 31  2  0  0  0  0
 30 32  1  0  0  0  0
 32 33  1  0  0  0  0
 32 49  1  0  0  0  0
 32 50  1  0  0  0  0
 33 34  2  0  0  0  0
 33 42  1  0  0  0  0
 34 35  1  0  0  0  0
 34 48  1  0  0  0  0
 35 36  2  0  0  0  0
 36 37  1  0  0  0  0
 36 47  1  0  0  0  0
 37 38  2  0  0  0  0
 37 42  1  0  0  0  0
 38 39  1  0  0  0  0
 38 46  1  0  0  0  0
 39 40  2  0  0  0  0
 39 45  1  0  0  0  0
 40 41  1  0  0  0  0
 40 44  1  0  0  0  0
 41 42  2  0  0  0  0
 41 43  1  0  0  0  0
M  CHG  1  15   1
M  END
>  <MODEL>
       1

$$$$
