tmp_first_model_8_86.pdb
 OpenBabel08272521063D

 43 45  0  0  1  0  0  0  0  0999 V2000
   -8.0630    0.6700  -26.8260 C   0  0  0  0  0  0  0  0  0  0  0  0
   -9.2920    0.2990  -25.9920 C   0  0  1  0  0  0  0  0  0  0  0  0
   -9.1810   -1.0860  -25.3620 C   0  0  0  0  0  0  0  0  0  0  0  0
   -8.2210   -1.1240  -24.1740 C   0  0  0  0  0  0  0  0  0  0  0  0
   -8.5880   -0.1340  -23.1740 N   0  0  0  0  0  0  0  0  0  0  0  0
   -8.4520   -0.3480  -21.8110 C   0  0  0  0  0  0  0  0  0  0  0  0
   -9.1110    0.2760  -21.0010 O   0  0  0  0  0  0  0  0  0  0  0  0
   -7.4400   -1.3980  -21.2840 C   0  0  0  0  0  0  0  0  0  0  0  0
   -6.5750   -0.8300  -20.1770 C   0  0  0  0  0  0  0  0  0  0  0  0
   -6.8770   -1.0420  -18.8560 C   0  0  0  0  0  0  0  0  0  0  0  0
   -6.1880   -0.5420  -17.7950 N   0  0  0  0  0  0  0  0  0  0  0  0
   -5.1550    0.2210  -18.0630 C   0  0  0  0  0  0  0  0  0  0  0  0
   -4.7210    0.5350  -19.3790 C   0  0  0  0  0  0  0  0  0  0  0  0
   -3.6000    1.3700  -19.6200 C   0  0  0  0  0  0  0  0  0  0  0  0
   -3.2210    1.6730  -20.8990 C   0  0  0  0  0  0  0  0  0  0  0  0
   -3.9570    1.1560  -21.9880 C   0  0  0  0  0  0  0  0  0  0  0  0
   -5.0300    0.3250  -21.7830 C   0  0  0  0  0  0  0  0  0  0  0  0
   -5.4500   -0.0040  -20.4690 C   0  0  0  0  0  0  0  0  0  0  0  0
   -5.5580   -0.0760  -22.6440 H   0  0  0  0  0  0  0  0  0  0  0  0
   -3.6270    1.3750  -22.9990 H   0  0  0  0  0  0  0  0  0  0  0  0
   -2.3580    2.3050  -21.0890 H   0  0  0  0  0  0  0  0  0  0  0  0
   -3.0610    1.7800  -18.7690 H   0  0  0  0  0  0  0  0  0  0  0  0
   -4.6020    0.6280  -17.2150 H   0  0  0  0  0  0  0  0  0  0  0  0
   -7.7300   -1.6610  -18.5820 H   0  0  0  0  0  0  0  0  0  0  0  0
   -6.8150   -1.8220  -22.0790 H   0  0  0  0  0  0  0  0  0  0  0  0
   -8.0340   -2.2190  -20.8610 H   0  0  0  0  0  0  0  0  0  0  0  0
   -8.7950    1.2540  -23.6200 C   0  0  1  0  0  0  0  0  0  0  0  0
   -7.4730    2.0310  -23.7180 C   0  0  0  0  0  0  0  0  0  0  0  0
   -7.6280    3.0140  -24.1760 H   0  0  0  0  0  0  0  0  0  0  0  0
   -6.7270    1.5030  -24.3190 H   0  0  0  0  0  0  0  0  0  0  0  0
   -7.0430    2.2000  -22.7230 H   0  0  0  0  0  0  0  0  0  0  0  0
   -9.6460    1.3100  -24.8980 C   0  0  0  0  0  0  0  0  0  0  0  0
  -10.6940    1.1630  -24.6140 H   0  0  0  0  0  0  0  0  0  0  0  0
   -9.5910    2.3230  -25.3140 H   0  0  0  0  0  0  0  0  0  0  0  0
   -9.3800    1.7290  -22.8310 H   0  0  0  0  0  0  0  0  0  0  0  0
   -7.1820   -1.0060  -24.5230 H   0  0  0  0  0  0  0  0  0  0  0  0
   -8.2840   -2.1080  -23.7090 H   0  0  0  0  0  0  0  0  0  0  0  0
   -8.8540   -1.8110  -26.1120 H   0  0  0  0  0  0  0  0  0  0  0  0
  -10.1690   -1.4130  -25.0220 H   0  0  0  0  0  0  0  0  0  0  0  0
  -10.1390    0.2830  -26.6910 H   0  0  0  0  0  0  0  0  0  0  0  0
   -7.1250    0.5610  -26.2740 H   0  0  0  0  0  0  0  0  0  0  0  0
   -8.1180    1.7060  -27.1730 H   0  0  0  0  0  0  0  0  0  0  0  0
   -7.9920    0.0260  -27.7110 H   0  0  0  0  0  0  0  0  0  0  0  0
  1  2  1  0  0  0  0
  1 41  1  0  0  0  0
  1 42  1  0  0  0  0
  1 43  1  0  0  0  0
  2  3  1  0  0  0  0
  2 32  1  0  0  0  0
  2 40  1  6  0  0  0
  3  4  1  0  0  0  0
  3 38  1  0  0  0  0
  3 39  1  0  0  0  0
  4  5  1  0  0  0  0
  4 36  1  0  0  0  0
  4 37  1  0  0  0  0
  5  6  1  0  0  0  0
  5 27  1  0  0  0  0
  6  7  2  0  0  0  0
  6  8  1  0  0  0  0
  8  9  1  0  0  0  0
  8 25  1  0  0  0  0
  8 26  1  0  0  0  0
  9 10  2  0  0  0  0
  9 18  1  0  0  0  0
 10 11  1  0  0  0  0
 10 24  1  0  0  0  0
 11 12  2  0  0  0  0
 12 13  1  0  0  0  0
 12 23  1  0  0  0  0
 13 14  2  0  0  0  0
 13 18  1  0  0  0  0
 14 15  1  0  0  0  0
 14 22  1  0  0  0  0
 15 16  2  0  0  0  0
 15 21  1  0  0  0  0
 16 17  1  0  0  0  0
 16 20  1  0  0  0  0
 17 18  2  0  0  0  0
 17 19  1  0  0  0  0
 27 28  1  0  0  0  0
 27 32  1  0  0  0  0
 27 35  1  1  0  0  0
 28 29  1  0  0  0  0
 28 30  1  0  0  0  0
 28 31  1  0  0  0  0
 32 33  1  0  0  0  0
 32 34  1  0  0  0  0
M  END
>  <MODEL>
       1

$$$$
