tmp_first_model_6_21.pdb
 OpenBabel08272519583D

 63 68  0  0  1  0  0  0  0  0999 V2000
  -10.2000   -2.9820  -22.0660 C   0  0  0  0  0  0  0  0  0  0  0  0
   -9.1330   -2.0400  -22.6360 C   0  0  1  0  0  0  0  0  0  0  0  0
   -8.6690   -1.0370  -21.5650 C   0  0  0  0  0  0  0  0  0  0  0  0
   -7.3430   -1.4800  -21.2000 N   0  0  0  0  0  0  0  0  0  0  0  0
   -6.5810   -0.8540  -20.1900 C   0  0  0  0  0  0  0  0  0  0  0  0
   -6.9160   -1.0630  -18.8790 C   0  0  0  0  0  0  0  0  0  0  0  0
   -6.2400   -0.5610  -17.8210 N   0  0  0  0  0  0  0  0  0  0  0  0
   -5.2040    0.1990  -18.0880 C   0  0  0  0  0  0  0  0  0  0  0  0
   -4.7700    0.5280  -19.4040 C   0  0  0  0  0  0  0  0  0  0  0  0
   -3.6440    1.3630  -19.6200 C   0  0  0  0  0  0  0  0  0  0  0  0
   -3.2710    1.7070  -20.8890 C   0  0  0  0  0  0  0  0  0  0  0  0
   -4.0150    1.2420  -21.9970 C   0  0  0  0  0  0  0  0  0  0  0  0
   -5.0930    0.4090  -21.8210 C   0  0  0  0  0  0  0  0  0  0  0  0
   -5.4880    0.0140  -20.5070 C   0  0  0  0  0  0  0  0  0  0  0  0
   -5.6260    0.0310  -22.6950 H   0  0  0  0  0  0  0  0  0  0  0  0
   -3.7060    1.5230  -22.9990 H   0  0  0  0  0  0  0  0  0  0  0  0
   -2.4090    2.3460  -21.0520 H   0  0  0  0  0  0  0  0  0  0  0  0
   -3.1020    1.7280  -18.7520 H   0  0  0  0  0  0  0  0  0  0  0  0
   -4.6500    0.6020  -17.2390 H   0  0  0  0  0  0  0  0  0  0  0  0
   -7.7710   -1.6970  -18.6490 H   0  0  0  0  0  0  0  0  0  0  0  0
   -6.8090   -2.4490  -22.0130 C   0  0  0  0  0  0  0  0  0  0  0  0
   -5.7250   -2.9720  -21.8410 O   0  0  0  0  0  0  0  0  0  0  0  0
   -7.8210   -2.7200  -23.1460 C   0  0  1  0  0  0  0  0  0  0  0  0
   -7.9870   -4.2330  -23.3630 C   0  0  0  0  0  0  0  0  0  0  0  0
   -6.8080   -4.8180  -23.9770 N   0  0  0  0  0  0  0  0  0  0  0  0
   -6.4330   -6.1630  -23.5810 C   0  0  0  0  0  0  0  0  0  0  0  0
   -7.4400   -7.1650  -24.1530 C   0  0  0  0  0  0  0  0  0  0  0  0
   -8.3840   -7.5940  -23.5150 O   0  0  0  0  0  0  0  0  0  0  0  0
   -7.2120   -7.4660  -25.4670 N   0  0  0  0  0  0  0  0  0  0  0  0
   -8.3600   -7.9100  -26.2510 C   0  0  0  0  0  0  0  0  0  0  0  0
   -9.3650   -6.7950  -26.4320 C   0  0  0  0  0  0  0  0  0  0  0  0
   -8.9940   -5.5810  -27.2360 C   0  0  0  0  0  0  0  0  0  0  0  0
  -10.0380   -6.5430  -27.7440 C   0  0  0  0  0  0  0  0  0  0  0  0
  -11.0800   -6.2390  -27.7240 H   0  0  0  0  0  0  0  0  0  0  0  0
   -9.7670   -7.1820  -28.5820 H   0  0  0  0  0  0  0  0  0  0  0  0
   -8.0290   -5.5900  -27.7430 H   0  0  0  0  0  0  0  0  0  0  0  0
   -9.3150   -4.6140  -26.8540 H   0  0  0  0  0  0  0  0  0  0  0  0
   -9.9630   -6.6210  -25.5400 H   0  0  0  0  0  0  0  0  0  0  0  0
   -7.9830   -8.2690  -27.2150 H   0  0  0  0  0  0  0  0  0  0  0  0
   -8.8360   -8.7520  -25.7410 H   0  0  0  0  0  0  0  0  0  0  0  0
   -6.5520   -6.8510  -25.9390 H   0  0  0  0  0  0  0  0  0  0  0  0
   -5.4230   -6.3590  -23.9540 H   0  0  0  0  0  0  0  0  0  0  0  0
   -6.4380   -6.2070  -22.4910 H   0  0  0  0  0  0  0  0  0  0  0  0
   -6.2870   -4.3060  -25.1220 C   0  0  0  0  0  0  0  0  0  0  0  0
   -5.5990   -4.9860  -25.8840 O   0  0  0  0  0  0  0  0  0  0  0  0
   -6.5950   -2.8660  -25.3800 C   0  0  0  0  0  0  0  0  0  0  0  0
   -6.1240   -2.3030  -26.5630 C   0  0  0  0  0  0  0  0  0  0  0  0
   -6.3530   -0.9750  -26.8560 C   0  0  0  0  0  0  0  0  0  0  0  0
   -7.0550   -0.2260  -25.9220 C   0  0  0  0  0  0  0  0  0  0  0  0
   -7.2890    1.0670  -26.1970 F   0  0  0  0  0  0  0  0  0  0  0  0
   -7.5300   -0.7520  -24.7370 C   0  0  0  0  0  0  0  0  0  0  0  0
   -7.3190   -2.1070  -24.4520 C   0  0  0  0  0  0  0  0  0  0  0  0
   -8.0850   -0.0970  -24.0730 H   0  0  0  0  0  0  0  0  0  0  0  0
   -6.0070   -0.5160  -27.7760 H   0  0  0  0  0  0  0  0  0  0  0  0
   -5.5720   -2.9470  -27.2350 H   0  0  0  0  0  0  0  0  0  0  0  0
   -8.1490   -4.7380  -22.4130 H   0  0  0  0  0  0  0  0  0  0  0  0
   -8.8860   -4.3920  -23.9750 H   0  0  0  0  0  0  0  0  0  0  0  0
   -8.6630    0.0020  -21.9240 H   0  0  0  0  0  0  0  0  0  0  0  0
   -9.3230   -1.0640  -20.6970 H   0  0  0  0  0  0  0  0  0  0  0  0
   -9.6000   -1.5170  -23.4770 H   0  0  0  0  0  0  0  0  0  0  0  0
  -10.5820   -3.6660  -22.8280 H   0  0  0  0  0  0  0  0  0  0  0  0
   -9.8140   -3.5760  -21.2320 H   0  0  0  0  0  0  0  0  0  0  0  0
  -11.0480   -2.3970  -21.7000 H   0  0  0  0  0  0  0  0  0  0  0  0
  1  2  1  0  0  0  0
  1 61  1  0  0  0  0
  1 62  1  0  0  0  0
  1 63  1  0  0  0  0
  2  3  1  0  0  0  0
  2 23  1  0  0  0  0
  2 60  1  6  0  0  0
  3  4  1  0  0  0  0
  3 58  1  0  0  0  0
  3 59  1  0  0  0  0
  4  5  1  0  0  0  0
  4 21  1  0  0  0  0
  5  6  2  0  0  0  0
  5 14  1  0  0  0  0
  6  7  1  0  0  0  0
  6 20  1  0  0  0  0
  7  8  2  0  0  0  0
  8  9  1  0  0  0  0
  8 19  1  0  0  0  0
  9 10  2  0  0  0  0
  9 14  1  0  0  0  0
 10 11  1  0  0  0  0
 10 18  1  0  0  0  0
 11 12  2  0  0  0  0
 11 17  1  0  0  0  0
 12 13  1  0  0  0  0
 12 16  1  0  0  0  0
 13 14  2  0  0  0  0
 13 15  1  0  0  0  0
 21 22  2  0  0  0  0
 23 21  1  1  0  0  0
 23 24  1  0  0  0  0
 23 52  1  0  0  0  0
 24 25  1  0  0  0  0
 24 56  1  0  0  0  0
 24 57  1  0  0  0  0
 25 26  1  0  0  0  0
 25 44  1  0  0  0  0
 26 27  1  0  0  0  0
 26 42  1  0  0  0  0
 26 43  1  0  0  0  0
 27 28  2  0  0  0  0
 27 29  1  0  0  0  0
 29 30  1  0  0  0  0
 29 41  1  0  0  0  0
 30 31  1  0  0  0  0
 30 39  1  0  0  0  0
 30 40  1  0  0  0  0
 31 32  1  0  0  0  0
 31 33  1  0  0  0  0
 31 38  1  0  0  0  0
 32 33  1  0  0  0  0
 32 36  1  0  0  0  0
 32 37  1  0  0  0  0
 33 34  1  0  0  0  0
 33 35  1  0  0  0  0
 44 45  2  0  0  0  0
 44 46  1  0  0  0  0
 46 47  2  0  0  0  0
 46 52  1  0  0  0  0
 47 48  1  0  0  0  0
 47 55  1  0  0  0  0
 48 49  2  0  0  0  0
 48 54  1  0  0  0  0
 49 50  1  0  0  0  0
 49 51  1  0  0  0  0
 51 52  2  0  0  0  0
 51 53  1  0  0  0  0
M  END
>  <MODEL>
       1

$$$$
