tmp_first_model_4_54.pdb
 OpenBabel08272518513D

 40 43  0  0  0  0  0  0  0  0999 V2000
   -7.9590   -3.5380  -24.0320 C   0  0  0  0  0  0  0  0  0  0  0  0
   -8.0120   -2.6600  -22.8950 N   0  0  0  0  0  0  0  0  0  0  0  0
   -9.0650   -2.0140  -22.3090 C   0  0  0  0  0  0  0  0  0  0  0  0
  -10.4390   -2.0450  -22.8910 C   0  0  0  0  0  0  0  0  0  0  0  0
  -10.5390   -1.1650  -24.1260 C   0  0  0  0  0  0  0  0  0  0  0  0
  -10.5370    0.2200  -23.9670 C   0  0  0  0  0  0  0  0  0  0  0  0
  -10.6030    1.0600  -25.0730 C   0  0  0  0  0  0  0  0  0  0  0  0
  -10.6500    0.5210  -26.3550 C   0  0  0  0  0  0  0  0  0  0  0  0
  -10.6580   -0.8600  -26.5240 C   0  0  0  0  0  0  0  0  0  0  0  0
  -10.5870   -1.6970  -25.4130 C   0  0  0  0  0  0  0  0  0  0  0  0
  -10.5420   -2.7760  -25.5530 H   0  0  0  0  0  0  0  0  0  0  0  0
  -10.7100   -1.2820  -27.5240 H   0  0  0  0  0  0  0  0  0  0  0  0
  -10.6480    1.1690  -27.2270 H   0  0  0  0  0  0  0  0  0  0  0  0
  -10.6070    2.1380  -24.9340 H   0  0  0  0  0  0  0  0  0  0  0  0
  -10.4700    0.6320  -22.9620 H   0  0  0  0  0  0  0  0  0  0  0  0
  -10.7180   -3.0760  -23.1430 H   0  0  0  0  0  0  0  0  0  0  0  0
  -11.1180   -1.7060  -22.1030 H   0  0  0  0  0  0  0  0  0  0  0  0
   -8.6940   -1.3250  -21.2700 N   0  0  0  0  0  0  0  0  0  0  0  0
   -7.3340   -1.4830  -21.2260 N   0  0  0  0  0  0  0  0  0  0  0  0
   -6.4860   -1.0060  -20.2160 C   0  0  0  0  0  0  0  0  0  0  0  0
   -6.7780   -1.2710  -18.9060 C   0  0  0  0  0  0  0  0  0  0  0  0
   -5.9430   -0.9950  -17.8870 N   0  0  0  0  0  0  0  0  0  0  0  0
   -4.8170   -0.3830  -18.1740 C   0  0  0  0  0  0  0  0  0  0  0  0
   -4.4450    0.0310  -19.4860 C   0  0  0  0  0  0  0  0  0  0  0  0
   -3.2890    0.8260  -19.7270 C   0  0  0  0  0  0  0  0  0  0  0  0
   -3.0690    1.3790  -20.9580 C   0  0  0  0  0  0  0  0  0  0  0  0
   -3.9370    1.0750  -22.0360 C   0  0  0  0  0  0  0  0  0  0  0  0
   -5.0120    0.2490  -21.8540 C   0  0  0  0  0  0  0  0  0  0  0  0
   -5.3100   -0.2700  -20.5560 C   0  0  0  0  0  0  0  0  0  0  0  0
   -5.7050    0.0730  -22.6740 H   0  0  0  0  0  0  0  0  0  0  0  0
   -3.7600    1.5160  -23.0140 H   0  0  0  0  0  0  0  0  0  0  0  0
   -2.2750    2.1040  -21.1090 H   0  0  0  0  0  0  0  0  0  0  0  0
   -2.6260    1.0410  -18.8900 H   0  0  0  0  0  0  0  0  0  0  0  0
   -4.1690   -0.1430  -17.3330 H   0  0  0  0  0  0  0  0  0  0  0  0
   -7.7440   -1.6960  -18.6550 H   0  0  0  0  0  0  0  0  0  0  0  0
   -6.8780   -2.3730  -22.1640 C   0  0  0  0  0  0  0  0  0  0  0  0
   -5.7520   -2.8070  -22.3010 O   0  0  0  0  0  0  0  0  0  0  0  0
   -8.8130   -4.2160  -24.0300 H   0  0  0  0  0  0  0  0  0  0  0  0
   -7.0360   -4.1110  -23.9380 H   0  0  0  0  0  0  0  0  0  0  0  0
   -7.9310   -2.9640  -24.9610 H   0  0  0  0  0  0  0  0  0  0  0  0
  1  2  1  0  0  0  0
  1 38  1  0  0  0  0
  1 39  1  0  0  0  0
  1 40  1  0  0  0  0
  2  3  1  0  0  0  0
  2 36  1  0  0  0  0
  3  4  1  0  0  0  0
  3 18  2  0  0  0  0
  4  5  1  0  0  0  0
  4 16  1  0  0  0  0
  4 17  1  0  0  0  0
  5  6  2  0  0  0  0
  5 10  1  0  0  0  0
  6  7  1  0  0  0  0
  6 15  1  0  0  0  0
  7  8  2  0  0  0  0
  7 14  1  0  0  0  0
  8  9  1  0  0  0  0
  8 13  1  0  0  0  0
  9 10  2  0  0  0  0
  9 12  1  0  0  0  0
 10 11  1  0  0  0  0
 18 19  1  0  0  0  0
 19 20  1  0  0  0  0
 19 36  1  0  0  0  0
 20 21  2  0  0  0  0
 20 29  1  0  0  0  0
 21 22  1  0  0  0  0
 21 35  1  0  0  0  0
 22 23  2  0  0  0  0
 23 24  1  0  0  0  0
 23 34  1  0  0  0  0
 24 25  2  0  0  0  0
 24 29  1  0  0  0  0
 25 26  1  0  0  0  0
 25 33  1  0  0  0  0
 26 27  2  0  0  0  0
 26 32  1  0  0  0  0
 27 28  1  0  0  0  0
 27 31  1  0  0  0  0
 28 29  2  0  0  0  0
 28 30  1  0  0  0  0
 36 37  2  0  0  0  0
M  END
>  <MODEL>
       1

$$$$
