tmp_first_model_14_83.pdb
 OpenBabel08282500413D

 46 50  0  0  1  0  0  0  0  0999 V2000
   -5.9420   -4.3730  -26.9190 N   0  0  0  0  0  0  0  0  0  0  0  0
   -5.6740   -2.7460  -26.6760 S   0  0  0  0  0  0  0  0  0  0  0  0
   -4.7300   -2.6430  -25.5780 O   0  0  0  0  0  0  0  0  0  0  0  0
   -5.4060   -2.1890  -27.9870 O   0  0  0  0  0  0  0  0  0  0  0  0
   -7.2300   -2.0970  -26.1230 C   0  0  0  0  0  0  0  0  0  0  0  0
   -8.1590   -1.6860  -27.0790 C   0  0  0  0  0  0  0  0  0  0  0  0
   -9.4080   -1.2760  -26.6570 C   0  0  0  0  0  0  0  0  0  0  0  0
   -9.6830   -1.1580  -25.2970 C   0  0  0  0  0  0  0  0  0  0  0  0
   -8.7500   -1.5710  -24.3350 C   0  0  0  0  0  0  0  0  0  0  0  0
   -7.5200   -2.0690  -24.7680 C   0  0  0  0  0  0  0  0  0  0  0  0
   -6.7950   -2.4580  -24.0530 H   0  0  0  0  0  0  0  0  0  0  0  0
   -9.0900   -1.5630  -22.8500 C   0  0  1  0  0  0  0  0  0  0  0  0
  -10.5930   -1.2930  -22.6920 C   0  0  0  0  0  0  0  0  0  0  0  0
  -11.0280   -0.1940  -23.6470 C   0  0  0  0  0  0  0  0  0  0  0  0
  -10.9150   -0.6750  -24.9800 O   0  0  0  0  0  0  0  0  0  0  0  0
  -12.0770    0.0790  -23.5100 H   0  0  0  0  0  0  0  0  0  0  0  0
  -10.4080    0.7030  -23.5350 H   0  0  0  0  0  0  0  0  0  0  0  0
  -10.8280   -1.0400  -21.6590 H   0  0  0  0  0  0  0  0  0  0  0  0
  -11.1190   -2.2140  -22.9610 H   0  0  0  0  0  0  0  0  0  0  0  0
   -8.6720   -2.8030  -22.1880 N   0  0  0  0  0  0  0  0  0  0  0  0
   -7.4790   -2.6340  -21.5190 C   0  0  0  0  0  0  0  0  0  0  0  0
   -6.6630   -3.4700  -21.2140 O   0  0  0  0  0  0  0  0  0  0  0  0
   -7.3590   -1.2630  -21.2800 N   0  0  0  0  0  0  0  0  0  0  0  0
   -6.5730   -0.7230  -20.2300 C   0  0  0  0  0  0  0  0  0  0  0  0
   -6.9120   -0.9560  -18.9240 C   0  0  0  0  0  0  0  0  0  0  0  0
   -6.2390   -0.4470  -17.8670 N   0  0  0  0  0  0  0  0  0  0  0  0
   -5.1850    0.2870  -18.1150 C   0  0  0  0  0  0  0  0  0  0  0  0
   -4.7230    0.5980  -19.4220 C   0  0  0  0  0  0  0  0  0  0  0  0
   -3.5680    1.3900  -19.6420 C   0  0  0  0  0  0  0  0  0  0  0  0
   -3.1440    1.6400  -20.9180 C   0  0  0  0  0  0  0  0  0  0  0  0
   -3.8420    1.1050  -22.0230 C   0  0  0  0  0  0  0  0  0  0  0  0
   -4.9650    0.3430  -21.8340 C   0  0  0  0  0  0  0  0  0  0  0  0
   -5.4330    0.0770  -20.5210 C   0  0  0  0  0  0  0  0  0  0  0  0
   -5.5100   -0.0650  -22.6800 H   0  0  0  0  0  0  0  0  0  0  0  0
   -3.4820    1.2880  -23.0300 H   0  0  0  0  0  0  0  0  0  0  0  0
   -2.2610    2.2470  -21.0910 H   0  0  0  0  0  0  0  0  0  0  0  0
   -3.0340    1.7790  -18.7810 H   0  0  0  0  0  0  0  0  0  0  0  0
   -4.6310    0.6560  -17.2540 H   0  0  0  0  0  0  0  0  0  0  0  0
   -7.7770   -1.5680  -18.6800 H   0  0  0  0  0  0  0  0  0  0  0  0
   -8.2610   -0.5390  -22.0560 C   0  0  0  0  0  0  0  0  0  0  0  0
   -8.3620    0.6640  -22.0590 O   0  0  0  0  0  0  0  0  0  0  0  0
   -8.7370   -3.6700  -22.7030 H   0  0  0  0  0  0  0  0  0  0  0  0
  -10.2080   -1.0640  -27.3530 H   0  0  0  0  0  0  0  0  0  0  0  0
   -7.9000   -1.6930  -28.1330 H   0  0  0  0  0  0  0  0  0  0  0  0
   -6.1770   -4.8670  -26.0650 H   0  0  0  0  0  0  0  0  0  0  0  0
   -6.6140   -4.5460  -27.6600 H   0  0  0  0  0  0  0  0  0  0  0  0
  1  2  1  0  0  0  0
  1 45  1  0  0  0  0
  1 46  1  0  0  0  0
  2  3  2  0  0  0  0
  2  4  2  0  0  0  0
  2  5  1  0  0  0  0
  5  6  2  0  0  0  0
  5 10  1  0  0  0  0
  6  7  1  0  0  0  0
  6 44  1  0  0  0  0
  7  8  2  0  0  0  0
  7 43  1  0  0  0  0
  8  9  1  0  0  0  0
  8 15  1  0  0  0  0
  9 10  2  0  0  0  0
 10 11  1  0  0  0  0
 12  9  1  6  0  0  0
 12 13  1  0  0  0  0
 12 20  1  0  0  0  0
 12 40  1  0  0  0  0
 13 14  1  0  0  0  0
 13 18  1  0  0  0  0
 13 19  1  0  0  0  0
 14 15  1  0  0  0  0
 14 16  1  0  0  0  0
 14 17  1  0  0  0  0
 20 21  1  0  0  0  0
 20 42  1  0  0  0  0
 21 22  2  0  0  0  0
 21 23  1  0  0  0  0
 23 24  1  0  0  0  0
 23 40  1  0  0  0  0
 24 25  2  0  0  0  0
 24 33  1  0  0  0  0
 25 26  1  0  0  0  0
 25 39  1  0  0  0  0
 26 27  2  0  0  0  0
 27 28  1  0  0  0  0
 27 38  1  0  0  0  0
 28 29  2  0  0  0  0
 28 33  1  0  0  0  0
 29 30  1  0  0  0  0
 29 37  1  0  0  0  0
 30 31  2  0  0  0  0
 30 36  1  0  0  0  0
 31 32  1  0  0  0  0
 31 35  1  0  0  0  0
 32 33  2  0  0  0  0
 32 34  1  0  0  0  0
 40 41  2  0  0  0  0
M  END
>  <MODEL>
       1

$$$$
