tmp_first_model_4_26.pdb
 OpenBabel08272518513D

 55 60  0  0  1  0  0  0  0  0999 V2000
   -8.6480   -4.2160  -23.7320 C   0  0  0  0  0  0  0  0  0  0  0  0
   -8.6510   -3.3000  -22.5140 C   0  0  1  0  0  0  0  0  0  0  0  0
   -7.2590   -2.7970  -22.1220 C   0  0  0  0  0  0  0  0  0  0  0  0
   -7.5770   -1.7120  -21.2200 N   0  0  0  0  0  0  0  0  0  0  0  0
   -6.6780   -1.2860  -20.2070 C   0  0  0  0  0  0  0  0  0  0  0  0
   -6.8300   -1.6870  -18.9050 C   0  0  0  0  0  0  0  0  0  0  0  0
   -5.9150   -1.4750  -17.9270 N   0  0  0  0  0  0  0  0  0  0  0  0
   -4.8070   -0.8530  -18.2480 C   0  0  0  0  0  0  0  0  0  0  0  0
   -4.5090   -0.3990  -19.5640 C   0  0  0  0  0  0  0  0  0  0  0  0
   -3.2720    0.2160  -19.8960 C   0  0  0  0  0  0  0  0  0  0  0  0
   -3.0400    0.6730  -21.1670 C   0  0  0  0  0  0  0  0  0  0  0  0
   -4.0560    0.5840  -22.1470 C   0  0  0  0  0  0  0  0  0  0  0  0
   -5.2620    0.0060  -21.8430 C   0  0  0  0  0  0  0  0  0  0  0  0
   -5.4950   -0.5600  -20.5610 C   0  0  0  0  0  0  0  0  0  0  0  0
   -6.0800    0.0210  -22.5560 H   0  0  0  0  0  0  0  0  0  0  0  0
   -3.8840    0.9910  -23.1420 H   0  0  0  0  0  0  0  0  0  0  0  0
   -2.0890    1.1330  -21.4250 H   0  0  0  0  0  0  0  0  0  0  0  0
   -2.5180    0.3220  -19.1230 H   0  0  0  0  0  0  0  0  0  0  0  0
   -4.0770   -0.6890  -17.4550 H   0  0  0  0  0  0  0  0  0  0  0  0
   -7.7220   -2.2350  -18.6080 H   0  0  0  0  0  0  0  0  0  0  0  0
   -8.8320   -1.1710  -21.4350 C   0  0  0  0  0  0  0  0  0  0  0  0
   -9.2630   -0.1830  -20.8900 O   0  0  0  0  0  0  0  0  0  0  0  0
   -9.5400   -2.0230  -22.5430 C   0  0  1  0  0  0  0  0  0  0  0  0
   -9.4380   -1.2460  -23.8710 C   0  0  0  0  0  0  0  0  0  0  0  0
  -10.2430   -0.0380  -23.8090 N   0  0  0  0  0  0  0  0  0  0  0  0
   -9.8390    0.9950  -24.7340 C   0  0  0  0  0  0  0  0  0  0  0  0
  -10.0630    0.5680  -26.1560 C   0  0  0  0  0  0  0  0  0  0  0  0
  -11.1490   -0.1280  -26.7160 C   0  0  0  0  0  0  0  0  0  0  0  0
  -10.9360   -0.2780  -28.0200 N   0  0  0  0  0  0  0  0  0  0  0  0
   -9.7550    0.2850  -28.1880 N   0  0  0  0  0  0  0  0  0  0  0  0
   -9.1880    0.8140  -27.1180 N   0  0  0  0  0  0  0  0  0  0  0  0
   -9.3850    0.4600  -29.1120 H   0  0  0  0  0  0  0  0  0  0  0  0
  -12.0450   -0.4890  -26.2410 H   0  0  0  0  0  0  0  0  0  0  0  0
   -8.7730    1.1910  -24.5740 H   0  0  0  0  0  0  0  0  0  0  0  0
  -10.4190    1.8860  -24.4840 H   0  0  0  0  0  0  0  0  0  0  0  0
  -11.5740   -0.1000  -23.4830 C   0  0  0  0  0  0  0  0  0  0  0  0
  -12.3720    0.7720  -23.8040 O   0  0  0  0  0  0  0  0  0  0  0  0
  -11.9850   -1.3230  -22.7340 C   0  0  0  0  0  0  0  0  0  0  0  0
  -13.3520   -1.5220  -22.5160 C   0  0  0  0  0  0  0  0  0  0  0  0
  -13.7940   -2.5650  -21.7340 C   0  0  0  0  0  0  0  0  0  0  0  0
  -12.8330   -3.4010  -21.1900 C   0  0  0  0  0  0  0  0  0  0  0  0
  -13.2330   -4.3120  -20.2890 F   0  0  0  0  0  0  0  0  0  0  0  0
  -11.4940   -3.3180  -21.5210 C   0  0  0  0  0  0  0  0  0  0  0  0
  -11.0270   -2.2470  -22.2870 C   0  0  0  0  0  0  0  0  0  0  0  0
  -10.8200   -4.0500  -21.0960 H   0  0  0  0  0  0  0  0  0  0  0  0
  -14.8450   -2.7610  -21.5490 H   0  0  0  0  0  0  0  0  0  0  0  0
  -14.0510   -0.8250  -22.9660 H   0  0  0  0  0  0  0  0  0  0  0  0
   -8.4090   -0.9410  -24.0700 H   0  0  0  0  0  0  0  0  0  0  0  0
   -9.7430   -1.8830  -24.7150 H   0  0  0  0  0  0  0  0  0  0  0  0
   -6.6880   -2.4670  -23.0090 H   0  0  0  0  0  0  0  0  0  0  0  0
   -6.6610   -3.5570  -21.6110 H   0  0  0  0  0  0  0  0  0  0  0  0
   -8.9980   -3.8690  -21.6480 H   0  0  0  0  0  0  0  0  0  0  0  0
   -9.6330   -4.6710  -23.8830 H   0  0  0  0  0  0  0  0  0  0  0  0
   -7.9180   -5.0260  -23.6010 H   0  0  0  0  0  0  0  0  0  0  0  0
   -8.3760   -3.6710  -24.6430 H   0  0  0  0  0  0  0  0  0  0  0  0
  1  2  1  0  0  0  0
  1 53  1  0  0  0  0
  1 54  1  0  0  0  0
  1 55  1  0  0  0  0
  2  3  1  0  0  0  0
  2 23  1  0  0  0  0
  2 52  1  1  0  0  0
  3  4  1  0  0  0  0
  3 50  1  0  0  0  0
  3 51  1  0  0  0  0
  4  5  1  0  0  0  0
  4 21  1  0  0  0  0
  5  6  2  0  0  0  0
  5 14  1  0  0  0  0
  6  7  1  0  0  0  0
  6 20  1  0  0  0  0
  7  8  2  0  0  0  0
  8  9  1  0  0  0  0
  8 19  1  0  0  0  0
  9 10  2  0  0  0  0
  9 14  1  0  0  0  0
 10 11  1  0  0  0  0
 10 18  1  0  0  0  0
 11 12  2  0  0  0  0
 11 17  1  0  0  0  0
 12 13  1  0  0  0  0
 12 16  1  0  0  0  0
 13 14  2  0  0  0  0
 13 15  1  0  0  0  0
 21 22  2  0  0  0  0
 23 21  1  1  0  0  0
 23 24  1  0  0  0  0
 23 44  1  0  0  0  0
 24 25  1  0  0  0  0
 24 48  1  0  0  0  0
 24 49  1  0  0  0  0
 25 26  1  0  0  0  0
 25 36  1  0  0  0  0
 26 27  1  0  0  0  0
 26 34  1  0  0  0  0
 26 35  1  0  0  0  0
 27 28  1  0  0  0  0
 27 31  2  0  0  0  0
 28 29  2  0  0  0  0
 28 33  1  0  0  0  0
 29 30  1  0  0  0  0
 30 31  1  0  0  0  0
 30 32  1  0  0  0  0
 36 37  2  0  0  0  0
 36 38  1  0  0  0  0
 38 39  2  0  0  0  0
 38 44  1  0  0  0  0
 39 40  1  0  0  0  0
 39 47  1  0  0  0  0
 40 41  2  0  0  0  0
 40 46  1  0  0  0  0
 41 42  1  0  0  0  0
 41 43  1  0  0  0  0
 43 44  2  0  0  0  0
 43 45  1  0  0  0  0
M  END
>  <MODEL>
       1

$$$$
