tmp_first_model_20_35.pdb
 OpenBabel08282503553D

 40 42  0  0  0  0  0  0  0  0999 V2000
   -9.1340   -1.8420  -22.7920 O   0  0  0  0  0  0  0  0  0  0  0  0
   -8.2610   -1.0630  -22.4240 C   0  0  0  0  0  0  0  0  0  0  0  0
   -6.9090   -1.5810  -21.9350 C   0  0  0  0  0  0  0  0  0  0  0  0
   -6.3510   -0.8500  -20.7210 C   0  0  0  0  0  0  0  0  0  0  0  0
   -6.9990   -0.9580  -19.5120 C   0  0  0  0  0  0  0  0  0  0  0  0
   -6.5690   -0.4450  -18.3310 N   0  0  0  0  0  0  0  0  0  0  0  0
   -5.4540    0.2450  -18.3570 C   0  0  0  0  0  0  0  0  0  0  0  0
   -4.6970    0.4980  -19.5340 C   0  0  0  0  0  0  0  0  0  0  0  0
   -3.5430    1.3250  -19.5180 C   0  0  0  0  0  0  0  0  0  0  0  0
   -2.8760    1.6070  -20.6790 C   0  0  0  0  0  0  0  0  0  0  0  0
   -3.3190    1.0540  -21.8950 C   0  0  0  0  0  0  0  0  0  0  0  0
   -4.4200    0.2270  -21.9310 C   0  0  0  0  0  0  0  0  0  0  0  0
   -5.1490   -0.0660  -20.7510 C   0  0  0  0  0  0  0  0  0  0  0  0
   -4.7600   -0.1530  -22.8890 H   0  0  0  0  0  0  0  0  0  0  0  0
   -2.8010    1.3030  -22.8140 H   0  0  0  0  0  0  0  0  0  0  0  0
   -2.0160    2.2680  -20.6710 H   0  0  0  0  0  0  0  0  0  0  0  0
   -3.2200    1.7450  -18.5710 H   0  0  0  0  0  0  0  0  0  0  0  0
   -5.1010    0.6520  -17.4110 H   0  0  0  0  0  0  0  0  0  0  0  0
   -7.9230   -1.5340  -19.4430 H   0  0  0  0  0  0  0  0  0  0  0  0
   -7.0700   -2.6390  -21.6930 H   0  0  0  0  0  0  0  0  0  0  0  0
   -6.1940   -1.5640  -22.7640 H   0  0  0  0  0  0  0  0  0  0  0  0
   -8.3520    0.3020  -22.3990 N   0  0  0  0  0  0  0  0  0  0  0  0
   -9.5580    0.8880  -21.7610 C   0  0  0  0  0  0  0  0  0  0  0  0
   -9.5500    1.0400  -21.9450 C   0  0  0  0  0  0  0  0  0  0  0  0
   -9.2840    2.7450  -23.7440 C   0  0  0  0  0  0  0  0  0  0  0  0
   -9.1520    5.5120  -23.0020 C   0  0  0  0  0  0  0  0  0  0  0  0
   -8.3770    6.2240  -23.7970 F   0  0  0  0  0  0  0  0  0  0  0  0
  -10.2710    6.1640  -22.7450 F   0  0  0  0  0  0  0  0  0  0  0  0
   -8.5240    5.2230  -21.8780 F   0  0  0  0  0  0  0  0  0  0  0  0
   -7.9890    2.4690  -23.6590 C   0  0  0  0  0  0  0  0  0  0  0  0
   -7.3940    1.1930  -23.1340 C   0  0  0  0  0  0  0  0  0  0  0  0
   -6.9690    0.6250  -23.9640 H   0  0  0  0  0  0  0  0  0  0  0  0
   -6.5830    1.4580  -22.4480 H   0  0  0  0  0  0  0  0  0  0  0  0
  -10.0170    1.9690  -23.6430 H   0  0  0  0  0  0  0  0  0  0  0  0
   -7.2390    3.2020  -23.9540 H   0  0  0  0  0  0  0  0  0  0  0  0
   -9.5940    3.7740  -23.9220 H   0  0  0  0  0  0  0  0  0  0  0  0
  -10.4860    1.7810  -21.6850 H   0  0  0  0  0  0  0  0  0  0  0  0
   -8.8460    1.9140  -21.4500 H   0  0  0  0  0  0  0  0  0  0  0  0
   -9.8310    0.0790  -20.4520 H   0  0  0  0  0  0  0  0  0  0  0  0
  -10.3190    0.4820  -22.7100 H   0  0  0  0  0  0  0  0  0  0  0  0
  1  2  2  0  0  0  0
  2  3  1  0  0  0  0
  2 22  1  0  0  0  0
  3  4  1  0  0  0  0
  3 20  1  0  0  0  0
  3 21  1  0  0  0  0
  4  5  2  0  0  0  0
  4 13  1  0  0  0  0
  5  6  1  0  0  0  0
  5 19  1  0  0  0  0
  6  7  2  0  0  0  0
  7  8  1  0  0  0  0
  7 18  1  0  0  0  0
  8  9  2  0  0  0  0
  8 13  1  0  0  0  0
  9 10  1  0  0  0  0
  9 17  1  0  0  0  0
 10 11  2  0  0  0  0
 10 16  1  0  0  0  0
 11 12  1  0  0  0  0
 11 15  1  0  0  0  0
 12 13  2  0  0  0  0
 12 14  1  0  0  0  0
 22 23  1  0  0  0  0
 22 31  1  0  0  0  0
 23 24  1  0  0  0  0
 23 39  1  0  0  0  0
 23 40  1  0  0  0  0
 24 25  1  0  0  0  0
 24 37  1  0  0  0  0
 24 38  1  0  0  0  0
 25 26  1  0  0  0  0
 25 30  1  0  0  0  0
 25 36  1  0  0  0  0
 26 27  1  0  0  0  0
 26 28  1  0  0  0  0
 26 29  1  0  0  0  0
 30 31  1  0  0  0  0
 30 34  1  0  0  0  0
 30 35  1  0  0  0  0
 31 32  1  0  0  0  0
 31 33  1  0  0  0  0
M  END
>  <MODEL>
       1

$$$$
