tmp_first_model_3_64.pdb
 OpenBabel08272518143D

 55 60  0  0  1  0  0  0  0  0999 V2000
   -9.9570   -0.7900  -23.5190 C   0  0  0  0  0  0  0  0  0  0  0  0
   -8.5910   -1.1640  -22.9410 C   0  0  1  0  0  0  0  0  0  0  0  0
   -8.1390   -0.2560  -21.7800 C   0  0  0  0  0  0  0  0  0  0  0  0
   -7.2000   -1.0910  -21.0380 N   0  0  0  0  0  0  0  0  0  0  0  0
   -6.3700   -0.6110  -19.9900 C   0  0  0  0  0  0  0  0  0  0  0  0
   -6.6450   -0.8830  -18.6720 C   0  0  0  0  0  0  0  0  0  0  0  0
   -5.9820   -0.3270  -17.6230 N   0  0  0  0  0  0  0  0  0  0  0  0
   -4.9880    0.4860  -17.8950 C   0  0  0  0  0  0  0  0  0  0  0  0
   -4.5410    0.7840  -19.2120 C   0  0  0  0  0  0  0  0  0  0  0  0
   -3.4130    1.6090  -19.4550 C   0  0  0  0  0  0  0  0  0  0  0  0
   -2.9920    1.8450  -20.7340 C   0  0  0  0  0  0  0  0  0  0  0  0
   -3.6840    1.2750  -21.8250 C   0  0  0  0  0  0  0  0  0  0  0  0
   -4.7900    0.4900  -21.6160 C   0  0  0  0  0  0  0  0  0  0  0  0
   -5.2450    0.2230  -20.2980 C   0  0  0  0  0  0  0  0  0  0  0  0
   -5.3240    0.0560  -22.4530 H   0  0  0  0  0  0  0  0  0  0  0  0
   -3.3420    1.4660  -22.8370 H   0  0  0  0  0  0  0  0  0  0  0  0
   -2.1230    2.4700  -20.9180 H   0  0  0  0  0  0  0  0  0  0  0  0
   -2.9080    2.0520  -18.6010 H   0  0  0  0  0  0  0  0  0  0  0  0
   -4.4660    0.9370  -17.0500 H   0  0  0  0  0  0  0  0  0  0  0  0
   -7.4520   -1.5640  -18.4070 H   0  0  0  0  0  0  0  0  0  0  0  0
   -7.3450   -2.4360  -21.3060 C   0  0  0  0  0  0  0  0  0  0  0  0
   -6.7030   -3.3200  -20.7750 O   0  0  0  0  0  0  0  0  0  0  0  0
   -8.4610   -2.6140  -22.3510 C   0  0  1  0  0  0  0  0  0  0  0  0
   -9.7220   -3.0790  -21.5800 C   0  0  0  0  0  0  0  0  0  0  0  0
  -10.7730   -3.5510  -22.4790 N   0  0  0  0  0  0  0  0  0  0  0  0
  -12.1580   -3.4440  -22.0290 C   0  0  0  0  0  0  0  0  0  0  0  0
  -12.9610   -2.3620  -22.6990 C   0  0  0  0  0  0  0  0  0  0  0  0
  -13.2330   -2.3110  -24.0390 N   0  0  0  0  0  0  0  0  0  0  0  0
  -14.0340   -1.2690  -24.1420 C   0  0  0  0  0  0  0  0  0  0  0  0
  -14.2100   -0.7150  -22.9360 N   0  0  0  0  0  0  0  0  0  0  0  0
  -13.5130   -1.3900  -21.9950 N   0  0  0  0  0  0  0  0  0  0  0  0
  -14.5950    0.1910  -22.7240 H   0  0  0  0  0  0  0  0  0  0  0  0
  -14.5240   -0.9130  -25.0380 H   0  0  0  0  0  0  0  0  0  0  0  0
  -12.1820   -3.2360  -20.9560 H   0  0  0  0  0  0  0  0  0  0  0  0
  -12.6430   -4.4090  -22.2050 H   0  0  0  0  0  0  0  0  0  0  0  0
  -10.4390   -4.5550  -23.3610 C   0  0  0  0  0  0  0  0  0  0  0  0
  -11.2180   -5.3840  -23.7850 O   0  0  0  0  0  0  0  0  0  0  0  0
   -9.0280   -4.5920  -23.8240 C   0  0  0  0  0  0  0  0  0  0  0  0
   -8.7000   -5.5800  -24.7540 C   0  0  0  0  0  0  0  0  0  0  0  0
   -7.4200   -5.6820  -25.2570 C   0  0  0  0  0  0  0  0  0  0  0  0
   -6.4750   -4.7790  -24.7820 C   0  0  0  0  0  0  0  0  0  0  0  0
   -5.2210   -4.8590  -25.2630 F   0  0  0  0  0  0  0  0  0  0  0  0
   -6.7690   -3.8090  -23.8390 C   0  0  0  0  0  0  0  0  0  0  0  0
   -8.0830   -3.6820  -23.3600 C   0  0  0  0  0  0  0  0  0  0  0  0
   -5.9600   -3.1940  -23.4580 H   0  0  0  0  0  0  0  0  0  0  0  0
   -7.1450   -6.4440  -25.9810 H   0  0  0  0  0  0  0  0  0  0  0  0
   -9.4770   -6.2720  -25.0550 H   0  0  0  0  0  0  0  0  0  0  0  0
   -9.4200   -3.8730  -20.8790 H   0  0  0  0  0  0  0  0  0  0  0  0
  -10.1150   -2.2570  -20.9740 H   0  0  0  0  0  0  0  0  0  0  0  0
   -7.6550    0.6640  -22.1240 H   0  0  0  0  0  0  0  0  0  0  0  0
   -8.9990    0.0350  -21.1480 H   0  0  0  0  0  0  0  0  0  0  0  0
   -7.8390   -1.1110  -23.7470 H   0  0  0  0  0  0  0  0  0  0  0  0
  -10.7300   -0.7070  -22.7430 H   0  0  0  0  0  0  0  0  0  0  0  0
   -9.9010    0.1690  -24.0400 H   0  0  0  0  0  0  0  0  0  0  0  0
  -10.2910   -1.5470  -24.2340 H   0  0  0  0  0  0  0  0  0  0  0  0
  1  2  1  0  0  0  0
  1 53  1  0  0  0  0
  1 54  1  0  0  0  0
  1 55  1  0  0  0  0
  2  3  1  0  0  0  0
  2 23  1  0  0  0  0
  2 52  1  6  0  0  0
  3  4  1  0  0  0  0
  3 50  1  0  0  0  0
  3 51  1  0  0  0  0
  4  5  1  0  0  0  0
  4 21  1  0  0  0  0
  5  6  2  0  0  0  0
  5 14  1  0  0  0  0
  6  7  1  0  0  0  0
  6 20  1  0  0  0  0
  7  8  2  0  0  0  0
  8  9  1  0  0  0  0
  8 19  1  0  0  0  0
  9 10  2  0  0  0  0
  9 14  1  0  0  0  0
 10 11  1  0  0  0  0
 10 18  1  0  0  0  0
 11 12  2  0  0  0  0
 11 17  1  0  0  0  0
 12 13  1  0  0  0  0
 12 16  1  0  0  0  0
 13 14  2  0  0  0  0
 13 15  1  0  0  0  0
 21 22  2  0  0  0  0
 23 21  1  1  0  0  0
 23 24  1  0  0  0  0
 23 44  1  0  0  0  0
 24 25  1  0  0  0  0
 24 48  1  0  0  0  0
 24 49  1  0  0  0  0
 25 26  1  0  0  0  0
 25 36  1  0  0  0  0
 26 27  1  0  0  0  0
 26 34  1  0  0  0  0
 26 35  1  0  0  0  0
 27 28  1  0  0  0  0
 27 31  2  0  0  0  0
 28 29  2  0  0  0  0
 29 30  1  0  0  0  0
 29 33  1  0  0  0  0
 30 31  1  0  0  0  0
 30 32  1  0  0  0  0
 36 37  2  0  0  0  0
 36 38  1  0  0  0  0
 38 39  2  0  0  0  0
 38 44  1  0  0  0  0
 39 40  1  0  0  0  0
 39 47  1  0  0  0  0
 40 41  2  0  0  0  0
 40 46  1  0  0  0  0
 41 42  1  0  0  0  0
 41 43  1  0  0  0  0
 43 44  2  0  0  0  0
 43 45  1  0  0  0  0
M  END
>  <MODEL>
       1

$$$$
