tmp_first_model_20_55.pdb
 OpenBabel08282503553D

 61 66  0  0  1  0  0  0  0  0999 V2000
  -10.3810   -1.2320  -25.6970 C   0  0  0  0  0  0  0  0  0  0  0  0
  -10.9010   -1.6100  -24.4520 O   0  0  0  0  0  0  0  0  0  0  0  0
  -10.4260   -0.8370  -23.3680 C   0  0  0  0  0  0  0  0  0  0  0  0
   -9.0250   -1.2790  -22.9410 C   0  0  1  0  0  0  0  0  0  0  0  0
   -8.4270   -0.3890  -21.8460 C   0  0  0  0  0  0  0  0  0  0  0  0
   -7.4370   -1.2550  -21.2280 N   0  0  0  0  0  0  0  0  0  0  0  0
   -6.6010   -0.8230  -20.1730 C   0  0  0  0  0  0  0  0  0  0  0  0
   -6.9050   -1.1020  -18.8650 C   0  0  0  0  0  0  0  0  0  0  0  0
   -6.2280   -0.5940  -17.8020 N   0  0  0  0  0  0  0  0  0  0  0  0
   -5.2030    0.1820  -18.0570 C   0  0  0  0  0  0  0  0  0  0  0  0
   -4.7490    0.5110  -19.3680 C   0  0  0  0  0  0  0  0  0  0  0  0
   -3.6150    1.3290  -19.6060 C   0  0  0  0  0  0  0  0  0  0  0  0
   -3.2200    1.6060  -20.8850 C   0  0  0  0  0  0  0  0  0  0  0  0
   -3.9270    1.0760  -21.9880 C   0  0  0  0  0  0  0  0  0  0  0  0
   -5.0250    0.2800  -21.7850 C   0  0  0  0  0  0  0  0  0  0  0  0
   -5.4660   -0.0100  -20.4680 C   0  0  0  0  0  0  0  0  0  0  0  0
   -5.5680   -0.1350  -22.6280 H   0  0  0  0  0  0  0  0  0  0  0  0
   -3.6060    1.3110  -22.9990 H   0  0  0  0  0  0  0  0  0  0  0  0
   -2.3600    2.2410  -21.0690 H   0  0  0  0  0  0  0  0  0  0  0  0
   -3.0760    1.7340  -18.7530 H   0  0  0  0  0  0  0  0  0  0  0  0
   -4.6730    0.5980  -17.1990 H   0  0  0  0  0  0  0  0  0  0  0  0
   -7.7360   -1.7610  -18.6240 H   0  0  0  0  0  0  0  0  0  0  0  0
   -7.6620   -2.5930  -21.4600 C   0  0  0  0  0  0  0  0  0  0  0  0
   -6.9710   -3.4840  -21.0080 O   0  0  0  0  0  0  0  0  0  0  0  0
   -8.8790   -2.7430  -22.3840 C   0  0  1  0  0  0  0  0  0  0  0  0
  -10.0750   -3.1780  -21.4900 C   0  0  0  0  0  0  0  0  0  0  0  0
  -11.2490   -3.6580  -22.2150 N   0  0  0  0  0  0  0  0  0  0  0  0
  -12.5940   -3.5980  -21.6150 C   0  0  0  0  0  0  0  0  0  0  0  0
  -13.5130   -2.5370  -22.1590 C   0  0  0  0  0  0  0  0  0  0  0  0
  -13.9870   -1.3410  -21.7220 C   0  0  0  0  0  0  0  0  0  0  0  0
  -14.8560   -0.8630  -22.6880 N   0  3  0  0  0  0  0  0  0  0  0  0
  -14.9070   -1.7530  -23.6910 C   0  0  0  0  0  0  0  0  0  0  0  0
  -14.1210   -2.7790  -23.3690 N   0  0  0  0  0  0  0  0  0  0  0  0
  -14.0240   -3.6760  -23.8360 H   0  0  0  0  0  0  0  0  0  0  0  0
  -15.4600   -1.6690  -24.6110 H   0  0  0  0  0  0  0  0  0  0  0  0
  -15.4150   -0.0240  -22.5930 H   0  0  0  0  0  0  0  0  0  0  0  0
  -13.8000   -0.7660  -20.8280 H   0  0  0  0  0  0  0  0  0  0  0  0
  -13.0880   -4.5450  -21.8500 H   0  0  0  0  0  0  0  0  0  0  0  0
  -12.5310   -3.5310  -20.5290 H   0  0  0  0  0  0  0  0  0  0  0  0
  -11.1140   -4.4230  -23.3380 C   0  0  0  0  0  0  0  0  0  0  0  0
  -12.0720   -4.9430  -23.9020 O   0  0  0  0  0  0  0  0  0  0  0  0
   -9.7240   -4.5950  -23.8700 C   0  0  0  0  0  0  0  0  0  0  0  0
   -9.5380   -5.5840  -24.8310 C   0  0  0  0  0  0  0  0  0  0  0  0
   -8.2800   -5.8520  -25.3360 C   0  0  0  0  0  0  0  0  0  0  0  0
   -7.2040   -5.0880  -24.8860 C   0  0  0  0  0  0  0  0  0  0  0  0
   -5.6040   -5.4370  -25.4890 Cl  0  0  0  0  0  0  0  0  0  0  0  0
   -7.3810   -4.0590  -23.9760 C   0  0  0  0  0  0  0  0  0  0  0  0
   -8.6510   -3.8170  -23.4260 C   0  0  0  0  0  0  0  0  0  0  0  0
   -6.5200   -3.4700  -23.6750 H   0  0  0  0  0  0  0  0  0  0  0  0
   -8.1260   -6.6370  -26.0710 H   0  0  0  0  0  0  0  0  0  0  0  0
  -10.4120   -6.1240  -25.1800 H   0  0  0  0  0  0  0  0  0  0  0  0
  -10.3790   -2.3220  -20.8850 H   0  0  0  0  0  0  0  0  0  0  0  0
   -9.7030   -3.9530  -20.8100 H   0  0  0  0  0  0  0  0  0  0  0  0
   -9.1810   -0.0730  -21.1070 H   0  0  0  0  0  0  0  0  0  0  0  0
   -7.9530    0.5160  -22.2400 H   0  0  0  0  0  0  0  0  0  0  0  0
   -8.3700   -1.2230  -23.8210 H   0  0  0  0  0  0  0  0  0  0  0  0
  -10.4330    0.2420  -23.6180 H   0  0  0  0  0  0  0  0  0  0  0  0
  -11.1470   -0.9960  -22.5590 H   0  0  0  0  0  0  0  0  0  0  0  0
   -9.2960   -1.0630  -25.6660 H   0  0  0  0  0  0  0  0  0  0  0  0
  -10.5620   -2.0630  -26.3860 H   0  0  0  0  0  0  0  0  0  0  0  0
  -10.8550   -0.3150  -26.0820 H   0  0  0  0  0  0  0  0  0  0  0  0
  1  2  1  0  0  0  0
  1 59  1  0  0  0  0
  1 60  1  0  0  0  0
  1 61  1  0  0  0  0
  2  3  1  0  0  0  0
  3  4  1  0  0  0  0
  3 57  1  0  0  0  0
  3 58  1  0  0  0  0
  4  5  1  0  0  0  0
  4 25  1  0  0  0  0
  4 56  1  6  0  0  0
  5  6  1  0  0  0  0
  5 54  1  0  0  0  0
  5 55  1  0  0  0  0
  6  7  1  0  0  0  0
  6 23  1  0  0  0  0
  7  8  2  0  0  0  0
  7 16  1  0  0  0  0
  8  9  1  0  0  0  0
  8 22  1  0  0  0  0
  9 10  2  0  0  0  0
 10 11  1  0  0  0  0
 10 21  1  0  0  0  0
 11 12  2  0  0  0  0
 11 16  1  0  0  0  0
 12 13  1  0  0  0  0
 12 20  1  0  0  0  0
 13 14  2  0  0  0  0
 13 19  1  0  0  0  0
 14 15  1  0  0  0  0
 14 18  1  0  0  0  0
 15 16  2  0  0  0  0
 15 17  1  0  0  0  0
 23 24  2  0  0  0  0
 25 23  1  1  0  0  0
 25 26  1  0  0  0  0
 25 48  1  0  0  0  0
 26 27  1  0  0  0  0
 26 52  1  0  0  0  0
 26 53  1  0  0  0  0
 27 28  1  0  0  0  0
 27 40  1  0  0  0  0
 28 29  1  0  0  0  0
 28 38  1  0  0  0  0
 28 39  1  0  0  0  0
 29 30  2  0  0  0  0
 29 33  1  0  0  0  0
 30 31  1  0  0  0  0
 30 37  1  0  0  0  0
 31 32  2  0  0  0  0
 31 36  1  0  0  0  0
 32 33  1  0  0  0  0
 32 35  1  0  0  0  0
 33 34  1  0  0  0  0
 40 41  2  0  0  0  0
 40 42  1  0  0  0  0
 42 43  2  0  0  0  0
 42 48  1  0  0  0  0
 43 44  1  0  0  0  0
 43 51  1  0  0  0  0
 44 45  2  0  0  0  0
 44 50  1  0  0  0  0
 45 46  1  0  0  0  0
 45 47  1  0  0  0  0
 47 48  2  0  0  0  0
 47 49  1  0  0  0  0
M  CHG  1  31   1
M  END
>  <MODEL>
       1

$$$$
