tmp_first_model_5_63.pdb
 OpenBabel08272519233D

 57 61  0  0  1  0  0  0  0  0999 V2000
   -7.2740    3.3470  -21.8390 C   0  0  0  0  0  0  0  0  0  0  0  0
   -8.1420    2.9110  -22.9200 N   0  0  0  0  0  0  0  0  0  0  0  0
   -7.5950    2.2340  -23.9650 C   0  0  0  0  0  0  0  0  0  0  0  0
   -6.3890    2.0830  -24.0840 O   0  0  0  0  0  0  0  0  0  0  0  0
   -8.5900    1.6630  -24.9830 C   0  0  0  0  0  0  0  0  0  0  0  0
   -9.2920    0.5210  -24.4230 N   0  0  0  0  0  0  0  0  0  0  0  0
   -8.5530   -0.7190  -24.2380 C   0  0  0  0  0  0  0  0  0  0  0  0
   -8.9900   -1.4770  -22.9560 C   0  0  2  0  0  0  0  0  0  0  0  0
   -8.4690   -0.7540  -21.6910 C   0  0  0  0  0  0  0  0  0  0  0  0
   -8.8690    0.2790  -21.1930 O   0  0  0  0  0  0  0  0  0  0  0  0
   -7.4100   -1.4760  -21.1920 N   0  0  0  0  0  0  0  0  0  0  0  0
   -6.5620   -0.9460  -20.1940 C   0  0  0  0  0  0  0  0  0  0  0  0
   -6.8410   -1.1510  -18.8670 C   0  0  0  0  0  0  0  0  0  0  0  0
   -5.9730   -0.8850  -17.8580 N   0  0  0  0  0  0  0  0  0  0  0  0
   -4.8010   -0.4000  -18.2000 C   0  0  0  0  0  0  0  0  0  0  0  0
   -4.4380   -0.0360  -19.5340 C   0  0  0  0  0  0  0  0  0  0  0  0
   -3.2610    0.7090  -19.8270 C   0  0  0  0  0  0  0  0  0  0  0  0
   -3.1520    1.4030  -21.0010 C   0  0  0  0  0  0  0  0  0  0  0  0
   -4.0890    1.1810  -22.0400 C   0  0  0  0  0  0  0  0  0  0  0  0
   -5.1200    0.2940  -21.8540 C   0  0  0  0  0  0  0  0  0  0  0  0
   -5.3770   -0.2440  -20.5620 C   0  0  0  0  0  0  0  0  0  0  0  0
   -5.7620    0.0200  -22.6850 H   0  0  0  0  0  0  0  0  0  0  0  0
   -3.9710    1.6740  -22.9960 H   0  0  0  0  0  0  0  0  0  0  0  0
   -2.2800    2.0230  -21.1940 H   0  0  0  0  0  0  0  0  0  0  0  0
   -2.5160    0.8240  -19.0490 H   0  0  0  0  0  0  0  0  0  0  0  0
   -4.0890   -0.2060  -17.3970 H   0  0  0  0  0  0  0  0  0  0  0  0
   -7.8100   -1.5400  -18.5680 H   0  0  0  0  0  0  0  0  0  0  0  0
   -7.0480   -2.6520  -21.9600 C   0  0  0  0  0  0  0  0  0  0  0  0
   -8.2900   -2.8650  -22.8360 C   0  0  2  0  0  0  0  0  0  0  0  0
   -7.9550   -3.5970  -24.1250 C   0  0  0  0  0  0  0  0  0  0  0  0
   -7.4330   -4.8560  -23.7440 O   0  0  0  0  0  0  0  0  0  0  0  0
   -7.2290   -5.3560  -24.5420 H   0  0  0  0  0  0  0  0  0  0  0  0
   -7.2090   -3.0180  -24.6940 H   0  0  0  0  0  0  0  0  0  0  0  0
   -8.8540   -3.6970  -24.7530 H   0  0  0  0  0  0  0  0  0  0  0  0
   -8.9570   -3.5210  -22.2740 H   0  0  0  0  0  0  0  0  0  0  0  0
   -6.8500   -3.5140  -21.3090 H   0  0  0  0  0  0  0  0  0  0  0  0
   -6.1410   -2.4860  -22.5650 H   0  0  0  0  0  0  0  0  0  0  0  0
  -10.5010   -1.5460  -22.9460 C   0  0  0  0  0  0  0  0  0  0  0  0
  -11.1650   -2.4440  -22.1000 C   0  0  0  0  0  0  0  0  0  0  0  0
  -12.5220   -2.6490  -22.2540 C   0  0  0  0  0  0  0  0  0  0  0  0
  -13.3320   -3.7950  -21.2210 Cl  0  0  0  0  0  0  0  0  0  0  0  0
  -13.2490   -1.9570  -23.2230 C   0  0  0  0  0  0  0  0  0  0  0  0
  -12.6270   -0.9510  -23.9340 C   0  0  0  0  0  0  0  0  0  0  0  0
  -11.2710   -0.6920  -23.7440 C   0  0  0  0  0  0  0  0  0  0  0  0
  -10.6600    0.5300  -24.3670 C   0  0  0  0  0  0  0  0  0  0  0  0
  -11.3360    1.4550  -24.7930 O   0  0  0  0  0  0  0  0  0  0  0  0
  -13.1870   -0.3560  -24.6450 H   0  0  0  0  0  0  0  0  0  0  0  0
  -14.3050   -2.1580  -23.3520 H   0  0  0  0  0  0  0  0  0  0  0  0
  -10.6460   -2.9910  -21.3200 H   0  0  0  0  0  0  0  0  0  0  0  0
   -7.4850   -0.4860  -24.1900 H   0  0  0  0  0  0  0  0  0  0  0  0
   -8.7250   -1.3660  -25.1080 H   0  0  0  0  0  0  0  0  0  0  0  0
   -8.0280    1.3730  -25.8780 H   0  0  0  0  0  0  0  0  0  0  0  0
   -9.3440    2.4010  -25.2770 H   0  0  0  0  0  0  0  0  0  0  0  0
   -9.1160    2.7520  -22.7040 H   0  0  0  0  0  0  0  0  0  0  0  0
   -6.5380    4.0580  -22.2260 H   0  0  0  0  0  0  0  0  0  0  0  0
   -7.8700    3.8470  -21.0730 H   0  0  0  0  0  0  0  0  0  0  0  0
   -6.7330    2.4990  -21.3920 H   0  0  0  0  0  0  0  0  0  0  0  0
  1  2  1  0  0  0  0
  1 55  1  0  0  0  0
  1 56  1  0  0  0  0
  1 57  1  0  0  0  0
  2  3  1  0  0  0  0
  2 54  1  0  0  0  0
  3  4  2  0  0  0  0
  3  5  1  0  0  0  0
  5  6  1  0  0  0  0
  5 52  1  0  0  0  0
  5 53  1  0  0  0  0
  6  7  1  0  0  0  0
  6 45  1  0  0  0  0
  7  8  1  0  0  0  0
  7 50  1  0  0  0  0
  7 51  1  0  0  0  0
  8  9  1  1  0  0  0
  8 29  1  0  0  0  0
  8 38  1  0  0  0  0
  9 10  2  0  0  0  0
  9 11  1  0  0  0  0
 11 12  1  0  0  0  0
 11 28  1  0  0  0  0
 12 13  2  0  0  0  0
 12 21  1  0  0  0  0
 13 14  1  0  0  0  0
 13 27  1  0  0  0  0
 14 15  2  0  0  0  0
 15 16  1  0  0  0  0
 15 26  1  0  0  0  0
 16 17  2  0  0  0  0
 16 21  1  0  0  0  0
 17 18  1  0  0  0  0
 17 25  1  0  0  0  0
 18 19  2  0  0  0  0
 18 24  1  0  0  0  0
 19 20  1  0  0  0  0
 19 23  1  0  0  0  0
 20 21  2  0  0  0  0
 20 22  1  0  0  0  0
 28 29  1  0  0  0  0
 28 36  1  0  0  0  0
 28 37  1  0  0  0  0
 29 30  1  0  0  0  0
 29 35  1  1  0  0  0
 30 31  1  0  0  0  0
 30 33  1  0  0  0  0
 30 34  1  0  0  0  0
 31 32  1  0  0  0  0
 38 39  2  0  0  0  0
 38 44  1  0  0  0  0
 39 40  1  0  0  0  0
 39 49  1  0  0  0  0
 40 41  1  0  0  0  0
 40 42  2  0  0  0  0
 42 43  1  0  0  0  0
 42 48  1  0  0  0  0
 43 44  2  0  0  0  0
 43 47  1  0  0  0  0
 44 45  1  0  0  0  0
 45 46  2  0  0  0  0
M  END
>  <MODEL>
       1

$$$$
