tmp_first_model_8_50.pdb
 OpenBabel08272521063D

 66 70  0  0  1  0  0  0  0  0999 V2000
   -7.4420    3.3500  -21.8150 C   0  0  0  0  0  0  0  0  0  0  0  0
   -8.3560    2.8830  -22.8430 N   0  0  0  0  0  0  0  0  0  0  0  0
   -7.8400    2.1590  -23.8630 C   0  0  0  0  0  0  0  0  0  0  0  0
   -6.6320    2.0140  -24.0140 O   0  0  0  0  0  0  0  0  0  0  0  0
   -8.8450    1.5410  -24.8450 C   0  0  0  0  0  0  0  0  0  0  0  0
   -9.5400    0.3800  -24.3190 N   0  0  0  0  0  0  0  0  0  0  0  0
   -8.8100   -0.8660  -24.1770 C   0  0  0  0  0  0  0  0  0  0  0  0
   -9.1300   -1.5700  -22.8330 C   0  0  2  0  0  0  0  0  0  0  0  0
   -8.5440   -0.7510  -21.6500 C   0  0  0  0  0  0  0  0  0  0  0  0
   -8.9820    0.2770  -21.1780 O   0  0  0  0  0  0  0  0  0  0  0  0
   -7.4070   -1.3850  -21.2000 N   0  0  0  0  0  0  0  0  0  0  0  0
   -6.6090   -0.8100  -20.1730 C   0  0  0  0  0  0  0  0  0  0  0  0
   -6.9110   -1.0440  -18.8570 C   0  0  0  0  0  0  0  0  0  0  0  0
   -6.2010   -0.5570  -17.8090 N   0  0  0  0  0  0  0  0  0  0  0  0
   -5.1670    0.2030  -18.0770 C   0  0  0  0  0  0  0  0  0  0  0  0
   -4.7330    0.5300  -19.3910 C   0  0  0  0  0  0  0  0  0  0  0  0
   -3.6080    1.3660  -19.6360 C   0  0  0  0  0  0  0  0  0  0  0  0
   -3.2330    1.6690  -20.9150 C   0  0  0  0  0  0  0  0  0  0  0  0
   -3.9710    1.1560  -22.0070 C   0  0  0  0  0  0  0  0  0  0  0  0
   -5.0510    0.3340  -21.7970 C   0  0  0  0  0  0  0  0  0  0  0  0
   -5.4730    0.0060  -20.4820 C   0  0  0  0  0  0  0  0  0  0  0  0
   -5.5950   -0.0650  -22.6480 H   0  0  0  0  0  0  0  0  0  0  0  0
   -3.6650    1.3850  -23.0210 H   0  0  0  0  0  0  0  0  0  0  0  0
   -2.3670    2.2970  -21.1040 H   0  0  0  0  0  0  0  0  0  0  0  0
   -3.0690    1.7680  -18.7820 H   0  0  0  0  0  0  0  0  0  0  0  0
   -4.6200    0.6100  -17.2260 H   0  0  0  0  0  0  0  0  0  0  0  0
   -7.7610   -1.6680  -18.5960 H   0  0  0  0  0  0  0  0  0  0  0  0
   -7.0780   -2.6080  -21.9090 C   0  0  0  0  0  0  0  0  0  0  0  0
   -8.3690   -2.9290  -22.6970 C   0  0  2  0  0  0  0  0  0  0  0  0
   -8.0850   -3.6760  -24.0000 C   0  0  0  0  0  0  0  0  0  0  0  0
   -7.4680   -4.9180  -23.7050 O   0  0  0  0  0  0  0  0  0  0  0  0
   -7.3040   -5.7630  -24.8490 C   0  0  0  0  0  0  0  0  0  0  0  0
   -8.4380   -6.7870  -24.9210 C   0  0  0  0  0  0  0  0  0  0  0  0
   -8.4370   -7.4100  -24.0210 H   0  0  0  0  0  0  0  0  0  0  0  0
   -8.3150   -7.4380  -25.7950 H   0  0  0  0  0  0  0  0  0  0  0  0
   -9.4150   -6.2950  -25.0000 H   0  0  0  0  0  0  0  0  0  0  0  0
   -5.9400   -6.4430  -24.7570 C   0  0  0  0  0  0  0  0  0  0  0  0
   -5.8880   -7.0670  -23.8600 H   0  0  0  0  0  0  0  0  0  0  0  0
   -5.7720   -7.0810  -25.6340 H   0  0  0  0  0  0  0  0  0  0  0  0
   -5.1410   -5.6970  -24.7130 H   0  0  0  0  0  0  0  0  0  0  0  0
   -7.3300   -5.1340  -25.7570 H   0  0  0  0  0  0  0  0  0  0  0  0
   -9.0200   -3.8340  -24.5640 H   0  0  0  0  0  0  0  0  0  0  0  0
   -7.4140   -3.0830  -24.6450 H   0  0  0  0  0  0  0  0  0  0  0  0
   -8.9790   -3.5940  -22.0830 H   0  0  0  0  0  0  0  0  0  0  0  0
   -6.8040   -3.3990  -21.2030 H   0  0  0  0  0  0  0  0  0  0  0  0
   -6.2180   -2.4610  -22.5810 H   0  0  0  0  0  0  0  0  0  0  0  0
  -10.6430   -1.6310  -22.7010 C   0  0  0  0  0  0  0  0  0  0  0  0
  -11.2330   -2.5280  -21.8070 C   0  0  0  0  0  0  0  0  0  0  0  0
  -12.6030   -2.5420  -21.6540 C   0  0  0  0  0  0  0  0  0  0  0  0
  -13.1550   -3.4000  -20.7820 F   0  0  0  0  0  0  0  0  0  0  0  0
  -13.4420   -1.6840  -22.3570 C   0  0  0  0  0  0  0  0  0  0  0  0
  -12.8610   -0.7590  -23.2010 C   0  0  0  0  0  0  0  0  0  0  0  0
  -11.4740   -0.7040  -23.3510 C   0  0  0  0  0  0  0  0  0  0  0  0
  -10.8950    0.4340  -24.1350 C   0  0  0  0  0  0  0  0  0  0  0  0
  -11.5820    1.3600  -24.5420 O   0  0  0  0  0  0  0  0  0  0  0  0
  -13.4550   -0.0320  -23.7450 H   0  0  0  0  0  0  0  0  0  0  0  0
  -14.5130   -1.7420  -22.2070 H   0  0  0  0  0  0  0  0  0  0  0  0
  -10.6340   -3.2000  -21.2050 H   0  0  0  0  0  0  0  0  0  0  0  0
   -9.0500   -1.5500  -25.0080 H   0  0  0  0  0  0  0  0  0  0  0  0
   -7.7470   -0.6120  -24.2180 H   0  0  0  0  0  0  0  0  0  0  0  0
   -8.2540    1.2750  -25.7280 H   0  0  0  0  0  0  0  0  0  0  0  0
   -9.6330    2.2420  -25.1380 H   0  0  0  0  0  0  0  0  0  0  0  0
   -9.3520    2.8450  -22.6650 H   0  0  0  0  0  0  0  0  0  0  0  0
   -8.0180    3.8250  -21.0220 H   0  0  0  0  0  0  0  0  0  0  0  0
   -6.8500    2.5050  -21.4270 H   0  0  0  0  0  0  0  0  0  0  0  0
   -6.7450    4.0930  -22.2230 H   0  0  0  0  0  0  0  0  0  0  0  0
  1  2  1  0  0  0  0
  1 64  1  0  0  0  0
  1 65  1  0  0  0  0
  1 66  1  0  0  0  0
  2  3  1  0  0  0  0
  2 63  1  0  0  0  0
  3  4  2  0  0  0  0
  3  5  1  0  0  0  0
  5  6  1  0  0  0  0
  5 61  1  0  0  0  0
  5 62  1  0  0  0  0
  6  7  1  0  0  0  0
  6 54  1  0  0  0  0
  7  8  1  0  0  0  0
  7 59  1  0  0  0  0
  7 60  1  0  0  0  0
  8  9  1  1  0  0  0
  8 29  1  0  0  0  0
  8 47  1  0  0  0  0
  9 10  2  0  0  0  0
  9 11  1  0  0  0  0
 11 12  1  0  0  0  0
 11 28  1  0  0  0  0
 12 13  2  0  0  0  0
 12 21  1  0  0  0  0
 13 14  1  0  0  0  0
 13 27  1  0  0  0  0
 14 15  2  0  0  0  0
 15 16  1  0  0  0  0
 15 26  1  0  0  0  0
 16 17  2  0  0  0  0
 16 21  1  0  0  0  0
 17 18  1  0  0  0  0
 17 25  1  0  0  0  0
 18 19  2  0  0  0  0
 18 24  1  0  0  0  0
 19 20  1  0  0  0  0
 19 23  1  0  0  0  0
 20 21  2  0  0  0  0
 20 22  1  0  0  0  0
 28 29  1  0  0  0  0
 28 45  1  0  0  0  0
 28 46  1  0  0  0  0
 29 30  1  0  0  0  0
 29 44  1  1  0  0  0
 30 31  1  0  0  0  0
 30 42  1  0  0  0  0
 30 43  1  0  0  0  0
 31 32  1  0  0  0  0
 32 33  1  0  0  0  0
 32 37  1  0  0  0  0
 32 41  1  0  0  0  0
 33 34  1  0  0  0  0
 33 35  1  0  0  0  0
 33 36  1  0  0  0  0
 37 38  1  0  0  0  0
 37 39  1  0  0  0  0
 37 40  1  0  0  0  0
 47 48  2  0  0  0  0
 47 53  1  0  0  0  0
 48 49  1  0  0  0  0
 48 58  1  0  0  0  0
 49 50  1  0  0  0  0
 49 51  2  0  0  0  0
 51 52  1  0  0  0  0
 51 57  1  0  0  0  0
 52 53  2  0  0  0  0
 52 56  1  0  0  0  0
 53 54  1  0  0  0  0
 54 55  2  0  0  0  0
M  END
>  <MODEL>
       1

$$$$
