tmp_first_model_18_74.pdb
 OpenBabel08282502533D

 43 47  0  0  1  0  0  0  0  0999 V2000
   -9.1890   -0.4080  -20.8750 O   0  0  0  0  0  0  0  0  0  0  0  0
   -8.6340   -1.3720  -21.3430 C   0  0  0  0  0  0  0  0  0  0  0  0
   -9.0940   -2.4130  -22.1010 N   0  0  0  0  0  0  0  0  0  0  0  0
   -8.0180   -3.1490  -22.7440 C   0  0  1  0  0  0  0  0  0  0  0  0
   -8.1060   -4.6900  -22.7170 C   0  0  0  0  0  0  0  0  0  0  0  0
   -8.2250   -4.7230  -24.2740 C   0  0  2  0  0  0  0  0  0  0  0  0
   -7.1770   -5.5230  -24.9850 C   0  0  0  0  0  0  0  0  0  0  0  0
   -5.8210   -5.2770  -24.7390 C   0  0  0  0  0  0  0  0  0  0  0  0
   -4.8280   -6.0080  -25.3800 C   0  0  0  0  0  0  0  0  0  0  0  0
   -5.1760   -7.0070  -26.2880 C   0  0  0  0  0  0  0  0  0  0  0  0
   -6.5150   -7.2660  -26.5500 C   0  0  0  0  0  0  0  0  0  0  0  0
   -7.4980   -6.5330  -25.8950 C   0  0  0  0  0  0  0  0  0  0  0  0
   -9.1640   -6.9200  -26.2480 Cl  0  0  0  0  0  0  0  0  0  0  0  0
   -6.8190   -8.0210  -27.2660 H   0  0  0  0  0  0  0  0  0  0  0  0
   -4.4080   -7.5850  -26.7960 H   0  0  0  0  0  0  0  0  0  0  0  0
   -3.7830   -5.7940  -25.1720 H   0  0  0  0  0  0  0  0  0  0  0  0
   -5.5530   -4.4950  -24.0280 H   0  0  0  0  0  0  0  0  0  0  0  0
   -8.0320   -3.1730  -24.2980 C   0  0  0  0  0  0  0  0  0  0  0  0
   -8.8500   -2.6000  -24.7500 H   0  0  0  0  0  0  0  0  0  0  0  0
   -7.0970   -2.8320  -24.7600 H   0  0  0  0  0  0  0  0  0  0  0  0
   -9.2210   -5.0250  -24.6090 H   0  0  0  0  0  0  0  0  0  0  0  0
   -8.9650   -5.0660  -22.1570 H   0  0  0  0  0  0  0  0  0  0  0  0
   -7.1960   -5.1550  -22.3200 H   0  0  0  0  0  0  0  0  0  0  0  0
   -6.7880   -2.5620  -22.0720 C   0  0  0  0  0  0  0  0  0  0  0  0
   -5.6330   -2.8750  -22.2570 O   0  0  0  0  0  0  0  0  0  0  0  0
   -7.2540   -1.5780  -21.2010 N   0  0  0  0  0  0  0  0  0  0  0  0
   -6.5350   -0.8960  -20.1860 C   0  0  0  0  0  0  0  0  0  0  0  0
   -6.8990   -1.0700  -18.8720 C   0  0  0  0  0  0  0  0  0  0  0  0
   -6.2220   -0.5460  -17.8230 N   0  0  0  0  0  0  0  0  0  0  0  0
   -5.1840    0.2080  -18.0980 C   0  0  0  0  0  0  0  0  0  0  0  0
   -4.7440    0.5260  -19.4100 C   0  0  0  0  0  0  0  0  0  0  0  0
   -3.6190    1.3600  -19.6360 C   0  0  0  0  0  0  0  0  0  0  0  0
   -3.2290    1.6600  -20.9120 C   0  0  0  0  0  0  0  0  0  0  0  0
   -3.9540    1.1480  -22.0100 C   0  0  0  0  0  0  0  0  0  0  0  0
   -5.0460    0.3350  -21.8180 C   0  0  0  0  0  0  0  0  0  0  0  0
   -5.4520   -0.0170  -20.5030 C   0  0  0  0  0  0  0  0  0  0  0  0
   -5.5920   -0.0560  -22.6710 H   0  0  0  0  0  0  0  0  0  0  0  0
   -3.6430    1.3930  -23.0190 H   0  0  0  0  0  0  0  0  0  0  0  0
   -2.3700    2.3020  -21.0870 H   0  0  0  0  0  0  0  0  0  0  0  0
   -3.0900    1.7510  -18.7730 H   0  0  0  0  0  0  0  0  0  0  0  0
   -4.6350    0.6100  -17.2490 H   0  0  0  0  0  0  0  0  0  0  0  0
   -7.7580   -1.6830  -18.6050 H   0  0  0  0  0  0  0  0  0  0  0  0
  -10.0650   -2.5600  -22.3350 H   0  0  0  0  0  0  0  0  0  0  0  0
  1  2  2  0  0  0  0
  2  3  1  0  0  0  0
  2 26  1  0  0  0  0
  3  4  1  0  0  0  0
  3 43  1  0  0  0  0
  4  5  1  0  0  0  0
  4 18  1  0  0  0  0
  4 24  1  1  0  0  0
  5  6  1  0  0  0  0
  5 22  1  0  0  0  0
  5 23  1  0  0  0  0
  6  7  1  0  0  0  0
  6 18  1  0  0  0  0
  6 21  1  6  0  0  0
  7  8  2  0  0  0  0
  7 12  1  0  0  0  0
  8  9  1  0  0  0  0
  8 17  1  0  0  0  0
  9 10  2  0  0  0  0
  9 16  1  0  0  0  0
 10 11  1  0  0  0  0
 10 15  1  0  0  0  0
 11 12  2  0  0  0  0
 11 14  1  0  0  0  0
 12 13  1  0  0  0  0
 18 19  1  0  0  0  0
 18 20  1  0  0  0  0
 24 25  2  0  0  0  0
 24 26  1  0  0  0  0
 26 27  1  0  0  0  0
 27 28  2  0  0  0  0
 27 36  1  0  0  0  0
 28 29  1  0  0  0  0
 28 42  1  0  0  0  0
 29 30  2  0  0  0  0
 30 31  1  0  0  0  0
 30 41  1  0  0  0  0
 31 32  2  0  0  0  0
 31 36  1  0  0  0  0
 32 33  1  0  0  0  0
 32 40  1  0  0  0  0
 33 34  2  0  0  0  0
 33 39  1  0  0  0  0
 34 35  1  0  0  0  0
 34 38  1  0  0  0  0
 35 36  2  0  0  0  0
 35 37  1  0  0  0  0
M  END
>  <MODEL>
       1

$$$$
