tmp_first_model_8_8.pdb
 OpenBabel08272521063D

 60 64  0  0  1  0  0  0  0  0999 V2000
  -12.3220    4.1220  -21.6740 C   0  0  0  0  0  0  0  0  0  0  0  0
  -12.2660    2.9540  -22.5160 N   0  0  0  0  0  0  0  0  0  0  0  0
  -11.1220    2.6320  -23.1720 C   0  0  0  0  0  0  0  0  0  0  0  0
  -10.0660    3.2260  -23.0300 O   0  0  0  0  0  0  0  0  0  0  0  0
  -11.2650    1.5150  -24.2060 C   0  0  0  0  0  0  0  0  0  0  0  0
  -11.2400    0.1790  -23.6430 N   0  0  0  0  0  0  0  0  0  0  0  0
  -10.0920   -0.6840  -23.9090 C   0  0  0  0  0  0  0  0  0  0  0  0
   -9.7240   -1.6030  -22.6950 C   0  0  2  0  0  0  0  0  0  0  0  0
   -9.0420   -0.6980  -21.6210 C   0  0  0  0  0  0  0  0  0  0  0  0
   -9.4940    0.3050  -21.1240 O   0  0  0  0  0  0  0  0  0  0  0  0
   -7.7940   -1.2080  -21.3280 N   0  0  0  0  0  0  0  0  0  0  0  0
   -7.0490   -0.7000  -20.2320 C   0  0  0  0  0  0  0  0  0  0  0  0
   -7.4410   -0.9530  -18.9430 C   0  0  0  0  0  0  0  0  0  0  0  0
   -6.7860   -0.5020  -17.8470 N   0  0  0  0  0  0  0  0  0  0  0  0
   -5.7180    0.2320  -18.0350 C   0  0  0  0  0  0  0  0  0  0  0  0
   -5.2010    0.5680  -19.3160 C   0  0  0  0  0  0  0  0  0  0  0  0
   -4.0550    1.3900  -19.4650 C   0  0  0  0  0  0  0  0  0  0  0  0
   -3.5790    1.6830  -20.7130 C   0  0  0  0  0  0  0  0  0  0  0  0
   -4.2180    1.1640  -21.8610 C   0  0  0  0  0  0  0  0  0  0  0  0
   -5.3310    0.3670  -21.7420 C   0  0  0  0  0  0  0  0  0  0  0  0
   -5.8630    0.0670  -20.4590 C   0  0  0  0  0  0  0  0  0  0  0  0
   -5.8150   -0.0320  -22.6290 H   0  0  0  0  0  0  0  0  0  0  0  0
   -3.8160    1.3990  -22.8440 H   0  0  0  0  0  0  0  0  0  0  0  0
   -2.7080    2.3230  -20.8290 H   0  0  0  0  0  0  0  0  0  0  0  0
   -3.5840    1.7860  -18.5690 H   0  0  0  0  0  0  0  0  0  0  0  0
   -5.2050    0.5980  -17.1460 H   0  0  0  0  0  0  0  0  0  0  0  0
   -8.3300   -1.5490  -18.7460 H   0  0  0  0  0  0  0  0  0  0  0  0
   -7.5980   -2.5530  -21.8240 C   0  0  0  0  0  0  0  0  0  0  0  0
   -8.5610   -2.6150  -23.0270 C   0  0  2  0  0  0  0  0  0  0  0  0
   -7.7630   -2.3220  -24.3080 C   0  0  0  0  0  0  0  0  0  0  0  0
   -6.7890   -3.3330  -24.4390 O   0  0  0  0  0  0  0  0  0  0  0  0
   -5.9600   -3.1510  -25.5580 C   0  0  0  0  0  0  0  0  0  0  0  0
   -5.4410   -2.1810  -25.5200 H   0  0  0  0  0  0  0  0  0  0  0  0
   -6.5310   -3.2100  -26.4970 H   0  0  0  0  0  0  0  0  0  0  0  0
   -5.2170   -3.9520  -25.5440 H   0  0  0  0  0  0  0  0  0  0  0  0
   -7.2700   -1.3340  -24.2410 H   0  0  0  0  0  0  0  0  0  0  0  0
   -8.4180   -2.3230  -25.1930 H   0  0  0  0  0  0  0  0  0  0  0  0
   -8.9330   -3.6310  -23.1740 H   0  0  0  0  0  0  0  0  0  0  0  0
   -6.5540   -2.7020  -22.1210 H   0  0  0  0  0  0  0  0  0  0  0  0
   -7.8380   -3.3060  -21.0600 H   0  0  0  0  0  0  0  0  0  0  0  0
  -11.0490   -2.2240  -22.2280 C   0  0  0  0  0  0  0  0  0  0  0  0
  -11.2030   -3.4930  -21.5680 C   0  0  0  0  0  0  0  0  0  0  0  0
  -12.8270   -3.7220  -21.2280 C   0  0  0  0  0  0  0  0  0  0  0  0
  -12.4480   -5.1380  -19.1630 Cl  0  0  0  0  0  0  0  0  0  0  0  0
  -12.8800   -3.8030  -20.8830 C   0  0  0  0  0  0  0  0  0  0  0  0
  -13.4690   -2.1780  -21.7840 C   0  0  0  0  0  0  0  0  0  0  0  0
  -12.3000   -1.5690  -22.4040 C   0  0  0  0  0  0  0  0  0  0  0  0
  -12.4110   -0.2930  -23.1090 C   0  0  0  0  0  0  0  0  0  0  0  0
  -13.4540    0.3590  -23.2070 O   0  0  0  0  0  0  0  0  0  0  0  0
  -14.1730   -2.4320  -22.5970 H   0  0  0  0  0  0  0  0  0  0  0  0
  -13.2220   -3.2430  -20.0140 H   0  0  0  0  0  0  0  0  0  0  0  0
  -10.8980   -4.3180  -22.1810 H   0  0  0  0  0  0  0  0  0  0  0  0
   -9.2540   -0.0290  -24.1550 H   0  0  0  0  0  0  0  0  0  0  0  0
  -10.3080   -1.3300  -24.7710 H   0  0  0  0  0  0  0  0  0  0  0  0
  -12.2130    1.6550  -24.7320 H   0  0  0  0  0  0  0  0  0  0  0  0
  -10.4270    1.6250  -24.8960 H   0  0  0  0  0  0  0  0  0  0  0  0
  -13.0830    2.3700  -22.6360 H   0  0  0  0  0  0  0  0  0  0  0  0
  -12.3450    3.8540  -20.6130 H   0  0  0  0  0  0  0  0  0  0  0  0
  -13.2010    4.7230  -21.9190 H   0  0  0  0  0  0  0  0  0  0  0  0
  -11.4230    4.7080  -21.8620 H   0  0  0  0  0  0  0  0  0  0  0  0
  1  2  1  0  0  0  0
  1 58  1  0  0  0  0
  1 59  1  0  0  0  0
  1 60  1  0  0  0  0
  2  3  1  0  0  0  0
  2 57  1  0  0  0  0
  3  4  2  0  0  0  0
  3  5  1  0  0  0  0
  5  6  1  0  0  0  0
  5 55  1  0  0  0  0
  5 56  1  0  0  0  0
  6  7  1  0  0  0  0
  6 48  1  0  0  0  0
  7  8  1  0  0  0  0
  7 53  1  0  0  0  0
  7 54  1  0  0  0  0
  8  9  1  1  0  0  0
  8 29  1  0  0  0  0
  8 41  1  0  0  0  0
  9 10  2  0  0  0  0
  9 11  1  0  0  0  0
 11 12  1  0  0  0  0
 11 28  1  0  0  0  0
 12 13  2  0  0  0  0
 12 21  1  0  0  0  0
 13 14  1  0  0  0  0
 13 27  1  0  0  0  0
 14 15  2  0  0  0  0
 15 16  1  0  0  0  0
 15 26  1  0  0  0  0
 16 17  2  0  0  0  0
 16 21  1  0  0  0  0
 17 18  1  0  0  0  0
 17 25  1  0  0  0  0
 18 19  2  0  0  0  0
 18 24  1  0  0  0  0
 19 20  1  0  0  0  0
 19 23  1  0  0  0  0
 20 21  2  0  0  0  0
 20 22  1  0  0  0  0
 28 29  1  0  0  0  0
 28 39  1  0  0  0  0
 28 40  1  0  0  0  0
 29 30  1  0  0  0  0
 29 38  1  6  0  0  0
 30 31  1  0  0  0  0
 30 36  1  0  0  0  0
 30 37  1  0  0  0  0
 31 32  1  0  0  0  0
 32 33  1  0  0  0  0
 32 34  1  0  0  0  0
 32 35  1  0  0  0  0
 41 42  2  0  0  0  0
 41 47  1  0  0  0  0
 42 43  1  0  0  0  0
 42 52  1  0  0  0  0
 43 44  1  0  0  0  0
 43 45  2  0  0  0  0
 45 46  1  0  0  0  0
 45 51  1  0  0  0  0
 46 47  2  0  0  0  0
 46 50  1  0  0  0  0
 47 48  1  0  0  0  0
 48 49  2  0  0  0  0
M  END
>  <MODEL>
       1

$$$$
