tmp_first_model_3_66.pdb
 OpenBabel08272518143D

 44 47  0  0  1  0  0  0  0  0999 V2000
   -7.9250   -5.9460  -23.4850 C   0  0  0  0  0  0  0  0  0  0  0  0
   -6.4850   -5.5050  -23.2830 C   0  0  0  0  0  0  0  0  0  0  0  0
   -6.1820   -4.1030  -23.8570 C   0  0  1  0  0  0  0  0  0  0  0  0
   -6.2700   -4.0990  -25.3620 C   0  0  0  0  0  0  0  0  0  0  0  0
   -5.3160   -4.6950  -26.2500 C   0  0  0  0  0  0  0  0  0  0  0  0
   -5.7020   -4.6230  -27.5560 C   0  0  0  0  0  0  0  0  0  0  0  0
   -7.2320   -3.8420  -27.7310 S   0  0  0  0  0  0  0  0  0  0  0  0
   -7.3510   -3.6100  -26.0210 C   0  0  0  0  0  0  0  0  0  0  0  0
   -8.5090   -3.0250  -25.2860 C   0  0  0  0  0  0  0  0  0  0  0  0
   -8.0450   -2.3210  -24.0060 C   0  0  0  0  0  0  0  0  0  0  0  0
   -7.0150   -3.0400  -23.2410 N   0  0  0  0  0  0  0  0  0  0  0  0
   -6.6810   -2.6650  -21.9540 C   0  0  0  0  0  0  0  0  0  0  0  0
   -5.8180   -3.2560  -21.3260 O   0  0  0  0  0  0  0  0  0  0  0  0
   -7.3980   -1.4630  -21.2860 C   0  0  0  0  0  0  0  0  0  0  0  0
   -6.5780   -0.8300  -20.1810 C   0  0  0  0  0  0  0  0  0  0  0  0
   -6.8730   -1.0460  -18.8580 C   0  0  0  0  0  0  0  0  0  0  0  0
   -6.1920   -0.5390  -17.7940 N   0  0  0  0  0  0  0  0  0  0  0  0
   -5.1580    0.2240  -18.0620 C   0  0  0  0  0  0  0  0  0  0  0  0
   -4.7210    0.5310  -19.3810 C   0  0  0  0  0  0  0  0  0  0  0  0
   -3.5910    1.3580  -19.6220 C   0  0  0  0  0  0  0  0  0  0  0  0
   -3.1920    1.6370  -20.9020 C   0  0  0  0  0  0  0  0  0  0  0  0
   -3.9060    1.0970  -21.9940 C   0  0  0  0  0  0  0  0  0  0  0  0
   -5.0030    0.2960  -21.7860 C   0  0  0  0  0  0  0  0  0  0  0  0
   -5.4460   -0.0080  -20.4710 C   0  0  0  0  0  0  0  0  0  0  0  0
   -5.5380   -0.1120  -22.6360 H   0  0  0  0  0  0  0  0  0  0  0  0
   -3.5860    1.3230  -23.0060 H   0  0  0  0  0  0  0  0  0  0  0  0
   -2.3320    2.2740  -21.0880 H   0  0  0  0  0  0  0  0  0  0  0  0
   -3.0550    1.7750  -18.7730 H   0  0  0  0  0  0  0  0  0  0  0  0
   -4.6000    0.6290  -17.2170 H   0  0  0  0  0  0  0  0  0  0  0  0
   -7.7210   -1.6720  -18.5870 H   0  0  0  0  0  0  0  0  0  0  0  0
   -7.6830   -0.6950  -22.0170 H   0  0  0  0  0  0  0  0  0  0  0  0
   -8.3340   -1.8390  -20.8490 H   0  0  0  0  0  0  0  0  0  0  0  0
   -8.9210   -2.1640  -23.3670 H   0  0  0  0  0  0  0  0  0  0  0  0
   -7.6720   -1.3260  -24.2830 H   0  0  0  0  0  0  0  0  0  0  0  0
   -9.2220   -3.8260  -25.0470 H   0  0  0  0  0  0  0  0  0  0  0  0
   -9.0570   -2.3210  -25.9160 H   0  0  0  0  0  0  0  0  0  0  0  0
   -5.1790   -4.9920  -28.4270 H   0  0  0  0  0  0  0  0  0  0  0  0
   -4.3930   -5.1710  -25.9290 H   0  0  0  0  0  0  0  0  0  0  0  0
   -5.1370   -3.8780  -23.6030 H   0  0  0  0  0  0  0  0  0  0  0  0
   -5.8130   -6.2180  -23.7790 H   0  0  0  0  0  0  0  0  0  0  0  0
   -6.2230   -5.5070  -22.2220 H   0  0  0  0  0  0  0  0  0  0  0  0
   -8.0910   -6.9240  -23.0260 H   0  0  0  0  0  0  0  0  0  0  0  0
   -8.1820   -6.0210  -24.5460 H   0  0  0  0  0  0  0  0  0  0  0  0
   -8.6150   -5.2360  -23.0220 H   0  0  0  0  0  0  0  0  0  0  0  0
  1  2  1  0  0  0  0
  1 42  1  0  0  0  0
  1 43  1  0  0  0  0
  1 44  1  0  0  0  0
  2  3  1  0  0  0  0
  2 40  1  0  0  0  0
  2 41  1  0  0  0  0
  3  4  1  0  0  0  0
  3 11  1  0  0  0  0
  3 39  1  1  0  0  0
  4  5  1  0  0  0  0
  4  8  2  0  0  0  0
  5  6  2  0  0  0  0
  5 38  1  0  0  0  0
  6  7  1  0  0  0  0
  6 37  1  0  0  0  0
  7  8  1  0  0  0  0
  8  9  1  0  0  0  0
  9 10  1  0  0  0  0
  9 35  1  0  0  0  0
  9 36  1  0  0  0  0
 10 11  1  0  0  0  0
 10 33  1  0  0  0  0
 10 34  1  0  0  0  0
 11 12  1  0  0  0  0
 12 13  2  0  0  0  0
 12 14  1  0  0  0  0
 14 15  1  0  0  0  0
 14 31  1  0  0  0  0
 14 32  1  0  0  0  0
 15 16  2  0  0  0  0
 15 24  1  0  0  0  0
 16 17  1  0  0  0  0
 16 30  1  0  0  0  0
 17 18  2  0  0  0  0
 18 19  1  0  0  0  0
 18 29  1  0  0  0  0
 19 20  2  0  0  0  0
 19 24  1  0  0  0  0
 20 21  1  0  0  0  0
 20 28  1  0  0  0  0
 21 22  2  0  0  0  0
 21 27  1  0  0  0  0
 22 23  1  0  0  0  0
 22 26  1  0  0  0  0
 23 24  2  0  0  0  0
 23 25  1  0  0  0  0
M  END
>  <MODEL>
       1

$$$$
