tmp_first_model_10_23.pdb
 OpenBabel08272522163D

 68 73  0  0  1  0  0  0  0  0999 V2000
   -7.5690    3.1450  -22.0200 C   0  0  0  0  0  0  0  0  0  0  0  0
   -8.7070    2.5980  -22.7480 N   0  0  0  0  0  0  0  0  0  0  0  0
   -8.4550    1.7940  -23.8240 C   0  0  0  0  0  0  0  0  0  0  0  0
   -7.3150    1.5390  -24.1830 O   0  0  0  0  0  0  0  0  0  0  0  0
   -9.6420    1.1900  -24.5840 C   0  0  0  0  0  0  0  0  0  0  0  0
  -10.0940   -0.0220  -23.9300 N   0  0  0  0  0  0  0  0  0  0  0  0
   -9.2180   -1.1850  -23.9100 C   0  0  0  0  0  0  0  0  0  0  0  0
   -9.3030   -1.9250  -22.5480 C   0  0  2  0  0  0  0  0  0  0  0  0
   -8.7170   -0.9860  -21.4580 C   0  0  0  0  0  0  0  0  0  0  0  0
   -9.2460   -0.0030  -20.9740 O   0  0  0  0  0  0  0  0  0  0  0  0
   -7.4410   -1.4160  -21.1550 N   0  0  0  0  0  0  0  0  0  0  0  0
   -6.6600   -0.8020  -20.1430 C   0  0  0  0  0  0  0  0  0  0  0  0
   -6.9460   -1.0570  -18.8220 C   0  0  0  0  0  0  0  0  0  0  0  0
   -6.2310   -0.5760  -17.7780 N   0  0  0  0  0  0  0  0  0  0  0  0
   -5.1860    0.1680  -18.0530 C   0  0  0  0  0  0  0  0  0  0  0  0
   -4.7940    0.5410  -19.3700 C   0  0  0  0  0  0  0  0  0  0  0  0
   -3.7120    1.4320  -19.6050 C   0  0  0  0  0  0  0  0  0  0  0  0
   -3.4520    1.8840  -20.8720 C   0  0  0  0  0  0  0  0  0  0  0  0
   -4.2550    1.4680  -21.9550 C   0  0  0  0  0  0  0  0  0  0  0  0
   -5.2640    0.5500  -21.7640 C   0  0  0  0  0  0  0  0  0  0  0  0
   -5.5700    0.0730  -20.4590 C   0  0  0  0  0  0  0  0  0  0  0  0
   -5.8740    0.2490  -22.6100 H   0  0  0  0  0  0  0  0  0  0  0  0
   -4.0640    1.8600  -22.9510 H   0  0  0  0  0  0  0  0  0  0  0  0
   -2.6460    2.5900  -21.0450 H   0  0  0  0  0  0  0  0  0  0  0  0
   -3.1180    1.7590  -18.7560 H   0  0  0  0  0  0  0  0  0  0  0  0
   -4.6220    0.5660  -17.2090 H   0  0  0  0  0  0  0  0  0  0  0  0
   -7.7870   -1.6990  -18.5680 H   0  0  0  0  0  0  0  0  0  0  0  0
   -6.9950   -2.5310  -21.9650 C   0  0  0  0  0  0  0  0  0  0  0  0
   -8.3220   -3.1260  -22.4530 C   0  0  2  0  0  0  0  0  0  0  0  0
   -8.2000   -3.9830  -23.7270 C   0  0  0  0  0  0  0  0  0  0  0  0
   -7.5450   -5.2720  -23.5640 N   0  0  0  0  0  0  0  0  0  0  0  0
   -6.1640   -5.4060  -23.3950 C   0  0  0  0  0  0  0  0  0  0  0  0
   -5.6860   -6.4850  -22.6340 C   0  0  0  0  0  0  0  0  0  0  0  0
   -4.3270   -6.6800  -22.4440 C   0  0  0  0  0  0  0  0  0  0  0  0
   -3.4010   -5.8130  -23.0130 C   0  0  0  0  0  0  0  0  0  0  0  0
   -3.8610   -4.7570  -23.7890 C   0  0  0  0  0  0  0  0  0  0  0  0
   -5.2230   -4.5490  -23.9890 C   0  0  0  0  0  0  0  0  0  0  0  0
   -5.5390   -3.7210  -24.6210 H   0  0  0  0  0  0  0  0  0  0  0  0
   -3.1480   -4.0800  -24.2550 H   0  0  0  0  0  0  0  0  0  0  0  0
   -2.3370   -5.9660  -22.8600 H   0  0  0  0  0  0  0  0  0  0  0  0
   -3.9970   -7.5290  -21.8500 H   0  0  0  0  0  0  0  0  0  0  0  0
   -6.4030   -7.1800  -22.1980 H   0  0  0  0  0  0  0  0  0  0  0  0
   -8.0620   -5.9080  -22.9700 H   0  0  0  0  0  0  0  0  0  0  0  0
   -9.2110   -4.1760  -24.1090 H   0  0  0  0  0  0  0  0  0  0  0  0
   -7.6650   -3.4160  -24.5000 H   0  0  0  0  0  0  0  0  0  0  0  0
   -8.6710   -3.7620  -21.6310 H   0  0  0  0  0  0  0  0  0  0  0  0
   -6.3660   -2.1960  -22.8060 H   0  0  0  0  0  0  0  0  0  0  0  0
   -6.3940   -3.2390  -21.3860 H   0  0  0  0  0  0  0  0  0  0  0  0
  -10.7740   -2.2410  -22.3170 C   0  0  0  0  0  0  0  0  0  0  0  0
  -11.2250   -3.3840  -21.6410 C   0  0  0  0  0  0  0  0  0  0  0  0
  -12.5650   -3.5220  -21.3080 C   0  0  0  0  0  0  0  0  0  0  0  0
  -13.0720   -4.8630  -20.3080 Cl  0  0  0  0  0  0  0  0  0  0  0  0
  -13.5180   -2.5840  -21.7000 C   0  0  0  0  0  0  0  0  0  0  0  0
  -13.0930   -1.4830  -22.4150 C   0  0  0  0  0  0  0  0  0  0  0  0
  -11.7440   -1.3100  -22.7190 C   0  0  0  0  0  0  0  0  0  0  0  0
  -11.3830   -0.0770  -23.4860 C   0  0  0  0  0  0  0  0  0  0  0  0
  -12.1960    0.8140  -23.6940 O   0  0  0  0  0  0  0  0  0  0  0  0
  -13.7920   -0.7320  -22.7650 H   0  0  0  0  0  0  0  0  0  0  0  0
  -14.5640   -2.7230  -21.4460 H   0  0  0  0  0  0  0  0  0  0  0  0
  -10.5430   -4.1560  -21.3120 H   0  0  0  0  0  0  0  0  0  0  0  0
   -9.4940   -1.8660  -24.7270 H   0  0  0  0  0  0  0  0  0  0  0  0
   -8.1990   -0.8300  -24.0900 H   0  0  0  0  0  0  0  0  0  0  0  0
   -9.3230    0.9770  -25.6170 H   0  0  0  0  0  0  0  0  0  0  0  0
  -10.5020    1.8630  -24.6200 H   0  0  0  0  0  0  0  0  0  0  0  0
   -9.5620    2.4540  -22.2260 H   0  0  0  0  0  0  0  0  0  0  0  0
   -7.8910    3.9540  -21.3620 H   0  0  0  0  0  0  0  0  0  0  0  0
   -6.8310    3.5280  -22.7330 H   0  0  0  0  0  0  0  0  0  0  0  0
   -7.0880    2.3730  -21.4100 H   0  0  0  0  0  0  0  0  0  0  0  0
  1  2  1  0  0  0  0
  1 66  1  0  0  0  0
  1 67  1  0  0  0  0
  1 68  1  0  0  0  0
  2  3  1  0  0  0  0
  2 65  1  0  0  0  0
  3  4  2  0  0  0  0
  3  5  1  0  0  0  0
  5  6  1  0  0  0  0
  5 63  1  0  0  0  0
  5 64  1  0  0  0  0
  6  7  1  0  0  0  0
  6 56  1  0  0  0  0
  7  8  1  0  0  0  0
  7 61  1  0  0  0  0
  7 62  1  0  0  0  0
  8  9  1  1  0  0  0
  8 29  1  0  0  0  0
  8 49  1  0  0  0  0
  9 10  2  0  0  0  0
  9 11  1  0  0  0  0
 11 12  1  0  0  0  0
 11 28  1  0  0  0  0
 12 13  2  0  0  0  0
 12 21  1  0  0  0  0
 13 14  1  0  0  0  0
 13 27  1  0  0  0  0
 14 15  2  0  0  0  0
 15 16  1  0  0  0  0
 15 26  1  0  0  0  0
 16 17  2  0  0  0  0
 16 21  1  0  0  0  0
 17 18  1  0  0  0  0
 17 25  1  0  0  0  0
 18 19  2  0  0  0  0
 18 24  1  0  0  0  0
 19 20  1  0  0  0  0
 19 23  1  0  0  0  0
 20 21  2  0  0  0  0
 20 22  1  0  0  0  0
 28 29  1  0  0  0  0
 28 47  1  0  0  0  0
 28 48  1  0  0  0  0
 29 30  1  0  0  0  0
 29 46  1  1  0  0  0
 30 31  1  0  0  0  0
 30 44  1  0  0  0  0
 30 45  1  0  0  0  0
 31 32  1  0  0  0  0
 31 43  1  0  0  0  0
 32 33  2  0  0  0  0
 32 37  1  0  0  0  0
 33 34  1  0  0  0  0
 33 42  1  0  0  0  0
 34 35  2  0  0  0  0
 34 41  1  0  0  0  0
 35 36  1  0  0  0  0
 35 40  1  0  0  0  0
 36 37  2  0  0  0  0
 36 39  1  0  0  0  0
 37 38  1  0  0  0  0
 49 50  2  0  0  0  0
 49 55  1  0  0  0  0
 50 51  1  0  0  0  0
 50 60  1  0  0  0  0
 51 52  1  0  0  0  0
 51 53  2  0  0  0  0
 53 54  1  0  0  0  0
 53 59  1  0  0  0  0
 54 55  2  0  0  0  0
 54 58  1  0  0  0  0
 55 56  1  0  0  0  0
 56 57  2  0  0  0  0
M  END
>  <MODEL>
       1

$$$$
