tmp_first_model_14_44.pdb
 OpenBabel08282500413D

 60 64  0  0  1  0  0  0  0  0999 V2000
   -8.1400    0.0080  -29.7690 C   0  0  0  0  0  0  0  0  0  0  0  0
   -8.2000   -1.1190  -28.8670 N   0  0  0  0  0  0  0  0  0  0  0  0
   -7.3820   -1.1140  -27.7710 C   0  0  0  0  0  0  0  0  0  0  0  0
   -6.5410   -0.2580  -27.5500 O   0  0  0  0  0  0  0  0  0  0  0  0
   -7.6100   -2.3020  -26.8240 C   0  0  0  0  0  0  0  0  0  0  0  0
   -8.4750   -1.9280  -25.7150 N   0  0  0  0  0  0  0  0  0  0  0  0
   -7.9120   -1.2890  -24.5300 C   0  0  0  0  0  0  0  0  0  0  0  0
   -8.7530   -1.5430  -23.2480 C   0  0  2  0  0  0  0  0  0  0  0  0
   -8.2130   -0.5740  -22.1800 C   0  0  0  0  0  0  0  0  0  0  0  0
   -8.4030    0.6180  -22.0980 O   0  0  0  0  0  0  0  0  0  0  0  0
   -7.4130   -1.2940  -21.3130 N   0  0  0  0  0  0  0  0  0  0  0  0
   -6.6320   -0.7150  -20.2850 C   0  0  0  0  0  0  0  0  0  0  0  0
   -6.9500   -0.9830  -18.9790 C   0  0  0  0  0  0  0  0  0  0  0  0
   -6.2820   -0.4850  -17.9130 N   0  0  0  0  0  0  0  0  0  0  0  0
   -5.2310    0.2610  -18.1460 C   0  0  0  0  0  0  0  0  0  0  0  0
   -4.7530    0.5660  -19.4520 C   0  0  0  0  0  0  0  0  0  0  0  0
   -3.5970    1.3640  -19.6560 C   0  0  0  0  0  0  0  0  0  0  0  0
   -3.1520    1.6270  -20.9210 C   0  0  0  0  0  0  0  0  0  0  0  0
   -3.8300    1.0950  -22.0410 C   0  0  0  0  0  0  0  0  0  0  0  0
   -4.9520    0.3240  -21.8710 C   0  0  0  0  0  0  0  0  0  0  0  0
   -5.4580    0.0580  -20.5670 C   0  0  0  0  0  0  0  0  0  0  0  0
   -5.4630   -0.0890  -22.7370 H   0  0  0  0  0  0  0  0  0  0  0  0
   -3.4670    1.3100  -23.0420 H   0  0  0  0  0  0  0  0  0  0  0  0
   -2.2790    2.2540  -21.0750 H   0  0  0  0  0  0  0  0  0  0  0  0
   -3.0870    1.7640  -18.7830 H   0  0  0  0  0  0  0  0  0  0  0  0
   -4.6940    0.6590  -17.2820 H   0  0  0  0  0  0  0  0  0  0  0  0
   -7.8060   -1.6180  -18.7490 H   0  0  0  0  0  0  0  0  0  0  0  0
   -7.3350   -2.7090  -21.6030 C   0  0  0  0  0  0  0  0  0  0  0  0
   -8.5110   -2.9200  -22.5470 C   0  0  2  0  0  0  0  0  0  0  0  0
   -8.3940   -4.1350  -23.4470 C   0  0  0  0  0  0  0  0  0  0  0  0
   -7.1390   -4.1380  -24.0910 O   0  0  0  0  0  0  0  0  0  0  0  0
   -6.9700   -5.2500  -24.9300 C   0  0  0  0  0  0  0  0  0  0  0  0
   -7.0210   -6.1940  -24.3650 H   0  0  0  0  0  0  0  0  0  0  0  0
   -5.9810   -5.1670  -25.3860 H   0  0  0  0  0  0  0  0  0  0  0  0
   -7.7260   -5.2790  -25.7310 H   0  0  0  0  0  0  0  0  0  0  0  0
   -8.5110   -5.0490  -22.8440 H   0  0  0  0  0  0  0  0  0  0  0  0
   -9.2100   -4.1120  -24.1840 H   0  0  0  0  0  0  0  0  0  0  0  0
   -9.4080   -3.0690  -21.9260 H   0  0  0  0  0  0  0  0  0  0  0  0
   -7.4480   -3.2730  -20.6810 H   0  0  0  0  0  0  0  0  0  0  0  0
   -6.3710   -2.9880  -22.0480 H   0  0  0  0  0  0  0  0  0  0  0  0
  -10.2300   -1.3750  -23.5630 C   0  0  0  0  0  0  0  0  0  0  0  0
  -11.1820   -1.2530  -22.5370 C   0  0  0  0  0  0  0  0  0  0  0  0
  -12.5360   -1.2610  -22.8660 C   0  0  0  0  0  0  0  0  0  0  0  0
  -13.7500   -1.3570  -21.6330 Cl  0  0  0  0  0  0  0  0  0  0  0  0
  -12.9920   -1.3060  -24.1800 C   0  0  0  0  0  0  0  0  0  0  0  0
  -12.0520   -1.4300  -25.1810 C   0  0  0  0  0  0  0  0  0  0  0  0
  -10.6950   -1.4870  -24.8770 C   0  0  0  0  0  0  0  0  0  0  0  0
   -9.7940   -1.8100  -26.0150 C   0  0  0  0  0  0  0  0  0  0  0  0
  -10.2230   -2.0140  -27.1530 O   0  0  0  0  0  0  0  0  0  0  0  0
  -12.3030   -1.5550  -26.2270 H   0  0  0  0  0  0  0  0  0  0  0  0
  -14.0650   -1.3060  -24.3650 H   0  0  0  0  0  0  0  0  0  0  0  0
  -10.8870   -1.1910  -21.4940 H   0  0  0  0  0  0  0  0  0  0  0  0
   -6.8990   -1.6670  -24.3800 H   0  0  0  0  0  0  0  0  0  0  0  0
   -7.8300   -0.2040  -24.6770 H   0  0  0  0  0  0  0  0  0  0  0  0
   -6.6510   -2.6500  -26.4260 H   0  0  0  0  0  0  0  0  0  0  0  0
   -8.1040   -3.1140  -27.3720 H   0  0  0  0  0  0  0  0  0  0  0  0
   -9.1170   -1.5170  -28.6970 H   0  0  0  0  0  0  0  0  0  0  0  0
   -8.4160    0.9480  -29.2740 H   0  0  0  0  0  0  0  0  0  0  0  0
   -8.8080   -0.1760  -30.6150 H   0  0  0  0  0  0  0  0  0  0  0  0
   -7.1200    0.1220  -30.1420 H   0  0  0  0  0  0  0  0  0  0  0  0
  1  2  1  0  0  0  0
  1 58  1  0  0  0  0
  1 59  1  0  0  0  0
  1 60  1  0  0  0  0
  2  3  1  0  0  0  0
  2 57  1  0  0  0  0
  3  4  2  0  0  0  0
  3  5  1  0  0  0  0
  5  6  1  0  0  0  0
  5 55  1  0  0  0  0
  5 56  1  0  0  0  0
  6  7  1  0  0  0  0
  6 48  1  0  0  0  0
  7  8  1  0  0  0  0
  7 53  1  0  0  0  0
  7 54  1  0  0  0  0
  8  9  1  1  0  0  0
  8 29  1  0  0  0  0
  8 41  1  0  0  0  0
  9 10  2  0  0  0  0
  9 11  1  0  0  0  0
 11 12  1  0  0  0  0
 11 28  1  0  0  0  0
 12 13  2  0  0  0  0
 12 21  1  0  0  0  0
 13 14  1  0  0  0  0
 13 27  1  0  0  0  0
 14 15  2  0  0  0  0
 15 16  1  0  0  0  0
 15 26  1  0  0  0  0
 16 17  2  0  0  0  0
 16 21  1  0  0  0  0
 17 18  1  0  0  0  0
 17 25  1  0  0  0  0
 18 19  2  0  0  0  0
 18 24  1  0  0  0  0
 19 20  1  0  0  0  0
 19 23  1  0  0  0  0
 20 21  2  0  0  0  0
 20 22  1  0  0  0  0
 28 29  1  0  0  0  0
 28 39  1  0  0  0  0
 28 40  1  0  0  0  0
 29 30  1  0  0  0  0
 29 38  1  1  0  0  0
 30 31  1  0  0  0  0
 30 36  1  0  0  0  0
 30 37  1  0  0  0  0
 31 32  1  0  0  0  0
 32 33  1  0  0  0  0
 32 34  1  0  0  0  0
 32 35  1  0  0  0  0
 41 42  2  0  0  0  0
 41 47  1  0  0  0  0
 42 43  1  0  0  0  0
 42 52  1  0  0  0  0
 43 44  1  0  0  0  0
 43 45  2  0  0  0  0
 45 46  1  0  0  0  0
 45 51  1  0  0  0  0
 46 47  2  0  0  0  0
 46 50  1  0  0  0  0
 47 48  1  0  0  0  0
 48 49  2  0  0  0  0
M  END
>  <MODEL>
       1

$$$$
