tmp_first_model_18_10.pdb
 OpenBabel08282502533D

 57 62  0  0  1  0  0  0  0  0999 V2000
   -7.3730   -3.7010  -23.7180 C   0  0  0  0  0  0  0  0  0  0  0  0
   -8.3180   -3.0510  -22.6940 C   0  0  1  0  0  0  0  0  0  0  0  0
   -7.6640   -2.7940  -21.3180 C   0  0  0  0  0  0  0  0  0  0  0  0
   -7.4170   -1.3700  -21.2820 N   0  0  0  0  0  0  0  0  0  0  0  0
   -6.6420   -0.7890  -20.2430 C   0  0  0  0  0  0  0  0  0  0  0  0
   -6.9380   -1.0630  -18.9300 C   0  0  0  0  0  0  0  0  0  0  0  0
   -6.2670   -0.5720  -17.8590 N   0  0  0  0  0  0  0  0  0  0  0  0
   -5.2400    0.2060  -18.1020 C   0  0  0  0  0  0  0  0  0  0  0  0
   -4.7860    0.5360  -19.4100 C   0  0  0  0  0  0  0  0  0  0  0  0
   -3.6440    1.3550  -19.6090 C   0  0  0  0  0  0  0  0  0  0  0  0
   -3.1950    1.6150  -20.8750 C   0  0  0  0  0  0  0  0  0  0  0  0
   -3.8570    1.0600  -21.9910 C   0  0  0  0  0  0  0  0  0  0  0  0
   -4.9700    0.2730  -21.8220 C   0  0  0  0  0  0  0  0  0  0  0  0
   -5.4820    0.0100  -20.5220 C   0  0  0  0  0  0  0  0  0  0  0  0
   -5.4610   -0.1660  -22.6850 H   0  0  0  0  0  0  0  0  0  0  0  0
   -3.4830    1.2570  -22.9900 H   0  0  0  0  0  0  0  0  0  0  0  0
   -2.3230    2.2450  -21.0290 H   0  0  0  0  0  0  0  0  0  0  0  0
   -3.1410    1.7610  -18.7360 H   0  0  0  0  0  0  0  0  0  0  0  0
   -4.7000    0.5990  -17.2410 H   0  0  0  0  0  0  0  0  0  0  0  0
   -7.7820   -1.7080  -18.6910 H   0  0  0  0  0  0  0  0  0  0  0  0
   -8.2600   -0.6660  -22.1230 C   0  0  0  0  0  0  0  0  0  0  0  0
   -8.3950    0.5380  -22.1080 O   0  0  0  0  0  0  0  0  0  0  0  0
   -8.9410   -1.6770  -23.1020 C   0  0  1  0  0  0  0  0  0  0  0  0
   -8.5670   -1.2450  -24.5340 C   0  0  0  0  0  0  0  0  0  0  0  0
   -9.3000   -0.0550  -24.9200 N   0  0  0  0  0  0  0  0  0  0  0  0
   -8.6260    1.0080  -25.6550 C   0  0  0  0  0  0  0  0  0  0  0  0
   -8.6220    0.7510  -27.1370 C   0  0  0  0  0  0  0  0  0  0  0  0
   -7.8690   -0.0600  -27.9170 C   0  0  0  0  0  0  0  0  0  0  0  0
   -8.4190   -0.0220  -29.1850 N   0  3  0  0  0  0  0  0  0  0  0  0
   -9.4910    0.7740  -29.1630 C   0  0  0  0  0  0  0  0  0  0  0  0
   -9.6370    1.2650  -27.9280 N   0  0  0  0  0  0  0  0  0  0  0  0
  -10.4790    1.6750  -27.5160 H   0  0  0  0  0  0  0  0  0  0  0  0
  -10.1300    1.0000  -30.0010 H   0  0  0  0  0  0  0  0  0  0  0  0
   -8.1090   -0.5940  -29.9640 H   0  0  0  0  0  0  0  0  0  0  0  0
   -6.9990   -0.6740  -27.6970 H   0  0  0  0  0  0  0  0  0  0  0  0
   -9.1860    1.9290  -25.4380 H   0  0  0  0  0  0  0  0  0  0  0  0
   -7.6150    1.1150  -25.2340 H   0  0  0  0  0  0  0  0  0  0  0  0
  -10.6630   -0.0600  -24.9170 C   0  0  0  0  0  0  0  0  0  0  0  0
  -11.3200    0.6650  -25.6700 O   0  0  0  0  0  0  0  0  0  0  0  0
  -11.2820   -0.9440  -23.8850 C   0  0  0  0  0  0  0  0  0  0  0  0
  -12.6750   -0.9310  -23.7710 C   0  0  0  0  0  0  0  0  0  0  0  0
  -13.3210   -1.6690  -22.8000 C   0  0  0  0  0  0  0  0  0  0  0  0
  -12.5160   -2.3650  -21.9100 C   0  0  0  0  0  0  0  0  0  0  0  0
  -13.1090   -3.0160  -20.8940 F   0  0  0  0  0  0  0  0  0  0  0  0
  -11.1360   -2.4140  -22.0020 C   0  0  0  0  0  0  0  0  0  0  0  0
  -10.4740   -1.6960  -23.0140 C   0  0  0  0  0  0  0  0  0  0  0  0
  -10.6140   -2.9850  -21.2450 H   0  0  0  0  0  0  0  0  0  0  0  0
  -14.4040   -1.7160  -22.7170 H   0  0  0  0  0  0  0  0  0  0  0  0
  -13.2390   -0.3080  -24.4570 H   0  0  0  0  0  0  0  0  0  0  0  0
   -8.7700   -2.0820  -25.2180 H   0  0  0  0  0  0  0  0  0  0  0  0
   -7.4980   -1.0300  -24.5650 H   0  0  0  0  0  0  0  0  0  0  0  0
   -8.3630   -3.0710  -20.5140 H   0  0  0  0  0  0  0  0  0  0  0  0
   -6.7210   -3.3360  -21.1760 H   0  0  0  0  0  0  0  0  0  0  0  0
   -9.1320   -3.7710  -22.5670 H   0  0  0  0  0  0  0  0  0  0  0  0
   -7.8940   -3.8890  -24.6640 H   0  0  0  0  0  0  0  0  0  0  0  0
   -7.0280   -4.6710  -23.3470 H   0  0  0  0  0  0  0  0  0  0  0  0
   -6.4880   -3.0930  -23.9360 H   0  0  0  0  0  0  0  0  0  0  0  0
  1  2  1  0  0  0  0
  1 55  1  0  0  0  0
  1 56  1  0  0  0  0
  1 57  1  0  0  0  0
  2  3  1  0  0  0  0
  2 23  1  0  0  0  0
  2 54  1  1  0  0  0
  3  4  1  0  0  0  0
  3 52  1  0  0  0  0
  3 53  1  0  0  0  0
  4  5  1  0  0  0  0
  4 21  1  0  0  0  0
  5  6  2  0  0  0  0
  5 14  1  0  0  0  0
  6  7  1  0  0  0  0
  6 20  1  0  0  0  0
  7  8  2  0  0  0  0
  8  9  1  0  0  0  0
  8 19  1  0  0  0  0
  9 10  2  0  0  0  0
  9 14  1  0  0  0  0
 10 11  1  0  0  0  0
 10 18  1  0  0  0  0
 11 12  2  0  0  0  0
 11 17  1  0  0  0  0
 12 13  1  0  0  0  0
 12 16  1  0  0  0  0
 13 14  2  0  0  0  0
 13 15  1  0  0  0  0
 21 22  2  0  0  0  0
 23 21  1  1  0  0  0
 23 24  1  0  0  0  0
 23 46  1  0  0  0  0
 24 25  1  0  0  0  0
 24 50  1  0  0  0  0
 24 51  1  0  0  0  0
 25 26  1  0  0  0  0
 25 38  1  0  0  0  0
 26 27  1  0  0  0  0
 26 36  1  0  0  0  0
 26 37  1  0  0  0  0
 27 28  2  0  0  0  0
 27 31  1  0  0  0  0
 28 29  1  0  0  0  0
 28 35  1  0  0  0  0
 29 30  2  0  0  0  0
 29 34  1  0  0  0  0
 30 31  1  0  0  0  0
 30 33  1  0  0  0  0
 31 32  1  0  0  0  0
 38 39  2  0  0  0  0
 38 40  1  0  0  0  0
 40 41  2  0  0  0  0
 40 46  1  0  0  0  0
 41 42  1  0  0  0  0
 41 49  1  0  0  0  0
 42 43  2  0  0  0  0
 42 48  1  0  0  0  0
 43 44  1  0  0  0  0
 43 45  1  0  0  0  0
 45 46  2  0  0  0  0
 45 47  1  0  0  0  0
M  CHG  1  29   1
M  END
>  <MODEL>
       1

$$$$
