tmp_first_model_20_56.pdb
 OpenBabel08282503553D

 57 62  0  0  1  0  0  0  0  0999 V2000
   -7.4890   -3.4880  -23.8120 C   0  0  0  0  0  0  0  0  0  0  0  0
   -8.3750   -2.8990  -22.7140 C   0  0  1  0  0  0  0  0  0  0  0  0
   -7.6240   -2.7560  -21.3750 C   0  0  0  0  0  0  0  0  0  0  0  0
   -7.3660   -1.3430  -21.2520 N   0  0  0  0  0  0  0  0  0  0  0  0
   -6.5860   -0.8040  -20.2030 C   0  0  0  0  0  0  0  0  0  0  0  0
   -6.8970   -1.0600  -18.8900 C   0  0  0  0  0  0  0  0  0  0  0  0
   -6.2220   -0.5540  -17.8260 N   0  0  0  0  0  0  0  0  0  0  0  0
   -5.1820    0.2030  -18.0850 C   0  0  0  0  0  0  0  0  0  0  0  0
   -4.7300    0.5150  -19.4010 C   0  0  0  0  0  0  0  0  0  0  0  0
   -3.5930    1.3340  -19.6280 C   0  0  0  0  0  0  0  0  0  0  0  0
   -3.1710    1.6000  -20.9010 C   0  0  0  0  0  0  0  0  0  0  0  0
   -3.8630    1.0630  -22.0080 C   0  0  0  0  0  0  0  0  0  0  0  0
   -4.9830    0.2920  -21.8220 C   0  0  0  0  0  0  0  0  0  0  0  0
   -5.4450    0.0000  -20.5050 C   0  0  0  0  0  0  0  0  0  0  0  0
   -5.5290   -0.0780  -22.6840 H   0  0  0  0  0  0  0  0  0  0  0  0
   -3.5140    1.2770  -23.0160 H   0  0  0  0  0  0  0  0  0  0  0  0
   -2.3090    2.2350  -21.0790 H   0  0  0  0  0  0  0  0  0  0  0  0
   -3.0690    1.7420  -18.7700 H   0  0  0  0  0  0  0  0  0  0  0  0
   -4.6280    0.6090  -17.2370 H   0  0  0  0  0  0  0  0  0  0  0  0
   -7.7610   -1.6780  -18.6490 H   0  0  0  0  0  0  0  0  0  0  0  0
   -8.2100   -0.5690  -22.0230 C   0  0  0  0  0  0  0  0  0  0  0  0
   -8.3080    0.6320  -21.9440 O   0  0  0  0  0  0  0  0  0  0  0  0
   -8.9870   -1.4900  -22.9890 C   0  0  1  0  0  0  0  0  0  0  0  0
   -8.8100   -1.0210  -24.4530 C   0  0  0  0  0  0  0  0  0  0  0  0
   -9.4740    0.2370  -24.7230 N   0  0  0  0  0  0  0  0  0  0  0  0
   -8.7770    1.2870  -25.4420 C   0  0  0  0  0  0  0  0  0  0  0  0
   -8.2200    2.3330  -24.5130 C   0  0  0  0  0  0  0  0  0  0  0  0
   -6.9230    2.2640  -24.2150 N   0  0  0  0  0  0  0  0  0  0  0  0
   -6.4700    3.2670  -23.4600 C   0  0  0  0  0  0  0  0  0  0  0  0
   -7.2730    4.2870  -22.9890 C   0  0  0  0  0  0  0  0  0  0  0  0
   -8.6220    4.1910  -23.2850 C   0  0  0  0  0  0  0  0  0  0  0  0
   -9.1050    3.2260  -24.0570 N   0  0  0  0  0  0  0  0  0  0  0  0
   -9.3360    4.9190  -22.9100 H   0  0  0  0  0  0  0  0  0  0  0  0
   -6.8650    5.0920  -22.3890 H   0  0  0  0  0  0  0  0  0  0  0  0
   -5.4080    3.2490  -23.2380 H   0  0  0  0  0  0  0  0  0  0  0  0
   -9.5090    1.7390  -26.1150 H   0  0  0  0  0  0  0  0  0  0  0  0
   -7.9730    0.8290  -26.0220 H   0  0  0  0  0  0  0  0  0  0  0  0
  -10.7620    0.4750  -24.3300 C   0  0  0  0  0  0  0  0  0  0  0  0
  -11.4310    1.3990  -24.7620 O   0  0  0  0  0  0  0  0  0  0  0  0
  -11.3000   -0.4610  -23.2990 C   0  0  0  0  0  0  0  0  0  0  0  0
  -12.6460   -0.3180  -22.9480 C   0  0  0  0  0  0  0  0  0  0  0  0
  -13.2470   -1.2150  -22.0830 C   0  0  0  0  0  0  0  0  0  0  0  0
  -12.4370   -2.2270  -21.5740 C   0  0  0  0  0  0  0  0  0  0  0  0
  -12.9810   -3.1810  -20.7990 F   0  0  0  0  0  0  0  0  0  0  0  0
  -11.0740   -2.2890  -21.7700 C   0  0  0  0  0  0  0  0  0  0  0  0
  -10.4810   -1.4220  -22.6910 C   0  0  0  0  0  0  0  0  0  0  0  0
  -10.5150   -3.0390  -21.2170 H   0  0  0  0  0  0  0  0  0  0  0  0
  -14.3000   -1.1650  -21.8130 H   0  0  0  0  0  0  0  0  0  0  0  0
  -13.2070    0.5030  -23.3840 H   0  0  0  0  0  0  0  0  0  0  0  0
   -9.2340   -1.7920  -25.1050 H   0  0  0  0  0  0  0  0  0  0  0  0
   -7.7490   -0.9130  -24.6880 H   0  0  0  0  0  0  0  0  0  0  0  0
   -6.6810   -3.3110  -21.3530 H   0  0  0  0  0  0  0  0  0  0  0  0
   -8.2440   -3.1050  -20.5430 H   0  0  0  0  0  0  0  0  0  0  0  0
   -9.1870   -3.6210  -22.6070 H   0  0  0  0  0  0  0  0  0  0  0  0
   -6.6160   -2.8650  -24.0270 H   0  0  0  0  0  0  0  0  0  0  0  0
   -8.0520   -3.6300  -24.7380 H   0  0  0  0  0  0  0  0  0  0  0  0
   -7.1320   -4.4770  -23.5060 H   0  0  0  0  0  0  0  0  0  0  0  0
  1  2  1  0  0  0  0
  1 55  1  0  0  0  0
  1 56  1  0  0  0  0
  1 57  1  0  0  0  0
  2  3  1  0  0  0  0
  2 23  1  0  0  0  0
  2 54  1  1  0  0  0
  3  4  1  0  0  0  0
  3 52  1  0  0  0  0
  3 53  1  0  0  0  0
  4  5  1  0  0  0  0
  4 21  1  0  0  0  0
  5  6  2  0  0  0  0
  5 14  1  0  0  0  0
  6  7  1  0  0  0  0
  6 20  1  0  0  0  0
  7  8  2  0  0  0  0
  8  9  1  0  0  0  0
  8 19  1  0  0  0  0
  9 10  2  0  0  0  0
  9 14  1  0  0  0  0
 10 11  1  0  0  0  0
 10 18  1  0  0  0  0
 11 12  2  0  0  0  0
 11 17  1  0  0  0  0
 12 13  1  0  0  0  0
 12 16  1  0  0  0  0
 13 14  2  0  0  0  0
 13 15  1  0  0  0  0
 21 22  2  0  0  0  0
 23 21  1  1  0  0  0
 23 24  1  0  0  0  0
 23 46  1  0  0  0  0
 24 25  1  0  0  0  0
 24 50  1  0  0  0  0
 24 51  1  0  0  0  0
 25 26  1  0  0  0  0
 25 38  1  0  0  0  0
 26 27  1  0  0  0  0
 26 36  1  0  0  0  0
 26 37  1  0  0  0  0
 27 28  2  0  0  0  0
 27 32  1  0  0  0  0
 28 29  1  0  0  0  0
 29 30  2  0  0  0  0
 29 35  1  0  0  0  0
 30 31  1  0  0  0  0
 30 34  1  0  0  0  0
 31 32  2  0  0  0  0
 31 33  1  0  0  0  0
 38 39  2  0  0  0  0
 38 40  1  0  0  0  0
 40 41  2  0  0  0  0
 40 46  1  0  0  0  0
 41 42  1  0  0  0  0
 41 49  1  0  0  0  0
 42 43  2  0  0  0  0
 42 48  1  0  0  0  0
 43 44  1  0  0  0  0
 43 45  1  0  0  0  0
 45 46  2  0  0  0  0
 45 47  1  0  0  0  0
M  END
>  <MODEL>
       1

$$$$
