tmp_first_model_15_16.pdb
 OpenBabel08282501153D

 61 66  0  0  1  0  0  0  0  0999 V2000
   -7.3840    3.4110  -21.8240 C   0  0  0  0  0  0  0  0  0  0  0  0
   -8.2290    2.9340  -22.9020 N   0  0  0  0  0  0  0  0  0  0  0  0
   -7.6550    2.2400  -23.9100 C   0  0  0  0  0  0  0  0  0  0  0  0
   -6.4410    2.1260  -24.0210 O   0  0  0  0  0  0  0  0  0  0  0  0
   -8.6080    1.6190  -24.9380 C   0  0  0  0  0  0  0  0  0  0  0  0
   -9.3410    0.4710  -24.4350 N   0  0  0  0  0  0  0  0  0  0  0  0
   -8.6300   -0.7850  -24.2590 C   0  0  0  0  0  0  0  0  0  0  0  0
   -9.0330   -1.4940  -22.9390 C   0  0  2  0  0  0  0  0  0  0  0  0
   -8.4820   -0.7050  -21.7230 C   0  0  0  0  0  0  0  0  0  0  0  0
   -8.9090    0.3390  -21.2690 O   0  0  0  0  0  0  0  0  0  0  0  0
   -7.4000   -1.3810  -21.2070 N   0  0  0  0  0  0  0  0  0  0  0  0
   -6.6030   -0.8110  -20.1770 C   0  0  0  0  0  0  0  0  0  0  0  0
   -6.9100   -1.0430  -18.8600 C   0  0  0  0  0  0  0  0  0  0  0  0
   -6.2090   -0.5510  -17.8100 N   0  0  0  0  0  0  0  0  0  0  0  0
   -5.1710    0.2080  -18.0760 C   0  0  0  0  0  0  0  0  0  0  0  0
   -4.7330    0.5300  -19.3930 C   0  0  0  0  0  0  0  0  0  0  0  0
   -3.6050    1.3640  -19.6370 C   0  0  0  0  0  0  0  0  0  0  0  0
   -3.2180    1.6520  -20.9180 C   0  0  0  0  0  0  0  0  0  0  0  0
   -3.9380    1.1230  -22.0110 C   0  0  0  0  0  0  0  0  0  0  0  0
   -5.0320    0.3180  -21.8010 C   0  0  0  0  0  0  0  0  0  0  0  0
   -5.4650    0.0030  -20.4830 C   0  0  0  0  0  0  0  0  0  0  0  0
   -5.5880   -0.0700  -22.6490 H   0  0  0  0  0  0  0  0  0  0  0  0
   -3.6440    1.3660  -23.0270 H   0  0  0  0  0  0  0  0  0  0  0  0
   -2.3630    2.3010  -21.0980 H   0  0  0  0  0  0  0  0  0  0  0  0
   -3.0770    1.7770  -18.7820 H   0  0  0  0  0  0  0  0  0  0  0  0
   -4.6220    0.6120  -17.2260 H   0  0  0  0  0  0  0  0  0  0  0  0
   -7.7630   -1.6680  -18.6070 H   0  0  0  0  0  0  0  0  0  0  0  0
   -7.0710   -2.6050  -21.9080 C   0  0  0  0  0  0  0  0  0  0  0  0
   -8.3140   -2.8710  -22.7770 C   0  0  2  0  0  0  0  0  0  0  0  0
   -7.9530   -3.6320  -24.0710 C   0  0  0  0  0  0  0  0  0  0  0  0
   -7.4240   -4.9610  -23.7750 N   0  0  0  0  0  0  0  0  0  0  0  0
   -6.1350   -5.2360  -23.6740 N   0  0  0  0  0  0  0  0  0  0  0  0
   -6.1680   -6.5200  -23.3510 C   0  0  0  0  0  0  0  0  0  0  0  0
   -7.4280   -6.9950  -23.2600 N   0  0  0  0  0  0  0  0  0  0  0  0
   -8.2090   -5.9880  -23.5350 N   0  0  0  0  0  0  0  0  0  0  0  0
   -5.2840   -7.1180  -23.1730 H   0  0  0  0  0  0  0  0  0  0  0  0
   -7.1680   -3.1190  -24.6360 H   0  0  0  0  0  0  0  0  0  0  0  0
   -8.8320   -3.7850  -24.7060 H   0  0  0  0  0  0  0  0  0  0  0  0
   -8.9890   -3.5230  -22.2170 H   0  0  0  0  0  0  0  0  0  0  0  0
   -6.1680   -2.4800  -22.5270 H   0  0  0  0  0  0  0  0  0  0  0  0
   -6.8730   -3.4220  -21.2050 H   0  0  0  0  0  0  0  0  0  0  0  0
  -10.5510   -1.5210  -22.8650 C   0  0  0  0  0  0  0  0  0  0  0  0
  -11.1940   -2.3850  -21.9690 C   0  0  0  0  0  0  0  0  0  0  0  0
  -12.5740   -2.3950  -21.8820 C   0  0  0  0  0  0  0  0  0  0  0  0
  -13.3570   -3.4810  -20.7710 Cl  0  0  0  0  0  0  0  0  0  0  0  0
  -13.3570   -1.5400  -22.6560 C   0  0  0  0  0  0  0  0  0  0  0  0
  -12.7300   -0.6330  -23.4870 C   0  0  0  0  0  0  0  0  0  0  0  0
  -11.3370   -0.5970  -23.5700 C   0  0  0  0  0  0  0  0  0  0  0  0
  -10.7080    0.5150  -24.3560 C   0  0  0  0  0  0  0  0  0  0  0  0
  -11.3780    1.4140  -24.8550 O   0  0  0  0  0  0  0  0  0  0  0  0
  -13.2890    0.0890  -24.0730 H   0  0  0  0  0  0  0  0  0  0  0  0
  -14.4370   -1.5740  -22.5730 H   0  0  0  0  0  0  0  0  0  0  0  0
  -10.6300   -3.0320  -21.3090 H   0  0  0  0  0  0  0  0  0  0  0  0
   -8.8330   -1.4620  -25.1070 H   0  0  0  0  0  0  0  0  0  0  0  0
   -7.5620   -0.5490  -24.2390 H   0  0  0  0  0  0  0  0  0  0  0  0
   -7.9740    1.3410  -25.7890 H   0  0  0  0  0  0  0  0  0  0  0  0
   -9.3700    2.3320  -25.2670 H   0  0  0  0  0  0  0  0  0  0  0  0
   -9.2250    2.8660  -22.7530 H   0  0  0  0  0  0  0  0  0  0  0  0
   -6.6620    4.1510  -22.1880 H   0  0  0  0  0  0  0  0  0  0  0  0
   -6.8190    2.5730  -21.3810 H   0  0  0  0  0  0  0  0  0  0  0  0
   -8.0270    3.8920  -21.0880 H   0  0  0  0  0  0  0  0  0  0  0  0
  1  2  1  0  0  0  0
  1 59  1  0  0  0  0
  1 60  1  0  0  0  0
  1 61  1  0  0  0  0
  2  3  1  0  0  0  0
  2 58  1  0  0  0  0
  3  4  2  0  0  0  0
  3  5  1  0  0  0  0
  5  6  1  0  0  0  0
  5 56  1  0  0  0  0
  5 57  1  0  0  0  0
  6  7  1  0  0  0  0
  6 49  1  0  0  0  0
  7  8  1  0  0  0  0
  7 54  1  0  0  0  0
  7 55  1  0  0  0  0
  8  9  1  1  0  0  0
  8 29  1  0  0  0  0
  8 42  1  0  0  0  0
  9 10  2  0  0  0  0
  9 11  1  0  0  0  0
 11 12  1  0  0  0  0
 11 28  1  0  0  0  0
 12 13  2  0  0  0  0
 12 21  1  0  0  0  0
 13 14  1  0  0  0  0
 13 27  1  0  0  0  0
 14 15  2  0  0  0  0
 15 16  1  0  0  0  0
 15 26  1  0  0  0  0
 16 17  2  0  0  0  0
 16 21  1  0  0  0  0
 17 18  1  0  0  0  0
 17 25  1  0  0  0  0
 18 19  2  0  0  0  0
 18 24  1  0  0  0  0
 19 20  1  0  0  0  0
 19 23  1  0  0  0  0
 20 21  2  0  0  0  0
 20 22  1  0  0  0  0
 28 29  1  0  0  0  0
 28 40  1  0  0  0  0
 28 41  1  0  0  0  0
 29 30  1  0  0  0  0
 29 39  1  1  0  0  0
 30 31  1  0  0  0  0
 30 37  1  0  0  0  0
 30 38  1  0  0  0  0
 31 32  1  0  0  0  0
 31 35  1  0  0  0  0
 32 33  2  0  0  0  0
 33 34  1  0  0  0  0
 33 36  1  0  0  0  0
 34 35  2  0  0  0  0
 42 43  2  0  0  0  0
 42 48  1  0  0  0  0
 43 44  1  0  0  0  0
 43 53  1  0  0  0  0
 44 45  1  0  0  0  0
 44 46  2  0  0  0  0
 46 47  1  0  0  0  0
 46 52  1  0  0  0  0
 47 48  2  0  0  0  0
 47 51  1  0  0  0  0
 48 49  1  0  0  0  0
 49 50  2  0  0  0  0
M  END
>  <MODEL>
       1

$$$$
