tmp_first_model_9_93.pdb
 OpenBabel08272521403D

 62 67  0  0  1  0  0  0  0  0999 V2000
  -11.3180    4.3030  -25.2300 C   0  0  0  0  0  0  0  0  0  0  0  0
   -9.8240    4.1720  -25.5270 C   0  0  0  0  0  0  0  0  0  0  0  0
   -9.0690    3.5900  -24.4250 N   0  0  0  0  0  0  0  0  0  0  0  0
   -8.4880    4.4130  -23.5370 N   0  0  0  0  0  0  0  0  0  0  0  0
   -7.9040    3.6200  -22.6500 C   0  0  0  0  0  0  0  0  0  0  0  0
   -8.1110    2.2650  -22.9710 C   0  0  0  0  0  0  0  0  0  0  0  0
   -8.8910    2.2770  -24.1050 C   0  0  0  0  0  0  0  0  0  0  0  0
   -9.3910    1.1050  -24.9080 C   0  0  0  0  0  0  0  0  0  0  0  0
   -9.8530    0.0020  -24.0860 N   0  0  0  0  0  0  0  0  0  0  0  0
   -9.0380   -1.1940  -23.9800 C   0  0  0  0  0  0  0  0  0  0  0  0
   -9.2230   -1.9100  -22.6170 C   0  0  2  0  0  0  0  0  0  0  0  0
   -8.6610   -1.0280  -21.4690 C   0  0  0  0  0  0  0  0  0  0  0  0
   -9.2300   -0.1070  -20.9090 O   0  0  0  0  0  0  0  0  0  0  0  0
   -7.3770   -1.4350  -21.1920 N   0  0  0  0  0  0  0  0  0  0  0  0
   -6.6000   -0.8250  -20.1690 C   0  0  0  0  0  0  0  0  0  0  0  0
   -6.9050   -1.0490  -18.8500 C   0  0  0  0  0  0  0  0  0  0  0  0
   -6.1940   -0.5480  -17.8110 N   0  0  0  0  0  0  0  0  0  0  0  0
   -5.1640    0.2080  -18.0830 C   0  0  0  0  0  0  0  0  0  0  0  0
   -4.7310    0.5280  -19.3990 C   0  0  0  0  0  0  0  0  0  0  0  0
   -3.6080    1.3640  -19.6420 C   0  0  0  0  0  0  0  0  0  0  0  0
   -3.2280    1.6640  -20.9180 C   0  0  0  0  0  0  0  0  0  0  0  0
   -3.9580    1.1400  -22.0100 C   0  0  0  0  0  0  0  0  0  0  0  0
   -5.0490    0.3290  -21.8010 C   0  0  0  0  0  0  0  0  0  0  0  0
   -5.4670   -0.0040  -20.4870 C   0  0  0  0  0  0  0  0  0  0  0  0
   -5.5980   -0.0620  -22.6530 H   0  0  0  0  0  0  0  0  0  0  0  0
   -3.6550    1.3820  -23.0240 H   0  0  0  0  0  0  0  0  0  0  0  0
   -2.3760    2.3140  -21.1020 H   0  0  0  0  0  0  0  0  0  0  0  0
   -3.0790    1.7730  -18.7830 H   0  0  0  0  0  0  0  0  0  0  0  0
   -4.6150    0.6170  -17.2320 H   0  0  0  0  0  0  0  0  0  0  0  0
   -7.7530   -1.6730  -18.5790 H   0  0  0  0  0  0  0  0  0  0  0  0
   -6.9630   -2.6130  -21.9350 C   0  0  0  0  0  0  0  0  0  0  0  0
   -8.2910   -3.1580  -22.5110 C   0  0  2  0  0  0  0  0  0  0  0  0
   -8.0940   -3.9860  -23.7840 C   0  0  0  0  0  0  0  0  0  0  0  0
   -7.5540   -3.4110  -24.5490 H   0  0  0  0  0  0  0  0  0  0  0  0
   -7.5060   -4.8900  -23.5810 H   0  0  0  0  0  0  0  0  0  0  0  0
   -9.0500   -4.2990  -24.2210 H   0  0  0  0  0  0  0  0  0  0  0  0
   -8.7280   -3.7970  -21.7360 H   0  0  0  0  0  0  0  0  0  0  0  0
   -6.4620   -3.3260  -21.2700 H   0  0  0  0  0  0  0  0  0  0  0  0
   -6.2530   -2.3610  -22.7390 H   0  0  0  0  0  0  0  0  0  0  0  0
  -10.7130   -2.1400  -22.4340 C   0  0  0  0  0  0  0  0  0  0  0  0
  -11.2260   -3.2190  -21.7060 C   0  0  0  0  0  0  0  0  0  0  0  0
  -12.5800   -3.2770  -21.4520 C   0  0  0  0  0  0  0  0  0  0  0  0
  -13.0680   -4.2340  -20.6500 F   0  0  0  0  0  0  0  0  0  0  0  0
  -13.4810   -2.3420  -21.9430 C   0  0  0  0  0  0  0  0  0  0  0  0
  -12.9850   -1.2710  -22.6530 C   0  0  0  0  0  0  0  0  0  0  0  0
  -11.6160   -1.1630  -22.8900 C   0  0  0  0  0  0  0  0  0  0  0  0
  -11.1430    0.0430  -23.6450 C   0  0  0  0  0  0  0  0  0  0  0  0
  -11.8790    0.9940  -23.8680 O   0  0  0  0  0  0  0  0  0  0  0  0
  -13.6340   -0.4830  -23.0200 H   0  0  0  0  0  0  0  0  0  0  0  0
  -14.5320   -2.4780  -21.7240 H   0  0  0  0  0  0  0  0  0  0  0  0
  -10.5960   -3.9850  -21.2660 H   0  0  0  0  0  0  0  0  0  0  0  0
   -9.2950   -1.9080  -24.7810 H   0  0  0  0  0  0  0  0  0  0  0  0
   -7.9920   -0.8930  -24.0900 H   0  0  0  0  0  0  0  0  0  0  0  0
  -10.2050    1.4080  -25.5770 H   0  0  0  0  0  0  0  0  0  0  0  0
   -8.5750    0.7060  -25.5180 H   0  0  0  0  0  0  0  0  0  0  0  0
   -7.7780    1.3710  -22.4630 H   0  0  0  0  0  0  0  0  0  0  0  0
   -7.3650    4.0660  -21.8190 H   0  0  0  0  0  0  0  0  0  0  0  0
   -9.3670    5.1520  -25.7080 H   0  0  0  0  0  0  0  0  0  0  0  0
   -9.6520    3.5480  -26.4140 H   0  0  0  0  0  0  0  0  0  0  0  0
  -11.7710    3.3210  -25.0410 H   0  0  0  0  0  0  0  0  0  0  0  0
  -11.4850    4.9450  -24.3580 H   0  0  0  0  0  0  0  0  0  0  0  0
  -11.8200    4.7600  -26.0900 H   0  0  0  0  0  0  0  0  0  0  0  0
  1  2  1  0  0  0  0
  1 60  1  0  0  0  0
  1 61  1  0  0  0  0
  1 62  1  0  0  0  0
  2  3  1  0  0  0  0
  2 58  1  0  0  0  0
  2 59  1  0  0  0  0
  3  4  1  0  0  0  0
  3  7  1  0  0  0  0
  4  5  2  0  0  0  0
  5  6  1  0  0  0  0
  5 57  1  0  0  0  0
  6  7  2  0  0  0  0
  6 56  1  0  0  0  0
  7  8  1  0  0  0  0
  8  9  1  0  0  0  0
  8 54  1  0  0  0  0
  8 55  1  0  0  0  0
  9 10  1  0  0  0  0
  9 47  1  0  0  0  0
 10 11  1  0  0  0  0
 10 52  1  0  0  0  0
 10 53  1  0  0  0  0
 11 12  1  1  0  0  0
 11 32  1  0  0  0  0
 11 40  1  0  0  0  0
 12 13  2  0  0  0  0
 12 14  1  0  0  0  0
 14 15  1  0  0  0  0
 14 31  1  0  0  0  0
 15 16  2  0  0  0  0
 15 24  1  0  0  0  0
 16 17  1  0  0  0  0
 16 30  1  0  0  0  0
 17 18  2  0  0  0  0
 18 19  1  0  0  0  0
 18 29  1  0  0  0  0
 19 20  2  0  0  0  0
 19 24  1  0  0  0  0
 20 21  1  0  0  0  0
 20 28  1  0  0  0  0
 21 22  2  0  0  0  0
 21 27  1  0  0  0  0
 22 23  1  0  0  0  0
 22 26  1  0  0  0  0
 23 24  2  0  0  0  0
 23 25  1  0  0  0  0
 31 32  1  0  0  0  0
 31 38  1  0  0  0  0
 31 39  1  0  0  0  0
 32 33  1  0  0  0  0
 32 37  1  1  0  0  0
 33 34  1  0  0  0  0
 33 35  1  0  0  0  0
 33 36  1  0  0  0  0
 40 41  2  0  0  0  0
 40 46  1  0  0  0  0
 41 42  1  0  0  0  0
 41 51  1  0  0  0  0
 42 43  1  0  0  0  0
 42 44  2  0  0  0  0
 44 45  1  0  0  0  0
 44 50  1  0  0  0  0
 45 46  2  0  0  0  0
 45 49  1  0  0  0  0
 46 47  1  0  0  0  0
 47 48  2  0  0  0  0
M  END
>  <MODEL>
       1

$$$$
