tmp_first_model_13_56.pdb
 OpenBabel08282500103D

 57 62  0  0  1  0  0  0  0  0999 V2000
  -10.4310   -1.0410  -23.3190 C   0  0  0  0  0  0  0  0  0  0  0  0
   -8.9990   -1.4230  -22.9640 C   0  0  1  0  0  0  0  0  0  0  0  0
   -8.3890   -0.4940  -21.8990 C   0  0  0  0  0  0  0  0  0  0  0  0
   -7.3980   -1.3330  -21.2510 N   0  0  0  0  0  0  0  0  0  0  0  0
   -6.5750   -0.8520  -20.2040 C   0  0  0  0  0  0  0  0  0  0  0  0
   -6.8830   -1.1080  -18.8930 C   0  0  0  0  0  0  0  0  0  0  0  0
   -6.2080   -0.5770  -17.8440 N   0  0  0  0  0  0  0  0  0  0  0  0
   -5.1960    0.2120  -18.0970 C   0  0  0  0  0  0  0  0  0  0  0  0
   -4.7490    0.5340  -19.4100 C   0  0  0  0  0  0  0  0  0  0  0  0
   -3.6200    1.3620  -19.6460 C   0  0  0  0  0  0  0  0  0  0  0  0
   -3.2180    1.6240  -20.9270 C   0  0  0  0  0  0  0  0  0  0  0  0
   -3.9180    1.0710  -22.0240 C   0  0  0  0  0  0  0  0  0  0  0  0
   -5.0120    0.2670  -21.8210 C   0  0  0  0  0  0  0  0  0  0  0  0
   -5.4560   -0.0140  -20.5030 C   0  0  0  0  0  0  0  0  0  0  0  0
   -5.5380   -0.1810  -22.6580 H   0  0  0  0  0  0  0  0  0  0  0  0
   -3.5860    1.2750  -23.0370 H   0  0  0  0  0  0  0  0  0  0  0  0
   -2.3570    2.2600  -21.1130 H   0  0  0  0  0  0  0  0  0  0  0  0
   -3.0870    1.7740  -18.7930 H   0  0  0  0  0  0  0  0  0  0  0  0
   -4.6650    0.6300  -17.2410 H   0  0  0  0  0  0  0  0  0  0  0  0
   -7.7200   -1.7540  -18.6380 H   0  0  0  0  0  0  0  0  0  0  0  0
   -7.5940   -2.6830  -21.4650 C   0  0  0  0  0  0  0  0  0  0  0  0
   -6.8940   -3.5540  -20.9950 O   0  0  0  0  0  0  0  0  0  0  0  0
   -8.7990   -2.8790  -22.4030 C   0  0  1  0  0  0  0  0  0  0  0  0
  -10.0070   -3.3350  -21.5420 C   0  0  0  0  0  0  0  0  0  0  0  0
  -11.1200   -3.8700  -22.3250 N   0  0  0  0  0  0  0  0  0  0  0  0
  -12.4870   -3.8520  -21.8090 C   0  0  0  0  0  0  0  0  0  0  0  0
  -13.3130   -2.7800  -22.4510 C   0  0  0  0  0  0  0  0  0  0  0  0
  -13.7880   -3.0870  -23.6710 N   0  0  0  0  0  0  0  0  0  0  0  0
  -14.5250   -2.1570  -24.2550 C   0  0  0  0  0  0  0  0  0  0  0  0
  -14.7880   -0.9570  -23.6310 C   0  0  0  0  0  0  0  0  0  0  0  0
  -14.2600   -0.7490  -22.3850 C   0  0  0  0  0  0  0  0  0  0  0  0
  -13.4950   -1.6530  -21.7730 N   0  0  0  0  0  0  0  0  0  0  0  0
  -14.4690    0.1880  -21.8820 H   0  0  0  0  0  0  0  0  0  0  0  0
  -15.3720   -0.1960  -24.0840 H   0  0  0  0  0  0  0  0  0  0  0  0
  -14.9230   -2.3600  -25.2460 H   0  0  0  0  0  0  0  0  0  0  0  0
  -12.9570   -4.7720  -22.1440 H   0  0  0  0  0  0  0  0  0  0  0  0
  -12.4740   -3.7740  -20.7230 H   0  0  0  0  0  0  0  0  0  0  0  0
  -10.9030   -4.6910  -23.3970 C   0  0  0  0  0  0  0  0  0  0  0  0
  -11.8060   -5.3150  -23.9370 O   0  0  0  0  0  0  0  0  0  0  0  0
   -9.5090   -4.7830  -23.9100 C   0  0  0  0  0  0  0  0  0  0  0  0
   -9.2600   -5.7530  -24.8820 C   0  0  0  0  0  0  0  0  0  0  0  0
   -8.0010   -5.9010  -25.4270 C   0  0  0  0  0  0  0  0  0  0  0  0
   -7.0010   -5.0360  -24.9950 C   0  0  0  0  0  0  0  0  0  0  0  0
   -5.7660   -5.1750  -25.5070 F   0  0  0  0  0  0  0  0  0  0  0  0
   -7.2180   -4.0760  -24.0220 C   0  0  0  0  0  0  0  0  0  0  0  0
   -8.4970   -3.9320  -23.4570 C   0  0  0  0  0  0  0  0  0  0  0  0
   -6.3680   -3.4940  -23.6780 H   0  0  0  0  0  0  0  0  0  0  0  0
   -7.7890   -6.6770  -26.1570 H   0  0  0  0  0  0  0  0  0  0  0  0
  -10.0780   -6.3980  -25.1930 H   0  0  0  0  0  0  0  0  0  0  0  0
   -9.6570   -4.0830  -20.8260 H   0  0  0  0  0  0  0  0  0  0  0  0
  -10.3300   -2.4600  -20.9670 H   0  0  0  0  0  0  0  0  0  0  0  0
   -7.9300    0.4030  -22.3300 H   0  0  0  0  0  0  0  0  0  0  0  0
   -9.1500   -0.1370  -21.1850 H   0  0  0  0  0  0  0  0  0  0  0  0
   -8.3750   -1.3710  -23.8660 H   0  0  0  0  0  0  0  0  0  0  0  0
  -10.4830   -0.0780  -23.8350 H   0  0  0  0  0  0  0  0  0  0  0  0
  -11.0490   -0.9590  -22.4180 H   0  0  0  0  0  0  0  0  0  0  0  0
  -10.8810   -1.8020  -23.9640 H   0  0  0  0  0  0  0  0  0  0  0  0
  1  2  1  0  0  0  0
  1 55  1  0  0  0  0
  1 56  1  0  0  0  0
  1 57  1  0  0  0  0
  2  3  1  0  0  0  0
  2 23  1  0  0  0  0
  2 54  1  6  0  0  0
  3  4  1  0  0  0  0
  3 52  1  0  0  0  0
  3 53  1  0  0  0  0
  4  5  1  0  0  0  0
  4 21  1  0  0  0  0
  5  6  2  0  0  0  0
  5 14  1  0  0  0  0
  6  7  1  0  0  0  0
  6 20  1  0  0  0  0
  7  8  2  0  0  0  0
  8  9  1  0  0  0  0
  8 19  1  0  0  0  0
  9 10  2  0  0  0  0
  9 14  1  0  0  0  0
 10 11  1  0  0  0  0
 10 18  1  0  0  0  0
 11 12  2  0  0  0  0
 11 17  1  0  0  0  0
 12 13  1  0  0  0  0
 12 16  1  0  0  0  0
 13 14  2  0  0  0  0
 13 15  1  0  0  0  0
 21 22  2  0  0  0  0
 23 21  1  1  0  0  0
 23 24  1  0  0  0  0
 23 46  1  0  0  0  0
 24 25  1  0  0  0  0
 24 50  1  0  0  0  0
 24 51  1  0  0  0  0
 25 26  1  0  0  0  0
 25 38  1  0  0  0  0
 26 27  1  0  0  0  0
 26 36  1  0  0  0  0
 26 37  1  0  0  0  0
 27 28  2  0  0  0  0
 27 32  1  0  0  0  0
 28 29  1  0  0  0  0
 29 30  2  0  0  0  0
 29 35  1  0  0  0  0
 30 31  1  0  0  0  0
 30 34  1  0  0  0  0
 31 32  2  0  0  0  0
 31 33  1  0  0  0  0
 38 39  2  0  0  0  0
 38 40  1  0  0  0  0
 40 41  2  0  0  0  0
 40 46  1  0  0  0  0
 41 42  1  0  0  0  0
 41 49  1  0  0  0  0
 42 43  2  0  0  0  0
 42 48  1  0  0  0  0
 43 44  1  0  0  0  0
 43 45  1  0  0  0  0
 45 46  2  0  0  0  0
 45 47  1  0  0  0  0
M  END
>  <MODEL>
       1

$$$$
