tmp_first_model_1_85.pdb
 OpenBabel08272517043D

 57 62  0  0  1  0  0  0  0  0999 V2000
   -9.0950   -8.6990  -23.5760 C   0  0  0  0  0  0  0  0  0  0  0  0
   -8.4110   -7.4820  -23.2000 N   0  0  0  0  0  0  0  0  0  0  0  0
   -7.2160   -7.2140  -23.8060 C   0  0  0  0  0  0  0  0  0  0  0  0
   -6.8640   -7.7570  -24.8320 O   0  0  0  0  0  0  0  0  0  0  0  0
   -6.4040   -6.0890  -23.1870 C   0  0  0  0  0  0  0  0  0  0  0  0
   -6.8100   -4.8370  -23.7690 N   0  0  0  0  0  0  0  0  0  0  0  0
   -8.0340   -4.2360  -23.2770 C   0  0  0  0  0  0  0  0  0  0  0  0
   -7.8590   -2.7150  -23.1580 C   0  0  2  0  0  0  0  0  0  0  0  0
   -6.8220   -2.4140  -22.0510 C   0  0  0  0  0  0  0  0  0  0  0  0
   -5.7260   -2.9190  -21.9130 O   0  0  0  0  0  0  0  0  0  0  0  0
   -7.3420   -1.4490  -21.2180 N   0  0  0  0  0  0  0  0  0  0  0  0
   -6.5720   -0.8500  -20.1920 C   0  0  0  0  0  0  0  0  0  0  0  0
   -6.9030   -1.0590  -18.8770 C   0  0  0  0  0  0  0  0  0  0  0  0
   -6.2160   -0.5560  -17.8240 N   0  0  0  0  0  0  0  0  0  0  0  0
   -5.1810    0.2040  -18.0900 C   0  0  0  0  0  0  0  0  0  0  0  0
   -4.7380    0.5180  -19.4080 C   0  0  0  0  0  0  0  0  0  0  0  0
   -3.6150    1.3580  -19.6350 C   0  0  0  0  0  0  0  0  0  0  0  0
   -3.2260    1.6630  -20.9100 C   0  0  0  0  0  0  0  0  0  0  0  0
   -3.9460    1.1530  -22.0150 C   0  0  0  0  0  0  0  0  0  0  0  0
   -5.0380    0.3430  -21.8260 C   0  0  0  0  0  0  0  0  0  0  0  0
   -5.4520   -0.0120  -20.5050 C   0  0  0  0  0  0  0  0  0  0  0  0
   -5.5920   -0.0240  -22.6910 H   0  0  0  0  0  0  0  0  0  0  0  0
   -3.6290    1.4070  -23.0230 H   0  0  0  0  0  0  0  0  0  0  0  0
   -2.3670    2.3050  -21.0860 H   0  0  0  0  0  0  0  0  0  0  0  0
   -3.0850    1.7560  -18.7730 H   0  0  0  0  0  0  0  0  0  0  0  0
   -4.6330    0.6130  -17.2410 H   0  0  0  0  0  0  0  0  0  0  0  0
   -7.7580   -1.6890  -18.6330 H   0  0  0  0  0  0  0  0  0  0  0  0
   -8.7220   -1.1080  -21.4900 C   0  0  0  0  0  0  0  0  0  0  0  0
   -9.1180   -1.9930  -22.6640 C   0  0  0  0  0  0  0  0  0  0  0  0
  -10.4770   -2.6430  -22.5950 C   0  0  0  0  0  0  0  0  0  0  0  0
  -10.2070   -1.5660  -23.6110 C   0  0  0  0  0  0  0  0  0  0  0  0
  -10.1030   -1.8720  -24.6500 H   0  0  0  0  0  0  0  0  0  0  0  0
  -10.6200   -0.5670  -23.4860 H   0  0  0  0  0  0  0  0  0  0  0  0
  -10.5790   -3.6670  -22.9420 H   0  0  0  0  0  0  0  0  0  0  0  0
  -11.1010   -2.4080  -21.7350 H   0  0  0  0  0  0  0  0  0  0  0  0
   -9.3460   -1.3400  -20.6290 H   0  0  0  0  0  0  0  0  0  0  0  0
   -8.8120   -0.0450  -21.7420 H   0  0  0  0  0  0  0  0  0  0  0  0
   -7.3100   -2.2100  -24.4890 C   0  0  0  0  0  0  0  0  0  0  0  0
   -7.4440   -0.8600  -24.8260 C   0  0  0  0  0  0  0  0  0  0  0  0
   -6.9120   -0.3930  -26.0140 C   0  0  0  0  0  0  0  0  0  0  0  0
   -7.0910    1.2910  -26.4250 Cl  0  0  0  0  0  0  0  0  0  0  0  0
   -6.2270   -1.2410  -26.8880 C   0  0  0  0  0  0  0  0  0  0  0  0
   -6.0530   -2.5670  -26.5450 C   0  0  0  0  0  0  0  0  0  0  0  0
   -6.5680   -3.0370  -25.3400 C   0  0  0  0  0  0  0  0  0  0  0  0
   -6.2250   -4.4310  -24.9350 C   0  0  0  0  0  0  0  0  0  0  0  0
   -5.4430   -5.1220  -25.5720 O   0  0  0  0  0  0  0  0  0  0  0  0
   -5.4970   -3.2710  -27.1620 H   0  0  0  0  0  0  0  0  0  0  0  0
   -5.8150   -0.8460  -27.8060 H   0  0  0  0  0  0  0  0  0  0  0  0
   -7.9740   -0.1780  -24.1670 H   0  0  0  0  0  0  0  0  0  0  0  0
   -8.2590   -4.6410  -22.2850 H   0  0  0  0  0  0  0  0  0  0  0  0
   -8.8690   -4.4520  -23.9620 H   0  0  0  0  0  0  0  0  0  0  0  0
   -5.3570   -6.2560  -23.4290 H   0  0  0  0  0  0  0  0  0  0  0  0
   -6.5310   -6.0040  -22.1010 H   0  0  0  0  0  0  0  0  0  0  0  0
   -8.6210   -7.0920  -22.2920 H   0  0  0  0  0  0  0  0  0  0  0  0
  -10.0520   -8.7850  -23.0650 H   0  0  0  0  0  0  0  0  0  0  0  0
   -9.2490   -8.7300  -24.6600 H   0  0  0  0  0  0  0  0  0  0  0  0
   -8.4560   -9.5400  -23.3000 H   0  0  0  0  0  0  0  0  0  0  0  0
  1  2  1  0  0  0  0
  1 55  1  0  0  0  0
  1 56  1  0  0  0  0
  1 57  1  0  0  0  0
  2  3  1  0  0  0  0
  2 54  1  0  0  0  0
  3  4  2  0  0  0  0
  3  5  1  0  0  0  0
  5  6  1  0  0  0  0
  5 52  1  0  0  0  0
  5 53  1  0  0  0  0
  6  7  1  0  0  0  0
  6 45  1  0  0  0  0
  7  8  1  0  0  0  0
  7 50  1  0  0  0  0
  7 51  1  0  0  0  0
  8  9  1  1  0  0  0
  8 29  1  0  0  0  0
  8 38  1  0  0  0  0
  9 10  2  0  0  0  0
  9 11  1  0  0  0  0
 11 12  1  0  0  0  0
 11 28  1  0  0  0  0
 12 13  2  0  0  0  0
 12 21  1  0  0  0  0
 13 14  1  0  0  0  0
 13 27  1  0  0  0  0
 14 15  2  0  0  0  0
 15 16  1  0  0  0  0
 15 26  1  0  0  0  0
 16 17  2  0  0  0  0
 16 21  1  0  0  0  0
 17 18  1  0  0  0  0
 17 25  1  0  0  0  0
 18 19  2  0  0  0  0
 18 24  1  0  0  0  0
 19 20  1  0  0  0  0
 19 23  1  0  0  0  0
 20 21  2  0  0  0  0
 20 22  1  0  0  0  0
 28 29  1  0  0  0  0
 28 36  1  0  0  0  0
 28 37  1  0  0  0  0
 29 30  1  0  0  0  0
 29 31  1  0  0  0  0
 30 31  1  0  0  0  0
 30 34  1  0  0  0  0
 30 35  1  0  0  0  0
 31 32  1  0  0  0  0
 31 33  1  0  0  0  0
 38 39  2  0  0  0  0
 38 44  1  0  0  0  0
 39 40  1  0  0  0  0
 39 49  1  0  0  0  0
 40 41  1  0  0  0  0
 40 42  2  0  0  0  0
 42 43  1  0  0  0  0
 42 48  1  0  0  0  0
 43 44  2  0  0  0  0
 43 47  1  0  0  0  0
 44 45  1  0  0  0  0
 45 46  2  0  0  0  0
M  END
>  <MODEL>
       1

$$$$
