tmp_first_model_12_19.pdb
 OpenBabel08272523333D

 42 45  0  0  1  0  0  0  0  0999 V2000
   -9.1210    0.0080  -20.7660 O   0  0  0  0  0  0  0  0  0  0  0  0
   -8.6570   -0.8730  -21.4690 C   0  0  0  0  0  0  0  0  0  0  0  0
   -9.3730   -1.4990  -22.6780 C   0  0  1  0  0  0  0  0  0  0  0  0
  -10.4460   -0.5630  -23.2000 C   0  0  0  0  0  0  0  0  0  0  0  0
  -10.0860    0.7480  -23.5070 C   0  0  0  0  0  0  0  0  0  0  0  0
  -11.0260    1.6700  -23.9330 C   0  0  0  0  0  0  0  0  0  0  0  0
  -12.3660    1.2960  -24.0010 C   0  0  0  0  0  0  0  0  0  0  0  0
  -13.5630    2.5170  -24.2710 Cl  0  0  0  0  0  0  0  0  0  0  0  0
  -12.7400   -0.0290  -23.7660 C   0  0  0  0  0  0  0  0  0  0  0  0
  -14.4020   -0.5060  -23.9180 Cl  0  0  0  0  0  0  0  0  0  0  0  0
  -11.7700   -0.9550  -23.3850 C   0  0  0  0  0  0  0  0  0  0  0  0
  -12.0740   -1.9810  -23.2080 H   0  0  0  0  0  0  0  0  0  0  0  0
  -10.7390    2.6880  -24.1860 H   0  0  0  0  0  0  0  0  0  0  0  0
   -9.0630    1.0660  -23.3330 H   0  0  0  0  0  0  0  0  0  0  0  0
   -8.3350   -1.7950  -23.7730 C   0  0  0  0  0  0  0  0  0  0  0  0
   -7.2300   -2.7590  -23.3370 C   0  0  2  0  0  0  0  0  0  0  0  0
   -7.5270   -4.1170  -23.6390 O   0  0  0  0  0  0  0  0  0  0  0  0
   -8.4010   -4.3310  -23.2820 H   0  0  0  0  0  0  0  0  0  0  0  0
   -6.9300   -2.6170  -21.8350 C   0  0  0  0  0  0  0  0  0  0  0  0
   -7.3790   -1.3550  -21.2590 N   0  0  0  0  0  0  0  0  0  0  0  0
   -6.6230   -0.7840  -20.1990 C   0  0  0  0  0  0  0  0  0  0  0  0
   -6.9230   -1.0590  -18.8890 C   0  0  0  0  0  0  0  0  0  0  0  0
   -6.2160   -0.5870  -17.8320 N   0  0  0  0  0  0  0  0  0  0  0  0
   -5.1870    0.1880  -18.0820 C   0  0  0  0  0  0  0  0  0  0  0  0
   -4.7670    0.5590  -19.3920 C   0  0  0  0  0  0  0  0  0  0  0  0
   -3.6350    1.3860  -19.6190 C   0  0  0  0  0  0  0  0  0  0  0  0
   -3.2730    1.7220  -20.8950 C   0  0  0  0  0  0  0  0  0  0  0  0
   -4.0380    1.2730  -21.9960 C   0  0  0  0  0  0  0  0  0  0  0  0
   -5.1240    0.4520  -21.7980 C   0  0  0  0  0  0  0  0  0  0  0  0
   -5.5090    0.0720  -20.4870 C   0  0  0  0  0  0  0  0  0  0  0  0
   -5.6670    0.0400  -22.6420 H   0  0  0  0  0  0  0  0  0  0  0  0
   -3.7280    1.5270  -23.0060 H   0  0  0  0  0  0  0  0  0  0  0  0
   -2.3820    2.3190  -21.0790 H   0  0  0  0  0  0  0  0  0  0  0  0
   -3.0650    1.7290  -18.7580 H   0  0  0  0  0  0  0  0  0  0  0  0
   -4.6390    0.5790  -17.2270 H   0  0  0  0  0  0  0  0  0  0  0  0
   -7.7830   -1.6750  -18.6330 H   0  0  0  0  0  0  0  0  0  0  0  0
   -7.4200   -3.4760  -21.3490 H   0  0  0  0  0  0  0  0  0  0  0  0
   -5.8540   -2.6740  -21.6460 H   0  0  0  0  0  0  0  0  0  0  0  0
   -6.3300   -2.5550  -23.9310 H   0  0  0  0  0  0  0  0  0  0  0  0
   -7.8880   -0.8370  -24.0700 H   0  0  0  0  0  0  0  0  0  0  0  0
   -8.8260   -2.2100  -24.6590 H   0  0  0  0  0  0  0  0  0  0  0  0
   -9.8210   -2.4450  -22.3360 H   0  0  0  0  0  0  0  0  0  0  0  0
  1  2  2  0  0  0  0
  2  3  1  0  0  0  0
  2 20  1  0  0  0  0
  3  4  1  0  0  0  0
  3 15  1  0  0  0  0
  3 42  1  1  0  0  0
  4  5  2  0  0  0  0
  4 11  1  0  0  0  0
  5  6  1  0  0  0  0
  5 14  1  0  0  0  0
  6  7  2  0  0  0  0
  6 13  1  0  0  0  0
  7  8  1  0  0  0  0
  7  9  1  0  0  0  0
  9 10  1  0  0  0  0
  9 11  2  0  0  0  0
 11 12  1  0  0  0  0
 15 16  1  0  0  0  0
 15 40  1  0  0  0  0
 15 41  1  0  0  0  0
 16 17  1  0  0  0  0
 16 19  1  0  0  0  0
 16 39  1  6  0  0  0
 17 18  1  0  0  0  0
 19 20  1  0  0  0  0
 19 37  1  0  0  0  0
 19 38  1  0  0  0  0
 20 21  1  0  0  0  0
 21 22  2  0  0  0  0
 21 30  1  0  0  0  0
 22 23  1  0  0  0  0
 22 36  1  0  0  0  0
 23 24  2  0  0  0  0
 24 25  1  0  0  0  0
 24 35  1  0  0  0  0
 25 26  2  0  0  0  0
 25 30  1  0  0  0  0
 26 27  1  0  0  0  0
 26 34  1  0  0  0  0
 27 28  2  0  0  0  0
 27 33  1  0  0  0  0
 28 29  1  0  0  0  0
 28 32  1  0  0  0  0
 29 30  2  0  0  0  0
 29 31  1  0  0  0  0
M  END
>  <MODEL>
       1

$$$$
