tmp_first_model_10_19.pdb
 OpenBabel08272522163D

 42 45  0  0  1  0  0  0  0  0999 V2000
   -8.4350    0.6100  -21.4930 O   0  0  0  0  0  0  0  0  0  0  0  0
   -8.3050   -0.5430  -21.8600 C   0  0  0  0  0  0  0  0  0  0  0  0
   -9.1620   -1.1450  -22.9760 C   0  0  1  0  0  0  0  0  0  0  0  0
   -9.3510   -0.1710  -24.1250 C   0  0  0  0  0  0  0  0  0  0  0  0
  -10.6290    0.1600  -24.5740 C   0  0  0  0  0  0  0  0  0  0  0  0
  -10.8050    1.0020  -25.6660 C   0  0  0  0  0  0  0  0  0  0  0  0
   -9.6990    1.5270  -26.3280 C   0  0  0  0  0  0  0  0  0  0  0  0
   -9.9590    2.5910  -27.6680 Cl  0  0  0  0  0  0  0  0  0  0  0  0
   -8.4140    1.1930  -25.8980 C   0  0  0  0  0  0  0  0  0  0  0  0
   -7.0070    1.8210  -26.6930 Cl  0  0  0  0  0  0  0  0  0  0  0  0
   -8.2500    0.3420  -24.8090 C   0  0  0  0  0  0  0  0  0  0  0  0
   -7.2360    0.0880  -24.5050 H   0  0  0  0  0  0  0  0  0  0  0  0
  -11.8010    1.2680  -26.0110 H   0  0  0  0  0  0  0  0  0  0  0  0
  -11.5030   -0.2480  -24.0710 H   0  0  0  0  0  0  0  0  0  0  0  0
   -8.6720   -2.5020  -23.4840 C   0  0  0  0  0  0  0  0  0  0  0  0
   -8.2270   -3.4180  -22.3520 C   0  0  2  0  0  0  0  0  0  0  0  0
   -9.2820   -3.7700  -21.4820 O   0  0  0  0  0  0  0  0  0  0  0  0
   -9.5130   -2.9930  -20.9560 H   0  0  0  0  0  0  0  0  0  0  0  0
   -7.0760   -2.7430  -21.6280 C   0  0  0  0  0  0  0  0  0  0  0  0
   -7.4250   -1.3890  -21.2110 N   0  0  0  0  0  0  0  0  0  0  0  0
   -6.6480   -0.8010  -20.1770 C   0  0  0  0  0  0  0  0  0  0  0  0
   -6.9300   -1.0900  -18.8640 C   0  0  0  0  0  0  0  0  0  0  0  0
   -6.2240   -0.6140  -17.8070 N   0  0  0  0  0  0  0  0  0  0  0  0
   -5.2260    0.1940  -18.0730 C   0  0  0  0  0  0  0  0  0  0  0  0
   -4.8370    0.5860  -19.3890 C   0  0  0  0  0  0  0  0  0  0  0  0
   -3.7040    1.4080  -19.6280 C   0  0  0  0  0  0  0  0  0  0  0  0
   -3.4050    1.8480  -20.8880 C   0  0  0  0  0  0  0  0  0  0  0  0
   -4.2090    1.4460  -21.9850 C   0  0  0  0  0  0  0  0  0  0  0  0
   -5.1900    0.4990  -21.7990 C   0  0  0  0  0  0  0  0  0  0  0  0
   -5.5670    0.0820  -20.4870 C   0  0  0  0  0  0  0  0  0  0  0  0
   -5.6980    0.0660  -22.6600 H   0  0  0  0  0  0  0  0  0  0  0  0
   -4.0110    1.8480  -22.9750 H   0  0  0  0  0  0  0  0  0  0  0  0
   -2.5490    2.4990  -21.0590 H   0  0  0  0  0  0  0  0  0  0  0  0
   -3.1020    1.6940  -18.7690 H   0  0  0  0  0  0  0  0  0  0  0  0
   -4.6460    0.5680  -17.2270 H   0  0  0  0  0  0  0  0  0  0  0  0
   -7.7800   -1.7250  -18.6110 H   0  0  0  0  0  0  0  0  0  0  0  0
   -6.1930   -2.7260  -22.2840 H   0  0  0  0  0  0  0  0  0  0  0  0
   -6.8160   -3.3030  -20.7260 H   0  0  0  0  0  0  0  0  0  0  0  0
   -7.8840   -4.3690  -22.7750 H   0  0  0  0  0  0  0  0  0  0  0  0
   -9.4780   -2.9750  -24.0500 H   0  0  0  0  0  0  0  0  0  0  0  0
   -7.8370   -2.3610  -24.1810 H   0  0  0  0  0  0  0  0  0  0  0  0
  -10.1330   -1.2960  -22.4880 H   0  0  0  0  0  0  0  0  0  0  0  0
  1  2  2  0  0  0  0
  2  3  1  0  0  0  0
  2 20  1  0  0  0  0
  3  4  1  0  0  0  0
  3 15  1  0  0  0  0
  3 42  1  1  0  0  0
  4  5  2  0  0  0  0
  4 11  1  0  0  0  0
  5  6  1  0  0  0  0
  5 14  1  0  0  0  0
  6  7  2  0  0  0  0
  6 13  1  0  0  0  0
  7  8  1  0  0  0  0
  7  9  1  0  0  0  0
  9 10  1  0  0  0  0
  9 11  2  0  0  0  0
 11 12  1  0  0  0  0
 15 16  1  0  0  0  0
 15 40  1  0  0  0  0
 15 41  1  0  0  0  0
 16 17  1  0  0  0  0
 16 19  1  0  0  0  0
 16 39  1  6  0  0  0
 17 18  1  0  0  0  0
 19 20  1  0  0  0  0
 19 37  1  0  0  0  0
 19 38  1  0  0  0  0
 20 21  1  0  0  0  0
 21 22  2  0  0  0  0
 21 30  1  0  0  0  0
 22 23  1  0  0  0  0
 22 36  1  0  0  0  0
 23 24  2  0  0  0  0
 24 25  1  0  0  0  0
 24 35  1  0  0  0  0
 25 26  2  0  0  0  0
 25 30  1  0  0  0  0
 26 27  1  0  0  0  0
 26 34  1  0  0  0  0
 27 28  2  0  0  0  0
 27 33  1  0  0  0  0
 28 29  1  0  0  0  0
 28 32  1  0  0  0  0
 29 30  2  0  0  0  0
 29 31  1  0  0  0  0
M  END
>  <MODEL>
       1

$$$$
