tmp_first_model_17_5.pdb
 OpenBabel08282502223D

 58 61  0  0  1  0  0  0  0  0999 V2000
   -7.4160   -3.8490  -21.8020 C   0  0  0  0  0  0  0  0  0  0  0  0
   -7.5330   -3.7180  -21.4950 C   0  0  0  0  0  0  0  0  0  0  0  0
   -6.6680   -2.4590  -21.9690 C   0  0  0  0  0  0  0  0  0  0  0  0
   -7.1890   -1.1760  -21.3990 N   0  0  0  0  0  0  0  0  0  0  0  0
   -8.4670   -0.7090  -21.6640 C   0  0  0  0  0  0  0  0  0  0  0  0
   -9.1100   -0.0890  -20.8360 O   0  0  0  0  0  0  0  0  0  0  0  0
   -8.9400   -0.8830  -23.0960 C   0  0  2  0  0  0  0  0  0  0  0  0
   -8.9440    0.5050  -23.7750 C   0  0  0  0  0  0  0  0  0  0  0  0
   -9.4570    0.3830  -25.1210 N   0  0  0  0  0  0  0  0  0  0  0  0
   -8.7440    0.9270  -26.2620 C   0  0  0  0  0  0  0  0  0  0  0  0
   -7.9050   -0.1260  -27.0010 C   0  0  0  0  0  0  0  0  0  0  0  0
   -8.1080   -0.4370  -28.1630 O   0  0  0  0  0  0  0  0  0  0  0  0
   -6.9110   -0.6920  -26.2630 N   0  0  0  0  0  0  0  0  0  0  0  0
   -6.1330   -1.7870  -26.8070 C   0  0  0  0  0  0  0  0  0  0  0  0
   -6.7400   -2.6940  -26.9050 H   0  0  0  0  0  0  0  0  0  0  0  0
   -5.2930   -1.9930  -26.1380 H   0  0  0  0  0  0  0  0  0  0  0  0
   -5.7570   -1.5320  -27.8000 H   0  0  0  0  0  0  0  0  0  0  0  0
   -6.7320   -0.3770  -25.3230 H   0  0  0  0  0  0  0  0  0  0  0  0
   -8.1050    1.7500  -25.9160 H   0  0  0  0  0  0  0  0  0  0  0  0
   -9.4770    1.3030  -26.9740 H   0  0  0  0  0  0  0  0  0  0  0  0
  -10.6560   -0.2490  -25.3570 C   0  0  0  0  0  0  0  0  0  0  0  0
  -11.2590   -0.1130  -26.4130 O   0  0  0  0  0  0  0  0  0  0  0  0
  -11.1570   -1.1120  -24.2410 C   0  0  0  0  0  0  0  0  0  0  0  0
  -12.4760   -1.5530  -24.2820 C   0  0  0  0  0  0  0  0  0  0  0  0
  -12.9930   -2.3230  -23.2560 C   0  0  0  0  0  0  0  0  0  0  0  0
  -12.1580   -2.6700  -22.1960 C   0  0  0  0  0  0  0  0  0  0  0  0
  -12.7950   -3.6300  -20.8960 Cl  0  0  0  0  0  0  0  0  0  0  0  0
  -10.8320   -2.2630  -22.1500 C   0  0  0  0  0  0  0  0  0  0  0  0
  -10.3320   -1.4550  -23.1660 C   0  0  0  0  0  0  0  0  0  0  0  0
  -10.2000   -2.5450  -21.3140 H   0  0  0  0  0  0  0  0  0  0  0  0
  -14.0260   -2.6550  -23.2690 H   0  0  0  0  0  0  0  0  0  0  0  0
  -13.0940   -1.2680  -25.1260 H   0  0  0  0  0  0  0  0  0  0  0  0
   -9.5650    1.1840  -23.1760 H   0  0  0  0  0  0  0  0  0  0  0  0
   -7.9420    0.9440  -23.8100 H   0  0  0  0  0  0  0  0  0  0  0  0
   -8.2530   -1.5210  -23.6520 H   0  0  0  0  0  0  0  0  0  0  0  0
   -6.5240   -0.6350  -20.2650 C   0  0  0  0  0  0  0  0  0  0  0  0
   -6.9410   -0.9010  -18.9880 C   0  0  0  0  0  0  0  0  0  0  0  0
   -6.2880   -0.4780  -17.8740 N   0  0  0  0  0  0  0  0  0  0  0  0
   -5.2030    0.2420  -18.0350 C   0  0  0  0  0  0  0  0  0  0  0  0
   -4.6740    0.6200  -19.3060 C   0  0  0  0  0  0  0  0  0  0  0  0
   -3.5070    1.4190  -19.4610 C   0  0  0  0  0  0  0  0  0  0  0  0
   -3.0760    1.7740  -20.7110 C   0  0  0  0  0  0  0  0  0  0  0  0
   -3.7820    1.3660  -21.8620 C   0  0  0  0  0  0  0  0  0  0  0  0
   -4.9030    0.5890  -21.7390 C   0  0  0  0  0  0  0  0  0  0  0  0
   -5.3660    0.1910  -20.4580 C   0  0  0  0  0  0  0  0  0  0  0  0
   -5.4470    0.2950  -22.6280 H   0  0  0  0  0  0  0  0  0  0  0  0
   -3.4280    1.6590  -22.8460 H   0  0  0  0  0  0  0  0  0  0  0  0
   -2.1850    2.3810  -20.8360 H   0  0  0  0  0  0  0  0  0  0  0  0
   -2.9580    1.7370  -18.5780 H   0  0  0  0  0  0  0  0  0  0  0  0
   -4.6820    0.5580  -17.1300 H   0  0  0  0  0  0  0  0  0  0  0  0
   -7.8470   -1.4820  -18.8060 H   0  0  0  0  0  0  0  0  0  0  0  0
   -6.5880   -2.4610  -23.0520 H   0  0  0  0  0  0  0  0  0  0  0  0
   -5.6830   -2.6130  -21.5910 H   0  0  0  0  0  0  0  0  0  0  0  0
   -8.2250   -4.1720  -22.9340 C   0  0  0  0  0  0  0  0  0  0  0  0
   -7.6150   -4.0680  -23.9620 O   0  0  0  0  0  0  0  0  0  0  0  0
   -9.4730   -4.6740  -22.9540 O   0  5  0  0  0  0  0  0  0  0  0  0
   -9.7110   -4.7360  -22.0270 H   0  0  0  0  0  0  0  0  0  0  0  0
   -7.6080   -3.6550  -20.4330 H   0  0  0  0  0  0  0  0  0  0  0  0
  1  2  2  0  0  0  0
  1 57  1  0  0  0  0
  1 58  1  0  0  0  0
  2  3  1  0  0  0  0
  2 54  1  0  0  0  0
  3  4  1  0  0  0  0
  3 52  1  0  0  0  0
  3 53  1  0  0  0  0
  4  5  1  0  0  0  0
  4 36  1  0  0  0  0
  5  6  2  0  0  0  0
  5  7  1  0  0  0  0
  7  8  1  0  0  0  0
  7 29  1  0  0  0  0
  7 35  1  6  0  0  0
  8  9  1  0  0  0  0
  8 33  1  0  0  0  0
  8 34  1  0  0  0  0
  9 10  1  0  0  0  0
  9 21  1  0  0  0  0
 10 11  1  0  0  0  0
 10 19  1  0  0  0  0
 10 20  1  0  0  0  0
 11 12  2  0  0  0  0
 11 13  1  0  0  0  0
 13 14  1  0  0  0  0
 13 18  1  0  0  0  0
 14 15  1  0  0  0  0
 14 16  1  0  0  0  0
 14 17  1  0  0  0  0
 21 22  2  0  0  0  0
 21 23  1  0  0  0  0
 23 24  2  0  0  0  0
 23 29  1  0  0  0  0
 24 25  1  0  0  0  0
 24 32  1  0  0  0  0
 25 26  2  0  0  0  0
 25 31  1  0  0  0  0
 26 27  1  0  0  0  0
 26 28  1  0  0  0  0
 28 29  2  0  0  0  0
 28 30  1  0  0  0  0
 36 37  2  0  0  0  0
 36 45  1  0  0  0  0
 37 38  1  0  0  0  0
 37 51  1  0  0  0  0
 38 39  2  0  0  0  0
 39 40  1  0  0  0  0
 39 50  1  0  0  0  0
 40 41  2  0  0  0  0
 40 45  1  0  0  0  0
 41 42  1  0  0  0  0
 41 49  1  0  0  0  0
 42 43  2  0  0  0  0
 42 48  1  0  0  0  0
 43 44  1  0  0  0  0
 43 47  1  0  0  0  0
 44 45  2  0  0  0  0
 44 46  1  0  0  0  0
 54 55  2  0  0  0  0
 54 56  1  0  0  0  0
M  CHG  1  56  -1
M  END
>  <MODEL>
       1

$$$$
