tmp_first_model_14_30.pdb
 OpenBabel08282500413D

 58 63  0  0  1  0  0  0  0  0999 V2000
   -8.3450   -4.3200  -23.5900 C   0  0  0  0  0  0  0  0  0  0  0  0
   -8.5470   -3.3690  -22.4160 C   0  0  1  0  0  0  0  0  0  0  0  0
   -7.2210   -2.6890  -22.0310 C   0  0  0  0  0  0  0  0  0  0  0  0
   -7.6590   -1.5340  -21.2660 N   0  0  0  0  0  0  0  0  0  0  0  0
   -6.8970   -0.8760  -20.2700 C   0  0  0  0  0  0  0  0  0  0  0  0
   -7.2850   -0.9320  -18.9520 C   0  0  0  0  0  0  0  0  0  0  0  0
   -6.5930   -0.3820  -17.9270 N   0  0  0  0  0  0  0  0  0  0  0  0
   -5.4870    0.2580  -18.2190 C   0  0  0  0  0  0  0  0  0  0  0  0
   -4.9880    0.4370  -19.5380 C   0  0  0  0  0  0  0  0  0  0  0  0
   -3.8150    1.1940  -19.8020 C   0  0  0  0  0  0  0  0  0  0  0  0
   -3.4190    1.4210  -21.0900 C   0  0  0  0  0  0  0  0  0  0  0  0
   -4.1550    0.8780  -22.1660 C   0  0  0  0  0  0  0  0  0  0  0  0
   -5.2590    0.0930  -21.9290 C   0  0  0  0  0  0  0  0  0  0  0  0
   -5.7140   -0.1410  -20.6070 C   0  0  0  0  0  0  0  0  0  0  0  0
   -5.8190   -0.3130  -22.7640 H   0  0  0  0  0  0  0  0  0  0  0  0
   -3.8980    1.1500  -23.1830 H   0  0  0  0  0  0  0  0  0  0  0  0
   -2.5490    2.0380  -21.2930 H   0  0  0  0  0  0  0  0  0  0  0  0
   -3.2710    1.6140  -18.9590 H   0  0  0  0  0  0  0  0  0  0  0  0
   -4.9330    0.6940  -17.3880 H   0  0  0  0  0  0  0  0  0  0  0  0
   -8.1950   -1.4610  -18.6770 H   0  0  0  0  0  0  0  0  0  0  0  0
   -8.9780   -1.2000  -21.5240 C   0  0  0  0  0  0  0  0  0  0  0  0
   -9.5620   -0.2700  -21.0150 O   0  0  0  0  0  0  0  0  0  0  0  0
   -9.5360   -2.1920  -22.5860 C   0  0  1  0  0  0  0  0  0  0  0  0
   -9.3910   -1.5150  -23.9720 C   0  0  0  0  0  0  0  0  0  0  0  0
  -10.2350   -0.3420  -24.0080 N   0  0  0  0  0  0  0  0  0  0  0  0
   -9.7660    0.8680  -24.6430 C   0  0  0  0  0  0  0  0  0  0  0  0
   -8.5320    1.5200  -24.0880 C   0  0  0  0  0  0  0  0  0  0  0  0
   -7.4110    1.7750  -24.8250 C   0  0  0  0  0  0  0  0  0  0  0  0
   -6.2640    2.4130  -24.2050 C   0  0  0  0  0  0  0  0  0  0  0  0
   -5.1770    2.6260  -24.7100 O   0  0  0  0  0  0  0  0  0  0  0  0
   -6.5280    2.7980  -22.8790 N   0  0  0  0  0  0  0  0  0  0  0  0
   -7.7300    2.6130  -22.2710 C   0  0  0  0  0  0  0  0  0  0  0  0
   -8.7320    2.0000  -22.8150 N   0  0  0  0  0  0  0  0  0  0  0  0
   -7.8370    3.0570  -21.2870 H   0  0  0  0  0  0  0  0  0  0  0  0
   -5.7340    3.1140  -22.3300 H   0  0  0  0  0  0  0  0  0  0  0  0
   -7.3250    1.5440  -25.8810 H   0  0  0  0  0  0  0  0  0  0  0  0
  -10.5190    1.5990  -24.3670 H   0  0  0  0  0  0  0  0  0  0  0  0
   -9.6930    0.7290  -25.7260 H   0  0  0  0  0  0  0  0  0  0  0  0
  -11.5770   -0.4400  -23.7520 C   0  0  0  0  0  0  0  0  0  0  0  0
  -12.3990    0.3830  -24.1310 O   0  0  0  0  0  0  0  0  0  0  0  0
  -11.9790   -1.6120  -22.9260 C   0  0  0  0  0  0  0  0  0  0  0  0
  -13.3390   -1.7140  -22.6330 C   0  0  0  0  0  0  0  0  0  0  0  0
  -13.7960   -2.6690  -21.7530 C   0  0  0  0  0  0  0  0  0  0  0  0
  -12.8480   -3.5220  -21.1960 C   0  0  0  0  0  0  0  0  0  0  0  0
  -13.2560   -4.3820  -20.2470 F   0  0  0  0  0  0  0  0  0  0  0  0
  -11.5000   -3.4700  -21.5130 C   0  0  0  0  0  0  0  0  0  0  0  0
  -11.0190   -2.4760  -22.3720 C   0  0  0  0  0  0  0  0  0  0  0  0
  -10.8340   -4.1520  -20.9970 H   0  0  0  0  0  0  0  0  0  0  0  0
  -14.8450   -2.7430  -21.4810 H   0  0  0  0  0  0  0  0  0  0  0  0
  -14.0100   -0.9810  -23.0740 H   0  0  0  0  0  0  0  0  0  0  0  0
   -9.6730   -2.2290  -24.7630 H   0  0  0  0  0  0  0  0  0  0  0  0
   -8.3620   -1.1920  -24.1580 H   0  0  0  0  0  0  0  0  0  0  0  0
   -6.5770   -3.3470  -21.4390 H   0  0  0  0  0  0  0  0  0  0  0  0
   -6.6670   -2.3830  -22.9390 H   0  0  0  0  0  0  0  0  0  0  0  0
   -8.8800   -3.9310  -21.5360 H   0  0  0  0  0  0  0  0  0  0  0  0
   -9.2530   -4.8800  -23.8340 H   0  0  0  0  0  0  0  0  0  0  0  0
   -8.0270   -3.7710  -24.4870 H   0  0  0  0  0  0  0  0  0  0  0  0
   -7.5480   -5.0350  -23.3480 H   0  0  0  0  0  0  0  0  0  0  0  0
  1  2  1  0  0  0  0
  1 56  1  0  0  0  0
  1 57  1  0  0  0  0
  1 58  1  0  0  0  0
  2  3  1  0  0  0  0
  2 23  1  0  0  0  0
  2 55  1  1  0  0  0
  3  4  1  0  0  0  0
  3 53  1  0  0  0  0
  3 54  1  0  0  0  0
  4  5  1  0  0  0  0
  4 21  1  0  0  0  0
  5  6  2  0  0  0  0
  5 14  1  0  0  0  0
  6  7  1  0  0  0  0
  6 20  1  0  0  0  0
  7  8  2  0  0  0  0
  8  9  1  0  0  0  0
  8 19  1  0  0  0  0
  9 10  2  0  0  0  0
  9 14  1  0  0  0  0
 10 11  1  0  0  0  0
 10 18  1  0  0  0  0
 11 12  2  0  0  0  0
 11 17  1  0  0  0  0
 12 13  1  0  0  0  0
 12 16  1  0  0  0  0
 13 14  2  0  0  0  0
 13 15  1  0  0  0  0
 21 22  2  0  0  0  0
 23 21  1  1  0  0  0
 23 24  1  0  0  0  0
 23 47  1  0  0  0  0
 24 25  1  0  0  0  0
 24 51  1  0  0  0  0
 24 52  1  0  0  0  0
 25 26  1  0  0  0  0
 25 39  1  0  0  0  0
 26 27  1  0  0  0  0
 26 37  1  0  0  0  0
 26 38  1  0  0  0  0
 27 28  2  0  0  0  0
 27 33  1  0  0  0  0
 28 29  1  0  0  0  0
 28 36  1  0  0  0  0
 29 30  2  0  0  0  0
 29 31  1  0  0  0  0
 31 32  1  0  0  0  0
 31 35  1  0  0  0  0
 32 33  2  0  0  0  0
 32 34  1  0  0  0  0
 39 40  2  0  0  0  0
 39 41  1  0  0  0  0
 41 42  2  0  0  0  0
 41 47  1  0  0  0  0
 42 43  1  0  0  0  0
 42 50  1  0  0  0  0
 43 44  2  0  0  0  0
 43 49  1  0  0  0  0
 44 45  1  0  0  0  0
 44 46  1  0  0  0  0
 46 47  2  0  0  0  0
 46 48  1  0  0  0  0
M  END
>  <MODEL>
       1

$$$$
