tmp_first_model_4_13.pdb
 OpenBabel08272518513D

 69 74  0  0  1  0  0  0  0  0999 V2000
   -7.4370    3.3750  -21.8540 C   0  0  0  0  0  0  0  0  0  0  0  0
   -8.4820    2.9020  -22.7510 N   0  0  0  0  0  0  0  0  0  0  0  0
   -8.0790    2.1470  -23.8140 C   0  0  0  0  0  0  0  0  0  0  0  0
   -6.8980    1.9060  -24.0240 O   0  0  0  0  0  0  0  0  0  0  0  0
   -9.1580    1.5840  -24.7380 C   0  0  0  0  0  0  0  0  0  0  0  0
   -9.7510    0.4070  -24.1320 N   0  0  0  0  0  0  0  0  0  0  0  0
   -8.9590   -0.8140  -24.0630 C   0  0  0  0  0  0  0  0  0  0  0  0
   -9.2290   -1.6010  -22.7550 C   0  0  2  0  0  0  0  0  0  0  0  0
   -8.6170   -0.8240  -21.5500 C   0  0  0  0  0  0  0  0  0  0  0  0
   -9.0710    0.1560  -21.0030 O   0  0  0  0  0  0  0  0  0  0  0  0
   -7.4220   -1.4260  -21.2270 N   0  0  0  0  0  0  0  0  0  0  0  0
   -6.5470   -0.9610  -20.2160 C   0  0  0  0  0  0  0  0  0  0  0  0
   -6.7830   -1.2650  -18.9010 C   0  0  0  0  0  0  0  0  0  0  0  0
   -5.9040   -1.0290  -17.8950 N   0  0  0  0  0  0  0  0  0  0  0  0
   -4.7770   -0.4360  -18.1940 C   0  0  0  0  0  0  0  0  0  0  0  0
   -4.4410   -0.0020  -19.5060 C   0  0  0  0  0  0  0  0  0  0  0  0
   -3.2670    0.7520  -19.7610 C   0  0  0  0  0  0  0  0  0  0  0  0
   -3.0500    1.2910  -20.9980 C   0  0  0  0  0  0  0  0  0  0  0  0
   -3.9530    1.0360  -22.0550 C   0  0  0  0  0  0  0  0  0  0  0  0
   -5.0640    0.2530  -21.8480 C   0  0  0  0  0  0  0  0  0  0  0  0
   -5.3530   -0.2560  -20.5550 C   0  0  0  0  0  0  0  0  0  0  0  0
   -5.7410    0.0480  -22.6710 H   0  0  0  0  0  0  0  0  0  0  0  0
   -3.7810    1.4710  -23.0330 H   0  0  0  0  0  0  0  0  0  0  0  0
   -2.1960    1.9390  -21.1680 H   0  0  0  0  0  0  0  0  0  0  0  0
   -2.6090    0.9490  -18.9170 H   0  0  0  0  0  0  0  0  0  0  0  0
   -4.0580   -0.2560  -17.3900 H   0  0  0  0  0  0  0  0  0  0  0  0
   -7.7120   -1.7650  -18.6380 H   0  0  0  0  0  0  0  0  0  0  0  0
   -7.0960   -2.5850  -22.0240 C   0  0  0  0  0  0  0  0  0  0  0  0
   -8.4220   -2.9360  -22.7100 C   0  0  2  0  0  0  0  0  0  0  0  0
   -8.1760   -3.6920  -24.0160 C   0  0  0  0  0  0  0  0  0  0  0  0
   -9.4060   -4.1350  -24.6260 N   0  0  0  0  0  0  0  0  0  0  0  0
   -9.4260   -4.7880  -25.8200 C   0  0  0  0  0  0  0  0  0  0  0  0
  -10.6360   -5.2660  -26.3640 C   0  0  0  0  0  0  0  0  0  0  0  0
  -10.5640   -5.8190  -27.6220 C   0  0  0  0  0  0  0  0  0  0  0  0
   -9.4150   -5.9660  -28.2970 N   0  0  0  0  0  0  0  0  0  0  0  0
   -8.3160   -5.5540  -27.6660 C   0  0  0  0  0  0  0  0  0  0  0  0
   -7.0130   -5.8120  -28.3810 C   0  0  0  0  0  0  0  0  0  0  0  0
   -7.1810   -5.7670  -29.4620 H   0  0  0  0  0  0  0  0  0  0  0  0
   -6.6560   -6.8250  -28.1500 H   0  0  0  0  0  0  0  0  0  0  0  0
   -6.2370   -5.0980  -28.0860 H   0  0  0  0  0  0  0  0  0  0  0  0
   -8.2600   -4.9580  -26.4650 N   0  0  0  0  0  0  0  0  0  0  0  0
  -11.4610   -6.1690  -28.1360 H   0  0  0  0  0  0  0  0  0  0  0  0
  -11.5720   -5.2260  -25.8150 H   0  0  0  0  0  0  0  0  0  0  0  0
  -10.2800   -3.9580  -24.1510 H   0  0  0  0  0  0  0  0  0  0  0  0
   -7.5420   -4.5640  -23.8070 H   0  0  0  0  0  0  0  0  0  0  0  0
   -7.6220   -3.0650  -24.7310 H   0  0  0  0  0  0  0  0  0  0  0  0
   -8.9570   -3.6130  -22.0360 H   0  0  0  0  0  0  0  0  0  0  0  0
   -6.2960   -2.3770  -22.7550 H   0  0  0  0  0  0  0  0  0  0  0  0
   -6.7430   -3.3910  -21.3740 H   0  0  0  0  0  0  0  0  0  0  0  0
  -10.7340   -1.7410  -22.5990 C   0  0  0  0  0  0  0  0  0  0  0  0
  -11.3000   -2.7470  -21.8070 C   0  0  0  0  0  0  0  0  0  0  0  0
  -12.6650   -2.7800  -21.5860 C   0  0  0  0  0  0  0  0  0  0  0  0
  -13.3190   -3.9770  -20.5150 Cl  0  0  0  0  0  0  0  0  0  0  0  0
  -13.5310   -1.8500  -22.1510 C   0  0  0  0  0  0  0  0  0  0  0  0
  -12.9840   -0.8570  -22.9320 C   0  0  0  0  0  0  0  0  0  0  0  0
  -11.6080   -0.7860  -23.1410 C   0  0  0  0  0  0  0  0  0  0  0  0
  -11.0990    0.3940  -23.9080 C   0  0  0  0  0  0  0  0  0  0  0  0
  -11.8400    1.2920  -24.2860 O   0  0  0  0  0  0  0  0  0  0  0  0
  -13.5990   -0.0860  -23.3760 H   0  0  0  0  0  0  0  0  0  0  0  0
  -14.5960   -1.8900  -21.9450 H   0  0  0  0  0  0  0  0  0  0  0  0
  -10.6970   -3.4930  -21.3040 H   0  0  0  0  0  0  0  0  0  0  0  0
   -7.8980   -0.5490  -24.1320 H   0  0  0  0  0  0  0  0  0  0  0  0
   -9.1970   -1.4570  -24.9220 H   0  0  0  0  0  0  0  0  0  0  0  0
   -8.6840    1.3150  -25.6900 H   0  0  0  0  0  0  0  0  0  0  0  0
   -9.9650    2.2940  -24.9410 H   0  0  0  0  0  0  0  0  0  0  0  0
   -9.4070    2.7700  -22.3570 H   0  0  0  0  0  0  0  0  0  0  0  0
   -6.8490    2.5190  -21.4830 H   0  0  0  0  0  0  0  0  0  0  0  0
   -6.7740    4.0640  -22.3870 H   0  0  0  0  0  0  0  0  0  0  0  0
   -7.8830    3.9420  -21.0360 H   0  0  0  0  0  0  0  0  0  0  0  0
  1  2  1  0  0  0  0
  1 67  1  0  0  0  0
  1 68  1  0  0  0  0
  1 69  1  0  0  0  0
  2  3  1  0  0  0  0
  2 66  1  0  0  0  0
  3  4  2  0  0  0  0
  3  5  1  0  0  0  0
  5  6  1  0  0  0  0
  5 64  1  0  0  0  0
  5 65  1  0  0  0  0
  6  7  1  0  0  0  0
  6 57  1  0  0  0  0
  7  8  1  0  0  0  0
  7 62  1  0  0  0  0
  7 63  1  0  0  0  0
  8  9  1  1  0  0  0
  8 29  1  0  0  0  0
  8 50  1  0  0  0  0
  9 10  2  0  0  0  0
  9 11  1  0  0  0  0
 11 12  1  0  0  0  0
 11 28  1  0  0  0  0
 12 13  2  0  0  0  0
 12 21  1  0  0  0  0
 13 14  1  0  0  0  0
 13 27  1  0  0  0  0
 14 15  2  0  0  0  0
 15 16  1  0  0  0  0
 15 26  1  0  0  0  0
 16 17  2  0  0  0  0
 16 21  1  0  0  0  0
 17 18  1  0  0  0  0
 17 25  1  0  0  0  0
 18 19  2  0  0  0  0
 18 24  1  0  0  0  0
 19 20  1  0  0  0  0
 19 23  1  0  0  0  0
 20 21  2  0  0  0  0
 20 22  1  0  0  0  0
 28 29  1  0  0  0  0
 28 48  1  0  0  0  0
 28 49  1  0  0  0  0
 29 30  1  0  0  0  0
 29 47  1  1  0  0  0
 30 31  1  0  0  0  0
 30 45  1  0  0  0  0
 30 46  1  0  0  0  0
 31 32  1  0  0  0  0
 31 44  1  0  0  0  0
 32 33  2  0  0  0  0
 32 41  1  0  0  0  0
 33 34  1  0  0  0  0
 33 43  1  0  0  0  0
 34 35  2  0  0  0  0
 34 42  1  0  0  0  0
 35 36  1  0  0  0  0
 36 37  1  0  0  0  0
 36 41  2  0  0  0  0
 37 38  1  0  0  0  0
 37 39  1  0  0  0  0
 37 40  1  0  0  0  0
 50 51  2  0  0  0  0
 50 56  1  0  0  0  0
 51 52  1  0  0  0  0
 51 61  1  0  0  0  0
 52 53  1  0  0  0  0
 52 54  2  0  0  0  0
 54 55  1  0  0  0  0
 54 60  1  0  0  0  0
 55 56  2  0  0  0  0
 55 59  1  0  0  0  0
 56 57  1  0  0  0  0
 57 58  2  0  0  0  0
M  END
>  <MODEL>
       1

$$$$
