tmp_first_model_5_86.pdb
 OpenBabel08272519233D

 43 45  0  0  1  0  0  0  0  0999 V2000
   -8.0510    0.6760  -26.8020 C   0  0  0  0  0  0  0  0  0  0  0  0
   -9.2800    0.2950  -25.9730 C   0  0  1  0  0  0  0  0  0  0  0  0
   -9.1710   -1.0990  -25.3530 C   0  0  0  0  0  0  0  0  0  0  0  0
   -8.2110   -1.1360  -24.1640 C   0  0  0  0  0  0  0  0  0  0  0  0
   -8.5770   -0.1410  -23.1590 N   0  0  0  0  0  0  0  0  0  0  0  0
   -8.3900   -0.3290  -21.8060 C   0  0  0  0  0  0  0  0  0  0  0  0
   -8.9440    0.3750  -20.9750 O   0  0  0  0  0  0  0  0  0  0  0  0
   -7.4580   -1.4560  -21.3380 C   0  0  0  0  0  0  0  0  0  0  0  0
   -6.5100   -1.0100  -20.2550 C   0  0  0  0  0  0  0  0  0  0  0  0
   -6.8200   -1.1460  -18.9260 C   0  0  0  0  0  0  0  0  0  0  0  0
   -6.0300   -0.7770  -17.8780 N   0  0  0  0  0  0  0  0  0  0  0  0
   -4.8710   -0.2420  -18.1850 C   0  0  0  0  0  0  0  0  0  0  0  0
   -4.4430    0.0140  -19.5240 C   0  0  0  0  0  0  0  0  0  0  0  0
   -3.2730    0.7870  -19.7820 C   0  0  0  0  0  0  0  0  0  0  0  0
   -3.1330    1.4290  -20.9830 C   0  0  0  0  0  0  0  0  0  0  0  0
   -4.0230    1.1160  -22.0440 C   0  0  0  0  0  0  0  0  0  0  0  0
   -5.0410    0.2090  -21.8780 C   0  0  0  0  0  0  0  0  0  0  0  0
   -5.3210   -0.3010  -20.5860 C   0  0  0  0  0  0  0  0  0  0  0  0
   -5.6880   -0.0710  -22.7120 H   0  0  0  0  0  0  0  0  0  0  0  0
   -3.8650    1.5640  -23.0160 H   0  0  0  0  0  0  0  0  0  0  0  0
   -2.3060    2.1200  -21.1420 H   0  0  0  0  0  0  0  0  0  0  0  0
   -2.5690    0.9310  -18.9630 H   0  0  0  0  0  0  0  0  0  0  0  0
   -4.2430    0.1380  -17.3690 H   0  0  0  0  0  0  0  0  0  0  0  0
   -7.7980   -1.5430  -18.6600 H   0  0  0  0  0  0  0  0  0  0  0  0
   -6.8980   -1.8490  -22.1890 H   0  0  0  0  0  0  0  0  0  0  0  0
   -8.1170   -2.2500  -20.9600 H   0  0  0  0  0  0  0  0  0  0  0  0
   -8.7920    1.2460  -23.6010 C   0  0  1  0  0  0  0  0  0  0  0  0
   -7.4720    2.0140  -23.7150 C   0  0  0  0  0  0  0  0  0  0  0  0
   -7.6460    3.0020  -24.1540 H   0  0  0  0  0  0  0  0  0  0  0  0
   -6.7500    1.4840  -24.3440 H   0  0  0  0  0  0  0  0  0  0  0  0
   -7.0130    2.1460  -22.7280 H   0  0  0  0  0  0  0  0  0  0  0  0
   -9.6460    1.3000  -24.8730 C   0  0  0  0  0  0  0  0  0  0  0  0
  -10.6870    1.1220  -24.5840 H   0  0  0  0  0  0  0  0  0  0  0  0
   -9.6130    2.3240  -25.2710 H   0  0  0  0  0  0  0  0  0  0  0  0
   -9.3700    1.7140  -22.7990 H   0  0  0  0  0  0  0  0  0  0  0  0
   -7.1740   -0.9930  -24.5130 H   0  0  0  0  0  0  0  0  0  0  0  0
   -8.2610   -2.1280  -23.7080 H   0  0  0  0  0  0  0  0  0  0  0  0
   -8.8510   -1.8320  -26.1020 H   0  0  0  0  0  0  0  0  0  0  0  0
  -10.1600   -1.4220  -25.0100 H   0  0  0  0  0  0  0  0  0  0  0  0
  -10.1260    0.2830  -26.6710 H   0  0  0  0  0  0  0  0  0  0  0  0
   -7.1150    0.5760  -26.2460 H   0  0  0  0  0  0  0  0  0  0  0  0
   -8.1200    1.7100  -27.1550 H   0  0  0  0  0  0  0  0  0  0  0  0
   -7.9700    0.0290  -27.6830 H   0  0  0  0  0  0  0  0  0  0  0  0
  1  2  1  0  0  0  0
  1 41  1  0  0  0  0
  1 42  1  0  0  0  0
  1 43  1  0  0  0  0
  2  3  1  0  0  0  0
  2 32  1  0  0  0  0
  2 40  1  6  0  0  0
  3  4  1  0  0  0  0
  3 38  1  0  0  0  0
  3 39  1  0  0  0  0
  4  5  1  0  0  0  0
  4 36  1  0  0  0  0
  4 37  1  0  0  0  0
  5  6  1  0  0  0  0
  5 27  1  0  0  0  0
  6  7  2  0  0  0  0
  6  8  1  0  0  0  0
  8  9  1  0  0  0  0
  8 25  1  0  0  0  0
  8 26  1  0  0  0  0
  9 10  2  0  0  0  0
  9 18  1  0  0  0  0
 10 11  1  0  0  0  0
 10 24  1  0  0  0  0
 11 12  2  0  0  0  0
 12 13  1  0  0  0  0
 12 23  1  0  0  0  0
 13 14  2  0  0  0  0
 13 18  1  0  0  0  0
 14 15  1  0  0  0  0
 14 22  1  0  0  0  0
 15 16  2  0  0  0  0
 15 21  1  0  0  0  0
 16 17  1  0  0  0  0
 16 20  1  0  0  0  0
 17 18  2  0  0  0  0
 17 19  1  0  0  0  0
 27 28  1  0  0  0  0
 27 32  1  0  0  0  0
 27 35  1  1  0  0  0
 28 29  1  0  0  0  0
 28 30  1  0  0  0  0
 28 31  1  0  0  0  0
 32 33  1  0  0  0  0
 32 34  1  0  0  0  0
M  END
>  <MODEL>
       1

$$$$
