tmp_first_model_1_87.pdb
 OpenBabel08272517043D

 59 64  0  0  1  0  0  0  0  0999 V2000
  -10.1610   -2.6840  -22.2630 C   0  0  0  0  0  0  0  0  0  0  0  0
   -8.9790   -1.8580  -22.7890 C   0  0  1  0  0  0  0  0  0  0  0  0
   -8.5490   -0.8120  -21.7320 C   0  0  0  0  0  0  0  0  0  0  0  0
   -7.3750   -1.4060  -21.1220 N   0  0  0  0  0  0  0  0  0  0  0  0
   -6.6180   -0.7830  -20.1000 C   0  0  0  0  0  0  0  0  0  0  0  0
   -6.9610   -0.9680  -18.7890 C   0  0  0  0  0  0  0  0  0  0  0  0
   -6.2650   -0.4610  -17.7430 N   0  0  0  0  0  0  0  0  0  0  0  0
   -5.2120    0.2710  -18.0200 C   0  0  0  0  0  0  0  0  0  0  0  0
   -4.7560    0.5510  -19.3400 C   0  0  0  0  0  0  0  0  0  0  0  0
   -3.6130    1.3550  -19.5870 C   0  0  0  0  0  0  0  0  0  0  0  0
   -3.2010    1.5970  -20.8680 C   0  0  0  0  0  0  0  0  0  0  0  0
   -3.9110    1.0500  -21.9610 C   0  0  0  0  0  0  0  0  0  0  0  0
   -5.0230    0.2770  -21.7530 C   0  0  0  0  0  0  0  0  0  0  0  0
   -5.4720    0.0050  -20.4250 C   0  0  0  0  0  0  0  0  0  0  0  0
   -5.5630   -0.1380  -22.6050 H   0  0  0  0  0  0  0  0  0  0  0  0
   -3.5660    1.2460  -22.9720 H   0  0  0  0  0  0  0  0  0  0  0  0
   -2.3280    2.2160  -21.0560 H   0  0  0  0  0  0  0  0  0  0  0  0
   -3.0850    1.7760  -18.7350 H   0  0  0  0  0  0  0  0  0  0  0  0
   -4.6560    0.6750  -17.1750 H   0  0  0  0  0  0  0  0  0  0  0  0
   -7.8250   -1.5810  -18.5380 H   0  0  0  0  0  0  0  0  0  0  0  0
   -6.7850   -2.3810  -21.8840 C   0  0  0  0  0  0  0  0  0  0  0  0
   -5.7260   -2.9150  -21.6020 O   0  0  0  0  0  0  0  0  0  0  0  0
   -7.6690   -2.6670  -23.1090 C   0  0  1  0  0  0  0  0  0  0  0  0
   -7.8810   -4.2020  -23.2180 C   0  0  0  0  0  0  0  0  0  0  0  0
   -6.6850   -4.9420  -23.6420 N   0  0  0  0  0  0  0  0  0  0  0  0
   -5.8830   -5.6760  -22.7150 C   0  0  0  0  0  0  0  0  0  0  0  0
   -7.5070   -7.3330  -23.0790 C   0  0  0  0  0  0  0  0  0  0  0  0
   -7.6930   -7.5100  -22.9350 C   0  0  0  0  0  0  0  0  0  0  0  0
   -9.7220   -8.8060  -23.2720 C   0  0  0  0  0  0  0  0  0  0  0  0
   -9.2040   -8.4320  -24.3710 N   0  0  0  0  0  0  0  0  0  0  0  0
   -8.0490   -7.8440  -24.2940 N   0  0  0  0  0  0  0  0  0  0  0  0
   -7.3810   -7.3090  -25.4430 C   0  0  0  0  0  0  0  0  0  0  0  0
   -7.7020   -6.2910  -25.6900 H   0  0  0  0  0  0  0  0  0  0  0  0
   -6.3070   -7.2900  -25.2690 H   0  0  0  0  0  0  0  0  0  0  0  0
   -7.6320   -7.9380  -26.3020 H   0  0  0  0  0  0  0  0  0  0  0  0
  -10.7440   -9.2220  -23.2700 H   0  0  0  0  0  0  0  0  0  0  0  0
   -7.0800   -6.7720  -22.1990 H   0  0  0  0  0  0  0  0  0  0  0  0
   -5.3830   -5.0600  -21.9570 H   0  0  0  0  0  0  0  0  0  0  0  0
   -5.2880   -6.3910  -23.2750 H   0  0  0  0  0  0  0  0  0  0  0  0
   -5.9700   -4.4690  -24.7220 C   0  0  0  0  0  0  0  0  0  0  0  0
   -5.1190   -5.1520  -25.2770 O   0  0  0  0  0  0  0  0  0  0  0  0
   -6.2450   -3.0750  -25.1790 C   0  0  0  0  0  0  0  0  0  0  0  0
   -5.6500   -2.6720  -26.3730 C   0  0  0  0  0  0  0  0  0  0  0  0
   -5.7780   -1.3720  -26.8160 C   0  0  0  0  0  0  0  0  0  0  0  0
   -6.4810   -0.4820  -26.0130 C   0  0  0  0  0  0  0  0  0  0  0  0
   -6.5880    0.7940  -26.4240 F   0  0  0  0  0  0  0  0  0  0  0  0
   -7.0720   -0.8550  -24.8170 C   0  0  0  0  0  0  0  0  0  0  0  0
   -6.9930   -2.1890  -24.3940 C   0  0  0  0  0  0  0  0  0  0  0  0
   -7.5910   -0.0950  -24.2400 H   0  0  0  0  0  0  0  0  0  0  0  0
   -5.3330   -1.0340  -27.7450 H   0  0  0  0  0  0  0  0  0  0  0  0
   -5.0840   -3.4120  -26.9260 H   0  0  0  0  0  0  0  0  0  0  0  0
   -8.6750   -4.3590  -23.9610 H   0  0  0  0  0  0  0  0  0  0  0  0
   -8.2120   -4.5800  -22.2500 H   0  0  0  0  0  0  0  0  0  0  0  0
   -8.3120    0.1620  -22.1880 H   0  0  0  0  0  0  0  0  0  0  0  0
   -9.3220   -0.6350  -20.9790 H   0  0  0  0  0  0  0  0  0  0  0  0
   -9.3270   -1.3610  -23.7030 H   0  0  0  0  0  0  0  0  0  0  0  0
  -10.4990   -3.4200  -22.9970 H   0  0  0  0  0  0  0  0  0  0  0  0
  -11.0120   -2.0250  -22.0550 H   0  0  0  0  0  0  0  0  0  0  0  0
   -9.9090   -3.2080  -21.3350 H   0  0  0  0  0  0  0  0  0  0  0  0
  1  2  1  0  0  0  0
  1 57  1  0  0  0  0
  1 58  1  0  0  0  0
  1 59  1  0  0  0  0
  2  3  1  0  0  0  0
  2 23  1  0  0  0  0
  2 56  1  6  0  0  0
  3  4  1  0  0  0  0
  3 54  1  0  0  0  0
  3 55  1  0  0  0  0
  4  5  1  0  0  0  0
  4 21  1  0  0  0  0
  5  6  2  0  0  0  0
  5 14  1  0  0  0  0
  6  7  1  0  0  0  0
  6 20  1  0  0  0  0
  7  8  2  0  0  0  0
  8  9  1  0  0  0  0
  8 19  1  0  0  0  0
  9 10  2  0  0  0  0
  9 14  1  0  0  0  0
 10 11  1  0  0  0  0
 10 18  1  0  0  0  0
 11 12  2  0  0  0  0
 11 17  1  0  0  0  0
 12 13  1  0  0  0  0
 12 16  1  0  0  0  0
 13 14  2  0  0  0  0
 13 15  1  0  0  0  0
 21 22  2  0  0  0  0
 23 21  1  1  0  0  0
 23 24  1  0  0  0  0
 23 48  1  0  0  0  0
 24 25  1  0  0  0  0
 24 52  1  0  0  0  0
 24 53  1  0  0  0  0
 25 26  1  0  0  0  0
 25 40  1  0  0  0  0
 26 27  1  0  0  0  0
 26 38  1  0  0  0  0
 26 39  1  0  0  0  0
 27 28  2  0  0  0  0
 27 31  1  0  0  0  0
 28 29  1  0  0  0  0
 28 37  1  0  0  0  0
 29 30  2  0  0  0  0
 29 36  1  0  0  0  0
 30 31  1  0  0  0  0
 31 32  1  0  0  0  0
 32 33  1  0  0  0  0
 32 34  1  0  0  0  0
 32 35  1  0  0  0  0
 40 41  2  0  0  0  0
 40 42  1  0  0  0  0
 42 43  2  0  0  0  0
 42 48  1  0  0  0  0
 43 44  1  0  0  0  0
 43 51  1  0  0  0  0
 44 45  2  0  0  0  0
 44 50  1  0  0  0  0
 45 46  1  0  0  0  0
 45 47  1  0  0  0  0
 47 48  2  0  0  0  0
 47 49  1  0  0  0  0
M  END
>  <MODEL>
       1

$$$$
