tmp_first_model_18_64.pdb
 OpenBabel08282502533D

 55 60  0  0  1  0  0  0  0  0999 V2000
  -10.2140   -1.0630  -23.6340 C   0  0  0  0  0  0  0  0  0  0  0  0
   -8.8440   -1.3690  -23.0390 C   0  0  1  0  0  0  0  0  0  0  0  0
   -8.3900   -0.4240  -21.9130 C   0  0  0  0  0  0  0  0  0  0  0  0
   -7.3930   -1.2170  -21.2150 N   0  0  0  0  0  0  0  0  0  0  0  0
   -6.5920   -0.7430  -20.1550 C   0  0  0  0  0  0  0  0  0  0  0  0
   -6.8850   -1.0480  -18.8510 C   0  0  0  0  0  0  0  0  0  0  0  0
   -6.2130   -0.5380  -17.7870 N   0  0  0  0  0  0  0  0  0  0  0  0
   -5.2010    0.2610  -18.0310 C   0  0  0  0  0  0  0  0  0  0  0  0
   -4.7490    0.5970  -19.3430 C   0  0  0  0  0  0  0  0  0  0  0  0
   -3.6110    1.4100  -19.5900 C   0  0  0  0  0  0  0  0  0  0  0  0
   -3.1940    1.6500  -20.8720 C   0  0  0  0  0  0  0  0  0  0  0  0
   -3.8870    1.0950  -21.9720 C   0  0  0  0  0  0  0  0  0  0  0  0
   -4.9980    0.3210  -21.7610 C   0  0  0  0  0  0  0  0  0  0  0  0
   -5.4570    0.0680  -20.4420 C   0  0  0  0  0  0  0  0  0  0  0  0
   -5.5210   -0.1320  -22.5960 H   0  0  0  0  0  0  0  0  0  0  0  0
   -3.5400    1.2750  -22.9860 H   0  0  0  0  0  0  0  0  0  0  0  0
   -2.3230    2.2710  -21.0630 H   0  0  0  0  0  0  0  0  0  0  0  0
   -3.0790    1.8370  -18.7440 H   0  0  0  0  0  0  0  0  0  0  0  0
   -4.6670    0.6580  -17.1650 H   0  0  0  0  0  0  0  0  0  0  0  0
   -7.7080   -1.7230  -18.6260 H   0  0  0  0  0  0  0  0  0  0  0  0
   -7.4870   -2.5660  -21.4690 C   0  0  0  0  0  0  0  0  0  0  0  0
   -6.7580   -3.3990  -20.9760 O   0  0  0  0  0  0  0  0  0  0  0  0
   -8.6780   -2.7940  -22.4090 C   0  0  1  0  0  0  0  0  0  0  0  0
   -9.8920   -3.1780  -21.5040 C   0  0  0  0  0  0  0  0  0  0  0  0
  -11.0470   -3.6560  -22.2540 N   0  0  0  0  0  0  0  0  0  0  0  0
  -12.4110   -3.5850  -21.7190 C   0  0  0  0  0  0  0  0  0  0  0  0
  -13.2950   -2.5030  -22.2810 C   0  0  0  0  0  0  0  0  0  0  0  0
  -14.1080   -1.7480  -21.4850 N   0  0  0  0  0  0  0  0  0  0  0  0
  -14.7050   -0.9460  -22.3510 C   0  0  0  0  0  0  0  0  0  0  0  0
  -14.2910   -1.2350  -23.5970 N   0  0  0  0  0  0  0  0  0  0  0  0
  -13.3730   -2.2280  -23.5680 N   0  0  0  0  0  0  0  0  0  0  0  0
  -14.5150   -0.7990  -24.4780 H   0  0  0  0  0  0  0  0  0  0  0  0
  -15.4050   -0.1450  -22.1380 H   0  0  0  0  0  0  0  0  0  0  0  0
  -12.8900   -4.5390  -21.9600 H   0  0  0  0  0  0  0  0  0  0  0  0
  -12.4230   -3.4490  -20.6390 H   0  0  0  0  0  0  0  0  0  0  0  0
  -10.8620   -4.5250  -23.2930 C   0  0  0  0  0  0  0  0  0  0  0  0
  -11.7880   -5.1500  -23.7710 O   0  0  0  0  0  0  0  0  0  0  0  0
   -9.4840   -4.6880  -23.8380 C   0  0  0  0  0  0  0  0  0  0  0  0
   -9.3100   -5.6750  -24.8050 C   0  0  0  0  0  0  0  0  0  0  0  0
   -8.0790   -5.8940  -25.3810 C   0  0  0  0  0  0  0  0  0  0  0  0
   -7.0240   -5.0920  -24.9680 C   0  0  0  0  0  0  0  0  0  0  0  0
   -5.8210   -5.3130  -25.5230 F   0  0  0  0  0  0  0  0  0  0  0  0
   -7.1640   -4.1140  -24.0000 C   0  0  0  0  0  0  0  0  0  0  0  0
   -8.4210   -3.8940  -23.4150 C   0  0  0  0  0  0  0  0  0  0  0  0
   -6.2930   -3.5350  -23.7210 H   0  0  0  0  0  0  0  0  0  0  0  0
   -7.9270   -6.6570  -26.1340 H   0  0  0  0  0  0  0  0  0  0  0  0
  -10.1860   -6.2420  -25.0930 H   0  0  0  0  0  0  0  0  0  0  0  0
  -10.2210   -2.3000  -20.9390 H   0  0  0  0  0  0  0  0  0  0  0  0
   -9.5350   -3.9420  -20.8010 H   0  0  0  0  0  0  0  0  0  0  0  0
   -9.2150   -0.1780  -21.2280 H   0  0  0  0  0  0  0  0  0  0  0  0
   -7.9580    0.5110  -22.2880 H   0  0  0  0  0  0  0  0  0  0  0  0
   -8.1030   -1.3050  -23.8500 H   0  0  0  0  0  0  0  0  0  0  0  0
  -10.2530   -0.0530  -24.0550 H   0  0  0  0  0  0  0  0  0  0  0  0
  -11.0120   -1.1710  -22.8940 H   0  0  0  0  0  0  0  0  0  0  0  0
  -10.4370   -1.7730  -24.4360 H   0  0  0  0  0  0  0  0  0  0  0  0
  1  2  1  0  0  0  0
  1 53  1  0  0  0  0
  1 54  1  0  0  0  0
  1 55  1  0  0  0  0
  2  3  1  0  0  0  0
  2 23  1  0  0  0  0
  2 52  1  6  0  0  0
  3  4  1  0  0  0  0
  3 50  1  0  0  0  0
  3 51  1  0  0  0  0
  4  5  1  0  0  0  0
  4 21  1  0  0  0  0
  5  6  2  0  0  0  0
  5 14  1  0  0  0  0
  6  7  1  0  0  0  0
  6 20  1  0  0  0  0
  7  8  2  0  0  0  0
  8  9  1  0  0  0  0
  8 19  1  0  0  0  0
  9 10  2  0  0  0  0
  9 14  1  0  0  0  0
 10 11  1  0  0  0  0
 10 18  1  0  0  0  0
 11 12  2  0  0  0  0
 11 17  1  0  0  0  0
 12 13  1  0  0  0  0
 12 16  1  0  0  0  0
 13 14  2  0  0  0  0
 13 15  1  0  0  0  0
 21 22  2  0  0  0  0
 23 21  1  1  0  0  0
 23 24  1  0  0  0  0
 23 44  1  0  0  0  0
 24 25  1  0  0  0  0
 24 48  1  0  0  0  0
 24 49  1  0  0  0  0
 25 26  1  0  0  0  0
 25 36  1  0  0  0  0
 26 27  1  0  0  0  0
 26 34  1  0  0  0  0
 26 35  1  0  0  0  0
 27 28  1  0  0  0  0
 27 31  2  0  0  0  0
 28 29  2  0  0  0  0
 29 30  1  0  0  0  0
 29 33  1  0  0  0  0
 30 31  1  0  0  0  0
 30 32  1  0  0  0  0
 36 37  2  0  0  0  0
 36 38  1  0  0  0  0
 38 39  2  0  0  0  0
 38 44  1  0  0  0  0
 39 40  1  0  0  0  0
 39 47  1  0  0  0  0
 40 41  2  0  0  0  0
 40 46  1  0  0  0  0
 41 42  1  0  0  0  0
 41 43  1  0  0  0  0
 43 44  2  0  0  0  0
 43 45  1  0  0  0  0
M  END
>  <MODEL>
       1

$$$$
