tmp_first_model_10_2.pdb
 OpenBabel08272522163D

 60 65  0  0  1  0  0  0  0  0999 V2000
   -5.9970   -7.5400  -26.6560 C   0  0  0  0  0  0  0  0  0  0  0  0
   -6.4990   -6.1260  -26.7160 C   0  0  0  0  0  0  0  0  0  0  0  0
   -5.6680   -5.0650  -26.3590 C   0  0  0  0  0  0  0  0  0  0  0  0
   -6.0690   -3.8000  -26.3740 N   0  0  0  0  0  0  0  0  0  0  0  0
   -7.3100   -3.5650  -26.7940 C   0  0  0  0  0  0  0  0  0  0  0  0
   -7.7370   -2.1290  -26.8460 C   0  0  0  0  0  0  0  0  0  0  0  0
   -8.5630   -1.7960  -25.6980 N   0  0  0  0  0  0  0  0  0  0  0  0
   -7.9260   -1.2910  -24.4820 C   0  0  0  0  0  0  0  0  0  0  0  0
   -8.7380   -1.5820  -23.1890 C   0  0  2  0  0  0  0  0  0  0  0  0
   -8.1670   -0.6470  -22.1110 C   0  0  0  0  0  0  0  0  0  0  0  0
   -8.2890    0.5610  -22.0750 O   0  0  0  0  0  0  0  0  0  0  0  0
   -7.4460   -1.3880  -21.2000 N   0  0  0  0  0  0  0  0  0  0  0  0
   -6.6650   -0.7890  -20.1840 C   0  0  0  0  0  0  0  0  0  0  0  0
   -6.9190   -1.0990  -18.8710 C   0  0  0  0  0  0  0  0  0  0  0  0
   -6.2310   -0.6130  -17.8120 N   0  0  0  0  0  0  0  0  0  0  0  0
   -5.2160    0.1760  -18.0750 C   0  0  0  0  0  0  0  0  0  0  0  0
   -4.8360    0.5750  -19.3890 C   0  0  0  0  0  0  0  0  0  0  0  0
   -3.7260    1.4370  -19.6020 C   0  0  0  0  0  0  0  0  0  0  0  0
   -3.4450    1.9020  -20.8550 C   0  0  0  0  0  0  0  0  0  0  0  0
   -4.2300    1.4910  -21.9550 C   0  0  0  0  0  0  0  0  0  0  0  0
   -5.2340    0.5700  -21.7920 C   0  0  0  0  0  0  0  0  0  0  0  0
   -5.5910    0.1100  -20.4880 C   0  0  0  0  0  0  0  0  0  0  0  0
   -5.7820    0.2300  -22.6650 H   0  0  0  0  0  0  0  0  0  0  0  0
   -4.0300    1.9110  -22.9350 H   0  0  0  0  0  0  0  0  0  0  0  0
   -2.6510    2.6260  -21.0050 H   0  0  0  0  0  0  0  0  0  0  0  0
   -3.1240    1.7240  -18.7420 H   0  0  0  0  0  0  0  0  0  0  0  0
   -4.6480    0.5580  -17.2260 H   0  0  0  0  0  0  0  0  0  0  0  0
   -7.7470   -1.7650  -18.6360 H   0  0  0  0  0  0  0  0  0  0  0  0
   -7.3930   -2.8080  -21.5070 C   0  0  0  0  0  0  0  0  0  0  0  0
   -8.5240   -2.9940  -22.5280 C   0  0  2  0  0  0  0  0  0  0  0  0
   -8.3020   -4.1450  -23.4960 C   0  0  0  0  0  0  0  0  0  0  0  0
   -9.1120   -4.1810  -24.2310 H   0  0  0  0  0  0  0  0  0  0  0  0
   -8.2690   -5.0950  -22.9540 H   0  0  0  0  0  0  0  0  0  0  0  0
   -7.3560   -4.0180  -24.0320 H   0  0  0  0  0  0  0  0  0  0  0  0
   -9.4400   -3.1890  -21.9490 H   0  0  0  0  0  0  0  0  0  0  0  0
   -6.4110   -3.0860  -21.9170 H   0  0  0  0  0  0  0  0  0  0  0  0
   -7.5550   -3.4040  -20.6040 H   0  0  0  0  0  0  0  0  0  0  0  0
  -10.2030   -1.3070  -23.4750 C   0  0  0  0  0  0  0  0  0  0  0  0
  -11.0700   -1.0110  -22.4240 C   0  0  0  0  0  0  0  0  0  0  0  0
  -12.4180   -0.8420  -22.6780 C   0  0  0  0  0  0  0  0  0  0  0  0
  -13.2490   -0.5880  -21.6620 F   0  0  0  0  0  0  0  0  0  0  0  0
  -12.9650   -0.9530  -23.9490 C   0  0  0  0  0  0  0  0  0  0  0  0
  -12.1170   -1.2760  -24.9850 C   0  0  0  0  0  0  0  0  0  0  0  0
  -10.7550   -1.4490  -24.7500 C   0  0  0  0  0  0  0  0  0  0  0  0
   -9.9140   -1.8370  -25.9040 C   0  0  0  0  0  0  0  0  0  0  0  0
  -10.4040   -2.1690  -26.9770 O   0  0  0  0  0  0  0  0  0  0  0  0
  -12.4710   -1.4150  -26.0010 H   0  0  0  0  0  0  0  0  0  0  0  0
  -14.0260   -0.8000  -24.1100 H   0  0  0  0  0  0  0  0  0  0  0  0
  -10.6770   -0.9180  -21.4210 H   0  0  0  0  0  0  0  0  0  0  0  0
   -6.9170   -1.7250  -24.4000 H   0  0  0  0  0  0  0  0  0  0  0  0
   -7.8040   -0.1980  -24.5630 H   0  0  0  0  0  0  0  0  0  0  0  0
   -8.3300   -1.9230  -27.7430 H   0  0  0  0  0  0  0  0  0  0  0  0
   -6.8410   -1.5020  -26.8410 H   0  0  0  0  0  0  0  0  0  0  0  0
   -8.1570   -4.6180  -27.1360 C   0  0  0  0  0  0  0  0  0  0  0  0
   -7.7510   -5.8890  -27.1100 N   0  0  0  0  0  0  0  0  0  0  0  0
   -9.1860   -4.4320  -27.4370 H   0  0  0  0  0  0  0  0  0  0  0  0
   -4.6370   -5.2440  -26.0710 H   0  0  0  0  0  0  0  0  0  0  0  0
   -5.1630   -7.6760  -27.3560 H   0  0  0  0  0  0  0  0  0  0  0  0
   -5.6090   -7.7530  -25.6510 H   0  0  0  0  0  0  0  0  0  0  0  0
   -6.8050   -8.2340  -26.9120 H   0  0  0  0  0  0  0  0  0  0  0  0
  1  2  1  0  0  0  0
  1 58  1  0  0  0  0
  1 59  1  0  0  0  0
  1 60  1  0  0  0  0
  2  3  2  0  0  0  0
  2 55  1  0  0  0  0
  3  4  1  0  0  0  0
  3 57  1  0  0  0  0
  4  5  2  0  0  0  0
  5  6  1  0  0  0  0
  5 54  1  0  0  0  0
  6  7  1  0  0  0  0
  6 52  1  0  0  0  0
  6 53  1  0  0  0  0
  7  8  1  0  0  0  0
  7 45  1  0  0  0  0
  8  9  1  0  0  0  0
  8 50  1  0  0  0  0
  8 51  1  0  0  0  0
  9 10  1  1  0  0  0
  9 30  1  0  0  0  0
  9 38  1  0  0  0  0
 10 11  2  0  0  0  0
 10 12  1  0  0  0  0
 12 13  1  0  0  0  0
 12 29  1  0  0  0  0
 13 14  2  0  0  0  0
 13 22  1  0  0  0  0
 14 15  1  0  0  0  0
 14 28  1  0  0  0  0
 15 16  2  0  0  0  0
 16 17  1  0  0  0  0
 16 27  1  0  0  0  0
 17 18  2  0  0  0  0
 17 22  1  0  0  0  0
 18 19  1  0  0  0  0
 18 26  1  0  0  0  0
 19 20  2  0  0  0  0
 19 25  1  0  0  0  0
 20 21  1  0  0  0  0
 20 24  1  0  0  0  0
 21 22  2  0  0  0  0
 21 23  1  0  0  0  0
 29 30  1  0  0  0  0
 29 36  1  0  0  0  0
 29 37  1  0  0  0  0
 30 31  1  0  0  0  0
 30 35  1  1  0  0  0
 31 32  1  0  0  0  0
 31 33  1  0  0  0  0
 31 34  1  0  0  0  0
 38 39  2  0  0  0  0
 38 44  1  0  0  0  0
 39 40  1  0  0  0  0
 39 49  1  0  0  0  0
 40 41  1  0  0  0  0
 40 42  2  0  0  0  0
 42 43  1  0  0  0  0
 42 48  1  0  0  0  0
 43 44  2  0  0  0  0
 43 47  1  0  0  0  0
 44 45  1  0  0  0  0
 45 46  2  0  0  0  0
 54 55  2  0  0  0  0
 54 56  1  0  0  0  0
M  END
>  <MODEL>
       1

$$$$
