tmp_first_model_3_29.pdb
 OpenBabel08272518143D

 55 60  0  0  1  0  0  0  0  0999 V2000
  -10.0470   -0.8980  -23.4660 C   0  0  0  0  0  0  0  0  0  0  0  0
   -8.6590   -1.2460  -22.9240 C   0  0  1  0  0  0  0  0  0  0  0  0
   -8.1840   -0.3140  -21.7930 C   0  0  0  0  0  0  0  0  0  0  0  0
   -7.2320   -1.1310  -21.0470 N   0  0  0  0  0  0  0  0  0  0  0  0
   -6.4010   -0.6360  -20.0080 C   0  0  0  0  0  0  0  0  0  0  0  0
   -6.6760   -0.8970  -18.6890 C   0  0  0  0  0  0  0  0  0  0  0  0
   -6.0070   -0.3440  -17.6440 N   0  0  0  0  0  0  0  0  0  0  0  0
   -5.0070    0.4600  -17.9160 C   0  0  0  0  0  0  0  0  0  0  0  0
   -4.5680    0.7550  -19.2360 C   0  0  0  0  0  0  0  0  0  0  0  0
   -3.4360    1.5780  -19.4740 C   0  0  0  0  0  0  0  0  0  0  0  0
   -3.0160    1.8130  -20.7540 C   0  0  0  0  0  0  0  0  0  0  0  0
   -3.7140    1.2500  -21.8470 C   0  0  0  0  0  0  0  0  0  0  0  0
   -4.8250    0.4680  -21.6400 C   0  0  0  0  0  0  0  0  0  0  0  0
   -5.2800    0.1990  -20.3210 C   0  0  0  0  0  0  0  0  0  0  0  0
   -5.3580    0.0380  -22.4810 H   0  0  0  0  0  0  0  0  0  0  0  0
   -3.3730    1.4430  -22.8610 H   0  0  0  0  0  0  0  0  0  0  0  0
   -2.1500    2.4430  -20.9410 H   0  0  0  0  0  0  0  0  0  0  0  0
   -2.9260    2.0210  -18.6210 H   0  0  0  0  0  0  0  0  0  0  0  0
   -4.4720    0.9040  -17.0740 H   0  0  0  0  0  0  0  0  0  0  0  0
   -7.4860   -1.5700  -18.4180 H   0  0  0  0  0  0  0  0  0  0  0  0
   -7.3700   -2.4820  -21.2900 C   0  0  0  0  0  0  0  0  0  0  0  0
   -6.7230   -3.3620  -20.7530 O   0  0  0  0  0  0  0  0  0  0  0  0
   -8.4980   -2.6830  -22.3140 C   0  0  1  0  0  0  0  0  0  0  0  0
   -9.7400   -3.1620  -21.5220 C   0  0  0  0  0  0  0  0  0  0  0  0
  -10.8000   -3.6240  -22.4090 N   0  0  0  0  0  0  0  0  0  0  0  0
  -12.1910   -3.4660  -21.9890 C   0  0  0  0  0  0  0  0  0  0  0  0
  -12.9780   -2.3650  -22.6570 C   0  0  0  0  0  0  0  0  0  0  0  0
  -13.6270   -2.2630  -23.9030 C   0  0  0  0  0  0  0  0  0  0  0  0
  -14.2930   -1.1090  -23.9620 N   0  0  0  0  0  0  0  0  0  0  0  0
  -14.0430   -0.5720  -22.7860 N   0  0  0  0  0  0  0  0  0  0  0  0
  -13.2480   -1.2510  -21.9780 N   0  0  0  0  0  0  0  0  0  0  0  0
  -14.3360    0.3670  -22.5650 H   0  0  0  0  0  0  0  0  0  0  0  0
  -13.6580   -2.9530  -24.7320 H   0  0  0  0  0  0  0  0  0  0  0  0
  -12.1760   -3.2230  -20.9280 H   0  0  0  0  0  0  0  0  0  0  0  0
  -12.6860   -4.4330  -22.1120 H   0  0  0  0  0  0  0  0  0  0  0  0
  -10.4900   -4.6040  -23.3210 C   0  0  0  0  0  0  0  0  0  0  0  0
  -11.2900   -5.3950  -23.7640 O   0  0  0  0  0  0  0  0  0  0  0  0
   -9.0840   -4.6520  -23.8040 C   0  0  0  0  0  0  0  0  0  0  0  0
   -8.7640   -5.6250  -24.7550 C   0  0  0  0  0  0  0  0  0  0  0  0
   -7.4890   -5.7030  -25.2770 C   0  0  0  0  0  0  0  0  0  0  0  0
   -6.5460   -4.7980  -24.7990 C   0  0  0  0  0  0  0  0  0  0  0  0
   -5.3030   -4.8630  -25.3030 F   0  0  0  0  0  0  0  0  0  0  0  0
   -6.8330   -3.8480  -23.8350 C   0  0  0  0  0  0  0  0  0  0  0  0
   -8.1370   -3.7460  -23.3330 C   0  0  0  0  0  0  0  0  0  0  0  0
   -6.0310   -3.2290  -23.4500 H   0  0  0  0  0  0  0  0  0  0  0  0
   -7.2230   -6.4500  -26.0190 H   0  0  0  0  0  0  0  0  0  0  0  0
   -9.5520   -6.3090  -25.0580 H   0  0  0  0  0  0  0  0  0  0  0  0
  -10.1450   -2.3550  -20.9060 H   0  0  0  0  0  0  0  0  0  0  0  0
   -9.4150   -3.9600  -20.8380 H   0  0  0  0  0  0  0  0  0  0  0  0
   -9.0330   -0.0120  -21.1580 H   0  0  0  0  0  0  0  0  0  0  0  0
   -7.7200    0.6040  -22.1670 H   0  0  0  0  0  0  0  0  0  0  0  0
   -7.9340   -1.1960  -23.7530 H   0  0  0  0  0  0  0  0  0  0  0  0
  -10.0310    0.0610  -23.9950 H   0  0  0  0  0  0  0  0  0  0  0  0
  -10.3820   -1.6670  -24.1710 H   0  0  0  0  0  0  0  0  0  0  0  0
  -10.7870   -0.8340  -22.6580 H   0  0  0  0  0  0  0  0  0  0  0  0
  1  2  1  0  0  0  0
  1 53  1  0  0  0  0
  1 54  1  0  0  0  0
  1 55  1  0  0  0  0
  2  3  1  0  0  0  0
  2 23  1  0  0  0  0
  2 52  1  6  0  0  0
  3  4  1  0  0  0  0
  3 50  1  0  0  0  0
  3 51  1  0  0  0  0
  4  5  1  0  0  0  0
  4 21  1  0  0  0  0
  5  6  2  0  0  0  0
  5 14  1  0  0  0  0
  6  7  1  0  0  0  0
  6 20  1  0  0  0  0
  7  8  2  0  0  0  0
  8  9  1  0  0  0  0
  8 19  1  0  0  0  0
  9 10  2  0  0  0  0
  9 14  1  0  0  0  0
 10 11  1  0  0  0  0
 10 18  1  0  0  0  0
 11 12  2  0  0  0  0
 11 17  1  0  0  0  0
 12 13  1  0  0  0  0
 12 16  1  0  0  0  0
 13 14  2  0  0  0  0
 13 15  1  0  0  0  0
 21 22  2  0  0  0  0
 23 21  1  1  0  0  0
 23 24  1  0  0  0  0
 23 44  1  0  0  0  0
 24 25  1  0  0  0  0
 24 48  1  0  0  0  0
 24 49  1  0  0  0  0
 25 26  1  0  0  0  0
 25 36  1  0  0  0  0
 26 27  1  0  0  0  0
 26 34  1  0  0  0  0
 26 35  1  0  0  0  0
 27 28  1  0  0  0  0
 27 31  2  0  0  0  0
 28 29  2  0  0  0  0
 28 33  1  0  0  0  0
 29 30  1  0  0  0  0
 30 31  1  0  0  0  0
 30 32  1  0  0  0  0
 36 37  2  0  0  0  0
 36 38  1  0  0  0  0
 38 39  2  0  0  0  0
 38 44  1  0  0  0  0
 39 40  1  0  0  0  0
 39 47  1  0  0  0  0
 40 41  2  0  0  0  0
 40 46  1  0  0  0  0
 41 42  1  0  0  0  0
 41 43  1  0  0  0  0
 43 44  2  0  0  0  0
 43 45  1  0  0  0  0
M  END
>  <MODEL>
       1

$$$$
