tmp_first_model_6_9.pdb
 OpenBabel08272519583D

 41 43  0  0  1  0  0  0  0  0999 V2000
  -13.1790   -2.9270  -22.9030 C   0  0  0  0  0  0  0  0  0  0  0  0
  -11.9700   -2.0470  -23.2130 C   0  0  1  0  0  0  0  0  0  0  0  0
  -12.1570   -0.6580  -22.6430 C   0  0  0  0  0  0  0  0  0  0  0  0
  -11.3190    0.3570  -22.8350 C   0  0  0  0  0  0  0  0  0  0  0  0
  -10.0220    0.2180  -23.6030 C   0  0  0  0  0  0  0  0  0  0  0  0
   -9.0910   -0.7830  -23.0600 N   0  0  0  0  0  0  0  0  0  0  0  0
   -8.3780   -0.4050  -21.9320 C   0  0  0  0  0  0  0  0  0  0  0  0
   -8.4820    0.7170  -21.4720 O   0  0  0  0  0  0  0  0  0  0  0  0
   -7.4310   -1.4330  -21.2740 C   0  0  0  0  0  0  0  0  0  0  0  0
   -6.5800   -0.8280  -20.1820 C   0  0  0  0  0  0  0  0  0  0  0  0
   -6.8780   -1.0410  -18.8620 C   0  0  0  0  0  0  0  0  0  0  0  0
   -6.1920   -0.5400  -17.8000 N   0  0  0  0  0  0  0  0  0  0  0  0
   -5.1570    0.2200  -18.0640 C   0  0  0  0  0  0  0  0  0  0  0  0
   -4.7250    0.5370  -19.3790 C   0  0  0  0  0  0  0  0  0  0  0  0
   -3.5990    1.3680  -19.6180 C   0  0  0  0  0  0  0  0  0  0  0  0
   -3.2170    1.6720  -20.8970 C   0  0  0  0  0  0  0  0  0  0  0  0
   -3.9600    1.1690  -21.9870 C   0  0  0  0  0  0  0  0  0  0  0  0
   -5.0450    0.3500  -21.7820 C   0  0  0  0  0  0  0  0  0  0  0  0
   -5.4580    0.0080  -20.4700 C   0  0  0  0  0  0  0  0  0  0  0  0
   -5.5740   -0.0630  -22.6350 H   0  0  0  0  0  0  0  0  0  0  0  0
   -3.6290    1.3780  -23.0000 H   0  0  0  0  0  0  0  0  0  0  0  0
   -2.3510    2.3030  -21.0860 H   0  0  0  0  0  0  0  0  0  0  0  0
   -3.0550    1.7730  -18.7680 H   0  0  0  0  0  0  0  0  0  0  0  0
   -4.6020    0.6270  -17.2150 H   0  0  0  0  0  0  0  0  0  0  0  0
   -7.7300   -1.6610  -18.5860 H   0  0  0  0  0  0  0  0  0  0  0  0
   -6.7950   -1.8990  -22.0380 H   0  0  0  0  0  0  0  0  0  0  0  0
   -8.0410   -2.2440  -20.8460 H   0  0  0  0  0  0  0  0  0  0  0  0
   -9.3950   -2.1690  -23.3970 C   0  0  0  0  0  0  0  0  0  0  0  0
  -10.6670   -2.7290  -22.7520 C   0  0  0  0  0  0  0  0  0  0  0  0
  -10.5860   -2.6370  -21.6640 H   0  0  0  0  0  0  0  0  0  0  0  0
  -10.7250   -3.8070  -22.9660 H   0  0  0  0  0  0  0  0  0  0  0  0
   -8.5300   -2.7920  -23.1560 H   0  0  0  0  0  0  0  0  0  0  0  0
   -9.5100   -2.2190  -24.4850 H   0  0  0  0  0  0  0  0  0  0  0  0
  -10.2450   -0.0760  -24.6360 H   0  0  0  0  0  0  0  0  0  0  0  0
   -9.5070    1.1790  -23.6530 H   0  0  0  0  0  0  0  0  0  0  0  0
  -11.5320    1.3290  -22.3890 H   0  0  0  0  0  0  0  0  0  0  0  0
  -13.0300   -0.4940  -22.0100 H   0  0  0  0  0  0  0  0  0  0  0  0
  -11.9050   -1.9390  -24.3040 H   0  0  0  0  0  0  0  0  0  0  0  0
  -13.0970   -3.9090  -23.3860 H   0  0  0  0  0  0  0  0  0  0  0  0
  -13.2640   -3.0900  -21.8220 H   0  0  0  0  0  0  0  0  0  0  0  0
  -14.1060   -2.4570  -23.2510 H   0  0  0  0  0  0  0  0  0  0  0  0
  1  2  1  0  0  0  0
  1 39  1  0  0  0  0
  1 40  1  0  0  0  0
  1 41  1  0  0  0  0
  2  3  1  0  0  0  0
  2 29  1  0  0  0  0
  2 38  1  6  0  0  0
  3  4  2  0  0  0  0
  3 37  1  0  0  0  0
  4  5  1  0  0  0  0
  4 36  1  0  0  0  0
  5  6  1  0  0  0  0
  5 34  1  0  0  0  0
  5 35  1  0  0  0  0
  6  7  1  0  0  0  0
  6 28  1  0  0  0  0
  7  8  2  0  0  0  0
  7  9  1  0  0  0  0
  9 10  1  0  0  0  0
  9 26  1  0  0  0  0
  9 27  1  0  0  0  0
 10 11  2  0  0  0  0
 10 19  1  0  0  0  0
 11 12  1  0  0  0  0
 11 25  1  0  0  0  0
 12 13  2  0  0  0  0
 13 14  1  0  0  0  0
 13 24  1  0  0  0  0
 14 15  2  0  0  0  0
 14 19  1  0  0  0  0
 15 16  1  0  0  0  0
 15 23  1  0  0  0  0
 16 17  2  0  0  0  0
 16 22  1  0  0  0  0
 17 18  1  0  0  0  0
 17 21  1  0  0  0  0
 18 19  2  0  0  0  0
 18 20  1  0  0  0  0
 28 29  1  0  0  0  0
 28 32  1  0  0  0  0
 28 33  1  0  0  0  0
 29 30  1  0  0  0  0
 29 31  1  0  0  0  0
M  END
>  <MODEL>
       1

$$$$
