tmp_first_model_4_40.pdb
 OpenBabel08272518513D

 40 42  0  0  0  0  0  0  0  0999 V2000
   -9.3140   -6.6190  -25.1190 C   0  0  0  0  0  0  0  0  0  0  0  0
   -8.9760   -5.7910  -23.8840 C   0  0  0  0  0  0  0  0  0  0  0  0
   -7.5130   -5.9670  -23.4840 C   0  0  0  0  0  0  0  0  0  0  0  0
   -7.2400   -5.1700  -22.2240 C   0  0  0  0  0  0  0  0  0  0  0  0
   -7.6260   -3.7720  -22.3460 N   0  0  0  0  0  0  0  0  0  0  0  0
   -6.7960   -2.8460  -21.7810 C   0  0  0  0  0  0  0  0  0  0  0  0
   -5.6080   -3.0770  -21.6050 O   0  0  0  0  0  0  0  0  0  0  0  0
   -7.4010   -1.5230  -21.2910 C   0  0  0  0  0  0  0  0  0  0  0  0
   -6.4980   -0.9900  -20.2160 C   0  0  0  0  0  0  0  0  0  0  0  0
   -6.7510   -1.2680  -18.8990 C   0  0  0  0  0  0  0  0  0  0  0  0
   -5.9260   -0.9890  -17.8600 N   0  0  0  0  0  0  0  0  0  0  0  0
   -4.8130   -0.3550  -18.1420 C   0  0  0  0  0  0  0  0  0  0  0  0
   -4.4370    0.0400  -19.4560 C   0  0  0  0  0  0  0  0  0  0  0  0
   -3.2850    0.8280  -19.7050 C   0  0  0  0  0  0  0  0  0  0  0  0
   -3.0470    1.3370  -20.9560 C   0  0  0  0  0  0  0  0  0  0  0  0
   -3.8860    0.9740  -22.0340 C   0  0  0  0  0  0  0  0  0  0  0  0
   -4.9610    0.1470  -21.8370 C   0  0  0  0  0  0  0  0  0  0  0  0
   -5.3010   -0.2910  -20.5280 C   0  0  0  0  0  0  0  0  0  0  0  0
   -5.6220   -0.0900  -22.6650 H   0  0  0  0  0  0  0  0  0  0  0  0
   -3.6980    1.3830  -23.0240 H   0  0  0  0  0  0  0  0  0  0  0  0
   -2.2590    2.0660  -21.1140 H   0  0  0  0  0  0  0  0  0  0  0  0
   -2.6410    1.0820  -18.8680 H   0  0  0  0  0  0  0  0  0  0  0  0
   -4.1700   -0.0990  -17.3000 H   0  0  0  0  0  0  0  0  0  0  0  0
   -7.7050   -1.7140  -18.6230 H   0  0  0  0  0  0  0  0  0  0  0  0
   -7.5460   -0.8270  -22.1300 H   0  0  0  0  0  0  0  0  0  0  0  0
   -8.3980   -1.7140  -20.8770 H   0  0  0  0  0  0  0  0  0  0  0  0
   -8.9830   -3.5080  -22.7950 C   0  0  0  0  0  0  0  0  0  0  0  0
   -9.2800   -4.3020  -24.0650 C   0  0  0  0  0  0  0  0  0  0  0  0
  -10.3300   -4.1520  -24.3410 H   0  0  0  0  0  0  0  0  0  0  0  0
   -8.6580   -3.9210  -24.8840 H   0  0  0  0  0  0  0  0  0  0  0  0
   -9.0870   -2.4340  -22.9830 H   0  0  0  0  0  0  0  0  0  0  0  0
   -9.7080   -3.7800  -22.0110 H   0  0  0  0  0  0  0  0  0  0  0  0
   -7.8390   -5.6510  -21.4410 H   0  0  0  0  0  0  0  0  0  0  0  0
   -6.1940   -5.1810  -21.9170 H   0  0  0  0  0  0  0  0  0  0  0  0
   -6.8600   -5.6730  -24.3150 H   0  0  0  0  0  0  0  0  0  0  0  0
   -7.3040   -7.0230  -23.2640 H   0  0  0  0  0  0  0  0  0  0  0  0
   -9.5770   -6.1470  -23.0400 H   0  0  0  0  0  0  0  0  0  0  0  0
   -9.1350   -7.6850  -24.9430 H   0  0  0  0  0  0  0  0  0  0  0  0
  -10.3590   -6.5010  -25.4250 H   0  0  0  0  0  0  0  0  0  0  0  0
   -8.6810   -6.3120  -25.9600 H   0  0  0  0  0  0  0  0  0  0  0  0
  1  2  1  0  0  0  0
  1 38  1  0  0  0  0
  1 39  1  0  0  0  0
  1 40  1  0  0  0  0
  2  3  1  0  0  0  0
  2 28  1  0  0  0  0
  2 37  1  0  0  0  0
  3  4  1  0  0  0  0
  3 35  1  0  0  0  0
  3 36  1  0  0  0  0
  4  5  1  0  0  0  0
  4 33  1  0  0  0  0
  4 34  1  0  0  0  0
  5  6  1  0  0  0  0
  5 27  1  0  0  0  0
  6  7  2  0  0  0  0
  6  8  1  0  0  0  0
  8  9  1  0  0  0  0
  8 25  1  0  0  0  0
  8 26  1  0  0  0  0
  9 10  2  0  0  0  0
  9 18  1  0  0  0  0
 10 11  1  0  0  0  0
 10 24  1  0  0  0  0
 11 12  2  0  0  0  0
 12 13  1  0  0  0  0
 12 23  1  0  0  0  0
 13 14  2  0  0  0  0
 13 18  1  0  0  0  0
 14 15  1  0  0  0  0
 14 22  1  0  0  0  0
 15 16  2  0  0  0  0
 15 21  1  0  0  0  0
 16 17  1  0  0  0  0
 16 20  1  0  0  0  0
 17 18  2  0  0  0  0
 17 19  1  0  0  0  0
 27 28  1  0  0  0  0
 27 31  1  0  0  0  0
 27 32  1  0  0  0  0
 28 29  1  0  0  0  0
 28 30  1  0  0  0  0
M  END
>  <MODEL>
       1

$$$$
