tmp_first_model_3_75.pdb
 OpenBabel08272518143D

 66 71  0  0  1  0  0  0  0  0999 V2000
   -7.3530    3.3950  -21.9320 C   0  0  0  0  0  0  0  0  0  0  0  0
   -8.3000    2.8910  -22.9150 N   0  0  0  0  0  0  0  0  0  0  0  0
   -7.8040    2.1630  -23.9530 C   0  0  0  0  0  0  0  0  0  0  0  0
   -6.6080    1.9690  -24.0910 O   0  0  0  0  0  0  0  0  0  0  0  0
   -8.8160    1.5670  -24.9320 C   0  0  0  0  0  0  0  0  0  0  0  0
   -9.4510    0.4080  -24.3380 N   0  0  0  0  0  0  0  0  0  0  0  0
   -8.6610   -0.8120  -24.1880 C   0  0  0  0  0  0  0  0  0  0  0  0
   -9.0130   -1.5560  -22.8770 C   0  0  2  0  0  0  0  0  0  0  0  0
   -8.5090   -0.7710  -21.6470 C   0  0  0  0  0  0  0  0  0  0  0  0
   -9.0060    0.2100  -21.1300 O   0  0  0  0  0  0  0  0  0  0  0  0
   -7.3690   -1.3890  -21.1950 N   0  0  0  0  0  0  0  0  0  0  0  0
   -6.5960   -0.8120  -20.1650 C   0  0  0  0  0  0  0  0  0  0  0  0
   -6.9360   -1.0270  -18.8530 C   0  0  0  0  0  0  0  0  0  0  0  0
   -6.2440   -0.5340  -17.7990 N   0  0  0  0  0  0  0  0  0  0  0  0
   -5.1930    0.2050  -18.0700 C   0  0  0  0  0  0  0  0  0  0  0  0
   -4.7470    0.5210  -19.3850 C   0  0  0  0  0  0  0  0  0  0  0  0
   -3.6210    1.3480  -19.6270 C   0  0  0  0  0  0  0  0  0  0  0  0
   -3.2390    1.6490  -20.9060 C   0  0  0  0  0  0  0  0  0  0  0  0
   -3.9710    1.1490  -22.0070 C   0  0  0  0  0  0  0  0  0  0  0  0
   -5.0690    0.3490  -21.8030 C   0  0  0  0  0  0  0  0  0  0  0  0
   -5.4730    0.0070  -20.4810 C   0  0  0  0  0  0  0  0  0  0  0  0
   -5.6480    0.0080  -22.6570 H   0  0  0  0  0  0  0  0  0  0  0  0
   -3.6760    1.4120  -23.0190 H   0  0  0  0  0  0  0  0  0  0  0  0
   -2.3750    2.2850  -21.0820 H   0  0  0  0  0  0  0  0  0  0  0  0
   -3.0870    1.7470  -18.7710 H   0  0  0  0  0  0  0  0  0  0  0  0
   -4.6360    0.6010  -17.2230 H   0  0  0  0  0  0  0  0  0  0  0  0
   -7.8100   -1.6340  -18.6240 H   0  0  0  0  0  0  0  0  0  0  0  0
   -6.9720   -2.5620  -21.9460 C   0  0  0  0  0  0  0  0  0  0  0  0
   -8.2510   -2.9040  -22.7200 C   0  0  2  0  0  0  0  0  0  0  0  0
   -8.0380   -3.7190  -24.0020 C   0  0  0  0  0  0  0  0  0  0  0  0
   -7.6210   -5.0860  -23.7590 N   0  0  0  0  0  0  0  0  0  0  0  0
   -6.3210   -5.4360  -23.4880 C   0  0  0  0  0  0  0  0  0  0  0  0
   -5.2220   -4.6700  -23.9420 C   0  0  0  0  0  0  0  0  0  0  0  0
   -3.9790   -5.0460  -23.7190 N   0  0  0  0  0  0  0  0  0  0  0  0
   -3.7780   -6.1620  -23.0140 C   0  0  0  0  0  0  0  0  0  0  0  0
   -4.8520   -6.9060  -22.5610 C   0  0  0  0  0  0  0  0  0  0  0  0
   -6.1190   -6.5640  -22.8070 N   0  0  0  0  0  0  0  0  0  0  0  0
   -4.6930   -7.8100  -21.9780 H   0  0  0  0  0  0  0  0  0  0  0  0
   -2.7470   -6.4520  -22.8120 H   0  0  0  0  0  0  0  0  0  0  0  0
   -5.3540   -3.7420  -24.5000 H   0  0  0  0  0  0  0  0  0  0  0  0
   -8.2900   -5.7040  -23.3160 H   0  0  0  0  0  0  0  0  0  0  0  0
   -7.2830   -3.2290  -24.6280 H   0  0  0  0  0  0  0  0  0  0  0  0
   -8.9720   -3.7400  -24.5810 H   0  0  0  0  0  0  0  0  0  0  0  0
   -8.8410   -3.5270  -22.0430 H   0  0  0  0  0  0  0  0  0  0  0  0
   -6.6590   -3.3660  -21.2730 H   0  0  0  0  0  0  0  0  0  0  0  0
   -6.1250   -2.3420  -22.6140 H   0  0  0  0  0  0  0  0  0  0  0  0
  -10.5130   -1.6670  -22.7820 C   0  0  0  0  0  0  0  0  0  0  0  0
  -11.0800   -2.5770  -21.8840 C   0  0  0  0  0  0  0  0  0  0  0  0
  -12.4450   -2.6240  -21.7010 C   0  0  0  0  0  0  0  0  0  0  0  0
  -13.0420   -3.7170  -20.4840 Cl  0  0  0  0  0  0  0  0  0  0  0  0
  -13.3030   -1.7910  -22.4210 C   0  0  0  0  0  0  0  0  0  0  0  0
  -12.7450   -0.8650  -23.2840 C   0  0  0  0  0  0  0  0  0  0  0  0
  -11.3620   -0.7620  -23.4290 C   0  0  0  0  0  0  0  0  0  0  0  0
  -10.8160    0.3940  -24.2170 C   0  0  0  0  0  0  0  0  0  0  0  0
  -11.5400    1.2630  -24.6890 O   0  0  0  0  0  0  0  0  0  0  0  0
  -13.3670   -0.1700  -23.8380 H   0  0  0  0  0  0  0  0  0  0  0  0
  -14.3750   -1.8540  -22.2700 H   0  0  0  0  0  0  0  0  0  0  0  0
  -10.4740   -3.2430  -21.2820 H   0  0  0  0  0  0  0  0  0  0  0  0
   -8.8560   -1.4780  -25.0400 H   0  0  0  0  0  0  0  0  0  0  0  0
   -7.5990   -0.5430  -24.1990 H   0  0  0  0  0  0  0  0  0  0  0  0
   -8.2890    1.2920  -25.8520 H   0  0  0  0  0  0  0  0  0  0  0  0
   -9.6080    2.2730  -25.1910 H   0  0  0  0  0  0  0  0  0  0  0  0
   -9.2340    2.6770  -22.5860 H   0  0  0  0  0  0  0  0  0  0  0  0
   -6.8070    2.5600  -21.4700 H   0  0  0  0  0  0  0  0  0  0  0  0
   -6.6290    4.0460  -22.4300 H   0  0  0  0  0  0  0  0  0  0  0  0
   -7.8790    3.9850  -21.1790 H   0  0  0  0  0  0  0  0  0  0  0  0
  1  2  1  0  0  0  0
  1 64  1  0  0  0  0
  1 65  1  0  0  0  0
  1 66  1  0  0  0  0
  2  3  1  0  0  0  0
  2 63  1  0  0  0  0
  3  4  2  0  0  0  0
  3  5  1  0  0  0  0
  5  6  1  0  0  0  0
  5 61  1  0  0  0  0
  5 62  1  0  0  0  0
  6  7  1  0  0  0  0
  6 54  1  0  0  0  0
  7  8  1  0  0  0  0
  7 59  1  0  0  0  0
  7 60  1  0  0  0  0
  8  9  1  1  0  0  0
  8 29  1  0  0  0  0
  8 47  1  0  0  0  0
  9 10  2  0  0  0  0
  9 11  1  0  0  0  0
 11 12  1  0  0  0  0
 11 28  1  0  0  0  0
 12 13  2  0  0  0  0
 12 21  1  0  0  0  0
 13 14  1  0  0  0  0
 13 27  1  0  0  0  0
 14 15  2  0  0  0  0
 15 16  1  0  0  0  0
 15 26  1  0  0  0  0
 16 17  2  0  0  0  0
 16 21  1  0  0  0  0
 17 18  1  0  0  0  0
 17 25  1  0  0  0  0
 18 19  2  0  0  0  0
 18 24  1  0  0  0  0
 19 20  1  0  0  0  0
 19 23  1  0  0  0  0
 20 21  2  0  0  0  0
 20 22  1  0  0  0  0
 28 29  1  0  0  0  0
 28 45  1  0  0  0  0
 28 46  1  0  0  0  0
 29 30  1  0  0  0  0
 29 44  1  1  0  0  0
 30 31  1  0  0  0  0
 30 42  1  0  0  0  0
 30 43  1  0  0  0  0
 31 32  1  0  0  0  0
 31 41  1  0  0  0  0
 32 33  2  0  0  0  0
 32 37  1  0  0  0  0
 33 34  1  0  0  0  0
 33 40  1  0  0  0  0
 34 35  2  0  0  0  0
 35 36  1  0  0  0  0
 35 39  1  0  0  0  0
 36 37  2  0  0  0  0
 36 38  1  0  0  0  0
 47 48  2  0  0  0  0
 47 53  1  0  0  0  0
 48 49  1  0  0  0  0
 48 58  1  0  0  0  0
 49 50  1  0  0  0  0
 49 51  2  0  0  0  0
 51 52  1  0  0  0  0
 51 57  1  0  0  0  0
 52 53  2  0  0  0  0
 52 56  1  0  0  0  0
 53 54  1  0  0  0  0
 54 55  2  0  0  0  0
M  END
>  <MODEL>
       1

$$$$
