tmp_first_model_6_68.pdb
 OpenBabel08272519583D

 65 70  0  0  1  0  0  0  0  0999 V2000
   -5.6760   -3.2290  -21.2690 O   0  0  0  0  0  0  0  0  0  0  0  0
   -6.6170   -2.7390  -21.8720 C   0  0  0  0  0  0  0  0  0  0  0  0
   -7.3350   -1.5080  -21.3060 C   0  0  0  0  0  0  0  0  0  0  0  0
   -6.5780   -0.8290  -20.2010 C   0  0  0  0  0  0  0  0  0  0  0  0
   -6.8840   -1.0780  -18.8920 C   0  0  0  0  0  0  0  0  0  0  0  0
   -6.2180   -0.5840  -17.8130 N   0  0  0  0  0  0  0  0  0  0  0  0
   -5.1970    0.2010  -18.0610 C   0  0  0  0  0  0  0  0  0  0  0  0
   -4.7560    0.5470  -19.3660 C   0  0  0  0  0  0  0  0  0  0  0  0
   -3.6250    1.3760  -19.5880 C   0  0  0  0  0  0  0  0  0  0  0  0
   -3.2420    1.7000  -20.8620 C   0  0  0  0  0  0  0  0  0  0  0  0
   -3.9790    1.2260  -21.9670 C   0  0  0  0  0  0  0  0  0  0  0  0
   -5.0600    0.3980  -21.7800 C   0  0  0  0  0  0  0  0  0  0  0  0
   -5.4750    0.0320  -20.4730 C   0  0  0  0  0  0  0  0  0  0  0  0
   -5.5920    0.0040  -22.6410 H   0  0  0  0  0  0  0  0  0  0  0  0
   -3.6750    1.4900  -22.9770 H   0  0  0  0  0  0  0  0  0  0  0  0
   -2.3690    2.3260  -21.0320 H   0  0  0  0  0  0  0  0  0  0  0  0
   -3.0730    1.7390  -18.7240 H   0  0  0  0  0  0  0  0  0  0  0  0
   -4.6570    0.6040  -17.2020 H   0  0  0  0  0  0  0  0  0  0  0  0
   -7.7310   -1.7230  -18.6530 H   0  0  0  0  0  0  0  0  0  0  0  0
   -8.2970   -1.8720  -20.9190 H   0  0  0  0  0  0  0  0  0  0  0  0
   -7.5730   -0.8110  -22.1130 H   0  0  0  0  0  0  0  0  0  0  0  0
   -7.1380   -3.2780  -23.0430 N   0  0  0  0  0  0  0  0  0  0  0  0
   -7.8210   -2.4640  -24.0520 C   0  0  0  0  0  0  0  0  0  0  0  0
   -9.2880   -2.1410  -23.7870 C   0  0  0  0  0  0  0  0  0  0  0  0
   -9.8760   -1.0270  -24.3940 C   0  0  0  0  0  0  0  0  0  0  0  0
  -11.2040   -0.7010  -24.1360 C   0  0  0  0  0  0  0  0  0  0  0  0
  -11.9630   -1.4540  -23.2490 C   0  0  0  0  0  0  0  0  0  0  0  0
  -11.3620   -2.5290  -22.6120 C   0  0  0  0  0  0  0  0  0  0  0  0
  -12.2500   -3.3580  -21.3700 Cl  0  0  0  0  0  0  0  0  0  0  0  0
  -10.0570   -2.9080  -22.9090 C   0  0  0  0  0  0  0  0  0  0  0  0
   -9.6340   -3.7810  -22.4270 H   0  0  0  0  0  0  0  0  0  0  0  0
  -13.0000   -1.2090  -23.0370 H   0  0  0  0  0  0  0  0  0  0  0  0
  -11.6440    0.1760  -24.6040 H   0  0  0  0  0  0  0  0  0  0  0  0
   -9.2890   -0.3840  -25.0530 H   0  0  0  0  0  0  0  0  0  0  0  0
   -7.7250   -2.9680  -25.0180 H   0  0  0  0  0  0  0  0  0  0  0  0
   -7.2670   -1.5250  -24.1810 H   0  0  0  0  0  0  0  0  0  0  0  0
   -6.7950   -4.6660  -23.3650 C   0  0  2  0  0  0  0  0  0  0  0  0
   -7.7040   -5.3380  -24.4190 C   0  0  0  0  0  0  0  0  0  0  0  0
   -7.4910   -6.8540  -24.1930 C   0  0  0  0  0  0  0  0  0  0  0  0
   -6.4690   -6.8670  -23.0620 C   0  0  2  0  0  0  0  0  0  0  0  0
   -6.8890   -5.6790  -22.2100 C   0  0  0  0  0  0  0  0  0  0  0  0
   -6.2150   -5.4430  -21.3850 H   0  0  0  0  0  0  0  0  0  0  0  0
   -7.9150   -5.7600  -21.8320 H   0  0  0  0  0  0  0  0  0  0  0  0
   -5.1300   -6.4030  -23.6890 N   0  3  2  0  0  0  0  0  0  0  0  0
   -3.9320   -6.7550  -22.8510 C   0  0  0  0  0  0  0  0  0  0  0  0
   -3.1020   -7.9410  -23.3530 C   0  0  0  0  0  0  0  0  0  0  0  0
   -3.8080   -9.0520  -24.1330 C   0  0  0  0  0  0  0  0  0  0  0  0
   -3.4900   -8.4210  -25.3820 O   0  0  0  0  0  0  0  0  0  0  0  0
   -2.4350   -7.6950  -24.7180 C   0  0  0  0  0  0  0  0  0  0  0  0
   -2.4150   -6.6500  -25.0510 H   0  0  0  0  0  0  0  0  0  0  0  0
   -1.4380   -8.1710  -24.8260 H   0  0  0  0  0  0  0  0  0  0  0  0
   -3.2420   -9.9870  -24.0040 H   0  0  0  0  0  0  0  0  0  0  0  0
   -4.8870   -9.2170  -24.0270 H   0  0  0  0  0  0  0  0  0  0  0  0
   -2.4650   -8.2820  -22.5360 H   0  0  0  0  0  0  0  0  0  0  0  0
   -3.2730   -5.8770  -22.8240 H   0  0  0  0  0  0  0  0  0  0  0  0
   -4.2740   -6.9240  -21.8250 H   0  0  0  0  0  0  0  0  0  0  0  0
   -5.3510   -4.8930  -23.8630 C   0  0  0  0  0  0  0  0  0  0  0  0
   -4.6360   -4.3530  -23.2440 H   0  0  0  0  0  0  0  0  0  0  0  0
   -5.2000   -4.6270  -24.9130 H   0  0  0  0  0  0  0  0  0  0  0  0
   -5.0100   -6.8430  -24.6150 H   0  0  0  0  0  0  0  0  0  0  0  0
   -6.3240   -7.8150  -22.5460 H   0  0  0  0  0  0  0  0  0  0  0  0
   -8.4200   -7.3510  -23.8950 H   0  0  0  0  0  0  0  0  0  0  0  0
   -7.0860   -7.3730  -25.0690 H   0  0  0  0  0  0  0  0  0  0  0  0
   -7.4300   -5.0380  -25.4340 H   0  0  0  0  0  0  0  0  0  0  0  0
   -8.7410   -5.0470  -24.2360 H   0  0  0  0  0  0  0  0  0  0  0  0
  1  2  2  0  0  0  0
  2  3  1  0  0  0  0
  2 22  1  0  0  0  0
  3  4  1  0  0  0  0
  3 20  1  0  0  0  0
  3 21  1  0  0  0  0
  4  5  2  0  0  0  0
  4 13  1  0  0  0  0
  5  6  1  0  0  0  0
  5 19  1  0  0  0  0
  6  7  2  0  0  0  0
  7  8  1  0  0  0  0
  7 18  1  0  0  0  0
  8  9  2  0  0  0  0
  8 13  1  0  0  0  0
  9 10  1  0  0  0  0
  9 17  1  0  0  0  0
 10 11  2  0  0  0  0
 10 16  1  0  0  0  0
 11 12  1  0  0  0  0
 11 15  1  0  0  0  0
 12 13  2  0  0  0  0
 12 14  1  0  0  0  0
 22 23  1  0  0  0  0
 23 24  1  0  0  0  0
 23 35  1  0  0  0  0
 23 36  1  0  0  0  0
 24 25  2  0  0  0  0
 24 30  1  0  0  0  0
 25 26  1  0  0  0  0
 25 34  1  0  0  0  0
 26 27  2  0  0  0  0
 26 33  1  0  0  0  0
 27 28  1  0  0  0  0
 27 32  1  0  0  0  0
 28 29  1  0  0  0  0
 28 30  2  0  0  0  0
 30 31  1  0  0  0  0
 37 22  1  1  0  0  0
 37 38  1  0  0  0  0
 37 41  1  0  0  0  0
 37 57  1  0  0  0  0
 38 39  1  0  0  0  0
 38 64  1  0  0  0  0
 38 65  1  0  0  0  0
 39 40  1  0  0  0  0
 39 62  1  0  0  0  0
 39 63  1  0  0  0  0
 40 41  1  0  0  0  0
 40 44  1  0  0  0  0
 40 61  1  1  0  0  0
 41 42  1  0  0  0  0
 41 43  1  0  0  0  0
 44 45  1  0  0  0  0
 44 57  1  0  0  0  0
 44 60  1  6  0  0  0
 45 46  1  0  0  0  0
 45 55  1  0  0  0  0
 45 56  1  0  0  0  0
 46 47  1  0  0  0  0
 46 49  1  0  0  0  0
 46 54  1  0  0  0  0
 47 48  1  0  0  0  0
 47 52  1  0  0  0  0
 47 53  1  0  0  0  0
 48 49  1  0  0  0  0
 49 50  1  0  0  0  0
 49 51  1  0  0  0  0
 57 58  1  0  0  0  0
 57 59  1  0  0  0  0
M  CHG  1  44   1
M  END
>  <MODEL>
       1

$$$$
