tmp_first_model_2_71.pdb
 OpenBabel08272517383D

 50 54  0  0  1  0  0  0  0  0999 V2000
  -10.4400   -1.1480  -23.2700 C   0  0  0  0  0  0  0  0  0  0  0  0
   -8.9940   -1.4870  -22.9290 C   0  0  1  0  0  0  0  0  0  0  0  0
   -8.3620   -0.5380  -21.9030 C   0  0  0  0  0  0  0  0  0  0  0  0
   -7.3700   -1.3660  -21.2350 N   0  0  0  0  0  0  0  0  0  0  0  0
   -6.5740   -0.8650  -20.1830 C   0  0  0  0  0  0  0  0  0  0  0  0
   -6.8980   -1.1050  -18.8720 C   0  0  0  0  0  0  0  0  0  0  0  0
   -6.2360   -0.5690  -17.8160 N   0  0  0  0  0  0  0  0  0  0  0  0
   -5.2110    0.2070  -18.0790 C   0  0  0  0  0  0  0  0  0  0  0  0
   -4.7560    0.5100  -19.3960 C   0  0  0  0  0  0  0  0  0  0  0  0
   -3.6320    1.3390  -19.6320 C   0  0  0  0  0  0  0  0  0  0  0  0
   -3.2260    1.6050  -20.9100 C   0  0  0  0  0  0  0  0  0  0  0  0
   -3.9230    1.0620  -22.0120 C   0  0  0  0  0  0  0  0  0  0  0  0
   -5.0180    0.2570  -21.8120 C   0  0  0  0  0  0  0  0  0  0  0  0
   -5.4580   -0.0330  -20.4920 C   0  0  0  0  0  0  0  0  0  0  0  0
   -5.5480   -0.1660  -22.6600 H   0  0  0  0  0  0  0  0  0  0  0  0
   -3.5960    1.2920  -23.0210 H   0  0  0  0  0  0  0  0  0  0  0  0
   -2.3690    2.2470  -21.0880 H   0  0  0  0  0  0  0  0  0  0  0  0
   -3.1170    1.7600  -18.7730 H   0  0  0  0  0  0  0  0  0  0  0  0
   -4.6760    0.6440  -17.2320 H   0  0  0  0  0  0  0  0  0  0  0  0
   -7.7350   -1.7530  -18.6210 H   0  0  0  0  0  0  0  0  0  0  0  0
   -7.6060   -2.7150  -21.3720 C   0  0  0  0  0  0  0  0  0  0  0  0
   -6.9600   -3.5860  -20.8190 O   0  0  0  0  0  0  0  0  0  0  0  0
   -8.8040   -2.9110  -22.3100 C   0  0  1  0  0  0  0  0  0  0  0  0
  -10.0060   -3.3460  -21.4530 C   0  0  0  0  0  0  0  0  0  0  0  0
  -11.1460   -3.7620  -22.2430 N   0  0  0  0  0  0  0  0  0  0  0  0
  -12.5070   -3.5980  -21.7770 C   0  0  0  0  0  0  0  0  0  0  0  0
  -13.3710   -2.7500  -22.6220 C   0  0  0  0  0  0  0  0  0  0  0  0
  -14.1240   -2.1340  -23.2470 N   0  0  0  0  0  0  0  0  0  0  0  0
  -12.5080   -3.1920  -20.7660 H   0  0  0  0  0  0  0  0  0  0  0  0
  -12.9990   -4.5720  -21.7730 H   0  0  0  0  0  0  0  0  0  0  0  0
  -11.0160   -4.4900  -23.3900 C   0  0  0  0  0  0  0  0  0  0  0  0
  -12.0150   -4.8460  -23.9970 O   0  0  0  0  0  0  0  0  0  0  0  0
   -9.6150   -4.7430  -23.8500 C   0  0  0  0  0  0  0  0  0  0  0  0
   -9.3670   -5.7520  -24.7790 C   0  0  0  0  0  0  0  0  0  0  0  0
   -8.1090   -5.9210  -25.3210 C   0  0  0  0  0  0  0  0  0  0  0  0
   -7.1050   -5.0700  -24.8830 C   0  0  0  0  0  0  0  0  0  0  0  0
   -5.8960   -5.1830  -25.4430 F   0  0  0  0  0  0  0  0  0  0  0  0
   -7.2930   -4.1120  -23.9100 C   0  0  0  0  0  0  0  0  0  0  0  0
   -8.5620   -3.9620  -23.3580 C   0  0  0  0  0  0  0  0  0  0  0  0
   -6.4600   -3.5100  -23.5630 H   0  0  0  0  0  0  0  0  0  0  0  0
   -7.8860   -6.6920  -26.0500 H   0  0  0  0  0  0  0  0  0  0  0  0
  -10.1810   -6.4050  -25.0620 H   0  0  0  0  0  0  0  0  0  0  0  0
   -9.6860   -4.1460  -20.7850 H   0  0  0  0  0  0  0  0  0  0  0  0
  -10.3110   -2.4880  -20.8550 H   0  0  0  0  0  0  0  0  0  0  0  0
   -9.1160   -0.1790  -21.1860 H   0  0  0  0  0  0  0  0  0  0  0  0
   -7.8940    0.3350  -22.3660 H   0  0  0  0  0  0  0  0  0  0  0  0
   -8.3880   -1.4670  -23.8450 H   0  0  0  0  0  0  0  0  0  0  0  0
  -10.5240   -0.1730  -23.7510 H   0  0  0  0  0  0  0  0  0  0  0  0
  -11.0370   -1.1380  -22.3530 H   0  0  0  0  0  0  0  0  0  0  0  0
  -10.8650   -1.9140  -23.9250 H   0  0  0  0  0  0  0  0  0  0  0  0
  1  2  1  0  0  0  0
  1 48  1  0  0  0  0
  1 49  1  0  0  0  0
  1 50  1  0  0  0  0
  2  3  1  0  0  0  0
  2 23  1  0  0  0  0
  2 47  1  6  0  0  0
  3  4  1  0  0  0  0
  3 45  1  0  0  0  0
  3 46  1  0  0  0  0
  4  5  1  0  0  0  0
  4 21  1  0  0  0  0
  5  6  2  0  0  0  0
  5 14  1  0  0  0  0
  6  7  1  0  0  0  0
  6 20  1  0  0  0  0
  7  8  2  0  0  0  0
  8  9  1  0  0  0  0
  8 19  1  0  0  0  0
  9 10  2  0  0  0  0
  9 14  1  0  0  0  0
 10 11  1  0  0  0  0
 10 18  1  0  0  0  0
 11 12  2  0  0  0  0
 11 17  1  0  0  0  0
 12 13  1  0  0  0  0
 12 16  1  0  0  0  0
 13 14  2  0  0  0  0
 13 15  1  0  0  0  0
 21 22  2  0  0  0  0
 23 21  1  1  0  0  0
 23 24  1  0  0  0  0
 23 39  1  0  0  0  0
 24 25  1  0  0  0  0
 24 43  1  0  0  0  0
 24 44  1  0  0  0  0
 25 26  1  0  0  0  0
 25 31  1  0  0  0  0
 26 27  1  0  0  0  0
 26 29  1  0  0  0  0
 26 30  1  0  0  0  0
 27 28  3  0  0  0  0
 31 32  2  0  0  0  0
 31 33  1  0  0  0  0
 33 34  2  0  0  0  0
 33 39  1  0  0  0  0
 34 35  1  0  0  0  0
 34 42  1  0  0  0  0
 35 36  2  0  0  0  0
 35 41  1  0  0  0  0
 36 37  1  0  0  0  0
 36 38  1  0  0  0  0
 38 39  2  0  0  0  0
 38 40  1  0  0  0  0
M  END
>  <MODEL>
       1

$$$$
