tmp_first_model_20_76.pdb
 OpenBabel08282503553D

 66 71  0  0  1  0  0  0  0  0999 V2000
   -8.0380   -3.5930  -23.9970 C   0  0  0  0  0  0  0  0  0  0  0  0
   -8.3890   -2.7650  -22.7640 C   0  0  1  0  0  0  0  0  0  0  0  0
   -7.1880   -2.5920  -21.8230 C   0  0  0  0  0  0  0  0  0  0  0  0
   -7.4560   -1.3290  -21.1720 N   0  0  0  0  0  0  0  0  0  0  0  0
   -6.6250   -0.7910  -20.1620 C   0  0  0  0  0  0  0  0  0  0  0  0
   -6.9270   -1.0360  -18.8500 C   0  0  0  0  0  0  0  0  0  0  0  0
   -6.2230   -0.5560  -17.7970 N   0  0  0  0  0  0  0  0  0  0  0  0
   -5.1810    0.1920  -18.0750 C   0  0  0  0  0  0  0  0  0  0  0  0
   -4.7560    0.5180  -19.3950 C   0  0  0  0  0  0  0  0  0  0  0  0
   -3.6310    1.3500  -19.6300 C   0  0  0  0  0  0  0  0  0  0  0  0
   -3.2380    1.6380  -20.9090 C   0  0  0  0  0  0  0  0  0  0  0  0
   -3.9410    1.1010  -22.0100 C   0  0  0  0  0  0  0  0  0  0  0  0
   -5.0390    0.2990  -21.8110 C   0  0  0  0  0  0  0  0  0  0  0  0
   -5.4840    0.0020  -20.4870 C   0  0  0  0  0  0  0  0  0  0  0  0
   -5.5770   -0.0940  -22.6700 H   0  0  0  0  0  0  0  0  0  0  0  0
   -3.6140    1.3350  -23.0190 H   0  0  0  0  0  0  0  0  0  0  0  0
   -2.3810    2.2800  -21.0860 H   0  0  0  0  0  0  0  0  0  0  0  0
   -3.0960    1.7450  -18.7730 H   0  0  0  0  0  0  0  0  0  0  0  0
   -4.6160    0.5880  -17.2320 H   0  0  0  0  0  0  0  0  0  0  0  0
   -7.7940   -1.6500  -18.6170 H   0  0  0  0  0  0  0  0  0  0  0  0
   -8.3670   -0.5340  -21.8250 C   0  0  0  0  0  0  0  0  0  0  0  0
   -8.6410    0.6050  -21.4860 O   0  0  0  0  0  0  0  0  0  0  0  0
   -8.9360   -1.3230  -23.0240 C   0  0  1  0  0  0  0  0  0  0  0  0
   -8.3750   -0.7600  -24.3600 C   0  0  0  0  0  0  0  0  0  0  0  0
   -8.9750    0.4970  -24.7600 N   0  0  0  0  0  0  0  0  0  0  0  0
   -8.1370    1.5240  -25.3580 C   0  0  0  0  0  0  0  0  0  0  0  0
   -7.5410    2.3970  -24.2760 C   0  0  0  0  0  0  0  0  0  0  0  0
   -8.5490    3.2680  -23.6070 N   0  3  0  0  0  0  0  0  0  0  0  0
   -9.1530    4.3280  -24.4930 C   0  0  0  0  0  0  0  0  0  0  0  0
   -9.5220    5.5180  -23.6370 C   0  0  0  0  0  0  0  0  0  0  0  0
   -8.3690    6.1820  -23.1530 O   0  0  0  0  0  0  0  0  0  0  0  0
   -7.3570    5.2830  -22.7130 C   0  0  0  0  0  0  0  0  0  0  0  0
   -7.9070    3.8980  -22.4010 C   0  0  0  0  0  0  0  0  0  0  0  0
   -7.1420    3.1910  -22.0810 H   0  0  0  0  0  0  0  0  0  0  0  0
   -8.6310    3.9940  -21.5990 H   0  0  0  0  0  0  0  0  0  0  0  0
   -6.9210    5.7290  -21.8160 H   0  0  0  0  0  0  0  0  0  0  0  0
   -6.5690    5.2160  -23.4740 H   0  0  0  0  0  0  0  0  0  0  0  0
  -10.1040    6.2400  -24.2040 H   0  0  0  0  0  0  0  0  0  0  0  0
  -10.1460    5.1740  -22.8020 H   0  0  0  0  0  0  0  0  0  0  0  0
  -10.0090    3.8910  -25.0050 H   0  0  0  0  0  0  0  0  0  0  0  0
   -8.4080    4.6380  -25.2260 H   0  0  0  0  0  0  0  0  0  0  0  0
   -9.3240    2.6960  -23.2420 H   0  0  0  0  0  0  0  0  0  0  0  0
   -7.1230    1.7480  -23.5020 H   0  0  0  0  0  0  0  0  0  0  0  0
   -6.7250    3.0160  -24.6580 H   0  0  0  0  0  0  0  0  0  0  0  0
   -8.7430    2.1080  -26.0510 H   0  0  0  0  0  0  0  0  0  0  0  0
   -7.3330    1.0490  -25.9270 H   0  0  0  0  0  0  0  0  0  0  0  0
  -10.2990    0.7510  -24.6090 C   0  0  0  0  0  0  0  0  0  0  0  0
  -10.8290    1.7720  -25.0450 O   0  0  0  0  0  0  0  0  0  0  0  0
  -11.0880   -0.2420  -23.8200 C   0  0  0  0  0  0  0  0  0  0  0  0
  -12.4780   -0.1250  -23.8270 C   0  0  0  0  0  0  0  0  0  0  0  0
  -13.2560   -0.9250  -23.0130 C   0  0  0  0  0  0  0  0  0  0  0  0
  -12.6120   -1.8330  -22.1700 C   0  0  0  0  0  0  0  0  0  0  0  0
  -13.5570   -2.8250  -21.0960 Cl  0  0  0  0  0  0  0  0  0  0  0  0
  -11.2360   -1.9630  -22.1600 C   0  0  0  0  0  0  0  0  0  0  0  0
  -10.4480   -1.2050  -23.0330 C   0  0  0  0  0  0  0  0  0  0  0  0
  -10.7900   -2.6470  -21.4460 H   0  0  0  0  0  0  0  0  0  0  0  0
  -14.3380   -0.8290  -23.0050 H   0  0  0  0  0  0  0  0  0  0  0  0
  -12.9270    0.6190  -24.4750 H   0  0  0  0  0  0  0  0  0  0  0  0
   -7.2910   -0.6210  -24.2630 H   0  0  0  0  0  0  0  0  0  0  0  0
   -8.5470   -1.4990  -25.1530 H   0  0  0  0  0  0  0  0  0  0  0  0
   -7.1130   -3.4030  -21.0910 H   0  0  0  0  0  0  0  0  0  0  0  0
   -6.2390   -2.5740  -22.3830 H   0  0  0  0  0  0  0  0  0  0  0  0
   -9.1550   -3.3110  -22.2110 H   0  0  0  0  0  0  0  0  0  0  0  0
   -7.7270   -4.5990  -23.6980 H   0  0  0  0  0  0  0  0  0  0  0  0
   -8.8960   -3.6810  -24.6730 H   0  0  0  0  0  0  0  0  0  0  0  0
   -7.2080   -3.1400  -24.5550 H   0  0  0  0  0  0  0  0  0  0  0  0
  1  2  1  0  0  0  0
  1 64  1  0  0  0  0
  1 65  1  0  0  0  0
  1 66  1  0  0  0  0
  2  3  1  0  0  0  0
  2 23  1  0  0  0  0
  2 63  1  1  0  0  0
  3  4  1  0  0  0  0
  3 61  1  0  0  0  0
  3 62  1  0  0  0  0
  4  5  1  0  0  0  0
  4 21  1  0  0  0  0
  5  6  2  0  0  0  0
  5 14  1  0  0  0  0
  6  7  1  0  0  0  0
  6 20  1  0  0  0  0
  7  8  2  0  0  0  0
  8  9  1  0  0  0  0
  8 19  1  0  0  0  0
  9 10  2  0  0  0  0
  9 14  1  0  0  0  0
 10 11  1  0  0  0  0
 10 18  1  0  0  0  0
 11 12  2  0  0  0  0
 11 17  1  0  0  0  0
 12 13  1  0  0  0  0
 12 16  1  0  0  0  0
 13 14  2  0  0  0  0
 13 15  1  0  0  0  0
 21 22  2  0  0  0  0
 23 21  1  1  0  0  0
 23 24  1  0  0  0  0
 23 55  1  0  0  0  0
 24 25  1  0  0  0  0
 24 59  1  0  0  0  0
 24 60  1  0  0  0  0
 25 26  1  0  0  0  0
 25 47  1  0  0  0  0
 26 27  1  0  0  0  0
 26 45  1  0  0  0  0
 26 46  1  0  0  0  0
 27 28  1  0  0  0  0
 27 43  1  0  0  0  0
 27 44  1  0  0  0  0
 28 29  1  0  0  0  0
 28 33  1  0  0  0  0
 28 42  1  0  0  0  0
 29 30  1  0  0  0  0
 29 40  1  0  0  0  0
 29 41  1  0  0  0  0
 30 31  1  0  0  0  0
 30 38  1  0  0  0  0
 30 39  1  0  0  0  0
 31 32  1  0  0  0  0
 32 33  1  0  0  0  0
 32 36  1  0  0  0  0
 32 37  1  0  0  0  0
 33 34  1  0  0  0  0
 33 35  1  0  0  0  0
 47 48  2  0  0  0  0
 47 49  1  0  0  0  0
 49 50  2  0  0  0  0
 49 55  1  0  0  0  0
 50 51  1  0  0  0  0
 50 58  1  0  0  0  0
 51 52  2  0  0  0  0
 51 57  1  0  0  0  0
 52 53  1  0  0  0  0
 52 54  1  0  0  0  0
 54 55  2  0  0  0  0
 54 56  1  0  0  0  0
M  CHG  1  28   1
M  END
>  <MODEL>
       1

$$$$
