tmp_first_model_12_57.pdb
 OpenBabel08272523333D

 59 63  0  0  1  0  0  0  0  0999 V2000
  -14.5340   -1.0180  -23.0760 C   0  0  0  0  0  0  0  0  0  0  0  0
  -13.6030   -2.0690  -22.7220 N   0  0  0  0  0  0  0  0  0  0  0  0
  -13.4090   -2.5570  -21.4640 C   0  0  0  0  0  0  0  0  0  0  0  0
  -13.9760   -2.1450  -20.4600 O   0  0  0  0  0  0  0  0  0  0  0  0
  -12.4800   -3.7890  -21.4460 C   0  0  0  0  0  0  0  0  0  0  0  0
  -11.1770   -3.7150  -22.1150 N   0  0  0  0  0  0  0  0  0  0  0  0
   -9.9880   -3.2480  -21.3950 C   0  0  0  0  0  0  0  0  0  0  0  0
   -8.7930   -2.8960  -22.3280 C   0  0  2  0  0  0  0  0  0  0  0  0
   -7.5440   -2.6120  -21.4580 C   0  0  0  0  0  0  0  0  0  0  0  0
   -6.7450   -3.4020  -20.9950 O   0  0  0  0  0  0  0  0  0  0  0  0
   -7.4130   -1.2480  -21.2800 N   0  0  0  0  0  0  0  0  0  0  0  0
   -6.6480   -0.7320  -20.2050 C   0  0  0  0  0  0  0  0  0  0  0  0
   -6.9180   -1.0850  -18.9040 C   0  0  0  0  0  0  0  0  0  0  0  0
   -6.2360   -0.6070  -17.8340 N   0  0  0  0  0  0  0  0  0  0  0  0
   -5.2300    0.2010  -18.0660 C   0  0  0  0  0  0  0  0  0  0  0  0
   -4.8150    0.6070  -19.3660 C   0  0  0  0  0  0  0  0  0  0  0  0
   -3.6880    1.4440  -19.5760 C   0  0  0  0  0  0  0  0  0  0  0  0
   -3.3540    1.8440  -20.8400 C   0  0  0  0  0  0  0  0  0  0  0  0
   -4.1470    1.4600  -21.9470 C   0  0  0  0  0  0  0  0  0  0  0  0
   -5.2400    0.6460  -21.7680 C   0  0  0  0  0  0  0  0  0  0  0  0
   -5.5760    0.1750  -20.4720 C   0  0  0  0  0  0  0  0  0  0  0  0
   -5.8450    0.3380  -22.6150 H   0  0  0  0  0  0  0  0  0  0  0  0
   -3.8710    1.7800  -22.9470 H   0  0  0  0  0  0  0  0  0  0  0  0
   -2.4720    2.4580  -21.0070 H   0  0  0  0  0  0  0  0  0  0  0  0
   -3.1100    1.7530  -18.7090 H   0  0  0  0  0  0  0  0  0  0  0  0
   -4.6880    0.5880  -17.2030 H   0  0  0  0  0  0  0  0  0  0  0  0
   -7.7150   -1.7890  -18.6700 H   0  0  0  0  0  0  0  0  0  0  0  0
   -8.4570   -0.4960  -21.9470 C   0  0  0  0  0  0  0  0  0  0  0  0
   -9.0090   -1.4640  -23.0240 C   0  0  0  0  0  0  0  0  0  0  0  0
  -10.4580   -1.0810  -23.3440 C   0  0  0  0  0  0  0  0  0  0  0  0
  -11.0880   -1.0570  -22.4510 H   0  0  0  0  0  0  0  0  0  0  0  0
  -10.8950   -1.7740  -24.0680 H   0  0  0  0  0  0  0  0  0  0  0  0
  -10.4930   -0.0810  -23.7860 H   0  0  0  0  0  0  0  0  0  0  0  0
   -8.2060   -1.3850  -24.3300 C   0  0  0  0  0  0  0  0  0  0  0  0
   -8.6060   -2.1050  -25.0520 H   0  0  0  0  0  0  0  0  0  0  0  0
   -8.2860   -0.3880  -24.7740 H   0  0  0  0  0  0  0  0  0  0  0  0
   -7.1500   -1.6270  -24.1750 H   0  0  0  0  0  0  0  0  0  0  0  0
   -8.0790    0.4450  -22.3600 H   0  0  0  0  0  0  0  0  0  0  0  0
   -9.2500   -0.2120  -21.2390 H   0  0  0  0  0  0  0  0  0  0  0  0
   -8.5710   -4.0790  -23.2520 C   0  0  0  0  0  0  0  0  0  0  0  0
   -7.2960   -4.4470  -23.7210 C   0  0  0  0  0  0  0  0  0  0  0  0
   -7.1750   -5.4660  -24.6520 C   0  0  0  0  0  0  0  0  0  0  0  0
   -5.5980   -5.9100  -25.2510 Cl  0  0  0  0  0  0  0  0  0  0  0  0
   -8.2910   -6.1650  -25.1150 C   0  0  0  0  0  0  0  0  0  0  0  0
   -9.5430   -5.8110  -24.6450 C   0  0  0  0  0  0  0  0  0  0  0  0
   -9.6870   -4.7770  -23.7240 C   0  0  0  0  0  0  0  0  0  0  0  0
  -11.0660   -4.4420  -23.2730 C   0  0  0  0  0  0  0  0  0  0  0  0
  -12.0500   -4.7960  -23.9110 O   0  0  0  0  0  0  0  0  0  0  0  0
  -10.4390   -6.3230  -24.9790 H   0  0  0  0  0  0  0  0  0  0  0  0
   -8.1710   -6.9720  -25.8300 H   0  0  0  0  0  0  0  0  0  0  0  0
   -6.4050   -3.9570  -23.3390 H   0  0  0  0  0  0  0  0  0  0  0  0
  -10.2410   -2.3420  -20.8440 H   0  0  0  0  0  0  0  0  0  0  0  0
   -9.6410   -3.9890  -20.6640 H   0  0  0  0  0  0  0  0  0  0  0  0
  -12.3730   -4.1360  -20.4190 H   0  0  0  0  0  0  0  0  0  0  0  0
  -13.0560   -4.5370  -22.0090 H   0  0  0  0  0  0  0  0  0  0  0  0
  -13.3110   -2.6780  -23.4760 H   0  0  0  0  0  0  0  0  0  0  0  0
  -14.0250   -0.0600  -23.1980 H   0  0  0  0  0  0  0  0  0  0  0  0
  -14.9860   -1.2740  -24.0330 H   0  0  0  0  0  0  0  0  0  0  0  0
  -15.3150   -0.9100  -22.3230 H   0  0  0  0  0  0  0  0  0  0  0  0
  1  2  1  0  0  0  0
  1 57  1  0  0  0  0
  1 58  1  0  0  0  0
  1 59  1  0  0  0  0
  2  3  1  0  0  0  0
  2 56  1  0  0  0  0
  3  4  2  0  0  0  0
  3  5  1  0  0  0  0
  5  6  1  0  0  0  0
  5 54  1  0  0  0  0
  5 55  1  0  0  0  0
  6  7  1  0  0  0  0
  6 47  1  0  0  0  0
  7  8  1  0  0  0  0
  7 52  1  0  0  0  0
  7 53  1  0  0  0  0
  8  9  1  1  0  0  0
  8 29  1  0  0  0  0
  8 40  1  0  0  0  0
  9 10  2  0  0  0  0
  9 11  1  0  0  0  0
 11 12  1  0  0  0  0
 11 28  1  0  0  0  0
 12 13  2  0  0  0  0
 12 21  1  0  0  0  0
 13 14  1  0  0  0  0
 13 27  1  0  0  0  0
 14 15  2  0  0  0  0
 15 16  1  0  0  0  0
 15 26  1  0  0  0  0
 16 17  2  0  0  0  0
 16 21  1  0  0  0  0
 17 18  1  0  0  0  0
 17 25  1  0  0  0  0
 18 19  2  0  0  0  0
 18 24  1  0  0  0  0
 19 20  1  0  0  0  0
 19 23  1  0  0  0  0
 20 21  2  0  0  0  0
 20 22  1  0  0  0  0
 28 29  1  0  0  0  0
 28 38  1  0  0  0  0
 28 39  1  0  0  0  0
 29 30  1  0  0  0  0
 29 34  1  0  0  0  0
 30 31  1  0  0  0  0
 30 32  1  0  0  0  0
 30 33  1  0  0  0  0
 34 35  1  0  0  0  0
 34 36  1  0  0  0  0
 34 37  1  0  0  0  0
 40 41  2  0  0  0  0
 40 46  1  0  0  0  0
 41 42  1  0  0  0  0
 41 51  1  0  0  0  0
 42 43  1  0  0  0  0
 42 44  2  0  0  0  0
 44 45  1  0  0  0  0
 44 50  1  0  0  0  0
 45 46  2  0  0  0  0
 45 49  1  0  0  0  0
 46 47  1  0  0  0  0
 47 48  2  0  0  0  0
M  END
>  <MODEL>
       1

$$$$
