tmp_first_model_9_66.pdb
 OpenBabel08272521403D

 44 47  0  0  1  0  0  0  0  0999 V2000
   -7.8630   -0.6310  -24.9370 C   0  0  0  0  0  0  0  0  0  0  0  0
   -8.3880   -2.0410  -25.1100 C   0  0  0  0  0  0  0  0  0  0  0  0
   -8.3380   -2.8840  -23.8290 C   0  0  1  0  0  0  0  0  0  0  0  0
   -8.8950   -4.2630  -24.0850 C   0  0  0  0  0  0  0  0  0  0  0  0
  -10.2760   -4.5720  -24.2950 C   0  0  0  0  0  0  0  0  0  0  0  0
  -10.4770   -5.8940  -24.5540 C   0  0  0  0  0  0  0  0  0  0  0  0
   -8.9970   -6.7820  -24.5510 S   0  0  0  0  0  0  0  0  0  0  0  0
   -8.0880   -5.3550  -24.1810 C   0  0  0  0  0  0  0  0  0  0  0  0
   -6.6070   -5.3360  -23.9390 C   0  0  0  0  0  0  0  0  0  0  0  0
   -6.0940   -3.8950  -23.9610 C   0  0  0  0  0  0  0  0  0  0  0  0
   -6.9910   -2.9810  -23.2490 N   0  0  0  0  0  0  0  0  0  0  0  0
   -6.6850   -2.6710  -21.9320 C   0  0  0  0  0  0  0  0  0  0  0  0
   -5.8390   -3.2890  -21.3110 O   0  0  0  0  0  0  0  0  0  0  0  0
   -7.4050   -1.4670  -21.2750 C   0  0  0  0  0  0  0  0  0  0  0  0
   -6.5810   -0.8270  -20.1800 C   0  0  0  0  0  0  0  0  0  0  0  0
   -6.8720   -1.0460  -18.8580 C   0  0  0  0  0  0  0  0  0  0  0  0
   -6.1830   -0.5410  -17.8000 N   0  0  0  0  0  0  0  0  0  0  0  0
   -5.1550    0.2260  -18.0640 C   0  0  0  0  0  0  0  0  0  0  0  0
   -4.7200    0.5340  -19.3830 C   0  0  0  0  0  0  0  0  0  0  0  0
   -3.5910    1.3600  -19.6220 C   0  0  0  0  0  0  0  0  0  0  0  0
   -3.1930    1.6390  -20.9020 C   0  0  0  0  0  0  0  0  0  0  0  0
   -3.9100    1.1000  -21.9920 C   0  0  0  0  0  0  0  0  0  0  0  0
   -5.0040    0.2960  -21.7850 C   0  0  0  0  0  0  0  0  0  0  0  0
   -5.4470   -0.0070  -20.4700 C   0  0  0  0  0  0  0  0  0  0  0  0
   -5.5320   -0.1130  -22.6410 H   0  0  0  0  0  0  0  0  0  0  0  0
   -3.5860    1.3190  -23.0050 H   0  0  0  0  0  0  0  0  0  0  0  0
   -2.3330    2.2760  -21.0890 H   0  0  0  0  0  0  0  0  0  0  0  0
   -3.0550    1.7760  -18.7720 H   0  0  0  0  0  0  0  0  0  0  0  0
   -4.6000    0.6300  -17.2160 H   0  0  0  0  0  0  0  0  0  0  0  0
   -7.7200   -1.6710  -18.5850 H   0  0  0  0  0  0  0  0  0  0  0  0
   -7.6870   -0.7150  -22.0250 H   0  0  0  0  0  0  0  0  0  0  0  0
   -8.3430   -1.8360  -20.8400 H   0  0  0  0  0  0  0  0  0  0  0  0
   -6.0010   -3.5640  -25.0010 H   0  0  0  0  0  0  0  0  0  0  0  0
   -5.0980   -3.8280  -23.5200 H   0  0  0  0  0  0  0  0  0  0  0  0
   -6.3970   -5.7710  -22.9550 H   0  0  0  0  0  0  0  0  0  0  0  0
   -6.0680   -5.9550  -24.6680 H   0  0  0  0  0  0  0  0  0  0  0  0
  -11.4150   -6.4010  -24.7300 H   0  0  0  0  0  0  0  0  0  0  0  0
  -11.0780   -3.8380  -24.2530 H   0  0  0  0  0  0  0  0  0  0  0  0
   -8.9900   -2.4010  -23.0920 H   0  0  0  0  0  0  0  0  0  0  0  0
   -7.8390   -2.5690  -25.8940 H   0  0  0  0  0  0  0  0  0  0  0  0
   -9.4260   -2.0170  -25.4590 H   0  0  0  0  0  0  0  0  0  0  0  0
   -7.9250   -0.0750  -25.8750 H   0  0  0  0  0  0  0  0  0  0  0  0
   -6.8180   -0.6400  -24.6160 H   0  0  0  0  0  0  0  0  0  0  0  0
   -8.4460   -0.0850  -24.1890 H   0  0  0  0  0  0  0  0  0  0  0  0
  1  2  1  0  0  0  0
  1 42  1  0  0  0  0
  1 43  1  0  0  0  0
  1 44  1  0  0  0  0
  2  3  1  0  0  0  0
  2 40  1  0  0  0  0
  2 41  1  0  0  0  0
  3  4  1  0  0  0  0
  3 11  1  0  0  0  0
  3 39  1  1  0  0  0
  4  5  1  0  0  0  0
  4  8  2  0  0  0  0
  5  6  2  0  0  0  0
  5 38  1  0  0  0  0
  6  7  1  0  0  0  0
  6 37  1  0  0  0  0
  7  8  1  0  0  0  0
  8  9  1  0  0  0  0
  9 10  1  0  0  0  0
  9 35  1  0  0  0  0
  9 36  1  0  0  0  0
 10 11  1  0  0  0  0
 10 33  1  0  0  0  0
 10 34  1  0  0  0  0
 11 12  1  0  0  0  0
 12 13  2  0  0  0  0
 12 14  1  0  0  0  0
 14 15  1  0  0  0  0
 14 31  1  0  0  0  0
 14 32  1  0  0  0  0
 15 16  2  0  0  0  0
 15 24  1  0  0  0  0
 16 17  1  0  0  0  0
 16 30  1  0  0  0  0
 17 18  2  0  0  0  0
 18 19  1  0  0  0  0
 18 29  1  0  0  0  0
 19 20  2  0  0  0  0
 19 24  1  0  0  0  0
 20 21  1  0  0  0  0
 20 28  1  0  0  0  0
 21 22  2  0  0  0  0
 21 27  1  0  0  0  0
 22 23  1  0  0  0  0
 22 26  1  0  0  0  0
 23 24  2  0  0  0  0
 23 25  1  0  0  0  0
M  END
>  <MODEL>
       1

$$$$
