tmp_first_model_17_9.pdb
 OpenBabel08282502223D

 41 43  0  0  1  0  0  0  0  0999 V2000
   -9.9970    0.4480  -24.8790 C   0  0  0  0  0  0  0  0  0  0  0  0
  -10.1730    1.6490  -24.0080 C   0  0  1  0  0  0  0  0  0  0  0  0
  -11.4220    1.9390  -23.5810 C   0  0  0  0  0  0  0  0  0  0  0  0
  -11.5860    1.7010  -23.3200 C   0  0  0  0  0  0  0  0  0  0  0  0
   -9.9380    0.5080  -21.4370 C   0  0  0  0  0  0  0  0  0  0  0  0
   -8.7040    0.1870  -21.7660 N   0  0  0  0  0  0  0  0  0  0  0  0
   -8.4080   -1.2130  -21.6770 C   0  0  0  0  0  0  0  0  0  0  0  0
   -9.3010   -2.0330  -21.7730 O   0  0  0  0  0  0  0  0  0  0  0  0
   -6.9690   -1.6250  -21.4280 C   0  0  0  0  0  0  0  0  0  0  0  0
   -6.3160   -0.8740  -20.2930 C   0  0  0  0  0  0  0  0  0  0  0  0
   -6.7460   -1.0790  -19.0050 C   0  0  0  0  0  0  0  0  0  0  0  0
   -6.2000   -0.5100  -17.9000 N   0  0  0  0  0  0  0  0  0  0  0  0
   -5.1830    0.2960  -18.0890 C   0  0  0  0  0  0  0  0  0  0  0  0
   -4.6510    0.6280  -19.3660 C   0  0  0  0  0  0  0  0  0  0  0  0
   -3.5450    1.5030  -19.5210 C   0  0  0  0  0  0  0  0  0  0  0  0
   -3.0980    1.8400  -20.7680 C   0  0  0  0  0  0  0  0  0  0  0  0
   -3.7390    1.3240  -21.9140 C   0  0  0  0  0  0  0  0  0  0  0  0
   -4.7950    0.4540  -21.7900 C   0  0  0  0  0  0  0  0  0  0  0  0
   -5.2630    0.0610  -20.5090 C   0  0  0  0  0  0  0  0  0  0  0  0
   -5.2760    0.0780  -22.6910 H   0  0  0  0  0  0  0  0  0  0  0  0
   -3.3800    1.6020  -22.9000 H   0  0  0  0  0  0  0  0  0  0  0  0
   -2.2500    2.5050  -20.8890 H   0  0  0  0  0  0  0  0  0  0  0  0
   -3.0680    1.8960  -18.6280 H   0  0  0  0  0  0  0  0  0  0  0  0
   -4.7240    0.7370  -17.2030 H   0  0  0  0  0  0  0  0  0  0  0  0
   -7.5780   -1.7560  -18.8110 H   0  0  0  0  0  0  0  0  0  0  0  0
   -6.3900   -1.5350  -22.3500 H   0  0  0  0  0  0  0  0  0  0  0  0
   -7.0320   -2.6950  -21.2030 H   0  0  0  0  0  0  0  0  0  0  0  0
   -8.0050    1.2170  -22.6030 C   0  0  0  0  0  0  0  0  0  0  0  0
   -9.0160    2.2100  -23.2310 C   0  0  0  0  0  0  0  0  0  0  0  0
   -8.3850    2.8370  -23.8920 H   0  0  0  0  0  0  0  0  0  0  0  0
   -9.3190    2.9190  -22.4490 H   0  0  0  0  0  0  0  0  0  0  0  0
   -7.4480    0.6910  -23.3870 H   0  0  0  0  0  0  0  0  0  0  0  0
   -7.2750    1.7520  -21.9830 H   0  0  0  0  0  0  0  0  0  0  0  0
  -10.6310   -0.2960  -21.2650 H   0  0  0  0  0  0  0  0  0  0  0  0
  -10.1290    1.4960  -21.0590 H   0  0  0  0  0  0  0  0  0  0  0  0
  -12.0260    0.7670  -22.7520 H   0  0  0  0  0  0  0  0  0  0  0  0
  -12.3480    2.6560  -23.4040 H   0  0  0  0  0  0  0  0  0  0  0  0
  -10.4940    2.4510  -24.6090 H   0  0  0  0  0  0  0  0  0  0  0  0
   -9.0130    0.4690  -25.3960 H   0  0  0  0  0  0  0  0  0  0  0  0
  -10.7170    0.3410  -25.7190 H   0  0  0  0  0  0  0  0  0  0  0  0
   -9.9780   -0.5350  -24.3560 H   0  0  0  0  0  0  0  0  0  0  0  0
  1  2  1  0  0  0  0
  1 39  1  0  0  0  0
  1 40  1  0  0  0  0
  1 41  1  0  0  0  0
  2  3  1  0  0  0  0
  2 29  1  0  0  0  0
  2 38  1  6  0  0  0
  3  4  2  3  0  0  0
  3 37  1  0  0  0  0
  4  5  1  0  0  0  0
  4 36  1  0  0  0  0
  5  6  1  0  0  0  0
  5 34  1  0  0  0  0
  5 35  1  0  0  0  0
  6  7  1  0  0  0  0
  6 28  1  0  0  0  0
  7  8  2  0  0  0  0
  7  9  1  0  0  0  0
  9 10  1  0  0  0  0
  9 26  1  0  0  0  0
  9 27  1  0  0  0  0
 10 11  2  0  0  0  0
 10 19  1  0  0  0  0
 11 12  1  0  0  0  0
 11 25  1  0  0  0  0
 12 13  2  0  0  0  0
 13 14  1  0  0  0  0
 13 24  1  0  0  0  0
 14 15  2  0  0  0  0
 14 19  1  0  0  0  0
 15 16  1  0  0  0  0
 15 23  1  0  0  0  0
 16 17  2  0  0  0  0
 16 22  1  0  0  0  0
 17 18  1  0  0  0  0
 17 21  1  0  0  0  0
 18 19  2  0  0  0  0
 18 20  1  0  0  0  0
 28 29  1  0  0  0  0
 28 32  1  0  0  0  0
 28 33  1  0  0  0  0
 29 30  1  0  0  0  0
 29 31  1  0  0  0  0
M  END
>  <MODEL>
       1

$$$$
