tmp_first_model_11_43.pdb
 OpenBabel08272522543D

 67 72  0  0  1  0  0  0  0  0999 V2000
   -7.3680    3.3940  -21.8140 C   0  0  0  0  0  0  0  0  0  0  0  0
   -8.2520    2.9560  -22.8770 N   0  0  0  0  0  0  0  0  0  0  0  0
   -7.6990    2.2430  -23.8920 C   0  0  0  0  0  0  0  0  0  0  0  0
   -6.4890    2.0950  -24.0010 O   0  0  0  0  0  0  0  0  0  0  0  0
   -8.6560    1.6330  -24.9100 C   0  0  0  0  0  0  0  0  0  0  0  0
   -9.3570    0.4820  -24.3870 N   0  0  0  0  0  0  0  0  0  0  0  0
   -8.6270   -0.7600  -24.2240 C   0  0  0  0  0  0  0  0  0  0  0  0
   -9.0220   -1.4910  -22.9220 C   0  0  2  0  0  0  0  0  0  0  0  0
   -8.4920   -0.7210  -21.6910 C   0  0  0  0  0  0  0  0  0  0  0  0
   -8.9430    0.2990  -21.2120 O   0  0  0  0  0  0  0  0  0  0  0  0
   -7.3920   -1.3860  -21.2010 N   0  0  0  0  0  0  0  0  0  0  0  0
   -6.5970   -0.8180  -20.1740 C   0  0  0  0  0  0  0  0  0  0  0  0
   -6.9190   -1.0440  -18.8610 C   0  0  0  0  0  0  0  0  0  0  0  0
   -6.2260   -0.5460  -17.8080 N   0  0  0  0  0  0  0  0  0  0  0  0
   -5.1840    0.2040  -18.0780 C   0  0  0  0  0  0  0  0  0  0  0  0
   -4.7390    0.5190  -19.3940 C   0  0  0  0  0  0  0  0  0  0  0  0
   -3.6130    1.3510  -19.6380 C   0  0  0  0  0  0  0  0  0  0  0  0
   -3.2250    1.6450  -20.9170 C   0  0  0  0  0  0  0  0  0  0  0  0
   -3.9470    1.1280  -22.0170 C   0  0  0  0  0  0  0  0  0  0  0  0
   -5.0420    0.3230  -21.8090 C   0  0  0  0  0  0  0  0  0  0  0  0
   -5.4650   -0.0040  -20.4890 C   0  0  0  0  0  0  0  0  0  0  0  0
   -5.6030   -0.0480  -22.6640 H   0  0  0  0  0  0  0  0  0  0  0  0
   -3.6520    1.3810  -23.0310 H   0  0  0  0  0  0  0  0  0  0  0  0
   -2.3690    2.2930  -21.0920 H   0  0  0  0  0  0  0  0  0  0  0  0
   -3.0840    1.7610  -18.7820 H   0  0  0  0  0  0  0  0  0  0  0  0
   -4.6230    0.6030  -17.2320 H   0  0  0  0  0  0  0  0  0  0  0  0
   -7.7840   -1.6600  -18.6190 H   0  0  0  0  0  0  0  0  0  0  0  0
   -7.0380   -2.5830  -21.9300 C   0  0  0  0  0  0  0  0  0  0  0  0
   -8.2880   -2.8570  -22.7830 C   0  0  2  0  0  0  0  0  0  0  0  0
   -7.9340   -3.6290  -24.0630 C   0  0  0  0  0  0  0  0  0  0  0  0
   -7.3980   -4.9260  -23.7300 N   0  0  0  0  0  0  0  0  0  0  0  0
   -6.0880   -5.3140  -23.8250 C   0  0  0  0  0  0  0  0  0  0  0  0
   -4.8380   -4.3420  -24.5520 S   0  0  0  0  0  0  0  0  0  0  0  0
   -3.7330   -5.6590  -24.2740 C   0  0  0  0  0  0  0  0  0  0  0  0
   -4.2290   -6.6830  -23.6670 N   0  0  0  0  0  0  0  0  0  0  0  0
   -5.5740   -6.5070  -23.4100 C   0  0  0  0  0  0  0  0  0  0  0  0
   -6.3560   -7.6190  -22.7710 C   0  0  0  0  0  0  0  0  0  0  0  0
   -7.0810   -8.0650  -23.4650 H   0  0  0  0  0  0  0  0  0  0  0  0
   -6.9060   -7.3260  -21.8670 H   0  0  0  0  0  0  0  0  0  0  0  0
   -5.6500   -8.4000  -22.4880 H   0  0  0  0  0  0  0  0  0  0  0  0
   -2.6890   -5.5610  -24.5430 H   0  0  0  0  0  0  0  0  0  0  0  0
   -8.0600   -5.6550  -23.5100 H   0  0  0  0  0  0  0  0  0  0  0  0
   -8.8200   -3.7560  -24.7000 H   0  0  0  0  0  0  0  0  0  0  0  0
   -7.1860   -3.0760  -24.6390 H   0  0  0  0  0  0  0  0  0  0  0  0
   -8.9490   -3.5060  -22.2080 H   0  0  0  0  0  0  0  0  0  0  0  0
   -6.1500   -2.4230  -22.5600 H   0  0  0  0  0  0  0  0  0  0  0  0
   -6.8070   -3.4060  -21.2460 H   0  0  0  0  0  0  0  0  0  0  0  0
  -10.5390   -1.5470  -22.8610 C   0  0  0  0  0  0  0  0  0  0  0  0
  -11.1800   -2.4350  -21.9910 C   0  0  0  0  0  0  0  0  0  0  0  0
  -12.5620   -2.4460  -21.9120 C   0  0  0  0  0  0  0  0  0  0  0  0
  -13.3390   -3.5350  -20.7970 Cl  0  0  0  0  0  0  0  0  0  0  0  0
  -13.3500   -1.5900  -22.6830 C   0  0  0  0  0  0  0  0  0  0  0  0
  -12.7240   -0.6720  -23.5010 C   0  0  0  0  0  0  0  0  0  0  0  0
  -11.3330   -0.6250  -23.5570 C   0  0  0  0  0  0  0  0  0  0  0  0
  -10.7200    0.5140  -24.3060 C   0  0  0  0  0  0  0  0  0  0  0  0
  -11.4000    1.4170  -24.7770 O   0  0  0  0  0  0  0  0  0  0  0  0
  -13.2790    0.0610  -24.0820 H   0  0  0  0  0  0  0  0  0  0  0  0
  -14.4300   -1.6340  -22.5950 H   0  0  0  0  0  0  0  0  0  0  0  0
  -10.6100   -3.1010  -21.3510 H   0  0  0  0  0  0  0  0  0  0  0  0
   -7.5580   -0.5220  -24.2180 H   0  0  0  0  0  0  0  0  0  0  0  0
   -8.8410   -1.4220  -25.0730 H   0  0  0  0  0  0  0  0  0  0  0  0
   -8.0390    1.3530  -25.7710 H   0  0  0  0  0  0  0  0  0  0  0  0
   -9.4310    2.3450  -25.2020 H   0  0  0  0  0  0  0  0  0  0  0  0
   -9.2250    2.8210  -22.6530 H   0  0  0  0  0  0  0  0  0  0  0  0
   -6.7660    2.5520  -21.4560 H   0  0  0  0  0  0  0  0  0  0  0  0
   -6.6800    4.1530  -22.1880 H   0  0  0  0  0  0  0  0  0  0  0  0
   -7.9460    3.8120  -20.9910 H   0  0  0  0  0  0  0  0  0  0  0  0
  1  2  1  0  0  0  0
  1 65  1  0  0  0  0
  1 66  1  0  0  0  0
  1 67  1  0  0  0  0
  2  3  1  0  0  0  0
  2 64  1  0  0  0  0
  3  4  2  0  0  0  0
  3  5  1  0  0  0  0
  5  6  1  0  0  0  0
  5 62  1  0  0  0  0
  5 63  1  0  0  0  0
  6  7  1  0  0  0  0
  6 55  1  0  0  0  0
  7  8  1  0  0  0  0
  7 60  1  0  0  0  0
  7 61  1  0  0  0  0
  8  9  1  1  0  0  0
  8 29  1  0  0  0  0
  8 48  1  0  0  0  0
  9 10  2  0  0  0  0
  9 11  1  0  0  0  0
 11 12  1  0  0  0  0
 11 28  1  0  0  0  0
 12 13  2  0  0  0  0
 12 21  1  0  0  0  0
 13 14  1  0  0  0  0
 13 27  1  0  0  0  0
 14 15  2  0  0  0  0
 15 16  1  0  0  0  0
 15 26  1  0  0  0  0
 16 17  2  0  0  0  0
 16 21  1  0  0  0  0
 17 18  1  0  0  0  0
 17 25  1  0  0  0  0
 18 19  2  0  0  0  0
 18 24  1  0  0  0  0
 19 20  1  0  0  0  0
 19 23  1  0  0  0  0
 20 21  2  0  0  0  0
 20 22  1  0  0  0  0
 28 29  1  0  0  0  0
 28 46  1  0  0  0  0
 28 47  1  0  0  0  0
 29 30  1  0  0  0  0
 29 45  1  1  0  0  0
 30 31  1  0  0  0  0
 30 43  1  0  0  0  0
 30 44  1  0  0  0  0
 31 32  1  0  0  0  0
 31 42  1  0  0  0  0
 32 33  1  0  0  0  0
 32 36  2  0  0  0  0
 33 34  1  0  0  0  0
 34 35  2  0  0  0  0
 34 41  1  0  0  0  0
 35 36  1  0  0  0  0
 36 37  1  0  0  0  0
 37 38  1  0  0  0  0
 37 39  1  0  0  0  0
 37 40  1  0  0  0  0
 48 49  2  0  0  0  0
 48 54  1  0  0  0  0
 49 50  1  0  0  0  0
 49 59  1  0  0  0  0
 50 51  1  0  0  0  0
 50 52  2  0  0  0  0
 52 53  1  0  0  0  0
 52 58  1  0  0  0  0
 53 54  2  0  0  0  0
 53 57  1  0  0  0  0
 54 55  1  0  0  0  0
 55 56  2  0  0  0  0
M  END
>  <MODEL>
       1

$$$$
