tmp_first_model_8_34.pdb
 OpenBabel08272521063D

 66 70  0  0  1  0  0  0  0  0999 V2000
   -7.3980    3.3720  -21.7910 C   0  0  0  0  0  0  0  0  0  0  0  0
   -8.3410    2.9370  -22.8040 N   0  0  0  0  0  0  0  0  0  0  0  0
   -7.8210    2.2340  -23.8470 C   0  0  0  0  0  0  0  0  0  0  0  0
   -6.6120    2.0730  -23.9760 O   0  0  0  0  0  0  0  0  0  0  0  0
   -8.8100    1.6480  -24.8480 C   0  0  0  0  0  0  0  0  0  0  0  0
   -9.4590    0.4690  -24.3170 N   0  0  0  0  0  0  0  0  0  0  0  0
   -8.6950   -0.7550  -24.1580 C   0  0  0  0  0  0  0  0  0  0  0  0
   -9.0650   -1.5150  -22.8630 C   0  0  2  0  0  0  0  0  0  0  0  0
   -8.5480   -0.7490  -21.6260 C   0  0  0  0  0  0  0  0  0  0  0  0
   -9.0250    0.2410  -21.1150 O   0  0  0  0  0  0  0  0  0  0  0  0
   -7.4100   -1.3800  -21.1790 N   0  0  0  0  0  0  0  0  0  0  0  0
   -6.6110   -0.8060  -20.1650 C   0  0  0  0  0  0  0  0  0  0  0  0
   -6.9230   -1.0470  -18.8540 C   0  0  0  0  0  0  0  0  0  0  0  0
   -6.2180   -0.5660  -17.8030 N   0  0  0  0  0  0  0  0  0  0  0  0
   -5.1860    0.1980  -18.0690 C   0  0  0  0  0  0  0  0  0  0  0  0
   -4.7550    0.5300  -19.3850 C   0  0  0  0  0  0  0  0  0  0  0  0
   -3.6330    1.3650  -19.6270 C   0  0  0  0  0  0  0  0  0  0  0  0
   -3.2640    1.6850  -20.9040 C   0  0  0  0  0  0  0  0  0  0  0  0
   -4.0050    1.1940  -22.0040 C   0  0  0  0  0  0  0  0  0  0  0  0
   -5.0790    0.3620  -21.8000 C   0  0  0  0  0  0  0  0  0  0  0  0
   -5.4840    0.0100  -20.4820 C   0  0  0  0  0  0  0  0  0  0  0  0
   -5.6360   -0.0020  -22.6580 H   0  0  0  0  0  0  0  0  0  0  0  0
   -3.7080    1.4540  -23.0150 H   0  0  0  0  0  0  0  0  0  0  0  0
   -2.4000    2.3160  -21.0860 H   0  0  0  0  0  0  0  0  0  0  0  0
   -3.0870    1.7550  -18.7720 H   0  0  0  0  0  0  0  0  0  0  0  0
   -4.6180    0.5890  -17.2220 H   0  0  0  0  0  0  0  0  0  0  0  0
   -7.7890   -1.6600  -18.6160 H   0  0  0  0  0  0  0  0  0  0  0  0
   -7.0360   -2.5520  -21.9370 C   0  0  0  0  0  0  0  0  0  0  0  0
   -8.2960   -2.8650  -22.7520 C   0  0  2  0  0  0  0  0  0  0  0  0
   -7.9550   -3.6020  -24.0490 C   0  0  0  0  0  0  0  0  0  0  0  0
   -9.1040   -3.9740  -24.7700 O   0  0  0  0  0  0  0  0  0  0  0  0
   -9.6080   -5.2820  -24.5020 C   0  0  0  0  0  0  0  0  0  0  0  0
  -11.0960   -5.2040  -24.7700 C   0  0  0  0  0  0  0  0  0  0  0  0
  -11.6390   -6.0920  -24.4520 H   0  0  0  0  0  0  0  0  0  0  0  0
  -11.5310   -4.3240  -24.2880 H   0  0  0  0  0  0  0  0  0  0  0  0
  -11.2100   -5.1580  -25.8580 H   0  0  0  0  0  0  0  0  0  0  0  0
   -8.9870   -6.2970  -25.4610 C   0  0  0  0  0  0  0  0  0  0  0  0
   -9.4490   -7.2810  -25.3200 H   0  0  0  0  0  0  0  0  0  0  0  0
   -7.9050   -6.4150  -25.3480 H   0  0  0  0  0  0  0  0  0  0  0  0
   -9.1930   -5.9570  -26.4830 H   0  0  0  0  0  0  0  0  0  0  0  0
   -9.4000   -5.5560  -23.4540 H   0  0  0  0  0  0  0  0  0  0  0  0
   -7.3360   -4.4860  -23.8240 H   0  0  0  0  0  0  0  0  0  0  0  0
   -7.3690   -2.9520  -24.7120 H   0  0  0  0  0  0  0  0  0  0  0  0
   -8.9290   -3.5300  -22.1610 H   0  0  0  0  0  0  0  0  0  0  0  0
   -6.1730   -2.3580  -22.5940 H   0  0  0  0  0  0  0  0  0  0  0  0
   -6.7610   -3.3710  -21.2660 H   0  0  0  0  0  0  0  0  0  0  0  0
  -10.5730   -1.6190  -22.8110 C   0  0  0  0  0  0  0  0  0  0  0  0
  -11.1940   -2.5420  -21.9660 C   0  0  0  0  0  0  0  0  0  0  0  0
  -12.5730   -2.5680  -21.8680 C   0  0  0  0  0  0  0  0  0  0  0  0
  -13.3180   -3.6540  -20.7360 Cl  0  0  0  0  0  0  0  0  0  0  0  0
  -13.3920   -1.7210  -22.6160 C   0  0  0  0  0  0  0  0  0  0  0  0
  -12.7810   -0.7770  -23.4110 C   0  0  0  0  0  0  0  0  0  0  0  0
  -11.3930   -0.6940  -23.4710 C   0  0  0  0  0  0  0  0  0  0  0  0
  -10.8150    0.4900  -24.1710 C   0  0  0  0  0  0  0  0  0  0  0  0
  -11.5020    1.4280  -24.5510 O   0  0  0  0  0  0  0  0  0  0  0  0
  -13.3540   -0.0500  -23.9720 H   0  0  0  0  0  0  0  0  0  0  0  0
  -14.4720   -1.7820  -22.5230 H   0  0  0  0  0  0  0  0  0  0  0  0
  -10.6080   -3.2070  -21.3410 H   0  0  0  0  0  0  0  0  0  0  0  0
   -8.8860   -1.4240  -25.0040 H   0  0  0  0  0  0  0  0  0  0  0  0
   -7.6320   -0.5030  -24.1600 H   0  0  0  0  0  0  0  0  0  0  0  0
   -9.6040    2.3540  -25.1160 H   0  0  0  0  0  0  0  0  0  0  0  0
   -8.2240    1.3950  -25.7350 H   0  0  0  0  0  0  0  0  0  0  0  0
   -9.2930    2.7900  -22.4960 H   0  0  0  0  0  0  0  0  0  0  0  0
   -6.7710    2.5320  -21.4740 H   0  0  0  0  0  0  0  0  0  0  0  0
   -6.7450    4.1510  -22.1820 H   0  0  0  0  0  0  0  0  0  0  0  0
   -7.9280    3.7850  -20.9360 H   0  0  0  0  0  0  0  0  0  0  0  0
  1  2  1  0  0  0  0
  1 64  1  0  0  0  0
  1 65  1  0  0  0  0
  1 66  1  0  0  0  0
  2  3  1  0  0  0  0
  2 63  1  0  0  0  0
  3  4  2  0  0  0  0
  3  5  1  0  0  0  0
  5  6  1  0  0  0  0
  5 61  1  0  0  0  0
  5 62  1  0  0  0  0
  6  7  1  0  0  0  0
  6 54  1  0  0  0  0
  7  8  1  0  0  0  0
  7 59  1  0  0  0  0
  7 60  1  0  0  0  0
  8  9  1  1  0  0  0
  8 29  1  0  0  0  0
  8 47  1  0  0  0  0
  9 10  2  0  0  0  0
  9 11  1  0  0  0  0
 11 12  1  0  0  0  0
 11 28  1  0  0  0  0
 12 13  2  0  0  0  0
 12 21  1  0  0  0  0
 13 14  1  0  0  0  0
 13 27  1  0  0  0  0
 14 15  2  0  0  0  0
 15 16  1  0  0  0  0
 15 26  1  0  0  0  0
 16 17  2  0  0  0  0
 16 21  1  0  0  0  0
 17 18  1  0  0  0  0
 17 25  1  0  0  0  0
 18 19  2  0  0  0  0
 18 24  1  0  0  0  0
 19 20  1  0  0  0  0
 19 23  1  0  0  0  0
 20 21  2  0  0  0  0
 20 22  1  0  0  0  0
 28 29  1  0  0  0  0
 28 45  1  0  0  0  0
 28 46  1  0  0  0  0
 29 30  1  0  0  0  0
 29 44  1  1  0  0  0
 30 31  1  0  0  0  0
 30 42  1  0  0  0  0
 30 43  1  0  0  0  0
 31 32  1  0  0  0  0
 32 33  1  0  0  0  0
 32 37  1  0  0  0  0
 32 41  1  0  0  0  0
 33 34  1  0  0  0  0
 33 35  1  0  0  0  0
 33 36  1  0  0  0  0
 37 38  1  0  0  0  0
 37 39  1  0  0  0  0
 37 40  1  0  0  0  0
 47 48  2  0  0  0  0
 47 53  1  0  0  0  0
 48 49  1  0  0  0  0
 48 58  1  0  0  0  0
 49 50  1  0  0  0  0
 49 51  2  0  0  0  0
 51 52  1  0  0  0  0
 51 57  1  0  0  0  0
 52 53  2  0  0  0  0
 52 56  1  0  0  0  0
 53 54  1  0  0  0  0
 54 55  2  0  0  0  0
M  END
>  <MODEL>
       1

$$$$
