tmp_first_model_12_30.pdb
 OpenBabel08272523333D

 58 63  0  0  1  0  0  0  0  0999 V2000
   -7.2720   -3.3790  -23.8820 C   0  0  0  0  0  0  0  0  0  0  0  0
   -8.2400   -2.8740  -22.8050 C   0  0  1  0  0  0  0  0  0  0  0  0
   -7.5590   -2.7630  -21.4230 C   0  0  0  0  0  0  0  0  0  0  0  0
   -7.3470   -1.3410  -21.2480 N   0  0  0  0  0  0  0  0  0  0  0  0
   -6.5980   -0.7840  -20.1930 C   0  0  0  0  0  0  0  0  0  0  0  0
   -6.8930   -1.0810  -18.8870 C   0  0  0  0  0  0  0  0  0  0  0  0
   -6.2170   -0.5920  -17.8200 N   0  0  0  0  0  0  0  0  0  0  0  0
   -5.2030    0.2060  -18.0650 C   0  0  0  0  0  0  0  0  0  0  0  0
   -4.7850    0.5810  -19.3750 C   0  0  0  0  0  0  0  0  0  0  0  0
   -3.6420    1.3910  -19.5910 C   0  0  0  0  0  0  0  0  0  0  0  0
   -3.2800    1.7520  -20.8600 C   0  0  0  0  0  0  0  0  0  0  0  0
   -4.0370    1.3250  -21.9700 C   0  0  0  0  0  0  0  0  0  0  0  0
   -5.1310    0.5190  -21.7890 C   0  0  0  0  0  0  0  0  0  0  0  0
   -5.5210    0.1100  -20.4800 C   0  0  0  0  0  0  0  0  0  0  0  0
   -5.6920    0.1670  -22.6490 H   0  0  0  0  0  0  0  0  0  0  0  0
   -3.7580    1.6680  -22.9620 H   0  0  0  0  0  0  0  0  0  0  0  0
   -2.4010    2.3670  -21.0200 H   0  0  0  0  0  0  0  0  0  0  0  0
   -3.0760    1.7210  -18.7260 H   0  0  0  0  0  0  0  0  0  0  0  0
   -4.6420    0.5820  -17.2100 H   0  0  0  0  0  0  0  0  0  0  0  0
   -7.7360   -1.7300  -18.6570 H   0  0  0  0  0  0  0  0  0  0  0  0
   -8.2120   -0.5680  -21.9940 C   0  0  0  0  0  0  0  0  0  0  0  0
   -8.3980    0.6170  -21.8220 O   0  0  0  0  0  0  0  0  0  0  0  0
   -8.8910   -1.4690  -23.0490 C   0  0  1  0  0  0  0  0  0  0  0  0
   -8.6330   -0.9240  -24.4720 C   0  0  0  0  0  0  0  0  0  0  0  0
   -9.3220    0.3280  -24.7190 N   0  0  0  0  0  0  0  0  0  0  0  0
   -8.6600    1.4100  -25.4270 C   0  0  0  0  0  0  0  0  0  0  0  0
   -8.2170    2.5020  -24.4890 C   0  0  0  0  0  0  0  0  0  0  0  0
   -6.9510    2.5780  -23.9880 C   0  0  0  0  0  0  0  0  0  0  0  0
   -6.5750    3.6280  -23.0690 C   0  0  0  0  0  0  0  0  0  0  0  0
   -5.4770    3.8460  -22.5870 O   0  0  0  0  0  0  0  0  0  0  0  0
   -7.6670    4.4600  -22.7480 N   0  0  0  0  0  0  0  0  0  0  0  0
   -8.8970    4.3240  -23.3050 C   0  0  0  0  0  0  0  0  0  0  0  0
   -9.1980    3.4040  -24.1650 N   0  0  0  0  0  0  0  0  0  0  0  0
   -9.6530    5.0450  -23.0070 H   0  0  0  0  0  0  0  0  0  0  0  0
   -7.4800    5.1790  -22.0600 H   0  0  0  0  0  0  0  0  0  0  0  0
   -6.1870    1.8600  -24.2510 H   0  0  0  0  0  0  0  0  0  0  0  0
   -9.3910    1.8330  -26.1190 H   0  0  0  0  0  0  0  0  0  0  0  0
   -7.8210    0.9930  -25.9960 H   0  0  0  0  0  0  0  0  0  0  0  0
  -10.6650    0.4360  -24.4840 C   0  0  0  0  0  0  0  0  0  0  0  0
  -11.3640    1.2890  -25.0140 O   0  0  0  0  0  0  0  0  0  0  0  0
  -11.2210   -0.5350  -23.4960 C   0  0  0  0  0  0  0  0  0  0  0  0
  -12.5900   -0.4660  -23.2440 C   0  0  0  0  0  0  0  0  0  0  0  0
  -13.1980   -1.3700  -22.3970 C   0  0  0  0  0  0  0  0  0  0  0  0
  -12.3810   -2.3130  -21.7860 C   0  0  0  0  0  0  0  0  0  0  0  0
  -12.9460   -3.2510  -21.0130 F   0  0  0  0  0  0  0  0  0  0  0  0
  -11.0100   -2.3500  -21.9510 C   0  0  0  0  0  0  0  0  0  0  0  0
  -10.4030   -1.4620  -22.8410 C   0  0  0  0  0  0  0  0  0  0  0  0
  -10.4410   -3.0610  -21.3640 H   0  0  0  0  0  0  0  0  0  0  0  0
  -14.2610   -1.3420  -22.1830 H   0  0  0  0  0  0  0  0  0  0  0  0
  -13.1460    0.3130  -23.7490 H   0  0  0  0  0  0  0  0  0  0  0  0
   -8.9870   -1.6830  -25.1820 H   0  0  0  0  0  0  0  0  0  0  0  0
   -7.5640   -0.7720  -24.6340 H   0  0  0  0  0  0  0  0  0  0  0  0
   -6.6010   -3.2930  -21.3750 H   0  0  0  0  0  0  0  0  0  0  0  0
   -8.2110   -3.1620  -20.6340 H   0  0  0  0  0  0  0  0  0  0  0  0
   -9.0360   -3.6220  -22.7690 H   0  0  0  0  0  0  0  0  0  0  0  0
   -6.8920   -4.3660  -23.6000 H   0  0  0  0  0  0  0  0  0  0  0  0
   -6.4150   -2.7120  -24.0210 H   0  0  0  0  0  0  0  0  0  0  0  0
   -7.7820   -3.4960  -24.8430 H   0  0  0  0  0  0  0  0  0  0  0  0
  1  2  1  0  0  0  0
  1 56  1  0  0  0  0
  1 57  1  0  0  0  0
  1 58  1  0  0  0  0
  2  3  1  0  0  0  0
  2 23  1  0  0  0  0
  2 55  1  1  0  0  0
  3  4  1  0  0  0  0
  3 53  1  0  0  0  0
  3 54  1  0  0  0  0
  4  5  1  0  0  0  0
  4 21  1  0  0  0  0
  5  6  2  0  0  0  0
  5 14  1  0  0  0  0
  6  7  1  0  0  0  0
  6 20  1  0  0  0  0
  7  8  2  0  0  0  0
  8  9  1  0  0  0  0
  8 19  1  0  0  0  0
  9 10  2  0  0  0  0
  9 14  1  0  0  0  0
 10 11  1  0  0  0  0
 10 18  1  0  0  0  0
 11 12  2  0  0  0  0
 11 17  1  0  0  0  0
 12 13  1  0  0  0  0
 12 16  1  0  0  0  0
 13 14  2  0  0  0  0
 13 15  1  0  0  0  0
 21 22  2  0  0  0  0
 23 21  1  1  0  0  0
 23 24  1  0  0  0  0
 23 47  1  0  0  0  0
 24 25  1  0  0  0  0
 24 51  1  0  0  0  0
 24 52  1  0  0  0  0
 25 26  1  0  0  0  0
 25 39  1  0  0  0  0
 26 27  1  0  0  0  0
 26 37  1  0  0  0  0
 26 38  1  0  0  0  0
 27 28  2  0  0  0  0
 27 33  1  0  0  0  0
 28 29  1  0  0  0  0
 28 36  1  0  0  0  0
 29 30  2  0  0  0  0
 29 31  1  0  0  0  0
 31 32  1  0  0  0  0
 31 35  1  0  0  0  0
 32 33  2  0  0  0  0
 32 34  1  0  0  0  0
 39 40  2  0  0  0  0
 39 41  1  0  0  0  0
 41 42  2  0  0  0  0
 41 47  1  0  0  0  0
 42 43  1  0  0  0  0
 42 50  1  0  0  0  0
 43 44  2  0  0  0  0
 43 49  1  0  0  0  0
 44 45  1  0  0  0  0
 44 46  1  0  0  0  0
 46 47  2  0  0  0  0
 46 48  1  0  0  0  0
M  END
>  <MODEL>
       1

$$$$
