tmp_first_model_14_86.pdb
 OpenBabel08282500413D

 43 45  0  0  1  0  0  0  0  0999 V2000
   -8.5460   -5.5630  -25.7830 C   0  0  0  0  0  0  0  0  0  0  0  0
   -9.0620   -5.4480  -24.3460 C   0  0  1  0  0  0  0  0  0  0  0  0
   -8.0260   -5.8770  -23.3100 C   0  0  0  0  0  0  0  0  0  0  0  0
   -6.9370   -4.8320  -23.0940 C   0  0  0  0  0  0  0  0  0  0  0  0
   -7.5150   -3.5420  -22.7120 N   0  0  0  0  0  0  0  0  0  0  0  0
   -6.7560   -2.7470  -21.8650 C   0  0  0  0  0  0  0  0  0  0  0  0
   -5.6200   -3.0560  -21.5530 O   0  0  0  0  0  0  0  0  0  0  0  0
   -7.4130   -1.4760  -21.2730 C   0  0  0  0  0  0  0  0  0  0  0  0
   -6.5780   -0.8310  -20.1910 C   0  0  0  0  0  0  0  0  0  0  0  0
   -6.8760   -1.0390  -18.8720 C   0  0  0  0  0  0  0  0  0  0  0  0
   -6.1980   -0.5150  -17.8180 N   0  0  0  0  0  0  0  0  0  0  0  0
   -5.1560    0.2310  -18.0760 C   0  0  0  0  0  0  0  0  0  0  0  0
   -4.7160    0.5310  -19.3880 C   0  0  0  0  0  0  0  0  0  0  0  0
   -3.5880    1.3560  -19.6250 C   0  0  0  0  0  0  0  0  0  0  0  0
   -3.1880    1.6330  -20.9040 C   0  0  0  0  0  0  0  0  0  0  0  0
   -3.9010    1.0890  -21.9940 C   0  0  0  0  0  0  0  0  0  0  0  0
   -4.9970    0.2880  -21.7880 C   0  0  0  0  0  0  0  0  0  0  0  0
   -5.4430   -0.0130  -20.4780 C   0  0  0  0  0  0  0  0  0  0  0  0
   -5.5280   -0.1300  -22.6370 H   0  0  0  0  0  0  0  0  0  0  0  0
   -3.5780    1.3140  -23.0060 H   0  0  0  0  0  0  0  0  0  0  0  0
   -2.3300    2.2740  -21.0870 H   0  0  0  0  0  0  0  0  0  0  0  0
   -3.0580    1.7730  -18.7720 H   0  0  0  0  0  0  0  0  0  0  0  0
   -4.6040    0.6280  -17.2200 H   0  0  0  0  0  0  0  0  0  0  0  0
   -7.7180   -1.6670  -18.5850 H   0  0  0  0  0  0  0  0  0  0  0  0
   -7.6220   -0.7480  -22.0690 H   0  0  0  0  0  0  0  0  0  0  0  0
   -8.3920   -1.7510  -20.8540 H   0  0  0  0  0  0  0  0  0  0  0  0
   -8.5400   -2.9960  -23.6130 C   0  0  1  0  0  0  0  0  0  0  0  0
   -7.9410   -2.2910  -24.8400 C   0  0  0  0  0  0  0  0  0  0  0  0
   -8.7280   -1.9760  -25.5350 H   0  0  0  0  0  0  0  0  0  0  0  0
   -7.2480   -2.9310  -25.3940 H   0  0  0  0  0  0  0  0  0  0  0  0
   -7.3900   -1.3890  -24.5500 H   0  0  0  0  0  0  0  0  0  0  0  0
   -9.5910   -4.0640  -23.9670 C   0  0  0  0  0  0  0  0  0  0  0  0
  -10.2130   -3.6820  -24.7840 H   0  0  0  0  0  0  0  0  0  0  0  0
  -10.2620   -4.1720  -23.1090 H   0  0  0  0  0  0  0  0  0  0  0  0
   -9.0800   -2.2360  -23.0440 H   0  0  0  0  0  0  0  0  0  0  0  0
   -6.3000   -4.7550  -23.9880 H   0  0  0  0  0  0  0  0  0  0  0  0
   -6.2740   -5.1450  -22.2900 H   0  0  0  0  0  0  0  0  0  0  0  0
   -7.5750   -6.8270  -23.6120 H   0  0  0  0  0  0  0  0  0  0  0  0
   -8.5170   -6.0590  -22.3510 H   0  0  0  0  0  0  0  0  0  0  0  0
   -9.9140   -6.1370  -24.2800 H   0  0  0  0  0  0  0  0  0  0  0  0
   -7.6000   -5.0390  -25.9400 H   0  0  0  0  0  0  0  0  0  0  0  0
   -8.3800   -6.6140  -26.0490 H   0  0  0  0  0  0  0  0  0  0  0  0
   -9.2680   -5.1520  -26.4960 H   0  0  0  0  0  0  0  0  0  0  0  0
  1  2  1  0  0  0  0
  1 41  1  0  0  0  0
  1 42  1  0  0  0  0
  1 43  1  0  0  0  0
  2  3  1  0  0  0  0
  2 32  1  0  0  0  0
  2 40  1  1  0  0  0
  3  4  1  0  0  0  0
  3 38  1  0  0  0  0
  3 39  1  0  0  0  0
  4  5  1  0  0  0  0
  4 36  1  0  0  0  0
  4 37  1  0  0  0  0
  5  6  1  0  0  0  0
  5 27  1  0  0  0  0
  6  7  2  0  0  0  0
  6  8  1  0  0  0  0
  8  9  1  0  0  0  0
  8 25  1  0  0  0  0
  8 26  1  0  0  0  0
  9 10  2  0  0  0  0
  9 18  1  0  0  0  0
 10 11  1  0  0  0  0
 10 24  1  0  0  0  0
 11 12  2  0  0  0  0
 12 13  1  0  0  0  0
 12 23  1  0  0  0  0
 13 14  2  0  0  0  0
 13 18  1  0  0  0  0
 14 15  1  0  0  0  0
 14 22  1  0  0  0  0
 15 16  2  0  0  0  0
 15 21  1  0  0  0  0
 16 17  1  0  0  0  0
 16 20  1  0  0  0  0
 17 18  2  0  0  0  0
 17 19  1  0  0  0  0
 27 28  1  0  0  0  0
 27 32  1  0  0  0  0
 27 35  1  1  0  0  0
 28 29  1  0  0  0  0
 28 30  1  0  0  0  0
 28 31  1  0  0  0  0
 32 33  1  0  0  0  0
 32 34  1  0  0  0  0
M  END
>  <MODEL>
       1

$$$$
