tmp_first_model_15_93.pdb
 OpenBabel08282501153D

 62 67  0  0  1  0  0  0  0  0999 V2000
  -11.3180    4.3030  -25.2330 C   0  0  0  0  0  0  0  0  0  0  0  0
   -9.8230    4.1750  -25.5290 C   0  0  0  0  0  0  0  0  0  0  0  0
   -9.0690    3.5940  -24.4250 N   0  0  0  0  0  0  0  0  0  0  0  0
   -8.4900    4.4130  -23.5350 N   0  0  0  0  0  0  0  0  0  0  0  0
   -7.9050    3.6170  -22.6470 C   0  0  0  0  0  0  0  0  0  0  0  0
   -8.1120    2.2650  -22.9740 C   0  0  0  0  0  0  0  0  0  0  0  0
   -8.8920    2.2810  -24.1050 C   0  0  0  0  0  0  0  0  0  0  0  0
   -9.3900    1.1100  -24.9060 C   0  0  0  0  0  0  0  0  0  0  0  0
   -9.8550    0.0020  -24.0820 N   0  0  0  0  0  0  0  0  0  0  0  0
   -9.0430   -1.1970  -23.9780 C   0  0  0  0  0  0  0  0  0  0  0  0
   -9.2260   -1.9130  -22.6140 C   0  0  2  0  0  0  0  0  0  0  0  0
   -8.6640   -1.0310  -21.4690 C   0  0  0  0  0  0  0  0  0  0  0  0
   -9.2280   -0.1060  -20.9130 O   0  0  0  0  0  0  0  0  0  0  0  0
   -7.3770   -1.4360  -21.1920 N   0  0  0  0  0  0  0  0  0  0  0  0
   -6.6010   -0.8240  -20.1700 C   0  0  0  0  0  0  0  0  0  0  0  0
   -6.9070   -1.0480  -18.8480 C   0  0  0  0  0  0  0  0  0  0  0  0
   -6.2010   -0.5480  -17.8050 N   0  0  0  0  0  0  0  0  0  0  0  0
   -5.1650    0.2090  -18.0770 C   0  0  0  0  0  0  0  0  0  0  0  0
   -4.7320    0.5280  -19.3950 C   0  0  0  0  0  0  0  0  0  0  0  0
   -3.6090    1.3630  -19.6370 C   0  0  0  0  0  0  0  0  0  0  0  0
   -3.2280    1.6620  -20.9170 C   0  0  0  0  0  0  0  0  0  0  0  0
   -3.9550    1.1380  -22.0100 C   0  0  0  0  0  0  0  0  0  0  0  0
   -5.0490    0.3260  -21.7990 C   0  0  0  0  0  0  0  0  0  0  0  0
   -5.4650   -0.0040  -20.4830 C   0  0  0  0  0  0  0  0  0  0  0  0
   -5.6020   -0.0620  -22.6490 H   0  0  0  0  0  0  0  0  0  0  0  0
   -3.6550    1.3880  -23.0210 H   0  0  0  0  0  0  0  0  0  0  0  0
   -2.3770    2.3130  -21.1010 H   0  0  0  0  0  0  0  0  0  0  0  0
   -3.0770    1.7750  -18.7840 H   0  0  0  0  0  0  0  0  0  0  0  0
   -4.6180    0.6160  -17.2290 H   0  0  0  0  0  0  0  0  0  0  0  0
   -7.7540   -1.6760  -18.5830 H   0  0  0  0  0  0  0  0  0  0  0  0
   -6.9640   -2.6140  -21.9360 C   0  0  0  0  0  0  0  0  0  0  0  0
   -8.2930   -3.1580  -22.5090 C   0  0  2  0  0  0  0  0  0  0  0  0
   -8.0920   -3.9860  -23.7850 C   0  0  0  0  0  0  0  0  0  0  0  0
   -7.5520   -3.4120  -24.5510 H   0  0  0  0  0  0  0  0  0  0  0  0
   -7.5040   -4.8930  -23.5830 H   0  0  0  0  0  0  0  0  0  0  0  0
   -9.0500   -4.2980  -24.2220 H   0  0  0  0  0  0  0  0  0  0  0  0
   -8.7250   -3.8040  -21.7380 H   0  0  0  0  0  0  0  0  0  0  0  0
   -6.4640   -3.3280  -21.2700 H   0  0  0  0  0  0  0  0  0  0  0  0
   -6.2500   -2.3650  -22.7390 H   0  0  0  0  0  0  0  0  0  0  0  0
  -10.7130   -2.1460  -22.4260 C   0  0  0  0  0  0  0  0  0  0  0  0
  -11.2240   -3.2310  -21.7040 C   0  0  0  0  0  0  0  0  0  0  0  0
  -12.5820   -3.3140  -21.4680 C   0  0  0  0  0  0  0  0  0  0  0  0
  -13.0580   -4.3280  -20.7280 F   0  0  0  0  0  0  0  0  0  0  0  0
  -13.4860   -2.3690  -21.9310 C   0  0  0  0  0  0  0  0  0  0  0  0
  -12.9860   -1.2920  -22.6330 C   0  0  0  0  0  0  0  0  0  0  0  0
  -11.6180   -1.1720  -22.8790 C   0  0  0  0  0  0  0  0  0  0  0  0
  -11.1450    0.0350  -23.6370 C   0  0  0  0  0  0  0  0  0  0  0  0
  -11.8750    0.9940  -23.8580 O   0  0  0  0  0  0  0  0  0  0  0  0
  -13.6430   -0.5140  -22.9980 H   0  0  0  0  0  0  0  0  0  0  0  0
  -14.5410   -2.4970  -21.7160 H   0  0  0  0  0  0  0  0  0  0  0  0
  -10.5950   -3.9920  -21.2570 H   0  0  0  0  0  0  0  0  0  0  0  0
   -9.2990   -1.9030  -24.7870 H   0  0  0  0  0  0  0  0  0  0  0  0
   -7.9960   -0.8980  -24.0890 H   0  0  0  0  0  0  0  0  0  0  0  0
  -10.1980    1.4090  -25.5850 H   0  0  0  0  0  0  0  0  0  0  0  0
   -8.5680    0.7150  -25.5140 H   0  0  0  0  0  0  0  0  0  0  0  0
   -7.7770    1.3720  -22.4700 H   0  0  0  0  0  0  0  0  0  0  0  0
   -7.3630    4.0550  -21.8170 H   0  0  0  0  0  0  0  0  0  0  0  0
   -9.3690    5.1550  -25.7170 H   0  0  0  0  0  0  0  0  0  0  0  0
   -9.6520    3.5490  -26.4120 H   0  0  0  0  0  0  0  0  0  0  0  0
  -11.7700    3.3200  -25.0430 H   0  0  0  0  0  0  0  0  0  0  0  0
  -11.4820    4.9450  -24.3590 H   0  0  0  0  0  0  0  0  0  0  0  0
  -11.8230    4.7620  -26.0910 H   0  0  0  0  0  0  0  0  0  0  0  0
  1  2  1  0  0  0  0
  1 60  1  0  0  0  0
  1 61  1  0  0  0  0
  1 62  1  0  0  0  0
  2  3  1  0  0  0  0
  2 58  1  0  0  0  0
  2 59  1  0  0  0  0
  3  4  1  0  0  0  0
  3  7  1  0  0  0  0
  4  5  2  0  0  0  0
  5  6  1  0  0  0  0
  5 57  1  0  0  0  0
  6  7  2  0  0  0  0
  6 56  1  0  0  0  0
  7  8  1  0  0  0  0
  8  9  1  0  0  0  0
  8 54  1  0  0  0  0
  8 55  1  0  0  0  0
  9 10  1  0  0  0  0
  9 47  1  0  0  0  0
 10 11  1  0  0  0  0
 10 52  1  0  0  0  0
 10 53  1  0  0  0  0
 11 12  1  1  0  0  0
 11 32  1  0  0  0  0
 11 40  1  0  0  0  0
 12 13  2  0  0  0  0
 12 14  1  0  0  0  0
 14 15  1  0  0  0  0
 14 31  1  0  0  0  0
 15 16  2  0  0  0  0
 15 24  1  0  0  0  0
 16 17  1  0  0  0  0
 16 30  1  0  0  0  0
 17 18  2  0  0  0  0
 18 19  1  0  0  0  0
 18 29  1  0  0  0  0
 19 20  2  0  0  0  0
 19 24  1  0  0  0  0
 20 21  1  0  0  0  0
 20 28  1  0  0  0  0
 21 22  2  0  0  0  0
 21 27  1  0  0  0  0
 22 23  1  0  0  0  0
 22 26  1  0  0  0  0
 23 24  2  0  0  0  0
 23 25  1  0  0  0  0
 31 32  1  0  0  0  0
 31 38  1  0  0  0  0
 31 39  1  0  0  0  0
 32 33  1  0  0  0  0
 32 37  1  1  0  0  0
 33 34  1  0  0  0  0
 33 35  1  0  0  0  0
 33 36  1  0  0  0  0
 40 41  2  0  0  0  0
 40 46  1  0  0  0  0
 41 42  1  0  0  0  0
 41 51  1  0  0  0  0
 42 43  1  0  0  0  0
 42 44  2  0  0  0  0
 44 45  1  0  0  0  0
 44 50  1  0  0  0  0
 45 46  2  0  0  0  0
 45 49  1  0  0  0  0
 46 47  1  0  0  0  0
 47 48  2  0  0  0  0
M  END
>  <MODEL>
       1

$$$$
