tmp_first_model_12_69.pdb
 OpenBabel08272523333D

 63 67  0  0  0  0  0  0  0  0999 V2000
  -10.7230   -5.9210  -28.1670 C   0  0  0  0  0  0  0  0  0  0  0  0
  -10.2960   -5.4190  -27.0110 C   0  0  0  0  0  0  0  0  0  0  0  0
   -9.9510   -3.9600  -26.9990 C   0  0  0  0  0  0  0  0  0  0  0  0
   -9.7400   -3.3420  -28.0330 O   0  0  0  0  0  0  0  0  0  0  0  0
   -9.9120   -3.3660  -25.7470 N   0  0  0  0  0  0  0  0  0  0  0  0
  -10.7440   -3.9370  -24.6890 C   0  0  0  0  0  0  0  0  0  0  0  0
  -11.3010   -2.8230  -23.8380 C   0  0  0  0  0  0  0  0  0  0  0  0
  -10.1610   -2.0790  -23.1860 C   0  0  0  0  0  0  0  0  0  0  0  0
   -9.1680   -1.5950  -24.2330 C   0  0  0  0  0  0  0  0  0  0  0  0
   -9.0420   -2.2800  -25.4640 C   0  0  0  0  0  0  0  0  0  0  0  0
   -8.0520   -1.8970  -26.3870 C   0  0  0  0  0  0  0  0  0  0  0  0
   -7.2180   -0.8280  -26.1140 C   0  0  0  0  0  0  0  0  0  0  0  0
   -7.3730   -0.1030  -24.9370 C   0  0  0  0  0  0  0  0  0  0  0  0
   -8.3520   -0.4880  -24.0290 C   0  0  0  0  0  0  0  0  0  0  0  0
   -8.5260    0.4240  -22.7760 N   0  3  0  0  0  0  0  0  0  0  0  0
   -9.6880    1.4480  -22.8950 C   0  0  0  0  0  0  0  0  0  0  0  0
   -9.4220    2.3500  -24.0540 C   0  0  0  0  0  0  0  0  0  0  0  0
  -10.0910    2.1700  -25.2620 C   0  0  0  0  0  0  0  0  0  0  0  0
   -9.8330    3.0060  -26.3400 C   0  0  0  0  0  0  0  0  0  0  0  0
   -8.9080    4.0370  -26.2200 C   0  0  0  0  0  0  0  0  0  0  0  0
   -8.2400    4.2080  -25.0120 C   0  0  0  0  0  0  0  0  0  0  0  0
   -7.0780    5.4970  -24.8500 Cl  0  0  0  0  0  0  0  0  0  0  0  0
   -8.4780    3.3710  -23.9310 C   0  0  0  0  0  0  0  0  0  0  0  0
   -7.9450    3.5190  -22.9920 H   0  0  0  0  0  0  0  0  0  0  0  0
   -8.6940    4.6940  -27.0560 H   0  0  0  0  0  0  0  0  0  0  0  0
  -10.3570    2.8530  -27.2790 H   0  0  0  0  0  0  0  0  0  0  0  0
  -10.8030    1.3510  -25.3500 H   0  0  0  0  0  0  0  0  0  0  0  0
   -9.7280    2.0010  -21.9550 H   0  0  0  0  0  0  0  0  0  0  0  0
  -10.6170    0.8890  -23.0310 H   0  0  0  0  0  0  0  0  0  0  0  0
   -8.5540   -0.2450  -21.5010 C   0  0  0  0  0  0  0  0  0  0  0  0
   -9.4140    0.0280  -20.7040 O   0  0  0  0  0  0  0  0  0  0  0  0
   -7.4670   -1.2720  -21.2390 C   0  0  0  0  0  0  0  0  0  0  0  0
   -6.5760   -0.7650  -20.1430 C   0  0  0  0  0  0  0  0  0  0  0  0
   -6.8620   -1.0440  -18.8340 C   0  0  0  0  0  0  0  0  0  0  0  0
   -6.1800   -0.5540  -17.7670 N   0  0  0  0  0  0  0  0  0  0  0  0
   -5.1620    0.2300  -18.0250 C   0  0  0  0  0  0  0  0  0  0  0  0
   -4.7480    0.6010  -19.3350 C   0  0  0  0  0  0  0  0  0  0  0  0
   -3.6280    1.4400  -19.5650 C   0  0  0  0  0  0  0  0  0  0  0  0
   -3.2980    1.8260  -20.8340 C   0  0  0  0  0  0  0  0  0  0  0  0
   -4.0820    1.4070  -21.9310 C   0  0  0  0  0  0  0  0  0  0  0  0
   -5.1540    0.5650  -21.7370 C   0  0  0  0  0  0  0  0  0  0  0  0
   -5.5050    0.1270  -20.4300 C   0  0  0  0  0  0  0  0  0  0  0  0
   -5.7140    0.2170  -22.6020 H   0  0  0  0  0  0  0  0  0  0  0  0
   -3.8250    1.7380  -22.9330 H   0  0  0  0  0  0  0  0  0  0  0  0
   -2.4420    2.4740  -21.0050 H   0  0  0  0  0  0  0  0  0  0  0  0
   -3.0600    1.7890  -18.7060 H   0  0  0  0  0  0  0  0  0  0  0  0
   -4.6030    0.6110  -17.1690 H   0  0  0  0  0  0  0  0  0  0  0  0
   -7.7100   -1.6840  -18.5930 H   0  0  0  0  0  0  0  0  0  0  0  0
   -6.9200   -1.4870  -22.1570 H   0  0  0  0  0  0  0  0  0  0  0  0
   -7.9820   -2.1850  -20.9210 H   0  0  0  0  0  0  0  0  0  0  0  0
   -7.6540    1.0050  -22.8070 H   0  0  0  0  0  0  0  0  0  0  0  0
   -6.7770    0.7890  -24.7670 H   0  0  0  0  0  0  0  0  0  0  0  0
   -6.4630   -0.5410  -26.8440 H   0  0  0  0  0  0  0  0  0  0  0  0
   -7.9650   -2.4240  -27.3270 H   0  0  0  0  0  0  0  0  0  0  0  0
  -10.5560   -1.2420  -22.6040 H   0  0  0  0  0  0  0  0  0  0  0  0
   -9.6590   -2.7450  -22.4710 H   0  0  0  0  0  0  0  0  0  0  0  0
  -11.8190   -2.1180  -24.4870 H   0  0  0  0  0  0  0  0  0  0  0  0
  -12.0160   -3.2200  -23.1090 H   0  0  0  0  0  0  0  0  0  0  0  0
  -11.5740   -4.4720  -25.1540 H   0  0  0  0  0  0  0  0  0  0  0  0
  -10.1650   -4.6540  -24.0850 H   0  0  0  0  0  0  0  0  0  0  0  0
  -10.1670   -5.9990  -26.0910 H   0  0  0  0  0  0  0  0  0  0  0  0
  -10.7660   -5.2340  -29.0110 H   0  0  0  0  0  0  0  0  0  0  0  0
  -11.0450   -6.9490  -28.3090 H   0  0  0  0  0  0  0  0  0  0  0  0
  1  2  2  0  0  0  0
  1 62  1  0  0  0  0
  1 63  1  0  0  0  0
  2  3  1  0  0  0  0
  2 61  1  0  0  0  0
  3  4  2  0  0  0  0
  3  5  1  0  0  0  0
  5  6  1  0  0  0  0
  5 10  1  0  0  0  0
  6  7  1  0  0  0  0
  6 59  1  0  0  0  0
  6 60  1  0  0  0  0
  7  8  1  0  0  0  0
  7 57  1  0  0  0  0
  7 58  1  0  0  0  0
  8  9  1  0  0  0  0
  8 55  1  0  0  0  0
  8 56  1  0  0  0  0
  9 10  2  0  0  0  0
  9 14  1  0  0  0  0
 10 11  1  0  0  0  0
 11 12  2  0  0  0  0
 11 54  1  0  0  0  0
 12 13  1  0  0  0  0
 12 53  1  0  0  0  0
 13 14  2  0  0  0  0
 13 52  1  0  0  0  0
 14 15  1  0  0  0  0
 15 16  1  0  0  0  0
 15 30  1  0  0  0  0
 15 51  1  0  0  0  0
 16 17  1  0  0  0  0
 16 28  1  0  0  0  0
 16 29  1  0  0  0  0
 17 18  2  0  0  0  0
 17 23  1  0  0  0  0
 18 19  1  0  0  0  0
 18 27  1  0  0  0  0
 19 20  2  0  0  0  0
 19 26  1  0  0  0  0
 20 21  1  0  0  0  0
 20 25  1  0  0  0  0
 21 22  1  0  0  0  0
 21 23  2  0  0  0  0
 23 24  1  0  0  0  0
 30 31  2  0  0  0  0
 30 32  1  0  0  0  0
 32 33  1  0  0  0  0
 32 49  1  0  0  0  0
 32 50  1  0  0  0  0
 33 34  2  0  0  0  0
 33 42  1  0  0  0  0
 34 35  1  0  0  0  0
 34 48  1  0  0  0  0
 35 36  2  0  0  0  0
 36 37  1  0  0  0  0
 36 47  1  0  0  0  0
 37 38  2  0  0  0  0
 37 42  1  0  0  0  0
 38 39  1  0  0  0  0
 38 46  1  0  0  0  0
 39 40  2  0  0  0  0
 39 45  1  0  0  0  0
 40 41  1  0  0  0  0
 40 44  1  0  0  0  0
 41 42  2  0  0  0  0
 41 43  1  0  0  0  0
M  CHG  1  15   1
M  END
>  <MODEL>
       1

$$$$
