tmp_first_model_18_5.pdb
 OpenBabel08282502533D

 58 61  0  0  1  0  0  0  0  0999 V2000
   -5.1410   -3.2850  -22.2820 C   0  0  0  0  0  0  0  0  0  0  0  0
   -6.4500   -3.4000  -22.4640 C   0  0  0  0  0  0  0  0  0  0  0  0
   -7.4290   -2.9170  -21.4310 C   0  0  0  0  0  0  0  0  0  0  0  0
   -7.4440   -1.4600  -21.2820 N   0  0  0  0  0  0  0  0  0  0  0  0
   -8.3160   -0.6040  -21.9650 C   0  0  0  0  0  0  0  0  0  0  0  0
   -8.5790    0.4890  -21.5060 O   0  0  0  0  0  0  0  0  0  0  0  0
   -8.8420   -1.0670  -23.3330 C   0  0  2  0  0  0  0  0  0  0  0  0
   -8.4300   -0.0180  -24.3870 C   0  0  0  0  0  0  0  0  0  0  0  0
   -9.0660   -0.2660  -25.6700 N   0  0  0  0  0  0  0  0  0  0  0  0
   -8.2520   -0.3560  -26.8820 C   0  0  0  0  0  0  0  0  0  0  0  0
   -7.5760   -1.7330  -26.9960 C   0  0  0  0  0  0  0  0  0  0  0  0
   -6.4020   -1.8900  -26.7020 O   0  0  0  0  0  0  0  0  0  0  0  0
   -8.3730   -2.7600  -27.3890 N   0  0  0  0  0  0  0  0  0  0  0  0
   -7.9270   -4.1240  -27.1460 C   0  0  0  0  0  0  0  0  0  0  0  0
   -8.7120   -4.8120  -27.4650 H   0  0  0  0  0  0  0  0  0  0  0  0
   -7.6940   -4.2780  -26.0740 H   0  0  0  0  0  0  0  0  0  0  0  0
   -7.0240   -4.3230  -27.7280 H   0  0  0  0  0  0  0  0  0  0  0  0
   -9.3500   -2.5730  -27.5620 H   0  0  0  0  0  0  0  0  0  0  0  0
   -7.4480    0.3860  -26.8410 H   0  0  0  0  0  0  0  0  0  0  0  0
   -8.9110   -0.1600  -27.7350 H   0  0  0  0  0  0  0  0  0  0  0  0
  -10.3850   -0.6210  -25.7680 C   0  0  0  0  0  0  0  0  0  0  0  0
  -10.9310   -0.7340  -26.8620 O   0  0  0  0  0  0  0  0  0  0  0  0
  -11.0770   -0.9410  -24.4840 C   0  0  0  0  0  0  0  0  0  0  0  0
  -12.4700   -0.9710  -24.4640 C   0  0  0  0  0  0  0  0  0  0  0  0
  -13.1290   -1.5350  -23.3880 C   0  0  0  0  0  0  0  0  0  0  0  0
  -12.3730   -2.0800  -22.3440 C   0  0  0  0  0  0  0  0  0  0  0  0
  -13.2140   -2.8050  -21.0020 Cl  0  0  0  0  0  0  0  0  0  0  0  0
  -10.9820   -2.0190  -22.3360 C   0  0  0  0  0  0  0  0  0  0  0  0
  -10.3380   -1.3230  -23.3640 C   0  0  0  0  0  0  0  0  0  0  0  0
  -10.3910   -2.4650  -21.5350 H   0  0  0  0  0  0  0  0  0  0  0  0
  -14.2170   -1.5710  -23.3620 H   0  0  0  0  0  0  0  0  0  0  0  0
  -13.0210   -0.5800  -25.3180 H   0  0  0  0  0  0  0  0  0  0  0  0
   -7.3440   -0.0820  -24.5400 H   0  0  0  0  0  0  0  0  0  0  0  0
   -8.6900    0.9770  -24.0040 H   0  0  0  0  0  0  0  0  0  0  0  0
   -8.3800   -2.0170  -23.6060 H   0  0  0  0  0  0  0  0  0  0  0  0
   -6.6750   -0.8800  -20.2280 C   0  0  0  0  0  0  0  0  0  0  0  0
   -7.0140   -1.0880  -18.9120 C   0  0  0  0  0  0  0  0  0  0  0  0
   -6.3430   -0.5760  -17.8510 N   0  0  0  0  0  0  0  0  0  0  0  0
   -5.2950    0.1710  -18.1090 C   0  0  0  0  0  0  0  0  0  0  0  0
   -4.8330    0.4760  -19.4210 C   0  0  0  0  0  0  0  0  0  0  0  0
   -3.6970    1.3000  -19.6440 C   0  0  0  0  0  0  0  0  0  0  0  0
   -3.2710    1.5600  -20.9170 C   0  0  0  0  0  0  0  0  0  0  0  0
   -3.9530    1.0060  -22.0220 C   0  0  0  0  0  0  0  0  0  0  0  0
   -5.0550    0.2060  -21.8310 C   0  0  0  0  0  0  0  0  0  0  0  0
   -5.5350   -0.0670  -20.5210 C   0  0  0  0  0  0  0  0  0  0  0  0
   -5.5670   -0.2210  -22.6880 H   0  0  0  0  0  0  0  0  0  0  0  0
   -3.6040    1.2150  -23.0280 H   0  0  0  0  0  0  0  0  0  0  0  0
   -2.4060    2.1960  -21.0850 H   0  0  0  0  0  0  0  0  0  0  0  0
   -3.1850    1.7190  -18.7810 H   0  0  0  0  0  0  0  0  0  0  0  0
   -4.7520    0.5750  -17.2560 H   0  0  0  0  0  0  0  0  0  0  0  0
   -7.8870   -1.6900  -18.6640 H   0  0  0  0  0  0  0  0  0  0  0  0
   -8.4270   -3.2950  -21.6650 H   0  0  0  0  0  0  0  0  0  0  0  0
   -7.1120   -3.3080  -20.4590 H   0  0  0  0  0  0  0  0  0  0  0  0
   -6.9820   -4.0240  -23.7660 C   0  0  0  0  0  0  0  0  0  0  0  0
   -6.1150   -4.4290  -24.5680 O   0  0  0  0  0  0  0  0  0  0  0  0
   -8.2260   -4.0550  -23.9130 O   0  5  0  0  0  0  0  0  0  0  0  0
   -4.4260   -3.6430  -23.0150 H   0  0  0  0  0  0  0  0  0  0  0  0
   -4.7680   -2.7870  -21.3860 H   0  0  0  0  0  0  0  0  0  0  0  0
  1  2  2  0  0  0  0
  1 57  1  0  0  0  0
  1 58  1  0  0  0  0
  2  3  1  0  0  0  0
  2 54  1  0  0  0  0
  3  4  1  0  0  0  0
  3 52  1  0  0  0  0
  3 53  1  0  0  0  0
  4  5  1  0  0  0  0
  4 36  1  0  0  0  0
  5  6  2  0  0  0  0
  5  7  1  0  0  0  0
  7  8  1  0  0  0  0
  7 29  1  0  0  0  0
  7 35  1  6  0  0  0
  8  9  1  0  0  0  0
  8 33  1  0  0  0  0
  8 34  1  0  0  0  0
  9 10  1  0  0  0  0
  9 21  1  0  0  0  0
 10 11  1  0  0  0  0
 10 19  1  0  0  0  0
 10 20  1  0  0  0  0
 11 12  2  0  0  0  0
 11 13  1  0  0  0  0
 13 14  1  0  0  0  0
 13 18  1  0  0  0  0
 14 15  1  0  0  0  0
 14 16  1  0  0  0  0
 14 17  1  0  0  0  0
 21 22  2  0  0  0  0
 21 23  1  0  0  0  0
 23 24  2  0  0  0  0
 23 29  1  0  0  0  0
 24 25  1  0  0  0  0
 24 32  1  0  0  0  0
 25 26  2  0  0  0  0
 25 31  1  0  0  0  0
 26 27  1  0  0  0  0
 26 28  1  0  0  0  0
 28 29  2  0  0  0  0
 28 30  1  0  0  0  0
 36 37  2  0  0  0  0
 36 45  1  0  0  0  0
 37 38  1  0  0  0  0
 37 51  1  0  0  0  0
 38 39  2  0  0  0  0
 39 40  1  0  0  0  0
 39 50  1  0  0  0  0
 40 41  2  0  0  0  0
 40 45  1  0  0  0  0
 41 42  1  0  0  0  0
 41 49  1  0  0  0  0
 42 43  2  0  0  0  0
 42 48  1  0  0  0  0
 43 44  1  0  0  0  0
 43 47  1  0  0  0  0
 44 45  2  0  0  0  0
 44 46  1  0  0  0  0
 54 55  2  0  0  0  0
 54 56  1  0  0  0  0
M  CHG  1  56  -1
M  END
>  <MODEL>
       1

$$$$
