tmp_first_model_19_66.pdb
 OpenBabel08282503233D

 44 47  0  0  1  0  0  0  0  0999 V2000
  -10.3460    2.3310  -24.8870 C   0  0  0  0  0  0  0  0  0  0  0  0
   -9.4660    1.1530  -24.4740 C   0  0  0  0  0  0  0  0  0  0  0  0
  -10.1190    0.2910  -23.3750 C   0  0  1  0  0  0  0  0  0  0  0  0
  -11.4160   -0.3060  -23.8070 C   0  0  0  0  0  0  0  0  0  0  0  0
  -12.7110    0.2880  -23.7480 C   0  0  0  0  0  0  0  0  0  0  0  0
  -13.6560   -0.4430  -24.3940 C   0  0  0  0  0  0  0  0  0  0  0  0
  -12.9760   -1.8680  -25.0820 S   0  0  0  0  0  0  0  0  0  0  0  0
  -11.4120   -1.4870  -24.4740 C   0  0  0  0  0  0  0  0  0  0  0  0
  -10.1410   -2.2400  -24.6810 C   0  0  0  0  0  0  0  0  0  0  0  0
   -9.2050   -2.1090  -23.4730 C   0  0  0  0  0  0  0  0  0  0  0  0
   -9.1930   -0.7470  -22.9170 N   0  0  0  0  0  0  0  0  0  0  0  0
   -8.4060   -0.3710  -21.8580 C   0  0  0  0  0  0  0  0  0  0  0  0
   -8.4740    0.7450  -21.3650 O   0  0  0  0  0  0  0  0  0  0  0  0
   -7.4550   -1.4220  -21.3030 C   0  0  0  0  0  0  0  0  0  0  0  0
   -6.6010   -0.8460  -20.2220 C   0  0  0  0  0  0  0  0  0  0  0  0
   -6.9250   -1.0640  -18.9110 C   0  0  0  0  0  0  0  0  0  0  0  0
   -6.2510   -0.5740  -17.8420 N   0  0  0  0  0  0  0  0  0  0  0  0
   -5.2140    0.1870  -18.0980 C   0  0  0  0  0  0  0  0  0  0  0  0
   -4.7670    0.5080  -19.4080 C   0  0  0  0  0  0  0  0  0  0  0  0
   -3.6320    1.3240  -19.6360 C   0  0  0  0  0  0  0  0  0  0  0  0
   -3.2330    1.6250  -20.9090 C   0  0  0  0  0  0  0  0  0  0  0  0
   -3.9510    1.1180  -22.0130 C   0  0  0  0  0  0  0  0  0  0  0  0
   -5.0540    0.3210  -21.8230 C   0  0  0  0  0  0  0  0  0  0  0  0
   -5.4850   -0.0110  -20.5110 C   0  0  0  0  0  0  0  0  0  0  0  0
   -5.6100   -0.0500  -22.6790 H   0  0  0  0  0  0  0  0  0  0  0  0
   -3.6240    1.3600  -23.0190 H   0  0  0  0  0  0  0  0  0  0  0  0
   -2.3690    2.2640  -21.0800 H   0  0  0  0  0  0  0  0  0  0  0  0
   -3.0970    1.7180  -18.7770 H   0  0  0  0  0  0  0  0  0  0  0  0
   -4.6600    0.5900  -17.2470 H   0  0  0  0  0  0  0  0  0  0  0  0
   -7.7880   -1.6840  -18.6690 H   0  0  0  0  0  0  0  0  0  0  0  0
   -6.8510   -1.8420  -22.1170 H   0  0  0  0  0  0  0  0  0  0  0  0
   -8.0790   -2.2300  -20.8940 H   0  0  0  0  0  0  0  0  0  0  0  0
   -9.4990   -2.8300  -22.7010 H   0  0  0  0  0  0  0  0  0  0  0  0
   -8.1950   -2.3990  -23.7900 H   0  0  0  0  0  0  0  0  0  0  0  0
  -10.3390   -3.2880  -24.9010 H   0  0  0  0  0  0  0  0  0  0  0  0
   -9.6210   -1.8270  -25.5540 H   0  0  0  0  0  0  0  0  0  0  0  0
  -14.7100   -0.2200  -24.4910 H   0  0  0  0  0  0  0  0  0  0  0  0
  -12.9250    1.2500  -23.2950 H   0  0  0  0  0  0  0  0  0  0  0  0
  -10.2880    0.9410  -22.5110 H   0  0  0  0  0  0  0  0  0  0  0  0
   -9.2710    0.5130  -25.3430 H   0  0  0  0  0  0  0  0  0  0  0  0
   -8.5000    1.5110  -24.0950 H   0  0  0  0  0  0  0  0  0  0  0  0
  -10.6400    2.9130  -24.0030 H   0  0  0  0  0  0  0  0  0  0  0  0
   -9.8180    3.0050  -25.5710 H   0  0  0  0  0  0  0  0  0  0  0  0
  -11.2600    1.9920  -25.3870 H   0  0  0  0  0  0  0  0  0  0  0  0
  1  2  1  0  0  0  0
  1 42  1  0  0  0  0
  1 43  1  0  0  0  0
  1 44  1  0  0  0  0
  2  3  1  0  0  0  0
  2 40  1  0  0  0  0
  2 41  1  0  0  0  0
  3  4  1  0  0  0  0
  3 11  1  0  0  0  0
  3 39  1  1  0  0  0
  4  5  1  0  0  0  0
  4  8  2  0  0  0  0
  5  6  2  0  0  0  0
  5 38  1  0  0  0  0
  6  7  1  0  0  0  0
  6 37  1  0  0  0  0
  7  8  1  0  0  0  0
  8  9  1  0  0  0  0
  9 10  1  0  0  0  0
  9 35  1  0  0  0  0
  9 36  1  0  0  0  0
 10 11  1  0  0  0  0
 10 33  1  0  0  0  0
 10 34  1  0  0  0  0
 11 12  1  0  0  0  0
 12 13  2  0  0  0  0
 12 14  1  0  0  0  0
 14 15  1  0  0  0  0
 14 31  1  0  0  0  0
 14 32  1  0  0  0  0
 15 16  2  0  0  0  0
 15 24  1  0  0  0  0
 16 17  1  0  0  0  0
 16 30  1  0  0  0  0
 17 18  2  0  0  0  0
 18 19  1  0  0  0  0
 18 29  1  0  0  0  0
 19 20  2  0  0  0  0
 19 24  1  0  0  0  0
 20 21  1  0  0  0  0
 20 28  1  0  0  0  0
 21 22  2  0  0  0  0
 21 27  1  0  0  0  0
 22 23  1  0  0  0  0
 22 26  1  0  0  0  0
 23 24  2  0  0  0  0
 23 25  1  0  0  0  0
M  END
>  <MODEL>
       1

$$$$
