tmp_first_model_4_4.pdb
 OpenBabel08272518513D

 59 64  0  0  1  0  0  0  0  0999 V2000
   -7.4960   -3.5800  -23.7280 C   0  0  0  0  0  0  0  0  0  0  0  0
   -8.4470   -2.9570  -22.6970 C   0  0  1  0  0  0  0  0  0  0  0  0
   -7.7860   -2.8160  -21.3130 C   0  0  0  0  0  0  0  0  0  0  0  0
   -7.3970   -1.4200  -21.2330 N   0  0  0  0  0  0  0  0  0  0  0  0
   -6.4970   -0.9640  -20.2370 C   0  0  0  0  0  0  0  0  0  0  0  0
   -6.6980   -1.3400  -18.9280 C   0  0  0  0  0  0  0  0  0  0  0  0
   -5.8260   -1.1180  -17.9190 N   0  0  0  0  0  0  0  0  0  0  0  0
   -4.7210   -0.4820  -18.2030 C   0  0  0  0  0  0  0  0  0  0  0  0
   -4.3960    0.0010  -19.4990 C   0  0  0  0  0  0  0  0  0  0  0  0
   -3.1950    0.7240  -19.7330 C   0  0  0  0  0  0  0  0  0  0  0  0
   -2.9090    1.2150  -20.9760 C   0  0  0  0  0  0  0  0  0  0  0  0
   -3.7860    0.9510  -22.0530 C   0  0  0  0  0  0  0  0  0  0  0  0
   -4.9260    0.2080  -21.8610 C   0  0  0  0  0  0  0  0  0  0  0  0
   -5.2980   -0.2390  -20.5610 C   0  0  0  0  0  0  0  0  0  0  0  0
   -5.5550   -0.0590  -22.7050 H   0  0  0  0  0  0  0  0  0  0  0  0
   -3.5630    1.3480  -23.0390 H   0  0  0  0  0  0  0  0  0  0  0  0
   -2.0130    1.8080  -21.1460 H   0  0  0  0  0  0  0  0  0  0  0  0
   -2.5520    0.9320  -18.8850 H   0  0  0  0  0  0  0  0  0  0  0  0
   -4.0140   -0.3230  -17.3900 H   0  0  0  0  0  0  0  0  0  0  0  0
   -7.6070   -1.8640  -18.6370 H   0  0  0  0  0  0  0  0  0  0  0  0
   -8.1450   -0.6190  -22.0740 C   0  0  0  0  0  0  0  0  0  0  0  0
   -8.1360    0.5910  -22.0720 O   0  0  0  0  0  0  0  0  0  0  0  0
   -8.9780   -1.5290  -23.0210 C   0  0  1  0  0  0  0  0  0  0  0  0
   -8.7110   -1.1060  -24.4830 C   0  0  0  0  0  0  0  0  0  0  0  0
   -9.2440    0.2120  -24.7740 N   0  0  0  0  0  0  0  0  0  0  0  0
   -8.3680    1.1530  -25.4630 C   0  0  0  0  0  0  0  0  0  0  0  0
   -7.8420    0.6080  -26.7650 C   0  0  0  0  0  0  0  0  0  0  0  0
   -6.5760    0.4090  -27.0570 N   0  0  0  0  0  0  0  0  0  0  0  0
   -6.5730   -0.0660  -28.3460 C   0  0  0  0  0  0  0  0  0  0  0  0
   -7.8490   -0.1610  -28.8260 C   0  0  0  0  0  0  0  0  0  0  0  0
   -8.6630    0.2660  -27.7960 N   0  0  0  0  0  0  0  0  0  0  0  0
  -10.1140    0.2670  -27.7630 C   0  0  0  0  0  0  0  0  0  0  0  0
  -10.4980    1.2360  -27.4340 H   0  0  0  0  0  0  0  0  0  0  0  0
  -10.4810    0.0540  -28.7670 H   0  0  0  0  0  0  0  0  0  0  0  0
  -10.4890   -0.4990  -27.0790 H   0  0  0  0  0  0  0  0  0  0  0  0
   -8.2520   -0.4870  -29.7780 H   0  0  0  0  0  0  0  0  0  0  0  0
   -5.6450   -0.3190  -28.8420 H   0  0  0  0  0  0  0  0  0  0  0  0
   -7.4980    1.4020  -24.8360 H   0  0  0  0  0  0  0  0  0  0  0  0
   -8.9510    2.0670  -25.6270 H   0  0  0  0  0  0  0  0  0  0  0  0
  -10.5010    0.5820  -24.3940 C   0  0  0  0  0  0  0  0  0  0  0  0
  -11.0590    1.5860  -24.8310 O   0  0  0  0  0  0  0  0  0  0  0  0
  -11.1810   -0.3210  -23.4090 C   0  0  0  0  0  0  0  0  0  0  0  0
  -12.5520   -0.1430  -23.2010 C   0  0  0  0  0  0  0  0  0  0  0  0
  -13.2620   -1.0300  -22.4200 C   0  0  0  0  0  0  0  0  0  0  0  0
  -12.5760   -2.0780  -21.8220 C   0  0  0  0  0  0  0  0  0  0  0  0
  -13.2570   -2.9410  -21.0440 F   0  0  0  0  0  0  0  0  0  0  0  0
  -11.2170   -2.2520  -21.9760 C   0  0  0  0  0  0  0  0  0  0  0  0
  -10.4860   -1.3740  -22.7910 C   0  0  0  0  0  0  0  0  0  0  0  0
  -10.7630   -3.0930  -21.4660 H   0  0  0  0  0  0  0  0  0  0  0  0
  -14.3340   -0.9530  -22.2860 H   0  0  0  0  0  0  0  0  0  0  0  0
  -13.0420    0.7090  -23.6640 H   0  0  0  0  0  0  0  0  0  0  0  0
   -9.1710   -1.8450  -25.1520 H   0  0  0  0  0  0  0  0  0  0  0  0
   -7.6400   -1.0790  -24.6880 H   0  0  0  0  0  0  0  0  0  0  0  0
   -8.5010   -3.0620  -20.5170 H   0  0  0  0  0  0  0  0  0  0  0  0
   -6.9080   -3.4600  -21.2030 H   0  0  0  0  0  0  0  0  0  0  0  0
   -9.2890   -3.6470  -22.6410 H   0  0  0  0  0  0  0  0  0  0  0  0
   -7.9930   -3.7120  -24.6940 H   0  0  0  0  0  0  0  0  0  0  0  0
   -6.5970   -2.9790  -23.8920 H   0  0  0  0  0  0  0  0  0  0  0  0
   -7.1770   -4.5740  -23.3960 H   0  0  0  0  0  0  0  0  0  0  0  0
  1  2  1  0  0  0  0
  1 57  1  0  0  0  0
  1 58  1  0  0  0  0
  1 59  1  0  0  0  0
  2  3  1  0  0  0  0
  2 23  1  0  0  0  0
  2 56  1  1  0  0  0
  3  4  1  0  0  0  0
  3 54  1  0  0  0  0
  3 55  1  0  0  0  0
  4  5  1  0  0  0  0
  4 21  1  0  0  0  0
  5  6  2  0  0  0  0
  5 14  1  0  0  0  0
  6  7  1  0  0  0  0
  6 20  1  0  0  0  0
  7  8  2  0  0  0  0
  8  9  1  0  0  0  0
  8 19  1  0  0  0  0
  9 10  2  0  0  0  0
  9 14  1  0  0  0  0
 10 11  1  0  0  0  0
 10 18  1  0  0  0  0
 11 12  2  0  0  0  0
 11 17  1  0  0  0  0
 12 13  1  0  0  0  0
 12 16  1  0  0  0  0
 13 14  2  0  0  0  0
 13 15  1  0  0  0  0
 21 22  2  0  0  0  0
 23 21  1  1  0  0  0
 23 24  1  0  0  0  0
 23 48  1  0  0  0  0
 24 25  1  0  0  0  0
 24 52  1  0  0  0  0
 24 53  1  0  0  0  0
 25 26  1  0  0  0  0
 25 40  1  0  0  0  0
 26 27  1  0  0  0  0
 26 38  1  0  0  0  0
 26 39  1  0  0  0  0
 27 28  2  0  0  0  0
 27 31  1  0  0  0  0
 28 29  1  0  0  0  0
 29 30  2  0  0  0  0
 29 37  1  0  0  0  0
 30 31  1  0  0  0  0
 30 36  1  0  0  0  0
 31 32  1  0  0  0  0
 32 33  1  0  0  0  0
 32 34  1  0  0  0  0
 32 35  1  0  0  0  0
 40 41  2  0  0  0  0
 40 42  1  0  0  0  0
 42 43  2  0  0  0  0
 42 48  1  0  0  0  0
 43 44  1  0  0  0  0
 43 51  1  0  0  0  0
 44 45  2  0  0  0  0
 44 50  1  0  0  0  0
 45 46  1  0  0  0  0
 45 47  1  0  0  0  0
 47 48  2  0  0  0  0
 47 49  1  0  0  0  0
M  END
>  <MODEL>
       1

$$$$
