tmp_first_model_4_85.pdb
 OpenBabel08272518513D

 57 62  0  0  1  0  0  0  0  0999 V2000
   -6.5910    3.4510  -23.0950 C   0  0  0  0  0  0  0  0  0  0  0  0
   -6.9800    2.4600  -24.0870 N   0  0  0  0  0  0  0  0  0  0  0  0
   -8.2460    2.5290  -24.5930 C   0  0  0  0  0  0  0  0  0  0  0  0
   -8.9690    3.4830  -24.3890 O   0  0  0  0  0  0  0  0  0  0  0  0
   -8.6840    1.3430  -25.4640 C   0  0  0  0  0  0  0  0  0  0  0  0
   -9.3720    0.3160  -24.6960 N   0  0  0  0  0  0  0  0  0  0  0  0
   -8.7710   -0.9910  -24.4610 C   0  0  0  0  0  0  0  0  0  0  0  0
   -9.0070   -1.4860  -23.0070 C   0  0  2  0  0  0  0  0  0  0  0  0
   -8.2290   -0.5800  -22.0080 C   0  0  0  0  0  0  0  0  0  0  0  0
   -8.3200    0.6250  -21.8940 O   0  0  0  0  0  0  0  0  0  0  0  0
   -7.3790   -1.3750  -21.2670 N   0  0  0  0  0  0  0  0  0  0  0  0
   -6.5100   -0.9280  -20.2440 C   0  0  0  0  0  0  0  0  0  0  0  0
   -6.7390   -1.2890  -18.9410 C   0  0  0  0  0  0  0  0  0  0  0  0
   -5.8800   -1.0520  -17.9220 N   0  0  0  0  0  0  0  0  0  0  0  0
   -4.7590   -0.4320  -18.1990 C   0  0  0  0  0  0  0  0  0  0  0  0
   -4.4050    0.0120  -19.5040 C   0  0  0  0  0  0  0  0  0  0  0  0
   -3.2220    0.7590  -19.7440 C   0  0  0  0  0  0  0  0  0  0  0  0
   -2.9710    1.2640  -20.9900 C   0  0  0  0  0  0  0  0  0  0  0  0
   -3.8380    0.9810  -22.0690 C   0  0  0  0  0  0  0  0  0  0  0  0
   -4.9570    0.2080  -21.8720 C   0  0  0  0  0  0  0  0  0  0  0  0
   -5.3030   -0.2350  -20.5660 C   0  0  0  0  0  0  0  0  0  0  0  0
   -5.5700   -0.0960  -22.7130 H   0  0  0  0  0  0  0  0  0  0  0  0
   -3.6170    1.3780  -23.0570 H   0  0  0  0  0  0  0  0  0  0  0  0
   -2.1230    1.9200  -21.1520 H   0  0  0  0  0  0  0  0  0  0  0  0
   -2.5940    0.9890  -18.8890 H   0  0  0  0  0  0  0  0  0  0  0  0
   -4.0750   -0.2390  -17.3720 H   0  0  0  0  0  0  0  0  0  0  0  0
   -7.6630   -1.8080  -18.6800 H   0  0  0  0  0  0  0  0  0  0  0  0
   -7.5270   -2.7890  -21.4950 C   0  0  0  0  0  0  0  0  0  0  0  0
   -8.3870   -2.8740  -22.7410 C   0  0  0  0  0  0  0  0  0  0  0  0
   -7.9260   -3.8060  -23.8310 C   0  0  0  0  0  0  0  0  0  0  0  0
   -9.1270   -4.1530  -23.0050 C   0  0  0  0  0  0  0  0  0  0  0  0
  -10.1010   -4.0620  -23.4740 H   0  0  0  0  0  0  0  0  0  0  0  0
   -9.0520   -4.9470  -22.2600 H   0  0  0  0  0  0  0  0  0  0  0  0
   -8.0750   -3.5190  -24.8680 H   0  0  0  0  0  0  0  0  0  0  0  0
   -7.0110   -4.3650  -23.6540 H   0  0  0  0  0  0  0  0  0  0  0  0
   -6.5490   -3.2760  -21.6150 H   0  0  0  0  0  0  0  0  0  0  0  0
   -8.0380   -3.2510  -20.6490 H   0  0  0  0  0  0  0  0  0  0  0  0
  -10.5130   -1.3880  -22.7610 C   0  0  0  0  0  0  0  0  0  0  0  0
  -11.1750   -2.2690  -21.9040 C   0  0  0  0  0  0  0  0  0  0  0  0
  -12.5450   -2.2030  -21.7370 C   0  0  0  0  0  0  0  0  0  0  0  0
  -13.3090   -3.4490  -20.7910 Cl  0  0  0  0  0  0  0  0  0  0  0  0
  -13.3010   -1.1740  -22.2960 C   0  0  0  0  0  0  0  0  0  0  0  0
  -12.6460   -0.2680  -23.1090 C   0  0  0  0  0  0  0  0  0  0  0  0
  -11.2860   -0.4000  -23.3820 C   0  0  0  0  0  0  0  0  0  0  0  0
  -10.6970    0.5240  -24.4080 C   0  0  0  0  0  0  0  0  0  0  0  0
  -11.3750    1.3790  -24.9600 O   0  0  0  0  0  0  0  0  0  0  0  0
  -13.1690    0.5550  -23.5810 H   0  0  0  0  0  0  0  0  0  0  0  0
  -14.3630   -1.0830  -22.0990 H   0  0  0  0  0  0  0  0  0  0  0  0
  -10.6450   -3.0420  -21.3670 H   0  0  0  0  0  0  0  0  0  0  0  0
   -7.6950   -0.9350  -24.6440 H   0  0  0  0  0  0  0  0  0  0  0  0
   -9.2040   -1.7280  -25.1580 H   0  0  0  0  0  0  0  0  0  0  0  0
   -7.8250    0.9020  -25.9790 H   0  0  0  0  0  0  0  0  0  0  0  0
   -9.3910    1.7150  -26.2090 H   0  0  0  0  0  0  0  0  0  0  0  0
   -6.5310    1.5580  -24.0350 H   0  0  0  0  0  0  0  0  0  0  0  0
   -5.5790    3.2280  -22.7480 H   0  0  0  0  0  0  0  0  0  0  0  0
   -7.2760    3.4370  -22.2400 H   0  0  0  0  0  0  0  0  0  0  0  0
   -6.6100    4.4500  -23.5410 H   0  0  0  0  0  0  0  0  0  0  0  0
  1  2  1  0  0  0  0
  1 55  1  0  0  0  0
  1 56  1  0  0  0  0
  1 57  1  0  0  0  0
  2  3  1  0  0  0  0
  2 54  1  0  0  0  0
  3  4  2  0  0  0  0
  3  5  1  0  0  0  0
  5  6  1  0  0  0  0
  5 52  1  0  0  0  0
  5 53  1  0  0  0  0
  6  7  1  0  0  0  0
  6 45  1  0  0  0  0
  7  8  1  0  0  0  0
  7 50  1  0  0  0  0
  7 51  1  0  0  0  0
  8  9  1  1  0  0  0
  8 29  1  0  0  0  0
  8 38  1  0  0  0  0
  9 10  2  0  0  0  0
  9 11  1  0  0  0  0
 11 12  1  0  0  0  0
 11 28  1  0  0  0  0
 12 13  2  0  0  0  0
 12 21  1  0  0  0  0
 13 14  1  0  0  0  0
 13 27  1  0  0  0  0
 14 15  2  0  0  0  0
 15 16  1  0  0  0  0
 15 26  1  0  0  0  0
 16 17  2  0  0  0  0
 16 21  1  0  0  0  0
 17 18  1  0  0  0  0
 17 25  1  0  0  0  0
 18 19  2  0  0  0  0
 18 24  1  0  0  0  0
 19 20  1  0  0  0  0
 19 23  1  0  0  0  0
 20 21  2  0  0  0  0
 20 22  1  0  0  0  0
 28 29  1  0  0  0  0
 28 36  1  0  0  0  0
 28 37  1  0  0  0  0
 29 30  1  0  0  0  0
 29 31  1  0  0  0  0
 30 31  1  0  0  0  0
 30 34  1  0  0  0  0
 30 35  1  0  0  0  0
 31 32  1  0  0  0  0
 31 33  1  0  0  0  0
 38 39  2  0  0  0  0
 38 44  1  0  0  0  0
 39 40  1  0  0  0  0
 39 49  1  0  0  0  0
 40 41  1  0  0  0  0
 40 42  2  0  0  0  0
 42 43  1  0  0  0  0
 42 48  1  0  0  0  0
 43 44  2  0  0  0  0
 43 47  1  0  0  0  0
 44 45  1  0  0  0  0
 45 46  2  0  0  0  0
M  END
>  <MODEL>
       1

$$$$
