tmp_first_model_13_74.pdb
 OpenBabel08282500103D

 43 47  0  0  1  0  0  0  0  0999 V2000
   -9.4240   -0.4510  -20.9890 O   0  0  0  0  0  0  0  0  0  0  0  0
   -8.7430   -1.3640  -21.3800 C   0  0  0  0  0  0  0  0  0  0  0  0
   -9.1370   -2.4540  -22.1110 N   0  0  0  0  0  0  0  0  0  0  0  0
   -8.0410   -3.1480  -22.7400 C   0  0  1  0  0  0  0  0  0  0  0  0
   -8.1060   -4.6900  -22.7160 C   0  0  0  0  0  0  0  0  0  0  0  0
   -8.2250   -4.7220  -24.2740 C   0  0  2  0  0  0  0  0  0  0  0  0
   -7.1760   -5.5210  -24.9840 C   0  0  0  0  0  0  0  0  0  0  0  0
   -5.8200   -5.2760  -24.7390 C   0  0  0  0  0  0  0  0  0  0  0  0
   -4.8290   -6.0090  -25.3820 C   0  0  0  0  0  0  0  0  0  0  0  0
   -5.1780   -7.0080  -26.2880 C   0  0  0  0  0  0  0  0  0  0  0  0
   -6.5170   -7.2660  -26.5460 C   0  0  0  0  0  0  0  0  0  0  0  0
   -7.4970   -6.5300  -25.8920 C   0  0  0  0  0  0  0  0  0  0  0  0
   -9.1660   -6.9180  -26.2470 Cl  0  0  0  0  0  0  0  0  0  0  0  0
   -6.8200   -8.0230  -27.2600 H   0  0  0  0  0  0  0  0  0  0  0  0
   -4.4110   -7.5860  -26.7970 H   0  0  0  0  0  0  0  0  0  0  0  0
   -3.7840   -5.7930  -25.1760 H   0  0  0  0  0  0  0  0  0  0  0  0
   -5.5490   -4.4930  -24.0290 H   0  0  0  0  0  0  0  0  0  0  0  0
   -8.0360   -3.1700  -24.2980 C   0  0  0  0  0  0  0  0  0  0  0  0
   -8.8570   -2.6040  -24.7520 H   0  0  0  0  0  0  0  0  0  0  0  0
   -7.0980   -2.8270  -24.7560 H   0  0  0  0  0  0  0  0  0  0  0  0
   -9.2250   -5.0180  -24.6030 H   0  0  0  0  0  0  0  0  0  0  0  0
   -8.9690   -5.0680  -22.1630 H   0  0  0  0  0  0  0  0  0  0  0  0
   -7.1940   -5.1500  -22.3160 H   0  0  0  0  0  0  0  0  0  0  0  0
   -6.8400   -2.5190  -22.0510 C   0  0  0  0  0  0  0  0  0  0  0  0
   -5.6800   -2.8160  -22.2220 O   0  0  0  0  0  0  0  0  0  0  0  0
   -7.3390   -1.5160  -21.2080 N   0  0  0  0  0  0  0  0  0  0  0  0
   -6.5830   -0.8580  -20.1890 C   0  0  0  0  0  0  0  0  0  0  0  0
   -6.9070   -1.0590  -18.8690 C   0  0  0  0  0  0  0  0  0  0  0  0
   -6.2090   -0.5420  -17.8320 N   0  0  0  0  0  0  0  0  0  0  0  0
   -5.1740    0.2090  -18.1010 C   0  0  0  0  0  0  0  0  0  0  0  0
   -4.7430    0.5260  -19.4150 C   0  0  0  0  0  0  0  0  0  0  0  0
   -3.6130    1.3580  -19.6400 C   0  0  0  0  0  0  0  0  0  0  0  0
   -3.2240    1.6610  -20.9140 C   0  0  0  0  0  0  0  0  0  0  0  0
   -3.9550    1.1440  -22.0080 C   0  0  0  0  0  0  0  0  0  0  0  0
   -5.0480    0.3370  -21.8150 C   0  0  0  0  0  0  0  0  0  0  0  0
   -5.4680   -0.0110  -20.5010 C   0  0  0  0  0  0  0  0  0  0  0  0
   -5.5940   -0.0530  -22.6680 H   0  0  0  0  0  0  0  0  0  0  0  0
   -3.6480    1.3910  -23.0190 H   0  0  0  0  0  0  0  0  0  0  0  0
   -2.3680    2.3080  -21.0930 H   0  0  0  0  0  0  0  0  0  0  0  0
   -3.0810    1.7530  -18.7800 H   0  0  0  0  0  0  0  0  0  0  0  0
   -4.6250    0.6090  -17.2500 H   0  0  0  0  0  0  0  0  0  0  0  0
   -7.7530   -1.6830  -18.5940 H   0  0  0  0  0  0  0  0  0  0  0  0
  -10.1000   -2.6010  -22.3690 H   0  0  0  0  0  0  0  0  0  0  0  0
  1  2  2  0  0  0  0
  2  3  1  0  0  0  0
  2 26  1  0  0  0  0
  3  4  1  0  0  0  0
  3 43  1  0  0  0  0
  4  5  1  0  0  0  0
  4 18  1  0  0  0  0
  4 24  1  1  0  0  0
  5  6  1  0  0  0  0
  5 22  1  0  0  0  0
  5 23  1  0  0  0  0
  6  7  1  0  0  0  0
  6 18  1  0  0  0  0
  6 21  1  6  0  0  0
  7  8  2  0  0  0  0
  7 12  1  0  0  0  0
  8  9  1  0  0  0  0
  8 17  1  0  0  0  0
  9 10  2  0  0  0  0
  9 16  1  0  0  0  0
 10 11  1  0  0  0  0
 10 15  1  0  0  0  0
 11 12  2  0  0  0  0
 11 14  1  0  0  0  0
 12 13  1  0  0  0  0
 18 19  1  0  0  0  0
 18 20  1  0  0  0  0
 24 25  2  0  0  0  0
 24 26  1  0  0  0  0
 26 27  1  0  0  0  0
 27 28  2  0  0  0  0
 27 36  1  0  0  0  0
 28 29  1  0  0  0  0
 28 42  1  0  0  0  0
 29 30  2  0  0  0  0
 30 31  1  0  0  0  0
 30 41  1  0  0  0  0
 31 32  2  0  0  0  0
 31 36  1  0  0  0  0
 32 33  1  0  0  0  0
 32 40  1  0  0  0  0
 33 34  2  0  0  0  0
 33 39  1  0  0  0  0
 34 35  1  0  0  0  0
 34 38  1  0  0  0  0
 35 36  2  0  0  0  0
 35 37  1  0  0  0  0
M  END
>  <MODEL>
       1

$$$$
