tmp_first_model_10_96.pdb
 OpenBabel08272522163D

 66 70  0  0  1  0  0  0  0  0999 V2000
   -7.6390    3.0590  -21.9700 C   0  0  0  0  0  0  0  0  0  0  0  0
   -8.8060    2.5860  -22.6980 N   0  0  0  0  0  0  0  0  0  0  0  0
   -8.5310    1.7690  -23.7590 C   0  0  0  0  0  0  0  0  0  0  0  0
   -7.3790    1.5050  -24.0860 O   0  0  0  0  0  0  0  0  0  0  0  0
   -9.6990    1.1710  -24.5370 C   0  0  0  0  0  0  0  0  0  0  0  0
  -10.1310   -0.0510  -23.8920 N   0  0  0  0  0  0  0  0  0  0  0  0
   -9.2360   -1.2000  -23.8860 C   0  0  0  0  0  0  0  0  0  0  0  0
   -9.3010   -1.9440  -22.5270 C   0  0  2  0  0  0  0  0  0  0  0  0
   -8.7070   -1.0080  -21.4400 C   0  0  0  0  0  0  0  0  0  0  0  0
   -9.2410   -0.0290  -20.9500 O   0  0  0  0  0  0  0  0  0  0  0  0
   -7.4230   -1.4300  -21.1570 N   0  0  0  0  0  0  0  0  0  0  0  0
   -6.6420   -0.8170  -20.1460 C   0  0  0  0  0  0  0  0  0  0  0  0
   -6.9340   -1.0620  -18.8250 C   0  0  0  0  0  0  0  0  0  0  0  0
   -6.2230   -0.5780  -17.7810 N   0  0  0  0  0  0  0  0  0  0  0  0
   -5.1960    0.1900  -18.0580 C   0  0  0  0  0  0  0  0  0  0  0  0
   -4.7980    0.5460  -19.3780 C   0  0  0  0  0  0  0  0  0  0  0  0
   -3.7000    1.4160  -19.6190 C   0  0  0  0  0  0  0  0  0  0  0  0
   -3.4290    1.8570  -20.8850 C   0  0  0  0  0  0  0  0  0  0  0  0
   -4.2220    1.4320  -21.9720 C   0  0  0  0  0  0  0  0  0  0  0  0
   -5.2340    0.5140  -21.7780 C   0  0  0  0  0  0  0  0  0  0  0  0
   -5.5580    0.0590  -20.4680 C   0  0  0  0  0  0  0  0  0  0  0  0
   -5.8160    0.1880  -22.6340 H   0  0  0  0  0  0  0  0  0  0  0  0
   -4.0460    1.8470  -22.9590 H   0  0  0  0  0  0  0  0  0  0  0  0
   -2.6050    2.5430  -21.0580 H   0  0  0  0  0  0  0  0  0  0  0  0
   -3.1060    1.7400  -18.7700 H   0  0  0  0  0  0  0  0  0  0  0  0
   -4.6210    0.5730  -17.2140 H   0  0  0  0  0  0  0  0  0  0  0  0
   -7.7830   -1.6950  -18.5800 H   0  0  0  0  0  0  0  0  0  0  0  0
   -6.9900   -2.5570  -21.9650 C   0  0  0  0  0  0  0  0  0  0  0  0
   -8.3220   -3.1460  -22.4550 C   0  0  2  0  0  0  0  0  0  0  0  0
   -8.2010   -3.9850  -23.7270 C   0  0  0  0  0  0  0  0  0  0  0  0
   -7.4540   -5.1540  -23.4800 O   0  0  0  0  0  0  0  0  0  0  0  0
   -6.1670   -5.2220  -24.0850 C   0  0  0  0  0  0  0  0  0  0  0  0
   -5.3410   -6.1400  -23.2010 C   0  0  0  0  0  0  0  0  0  0  0  0
   -4.3070   -6.2200  -23.5570 H   0  0  0  0  0  0  0  0  0  0  0  0
   -5.7930   -7.1360  -23.1910 H   0  0  0  0  0  0  0  0  0  0  0  0
   -5.3310   -5.7540  -22.1770 H   0  0  0  0  0  0  0  0  0  0  0  0
   -6.2570   -5.7350  -25.5200 C   0  0  0  0  0  0  0  0  0  0  0  0
   -6.8570   -5.0700  -26.1530 H   0  0  0  0  0  0  0  0  0  0  0  0
   -6.7180   -6.7300  -25.5380 H   0  0  0  0  0  0  0  0  0  0  0  0
   -5.2540   -5.8070  -25.9570 H   0  0  0  0  0  0  0  0  0  0  0  0
   -5.7100   -4.2170  -24.0950 H   0  0  0  0  0  0  0  0  0  0  0  0
   -9.2030   -4.2870  -24.0610 H   0  0  0  0  0  0  0  0  0  0  0  0
   -7.7480   -3.3810  -24.5340 H   0  0  0  0  0  0  0  0  0  0  0  0
   -8.6630   -3.8080  -21.6550 H   0  0  0  0  0  0  0  0  0  0  0  0
   -6.3680   -2.2280  -22.8140 H   0  0  0  0  0  0  0  0  0  0  0  0
   -6.4100   -3.2730  -21.3710 H   0  0  0  0  0  0  0  0  0  0  0  0
  -10.7700   -2.2720  -22.2950 C   0  0  0  0  0  0  0  0  0  0  0  0
  -11.1940   -3.4120  -21.6070 C   0  0  0  0  0  0  0  0  0  0  0  0
  -12.5260   -3.5700  -21.2650 C   0  0  0  0  0  0  0  0  0  0  0  0
  -12.9760   -4.8940  -20.2310 Cl  0  0  0  0  0  0  0  0  0  0  0  0
  -13.5060   -2.6650  -21.6600 C   0  0  0  0  0  0  0  0  0  0  0  0
  -13.1100   -1.5710  -22.4000 C   0  0  0  0  0  0  0  0  0  0  0  0
  -11.7670   -1.3750  -22.7080 C   0  0  0  0  0  0  0  0  0  0  0  0
  -11.4260   -0.1370  -23.4720 C   0  0  0  0  0  0  0  0  0  0  0  0
  -12.2540    0.7340  -23.6980 O   0  0  0  0  0  0  0  0  0  0  0  0
  -13.8200   -0.8270  -22.7420 H   0  0  0  0  0  0  0  0  0  0  0  0
  -14.5410   -2.8120  -21.3770 H   0  0  0  0  0  0  0  0  0  0  0  0
  -10.5050   -4.1790  -21.2850 H   0  0  0  0  0  0  0  0  0  0  0  0
   -9.5210   -1.8970  -24.6860 H   0  0  0  0  0  0  0  0  0  0  0  0
   -8.2200   -0.8450  -24.0870 H   0  0  0  0  0  0  0  0  0  0  0  0
   -9.3430    0.9420  -25.5470 H   0  0  0  0  0  0  0  0  0  0  0  0
  -10.5660    1.8350  -24.6100 H   0  0  0  0  0  0  0  0  0  0  0  0
   -9.6420    2.4420  -22.1390 H   0  0  0  0  0  0  0  0  0  0  0  0
   -7.1270    2.2190  -21.4790 H   0  0  0  0  0  0  0  0  0  0  0  0
   -7.9210    3.8170  -21.2380 H   0  0  0  0  0  0  0  0  0  0  0  0
   -6.9600    3.5280  -22.6870 H   0  0  0  0  0  0  0  0  0  0  0  0
  1  2  1  0  0  0  0
  1 64  1  0  0  0  0
  1 65  1  0  0  0  0
  1 66  1  0  0  0  0
  2  3  1  0  0  0  0
  2 63  1  0  0  0  0
  3  4  2  0  0  0  0
  3  5  1  0  0  0  0
  5  6  1  0  0  0  0
  5 61  1  0  0  0  0
  5 62  1  0  0  0  0
  6  7  1  0  0  0  0
  6 54  1  0  0  0  0
  7  8  1  0  0  0  0
  7 59  1  0  0  0  0
  7 60  1  0  0  0  0
  8  9  1  1  0  0  0
  8 29  1  0  0  0  0
  8 47  1  0  0  0  0
  9 10  2  0  0  0  0
  9 11  1  0  0  0  0
 11 12  1  0  0  0  0
 11 28  1  0  0  0  0
 12 13  2  0  0  0  0
 12 21  1  0  0  0  0
 13 14  1  0  0  0  0
 13 27  1  0  0  0  0
 14 15  2  0  0  0  0
 15 16  1  0  0  0  0
 15 26  1  0  0  0  0
 16 17  2  0  0  0  0
 16 21  1  0  0  0  0
 17 18  1  0  0  0  0
 17 25  1  0  0  0  0
 18 19  2  0  0  0  0
 18 24  1  0  0  0  0
 19 20  1  0  0  0  0
 19 23  1  0  0  0  0
 20 21  2  0  0  0  0
 20 22  1  0  0  0  0
 28 29  1  0  0  0  0
 28 45  1  0  0  0  0
 28 46  1  0  0  0  0
 29 30  1  0  0  0  0
 29 44  1  1  0  0  0
 30 31  1  0  0  0  0
 30 42  1  0  0  0  0
 30 43  1  0  0  0  0
 31 32  1  0  0  0  0
 32 33  1  0  0  0  0
 32 37  1  0  0  0  0
 32 41  1  0  0  0  0
 33 34  1  0  0  0  0
 33 35  1  0  0  0  0
 33 36  1  0  0  0  0
 37 38  1  0  0  0  0
 37 39  1  0  0  0  0
 37 40  1  0  0  0  0
 47 48  2  0  0  0  0
 47 53  1  0  0  0  0
 48 49  1  0  0  0  0
 48 58  1  0  0  0  0
 49 50  1  0  0  0  0
 49 51  2  0  0  0  0
 51 52  1  0  0  0  0
 51 57  1  0  0  0  0
 52 53  2  0  0  0  0
 52 56  1  0  0  0  0
 53 54  1  0  0  0  0
 54 55  2  0  0  0  0
M  END
>  <MODEL>
       1

$$$$
