tmp_first_model_6_30.pdb
 OpenBabel08272519583D

 58 63  0  0  1  0  0  0  0  0999 V2000
   -7.2730   -3.3720  -23.8900 C   0  0  0  0  0  0  0  0  0  0  0  0
   -8.2390   -2.8650  -22.8120 C   0  0  1  0  0  0  0  0  0  0  0  0
   -7.5600   -2.7570  -21.4310 C   0  0  0  0  0  0  0  0  0  0  0  0
   -7.3350   -1.3400  -21.2600 N   0  0  0  0  0  0  0  0  0  0  0  0
   -6.5840   -0.7990  -20.1990 C   0  0  0  0  0  0  0  0  0  0  0  0
   -6.8930   -1.0890  -18.8960 C   0  0  0  0  0  0  0  0  0  0  0  0
   -6.2200   -0.6020  -17.8270 N   0  0  0  0  0  0  0  0  0  0  0  0
   -5.2020    0.1910  -18.0710 C   0  0  0  0  0  0  0  0  0  0  0  0
   -4.7670    0.5540  -19.3800 C   0  0  0  0  0  0  0  0  0  0  0  0
   -3.6310    1.3740  -19.5950 C   0  0  0  0  0  0  0  0  0  0  0  0
   -3.2440    1.7000  -20.8650 C   0  0  0  0  0  0  0  0  0  0  0  0
   -3.9650    1.2250  -21.9810 C   0  0  0  0  0  0  0  0  0  0  0  0
   -5.0530    0.4120  -21.7990 C   0  0  0  0  0  0  0  0  0  0  0  0
   -5.4820    0.0580  -20.4880 C   0  0  0  0  0  0  0  0  0  0  0  0
   -5.5790    0.0110  -22.6600 H   0  0  0  0  0  0  0  0  0  0  0  0
   -3.6570    1.5160  -22.9810 H   0  0  0  0  0  0  0  0  0  0  0  0
   -2.3710    2.3240  -21.0260 H   0  0  0  0  0  0  0  0  0  0  0  0
   -3.0810    1.7290  -18.7290 H   0  0  0  0  0  0  0  0  0  0  0  0
   -4.6530    0.5820  -17.2140 H   0  0  0  0  0  0  0  0  0  0  0  0
   -7.7450   -1.7280  -18.6690 H   0  0  0  0  0  0  0  0  0  0  0  0
   -8.2050   -0.5610  -21.9900 C   0  0  0  0  0  0  0  0  0  0  0  0
   -8.3970    0.6190  -21.7990 O   0  0  0  0  0  0  0  0  0  0  0  0
   -8.8850   -1.4600  -23.0490 C   0  0  1  0  0  0  0  0  0  0  0  0
   -8.6380   -0.9140  -24.4710 C   0  0  0  0  0  0  0  0  0  0  0  0
   -9.2850    0.3600  -24.6760 N   0  0  0  0  0  0  0  0  0  0  0  0
   -8.5470    1.4440  -25.2910 C   0  0  0  0  0  0  0  0  0  0  0  0
   -8.1060    2.4910  -24.3020 C   0  0  0  0  0  0  0  0  0  0  0  0
   -6.8360    2.6130  -23.8240 C   0  0  0  0  0  0  0  0  0  0  0  0
   -6.4780    3.7080  -22.9470 C   0  0  0  0  0  0  0  0  0  0  0  0
   -5.3810    3.9730  -22.4930 O   0  0  0  0  0  0  0  0  0  0  0  0
   -7.5930    4.5130  -22.6310 N   0  0  0  0  0  0  0  0  0  0  0  0
   -8.8200    4.3490  -23.1920 C   0  0  0  0  0  0  0  0  0  0  0  0
   -9.1030    3.3880  -24.0060 N   0  0  0  0  0  0  0  0  0  0  0  0
   -9.5780    5.0900  -22.9400 H   0  0  0  0  0  0  0  0  0  0  0  0
   -7.4100    5.2700  -21.9840 H   0  0  0  0  0  0  0  0  0  0  0  0
   -6.0510    1.9200  -24.0840 H   0  0  0  0  0  0  0  0  0  0  0  0
   -9.2360    1.9740  -25.9350 H   0  0  0  0  0  0  0  0  0  0  0  0
   -7.7250    1.0290  -25.8860 H   0  0  0  0  0  0  0  0  0  0  0  0
  -10.6120    0.5250  -24.3940 C   0  0  0  0  0  0  0  0  0  0  0  0
  -11.2840    1.4510  -24.8200 O   0  0  0  0  0  0  0  0  0  0  0  0
  -11.2000   -0.5010  -23.4780 C   0  0  0  0  0  0  0  0  0  0  0  0
  -12.5720   -0.4330  -23.2350 C   0  0  0  0  0  0  0  0  0  0  0  0
  -13.1790   -1.3260  -22.3770 C   0  0  0  0  0  0  0  0  0  0  0  0
  -12.3660   -2.2720  -21.7600 C   0  0  0  0  0  0  0  0  0  0  0  0
  -12.9340   -3.1900  -20.9670 F   0  0  0  0  0  0  0  0  0  0  0  0
  -10.9980   -2.3220  -21.9360 C   0  0  0  0  0  0  0  0  0  0  0  0
  -10.3940   -1.4460  -22.8360 C   0  0  0  0  0  0  0  0  0  0  0  0
  -10.4260   -3.0310  -21.3490 H   0  0  0  0  0  0  0  0  0  0  0  0
  -14.2380   -1.2790  -22.1450 H   0  0  0  0  0  0  0  0  0  0  0  0
  -13.1250    0.3520  -23.7400 H   0  0  0  0  0  0  0  0  0  0  0  0
   -9.0180   -1.6600  -25.1850 H   0  0  0  0  0  0  0  0  0  0  0  0
   -7.5730   -0.7700  -24.6500 H   0  0  0  0  0  0  0  0  0  0  0  0
   -6.6090   -3.2950  -21.3740 H   0  0  0  0  0  0  0  0  0  0  0  0
   -8.2250   -3.1380  -20.6450 H   0  0  0  0  0  0  0  0  0  0  0  0
   -9.0430   -3.6040  -22.7770 H   0  0  0  0  0  0  0  0  0  0  0  0
   -6.8970   -4.3570  -23.6010 H   0  0  0  0  0  0  0  0  0  0  0  0
   -6.4150   -2.7070  -24.0310 H   0  0  0  0  0  0  0  0  0  0  0  0
   -7.7830   -3.4900  -24.8500 H   0  0  0  0  0  0  0  0  0  0  0  0
  1  2  1  0  0  0  0
  1 56  1  0  0  0  0
  1 57  1  0  0  0  0
  1 58  1  0  0  0  0
  2  3  1  0  0  0  0
  2 23  1  0  0  0  0
  2 55  1  1  0  0  0
  3  4  1  0  0  0  0
  3 53  1  0  0  0  0
  3 54  1  0  0  0  0
  4  5  1  0  0  0  0
  4 21  1  0  0  0  0
  5  6  2  0  0  0  0
  5 14  1  0  0  0  0
  6  7  1  0  0  0  0
  6 20  1  0  0  0  0
  7  8  2  0  0  0  0
  8  9  1  0  0  0  0
  8 19  1  0  0  0  0
  9 10  2  0  0  0  0
  9 14  1  0  0  0  0
 10 11  1  0  0  0  0
 10 18  1  0  0  0  0
 11 12  2  0  0  0  0
 11 17  1  0  0  0  0
 12 13  1  0  0  0  0
 12 16  1  0  0  0  0
 13 14  2  0  0  0  0
 13 15  1  0  0  0  0
 21 22  2  0  0  0  0
 23 21  1  1  0  0  0
 23 24  1  0  0  0  0
 23 47  1  0  0  0  0
 24 25  1  0  0  0  0
 24 51  1  0  0  0  0
 24 52  1  0  0  0  0
 25 26  1  0  0  0  0
 25 39  1  0  0  0  0
 26 27  1  0  0  0  0
 26 37  1  0  0  0  0
 26 38  1  0  0  0  0
 27 28  2  0  0  0  0
 27 33  1  0  0  0  0
 28 29  1  0  0  0  0
 28 36  1  0  0  0  0
 29 30  2  0  0  0  0
 29 31  1  0  0  0  0
 31 32  1  0  0  0  0
 31 35  1  0  0  0  0
 32 33  2  0  0  0  0
 32 34  1  0  0  0  0
 39 40  2  0  0  0  0
 39 41  1  0  0  0  0
 41 42  2  0  0  0  0
 41 47  1  0  0  0  0
 42 43  1  0  0  0  0
 42 50  1  0  0  0  0
 43 44  2  0  0  0  0
 43 49  1  0  0  0  0
 44 45  1  0  0  0  0
 44 46  1  0  0  0  0
 46 47  2  0  0  0  0
 46 48  1  0  0  0  0
M  END
>  <MODEL>
       1

$$$$
