tmp_first_model_17_30.pdb
 OpenBabel08282502223D

 58 63  0  0  1  0  0  0  0  0999 V2000
  -10.2610   -0.9300  -23.4610 C   0  0  0  0  0  0  0  0  0  0  0  0
   -8.8780   -1.4370  -23.0580 C   0  0  1  0  0  0  0  0  0  0  0  0
   -8.2920   -0.5690  -21.9350 C   0  0  0  0  0  0  0  0  0  0  0  0
   -7.3470   -1.4440  -21.2730 N   0  0  0  0  0  0  0  0  0  0  0  0
   -6.5700   -0.9540  -20.1940 C   0  0  0  0  0  0  0  0  0  0  0  0
   -6.9030   -1.2020  -18.8850 C   0  0  0  0  0  0  0  0  0  0  0  0
   -6.2750   -0.6370  -17.8200 N   0  0  0  0  0  0  0  0  0  0  0  0
   -5.2740    0.1770  -18.0610 C   0  0  0  0  0  0  0  0  0  0  0  0
   -4.8080    0.5000  -19.3680 C   0  0  0  0  0  0  0  0  0  0  0  0
   -3.7020    1.3630  -19.5910 C   0  0  0  0  0  0  0  0  0  0  0  0
   -3.3010    1.6570  -20.8650 C   0  0  0  0  0  0  0  0  0  0  0  0
   -3.9820    1.1070  -21.9740 C   0  0  0  0  0  0  0  0  0  0  0  0
   -5.0460    0.2610  -21.7840 C   0  0  0  0  0  0  0  0  0  0  0  0
   -5.4820   -0.0650  -20.4720 C   0  0  0  0  0  0  0  0  0  0  0  0
   -5.5570   -0.1760  -22.6350 H   0  0  0  0  0  0  0  0  0  0  0  0
   -3.6550    1.3500  -22.9810 H   0  0  0  0  0  0  0  0  0  0  0  0
   -2.4510    2.3110  -21.0390 H   0  0  0  0  0  0  0  0  0  0  0  0
   -3.1850    1.7840  -18.7330 H   0  0  0  0  0  0  0  0  0  0  0  0
   -4.7730    0.6270  -17.2010 H   0  0  0  0  0  0  0  0  0  0  0  0
   -7.7220   -1.8740  -18.6390 H   0  0  0  0  0  0  0  0  0  0  0  0
   -7.6630   -2.7780  -21.4440 C   0  0  0  0  0  0  0  0  0  0  0  0
   -7.1150   -3.6850  -20.8490 O   0  0  0  0  0  0  0  0  0  0  0  0
   -8.7680   -2.9150  -22.5210 C   0  0  1  0  0  0  0  0  0  0  0  0
  -10.0490   -3.3990  -21.8100 C   0  0  0  0  0  0  0  0  0  0  0  0
  -11.0820   -3.8620  -22.7390 N   0  0  0  0  0  0  0  0  0  0  0  0
  -12.4910   -3.7390  -22.3690 C   0  0  0  0  0  0  0  0  0  0  0  0
  -13.2600   -2.6470  -23.0890 C   0  0  0  0  0  0  0  0  0  0  0  0
  -13.5660   -1.4780  -22.4540 C   0  0  0  0  0  0  0  0  0  0  0  0
  -14.3160   -0.4210  -23.0970 C   0  0  0  0  0  0  0  0  0  0  0  0
  -14.5830    0.6970  -22.6960 O   0  0  0  0  0  0  0  0  0  0  0  0
  -14.7400   -0.8300  -24.3670 N   0  0  0  0  0  0  0  0  0  0  0  0
  -14.4480   -2.0350  -24.9200 C   0  0  0  0  0  0  0  0  0  0  0  0
  -13.7280   -2.9440  -24.3550 N   0  0  0  0  0  0  0  0  0  0  0  0
  -14.8770   -2.2020  -25.9130 H   0  0  0  0  0  0  0  0  0  0  0  0
  -15.1670   -0.0810  -24.8950 H   0  0  0  0  0  0  0  0  0  0  0  0
  -13.1980   -1.2740  -21.4730 H   0  0  0  0  0  0  0  0  0  0  0  0
  -12.9760   -4.6880  -22.6100 H   0  0  0  0  0  0  0  0  0  0  0  0
  -12.5620   -3.5510  -21.2920 H   0  0  0  0  0  0  0  0  0  0  0  0
  -10.7860   -4.7390  -23.7520 C   0  0  0  0  0  0  0  0  0  0  0  0
  -11.6320   -5.4150  -24.3200 O   0  0  0  0  0  0  0  0  0  0  0  0
   -9.3440   -4.8220  -24.1230 C   0  0  0  0  0  0  0  0  0  0  0  0
   -8.9820   -5.7770  -25.0730 C   0  0  0  0  0  0  0  0  0  0  0  0
   -7.6750   -5.8890  -25.5030 C   0  0  0  0  0  0  0  0  0  0  0  0
   -6.7410   -5.0090  -24.9730 C   0  0  0  0  0  0  0  0  0  0  0  0
   -5.4700   -5.0980  -25.4000 F   0  0  0  0  0  0  0  0  0  0  0  0
   -7.0710   -4.0590  -24.0250 C   0  0  0  0  0  0  0  0  0  0  0  0
   -8.3930   -3.9550  -23.5690 C   0  0  0  0  0  0  0  0  0  0  0  0
   -6.2850   -3.4250  -23.6330 H   0  0  0  0  0  0  0  0  0  0  0  0
   -7.3730   -6.6210  -26.2450 H   0  0  0  0  0  0  0  0  0  0  0  0
   -9.7550   -6.4320  -25.4630 H   0  0  0  0  0  0  0  0  0  0  0  0
   -9.7630   -4.1910  -21.1060 H   0  0  0  0  0  0  0  0  0  0  0  0
  -10.4460   -2.5710  -21.2200 H   0  0  0  0  0  0  0  0  0  0  0  0
   -9.0750   -0.2480  -21.2280 H   0  0  0  0  0  0  0  0  0  0  0  0
   -7.8010    0.3410  -22.2930 H   0  0  0  0  0  0  0  0  0  0  0  0
   -8.2060   -1.3830  -23.9230 H   0  0  0  0  0  0  0  0  0  0  0  0
  -10.8530   -0.7130  -22.5650 H   0  0  0  0  0  0  0  0  0  0  0  0
  -10.8200   -1.6580  -24.0560 H   0  0  0  0  0  0  0  0  0  0  0  0
  -10.1790    0.0030  -24.0280 H   0  0  0  0  0  0  0  0  0  0  0  0
  1  2  1  0  0  0  0
  1 56  1  0  0  0  0
  1 57  1  0  0  0  0
  1 58  1  0  0  0  0
  2  3  1  0  0  0  0
  2 23  1  0  0  0  0
  2 55  1  6  0  0  0
  3  4  1  0  0  0  0
  3 53  1  0  0  0  0
  3 54  1  0  0  0  0
  4  5  1  0  0  0  0
  4 21  1  0  0  0  0
  5  6  2  0  0  0  0
  5 14  1  0  0  0  0
  6  7  1  0  0  0  0
  6 20  1  0  0  0  0
  7  8  2  0  0  0  0
  8  9  1  0  0  0  0
  8 19  1  0  0  0  0
  9 10  2  0  0  0  0
  9 14  1  0  0  0  0
 10 11  1  0  0  0  0
 10 18  1  0  0  0  0
 11 12  2  0  0  0  0
 11 17  1  0  0  0  0
 12 13  1  0  0  0  0
 12 16  1  0  0  0  0
 13 14  2  0  0  0  0
 13 15  1  0  0  0  0
 21 22  2  0  0  0  0
 23 21  1  1  0  0  0
 23 24  1  0  0  0  0
 23 47  1  0  0  0  0
 24 25  1  0  0  0  0
 24 51  1  0  0  0  0
 24 52  1  0  0  0  0
 25 26  1  0  0  0  0
 25 39  1  0  0  0  0
 26 27  1  0  0  0  0
 26 37  1  0  0  0  0
 26 38  1  0  0  0  0
 27 28  2  0  0  0  0
 27 33  1  0  0  0  0
 28 29  1  0  0  0  0
 28 36  1  0  0  0  0
 29 30  2  0  0  0  0
 29 31  1  0  0  0  0
 31 32  1  0  0  0  0
 31 35  1  0  0  0  0
 32 33  2  0  0  0  0
 32 34  1  0  0  0  0
 39 40  2  0  0  0  0
 39 41  1  0  0  0  0
 41 42  2  0  0  0  0
 41 47  1  0  0  0  0
 42 43  1  0  0  0  0
 42 50  1  0  0  0  0
 43 44  2  0  0  0  0
 43 49  1  0  0  0  0
 44 45  1  0  0  0  0
 44 46  1  0  0  0  0
 46 47  2  0  0  0  0
 46 48  1  0  0  0  0
M  END
>  <MODEL>
       1

$$$$
