tmp_first_model_5_26.pdb
 OpenBabel08272519233D

 55 60  0  0  1  0  0  0  0  0999 V2000
  -10.1270   -0.9860  -23.6070 C   0  0  0  0  0  0  0  0  0  0  0  0
   -8.7840   -1.4330  -23.0550 C   0  0  1  0  0  0  0  0  0  0  0  0
   -8.3520   -0.6850  -21.7860 C   0  0  0  0  0  0  0  0  0  0  0  0
   -7.2670   -1.5340  -21.3050 N   0  0  0  0  0  0  0  0  0  0  0  0
   -6.3040   -1.2200  -20.3200 C   0  0  0  0  0  0  0  0  0  0  0  0
   -6.3300   -1.8740  -19.1110 C   0  0  0  0  0  0  0  0  0  0  0  0
   -5.4210   -1.6930  -18.1240 N   0  0  0  0  0  0  0  0  0  0  0  0
   -4.4300   -0.8650  -18.3670 C   0  0  0  0  0  0  0  0  0  0  0  0
   -4.2700   -0.1400  -19.5810 C   0  0  0  0  0  0  0  0  0  0  0  0
   -3.1750    0.7440  -19.7850 C   0  0  0  0  0  0  0  0  0  0  0  0
   -3.1450    1.5560  -20.8820 C   0  0  0  0  0  0  0  0  0  0  0  0
   -4.1610    1.4650  -21.8660 C   0  0  0  0  0  0  0  0  0  0  0  0
   -5.1940    0.5720  -21.7180 C   0  0  0  0  0  0  0  0  0  0  0  0
   -5.2730   -0.2560  -20.5670 C   0  0  0  0  0  0  0  0  0  0  0  0
   -5.9620    0.5180  -22.4790 H   0  0  0  0  0  0  0  0  0  0  0  0
   -4.1210    2.1040  -22.7430 H   0  0  0  0  0  0  0  0  0  0  0  0
   -2.3320    2.2660  -21.0220 H   0  0  0  0  0  0  0  0  0  0  0  0
   -2.4150    0.8180  -19.0150 H   0  0  0  0  0  0  0  0  0  0  0  0
   -3.6940   -0.7260  -17.5740 H   0  0  0  0  0  0  0  0  0  0  0  0
   -7.1250   -2.5890  -18.8960 H   0  0  0  0  0  0  0  0  0  0  0  0
   -7.4100   -2.8450  -21.7310 C   0  0  0  0  0  0  0  0  0  0  0  0
   -6.6880   -3.7580  -21.3830 O   0  0  0  0  0  0  0  0  0  0  0  0
   -8.6360   -2.9420  -22.6590 C   0  0  1  0  0  0  0  0  0  0  0  0
   -9.7690   -3.5110  -21.7700 C   0  0  0  0  0  0  0  0  0  0  0  0
  -11.0140   -3.8240  -22.5020 N   0  0  0  0  0  0  0  0  0  0  0  0
  -12.1850   -4.0580  -21.7530 C   0  0  0  0  0  0  0  0  0  0  0  0
  -13.4120   -3.0470  -21.5270 C   0  0  0  0  0  0  0  0  0  0  0  0
  -14.5110   -3.9520  -21.8490 C   0  0  0  0  0  0  0  0  0  0  0  0
  -15.1390   -1.4500  -22.9670 N   0  0  0  0  0  0  0  0  0  0  0  0
  -14.1550   -1.7780  -23.6090 N   0  0  0  0  0  0  0  0  0  0  0  0
  -13.4160   -3.0650  -21.5320 N   0  0  0  0  0  0  0  0  0  0  0  0
  -14.2870   -1.3880  -24.5660 H   0  0  0  0  0  0  0  0  0  0  0  0
  -15.1790   -1.7980  -21.9890 H   0  0  0  0  0  0  0  0  0  0  0  0
  -12.1500   -4.3440  -20.7340 H   0  0  0  0  0  0  0  0  0  0  0  0
  -13.0150   -4.5250  -22.2200 H   0  0  0  0  0  0  0  0  0  0  0  0
  -10.9160   -4.4950  -23.7200 C   0  0  0  0  0  0  0  0  0  0  0  0
  -11.9000   -4.9270  -24.3000 O   0  0  0  0  0  0  0  0  0  0  0  0
   -9.5360   -4.6590  -24.2750 C   0  0  0  0  0  0  0  0  0  0  0  0
   -9.3630   -5.6270  -25.2620 C   0  0  0  0  0  0  0  0  0  0  0  0
   -8.1090   -5.8960  -25.7770 C   0  0  0  0  0  0  0  0  0  0  0  0
   -7.0360   -5.1530  -25.3020 C   0  0  0  0  0  0  0  0  0  0  0  0
   -5.8090   -5.4180  -25.7870 F   0  0  0  0  0  0  0  0  0  0  0  0
   -7.1750   -4.1690  -24.3400 C   0  0  0  0  0  0  0  0  0  0  0  0
   -8.4430   -3.9220  -23.7930 C   0  0  0  0  0  0  0  0  0  0  0  0
   -6.2840   -3.6540  -23.9910 H   0  0  0  0  0  0  0  0  0  0  0  0
   -7.9460   -6.6630  -26.5250 H   0  0  0  0  0  0  0  0  0  0  0  0
  -10.2370   -6.1770  -25.5880 H   0  0  0  0  0  0  0  0  0  0  0  0
   -9.3700   -4.4210  -21.2940 H   0  0  0  0  0  0  0  0  0  0  0  0
  -10.0110   -2.7980  -20.9830 H   0  0  0  0  0  0  0  0  0  0  0  0
   -8.0350    0.3480  -21.9610 H   0  0  0  0  0  0  0  0  0  0  0  0
   -9.1810   -0.6330  -21.0580 H   0  0  0  0  0  0  0  0  0  0  0  0
   -8.0070   -1.2550  -23.8080 H   0  0  0  0  0  0  0  0  0  0  0  0
  -10.1190    0.0750  -23.8850 H   0  0  0  0  0  0  0  0  0  0  0  0
  -10.4030   -1.5780  -24.4840 H   0  0  0  0  0  0  0  0  0  0  0  0
  -10.9010   -1.1250  -22.8480 H   0  0  0  0  0  0  0  0  0  0  0  0
  1  2  1  0  0  0  0
  1 53  1  0  0  0  0
  1 54  1  0  0  0  0
  1 55  1  0  0  0  0
  2  3  1  0  0  0  0
  2 23  1  0  0  0  0
  2 52  1  6  0  0  0
  3  4  1  0  0  0  0
  3 50  1  0  0  0  0
  3 51  1  0  0  0  0
  4  5  1  0  0  0  0
  4 21  1  0  0  0  0
  5  6  2  0  0  0  0
  5 14  1  0  0  0  0
  6  7  1  0  0  0  0
  6 20  1  0  0  0  0
  7  8  2  0  0  0  0
  8  9  1  0  0  0  0
  8 19  1  0  0  0  0
  9 10  2  0  0  0  0
  9 14  1  0  0  0  0
 10 11  1  0  0  0  0
 10 18  1  0  0  0  0
 11 12  2  0  0  0  0
 11 17  1  0  0  0  0
 12 13  1  0  0  0  0
 12 16  1  0  0  0  0
 13 14  2  0  0  0  0
 13 15  1  0  0  0  0
 21 22  2  0  0  0  0
 23 21  1  1  0  0  0
 23 24  1  0  0  0  0
 23 44  1  0  0  0  0
 24 25  1  0  0  0  0
 24 48  1  0  0  0  0
 24 49  1  0  0  0  0
 25 26  1  0  0  0  0
 25 36  1  0  0  0  0
 26 27  1  0  0  0  0
 26 34  1  0  0  0  0
 26 35  1  0  0  0  0
 27 28  1  0  0  0  0
 27 31  2  0  0  0  0
 28 29  2  0  0  0  0
 28 33  1  0  0  0  0
 29 30  1  0  0  0  0
 30 31  1  0  0  0  0
 30 32  1  0  0  0  0
 36 37  2  0  0  0  0
 36 38  1  0  0  0  0
 38 39  2  0  0  0  0
 38 44  1  0  0  0  0
 39 40  1  0  0  0  0
 39 47  1  0  0  0  0
 40 41  2  0  0  0  0
 40 46  1  0  0  0  0
 41 42  1  0  0  0  0
 41 43  1  0  0  0  0
 43 44  2  0  0  0  0
 43 45  1  0  0  0  0
M  END
>  <MODEL>
       1

$$$$
