tmp_first_model_13_41.pdb
 OpenBabel08282500103D

 67 71  0  0  1  0  0  0  0  0999 V2000
   -7.5900    2.9360  -21.7950 C   0  0  0  0  0  0  0  0  0  0  0  0
   -8.7240    2.4730  -22.5920 N   0  0  0  0  0  0  0  0  0  0  0  0
   -8.4630    1.7230  -23.7010 C   0  0  0  0  0  0  0  0  0  0  0  0
   -7.3170    1.4820  -24.0560 O   0  0  0  0  0  0  0  0  0  0  0  0
   -9.6720    1.1770  -24.4790 C   0  0  0  0  0  0  0  0  0  0  0  0
  -10.1260   -0.0700  -23.8960 N   0  0  0  0  0  0  0  0  0  0  0  0
   -9.2430   -1.2290  -23.8930 C   0  0  0  0  0  0  0  0  0  0  0  0
   -9.3110   -1.9700  -22.5260 C   0  0  2  0  0  0  0  0  0  0  0  0
   -8.7100   -1.0300  -21.4400 C   0  0  0  0  0  0  0  0  0  0  0  0
   -9.2380   -0.0610  -20.9330 O   0  0  0  0  0  0  0  0  0  0  0  0
   -7.4140   -1.4370  -21.1780 N   0  0  0  0  0  0  0  0  0  0  0  0
   -6.6250   -0.8320  -20.1670 C   0  0  0  0  0  0  0  0  0  0  0  0
   -6.9370   -1.0400  -18.8440 C   0  0  0  0  0  0  0  0  0  0  0  0
   -6.2220   -0.5430  -17.8100 N   0  0  0  0  0  0  0  0  0  0  0  0
   -5.1780    0.1950  -18.0900 C   0  0  0  0  0  0  0  0  0  0  0  0
   -4.7450    0.4970  -19.4110 C   0  0  0  0  0  0  0  0  0  0  0  0
   -3.6280    1.3390  -19.6540 C   0  0  0  0  0  0  0  0  0  0  0  0
   -3.2550    1.6410  -20.9350 C   0  0  0  0  0  0  0  0  0  0  0  0
   -3.9840    1.1210  -22.0260 C   0  0  0  0  0  0  0  0  0  0  0  0
   -5.0770    0.3070  -21.8160 C   0  0  0  0  0  0  0  0  0  0  0  0
   -5.4840   -0.0350  -20.4960 C   0  0  0  0  0  0  0  0  0  0  0  0
   -5.6760   -0.0070  -22.6660 H   0  0  0  0  0  0  0  0  0  0  0  0
   -3.6970    1.3790  -23.0410 H   0  0  0  0  0  0  0  0  0  0  0  0
   -2.4110    2.3000  -21.1180 H   0  0  0  0  0  0  0  0  0  0  0  0
   -3.0970    1.7460  -18.7980 H   0  0  0  0  0  0  0  0  0  0  0  0
   -4.6170    0.6010  -17.2480 H   0  0  0  0  0  0  0  0  0  0  0  0
   -7.7980   -1.6500  -18.5830 H   0  0  0  0  0  0  0  0  0  0  0  0
   -6.9820   -2.5700  -21.9700 C   0  0  0  0  0  0  0  0  0  0  0  0
   -8.3200   -3.1680  -22.4480 C   0  0  2  0  0  0  0  0  0  0  0  0
   -8.2150   -3.9740  -23.7390 C   0  0  0  0  0  0  0  0  0  0  0  0
   -7.2720   -5.4750  -23.5250 S   0  0  0  0  0  0  0  0  0  0  0  0
   -5.8690   -5.1120  -23.3750 O   0  0  0  0  0  0  0  0  0  0  0  0
   -7.9530   -6.2930  -22.5280 O   0  0  0  0  0  0  0  0  0  0  0  0
   -7.4310   -6.2340  -24.9890 N   0  0  0  0  0  0  0  0  0  0  0  0
   -8.6750   -6.9450  -25.2490 C   0  0  0  0  0  0  0  0  0  0  0  0
   -9.5100   -6.2900  -25.5430 H   0  0  0  0  0  0  0  0  0  0  0  0
   -8.5040   -7.6560  -26.0620 H   0  0  0  0  0  0  0  0  0  0  0  0
   -8.9550   -7.5050  -24.3550 H   0  0  0  0  0  0  0  0  0  0  0  0
   -6.7500   -5.6440  -26.1340 C   0  0  0  0  0  0  0  0  0  0  0  0
   -7.2880   -4.7940  -26.5820 H   0  0  0  0  0  0  0  0  0  0  0  0
   -6.6430   -6.4120  -26.9050 H   0  0  0  0  0  0  0  0  0  0  0  0
   -5.7490   -5.3210  -25.8360 H   0  0  0  0  0  0  0  0  0  0  0  0
   -9.2170   -4.2610  -24.0780 H   0  0  0  0  0  0  0  0  0  0  0  0
   -7.7190   -3.3860  -24.5210 H   0  0  0  0  0  0  0  0  0  0  0  0
   -8.6570   -3.8340  -21.6460 H   0  0  0  0  0  0  0  0  0  0  0  0
   -6.3500   -2.2570  -22.8150 H   0  0  0  0  0  0  0  0  0  0  0  0
   -6.3990   -3.2850  -21.3830 H   0  0  0  0  0  0  0  0  0  0  0  0
  -10.7850   -2.2910  -22.2860 C   0  0  0  0  0  0  0  0  0  0  0  0
  -11.2310   -3.4150  -21.5730 C   0  0  0  0  0  0  0  0  0  0  0  0
  -12.5580   -3.4820  -21.1770 C   0  0  0  0  0  0  0  0  0  0  0  0
  -12.9490   -4.3670  -20.2450 F   0  0  0  0  0  0  0  0  0  0  0  0
  -13.5280   -2.5980  -21.6180 C   0  0  0  0  0  0  0  0  0  0  0  0
  -13.1180   -1.5610  -22.4210 C   0  0  0  0  0  0  0  0  0  0  0  0
  -11.7680   -1.3820  -22.7110 C   0  0  0  0  0  0  0  0  0  0  0  0
  -11.4200   -0.1470  -23.4710 C   0  0  0  0  0  0  0  0  0  0  0  0
  -12.2430    0.7320  -23.6860 O   0  0  0  0  0  0  0  0  0  0  0  0
  -13.8300   -0.8610  -22.8350 H   0  0  0  0  0  0  0  0  0  0  0  0
  -14.5560   -2.7220  -21.2990 H   0  0  0  0  0  0  0  0  0  0  0  0
  -10.5590   -4.1850  -21.2130 H   0  0  0  0  0  0  0  0  0  0  0  0
   -9.5240   -1.9160  -24.7060 H   0  0  0  0  0  0  0  0  0  0  0  0
   -8.2290   -0.8670  -24.0810 H   0  0  0  0  0  0  0  0  0  0  0  0
   -9.3820    1.0270  -25.5270 H   0  0  0  0  0  0  0  0  0  0  0  0
  -10.5300    1.8590  -24.4710 H   0  0  0  0  0  0  0  0  0  0  0  0
   -9.6030    2.3300  -22.1070 H   0  0  0  0  0  0  0  0  0  0  0  0
   -7.9600    3.3510  -20.8590 H   0  0  0  0  0  0  0  0  0  0  0  0
   -6.9120    2.1050  -21.5610 H   0  0  0  0  0  0  0  0  0  0  0  0
   -7.0310    3.7250  -22.3150 H   0  0  0  0  0  0  0  0  0  0  0  0
  1  2  1  0  0  0  0
  1 65  1  0  0  0  0
  1 66  1  0  0  0  0
  1 67  1  0  0  0  0
  2  3  1  0  0  0  0
  2 64  1  0  0  0  0
  3  4  2  0  0  0  0
  3  5  1  0  0  0  0
  5  6  1  0  0  0  0
  5 62  1  0  0  0  0
  5 63  1  0  0  0  0
  6  7  1  0  0  0  0
  6 55  1  0  0  0  0
  7  8  1  0  0  0  0
  7 60  1  0  0  0  0
  7 61  1  0  0  0  0
  8  9  1  1  0  0  0
  8 29  1  0  0  0  0
  8 48  1  0  0  0  0
  9 10  2  0  0  0  0
  9 11  1  0  0  0  0
 11 12  1  0  0  0  0
 11 28  1  0  0  0  0
 12 13  2  0  0  0  0
 12 21  1  0  0  0  0
 13 14  1  0  0  0  0
 13 27  1  0  0  0  0
 14 15  2  0  0  0  0
 15 16  1  0  0  0  0
 15 26  1  0  0  0  0
 16 17  2  0  0  0  0
 16 21  1  0  0  0  0
 17 18  1  0  0  0  0
 17 25  1  0  0  0  0
 18 19  2  0  0  0  0
 18 24  1  0  0  0  0
 19 20  1  0  0  0  0
 19 23  1  0  0  0  0
 20 21  2  0  0  0  0
 20 22  1  0  0  0  0
 28 29  1  0  0  0  0
 28 46  1  0  0  0  0
 28 47  1  0  0  0  0
 29 30  1  0  0  0  0
 29 45  1  1  0  0  0
 30 31  1  0  0  0  0
 30 43  1  0  0  0  0
 30 44  1  0  0  0  0
 31 32  2  0  0  0  0
 31 33  2  0  0  0  0
 31 34  1  0  0  0  0
 34 35  1  0  0  0  0
 34 39  1  0  0  0  0
 35 36  1  0  0  0  0
 35 37  1  0  0  0  0
 35 38  1  0  0  0  0
 39 40  1  0  0  0  0
 39 41  1  0  0  0  0
 39 42  1  0  0  0  0
 48 49  2  0  0  0  0
 48 54  1  0  0  0  0
 49 50  1  0  0  0  0
 49 59  1  0  0  0  0
 50 51  1  0  0  0  0
 50 52  2  0  0  0  0
 52 53  1  0  0  0  0
 52 58  1  0  0  0  0
 53 54  2  0  0  0  0
 53 57  1  0  0  0  0
 54 55  1  0  0  0  0
 55 56  2  0  0  0  0
M  END
>  <MODEL>
       1

$$$$
