tmp_first_model_18_85.pdb
 OpenBabel08282502533D

 57 62  0  0  1  0  0  0  0  0999 V2000
   -9.2680    1.0550  -29.3090 C   0  0  0  0  0  0  0  0  0  0  0  0
   -9.1100    1.4100  -27.9180 N   0  0  0  0  0  0  0  0  0  0  0  0
   -8.2480    0.6780  -27.1620 C   0  0  0  0  0  0  0  0  0  0  0  0
   -7.4970   -0.1710  -27.6140 O   0  0  0  0  0  0  0  0  0  0  0  0
   -8.3200    0.9890  -25.6730 C   0  0  0  0  0  0  0  0  0  0  0  0
   -9.1150   -0.0080  -24.9960 N   0  0  0  0  0  0  0  0  0  0  0  0
   -8.5080   -1.2530  -24.5710 C   0  0  0  0  0  0  0  0  0  0  0  0
   -8.9070   -1.6100  -23.1180 C   0  0  2  0  0  0  0  0  0  0  0  0
   -8.2270   -0.6410  -22.1170 C   0  0  0  0  0  0  0  0  0  0  0  0
   -8.3540    0.5620  -22.0770 O   0  0  0  0  0  0  0  0  0  0  0  0
   -7.4090   -1.3680  -21.2670 N   0  0  0  0  0  0  0  0  0  0  0  0
   -6.6260   -0.8010  -20.2260 C   0  0  0  0  0  0  0  0  0  0  0  0
   -6.9200   -1.0660  -18.9090 C   0  0  0  0  0  0  0  0  0  0  0  0
   -6.2410   -0.5700  -17.8440 N   0  0  0  0  0  0  0  0  0  0  0  0
   -5.2100    0.2020  -18.0950 C   0  0  0  0  0  0  0  0  0  0  0  0
   -4.7600    0.5200  -19.4090 C   0  0  0  0  0  0  0  0  0  0  0  0
   -3.6230    1.3460  -19.6200 C   0  0  0  0  0  0  0  0  0  0  0  0
   -3.1890    1.6150  -20.8900 C   0  0  0  0  0  0  0  0  0  0  0  0
   -3.8630    1.0610  -22.0010 C   0  0  0  0  0  0  0  0  0  0  0  0
   -4.9660    0.2620  -21.8220 C   0  0  0  0  0  0  0  0  0  0  0  0
   -5.4630   -0.0090  -20.5150 C   0  0  0  0  0  0  0  0  0  0  0  0
   -5.4590   -0.1740  -22.6840 H   0  0  0  0  0  0  0  0  0  0  0  0
   -3.5060    1.2720  -23.0050 H   0  0  0  0  0  0  0  0  0  0  0  0
   -2.3270    2.2560  -21.0530 H   0  0  0  0  0  0  0  0  0  0  0  0
   -3.1140    1.7570  -18.7520 H   0  0  0  0  0  0  0  0  0  0  0  0
   -4.6610    0.6070  -17.2430 H   0  0  0  0  0  0  0  0  0  0  0  0
   -7.7740   -1.6930  -18.6580 H   0  0  0  0  0  0  0  0  0  0  0  0
   -7.5980   -2.7920  -21.3760 C   0  0  0  0  0  0  0  0  0  0  0  0
   -8.3710   -2.9800  -22.6680 C   0  0  0  0  0  0  0  0  0  0  0  0
   -9.2170   -4.2090  -22.8220 C   0  0  0  0  0  0  0  0  0  0  0  0
   -7.9760   -4.0550  -23.6450 C   0  0  0  0  0  0  0  0  0  0  0  0
   -7.1170   -4.6880  -23.4370 H   0  0  0  0  0  0  0  0  0  0  0  0
   -8.1040   -3.8340  -24.6990 H   0  0  0  0  0  0  0  0  0  0  0  0
   -9.2420   -4.9240  -22.0040 H   0  0  0  0  0  0  0  0  0  0  0  0
  -10.1730   -4.0810  -23.3180 H   0  0  0  0  0  0  0  0  0  0  0  0
   -6.6380   -3.3100  -21.3670 H   0  0  0  0  0  0  0  0  0  0  0  0
   -8.1860   -3.1610  -20.5350 H   0  0  0  0  0  0  0  0  0  0  0  0
  -10.4310   -1.4870  -23.0750 C   0  0  0  0  0  0  0  0  0  0  0  0
  -11.1440   -2.1630  -22.0870 C   0  0  0  0  0  0  0  0  0  0  0  0
  -12.5240   -2.1260  -22.0610 C   0  0  0  0  0  0  0  0  0  0  0  0
  -13.3080   -3.0960  -20.8470 Cl  0  0  0  0  0  0  0  0  0  0  0  0
  -13.2600   -1.3760  -22.9810 C   0  0  0  0  0  0  0  0  0  0  0  0
  -12.5570   -0.6760  -23.9490 C   0  0  0  0  0  0  0  0  0  0  0  0
  -11.1650   -0.7370  -24.0040 C   0  0  0  0  0  0  0  0  0  0  0  0
  -10.4730    0.0740  -25.0470 C   0  0  0  0  0  0  0  0  0  0  0  0
  -11.0720    0.8070  -25.8350 O   0  0  0  0  0  0  0  0  0  0  0  0
  -13.0460   -0.0200  -24.6620 H   0  0  0  0  0  0  0  0  0  0  0  0
  -14.3460   -1.3520  -22.9420 H   0  0  0  0  0  0  0  0  0  0  0  0
  -10.6080   -2.7810  -21.3790 H   0  0  0  0  0  0  0  0  0  0  0  0
   -7.4290   -1.1820  -24.7030 H   0  0  0  0  0  0  0  0  0  0  0  0
   -8.8630   -2.0430  -25.2420 H   0  0  0  0  0  0  0  0  0  0  0  0
   -8.7380    1.9870  -25.4960 H   0  0  0  0  0  0  0  0  0  0  0  0
   -7.3150    0.9470  -25.2480 H   0  0  0  0  0  0  0  0  0  0  0  0
   -9.9170    1.7800  -27.4320 H   0  0  0  0  0  0  0  0  0  0  0  0
   -9.5350   -0.0020  -29.4240 H   0  0  0  0  0  0  0  0  0  0  0  0
  -10.0450    1.6820  -29.7540 H   0  0  0  0  0  0  0  0  0  0  0  0
   -8.3250    1.2280  -29.8340 H   0  0  0  0  0  0  0  0  0  0  0  0
  1  2  1  0  0  0  0
  1 55  1  0  0  0  0
  1 56  1  0  0  0  0
  1 57  1  0  0  0  0
  2  3  1  0  0  0  0
  2 54  1  0  0  0  0
  3  4  2  0  0  0  0
  3  5  1  0  0  0  0
  5  6  1  0  0  0  0
  5 52  1  0  0  0  0
  5 53  1  0  0  0  0
  6  7  1  0  0  0  0
  6 45  1  0  0  0  0
  7  8  1  0  0  0  0
  7 50  1  0  0  0  0
  7 51  1  0  0  0  0
  8  9  1  1  0  0  0
  8 29  1  0  0  0  0
  8 38  1  0  0  0  0
  9 10  2  0  0  0  0
  9 11  1  0  0  0  0
 11 12  1  0  0  0  0
 11 28  1  0  0  0  0
 12 13  2  0  0  0  0
 12 21  1  0  0  0  0
 13 14  1  0  0  0  0
 13 27  1  0  0  0  0
 14 15  2  0  0  0  0
 15 16  1  0  0  0  0
 15 26  1  0  0  0  0
 16 17  2  0  0  0  0
 16 21  1  0  0  0  0
 17 18  1  0  0  0  0
 17 25  1  0  0  0  0
 18 19  2  0  0  0  0
 18 24  1  0  0  0  0
 19 20  1  0  0  0  0
 19 23  1  0  0  0  0
 20 21  2  0  0  0  0
 20 22  1  0  0  0  0
 28 29  1  0  0  0  0
 28 36  1  0  0  0  0
 28 37  1  0  0  0  0
 29 30  1  0  0  0  0
 29 31  1  0  0  0  0
 30 31  1  0  0  0  0
 30 34  1  0  0  0  0
 30 35  1  0  0  0  0
 31 32  1  0  0  0  0
 31 33  1  0  0  0  0
 38 39  2  0  0  0  0
 38 44  1  0  0  0  0
 39 40  1  0  0  0  0
 39 49  1  0  0  0  0
 40 41  1  0  0  0  0
 40 42  2  0  0  0  0
 42 43  1  0  0  0  0
 42 48  1  0  0  0  0
 43 44  2  0  0  0  0
 43 47  1  0  0  0  0
 44 45  1  0  0  0  0
 45 46  2  0  0  0  0
M  END
>  <MODEL>
       1

$$$$
