tmp_first_model_10_29.pdb
 OpenBabel08272522163D

 55 60  0  0  1  0  0  0  0  0999 V2000
   -8.3100   -4.1400  -23.4890 C   0  0  0  0  0  0  0  0  0  0  0  0
   -8.5390   -2.9890  -22.5230 C   0  0  1  0  0  0  0  0  0  0  0  0
   -7.4020   -2.8050  -21.5080 C   0  0  0  0  0  0  0  0  0  0  0  0
   -7.4480   -1.3860  -21.2000 N   0  0  0  0  0  0  0  0  0  0  0  0
   -6.6630   -0.7900  -20.1830 C   0  0  0  0  0  0  0  0  0  0  0  0
   -6.9160   -1.0980  -18.8700 C   0  0  0  0  0  0  0  0  0  0  0  0
   -6.2260   -0.6110  -17.8110 N   0  0  0  0  0  0  0  0  0  0  0  0
   -5.2170    0.1860  -18.0710 C   0  0  0  0  0  0  0  0  0  0  0  0
   -4.8310    0.5740  -19.3860 C   0  0  0  0  0  0  0  0  0  0  0  0
   -3.7180    1.4290  -19.6030 C   0  0  0  0  0  0  0  0  0  0  0  0
   -3.4320    1.8880  -20.8590 C   0  0  0  0  0  0  0  0  0  0  0  0
   -4.2180    1.4730  -21.9580 C   0  0  0  0  0  0  0  0  0  0  0  0
   -5.2210    0.5520  -21.7930 C   0  0  0  0  0  0  0  0  0  0  0  0
   -5.5850    0.1050  -20.4870 C   0  0  0  0  0  0  0  0  0  0  0  0
   -5.7670    0.2060  -22.6660 H   0  0  0  0  0  0  0  0  0  0  0  0
   -4.0160    1.8900  -22.9400 H   0  0  0  0  0  0  0  0  0  0  0  0
   -2.6340    2.6090  -21.0120 H   0  0  0  0  0  0  0  0  0  0  0  0
   -3.1160    1.7220  -18.7460 H   0  0  0  0  0  0  0  0  0  0  0  0
   -4.6400    0.5610  -17.2240 H   0  0  0  0  0  0  0  0  0  0  0  0
   -7.7480   -1.7590  -18.6310 H   0  0  0  0  0  0  0  0  0  0  0  0
   -8.1730   -0.6460  -22.1080 C   0  0  0  0  0  0  0  0  0  0  0  0
   -8.2910    0.5650  -22.0700 O   0  0  0  0  0  0  0  0  0  0  0  0
   -8.7560   -1.5790  -23.1810 C   0  0  1  0  0  0  0  0  0  0  0  0
   -7.9610   -1.3000  -24.4830 C   0  0  0  0  0  0  0  0  0  0  0  0
   -8.5950   -1.8520  -25.6760 N   0  0  0  0  0  0  0  0  0  0  0  0
   -7.7820   -2.2850  -26.8040 C   0  0  0  0  0  0  0  0  0  0  0  0
   -7.7240   -3.7840  -26.9220 C   0  0  0  0  0  0  0  0  0  0  0  0
   -6.6480   -4.6660  -26.7440 C   0  0  0  0  0  0  0  0  0  0  0  0
   -7.0610   -5.9090  -26.9990 N   0  0  0  0  0  0  0  0  0  0  0  0
   -8.3320   -5.7380  -27.3050 N   0  0  0  0  0  0  0  0  0  0  0  0
   -8.7910   -4.4990  -27.2800 N   0  0  0  0  0  0  0  0  0  0  0  0
   -8.9150   -6.5100  -27.6050 H   0  0  0  0  0  0  0  0  0  0  0  0
   -5.6350   -4.4390  -26.4240 H   0  0  0  0  0  0  0  0  0  0  0  0
   -6.7880   -1.8270  -26.7350 H   0  0  0  0  0  0  0  0  0  0  0  0
   -8.2630   -1.9020  -27.7090 H   0  0  0  0  0  0  0  0  0  0  0  0
   -9.9380   -1.7280  -25.9140 C   0  0  0  0  0  0  0  0  0  0  0  0
  -10.4310   -1.9160  -27.0200 O   0  0  0  0  0  0  0  0  0  0  0  0
  -10.7710   -1.3850  -24.7360 C   0  0  0  0  0  0  0  0  0  0  0  0
  -12.1350   -1.2120  -24.9580 C   0  0  0  0  0  0  0  0  0  0  0  0
  -12.9910   -0.9160  -23.9200 C   0  0  0  0  0  0  0  0  0  0  0  0
  -12.4330   -0.8340  -22.6500 C   0  0  0  0  0  0  0  0  0  0  0  0
  -13.2630   -0.6050  -21.6300 F   0  0  0  0  0  0  0  0  0  0  0  0
  -11.0830   -1.0100  -22.3980 C   0  0  0  0  0  0  0  0  0  0  0  0
  -10.2190   -1.2910  -23.4570 C   0  0  0  0  0  0  0  0  0  0  0  0
  -10.6910   -0.9420  -21.3920 H   0  0  0  0  0  0  0  0  0  0  0  0
  -14.0560   -0.7570  -24.0740 H   0  0  0  0  0  0  0  0  0  0  0  0
  -12.4960   -1.3310  -25.9720 H   0  0  0  0  0  0  0  0  0  0  0  0
   -6.9430   -1.6990  -24.3980 H   0  0  0  0  0  0  0  0  0  0  0  0
   -7.8670   -0.2090  -24.5900 H   0  0  0  0  0  0  0  0  0  0  0  0
   -7.5600   -3.3990  -20.6020 H   0  0  0  0  0  0  0  0  0  0  0  0
   -6.4210   -3.0880  -21.9200 H   0  0  0  0  0  0  0  0  0  0  0  0
   -9.4520   -3.1900  -21.9420 H   0  0  0  0  0  0  0  0  0  0  0  0
   -8.2450   -5.0860  -22.9440 H   0  0  0  0  0  0  0  0  0  0  0  0
   -9.1270   -4.2020  -24.2130 H   0  0  0  0  0  0  0  0  0  0  0  0
   -7.3740   -3.9930  -24.0360 H   0  0  0  0  0  0  0  0  0  0  0  0
  1  2  1  0  0  0  0
  1 53  1  0  0  0  0
  1 54  1  0  0  0  0
  1 55  1  0  0  0  0
  2  3  1  0  0  0  0
  2 23  1  0  0  0  0
  2 52  1  1  0  0  0
  3  4  1  0  0  0  0
  3 50  1  0  0  0  0
  3 51  1  0  0  0  0
  4  5  1  0  0  0  0
  4 21  1  0  0  0  0
  5  6  2  0  0  0  0
  5 14  1  0  0  0  0
  6  7  1  0  0  0  0
  6 20  1  0  0  0  0
  7  8  2  0  0  0  0
  8  9  1  0  0  0  0
  8 19  1  0  0  0  0
  9 10  2  0  0  0  0
  9 14  1  0  0  0  0
 10 11  1  0  0  0  0
 10 18  1  0  0  0  0
 11 12  2  0  0  0  0
 11 17  1  0  0  0  0
 12 13  1  0  0  0  0
 12 16  1  0  0  0  0
 13 14  2  0  0  0  0
 13 15  1  0  0  0  0
 21 22  2  0  0  0  0
 23 21  1  1  0  0  0
 23 24  1  0  0  0  0
 23 44  1  0  0  0  0
 24 25  1  0  0  0  0
 24 48  1  0  0  0  0
 24 49  1  0  0  0  0
 25 26  1  0  0  0  0
 25 36  1  0  0  0  0
 26 27  1  0  0  0  0
 26 34  1  0  0  0  0
 26 35  1  0  0  0  0
 27 28  1  0  0  0  0
 27 31  2  0  0  0  0
 28 29  2  0  0  0  0
 28 33  1  0  0  0  0
 29 30  1  0  0  0  0
 30 31  1  0  0  0  0
 30 32  1  0  0  0  0
 36 37  2  0  0  0  0
 36 38  1  0  0  0  0
 38 39  2  0  0  0  0
 38 44  1  0  0  0  0
 39 40  1  0  0  0  0
 39 47  1  0  0  0  0
 40 41  2  0  0  0  0
 40 46  1  0  0  0  0
 41 42  1  0  0  0  0
 41 43  1  0  0  0  0
 43 44  2  0  0  0  0
 43 45  1  0  0  0  0
M  END
>  <MODEL>
       1

$$$$
