tmp_first_model_1_10.pdb
 OpenBabel08272517043D

 57 62  0  0  1  0  0  0  0  0999 V2000
  -10.2140   -2.9600  -22.0700 C   0  0  0  0  0  0  0  0  0  0  0  0
   -9.1530   -2.0040  -22.6290 C   0  0  1  0  0  0  0  0  0  0  0  0
   -8.6930   -1.0100  -21.5490 C   0  0  0  0  0  0  0  0  0  0  0  0
   -7.3640   -1.4430  -21.1950 N   0  0  0  0  0  0  0  0  0  0  0  0
   -6.5840   -0.8420  -20.1900 C   0  0  0  0  0  0  0  0  0  0  0  0
   -6.9180   -1.0520  -18.8790 C   0  0  0  0  0  0  0  0  0  0  0  0
   -6.2300   -0.5600  -17.8240 N   0  0  0  0  0  0  0  0  0  0  0  0
   -5.1920    0.1960  -18.0930 C   0  0  0  0  0  0  0  0  0  0  0  0
   -4.7520    0.5090  -19.4120 C   0  0  0  0  0  0  0  0  0  0  0  0
   -3.6270    1.3460  -19.6330 C   0  0  0  0  0  0  0  0  0  0  0  0
   -3.2340    1.6530  -20.9060 C   0  0  0  0  0  0  0  0  0  0  0  0
   -3.9450    1.1440  -22.0160 C   0  0  0  0  0  0  0  0  0  0  0  0
   -5.0380    0.3320  -21.8340 C   0  0  0  0  0  0  0  0  0  0  0  0
   -5.4610   -0.0170  -20.5130 C   0  0  0  0  0  0  0  0  0  0  0  0
   -5.5790   -0.0410  -22.7050 H   0  0  0  0  0  0  0  0  0  0  0  0
   -3.6260    1.4100  -23.0200 H   0  0  0  0  0  0  0  0  0  0  0  0
   -2.3810    2.3050  -21.0740 H   0  0  0  0  0  0  0  0  0  0  0  0
   -3.1060    1.7470  -18.7700 H   0  0  0  0  0  0  0  0  0  0  0  0
   -4.6420    0.6120  -17.2480 H   0  0  0  0  0  0  0  0  0  0  0  0
   -7.7730   -1.6860  -18.6510 H   0  0  0  0  0  0  0  0  0  0  0  0
   -6.8390   -2.4040  -22.0150 C   0  0  0  0  0  0  0  0  0  0  0  0
   -5.7660   -2.9440  -21.8310 O   0  0  0  0  0  0  0  0  0  0  0  0
   -7.8430   -2.6630  -23.1500 C   0  0  1  0  0  0  0  0  0  0  0  0
   -7.9590   -4.1720  -23.3460 C   0  0  0  0  0  0  0  0  0  0  0  0
   -6.7170   -4.6890  -23.8830 N   0  0  0  0  0  0  0  0  0  0  0  0
   -6.2910   -6.0050  -23.4370 C   0  0  0  0  0  0  0  0  0  0  0  0
   -7.1590   -7.0640  -24.0620 C   0  0  0  0  0  0  0  0  0  0  0  0
   -7.0950   -7.5760  -25.3120 C   0  0  0  0  0  0  0  0  0  0  0  0
   -8.2660   -8.2690  -25.5440 N   0  3  0  0  0  0  0  0  0  0  0  0
   -9.0260   -8.1820  -24.4500 C   0  0  0  0  0  0  0  0  0  0  0  0
   -8.3730   -7.4720  -23.5180 N   0  0  0  0  0  0  0  0  0  0  0  0
   -8.6980   -7.2310  -22.5860 H   0  0  0  0  0  0  0  0  0  0  0  0
   -9.9980   -8.6100  -24.3090 H   0  0  0  0  0  0  0  0  0  0  0  0
   -8.4140   -8.8400  -26.3730 H   0  0  0  0  0  0  0  0  0  0  0  0
   -6.3160   -7.4970  -26.0560 H   0  0  0  0  0  0  0  0  0  0  0  0
   -5.2410   -6.1250  -23.7290 H   0  0  0  0  0  0  0  0  0  0  0  0
   -6.3430   -6.0110  -22.3350 H   0  0  0  0  0  0  0  0  0  0  0  0
   -6.2310   -4.2220  -25.0720 C   0  0  0  0  0  0  0  0  0  0  0  0
   -5.5000   -4.8850  -25.7990 O   0  0  0  0  0  0  0  0  0  0  0  0
   -6.6110   -2.8130  -25.3700 C   0  0  0  0  0  0  0  0  0  0  0  0
   -6.1720   -2.2690  -26.5750 C   0  0  0  0  0  0  0  0  0  0  0  0
   -6.3940   -0.9440  -26.8780 C   0  0  0  0  0  0  0  0  0  0  0  0
   -7.0720   -0.1820  -25.9340 C   0  0  0  0  0  0  0  0  0  0  0  0
   -7.2800    1.1180  -26.2000 F   0  0  0  0  0  0  0  0  0  0  0  0
   -7.5460   -0.6990  -24.7410 C   0  0  0  0  0  0  0  0  0  0  0  0
   -7.3400   -2.0530  -24.4510 C   0  0  0  0  0  0  0  0  0  0  0  0
   -8.0850   -0.0440  -24.0630 H   0  0  0  0  0  0  0  0  0  0  0  0
   -6.0380   -0.4860  -27.7970 H   0  0  0  0  0  0  0  0  0  0  0  0
   -5.6420   -2.9200  -27.2560 H   0  0  0  0  0  0  0  0  0  0  0  0
   -8.1550   -4.6510  -22.3860 H   0  0  0  0  0  0  0  0  0  0  0  0
   -8.8000   -4.3900  -24.0190 H   0  0  0  0  0  0  0  0  0  0  0  0
   -8.7000    0.0330  -21.8910 H   0  0  0  0  0  0  0  0  0  0  0  0
   -9.3370   -1.0520  -20.6790 H   0  0  0  0  0  0  0  0  0  0  0  0
   -9.6370   -1.4720  -23.4510 H   0  0  0  0  0  0  0  0  0  0  0  0
  -11.0760   -2.3950  -21.6990 H   0  0  0  0  0  0  0  0  0  0  0  0
  -10.5810   -3.6450  -22.8370 H   0  0  0  0  0  0  0  0  0  0  0  0
   -9.8260   -3.5560  -21.2380 H   0  0  0  0  0  0  0  0  0  0  0  0
  1  2  1  0  0  0  0
  1 55  1  0  0  0  0
  1 56  1  0  0  0  0
  1 57  1  0  0  0  0
  2  3  1  0  0  0  0
  2 23  1  0  0  0  0
  2 54  1  6  0  0  0
  3  4  1  0  0  0  0
  3 52  1  0  0  0  0
  3 53  1  0  0  0  0
  4  5  1  0  0  0  0
  4 21  1  0  0  0  0
  5  6  2  0  0  0  0
  5 14  1  0  0  0  0
  6  7  1  0  0  0  0
  6 20  1  0  0  0  0
  7  8  2  0  0  0  0
  8  9  1  0  0  0  0
  8 19  1  0  0  0  0
  9 10  2  0  0  0  0
  9 14  1  0  0  0  0
 10 11  1  0  0  0  0
 10 18  1  0  0  0  0
 11 12  2  0  0  0  0
 11 17  1  0  0  0  0
 12 13  1  0  0  0  0
 12 16  1  0  0  0  0
 13 14  2  0  0  0  0
 13 15  1  0  0  0  0
 21 22  2  0  0  0  0
 23 21  1  1  0  0  0
 23 24  1  0  0  0  0
 23 46  1  0  0  0  0
 24 25  1  0  0  0  0
 24 50  1  0  0  0  0
 24 51  1  0  0  0  0
 25 26  1  0  0  0  0
 25 38  1  0  0  0  0
 26 27  1  0  0  0  0
 26 36  1  0  0  0  0
 26 37  1  0  0  0  0
 27 28  2  0  0  0  0
 27 31  1  0  0  0  0
 28 29  1  0  0  0  0
 28 35  1  0  0  0  0
 29 30  2  0  0  0  0
 29 34  1  0  0  0  0
 30 31  1  0  0  0  0
 30 33  1  0  0  0  0
 31 32  1  0  0  0  0
 38 39  2  0  0  0  0
 38 40  1  0  0  0  0
 40 41  2  0  0  0  0
 40 46  1  0  0  0  0
 41 42  1  0  0  0  0
 41 49  1  0  0  0  0
 42 43  2  0  0  0  0
 42 48  1  0  0  0  0
 43 44  1  0  0  0  0
 43 45  1  0  0  0  0
 45 46  2  0  0  0  0
 45 47  1  0  0  0  0
M  CHG  1  29   1
M  END
>  <MODEL>
       1

$$$$
