tmp_first_model_8_27.pdb
 OpenBabel08272521063D

 58 62  0  0  1  0  0  0  0  0999 V2000
   -7.0460    3.5750  -22.0980 C   0  0  0  0  0  0  0  0  0  0  0  0
   -7.2900    2.5320  -23.1010 N   0  3  0  0  0  0  0  0  0  0  0  0
   -8.4470    2.8270  -23.9980 C   0  0  0  0  0  0  0  0  0  0  0  0
   -8.7250    1.6670  -24.9560 C   0  0  0  0  0  0  0  0  0  0  0  0
   -9.3810    0.5280  -24.3210 N   0  0  0  0  0  0  0  0  0  0  0  0
   -8.6760   -0.7320  -24.1890 C   0  0  0  0  0  0  0  0  0  0  0  0
   -9.0690   -1.4870  -22.8970 C   0  0  2  0  0  0  0  0  0  0  0  0
   -8.5310   -0.7310  -21.6560 C   0  0  0  0  0  0  0  0  0  0  0  0
   -8.9670    0.2950  -21.1720 O   0  0  0  0  0  0  0  0  0  0  0  0
   -7.4160   -1.3880  -21.1890 N   0  0  0  0  0  0  0  0  0  0  0  0
   -6.6070   -0.8090  -20.1710 C   0  0  0  0  0  0  0  0  0  0  0  0
   -6.9100   -1.0450  -18.8570 C   0  0  0  0  0  0  0  0  0  0  0  0
   -6.1990   -0.5600  -17.8100 N   0  0  0  0  0  0  0  0  0  0  0  0
   -5.1680    0.2020  -18.0830 C   0  0  0  0  0  0  0  0  0  0  0  0
   -4.7430    0.5380  -19.3990 C   0  0  0  0  0  0  0  0  0  0  0  0
   -3.6200    1.3780  -19.6380 C   0  0  0  0  0  0  0  0  0  0  0  0
   -3.2470    1.6900  -20.9160 C   0  0  0  0  0  0  0  0  0  0  0  0
   -3.9790    1.1760  -22.0080 C   0  0  0  0  0  0  0  0  0  0  0  0
   -5.0580    0.3490  -21.8060 C   0  0  0  0  0  0  0  0  0  0  0  0
   -5.4820    0.0150  -20.4900 C   0  0  0  0  0  0  0  0  0  0  0  0
   -5.5690   -0.0790  -22.6640 H   0  0  0  0  0  0  0  0  0  0  0  0
   -3.6620    1.4080  -23.0220 H   0  0  0  0  0  0  0  0  0  0  0  0
   -2.3790    2.3190  -21.1010 H   0  0  0  0  0  0  0  0  0  0  0  0
   -3.0810    1.7720  -18.7810 H   0  0  0  0  0  0  0  0  0  0  0  0
   -4.6210    0.6090  -17.2320 H   0  0  0  0  0  0  0  0  0  0  0  0
   -7.7640   -1.6690  -18.6010 H   0  0  0  0  0  0  0  0  0  0  0  0
   -7.0550   -2.5680  -21.9500 C   0  0  0  0  0  0  0  0  0  0  0  0
   -8.3140   -2.8530  -22.8000 C   0  0  2  0  0  0  0  0  0  0  0  0
   -7.9710   -3.5630  -24.1200 C   0  0  0  0  0  0  0  0  0  0  0  0
   -7.5150   -4.5460  -23.9350 H   0  0  0  0  0  0  0  0  0  0  0  0
   -8.8580   -3.7220  -24.7480 H   0  0  0  0  0  0  0  0  0  0  0  0
   -7.2500   -2.9790  -24.7100 H   0  0  0  0  0  0  0  0  0  0  0  0
   -8.9600   -3.5120  -22.2140 H   0  0  0  0  0  0  0  0  0  0  0  0
   -6.8020   -3.3940  -21.2740 H   0  0  0  0  0  0  0  0  0  0  0  0
   -6.1730   -2.3860  -22.5860 H   0  0  0  0  0  0  0  0  0  0  0  0
  -10.5830   -1.5580  -22.8300 C   0  0  0  0  0  0  0  0  0  0  0  0
  -11.2260   -2.5130  -22.0340 C   0  0  0  0  0  0  0  0  0  0  0  0
  -12.6030   -2.5160  -21.9570 C   0  0  0  0  0  0  0  0  0  0  0  0
  -13.2090   -3.4420  -21.1950 F   0  0  0  0  0  0  0  0  0  0  0  0
  -13.3900   -1.5890  -22.6300 C   0  0  0  0  0  0  0  0  0  0  0  0
  -12.7590   -0.6070  -23.3650 C   0  0  0  0  0  0  0  0  0  0  0  0
  -11.3670   -0.5690  -23.4470 C   0  0  0  0  0  0  0  0  0  0  0  0
  -10.7340    0.5980  -24.1510 C   0  0  0  0  0  0  0  0  0  0  0  0
  -11.3900    1.5590  -24.5350 O   0  0  0  0  0  0  0  0  0  0  0  0
  -13.3130    0.1720  -23.8770 H   0  0  0  0  0  0  0  0  0  0  0  0
  -14.4670   -1.6440  -22.5410 H   0  0  0  0  0  0  0  0  0  0  0  0
  -10.6860   -3.2400  -21.4380 H   0  0  0  0  0  0  0  0  0  0  0  0
   -8.8790   -1.3860  -25.0530 H   0  0  0  0  0  0  0  0  0  0  0  0
   -7.6030   -0.5090  -24.1550 H   0  0  0  0  0  0  0  0  0  0  0  0
   -7.7820    1.3090  -25.3880 H   0  0  0  0  0  0  0  0  0  0  0  0
   -9.3770    2.0140  -25.7610 H   0  0  0  0  0  0  0  0  0  0  0  0
   -9.3320    3.0130  -23.3810 H   0  0  0  0  0  0  0  0  0  0  0  0
   -8.2390    3.7370  -24.5740 H   0  0  0  0  0  0  0  0  0  0  0  0
   -6.4220    2.4070  -23.6770 H   0  0  0  0  0  0  0  0  0  0  0  0
   -7.5010    1.6400  -22.6020 H   0  0  0  0  0  0  0  0  0  0  0  0
   -6.1760    3.2990  -21.4990 H   0  0  0  0  0  0  0  0  0  0  0  0
   -7.9240    3.6790  -21.4500 H   0  0  0  0  0  0  0  0  0  0  0  0
   -6.8730    4.5500  -22.5690 H   0  0  0  0  0  0  0  0  0  0  0  0
  1  2  1  0  0  0  0
  1 56  1  0  0  0  0
  1 57  1  0  0  0  0
  1 58  1  0  0  0  0
  2  3  1  0  0  0  0
  2 54  1  0  0  0  0
  2 55  1  0  0  0  0
  3  4  1  0  0  0  0
  3 52  1  0  0  0  0
  3 53  1  0  0  0  0
  4  5  1  0  0  0  0
  4 50  1  0  0  0  0
  4 51  1  0  0  0  0
  5  6  1  0  0  0  0
  5 43  1  0  0  0  0
  6  7  1  0  0  0  0
  6 48  1  0  0  0  0
  6 49  1  0  0  0  0
  7  8  1  1  0  0  0
  7 28  1  0  0  0  0
  7 36  1  0  0  0  0
  8  9  2  0  0  0  0
  8 10  1  0  0  0  0
 10 11  1  0  0  0  0
 10 27  1  0  0  0  0
 11 12  2  0  0  0  0
 11 20  1  0  0  0  0
 12 13  1  0  0  0  0
 12 26  1  0  0  0  0
 13 14  2  0  0  0  0
 14 15  1  0  0  0  0
 14 25  1  0  0  0  0
 15 16  2  0  0  0  0
 15 20  1  0  0  0  0
 16 17  1  0  0  0  0
 16 24  1  0  0  0  0
 17 18  2  0  0  0  0
 17 23  1  0  0  0  0
 18 19  1  0  0  0  0
 18 22  1  0  0  0  0
 19 20  2  0  0  0  0
 19 21  1  0  0  0  0
 27 28  1  0  0  0  0
 27 34  1  0  0  0  0
 27 35  1  0  0  0  0
 28 29  1  0  0  0  0
 28 33  1  1  0  0  0
 29 30  1  0  0  0  0
 29 31  1  0  0  0  0
 29 32  1  0  0  0  0
 36 37  2  0  0  0  0
 36 42  1  0  0  0  0
 37 38  1  0  0  0  0
 37 47  1  0  0  0  0
 38 39  1  0  0  0  0
 38 40  2  0  0  0  0
 40 41  1  0  0  0  0
 40 46  1  0  0  0  0
 41 42  2  0  0  0  0
 41 45  1  0  0  0  0
 42 43  1  0  0  0  0
 43 44  2  0  0  0  0
M  CHG  1   2   1
M  END
>  <MODEL>
       1

$$$$
