tmp_first_model_8_17.pdb
 OpenBabel08272521063D

 38 41  0  0  1  0  0  0  0  0999 V2000
   -9.3490   -4.9420  -25.6880 C   0  0  0  0  0  0  0  0  0  0  0  0
   -9.3390   -4.1940  -24.3520 C   0  0  2  0  0  0  0  0  0  0  0  0
  -10.3260   -3.0310  -24.3610 C   0  0  0  0  0  0  0  0  0  0  0  0
  -10.4090   -2.3430  -23.0030 C   0  0  0  0  0  0  0  0  0  0  0  0
   -9.0760   -2.1140  -22.4580 C   0  0  0  0  0  0  0  0  0  0  0  0
   -8.7140   -1.1900  -21.4360 C   0  0  0  0  0  0  0  0  0  0  0  0
   -9.3810   -0.3260  -20.9120 O   0  5  0  0  0  0  0  0  0  0  0  0
   -7.3410   -1.4720  -21.1970 N   0  0  0  0  0  0  0  0  0  0  0  0
   -6.5710   -0.8450  -20.1820 C   0  0  0  0  0  0  0  0  0  0  0  0
   -6.8890   -1.0540  -18.8650 C   0  0  0  0  0  0  0  0  0  0  0  0
   -6.1910   -0.5510  -17.8170 N   0  0  0  0  0  0  0  0  0  0  0  0
   -5.1590    0.2120  -18.0760 C   0  0  0  0  0  0  0  0  0  0  0  0
   -4.7280    0.5330  -19.3910 C   0  0  0  0  0  0  0  0  0  0  0  0
   -3.6020    1.3690  -19.6250 C   0  0  0  0  0  0  0  0  0  0  0  0
   -3.2330    1.6810  -20.9040 C   0  0  0  0  0  0  0  0  0  0  0  0
   -3.9780    1.1850  -21.9960 C   0  0  0  0  0  0  0  0  0  0  0  0
   -5.0580    0.3630  -21.7960 C   0  0  0  0  0  0  0  0  0  0  0  0
   -5.4580    0.0040  -20.4830 C   0  0  0  0  0  0  0  0  0  0  0  0
   -5.6070   -0.0310  -22.6440 H   0  0  0  0  0  0  0  0  0  0  0  0
   -3.6620    1.4170  -23.0090 H   0  0  0  0  0  0  0  0  0  0  0  0
   -2.3690    2.3140  -21.0950 H   0  0  0  0  0  0  0  0  0  0  0  0
   -3.0590    1.7710  -18.7730 H   0  0  0  0  0  0  0  0  0  0  0  0
   -4.6110    0.6190  -17.2220 H   0  0  0  0  0  0  0  0  0  0  0  0
   -7.7400   -1.6730  -18.5970 H   0  0  0  0  0  0  0  0  0  0  0  0
   -6.8600   -2.4210  -22.1190 C   0  0  0  0  0  0  0  0  0  0  0  0
   -5.7270   -2.8230  -22.2450 O   0  0  0  0  0  0  0  0  0  0  0  0
   -7.9730   -2.7840  -22.8640 N   0  0  0  0  0  0  0  0  0  0  0  0
   -7.9400   -3.6830  -24.0070 C   0  0  0  0  0  0  0  0  0  0  0  0
   -7.2730   -4.5010  -23.7550 H   0  0  0  0  0  0  0  0  0  0  0  0
   -7.5080   -3.1770  -24.8740 H   0  0  0  0  0  0  0  0  0  0  0  0
  -10.9620   -1.4000  -23.0740 H   0  0  0  0  0  0  0  0  0  0  0  0
  -11.0000   -2.9640  -22.3120 H   0  0  0  0  0  0  0  0  0  0  0  0
  -10.0340   -2.3150  -25.1400 H   0  0  0  0  0  0  0  0  0  0  0  0
  -11.3270   -3.3950  -24.5830 H   0  0  0  0  0  0  0  0  0  0  0  0
   -9.6510   -4.9010  -23.5730 H   0  0  0  0  0  0  0  0  0  0  0  0
  -10.3430   -5.3450  -25.9200 H   0  0  0  0  0  0  0  0  0  0  0  0
   -8.6490   -5.7870  -25.6930 H   0  0  0  0  0  0  0  0  0  0  0  0
   -9.0730   -4.2810  -26.5200 H   0  0  0  0  0  0  0  0  0  0  0  0
  1  2  1  0  0  0  0
  1 36  1  0  0  0  0
  1 37  1  0  0  0  0
  1 38  1  0  0  0  0
  2  3  1  0  0  0  0
  2 28  1  0  0  0  0
  2 35  1  1  0  0  0
  3  4  1  0  0  0  0
  3 33  1  0  0  0  0
  3 34  1  0  0  0  0
  4  5  1  0  0  0  0
  4 31  1  0  0  0  0
  4 32  1  0  0  0  0
  5  6  2  0  0  0  0
  5 27  1  0  0  0  0
  6  7  1  0  0  0  0
  6  8  1  0  0  0  0
  8  9  1  0  0  0  0
  8 25  1  0  0  0  0
  9 10  2  0  0  0  0
  9 18  1  0  0  0  0
 10 11  1  0  0  0  0
 10 24  1  0  0  0  0
 11 12  2  0  0  0  0
 12 13  1  0  0  0  0
 12 23  1  0  0  0  0
 13 14  2  0  0  0  0
 13 18  1  0  0  0  0
 14 15  1  0  0  0  0
 14 22  1  0  0  0  0
 15 16  2  0  0  0  0
 15 21  1  0  0  0  0
 16 17  1  0  0  0  0
 16 20  1  0  0  0  0
 17 18  2  0  0  0  0
 17 19  1  0  0  0  0
 25 26  2  0  0  0  0
 25 27  1  0  0  0  0
 27 28  1  0  0  0  0
 28 29  1  0  0  0  0
 28 30  1  0  0  0  0
M  CHG  1   7  -1
M  END
>  <MODEL>
       1

$$$$
