tmp_first_model_14_59.pdb
 OpenBabel08282500413D

 60 65  0  0  1  0  0  0  0  0999 V2000
   -7.5420   -5.2290  -27.6380 C   0  0  0  0  0  0  0  0  0  0  0  0
   -8.0590   -3.8890  -27.4180 N   0  0  0  0  0  0  0  0  0  0  0  0
   -7.1890   -2.8450  -27.4250 C   0  0  0  0  0  0  0  0  0  0  0  0
   -6.0300   -2.9600  -27.8040 O   0  0  0  0  0  0  0  0  0  0  0  0
   -7.7340   -1.4900  -26.9570 C   0  0  0  0  0  0  0  0  0  0  0  0
   -8.5420   -1.5370  -25.7410 N   0  0  0  0  0  0  0  0  0  0  0  0
   -7.9440   -1.0930  -24.4800 C   0  0  0  0  0  0  0  0  0  0  0  0
   -8.7450   -1.5060  -23.2070 C   0  0  2  0  0  0  0  0  0  0  0  0
   -8.2490   -0.6020  -22.0630 C   0  0  0  0  0  0  0  0  0  0  0  0
   -8.4580    0.5850  -21.9090 O   0  0  0  0  0  0  0  0  0  0  0  0
   -7.4410   -1.3480  -21.2270 N   0  0  0  0  0  0  0  0  0  0  0  0
   -6.6260   -0.7680  -20.2270 C   0  0  0  0  0  0  0  0  0  0  0  0
   -6.9280   -1.0150  -18.9150 C   0  0  0  0  0  0  0  0  0  0  0  0
   -6.2520   -0.5020  -17.8630 N   0  0  0  0  0  0  0  0  0  0  0  0
   -5.2070    0.2430  -18.1220 C   0  0  0  0  0  0  0  0  0  0  0  0
   -4.7540    0.5380  -19.4370 C   0  0  0  0  0  0  0  0  0  0  0  0
   -3.6100    1.3460  -19.6560 C   0  0  0  0  0  0  0  0  0  0  0  0
   -3.1880    1.6150  -20.9270 C   0  0  0  0  0  0  0  0  0  0  0  0
   -3.8790    1.0760  -22.0360 C   0  0  0  0  0  0  0  0  0  0  0  0
   -4.9870    0.2860  -21.8520 C   0  0  0  0  0  0  0  0  0  0  0  0
   -5.4670    0.0130  -20.5370 C   0  0  0  0  0  0  0  0  0  0  0  0
   -5.5030   -0.1290  -22.7140 H   0  0  0  0  0  0  0  0  0  0  0  0
   -3.5270    1.2970  -23.0380 H   0  0  0  0  0  0  0  0  0  0  0  0
   -2.3200    2.2470  -21.0910 H   0  0  0  0  0  0  0  0  0  0  0  0
   -3.0900    1.7480  -18.7910 H   0  0  0  0  0  0  0  0  0  0  0  0
   -4.6580    0.6480  -17.2720 H   0  0  0  0  0  0  0  0  0  0  0  0
   -7.7790   -1.6520  -18.6800 H   0  0  0  0  0  0  0  0  0  0  0  0
   -7.2220   -2.7090  -21.6580 C   0  0  0  0  0  0  0  0  0  0  0  0
   -8.3710   -2.9350  -22.6470 C   0  0  2  0  0  0  0  0  0  0  0  0
   -8.1240   -4.0650  -23.6680 C   0  0  0  0  0  0  0  0  0  0  0  0
   -6.6850   -4.4520  -23.9210 C   0  0  0  0  0  0  0  0  0  0  0  0
   -5.7340   -3.7160  -24.4860 N   0  0  0  0  0  0  0  0  0  0  0  0
   -4.6370   -4.4810  -24.4620 N   0  0  0  0  0  0  0  0  0  0  0  0
   -4.9260   -5.6240  -23.9070 N   0  5  0  0  0  0  0  0  0  0  0  0
   -6.2110   -5.6370  -23.5600 N   0  0  0  0  0  0  0  0  0  0  0  0
   -8.5920   -3.8130  -24.6170 H   0  0  0  0  0  0  0  0  0  0  0  0
   -8.6040   -4.9730  -23.3000 H   0  0  0  0  0  0  0  0  0  0  0  0
   -9.2510   -3.2230  -22.0510 H   0  0  0  0  0  0  0  0  0  0  0  0
   -7.2610   -3.3790  -20.7980 H   0  0  0  0  0  0  0  0  0  0  0  0
   -6.2340   -2.8390  -22.1210 H   0  0  0  0  0  0  0  0  0  0  0  0
  -10.2460   -1.3860  -23.4590 C   0  0  0  0  0  0  0  0  0  0  0  0
  -11.1730   -1.3750  -22.4000 C   0  0  0  0  0  0  0  0  0  0  0  0
  -12.5400   -1.4190  -22.6630 C   0  0  0  0  0  0  0  0  0  0  0  0
  -13.7160   -1.6560  -21.4000 Cl  0  0  0  0  0  0  0  0  0  0  0  0
  -13.0350   -1.3720  -23.9630 C   0  0  0  0  0  0  0  0  0  0  0  0
  -12.1340   -1.4260  -24.9960 C   0  0  0  0  0  0  0  0  0  0  0  0
  -10.7670   -1.4390  -24.7520 C   0  0  0  0  0  0  0  0  0  0  0  0
   -9.8910   -1.6220  -25.9370 C   0  0  0  0  0  0  0  0  0  0  0  0
  -10.3500   -1.9030  -27.0410 O   0  0  0  0  0  0  0  0  0  0  0  0
  -12.4330   -1.5320  -26.0280 H   0  0  0  0  0  0  0  0  0  0  0  0
  -14.1010   -1.3270  -24.1550 H   0  0  0  0  0  0  0  0  0  0  0  0
  -10.8360   -1.3260  -21.3710 H   0  0  0  0  0  0  0  0  0  0  0  0
   -7.8370    0.0010  -24.4930 H   0  0  0  0  0  0  0  0  0  0  0  0
   -6.9370   -1.5250  -24.4100 H   0  0  0  0  0  0  0  0  0  0  0  0
   -6.8860   -0.8100  -26.8360 H   0  0  0  0  0  0  0  0  0  0  0  0
   -8.3640   -1.0940  -27.7630 H   0  0  0  0  0  0  0  0  0  0  0  0
   -9.0540   -3.7220  -27.3540 H   0  0  0  0  0  0  0  0  0  0  0  0
   -6.9860   -5.2760  -28.5810 H   0  0  0  0  0  0  0  0  0  0  0  0
   -8.3750   -5.9360  -27.6740 H   0  0  0  0  0  0  0  0  0  0  0  0
   -6.8710   -5.5150  -26.8150 H   0  0  0  0  0  0  0  0  0  0  0  0
  1  2  1  0  0  0  0
  1 58  1  0  0  0  0
  1 59  1  0  0  0  0
  1 60  1  0  0  0  0
  2  3  1  0  0  0  0
  2 57  1  0  0  0  0
  3  4  2  0  0  0  0
  3  5  1  0  0  0  0
  5  6  1  0  0  0  0
  5 55  1  0  0  0  0
  5 56  1  0  0  0  0
  6  7  1  0  0  0  0
  6 48  1  0  0  0  0
  7  8  1  0  0  0  0
  7 53  1  0  0  0  0
  7 54  1  0  0  0  0
  8  9  1  1  0  0  0
  8 29  1  0  0  0  0
  8 41  1  0  0  0  0
  9 10  2  0  0  0  0
  9 11  1  0  0  0  0
 11 12  1  0  0  0  0
 11 28  1  0  0  0  0
 12 13  2  0  0  0  0
 12 21  1  0  0  0  0
 13 14  1  0  0  0  0
 13 27  1  0  0  0  0
 14 15  2  0  0  0  0
 15 16  1  0  0  0  0
 15 26  1  0  0  0  0
 16 17  2  0  0  0  0
 16 21  1  0  0  0  0
 17 18  1  0  0  0  0
 17 25  1  0  0  0  0
 18 19  2  0  0  0  0
 18 24  1  0  0  0  0
 19 20  1  0  0  0  0
 19 23  1  0  0  0  0
 20 21  2  0  0  0  0
 20 22  1  0  0  0  0
 28 29  1  0  0  0  0
 28 39  1  0  0  0  0
 28 40  1  0  0  0  0
 29 30  1  0  0  0  0
 29 38  1  1  0  0  0
 30 31  1  0  0  0  0
 30 36  1  0  0  0  0
 30 37  1  0  0  0  0
 31 32  1  0  0  0  0
 31 35  2  0  0  0  0
 32 33  2  0  0  0  0
 33 34  1  0  0  0  0
 34 35  1  0  0  0  0
 41 42  2  0  0  0  0
 41 47  1  0  0  0  0
 42 43  1  0  0  0  0
 42 52  1  0  0  0  0
 43 44  1  0  0  0  0
 43 45  2  0  0  0  0
 45 46  1  0  0  0  0
 45 51  1  0  0  0  0
 46 47  2  0  0  0  0
 46 50  1  0  0  0  0
 47 48  1  0  0  0  0
 48 49  2  0  0  0  0
M  CHG  1  34  -1
M  END
>  <MODEL>
       1

$$$$
