tmp_first_model_14_55.pdb
 OpenBabel08282500413D

 61 66  0  0  1  0  0  0  0  0999 V2000
   -7.0030   -5.4690  -25.0550 C   0  0  0  0  0  0  0  0  0  0  0  0
   -7.3320   -4.8060  -23.8600 O   0  0  0  0  0  0  0  0  0  0  0  0
   -7.9850   -3.5830  -24.0890 C   0  0  0  0  0  0  0  0  0  0  0  0
   -8.2830   -2.9340  -22.7390 C   0  0  1  0  0  0  0  0  0  0  0  0
   -7.0040   -2.5580  -21.9640 C   0  0  0  0  0  0  0  0  0  0  0  0
   -7.3850   -1.3690  -21.2240 N   0  0  0  0  0  0  0  0  0  0  0  0
   -6.6030   -0.7940  -20.1970 C   0  0  0  0  0  0  0  0  0  0  0  0
   -6.9330   -1.0100  -18.8840 C   0  0  0  0  0  0  0  0  0  0  0  0
   -6.2420   -0.4960  -17.8410 N   0  0  0  0  0  0  0  0  0  0  0  0
   -5.1920    0.2390  -18.1070 C   0  0  0  0  0  0  0  0  0  0  0  0
   -4.7450    0.5450  -19.4220 C   0  0  0  0  0  0  0  0  0  0  0  0
   -3.6180    1.3730  -19.6580 C   0  0  0  0  0  0  0  0  0  0  0  0
   -3.2310    1.6680  -20.9360 C   0  0  0  0  0  0  0  0  0  0  0  0
   -3.9360    1.1310  -22.0330 C   0  0  0  0  0  0  0  0  0  0  0  0
   -5.0170    0.3040  -21.8280 C   0  0  0  0  0  0  0  0  0  0  0  0
   -5.4610    0.0040  -20.5110 C   0  0  0  0  0  0  0  0  0  0  0  0
   -5.5770   -0.0690  -22.6800 H   0  0  0  0  0  0  0  0  0  0  0  0
   -3.6260    1.3940  -23.0410 H   0  0  0  0  0  0  0  0  0  0  0  0
   -2.3800    2.3200  -21.1100 H   0  0  0  0  0  0  0  0  0  0  0  0
   -3.0820    1.7670  -18.8010 H   0  0  0  0  0  0  0  0  0  0  0  0
   -4.6280    0.6330  -17.2610 H   0  0  0  0  0  0  0  0  0  0  0  0
   -7.7910   -1.6310  -18.6350 H   0  0  0  0  0  0  0  0  0  0  0  0
   -8.5980   -0.8310  -21.5830 C   0  0  0  0  0  0  0  0  0  0  0  0
   -9.1330    0.1120  -21.0340 O   0  0  0  0  0  0  0  0  0  0  0  0
   -9.1420   -1.6420  -22.7810 C   0  0  1  0  0  0  0  0  0  0  0  0
   -8.9110   -0.8570  -24.0960 C   0  0  0  0  0  0  0  0  0  0  0  0
   -9.7050    0.3540  -24.1620 N   0  0  0  0  0  0  0  0  0  0  0  0
   -9.0030    1.5520  -24.5950 C   0  0  0  0  0  0  0  0  0  0  0  0
   -8.2030    2.2170  -23.5230 C   0  0  0  0  0  0  0  0  0  0  0  0
   -6.8650    2.3580  -23.3630 C   0  0  0  0  0  0  0  0  0  0  0  0
   -6.6560    3.1180  -22.2360 N   0  3  0  0  0  0  0  0  0  0  0  0
   -7.8420    3.4640  -21.7280 C   0  0  0  0  0  0  0  0  0  0  0  0
   -8.7970    2.9270  -22.5010 N   0  0  0  0  0  0  0  0  0  0  0  0
   -9.7920    2.9310  -22.2880 H   0  0  0  0  0  0  0  0  0  0  0  0
   -7.9950    4.1260  -20.8880 H   0  0  0  0  0  0  0  0  0  0  0  0
   -5.7400    3.2110  -21.8060 H   0  0  0  0  0  0  0  0  0  0  0  0
   -6.0330    1.9910  -23.9380 H   0  0  0  0  0  0  0  0  0  0  0  0
   -9.7420    2.2550  -24.9730 H   0  0  0  0  0  0  0  0  0  0  0  0
   -8.3530    1.2660  -25.4290 H   0  0  0  0  0  0  0  0  0  0  0  0
  -10.9410    0.4460  -23.5980 C   0  0  0  0  0  0  0  0  0  0  0  0
  -11.5250    1.5200  -23.4470 O   0  0  0  0  0  0  0  0  0  0  0  0
  -11.5100   -0.8510  -23.1070 C   0  0  0  0  0  0  0  0  0  0  0  0
  -12.8910   -1.0460  -23.0590 C   0  0  0  0  0  0  0  0  0  0  0  0
  -13.4100   -2.0890  -22.3190 C   0  0  0  0  0  0  0  0  0  0  0  0
  -12.5230   -2.9270  -21.6420 C   0  0  0  0  0  0  0  0  0  0  0  0
  -13.1740   -4.0580  -20.4930 Cl  0  0  0  0  0  0  0  0  0  0  0  0
  -11.1520   -2.8340  -21.8010 C   0  0  0  0  0  0  0  0  0  0  0  0
  -10.6310   -1.8210  -22.6060 C   0  0  0  0  0  0  0  0  0  0  0  0
  -10.5050   -3.5370  -21.2840 H   0  0  0  0  0  0  0  0  0  0  0  0
  -14.4790   -2.2480  -22.2000 H   0  0  0  0  0  0  0  0  0  0  0  0
  -13.5520   -0.3690  -23.5840 H   0  0  0  0  0  0  0  0  0  0  0  0
   -9.1580   -1.4950  -24.9500 H   0  0  0  0  0  0  0  0  0  0  0  0
   -7.8570   -0.5690  -24.1600 H   0  0  0  0  0  0  0  0  0  0  0  0
   -6.1660   -2.3510  -22.6430 H   0  0  0  0  0  0  0  0  0  0  0  0
   -6.6890   -3.3550  -21.2860 H   0  0  0  0  0  0  0  0  0  0  0  0
   -8.8180   -3.6830  -22.1560 H   0  0  0  0  0  0  0  0  0  0  0  0
   -8.9170   -3.7500  -24.6590 H   0  0  0  0  0  0  0  0  0  0  0  0
   -7.3430   -2.9190  -24.6930 H   0  0  0  0  0  0  0  0  0  0  0  0
   -6.5370   -6.4210  -24.7890 H   0  0  0  0  0  0  0  0  0  0  0  0
   -7.8940   -5.6750  -25.6700 H   0  0  0  0  0  0  0  0  0  0  0  0
   -6.2910   -4.8880  -25.6640 H   0  0  0  0  0  0  0  0  0  0  0  0
  1  2  1  0  0  0  0
  1 59  1  0  0  0  0
  1 60  1  0  0  0  0
  1 61  1  0  0  0  0
  2  3  1  0  0  0  0
  3  4  1  0  0  0  0
  3 57  1  0  0  0  0
  3 58  1  0  0  0  0
  4  5  1  0  0  0  0
  4 25  1  0  0  0  0
  4 56  1  1  0  0  0
  5  6  1  0  0  0  0
  5 54  1  0  0  0  0
  5 55  1  0  0  0  0
  6  7  1  0  0  0  0
  6 23  1  0  0  0  0
  7  8  2  0  0  0  0
  7 16  1  0  0  0  0
  8  9  1  0  0  0  0
  8 22  1  0  0  0  0
  9 10  2  0  0  0  0
 10 11  1  0  0  0  0
 10 21  1  0  0  0  0
 11 12  2  0  0  0  0
 11 16  1  0  0  0  0
 12 13  1  0  0  0  0
 12 20  1  0  0  0  0
 13 14  2  0  0  0  0
 13 19  1  0  0  0  0
 14 15  1  0  0  0  0
 14 18  1  0  0  0  0
 15 16  2  0  0  0  0
 15 17  1  0  0  0  0
 23 24  2  0  0  0  0
 25 23  1  1  0  0  0
 25 26  1  0  0  0  0
 25 48  1  0  0  0  0
 26 27  1  0  0  0  0
 26 52  1  0  0  0  0
 26 53  1  0  0  0  0
 27 28  1  0  0  0  0
 27 40  1  0  0  0  0
 28 29  1  0  0  0  0
 28 38  1  0  0  0  0
 28 39  1  0  0  0  0
 29 30  2  0  0  0  0
 29 33  1  0  0  0  0
 30 31  1  0  0  0  0
 30 37  1  0  0  0  0
 31 32  2  0  0  0  0
 31 36  1  0  0  0  0
 32 33  1  0  0  0  0
 32 35  1  0  0  0  0
 33 34  1  0  0  0  0
 40 41  2  0  0  0  0
 40 42  1  0  0  0  0
 42 43  2  0  0  0  0
 42 48  1  0  0  0  0
 43 44  1  0  0  0  0
 43 51  1  0  0  0  0
 44 45  2  0  0  0  0
 44 50  1  0  0  0  0
 45 46  1  0  0  0  0
 45 47  1  0  0  0  0
 47 48  2  0  0  0  0
 47 49  1  0  0  0  0
M  CHG  1  31   1
M  END
>  <MODEL>
       1

$$$$
