tmp_first_model_18_70.pdb
 OpenBabel08282502533D

 52 54  0  0  0  0  0  0  0  0999 V2000
  -10.5440   -4.9050  -27.1570 C   0  0  0  0  0  0  0  0  0  0  0  0
   -9.9800   -6.2230  -26.6350 C   0  0  0  0  0  0  0  0  0  0  0  0
  -11.0470   -7.2990  -26.8320 C   0  0  0  0  0  0  0  0  0  0  0  0
  -11.8780   -7.1020  -26.1470 H   0  0  0  0  0  0  0  0  0  0  0  0
  -10.6780   -8.3070  -26.6170 H   0  0  0  0  0  0  0  0  0  0  0  0
  -11.4500   -7.2860  -27.8510 H   0  0  0  0  0  0  0  0  0  0  0  0
   -9.5800   -6.2030  -25.1540 C   0  0  0  0  0  0  0  0  0  0  0  0
   -8.4330   -5.2930  -24.6690 C   0  0  0  0  0  0  0  0  0  0  0  0
   -7.2890   -5.3820  -25.6890 C   0  0  0  0  0  0  0  0  0  0  0  0
   -6.9930   -6.4250  -25.8520 H   0  0  0  0  0  0  0  0  0  0  0  0
   -6.3880   -4.8350  -25.4060 H   0  0  0  0  0  0  0  0  0  0  0  0
   -7.5930   -4.9950  -26.6620 H   0  0  0  0  0  0  0  0  0  0  0  0
   -8.9290   -3.8290  -24.4390 C   0  0  0  0  0  0  0  0  0  0  0  0
   -8.7890   -3.3850  -22.9750 C   0  0  0  0  0  0  0  0  0  0  0  0
   -7.4340   -3.6330  -22.4860 N   0  0  0  0  0  0  0  0  0  0  0  0
   -6.7080   -2.7940  -21.6880 C   0  0  0  0  0  0  0  0  0  0  0  0
   -5.5760   -3.0710  -21.3160 O   0  0  0  0  0  0  0  0  0  0  0  0
   -7.3900   -1.4960  -21.2480 C   0  0  0  0  0  0  0  0  0  0  0  0
   -6.6060   -0.8300  -20.1700 C   0  0  0  0  0  0  0  0  0  0  0  0
   -6.9240   -1.0630  -18.8550 C   0  0  0  0  0  0  0  0  0  0  0  0
   -6.2490   -0.5600  -17.7890 N   0  0  0  0  0  0  0  0  0  0  0  0
   -5.2150    0.1990  -18.0570 C   0  0  0  0  0  0  0  0  0  0  0  0
   -4.7540    0.4990  -19.3700 C   0  0  0  0  0  0  0  0  0  0  0  0
   -3.6310    1.3320  -19.6080 C   0  0  0  0  0  0  0  0  0  0  0  0
   -3.2230    1.5990  -20.8860 C   0  0  0  0  0  0  0  0  0  0  0  0
   -3.9060    1.0350  -21.9890 C   0  0  0  0  0  0  0  0  0  0  0  0
   -4.9950    0.2210  -21.7870 C   0  0  0  0  0  0  0  0  0  0  0  0
   -5.4620   -0.0450  -20.4680 C   0  0  0  0  0  0  0  0  0  0  0  0
   -5.4910   -0.2290  -22.6430 H   0  0  0  0  0  0  0  0  0  0  0  0
   -3.5750    1.2620  -23.0010 H   0  0  0  0  0  0  0  0  0  0  0  0
   -2.3750    2.2560  -21.0640 H   0  0  0  0  0  0  0  0  0  0  0  0
   -3.1170    1.7600  -18.7490 H   0  0  0  0  0  0  0  0  0  0  0  0
   -4.6760    0.6210  -17.2050 H   0  0  0  0  0  0  0  0  0  0  0  0
   -7.7720   -1.7060  -18.6200 H   0  0  0  0  0  0  0  0  0  0  0  0
   -7.5280   -0.8310  -22.1120 H   0  0  0  0  0  0  0  0  0  0  0  0
   -8.3870   -1.7420  -20.8640 H   0  0  0  0  0  0  0  0  0  0  0  0
   -6.9040   -4.9830  -22.6560 C   0  0  0  0  0  0  0  0  0  0  0  0
   -7.9560   -5.8600  -23.3070 C   0  0  0  0  0  0  0  0  0  0  0  0
   -8.8130   -5.9010  -22.6310 H   0  0  0  0  0  0  0  0  0  0  0  0
   -7.5710   -6.8850  -23.3980 H   0  0  0  0  0  0  0  0  0  0  0  0
   -5.9900   -4.9550  -23.2600 H   0  0  0  0  0  0  0  0  0  0  0  0
   -6.6020   -5.3610  -21.6720 H   0  0  0  0  0  0  0  0  0  0  0  0
   -9.0260   -2.3220  -22.8910 H   0  0  0  0  0  0  0  0  0  0  0  0
   -9.5240   -3.9210  -22.3480 H   0  0  0  0  0  0  0  0  0  0  0  0
   -9.9940   -3.7440  -24.6870 H   0  0  0  0  0  0  0  0  0  0  0  0
   -8.3950   -3.1200  -25.0930 H   0  0  0  0  0  0  0  0  0  0  0  0
  -10.4700   -5.9560  -24.5580 H   0  0  0  0  0  0  0  0  0  0  0  0
   -9.3150   -7.2350  -24.8980 H   0  0  0  0  0  0  0  0  0  0  0  0
   -9.1000   -6.5020  -27.2320 H   0  0  0  0  0  0  0  0  0  0  0  0
   -9.8240   -4.0810  -27.1630 H   0  0  0  0  0  0  0  0  0  0  0  0
  -11.4090   -4.5840  -26.5590 H   0  0  0  0  0  0  0  0  0  0  0  0
  -10.9070   -5.0540  -28.1800 H   0  0  0  0  0  0  0  0  0  0  0  0
  1  2  1  0  0  0  0
  1 50  1  0  0  0  0
  1 51  1  0  0  0  0
  1 52  1  0  0  0  0
  2  3  1  0  0  0  0
  2  7  1  0  0  0  0
  2 49  1  0  0  0  0
  3  4  1  0  0  0  0
  3  5  1  0  0  0  0
  3  6  1  0  0  0  0
  7  8  1  0  0  0  0
  7 47  1  0  0  0  0
  7 48  1  0  0  0  0
  8  9  1  0  0  0  0
  8 13  1  0  0  0  0
  8 38  1  0  0  0  0
  9 10  1  0  0  0  0
  9 11  1  0  0  0  0
  9 12  1  0  0  0  0
 13 14  1  0  0  0  0
 13 45  1  0  0  0  0
 13 46  1  0  0  0  0
 14 15  1  0  0  0  0
 14 43  1  0  0  0  0
 14 44  1  0  0  0  0
 15 16  1  0  0  0  0
 15 37  1  0  0  0  0
 16 17  2  0  0  0  0
 16 18  1  0  0  0  0
 18 19  1  0  0  0  0
 18 35  1  0  0  0  0
 18 36  1  0  0  0  0
 19 20  2  0  0  0  0
 19 28  1  0  0  0  0
 20 21  1  0  0  0  0
 20 34  1  0  0  0  0
 21 22  2  0  0  0  0
 22 23  1  0  0  0  0
 22 33  1  0  0  0  0
 23 24  2  0  0  0  0
 23 28  1  0  0  0  0
 24 25  1  0  0  0  0
 24 32  1  0  0  0  0
 25 26  2  0  0  0  0
 25 31  1  0  0  0  0
 26 27  1  0  0  0  0
 26 30  1  0  0  0  0
 27 28  2  0  0  0  0
 27 29  1  0  0  0  0
 37 38  1  0  0  0  0
 37 41  1  0  0  0  0
 37 42  1  0  0  0  0
 38 39  1  0  0  0  0
 38 40  1  0  0  0  0
M  END
>  <MODEL>
       1

$$$$
