tmp_first_model_14_24.pdb
 OpenBabel08282500413D

 65 70  0  0  1  0  0  0  0  0999 V2000
   -6.1510   -7.9960  -25.2840 O   0  0  0  0  0  0  0  0  0  0  0  0
   -6.0270   -7.3410  -24.2600 C   0  0  0  0  0  0  0  0  0  0  0  0
   -7.1870   -6.5950  -23.5950 C   0  0  0  0  0  0  0  0  0  0  0  0
   -7.0870   -5.1020  -23.7860 N   0  3  1  0  0  0  0  0  0  0  0  0
   -7.2680   -4.7530  -25.2800 C   0  0  0  0  0  0  0  0  0  0  0  0
   -7.2090   -3.2680  -25.5150 C   0  0  0  0  0  0  0  0  0  0  0  0
   -6.8450   -2.7850  -26.7690 C   0  0  0  0  0  0  0  0  0  0  0  0
   -6.7780   -1.4250  -27.0360 C   0  0  0  0  0  0  0  0  0  0  0  0
   -7.0870   -0.5310  -26.0160 C   0  0  0  0  0  0  0  0  0  0  0  0
   -6.9930    1.1830  -26.3170 Cl  0  0  0  0  0  0  0  0  0  0  0  0
   -7.4680   -0.9870  -24.7630 C   0  0  0  0  0  0  0  0  0  0  0  0
   -7.5450   -2.3620  -24.5060 C   0  0  0  0  0  0  0  0  0  0  0  0
   -7.9450   -2.8170  -23.1140 C   0  0  2  0  0  0  0  0  0  0  0  0
   -9.1890   -2.0960  -22.5700 C   0  0  0  0  0  0  0  0  0  0  0  0
   -8.7230   -1.1450  -21.4610 C   0  0  0  0  0  0  0  0  0  0  0  0
   -7.3220   -1.4870  -21.2440 N   0  0  0  0  0  0  0  0  0  0  0  0
   -6.5520   -0.8830  -20.2070 C   0  0  0  0  0  0  0  0  0  0  0  0
   -6.9000   -1.0470  -18.8880 C   0  0  0  0  0  0  0  0  0  0  0  0
   -6.2310   -0.5030  -17.8430 N   0  0  0  0  0  0  0  0  0  0  0  0
   -5.1770    0.2270  -18.1020 C   0  0  0  0  0  0  0  0  0  0  0  0
   -4.7270    0.5200  -19.4150 C   0  0  0  0  0  0  0  0  0  0  0  0
   -3.6040    1.3600  -19.6430 C   0  0  0  0  0  0  0  0  0  0  0  0
   -3.2210    1.6680  -20.9170 C   0  0  0  0  0  0  0  0  0  0  0  0
   -3.9470    1.1560  -22.0150 C   0  0  0  0  0  0  0  0  0  0  0  0
   -5.0300    0.3360  -21.8240 C   0  0  0  0  0  0  0  0  0  0  0  0
   -5.4410   -0.0260  -20.5110 C   0  0  0  0  0  0  0  0  0  0  0  0
   -5.5840   -0.0420  -22.6830 H   0  0  0  0  0  0  0  0  0  0  0  0
   -3.6420    1.4130  -23.0250 H   0  0  0  0  0  0  0  0  0  0  0  0
   -2.3690    2.3210  -21.0920 H   0  0  0  0  0  0  0  0  0  0  0  0
   -3.0780    1.7630  -18.7800 H   0  0  0  0  0  0  0  0  0  0  0  0
   -4.6250    0.6210  -17.2470 H   0  0  0  0  0  0  0  0  0  0  0  0
   -7.7480   -1.6710  -18.6060 H   0  0  0  0  0  0  0  0  0  0  0  0
   -6.8390   -2.4350  -22.1220 C   0  0  0  0  0  0  0  0  0  0  0  0
   -5.7360   -2.9500  -22.1360 O   0  0  0  0  0  0  0  0  0  0  0  0
   -9.2970   -1.3420  -20.5620 H   0  0  0  0  0  0  0  0  0  0  0  0
   -8.8510   -0.0820  -21.7150 H   0  0  0  0  0  0  0  0  0  0  0  0
   -9.8640   -2.8410  -22.1370 H   0  0  0  0  0  0  0  0  0  0  0  0
   -9.7500   -1.5850  -23.3570 H   0  0  0  0  0  0  0  0  0  0  0  0
   -8.1490   -4.3380  -23.0180 C   0  0  0  0  0  0  0  0  0  0  0  0
   -8.1290   -4.6190  -21.9620 H   0  0  0  0  0  0  0  0  0  0  0  0
   -9.1300   -4.5950  -23.4300 H   0  0  0  0  0  0  0  0  0  0  0  0
   -7.7020   -0.2560  -23.9910 H   0  0  0  0  0  0  0  0  0  0  0  0
   -6.4870   -1.0510  -28.0120 H   0  0  0  0  0  0  0  0  0  0  0  0
   -6.6000   -3.4920  -27.5570 H   0  0  0  0  0  0  0  0  0  0  0  0
   -6.5070   -5.2730  -25.8610 H   0  0  0  0  0  0  0  0  0  0  0  0
   -8.2380   -5.1570  -25.6020 H   0  0  0  0  0  0  0  0  0  0  0  0
   -6.1630   -4.7270  -23.4610 H   0  0  0  0  0  0  0  0  0  0  0  0
   -7.2450   -6.8070  -22.5220 H   0  0  0  0  0  0  0  0  0  0  0  0
   -8.1090   -6.9650  -24.0510 H   0  0  0  0  0  0  0  0  0  0  0  0
   -4.8290   -7.1930  -23.6420 N   0  0  0  0  0  0  0  0  0  0  0  0
   -3.6690   -7.8620  -24.2100 C   0  0  0  0  0  0  0  0  0  0  0  0
   -2.4080   -7.5610  -23.4150 C   0  0  1  0  0  0  0  0  0  0  0  0
   -1.0910   -8.0320  -24.0950 C   0  0  0  0  0  0  0  0  0  0  0  0
   -0.6180   -6.5680  -24.2060 C   0  0  1  0  0  0  0  0  0  0  0  0
   -0.4980   -6.1250  -25.5170 F   0  0  0  0  0  0  0  0  0  0  0  0
   -1.9070   -6.0860  -23.5090 C   0  0  0  0  0  0  0  0  0  0  0  0
   -1.7650   -5.5740  -22.5500 H   0  0  0  0  0  0  0  0  0  0  0  0
   -2.5130   -5.4310  -24.1480 H   0  0  0  0  0  0  0  0  0  0  0  0
    0.3310   -6.3200  -23.7150 H   0  0  0  0  0  0  0  0  0  0  0  0
   -1.2220   -8.5220  -25.0670 H   0  0  0  0  0  0  0  0  0  0  0  0
   -0.4580   -8.6870  -23.4870 H   0  0  0  0  0  0  0  0  0  0  0  0
   -2.5380   -7.9300  -22.3850 H   0  0  0  0  0  0  0  0  0  0  0  0
   -3.5590   -7.5210  -25.2510 H   0  0  0  0  0  0  0  0  0  0  0  0
   -3.8640   -8.9440  -24.2620 H   0  0  0  0  0  0  0  0  0  0  0  0
   -4.7890   -6.7110  -22.7580 H   0  0  0  0  0  0  0  0  0  0  0  0
  1  2  2  0  0  0  0
  2  3  1  0  0  0  0
  2 50  1  0  0  0  0
  3  4  1  0  0  0  0
  3 48  1  0  0  0  0
  3 49  1  0  0  0  0
  4  5  1  0  0  0  0
  4 39  1  0  0  0  0
  4 47  1  1  0  0  0
  5  6  1  0  0  0  0
  5 45  1  0  0  0  0
  5 46  1  0  0  0  0
  6  7  2  0  0  0  0
  6 12  1  0  0  0  0
  7  8  1  0  0  0  0
  7 44  1  0  0  0  0
  8  9  2  0  0  0  0
  8 43  1  0  0  0  0
  9 10  1  0  0  0  0
  9 11  1  0  0  0  0
 11 12  2  0  0  0  0
 11 42  1  0  0  0  0
 13 12  1  6  0  0  0
 13 14  1  0  0  0  0
 13 33  1  0  0  0  0
 13 39  1  0  0  0  0
 14 15  1  0  0  0  0
 14 37  1  0  0  0  0
 14 38  1  0  0  0  0
 15 16  1  0  0  0  0
 15 35  1  0  0  0  0
 15 36  1  0  0  0  0
 16 17  1  0  0  0  0
 16 33  1  0  0  0  0
 17 18  2  0  0  0  0
 17 26  1  0  0  0  0
 18 19  1  0  0  0  0
 18 32  1  0  0  0  0
 19 20  2  0  0  0  0
 20 21  1  0  0  0  0
 20 31  1  0  0  0  0
 21 22  2  0  0  0  0
 21 26  1  0  0  0  0
 22 23  1  0  0  0  0
 22 30  1  0  0  0  0
 23 24  2  0  0  0  0
 23 29  1  0  0  0  0
 24 25  1  0  0  0  0
 24 28  1  0  0  0  0
 25 26  2  0  0  0  0
 25 27  1  0  0  0  0
 33 34  2  0  0  0  0
 39 40  1  0  0  0  0
 39 41  1  0  0  0  0
 50 51  1  0  0  0  0
 50 65  1  0  0  0  0
 51 52  1  0  0  0  0
 51 63  1  0  0  0  0
 51 64  1  0  0  0  0
 52 53  1  0  0  0  0
 52 56  1  0  0  0  0
 52 62  1  1  0  0  0
 53 54  1  0  0  0  0
 53 60  1  0  0  0  0
 53 61  1  0  0  0  0
 54 55  1  0  0  0  0
 54 56  1  0  0  0  0
 54 59  1  1  0  0  0
 56 57  1  0  0  0  0
 56 58  1  0  0  0  0
M  CHG  1   4   1
M  END
>  <MODEL>
       1

$$$$
