tmp_first_model_3_16.pdb
 OpenBabel08272518143D

 61 66  0  0  1  0  0  0  0  0999 V2000
   -7.3810    3.4050  -21.8150 C   0  0  0  0  0  0  0  0  0  0  0  0
   -8.2290    2.9310  -22.8940 N   0  0  0  0  0  0  0  0  0  0  0  0
   -7.6550    2.2420  -23.9070 C   0  0  0  0  0  0  0  0  0  0  0  0
   -6.4390    2.1330  -24.0150 O   0  0  0  0  0  0  0  0  0  0  0  0
   -8.6090    1.6250  -24.9370 C   0  0  0  0  0  0  0  0  0  0  0  0
   -9.3430    0.4740  -24.4400 N   0  0  0  0  0  0  0  0  0  0  0  0
   -8.6210   -0.7800  -24.2720 C   0  0  0  0  0  0  0  0  0  0  0  0
   -9.0150   -1.4880  -22.9550 C   0  0  2  0  0  0  0  0  0  0  0  0
   -8.4760   -0.7020  -21.7310 C   0  0  0  0  0  0  0  0  0  0  0  0
   -8.9070    0.3380  -21.2760 O   0  0  0  0  0  0  0  0  0  0  0  0
   -7.4000   -1.3830  -21.2060 N   0  0  0  0  0  0  0  0  0  0  0  0
   -6.6020   -0.8100  -20.1770 C   0  0  0  0  0  0  0  0  0  0  0  0
   -6.9080   -1.0410  -18.8590 C   0  0  0  0  0  0  0  0  0  0  0  0
   -6.2080   -0.5450  -17.8090 N   0  0  0  0  0  0  0  0  0  0  0  0
   -5.1690    0.2110  -18.0760 C   0  0  0  0  0  0  0  0  0  0  0  0
   -4.7290    0.5290  -19.3930 C   0  0  0  0  0  0  0  0  0  0  0  0
   -3.6020    1.3620  -19.6380 C   0  0  0  0  0  0  0  0  0  0  0  0
   -3.2160    1.6510  -20.9190 C   0  0  0  0  0  0  0  0  0  0  0  0
   -3.9370    1.1220  -22.0120 C   0  0  0  0  0  0  0  0  0  0  0  0
   -5.0300    0.3160  -21.8000 C   0  0  0  0  0  0  0  0  0  0  0  0
   -5.4620    0.0020  -20.4820 C   0  0  0  0  0  0  0  0  0  0  0  0
   -5.5890   -0.0720  -22.6460 H   0  0  0  0  0  0  0  0  0  0  0  0
   -3.6440    1.3670  -23.0280 H   0  0  0  0  0  0  0  0  0  0  0  0
   -2.3630    2.3020  -21.0990 H   0  0  0  0  0  0  0  0  0  0  0  0
   -3.0740    1.7780  -18.7840 H   0  0  0  0  0  0  0  0  0  0  0  0
   -4.6190    0.6150  -17.2260 H   0  0  0  0  0  0  0  0  0  0  0  0
   -7.7590   -1.6680  -18.6030 H   0  0  0  0  0  0  0  0  0  0  0  0
   -7.0680   -2.6060  -21.9080 C   0  0  0  0  0  0  0  0  0  0  0  0
   -8.3060   -2.8700  -22.7830 C   0  0  2  0  0  0  0  0  0  0  0  0
   -7.9500   -3.6360  -24.0720 C   0  0  0  0  0  0  0  0  0  0  0  0
   -7.4210   -4.9630  -23.7810 N   0  0  0  0  0  0  0  0  0  0  0  0
   -6.1320   -5.2350  -23.6760 N   0  0  0  0  0  0  0  0  0  0  0  0
   -6.1630   -6.5190  -23.3490 C   0  0  0  0  0  0  0  0  0  0  0  0
   -7.4210   -6.9970  -23.2630 N   0  0  0  0  0  0  0  0  0  0  0  0
   -8.2030   -5.9920  -23.5430 N   0  0  0  0  0  0  0  0  0  0  0  0
   -5.2800   -7.1160  -23.1680 H   0  0  0  0  0  0  0  0  0  0  0  0
   -7.1700   -3.1230  -24.6390 H   0  0  0  0  0  0  0  0  0  0  0  0
   -8.8310   -3.7850  -24.7050 H   0  0  0  0  0  0  0  0  0  0  0  0
   -8.9850   -3.5200  -22.2240 H   0  0  0  0  0  0  0  0  0  0  0  0
   -6.1640   -2.4850  -22.5250 H   0  0  0  0  0  0  0  0  0  0  0  0
   -6.8740   -3.4230  -21.2060 H   0  0  0  0  0  0  0  0  0  0  0  0
  -10.5280   -1.5190  -22.8920 C   0  0  0  0  0  0  0  0  0  0  0  0
  -11.1410   -2.3670  -21.9740 C   0  0  0  0  0  0  0  0  0  0  0  0
  -12.5100   -2.3780  -21.8190 C   0  0  0  0  0  0  0  0  0  0  0  0
  -13.1190   -3.3910  -20.5420 Cl  0  0  0  0  0  0  0  0  0  0  0  0
  -13.3330   -1.5680  -22.6020 C   0  0  0  0  0  0  0  0  0  0  0  0
  -12.7250   -0.6700  -23.4630 C   0  0  0  0  0  0  0  0  0  0  0  0
  -11.3360   -0.6050  -23.5790 C   0  0  0  0  0  0  0  0  0  0  0  0
  -10.7150    0.5180  -24.3650 C   0  0  0  0  0  0  0  0  0  0  0  0
  -11.3780    1.4160  -24.8640 O   0  0  0  0  0  0  0  0  0  0  0  0
  -13.3060    0.0400  -24.0390 H   0  0  0  0  0  0  0  0  0  0  0  0
  -14.4150   -1.6160  -22.5230 H   0  0  0  0  0  0  0  0  0  0  0  0
  -10.5640   -3.0080  -21.3220 H   0  0  0  0  0  0  0  0  0  0  0  0
   -8.8270   -1.4580  -25.1170 H   0  0  0  0  0  0  0  0  0  0  0  0
   -7.5530   -0.5450  -24.2520 H   0  0  0  0  0  0  0  0  0  0  0  0
   -7.9750    1.3480  -25.7860 H   0  0  0  0  0  0  0  0  0  0  0  0
   -9.3660    2.3400  -25.2740 H   0  0  0  0  0  0  0  0  0  0  0  0
   -9.2280    2.8780  -22.7540 H   0  0  0  0  0  0  0  0  0  0  0  0
   -6.6720    4.1590  -22.1740 H   0  0  0  0  0  0  0  0  0  0  0  0
   -6.8050    2.5690  -21.3870 H   0  0  0  0  0  0  0  0  0  0  0  0
   -8.0210    3.8740  -21.0680 H   0  0  0  0  0  0  0  0  0  0  0  0
  1  2  1  0  0  0  0
  1 59  1  0  0  0  0
  1 60  1  0  0  0  0
  1 61  1  0  0  0  0
  2  3  1  0  0  0  0
  2 58  1  0  0  0  0
  3  4  2  0  0  0  0
  3  5  1  0  0  0  0
  5  6  1  0  0  0  0
  5 56  1  0  0  0  0
  5 57  1  0  0  0  0
  6  7  1  0  0  0  0
  6 49  1  0  0  0  0
  7  8  1  0  0  0  0
  7 54  1  0  0  0  0
  7 55  1  0  0  0  0
  8  9  1  1  0  0  0
  8 29  1  0  0  0  0
  8 42  1  0  0  0  0
  9 10  2  0  0  0  0
  9 11  1  0  0  0  0
 11 12  1  0  0  0  0
 11 28  1  0  0  0  0
 12 13  2  0  0  0  0
 12 21  1  0  0  0  0
 13 14  1  0  0  0  0
 13 27  1  0  0  0  0
 14 15  2  0  0  0  0
 15 16  1  0  0  0  0
 15 26  1  0  0  0  0
 16 17  2  0  0  0  0
 16 21  1  0  0  0  0
 17 18  1  0  0  0  0
 17 25  1  0  0  0  0
 18 19  2  0  0  0  0
 18 24  1  0  0  0  0
 19 20  1  0  0  0  0
 19 23  1  0  0  0  0
 20 21  2  0  0  0  0
 20 22  1  0  0  0  0
 28 29  1  0  0  0  0
 28 40  1  0  0  0  0
 28 41  1  0  0  0  0
 29 30  1  0  0  0  0
 29 39  1  1  0  0  0
 30 31  1  0  0  0  0
 30 37  1  0  0  0  0
 30 38  1  0  0  0  0
 31 32  1  0  0  0  0
 31 35  1  0  0  0  0
 32 33  2  0  0  0  0
 33 34  1  0  0  0  0
 33 36  1  0  0  0  0
 34 35  2  0  0  0  0
 42 43  2  0  0  0  0
 42 48  1  0  0  0  0
 43 44  1  0  0  0  0
 43 53  1  0  0  0  0
 44 45  1  0  0  0  0
 44 46  2  0  0  0  0
 46 47  1  0  0  0  0
 46 52  1  0  0  0  0
 47 48  2  0  0  0  0
 47 51  1  0  0  0  0
 48 49  1  0  0  0  0
 49 50  2  0  0  0  0
M  END
>  <MODEL>
       1

$$$$
