tmp_first_model_4_86.pdb
 OpenBabel08272518513D

 43 45  0  0  1  0  0  0  0  0999 V2000
   -8.5380   -5.5420  -25.7750 C   0  0  0  0  0  0  0  0  0  0  0  0
   -9.0540   -5.4320  -24.3370 C   0  0  1  0  0  0  0  0  0  0  0  0
   -8.0170   -5.8750  -23.2980 C   0  0  0  0  0  0  0  0  0  0  0  0
   -6.9390   -4.8250  -23.0850 C   0  0  0  0  0  0  0  0  0  0  0  0
   -7.5360   -3.5510  -22.7020 N   0  0  0  0  0  0  0  0  0  0  0  0
   -6.7690   -2.7810  -21.8660 C   0  0  0  0  0  0  0  0  0  0  0  0
   -5.6470   -3.1160  -21.5290 O   0  0  0  0  0  0  0  0  0  0  0  0
   -7.4020   -1.5080  -21.2960 C   0  0  0  0  0  0  0  0  0  0  0  0
   -6.5000   -0.9870  -20.2210 C   0  0  0  0  0  0  0  0  0  0  0  0
   -6.7530   -1.2700  -18.9070 C   0  0  0  0  0  0  0  0  0  0  0  0
   -5.9350   -0.9830  -17.8650 N   0  0  0  0  0  0  0  0  0  0  0  0
   -4.8230   -0.3480  -18.1460 C   0  0  0  0  0  0  0  0  0  0  0  0
   -4.4450    0.0450  -19.4590 C   0  0  0  0  0  0  0  0  0  0  0  0
   -3.2930    0.8380  -19.7050 C   0  0  0  0  0  0  0  0  0  0  0  0
   -3.0470    1.3410  -20.9560 C   0  0  0  0  0  0  0  0  0  0  0  0
   -3.8850    0.9800  -22.0340 C   0  0  0  0  0  0  0  0  0  0  0  0
   -4.9630    0.1560  -21.8410 C   0  0  0  0  0  0  0  0  0  0  0  0
   -5.3040   -0.2870  -20.5330 C   0  0  0  0  0  0  0  0  0  0  0  0
   -5.6290   -0.0740  -22.6660 H   0  0  0  0  0  0  0  0  0  0  0  0
   -3.6940    1.3860  -23.0250 H   0  0  0  0  0  0  0  0  0  0  0  0
   -2.2560    2.0660  -21.1140 H   0  0  0  0  0  0  0  0  0  0  0  0
   -2.6500    1.0950  -18.8670 H   0  0  0  0  0  0  0  0  0  0  0  0
   -4.1820   -0.0890  -17.3030 H   0  0  0  0  0  0  0  0  0  0  0  0
   -7.7030   -1.7260  -18.6390 H   0  0  0  0  0  0  0  0  0  0  0  0
   -7.5860   -0.7840  -22.1000 H   0  0  0  0  0  0  0  0  0  0  0  0
   -8.3860   -1.7560  -20.8790 H   0  0  0  0  0  0  0  0  0  0  0  0
   -8.5460   -2.9820  -23.6020 C   0  0  1  0  0  0  0  0  0  0  0  0
   -7.9420   -2.2980  -24.8350 C   0  0  0  0  0  0  0  0  0  0  0  0
   -8.7460   -1.9990  -25.5150 H   0  0  0  0  0  0  0  0  0  0  0  0
   -7.2650   -2.9610  -25.3830 H   0  0  0  0  0  0  0  0  0  0  0  0
   -7.3690   -1.4010  -24.5740 H   0  0  0  0  0  0  0  0  0  0  0  0
   -9.5950   -4.0460  -23.9550 C   0  0  0  0  0  0  0  0  0  0  0  0
  -10.2250   -3.6510  -24.7640 H   0  0  0  0  0  0  0  0  0  0  0  0
  -10.2380   -4.1710  -23.0760 H   0  0  0  0  0  0  0  0  0  0  0  0
   -9.0770   -2.2120  -23.0270 H   0  0  0  0  0  0  0  0  0  0  0  0
   -6.3210   -4.6930  -23.9860 H   0  0  0  0  0  0  0  0  0  0  0  0
   -6.2660   -5.1100  -22.2740 H   0  0  0  0  0  0  0  0  0  0  0  0
   -7.5480   -6.8240  -23.5940 H   0  0  0  0  0  0  0  0  0  0  0  0
   -8.5210   -6.0450  -22.3390 H   0  0  0  0  0  0  0  0  0  0  0  0
   -9.9080   -6.1200  -24.2670 H   0  0  0  0  0  0  0  0  0  0  0  0
   -7.5950   -5.0110  -25.9340 H   0  0  0  0  0  0  0  0  0  0  0  0
   -8.3610   -6.5900  -26.0410 H   0  0  0  0  0  0  0  0  0  0  0  0
   -9.2670   -5.1430  -26.4870 H   0  0  0  0  0  0  0  0  0  0  0  0
  1  2  1  0  0  0  0
  1 41  1  0  0  0  0
  1 42  1  0  0  0  0
  1 43  1  0  0  0  0
  2  3  1  0  0  0  0
  2 32  1  0  0  0  0
  2 40  1  1  0  0  0
  3  4  1  0  0  0  0
  3 38  1  0  0  0  0
  3 39  1  0  0  0  0
  4  5  1  0  0  0  0
  4 36  1  0  0  0  0
  4 37  1  0  0  0  0
  5  6  1  0  0  0  0
  5 27  1  0  0  0  0
  6  7  2  0  0  0  0
  6  8  1  0  0  0  0
  8  9  1  0  0  0  0
  8 25  1  0  0  0  0
  8 26  1  0  0  0  0
  9 10  2  0  0  0  0
  9 18  1  0  0  0  0
 10 11  1  0  0  0  0
 10 24  1  0  0  0  0
 11 12  2  0  0  0  0
 12 13  1  0  0  0  0
 12 23  1  0  0  0  0
 13 14  2  0  0  0  0
 13 18  1  0  0  0  0
 14 15  1  0  0  0  0
 14 22  1  0  0  0  0
 15 16  2  0  0  0  0
 15 21  1  0  0  0  0
 16 17  1  0  0  0  0
 16 20  1  0  0  0  0
 17 18  2  0  0  0  0
 17 19  1  0  0  0  0
 27 28  1  0  0  0  0
 27 32  1  0  0  0  0
 27 35  1  1  0  0  0
 28 29  1  0  0  0  0
 28 30  1  0  0  0  0
 28 31  1  0  0  0  0
 32 33  1  0  0  0  0
 32 34  1  0  0  0  0
M  END
>  <MODEL>
       1

$$$$
