tmp_first_model_9_59.pdb
 OpenBabel08272521403D

 60 65  0  0  1  0  0  0  0  0999 V2000
   -7.3930    3.3840  -21.7810 C   0  0  0  0  0  0  0  0  0  0  0  0
   -8.2650    2.9300  -22.8510 N   0  0  0  0  0  0  0  0  0  0  0  0
   -7.7010    2.2420  -23.8710 C   0  0  0  0  0  0  0  0  0  0  0  0
   -6.4870    2.1330  -23.9900 O   0  0  0  0  0  0  0  0  0  0  0  0
   -8.6530    1.6220  -24.8990 C   0  0  0  0  0  0  0  0  0  0  0  0
   -9.3780    0.4660  -24.4030 N   0  0  0  0  0  0  0  0  0  0  0  0
   -8.6580   -0.7830  -24.2340 C   0  0  0  0  0  0  0  0  0  0  0  0
   -9.0510   -1.5010  -22.9170 C   0  0  2  0  0  0  0  0  0  0  0  0
   -8.4980   -0.7210  -21.6980 C   0  0  0  0  0  0  0  0  0  0  0  0
   -8.9380    0.3110  -21.2270 O   0  0  0  0  0  0  0  0  0  0  0  0
   -7.3970   -1.3870  -21.2080 N   0  0  0  0  0  0  0  0  0  0  0  0
   -6.6000   -0.8140  -20.1780 C   0  0  0  0  0  0  0  0  0  0  0  0
   -6.9060   -1.0440  -18.8610 C   0  0  0  0  0  0  0  0  0  0  0  0
   -6.2000   -0.5500  -17.8160 N   0  0  0  0  0  0  0  0  0  0  0  0
   -5.1660    0.2090  -18.0810 C   0  0  0  0  0  0  0  0  0  0  0  0
   -4.7290    0.5310  -19.3960 C   0  0  0  0  0  0  0  0  0  0  0  0
   -3.6020    1.3650  -19.6400 C   0  0  0  0  0  0  0  0  0  0  0  0
   -3.2170    1.6560  -20.9200 C   0  0  0  0  0  0  0  0  0  0  0  0
   -3.9410    1.1290  -22.0120 C   0  0  0  0  0  0  0  0  0  0  0  0
   -5.0340    0.3220  -21.8020 C   0  0  0  0  0  0  0  0  0  0  0  0
   -5.4640    0.0030  -20.4860 C   0  0  0  0  0  0  0  0  0  0  0  0
   -5.5880   -0.0670  -22.6510 H   0  0  0  0  0  0  0  0  0  0  0  0
   -3.6470    1.3660  -23.0300 H   0  0  0  0  0  0  0  0  0  0  0  0
   -2.3620    2.3050  -21.1000 H   0  0  0  0  0  0  0  0  0  0  0  0
   -3.0750    1.7750  -18.7830 H   0  0  0  0  0  0  0  0  0  0  0  0
   -4.6180    0.6130  -17.2290 H   0  0  0  0  0  0  0  0  0  0  0  0
   -7.7590   -1.6660  -18.6020 H   0  0  0  0  0  0  0  0  0  0  0  0
   -7.0710   -2.6070  -21.9200 C   0  0  0  0  0  0  0  0  0  0  0  0
   -8.3210   -2.8760  -22.7790 C   0  0  2  0  0  0  0  0  0  0  0  0
   -7.9810   -3.6300  -24.0850 C   0  0  0  0  0  0  0  0  0  0  0  0
   -7.4420   -4.9930  -23.7960 C   0  0  0  0  0  0  0  0  0  0  0  0
   -6.1500   -5.2840  -23.7100 N   0  0  0  0  0  0  0  0  0  0  0  0
   -6.1120   -6.5750  -23.3920 N   0  0  0  0  0  0  0  0  0  0  0  0
   -7.3340   -7.0330  -23.2970 N   0  5  0  0  0  0  0  0  0  0  0  0
   -8.1960   -6.0530  -23.5480 N   0  0  0  0  0  0  0  0  0  0  0  0
   -7.2170   -3.0980  -24.6600 H   0  0  0  0  0  0  0  0  0  0  0  0
   -8.8760   -3.7590  -24.7010 H   0  0  0  0  0  0  0  0  0  0  0  0
   -8.9860   -3.5330  -22.2130 H   0  0  0  0  0  0  0  0  0  0  0  0
   -6.8570   -3.4310  -21.2290 H   0  0  0  0  0  0  0  0  0  0  0  0
   -6.1760   -2.4800  -22.5500 H   0  0  0  0  0  0  0  0  0  0  0  0
  -10.5690   -1.5410  -22.8390 C   0  0  0  0  0  0  0  0  0  0  0  0
  -11.2020   -2.4200  -21.9520 C   0  0  0  0  0  0  0  0  0  0  0  0
  -12.5820   -2.4400  -21.8610 C   0  0  0  0  0  0  0  0  0  0  0  0
  -13.3550   -3.5380  -20.7540 Cl  0  0  0  0  0  0  0  0  0  0  0  0
  -13.3720   -1.5820  -22.6240 C   0  0  0  0  0  0  0  0  0  0  0  0
  -12.7540   -0.6640  -23.4500 C   0  0  0  0  0  0  0  0  0  0  0  0
  -11.3630   -0.6190  -23.5360 C   0  0  0  0  0  0  0  0  0  0  0  0
  -10.7450    0.5030  -24.3170 C   0  0  0  0  0  0  0  0  0  0  0  0
  -11.4230    1.3980  -24.8070 O   0  0  0  0  0  0  0  0  0  0  0  0
  -13.3190    0.0600  -24.0290 H   0  0  0  0  0  0  0  0  0  0  0  0
  -14.4520   -1.6220  -22.5380 H   0  0  0  0  0  0  0  0  0  0  0  0
  -10.6260   -3.0710  -21.3050 H   0  0  0  0  0  0  0  0  0  0  0  0
   -7.5910   -0.5400  -24.2190 H   0  0  0  0  0  0  0  0  0  0  0  0
   -8.8610   -1.4620  -25.0790 H   0  0  0  0  0  0  0  0  0  0  0  0
   -8.0210    1.3500  -25.7520 H   0  0  0  0  0  0  0  0  0  0  0  0
   -9.4220    2.3290  -25.2210 H   0  0  0  0  0  0  0  0  0  0  0  0
   -9.2590    2.8510  -22.6950 H   0  0  0  0  0  0  0  0  0  0  0  0
   -6.7920    2.5410  -21.4100 H   0  0  0  0  0  0  0  0  0  0  0  0
   -6.7060    4.1550  -22.1450 H   0  0  0  0  0  0  0  0  0  0  0  0
   -8.0020    3.8090  -20.9860 H   0  0  0  0  0  0  0  0  0  0  0  0
  1  2  1  0  0  0  0
  1 58  1  0  0  0  0
  1 59  1  0  0  0  0
  1 60  1  0  0  0  0
  2  3  1  0  0  0  0
  2 57  1  0  0  0  0
  3  4  2  0  0  0  0
  3  5  1  0  0  0  0
  5  6  1  0  0  0  0
  5 55  1  0  0  0  0
  5 56  1  0  0  0  0
  6  7  1  0  0  0  0
  6 48  1  0  0  0  0
  7  8  1  0  0  0  0
  7 53  1  0  0  0  0
  7 54  1  0  0  0  0
  8  9  1  1  0  0  0
  8 29  1  0  0  0  0
  8 41  1  0  0  0  0
  9 10  2  0  0  0  0
  9 11  1  0  0  0  0
 11 12  1  0  0  0  0
 11 28  1  0  0  0  0
 12 13  2  0  0  0  0
 12 21  1  0  0  0  0
 13 14  1  0  0  0  0
 13 27  1  0  0  0  0
 14 15  2  0  0  0  0
 15 16  1  0  0  0  0
 15 26  1  0  0  0  0
 16 17  2  0  0  0  0
 16 21  1  0  0  0  0
 17 18  1  0  0  0  0
 17 25  1  0  0  0  0
 18 19  2  0  0  0  0
 18 24  1  0  0  0  0
 19 20  1  0  0  0  0
 19 23  1  0  0  0  0
 20 21  2  0  0  0  0
 20 22  1  0  0  0  0
 28 29  1  0  0  0  0
 28 39  1  0  0  0  0
 28 40  1  0  0  0  0
 29 30  1  0  0  0  0
 29 38  1  1  0  0  0
 30 31  1  0  0  0  0
 30 36  1  0  0  0  0
 30 37  1  0  0  0  0
 31 32  1  0  0  0  0
 31 35  2  0  0  0  0
 32 33  2  0  0  0  0
 33 34  1  0  0  0  0
 34 35  1  0  0  0  0
 41 42  2  0  0  0  0
 41 47  1  0  0  0  0
 42 43  1  0  0  0  0
 42 52  1  0  0  0  0
 43 44  1  0  0  0  0
 43 45  2  0  0  0  0
 45 46  1  0  0  0  0
 45 51  1  0  0  0  0
 46 47  2  0  0  0  0
 46 50  1  0  0  0  0
 47 48  1  0  0  0  0
 48 49  2  0  0  0  0
M  CHG  1  34  -1
M  END
>  <MODEL>
       1

$$$$
