tmp_first_model_1_80.pdb
 OpenBabel08272517043D

 60 65  0  0  1  0  0  0  0  0999 V2000
   -2.6930   -6.7940  -22.7280 C   0  0  0  0  0  0  0  0  0  0  0  0
   -3.9600   -6.2010  -22.2850 N   0  0  0  0  0  0  0  0  0  0  0  0
   -5.0050   -7.0220  -22.0550 C   0  0  0  0  0  0  0  0  0  0  0  0
   -4.9530   -8.2160  -22.0980 O   0  0  0  0  0  0  0  0  0  0  0  0
   -6.6170   -6.0130  -21.4540 C   0  0  0  0  0  0  0  0  0  0  0  0
   -7.4200   -5.4620  -22.5530 N   0  0  0  0  0  0  0  0  0  0  0  0
   -8.4250   -4.4290  -22.3480 C   0  0  0  0  0  0  0  0  0  0  0  0
   -7.9830   -3.0460  -22.8700 C   0  0  2  0  0  0  0  0  0  0  0  0
   -6.8300   -2.4870  -22.0130 C   0  0  0  0  0  0  0  0  0  0  0  0
   -5.6710   -2.8550  -22.0360 O   0  0  0  0  0  0  0  0  0  0  0  0
   -7.3180   -1.4710  -21.2200 N   0  0  0  0  0  0  0  0  0  0  0  0
   -6.5570   -0.8660  -20.1960 C   0  0  0  0  0  0  0  0  0  0  0  0
   -6.9000   -1.0670  -18.8830 C   0  0  0  0  0  0  0  0  0  0  0  0
   -6.2250   -0.5630  -17.8240 N   0  0  0  0  0  0  0  0  0  0  0  0
   -5.1890    0.2000  -18.0800 C   0  0  0  0  0  0  0  0  0  0  0  0
   -4.7380    0.5120  -19.3950 C   0  0  0  0  0  0  0  0  0  0  0  0
   -3.6140    1.3520  -19.6170 C   0  0  0  0  0  0  0  0  0  0  0  0
   -3.2180    1.6560  -20.8910 C   0  0  0  0  0  0  0  0  0  0  0  0
   -3.9270    1.1410  -22.0000 C   0  0  0  0  0  0  0  0  0  0  0  0
   -5.0150    0.3260  -21.8120 C   0  0  0  0  0  0  0  0  0  0  0  0
   -5.4390   -0.0220  -20.4970 C   0  0  0  0  0  0  0  0  0  0  0  0
   -5.5590   -0.0670  -22.6650 H   0  0  0  0  0  0  0  0  0  0  0  0
   -3.6080    1.3980  -23.0070 H   0  0  0  0  0  0  0  0  0  0  0  0
   -2.3640    2.3050  -21.0620 H   0  0  0  0  0  0  0  0  0  0  0  0
   -3.0900    1.7560  -18.7550 H   0  0  0  0  0  0  0  0  0  0  0  0
   -4.6500    0.6120  -17.2270 H   0  0  0  0  0  0  0  0  0  0  0  0
   -7.7500   -1.7050  -18.6420 H   0  0  0  0  0  0  0  0  0  0  0  0
   -8.7620   -1.3390  -21.3000 C   0  0  0  0  0  0  0  0  0  0  0  0
   -9.1070   -1.9940  -22.6460 C   0  0  2  0  0  0  0  0  0  0  0  0
  -10.5440   -2.5130  -22.6820 C   0  0  0  0  0  0  0  0  0  0  0  0
  -10.7420   -3.1920  -21.8440 H   0  0  0  0  0  0  0  0  0  0  0  0
  -11.2600   -1.6900  -22.6020 H   0  0  0  0  0  0  0  0  0  0  0  0
  -10.7550   -3.0560  -23.6090 H   0  0  0  0  0  0  0  0  0  0  0  0
   -8.9960   -1.2310  -23.4190 H   0  0  0  0  0  0  0  0  0  0  0  0
   -9.0530   -0.2860  -21.2570 H   0  0  0  0  0  0  0  0  0  0  0  0
   -9.2620   -1.8720  -20.4780 H   0  0  0  0  0  0  0  0  0  0  0  0
   -7.4900   -3.2390  -24.2880 C   0  0  0  0  0  0  0  0  0  0  0  0
   -7.3670   -2.1330  -25.1360 C   0  0  0  0  0  0  0  0  0  0  0  0
   -6.9300   -2.2990  -26.4340 C   0  0  0  0  0  0  0  0  0  0  0  0
   -6.8240   -0.9050  -27.4730 Cl  0  0  0  0  0  0  0  0  0  0  0  0
   -6.5750   -3.5550  -26.9260 C   0  0  0  0  0  0  0  0  0  0  0  0
   -6.6260   -4.6400  -26.0730 C   0  0  0  0  0  0  0  0  0  0  0  0
   -7.0480   -4.4930  -24.7430 C   0  0  0  0  0  0  0  0  0  0  0  0
   -6.9370   -5.6650  -23.8120 C   0  0  0  0  0  0  0  0  0  0  0  0
   -6.4260   -6.7250  -24.1540 O   0  0  0  0  0  0  0  0  0  0  0  0
   -6.3260   -5.6230  -26.4240 H   0  0  0  0  0  0  0  0  0  0  0  0
   -6.2490   -3.6550  -27.9560 H   0  0  0  0  0  0  0  0  0  0  0  0
   -7.6040   -1.1330  -24.7890 H   0  0  0  0  0  0  0  0  0  0  0  0
   -9.3580   -4.7290  -22.8510 H   0  0  0  0  0  0  0  0  0  0  0  0
   -8.6160   -4.3780  -21.2770 H   0  0  0  0  0  0  0  0  0  0  0  0
   -6.9100   -6.2800  -21.3100 C   0  0  0  0  0  0  0  0  0  0  0  0
   -6.0060   -5.3420  -20.3210 C   0  0  0  0  0  0  0  0  0  0  0  0
   -5.5300   -6.0030  -19.6390 H   0  0  0  0  0  0  0  0  0  0  0  0
   -6.5900   -4.5040  -20.0120 H   0  0  0  0  0  0  0  0  0  0  0  0
   -7.8530   -6.4680  -20.7770 H   0  0  0  0  0  0  0  0  0  0  0  0
   -7.2050   -7.3760  -21.5460 H   0  0  0  0  0  0  0  0  0  0  0  0
   -4.0540   -5.1960  -22.3600 H   0  0  0  0  0  0  0  0  0  0  0  0
   -2.3510   -7.5370  -22.0040 H   0  0  0  0  0  0  0  0  0  0  0  0
   -2.8200   -7.3140  -23.6820 H   0  0  0  0  0  0  0  0  0  0  0  0
   -1.9380   -6.0140  -22.8290 H   0  0  0  0  0  0  0  0  0  0  0  0
  1  2  1  0  0  0  0
  1 58  1  0  0  0  0
  1 59  1  0  0  0  0
  1 60  1  0  0  0  0
  2  3  1  0  0  0  0
  2 57  1  0  0  0  0
  3  4  2  0  0  0  0
  3  5  1  0  0  0  0
  5  6  1  0  0  0  0
  5 51  1  0  0  0  0
  5 52  1  0  0  0  0
  6  7  1  0  0  0  0
  6 44  1  0  0  0  0
  7  8  1  0  0  0  0
  7 49  1  0  0  0  0
  7 50  1  0  0  0  0
  8  9  1  1  0  0  0
  8 29  1  0  0  0  0
  8 37  1  0  0  0  0
  9 10  2  0  0  0  0
  9 11  1  0  0  0  0
 11 12  1  0  0  0  0
 11 28  1  0  0  0  0
 12 13  2  0  0  0  0
 12 21  1  0  0  0  0
 13 14  1  0  0  0  0
 13 27  1  0  0  0  0
 14 15  2  0  0  0  0
 15 16  1  0  0  0  0
 15 26  1  0  0  0  0
 16 17  2  0  0  0  0
 16 21  1  0  0  0  0
 17 18  1  0  0  0  0
 17 25  1  0  0  0  0
 18 19  2  0  0  0  0
 18 24  1  0  0  0  0
 19 20  1  0  0  0  0
 19 23  1  0  0  0  0
 20 21  2  0  0  0  0
 20 22  1  0  0  0  0
 28 29  1  0  0  0  0
 28 35  1  0  0  0  0
 28 36  1  0  0  0  0
 29 30  1  0  0  0  0
 29 34  1  6  0  0  0
 30 31  1  0  0  0  0
 30 32  1  0  0  0  0
 30 33  1  0  0  0  0
 37 38  2  0  0  0  0
 37 43  1  0  0  0  0
 38 39  1  0  0  0  0
 38 48  1  0  0  0  0
 39 40  1  0  0  0  0
 39 41  2  0  0  0  0
 41 42  1  0  0  0  0
 41 47  1  0  0  0  0
 42 43  2  0  0  0  0
 42 46  1  0  0  0  0
 43 44  1  0  0  0  0
 44 45  2  0  0  0  0
 51 52  1  0  0  0  0
 51 55  1  0  0  0  0
 51 56  1  0  0  0  0
 52 53  1  0  0  0  0
 52 54  1  0  0  0  0
M  END
>  <MODEL>
       1

$$$$
