tmp_first_model_19_37.pdb
 OpenBabel08282503233D

 56 60  0  0  1  0  0  0  0  0999 V2000
   -7.3230    3.4500  -21.8820 C   0  0  0  0  0  0  0  0  0  0  0  0
   -8.1380    2.9600  -22.9780 N   0  0  0  0  0  0  0  0  0  0  0  0
   -7.5620    2.2540  -23.9770 C   0  0  0  0  0  0  0  0  0  0  0  0
   -6.3480    2.1250  -24.0790 O   0  0  0  0  0  0  0  0  0  0  0  0
   -8.5110    1.6330  -25.0090 C   0  0  0  0  0  0  0  0  0  0  0  0
   -9.2570    0.4950  -24.5020 N   0  0  0  0  0  0  0  0  0  0  0  0
   -8.5650   -0.7640  -24.3070 C   0  0  0  0  0  0  0  0  0  0  0  0
   -8.9890   -1.4580  -22.9860 C   0  0  2  0  0  0  0  0  0  0  0  0
   -8.4410   -0.6670  -21.7690 C   0  0  0  0  0  0  0  0  0  0  0  0
   -8.8330    0.4040  -21.3520 O   0  0  0  0  0  0  0  0  0  0  0  0
   -7.4070   -1.3760  -21.2050 N   0  0  0  0  0  0  0  0  0  0  0  0
   -6.6050   -0.8060  -20.1770 C   0  0  0  0  0  0  0  0  0  0  0  0
   -6.9070   -1.0440  -18.8640 C   0  0  0  0  0  0  0  0  0  0  0  0
   -6.2000   -0.5590  -17.8140 N   0  0  0  0  0  0  0  0  0  0  0  0
   -5.1680    0.2060  -18.0790 C   0  0  0  0  0  0  0  0  0  0  0  0
   -4.7300    0.5290  -19.3950 C   0  0  0  0  0  0  0  0  0  0  0  0
   -3.5990    1.3570  -19.6420 C   0  0  0  0  0  0  0  0  0  0  0  0
   -3.2100    1.6450  -20.9210 C   0  0  0  0  0  0  0  0  0  0  0  0
   -3.9310    1.1160  -22.0150 C   0  0  0  0  0  0  0  0  0  0  0  0
   -5.0280    0.3140  -21.8030 C   0  0  0  0  0  0  0  0  0  0  0  0
   -5.4670    0.0050  -20.4870 C   0  0  0  0  0  0  0  0  0  0  0  0
   -5.5800   -0.0800  -22.6520 H   0  0  0  0  0  0  0  0  0  0  0  0
   -3.6380    1.3590  -23.0310 H   0  0  0  0  0  0  0  0  0  0  0  0
   -2.3570    2.2950  -21.0990 H   0  0  0  0  0  0  0  0  0  0  0  0
   -3.0700    1.7700  -18.7860 H   0  0  0  0  0  0  0  0  0  0  0  0
   -4.6220    0.6130  -17.2270 H   0  0  0  0  0  0  0  0  0  0  0  0
   -7.7600   -1.6680  -18.6070 H   0  0  0  0  0  0  0  0  0  0  0  0
   -7.0860   -2.6130  -21.8860 C   0  0  0  0  0  0  0  0  0  0  0  0
   -8.2910   -2.8540  -22.8230 C   0  0  2  0  0  0  0  0  0  0  0  0
   -7.8850   -3.5930  -24.1050 C   0  0  0  0  0  0  0  0  0  0  0  0
   -7.1140   -3.0410  -24.6570 H   0  0  0  0  0  0  0  0  0  0  0  0
   -7.4690   -4.5780  -23.8670 H   0  0  0  0  0  0  0  0  0  0  0  0
   -8.7350   -3.7450  -24.7790 H   0  0  0  0  0  0  0  0  0  0  0  0
   -9.0070   -3.4850  -22.2890 H   0  0  0  0  0  0  0  0  0  0  0  0
   -6.1480   -2.5200  -22.4560 H   0  0  0  0  0  0  0  0  0  0  0  0
   -6.9470   -3.4270  -21.1620 H   0  0  0  0  0  0  0  0  0  0  0  0
  -10.5110   -1.4650  -22.9160 C   0  0  0  0  0  0  0  0  0  0  0  0
  -11.1730   -2.3040  -22.0130 C   0  0  0  0  0  0  0  0  0  0  0  0
  -12.5550   -2.3110  -21.9190 C   0  0  0  0  0  0  0  0  0  0  0  0
  -13.3120   -1.4450  -22.7130 C   0  0  0  0  0  0  0  0  0  0  0  0
  -12.6730   -0.5540  -23.5550 C   0  0  0  0  0  0  0  0  0  0  0  0
  -11.2790   -0.5340  -23.6300 C   0  0  0  0  0  0  0  0  0  0  0  0
  -10.6200    0.5800  -24.3960 C   0  0  0  0  0  0  0  0  0  0  0  0
  -11.2540    1.5240  -24.8490 O   0  0  0  0  0  0  0  0  0  0  0  0
  -13.2200    0.1690  -24.1520 H   0  0  0  0  0  0  0  0  0  0  0  0
  -14.3960   -1.4480  -22.6450 H   0  0  0  0  0  0  0  0  0  0  0  0
  -13.0430   -2.9810  -21.2170 H   0  0  0  0  0  0  0  0  0  0  0  0
  -10.6030   -2.9470  -21.3480 H   0  0  0  0  0  0  0  0  0  0  0  0
   -8.7660   -1.4490  -25.1480 H   0  0  0  0  0  0  0  0  0  0  0  0
   -7.4930   -0.5420  -24.2760 H   0  0  0  0  0  0  0  0  0  0  0  0
   -7.8770    1.3400  -25.8540 H   0  0  0  0  0  0  0  0  0  0  0  0
   -9.2690    2.3430  -25.3490 H   0  0  0  0  0  0  0  0  0  0  0  0
   -9.1390    2.9200  -22.8560 H   0  0  0  0  0  0  0  0  0  0  0  0
   -6.7870    2.6250  -21.3840 H   0  0  0  0  0  0  0  0  0  0  0  0
   -6.5800    4.1710  -22.2440 H   0  0  0  0  0  0  0  0  0  0  0  0
   -7.9920    3.9550  -21.1850 H   0  0  0  0  0  0  0  0  0  0  0  0
  1  2  1  0  0  0  0
  1 54  1  0  0  0  0
  1 55  1  0  0  0  0
  1 56  1  0  0  0  0
  2  3  1  0  0  0  0
  2 53  1  0  0  0  0
  3  4  2  0  0  0  0
  3  5  1  0  0  0  0
  5  6  1  0  0  0  0
  5 51  1  0  0  0  0
  5 52  1  0  0  0  0
  6  7  1  0  0  0  0
  6 43  1  0  0  0  0
  7  8  1  0  0  0  0
  7 49  1  0  0  0  0
  7 50  1  0  0  0  0
  8  9  1  1  0  0  0
  8 29  1  0  0  0  0
  8 37  1  0  0  0  0
  9 10  2  0  0  0  0
  9 11  1  0  0  0  0
 11 12  1  0  0  0  0
 11 28  1  0  0  0  0
 12 13  2  0  0  0  0
 12 21  1  0  0  0  0
 13 14  1  0  0  0  0
 13 27  1  0  0  0  0
 14 15  2  0  0  0  0
 15 16  1  0  0  0  0
 15 26  1  0  0  0  0
 16 17  2  0  0  0  0
 16 21  1  0  0  0  0
 17 18  1  0  0  0  0
 17 25  1  0  0  0  0
 18 19  2  0  0  0  0
 18 24  1  0  0  0  0
 19 20  1  0  0  0  0
 19 23  1  0  0  0  0
 20 21  2  0  0  0  0
 20 22  1  0  0  0  0
 28 29  1  0  0  0  0
 28 35  1  0  0  0  0
 28 36  1  0  0  0  0
 29 30  1  0  0  0  0
 29 34  1  1  0  0  0
 30 31  1  0  0  0  0
 30 32  1  0  0  0  0
 30 33  1  0  0  0  0
 37 38  2  0  0  0  0
 37 42  1  0  0  0  0
 38 39  1  0  0  0  0
 38 48  1  0  0  0  0
 39 40  2  0  0  0  0
 39 47  1  0  0  0  0
 40 41  1  0  0  0  0
 40 46  1  0  0  0  0
 41 42  2  0  0  0  0
 41 45  1  0  0  0  0
 42 43  1  0  0  0  0
 43 44  2  0  0  0  0
M  END
>  <MODEL>
       1

$$$$
