tmp_first_model_3_46.pdb
 OpenBabel08272518143D

 50 54  0  0  1  0  0  0  0  0999 V2000
   -9.7660   -0.7360  -23.6150 C   0  0  0  0  0  0  0  0  0  0  0  0
   -8.4720   -1.1500  -22.9160 C   0  0  1  0  0  0  0  0  0  0  0  0
   -8.0470   -0.2400  -21.7540 C   0  0  0  0  0  0  0  0  0  0  0  0
   -7.1270   -1.0830  -20.9920 N   0  0  0  0  0  0  0  0  0  0  0  0
   -6.3050   -0.6080  -19.9430 C   0  0  0  0  0  0  0  0  0  0  0  0
   -6.5830   -0.8670  -18.6220 C   0  0  0  0  0  0  0  0  0  0  0  0
   -5.9240   -0.2940  -17.5800 N   0  0  0  0  0  0  0  0  0  0  0  0
   -4.9360    0.5230  -17.8560 C   0  0  0  0  0  0  0  0  0  0  0  0
   -4.4920    0.8100  -19.1780 C   0  0  0  0  0  0  0  0  0  0  0  0
   -3.3690    1.6430  -19.4330 C   0  0  0  0  0  0  0  0  0  0  0  0
   -2.9570    1.8710  -20.7190 C   0  0  0  0  0  0  0  0  0  0  0  0
   -3.6510    1.2870  -21.8050 C   0  0  0  0  0  0  0  0  0  0  0  0
   -4.7480    0.4940  -21.5790 C   0  0  0  0  0  0  0  0  0  0  0  0
   -5.1950    0.2350  -20.2570 C   0  0  0  0  0  0  0  0  0  0  0  0
   -5.2780    0.0430  -22.4090 H   0  0  0  0  0  0  0  0  0  0  0  0
   -3.3190    1.4750  -22.8230 H   0  0  0  0  0  0  0  0  0  0  0  0
   -2.0970    2.5060  -20.9150 H   0  0  0  0  0  0  0  0  0  0  0  0
   -2.8590    2.1020  -18.5890 H   0  0  0  0  0  0  0  0  0  0  0  0
   -4.4190    0.9840  -17.0120 H   0  0  0  0  0  0  0  0  0  0  0  0
   -7.3850   -1.5480  -18.3500 H   0  0  0  0  0  0  0  0  0  0  0  0
   -7.2800   -2.4260  -21.2590 C   0  0  0  0  0  0  0  0  0  0  0  0
   -6.6280   -3.3220  -20.7520 O   0  0  0  0  0  0  0  0  0  0  0  0
   -8.4260   -2.5830  -22.2690 C   0  0  1  0  0  0  0  0  0  0  0  0
   -9.6670   -2.9360  -21.4110 C   0  0  0  0  0  0  0  0  0  0  0  0
  -10.7620   -3.4250  -22.2260 N   0  0  0  0  0  0  0  0  0  0  0  0
  -12.1540   -3.1980  -21.8840 C   0  0  0  0  0  0  0  0  0  0  0  0
  -12.8500   -2.4370  -22.9410 C   0  0  0  0  0  0  0  0  0  0  0  0
  -13.3700   -1.8510  -23.7910 N   0  0  0  0  0  0  0  0  0  0  0  0
  -12.2340   -2.6600  -20.9400 H   0  0  0  0  0  0  0  0  0  0  0  0
  -12.6520   -4.1690  -21.8100 H   0  0  0  0  0  0  0  0  0  0  0  0
  -10.5530   -4.4470  -23.1090 C   0  0  0  0  0  0  0  0  0  0  0  0
  -11.4560   -5.1840  -23.4510 O   0  0  0  0  0  0  0  0  0  0  0  0
   -9.1850   -4.5740  -23.6540 C   0  0  0  0  0  0  0  0  0  0  0  0
   -8.9690   -5.5910  -24.5760 C   0  0  0  0  0  0  0  0  0  0  0  0
   -7.7250   -5.7540  -25.1440 C   0  0  0  0  0  0  0  0  0  0  0  0
   -6.7160   -4.8850  -24.7480 C   0  0  0  0  0  0  0  0  0  0  0  0
   -5.4980   -5.0410  -25.2880 F   0  0  0  0  0  0  0  0  0  0  0  0
   -6.9040   -3.8880  -23.8110 C   0  0  0  0  0  0  0  0  0  0  0  0
   -8.1730   -3.6980  -23.2580 C   0  0  0  0  0  0  0  0  0  0  0  0
   -6.0590   -3.3010  -23.4730 H   0  0  0  0  0  0  0  0  0  0  0  0
   -7.5280   -6.5370  -25.8630 H   0  0  0  0  0  0  0  0  0  0  0  0
   -9.8080   -6.2350  -24.8150 H   0  0  0  0  0  0  0  0  0  0  0  0
   -9.3570   -3.6910  -20.6670 H   0  0  0  0  0  0  0  0  0  0  0  0
  -10.0010   -2.0500  -20.8620 H   0  0  0  0  0  0  0  0  0  0  0  0
   -8.9210    0.0500  -21.1470 H   0  0  0  0  0  0  0  0  0  0  0  0
   -7.5590    0.6860  -22.0690 H   0  0  0  0  0  0  0  0  0  0  0  0
   -7.6670   -1.1520  -23.6670 H   0  0  0  0  0  0  0  0  0  0  0  0
   -9.6490    0.2310  -24.1180 H   0  0  0  0  0  0  0  0  0  0  0  0
  -10.6020   -0.6490  -22.9110 H   0  0  0  0  0  0  0  0  0  0  0  0
  -10.0370   -1.4670  -24.3840 H   0  0  0  0  0  0  0  0  0  0  0  0
  1  2  1  0  0  0  0
  1 48  1  0  0  0  0
  1 49  1  0  0  0  0
  1 50  1  0  0  0  0
  2  3  1  0  0  0  0
  2 23  1  0  0  0  0
  2 47  1  6  0  0  0
  3  4  1  0  0  0  0
  3 45  1  0  0  0  0
  3 46  1  0  0  0  0
  4  5  1  0  0  0  0
  4 21  1  0  0  0  0
  5  6  2  0  0  0  0
  5 14  1  0  0  0  0
  6  7  1  0  0  0  0
  6 20  1  0  0  0  0
  7  8  2  0  0  0  0
  8  9  1  0  0  0  0
  8 19  1  0  0  0  0
  9 10  2  0  0  0  0
  9 14  1  0  0  0  0
 10 11  1  0  0  0  0
 10 18  1  0  0  0  0
 11 12  2  0  0  0  0
 11 17  1  0  0  0  0
 12 13  1  0  0  0  0
 12 16  1  0  0  0  0
 13 14  2  0  0  0  0
 13 15  1  0  0  0  0
 21 22  2  0  0  0  0
 23 21  1  1  0  0  0
 23 24  1  0  0  0  0
 23 39  1  0  0  0  0
 24 25  1  0  0  0  0
 24 43  1  0  0  0  0
 24 44  1  0  0  0  0
 25 26  1  0  0  0  0
 25 31  1  0  0  0  0
 26 27  1  0  0  0  0
 26 29  1  0  0  0  0
 26 30  1  0  0  0  0
 27 28  3  0  0  0  0
 31 32  2  0  0  0  0
 31 33  1  0  0  0  0
 33 34  2  0  0  0  0
 33 39  1  0  0  0  0
 34 35  1  0  0  0  0
 34 42  1  0  0  0  0
 35 36  2  0  0  0  0
 35 41  1  0  0  0  0
 36 37  1  0  0  0  0
 36 38  1  0  0  0  0
 38 39  2  0  0  0  0
 38 40  1  0  0  0  0
M  END
>  <MODEL>
       1

$$$$
