tmp_first_model_14_18.pdb
 OpenBabel08282500413D

 56 61  0  0  1  0  0  0  0  0999 V2000
  -10.4760   -1.1070  -23.3090 C   0  0  0  0  0  0  0  0  0  0  0  0
   -9.0270   -1.4480  -22.9750 C   0  0  1  0  0  0  0  0  0  0  0  0
   -8.4320   -0.4990  -21.9200 C   0  0  0  0  0  0  0  0  0  0  0  0
   -7.4250   -1.3100  -21.2620 N   0  0  0  0  0  0  0  0  0  0  0  0
   -6.5990   -0.8150  -20.2220 C   0  0  0  0  0  0  0  0  0  0  0  0
   -6.9210   -1.0390  -18.9070 C   0  0  0  0  0  0  0  0  0  0  0  0
   -6.2510   -0.4960  -17.8620 N   0  0  0  0  0  0  0  0  0  0  0  0
   -5.2160    0.2590  -18.1230 C   0  0  0  0  0  0  0  0  0  0  0  0
   -4.7560    0.5500  -19.4350 C   0  0  0  0  0  0  0  0  0  0  0  0
   -3.6130    1.3590  -19.6630 C   0  0  0  0  0  0  0  0  0  0  0  0
   -3.2060    1.6240  -20.9410 C   0  0  0  0  0  0  0  0  0  0  0  0
   -3.9150    1.0830  -22.0390 C   0  0  0  0  0  0  0  0  0  0  0  0
   -5.0180    0.2890  -21.8420 C   0  0  0  0  0  0  0  0  0  0  0  0
   -5.4690    0.0060  -20.5270 C   0  0  0  0  0  0  0  0  0  0  0  0
   -5.5490   -0.1390  -22.6870 H   0  0  0  0  0  0  0  0  0  0  0  0
   -3.5760    1.2940  -23.0480 H   0  0  0  0  0  0  0  0  0  0  0  0
   -2.3350    2.2480  -21.1210 H   0  0  0  0  0  0  0  0  0  0  0  0
   -3.0790    1.7640  -18.8060 H   0  0  0  0  0  0  0  0  0  0  0  0
   -4.6790    0.6750  -17.2710 H   0  0  0  0  0  0  0  0  0  0  0  0
   -7.7670   -1.6680  -18.6410 H   0  0  0  0  0  0  0  0  0  0  0  0
   -7.5570   -2.6610  -21.5000 C   0  0  0  0  0  0  0  0  0  0  0  0
   -6.7740   -3.4960  -21.1030 O   0  0  0  0  0  0  0  0  0  0  0  0
   -8.7870   -2.8930  -22.3980 C   0  0  1  0  0  0  0  0  0  0  0  0
   -9.9880   -3.3630  -21.5360 C   0  0  0  0  0  0  0  0  0  0  0  0
  -11.1250   -3.8120  -22.3490 N   0  0  0  0  0  0  0  0  0  0  0  0
  -12.5010   -3.7540  -21.8480 C   0  0  0  0  0  0  0  0  0  0  0  0
  -13.3690   -2.6890  -22.4730 C   0  0  0  0  0  0  0  0  0  0  0  0
  -14.0100   -1.5680  -21.8940 C   0  0  0  0  0  0  0  0  0  0  0  0
  -14.7940   -1.0540  -22.9010 C   0  0  0  0  0  0  0  0  0  0  0  0
  -14.6070   -1.8580  -23.9730 N   0  0  0  0  0  0  0  0  0  0  0  0
  -13.7500   -2.8610  -23.7310 N   0  0  0  0  0  0  0  0  0  0  0  0
  -15.1330   -1.8980  -24.8310 H   0  0  0  0  0  0  0  0  0  0  0  0
  -15.4630   -0.2040  -22.9360 H   0  0  0  0  0  0  0  0  0  0  0  0
  -13.9060   -1.2080  -20.8800 H   0  0  0  0  0  0  0  0  0  0  0  0
  -12.9600   -4.6990  -22.1540 H   0  0  0  0  0  0  0  0  0  0  0  0
  -12.4840   -3.7050  -20.7550 H   0  0  0  0  0  0  0  0  0  0  0  0
  -10.9260   -4.6440  -23.4240 C   0  0  0  0  0  0  0  0  0  0  0  0
  -11.8500   -5.2020  -23.9940 O   0  0  0  0  0  0  0  0  0  0  0  0
   -9.5170   -4.7960  -23.8990 C   0  0  0  0  0  0  0  0  0  0  0  0
   -9.2610   -5.7730  -24.8630 C   0  0  0  0  0  0  0  0  0  0  0  0
   -7.9970   -5.9060  -25.4070 C   0  0  0  0  0  0  0  0  0  0  0  0
   -7.0010   -5.0320  -24.9840 C   0  0  0  0  0  0  0  0  0  0  0  0
   -5.7680   -5.1540  -25.5060 F   0  0  0  0  0  0  0  0  0  0  0  0
   -7.2230   -4.0810  -24.0080 C   0  0  0  0  0  0  0  0  0  0  0  0
   -8.5000   -3.9510  -23.4430 C   0  0  0  0  0  0  0  0  0  0  0  0
   -6.3850   -3.4910  -23.6620 H   0  0  0  0  0  0  0  0  0  0  0  0
   -7.7750   -6.6650  -26.1470 H   0  0  0  0  0  0  0  0  0  0  0  0
  -10.0810   -6.4110  -25.1850 H   0  0  0  0  0  0  0  0  0  0  0  0
  -10.2800   -2.5010  -20.9240 H   0  0  0  0  0  0  0  0  0  0  0  0
   -9.6630   -4.1820  -20.8800 H   0  0  0  0  0  0  0  0  0  0  0  0
   -9.1980   -0.1480  -21.2070 H   0  0  0  0  0  0  0  0  0  0  0  0
   -7.9760    0.3910  -22.3660 H   0  0  0  0  0  0  0  0  0  0  0  0
   -8.4160   -1.3920  -23.8860 H   0  0  0  0  0  0  0  0  0  0  0  0
  -11.0700   -1.0760  -22.3910 H   0  0  0  0  0  0  0  0  0  0  0  0
  -10.5680   -0.1350  -23.8010 H   0  0  0  0  0  0  0  0  0  0  0  0
  -10.9150   -1.8740  -23.9500 H   0  0  0  0  0  0  0  0  0  0  0  0
  1  2  1  0  0  0  0
  1 54  1  0  0  0  0
  1 55  1  0  0  0  0
  1 56  1  0  0  0  0
  2  3  1  0  0  0  0
  2 23  1  0  0  0  0
  2 53  1  6  0  0  0
  3  4  1  0  0  0  0
  3 51  1  0  0  0  0
  3 52  1  0  0  0  0
  4  5  1  0  0  0  0
  4 21  1  0  0  0  0
  5  6  2  0  0  0  0
  5 14  1  0  0  0  0
  6  7  1  0  0  0  0
  6 20  1  0  0  0  0
  7  8  2  0  0  0  0
  8  9  1  0  0  0  0
  8 19  1  0  0  0  0
  9 10  2  0  0  0  0
  9 14  1  0  0  0  0
 10 11  1  0  0  0  0
 10 18  1  0  0  0  0
 11 12  2  0  0  0  0
 11 17  1  0  0  0  0
 12 13  1  0  0  0  0
 12 16  1  0  0  0  0
 13 14  2  0  0  0  0
 13 15  1  0  0  0  0
 21 22  2  0  0  0  0
 23 21  1  1  0  0  0
 23 24  1  0  0  0  0
 23 45  1  0  0  0  0
 24 25  1  0  0  0  0
 24 49  1  0  0  0  0
 24 50  1  0  0  0  0
 25 26  1  0  0  0  0
 25 37  1  0  0  0  0
 26 27  1  0  0  0  0
 26 35  1  0  0  0  0
 26 36  1  0  0  0  0
 27 28  1  0  0  0  0
 27 31  2  0  0  0  0
 28 29  2  0  0  0  0
 28 34  1  0  0  0  0
 29 30  1  0  0  0  0
 29 33  1  0  0  0  0
 30 31  1  0  0  0  0
 30 32  1  0  0  0  0
 37 38  2  0  0  0  0
 37 39  1  0  0  0  0
 39 40  2  0  0  0  0
 39 45  1  0  0  0  0
 40 41  1  0  0  0  0
 40 48  1  0  0  0  0
 41 42  2  0  0  0  0
 41 47  1  0  0  0  0
 42 43  1  0  0  0  0
 42 44  1  0  0  0  0
 44 45  2  0  0  0  0
 44 46  1  0  0  0  0
M  END
>  <MODEL>
       1

$$$$
