tmp_first_model_13_15.pdb
 OpenBabel08282500103D

 63 68  0  0  1  0  0  0  0  0999 V2000
   -7.4940    3.2820  -21.6640 C   0  0  0  0  0  0  0  0  0  0  0  0
   -8.4120    2.8470  -22.6990 N   0  0  0  0  0  0  0  0  0  0  0  0
   -7.8780    2.2070  -23.7580 C   0  0  0  0  0  0  0  0  0  0  0  0
   -6.6690    2.1240  -23.9230 O   0  0  0  0  0  0  0  0  0  0  0  0
   -8.8490    1.5940  -24.7740 C   0  0  0  0  0  0  0  0  0  0  0  0
   -9.5250    0.4040  -24.2900 N   0  0  0  0  0  0  0  0  0  0  0  0
   -8.7630   -0.8280  -24.1750 C   0  0  0  0  0  0  0  0  0  0  0  0
   -9.0910   -1.5820  -22.8600 C   0  0  2  0  0  0  0  0  0  0  0  0
   -8.5470   -0.7870  -21.6420 C   0  0  0  0  0  0  0  0  0  0  0  0
   -9.0370    0.2010  -21.1340 O   0  0  0  0  0  0  0  0  0  0  0  0
   -7.3880   -1.3890  -21.2080 N   0  0  0  0  0  0  0  0  0  0  0  0
   -6.6000   -0.8130  -20.1760 C   0  0  0  0  0  0  0  0  0  0  0  0
   -6.9060   -1.0450  -18.8590 C   0  0  0  0  0  0  0  0  0  0  0  0
   -6.1990   -0.5480  -17.8170 N   0  0  0  0  0  0  0  0  0  0  0  0
   -5.1650    0.2090  -18.0810 C   0  0  0  0  0  0  0  0  0  0  0  0
   -4.7290    0.5330  -19.3980 C   0  0  0  0  0  0  0  0  0  0  0  0
   -3.6050    1.3710  -19.6430 C   0  0  0  0  0  0  0  0  0  0  0  0
   -3.2250    1.6670  -20.9220 C   0  0  0  0  0  0  0  0  0  0  0  0
   -3.9500    1.1410  -22.0140 C   0  0  0  0  0  0  0  0  0  0  0  0
   -5.0380    0.3280  -21.8030 C   0  0  0  0  0  0  0  0  0  0  0  0
   -5.4630    0.0020  -20.4860 C   0  0  0  0  0  0  0  0  0  0  0  0
   -5.6000   -0.0520  -22.6520 H   0  0  0  0  0  0  0  0  0  0  0  0
   -3.6640    1.3850  -23.0320 H   0  0  0  0  0  0  0  0  0  0  0  0
   -2.3760    2.3220  -21.1020 H   0  0  0  0  0  0  0  0  0  0  0  0
   -3.0730    1.7750  -18.7860 H   0  0  0  0  0  0  0  0  0  0  0  0
   -4.6170    0.6120  -17.2300 H   0  0  0  0  0  0  0  0  0  0  0  0
   -7.7560   -1.6700  -18.5990 H   0  0  0  0  0  0  0  0  0  0  0  0
   -7.0230   -2.5860  -21.9380 C   0  0  0  0  0  0  0  0  0  0  0  0
   -8.2950   -2.9210  -22.7410 C   0  0  2  0  0  0  0  0  0  0  0  0
   -7.9700   -3.6680  -24.0520 C   0  0  0  0  0  0  0  0  0  0  0  0
   -7.3960   -4.9860  -23.8140 N   0  0  0  0  0  0  0  0  0  0  0  0
   -8.0720   -6.1190  -23.5160 C   0  0  0  0  0  0  0  0  0  0  0  0
   -7.1360   -7.1010  -23.2850 C   0  0  0  0  0  0  0  0  0  0  0  0
   -5.8990   -6.4440  -23.4770 C   0  0  0  0  0  0  0  0  0  0  0  0
   -6.0670   -5.1650  -23.7900 N   0  0  0  0  0  0  0  0  0  0  0  0
   -4.8870   -6.8300  -23.4050 H   0  0  0  0  0  0  0  0  0  0  0  0
   -7.3170   -8.1370  -23.0220 H   0  0  0  0  0  0  0  0  0  0  0  0
   -9.1570   -6.1160  -23.5010 H   0  0  0  0  0  0  0  0  0  0  0  0
   -7.2310   -3.1220  -24.6490 H   0  0  0  0  0  0  0  0  0  0  0  0
   -8.8810   -3.8160  -24.6450 H   0  0  0  0  0  0  0  0  0  0  0  0
   -8.9130   -3.5930  -22.1420 H   0  0  0  0  0  0  0  0  0  0  0  0
   -6.1640   -2.4050  -22.6030 H   0  0  0  0  0  0  0  0  0  0  0  0
   -6.7350   -3.3870  -21.2470 H   0  0  0  0  0  0  0  0  0  0  0  0
  -10.6060   -1.6840  -22.7520 C   0  0  0  0  0  0  0  0  0  0  0  0
  -11.1920   -2.6140  -21.8840 C   0  0  0  0  0  0  0  0  0  0  0  0
  -12.5680   -2.6720  -21.7550 C   0  0  0  0  0  0  0  0  0  0  0  0
  -13.2870   -3.8170  -20.6620 Cl  0  0  0  0  0  0  0  0  0  0  0  0
  -13.4040   -1.8150  -22.4690 C   0  0  0  0  0  0  0  0  0  0  0  0
  -12.8350   -0.8530  -23.2780 C   0  0  0  0  0  0  0  0  0  0  0  0
  -11.4480   -0.7640  -23.3970 C   0  0  0  0  0  0  0  0  0  0  0  0
  -10.8880    0.4010  -24.1610 C   0  0  0  0  0  0  0  0  0  0  0  0
  -11.6040    1.2920  -24.5970 O   0  0  0  0  0  0  0  0  0  0  0  0
  -13.4360   -0.1280  -23.8190 H   0  0  0  0  0  0  0  0  0  0  0  0
  -14.4780   -1.8980  -22.3590 H   0  0  0  0  0  0  0  0  0  0  0  0
  -10.5860   -3.2780  -21.2800 H   0  0  0  0  0  0  0  0  0  0  0  0
   -8.9770   -1.4910  -25.0310 H   0  0  0  0  0  0  0  0  0  0  0  0
   -7.7050   -0.5520  -24.1910 H   0  0  0  0  0  0  0  0  0  0  0  0
   -9.6460    2.2890  -25.0490 H   0  0  0  0  0  0  0  0  0  0  0  0
   -8.2350    1.3650  -25.6540 H   0  0  0  0  0  0  0  0  0  0  0  0
   -9.3990    2.7590  -22.5000 H   0  0  0  0  0  0  0  0  0  0  0  0
   -6.8430    2.4510  -21.3680 H   0  0  0  0  0  0  0  0  0  0  0  0
   -8.0730    3.6210  -20.8180 H   0  0  0  0  0  0  0  0  0  0  0  0
   -6.8640    4.0980  -22.0310 H   0  0  0  0  0  0  0  0  0  0  0  0
  1  2  1  0  0  0  0
  1 61  1  0  0  0  0
  1 62  1  0  0  0  0
  1 63  1  0  0  0  0
  2  3  1  0  0  0  0
  2 60  1  0  0  0  0
  3  4  2  0  0  0  0
  3  5  1  0  0  0  0
  5  6  1  0  0  0  0
  5 58  1  0  0  0  0
  5 59  1  0  0  0  0
  6  7  1  0  0  0  0
  6 51  1  0  0  0  0
  7  8  1  0  0  0  0
  7 56  1  0  0  0  0
  7 57  1  0  0  0  0
  8  9  1  1  0  0  0
  8 29  1  0  0  0  0
  8 44  1  0  0  0  0
  9 10  2  0  0  0  0
  9 11  1  0  0  0  0
 11 12  1  0  0  0  0
 11 28  1  0  0  0  0
 12 13  2  0  0  0  0
 12 21  1  0  0  0  0
 13 14  1  0  0  0  0
 13 27  1  0  0  0  0
 14 15  2  0  0  0  0
 15 16  1  0  0  0  0
 15 26  1  0  0  0  0
 16 17  2  0  0  0  0
 16 21  1  0  0  0  0
 17 18  1  0  0  0  0
 17 25  1  0  0  0  0
 18 19  2  0  0  0  0
 18 24  1  0  0  0  0
 19 20  1  0  0  0  0
 19 23  1  0  0  0  0
 20 21  2  0  0  0  0
 20 22  1  0  0  0  0
 28 29  1  0  0  0  0
 28 42  1  0  0  0  0
 28 43  1  0  0  0  0
 29 30  1  0  0  0  0
 29 41  1  1  0  0  0
 30 31  1  0  0  0  0
 30 39  1  0  0  0  0
 30 40  1  0  0  0  0
 31 32  1  0  0  0  0
 31 35  1  0  0  0  0
 32 33  2  0  0  0  0
 32 38  1  0  0  0  0
 33 34  1  0  0  0  0
 33 37  1  0  0  0  0
 34 35  2  0  0  0  0
 34 36  1  0  0  0  0
 44 45  2  0  0  0  0
 44 50  1  0  0  0  0
 45 46  1  0  0  0  0
 45 55  1  0  0  0  0
 46 47  1  0  0  0  0
 46 48  2  0  0  0  0
 48 49  1  0  0  0  0
 48 54  1  0  0  0  0
 49 50  2  0  0  0  0
 49 53  1  0  0  0  0
 50 51  1  0  0  0  0
 51 52  2  0  0  0  0
M  END
>  <MODEL>
       1

$$$$
