tmp_first_model_4_17.pdb
 OpenBabel08272518513D

 38 41  0  0  1  0  0  0  0  0999 V2000
  -10.7580   -4.5680  -22.7630 C   0  0  0  0  0  0  0  0  0  0  0  0
  -10.5690   -3.3100  -23.6100 C   0  0  2  0  0  0  0  0  0  0  0  0
   -9.4660   -3.5170  -24.6570 C   0  0  0  0  0  0  0  0  0  0  0  0
   -8.1190   -3.7870  -23.9650 C   0  0  0  0  0  0  0  0  0  0  0  0
   -7.9100   -2.8170  -22.8850 C   0  0  0  0  0  0  0  0  0  0  0  0
   -6.7420   -2.6000  -22.0760 C   0  0  0  0  0  0  0  0  0  0  0  0
   -5.6590   -3.1330  -22.0800 O   0  5  0  0  0  0  0  0  0  0  0  0
   -7.1360   -1.5460  -21.2070 N   0  0  0  0  0  0  0  0  0  0  0  0
   -6.3180   -1.0540  -20.1740 C   0  0  0  0  0  0  0  0  0  0  0  0
   -6.5590   -1.4000  -18.8720 C   0  0  0  0  0  0  0  0  0  0  0  0
   -5.6570   -1.2190  -17.8830 N   0  0  0  0  0  0  0  0  0  0  0  0
   -4.5350   -0.6030  -18.1760 C   0  0  0  0  0  0  0  0  0  0  0  0
   -4.2320   -0.0790  -19.4670 C   0  0  0  0  0  0  0  0  0  0  0  0
   -3.0400    0.6400  -19.7470 C   0  0  0  0  0  0  0  0  0  0  0  0
   -2.8280    1.1800  -20.9850 C   0  0  0  0  0  0  0  0  0  0  0  0
   -3.8070    1.0690  -21.9920 C   0  0  0  0  0  0  0  0  0  0  0  0
   -4.9550    0.3530  -21.7580 C   0  0  0  0  0  0  0  0  0  0  0  0
   -5.1750   -0.2640  -20.4950 C   0  0  0  0  0  0  0  0  0  0  0  0
   -5.7030    0.2730  -22.5370 H   0  0  0  0  0  0  0  0  0  0  0  0
   -3.6480    1.5620  -22.9480 H   0  0  0  0  0  0  0  0  0  0  0  0
   -1.9010    1.7040  -21.1970 H   0  0  0  0  0  0  0  0  0  0  0  0
   -2.3080    0.7650  -18.9620 H   0  0  0  0  0  0  0  0  0  0  0  0
   -3.8060   -0.5270  -17.3690 H   0  0  0  0  0  0  0  0  0  0  0  0
   -7.5020   -1.8640  -18.5890 H   0  0  0  0  0  0  0  0  0  0  0  0
   -8.4510   -1.1520  -21.4240 C   0  0  0  0  0  0  0  0  0  0  0  0
   -9.0710   -0.2760  -20.8680 O   0  0  0  0  0  0  0  0  0  0  0  0
   -8.8870   -1.9900  -22.4340 N   0  0  0  0  0  0  0  0  0  0  0  0
  -10.2860   -2.0500  -22.8040 C   0  0  0  0  0  0  0  0  0  0  0  0
  -10.5490   -1.1590  -23.3850 H   0  0  0  0  0  0  0  0  0  0  0  0
  -10.8730   -2.0260  -21.8830 H   0  0  0  0  0  0  0  0  0  0  0  0
   -7.2920   -3.7340  -24.6820 H   0  0  0  0  0  0  0  0  0  0  0  0
   -8.0670   -4.8050  -23.5470 H   0  0  0  0  0  0  0  0  0  0  0  0
   -9.7220   -4.3420  -25.3330 H   0  0  0  0  0  0  0  0  0  0  0  0
   -9.3690   -2.6130  -25.2720 H   0  0  0  0  0  0  0  0  0  0  0  0
  -11.5230   -3.0960  -24.0880 H   0  0  0  0  0  0  0  0  0  0  0  0
  -10.8710   -5.4210  -23.4440 H   0  0  0  0  0  0  0  0  0  0  0  0
   -9.8960   -4.7610  -22.1110 H   0  0  0  0  0  0  0  0  0  0  0  0
  -11.6550   -4.4950  -22.1360 H   0  0  0  0  0  0  0  0  0  0  0  0
  1  2  1  0  0  0  0
  1 36  1  0  0  0  0
  1 37  1  0  0  0  0
  1 38  1  0  0  0  0
  2  3  1  0  0  0  0
  2 28  1  0  0  0  0
  2 35  1  6  0  0  0
  3  4  1  0  0  0  0
  3 33  1  0  0  0  0
  3 34  1  0  0  0  0
  4  5  1  0  0  0  0
  4 31  1  0  0  0  0
  4 32  1  0  0  0  0
  5  6  2  0  0  0  0
  5 27  1  0  0  0  0
  6  7  1  0  0  0  0
  6  8  1  0  0  0  0
  8  9  1  0  0  0  0
  8 25  1  0  0  0  0
  9 10  2  0  0  0  0
  9 18  1  0  0  0  0
 10 11  1  0  0  0  0
 10 24  1  0  0  0  0
 11 12  2  0  0  0  0
 12 13  1  0  0  0  0
 12 23  1  0  0  0  0
 13 14  2  0  0  0  0
 13 18  1  0  0  0  0
 14 15  1  0  0  0  0
 14 22  1  0  0  0  0
 15 16  2  0  0  0  0
 15 21  1  0  0  0  0
 16 17  1  0  0  0  0
 16 20  1  0  0  0  0
 17 18  2  0  0  0  0
 17 19  1  0  0  0  0
 25 26  2  0  0  0  0
 25 27  1  0  0  0  0
 27 28  1  0  0  0  0
 28 29  1  0  0  0  0
 28 30  1  0  0  0  0
M  CHG  1   7  -1
M  END
>  <MODEL>
       1

$$$$
