tmp_first_model_17_51.pdb
 OpenBabel08282502223D

 50 52  0  0  0  0  0  0  0  0999 V2000
  -11.5710   -0.2550  -25.0400 C   0  0  0  0  0  0  0  0  0  0  0  0
  -10.7850   -0.0070  -23.9980 C   0  0  0  0  0  0  0  0  0  0  0  0
  -10.6930   -0.9410  -22.8040 C   0  0  0  0  0  0  0  0  0  0  0  0
   -9.3380   -1.4340  -22.5620 N   0  0  0  0  0  0  0  0  0  0  0  0
   -8.6480   -0.8460  -21.5180 C   0  0  0  0  0  0  0  0  0  0  0  0
   -9.1540    0.0260  -20.8120 O   0  0  0  0  0  0  0  0  0  0  0  0
   -7.3960   -1.3300  -21.2620 N   0  0  0  0  0  0  0  0  0  0  0  0
   -6.6160   -0.8050  -20.2020 C   0  0  0  0  0  0  0  0  0  0  0  0
   -6.9420   -1.0480  -18.8880 C   0  0  0  0  0  0  0  0  0  0  0  0
   -6.2440   -0.5660  -17.8320 N   0  0  0  0  0  0  0  0  0  0  0  0
   -5.2050    0.1930  -18.0940 C   0  0  0  0  0  0  0  0  0  0  0  0
   -4.7610    0.5230  -19.4070 C   0  0  0  0  0  0  0  0  0  0  0  0
   -3.6420    1.3650  -19.6450 C   0  0  0  0  0  0  0  0  0  0  0  0
   -3.2650    1.6700  -20.9250 C   0  0  0  0  0  0  0  0  0  0  0  0
   -3.9790    1.1540  -22.0290 C   0  0  0  0  0  0  0  0  0  0  0  0
   -5.0700    0.3410  -21.8250 C   0  0  0  0  0  0  0  0  0  0  0  0
   -5.4800    0.0000  -20.5060 C   0  0  0  0  0  0  0  0  0  0  0  0
   -5.6280   -0.0360  -22.6800 H   0  0  0  0  0  0  0  0  0  0  0  0
   -3.6600    1.4010  -23.0380 H   0  0  0  0  0  0  0  0  0  0  0  0
   -2.4040    2.3090  -21.1040 H   0  0  0  0  0  0  0  0  0  0  0  0
   -3.1030    1.7580  -18.7880 H   0  0  0  0  0  0  0  0  0  0  0  0
   -4.6480    0.5910  -17.2450 H   0  0  0  0  0  0  0  0  0  0  0  0
   -7.8040   -1.6700  -18.6570 H   0  0  0  0  0  0  0  0  0  0  0  0
   -6.9730   -1.9460  -21.9400 H   0  0  0  0  0  0  0  0  0  0  0  0
   -8.7410   -2.2130  -23.6070 C   0  0  0  0  0  0  0  0  0  0  0  0
   -9.1760   -3.5150  -23.8600 C   0  0  0  0  0  0  0  0  0  0  0  0
   -8.5800   -4.2480  -24.8810 C   0  0  0  0  0  0  0  0  0  0  0  0
   -7.5880   -3.6920  -25.6800 C   0  0  0  0  0  0  0  0  0  0  0  0
   -7.2020   -2.3820  -25.4440 C   0  0  0  0  0  0  0  0  0  0  0  0
   -5.9700   -1.6610  -26.4350 Cl  0  0  0  0  0  0  0  0  0  0  0  0
   -7.7690   -1.6330  -24.4220 C   0  0  0  0  0  0  0  0  0  0  0  0
   -7.4860   -0.5930  -24.2750 H   0  0  0  0  0  0  0  0  0  0  0  0
   -7.1160   -4.2630  -26.4710 H   0  0  0  0  0  0  0  0  0  0  0  0
   -8.9050   -5.2670  -25.0640 H   0  0  0  0  0  0  0  0  0  0  0  0
   -9.9790   -3.9460  -23.2620 H   0  0  0  0  0  0  0  0  0  0  0  0
  -11.3420   -1.8020  -22.9900 H   0  0  0  0  0  0  0  0  0  0  0  0
  -11.0220   -0.4550  -21.8830 H   0  0  0  0  0  0  0  0  0  0  0  0
   -9.8530    1.1650  -24.1250 C   0  0  0  0  0  0  0  0  0  0  0  0
   -9.4850    1.5630  -25.2270 O   0  0  0  0  0  0  0  0  0  0  0  0
   -9.4020    1.7620  -22.9940 N   0  0  0  0  0  0  0  0  0  0  0  0
   -8.1650    2.5150  -23.1200 C   0  0  0  0  0  0  0  0  0  0  0  0
   -7.5300    2.7770  -21.7680 C   0  0  0  0  0  0  0  0  0  0  0  0
   -7.5520    1.8610  -21.1690 H   0  0  0  0  0  0  0  0  0  0  0  0
   -6.4890    3.0880  -21.8680 H   0  0  0  0  0  0  0  0  0  0  0  0
   -8.0440    3.5530  -21.2040 H   0  0  0  0  0  0  0  0  0  0  0  0
   -7.4520    1.9300  -23.7110 H   0  0  0  0  0  0  0  0  0  0  0  0
   -8.3710    3.4220  -23.6940 H   0  0  0  0  0  0  0  0  0  0  0  0
   -9.5950    1.3670  -22.0830 H   0  0  0  0  0  0  0  0  0  0  0  0
  -11.5740    0.4000  -25.9070 H   0  0  0  0  0  0  0  0  0  0  0  0
  -12.2410   -1.1110  -25.0410 H   0  0  0  0  0  0  0  0  0  0  0  0
  1  2  2  0  0  0  0
  1 49  1  0  0  0  0
  1 50  1  0  0  0  0
  2  3  1  0  0  0  0
  2 38  1  0  0  0  0
  3  4  1  0  0  0  0
  3 36  1  0  0  0  0
  3 37  1  0  0  0  0
  4  5  1  0  0  0  0
  4 25  1  0  0  0  0
  5  6  2  0  0  0  0
  5  7  1  0  0  0  0
  7  8  1  0  0  0  0
  7 24  1  0  0  0  0
  8  9  2  0  0  0  0
  8 17  1  0  0  0  0
  9 10  1  0  0  0  0
  9 23  1  0  0  0  0
 10 11  2  0  0  0  0
 11 12  1  0  0  0  0
 11 22  1  0  0  0  0
 12 13  2  0  0  0  0
 12 17  1  0  0  0  0
 13 14  1  0  0  0  0
 13 21  1  0  0  0  0
 14 15  2  0  0  0  0
 14 20  1  0  0  0  0
 15 16  1  0  0  0  0
 15 19  1  0  0  0  0
 16 17  2  0  0  0  0
 16 18  1  0  0  0  0
 25 26  2  0  0  0  0
 25 31  1  0  0  0  0
 26 27  1  0  0  0  0
 26 35  1  0  0  0  0
 27 28  2  0  0  0  0
 27 34  1  0  0  0  0
 28 29  1  0  0  0  0
 28 33  1  0  0  0  0
 29 30  1  0  0  0  0
 29 31  2  0  0  0  0
 31 32  1  0  0  0  0
 38 39  2  0  0  0  0
 38 40  1  0  0  0  0
 40 41  1  0  0  0  0
 40 48  1  0  0  0  0
 41 42  1  0  0  0  0
 41 46  1  0  0  0  0
 41 47  1  0  0  0  0
 42 43  1  0  0  0  0
 42 44  1  0  0  0  0
 42 45  1  0  0  0  0
M  END
>  <MODEL>
       1

$$$$
