tmp_first_model_5_53.pdb
 OpenBabel08272519233D

 59 63  0  0  1  0  0  0  0  0999 V2000
  -13.9100   -0.6430  -24.1050 C   0  0  0  0  0  0  0  0  0  0  0  0
  -14.6920   -1.6750  -23.2740 C   0  0  0  0  0  0  0  0  0  0  0  0
  -13.7880   -2.7060  -22.8300 N   0  0  0  0  0  0  0  0  0  0  0  0
  -13.4060   -2.9570  -21.5550 C   0  0  0  0  0  0  0  0  0  0  0  0
  -13.8240   -2.3910  -20.5630 O   0  0  0  0  0  0  0  0  0  0  0  0
  -12.4020   -4.0960  -21.5510 C   0  0  0  0  0  0  0  0  0  0  0  0
  -11.2050   -3.8590  -22.3410 N   0  0  0  0  0  0  0  0  0  0  0  0
  -10.0710   -3.3460  -21.5990 C   0  0  0  0  0  0  0  0  0  0  0  0
   -8.8870   -2.8860  -22.4630 C   0  0  2  0  0  0  0  0  0  0  0  0
   -7.6940   -2.7560  -21.5000 C   0  0  0  0  0  0  0  0  0  0  0  0
   -7.0430   -3.6590  -21.0130 O   0  0  0  0  0  0  0  0  0  0  0  0
   -7.4620   -1.4230  -21.2400 N   0  0  0  0  0  0  0  0  0  0  0  0
   -6.5230   -1.0630  -20.2460 C   0  0  0  0  0  0  0  0  0  0  0  0
   -6.7130   -1.4500  -18.9420 C   0  0  0  0  0  0  0  0  0  0  0  0
   -5.7940   -1.2840  -17.9590 N   0  0  0  0  0  0  0  0  0  0  0  0
   -4.6650   -0.6900  -18.2780 C   0  0  0  0  0  0  0  0  0  0  0  0
   -4.3940   -0.1370  -19.5640 C   0  0  0  0  0  0  0  0  0  0  0  0
   -3.2570    0.6840  -19.8170 C   0  0  0  0  0  0  0  0  0  0  0  0
   -3.1770    1.4080  -20.9740 C   0  0  0  0  0  0  0  0  0  0  0  0
   -4.1250    1.2190  -22.0090 C   0  0  0  0  0  0  0  0  0  0  0  0
   -5.1830    0.3650  -21.8270 C   0  0  0  0  0  0  0  0  0  0  0  0
   -5.3740   -0.2790  -20.5730 C   0  0  0  0  0  0  0  0  0  0  0  0
   -5.8790    0.1880  -22.6420 H   0  0  0  0  0  0  0  0  0  0  0  0
   -4.0070    1.7320  -22.9590 H   0  0  0  0  0  0  0  0  0  0  0  0
   -2.3330    2.0670  -21.1560 H   0  0  0  0  0  0  0  0  0  0  0  0
   -2.5160    0.8080  -19.0330 H   0  0  0  0  0  0  0  0  0  0  0  0
   -3.9190   -0.5800  -17.4890 H   0  0  0  0  0  0  0  0  0  0  0  0
   -7.6430   -1.9330  -18.6440 H   0  0  0  0  0  0  0  0  0  0  0  0
   -8.4400   -0.5420  -21.8610 C   0  0  0  0  0  0  0  0  0  0  0  0
   -9.0190   -1.4170  -22.9880 C   0  0  2  0  0  0  0  0  0  0  0  0
  -10.4060   -0.9890  -23.4480 C   0  0  0  0  0  0  0  0  0  0  0  0
  -10.3890    0.0410  -23.8190 H   0  0  0  0  0  0  0  0  0  0  0  0
  -11.1430   -1.0430  -22.6380 H   0  0  0  0  0  0  0  0  0  0  0  0
  -10.7620   -1.6380  -24.2550 H   0  0  0  0  0  0  0  0  0  0  0  0
   -8.3330   -1.3470  -23.8430 H   0  0  0  0  0  0  0  0  0  0  0  0
   -7.9760    0.3760  -22.2340 H   0  0  0  0  0  0  0  0  0  0  0  0
   -9.2120   -0.2420  -21.1350 H   0  0  0  0  0  0  0  0  0  0  0  0
   -8.6430   -3.9170  -23.5400 C   0  0  0  0  0  0  0  0  0  0  0  0
   -7.3590   -4.0860  -24.0660 C   0  0  0  0  0  0  0  0  0  0  0  0
   -7.1200   -5.0830  -24.9940 C   0  0  0  0  0  0  0  0  0  0  0  0
   -5.5040   -5.3040  -25.6030 Cl  0  0  0  0  0  0  0  0  0  0  0  0
   -8.1420   -5.9200  -25.4470 C   0  0  0  0  0  0  0  0  0  0  0  0
   -9.4300   -5.7010  -24.9840 C   0  0  0  0  0  0  0  0  0  0  0  0
   -9.6860   -4.7020  -24.0430 C   0  0  0  0  0  0  0  0  0  0  0  0
  -11.0840   -4.4920  -23.5550 C   0  0  0  0  0  0  0  0  0  0  0  0
  -12.0680   -4.8550  -24.1890 O   0  0  0  0  0  0  0  0  0  0  0  0
  -10.2630   -6.3060  -25.3320 H   0  0  0  0  0  0  0  0  0  0  0  0
   -7.9170   -6.7190  -26.1510 H   0  0  0  0  0  0  0  0  0  0  0  0
   -6.5450   -3.4610  -23.7130 H   0  0  0  0  0  0  0  0  0  0  0  0
   -9.6910   -4.1140  -20.9160 H   0  0  0  0  0  0  0  0  0  0  0  0
  -10.4260   -2.5010  -21.0040 H   0  0  0  0  0  0  0  0  0  0  0  0
  -12.9320   -4.8850  -22.0780 H   0  0  0  0  0  0  0  0  0  0  0  0
  -12.1600   -4.3780  -20.5250 H   0  0  0  0  0  0  0  0  0  0  0  0
  -13.4520   -3.3510  -23.5340 H   0  0  0  0  0  0  0  0  0  0  0  0
  -15.1970   -1.2870  -22.3850 H   0  0  0  0  0  0  0  0  0  0  0  0
  -15.4650   -2.1390  -23.8910 H   0  0  0  0  0  0  0  0  0  0  0  0
  -14.5000   -0.2770  -24.9430 H   0  0  0  0  0  0  0  0  0  0  0  0
  -13.0290   -1.1190  -24.5510 H   0  0  0  0  0  0  0  0  0  0  0  0
  -13.5470    0.2210  -23.5360 H   0  0  0  0  0  0  0  0  0  0  0  0
  1  2  1  0  0  0  0
  1 57  1  0  0  0  0
  1 58  1  0  0  0  0
  1 59  1  0  0  0  0
  2  3  1  0  0  0  0
  2 55  1  0  0  0  0
  2 56  1  0  0  0  0
  3  4  1  0  0  0  0
  3 54  1  0  0  0  0
  4  5  2  0  0  0  0
  4  6  1  0  0  0  0
  6  7  1  0  0  0  0
  6 52  1  0  0  0  0
  6 53  1  0  0  0  0
  7  8  1  0  0  0  0
  7 45  1  0  0  0  0
  8  9  1  0  0  0  0
  8 50  1  0  0  0  0
  8 51  1  0  0  0  0
  9 10  1  1  0  0  0
  9 30  1  0  0  0  0
  9 38  1  0  0  0  0
 10 11  2  0  0  0  0
 10 12  1  0  0  0  0
 12 13  1  0  0  0  0
 12 29  1  0  0  0  0
 13 14  2  0  0  0  0
 13 22  1  0  0  0  0
 14 15  1  0  0  0  0
 14 28  1  0  0  0  0
 15 16  2  0  0  0  0
 16 17  1  0  0  0  0
 16 27  1  0  0  0  0
 17 18  2  0  0  0  0
 17 22  1  0  0  0  0
 18 19  1  0  0  0  0
 18 26  1  0  0  0  0
 19 20  2  0  0  0  0
 19 25  1  0  0  0  0
 20 21  1  0  0  0  0
 20 24  1  0  0  0  0
 21 22  2  0  0  0  0
 21 23  1  0  0  0  0
 29 30  1  0  0  0  0
 29 36  1  0  0  0  0
 29 37  1  0  0  0  0
 30 31  1  0  0  0  0
 30 35  1  6  0  0  0
 31 32  1  0  0  0  0
 31 33  1  0  0  0  0
 31 34  1  0  0  0  0
 38 39  2  0  0  0  0
 38 44  1  0  0  0  0
 39 40  1  0  0  0  0
 39 49  1  0  0  0  0
 40 41  1  0  0  0  0
 40 42  2  0  0  0  0
 42 43  1  0  0  0  0
 42 48  1  0  0  0  0
 43 44  2  0  0  0  0
 43 47  1  0  0  0  0
 44 45  1  0  0  0  0
 45 46  2  0  0  0  0
M  END
>  <MODEL>
       1

$$$$
