tmp_first_model_4_58.pdb
 OpenBabel08272518513D

 42 45  0  0  1  0  0  0  0  0999 V2000
  -10.9900   -4.9430  -23.5520 C   0  0  0  0  0  0  0  0  0  0  0  0
  -10.1070   -3.8080  -23.6440 N   0  0  0  0  0  0  0  0  0  0  0  0
   -9.4120   -3.3100  -22.4770 C   0  0  0  0  0  0  0  0  0  0  0  0
   -9.4150   -1.7770  -22.5310 C   0  0  1  0  0  0  0  0  0  0  0  0
   -8.6340   -1.1190  -21.4060 C   0  0  0  0  0  0  0  0  0  0  0  0
   -9.0930   -0.2070  -20.7420 O   0  0  0  0  0  0  0  0  0  0  0  0
   -7.3380   -1.5560  -21.2590 N   0  0  0  0  0  0  0  0  0  0  0  0
   -6.4750   -1.0810  -20.2430 C   0  0  0  0  0  0  0  0  0  0  0  0
   -6.7490   -1.3020  -18.9220 C   0  0  0  0  0  0  0  0  0  0  0  0
   -5.8930   -1.0260  -17.9060 N   0  0  0  0  0  0  0  0  0  0  0  0
   -4.7520   -0.4500  -18.1960 C   0  0  0  0  0  0  0  0  0  0  0  0
   -4.4110   -0.0360  -19.5090 C   0  0  0  0  0  0  0  0  0  0  0  0
   -3.2490    0.7280  -19.7660 C   0  0  0  0  0  0  0  0  0  0  0  0
   -3.0430    1.2620  -21.0090 C   0  0  0  0  0  0  0  0  0  0  0  0
   -3.9540    1.0010  -22.0570 C   0  0  0  0  0  0  0  0  0  0  0  0
   -5.0540    0.2120  -21.8480 C   0  0  0  0  0  0  0  0  0  0  0  0
   -5.3040   -0.3260  -20.5620 C   0  0  0  0  0  0  0  0  0  0  0  0
   -5.7270   -0.0270  -22.6660 H   0  0  0  0  0  0  0  0  0  0  0  0
   -3.7980    1.4530  -23.0320 H   0  0  0  0  0  0  0  0  0  0  0  0
   -2.1980    1.9160  -21.1870 H   0  0  0  0  0  0  0  0  0  0  0  0
   -2.5940    0.9390  -18.9280 H   0  0  0  0  0  0  0  0  0  0  0  0
   -4.0550   -0.2470  -17.3780 H   0  0  0  0  0  0  0  0  0  0  0  0
   -7.6920   -1.7650  -18.6390 H   0  0  0  0  0  0  0  0  0  0  0  0
   -6.9380   -2.0710  -22.0330 H   0  0  0  0  0  0  0  0  0  0  0  0
   -8.9000   -1.3000  -23.8820 C   0  0  0  0  0  0  0  0  0  0  0  0
   -8.3140   -0.0420  -24.0320 C   0  0  0  0  0  0  0  0  0  0  0  0
   -7.8280    0.3510  -25.2700 C   0  0  0  0  0  0  0  0  0  0  0  0
   -7.0540    1.9070  -25.3980 Cl  0  0  0  0  0  0  0  0  0  0  0  0
   -7.9400   -0.4700  -26.3890 C   0  0  0  0  0  0  0  0  0  0  0  0
   -8.5500   -1.7030  -26.2450 C   0  0  0  0  0  0  0  0  0  0  0  0
   -9.0260   -2.1160  -25.0010 C   0  0  0  0  0  0  0  0  0  0  0  0
   -9.7400   -3.4190  -24.9030 C   0  0  0  0  0  0  0  0  0  0  0  0
  -10.0220   -4.0850  -25.8890 O   0  0  0  0  0  0  0  0  0  0  0  0
   -8.6790   -2.3650  -27.0940 H   0  0  0  0  0  0  0  0  0  0  0  0
   -7.5790   -0.1320  -27.3550 H   0  0  0  0  0  0  0  0  0  0  0  0
   -8.2300    0.6240  -23.1800 H   0  0  0  0  0  0  0  0  0  0  0  0
  -10.4450   -1.4350  -22.3970 H   0  0  0  0  0  0  0  0  0  0  0  0
   -8.3810   -3.6940  -22.4220 H   0  0  0  0  0  0  0  0  0  0  0  0
   -9.9300   -3.6520  -21.5740 H   0  0  0  0  0  0  0  0  0  0  0  0
  -11.9150   -4.7320  -24.0820 H   0  0  0  0  0  0  0  0  0  0  0  0
  -10.5390   -5.8360  -23.9960 H   0  0  0  0  0  0  0  0  0  0  0  0
  -11.2420   -5.1090  -22.5070 H   0  0  0  0  0  0  0  0  0  0  0  0
  1  2  1  0  0  0  0
  1 40  1  0  0  0  0
  1 41  1  0  0  0  0
  1 42  1  0  0  0  0
  2  3  1  0  0  0  0
  2 32  1  0  0  0  0
  3  4  1  0  0  0  0
  3 38  1  0  0  0  0
  3 39  1  0  0  0  0
  4  5  1  0  0  0  0
  4 25  1  0  0  0  0
  4 37  1  1  0  0  0
  5  6  2  0  0  0  0
  5  7  1  0  0  0  0
  7  8  1  0  0  0  0
  7 24  1  0  0  0  0
  8  9  2  0  0  0  0
  8 17  1  0  0  0  0
  9 10  1  0  0  0  0
  9 23  1  0  0  0  0
 10 11  2  0  0  0  0
 11 12  1  0  0  0  0
 11 22  1  0  0  0  0
 12 13  2  0  0  0  0
 12 17  1  0  0  0  0
 13 14  1  0  0  0  0
 13 21  1  0  0  0  0
 14 15  2  0  0  0  0
 14 20  1  0  0  0  0
 15 16  1  0  0  0  0
 15 19  1  0  0  0  0
 16 17  2  0  0  0  0
 16 18  1  0  0  0  0
 25 26  2  0  0  0  0
 25 31  1  0  0  0  0
 26 27  1  0  0  0  0
 26 36  1  0  0  0  0
 27 28  1  0  0  0  0
 27 29  2  0  0  0  0
 29 30  1  0  0  0  0
 29 35  1  0  0  0  0
 30 31  2  0  0  0  0
 30 34  1  0  0  0  0
 31 32  1  0  0  0  0
 32 33  2  0  0  0  0
M  END
>  <MODEL>
       1

$$$$
