tmp_first_model_13_96.pdb
 OpenBabel08282500103D

 66 70  0  0  1  0  0  0  0  0999 V2000
   -7.4420    3.2930  -21.6890 C   0  0  0  0  0  0  0  0  0  0  0  0
   -8.3500    2.9010  -22.7430 N   0  0  0  0  0  0  0  0  0  0  0  0
   -7.8190    2.2420  -23.7970 C   0  0  0  0  0  0  0  0  0  0  0  0
   -6.6130    2.1310  -23.9460 O   0  0  0  0  0  0  0  0  0  0  0  0
   -8.7850    1.6440  -24.8120 C   0  0  0  0  0  0  0  0  0  0  0  0
   -9.4660    0.4630  -24.3240 N   0  0  0  0  0  0  0  0  0  0  0  0
   -8.7050   -0.7640  -24.1760 C   0  0  0  0  0  0  0  0  0  0  0  0
   -9.0680   -1.5190  -22.8770 C   0  0  2  0  0  0  0  0  0  0  0  0
   -8.5390   -0.7510  -21.6430 C   0  0  0  0  0  0  0  0  0  0  0  0
   -9.0180    0.2390  -21.1280 O   0  0  0  0  0  0  0  0  0  0  0  0
   -7.4020   -1.3790  -21.1970 N   0  0  0  0  0  0  0  0  0  0  0  0
   -6.6020   -0.8090  -20.1740 C   0  0  0  0  0  0  0  0  0  0  0  0
   -6.9120   -1.0400  -18.8570 C   0  0  0  0  0  0  0  0  0  0  0  0
   -6.2060   -0.5460  -17.8150 N   0  0  0  0  0  0  0  0  0  0  0  0
   -5.1700    0.2090  -18.0820 C   0  0  0  0  0  0  0  0  0  0  0  0
   -4.7340    0.5300  -19.4000 C   0  0  0  0  0  0  0  0  0  0  0  0
   -3.6080    1.3630  -19.6430 C   0  0  0  0  0  0  0  0  0  0  0  0
   -3.2210    1.6580  -20.9220 C   0  0  0  0  0  0  0  0  0  0  0  0
   -3.9460    1.1350  -22.0180 C   0  0  0  0  0  0  0  0  0  0  0  0
   -5.0400    0.3270  -21.8080 C   0  0  0  0  0  0  0  0  0  0  0  0
   -5.4660    0.0030  -20.4890 C   0  0  0  0  0  0  0  0  0  0  0  0
   -5.5980   -0.0450  -22.6620 H   0  0  0  0  0  0  0  0  0  0  0  0
   -3.6560    1.3790  -23.0350 H   0  0  0  0  0  0  0  0  0  0  0  0
   -2.3690    2.3090  -21.1000 H   0  0  0  0  0  0  0  0  0  0  0  0
   -3.0740    1.7640  -18.7850 H   0  0  0  0  0  0  0  0  0  0  0  0
   -4.6130    0.6070  -17.2330 H   0  0  0  0  0  0  0  0  0  0  0  0
   -7.7700   -1.6610  -18.6040 H   0  0  0  0  0  0  0  0  0  0  0  0
   -7.0420   -2.5680  -21.9430 C   0  0  0  0  0  0  0  0  0  0  0  0
   -8.3040   -2.8750  -22.7690 C   0  0  2  0  0  0  0  0  0  0  0  0
   -7.9720   -3.6130  -24.0740 C   0  0  0  0  0  0  0  0  0  0  0  0
   -9.1150   -3.9440  -24.8310 O   0  0  0  0  0  0  0  0  0  0  0  0
   -9.6950   -5.2130  -24.5490 C   0  0  0  0  0  0  0  0  0  0  0  0
  -11.1890   -5.0660  -24.7530 C   0  0  0  0  0  0  0  0  0  0  0  0
  -11.6920   -6.0170  -24.5530 H   0  0  0  0  0  0  0  0  0  0  0  0
  -11.5960   -4.3020  -24.0840 H   0  0  0  0  0  0  0  0  0  0  0  0
  -11.3990   -4.7580  -25.7810 H   0  0  0  0  0  0  0  0  0  0  0  0
   -9.0740   -6.3010  -25.4170 C   0  0  0  0  0  0  0  0  0  0  0  0
   -9.5080   -7.2750  -25.1820 H   0  0  0  0  0  0  0  0  0  0  0  0
   -7.9980   -6.3840  -25.2540 H   0  0  0  0  0  0  0  0  0  0  0  0
   -9.2350   -6.1130  -26.4770 H   0  0  0  0  0  0  0  0  0  0  0  0
   -9.5020   -5.4570  -23.4960 H   0  0  0  0  0  0  0  0  0  0  0  0
   -7.3950   -4.5220  -23.8470 H   0  0  0  0  0  0  0  0  0  0  0  0
   -7.3380   -2.9810  -24.7090 H   0  0  0  0  0  0  0  0  0  0  0  0
   -8.9540   -3.5320  -22.1880 H   0  0  0  0  0  0  0  0  0  0  0  0
   -6.1750   -2.3740  -22.5920 H   0  0  0  0  0  0  0  0  0  0  0  0
   -6.7700   -3.3820  -21.2630 H   0  0  0  0  0  0  0  0  0  0  0  0
  -10.5820   -1.6140  -22.8120 C   0  0  0  0  0  0  0  0  0  0  0  0
  -11.1900   -2.5300  -21.9440 C   0  0  0  0  0  0  0  0  0  0  0  0
  -12.5680   -2.5800  -21.8430 C   0  0  0  0  0  0  0  0  0  0  0  0
  -13.3070   -3.7130  -20.7420 Cl  0  0  0  0  0  0  0  0  0  0  0  0
  -13.3860   -1.7330  -22.5950 C   0  0  0  0  0  0  0  0  0  0  0  0
  -12.7980   -0.7850  -23.4110 C   0  0  0  0  0  0  0  0  0  0  0  0
  -11.4080   -0.7050  -23.4910 C   0  0  0  0  0  0  0  0  0  0  0  0
  -10.8320    0.4550  -24.2440 C   0  0  0  0  0  0  0  0  0  0  0  0
  -11.5400    1.3430  -24.7080 O   0  0  0  0  0  0  0  0  0  0  0  0
  -13.3780   -0.0620  -23.9810 H   0  0  0  0  0  0  0  0  0  0  0  0
  -14.4620   -1.8110  -22.5040 H   0  0  0  0  0  0  0  0  0  0  0  0
  -10.5930   -3.1770  -21.3110 H   0  0  0  0  0  0  0  0  0  0  0  0
   -8.9080   -1.4390  -25.0200 H   0  0  0  0  0  0  0  0  0  0  0  0
   -7.6460   -0.4900  -24.1680 H   0  0  0  0  0  0  0  0  0  0  0  0
   -9.5830    2.3410  -25.0710 H   0  0  0  0  0  0  0  0  0  0  0  0
   -8.1710    1.4040  -25.6870 H   0  0  0  0  0  0  0  0  0  0  0  0
   -9.3240    2.7830  -22.5210 H   0  0  0  0  0  0  0  0  0  0  0  0
   -6.7980    2.4540  -21.4170 H   0  0  0  0  0  0  0  0  0  0  0  0
   -6.7970    4.1020  -22.0270 H   0  0  0  0  0  0  0  0  0  0  0  0
   -8.0150    3.6020  -20.8290 H   0  0  0  0  0  0  0  0  0  0  0  0
  1  2  1  0  0  0  0
  1 64  1  0  0  0  0
  1 65  1  0  0  0  0
  1 66  1  0  0  0  0
  2  3  1  0  0  0  0
  2 63  1  0  0  0  0
  3  4  2  0  0  0  0
  3  5  1  0  0  0  0
  5  6  1  0  0  0  0
  5 61  1  0  0  0  0
  5 62  1  0  0  0  0
  6  7  1  0  0  0  0
  6 54  1  0  0  0  0
  7  8  1  0  0  0  0
  7 59  1  0  0  0  0
  7 60  1  0  0  0  0
  8  9  1  1  0  0  0
  8 29  1  0  0  0  0
  8 47  1  0  0  0  0
  9 10  2  0  0  0  0
  9 11  1  0  0  0  0
 11 12  1  0  0  0  0
 11 28  1  0  0  0  0
 12 13  2  0  0  0  0
 12 21  1  0  0  0  0
 13 14  1  0  0  0  0
 13 27  1  0  0  0  0
 14 15  2  0  0  0  0
 15 16  1  0  0  0  0
 15 26  1  0  0  0  0
 16 17  2  0  0  0  0
 16 21  1  0  0  0  0
 17 18  1  0  0  0  0
 17 25  1  0  0  0  0
 18 19  2  0  0  0  0
 18 24  1  0  0  0  0
 19 20  1  0  0  0  0
 19 23  1  0  0  0  0
 20 21  2  0  0  0  0
 20 22  1  0  0  0  0
 28 29  1  0  0  0  0
 28 45  1  0  0  0  0
 28 46  1  0  0  0  0
 29 30  1  0  0  0  0
 29 44  1  1  0  0  0
 30 31  1  0  0  0  0
 30 42  1  0  0  0  0
 30 43  1  0  0  0  0
 31 32  1  0  0  0  0
 32 33  1  0  0  0  0
 32 37  1  0  0  0  0
 32 41  1  0  0  0  0
 33 34  1  0  0  0  0
 33 35  1  0  0  0  0
 33 36  1  0  0  0  0
 37 38  1  0  0  0  0
 37 39  1  0  0  0  0
 37 40  1  0  0  0  0
 47 48  2  0  0  0  0
 47 53  1  0  0  0  0
 48 49  1  0  0  0  0
 48 58  1  0  0  0  0
 49 50  1  0  0  0  0
 49 51  2  0  0  0  0
 51 52  1  0  0  0  0
 51 57  1  0  0  0  0
 52 53  2  0  0  0  0
 52 56  1  0  0  0  0
 53 54  1  0  0  0  0
 54 55  2  0  0  0  0
M  END
>  <MODEL>
       1

$$$$
