tmp_first_model_1_64.pdb
 OpenBabel08272517043D

 55 60  0  0  1  0  0  0  0  0999 V2000
  -10.2280   -2.9880  -22.0630 C   0  0  0  0  0  0  0  0  0  0  0  0
   -9.1600   -2.0330  -22.6230 C   0  0  1  0  0  0  0  0  0  0  0  0
   -8.6910   -1.0510  -21.5320 C   0  0  0  0  0  0  0  0  0  0  0  0
   -7.3450   -1.4580  -21.2070 N   0  0  0  0  0  0  0  0  0  0  0  0
   -6.5710   -0.8560  -20.1920 C   0  0  0  0  0  0  0  0  0  0  0  0
   -6.9070   -1.0620  -18.8800 C   0  0  0  0  0  0  0  0  0  0  0  0
   -6.2220   -0.5610  -17.8270 N   0  0  0  0  0  0  0  0  0  0  0  0
   -5.1860    0.1980  -18.0940 C   0  0  0  0  0  0  0  0  0  0  0  0
   -4.7430    0.5130  -19.4110 C   0  0  0  0  0  0  0  0  0  0  0  0
   -3.6210    1.3530  -19.6360 C   0  0  0  0  0  0  0  0  0  0  0  0
   -3.2310    1.6620  -20.9100 C   0  0  0  0  0  0  0  0  0  0  0  0
   -3.9490    1.1530  -22.0170 C   0  0  0  0  0  0  0  0  0  0  0  0
   -5.0390    0.3390  -21.8300 C   0  0  0  0  0  0  0  0  0  0  0  0
   -5.4530   -0.0180  -20.5100 C   0  0  0  0  0  0  0  0  0  0  0  0
   -5.5870   -0.0350  -22.6960 H   0  0  0  0  0  0  0  0  0  0  0  0
   -3.6310    1.4110  -23.0240 H   0  0  0  0  0  0  0  0  0  0  0  0
   -2.3720    2.3070  -21.0820 H   0  0  0  0  0  0  0  0  0  0  0  0
   -3.0950    1.7500  -18.7720 H   0  0  0  0  0  0  0  0  0  0  0  0
   -4.6390    0.6090  -17.2450 H   0  0  0  0  0  0  0  0  0  0  0  0
   -7.7670   -1.6880  -18.6370 H   0  0  0  0  0  0  0  0  0  0  0  0
   -6.8210   -2.4110  -22.0420 C   0  0  0  0  0  0  0  0  0  0  0  0
   -5.7260   -2.9150  -21.9010 O   0  0  0  0  0  0  0  0  0  0  0  0
   -7.8560   -2.6930  -23.1510 C   0  0  1  0  0  0  0  0  0  0  0  0
   -7.9570   -4.2010  -23.3550 C   0  0  0  0  0  0  0  0  0  0  0  0
   -6.7020   -4.6760  -23.8960 N   0  0  0  0  0  0  0  0  0  0  0  0
   -6.2750   -5.9780  -23.4530 C   0  0  0  0  0  0  0  0  0  0  0  0
   -7.1580   -7.0380  -24.0290 C   0  0  0  0  0  0  0  0  0  0  0  0
   -8.2500   -7.5470  -23.3890 N   0  0  0  0  0  0  0  0  0  0  0  0
   -8.8110   -8.2840  -24.3220 C   0  0  0  0  0  0  0  0  0  0  0  0
   -8.0940   -8.2160  -25.4610 N   0  0  0  0  0  0  0  0  0  0  0  0
   -7.0050   -7.4410  -25.2700 N   0  0  0  0  0  0  0  0  0  0  0  0
   -8.1160   -8.8140  -26.2730 H   0  0  0  0  0  0  0  0  0  0  0  0
   -9.7160   -8.8690  -24.2170 H   0  0  0  0  0  0  0  0  0  0  0  0
   -5.2470   -6.1010  -23.7850 H   0  0  0  0  0  0  0  0  0  0  0  0
   -6.3290   -5.9920  -22.3630 H   0  0  0  0  0  0  0  0  0  0  0  0
   -6.2280   -4.2200  -25.0930 C   0  0  0  0  0  0  0  0  0  0  0  0
   -5.4920   -4.8790  -25.8150 O   0  0  0  0  0  0  0  0  0  0  0  0
   -6.6470   -2.8320  -25.3990 C   0  0  0  0  0  0  0  0  0  0  0  0
   -6.1930   -2.2910  -26.5960 C   0  0  0  0  0  0  0  0  0  0  0  0
   -6.4160   -0.9580  -26.8670 C   0  0  0  0  0  0  0  0  0  0  0  0
   -7.0930   -0.2010  -25.9150 C   0  0  0  0  0  0  0  0  0  0  0  0
   -7.2920    1.1050  -26.1650 F   0  0  0  0  0  0  0  0  0  0  0  0
   -7.5700   -0.7280  -24.7310 C   0  0  0  0  0  0  0  0  0  0  0  0
   -7.3750   -2.0860  -24.4650 C   0  0  0  0  0  0  0  0  0  0  0  0
   -8.0870   -0.0690  -24.0400 H   0  0  0  0  0  0  0  0  0  0  0  0
   -6.0570   -0.4820  -27.7690 H   0  0  0  0  0  0  0  0  0  0  0  0
   -5.6440   -2.9540  -27.2600 H   0  0  0  0  0  0  0  0  0  0  0  0
   -8.1220   -4.7210  -22.4090 H   0  0  0  0  0  0  0  0  0  0  0  0
   -8.7980   -4.4400  -24.0260 H   0  0  0  0  0  0  0  0  0  0  0  0
   -8.7120   -0.0040  -21.8610 H   0  0  0  0  0  0  0  0  0  0  0  0
   -9.3330   -1.1300  -20.6610 H   0  0  0  0  0  0  0  0  0  0  0  0
   -9.6340   -1.4990  -23.4520 H   0  0  0  0  0  0  0  0  0  0  0  0
  -10.6080   -3.6680  -22.8330 H   0  0  0  0  0  0  0  0  0  0  0  0
   -9.8380   -3.5910  -21.2350 H   0  0  0  0  0  0  0  0  0  0  0  0
  -11.0820   -2.4130  -21.6850 H   0  0  0  0  0  0  0  0  0  0  0  0
  1  2  1  0  0  0  0
  1 53  1  0  0  0  0
  1 54  1  0  0  0  0
  1 55  1  0  0  0  0
  2  3  1  0  0  0  0
  2 23  1  0  0  0  0
  2 52  1  6  0  0  0
  3  4  1  0  0  0  0
  3 50  1  0  0  0  0
  3 51  1  0  0  0  0
  4  5  1  0  0  0  0
  4 21  1  0  0  0  0
  5  6  2  0  0  0  0
  5 14  1  0  0  0  0
  6  7  1  0  0  0  0
  6 20  1  0  0  0  0
  7  8  2  0  0  0  0
  8  9  1  0  0  0  0
  8 19  1  0  0  0  0
  9 10  2  0  0  0  0
  9 14  1  0  0  0  0
 10 11  1  0  0  0  0
 10 18  1  0  0  0  0
 11 12  2  0  0  0  0
 11 17  1  0  0  0  0
 12 13  1  0  0  0  0
 12 16  1  0  0  0  0
 13 14  2  0  0  0  0
 13 15  1  0  0  0  0
 21 22  2  0  0  0  0
 23 21  1  1  0  0  0
 23 24  1  0  0  0  0
 23 44  1  0  0  0  0
 24 25  1  0  0  0  0
 24 48  1  0  0  0  0
 24 49  1  0  0  0  0
 25 26  1  0  0  0  0
 25 36  1  0  0  0  0
 26 27  1  0  0  0  0
 26 34  1  0  0  0  0
 26 35  1  0  0  0  0
 27 28  1  0  0  0  0
 27 31  2  0  0  0  0
 28 29  2  0  0  0  0
 29 30  1  0  0  0  0
 29 33  1  0  0  0  0
 30 31  1  0  0  0  0
 30 32  1  0  0  0  0
 36 37  2  0  0  0  0
 36 38  1  0  0  0  0
 38 39  2  0  0  0  0
 38 44  1  0  0  0  0
 39 40  1  0  0  0  0
 39 47  1  0  0  0  0
 40 41  2  0  0  0  0
 40 46  1  0  0  0  0
 41 42  1  0  0  0  0
 41 43  1  0  0  0  0
 43 44  2  0  0  0  0
 43 45  1  0  0  0  0
M  END
>  <MODEL>
       1

$$$$
