tmp_first_model_16_1.pdb
 OpenBabel08282501503D

 68 73  0  0  1  0  0  0  0  0999 V2000
   -7.4650    3.3210  -21.7850 C   0  0  0  0  0  0  0  0  0  0  0  0
   -8.4580    2.8450  -22.7360 N   0  0  0  0  0  0  0  0  0  0  0  0
   -7.9960    2.1400  -23.8090 C   0  0  0  0  0  0  0  0  0  0  0  0
   -6.8020    1.9760  -24.0160 O   0  0  0  0  0  0  0  0  0  0  0  0
   -9.0390    1.5620  -24.7600 C   0  0  0  0  0  0  0  0  0  0  0  0
   -9.6460    0.3750  -24.1900 N   0  0  0  0  0  0  0  0  0  0  0  0
   -8.8600   -0.8450  -24.0930 C   0  0  0  0  0  0  0  0  0  0  0  0
   -9.1720   -1.6190  -22.7860 C   0  0  2  0  0  0  0  0  0  0  0  0
   -8.6310   -0.8240  -21.5750 C   0  0  0  0  0  0  0  0  0  0  0  0
   -9.1590    0.1190  -21.0200 O   0  0  0  0  0  0  0  0  0  0  0  0
   -7.4190   -1.3680  -21.2340 N   0  0  0  0  0  0  0  0  0  0  0  0
   -6.6240   -0.8380  -20.2000 C   0  0  0  0  0  0  0  0  0  0  0  0
   -6.9310   -1.1230  -18.8970 C   0  0  0  0  0  0  0  0  0  0  0  0
   -6.1510   -0.7870  -17.8460 N   0  0  0  0  0  0  0  0  0  0  0  0
   -5.0820   -0.0670  -18.0970 C   0  0  0  0  0  0  0  0  0  0  0  0
   -4.7120    0.3870  -19.3950 C   0  0  0  0  0  0  0  0  0  0  0  0
   -3.6210    1.2690  -19.6090 C   0  0  0  0  0  0  0  0  0  0  0  0
   -3.2650    1.6300  -20.8790 C   0  0  0  0  0  0  0  0  0  0  0  0
   -3.9860    1.1430  -21.9920 C   0  0  0  0  0  0  0  0  0  0  0  0
   -5.0790    0.3320  -21.8110 C   0  0  0  0  0  0  0  0  0  0  0  0
   -5.4760   -0.0500  -20.5000 C   0  0  0  0  0  0  0  0  0  0  0  0
   -5.6540    0.0020  -22.6710 H   0  0  0  0  0  0  0  0  0  0  0  0
   -3.6780    1.4170  -22.9950 H   0  0  0  0  0  0  0  0  0  0  0  0
   -2.4190    2.2900  -21.0400 H   0  0  0  0  0  0  0  0  0  0  0  0
   -3.0950    1.6570  -18.7400 H   0  0  0  0  0  0  0  0  0  0  0  0
   -4.4480    0.2050  -17.2510 H   0  0  0  0  0  0  0  0  0  0  0  0
   -7.8510   -1.6550  -18.6690 H   0  0  0  0  0  0  0  0  0  0  0  0
   -7.0440   -2.5490  -21.9800 C   0  0  0  0  0  0  0  0  0  0  0  0
   -8.3460   -2.9390  -22.7010 C   0  0  2  0  0  0  0  0  0  0  0  0
   -8.1000   -3.6440  -24.0360 C   0  0  0  0  0  0  0  0  0  0  0  0
   -7.5350   -4.9560  -23.8590 N   0  0  0  0  0  0  0  0  0  0  0  0
   -7.0930   -5.6670  -24.9660 C   0  0  0  0  0  0  0  0  0  0  0  0
   -6.3480   -6.8770  -24.9550 C   0  0  0  0  0  0  0  0  0  0  0  0
   -6.1230   -7.3160  -26.1870 N   0  0  0  0  0  0  0  0  0  0  0  0
   -6.7050   -6.4300  -26.9980 N   0  0  0  0  0  0  0  0  0  0  0  0
   -6.7160   -6.6820  -28.4240 C   0  0  0  0  0  0  0  0  0  0  0  0
   -5.8770   -6.1910  -28.9310 H   0  0  0  0  0  0  0  0  0  0  0  0
   -6.6250   -7.7630  -28.5500 H   0  0  0  0  0  0  0  0  0  0  0  0
   -7.6590   -6.3380  -28.8640 H   0  0  0  0  0  0  0  0  0  0  0  0
   -7.3030   -5.4120  -26.3100 C   0  0  0  0  0  0  0  0  0  0  0  0
   -7.8630   -4.6270  -26.8160 H   0  0  0  0  0  0  0  0  0  0  0  0
   -5.9870   -7.4620  -24.1130 H   0  0  0  0  0  0  0  0  0  0  0  0
   -7.1970   -5.2500  -22.9560 H   0  0  0  0  0  0  0  0  0  0  0  0
   -9.0490   -3.7340  -24.5860 H   0  0  0  0  0  0  0  0  0  0  0  0
   -7.4300   -3.0250  -24.6590 H   0  0  0  0  0  0  0  0  0  0  0  0
   -8.8860   -3.6330  -22.0490 H   0  0  0  0  0  0  0  0  0  0  0  0
   -6.2230   -2.3330  -22.6850 H   0  0  0  0  0  0  0  0  0  0  0  0
   -6.6970   -3.3250  -21.2910 H   0  0  0  0  0  0  0  0  0  0  0  0
  -10.6770   -1.7520  -22.6730 C   0  0  0  0  0  0  0  0  0  0  0  0
  -11.2570   -2.6900  -21.8170 C   0  0  0  0  0  0  0  0  0  0  0  0
  -12.6260   -2.6970  -21.6220 C   0  0  0  0  0  0  0  0  0  0  0  0
  -13.3010   -3.7430  -20.4200 Cl  0  0  0  0  0  0  0  0  0  0  0  0
  -13.4830   -1.8540  -22.3260 C   0  0  0  0  0  0  0  0  0  0  0  0
  -12.9160   -0.9120  -23.1550 C   0  0  0  0  0  0  0  0  0  0  0  0
  -11.5330   -0.8260  -23.2830 C   0  0  0  0  0  0  0  0  0  0  0  0
  -10.9990    0.3570  -24.0190 C   0  0  0  0  0  0  0  0  0  0  0  0
  -11.7300    1.2610  -24.4070 O   0  0  0  0  0  0  0  0  0  0  0  0
  -13.5150   -0.1920  -23.6990 H   0  0  0  0  0  0  0  0  0  0  0  0
  -14.5590   -1.9180  -22.1980 H   0  0  0  0  0  0  0  0  0  0  0  0
  -10.6570   -3.4100  -21.2760 H   0  0  0  0  0  0  0  0  0  0  0  0
   -9.0810   -1.4950  -24.9520 H   0  0  0  0  0  0  0  0  0  0  0  0
   -7.7980   -0.5790  -24.1330 H   0  0  0  0  0  0  0  0  0  0  0  0
   -8.5460    1.3190  -25.7120 H   0  0  0  0  0  0  0  0  0  0  0  0
   -9.8480    2.2760  -24.9490 H   0  0  0  0  0  0  0  0  0  0  0  0
   -9.3890    2.6400  -22.3920 H   0  0  0  0  0  0  0  0  0  0  0  0
   -7.9080    4.1050  -21.1660 H   0  0  0  0  0  0  0  0  0  0  0  0
   -7.0620    2.4960  -21.1680 H   0  0  0  0  0  0  0  0  0  0  0  0
   -6.6500    3.7710  -22.3610 H   0  0  0  0  0  0  0  0  0  0  0  0
  1  2  1  0  0  0  0
  1 66  1  0  0  0  0
  1 67  1  0  0  0  0
  1 68  1  0  0  0  0
  2  3  1  0  0  0  0
  2 65  1  0  0  0  0
  3  4  2  0  0  0  0
  3  5  1  0  0  0  0
  5  6  1  0  0  0  0
  5 63  1  0  0  0  0
  5 64  1  0  0  0  0
  6  7  1  0  0  0  0
  6 56  1  0  0  0  0
  7  8  1  0  0  0  0
  7 61  1  0  0  0  0
  7 62  1  0  0  0  0
  8  9  1  1  0  0  0
  8 29  1  0  0  0  0
  8 49  1  0  0  0  0
  9 10  2  0  0  0  0
  9 11  1  0  0  0  0
 11 12  1  0  0  0  0
 11 28  1  0  0  0  0
 12 13  2  0  0  0  0
 12 21  1  0  0  0  0
 13 14  1  0  0  0  0
 13 27  1  0  0  0  0
 14 15  2  0  0  0  0
 15 16  1  0  0  0  0
 15 26  1  0  0  0  0
 16 17  2  0  0  0  0
 16 21  1  0  0  0  0
 17 18  1  0  0  0  0
 17 25  1  0  0  0  0
 18 19  2  0  0  0  0
 18 24  1  0  0  0  0
 19 20  1  0  0  0  0
 19 23  1  0  0  0  0
 20 21  2  0  0  0  0
 20 22  1  0  0  0  0
 28 29  1  0  0  0  0
 28 47  1  0  0  0  0
 28 48  1  0  0  0  0
 29 30  1  0  0  0  0
 29 46  1  1  0  0  0
 30 31  1  0  0  0  0
 30 44  1  0  0  0  0
 30 45  1  0  0  0  0
 31 32  1  0  0  0  0
 31 43  1  0  0  0  0
 32 33  1  0  0  0  0
 32 40  2  0  0  0  0
 33 34  2  0  0  0  0
 33 42  1  0  0  0  0
 34 35  1  0  0  0  0
 35 36  1  0  0  0  0
 35 40  1  0  0  0  0
 36 37  1  0  0  0  0
 36 38  1  0  0  0  0
 36 39  1  0  0  0  0
 40 41  1  0  0  0  0
 49 50  2  0  0  0  0
 49 55  1  0  0  0  0
 50 51  1  0  0  0  0
 50 60  1  0  0  0  0
 51 52  1  0  0  0  0
 51 53  2  0  0  0  0
 53 54  1  0  0  0  0
 53 59  1  0  0  0  0
 54 55  2  0  0  0  0
 54 58  1  0  0  0  0
 55 56  1  0  0  0  0
 56 57  2  0  0  0  0
M  END
>  <MODEL>
       1

$$$$
