tmp_first_model_20_29.pdb
 OpenBabel08282503553D

 55 60  0  0  1  0  0  0  0  0999 V2000
  -10.4480   -1.0240  -23.3520 C   0  0  0  0  0  0  0  0  0  0  0  0
   -9.0160   -1.3840  -22.9660 C   0  0  1  0  0  0  0  0  0  0  0  0
   -8.4130   -0.4620  -21.8920 C   0  0  0  0  0  0  0  0  0  0  0  0
   -7.4320   -1.3070  -21.2370 N   0  0  0  0  0  0  0  0  0  0  0  0
   -6.6060   -0.8430  -20.1890 C   0  0  0  0  0  0  0  0  0  0  0  0
   -6.9200   -1.1050  -18.8790 C   0  0  0  0  0  0  0  0  0  0  0  0
   -6.2470   -0.5870  -17.8200 N   0  0  0  0  0  0  0  0  0  0  0  0
   -5.2180    0.1860  -18.0770 C   0  0  0  0  0  0  0  0  0  0  0  0
   -4.7630    0.5050  -19.3910 C   0  0  0  0  0  0  0  0  0  0  0  0
   -3.6260    1.3250  -19.6250 C   0  0  0  0  0  0  0  0  0  0  0  0
   -3.2280    1.6020  -20.9050 C   0  0  0  0  0  0  0  0  0  0  0  0
   -3.9340    1.0710  -22.0080 C   0  0  0  0  0  0  0  0  0  0  0  0
   -5.0350    0.2710  -21.8080 C   0  0  0  0  0  0  0  0  0  0  0  0
   -5.4750   -0.0210  -20.4880 C   0  0  0  0  0  0  0  0  0  0  0  0
   -5.5780   -0.1480  -22.6490 H   0  0  0  0  0  0  0  0  0  0  0  0
   -3.6110    1.3010  -23.0200 H   0  0  0  0  0  0  0  0  0  0  0  0
   -2.3610    2.2340  -21.0870 H   0  0  0  0  0  0  0  0  0  0  0  0
   -3.0840    1.7190  -18.7690 H   0  0  0  0  0  0  0  0  0  0  0  0
   -4.6850    0.6060  -17.2230 H   0  0  0  0  0  0  0  0  0  0  0  0
   -7.7590   -1.7550  -18.6350 H   0  0  0  0  0  0  0  0  0  0  0  0
   -7.6270   -2.6500  -21.4590 C   0  0  0  0  0  0  0  0  0  0  0  0
   -6.9130   -3.5200  -21.0030 O   0  0  0  0  0  0  0  0  0  0  0  0
   -8.8400   -2.8280  -22.3840 C   0  0  1  0  0  0  0  0  0  0  0  0
  -10.0500   -3.2490  -21.5220 C   0  0  0  0  0  0  0  0  0  0  0  0
  -11.1970   -3.6800  -22.3190 N   0  0  0  0  0  0  0  0  0  0  0  0
  -12.5570   -3.6230  -21.7810 C   0  0  0  0  0  0  0  0  0  0  0  0
  -13.4640   -2.5300  -22.2920 C   0  0  0  0  0  0  0  0  0  0  0  0
  -13.9240   -1.2870  -21.8190 C   0  0  0  0  0  0  0  0  0  0  0  0
  -14.8840   -0.8300  -22.6190 N   0  0  0  0  0  0  0  0  0  0  0  0
  -14.9620   -1.7670  -23.5400 N   0  0  0  0  0  0  0  0  0  0  0  0
  -14.1800   -2.8090  -23.3760 N   0  0  0  0  0  0  0  0  0  0  0  0
  -15.6860   -1.7530  -24.2420 H   0  0  0  0  0  0  0  0  0  0  0  0
  -13.6320   -0.7150  -20.9600 H   0  0  0  0  0  0  0  0  0  0  0  0
  -12.5310   -3.6510  -20.6900 H   0  0  0  0  0  0  0  0  0  0  0  0
  -13.0370   -4.5350  -22.1390 H   0  0  0  0  0  0  0  0  0  0  0  0
  -11.0230   -4.4970  -23.4110 C   0  0  0  0  0  0  0  0  0  0  0  0
  -11.9540   -5.0480  -23.9790 O   0  0  0  0  0  0  0  0  0  0  0  0
   -9.6270   -4.6830  -23.8970 C   0  0  0  0  0  0  0  0  0  0  0  0
   -9.4030   -5.6630  -24.8640 C   0  0  0  0  0  0  0  0  0  0  0  0
   -8.1290   -5.8620  -25.3650 C   0  0  0  0  0  0  0  0  0  0  0  0
   -7.0960   -5.0520  -24.9050 C   0  0  0  0  0  0  0  0  0  0  0  0
   -5.8570   -5.2150  -25.4020 F   0  0  0  0  0  0  0  0  0  0  0  0
   -7.3000   -4.0720  -23.9570 C   0  0  0  0  0  0  0  0  0  0  0  0
   -8.5810   -3.8920  -23.4220 C   0  0  0  0  0  0  0  0  0  0  0  0
   -6.4560   -3.4910  -23.6020 H   0  0  0  0  0  0  0  0  0  0  0  0
   -7.9110   -6.6350  -26.0910 H   0  0  0  0  0  0  0  0  0  0  0  0
  -10.2490   -6.2490  -25.2180 H   0  0  0  0  0  0  0  0  0  0  0  0
   -9.7200   -4.0540  -20.8620 H   0  0  0  0  0  0  0  0  0  0  0  0
  -10.3270   -2.4000  -20.8880 H   0  0  0  0  0  0  0  0  0  0  0  0
   -7.9450    0.4350  -22.3080 H   0  0  0  0  0  0  0  0  0  0  0  0
   -9.1750   -0.1190  -21.1770 H   0  0  0  0  0  0  0  0  0  0  0  0
   -8.3720   -1.3370  -23.8550 H   0  0  0  0  0  0  0  0  0  0  0  0
  -10.5230   -0.0430  -23.8260 H   0  0  0  0  0  0  0  0  0  0  0  0
  -10.8540   -1.7730  -24.0370 H   0  0  0  0  0  0  0  0  0  0  0  0
  -11.0890   -1.0000  -22.4660 H   0  0  0  0  0  0  0  0  0  0  0  0
  1  2  1  0  0  0  0
  1 53  1  0  0  0  0
  1 54  1  0  0  0  0
  1 55  1  0  0  0  0
  2  3  1  0  0  0  0
  2 23  1  0  0  0  0
  2 52  1  6  0  0  0
  3  4  1  0  0  0  0
  3 50  1  0  0  0  0
  3 51  1  0  0  0  0
  4  5  1  0  0  0  0
  4 21  1  0  0  0  0
  5  6  2  0  0  0  0
  5 14  1  0  0  0  0
  6  7  1  0  0  0  0
  6 20  1  0  0  0  0
  7  8  2  0  0  0  0
  8  9  1  0  0  0  0
  8 19  1  0  0  0  0
  9 10  2  0  0  0  0
  9 14  1  0  0  0  0
 10 11  1  0  0  0  0
 10 18  1  0  0  0  0
 11 12  2  0  0  0  0
 11 17  1  0  0  0  0
 12 13  1  0  0  0  0
 12 16  1  0  0  0  0
 13 14  2  0  0  0  0
 13 15  1  0  0  0  0
 21 22  2  0  0  0  0
 23 21  1  1  0  0  0
 23 24  1  0  0  0  0
 23 44  1  0  0  0  0
 24 25  1  0  0  0  0
 24 48  1  0  0  0  0
 24 49  1  0  0  0  0
 25 26  1  0  0  0  0
 25 36  1  0  0  0  0
 26 27  1  0  0  0  0
 26 34  1  0  0  0  0
 26 35  1  0  0  0  0
 27 28  1  0  0  0  0
 27 31  2  0  0  0  0
 28 29  2  0  0  0  0
 28 33  1  0  0  0  0
 29 30  1  0  0  0  0
 30 31  1  0  0  0  0
 30 32  1  0  0  0  0
 36 37  2  0  0  0  0
 36 38  1  0  0  0  0
 38 39  2  0  0  0  0
 38 44  1  0  0  0  0
 39 40  1  0  0  0  0
 39 47  1  0  0  0  0
 40 41  2  0  0  0  0
 40 46  1  0  0  0  0
 41 42  1  0  0  0  0
 41 43  1  0  0  0  0
 43 44  2  0  0  0  0
 43 45  1  0  0  0  0
M  END
>  <MODEL>
       1

$$$$
