tmp_first_model_6_14.pdb
 OpenBabel08272519583D

 73 78  0  0  1  0  0  0  0  0999 V2000
   -7.9440   -3.7510  -24.0040 C   0  0  0  0  0  0  0  0  0  0  0  0
   -8.2970   -2.8750  -22.7980 C   0  0  1  0  0  0  0  0  0  0  0  0
   -7.0980   -2.6530  -21.8500 C   0  0  0  0  0  0  0  0  0  0  0  0
   -7.4070   -1.3920  -21.1980 N   0  0  0  0  0  0  0  0  0  0  0  0
   -6.6070   -0.8100  -20.1750 C   0  0  0  0  0  0  0  0  0  0  0  0
   -6.9000   -1.0550  -18.8590 C   0  0  0  0  0  0  0  0  0  0  0  0
   -6.1960   -0.5620  -17.8100 N   0  0  0  0  0  0  0  0  0  0  0  0
   -5.1690    0.2080  -18.0760 C   0  0  0  0  0  0  0  0  0  0  0  0
   -4.7450    0.5480  -19.3940 C   0  0  0  0  0  0  0  0  0  0  0  0
   -3.6170    1.3830  -19.6340 C   0  0  0  0  0  0  0  0  0  0  0  0
   -3.2360    1.6910  -20.9130 C   0  0  0  0  0  0  0  0  0  0  0  0
   -3.9730    1.1870  -22.0050 C   0  0  0  0  0  0  0  0  0  0  0  0
   -5.0610    0.3710  -21.7970 C   0  0  0  0  0  0  0  0  0  0  0  0
   -5.4860    0.0290  -20.4820 C   0  0  0  0  0  0  0  0  0  0  0  0
   -5.5680   -0.0660  -22.6510 H   0  0  0  0  0  0  0  0  0  0  0  0
   -3.6580    1.4070  -23.0220 H   0  0  0  0  0  0  0  0  0  0  0  0
   -2.3670    2.3160  -21.0930 H   0  0  0  0  0  0  0  0  0  0  0  0
   -3.0730    1.7730  -18.7780 H   0  0  0  0  0  0  0  0  0  0  0  0
   -4.6190    0.6140  -17.2270 H   0  0  0  0  0  0  0  0  0  0  0  0
   -7.7540   -1.6780  -18.6010 H   0  0  0  0  0  0  0  0  0  0  0  0
   -8.3900   -0.6650  -21.8320 C   0  0  0  0  0  0  0  0  0  0  0  0
   -8.8080    0.4020  -21.4340 O   0  0  0  0  0  0  0  0  0  0  0  0
   -8.8390   -1.4420  -23.1010 C   0  0  1  0  0  0  0  0  0  0  0  0
   -8.1550   -0.8400  -24.3610 C   0  0  0  0  0  0  0  0  0  0  0  0
   -8.6040    0.5110  -24.6340 N   0  0  0  0  0  0  0  0  0  0  0  0
   -7.6420    1.5730  -24.8920 C   0  0  0  0  0  0  0  0  0  0  0  0
   -7.5160    2.5180  -23.6940 C   0  0  0  0  0  0  0  0  0  0  0  0
   -6.4240    3.5550  -23.8580 N   0  3  0  0  0  0  0  0  0  0  0  0
   -6.7540    4.6760  -24.8360 C   0  0  0  0  0  0  0  0  0  0  0  0
   -7.7580    5.6760  -24.2560 C   0  0  0  0  0  0  0  0  0  0  0  0
   -7.3540    6.1570  -22.9360 N   0  0  0  0  0  0  0  0  0  0  0  0
   -6.5500    7.6000  -22.8290 S   0  0  0  0  0  0  0  0  0  0  0  0
   -6.0430    7.6900  -21.4740 O   0  0  0  0  0  0  0  0  0  0  0  0
   -7.4130    8.6200  -23.3970 O   0  0  0  0  0  0  0  0  0  0  0  0
   -5.1440    7.5240  -23.9310 C   0  0  0  0  0  0  0  0  0  0  0  0
   -5.5140    7.4990  -24.9610 H   0  0  0  0  0  0  0  0  0  0  0  0
   -4.5140    6.6660  -23.6880 H   0  0  0  0  0  0  0  0  0  0  0  0
   -4.6070    8.4630  -23.7570 H   0  0  0  0  0  0  0  0  0  0  0  0
   -7.0450    5.0950  -21.9740 C   0  0  0  0  0  0  0  0  0  0  0  0
   -5.9870    4.1510  -22.5320 C   0  0  0  0  0  0  0  0  0  0  0  0
   -5.0580    4.7000  -22.7080 H   0  0  0  0  0  0  0  0  0  0  0  0
   -5.7790    3.3320  -21.8390 H   0  0  0  0  0  0  0  0  0  0  0  0
   -7.9800    4.5550  -21.7930 H   0  0  0  0  0  0  0  0  0  0  0  0
   -6.7220    5.5580  -21.0430 H   0  0  0  0  0  0  0  0  0  0  0  0
   -8.7350    5.2020  -24.1270 H   0  0  0  0  0  0  0  0  0  0  0  0
   -7.8930    6.5370  -24.9150 H   0  0  0  0  0  0  0  0  0  0  0  0
   -7.1510    4.2430  -25.7530 H   0  0  0  0  0  0  0  0  0  0  0  0
   -5.8170    5.1820  -25.0790 H   0  0  0  0  0  0  0  0  0  0  0  0
   -5.5930    3.0500  -24.2200 H   0  0  0  0  0  0  0  0  0  0  0  0
   -7.2870    1.9430  -22.7930 H   0  0  0  0  0  0  0  0  0  0  0  0
   -8.4730    3.0190  -23.5390 H   0  0  0  0  0  0  0  0  0  0  0  0
   -6.6710    1.1070  -25.0980 H   0  0  0  0  0  0  0  0  0  0  0  0
   -7.9620    2.1150  -25.7850 H   0  0  0  0  0  0  0  0  0  0  0  0
   -9.9310    0.8200  -24.6210 C   0  0  0  0  0  0  0  0  0  0  0  0
  -10.3710    1.9010  -25.0000 O   0  0  0  0  0  0  0  0  0  0  0  0
  -10.8480   -0.2310  -24.0490 C   0  0  0  0  0  0  0  0  0  0  0  0
  -12.2230   -0.0530  -24.2010 C   0  0  0  0  0  0  0  0  0  0  0  0
  -13.1130   -0.9020  -23.5740 C   0  0  0  0  0  0  0  0  0  0  0  0
  -12.6100   -1.9190  -22.7640 C   0  0  0  0  0  0  0  0  0  0  0  0
  -13.7290   -2.9460  -21.9150 Cl  0  0  0  0  0  0  0  0  0  0  0  0
  -11.2500   -2.1180  -22.6090 C   0  0  0  0  0  0  0  0  0  0  0  0
  -10.3410   -1.2980  -23.2910 C   0  0  0  0  0  0  0  0  0  0  0  0
  -10.9160   -2.8940  -21.9280 H   0  0  0  0  0  0  0  0  0  0  0  0
  -14.1850   -0.7690  -23.6750 H   0  0  0  0  0  0  0  0  0  0  0  0
  -12.5620    0.7850  -24.8030 H   0  0  0  0  0  0  0  0  0  0  0  0
   -8.3790   -1.4940  -25.2190 H   0  0  0  0  0  0  0  0  0  0  0  0
   -7.0700   -0.8160  -24.2120 H   0  0  0  0  0  0  0  0  0  0  0  0
   -6.1520   -2.6000  -22.4130 H   0  0  0  0  0  0  0  0  0  0  0  0
   -6.9930   -3.4520  -21.1090 H   0  0  0  0  0  0  0  0  0  0  0  0
   -9.0730   -3.3800  -22.2170 H   0  0  0  0  0  0  0  0  0  0  0  0
   -7.0910   -3.3390  -24.5570 H   0  0  0  0  0  0  0  0  0  0  0  0
   -7.6640   -4.7600  -23.6850 H   0  0  0  0  0  0  0  0  0  0  0  0
   -8.7820   -3.8420  -24.7040 H   0  0  0  0  0  0  0  0  0  0  0  0
  1  2  1  0  0  0  0
  1 71  1  0  0  0  0
  1 72  1  0  0  0  0
  1 73  1  0  0  0  0
  2  3  1  0  0  0  0
  2 23  1  0  0  0  0
  2 70  1  1  0  0  0
  3  4  1  0  0  0  0
  3 68  1  0  0  0  0
  3 69  1  0  0  0  0
  4  5  1  0  0  0  0
  4 21  1  0  0  0  0
  5  6  2  0  0  0  0
  5 14  1  0  0  0  0
  6  7  1  0  0  0  0
  6 20  1  0  0  0  0
  7  8  2  0  0  0  0
  8  9  1  0  0  0  0
  8 19  1  0  0  0  0
  9 10  2  0  0  0  0
  9 14  1  0  0  0  0
 10 11  1  0  0  0  0
 10 18  1  0  0  0  0
 11 12  2  0  0  0  0
 11 17  1  0  0  0  0
 12 13  1  0  0  0  0
 12 16  1  0  0  0  0
 13 14  2  0  0  0  0
 13 15  1  0  0  0  0
 21 22  2  0  0  0  0
 23 21  1  1  0  0  0
 23 24  1  0  0  0  0
 23 62  1  0  0  0  0
 24 25  1  0  0  0  0
 24 66  1  0  0  0  0
 24 67  1  0  0  0  0
 25 26  1  0  0  0  0
 25 54  1  0  0  0  0
 26 27  1  0  0  0  0
 26 52  1  0  0  0  0
 26 53  1  0  0  0  0
 27 28  1  0  0  0  0
 27 50  1  0  0  0  0
 27 51  1  0  0  0  0
 28 29  1  0  0  0  0
 28 40  1  0  0  0  0
 28 49  1  0  0  0  0
 29 30  1  0  0  0  0
 29 47  1  0  0  0  0
 29 48  1  0  0  0  0
 30 31  1  0  0  0  0
 30 45  1  0  0  0  0
 30 46  1  0  0  0  0
 31 32  1  0  0  0  0
 31 39  1  0  0  0  0
 32 33  2  0  0  0  0
 32 34  2  0  0  0  0
 32 35  1  0  0  0  0
 35 36  1  0  0  0  0
 35 37  1  0  0  0  0
 35 38  1  0  0  0  0
 39 40  1  0  0  0  0
 39 43  1  0  0  0  0
 39 44  1  0  0  0  0
 40 41  1  0  0  0  0
 40 42  1  0  0  0  0
 54 55  2  0  0  0  0
 54 56  1  0  0  0  0
 56 57  2  0  0  0  0
 56 62  1  0  0  0  0
 57 58  1  0  0  0  0
 57 65  1  0  0  0  0
 58 59  2  0  0  0  0
 58 64  1  0  0  0  0
 59 60  1  0  0  0  0
 59 61  1  0  0  0  0
 61 62  2  0  0  0  0
 61 63  1  0  0  0  0
M  CHG  1  28   1
M  END
>  <MODEL>
       1

$$$$
