tmp_first_model_17_83.pdb
 OpenBabel08282502223D

 46 50  0  0  1  0  0  0  0  0999 V2000
   -7.6640   -0.2040  -26.7480 N   0  0  0  0  0  0  0  0  0  0  0  0
   -9.1170    0.6330  -26.5980 S   0  0  0  0  0  0  0  0  0  0  0  0
   -9.8890    0.6010  -27.8330 O   0  0  0  0  0  0  0  0  0  0  0  0
   -8.7750    1.9060  -25.9940 O   0  0  0  0  0  0  0  0  0  0  0  0
   -9.9600   -0.3760  -25.4430 C   0  0  0  0  0  0  0  0  0  0  0  0
  -11.3360   -0.5150  -25.5840 C   0  0  0  0  0  0  0  0  0  0  0  0
  -12.0350   -1.3310  -24.7090 C   0  0  0  0  0  0  0  0  0  0  0  0
  -11.3250   -2.0460  -23.7320 C   0  0  0  0  0  0  0  0  0  0  0  0
   -9.9440   -1.8650  -23.5670 C   0  0  0  0  0  0  0  0  0  0  0  0
   -9.2680   -1.0220  -24.4340 C   0  0  0  0  0  0  0  0  0  0  0  0
   -8.1940   -0.9110  -24.3350 H   0  0  0  0  0  0  0  0  0  0  0  0
   -9.1550   -2.4800  -22.4300 C   0  0  1  0  0  0  0  0  0  0  0  0
   -9.9900   -3.6060  -21.7950 C   0  0  0  0  0  0  0  0  0  0  0  0
  -11.4570   -3.2110  -21.7090 C   0  0  0  0  0  0  0  0  0  0  0  0
  -12.0240   -2.9420  -22.9860 O   0  0  0  0  0  0  0  0  0  0  0  0
  -12.0780   -3.9950  -21.2700 H   0  0  0  0  0  0  0  0  0  0  0  0
  -11.5420   -2.3190  -21.0970 H   0  0  0  0  0  0  0  0  0  0  0  0
   -9.6130   -3.8700  -20.8060 H   0  0  0  0  0  0  0  0  0  0  0  0
   -9.8730   -4.4700  -22.4580 H   0  0  0  0  0  0  0  0  0  0  0  0
   -7.8440   -2.9690  -22.8540 N   0  0  0  0  0  0  0  0  0  0  0  0
   -6.8130   -2.5580  -22.0480 C   0  0  0  0  0  0  0  0  0  0  0  0
   -5.6570   -2.9210  -22.0450 O   0  0  0  0  0  0  0  0  0  0  0  0
   -7.3550   -1.5630  -21.2080 N   0  0  0  0  0  0  0  0  0  0  0  0
   -6.6060   -0.8900  -20.2010 C   0  0  0  0  0  0  0  0  0  0  0  0
   -6.9420   -1.0740  -18.8800 C   0  0  0  0  0  0  0  0  0  0  0  0
   -6.2630   -0.5550  -17.8240 N   0  0  0  0  0  0  0  0  0  0  0  0
   -5.2180    0.1870  -18.0980 C   0  0  0  0  0  0  0  0  0  0  0  0
   -4.7820    0.4870  -19.4180 C   0  0  0  0  0  0  0  0  0  0  0  0
   -3.6630    1.3280  -19.6310 C   0  0  0  0  0  0  0  0  0  0  0  0
   -3.2740    1.6490  -20.9000 C   0  0  0  0  0  0  0  0  0  0  0  0
   -3.9830    1.1450  -22.0080 C   0  0  0  0  0  0  0  0  0  0  0  0
   -5.0630    0.3170  -21.8300 C   0  0  0  0  0  0  0  0  0  0  0  0
   -5.4880   -0.0480  -20.5180 C   0  0  0  0  0  0  0  0  0  0  0  0
   -5.5930   -0.0480  -22.7040 H   0  0  0  0  0  0  0  0  0  0  0  0
   -3.6650    1.4200  -23.0090 H   0  0  0  0  0  0  0  0  0  0  0  0
   -2.4180    2.2930  -21.0620 H   0  0  0  0  0  0  0  0  0  0  0  0
   -3.1400    1.7130  -18.7630 H   0  0  0  0  0  0  0  0  0  0  0  0
   -4.6540    0.6070  -17.2620 H   0  0  0  0  0  0  0  0  0  0  0  0
   -7.8000   -1.6930  -18.6280 H   0  0  0  0  0  0  0  0  0  0  0  0
   -8.7220   -1.3810  -21.4370 C   0  0  0  0  0  0  0  0  0  0  0  0
   -9.3940   -0.4860  -20.9910 O   0  0  0  0  0  0  0  0  0  0  0  0
   -7.7660   -3.8370  -23.3550 H   0  0  0  0  0  0  0  0  0  0  0  0
  -13.1190   -1.4040  -24.7470 H   0  0  0  0  0  0  0  0  0  0  0  0
  -11.8130    0.0150  -26.4030 H   0  0  0  0  0  0  0  0  0  0  0  0
   -7.7530   -1.0480  -27.3080 H   0  0  0  0  0  0  0  0  0  0  0  0
   -6.9710    0.4200  -27.1490 H   0  0  0  0  0  0  0  0  0  0  0  0
  1  2  1  0  0  0  0
  1 45  1  0  0  0  0
  1 46  1  0  0  0  0
  2  3  2  0  0  0  0
  2  4  2  0  0  0  0
  2  5  1  0  0  0  0
  5  6  2  0  0  0  0
  5 10  1  0  0  0  0
  6  7  1  0  0  0  0
  6 44  1  0  0  0  0
  7  8  2  0  0  0  0
  7 43  1  0  0  0  0
  8  9  1  0  0  0  0
  8 15  1  0  0  0  0
  9 10  2  0  0  0  0
 10 11  1  0  0  0  0
 12  9  1  6  0  0  0
 12 13  1  0  0  0  0
 12 20  1  0  0  0  0
 12 40  1  0  0  0  0
 13 14  1  0  0  0  0
 13 18  1  0  0  0  0
 13 19  1  0  0  0  0
 14 15  1  0  0  0  0
 14 16  1  0  0  0  0
 14 17  1  0  0  0  0
 20 21  1  0  0  0  0
 20 42  1  0  0  0  0
 21 22  2  0  0  0  0
 21 23  1  0  0  0  0
 23 24  1  0  0  0  0
 23 40  1  0  0  0  0
 24 25  2  0  0  0  0
 24 33  1  0  0  0  0
 25 26  1  0  0  0  0
 25 39  1  0  0  0  0
 26 27  2  0  0  0  0
 27 28  1  0  0  0  0
 27 38  1  0  0  0  0
 28 29  2  0  0  0  0
 28 33  1  0  0  0  0
 29 30  1  0  0  0  0
 29 37  1  0  0  0  0
 30 31  2  0  0  0  0
 30 36  1  0  0  0  0
 31 32  1  0  0  0  0
 31 35  1  0  0  0  0
 32 33  2  0  0  0  0
 32 34  1  0  0  0  0
 40 41  2  0  0  0  0
M  END
>  <MODEL>
       1

$$$$
