tmp_first_model_10_72.pdb
 OpenBabel08272522163D

 41 44  0  0  0  0  0  0  0  0999 V2000
   -8.7030    0.7090  -21.2690 O   0  0  0  0  0  0  0  0  0  0  0  0
   -8.6630   -0.4330  -21.6920 C   0  0  0  0  0  0  0  0  0  0  0  0
   -7.5340   -1.3860  -21.2630 C   0  0  0  0  0  0  0  0  0  0  0  0
   -6.6880   -0.7970  -20.1760 C   0  0  0  0  0  0  0  0  0  0  0  0
   -6.9530   -1.0920  -18.8670 C   0  0  0  0  0  0  0  0  0  0  0  0
   -6.2570   -0.6240  -17.7980 N   0  0  0  0  0  0  0  0  0  0  0  0
   -5.2370    0.1590  -18.0570 C   0  0  0  0  0  0  0  0  0  0  0  0
   -4.8630    0.5780  -19.3650 C   0  0  0  0  0  0  0  0  0  0  0  0
   -3.7820    1.4720  -19.5860 C   0  0  0  0  0  0  0  0  0  0  0  0
   -3.5680    2.0000  -20.8350 C   0  0  0  0  0  0  0  0  0  0  0  0
   -4.4050    1.6330  -21.9100 C   0  0  0  0  0  0  0  0  0  0  0  0
   -5.3930    0.6960  -21.7440 C   0  0  0  0  0  0  0  0  0  0  0  0
   -5.6480    0.1370  -20.4560 C   0  0  0  0  0  0  0  0  0  0  0  0
   -6.0180    0.4260  -22.5910 H   0  0  0  0  0  0  0  0  0  0  0  0
   -4.2380    2.0800  -22.8900 H   0  0  0  0  0  0  0  0  0  0  0  0
   -2.7940    2.7460  -20.9910 H   0  0  0  0  0  0  0  0  0  0  0  0
   -3.1570    1.7620  -18.7450 H   0  0  0  0  0  0  0  0  0  0  0  0
   -4.6770    0.5420  -17.2020 H   0  0  0  0  0  0  0  0  0  0  0  0
   -7.7690   -1.7710  -18.6190 H   0  0  0  0  0  0  0  0  0  0  0  0
   -7.9740   -2.3350  -20.9230 H   0  0  0  0  0  0  0  0  0  0  0  0
   -6.9090   -1.6200  -22.1330 H   0  0  0  0  0  0  0  0  0  0  0  0
   -9.6190   -0.9160  -22.5520 N   0  0  0  0  0  0  0  0  0  0  0  0
   -9.5860   -2.2260  -23.2060 C   0  0  0  0  0  0  0  0  0  0  0  0
  -10.3260   -3.3180  -22.4240 C   0  0  0  0  0  0  0  0  0  0  0  0
  -11.5410   -2.7490  -21.6810 C   0  0  0  0  0  0  0  0  0  0  0  0
  -12.4280   -1.8170  -22.4750 C   0  0  0  0  0  0  0  0  0  0  0  0
  -14.1290   -2.0890  -22.6600 S   0  0  0  0  0  0  0  0  0  0  0  0
  -14.3540   -0.5630  -23.4280 C   0  0  0  0  0  0  0  0  0  0  0  0
  -13.1820    0.1100  -23.5470 C   0  0  0  0  0  0  0  0  0  0  0  0
  -12.0660   -0.6080  -23.0030 C   0  0  0  0  0  0  0  0  0  0  0  0
  -10.6880    0.0070  -22.9290 C   0  0  0  0  0  0  0  0  0  0  0  0
  -10.4500    0.4780  -23.8950 H   0  0  0  0  0  0  0  0  0  0  0  0
  -10.6940    0.8300  -22.2030 H   0  0  0  0  0  0  0  0  0  0  0  0
  -13.1170    1.1020  -23.9870 H   0  0  0  0  0  0  0  0  0  0  0  0
  -15.3360   -0.1930  -23.6930 H   0  0  0  0  0  0  0  0  0  0  0  0
  -12.1300   -3.5500  -21.2280 H   0  0  0  0  0  0  0  0  0  0  0  0
  -11.1350   -2.1250  -20.8780 H   0  0  0  0  0  0  0  0  0  0  0  0
   -9.6540   -3.7820  -21.6910 H   0  0  0  0  0  0  0  0  0  0  0  0
  -10.6280   -4.1160  -23.1150 H   0  0  0  0  0  0  0  0  0  0  0  0
  -10.0950   -2.1140  -24.1690 H   0  0  0  0  0  0  0  0  0  0  0  0
   -8.5500   -2.5240  -23.4080 H   0  0  0  0  0  0  0  0  0  0  0  0
  1  2  2  0  0  0  0
  2  3  1  0  0  0  0
  2 22  1  0  0  0  0
  3  4  1  0  0  0  0
  3 20  1  0  0  0  0
  3 21  1  0  0  0  0
  4  5  2  0  0  0  0
  4 13  1  0  0  0  0
  5  6  1  0  0  0  0
  5 19  1  0  0  0  0
  6  7  2  0  0  0  0
  7  8  1  0  0  0  0
  7 18  1  0  0  0  0
  8  9  2  0  0  0  0
  8 13  1  0  0  0  0
  9 10  1  0  0  0  0
  9 17  1  0  0  0  0
 10 11  2  0  0  0  0
 10 16  1  0  0  0  0
 11 12  1  0  0  0  0
 11 15  1  0  0  0  0
 12 13  2  0  0  0  0
 12 14  1  0  0  0  0
 22 23  1  0  0  0  0
 22 31  1  0  0  0  0
 23 24  1  0  0  0  0
 23 40  1  0  0  0  0
 23 41  1  0  0  0  0
 24 25  1  0  0  0  0
 24 38  1  0  0  0  0
 24 39  1  0  0  0  0
 25 26  1  0  0  0  0
 25 36  1  0  0  0  0
 25 37  1  0  0  0  0
 26 27  1  0  0  0  0
 26 30  2  0  0  0  0
 27 28  1  0  0  0  0
 28 29  2  0  0  0  0
 28 35  1  0  0  0  0
 29 30  1  0  0  0  0
 29 34  1  0  0  0  0
 30 31  1  0  0  0  0
 31 32  1  0  0  0  0
 31 33  1  0  0  0  0
M  END
>  <MODEL>
       1

$$$$
