tmp_first_model_4_14.pdb
 OpenBabel08272518513D

 73 78  0  0  1  0  0  0  0  0999 V2000
   -7.9780   -3.7380  -23.9910 C   0  0  0  0  0  0  0  0  0  0  0  0
   -8.3130   -2.8640  -22.7910 C   0  0  1  0  0  0  0  0  0  0  0  0
   -7.0980   -2.6570  -21.8770 C   0  0  0  0  0  0  0  0  0  0  0  0
   -7.4100   -1.4280  -21.1910 N   0  0  0  0  0  0  0  0  0  0  0  0
   -6.5260   -0.9400  -20.2020 C   0  0  0  0  0  0  0  0  0  0  0  0
   -6.7660   -1.2480  -18.8910 C   0  0  0  0  0  0  0  0  0  0  0  0
   -5.9240   -0.9650  -17.8680 N   0  0  0  0  0  0  0  0  0  0  0  0
   -4.8070   -0.3490  -18.1650 C   0  0  0  0  0  0  0  0  0  0  0  0
   -4.4590    0.0710  -19.4830 C   0  0  0  0  0  0  0  0  0  0  0  0
   -3.2970    0.8430  -19.7380 C   0  0  0  0  0  0  0  0  0  0  0  0
   -3.0710    1.3630  -20.9820 C   0  0  0  0  0  0  0  0  0  0  0  0
   -3.9320    1.0420  -22.0560 C   0  0  0  0  0  0  0  0  0  0  0  0
   -5.0370    0.2510  -21.8510 C   0  0  0  0  0  0  0  0  0  0  0  0
   -5.3370   -0.2320  -20.5450 C   0  0  0  0  0  0  0  0  0  0  0  0
   -5.6720   -0.0170  -22.6860 H   0  0  0  0  0  0  0  0  0  0  0  0
   -3.7530    1.4690  -23.0370 H   0  0  0  0  0  0  0  0  0  0  0  0
   -2.2340    2.0330  -21.1490 H   0  0  0  0  0  0  0  0  0  0  0  0
   -2.6500    1.0660  -18.8960 H   0  0  0  0  0  0  0  0  0  0  0  0
   -4.1140   -0.1170  -17.3530 H   0  0  0  0  0  0  0  0  0  0  0  0
   -7.6950   -1.7560  -18.6460 H   0  0  0  0  0  0  0  0  0  0  0  0
   -8.3940   -0.6800  -21.7960 C   0  0  0  0  0  0  0  0  0  0  0  0
   -8.8090    0.3810  -21.3750 O   0  0  0  0  0  0  0  0  0  0  0  0
   -8.8380   -1.4270  -23.0780 C   0  0  1  0  0  0  0  0  0  0  0  0
   -8.1400   -0.8300  -24.3300 C   0  0  0  0  0  0  0  0  0  0  0  0
   -8.5990    0.5080  -24.6260 N   0  0  0  0  0  0  0  0  0  0  0  0
   -7.6590    1.5790  -24.8920 C   0  0  0  0  0  0  0  0  0  0  0  0
   -7.5340    2.5010  -23.6820 C   0  0  0  0  0  0  0  0  0  0  0  0
   -6.4480    3.5250  -23.8500 N   0  3  0  0  0  0  0  0  0  0  0  0
   -6.7750    4.6410  -24.8280 C   0  0  0  0  0  0  0  0  0  0  0  0
   -7.7530    5.6630  -24.2410 C   0  0  0  0  0  0  0  0  0  0  0  0
   -7.3180    6.1630  -22.9350 N   0  0  0  0  0  0  0  0  0  0  0  0
   -6.5500    7.6390  -22.8280 S   0  0  0  0  0  0  0  0  0  0  0  0
   -6.0600    7.7940  -21.4700 O   0  0  0  0  0  0  0  0  0  0  0  0
   -7.4260    8.6350  -23.4210 O   0  0  0  0  0  0  0  0  0  0  0  0
   -5.1310    7.5260  -23.9130 C   0  0  0  0  0  0  0  0  0  0  0  0
   -5.4620    7.4770  -24.9510 H   0  0  0  0  0  0  0  0  0  0  0  0
   -4.5000    6.6680  -23.6840 H   0  0  0  0  0  0  0  0  0  0  0  0
   -4.5530    8.4410  -23.7760 H   0  0  0  0  0  0  0  0  0  0  0  0
   -7.0290    5.0960  -21.9750 C   0  0  0  0  0  0  0  0  0  0  0  0
   -6.0030    4.1130  -22.5320 C   0  0  0  0  0  0  0  0  0  0  0  0
   -5.0520    4.6180  -22.7020 H   0  0  0  0  0  0  0  0  0  0  0  0
   -5.8130    3.2960  -21.8280 H   0  0  0  0  0  0  0  0  0  0  0  0
   -7.9720    4.5710  -21.7770 H   0  0  0  0  0  0  0  0  0  0  0  0
   -6.6920    5.5410  -21.0410 H   0  0  0  0  0  0  0  0  0  0  0  0
   -8.7310    5.1900  -24.1030 H   0  0  0  0  0  0  0  0  0  0  0  0
   -7.9050    6.5000  -24.9230 H   0  0  0  0  0  0  0  0  0  0  0  0
   -7.1720    4.2140  -25.7500 H   0  0  0  0  0  0  0  0  0  0  0  0
   -5.8320    5.1220  -25.0890 H   0  0  0  0  0  0  0  0  0  0  0  0
   -5.6290    3.0130  -24.2260 H   0  0  0  0  0  0  0  0  0  0  0  0
   -7.3180    1.9180  -22.7810 H   0  0  0  0  0  0  0  0  0  0  0  0
   -8.4910    2.9950  -23.5190 H   0  0  0  0  0  0  0  0  0  0  0  0
   -6.6820    1.1420  -25.1220 H   0  0  0  0  0  0  0  0  0  0  0  0
   -7.9970    2.1300  -25.7750 H   0  0  0  0  0  0  0  0  0  0  0  0
   -9.9320    0.7950  -24.6740 C   0  0  0  0  0  0  0  0  0  0  0  0
  -10.3670    1.8260  -25.1690 O   0  0  0  0  0  0  0  0  0  0  0  0
  -10.8390   -0.2230  -24.0470 C   0  0  0  0  0  0  0  0  0  0  0  0
  -12.2110   -0.0450  -24.2060 C   0  0  0  0  0  0  0  0  0  0  0  0
  -13.1060   -0.8890  -23.5840 C   0  0  0  0  0  0  0  0  0  0  0  0
  -12.5980   -1.9110  -22.7850 C   0  0  0  0  0  0  0  0  0  0  0  0
  -13.6990   -2.9580  -21.9430 Cl  0  0  0  0  0  0  0  0  0  0  0  0
  -11.2400   -2.1110  -22.6230 C   0  0  0  0  0  0  0  0  0  0  0  0
  -10.3300   -1.2810  -23.2820 C   0  0  0  0  0  0  0  0  0  0  0  0
  -10.9060   -2.9030  -21.9610 H   0  0  0  0  0  0  0  0  0  0  0  0
  -14.1780   -0.7530  -23.6850 H   0  0  0  0  0  0  0  0  0  0  0  0
  -12.5470    0.7840  -24.8150 H   0  0  0  0  0  0  0  0  0  0  0  0
   -8.3550   -1.4850  -25.1840 H   0  0  0  0  0  0  0  0  0  0  0  0
   -7.0530   -0.8170  -24.1960 H   0  0  0  0  0  0  0  0  0  0  0  0
   -6.1580   -2.5880  -22.4550 H   0  0  0  0  0  0  0  0  0  0  0  0
   -6.9810   -3.4570  -21.1420 H   0  0  0  0  0  0  0  0  0  0  0  0
   -9.0740   -3.3720  -22.1920 H   0  0  0  0  0  0  0  0  0  0  0  0
   -7.1290   -3.3180  -24.5450 H   0  0  0  0  0  0  0  0  0  0  0  0
   -7.6850   -4.7390  -23.6560 H   0  0  0  0  0  0  0  0  0  0  0  0
   -8.8220   -3.8370  -24.6820 H   0  0  0  0  0  0  0  0  0  0  0  0
  1  2  1  0  0  0  0
  1 71  1  0  0  0  0
  1 72  1  0  0  0  0
  1 73  1  0  0  0  0
  2  3  1  0  0  0  0
  2 23  1  0  0  0  0
  2 70  1  1  0  0  0
  3  4  1  0  0  0  0
  3 68  1  0  0  0  0
  3 69  1  0  0  0  0
  4  5  1  0  0  0  0
  4 21  1  0  0  0  0
  5  6  2  0  0  0  0
  5 14  1  0  0  0  0
  6  7  1  0  0  0  0
  6 20  1  0  0  0  0
  7  8  2  0  0  0  0
  8  9  1  0  0  0  0
  8 19  1  0  0  0  0
  9 10  2  0  0  0  0
  9 14  1  0  0  0  0
 10 11  1  0  0  0  0
 10 18  1  0  0  0  0
 11 12  2  0  0  0  0
 11 17  1  0  0  0  0
 12 13  1  0  0  0  0
 12 16  1  0  0  0  0
 13 14  2  0  0  0  0
 13 15  1  0  0  0  0
 21 22  2  0  0  0  0
 23 21  1  1  0  0  0
 23 24  1  0  0  0  0
 23 62  1  0  0  0  0
 24 25  1  0  0  0  0
 24 66  1  0  0  0  0
 24 67  1  0  0  0  0
 25 26  1  0  0  0  0
 25 54  1  0  0  0  0
 26 27  1  0  0  0  0
 26 52  1  0  0  0  0
 26 53  1  0  0  0  0
 27 28  1  0  0  0  0
 27 50  1  0  0  0  0
 27 51  1  0  0  0  0
 28 29  1  0  0  0  0
 28 40  1  0  0  0  0
 28 49  1  0  0  0  0
 29 30  1  0  0  0  0
 29 47  1  0  0  0  0
 29 48  1  0  0  0  0
 30 31  1  0  0  0  0
 30 45  1  0  0  0  0
 30 46  1  0  0  0  0
 31 32  1  0  0  0  0
 31 39  1  0  0  0  0
 32 33  2  0  0  0  0
 32 34  2  0  0  0  0
 32 35  1  0  0  0  0
 35 36  1  0  0  0  0
 35 37  1  0  0  0  0
 35 38  1  0  0  0  0
 39 40  1  0  0  0  0
 39 43  1  0  0  0  0
 39 44  1  0  0  0  0
 40 41  1  0  0  0  0
 40 42  1  0  0  0  0
 54 55  2  0  0  0  0
 54 56  1  0  0  0  0
 56 57  2  0  0  0  0
 56 62  1  0  0  0  0
 57 58  1  0  0  0  0
 57 65  1  0  0  0  0
 58 59  2  0  0  0  0
 58 64  1  0  0  0  0
 59 60  1  0  0  0  0
 59 61  1  0  0  0  0
 61 62  2  0  0  0  0
 61 63  1  0  0  0  0
M  CHG  1  28   1
M  END
>  <MODEL>
       1

$$$$
