tmp_first_model_16_49.pdb
 OpenBabel08282501503D

 67 72  0  0  1  0  0  0  0  0999 V2000
   -7.4250    3.3780  -21.8100 C   0  0  0  0  0  0  0  0  0  0  0  0
   -8.2630    2.8900  -22.8830 N   0  0  0  0  0  0  0  0  0  0  0  0
   -7.6960    2.2000  -23.9030 C   0  0  0  0  0  0  0  0  0  0  0  0
   -6.4870    2.0850  -24.0220 O   0  0  0  0  0  0  0  0  0  0  0  0
   -8.6580    1.5870  -24.9150 C   0  0  0  0  0  0  0  0  0  0  0  0
   -9.3690    0.4440  -24.3880 N   0  0  0  0  0  0  0  0  0  0  0  0
   -8.6450   -0.8000  -24.2210 C   0  0  0  0  0  0  0  0  0  0  0  0
   -9.0400   -1.5230  -22.9170 C   0  0  2  0  0  0  0  0  0  0  0  0
   -8.5090   -0.7420  -21.6960 C   0  0  0  0  0  0  0  0  0  0  0  0
   -8.9680    0.2670  -21.2000 O   0  0  0  0  0  0  0  0  0  0  0  0
   -7.3880   -1.3830  -21.2370 N   0  0  0  0  0  0  0  0  0  0  0  0
   -6.6080   -0.8330  -20.1990 C   0  0  0  0  0  0  0  0  0  0  0  0
   -6.9310   -1.1050  -18.8960 C   0  0  0  0  0  0  0  0  0  0  0  0
   -6.1710   -0.7370  -17.8390 N   0  0  0  0  0  0  0  0  0  0  0  0
   -5.1040   -0.0150  -18.0900 C   0  0  0  0  0  0  0  0  0  0  0  0
   -4.7160    0.4260  -19.3910 C   0  0  0  0  0  0  0  0  0  0  0  0
   -3.6150    1.2990  -19.6190 C   0  0  0  0  0  0  0  0  0  0  0  0
   -3.2430    1.6340  -20.8940 C   0  0  0  0  0  0  0  0  0  0  0  0
   -3.9620    1.1340  -22.0040 C   0  0  0  0  0  0  0  0  0  0  0  0
   -5.0560    0.3280  -21.8090 C   0  0  0  0  0  0  0  0  0  0  0  0
   -5.4680   -0.0290  -20.4950 C   0  0  0  0  0  0  0  0  0  0  0  0
   -5.6130   -0.0340  -22.6670 H   0  0  0  0  0  0  0  0  0  0  0  0
   -3.6520    1.3880  -23.0130 H   0  0  0  0  0  0  0  0  0  0  0  0
   -2.3880    2.2830  -21.0650 H   0  0  0  0  0  0  0  0  0  0  0  0
   -3.0920    1.7110  -18.7600 H   0  0  0  0  0  0  0  0  0  0  0  0
   -4.4790    0.2590  -17.2400 H   0  0  0  0  0  0  0  0  0  0  0  0
   -7.8440   -1.6560  -18.6770 H   0  0  0  0  0  0  0  0  0  0  0  0
   -7.0430   -2.5930  -21.9430 C   0  0  0  0  0  0  0  0  0  0  0  0
   -8.3030   -2.8890  -22.7650 C   0  0  2  0  0  0  0  0  0  0  0  0
   -7.9740   -3.6800  -24.0390 C   0  0  0  0  0  0  0  0  0  0  0  0
   -7.4530   -4.9960  -23.7510 N   0  0  0  0  0  0  0  0  0  0  0  0
   -6.1240   -5.3080  -23.6470 C   0  0  0  0  0  0  0  0  0  0  0  0
   -5.0260   -4.5790  -23.9980 C   0  0  0  0  0  0  0  0  0  0  0  0
   -3.8040   -5.1720  -23.7840 N   0  0  0  0  0  0  0  0  0  0  0  0
   -3.9460   -6.3670  -23.3010 C   0  0  0  0  0  0  0  0  0  0  0  0
   -2.8130   -7.2910  -22.9870 C   0  0  0  0  0  0  0  0  0  0  0  0
   -3.0260   -7.9240  -22.1190 H   0  0  0  0  0  0  0  0  0  0  0  0
   -2.6010   -7.9490  -23.8410 H   0  0  0  0  0  0  0  0  0  0  0  0
   -1.9200   -6.6920  -22.7980 H   0  0  0  0  0  0  0  0  0  0  0  0
   -5.6030   -6.8570  -23.0350 S   0  0  0  0  0  0  0  0  0  0  0  0
   -5.0480   -3.5930  -24.4430 H   0  0  0  0  0  0  0  0  0  0  0  0
   -8.1090   -5.7230  -23.5210 H   0  0  0  0  0  0  0  0  0  0  0  0
   -8.8660   -3.7850  -24.6690 H   0  0  0  0  0  0  0  0  0  0  0  0
   -7.2270   -3.1370  -24.6220 H   0  0  0  0  0  0  0  0  0  0  0  0
   -8.9560   -3.5220  -22.1650 H   0  0  0  0  0  0  0  0  0  0  0  0
   -6.1620   -2.4480  -22.5870 H   0  0  0  0  0  0  0  0  0  0  0  0
   -6.7950   -3.4020  -21.2510 H   0  0  0  0  0  0  0  0  0  0  0  0
  -10.5530   -1.5750  -22.8520 C   0  0  0  0  0  0  0  0  0  0  0  0
  -11.1940   -2.4630  -21.9830 C   0  0  0  0  0  0  0  0  0  0  0  0
  -12.5750   -2.4710  -21.9010 C   0  0  0  0  0  0  0  0  0  0  0  0
  -13.3510   -3.5590  -20.7860 Cl  0  0  0  0  0  0  0  0  0  0  0  0
  -13.3630   -1.6080  -22.6640 C   0  0  0  0  0  0  0  0  0  0  0  0
  -12.7370   -0.6860  -23.4770 C   0  0  0  0  0  0  0  0  0  0  0  0
  -11.3450   -0.6460  -23.5420 C   0  0  0  0  0  0  0  0  0  0  0  0
  -10.7320    0.4820  -24.3070 C   0  0  0  0  0  0  0  0  0  0  0  0
  -11.4100    1.3830  -24.7920 O   0  0  0  0  0  0  0  0  0  0  0  0
  -13.2910    0.0460  -24.0580 H   0  0  0  0  0  0  0  0  0  0  0  0
  -14.4430   -1.6560  -22.5800 H   0  0  0  0  0  0  0  0  0  0  0  0
  -10.6220   -3.1350  -21.3510 H   0  0  0  0  0  0  0  0  0  0  0  0
   -7.5780   -0.5600  -24.2150 H   0  0  0  0  0  0  0  0  0  0  0  0
   -8.8570   -1.4650  -25.0680 H   0  0  0  0  0  0  0  0  0  0  0  0
   -9.4310    2.2970  -25.2140 H   0  0  0  0  0  0  0  0  0  0  0  0
   -8.0480    1.3010  -25.7770 H   0  0  0  0  0  0  0  0  0  0  0  0
   -9.2390    2.7520  -22.6890 H   0  0  0  0  0  0  0  0  0  0  0  0
   -6.9070    2.5560  -21.3030 H   0  0  0  0  0  0  0  0  0  0  0  0
   -6.6690    4.0540  -22.2040 H   0  0  0  0  0  0  0  0  0  0  0  0
   -8.0300    3.9370  -21.1000 H   0  0  0  0  0  0  0  0  0  0  0  0
  1  2  1  0  0  0  0
  1 65  1  0  0  0  0
  1 66  1  0  0  0  0
  1 67  1  0  0  0  0
  2  3  1  0  0  0  0
  2 64  1  0  0  0  0
  3  4  2  0  0  0  0
  3  5  1  0  0  0  0
  5  6  1  0  0  0  0
  5 62  1  0  0  0  0
  5 63  1  0  0  0  0
  6  7  1  0  0  0  0
  6 55  1  0  0  0  0
  7  8  1  0  0  0  0
  7 60  1  0  0  0  0
  7 61  1  0  0  0  0
  8  9  1  1  0  0  0
  8 29  1  0  0  0  0
  8 48  1  0  0  0  0
  9 10  2  0  0  0  0
  9 11  1  0  0  0  0
 11 12  1  0  0  0  0
 11 28  1  0  0  0  0
 12 13  2  0  0  0  0
 12 21  1  0  0  0  0
 13 14  1  0  0  0  0
 13 27  1  0  0  0  0
 14 15  2  0  0  0  0
 15 16  1  0  0  0  0
 15 26  1  0  0  0  0
 16 17  2  0  0  0  0
 16 21  1  0  0  0  0
 17 18  1  0  0  0  0
 17 25  1  0  0  0  0
 18 19  2  0  0  0  0
 18 24  1  0  0  0  0
 19 20  1  0  0  0  0
 19 23  1  0  0  0  0
 20 21  2  0  0  0  0
 20 22  1  0  0  0  0
 28 29  1  0  0  0  0
 28 46  1  0  0  0  0
 28 47  1  0  0  0  0
 29 30  1  0  0  0  0
 29 45  1  1  0  0  0
 30 31  1  0  0  0  0
 30 43  1  0  0  0  0
 30 44  1  0  0  0  0
 31 32  1  0  0  0  0
 31 42  1  0  0  0  0
 32 33  2  0  0  0  0
 32 40  1  0  0  0  0
 33 34  1  0  0  0  0
 33 41  1  0  0  0  0
 34 35  2  0  0  0  0
 35 36  1  0  0  0  0
 35 40  1  0  0  0  0
 36 37  1  0  0  0  0
 36 38  1  0  0  0  0
 36 39  1  0  0  0  0
 48 49  2  0  0  0  0
 48 54  1  0  0  0  0
 49 50  1  0  0  0  0
 49 59  1  0  0  0  0
 50 51  1  0  0  0  0
 50 52  2  0  0  0  0
 52 53  1  0  0  0  0
 52 58  1  0  0  0  0
 53 54  2  0  0  0  0
 53 57  1  0  0  0  0
 54 55  1  0  0  0  0
 55 56  2  0  0  0  0
M  END
>  <MODEL>
       1

$$$$
