tmp_first_model_4_57.pdb
 OpenBabel08272518513D

 59 63  0  0  1  0  0  0  0  0999 V2000
  -14.5160   -1.2490  -23.5420 C   0  0  0  0  0  0  0  0  0  0  0  0
  -13.7850   -2.4320  -23.1300 N   0  0  0  0  0  0  0  0  0  0  0  0
  -13.4750   -2.6430  -21.8220 C   0  0  0  0  0  0  0  0  0  0  0  0
  -13.9290   -1.9440  -20.9290 O   0  0  0  0  0  0  0  0  0  0  0  0
  -12.5380   -3.8290  -21.5600 C   0  0  0  0  0  0  0  0  0  0  0  0
  -11.2210   -3.7700  -22.1960 N   0  0  0  0  0  0  0  0  0  0  0  0
  -10.0590   -3.2940  -21.4460 C   0  0  0  0  0  0  0  0  0  0  0  0
   -8.8510   -2.9360  -22.3510 C   0  0  2  0  0  0  0  0  0  0  0  0
   -7.6080   -2.7270  -21.4800 C   0  0  0  0  0  0  0  0  0  0  0  0
   -6.8360   -3.5830  -21.1030 O   0  0  0  0  0  0  0  0  0  0  0  0
   -7.4300   -1.3850  -21.2410 N   0  0  0  0  0  0  0  0  0  0  0  0
   -6.5240   -0.9790  -20.2240 C   0  0  0  0  0  0  0  0  0  0  0  0
   -6.7420   -1.3230  -18.9120 C   0  0  0  0  0  0  0  0  0  0  0  0
   -5.8720   -1.0710  -17.9030 N   0  0  0  0  0  0  0  0  0  0  0  0
   -4.7590   -0.4480  -18.1970 C   0  0  0  0  0  0  0  0  0  0  0  0
   -4.4260   -0.0020  -19.5040 C   0  0  0  0  0  0  0  0  0  0  0  0
   -3.2340    0.7250  -19.7540 C   0  0  0  0  0  0  0  0  0  0  0  0
   -2.9900    1.2410  -20.9980 C   0  0  0  0  0  0  0  0  0  0  0  0
   -3.8840    0.9740  -22.0610 C   0  0  0  0  0  0  0  0  0  0  0  0
   -5.0070    0.2150  -21.8530 C   0  0  0  0  0  0  0  0  0  0  0  0
   -5.3400   -0.2460  -20.5530 C   0  0  0  0  0  0  0  0  0  0  0  0
   -5.6420   -0.0640  -22.6870 H   0  0  0  0  0  0  0  0  0  0  0  0
   -3.6710    1.3680  -23.0510 H   0  0  0  0  0  0  0  0  0  0  0  0
   -2.1210    1.8680  -21.1720 H   0  0  0  0  0  0  0  0  0  0  0  0
   -2.5890    0.9510  -18.9090 H   0  0  0  0  0  0  0  0  0  0  0  0
   -4.0630   -0.2480  -17.3820 H   0  0  0  0  0  0  0  0  0  0  0  0
   -7.6440   -1.8630  -18.6320 H   0  0  0  0  0  0  0  0  0  0  0  0
   -8.4190   -0.5580  -21.9140 C   0  0  0  0  0  0  0  0  0  0  0  0
   -9.0260   -1.4870  -23.0060 C   0  0  0  0  0  0  0  0  0  0  0  0
  -10.4770   -1.0890  -23.3060 C   0  0  0  0  0  0  0  0  0  0  0  0
  -11.0920   -1.0720  -22.4010 H   0  0  0  0  0  0  0  0  0  0  0  0
  -10.9250   -1.8010  -24.0030 H   0  0  0  0  0  0  0  0  0  0  0  0
  -10.5290   -0.0930  -23.7600 H   0  0  0  0  0  0  0  0  0  0  0  0
   -8.2270   -1.4070  -24.3150 C   0  0  0  0  0  0  0  0  0  0  0  0
   -8.6240   -2.1300  -25.0360 H   0  0  0  0  0  0  0  0  0  0  0  0
   -8.3020   -0.4090  -24.7600 H   0  0  0  0  0  0  0  0  0  0  0  0
   -7.1700   -1.6500  -24.1620 H   0  0  0  0  0  0  0  0  0  0  0  0
   -7.9610    0.3400  -22.3410 H   0  0  0  0  0  0  0  0  0  0  0  0
   -9.1980   -0.2310  -21.2070 H   0  0  0  0  0  0  0  0  0  0  0  0
   -8.6070   -4.1030  -23.2840 C   0  0  0  0  0  0  0  0  0  0  0  0
   -7.3250   -4.4550  -23.7370 C   0  0  0  0  0  0  0  0  0  0  0  0
   -7.1650   -5.4690  -24.6640 C   0  0  0  0  0  0  0  0  0  0  0  0
   -5.5630   -5.8540  -25.2420 Cl  0  0  0  0  0  0  0  0  0  0  0  0
   -8.2510   -6.1930  -25.1520 C   0  0  0  0  0  0  0  0  0  0  0  0
   -9.5100   -5.8700  -24.6870 C   0  0  0  0  0  0  0  0  0  0  0  0
   -9.6860   -4.8410  -23.7650 C   0  0  0  0  0  0  0  0  0  0  0  0
  -11.0710   -4.5560  -23.3060 C   0  0  0  0  0  0  0  0  0  0  0  0
  -12.0400   -5.0220  -23.8960 O   0  0  0  0  0  0  0  0  0  0  0  0
  -10.3890   -6.4090  -25.0240 H   0  0  0  0  0  0  0  0  0  0  0  0
   -8.1060   -6.9860  -25.8760 H   0  0  0  0  0  0  0  0  0  0  0  0
   -6.4430   -3.9600  -23.3540 H   0  0  0  0  0  0  0  0  0  0  0  0
  -10.3280   -2.3960  -20.8830 H   0  0  0  0  0  0  0  0  0  0  0  0
   -9.7610   -4.0570  -20.7240 H   0  0  0  0  0  0  0  0  0  0  0  0
  -12.4580   -4.0100  -20.4860 H   0  0  0  0  0  0  0  0  0  0  0  0
  -13.0400   -4.6800  -22.0190 H   0  0  0  0  0  0  0  0  0  0  0  0
  -13.5250   -3.1190  -23.8220 H   0  0  0  0  0  0  0  0  0  0  0  0
  -13.8790   -0.3510  -23.5350 H   0  0  0  0  0  0  0  0  0  0  0  0
  -14.9010   -1.4130  -24.5540 H   0  0  0  0  0  0  0  0  0  0  0  0
  -15.3480   -1.0560  -22.8570 H   0  0  0  0  0  0  0  0  0  0  0  0
  1  2  1  0  0  0  0
  1 57  1  0  0  0  0
  1 58  1  0  0  0  0
  1 59  1  0  0  0  0
  2  3  1  0  0  0  0
  2 56  1  0  0  0  0
  3  4  2  0  0  0  0
  3  5  1  0  0  0  0
  5  6  1  0  0  0  0
  5 54  1  0  0  0  0
  5 55  1  0  0  0  0
  6  7  1  0  0  0  0
  6 47  1  0  0  0  0
  7  8  1  0  0  0  0
  7 52  1  0  0  0  0
  7 53  1  0  0  0  0
  8  9  1  1  0  0  0
  8 29  1  0  0  0  0
  8 40  1  0  0  0  0
  9 10  2  0  0  0  0
  9 11  1  0  0  0  0
 11 12  1  0  0  0  0
 11 28  1  0  0  0  0
 12 13  2  0  0  0  0
 12 21  1  0  0  0  0
 13 14  1  0  0  0  0
 13 27  1  0  0  0  0
 14 15  2  0  0  0  0
 15 16  1  0  0  0  0
 15 26  1  0  0  0  0
 16 17  2  0  0  0  0
 16 21  1  0  0  0  0
 17 18  1  0  0  0  0
 17 25  1  0  0  0  0
 18 19  2  0  0  0  0
 18 24  1  0  0  0  0
 19 20  1  0  0  0  0
 19 23  1  0  0  0  0
 20 21  2  0  0  0  0
 20 22  1  0  0  0  0
 28 29  1  0  0  0  0
 28 38  1  0  0  0  0
 28 39  1  0  0  0  0
 29 30  1  0  0  0  0
 29 34  1  0  0  0  0
 30 31  1  0  0  0  0
 30 32  1  0  0  0  0
 30 33  1  0  0  0  0
 34 35  1  0  0  0  0
 34 36  1  0  0  0  0
 34 37  1  0  0  0  0
 40 41  2  0  0  0  0
 40 46  1  0  0  0  0
 41 42  1  0  0  0  0
 41 51  1  0  0  0  0
 42 43  1  0  0  0  0
 42 44  2  0  0  0  0
 44 45  1  0  0  0  0
 44 50  1  0  0  0  0
 45 46  2  0  0  0  0
 45 49  1  0  0  0  0
 46 47  1  0  0  0  0
 47 48  2  0  0  0  0
M  END
>  <MODEL>
       1

$$$$
