tmp_first_model_4_88.pdb
 OpenBabel08272518513D

 40 42  0  0  0  0  0  0  0  0999 V2000
   -8.8030   -3.2990  -21.4690 O   0  0  0  0  0  0  0  0  0  0  0  0
   -7.6650   -2.8640  -21.5770 C   0  0  0  0  0  0  0  0  0  0  0  0
   -7.4030   -1.3760  -21.3450 C   0  0  0  0  0  0  0  0  0  0  0  0
   -6.4280   -0.9890  -20.2560 C   0  0  0  0  0  0  0  0  0  0  0  0
   -6.6950   -1.2980  -18.9460 C   0  0  0  0  0  0  0  0  0  0  0  0
   -5.8680   -1.0240  -17.9100 N   0  0  0  0  0  0  0  0  0  0  0  0
   -4.7470   -0.3920  -18.1700 C   0  0  0  0  0  0  0  0  0  0  0  0
   -4.3710    0.0500  -19.4650 C   0  0  0  0  0  0  0  0  0  0  0  0
   -3.2030    0.8240  -19.6930 C   0  0  0  0  0  0  0  0  0  0  0  0
   -2.9480    1.3570  -20.9250 C   0  0  0  0  0  0  0  0  0  0  0  0
   -3.8160    1.0800  -22.0020 C   0  0  0  0  0  0  0  0  0  0  0  0
   -4.9110    0.2710  -21.8210 C   0  0  0  0  0  0  0  0  0  0  0  0
   -5.2470   -0.2370  -20.5420 C   0  0  0  0  0  0  0  0  0  0  0  0
   -5.4940   -0.0200  -22.6910 H   0  0  0  0  0  0  0  0  0  0  0  0
   -3.6150    1.4980  -22.9810 H   0  0  0  0  0  0  0  0  0  0  0  0
   -2.0910    2.0070  -21.0870 H   0  0  0  0  0  0  0  0  0  0  0  0
   -2.5590    1.0390  -18.8410 H   0  0  0  0  0  0  0  0  0  0  0  0
   -4.0690   -0.1820  -17.3380 H   0  0  0  0  0  0  0  0  0  0  0  0
   -7.6240   -1.8110  -18.6790 H   0  0  0  0  0  0  0  0  0  0  0  0
   -7.1280   -0.9460  -22.3100 H   0  0  0  0  0  0  0  0  0  0  0  0
   -8.3720   -0.9470  -21.0910 H   0  0  0  0  0  0  0  0  0  0  0  0
   -6.6290   -3.6750  -22.0040 N   0  0  0  0  0  0  0  0  0  0  0  0
   -7.0980   -4.8720  -22.7110 C   0  0  0  0  0  0  0  0  0  0  0  0
   -6.0420   -5.9480  -22.8390 C   0  0  0  0  0  0  0  0  0  0  0  0
   -4.7860   -5.3860  -23.4970 C   0  0  0  0  0  0  0  0  0  0  0  0
   -3.7200   -6.4540  -23.6330 C   0  0  0  0  0  0  0  0  0  0  0  0
   -3.4360   -6.9870  -22.4050 F   0  0  0  0  0  0  0  0  0  0  0  0
   -4.1630   -7.4750  -24.4230 F   0  0  0  0  0  0  0  0  0  0  0  0
   -2.7840   -6.0730  -24.0590 H   0  0  0  0  0  0  0  0  0  0  0  0
   -4.2990   -4.2190  -22.6410 C   0  0  0  0  0  0  0  0  0  0  0  0
   -5.3530   -3.1260  -22.4880 C   0  0  0  0  0  0  0  0  0  0  0  0
   -5.4830   -2.5980  -23.4490 H   0  0  0  0  0  0  0  0  0  0  0  0
   -4.9630   -2.4130  -21.7590 H   0  0  0  0  0  0  0  0  0  0  0  0
   -4.0680   -4.6020  -21.6470 H   0  0  0  0  0  0  0  0  0  0  0  0
   -3.3750   -3.7840  -23.0380 H   0  0  0  0  0  0  0  0  0  0  0  0
   -5.0270   -5.0320  -24.5130 H   0  0  0  0  0  0  0  0  0  0  0  0
   -6.4660   -6.7730  -23.4210 H   0  0  0  0  0  0  0  0  0  0  0  0
   -5.7910   -6.3490  -21.8500 H   0  0  0  0  0  0  0  0  0  0  0  0
   -7.4540   -4.5790  -23.7140 H   0  0  0  0  0  0  0  0  0  0  0  0
   -7.9590   -5.2530  -22.1620 H   0  0  0  0  0  0  0  0  0  0  0  0
  1  2  2  0  0  0  0
  2  3  1  0  0  0  0
  2 22  1  0  0  0  0
  3  4  1  0  0  0  0
  3 20  1  0  0  0  0
  3 21  1  0  0  0  0
  4  5  2  0  0  0  0
  4 13  1  0  0  0  0
  5  6  1  0  0  0  0
  5 19  1  0  0  0  0
  6  7  2  0  0  0  0
  7  8  1  0  0  0  0
  7 18  1  0  0  0  0
  8  9  2  0  0  0  0
  8 13  1  0  0  0  0
  9 10  1  0  0  0  0
  9 17  1  0  0  0  0
 10 11  2  0  0  0  0
 10 16  1  0  0  0  0
 11 12  1  0  0  0  0
 11 15  1  0  0  0  0
 12 13  2  0  0  0  0
 12 14  1  0  0  0  0
 22 23  1  0  0  0  0
 22 31  1  0  0  0  0
 23 24  1  0  0  0  0
 23 39  1  0  0  0  0
 23 40  1  0  0  0  0
 24 25  1  0  0  0  0
 24 37  1  0  0  0  0
 24 38  1  0  0  0  0
 25 26  1  0  0  0  0
 25 30  1  0  0  0  0
 25 36  1  0  0  0  0
 26 27  1  0  0  0  0
 26 28  1  0  0  0  0
 26 29  1  0  0  0  0
 30 31  1  0  0  0  0
 30 34  1  0  0  0  0
 30 35  1  0  0  0  0
 31 32  1  0  0  0  0
 31 33  1  0  0  0  0
M  END
>  <MODEL>
       1

$$$$
