tmp_first_model_19_14.pdb
 OpenBabel08282503233D

 73 78  0  0  1  0  0  0  0  0999 V2000
   -7.9430   -3.7510  -24.0050 C   0  0  0  0  0  0  0  0  0  0  0  0
   -8.2980   -2.8750  -22.7990 C   0  0  1  0  0  0  0  0  0  0  0  0
   -7.1000   -2.6540  -21.8500 C   0  0  0  0  0  0  0  0  0  0  0  0
   -7.4070   -1.3930  -21.2010 N   0  0  0  0  0  0  0  0  0  0  0  0
   -6.6040   -0.8120  -20.1800 C   0  0  0  0  0  0  0  0  0  0  0  0
   -6.9000   -1.0520  -18.8650 C   0  0  0  0  0  0  0  0  0  0  0  0
   -6.1940   -0.5620  -17.8160 N   0  0  0  0  0  0  0  0  0  0  0  0
   -5.1670    0.2090  -18.0820 C   0  0  0  0  0  0  0  0  0  0  0  0
   -4.7350    0.5350  -19.4000 C   0  0  0  0  0  0  0  0  0  0  0  0
   -3.6060    1.3660  -19.6450 C   0  0  0  0  0  0  0  0  0  0  0  0
   -3.2170    1.6580  -20.9230 C   0  0  0  0  0  0  0  0  0  0  0  0
   -3.9340    1.1280  -22.0180 C   0  0  0  0  0  0  0  0  0  0  0  0
   -5.0290    0.3230  -21.8060 C   0  0  0  0  0  0  0  0  0  0  0  0
   -5.4700    0.0070  -20.4900 C   0  0  0  0  0  0  0  0  0  0  0  0
   -5.5660   -0.0860  -22.6560 H   0  0  0  0  0  0  0  0  0  0  0  0
   -3.6350    1.3780  -23.0330 H   0  0  0  0  0  0  0  0  0  0  0  0
   -2.3660    2.3100  -21.1000 H   0  0  0  0  0  0  0  0  0  0  0  0
   -3.0760    1.7770  -18.7890 H   0  0  0  0  0  0  0  0  0  0  0  0
   -4.6200    0.6170  -17.2310 H   0  0  0  0  0  0  0  0  0  0  0  0
   -7.7530   -1.6740  -18.6040 H   0  0  0  0  0  0  0  0  0  0  0  0
   -8.3910   -0.6650  -21.8340 C   0  0  0  0  0  0  0  0  0  0  0  0
   -8.8030    0.4060  -21.4400 O   0  0  0  0  0  0  0  0  0  0  0  0
   -8.8410   -1.4420  -23.1010 C   0  0  1  0  0  0  0  0  0  0  0  0
   -8.1550   -0.8410  -24.3600 C   0  0  0  0  0  0  0  0  0  0  0  0
   -8.6000    0.5090  -24.6290 N   0  0  0  0  0  0  0  0  0  0  0  0
   -7.6390    1.5720  -24.8910 C   0  0  0  0  0  0  0  0  0  0  0  0
   -7.5130    2.5190  -23.6950 C   0  0  0  0  0  0  0  0  0  0  0  0
   -6.4220    3.5570  -23.8590 N   0  3  0  0  0  0  0  0  0  0  0  0
   -6.7550    4.6780  -24.8360 C   0  0  0  0  0  0  0  0  0  0  0  0
   -7.7590    5.6770  -24.2570 C   0  0  0  0  0  0  0  0  0  0  0  0
   -7.3560    6.1560  -22.9360 N   0  0  0  0  0  0  0  0  0  0  0  0
   -6.5500    7.5990  -22.8290 S   0  0  0  0  0  0  0  0  0  0  0  0
   -6.0340    7.6820  -21.4760 O   0  0  0  0  0  0  0  0  0  0  0  0
   -7.4110    8.6210  -23.3940 O   0  0  0  0  0  0  0  0  0  0  0  0
   -5.1460    7.5260  -23.9320 C   0  0  0  0  0  0  0  0  0  0  0  0
   -5.5140    7.5010  -24.9620 H   0  0  0  0  0  0  0  0  0  0  0  0
   -4.5150    6.6690  -23.6900 H   0  0  0  0  0  0  0  0  0  0  0  0
   -4.6080    8.4630  -23.7600 H   0  0  0  0  0  0  0  0  0  0  0  0
   -7.0460    5.0940  -21.9740 C   0  0  0  0  0  0  0  0  0  0  0  0
   -5.9880    4.1510  -22.5330 C   0  0  0  0  0  0  0  0  0  0  0  0
   -5.0610    4.7040  -22.7080 H   0  0  0  0  0  0  0  0  0  0  0  0
   -5.7770    3.3320  -21.8410 H   0  0  0  0  0  0  0  0  0  0  0  0
   -7.9790    4.5510  -21.7910 H   0  0  0  0  0  0  0  0  0  0  0  0
   -6.7260    5.5570  -21.0420 H   0  0  0  0  0  0  0  0  0  0  0  0
   -8.7360    5.2030  -24.1330 H   0  0  0  0  0  0  0  0  0  0  0  0
   -7.8930    6.5380  -24.9160 H   0  0  0  0  0  0  0  0  0  0  0  0
   -7.1490    4.2440  -25.7530 H   0  0  0  0  0  0  0  0  0  0  0  0
   -5.8190    5.1860  -25.0780 H   0  0  0  0  0  0  0  0  0  0  0  0
   -5.5900    3.0550  -24.2230 H   0  0  0  0  0  0  0  0  0  0  0  0
   -7.2840    1.9430  -22.7930 H   0  0  0  0  0  0  0  0  0  0  0  0
   -8.4700    3.0200  -23.5410 H   0  0  0  0  0  0  0  0  0  0  0  0
   -6.6650    1.1100  -25.0940 H   0  0  0  0  0  0  0  0  0  0  0  0
   -7.9560    2.1140  -25.7850 H   0  0  0  0  0  0  0  0  0  0  0  0
   -9.9350    0.7930  -24.6840 C   0  0  0  0  0  0  0  0  0  0  0  0
  -10.3690    1.8210  -25.1940 O   0  0  0  0  0  0  0  0  0  0  0  0
  -10.8510   -0.2260  -24.0480 C   0  0  0  0  0  0  0  0  0  0  0  0
  -12.2300   -0.0450  -24.1660 C   0  0  0  0  0  0  0  0  0  0  0  0
  -13.1170   -0.9080  -23.5570 C   0  0  0  0  0  0  0  0  0  0  0  0
  -12.6110   -1.9310  -22.7590 C   0  0  0  0  0  0  0  0  0  0  0  0
  -13.7250   -2.9640  -21.9110 Cl  0  0  0  0  0  0  0  0  0  0  0  0
  -11.2490   -2.1190  -22.6060 C   0  0  0  0  0  0  0  0  0  0  0  0
  -10.3420   -1.2950  -23.2890 C   0  0  0  0  0  0  0  0  0  0  0  0
  -10.9150   -2.8950  -21.9250 H   0  0  0  0  0  0  0  0  0  0  0  0
  -14.1870   -0.7770  -23.6680 H   0  0  0  0  0  0  0  0  0  0  0  0
  -12.5980    0.8150  -24.7070 H   0  0  0  0  0  0  0  0  0  0  0  0
   -8.3810   -1.4910  -25.2210 H   0  0  0  0  0  0  0  0  0  0  0  0
   -7.0690   -0.8200  -24.2130 H   0  0  0  0  0  0  0  0  0  0  0  0
   -6.1520   -2.6060  -22.4100 H   0  0  0  0  0  0  0  0  0  0  0  0
   -6.9960   -3.4530  -21.1080 H   0  0  0  0  0  0  0  0  0  0  0  0
   -9.0730   -3.3830  -22.2190 H   0  0  0  0  0  0  0  0  0  0  0  0
   -7.0900   -3.3400  -24.5590 H   0  0  0  0  0  0  0  0  0  0  0  0
   -7.6640   -4.7620  -23.6870 H   0  0  0  0  0  0  0  0  0  0  0  0
   -8.7810   -3.8410  -24.7060 H   0  0  0  0  0  0  0  0  0  0  0  0
  1  2  1  0  0  0  0
  1 71  1  0  0  0  0
  1 72  1  0  0  0  0
  1 73  1  0  0  0  0
  2  3  1  0  0  0  0
  2 23  1  0  0  0  0
  2 70  1  1  0  0  0
  3  4  1  0  0  0  0
  3 68  1  0  0  0  0
  3 69  1  0  0  0  0
  4  5  1  0  0  0  0
  4 21  1  0  0  0  0
  5  6  2  0  0  0  0
  5 14  1  0  0  0  0
  6  7  1  0  0  0  0
  6 20  1  0  0  0  0
  7  8  2  0  0  0  0
  8  9  1  0  0  0  0
  8 19  1  0  0  0  0
  9 10  2  0  0  0  0
  9 14  1  0  0  0  0
 10 11  1  0  0  0  0
 10 18  1  0  0  0  0
 11 12  2  0  0  0  0
 11 17  1  0  0  0  0
 12 13  1  0  0  0  0
 12 16  1  0  0  0  0
 13 14  2  0  0  0  0
 13 15  1  0  0  0  0
 21 22  2  0  0  0  0
 23 21  1  1  0  0  0
 23 24  1  0  0  0  0
 23 62  1  0  0  0  0
 24 25  1  0  0  0  0
 24 66  1  0  0  0  0
 24 67  1  0  0  0  0
 25 26  1  0  0  0  0
 25 54  1  0  0  0  0
 26 27  1  0  0  0  0
 26 52  1  0  0  0  0
 26 53  1  0  0  0  0
 27 28  1  0  0  0  0
 27 50  1  0  0  0  0
 27 51  1  0  0  0  0
 28 29  1  0  0  0  0
 28 40  1  0  0  0  0
 28 49  1  0  0  0  0
 29 30  1  0  0  0  0
 29 47  1  0  0  0  0
 29 48  1  0  0  0  0
 30 31  1  0  0  0  0
 30 45  1  0  0  0  0
 30 46  1  0  0  0  0
 31 32  1  0  0  0  0
 31 39  1  0  0  0  0
 32 33  2  0  0  0  0
 32 34  2  0  0  0  0
 32 35  1  0  0  0  0
 35 36  1  0  0  0  0
 35 37  1  0  0  0  0
 35 38  1  0  0  0  0
 39 40  1  0  0  0  0
 39 43  1  0  0  0  0
 39 44  1  0  0  0  0
 40 41  1  0  0  0  0
 40 42  1  0  0  0  0
 54 55  2  0  0  0  0
 54 56  1  0  0  0  0
 56 57  2  0  0  0  0
 56 62  1  0  0  0  0
 57 58  1  0  0  0  0
 57 65  1  0  0  0  0
 58 59  2  0  0  0  0
 58 64  1  0  0  0  0
 59 60  1  0  0  0  0
 59 61  1  0  0  0  0
 61 62  2  0  0  0  0
 61 63  1  0  0  0  0
M  CHG  1  28   1
M  END
>  <MODEL>
       1

$$$$
