tmp_first_model_9_48.pdb
 OpenBabel08272521403D

 46 48  0  0  0  0  0  0  0  0999 V2000
  -14.6670   -2.0460  -23.9180 C   0  0  0  0  0  0  0  0  0  0  0  0
  -13.2900   -2.7240  -23.8590 C   0  0  0  0  0  0  0  0  0  0  0  0
  -13.2560   -3.7650  -22.7310 C   0  0  0  0  0  0  0  0  0  0  0  0
  -13.4730   -3.3050  -21.7580 H   0  0  0  0  0  0  0  0  0  0  0  0
  -12.2820   -4.2700  -22.6580 H   0  0  0  0  0  0  0  0  0  0  0  0
  -14.0180   -4.5410  -22.9050 H   0  0  0  0  0  0  0  0  0  0  0  0
  -12.1290   -1.6950  -23.8420 C   0  0  0  0  0  0  0  0  0  0  0  0
  -10.7470   -2.3600  -24.0450 C   0  0  0  0  0  0  0  0  0  0  0  0
   -9.8520   -2.3250  -22.8010 C   0  0  0  0  0  0  0  0  0  0  0  0
   -9.6620   -0.9540  -22.3650 N   0  0  0  0  0  0  0  0  0  0  0  0
   -8.5350   -0.4430  -21.7800 C   0  0  0  0  0  0  0  0  0  0  0  0
   -8.3850    0.7640  -21.6500 O   0  0  0  0  0  0  0  0  0  0  0  0
   -7.4680   -1.4330  -21.2640 C   0  0  0  0  0  0  0  0  0  0  0  0
   -6.5920   -0.8260  -20.1890 C   0  0  0  0  0  0  0  0  0  0  0  0
   -6.8830   -1.0420  -18.8670 C   0  0  0  0  0  0  0  0  0  0  0  0
   -6.1930   -0.5360  -17.8130 N   0  0  0  0  0  0  0  0  0  0  0  0
   -5.1610    0.2220  -18.0780 C   0  0  0  0  0  0  0  0  0  0  0  0
   -4.7290    0.5330  -19.3920 C   0  0  0  0  0  0  0  0  0  0  0  0
   -3.6030    1.3610  -19.6250 C   0  0  0  0  0  0  0  0  0  0  0  0
   -3.2120    1.6560  -20.9020 C   0  0  0  0  0  0  0  0  0  0  0  0
   -3.9390    1.1340  -21.9940 C   0  0  0  0  0  0  0  0  0  0  0  0
   -5.0370    0.3320  -21.7930 C   0  0  0  0  0  0  0  0  0  0  0  0
   -5.4640    0.0030  -20.4800 C   0  0  0  0  0  0  0  0  0  0  0  0
   -5.5980   -0.0490  -22.6400 H   0  0  0  0  0  0  0  0  0  0  0  0
   -3.6270    1.3690  -23.0080 H   0  0  0  0  0  0  0  0  0  0  0  0
   -2.3570    2.3040  -21.0780 H   0  0  0  0  0  0  0  0  0  0  0  0
   -3.0820    1.7630  -18.7600 H   0  0  0  0  0  0  0  0  0  0  0  0
   -4.6140    0.6240  -17.2230 H   0  0  0  0  0  0  0  0  0  0  0  0
   -7.7280   -1.6650  -18.5770 H   0  0  0  0  0  0  0  0  0  0  0  0
   -7.9720   -2.3220  -20.8550 H   0  0  0  0  0  0  0  0  0  0  0  0
   -6.8560   -1.7890  -22.1080 H   0  0  0  0  0  0  0  0  0  0  0  0
  -10.7540   -0.0200  -22.6080 C   0  0  0  0  0  0  0  0  0  0  0  0
  -12.0830   -0.7650  -22.6190 C   0  0  0  0  0  0  0  0  0  0  0  0
  -12.2080   -1.3840  -21.7240 H   0  0  0  0  0  0  0  0  0  0  0  0
  -12.9160   -0.0570  -22.6460 H   0  0  0  0  0  0  0  0  0  0  0  0
  -10.5980    0.4820  -23.5730 H   0  0  0  0  0  0  0  0  0  0  0  0
  -10.6490    0.7580  -21.8550 H   0  0  0  0  0  0  0  0  0  0  0  0
   -8.8760   -2.7510  -23.0470 H   0  0  0  0  0  0  0  0  0  0  0  0
  -10.2870   -2.9500  -22.0030 H   0  0  0  0  0  0  0  0  0  0  0  0
  -10.2280   -1.8340  -24.8560 H   0  0  0  0  0  0  0  0  0  0  0  0
  -10.8770   -3.4000  -24.3680 H   0  0  0  0  0  0  0  0  0  0  0  0
  -12.3170   -1.0610  -24.7220 H   0  0  0  0  0  0  0  0  0  0  0  0
  -13.1660   -3.2770  -24.8020 H   0  0  0  0  0  0  0  0  0  0  0  0
  -15.4500   -2.7990  -24.0850 H   0  0  0  0  0  0  0  0  0  0  0  0
  -14.9010   -1.5300  -22.9760 H   0  0  0  0  0  0  0  0  0  0  0  0
  -14.7340   -1.3090  -24.7310 H   0  0  0  0  0  0  0  0  0  0  0  0
  1  2  1  0  0  0  0
  1 44  1  0  0  0  0
  1 45  1  0  0  0  0
  1 46  1  0  0  0  0
  2  3  1  0  0  0  0
  2  7  1  0  0  0  0
  2 43  1  0  0  0  0
  3  4  1  0  0  0  0
  3  5  1  0  0  0  0
  3  6  1  0  0  0  0
  7  8  1  0  0  0  0
  7 33  1  0  0  0  0
  7 42  1  0  0  0  0
  8  9  1  0  0  0  0
  8 40  1  0  0  0  0
  8 41  1  0  0  0  0
  9 10  1  0  0  0  0
  9 38  1  0  0  0  0
  9 39  1  0  0  0  0
 10 11  1  0  0  0  0
 10 32  1  0  0  0  0
 11 12  2  0  0  0  0
 11 13  1  0  0  0  0
 13 14  1  0  0  0  0
 13 30  1  0  0  0  0
 13 31  1  0  0  0  0
 14 15  2  0  0  0  0
 14 23  1  0  0  0  0
 15 16  1  0  0  0  0
 15 29  1  0  0  0  0
 16 17  2  0  0  0  0
 17 18  1  0  0  0  0
 17 28  1  0  0  0  0
 18 19  2  0  0  0  0
 18 23  1  0  0  0  0
 19 20  1  0  0  0  0
 19 27  1  0  0  0  0
 20 21  2  0  0  0  0
 20 26  1  0  0  0  0
 21 22  1  0  0  0  0
 21 25  1  0  0  0  0
 22 23  2  0  0  0  0
 22 24  1  0  0  0  0
 32 33  1  0  0  0  0
 32 36  1  0  0  0  0
 32 37  1  0  0  0  0
 33 34  1  0  0  0  0
 33 35  1  0  0  0  0
M  END
>  <MODEL>
       1

$$$$
