tmp_first_model_1_54.pdb
 OpenBabel08272517043D

 40 43  0  0  0  0  0  0  0  0999 V2000
  -10.3210   -2.6550  -22.7800 C   0  0  0  0  0  0  0  0  0  0  0  0
   -8.9660   -2.2900  -22.4220 N   0  0  0  0  0  0  0  0  0  0  0  0
   -7.7640   -2.7130  -22.9060 C   0  0  0  0  0  0  0  0  0  0  0  0
   -7.6540   -3.6400  -24.0620 C   0  0  0  0  0  0  0  0  0  0  0  0
   -7.8730   -5.0530  -23.5800 C   0  0  0  0  0  0  0  0  0  0  0  0
   -9.0480   -5.7400  -23.8670 C   0  0  0  0  0  0  0  0  0  0  0  0
   -9.1950   -7.0640  -23.4720 C   0  0  0  0  0  0  0  0  0  0  0  0
   -8.2160   -7.6630  -22.6850 C   0  0  0  0  0  0  0  0  0  0  0  0
   -7.0630   -6.9620  -22.3430 C   0  0  0  0  0  0  0  0  0  0  0  0
   -6.8900   -5.6600  -22.8000 C   0  0  0  0  0  0  0  0  0  0  0  0
   -5.9840   -5.1010  -22.5710 H   0  0  0  0  0  0  0  0  0  0  0  0
   -6.2880   -7.4420  -21.7480 H   0  0  0  0  0  0  0  0  0  0  0  0
   -8.3560   -8.6730  -22.3210 H   0  0  0  0  0  0  0  0  0  0  0  0
  -10.0650   -7.6290  -23.8020 H   0  0  0  0  0  0  0  0  0  0  0  0
   -9.8590   -5.2400  -24.3980 H   0  0  0  0  0  0  0  0  0  0  0  0
   -8.3920   -3.3920  -24.8340 H   0  0  0  0  0  0  0  0  0  0  0  0
   -6.6620   -3.5270  -24.5130 H   0  0  0  0  0  0  0  0  0  0  0  0
   -6.7630   -2.2690  -22.2040 N   0  0  0  0  0  0  0  0  0  0  0  0
   -7.3250   -1.4570  -21.2590 N   0  0  0  0  0  0  0  0  0  0  0  0
   -6.5720   -0.8630  -20.2090 C   0  0  0  0  0  0  0  0  0  0  0  0
   -6.9010   -1.0770  -18.8890 C   0  0  0  0  0  0  0  0  0  0  0  0
   -6.2120   -0.5680  -17.8420 N   0  0  0  0  0  0  0  0  0  0  0  0
   -5.1810    0.1970  -18.1040 C   0  0  0  0  0  0  0  0  0  0  0  0
   -4.7380    0.5160  -19.4140 C   0  0  0  0  0  0  0  0  0  0  0  0
   -3.6160    1.3580  -19.6330 C   0  0  0  0  0  0  0  0  0  0  0  0
   -3.2270    1.6660  -20.9070 C   0  0  0  0  0  0  0  0  0  0  0  0
   -3.9530    1.1580  -22.0060 C   0  0  0  0  0  0  0  0  0  0  0  0
   -5.0410    0.3430  -21.8220 C   0  0  0  0  0  0  0  0  0  0  0  0
   -5.4530   -0.0230  -20.5110 C   0  0  0  0  0  0  0  0  0  0  0  0
   -5.5980   -0.0500  -22.6670 H   0  0  0  0  0  0  0  0  0  0  0  0
   -3.6380    1.4110  -23.0150 H   0  0  0  0  0  0  0  0  0  0  0  0
   -2.3660    2.3090  -21.0830 H   0  0  0  0  0  0  0  0  0  0  0  0
   -3.0870    1.7520  -18.7690 H   0  0  0  0  0  0  0  0  0  0  0  0
   -4.6380    0.6060  -17.2490 H   0  0  0  0  0  0  0  0  0  0  0  0
   -7.7630   -1.6830  -18.6210 H   0  0  0  0  0  0  0  0  0  0  0  0
   -8.6890   -1.3360  -21.4470 C   0  0  0  0  0  0  0  0  0  0  0  0
   -9.4380   -0.5250  -20.9590 O   0  0  0  0  0  0  0  0  0  0  0  0
  -10.6140   -3.6260  -22.3570 H   0  0  0  0  0  0  0  0  0  0  0  0
  -10.9400   -1.8710  -22.3460 H   0  0  0  0  0  0  0  0  0  0  0  0
  -10.4540   -2.6680  -23.8670 H   0  0  0  0  0  0  0  0  0  0  0  0
  1  2  1  0  0  0  0
  1 38  1  0  0  0  0
  1 39  1  0  0  0  0
  1 40  1  0  0  0  0
  2  3  1  0  0  0  0
  2 36  1  0  0  0  0
  3  4  1  0  0  0  0
  3 18  2  0  0  0  0
  4  5  1  0  0  0  0
  4 16  1  0  0  0  0
  4 17  1  0  0  0  0
  5  6  2  0  0  0  0
  5 10  1  0  0  0  0
  6  7  1  0  0  0  0
  6 15  1  0  0  0  0
  7  8  2  0  0  0  0
  7 14  1  0  0  0  0
  8  9  1  0  0  0  0
  8 13  1  0  0  0  0
  9 10  2  0  0  0  0
  9 12  1  0  0  0  0
 10 11  1  0  0  0  0
 18 19  1  0  0  0  0
 19 20  1  0  0  0  0
 19 36  1  0  0  0  0
 20 21  2  0  0  0  0
 20 29  1  0  0  0  0
 21 22  1  0  0  0  0
 21 35  1  0  0  0  0
 22 23  2  0  0  0  0
 23 24  1  0  0  0  0
 23 34  1  0  0  0  0
 24 25  2  0  0  0  0
 24 29  1  0  0  0  0
 25 26  1  0  0  0  0
 25 33  1  0  0  0  0
 26 27  2  0  0  0  0
 26 32  1  0  0  0  0
 27 28  1  0  0  0  0
 27 31  1  0  0  0  0
 28 29  2  0  0  0  0
 28 30  1  0  0  0  0
 36 37  2  0  0  0  0
M  END
>  <MODEL>
       1

$$$$
