tmp_first_model_3_24.pdb
 OpenBabel08272518143D

 65 70  0  0  1  0  0  0  0  0999 V2000
   -9.7820    3.1590  -25.9870 O   0  0  0  0  0  0  0  0  0  0  0  0
  -10.0860    2.3740  -25.0970 C   0  0  0  0  0  0  0  0  0  0  0  0
  -10.8520    1.0880  -25.4400 C   0  0  0  0  0  0  0  0  0  0  0  0
  -10.5570   -0.0610  -24.5440 N   0  3  1  0  0  0  0  0  0  0  0  0
  -11.5840   -1.1620  -24.5260 C   0  0  0  0  0  0  0  0  0  0  0  0
  -11.1820   -2.2410  -23.5430 C   0  0  0  0  0  0  0  0  0  0  0  0
  -12.1170   -2.9150  -22.7570 C   0  0  0  0  0  0  0  0  0  0  0  0
  -11.7230   -3.8290  -21.7800 C   0  0  0  0  0  0  0  0  0  0  0  0
  -10.3610   -4.1050  -21.6640 C   0  0  0  0  0  0  0  0  0  0  0  0
   -9.5660   -4.9210  -20.3420 Cl  0  0  0  0  0  0  0  0  0  0  0  0
   -9.4550   -3.5900  -22.5610 C   0  0  0  0  0  0  0  0  0  0  0  0
   -9.8240   -2.5220  -23.3620 C   0  0  0  0  0  0  0  0  0  0  0  0
   -8.7540   -1.5170  -23.7270 C   0  0  2  0  0  0  0  0  0  0  0  0
   -7.3620   -2.1410  -23.9150 C   0  0  0  0  0  0  0  0  0  0  0  0
   -6.6760   -2.0320  -22.5410 C   0  0  0  0  0  0  0  0  0  0  0  0
   -7.3080   -0.8530  -21.9680 N   0  0  0  0  0  0  0  0  0  0  0  0
   -6.8280   -0.3510  -20.7390 C   0  0  0  0  0  0  0  0  0  0  0  0
   -7.4410   -0.6330  -19.5490 C   0  0  0  0  0  0  0  0  0  0  0  0
   -6.9190   -0.3160  -18.3360 N   0  0  0  0  0  0  0  0  0  0  0  0
   -5.7560    0.2890  -18.3190 C   0  0  0  0  0  0  0  0  0  0  0  0
   -5.0150    0.6420  -19.4850 C   0  0  0  0  0  0  0  0  0  0  0  0
   -3.7480    1.2830  -19.4390 C   0  0  0  0  0  0  0  0  0  0  0  0
   -3.0820    1.5890  -20.5930 C   0  0  0  0  0  0  0  0  0  0  0  0
   -3.6420    1.2800  -21.8530 C   0  0  0  0  0  0  0  0  0  0  0  0
   -4.8690    0.6680  -21.9200 C   0  0  0  0  0  0  0  0  0  0  0  0
   -5.5710    0.3220  -20.7380 C   0  0  0  0  0  0  0  0  0  0  0  0
   -5.3250    0.4520  -22.8780 H   0  0  0  0  0  0  0  0  0  0  0  0
   -3.1130    1.5300  -22.7670 H   0  0  0  0  0  0  0  0  0  0  0  0
   -2.1150    2.0840  -20.5570 H   0  0  0  0  0  0  0  0  0  0  0  0
   -3.3310    1.5440  -18.4690 H   0  0  0  0  0  0  0  0  0  0  0  0
   -5.3490    0.5430  -17.3400 H   0  0  0  0  0  0  0  0  0  0  0  0
   -8.3800   -1.1780  -19.5370 H   0  0  0  0  0  0  0  0  0  0  0  0
   -8.5430   -0.6090  -22.4950 C   0  0  0  0  0  0  0  0  0  0  0  0
   -9.3630    0.1940  -22.0710 O   0  0  0  0  0  0  0  0  0  0  0  0
   -5.5910   -1.9040  -22.5940 H   0  0  0  0  0  0  0  0  0  0  0  0
   -6.8580   -2.9000  -21.8880 H   0  0  0  0  0  0  0  0  0  0  0  0
   -6.7980   -1.5580  -24.6520 H   0  0  0  0  0  0  0  0  0  0  0  0
   -7.4210   -3.1730  -24.2680 H   0  0  0  0  0  0  0  0  0  0  0  0
   -9.2220   -0.6620  -24.8950 C   0  0  0  0  0  0  0  0  0  0  0  0
   -9.3480   -1.2760  -25.7930 H   0  0  0  0  0  0  0  0  0  0  0  0
   -8.5010    0.1310  -25.1130 H   0  0  0  0  0  0  0  0  0  0  0  0
   -8.4450   -3.9780  -22.5180 H   0  0  0  0  0  0  0  0  0  0  0  0
  -12.4780   -4.2780  -21.1450 H   0  0  0  0  0  0  0  0  0  0  0  0
  -13.1730   -2.6650  -22.8280 H   0  0  0  0  0  0  0  0  0  0  0  0
  -12.5600   -0.7390  -24.2720 H   0  0  0  0  0  0  0  0  0  0  0  0
  -11.6580   -1.5640  -25.5410 H   0  0  0  0  0  0  0  0  0  0  0  0
  -10.4990    0.2490  -23.5580 H   0  0  0  0  0  0  0  0  0  0  0  0
  -11.9200    1.3200  -25.4360 H   0  0  0  0  0  0  0  0  0  0  0  0
  -10.5710    0.8470  -26.4680 H   0  0  0  0  0  0  0  0  0  0  0  0
   -9.8150    2.5910  -23.7790 N   0  0  0  0  0  0  0  0  0  0  0  0
   -9.3950    3.8910  -23.2930 C   0  0  0  0  0  0  0  0  0  0  0  0
  -10.5610    4.8020  -22.8930 C   0  0  1  0  0  0  0  0  0  0  0  0
  -11.5160    5.1870  -24.0570 C   0  0  0  0  0  0  0  0  0  0  0  0
  -12.6010    4.2700  -23.4700 C   0  0  1  0  0  0  0  0  0  0  0  0
  -12.7340    3.0860  -24.1870 F   0  0  0  0  0  0  0  0  0  0  0  0
  -11.7590    4.0970  -22.1980 C   0  0  0  0  0  0  0  0  0  0  0  0
  -12.1750    4.6540  -21.3610 H   0  0  0  0  0  0  0  0  0  0  0  0
  -11.6050    3.0610  -21.8860 H   0  0  0  0  0  0  0  0  0  0  0  0
  -13.6030    4.6900  -23.3390 H   0  0  0  0  0  0  0  0  0  0  0  0
  -11.7970    6.2430  -24.0560 H   0  0  0  0  0  0  0  0  0  0  0  0
  -11.1830    4.9090  -25.0610 H   0  0  0  0  0  0  0  0  0  0  0  0
  -10.1440    5.6540  -22.3440 H   0  0  0  0  0  0  0  0  0  0  0  0
   -8.7260    3.7370  -22.4340 H   0  0  0  0  0  0  0  0  0  0  0  0
   -8.8190    4.3610  -24.0970 H   0  0  0  0  0  0  0  0  0  0  0  0
   -9.9190    1.8710  -23.0780 H   0  0  0  0  0  0  0  0  0  0  0  0
  1  2  2  0  0  0  0
  2  3  1  0  0  0  0
  2 50  1  0  0  0  0
  3  4  1  0  0  0  0
  3 48  1  0  0  0  0
  3 49  1  0  0  0  0
  4  5  1  0  0  0  0
  4 39  1  0  0  0  0
  4 47  1  1  0  0  0
  5  6  1  0  0  0  0
  5 45  1  0  0  0  0
  5 46  1  0  0  0  0
  6  7  2  0  0  0  0
  6 12  1  0  0  0  0
  7  8  1  0  0  0  0
  7 44  1  0  0  0  0
  8  9  2  0  0  0  0
  8 43  1  0  0  0  0
  9 10  1  0  0  0  0
  9 11  1  0  0  0  0
 11 12  2  0  0  0  0
 11 42  1  0  0  0  0
 13 12  1  1  0  0  0
 13 14  1  0  0  0  0
 13 33  1  0  0  0  0
 13 39  1  0  0  0  0
 14 15  1  0  0  0  0
 14 37  1  0  0  0  0
 14 38  1  0  0  0  0
 15 16  1  0  0  0  0
 15 35  1  0  0  0  0
 15 36  1  0  0  0  0
 16 17  1  0  0  0  0
 16 33  1  0  0  0  0
 17 18  2  0  0  0  0
 17 26  1  0  0  0  0
 18 19  1  0  0  0  0
 18 32  1  0  0  0  0
 19 20  2  0  0  0  0
 20 21  1  0  0  0  0
 20 31  1  0  0  0  0
 21 22  2  0  0  0  0
 21 26  1  0  0  0  0
 22 23  1  0  0  0  0
 22 30  1  0  0  0  0
 23 24  2  0  0  0  0
 23 29  1  0  0  0  0
 24 25  1  0  0  0  0
 24 28  1  0  0  0  0
 25 26  2  0  0  0  0
 25 27  1  0  0  0  0
 33 34  2  0  0  0  0
 39 40  1  0  0  0  0
 39 41  1  0  0  0  0
 50 51  1  0  0  0  0
 50 65  1  0  0  0  0
 51 52  1  0  0  0  0
 51 63  1  0  0  0  0
 51 64  1  0  0  0  0
 52 53  1  0  0  0  0
 52 56  1  0  0  0  0
 52 62  1  1  0  0  0
 53 54  1  0  0  0  0
 53 60  1  0  0  0  0
 53 61  1  0  0  0  0
 54 55  1  0  0  0  0
 54 56  1  0  0  0  0
 54 59  1  1  0  0  0
 56 57  1  0  0  0  0
 56 58  1  0  0  0  0
M  CHG  1   4   1
M  END
>  <MODEL>
       1

$$$$
