tmp_first_model_5_40.pdb
 OpenBabel08272519233D

 40 42  0  0  0  0  0  0  0  0999 V2000
   -9.3030   -6.6200  -25.1110 C   0  0  0  0  0  0  0  0  0  0  0  0
   -8.9930   -5.8000  -23.8650 C   0  0  0  0  0  0  0  0  0  0  0  0
   -7.5440   -5.9890  -23.4190 C   0  0  0  0  0  0  0  0  0  0  0  0
   -7.2560   -5.1820  -22.1710 C   0  0  0  0  0  0  0  0  0  0  0  0
   -7.6220   -3.7820  -22.3550 N   0  0  0  0  0  0  0  0  0  0  0  0
   -6.7810   -2.8610  -21.7930 C   0  0  0  0  0  0  0  0  0  0  0  0
   -5.5920   -3.1110  -21.6350 O   0  0  0  0  0  0  0  0  0  0  0  0
   -7.3920   -1.5430  -21.2970 C   0  0  0  0  0  0  0  0  0  0  0  0
   -6.5180   -0.9730  -20.2300 C   0  0  0  0  0  0  0  0  0  0  0  0
   -6.8290   -1.1300  -18.9060 C   0  0  0  0  0  0  0  0  0  0  0  0
   -6.0430   -0.7670  -17.8560 N   0  0  0  0  0  0  0  0  0  0  0  0
   -4.8840   -0.2280  -18.1650 C   0  0  0  0  0  0  0  0  0  0  0  0
   -4.4510    0.0230  -19.5020 C   0  0  0  0  0  0  0  0  0  0  0  0
   -3.2790    0.7880  -19.7670 C   0  0  0  0  0  0  0  0  0  0  0  0
   -3.1350    1.4180  -20.9730 C   0  0  0  0  0  0  0  0  0  0  0  0
   -4.0160    1.0950  -22.0400 C   0  0  0  0  0  0  0  0  0  0  0  0
   -5.0340    0.1920  -21.8680 C   0  0  0  0  0  0  0  0  0  0  0  0
   -5.3230   -0.2880  -20.5660 C   0  0  0  0  0  0  0  0  0  0  0  0
   -5.6510   -0.1290  -22.7040 H   0  0  0  0  0  0  0  0  0  0  0  0
   -3.8470    1.5220  -23.0190 H   0  0  0  0  0  0  0  0  0  0  0  0
   -2.3050    2.1020  -21.1410 H   0  0  0  0  0  0  0  0  0  0  0  0
   -2.5850    0.9490  -18.9430 H   0  0  0  0  0  0  0  0  0  0  0  0
   -4.2550    0.1510  -17.3500 H   0  0  0  0  0  0  0  0  0  0  0  0
   -7.7960   -1.5550  -18.6380 H   0  0  0  0  0  0  0  0  0  0  0  0
   -7.5190   -0.8520  -22.1410 H   0  0  0  0  0  0  0  0  0  0  0  0
   -8.3880   -1.7430  -20.8810 H   0  0  0  0  0  0  0  0  0  0  0  0
   -8.9860   -3.5150  -22.7960 C   0  0  0  0  0  0  0  0  0  0  0  0
   -9.2870   -4.3130  -24.0610 C   0  0  0  0  0  0  0  0  0  0  0  0
  -10.3310   -4.1560  -24.3580 H   0  0  0  0  0  0  0  0  0  0  0  0
   -8.6660   -3.9300  -24.8780 H   0  0  0  0  0  0  0  0  0  0  0  0
   -9.1060   -2.4460  -22.9920 H   0  0  0  0  0  0  0  0  0  0  0  0
   -9.7140   -3.7840  -22.0140 H   0  0  0  0  0  0  0  0  0  0  0  0
   -7.8090   -5.6070  -21.3200 H   0  0  0  0  0  0  0  0  0  0  0  0
   -6.1970   -5.2000  -21.9110 H   0  0  0  0  0  0  0  0  0  0  0  0
   -6.8720   -5.6700  -24.2240 H   0  0  0  0  0  0  0  0  0  0  0  0
   -7.3250   -7.0450  -23.2210 H   0  0  0  0  0  0  0  0  0  0  0  0
   -9.6330   -6.1550  -23.0520 H   0  0  0  0  0  0  0  0  0  0  0  0
   -9.1180   -7.6870  -24.9400 H   0  0  0  0  0  0  0  0  0  0  0  0
  -10.3480   -6.5040  -25.4170 H   0  0  0  0  0  0  0  0  0  0  0  0
   -8.6690   -6.3010  -25.9460 H   0  0  0  0  0  0  0  0  0  0  0  0
  1  2  1  0  0  0  0
  1 38  1  0  0  0  0
  1 39  1  0  0  0  0
  1 40  1  0  0  0  0
  2  3  1  0  0  0  0
  2 28  1  0  0  0  0
  2 37  1  0  0  0  0
  3  4  1  0  0  0  0
  3 35  1  0  0  0  0
  3 36  1  0  0  0  0
  4  5  1  0  0  0  0
  4 33  1  0  0  0  0
  4 34  1  0  0  0  0
  5  6  1  0  0  0  0
  5 27  1  0  0  0  0
  6  7  2  0  0  0  0
  6  8  1  0  0  0  0
  8  9  1  0  0  0  0
  8 25  1  0  0  0  0
  8 26  1  0  0  0  0
  9 10  2  0  0  0  0
  9 18  1  0  0  0  0
 10 11  1  0  0  0  0
 10 24  1  0  0  0  0
 11 12  2  0  0  0  0
 12 13  1  0  0  0  0
 12 23  1  0  0  0  0
 13 14  2  0  0  0  0
 13 18  1  0  0  0  0
 14 15  1  0  0  0  0
 14 22  1  0  0  0  0
 15 16  2  0  0  0  0
 15 21  1  0  0  0  0
 16 17  1  0  0  0  0
 16 20  1  0  0  0  0
 17 18  2  0  0  0  0
 17 19  1  0  0  0  0
 27 28  1  0  0  0  0
 27 31  1  0  0  0  0
 27 32  1  0  0  0  0
 28 29  1  0  0  0  0
 28 30  1  0  0  0  0
M  END
>  <MODEL>
       1

$$$$
