tmp_first_model_11_82.pdb
 OpenBabel08272522543D

 54 57  0  0  1  0  0  0  0  0999 V2000
  -10.6450    0.3970  -25.3000 C   0  0  0  0  0  0  0  0  0  0  0  0
   -9.7730   -0.5950  -24.8290 O   0  0  0  0  0  0  0  0  0  0  0  0
   -8.4670   -0.5210  -25.1880 C   0  0  0  0  0  0  0  0  0  0  0  0
   -7.9450    0.5040  -25.9790 C   0  0  0  0  0  0  0  0  0  0  0  0
   -6.5800    0.5350  -26.2430 C   0  0  0  0  0  0  0  0  0  0  0  0
   -5.7580   -0.4560  -25.7250 C   0  0  0  0  0  0  0  0  0  0  0  0
   -6.2990   -1.4790  -24.9450 C   0  0  0  0  0  0  0  0  0  0  0  0
   -7.6570   -1.5520  -24.6740 C   0  0  0  0  0  0  0  0  0  0  0  0
   -8.3040   -2.6620  -23.8360 C   0  0  1  0  0  0  0  0  0  0  0  0
   -9.1460   -3.6450  -24.6840 C   0  0  0  0  0  0  0  0  0  0  0  0
   -8.4060   -4.8560  -25.2690 C   0  0  1  0  0  0  0  0  0  0  0  0
   -7.5040   -4.5300  -26.4670 C   0  0  0  0  0  0  0  0  0  0  0  0
   -6.6790   -3.8630  -26.1900 H   0  0  0  0  0  0  0  0  0  0  0  0
   -7.0700   -5.4480  -26.8860 H   0  0  0  0  0  0  0  0  0  0  0  0
   -8.0770   -4.0360  -27.2610 H   0  0  0  0  0  0  0  0  0  0  0  0
   -7.6730   -5.5520  -24.1190 C   0  0  0  0  0  0  0  0  0  0  0  0
   -6.7140   -4.6070  -23.4030 C   0  0  0  0  0  0  0  0  0  0  0  0
   -7.3600   -3.3670  -22.9600 N   0  0  0  0  0  0  0  0  0  0  0  0
   -6.7490   -2.7490  -21.8880 C   0  0  0  0  0  0  0  0  0  0  0  0
   -5.7350   -3.2140  -21.3930 O   0  0  0  0  0  0  0  0  0  0  0  0
   -7.3980   -1.4820  -21.2910 C   0  0  0  0  0  0  0  0  0  0  0  0
   -6.5730   -0.8490  -20.1940 C   0  0  0  0  0  0  0  0  0  0  0  0
   -6.8770   -1.0590  -18.8760 C   0  0  0  0  0  0  0  0  0  0  0  0
   -6.2020   -0.5450  -17.8100 N   0  0  0  0  0  0  0  0  0  0  0  0
   -5.1650    0.2130  -18.0750 C   0  0  0  0  0  0  0  0  0  0  0  0
   -4.7220    0.5170  -19.3890 C   0  0  0  0  0  0  0  0  0  0  0  0
   -3.5960    1.3450  -19.6260 C   0  0  0  0  0  0  0  0  0  0  0  0
   -3.1980    1.6220  -20.9040 C   0  0  0  0  0  0  0  0  0  0  0  0
   -3.9070    1.0850  -21.9990 C   0  0  0  0  0  0  0  0  0  0  0  0
   -5.0020    0.2800  -21.7980 C   0  0  0  0  0  0  0  0  0  0  0  0
   -5.4410   -0.0260  -20.4820 C   0  0  0  0  0  0  0  0  0  0  0  0
   -5.5440   -0.1230  -22.6500 H   0  0  0  0  0  0  0  0  0  0  0  0
   -3.5890    1.3210  -23.0120 H   0  0  0  0  0  0  0  0  0  0  0  0
   -2.3430    2.2690  -21.0810 H   0  0  0  0  0  0  0  0  0  0  0  0
   -3.0750    1.7650  -18.7680 H   0  0  0  0  0  0  0  0  0  0  0  0
   -4.6190    0.6250  -17.2220 H   0  0  0  0  0  0  0  0  0  0  0  0
   -7.7300   -1.6790  -18.5950 H   0  0  0  0  0  0  0  0  0  0  0  0
   -7.6140   -0.7620  -22.0920 H   0  0  0  0  0  0  0  0  0  0  0  0
   -8.3730   -1.7810  -20.8810 H   0  0  0  0  0  0  0  0  0  0  0  0
   -6.3180   -5.0730  -22.5000 H   0  0  0  0  0  0  0  0  0  0  0  0
   -5.8440   -4.3920  -24.0460 H   0  0  0  0  0  0  0  0  0  0  0  0
   -8.4140   -5.9220  -23.3960 H   0  0  0  0  0  0  0  0  0  0  0  0
   -7.1060   -6.4180  -24.4940 H   0  0  0  0  0  0  0  0  0  0  0  0
   -9.1800   -5.5490  -25.6310 H   0  0  0  0  0  0  0  0  0  0  0  0
   -9.6210   -3.0680  -25.4860 H   0  0  0  0  0  0  0  0  0  0  0  0
   -9.9450   -4.0280  -24.0330 H   0  0  0  0  0  0  0  0  0  0  0  0
   -9.0270   -2.1630  -23.1820 H   0  0  0  0  0  0  0  0  0  0  0  0
   -5.6540   -2.2590  -24.5490 H   0  0  0  0  0  0  0  0  0  0  0  0
   -4.6930   -0.4560  -25.9240 H   0  0  0  0  0  0  0  0  0  0  0  0
   -6.1620    1.3420  -26.8440 H   0  0  0  0  0  0  0  0  0  0  0  0
   -8.5900    1.2830  -26.3730 H   0  0  0  0  0  0  0  0  0  0  0  0
  -11.6270    0.0650  -24.9570 H   0  0  0  0  0  0  0  0  0  0  0  0
  -10.5920    0.4680  -26.3930 H   0  0  0  0  0  0  0  0  0  0  0  0
  -10.4070    1.3820  -24.8750 H   0  0  0  0  0  0  0  0  0  0  0  0
  1  2  1  0  0  0  0
  1 52  1  0  0  0  0
  1 53  1  0  0  0  0
  1 54  1  0  0  0  0
  2  3  1  0  0  0  0
  3  4  2  0  0  0  0
  3  8  1  0  0  0  0
  4  5  1  0  0  0  0
  4 51  1  0  0  0  0
  5  6  2  0  0  0  0
  5 50  1  0  0  0  0
  6  7  1  0  0  0  0
  6 49  1  0  0  0  0
  7  8  2  0  0  0  0
  7 48  1  0  0  0  0
  8  9  1  0  0  0  0
  9 10  1  0  0  0  0
  9 18  1  0  0  0  0
  9 47  1  1  0  0  0
 10 11  1  0  0  0  0
 10 45  1  0  0  0  0
 10 46  1  0  0  0  0
 11 12  1  0  0  0  0
 11 16  1  0  0  0  0
 11 44  1  6  0  0  0
 12 13  1  0  0  0  0
 12 14  1  0  0  0  0
 12 15  1  0  0  0  0
 16 17  1  0  0  0  0
 16 42  1  0  0  0  0
 16 43  1  0  0  0  0
 17 18  1  0  0  0  0
 17 40  1  0  0  0  0
 17 41  1  0  0  0  0
 18 19  1  0  0  0  0
 19 20  2  0  0  0  0
 19 21  1  0  0  0  0
 21 22  1  0  0  0  0
 21 38  1  0  0  0  0
 21 39  1  0  0  0  0
 22 23  2  0  0  0  0
 22 31  1  0  0  0  0
 23 24  1  0  0  0  0
 23 37  1  0  0  0  0
 24 25  2  0  0  0  0
 25 26  1  0  0  0  0
 25 36  1  0  0  0  0
 26 27  2  0  0  0  0
 26 31  1  0  0  0  0
 27 28  1  0  0  0  0
 27 35  1  0  0  0  0
 28 29  2  0  0  0  0
 28 34  1  0  0  0  0
 29 30  1  0  0  0  0
 29 33  1  0  0  0  0
 30 31  2  0  0  0  0
 30 32  1  0  0  0  0
M  END
>  <MODEL>
       1

$$$$
