tmp_first_model_13_18.pdb
 OpenBabel08282500103D

 56 61  0  0  1  0  0  0  0  0999 V2000
  -10.4440   -1.1290  -23.2860 C   0  0  0  0  0  0  0  0  0  0  0  0
   -9.0000   -1.4690  -22.9470 C   0  0  1  0  0  0  0  0  0  0  0  0
   -8.3890   -0.5190  -21.9060 C   0  0  0  0  0  0  0  0  0  0  0  0
   -7.3910   -1.3450  -21.2440 N   0  0  0  0  0  0  0  0  0  0  0  0
   -6.5730   -0.8520  -20.1990 C   0  0  0  0  0  0  0  0  0  0  0  0
   -6.8810   -1.0980  -18.8860 C   0  0  0  0  0  0  0  0  0  0  0  0
   -6.2080   -0.5650  -17.8370 N   0  0  0  0  0  0  0  0  0  0  0  0
   -5.1920    0.2160  -18.0950 C   0  0  0  0  0  0  0  0  0  0  0  0
   -4.7450    0.5290  -19.4090 C   0  0  0  0  0  0  0  0  0  0  0  0
   -3.6160    1.3530  -19.6460 C   0  0  0  0  0  0  0  0  0  0  0  0
   -3.2140    1.6170  -20.9240 C   0  0  0  0  0  0  0  0  0  0  0  0
   -3.9170    1.0690  -22.0210 C   0  0  0  0  0  0  0  0  0  0  0  0
   -5.0110    0.2680  -21.8190 C   0  0  0  0  0  0  0  0  0  0  0  0
   -5.4560   -0.0150  -20.5030 C   0  0  0  0  0  0  0  0  0  0  0  0
   -5.5330   -0.1730  -22.6630 H   0  0  0  0  0  0  0  0  0  0  0  0
   -3.5850    1.2810  -23.0320 H   0  0  0  0  0  0  0  0  0  0  0  0
   -2.3580    2.2590  -21.1070 H   0  0  0  0  0  0  0  0  0  0  0  0
   -3.0880    1.7670  -18.7900 H   0  0  0  0  0  0  0  0  0  0  0  0
   -4.6550    0.6330  -17.2420 H   0  0  0  0  0  0  0  0  0  0  0  0
   -7.7230   -1.7370  -18.6320 H   0  0  0  0  0  0  0  0  0  0  0  0
   -7.5560   -2.6970  -21.4560 C   0  0  0  0  0  0  0  0  0  0  0  0
   -6.8260   -3.5610  -21.0130 O   0  0  0  0  0  0  0  0  0  0  0  0
   -8.7740   -2.9080  -22.3610 C   0  0  1  0  0  0  0  0  0  0  0  0
   -9.9630   -3.3700  -21.4840 C   0  0  0  0  0  0  0  0  0  0  0  0
  -11.0870   -3.8750  -22.2610 N   0  0  0  0  0  0  0  0  0  0  0  0
  -12.4520   -3.8380  -21.7380 C   0  0  0  0  0  0  0  0  0  0  0  0
  -13.2940   -2.7110  -22.2680 C   0  0  0  0  0  0  0  0  0  0  0  0
  -13.9330   -2.7270  -23.5310 C   0  0  0  0  0  0  0  0  0  0  0  0
  -14.6540   -1.5610  -23.5620 C   0  0  0  0  0  0  0  0  0  0  0  0
  -14.4060   -0.9270  -22.3950 N   0  0  0  0  0  0  0  0  0  0  0  0
  -13.5770   -1.6100  -21.5860 N   0  0  0  0  0  0  0  0  0  0  0  0
  -14.8560   -0.0910  -22.0520 H   0  0  0  0  0  0  0  0  0  0  0  0
  -15.3040   -1.1600  -24.3230 H   0  0  0  0  0  0  0  0  0  0  0  0
  -13.8450   -3.5020  -24.2830 H   0  0  0  0  0  0  0  0  0  0  0  0
  -12.9150   -4.7360  -22.1500 H   0  0  0  0  0  0  0  0  0  0  0  0
  -12.4560   -3.8990  -20.6440 H   0  0  0  0  0  0  0  0  0  0  0  0
  -10.9200   -4.5980  -23.4100 C   0  0  0  0  0  0  0  0  0  0  0  0
  -11.8660   -5.0640  -24.0370 O   0  0  0  0  0  0  0  0  0  0  0  0
   -9.5220   -4.7820  -23.8790 C   0  0  0  0  0  0  0  0  0  0  0  0
   -9.2750   -5.7570  -24.8450 C   0  0  0  0  0  0  0  0  0  0  0  0
   -8.0220   -5.9040  -25.4050 C   0  0  0  0  0  0  0  0  0  0  0  0
   -7.0260   -5.0430  -24.9590 C   0  0  0  0  0  0  0  0  0  0  0  0
   -5.8090   -5.1480  -25.5120 F   0  0  0  0  0  0  0  0  0  0  0  0
   -7.2300   -4.0970  -23.9750 C   0  0  0  0  0  0  0  0  0  0  0  0
   -8.4990   -3.9590  -23.4080 C   0  0  0  0  0  0  0  0  0  0  0  0
   -6.3900   -3.4980  -23.6390 H   0  0  0  0  0  0  0  0  0  0  0  0
   -7.8080   -6.6580  -26.1580 H   0  0  0  0  0  0  0  0  0  0  0  0
  -10.0910   -6.3960  -25.1580 H   0  0  0  0  0  0  0  0  0  0  0  0
   -9.6370   -4.1520  -20.7910 H   0  0  0  0  0  0  0  0  0  0  0  0
  -10.2970   -2.4930  -20.9200 H   0  0  0  0  0  0  0  0  0  0  0  0
   -9.1520   -0.1520  -21.1960 H   0  0  0  0  0  0  0  0  0  0  0  0
   -7.9260    0.3600  -22.3660 H   0  0  0  0  0  0  0  0  0  0  0  0
   -8.3900   -1.4330  -23.8600 H   0  0  0  0  0  0  0  0  0  0  0  0
  -10.8750   -1.9110  -23.9170 H   0  0  0  0  0  0  0  0  0  0  0  0
  -11.0430   -1.0830  -22.3700 H   0  0  0  0  0  0  0  0  0  0  0  0
  -10.5250   -0.1680  -23.8020 H   0  0  0  0  0  0  0  0  0  0  0  0
  1  2  1  0  0  0  0
  1 54  1  0  0  0  0
  1 55  1  0  0  0  0
  1 56  1  0  0  0  0
  2  3  1  0  0  0  0
  2 23  1  0  0  0  0
  2 53  1  6  0  0  0
  3  4  1  0  0  0  0
  3 51  1  0  0  0  0
  3 52  1  0  0  0  0
  4  5  1  0  0  0  0
  4 21  1  0  0  0  0
  5  6  2  0  0  0  0
  5 14  1  0  0  0  0
  6  7  1  0  0  0  0
  6 20  1  0  0  0  0
  7  8  2  0  0  0  0
  8  9  1  0  0  0  0
  8 19  1  0  0  0  0
  9 10  2  0  0  0  0
  9 14  1  0  0  0  0
 10 11  1  0  0  0  0
 10 18  1  0  0  0  0
 11 12  2  0  0  0  0
 11 17  1  0  0  0  0
 12 13  1  0  0  0  0
 12 16  1  0  0  0  0
 13 14  2  0  0  0  0
 13 15  1  0  0  0  0
 21 22  2  0  0  0  0
 23 21  1  1  0  0  0
 23 24  1  0  0  0  0
 23 45  1  0  0  0  0
 24 25  1  0  0  0  0
 24 49  1  0  0  0  0
 24 50  1  0  0  0  0
 25 26  1  0  0  0  0
 25 37  1  0  0  0  0
 26 27  1  0  0  0  0
 26 35  1  0  0  0  0
 26 36  1  0  0  0  0
 27 28  1  0  0  0  0
 27 31  2  0  0  0  0
 28 29  2  0  0  0  0
 28 34  1  0  0  0  0
 29 30  1  0  0  0  0
 29 33  1  0  0  0  0
 30 31  1  0  0  0  0
 30 32  1  0  0  0  0
 37 38  2  0  0  0  0
 37 39  1  0  0  0  0
 39 40  2  0  0  0  0
 39 45  1  0  0  0  0
 40 41  1  0  0  0  0
 40 48  1  0  0  0  0
 41 42  2  0  0  0  0
 41 47  1  0  0  0  0
 42 43  1  0  0  0  0
 42 44  1  0  0  0  0
 44 45  2  0  0  0  0
 44 46  1  0  0  0  0
M  END
>  <MODEL>
       1

$$$$
