tmp_first_model_15_5.pdb
 OpenBabel08282501153D

 58 61  0  0  1  0  0  0  0  0999 V2000
   -8.0270   -4.6500  -21.9520 C   0  0  0  0  0  0  0  0  0  0  0  0
   -7.0130   -3.8540  -21.6100 C   0  0  0  0  0  0  0  0  0  0  0  0
   -6.7280   -2.4500  -22.0410 C   0  0  0  0  0  0  0  0  0  0  0  0
   -7.3780   -1.4030  -21.2430 N   0  0  0  0  0  0  0  0  0  0  0  0
   -8.6140   -0.8070  -21.4830 C   0  0  0  0  0  0  0  0  0  0  0  0
   -9.0750   -0.0020  -20.6990 O   0  0  0  0  0  0  0  0  0  0  0  0
   -9.3330   -1.1130  -22.7980 C   0  0  2  0  0  0  0  0  0  0  0  0
   -8.7270   -0.2430  -23.9130 C   0  0  0  0  0  0  0  0  0  0  0  0
   -9.0590    1.1520  -23.6590 N   0  0  0  0  0  0  0  0  0  0  0  0
   -8.0160    2.1580  -23.7150 C   0  0  0  0  0  0  0  0  0  0  0  0
   -7.5050    2.3250  -25.1440 C   0  0  0  0  0  0  0  0  0  0  0  0
   -6.4550    1.8320  -25.5280 O   0  0  0  0  0  0  0  0  0  0  0  0
   -8.3360    3.0180  -25.9590 N   0  0  0  0  0  0  0  0  0  0  0  0
   -7.9710    3.2130  -27.3470 C   0  0  0  0  0  0  0  0  0  0  0  0
   -7.0210    3.7520  -27.4150 H   0  0  0  0  0  0  0  0  0  0  0  0
   -7.8450    2.2530  -27.8590 H   0  0  0  0  0  0  0  0  0  0  0  0
   -8.7510    3.7910  -27.8460 H   0  0  0  0  0  0  0  0  0  0  0  0
   -9.2440    3.2980  -25.6150 H   0  0  0  0  0  0  0  0  0  0  0  0
   -7.1800    1.8630  -23.0700 H   0  0  0  0  0  0  0  0  0  0  0  0
   -8.4520    3.0890  -23.3420 H   0  0  0  0  0  0  0  0  0  0  0  0
  -10.3580    1.5510  -23.5120 C   0  0  0  0  0  0  0  0  0  0  0  0
  -10.7250    2.6920  -23.7740 O   0  0  0  0  0  0  0  0  0  0  0  0
  -11.2840    0.4920  -22.9960 C   0  0  0  0  0  0  0  0  0  0  0  0
  -12.6330    0.8050  -22.8190 C   0  0  0  0  0  0  0  0  0  0  0  0
  -13.5220   -0.1610  -22.3800 C   0  0  0  0  0  0  0  0  0  0  0  0
  -13.0460   -1.4420  -22.1020 C   0  0  0  0  0  0  0  0  0  0  0  0
  -14.1660   -2.6620  -21.5700 Cl  0  0  0  0  0  0  0  0  0  0  0  0
  -11.7000   -1.7500  -22.2340 C   0  0  0  0  0  0  0  0  0  0  0  0
  -10.8040   -0.7830  -22.6910 C   0  0  0  0  0  0  0  0  0  0  0  0
  -11.3470   -2.7440  -21.9720 H   0  0  0  0  0  0  0  0  0  0  0  0
  -14.5750    0.0690  -22.2460 H   0  0  0  0  0  0  0  0  0  0  0  0
  -12.9610    1.8170  -23.0320 H   0  0  0  0  0  0  0  0  0  0  0  0
   -9.1200   -0.5630  -24.8890 H   0  0  0  0  0  0  0  0  0  0  0  0
   -7.6370   -0.3150  -23.9580 H   0  0  0  0  0  0  0  0  0  0  0  0
   -9.2210   -2.1730  -23.0280 H   0  0  0  0  0  0  0  0  0  0  0  0
   -6.6220   -0.8210  -20.1890 C   0  0  0  0  0  0  0  0  0  0  0  0
   -6.9600   -1.0480  -18.8830 C   0  0  0  0  0  0  0  0  0  0  0  0
   -6.2700   -0.5650  -17.8210 N   0  0  0  0  0  0  0  0  0  0  0  0
   -5.2150    0.1780  -18.0710 C   0  0  0  0  0  0  0  0  0  0  0  0
   -4.7570    0.5010  -19.3820 C   0  0  0  0  0  0  0  0  0  0  0  0
   -3.6220    1.3300  -19.6130 C   0  0  0  0  0  0  0  0  0  0  0  0
   -3.2250    1.6300  -20.8880 C   0  0  0  0  0  0  0  0  0  0  0  0
   -3.9460    1.1290  -21.9950 C   0  0  0  0  0  0  0  0  0  0  0  0
   -5.0540    0.3430  -21.7940 C   0  0  0  0  0  0  0  0  0  0  0  0
   -5.4790   -0.0100  -20.4820 C   0  0  0  0  0  0  0  0  0  0  0  0
   -5.6150   -0.0090  -22.6540 H   0  0  0  0  0  0  0  0  0  0  0  0
   -3.6310    1.3690  -23.0070 H   0  0  0  0  0  0  0  0  0  0  0  0
   -2.3650    2.2710  -21.0600 H   0  0  0  0  0  0  0  0  0  0  0  0
   -3.0930    1.7360  -18.7540 H   0  0  0  0  0  0  0  0  0  0  0  0
   -4.6680    0.5600  -17.2080 H   0  0  0  0  0  0  0  0  0  0  0  0
   -7.8460   -1.6380  -18.6520 H   0  0  0  0  0  0  0  0  0  0  0  0
   -6.9130   -2.2830  -23.1080 H   0  0  0  0  0  0  0  0  0  0  0  0
   -5.6600   -2.4270  -21.7700 H   0  0  0  0  0  0  0  0  0  0  0  0
   -5.7790   -4.3050  -20.7820 C   0  0  0  0  0  0  0  0  0  0  0  0
   -4.9190   -3.4020  -20.6550 O   0  0  0  0  0  0  0  0  0  0  0  0
   -5.6680   -5.4490  -20.3230 O   0  5  0  0  0  0  0  0  0  0  0  0
   -8.7890   -4.2770  -22.6400 H   0  0  0  0  0  0  0  0  0  0  0  0
   -8.1640   -5.6680  -21.5850 H   0  0  0  0  0  0  0  0  0  0  0  0
  1  2  2  0  0  0  0
  1 57  1  0  0  0  0
  1 58  1  0  0  0  0
  2  3  1  0  0  0  0
  2 54  1  0  0  0  0
  3  4  1  0  0  0  0
  3 52  1  0  0  0  0
  3 53  1  0  0  0  0
  4  5  1  0  0  0  0
  4 36  1  0  0  0  0
  5  6  2  0  0  0  0
  5  7  1  0  0  0  0
  7  8  1  0  0  0  0
  7 29  1  0  0  0  0
  7 35  1  6  0  0  0
  8  9  1  0  0  0  0
  8 33  1  0  0  0  0
  8 34  1  0  0  0  0
  9 10  1  0  0  0  0
  9 21  1  0  0  0  0
 10 11  1  0  0  0  0
 10 19  1  0  0  0  0
 10 20  1  0  0  0  0
 11 12  2  0  0  0  0
 11 13  1  0  0  0  0
 13 14  1  0  0  0  0
 13 18  1  0  0  0  0
 14 15  1  0  0  0  0
 14 16  1  0  0  0  0
 14 17  1  0  0  0  0
 21 22  2  0  0  0  0
 21 23  1  0  0  0  0
 23 24  2  0  0  0  0
 23 29  1  0  0  0  0
 24 25  1  0  0  0  0
 24 32  1  0  0  0  0
 25 26  2  0  0  0  0
 25 31  1  0  0  0  0
 26 27  1  0  0  0  0
 26 28  1  0  0  0  0
 28 29  2  0  0  0  0
 28 30  1  0  0  0  0
 36 37  2  0  0  0  0
 36 45  1  0  0  0  0
 37 38  1  0  0  0  0
 37 51  1  0  0  0  0
 38 39  2  0  0  0  0
 39 40  1  0  0  0  0
 39 50  1  0  0  0  0
 40 41  2  0  0  0  0
 40 45  1  0  0  0  0
 41 42  1  0  0  0  0
 41 49  1  0  0  0  0
 42 43  2  0  0  0  0
 42 48  1  0  0  0  0
 43 44  1  0  0  0  0
 43 47  1  0  0  0  0
 44 45  2  0  0  0  0
 44 46  1  0  0  0  0
 54 55  2  0  0  0  0
 54 56  1  0  0  0  0
M  CHG  1  56  -1
M  END
>  <MODEL>
       1

$$$$
