tmp_first_model_2_86.pdb
 OpenBabel08272517383D

 43 45  0  0  1  0  0  0  0  0999 V2000
  -13.0150   -1.8130  -24.0440 C   0  0  0  0  0  0  0  0  0  0  0  0
  -11.6650   -1.2330  -24.4780 C   0  0  1  0  0  0  0  0  0  0  0  0
  -11.3520    0.1060  -23.8090 C   0  0  0  0  0  0  0  0  0  0  0  0
  -10.8580   -0.0680  -22.3820 C   0  0  0  0  0  0  0  0  0  0  0  0
   -9.6980   -0.9490  -22.3030 N   0  0  0  0  0  0  0  0  0  0  0  0
   -8.5190   -0.4480  -21.7840 C   0  0  0  0  0  0  0  0  0  0  0  0
   -8.3210    0.7500  -21.7020 O   0  0  0  0  0  0  0  0  0  0  0  0
   -7.4550   -1.4400  -21.2560 C   0  0  0  0  0  0  0  0  0  0  0  0
   -6.5780   -0.8330  -20.1810 C   0  0  0  0  0  0  0  0  0  0  0  0
   -6.8750   -1.0410  -18.8600 C   0  0  0  0  0  0  0  0  0  0  0  0
   -6.1950   -0.5330  -17.7980 N   0  0  0  0  0  0  0  0  0  0  0  0
   -5.1580    0.2230  -18.0650 C   0  0  0  0  0  0  0  0  0  0  0  0
   -4.7240    0.5350  -19.3800 C   0  0  0  0  0  0  0  0  0  0  0  0
   -3.5990    1.3660  -19.6190 C   0  0  0  0  0  0  0  0  0  0  0  0
   -3.2100    1.6620  -20.8980 C   0  0  0  0  0  0  0  0  0  0  0  0
   -3.9340    1.1360  -21.9910 C   0  0  0  0  0  0  0  0  0  0  0  0
   -5.0260    0.3280  -21.7860 C   0  0  0  0  0  0  0  0  0  0  0  0
   -5.4540    0.0010  -20.4730 C   0  0  0  0  0  0  0  0  0  0  0  0
   -5.5880   -0.0460  -22.6350 H   0  0  0  0  0  0  0  0  0  0  0  0
   -3.6250    1.3820  -23.0040 H   0  0  0  0  0  0  0  0  0  0  0  0
   -2.3530    2.3060  -21.0820 H   0  0  0  0  0  0  0  0  0  0  0  0
   -3.0600    1.7740  -18.7660 H   0  0  0  0  0  0  0  0  0  0  0  0
   -4.6040    0.6270  -17.2150 H   0  0  0  0  0  0  0  0  0  0  0  0
   -7.7260   -1.6600  -18.5830 H   0  0  0  0  0  0  0  0  0  0  0  0
   -7.9530   -2.3330  -20.8500 H   0  0  0  0  0  0  0  0  0  0  0  0
   -6.8400   -1.7850  -22.0970 H   0  0  0  0  0  0  0  0  0  0  0  0
   -9.8760   -2.2800  -22.8780 C   0  0  1  0  0  0  0  0  0  0  0  0
  -10.6350   -3.2220  -21.9440 C   0  0  0  0  0  0  0  0  0  0  0  0
  -10.7960   -4.1970  -22.4150 H   0  0  0  0  0  0  0  0  0  0  0  0
  -10.0520   -3.3930  -21.0320 H   0  0  0  0  0  0  0  0  0  0  0  0
  -11.6100   -2.8250  -21.6530 H   0  0  0  0  0  0  0  0  0  0  0  0
  -10.4800   -2.1870  -24.2940 C   0  0  0  0  0  0  0  0  0  0  0  0
   -9.6800   -1.8850  -24.9800 H   0  0  0  0  0  0  0  0  0  0  0  0
  -10.7760   -3.1930  -24.6090 H   0  0  0  0  0  0  0  0  0  0  0  0
   -8.8750   -2.6980  -23.0100 H   0  0  0  0  0  0  0  0  0  0  0  0
  -11.6820   -0.4860  -21.7980 H   0  0  0  0  0  0  0  0  0  0  0  0
  -10.5860    0.8920  -21.9440 H   0  0  0  0  0  0  0  0  0  0  0  0
  -12.2460    0.7400  -23.8160 H   0  0  0  0  0  0  0  0  0  0  0  0
  -10.5790    0.6390  -24.3670 H   0  0  0  0  0  0  0  0  0  0  0  0
  -11.7510   -1.0460  -25.5560 H   0  0  0  0  0  0  0  0  0  0  0  0
  -13.1220   -1.8950  -22.9590 H   0  0  0  0  0  0  0  0  0  0  0  0
  -13.8380   -1.1800  -24.3990 H   0  0  0  0  0  0  0  0  0  0  0  0
  -13.1670   -2.8140  -24.4610 H   0  0  0  0  0  0  0  0  0  0  0  0
  1  2  1  0  0  0  0
  1 41  1  0  0  0  0
  1 42  1  0  0  0  0
  1 43  1  0  0  0  0
  2  3  1  0  0  0  0
  2 32  1  0  0  0  0
  2 40  1  6  0  0  0
  3  4  1  0  0  0  0
  3 38  1  0  0  0  0
  3 39  1  0  0  0  0
  4  5  1  0  0  0  0
  4 36  1  0  0  0  0
  4 37  1  0  0  0  0
  5  6  1  0  0  0  0
  5 27  1  0  0  0  0
  6  7  2  0  0  0  0
  6  8  1  0  0  0  0
  8  9  1  0  0  0  0
  8 25  1  0  0  0  0
  8 26  1  0  0  0  0
  9 10  2  0  0  0  0
  9 18  1  0  0  0  0
 10 11  1  0  0  0  0
 10 24  1  0  0  0  0
 11 12  2  0  0  0  0
 12 13  1  0  0  0  0
 12 23  1  0  0  0  0
 13 14  2  0  0  0  0
 13 18  1  0  0  0  0
 14 15  1  0  0  0  0
 14 22  1  0  0  0  0
 15 16  2  0  0  0  0
 15 21  1  0  0  0  0
 16 17  1  0  0  0  0
 16 20  1  0  0  0  0
 17 18  2  0  0  0  0
 17 19  1  0  0  0  0
 27 28  1  0  0  0  0
 27 32  1  0  0  0  0
 27 35  1  6  0  0  0
 28 29  1  0  0  0  0
 28 30  1  0  0  0  0
 28 31  1  0  0  0  0
 32 33  1  0  0  0  0
 32 34  1  0  0  0  0
M  END
>  <MODEL>
       1

$$$$
