tmp_first_model_11_64.pdb
 OpenBabel08272522543D

 55 60  0  0  1  0  0  0  0  0999 V2000
   -7.6110   -3.5490  -23.6820 C   0  0  0  0  0  0  0  0  0  0  0  0
   -8.4970   -2.9020  -22.6060 C   0  0  1  0  0  0  0  0  0  0  0  0
   -7.6770   -2.7770  -21.2950 C   0  0  0  0  0  0  0  0  0  0  0  0
   -7.3790   -1.3680  -21.2120 N   0  0  0  0  0  0  0  0  0  0  0  0
   -6.5670   -0.8360  -20.1830 C   0  0  0  0  0  0  0  0  0  0  0  0
   -6.8830   -1.0800  -18.8700 C   0  0  0  0  0  0  0  0  0  0  0  0
   -6.2150   -0.5640  -17.8120 N   0  0  0  0  0  0  0  0  0  0  0  0
   -5.1830    0.2020  -18.0770 C   0  0  0  0  0  0  0  0  0  0  0  0
   -4.7240    0.4980  -19.3920 C   0  0  0  0  0  0  0  0  0  0  0  0
   -3.5980    1.3340  -19.6150 C   0  0  0  0  0  0  0  0  0  0  0  0
   -3.1680    1.5970  -20.8850 C   0  0  0  0  0  0  0  0  0  0  0  0
   -3.8350    1.0250  -21.9920 C   0  0  0  0  0  0  0  0  0  0  0  0
   -4.9280    0.2170  -21.8060 C   0  0  0  0  0  0  0  0  0  0  0  0
   -5.4170   -0.0460  -20.4930 C   0  0  0  0  0  0  0  0  0  0  0  0
   -5.4410   -0.1970  -22.6680 H   0  0  0  0  0  0  0  0  0  0  0  0
   -3.4990    1.2580  -22.9990 H   0  0  0  0  0  0  0  0  0  0  0  0
   -2.3200    2.2550  -21.0500 H   0  0  0  0  0  0  0  0  0  0  0  0
   -3.1080    1.7710  -18.7510 H   0  0  0  0  0  0  0  0  0  0  0  0
   -4.6490    0.6300  -17.2290 H   0  0  0  0  0  0  0  0  0  0  0  0
   -7.7440   -1.7000  -18.6260 H   0  0  0  0  0  0  0  0  0  0  0  0
   -8.1570   -0.5600  -22.0230 C   0  0  0  0  0  0  0  0  0  0  0  0
   -8.1410    0.6330  -21.9890 O   0  0  0  0  0  0  0  0  0  0  0  0
   -9.0380   -1.4580  -22.9540 C   0  0  1  0  0  0  0  0  0  0  0  0
   -8.6380   -1.0230  -24.4500 C   0  0  0  0  0  0  0  0  0  0  0  0
   -9.2730    0.2130  -24.8970 N   0  0  0  0  0  0  0  0  0  0  0  0
   -8.4580    1.2100  -25.6230 C   0  0  0  0  0  0  0  0  0  0  0  0
   -7.8130    2.2160  -24.7150 C   0  0  0  0  0  0  0  0  0  0  0  0
   -6.5290    2.1130  -24.2540 N   0  0  0  0  0  0  0  0  0  0  0  0
   -6.3970    3.2070  -23.5300 C   0  0  0  0  0  0  0  0  0  0  0  0
   -7.5260    3.9360  -23.5720 N   0  0  0  0  0  0  0  0  0  0  0  0
   -8.4470    3.3030  -24.3400 N   0  0  0  0  0  0  0  0  0  0  0  0
   -7.7660    4.7760  -23.0610 H   0  0  0  0  0  0  0  0  0  0  0  0
   -5.5180    3.5340  -22.9890 H   0  0  0  0  0  0  0  0  0  0  0  0
   -7.6850    0.7050  -26.2130 H   0  0  0  0  0  0  0  0  0  0  0  0
   -9.1340    1.7270  -26.3000 H   0  0  0  0  0  0  0  0  0  0  0  0
  -10.6240    0.4790  -24.6500 C   0  0  0  0  0  0  0  0  0  0  0  0
  -11.1210    1.4670  -25.1480 O   0  0  0  0  0  0  0  0  0  0  0  0
  -11.3380   -0.5530  -23.6560 C   0  0  0  0  0  0  0  0  0  0  0  0
  -12.5700   -0.7430  -23.3960 C   0  0  0  0  0  0  0  0  0  0  0  0
  -12.6270   -1.5110  -21.9990 C   0  0  0  0  0  0  0  0  0  0  0  0
  -12.6260   -1.5130  -21.9990 C   0  0  0  0  0  0  0  0  0  0  0  0
  -12.8050   -3.4700  -21.1510 F   0  0  0  0  0  0  0  0  0  0  0  0
  -11.2570   -1.9480  -21.7240 C   0  0  0  0  0  0  0  0  0  0  0  0
  -10.5070   -1.2870  -22.7230 C   0  0  0  0  0  0  0  0  0  0  0  0
  -11.5820   -2.8470  -21.9680 H   0  0  0  0  0  0  0  0  0  0  0  0
  -13.4640   -0.9000  -21.5930 H   0  0  0  0  0  0  0  0  0  0  0  0
  -13.4500   -0.2440  -23.6830 H   0  0  0  0  0  0  0  0  0  0  0  0
   -8.9240   -1.8490  -25.1290 H   0  0  0  0  0  0  0  0  0  0  0  0
   -7.5370   -0.8930  -24.4940 H   0  0  0  0  0  0  0  0  0  0  0  0
   -8.2200   -3.1200  -20.4000 H   0  0  0  0  0  0  0  0  0  0  0  0
   -6.7380   -3.3520  -21.3270 H   0  0  0  0  0  0  0  0  0  0  0  0
   -9.3070   -3.6060  -22.4340 H   0  0  0  0  0  0  0  0  0  0  0  0
   -7.2990   -4.5440  -23.3530 H   0  0  0  0  0  0  0  0  0  0  0  0
   -6.7110   -2.9620  -23.8800 H   0  0  0  0  0  0  0  0  0  0  0  0
   -8.1620   -3.6740  -24.6120 H   0  0  0  0  0  0  0  0  0  0  0  0
  1  2  1  0  0  0  0
  1 53  1  0  0  0  0
  1 54  1  0  0  0  0
  1 55  1  0  0  0  0
  2  3  1  0  0  0  0
  2 23  1  0  0  0  0
  2 52  1  1  0  0  0
  3  4  1  0  0  0  0
  3 50  1  0  0  0  0
  3 51  1  0  0  0  0
  4  5  1  0  0  0  0
  4 21  1  0  0  0  0
  5  6  2  0  0  0  0
  5 14  1  0  0  0  0
  6  7  1  0  0  0  0
  6 20  1  0  0  0  0
  7  8  2  0  0  0  0
  8  9  1  0  0  0  0
  8 19  1  0  0  0  0
  9 10  2  0  0  0  0
  9 14  1  0  0  0  0
 10 11  1  0  0  0  0
 10 18  1  0  0  0  0
 11 12  2  0  0  0  0
 11 17  1  0  0  0  0
 12 13  1  0  0  0  0
 12 16  1  0  0  0  0
 13 14  2  0  0  0  0
 13 15  1  0  0  0  0
 21 22  2  0  0  0  0
 23 21  1  1  0  0  0
 23 24  1  0  0  0  0
 23 44  1  0  0  0  0
 24 25  1  0  0  0  0
 24 48  1  0  0  0  0
 24 49  1  0  0  0  0
 25 26  1  0  0  0  0
 25 36  1  0  0  0  0
 26 27  1  0  0  0  0
 26 34  1  0  0  0  0
 26 35  1  0  0  0  0
 27 28  1  0  0  0  0
 27 31  2  0  0  0  0
 28 29  2  0  0  0  0
 29 30  1  0  0  0  0
 29 33  1  0  0  0  0
 30 31  1  0  0  0  0
 30 32  1  0  0  0  0
 36 37  2  0  0  0  0
 36 38  1  0  0  0  0
 38 39  2  0  0  0  0
 38 44  1  0  0  0  0
 39 40  1  0  0  0  0
 39 47  1  0  0  0  0
 40 41  2  0  0  0  0
 40 46  1  0  0  0  0
 41 42  1  0  0  0  0
 41 43  1  0  0  0  0
 43 44  2  0  0  0  0
 43 45  1  0  0  0  0
M  END
>  <MODEL>
       1

$$$$
