tmp_first_model_15_36.pdb
 OpenBabel08282501153D

 47 50  0  0  1  0  0  0  0  0999 V2000
   -8.6660    0.6230  -21.3300 O   0  0  0  0  0  0  0  0  0  0  0  0
   -8.4190   -0.4130  -21.9240 C   0  0  0  0  0  0  0  0  0  0  0  0
   -7.4270   -1.4250  -21.2910 C   0  0  0  0  0  0  0  0  0  0  0  0
   -6.5840   -0.8240  -20.1860 C   0  0  0  0  0  0  0  0  0  0  0  0
   -6.8820   -1.0370  -18.8640 C   0  0  0  0  0  0  0  0  0  0  0  0
   -6.1950   -0.5370  -17.7980 N   0  0  0  0  0  0  0  0  0  0  0  0
   -5.1590    0.2220  -18.0660 C   0  0  0  0  0  0  0  0  0  0  0  0
   -4.7240    0.5350  -19.3830 C   0  0  0  0  0  0  0  0  0  0  0  0
   -3.5980    1.3620  -19.6230 C   0  0  0  0  0  0  0  0  0  0  0  0
   -3.2080    1.6540  -20.9000 C   0  0  0  0  0  0  0  0  0  0  0  0
   -3.9340    1.1230  -21.9920 C   0  0  0  0  0  0  0  0  0  0  0  0
   -5.0300    0.3190  -21.7960 C   0  0  0  0  0  0  0  0  0  0  0  0
   -5.4560    0.0030  -20.4780 C   0  0  0  0  0  0  0  0  0  0  0  0
   -5.5710   -0.0720  -22.6600 H   0  0  0  0  0  0  0  0  0  0  0  0
   -3.6190    1.3630  -23.0020 H   0  0  0  0  0  0  0  0  0  0  0  0
   -2.3500    2.2970  -21.0880 H   0  0  0  0  0  0  0  0  0  0  0  0
   -3.0610    1.7740  -18.7700 H   0  0  0  0  0  0  0  0  0  0  0  0
   -4.6040    0.6260  -17.2160 H   0  0  0  0  0  0  0  0  0  0  0  0
   -7.7300   -1.6600  -18.5860 H   0  0  0  0  0  0  0  0  0  0  0  0
   -6.7830   -1.8980  -22.0410 H   0  0  0  0  0  0  0  0  0  0  0  0
   -8.0340   -2.2320  -20.8580 H   0  0  0  0  0  0  0  0  0  0  0  0
   -9.0720   -0.7300  -23.1060 N   0  0  0  0  0  0  0  0  0  0  0  0
  -10.0890    0.2420  -23.5330 C   0  0  0  0  0  0  0  0  0  0  0  0
  -11.0610   -0.3100  -24.5660 C   0  0  0  0  0  0  0  0  0  0  0  0
  -10.3380   -0.9970  -25.7100 C   0  0  0  0  0  0  0  0  0  0  0  0
   -9.5340   -2.1490  -25.1300 C   0  0  0  0  0  0  0  0  0  0  0  0
   -8.5270   -1.7200  -24.0460 C   0  0  1  0  0  0  0  0  0  0  0  0
   -7.1880   -1.3040  -24.6630 C   0  0  0  0  0  0  0  0  0  0  0  0
   -6.9710   -0.0190  -25.1590 C   0  0  0  0  0  0  0  0  0  0  0  0
   -5.7500    0.3280  -25.7290 C   0  0  0  0  0  0  0  0  0  0  0  0
   -4.7210   -0.6050  -25.8240 C   0  0  0  0  0  0  0  0  0  0  0  0
   -4.9340   -1.9000  -25.3580 C   0  0  0  0  0  0  0  0  0  0  0  0
   -6.1590   -2.2440  -24.7910 C   0  0  0  0  0  0  0  0  0  0  0  0
   -6.3080   -3.2630  -24.4400 H   0  0  0  0  0  0  0  0  0  0  0  0
   -4.1390   -2.6380  -25.4260 H   0  0  0  0  0  0  0  0  0  0  0  0
   -3.7640   -0.3240  -26.2530 H   0  0  0  0  0  0  0  0  0  0  0  0
   -5.6020    1.3400  -26.0940 H   0  0  0  0  0  0  0  0  0  0  0  0
   -7.7590    0.7250  -25.1080 H   0  0  0  0  0  0  0  0  0  0  0  0
   -8.3260   -2.6150  -23.4520 H   0  0  0  0  0  0  0  0  0  0  0  0
  -10.2280   -2.8790  -24.7020 H   0  0  0  0  0  0  0  0  0  0  0  0
   -8.9900   -2.6770  -25.9190 H   0  0  0  0  0  0  0  0  0  0  0  0
   -9.6730   -0.2940  -26.2260 H   0  0  0  0  0  0  0  0  0  0  0  0
  -11.0470   -1.3630  -26.4610 H   0  0  0  0  0  0  0  0  0  0  0  0
  -11.6940    0.5020  -24.9370 H   0  0  0  0  0  0  0  0  0  0  0  0
  -11.7330   -1.0260  -24.0860 H   0  0  0  0  0  0  0  0  0  0  0  0
  -10.6280    0.5490  -22.6370 H   0  0  0  0  0  0  0  0  0  0  0  0
   -9.6300    1.1640  -23.9220 H   0  0  0  0  0  0  0  0  0  0  0  0
  1  2  2  0  0  0  0
  2  3  1  0  0  0  0
  2 22  1  0  0  0  0
  3  4  1  0  0  0  0
  3 20  1  0  0  0  0
  3 21  1  0  0  0  0
  4  5  2  0  0  0  0
  4 13  1  0  0  0  0
  5  6  1  0  0  0  0
  5 19  1  0  0  0  0
  6  7  2  0  0  0  0
  7  8  1  0  0  0  0
  7 18  1  0  0  0  0
  8  9  2  0  0  0  0
  8 13  1  0  0  0  0
  9 10  1  0  0  0  0
  9 17  1  0  0  0  0
 10 11  2  0  0  0  0
 10 16  1  0  0  0  0
 11 12  1  0  0  0  0
 11 15  1  0  0  0  0
 12 13  2  0  0  0  0
 12 14  1  0  0  0  0
 22 23  1  0  0  0  0
 22 27  1  0  0  0  0
 23 24  1  0  0  0  0
 23 46  1  0  0  0  0
 23 47  1  0  0  0  0
 24 25  1  0  0  0  0
 24 44  1  0  0  0  0
 24 45  1  0  0  0  0
 25 26  1  0  0  0  0
 25 42  1  0  0  0  0
 25 43  1  0  0  0  0
 26 27  1  0  0  0  0
 26 40  1  0  0  0  0
 26 41  1  0  0  0  0
 27 28  1  0  0  0  0
 27 39  1  1  0  0  0
 28 29  2  0  0  0  0
 28 33  1  0  0  0  0
 29 30  1  0  0  0  0
 29 38  1  0  0  0  0
 30 31  2  0  0  0  0
 30 37  1  0  0  0  0
 31 32  1  0  0  0  0
 31 36  1  0  0  0  0
 32 33  2  0  0  0  0
 32 35  1  0  0  0  0
 33 34  1  0  0  0  0
M  END
>  <MODEL>
       1

$$$$
