tmp_first_model_6_2.pdb
 OpenBabel08272519583D

 60 65  0  0  1  0  0  0  0  0999 V2000
   -6.3290    1.0720  -30.6310 C   0  0  0  0  0  0  0  0  0  0  0  0
   -6.6950    1.2290  -29.1770 C   0  0  0  0  0  0  0  0  0  0  0  0
   -6.0590    0.4830  -28.1820 C   0  0  0  0  0  0  0  0  0  0  0  0
   -6.3760    0.5800  -26.8950 N   0  0  0  0  0  0  0  0  0  0  0  0
   -7.3670    1.4240  -26.5770 C   0  0  0  0  0  0  0  0  0  0  0  0
   -7.7740    1.5340  -25.1270 C   0  0  0  0  0  0  0  0  0  0  0  0
   -8.7370    0.5370  -24.6980 N   0  0  0  0  0  0  0  0  0  0  0  0
   -8.2690   -0.8080  -24.4170 C   0  0  0  0  0  0  0  0  0  0  0  0
   -8.8750   -1.3530  -23.0980 C   0  0  2  0  0  0  0  0  0  0  0  0
   -8.2970   -0.5460  -21.9050 C   0  0  0  0  0  0  0  0  0  0  0  0
   -8.5300    0.6120  -21.6210 O   0  0  0  0  0  0  0  0  0  0  0  0
   -7.4400   -1.3500  -21.1920 N   0  0  0  0  0  0  0  0  0  0  0  0
   -6.6160   -0.7970  -20.1720 C   0  0  0  0  0  0  0  0  0  0  0  0
   -6.9000   -1.0550  -18.8590 C   0  0  0  0  0  0  0  0  0  0  0  0
   -6.1920   -0.5670  -17.8080 N   0  0  0  0  0  0  0  0  0  0  0  0
   -5.1660    0.2030  -18.0750 C   0  0  0  0  0  0  0  0  0  0  0  0
   -4.7430    0.5420  -19.3910 C   0  0  0  0  0  0  0  0  0  0  0  0
   -3.6100    1.3710  -19.6280 C   0  0  0  0  0  0  0  0  0  0  0  0
   -3.2260    1.6740  -20.9030 C   0  0  0  0  0  0  0  0  0  0  0  0
   -3.9610    1.1700  -21.9980 C   0  0  0  0  0  0  0  0  0  0  0  0
   -5.0510    0.3590  -21.7970 C   0  0  0  0  0  0  0  0  0  0  0  0
   -5.4860    0.0320  -20.4810 C   0  0  0  0  0  0  0  0  0  0  0  0
   -5.5600   -0.0830  -22.6510 H   0  0  0  0  0  0  0  0  0  0  0  0
   -3.6260    1.3750  -23.0100 H   0  0  0  0  0  0  0  0  0  0  0  0
   -2.3520    2.2940  -21.0880 H   0  0  0  0  0  0  0  0  0  0  0  0
   -3.0670    1.7580  -18.7690 H   0  0  0  0  0  0  0  0  0  0  0  0
   -4.6170    0.6090  -17.2240 H   0  0  0  0  0  0  0  0  0  0  0  0
   -7.7520   -1.6800  -18.5960 H   0  0  0  0  0  0  0  0  0  0  0  0
   -7.2280   -2.6550  -21.7890 C   0  0  0  0  0  0  0  0  0  0  0  0
   -8.4010   -2.8070  -22.7820 C   0  0  2  0  0  0  0  0  0  0  0  0
   -8.0440   -3.6960  -23.9790 C   0  0  0  0  0  0  0  0  0  0  0  0
   -7.1710   -3.3040  -24.5140 H   0  0  0  0  0  0  0  0  0  0  0  0
   -8.8670   -3.7730  -24.6970 H   0  0  0  0  0  0  0  0  0  0  0  0
   -7.7940   -4.7090  -23.6490 H   0  0  0  0  0  0  0  0  0  0  0  0
   -9.2300   -3.2750  -22.2470 H   0  0  0  0  0  0  0  0  0  0  0  0
   -6.2640   -2.7070  -22.3180 H   0  0  0  0  0  0  0  0  0  0  0  0
   -7.2210   -3.4320  -21.0180 H   0  0  0  0  0  0  0  0  0  0  0  0
  -10.3830   -1.1480  -23.1610 C   0  0  0  0  0  0  0  0  0  0  0  0
  -11.2370   -1.8270  -22.2810 C   0  0  0  0  0  0  0  0  0  0  0  0
  -12.5960   -1.5970  -22.3490 C   0  0  0  0  0  0  0  0  0  0  0  0
  -13.4100   -2.2590  -21.5100 F   0  0  0  0  0  0  0  0  0  0  0  0
  -13.1640   -0.7040  -23.2530 C   0  0  0  0  0  0  0  0  0  0  0  0
  -12.3170    0.0270  -24.0610 C   0  0  0  0  0  0  0  0  0  0  0  0
  -10.9360   -0.1440  -23.9710 C   0  0  0  0  0  0  0  0  0  0  0  0
  -10.0560    0.8720  -24.6330 C   0  0  0  0  0  0  0  0  0  0  0  0
  -10.4910    1.9540  -25.0260 O   0  0  0  0  0  0  0  0  0  0  0  0
  -12.6830    0.7890  -24.7410 H   0  0  0  0  0  0  0  0  0  0  0  0
  -14.2370   -0.5520  -23.2540 H   0  0  0  0  0  0  0  0  0  0  0  0
  -10.8680   -2.4890  -21.5050 H   0  0  0  0  0  0  0  0  0  0  0  0
   -7.1770   -0.7670  -24.3330 H   0  0  0  0  0  0  0  0  0  0  0  0
   -8.5270   -1.4780  -25.2490 H   0  0  0  0  0  0  0  0  0  0  0  0
   -6.8760    1.4160  -24.5080 H   0  0  0  0  0  0  0  0  0  0  0  0
   -8.2310    2.5100  -24.9390 H   0  0  0  0  0  0  0  0  0  0  0  0
   -7.9750    2.1910  -27.5590 C   0  0  0  0  0  0  0  0  0  0  0  0
   -7.6450    2.1030  -28.8500 N   0  0  0  0  0  0  0  0  0  0  0  0
   -8.7590    2.9030  -27.2930 H   0  0  0  0  0  0  0  0  0  0  0  0
   -5.2760   -0.2280  -28.4450 H   0  0  0  0  0  0  0  0  0  0  0  0
   -6.5030    0.0400  -30.9660 H   0  0  0  0  0  0  0  0  0  0  0  0
   -6.9300    1.7540  -31.2370 H   0  0  0  0  0  0  0  0  0  0  0  0
   -5.2640    1.2920  -30.7830 H   0  0  0  0  0  0  0  0  0  0  0  0
  1  2  1  0  0  0  0
  1 58  1  0  0  0  0
  1 59  1  0  0  0  0
  1 60  1  0  0  0  0
  2  3  2  0  0  0  0
  2 55  1  0  0  0  0
  3  4  1  0  0  0  0
  3 57  1  0  0  0  0
  4  5  2  0  0  0  0
  5  6  1  0  0  0  0
  5 54  1  0  0  0  0
  6  7  1  0  0  0  0
  6 52  1  0  0  0  0
  6 53  1  0  0  0  0
  7  8  1  0  0  0  0
  7 45  1  0  0  0  0
  8  9  1  0  0  0  0
  8 50  1  0  0  0  0
  8 51  1  0  0  0  0
  9 10  1  1  0  0  0
  9 30  1  0  0  0  0
  9 38  1  0  0  0  0
 10 11  2  0  0  0  0
 10 12  1  0  0  0  0
 12 13  1  0  0  0  0
 12 29  1  0  0  0  0
 13 14  2  0  0  0  0
 13 22  1  0  0  0  0
 14 15  1  0  0  0  0
 14 28  1  0  0  0  0
 15 16  2  0  0  0  0
 16 17  1  0  0  0  0
 16 27  1  0  0  0  0
 17 18  2  0  0  0  0
 17 22  1  0  0  0  0
 18 19  1  0  0  0  0
 18 26  1  0  0  0  0
 19 20  2  0  0  0  0
 19 25  1  0  0  0  0
 20 21  1  0  0  0  0
 20 24  1  0  0  0  0
 21 22  2  0  0  0  0
 21 23  1  0  0  0  0
 29 30  1  0  0  0  0
 29 36  1  0  0  0  0
 29 37  1  0  0  0  0
 30 31  1  0  0  0  0
 30 35  1  1  0  0  0
 31 32  1  0  0  0  0
 31 33  1  0  0  0  0
 31 34  1  0  0  0  0
 38 39  2  0  0  0  0
 38 44  1  0  0  0  0
 39 40  1  0  0  0  0
 39 49  1  0  0  0  0
 40 41  1  0  0  0  0
 40 42  2  0  0  0  0
 42 43  1  0  0  0  0
 42 48  1  0  0  0  0
 43 44  2  0  0  0  0
 43 47  1  0  0  0  0
 44 45  1  0  0  0  0
 45 46  2  0  0  0  0
 54 55  2  0  0  0  0
 54 56  1  0  0  0  0
M  END
>  <MODEL>
       1

$$$$
