tmp_first_model_2_45.pdb
 OpenBabel08272517383D

 66 71  0  0  1  0  0  0  0  0999 V2000
   -7.3600    3.3670  -21.8580 C   0  0  0  0  0  0  0  0  0  0  0  0
   -8.3100    2.9160  -22.8650 N   0  0  0  0  0  0  0  0  0  0  0  0
   -7.7870    2.1890  -23.8950 C   0  0  0  0  0  0  0  0  0  0  0  0
   -6.5860    2.0040  -24.0270 O   0  0  0  0  0  0  0  0  0  0  0  0
   -8.7810    1.5950  -24.8880 C   0  0  0  0  0  0  0  0  0  0  0  0
   -9.4440    0.4450  -24.3080 N   0  0  0  0  0  0  0  0  0  0  0  0
   -8.6940   -0.7900  -24.1550 C   0  0  0  0  0  0  0  0  0  0  0  0
   -9.0680   -1.5390  -22.8520 C   0  0  2  0  0  0  0  0  0  0  0  0
   -8.5390   -0.7620  -21.6230 C   0  0  0  0  0  0  0  0  0  0  0  0
   -9.0130    0.2400  -21.1180 O   0  0  0  0  0  0  0  0  0  0  0  0
   -7.3990   -1.3880  -21.1820 N   0  0  0  0  0  0  0  0  0  0  0  0
   -6.6020   -0.8160  -20.1650 C   0  0  0  0  0  0  0  0  0  0  0  0
   -6.9290   -1.0370  -18.8530 C   0  0  0  0  0  0  0  0  0  0  0  0
   -6.2350   -0.5450  -17.8000 N   0  0  0  0  0  0  0  0  0  0  0  0
   -5.1920    0.2040  -18.0720 C   0  0  0  0  0  0  0  0  0  0  0  0
   -4.7500    0.5220  -19.3890 C   0  0  0  0  0  0  0  0  0  0  0  0
   -3.6250    1.3550  -19.6310 C   0  0  0  0  0  0  0  0  0  0  0  0
   -3.2400    1.6500  -20.9090 C   0  0  0  0  0  0  0  0  0  0  0  0
   -3.9600    1.1370  -22.0100 C   0  0  0  0  0  0  0  0  0  0  0  0
   -5.0540    0.3290  -21.8050 C   0  0  0  0  0  0  0  0  0  0  0  0
   -5.4730   -0.0040  -20.4850 C   0  0  0  0  0  0  0  0  0  0  0  0
   -5.6190   -0.0260  -22.6630 H   0  0  0  0  0  0  0  0  0  0  0  0
   -3.6600    1.3910  -23.0220 H   0  0  0  0  0  0  0  0  0  0  0  0
   -2.3800    2.2880  -21.0850 H   0  0  0  0  0  0  0  0  0  0  0  0
   -3.0940    1.7580  -18.7730 H   0  0  0  0  0  0  0  0  0  0  0  0
   -4.6310    0.6020  -17.2260 H   0  0  0  0  0  0  0  0  0  0  0  0
   -7.7970   -1.6490  -18.6220 H   0  0  0  0  0  0  0  0  0  0  0  0
   -7.0300   -2.5680  -21.9310 C   0  0  0  0  0  0  0  0  0  0  0  0
   -8.2980   -2.8980  -22.7320 C   0  0  2  0  0  0  0  0  0  0  0  0
   -7.9780   -3.6510  -24.0430 C   0  0  0  0  0  0  0  0  0  0  0  0
   -7.3570   -5.0220  -23.8600 C   0  0  0  0  0  0  0  0  0  0  0  0
   -5.9740   -5.2360  -23.7840 C   0  0  0  0  0  0  0  0  0  0  0  0
   -5.4580   -6.5030  -23.5190 C   0  0  0  0  0  0  0  0  0  0  0  0
   -6.3040   -7.5930  -23.3480 C   0  0  0  0  0  0  0  0  0  0  0  0
   -7.6700   -7.4110  -23.5050 C   0  0  0  0  0  0  0  0  0  0  0  0
   -8.1830   -6.1440  -23.7690 C   0  0  0  0  0  0  0  0  0  0  0  0
   -9.2600   -6.0490  -23.9040 H   0  0  0  0  0  0  0  0  0  0  0  0
   -8.3610   -8.2480  -23.4310 H   0  0  0  0  0  0  0  0  0  0  0  0
   -5.8970   -8.5710  -23.1010 H   0  0  0  0  0  0  0  0  0  0  0  0
   -4.3860   -6.6550  -23.4520 H   0  0  0  0  0  0  0  0  0  0  0  0
   -5.2810   -4.4110  -23.9400 H   0  0  0  0  0  0  0  0  0  0  0  0
   -8.9110   -3.7740  -24.6070 H   0  0  0  0  0  0  0  0  0  0  0  0
   -7.3100   -3.0330  -24.6540 H   0  0  0  0  0  0  0  0  0  0  0  0
   -8.9160   -3.5580  -22.1180 H   0  0  0  0  0  0  0  0  0  0  0  0
   -6.7470   -3.3820  -21.2550 H   0  0  0  0  0  0  0  0  0  0  0  0
   -6.1780   -2.3800  -22.6050 H   0  0  0  0  0  0  0  0  0  0  0  0
  -10.5810   -1.6190  -22.7890 C   0  0  0  0  0  0  0  0  0  0  0  0
  -11.2060   -2.5540  -21.9640 C   0  0  0  0  0  0  0  0  0  0  0  0
  -12.5840   -2.5780  -21.8660 C   0  0  0  0  0  0  0  0  0  0  0  0
  -13.3200   -3.7190  -20.7900 Cl  0  0  0  0  0  0  0  0  0  0  0  0
  -13.3950   -1.6960  -22.5790 C   0  0  0  0  0  0  0  0  0  0  0  0
  -12.7810   -0.7460  -23.3660 C   0  0  0  0  0  0  0  0  0  0  0  0
  -11.3930   -0.6820  -23.4390 C   0  0  0  0  0  0  0  0  0  0  0  0
  -10.8010    0.4760  -24.1720 C   0  0  0  0  0  0  0  0  0  0  0  0
  -11.4850    1.4000  -24.5910 O   0  0  0  0  0  0  0  0  0  0  0  0
  -13.3460   -0.0110  -23.9250 H   0  0  0  0  0  0  0  0  0  0  0  0
  -14.4740   -1.7410  -22.4870 H   0  0  0  0  0  0  0  0  0  0  0  0
  -10.6320   -3.2550  -21.3700 H   0  0  0  0  0  0  0  0  0  0  0  0
   -7.6260   -0.5490  -24.1660 H   0  0  0  0  0  0  0  0  0  0  0  0
   -8.9060   -1.4590  -25.0010 H   0  0  0  0  0  0  0  0  0  0  0  0
   -8.2170    1.2970  -25.7790 H   0  0  0  0  0  0  0  0  0  0  0  0
   -9.5660    2.3050  -25.1730 H   0  0  0  0  0  0  0  0  0  0  0  0
   -9.2610    2.7420  -22.5580 H   0  0  0  0  0  0  0  0  0  0  0  0
   -7.9010    3.8190  -21.0250 H   0  0  0  0  0  0  0  0  0  0  0  0
   -6.6960    4.1260  -22.2850 H   0  0  0  0  0  0  0  0  0  0  0  0
   -6.7510    2.5140  -21.5210 H   0  0  0  0  0  0  0  0  0  0  0  0
  1  2  1  0  0  0  0
  1 64  1  0  0  0  0
  1 65  1  0  0  0  0
  1 66  1  0  0  0  0
  2  3  1  0  0  0  0
  2 63  1  0  0  0  0
  3  4  2  0  0  0  0
  3  5  1  0  0  0  0
  5  6  1  0  0  0  0
  5 61  1  0  0  0  0
  5 62  1  0  0  0  0
  6  7  1  0  0  0  0
  6 54  1  0  0  0  0
  7  8  1  0  0  0  0
  7 59  1  0  0  0  0
  7 60  1  0  0  0  0
  8  9  1  1  0  0  0
  8 29  1  0  0  0  0
  8 47  1  0  0  0  0
  9 10  2  0  0  0  0
  9 11  1  0  0  0  0
 11 12  1  0  0  0  0
 11 28  1  0  0  0  0
 12 13  2  0  0  0  0
 12 21  1  0  0  0  0
 13 14  1  0  0  0  0
 13 27  1  0  0  0  0
 14 15  2  0  0  0  0
 15 16  1  0  0  0  0
 15 26  1  0  0  0  0
 16 17  2  0  0  0  0
 16 21  1  0  0  0  0
 17 18  1  0  0  0  0
 17 25  1  0  0  0  0
 18 19  2  0  0  0  0
 18 24  1  0  0  0  0
 19 20  1  0  0  0  0
 19 23  1  0  0  0  0
 20 21  2  0  0  0  0
 20 22  1  0  0  0  0
 28 29  1  0  0  0  0
 28 45  1  0  0  0  0
 28 46  1  0  0  0  0
 29 30  1  0  0  0  0
 29 44  1  1  0  0  0
 30 31  1  0  0  0  0
 30 42  1  0  0  0  0
 30 43  1  0  0  0  0
 31 32  2  0  0  0  0
 31 36  1  0  0  0  0
 32 33  1  0  0  0  0
 32 41  1  0  0  0  0
 33 34  2  0  0  0  0
 33 40  1  0  0  0  0
 34 35  1  0  0  0  0
 34 39  1  0  0  0  0
 35 36  2  0  0  0  0
 35 38  1  0  0  0  0
 36 37  1  0  0  0  0
 47 48  2  0  0  0  0
 47 53  1  0  0  0  0
 48 49  1  0  0  0  0
 48 58  1  0  0  0  0
 49 50  1  0  0  0  0
 49 51  2  0  0  0  0
 51 52  1  0  0  0  0
 51 57  1  0  0  0  0
 52 53  2  0  0  0  0
 52 56  1  0  0  0  0
 53 54  1  0  0  0  0
 54 55  2  0  0  0  0
M  END
>  <MODEL>
       1

$$$$
