tmp_first_model_17_95.pdb
 OpenBabel08282502223D

 66 71  0  0  1  0  0  0  0  0999 V2000
   -6.7650    0.0910  -29.3830 C   0  0  0  0  0  0  0  0  0  0  0  0
   -7.0880    0.4920  -28.0370 N   0  0  0  0  0  0  0  0  0  0  0  0
   -6.4310   -0.0310  -26.9740 C   0  0  0  0  0  0  0  0  0  0  0  0
   -5.5670   -0.8910  -27.0620 O   0  0  0  0  0  0  0  0  0  0  0  0
   -6.8430    0.5580  -25.6230 C   0  0  0  0  0  0  0  0  0  0  0  0
   -7.9860   -0.1010  -25.0310 N   0  0  0  0  0  0  0  0  0  0  0  0
   -7.7830   -1.3900  -24.4050 C   0  0  0  0  0  0  0  0  0  0  0  0
   -8.6810   -1.5300  -23.1510 C   0  0  2  0  0  0  0  0  0  0  0  0
   -8.1420   -0.5990  -22.0380 C   0  0  0  0  0  0  0  0  0  0  0  0
   -8.3010    0.5990  -21.9420 O   0  0  0  0  0  0  0  0  0  0  0  0
   -7.3970   -1.3610  -21.1580 N   0  0  0  0  0  0  0  0  0  0  0  0
   -6.6090   -0.8030  -20.1220 C   0  0  0  0  0  0  0  0  0  0  0  0
   -6.9010   -1.0760  -18.8080 C   0  0  0  0  0  0  0  0  0  0  0  0
   -6.2290   -0.5640  -17.7470 N   0  0  0  0  0  0  0  0  0  0  0  0
   -5.2070    0.2190  -18.0020 C   0  0  0  0  0  0  0  0  0  0  0  0
   -4.7600    0.5470  -19.3140 C   0  0  0  0  0  0  0  0  0  0  0  0
   -3.6360    1.3850  -19.5470 C   0  0  0  0  0  0  0  0  0  0  0  0
   -3.2270    1.6600  -20.8210 C   0  0  0  0  0  0  0  0  0  0  0  0
   -3.9150    1.1100  -21.9250 C   0  0  0  0  0  0  0  0  0  0  0  0
   -4.9970    0.2960  -21.7270 C   0  0  0  0  0  0  0  0  0  0  0  0
   -5.4660    0.0120  -20.4140 C   0  0  0  0  0  0  0  0  0  0  0  0
   -5.5130   -0.1390  -22.5780 H   0  0  0  0  0  0  0  0  0  0  0  0
   -3.5770    1.3300  -22.9330 H   0  0  0  0  0  0  0  0  0  0  0  0
   -2.3700    2.3030  -21.0020 H   0  0  0  0  0  0  0  0  0  0  0  0
   -3.1110    1.8040  -18.6930 H   0  0  0  0  0  0  0  0  0  0  0  0
   -4.6740    0.6270  -17.1440 H   0  0  0  0  0  0  0  0  0  0  0  0
   -7.7470   -1.7220  -18.5750 H   0  0  0  0  0  0  0  0  0  0  0  0
   -7.3400   -2.7690  -21.5000 C   0  0  0  0  0  0  0  0  0  0  0  0
   -8.4980   -2.9230  -22.5020 C   0  0  2  0  0  0  0  0  0  0  0  0
   -8.3690   -4.0820  -23.5020 C   0  0  0  0  0  0  0  0  0  0  0  0
   -8.3330   -5.3810  -22.8630 N   0  0  0  0  0  0  0  0  0  0  0  0
   -7.2130   -5.9460  -22.3250 C   0  0  0  0  0  0  0  0  0  0  0  0
   -5.9100   -5.6170  -22.7560 C   0  0  0  0  0  0  0  0  0  0  0  0
   -4.8720   -6.2810  -22.1380 C   0  0  0  0  0  0  0  0  0  0  0  0
   -5.0610   -7.1670  -21.1560 N   0  0  0  0  0  0  0  0  0  0  0  0
   -6.3270   -7.3850  -20.8300 C   0  0  0  0  0  0  0  0  0  0  0  0
   -7.4200   -6.8560  -21.3640 N   0  0  0  0  0  0  0  0  0  0  0  0
   -6.4950   -8.0780  -20.0090 H   0  0  0  0  0  0  0  0  0  0  0  0
   -3.8330   -6.0930  -22.4260 H   0  0  0  0  0  0  0  0  0  0  0  0
   -5.7450   -4.8640  -23.5180 H   0  0  0  0  0  0  0  0  0  0  0  0
   -9.1750   -5.5960  -22.3440 H   0  0  0  0  0  0  0  0  0  0  0  0
   -7.4850   -3.9610  -24.1380 H   0  0  0  0  0  0  0  0  0  0  0  0
   -9.2400   -4.0480  -24.1720 H   0  0  0  0  0  0  0  0  0  0  0  0
   -9.3930   -3.1190  -21.9030 H   0  0  0  0  0  0  0  0  0  0  0  0
   -7.4660   -3.3740  -20.5970 H   0  0  0  0  0  0  0  0  0  0  0  0
   -6.3580   -3.0330  -21.9250 H   0  0  0  0  0  0  0  0  0  0  0  0
  -10.1000   -1.1560  -23.5450 C   0  0  0  0  0  0  0  0  0  0  0  0
  -11.2080   -1.5720  -22.7950 C   0  0  0  0  0  0  0  0  0  0  0  0
  -12.4800   -1.1370  -23.1270 C   0  0  0  0  0  0  0  0  0  0  0  0
  -13.8330   -1.6680  -22.1810 Cl  0  0  0  0  0  0  0  0  0  0  0  0
  -12.7150   -0.2840  -24.2030 C   0  0  0  0  0  0  0  0  0  0  0  0
  -11.6370    0.1110  -24.9630 C   0  0  0  0  0  0  0  0  0  0  0  0
  -10.3480   -0.3050  -24.6340 C   0  0  0  0  0  0  0  0  0  0  0  0
   -9.2340    0.2310  -25.4630 C   0  0  0  0  0  0  0  0  0  0  0  0
   -9.4310    0.9300  -26.4550 O   0  0  0  0  0  0  0  0  0  0  0  0
  -11.7640    0.7530  -25.8240 H   0  0  0  0  0  0  0  0  0  0  0  0
  -13.7220    0.0620  -24.4120 H   0  0  0  0  0  0  0  0  0  0  0  0
  -11.1110   -2.2260  -21.9360 H   0  0  0  0  0  0  0  0  0  0  0  0
   -8.0230   -2.1760  -25.1390 H   0  0  0  0  0  0  0  0  0  0  0  0
   -6.7260   -1.4780  -24.1320 H   0  0  0  0  0  0  0  0  0  0  0  0
   -5.9870    0.4440  -24.9500 H   0  0  0  0  0  0  0  0  0  0  0  0
   -7.0880    1.6180  -25.7150 H   0  0  0  0  0  0  0  0  0  0  0  0
   -8.0010    0.8780  -27.8450 H   0  0  0  0  0  0  0  0  0  0  0  0
   -5.6850    0.1580  -29.5290 H   0  0  0  0  0  0  0  0  0  0  0  0
   -7.2480    0.7800  -30.0790 H   0  0  0  0  0  0  0  0  0  0  0  0
   -7.0970   -0.9310  -29.5940 H   0  0  0  0  0  0  0  0  0  0  0  0
  1  2  1  0  0  0  0
  1 64  1  0  0  0  0
  1 65  1  0  0  0  0
  1 66  1  0  0  0  0
  2  3  1  0  0  0  0
  2 63  1  0  0  0  0
  3  4  2  0  0  0  0
  3  5  1  0  0  0  0
  5  6  1  0  0  0  0
  5 61  1  0  0  0  0
  5 62  1  0  0  0  0
  6  7  1  0  0  0  0
  6 54  1  0  0  0  0
  7  8  1  0  0  0  0
  7 59  1  0  0  0  0
  7 60  1  0  0  0  0
  8  9  1  1  0  0  0
  8 29  1  0  0  0  0
  8 47  1  0  0  0  0
  9 10  2  0  0  0  0
  9 11  1  0  0  0  0
 11 12  1  0  0  0  0
 11 28  1  0  0  0  0
 12 13  2  0  0  0  0
 12 21  1  0  0  0  0
 13 14  1  0  0  0  0
 13 27  1  0  0  0  0
 14 15  2  0  0  0  0
 15 16  1  0  0  0  0
 15 26  1  0  0  0  0
 16 17  2  0  0  0  0
 16 21  1  0  0  0  0
 17 18  1  0  0  0  0
 17 25  1  0  0  0  0
 18 19  2  0  0  0  0
 18 24  1  0  0  0  0
 19 20  1  0  0  0  0
 19 23  1  0  0  0  0
 20 21  2  0  0  0  0
 20 22  1  0  0  0  0
 28 29  1  0  0  0  0
 28 45  1  0  0  0  0
 28 46  1  0  0  0  0
 29 30  1  0  0  0  0
 29 44  1  1  0  0  0
 30 31  1  0  0  0  0
 30 42  1  0  0  0  0
 30 43  1  0  0  0  0
 31 32  1  0  0  0  0
 31 41  1  0  0  0  0
 32 33  2  0  0  0  0
 32 37  1  0  0  0  0
 33 34  1  0  0  0  0
 33 40  1  0  0  0  0
 34 35  2  0  0  0  0
 34 39  1  0  0  0  0
 35 36  1  0  0  0  0
 36 37  2  0  0  0  0
 36 38  1  0  0  0  0
 47 48  2  0  0  0  0
 47 53  1  0  0  0  0
 48 49  1  0  0  0  0
 48 58  1  0  0  0  0
 49 50  1  0  0  0  0
 49 51  2  0  0  0  0
 51 52  1  0  0  0  0
 51 57  1  0  0  0  0
 52 53  2  0  0  0  0
 52 56  1  0  0  0  0
 53 54  1  0  0  0  0
 54 55  2  0  0  0  0
M  END
>  <MODEL>
       1

$$$$
