tmp_first_model_10_80.pdb
 OpenBabel08272522163D

 60 65  0  0  1  0  0  0  0  0999 V2000
   -8.8530   -7.8600  -25.9820 C   0  0  0  0  0  0  0  0  0  0  0  0
   -8.0730   -6.9580  -25.1710 N   0  0  0  0  0  0  0  0  0  0  0  0
   -7.3710   -7.2600  -24.0570 C   0  0  0  0  0  0  0  0  0  0  0  0
   -7.3900   -8.3170  -23.4460 O   0  0  0  0  0  0  0  0  0  0  0  0
   -6.5460   -6.1030  -23.5350 C   0  0  0  0  0  0  0  0  0  0  0  0
   -6.8790   -4.7820  -23.9650 N   0  0  0  0  0  0  0  0  0  0  0  0
   -8.0390   -4.1690  -23.3650 C   0  0  0  0  0  0  0  0  0  0  0  0
   -7.8350   -2.6650  -23.1580 C   0  0  2  0  0  0  0  0  0  0  0  0
   -6.8350   -2.4120  -22.0120 C   0  0  0  0  0  0  0  0  0  0  0  0
   -5.7480   -2.9310  -21.8440 O   0  0  0  0  0  0  0  0  0  0  0  0
   -7.3680   -1.4640  -21.1780 N   0  0  0  0  0  0  0  0  0  0  0  0
   -6.6010   -0.8400  -20.1690 C   0  0  0  0  0  0  0  0  0  0  0  0
   -6.9210   -1.0650  -18.8570 C   0  0  0  0  0  0  0  0  0  0  0  0
   -6.2300   -0.5700  -17.8030 N   0  0  0  0  0  0  0  0  0  0  0  0
   -5.2040    0.2020  -18.0740 C   0  0  0  0  0  0  0  0  0  0  0  0
   -4.7910    0.5460  -19.3960 C   0  0  0  0  0  0  0  0  0  0  0  0
   -3.6820    1.4020  -19.6250 C   0  0  0  0  0  0  0  0  0  0  0  0
   -3.3950    1.8400  -20.8870 C   0  0  0  0  0  0  0  0  0  0  0  0
   -4.1880    1.4200  -21.9830 C   0  0  0  0  0  0  0  0  0  0  0  0
   -5.1960    0.5020  -21.8100 C   0  0  0  0  0  0  0  0  0  0  0  0
   -5.5280    0.0470  -20.4930 C   0  0  0  0  0  0  0  0  0  0  0  0
   -5.7350    0.1180  -22.6800 H   0  0  0  0  0  0  0  0  0  0  0  0
   -3.9710    1.8110  -22.9720 H   0  0  0  0  0  0  0  0  0  0  0  0
   -2.5560    2.5120  -21.0560 H   0  0  0  0  0  0  0  0  0  0  0  0
   -3.1000    1.7280  -18.7660 H   0  0  0  0  0  0  0  0  0  0  0  0
   -4.6390    0.5960  -17.2280 H   0  0  0  0  0  0  0  0  0  0  0  0
   -7.7700   -1.7060  -18.6240 H   0  0  0  0  0  0  0  0  0  0  0  0
   -8.6720   -0.9860  -21.5640 C   0  0  0  0  0  0  0  0  0  0  0  0
   -9.1360   -1.9600  -22.6620 C   0  0  2  0  0  0  0  0  0  0  0  0
  -10.2430   -2.8790  -22.1240 C   0  0  0  0  0  0  0  0  0  0  0  0
  -11.0850   -2.2760  -21.7700 H   0  0  0  0  0  0  0  0  0  0  0  0
  -10.6290   -3.5480  -22.8980 H   0  0  0  0  0  0  0  0  0  0  0  0
   -9.8920   -3.4850  -21.2830 H   0  0  0  0  0  0  0  0  0  0  0  0
   -9.5730   -1.4170  -23.5040 H   0  0  0  0  0  0  0  0  0  0  0  0
   -9.3420   -1.0050  -20.7080 H   0  0  0  0  0  0  0  0  0  0  0  0
   -8.6260    0.0550  -21.9060 H   0  0  0  0  0  0  0  0  0  0  0  0
   -7.2890   -2.0720  -24.4540 C   0  0  0  0  0  0  0  0  0  0  0  0
   -7.4510   -0.7130  -24.7430 C   0  0  0  0  0  0  0  0  0  0  0  0
   -6.9230   -0.1810  -25.9070 C   0  0  0  0  0  0  0  0  0  0  0  0
   -7.1250    1.5140  -26.2330 Cl  0  0  0  0  0  0  0  0  0  0  0  0
   -6.2280   -0.9630  -26.8270 C   0  0  0  0  0  0  0  0  0  0  0  0
   -6.0450   -2.2960  -26.5370 C   0  0  0  0  0  0  0  0  0  0  0  0
   -6.5510   -2.8410  -25.3590 C   0  0  0  0  0  0  0  0  0  0  0  0
   -6.2550   -4.2690  -25.0780 C   0  0  0  0  0  0  0  0  0  0  0  0
   -5.5110   -4.9520  -25.7690 O   0  0  0  0  0  0  0  0  0  0  0  0
   -5.4970   -2.9550  -27.2000 H   0  0  0  0  0  0  0  0  0  0  0  0
   -5.8230   -0.5260  -27.7320 H   0  0  0  0  0  0  0  0  0  0  0  0
   -7.9900   -0.0540  -24.0700 H   0  0  0  0  0  0  0  0  0  0  0  0
   -8.2270   -4.6580  -22.4110 H   0  0  0  0  0  0  0  0  0  0  0  0
   -8.9210   -4.3210  -23.9990 H   0  0  0  0  0  0  0  0  0  0  0  0
   -6.1680   -6.2570  -22.0880 C   0  0  0  0  0  0  0  0  0  0  0  0
   -5.1170   -6.3630  -23.1470 C   0  0  0  0  0  0  0  0  0  0  0  0
   -4.6950   -7.3340  -23.3940 H   0  0  0  0  0  0  0  0  0  0  0  0
   -4.4450   -5.5110  -23.2580 H   0  0  0  0  0  0  0  0  0  0  0  0
   -6.1820   -5.3380  -21.5110 H   0  0  0  0  0  0  0  0  0  0  0  0
   -6.5090   -7.1750  -21.6170 H   0  0  0  0  0  0  0  0  0  0  0  0
   -7.9010   -6.0570  -25.5860 H   0  0  0  0  0  0  0  0  0  0  0  0
   -8.2150   -8.5650  -26.5230 H   0  0  0  0  0  0  0  0  0  0  0  0
   -9.6150   -8.3860  -25.3990 H   0  0  0  0  0  0  0  0  0  0  0  0
   -9.3510   -7.2430  -26.7250 H   0  0  0  0  0  0  0  0  0  0  0  0
  1  2  1  0  0  0  0
  1 58  1  0  0  0  0
  1 59  1  0  0  0  0
  1 60  1  0  0  0  0
  2  3  1  0  0  0  0
  2 57  1  0  0  0  0
  3  4  2  0  0  0  0
  3  5  1  0  0  0  0
  5  6  1  0  0  0  0
  5 51  1  0  0  0  0
  5 52  1  0  0  0  0
  6  7  1  0  0  0  0
  6 44  1  0  0  0  0
  7  8  1  0  0  0  0
  7 49  1  0  0  0  0
  7 50  1  0  0  0  0
  8  9  1  1  0  0  0
  8 29  1  0  0  0  0
  8 37  1  0  0  0  0
  9 10  2  0  0  0  0
  9 11  1  0  0  0  0
 11 12  1  0  0  0  0
 11 28  1  0  0  0  0
 12 13  2  0  0  0  0
 12 21  1  0  0  0  0
 13 14  1  0  0  0  0
 13 27  1  0  0  0  0
 14 15  2  0  0  0  0
 15 16  1  0  0  0  0
 15 26  1  0  0  0  0
 16 17  2  0  0  0  0
 16 21  1  0  0  0  0
 17 18  1  0  0  0  0
 17 25  1  0  0  0  0
 18 19  2  0  0  0  0
 18 24  1  0  0  0  0
 19 20  1  0  0  0  0
 19 23  1  0  0  0  0
 20 21  2  0  0  0  0
 20 22  1  0  0  0  0
 28 29  1  0  0  0  0
 28 35  1  0  0  0  0
 28 36  1  0  0  0  0
 29 30  1  0  0  0  0
 29 34  1  6  0  0  0
 30 31  1  0  0  0  0
 30 32  1  0  0  0  0
 30 33  1  0  0  0  0
 37 38  2  0  0  0  0
 37 43  1  0  0  0  0
 38 39  1  0  0  0  0
 38 48  1  0  0  0  0
 39 40  1  0  0  0  0
 39 41  2  0  0  0  0
 41 42  1  0  0  0  0
 41 47  1  0  0  0  0
 42 43  2  0  0  0  0
 42 46  1  0  0  0  0
 43 44  1  0  0  0  0
 44 45  2  0  0  0  0
 51 52  1  0  0  0  0
 51 55  1  0  0  0  0
 51 56  1  0  0  0  0
 52 53  1  0  0  0  0
 52 54  1  0  0  0  0
M  END
>  <MODEL>
       1

$$$$
