tmp_first_model_12_75.pdb
 OpenBabel08272523333D

 66 71  0  0  1  0  0  0  0  0999 V2000
   -7.4190    3.3990  -21.8960 C   0  0  0  0  0  0  0  0  0  0  0  0
   -8.3520    2.9150  -22.9070 N   0  0  0  0  0  0  0  0  0  0  0  0
   -7.8040    2.1740  -23.9220 C   0  0  0  0  0  0  0  0  0  0  0  0
   -6.5980    2.0110  -24.0480 O   0  0  0  0  0  0  0  0  0  0  0  0
   -8.7940    1.5530  -24.9040 C   0  0  0  0  0  0  0  0  0  0  0  0
   -9.4460    0.4050  -24.3100 N   0  0  0  0  0  0  0  0  0  0  0  0
   -8.6910   -0.8310  -24.1600 C   0  0  0  0  0  0  0  0  0  0  0  0
   -9.0640   -1.5680  -22.8510 C   0  0  2  0  0  0  0  0  0  0  0  0
   -8.5460   -0.7760  -21.6300 C   0  0  0  0  0  0  0  0  0  0  0  0
   -9.0370    0.2140  -21.1270 O   0  0  0  0  0  0  0  0  0  0  0  0
   -7.3920   -1.3750  -21.1910 N   0  0  0  0  0  0  0  0  0  0  0  0
   -6.6160   -0.7840  -20.1680 C   0  0  0  0  0  0  0  0  0  0  0  0
   -6.9240   -1.0420  -18.8590 C   0  0  0  0  0  0  0  0  0  0  0  0
   -6.2250   -0.5660  -17.8000 N   0  0  0  0  0  0  0  0  0  0  0  0
   -5.2000    0.2100  -18.0580 C   0  0  0  0  0  0  0  0  0  0  0  0
   -4.7860    0.5770  -19.3720 C   0  0  0  0  0  0  0  0  0  0  0  0
   -3.6490    1.3950  -19.6090 C   0  0  0  0  0  0  0  0  0  0  0  0
   -3.3050    1.7550  -20.8830 C   0  0  0  0  0  0  0  0  0  0  0  0
   -4.0860    1.3370  -21.9810 C   0  0  0  0  0  0  0  0  0  0  0  0
   -5.1710    0.5120  -21.7850 C   0  0  0  0  0  0  0  0  0  0  0  0
   -5.5290    0.0890  -20.4730 C   0  0  0  0  0  0  0  0  0  0  0  0
   -5.7610    0.1980  -22.6420 H   0  0  0  0  0  0  0  0  0  0  0  0
   -3.8310    1.6630  -22.9870 H   0  0  0  0  0  0  0  0  0  0  0  0
   -2.4270    2.3710  -21.0540 H   0  0  0  0  0  0  0  0  0  0  0  0
   -3.0740    1.7290  -18.7510 H   0  0  0  0  0  0  0  0  0  0  0  0
   -4.6210    0.5770  -17.2090 H   0  0  0  0  0  0  0  0  0  0  0  0
   -7.7800   -1.6740  -18.6310 H   0  0  0  0  0  0  0  0  0  0  0  0
   -7.0080   -2.5570  -21.9300 C   0  0  0  0  0  0  0  0  0  0  0  0
   -8.2930   -2.9160  -22.7000 C   0  0  2  0  0  0  0  0  0  0  0  0
   -8.0100   -3.7180  -23.9850 C   0  0  0  0  0  0  0  0  0  0  0  0
   -7.5000   -5.0540  -23.7500 N   0  0  0  0  0  0  0  0  0  0  0  0
   -6.1950   -5.3850  -23.4870 C   0  0  0  0  0  0  0  0  0  0  0  0
   -5.0780   -4.6090  -23.8900 C   0  0  0  0  0  0  0  0  0  0  0  0
   -3.8300   -4.9620  -23.6130 N   0  0  0  0  0  0  0  0  0  0  0  0
   -3.6640   -6.1040  -22.9410 C   0  0  0  0  0  0  0  0  0  0  0  0
   -4.7480   -6.8760  -22.5620 C   0  0  0  0  0  0  0  0  0  0  0  0
   -6.0050   -6.5350  -22.8370 N   0  0  0  0  0  0  0  0  0  0  0  0
   -4.6210   -7.8050  -22.0060 H   0  0  0  0  0  0  0  0  0  0  0  0
   -2.6450   -6.4080  -22.7090 H   0  0  0  0  0  0  0  0  0  0  0  0
   -5.2120   -3.6850  -24.4480 H   0  0  0  0  0  0  0  0  0  0  0  0
   -8.1500   -5.7540  -23.4130 H   0  0  0  0  0  0  0  0  0  0  0  0
   -7.2730   -3.1840  -24.5920 H   0  0  0  0  0  0  0  0  0  0  0  0
   -8.9150   -3.8040  -24.6010 H   0  0  0  0  0  0  0  0  0  0  0  0
   -8.8900   -3.5610  -22.0490 H   0  0  0  0  0  0  0  0  0  0  0  0
   -6.6880   -3.3500  -21.2470 H   0  0  0  0  0  0  0  0  0  0  0  0
   -6.1680   -2.3490  -22.6140 H   0  0  0  0  0  0  0  0  0  0  0  0
  -10.5740   -1.6510  -22.7830 C   0  0  0  0  0  0  0  0  0  0  0  0
  -11.1900   -2.5770  -21.9410 C   0  0  0  0  0  0  0  0  0  0  0  0
  -12.5660   -2.5930  -21.8190 C   0  0  0  0  0  0  0  0  0  0  0  0
  -13.2800   -3.7040  -20.6920 Cl  0  0  0  0  0  0  0  0  0  0  0  0
  -13.3850   -1.7170  -22.5310 C   0  0  0  0  0  0  0  0  0  0  0  0
  -12.7790   -0.7710  -23.3280 C   0  0  0  0  0  0  0  0  0  0  0  0
  -11.3920   -0.7180  -23.4310 C   0  0  0  0  0  0  0  0  0  0  0  0
  -10.8090    0.4180  -24.2040 C   0  0  0  0  0  0  0  0  0  0  0  0
  -11.5000    1.3100  -24.6730 O   0  0  0  0  0  0  0  0  0  0  0  0
  -13.3520   -0.0390  -23.8830 H   0  0  0  0  0  0  0  0  0  0  0  0
  -14.4640   -1.7830  -22.4430 H   0  0  0  0  0  0  0  0  0  0  0  0
  -10.6150   -3.2900  -21.3630 H   0  0  0  0  0  0  0  0  0  0  0  0
   -8.9090   -1.4970  -25.0050 H   0  0  0  0  0  0  0  0  0  0  0  0
   -7.6210   -0.5930  -24.1870 H   0  0  0  0  0  0  0  0  0  0  0  0
   -8.2400    1.2530  -25.8010 H   0  0  0  0  0  0  0  0  0  0  0  0
   -9.5780    2.2650  -25.1840 H   0  0  0  0  0  0  0  0  0  0  0  0
   -9.2820    2.6730  -22.5880 H   0  0  0  0  0  0  0  0  0  0  0  0
   -6.9200    2.5540  -21.3900 H   0  0  0  0  0  0  0  0  0  0  0  0
   -6.6570    4.0070  -22.3880 H   0  0  0  0  0  0  0  0  0  0  0  0
   -7.9310    4.0350  -21.1670 H   0  0  0  0  0  0  0  0  0  0  0  0
  1  2  1  0  0  0  0
  1 64  1  0  0  0  0
  1 65  1  0  0  0  0
  1 66  1  0  0  0  0
  2  3  1  0  0  0  0
  2 63  1  0  0  0  0
  3  4  2  0  0  0  0
  3  5  1  0  0  0  0
  5  6  1  0  0  0  0
  5 61  1  0  0  0  0
  5 62  1  0  0  0  0
  6  7  1  0  0  0  0
  6 54  1  0  0  0  0
  7  8  1  0  0  0  0
  7 59  1  0  0  0  0
  7 60  1  0  0  0  0
  8  9  1  1  0  0  0
  8 29  1  0  0  0  0
  8 47  1  0  0  0  0
  9 10  2  0  0  0  0
  9 11  1  0  0  0  0
 11 12  1  0  0  0  0
 11 28  1  0  0  0  0
 12 13  2  0  0  0  0
 12 21  1  0  0  0  0
 13 14  1  0  0  0  0
 13 27  1  0  0  0  0
 14 15  2  0  0  0  0
 15 16  1  0  0  0  0
 15 26  1  0  0  0  0
 16 17  2  0  0  0  0
 16 21  1  0  0  0  0
 17 18  1  0  0  0  0
 17 25  1  0  0  0  0
 18 19  2  0  0  0  0
 18 24  1  0  0  0  0
 19 20  1  0  0  0  0
 19 23  1  0  0  0  0
 20 21  2  0  0  0  0
 20 22  1  0  0  0  0
 28 29  1  0  0  0  0
 28 45  1  0  0  0  0
 28 46  1  0  0  0  0
 29 30  1  0  0  0  0
 29 44  1  1  0  0  0
 30 31  1  0  0  0  0
 30 42  1  0  0  0  0
 30 43  1  0  0  0  0
 31 32  1  0  0  0  0
 31 41  1  0  0  0  0
 32 33  2  0  0  0  0
 32 37  1  0  0  0  0
 33 34  1  0  0  0  0
 33 40  1  0  0  0  0
 34 35  2  0  0  0  0
 35 36  1  0  0  0  0
 35 39  1  0  0  0  0
 36 37  2  0  0  0  0
 36 38  1  0  0  0  0
 47 48  2  0  0  0  0
 47 53  1  0  0  0  0
 48 49  1  0  0  0  0
 48 58  1  0  0  0  0
 49 50  1  0  0  0  0
 49 51  2  0  0  0  0
 51 52  1  0  0  0  0
 51 57  1  0  0  0  0
 52 53  2  0  0  0  0
 52 56  1  0  0  0  0
 53 54  1  0  0  0  0
 54 55  2  0  0  0  0
M  END
>  <MODEL>
       1

$$$$
