tmp_first_model_15_23.pdb
 OpenBabel08282501153D

 68 73  0  0  1  0  0  0  0  0999 V2000
  -10.4800    1.5680  -27.0820 C   0  0  0  0  0  0  0  0  0  0  0  0
   -9.8710    0.3690  -26.5370 N   0  0  0  0  0  0  0  0  0  0  0  0
  -10.4130   -0.8360  -26.8640 C   0  0  0  0  0  0  0  0  0  0  0  0
  -11.3310   -0.9020  -27.6630 O   0  0  0  0  0  0  0  0  0  0  0  0
   -9.7900   -2.0780  -26.1940 C   0  0  0  0  0  0  0  0  0  0  0  0
  -10.0620   -2.2670  -24.7700 N   0  0  0  0  0  0  0  0  0  0  0  0
   -9.2650   -1.5370  -23.7840 C   0  0  0  0  0  0  0  0  0  0  0  0
   -8.9700   -2.3290  -22.4900 C   0  0  2  0  0  0  0  0  0  0  0  0
   -8.4590   -1.3290  -21.4610 C   0  0  0  0  0  0  0  0  0  0  0  0
   -9.1200   -0.4390  -20.9580 O   0  0  0  0  0  0  0  0  0  0  0  0
   -7.1410   -1.5910  -21.1960 N   0  0  0  0  0  0  0  0  0  0  0  0
   -6.4730   -0.8950  -20.1600 C   0  0  0  0  0  0  0  0  0  0  0  0
   -6.8660   -1.0500  -18.8550 C   0  0  0  0  0  0  0  0  0  0  0  0
   -6.2080   -0.5120  -17.7970 N   0  0  0  0  0  0  0  0  0  0  0  0
   -5.1570    0.2330  -18.0530 C   0  0  0  0  0  0  0  0  0  0  0  0
   -4.6840    0.5280  -19.3650 C   0  0  0  0  0  0  0  0  0  0  0  0
   -3.5690    1.3760  -19.6060 C   0  0  0  0  0  0  0  0  0  0  0  0
   -3.1920    1.6740  -20.8870 C   0  0  0  0  0  0  0  0  0  0  0  0
   -3.9140    1.1570  -21.9860 C   0  0  0  0  0  0  0  0  0  0  0  0
   -4.9910    0.3300  -21.7790 C   0  0  0  0  0  0  0  0  0  0  0  0
   -5.3800   -0.0260  -20.4610 C   0  0  0  0  0  0  0  0  0  0  0  0
   -5.5710   -0.0360  -22.6210 H   0  0  0  0  0  0  0  0  0  0  0  0
   -3.6230    1.4200  -22.9990 H   0  0  0  0  0  0  0  0  0  0  0  0
   -2.3440    2.3270  -21.0710 H   0  0  0  0  0  0  0  0  0  0  0  0
   -3.0430    1.7980  -18.7530 H   0  0  0  0  0  0  0  0  0  0  0  0
   -4.6270    0.6540  -17.1970 H   0  0  0  0  0  0  0  0  0  0  0  0
   -7.7430   -1.6480  -18.6110 H   0  0  0  0  0  0  0  0  0  0  0  0
   -6.5890   -2.6720  -22.0050 C   0  0  0  0  0  0  0  0  0  0  0  0
   -7.8310   -3.4030  -22.5490 C   0  0  2  0  0  0  0  0  0  0  0  0
   -7.6020   -4.0970  -23.8940 C   0  0  0  0  0  0  0  0  0  0  0  0
   -8.7050   -4.9900  -24.2020 N   0  0  0  0  0  0  0  0  0  0  0  0
   -8.8780   -5.4450  -25.5010 C   0  0  0  0  0  0  0  0  0  0  0  0
  -10.1160   -5.9830  -25.8880 C   0  0  0  0  0  0  0  0  0  0  0  0
  -10.3200   -6.4680  -27.1710 C   0  0  0  0  0  0  0  0  0  0  0  0
   -9.3030   -6.4130  -28.1190 C   0  0  0  0  0  0  0  0  0  0  0  0
   -8.0760   -5.8730  -27.7510 C   0  0  0  0  0  0  0  0  0  0  0  0
   -7.8530   -5.4000  -26.4610 C   0  0  0  0  0  0  0  0  0  0  0  0
   -6.8780   -4.9950  -26.2050 H   0  0  0  0  0  0  0  0  0  0  0  0
   -7.2720   -5.8080  -28.4810 H   0  0  0  0  0  0  0  0  0  0  0  0
   -9.4670   -6.7880  -29.1260 H   0  0  0  0  0  0  0  0  0  0  0  0
  -11.2880   -6.8900  -27.4350 H   0  0  0  0  0  0  0  0  0  0  0  0
  -10.9340   -6.0290  -25.1770 H   0  0  0  0  0  0  0  0  0  0  0  0
   -9.5860   -4.7570  -23.7250 H   0  0  0  0  0  0  0  0  0  0  0  0
   -6.6670   -4.6750  -23.8550 H   0  0  0  0  0  0  0  0  0  0  0  0
   -7.4670   -3.3380  -24.6830 H   0  0  0  0  0  0  0  0  0  0  0  0
   -8.0920   -4.1890  -21.8290 H   0  0  0  0  0  0  0  0  0  0  0  0
   -5.9570   -3.3250  -21.3940 H   0  0  0  0  0  0  0  0  0  0  0  0
   -5.9710   -2.2780  -22.8240 H   0  0  0  0  0  0  0  0  0  0  0  0
  -10.2780   -2.8870  -21.9470 C   0  0  0  0  0  0  0  0  0  0  0  0
  -10.6550   -4.1430  -22.3740 C   0  0  0  0  0  0  0  0  0  0  0  0
  -13.0760   -3.8900  -21.1790 C   0  0  0  0  0  0  0  0  0  0  0  0
  -13.8830   -4.6430  -23.3780 Cl  0  0  0  0  0  0  0  0  0  0  0  0
  -13.0400   -3.7300  -21.0150 C   0  0  0  0  0  0  0  0  0  0  0  0
  -12.9520   -3.2790  -22.5150 C   0  0  0  0  0  0  0  0  0  0  0  0
  -11.4970   -3.2810  -23.0420 C   0  0  0  0  0  0  0  0  0  0  0  0
  -11.3200   -2.7400  -24.4330 C   0  0  0  0  0  0  0  0  0  0  0  0
  -12.2540   -2.6930  -25.2080 O   0  0  0  0  0  0  0  0  0  0  0  0
  -13.4450   -2.3410  -22.8860 H   0  0  0  0  0  0  0  0  0  0  0  0
  -13.6180   -4.6260  -20.3400 H   0  0  0  0  0  0  0  0  0  0  0  0
  -10.6800   -2.4440  -21.0150 H   0  0  0  0  0  0  0  0  0  0  0  0
   -8.3180   -1.2310  -24.2390 H   0  0  0  0  0  0  0  0  0  0  0  0
   -9.8070   -0.6390  -23.4520 H   0  0  0  0  0  0  0  0  0  0  0  0
   -8.6980   -2.0490  -26.3120 H   0  0  0  0  0  0  0  0  0  0  0  0
  -10.1640   -2.9470  -26.7380 H   0  0  0  0  0  0  0  0  0  0  0  0
   -9.0030    0.4420  -26.0310 H   0  0  0  0  0  0  0  0  0  0  0  0
  -11.4720    1.7230  -26.6470 H   0  0  0  0  0  0  0  0  0  0  0  0
   -9.8510    2.4290  -26.8520 H   0  0  0  0  0  0  0  0  0  0  0  0
  -10.6010    1.4750  -28.1640 H   0  0  0  0  0  0  0  0  0  0  0  0
  1  2  1  0  0  0  0
  1 66  1  0  0  0  0
  1 67  1  0  0  0  0
  1 68  1  0  0  0  0
  2  3  1  0  0  0  0
  2 65  1  0  0  0  0
  3  4  2  0  0  0  0
  3  5  1  0  0  0  0
  5  6  1  0  0  0  0
  5 63  1  0  0  0  0
  5 64  1  0  0  0  0
  6  7  1  0  0  0  0
  6 56  1  0  0  0  0
  7  8  1  0  0  0  0
  7 61  1  0  0  0  0
  7 62  1  0  0  0  0
  8  9  1  1  0  0  0
  8 29  1  0  0  0  0
  8 49  1  0  0  0  0
  9 10  2  0  0  0  0
  9 11  1  0  0  0  0
 11 12  1  0  0  0  0
 11 28  1  0  0  0  0
 12 13  2  0  0  0  0
 12 21  1  0  0  0  0
 13 14  1  0  0  0  0
 13 27  1  0  0  0  0
 14 15  2  0  0  0  0
 15 16  1  0  0  0  0
 15 26  1  0  0  0  0
 16 17  2  0  0  0  0
 16 21  1  0  0  0  0
 17 18  1  0  0  0  0
 17 25  1  0  0  0  0
 18 19  2  0  0  0  0
 18 24  1  0  0  0  0
 19 20  1  0  0  0  0
 19 23  1  0  0  0  0
 20 21  2  0  0  0  0
 20 22  1  0  0  0  0
 28 29  1  0  0  0  0
 28 47  1  0  0  0  0
 28 48  1  0  0  0  0
 29 30  1  0  0  0  0
 29 46  1  1  0  0  0
 30 31  1  0  0  0  0
 30 44  1  0  0  0  0
 30 45  1  0  0  0  0
 31 32  1  0  0  0  0
 31 43  1  0  0  0  0
 32 33  2  0  0  0  0
 32 37  1  0  0  0  0
 33 34  1  0  0  0  0
 33 42  1  0  0  0  0
 34 35  2  0  0  0  0
 34 41  1  0  0  0  0
 35 36  1  0  0  0  0
 35 40  1  0  0  0  0
 36 37  2  0  0  0  0
 36 39  1  0  0  0  0
 37 38  1  0  0  0  0
 49 50  2  0  0  0  0
 49 55  1  0  0  0  0
 50 51  1  0  0  0  0
 50 60  1  0  0  0  0
 51 52  1  0  0  0  0
 51 53  2  0  0  0  0
 53 54  1  0  0  0  0
 53 59  1  0  0  0  0
 54 55  2  0  0  0  0
 54 58  1  0  0  0  0
 55 56  1  0  0  0  0
 56 57  2  0  0  0  0
M  END
>  <MODEL>
       1

$$$$
