tmp_first_model_4_82.pdb
 OpenBabel08272518513D

 54 57  0  0  1  0  0  0  0  0999 V2000
  -10.6870    0.3580  -25.3900 C   0  0  0  0  0  0  0  0  0  0  0  0
   -9.8140   -0.6300  -24.9050 O   0  0  0  0  0  0  0  0  0  0  0  0
   -8.4900   -0.5230  -25.2040 C   0  0  0  0  0  0  0  0  0  0  0  0
   -7.9570    0.5110  -25.9770 C   0  0  0  0  0  0  0  0  0  0  0  0
   -6.5890    0.5410  -26.2400 C   0  0  0  0  0  0  0  0  0  0  0  0
   -5.7660   -0.4520  -25.7260 C   0  0  0  0  0  0  0  0  0  0  0  0
   -6.3120   -1.4700  -24.9400 C   0  0  0  0  0  0  0  0  0  0  0  0
   -7.6720   -1.5390  -24.6720 C   0  0  0  0  0  0  0  0  0  0  0  0
   -8.3210   -2.6520  -23.8380 C   0  0  1  0  0  0  0  0  0  0  0  0
   -9.1550   -3.6370  -24.6820 C   0  0  0  0  0  0  0  0  0  0  0  0
   -8.4080   -4.8440  -25.2620 C   0  0  1  0  0  0  0  0  0  0  0  0
   -7.5060   -4.5220  -26.4580 C   0  0  0  0  0  0  0  0  0  0  0  0
   -6.6820   -3.8510  -26.1960 H   0  0  0  0  0  0  0  0  0  0  0  0
   -7.0680   -5.4380  -26.8730 H   0  0  0  0  0  0  0  0  0  0  0  0
   -8.0780   -4.0420  -27.2590 H   0  0  0  0  0  0  0  0  0  0  0  0
   -7.6720   -5.5410  -24.1160 C   0  0  0  0  0  0  0  0  0  0  0  0
   -6.7220   -4.5960  -23.4050 C   0  0  0  0  0  0  0  0  0  0  0  0
   -7.3820   -3.3690  -22.9650 N   0  0  0  0  0  0  0  0  0  0  0  0
   -6.7640   -2.7610  -21.9030 C   0  0  0  0  0  0  0  0  0  0  0  0
   -5.7420   -3.2140  -21.4090 O   0  0  0  0  0  0  0  0  0  0  0  0
   -7.4020   -1.5010  -21.3100 C   0  0  0  0  0  0  0  0  0  0  0  0
   -6.5040   -0.9900  -20.2290 C   0  0  0  0  0  0  0  0  0  0  0  0
   -6.7590   -1.2690  -18.9150 C   0  0  0  0  0  0  0  0  0  0  0  0
   -5.9440   -0.9760  -17.8720 N   0  0  0  0  0  0  0  0  0  0  0  0
   -4.8360   -0.3330  -18.1500 C   0  0  0  0  0  0  0  0  0  0  0  0
   -4.4500    0.0520  -19.4630 C   0  0  0  0  0  0  0  0  0  0  0  0
   -3.3010    0.8480  -19.7090 C   0  0  0  0  0  0  0  0  0  0  0  0
   -3.0560    1.3510  -20.9590 C   0  0  0  0  0  0  0  0  0  0  0  0
   -3.8910    0.9860  -22.0380 C   0  0  0  0  0  0  0  0  0  0  0  0
   -4.9670    0.1590  -21.8450 C   0  0  0  0  0  0  0  0  0  0  0  0
   -5.3080   -0.2870  -20.5380 C   0  0  0  0  0  0  0  0  0  0  0  0
   -5.6330   -0.0660  -22.6750 H   0  0  0  0  0  0  0  0  0  0  0  0
   -3.6960    1.3890  -23.0290 H   0  0  0  0  0  0  0  0  0  0  0  0
   -2.2700    2.0820  -21.1160 H   0  0  0  0  0  0  0  0  0  0  0  0
   -2.6690    1.1210  -18.8670 H   0  0  0  0  0  0  0  0  0  0  0  0
   -4.2080   -0.0580  -17.3020 H   0  0  0  0  0  0  0  0  0  0  0  0
   -7.7090   -1.7250  -18.6450 H   0  0  0  0  0  0  0  0  0  0  0  0
   -7.5910   -0.7640  -22.1000 H   0  0  0  0  0  0  0  0  0  0  0  0
   -8.3830   -1.7720  -20.9010 H   0  0  0  0  0  0  0  0  0  0  0  0
   -6.3210   -5.0610  -22.5030 H   0  0  0  0  0  0  0  0  0  0  0  0
   -5.8600   -4.3640  -24.0490 H   0  0  0  0  0  0  0  0  0  0  0  0
   -8.4090   -5.9120  -23.3940 H   0  0  0  0  0  0  0  0  0  0  0  0
   -7.1050   -6.4100  -24.4760 H   0  0  0  0  0  0  0  0  0  0  0  0
   -9.1800   -5.5370  -25.6250 H   0  0  0  0  0  0  0  0  0  0  0  0
   -9.6510   -3.0660  -25.4740 H   0  0  0  0  0  0  0  0  0  0  0  0
   -9.9390   -4.0260  -24.0220 H   0  0  0  0  0  0  0  0  0  0  0  0
   -9.0460   -2.1550  -23.1810 H   0  0  0  0  0  0  0  0  0  0  0  0
   -5.6510   -2.2380  -24.5400 H   0  0  0  0  0  0  0  0  0  0  0  0
   -4.7000   -0.4480  -25.9300 H   0  0  0  0  0  0  0  0  0  0  0  0
   -6.1790    1.3450  -26.8500 H   0  0  0  0  0  0  0  0  0  0  0  0
   -8.6090    1.2810  -26.3790 H   0  0  0  0  0  0  0  0  0  0  0  0
  -11.6760    0.0780  -25.0240 H   0  0  0  0  0  0  0  0  0  0  0  0
  -10.6930    0.3900  -26.4880 H   0  0  0  0  0  0  0  0  0  0  0  0
  -10.4180    1.3510  -25.0070 H   0  0  0  0  0  0  0  0  0  0  0  0
  1  2  1  0  0  0  0
  1 52  1  0  0  0  0
  1 53  1  0  0  0  0
  1 54  1  0  0  0  0
  2  3  1  0  0  0  0
  3  4  2  0  0  0  0
  3  8  1  0  0  0  0
  4  5  1  0  0  0  0
  4 51  1  0  0  0  0
  5  6  2  0  0  0  0
  5 50  1  0  0  0  0
  6  7  1  0  0  0  0
  6 49  1  0  0  0  0
  7  8  2  0  0  0  0
  7 48  1  0  0  0  0
  8  9  1  0  0  0  0
  9 10  1  0  0  0  0
  9 18  1  0  0  0  0
  9 47  1  1  0  0  0
 10 11  1  0  0  0  0
 10 45  1  0  0  0  0
 10 46  1  0  0  0  0
 11 12  1  0  0  0  0
 11 16  1  0  0  0  0
 11 44  1  6  0  0  0
 12 13  1  0  0  0  0
 12 14  1  0  0  0  0
 12 15  1  0  0  0  0
 16 17  1  0  0  0  0
 16 42  1  0  0  0  0
 16 43  1  0  0  0  0
 17 18  1  0  0  0  0
 17 40  1  0  0  0  0
 17 41  1  0  0  0  0
 18 19  1  0  0  0  0
 19 20  2  0  0  0  0
 19 21  1  0  0  0  0
 21 22  1  0  0  0  0
 21 38  1  0  0  0  0
 21 39  1  0  0  0  0
 22 23  2  0  0  0  0
 22 31  1  0  0  0  0
 23 24  1  0  0  0  0
 23 37  1  0  0  0  0
 24 25  2  0  0  0  0
 25 26  1  0  0  0  0
 25 36  1  0  0  0  0
 26 27  2  0  0  0  0
 26 31  1  0  0  0  0
 27 28  1  0  0  0  0
 27 35  1  0  0  0  0
 28 29  2  0  0  0  0
 28 34  1  0  0  0  0
 29 30  1  0  0  0  0
 29 33  1  0  0  0  0
 30 31  2  0  0  0  0
 30 32  1  0  0  0  0
M  END
>  <MODEL>
       1

$$$$
