tmp_first_model_13_64.pdb
 OpenBabel08282500103D

 55 60  0  0  1  0  0  0  0  0999 V2000
  -10.4590   -1.1310  -23.2880 C   0  0  0  0  0  0  0  0  0  0  0  0
   -9.0110   -1.4720  -22.9480 C   0  0  1  0  0  0  0  0  0  0  0  0
   -8.4000   -0.5180  -21.9070 C   0  0  0  0  0  0  0  0  0  0  0  0
   -7.3980   -1.3390  -21.2430 N   0  0  0  0  0  0  0  0  0  0  0  0
   -6.5790   -0.8450  -20.1980 C   0  0  0  0  0  0  0  0  0  0  0  0
   -6.8840   -1.0940  -18.8840 C   0  0  0  0  0  0  0  0  0  0  0  0
   -6.2070   -0.5650  -17.8350 N   0  0  0  0  0  0  0  0  0  0  0  0
   -5.1910    0.2150  -18.0950 C   0  0  0  0  0  0  0  0  0  0  0  0
   -4.7450    0.5290  -19.4090 C   0  0  0  0  0  0  0  0  0  0  0  0
   -3.6160    1.3540  -19.6450 C   0  0  0  0  0  0  0  0  0  0  0  0
   -3.2140    1.6180  -20.9240 C   0  0  0  0  0  0  0  0  0  0  0  0
   -3.9160    1.0690  -22.0210 C   0  0  0  0  0  0  0  0  0  0  0  0
   -5.0130    0.2680  -21.8190 C   0  0  0  0  0  0  0  0  0  0  0  0
   -5.4580   -0.0130  -20.5020 C   0  0  0  0  0  0  0  0  0  0  0  0
   -5.5350   -0.1710  -22.6630 H   0  0  0  0  0  0  0  0  0  0  0  0
   -3.5850    1.2810  -23.0330 H   0  0  0  0  0  0  0  0  0  0  0  0
   -2.3570    2.2580  -21.1080 H   0  0  0  0  0  0  0  0  0  0  0  0
   -3.0860    1.7670  -18.7900 H   0  0  0  0  0  0  0  0  0  0  0  0
   -4.6520    0.6320  -17.2420 H   0  0  0  0  0  0  0  0  0  0  0  0
   -7.7250   -1.7350  -18.6320 H   0  0  0  0  0  0  0  0  0  0  0  0
   -7.5630   -2.6930  -21.4530 C   0  0  0  0  0  0  0  0  0  0  0  0
   -6.8350   -3.5560  -21.0040 O   0  0  0  0  0  0  0  0  0  0  0  0
   -8.7790   -2.9100  -22.3590 C   0  0  1  0  0  0  0  0  0  0  0  0
   -9.9710   -3.3720  -21.4850 C   0  0  0  0  0  0  0  0  0  0  0  0
  -11.0990   -3.8510  -22.2830 N   0  0  0  0  0  0  0  0  0  0  0  0
  -12.4720   -3.7550  -21.7990 C   0  0  0  0  0  0  0  0  0  0  0  0
  -13.2970   -2.6850  -22.4530 C   0  0  0  0  0  0  0  0  0  0  0  0
  -13.7900   -2.8610  -23.7130 N   0  0  0  0  0  0  0  0  0  0  0  0
  -14.5670   -1.8140  -23.8720 C   0  0  0  0  0  0  0  0  0  0  0  0
  -14.5250   -1.0390  -22.7790 N   0  0  0  0  0  0  0  0  0  0  0  0
  -13.7070   -1.5850  -21.8490 N   0  0  0  0  0  0  0  0  0  0  0  0
  -15.0570   -0.2130  -22.5830 H   0  0  0  0  0  0  0  0  0  0  0  0
  -15.2110   -1.6200  -24.7130 H   0  0  0  0  0  0  0  0  0  0  0  0
  -12.4900   -3.6750  -20.7080 H   0  0  0  0  0  0  0  0  0  0  0  0
  -12.9570   -4.6800  -22.1240 H   0  0  0  0  0  0  0  0  0  0  0  0
  -10.9100   -4.6580  -23.3760 C   0  0  0  0  0  0  0  0  0  0  0  0
  -11.8350   -5.2180  -23.9480 O   0  0  0  0  0  0  0  0  0  0  0  0
   -9.5110   -4.8080  -23.8610 C   0  0  0  0  0  0  0  0  0  0  0  0
   -9.2620   -5.7800  -24.8320 C   0  0  0  0  0  0  0  0  0  0  0  0
   -8.0090   -5.9080  -25.3970 C   0  0  0  0  0  0  0  0  0  0  0  0
   -7.0140   -5.0400  -24.9600 C   0  0  0  0  0  0  0  0  0  0  0  0
   -5.7940   -5.1420  -25.5100 F   0  0  0  0  0  0  0  0  0  0  0  0
   -7.2250   -4.0930  -23.9750 C   0  0  0  0  0  0  0  0  0  0  0  0
   -8.4960   -3.9690  -23.4010 C   0  0  0  0  0  0  0  0  0  0  0  0
   -6.3900   -3.4870  -23.6430 H   0  0  0  0  0  0  0  0  0  0  0  0
   -7.7970   -6.6590  -26.1530 H   0  0  0  0  0  0  0  0  0  0  0  0
  -10.0800   -6.4220  -25.1440 H   0  0  0  0  0  0  0  0  0  0  0  0
   -9.6450   -4.1680  -20.8040 H   0  0  0  0  0  0  0  0  0  0  0  0
  -10.2890   -2.5020  -20.9000 H   0  0  0  0  0  0  0  0  0  0  0  0
   -7.9400    0.3600  -22.3720 H   0  0  0  0  0  0  0  0  0  0  0  0
   -9.1620   -0.1520  -21.1960 H   0  0  0  0  0  0  0  0  0  0  0  0
   -8.4030   -1.4290  -23.8630 H   0  0  0  0  0  0  0  0  0  0  0  0
  -11.0660   -1.0870  -22.3770 H   0  0  0  0  0  0  0  0  0  0  0  0
  -10.5380   -0.1660  -23.7970 H   0  0  0  0  0  0  0  0  0  0  0  0
  -10.8900   -1.9060  -23.9280 H   0  0  0  0  0  0  0  0  0  0  0  0
  1  2  1  0  0  0  0
  1 53  1  0  0  0  0
  1 54  1  0  0  0  0
  1 55  1  0  0  0  0
  2  3  1  0  0  0  0
  2 23  1  0  0  0  0
  2 52  1  6  0  0  0
  3  4  1  0  0  0  0
  3 50  1  0  0  0  0
  3 51  1  0  0  0  0
  4  5  1  0  0  0  0
  4 21  1  0  0  0  0
  5  6  2  0  0  0  0
  5 14  1  0  0  0  0
  6  7  1  0  0  0  0
  6 20  1  0  0  0  0
  7  8  2  0  0  0  0
  8  9  1  0  0  0  0
  8 19  1  0  0  0  0
  9 10  2  0  0  0  0
  9 14  1  0  0  0  0
 10 11  1  0  0  0  0
 10 18  1  0  0  0  0
 11 12  2  0  0  0  0
 11 17  1  0  0  0  0
 12 13  1  0  0  0  0
 12 16  1  0  0  0  0
 13 14  2  0  0  0  0
 13 15  1  0  0  0  0
 21 22  2  0  0  0  0
 23 21  1  1  0  0  0
 23 24  1  0  0  0  0
 23 44  1  0  0  0  0
 24 25  1  0  0  0  0
 24 48  1  0  0  0  0
 24 49  1  0  0  0  0
 25 26  1  0  0  0  0
 25 36  1  0  0  0  0
 26 27  1  0  0  0  0
 26 34  1  0  0  0  0
 26 35  1  0  0  0  0
 27 28  1  0  0  0  0
 27 31  2  0  0  0  0
 28 29  2  0  0  0  0
 29 30  1  0  0  0  0
 29 33  1  0  0  0  0
 30 31  1  0  0  0  0
 30 32  1  0  0  0  0
 36 37  2  0  0  0  0
 36 38  1  0  0  0  0
 38 39  2  0  0  0  0
 38 44  1  0  0  0  0
 39 40  1  0  0  0  0
 39 47  1  0  0  0  0
 40 41  2  0  0  0  0
 40 46  1  0  0  0  0
 41 42  1  0  0  0  0
 41 43  1  0  0  0  0
 43 44  2  0  0  0  0
 43 45  1  0  0  0  0
M  END
>  <MODEL>
       1

$$$$
