tmp_first_model_13_9.pdb
 OpenBabel08282500103D

 41 43  0  0  1  0  0  0  0  0999 V2000
  -13.1790   -2.9270  -22.9030 C   0  0  0  0  0  0  0  0  0  0  0  0
  -11.9700   -2.0480  -23.2190 C   0  0  1  0  0  0  0  0  0  0  0  0
  -12.1570   -0.6590  -22.6470 C   0  0  0  0  0  0  0  0  0  0  0  0
  -11.3190    0.3570  -22.8370 C   0  0  0  0  0  0  0  0  0  0  0  0
  -10.0220    0.2180  -23.6040 C   0  0  0  0  0  0  0  0  0  0  0  0
   -9.0920   -0.7820  -23.0590 N   0  0  0  0  0  0  0  0  0  0  0  0
   -8.3790   -0.4050  -21.9310 C   0  0  0  0  0  0  0  0  0  0  0  0
   -8.4780    0.7180  -21.4720 O   0  0  0  0  0  0  0  0  0  0  0  0
   -7.4320   -1.4340  -21.2730 C   0  0  0  0  0  0  0  0  0  0  0  0
   -6.5790   -0.8280  -20.1820 C   0  0  0  0  0  0  0  0  0  0  0  0
   -6.8770   -1.0390  -18.8620 C   0  0  0  0  0  0  0  0  0  0  0  0
   -6.1880   -0.5330  -17.8050 N   0  0  0  0  0  0  0  0  0  0  0  0
   -5.1540    0.2230  -18.0680 C   0  0  0  0  0  0  0  0  0  0  0  0
   -4.7220    0.5370  -19.3830 C   0  0  0  0  0  0  0  0  0  0  0  0
   -3.5970    1.3670  -19.6230 C   0  0  0  0  0  0  0  0  0  0  0  0
   -3.2090    1.6590  -20.9020 C   0  0  0  0  0  0  0  0  0  0  0  0
   -3.9330    1.1300  -21.9930 C   0  0  0  0  0  0  0  0  0  0  0  0
   -5.0260    0.3230  -21.7870 C   0  0  0  0  0  0  0  0  0  0  0  0
   -5.4530    0.0020  -20.4730 C   0  0  0  0  0  0  0  0  0  0  0  0
   -5.5740   -0.0670  -22.6380 H   0  0  0  0  0  0  0  0  0  0  0  0
   -3.6240    1.3690  -23.0060 H   0  0  0  0  0  0  0  0  0  0  0  0
   -2.3530    2.3040  -21.0880 H   0  0  0  0  0  0  0  0  0  0  0  0
   -3.0560    1.7750  -18.7710 H   0  0  0  0  0  0  0  0  0  0  0  0
   -4.6010    0.6270  -17.2170 H   0  0  0  0  0  0  0  0  0  0  0  0
   -7.7280   -1.6590  -18.5830 H   0  0  0  0  0  0  0  0  0  0  0  0
   -6.7960   -1.8990  -22.0380 H   0  0  0  0  0  0  0  0  0  0  0  0
   -8.0410   -2.2440  -20.8450 H   0  0  0  0  0  0  0  0  0  0  0  0
   -9.3950   -2.1690  -23.3980 C   0  0  0  0  0  0  0  0  0  0  0  0
  -10.6670   -2.7290  -22.7530 C   0  0  0  0  0  0  0  0  0  0  0  0
  -10.5870   -2.6360  -21.6640 H   0  0  0  0  0  0  0  0  0  0  0  0
  -10.7250   -3.8070  -22.9660 H   0  0  0  0  0  0  0  0  0  0  0  0
   -8.5310   -2.7930  -23.1570 H   0  0  0  0  0  0  0  0  0  0  0  0
   -9.5110   -2.2200  -24.4860 H   0  0  0  0  0  0  0  0  0  0  0  0
  -10.2460   -0.0770  -24.6360 H   0  0  0  0  0  0  0  0  0  0  0  0
   -9.5080    1.1790  -23.6540 H   0  0  0  0  0  0  0  0  0  0  0  0
  -11.5320    1.3280  -22.3880 H   0  0  0  0  0  0  0  0  0  0  0  0
  -13.0290   -0.4950  -22.0120 H   0  0  0  0  0  0  0  0  0  0  0  0
  -11.9080   -1.9520  -24.3140 H   0  0  0  0  0  0  0  0  0  0  0  0
  -13.0970   -3.9090  -23.3850 H   0  0  0  0  0  0  0  0  0  0  0  0
  -13.2630   -3.0900  -21.8220 H   0  0  0  0  0  0  0  0  0  0  0  0
  -14.1060   -2.4560  -23.2510 H   0  0  0  0  0  0  0  0  0  0  0  0
  1  2  1  0  0  0  0
  1 39  1  0  0  0  0
  1 40  1  0  0  0  0
  1 41  1  0  0  0  0
  2  3  1  0  0  0  0
  2 29  1  0  0  0  0
  2 38  1  6  0  0  0
  3  4  2  0  0  0  0
  3 37  1  0  0  0  0
  4  5  1  0  0  0  0
  4 36  1  0  0  0  0
  5  6  1  0  0  0  0
  5 34  1  0  0  0  0
  5 35  1  0  0  0  0
  6  7  1  0  0  0  0
  6 28  1  0  0  0  0
  7  8  2  0  0  0  0
  7  9  1  0  0  0  0
  9 10  1  0  0  0  0
  9 26  1  0  0  0  0
  9 27  1  0  0  0  0
 10 11  2  0  0  0  0
 10 19  1  0  0  0  0
 11 12  1  0  0  0  0
 11 25  1  0  0  0  0
 12 13  2  0  0  0  0
 13 14  1  0  0  0  0
 13 24  1  0  0  0  0
 14 15  2  0  0  0  0
 14 19  1  0  0  0  0
 15 16  1  0  0  0  0
 15 23  1  0  0  0  0
 16 17  2  0  0  0  0
 16 22  1  0  0  0  0
 17 18  1  0  0  0  0
 17 21  1  0  0  0  0
 18 19  2  0  0  0  0
 18 20  1  0  0  0  0
 28 29  1  0  0  0  0
 28 32  1  0  0  0  0
 28 33  1  0  0  0  0
 29 30  1  0  0  0  0
 29 31  1  0  0  0  0
M  END
>  <MODEL>
       1

$$$$
