tmp_first_model_3_31.pdb
 OpenBabel08272518143D

 66 71  0  0  1  0  0  0  0  0999 V2000
   -7.3710    3.3860  -21.9090 C   0  0  0  0  0  0  0  0  0  0  0  0
   -8.3160    2.8970  -22.8990 N   0  0  0  0  0  0  0  0  0  0  0  0
   -7.8070    2.1690  -23.9340 C   0  0  0  0  0  0  0  0  0  0  0  0
   -6.6040    1.9840  -24.0670 O   0  0  0  0  0  0  0  0  0  0  0  0
   -8.8120    1.5770  -24.9200 C   0  0  0  0  0  0  0  0  0  0  0  0
   -9.4550    0.4150  -24.3350 N   0  0  0  0  0  0  0  0  0  0  0  0
   -8.6770   -0.8070  -24.1810 C   0  0  0  0  0  0  0  0  0  0  0  0
   -9.0360   -1.5400  -22.8660 C   0  0  2  0  0  0  0  0  0  0  0  0
   -8.5250   -0.7560  -21.6400 C   0  0  0  0  0  0  0  0  0  0  0  0
   -9.0190    0.2300  -21.1230 O   0  0  0  0  0  0  0  0  0  0  0  0
   -7.3820   -1.3750  -21.1960 N   0  0  0  0  0  0  0  0  0  0  0  0
   -6.6020   -0.8060  -20.1680 C   0  0  0  0  0  0  0  0  0  0  0  0
   -6.9350   -1.0280  -18.8560 C   0  0  0  0  0  0  0  0  0  0  0  0
   -6.2410   -0.5380  -17.8020 N   0  0  0  0  0  0  0  0  0  0  0  0
   -5.1920    0.2050  -18.0710 C   0  0  0  0  0  0  0  0  0  0  0  0
   -4.7470    0.5210  -19.3880 C   0  0  0  0  0  0  0  0  0  0  0  0
   -3.6210    1.3490  -19.6300 C   0  0  0  0  0  0  0  0  0  0  0  0
   -3.2390    1.6490  -20.9080 C   0  0  0  0  0  0  0  0  0  0  0  0
   -3.9680    1.1470  -22.0100 C   0  0  0  0  0  0  0  0  0  0  0  0
   -5.0650    0.3450  -21.8040 C   0  0  0  0  0  0  0  0  0  0  0  0
   -5.4740    0.0060  -20.4840 C   0  0  0  0  0  0  0  0  0  0  0  0
   -5.6380   -0.0010  -22.6590 H   0  0  0  0  0  0  0  0  0  0  0  0
   -3.6710    1.4050  -23.0200 H   0  0  0  0  0  0  0  0  0  0  0  0
   -2.3770    2.2850  -21.0840 H   0  0  0  0  0  0  0  0  0  0  0  0
   -3.0870    1.7500  -18.7730 H   0  0  0  0  0  0  0  0  0  0  0  0
   -4.6320    0.6010  -17.2250 H   0  0  0  0  0  0  0  0  0  0  0  0
   -7.8040   -1.6370  -18.6250 H   0  0  0  0  0  0  0  0  0  0  0  0
   -6.9990   -2.5560  -21.9430 C   0  0  0  0  0  0  0  0  0  0  0  0
   -8.2870   -2.8890  -22.7000 C   0  0  2  0  0  0  0  0  0  0  0  0
   -8.1050   -3.7300  -23.9650 C   0  0  0  0  0  0  0  0  0  0  0  0
   -7.6640   -5.0750  -23.6840 N   0  0  0  0  0  0  0  0  0  0  0  0
   -6.3610   -5.4120  -23.4990 C   0  0  0  0  0  0  0  0  0  0  0  0
   -5.2880   -4.7170  -24.0950 C   0  0  0  0  0  0  0  0  0  0  0  0
   -4.0420   -5.2980  -23.9840 C   0  0  0  0  0  0  0  0  0  0  0  0
   -3.8070   -6.3850  -23.2450 N   0  0  0  0  0  0  0  0  0  0  0  0
   -4.8750   -6.8770  -22.6290 C   0  0  0  0  0  0  0  0  0  0  0  0
   -6.1420   -6.4880  -22.7320 N   0  0  0  0  0  0  0  0  0  0  0  0
   -4.6900   -7.6990  -21.9470 H   0  0  0  0  0  0  0  0  0  0  0  0
   -3.1830   -4.8650  -24.5130 H   0  0  0  0  0  0  0  0  0  0  0  0
   -5.4280   -3.7700  -24.6090 H   0  0  0  0  0  0  0  0  0  0  0  0
   -8.3180   -5.7320  -23.2720 H   0  0  0  0  0  0  0  0  0  0  0  0
   -7.3780   -3.2500  -24.6260 H   0  0  0  0  0  0  0  0  0  0  0  0
   -9.0470   -3.7750  -24.5200 H   0  0  0  0  0  0  0  0  0  0  0  0
   -8.8780   -3.4920  -22.0090 H   0  0  0  0  0  0  0  0  0  0  0  0
   -6.1510   -2.3660  -22.6210 H   0  0  0  0  0  0  0  0  0  0  0  0
   -6.7010   -3.3520  -21.2560 H   0  0  0  0  0  0  0  0  0  0  0  0
  -10.5350   -1.6470  -22.7760 C   0  0  0  0  0  0  0  0  0  0  0  0
  -11.0950   -2.5630  -21.8860 C   0  0  0  0  0  0  0  0  0  0  0  0
  -12.4590   -2.6100  -21.7130 C   0  0  0  0  0  0  0  0  0  0  0  0
  -13.0620   -3.6960  -20.4970 Cl  0  0  0  0  0  0  0  0  0  0  0  0
  -13.3150   -1.7800  -22.4340 C   0  0  0  0  0  0  0  0  0  0  0  0
  -12.7650   -0.8470  -23.2920 C   0  0  0  0  0  0  0  0  0  0  0  0
  -11.3800   -0.7450  -23.4290 C   0  0  0  0  0  0  0  0  0  0  0  0
  -10.8210    0.4030  -24.2160 C   0  0  0  0  0  0  0  0  0  0  0  0
  -11.5300    1.2840  -24.6850 O   0  0  0  0  0  0  0  0  0  0  0  0
  -13.3870   -0.1550  -23.8470 H   0  0  0  0  0  0  0  0  0  0  0  0
  -14.3850   -1.8510  -22.2840 H   0  0  0  0  0  0  0  0  0  0  0  0
  -10.4910   -3.2370  -21.2910 H   0  0  0  0  0  0  0  0  0  0  0  0
   -7.6130   -0.5480  -24.2030 H   0  0  0  0  0  0  0  0  0  0  0  0
   -8.8730   -1.4760  -25.0310 H   0  0  0  0  0  0  0  0  0  0  0  0
   -9.6010    2.2840  -25.1940 H   0  0  0  0  0  0  0  0  0  0  0  0
   -8.2710    1.2910  -25.8300 H   0  0  0  0  0  0  0  0  0  0  0  0
   -9.2550    2.6910  -22.5810 H   0  0  0  0  0  0  0  0  0  0  0  0
   -6.8180    2.5460  -21.4610 H   0  0  0  0  0  0  0  0  0  0  0  0
   -7.9020    3.9620  -21.1480 H   0  0  0  0  0  0  0  0  0  0  0  0
   -6.6570    4.0620  -22.3870 H   0  0  0  0  0  0  0  0  0  0  0  0
  1  2  1  0  0  0  0
  1 64  1  0  0  0  0
  1 65  1  0  0  0  0
  1 66  1  0  0  0  0
  2  3  1  0  0  0  0
  2 63  1  0  0  0  0
  3  4  2  0  0  0  0
  3  5  1  0  0  0  0
  5  6  1  0  0  0  0
  5 61  1  0  0  0  0
  5 62  1  0  0  0  0
  6  7  1  0  0  0  0
  6 54  1  0  0  0  0
  7  8  1  0  0  0  0
  7 59  1  0  0  0  0
  7 60  1  0  0  0  0
  8  9  1  1  0  0  0
  8 29  1  0  0  0  0
  8 47  1  0  0  0  0
  9 10  2  0  0  0  0
  9 11  1  0  0  0  0
 11 12  1  0  0  0  0
 11 28  1  0  0  0  0
 12 13  2  0  0  0  0
 12 21  1  0  0  0  0
 13 14  1  0  0  0  0
 13 27  1  0  0  0  0
 14 15  2  0  0  0  0
 15 16  1  0  0  0  0
 15 26  1  0  0  0  0
 16 17  2  0  0  0  0
 16 21  1  0  0  0  0
 17 18  1  0  0  0  0
 17 25  1  0  0  0  0
 18 19  2  0  0  0  0
 18 24  1  0  0  0  0
 19 20  1  0  0  0  0
 19 23  1  0  0  0  0
 20 21  2  0  0  0  0
 20 22  1  0  0  0  0
 28 29  1  0  0  0  0
 28 45  1  0  0  0  0
 28 46  1  0  0  0  0
 29 30  1  0  0  0  0
 29 44  1  1  0  0  0
 30 31  1  0  0  0  0
 30 42  1  0  0  0  0
 30 43  1  0  0  0  0
 31 32  1  0  0  0  0
 31 41  1  0  0  0  0
 32 33  2  0  0  0  0
 32 37  1  0  0  0  0
 33 34  1  0  0  0  0
 33 40  1  0  0  0  0
 34 35  2  0  0  0  0
 34 39  1  0  0  0  0
 35 36  1  0  0  0  0
 36 37  2  0  0  0  0
 36 38  1  0  0  0  0
 47 48  2  0  0  0  0
 47 53  1  0  0  0  0
 48 49  1  0  0  0  0
 48 58  1  0  0  0  0
 49 50  1  0  0  0  0
 49 51  2  0  0  0  0
 51 52  1  0  0  0  0
 51 57  1  0  0  0  0
 52 53  2  0  0  0  0
 52 56  1  0  0  0  0
 53 54  1  0  0  0  0
 54 55  2  0  0  0  0
M  END
>  <MODEL>
       1

$$$$
