tmp_first_model_5_27.pdb
 OpenBabel08272519233D

 58 62  0  0  1  0  0  0  0  0999 V2000
   -7.0830    3.4670  -22.0250 C   0  0  0  0  0  0  0  0  0  0  0  0
   -7.4490    2.4060  -22.9660 N   0  3  0  0  0  0  0  0  0  0  0  0
   -8.4860    2.7970  -23.9450 C   0  0  0  0  0  0  0  0  0  0  0  0
   -8.7500    1.6830  -24.9520 C   0  0  0  0  0  0  0  0  0  0  0  0
   -9.3680    0.5120  -24.3430 N   0  0  0  0  0  0  0  0  0  0  0  0
   -8.6280   -0.7270  -24.2000 C   0  0  0  0  0  0  0  0  0  0  0  0
   -9.0220   -1.4960  -22.9080 C   0  0  2  0  0  0  0  0  0  0  0  0
   -8.3950   -0.7270  -21.7280 C   0  0  0  0  0  0  0  0  0  0  0  0
   -8.5850    0.4530  -21.4500 O   0  0  0  0  0  0  0  0  0  0  0  0
   -7.4330   -1.5060  -21.1420 N   0  0  0  0  0  0  0  0  0  0  0  0
   -6.5470   -0.9720  -20.1700 C   0  0  0  0  0  0  0  0  0  0  0  0
   -6.8150   -1.1660  -18.8400 C   0  0  0  0  0  0  0  0  0  0  0  0
   -5.9200   -0.9230  -17.8530 N   0  0  0  0  0  0  0  0  0  0  0  0
   -4.7570   -0.4300  -18.2110 C   0  0  0  0  0  0  0  0  0  0  0  0
   -4.4260   -0.0360  -19.5410 C   0  0  0  0  0  0  0  0  0  0  0  0
   -3.2560    0.7240  -19.8340 C   0  0  0  0  0  0  0  0  0  0  0  0
   -3.1580    1.4070  -21.0140 C   0  0  0  0  0  0  0  0  0  0  0  0
   -4.1000    1.1820  -22.0480 C   0  0  0  0  0  0  0  0  0  0  0  0
   -5.1240    0.2810  -21.8600 C   0  0  0  0  0  0  0  0  0  0  0  0
   -5.3720   -0.2620  -20.5610 C   0  0  0  0  0  0  0  0  0  0  0  0
   -5.7360   -0.0220  -22.7060 H   0  0  0  0  0  0  0  0  0  0  0  0
   -3.9970    1.7050  -22.9970 H   0  0  0  0  0  0  0  0  0  0  0  0
   -2.2960    2.0370  -21.2120 H   0  0  0  0  0  0  0  0  0  0  0  0
   -2.4980    0.8250  -19.0680 H   0  0  0  0  0  0  0  0  0  0  0  0
   -4.0200   -0.2750  -17.4240 H   0  0  0  0  0  0  0  0  0  0  0  0
   -7.7870   -1.5450  -18.5230 H   0  0  0  0  0  0  0  0  0  0  0  0
   -7.0340   -2.6180  -21.9890 C   0  0  0  0  0  0  0  0  0  0  0  0
   -8.2950   -2.8770  -22.8160 C   0  0  2  0  0  0  0  0  0  0  0  0
   -8.0140   -3.5930  -24.1350 C   0  0  0  0  0  0  0  0  0  0  0  0
   -7.5580   -4.5760  -23.9650 H   0  0  0  0  0  0  0  0  0  0  0  0
   -8.9330   -3.7390  -24.7120 H   0  0  0  0  0  0  0  0  0  0  0  0
   -7.3170   -3.0100  -24.7520 H   0  0  0  0  0  0  0  0  0  0  0  0
   -8.9260   -3.5220  -22.2020 H   0  0  0  0  0  0  0  0  0  0  0  0
   -6.7350   -3.4760  -21.3810 H   0  0  0  0  0  0  0  0  0  0  0  0
   -6.1770   -2.3620  -22.6320 H   0  0  0  0  0  0  0  0  0  0  0  0
  -10.5380   -1.6030  -22.8630 C   0  0  0  0  0  0  0  0  0  0  0  0
  -11.1880   -2.6190  -22.1410 C   0  0  0  0  0  0  0  0  0  0  0  0
  -12.5400   -2.8130  -22.3250 C   0  0  0  0  0  0  0  0  0  0  0  0
  -13.1410   -3.8330  -21.6890 F   0  0  0  0  0  0  0  0  0  0  0  0
  -13.2950   -2.0410  -23.1980 C   0  0  0  0  0  0  0  0  0  0  0  0
  -12.6830   -0.9700  -23.8170 C   0  0  0  0  0  0  0  0  0  0  0  0
  -11.3270   -0.7220  -23.6180 C   0  0  0  0  0  0  0  0  0  0  0  0
  -10.7290    0.5130  -24.2240 C   0  0  0  0  0  0  0  0  0  0  0  0
  -11.4190    1.4630  -24.5840 O   0  0  0  0  0  0  0  0  0  0  0  0
  -13.2380   -0.3130  -24.4790 H   0  0  0  0  0  0  0  0  0  0  0  0
  -14.3460   -2.2600  -23.3350 H   0  0  0  0  0  0  0  0  0  0  0  0
  -10.6750   -3.2440  -21.4170 H   0  0  0  0  0  0  0  0  0  0  0  0
   -8.8170   -1.3710  -25.0700 H   0  0  0  0  0  0  0  0  0  0  0  0
   -7.5580   -0.4950  -24.1560 H   0  0  0  0  0  0  0  0  0  0  0  0
   -7.8140    1.3650  -25.4260 H   0  0  0  0  0  0  0  0  0  0  0  0
   -9.4280    2.0390  -25.7310 H   0  0  0  0  0  0  0  0  0  0  0  0
   -9.4180    3.0290  -23.4230 H   0  0  0  0  0  0  0  0  0  0  0  0
   -8.1790    3.7030  -24.4770 H   0  0  0  0  0  0  0  0  0  0  0  0
   -6.5850    2.1450  -23.4800 H   0  0  0  0  0  0  0  0  0  0  0  0
   -7.7730    1.5770  -22.4350 H   0  0  0  0  0  0  0  0  0  0  0  0
   -6.2030    3.1560  -21.4570 H   0  0  0  0  0  0  0  0  0  0  0  0
   -7.9090    3.6670  -21.3390 H   0  0  0  0  0  0  0  0  0  0  0  0
   -6.8520    4.3990  -22.5530 H   0  0  0  0  0  0  0  0  0  0  0  0
  1  2  1  0  0  0  0
  1 56  1  0  0  0  0
  1 57  1  0  0  0  0
  1 58  1  0  0  0  0
  2  3  1  0  0  0  0
  2 54  1  0  0  0  0
  2 55  1  0  0  0  0
  3  4  1  0  0  0  0
  3 52  1  0  0  0  0
  3 53  1  0  0  0  0
  4  5  1  0  0  0  0
  4 50  1  0  0  0  0
  4 51  1  0  0  0  0
  5  6  1  0  0  0  0
  5 43  1  0  0  0  0
  6  7  1  0  0  0  0
  6 48  1  0  0  0  0
  6 49  1  0  0  0  0
  7  8  1  1  0  0  0
  7 28  1  0  0  0  0
  7 36  1  0  0  0  0
  8  9  2  0  0  0  0
  8 10  1  0  0  0  0
 10 11  1  0  0  0  0
 10 27  1  0  0  0  0
 11 12  2  0  0  0  0
 11 20  1  0  0  0  0
 12 13  1  0  0  0  0
 12 26  1  0  0  0  0
 13 14  2  0  0  0  0
 14 15  1  0  0  0  0
 14 25  1  0  0  0  0
 15 16  2  0  0  0  0
 15 20  1  0  0  0  0
 16 17  1  0  0  0  0
 16 24  1  0  0  0  0
 17 18  2  0  0  0  0
 17 23  1  0  0  0  0
 18 19  1  0  0  0  0
 18 22  1  0  0  0  0
 19 20  2  0  0  0  0
 19 21  1  0  0  0  0
 27 28  1  0  0  0  0
 27 34  1  0  0  0  0
 27 35  1  0  0  0  0
 28 29  1  0  0  0  0
 28 33  1  1  0  0  0
 29 30  1  0  0  0  0
 29 31  1  0  0  0  0
 29 32  1  0  0  0  0
 36 37  2  0  0  0  0
 36 42  1  0  0  0  0
 37 38  1  0  0  0  0
 37 47  1  0  0  0  0
 38 39  1  0  0  0  0
 38 40  2  0  0  0  0
 40 41  1  0  0  0  0
 40 46  1  0  0  0  0
 41 42  2  0  0  0  0
 41 45  1  0  0  0  0
 42 43  1  0  0  0  0
 43 44  2  0  0  0  0
M  CHG  1   2   1
M  END
>  <MODEL>
       1

$$$$
