tmp_first_model_9_16.pdb
 OpenBabel08272521403D

 61 66  0  0  1  0  0  0  0  0999 V2000
   -7.3760    3.3990  -21.8010 C   0  0  0  0  0  0  0  0  0  0  0  0
   -8.2340    2.9360  -22.8790 N   0  0  0  0  0  0  0  0  0  0  0  0
   -7.6650    2.2470  -23.8950 C   0  0  0  0  0  0  0  0  0  0  0  0
   -6.4510    2.1360  -24.0110 O   0  0  0  0  0  0  0  0  0  0  0  0
   -8.6160    1.6250  -24.9270 C   0  0  0  0  0  0  0  0  0  0  0  0
   -9.3470    0.4720  -24.4300 N   0  0  0  0  0  0  0  0  0  0  0  0
   -8.6340   -0.7840  -24.2570 C   0  0  0  0  0  0  0  0  0  0  0  0
   -9.0360   -1.4950  -22.9370 C   0  0  2  0  0  0  0  0  0  0  0  0
   -8.4850   -0.7070  -21.7210 C   0  0  0  0  0  0  0  0  0  0  0  0
   -8.9160    0.3360  -21.2670 O   0  0  0  0  0  0  0  0  0  0  0  0
   -7.4010   -1.3810  -21.2080 N   0  0  0  0  0  0  0  0  0  0  0  0
   -6.6020   -0.8100  -20.1790 C   0  0  0  0  0  0  0  0  0  0  0  0
   -6.9050   -1.0430  -18.8610 C   0  0  0  0  0  0  0  0  0  0  0  0
   -6.1990   -0.5500  -17.8160 N   0  0  0  0  0  0  0  0  0  0  0  0
   -5.1650    0.2100  -18.0790 C   0  0  0  0  0  0  0  0  0  0  0  0
   -4.7290    0.5320  -19.3960 C   0  0  0  0  0  0  0  0  0  0  0  0
   -3.6020    1.3660  -19.6390 C   0  0  0  0  0  0  0  0  0  0  0  0
   -3.2160    1.6560  -20.9200 C   0  0  0  0  0  0  0  0  0  0  0  0
   -3.9390    1.1270  -22.0110 C   0  0  0  0  0  0  0  0  0  0  0  0
   -5.0320    0.3210  -21.8010 C   0  0  0  0  0  0  0  0  0  0  0  0
   -5.4640    0.0050  -20.4850 C   0  0  0  0  0  0  0  0  0  0  0  0
   -5.5850   -0.0710  -22.6510 H   0  0  0  0  0  0  0  0  0  0  0  0
   -3.6440    1.3620  -23.0290 H   0  0  0  0  0  0  0  0  0  0  0  0
   -2.3620    2.3040  -21.1010 H   0  0  0  0  0  0  0  0  0  0  0  0
   -3.0750    1.7770  -18.7830 H   0  0  0  0  0  0  0  0  0  0  0  0
   -4.6180    0.6150  -17.2280 H   0  0  0  0  0  0  0  0  0  0  0  0
   -7.7580   -1.6670  -18.6030 H   0  0  0  0  0  0  0  0  0  0  0  0
   -7.0710   -2.6030  -21.9090 C   0  0  0  0  0  0  0  0  0  0  0  0
   -8.3160   -2.8720  -22.7780 C   0  0  2  0  0  0  0  0  0  0  0  0
   -7.9570   -3.6310  -24.0720 C   0  0  0  0  0  0  0  0  0  0  0  0
   -7.4390   -4.9630  -23.7780 N   0  0  0  0  0  0  0  0  0  0  0  0
   -8.2120   -6.0020  -23.5250 N   0  0  0  0  0  0  0  0  0  0  0  0
   -7.3110   -6.9400  -23.2790 C   0  0  0  0  0  0  0  0  0  0  0  0
   -6.0460   -6.4820  -23.3740 N   0  0  0  0  0  0  0  0  0  0  0  0
   -6.1520   -5.2210  -23.6930 N   0  0  0  0  0  0  0  0  0  0  0  0
   -7.5690   -7.9600  -23.0240 H   0  0  0  0  0  0  0  0  0  0  0  0
   -8.8330   -3.7790  -24.7100 H   0  0  0  0  0  0  0  0  0  0  0  0
   -7.1680   -3.1190  -24.6320 H   0  0  0  0  0  0  0  0  0  0  0  0
   -8.9870   -3.5280  -22.2190 H   0  0  0  0  0  0  0  0  0  0  0  0
   -6.8700   -3.4220  -21.2100 H   0  0  0  0  0  0  0  0  0  0  0  0
   -6.1680   -2.4800  -22.5290 H   0  0  0  0  0  0  0  0  0  0  0  0
  -10.5540   -1.5250  -22.8620 C   0  0  0  0  0  0  0  0  0  0  0  0
  -11.1960   -2.3900  -21.9660 C   0  0  0  0  0  0  0  0  0  0  0  0
  -12.5760   -2.4030  -21.8790 C   0  0  0  0  0  0  0  0  0  0  0  0
  -13.3570   -3.4900  -20.7670 Cl  0  0  0  0  0  0  0  0  0  0  0  0
  -13.3600   -1.5460  -22.6510 C   0  0  0  0  0  0  0  0  0  0  0  0
  -12.7340   -0.6380  -23.4800 C   0  0  0  0  0  0  0  0  0  0  0  0
  -11.3410   -0.6010  -23.5650 C   0  0  0  0  0  0  0  0  0  0  0  0
  -10.7140    0.5150  -24.3490 C   0  0  0  0  0  0  0  0  0  0  0  0
  -11.3870    1.4100  -24.8460 O   0  0  0  0  0  0  0  0  0  0  0  0
  -13.2960    0.0840  -24.0630 H   0  0  0  0  0  0  0  0  0  0  0  0
  -14.4400   -1.5800  -22.5680 H   0  0  0  0  0  0  0  0  0  0  0  0
  -10.6290   -3.0350  -21.3070 H   0  0  0  0  0  0  0  0  0  0  0  0
   -7.5650   -0.5490  -24.2380 H   0  0  0  0  0  0  0  0  0  0  0  0
   -8.8360   -1.4580  -25.1060 H   0  0  0  0  0  0  0  0  0  0  0  0
   -7.9820    1.3500  -25.7780 H   0  0  0  0  0  0  0  0  0  0  0  0
   -9.3780    2.3370  -25.2580 H   0  0  0  0  0  0  0  0  0  0  0  0
   -9.2300    2.8740  -22.7360 H   0  0  0  0  0  0  0  0  0  0  0  0
   -6.6800    4.1640  -22.1610 H   0  0  0  0  0  0  0  0  0  0  0  0
   -7.9980    3.8360  -21.0200 H   0  0  0  0  0  0  0  0  0  0  0  0
   -6.7840    2.5600  -21.4060 H   0  0  0  0  0  0  0  0  0  0  0  0
  1  2  1  0  0  0  0
  1 59  1  0  0  0  0
  1 60  1  0  0  0  0
  1 61  1  0  0  0  0
  2  3  1  0  0  0  0
  2 58  1  0  0  0  0
  3  4  2  0  0  0  0
  3  5  1  0  0  0  0
  5  6  1  0  0  0  0
  5 56  1  0  0  0  0
  5 57  1  0  0  0  0
  6  7  1  0  0  0  0
  6 49  1  0  0  0  0
  7  8  1  0  0  0  0
  7 54  1  0  0  0  0
  7 55  1  0  0  0  0
  8  9  1  1  0  0  0
  8 29  1  0  0  0  0
  8 42  1  0  0  0  0
  9 10  2  0  0  0  0
  9 11  1  0  0  0  0
 11 12  1  0  0  0  0
 11 28  1  0  0  0  0
 12 13  2  0  0  0  0
 12 21  1  0  0  0  0
 13 14  1  0  0  0  0
 13 27  1  0  0  0  0
 14 15  2  0  0  0  0
 15 16  1  0  0  0  0
 15 26  1  0  0  0  0
 16 17  2  0  0  0  0
 16 21  1  0  0  0  0
 17 18  1  0  0  0  0
 17 25  1  0  0  0  0
 18 19  2  0  0  0  0
 18 24  1  0  0  0  0
 19 20  1  0  0  0  0
 19 23  1  0  0  0  0
 20 21  2  0  0  0  0
 20 22  1  0  0  0  0
 28 29  1  0  0  0  0
 28 40  1  0  0  0  0
 28 41  1  0  0  0  0
 29 30  1  0  0  0  0
 29 39  1  1  0  0  0
 30 31  1  0  0  0  0
 30 37  1  0  0  0  0
 30 38  1  0  0  0  0
 31 32  1  0  0  0  0
 31 35  1  0  0  0  0
 32 33  2  0  0  0  0
 33 34  1  0  0  0  0
 33 36  1  0  0  0  0
 34 35  2  0  0  0  0
 42 43  2  0  0  0  0
 42 48  1  0  0  0  0
 43 44  1  0  0  0  0
 43 53  1  0  0  0  0
 44 45  1  0  0  0  0
 44 46  2  0  0  0  0
 46 47  1  0  0  0  0
 46 52  1  0  0  0  0
 47 48  2  0  0  0  0
 47 51  1  0  0  0  0
 48 49  1  0  0  0  0
 49 50  2  0  0  0  0
M  END
>  <MODEL>
       1

$$$$
