tmp_first_model_7_63.pdb
 OpenBabel08272520323D

 57 61  0  0  1  0  0  0  0  0999 V2000
  -14.7410   -0.6860  -22.1880 C   0  0  0  0  0  0  0  0  0  0  0  0
  -13.8580   -1.7150  -21.6760 N   0  0  0  0  0  0  0  0  0  0  0  0
  -13.2560   -2.5970  -22.5320 C   0  0  0  0  0  0  0  0  0  0  0  0
  -13.4730   -2.5930  -23.7290 O   0  0  0  0  0  0  0  0  0  0  0  0
  -12.4200   -3.6830  -21.8410 C   0  0  0  0  0  0  0  0  0  0  0  0
  -11.0430   -3.7580  -22.3010 N   0  0  0  0  0  0  0  0  0  0  0  0
   -9.9460   -3.1800  -21.5370 C   0  0  0  0  0  0  0  0  0  0  0  0
   -8.7330   -2.7430  -22.4050 C   0  0  2  0  0  0  0  0  0  0  0  0
   -7.5680   -2.5640  -21.4180 C   0  0  0  0  0  0  0  0  0  0  0  0
   -6.9560   -3.4420  -20.8450 O   0  0  0  0  0  0  0  0  0  0  0  0
   -7.3460   -1.2200  -21.2280 N   0  0  0  0  0  0  0  0  0  0  0  0
   -6.5310   -0.7700  -20.1700 C   0  0  0  0  0  0  0  0  0  0  0  0
   -6.8170   -1.0900  -18.8700 C   0  0  0  0  0  0  0  0  0  0  0  0
   -6.1420   -0.5790  -17.8120 N   0  0  0  0  0  0  0  0  0  0  0  0
   -5.1400    0.2300  -18.0570 C   0  0  0  0  0  0  0  0  0  0  0  0
   -4.6950    0.5790  -19.3660 C   0  0  0  0  0  0  0  0  0  0  0  0
   -3.5690    1.4080  -19.6120 C   0  0  0  0  0  0  0  0  0  0  0  0
   -3.1910    1.7030  -20.8940 C   0  0  0  0  0  0  0  0  0  0  0  0
   -3.9050    1.1780  -21.9930 C   0  0  0  0  0  0  0  0  0  0  0  0
   -4.9890    0.3640  -21.7840 C   0  0  0  0  0  0  0  0  0  0  0  0
   -5.4130    0.0630  -20.4630 C   0  0  0  0  0  0  0  0  0  0  0  0
   -5.5260   -0.0740  -22.6190 H   0  0  0  0  0  0  0  0  0  0  0  0
   -3.5980    1.4200  -23.0070 H   0  0  0  0  0  0  0  0  0  0  0  0
   -2.3370    2.3490  -21.0790 H   0  0  0  0  0  0  0  0  0  0  0  0
   -3.0210    1.8100  -18.7660 H   0  0  0  0  0  0  0  0  0  0  0  0
   -4.6200    0.6390  -17.1900 H   0  0  0  0  0  0  0  0  0  0  0  0
   -7.6310   -1.7750  -18.6390 H   0  0  0  0  0  0  0  0  0  0  0  0
   -8.3450   -0.3790  -21.8720 C   0  0  0  0  0  0  0  0  0  0  0  0
   -8.8660   -1.2940  -22.9900 C   0  0  2  0  0  0  0  0  0  0  0  0
  -10.2290   -0.8930  -23.5450 C   0  0  0  0  0  0  0  0  0  0  0  0
  -11.2110   -0.7520  -22.5330 O   0  0  0  0  0  0  0  0  0  0  0  0
  -11.3590    0.1810  -22.3530 H   0  0  0  0  0  0  0  0  0  0  0  0
  -10.5810   -1.6740  -24.2260 H   0  0  0  0  0  0  0  0  0  0  0  0
  -10.1240    0.0450  -24.1050 H   0  0  0  0  0  0  0  0  0  0  0  0
   -8.1560   -1.2410  -23.8310 H   0  0  0  0  0  0  0  0  0  0  0  0
   -7.8890    0.5430  -22.2450 H   0  0  0  0  0  0  0  0  0  0  0  0
   -9.1410   -0.1040  -21.1570 H   0  0  0  0  0  0  0  0  0  0  0  0
   -8.4210   -3.8130  -23.4380 C   0  0  0  0  0  0  0  0  0  0  0  0
   -7.1350   -3.9590  -23.9910 C   0  0  0  0  0  0  0  0  0  0  0  0
   -6.8960   -4.9230  -24.9600 C   0  0  0  0  0  0  0  0  0  0  0  0
   -5.3090   -5.1000  -25.6580 Cl  0  0  0  0  0  0  0  0  0  0  0  0
   -7.9020   -5.7790  -25.4080 C   0  0  0  0  0  0  0  0  0  0  0  0
   -9.1620   -5.6470  -24.8590 C   0  0  0  0  0  0  0  0  0  0  0  0
   -9.4150   -4.6860  -23.8780 C   0  0  0  0  0  0  0  0  0  0  0  0
  -10.7930   -4.6490  -23.3070 C   0  0  0  0  0  0  0  0  0  0  0  0
  -11.6530   -5.4000  -23.7190 O   0  0  0  0  0  0  0  0  0  0  0  0
   -9.9880   -6.2810  -25.1690 H   0  0  0  0  0  0  0  0  0  0  0  0
   -7.6900   -6.5370  -26.1590 H   0  0  0  0  0  0  0  0  0  0  0  0
   -6.2990   -3.3560  -23.6470 H   0  0  0  0  0  0  0  0  0  0  0  0
   -9.5370   -3.9020  -20.8230 H   0  0  0  0  0  0  0  0  0  0  0  0
  -10.3320   -2.3050  -21.0130 H   0  0  0  0  0  0  0  0  0  0  0  0
  -12.9000   -4.6370  -22.1010 H   0  0  0  0  0  0  0  0  0  0  0  0
  -12.4770   -3.5590  -20.7570 H   0  0  0  0  0  0  0  0  0  0  0  0
  -13.3570   -1.5150  -20.8280 H   0  0  0  0  0  0  0  0  0  0  0  0
  -15.4460   -0.4030  -21.4060 H   0  0  0  0  0  0  0  0  0  0  0  0
  -14.2090    0.2040  -22.5470 H   0  0  0  0  0  0  0  0  0  0  0  0
  -15.3070   -1.1080  -23.0170 H   0  0  0  0  0  0  0  0  0  0  0  0
  1  2  1  0  0  0  0
  1 55  1  0  0  0  0
  1 56  1  0  0  0  0
  1 57  1  0  0  0  0
  2  3  1  0  0  0  0
  2 54  1  0  0  0  0
  3  4  2  0  0  0  0
  3  5  1  0  0  0  0
  5  6  1  0  0  0  0
  5 52  1  0  0  0  0
  5 53  1  0  0  0  0
  6  7  1  0  0  0  0
  6 45  1  0  0  0  0
  7  8  1  0  0  0  0
  7 50  1  0  0  0  0
  7 51  1  0  0  0  0
  8  9  1  1  0  0  0
  8 29  1  0  0  0  0
  8 38  1  0  0  0  0
  9 10  2  0  0  0  0
  9 11  1  0  0  0  0
 11 12  1  0  0  0  0
 11 28  1  0  0  0  0
 12 13  2  0  0  0  0
 12 21  1  0  0  0  0
 13 14  1  0  0  0  0
 13 27  1  0  0  0  0
 14 15  2  0  0  0  0
 15 16  1  0  0  0  0
 15 26  1  0  0  0  0
 16 17  2  0  0  0  0
 16 21  1  0  0  0  0
 17 18  1  0  0  0  0
 17 25  1  0  0  0  0
 18 19  2  0  0  0  0
 18 24  1  0  0  0  0
 19 20  1  0  0  0  0
 19 23  1  0  0  0  0
 20 21  2  0  0  0  0
 20 22  1  0  0  0  0
 28 29  1  0  0  0  0
 28 36  1  0  0  0  0
 28 37  1  0  0  0  0
 29 30  1  0  0  0  0
 29 35  1  6  0  0  0
 30 31  1  0  0  0  0
 30 33  1  0  0  0  0
 30 34  1  0  0  0  0
 31 32  1  0  0  0  0
 38 39  2  0  0  0  0
 38 44  1  0  0  0  0
 39 40  1  0  0  0  0
 39 49  1  0  0  0  0
 40 41  1  0  0  0  0
 40 42  2  0  0  0  0
 42 43  1  0  0  0  0
 42 48  1  0  0  0  0
 43 44  2  0  0  0  0
 43 47  1  0  0  0  0
 44 45  1  0  0  0  0
 45 46  2  0  0  0  0
M  END
>  <MODEL>
       1

$$$$
