tmp_first_model_12_73.pdb
 OpenBabel08272523333D

 50 53  0  0  1  0  0  0  0  0999 V2000
   -5.5970   -3.0170  -21.5780 O   0  0  0  0  0  0  0  0  0  0  0  0
   -6.7550   -2.7530  -21.8570 C   0  0  0  0  0  0  0  0  0  0  0  0
   -7.4140   -1.4790  -21.2680 C   0  0  0  0  0  0  0  0  0  0  0  0
   -6.5790   -0.8320  -20.1820 C   0  0  0  0  0  0  0  0  0  0  0  0
   -6.8730   -1.0480  -18.8620 C   0  0  0  0  0  0  0  0  0  0  0  0
   -6.1900   -0.5430  -17.8000 N   0  0  0  0  0  0  0  0  0  0  0  0
   -5.1570    0.2210  -18.0630 C   0  0  0  0  0  0  0  0  0  0  0  0
   -4.7220    0.5330  -19.3770 C   0  0  0  0  0  0  0  0  0  0  0  0
   -3.5930    1.3600  -19.6150 C   0  0  0  0  0  0  0  0  0  0  0  0
   -3.2140    1.6730  -20.8920 C   0  0  0  0  0  0  0  0  0  0  0  0
   -3.9800    1.2070  -21.9810 C   0  0  0  0  0  0  0  0  0  0  0  0
   -5.0660    0.3810  -21.7780 C   0  0  0  0  0  0  0  0  0  0  0  0
   -5.4620    0.0110  -20.4700 C   0  0  0  0  0  0  0  0  0  0  0  0
   -5.5370   -0.1060  -22.6260 H   0  0  0  0  0  0  0  0  0  0  0  0
   -3.5980    1.3520  -22.9880 H   0  0  0  0  0  0  0  0  0  0  0  0
   -2.3220    2.2710  -21.0820 H   0  0  0  0  0  0  0  0  0  0  0  0
   -3.0530    1.7670  -18.7610 H   0  0  0  0  0  0  0  0  0  0  0  0
   -4.6030    0.6280  -17.2140 H   0  0  0  0  0  0  0  0  0  0  0  0
   -7.7220   -1.6710  -18.5840 H   0  0  0  0  0  0  0  0  0  0  0  0
   -7.6150   -0.7510  -22.0660 H   0  0  0  0  0  0  0  0  0  0  0  0
   -8.3960   -1.7490  -20.8490 H   0  0  0  0  0  0  0  0  0  0  0  0
   -7.5170   -3.5820  -22.6630 N   0  0  0  0  0  0  0  0  0  0  0  0
   -8.6630   -3.1250  -23.4520 C   0  0  0  0  0  0  0  0  0  0  0  0
   -9.7350   -4.2010  -23.5630 C   0  0  0  0  0  0  0  0  0  0  0  0
   -9.1630   -5.5030  -24.1050 C   0  0  0  0  0  0  0  0  0  0  0  0
   -7.9860   -5.9380  -23.2410 C   0  0  0  0  0  0  0  0  0  0  0  0
   -6.9110   -4.8540  -23.1000 C   0  0  1  0  0  0  0  0  0  0  0  0
   -6.0440   -4.6960  -24.3700 C   0  0  0  0  0  0  0  0  0  0  0  0
   -5.2090   -5.9200  -24.6870 C   0  0  0  0  0  0  0  0  0  0  0  0
   -4.0470   -6.1890  -23.9580 C   0  0  0  0  0  0  0  0  0  0  0  0
   -3.2840   -7.3210  -24.2200 C   0  0  0  0  0  0  0  0  0  0  0  0
   -3.6710   -8.2110  -25.2180 C   0  0  0  0  0  0  0  0  0  0  0  0
   -4.8280   -7.9600  -25.9500 C   0  0  0  0  0  0  0  0  0  0  0  0
   -5.5860   -6.8240  -25.6830 C   0  0  0  0  0  0  0  0  0  0  0  0
   -6.4950   -6.6410  -26.2540 H   0  0  0  0  0  0  0  0  0  0  0  0
   -5.1410   -8.6460  -26.7320 H   0  0  0  0  0  0  0  0  0  0  0  0
   -3.0710   -9.0930  -25.4260 H   0  0  0  0  0  0  0  0  0  0  0  0
   -2.3830   -7.5100  -23.6430 H   0  0  0  0  0  0  0  0  0  0  0  0
   -3.7430   -5.4990  -23.1730 H   0  0  0  0  0  0  0  0  0  0  0  0
   -6.6860   -4.4570  -25.2260 H   0  0  0  0  0  0  0  0  0  0  0  0
   -5.3810   -3.8370  -24.2160 H   0  0  0  0  0  0  0  0  0  0  0  0
   -6.2380   -5.1550  -22.2960 H   0  0  0  0  0  0  0  0  0  0  0  0
   -8.3530   -6.1940  -22.2420 H   0  0  0  0  0  0  0  0  0  0  0  0
   -7.5380   -6.8540  -23.6380 H   0  0  0  0  0  0  0  0  0  0  0  0
   -9.9340   -6.2840  -24.1230 H   0  0  0  0  0  0  0  0  0  0  0  0
   -8.8390   -5.3760  -25.1460 H   0  0  0  0  0  0  0  0  0  0  0  0
  -10.1670   -4.3780  -22.5730 H   0  0  0  0  0  0  0  0  0  0  0  0
  -10.5520   -3.8480  -24.2010 H   0  0  0  0  0  0  0  0  0  0  0  0
   -9.0860   -2.2310  -22.9910 H   0  0  0  0  0  0  0  0  0  0  0  0
   -8.3530   -2.8300  -24.4670 H   0  0  0  0  0  0  0  0  0  0  0  0
  1  2  2  0  0  0  0
  2  3  1  0  0  0  0
  2 22  1  0  0  0  0
  3  4  1  0  0  0  0
  3 20  1  0  0  0  0
  3 21  1  0  0  0  0
  4  5  2  0  0  0  0
  4 13  1  0  0  0  0
  5  6  1  0  0  0  0
  5 19  1  0  0  0  0
  6  7  2  0  0  0  0
  7  8  1  0  0  0  0
  7 18  1  0  0  0  0
  8  9  2  0  0  0  0
  8 13  1  0  0  0  0
  9 10  1  0  0  0  0
  9 17  1  0  0  0  0
 10 11  2  0  0  0  0
 10 16  1  0  0  0  0
 11 12  1  0  0  0  0
 11 15  1  0  0  0  0
 12 13  2  0  0  0  0
 12 14  1  0  0  0  0
 22 23  1  0  0  0  0
 22 27  1  0  0  0  0
 23 24  1  0  0  0  0
 23 49  1  0  0  0  0
 23 50  1  0  0  0  0
 24 25  1  0  0  0  0
 24 47  1  0  0  0  0
 24 48  1  0  0  0  0
 25 26  1  0  0  0  0
 25 45  1  0  0  0  0
 25 46  1  0  0  0  0
 26 27  1  0  0  0  0
 26 43  1  0  0  0  0
 26 44  1  0  0  0  0
 27 28  1  0  0  0  0
 27 42  1  1  0  0  0
 28 29  1  0  0  0  0
 28 40  1  0  0  0  0
 28 41  1  0  0  0  0
 29 30  2  0  0  0  0
 29 34  1  0  0  0  0
 30 31  1  0  0  0  0
 30 39  1  0  0  0  0
 31 32  2  0  0  0  0
 31 38  1  0  0  0  0
 32 33  1  0  0  0  0
 32 37  1  0  0  0  0
 33 34  2  0  0  0  0
 33 36  1  0  0  0  0
 34 35  1  0  0  0  0
M  END
>  <MODEL>
       1

$$$$
