tmp_first_model_19_35.pdb
 OpenBabel08282503233D

 40 42  0  0  0  0  0  0  0  0999 V2000
   -9.1190   -1.8430  -22.7320 O   0  0  0  0  0  0  0  0  0  0  0  0
   -8.2000   -1.0820  -22.4610 C   0  0  0  0  0  0  0  0  0  0  0  0
   -6.8180   -1.6100  -22.1090 C   0  0  0  0  0  0  0  0  0  0  0  0
   -6.2650   -0.9730  -20.8460 C   0  0  0  0  0  0  0  0  0  0  0  0
   -6.9350   -1.1460  -19.6580 C   0  0  0  0  0  0  0  0  0  0  0  0
   -6.5780   -0.6040  -18.4680 N   0  0  0  0  0  0  0  0  0  0  0  0
   -5.5150    0.1670  -18.4600 C   0  0  0  0  0  0  0  0  0  0  0  0
   -4.7050    0.4200  -19.6020 C   0  0  0  0  0  0  0  0  0  0  0  0
   -3.5530    1.2490  -19.5520 C   0  0  0  0  0  0  0  0  0  0  0  0
   -2.8220    1.5000  -20.6810 C   0  0  0  0  0  0  0  0  0  0  0  0
   -3.2100    0.9430  -21.9170 C   0  0  0  0  0  0  0  0  0  0  0  0
   -4.3190    0.1320  -21.9930 C   0  0  0  0  0  0  0  0  0  0  0  0
   -5.0860   -0.1650  -20.8360 C   0  0  0  0  0  0  0  0  0  0  0  0
   -4.6340   -0.2510  -22.9610 H   0  0  0  0  0  0  0  0  0  0  0  0
   -2.6330    1.1600  -22.8100 H   0  0  0  0  0  0  0  0  0  0  0  0
   -1.9530    2.1480  -20.6360 H   0  0  0  0  0  0  0  0  0  0  0  0
   -3.2800    1.6940  -18.5980 H   0  0  0  0  0  0  0  0  0  0  0  0
   -5.2540    0.6400  -17.5130 H   0  0  0  0  0  0  0  0  0  0  0  0
   -7.8270   -1.7730  -19.6270 H   0  0  0  0  0  0  0  0  0  0  0  0
   -6.1530   -1.4730  -22.9660 H   0  0  0  0  0  0  0  0  0  0  0  0
   -6.9330   -2.6920  -21.9780 H   0  0  0  0  0  0  0  0  0  0  0  0
   -8.2770    0.2850  -22.4130 N   0  0  0  0  0  0  0  0  0  0  0  0
   -9.4510    1.0600  -21.9510 C   0  0  0  0  0  0  0  0  0  0  0  0
   -9.4690    0.9020  -21.7810 C   0  0  0  0  0  0  0  0  0  0  0  0
   -9.1390    2.8470  -23.6980 C   0  0  0  0  0  0  0  0  0  0  0  0
   -8.5840    5.5840  -23.1450 C   0  0  0  0  0  0  0  0  0  0  0  0
   -8.1080    5.2600  -21.9610 F   0  0  0  0  0  0  0  0  0  0  0  0
   -7.6640    6.2020  -23.8610 F   0  0  0  0  0  0  0  0  0  0  0  0
   -9.6670    6.3270  -23.0200 F   0  0  0  0  0  0  0  0  0  0  0  0
   -7.8750    2.4570  -23.6630 C   0  0  0  0  0  0  0  0  0  0  0  0
   -7.3010    1.1780  -23.1150 C   0  0  0  0  0  0  0  0  0  0  0  0
   -6.8410    0.6090  -23.9240 H   0  0  0  0  0  0  0  0  0  0  0  0
   -6.5190    1.4770  -22.4070 H   0  0  0  0  0  0  0  0  0  0  0  0
   -7.0930    3.1250  -24.0260 H   0  0  0  0  0  0  0  0  0  0  0  0
   -9.9390    2.1540  -23.5500 H   0  0  0  0  0  0  0  0  0  0  0  0
   -9.3410    3.8900  -23.9390 H   0  0  0  0  0  0  0  0  0  0  0  0
   -8.7290    1.8830  -21.3960 H   0  0  0  0  0  0  0  0  0  0  0  0
  -10.3610    1.8240  -21.6750 H   0  0  0  0  0  0  0  0  0  0  0  0
  -10.2150    0.5840  -22.7760 H   0  0  0  0  0  0  0  0  0  0  0  0
   -9.8440   -0.0090  -20.5630 H   0  0  0  0  0  0  0  0  0  0  0  0
  1  2  2  0  0  0  0
  2  3  1  0  0  0  0
  2 22  1  0  0  0  0
  3  4  1  0  0  0  0
  3 20  1  0  0  0  0
  3 21  1  0  0  0  0
  4  5  2  0  0  0  0
  4 13  1  0  0  0  0
  5  6  1  0  0  0  0
  5 19  1  0  0  0  0
  6  7  2  0  0  0  0
  7  8  1  0  0  0  0
  7 18  1  0  0  0  0
  8  9  2  0  0  0  0
  8 13  1  0  0  0  0
  9 10  1  0  0  0  0
  9 17  1  0  0  0  0
 10 11  2  0  0  0  0
 10 16  1  0  0  0  0
 11 12  1  0  0  0  0
 11 15  1  0  0  0  0
 12 13  2  0  0  0  0
 12 14  1  0  0  0  0
 22 23  1  0  0  0  0
 22 31  1  0  0  0  0
 23 24  1  0  0  0  0
 23 39  1  0  0  0  0
 23 40  1  0  0  0  0
 24 25  1  0  0  0  0
 24 37  1  0  0  0  0
 24 38  1  0  0  0  0
 25 26  1  0  0  0  0
 25 30  1  0  0  0  0
 25 36  1  0  0  0  0
 26 27  1  0  0  0  0
 26 28  1  0  0  0  0
 26 29  1  0  0  0  0
 30 31  1  0  0  0  0
 30 34  1  0  0  0  0
 30 35  1  0  0  0  0
 31 32  1  0  0  0  0
 31 33  1  0  0  0  0
M  END
>  <MODEL>
       1

$$$$
