tmp_first_model_3_97.pdb
 OpenBabel08272518143D

 40 43  0  0  1  0  0  0  0  0999 V2000
  -12.6270   -3.7720  -20.9920 C   0  0  0  0  0  0  0  0  0  0  0  0
  -11.5290   -2.8900  -21.5890 C   0  0  2  0  0  0  0  0  0  0  0  0
  -12.0500   -2.3490  -22.9090 C   0  0  0  0  0  0  0  0  0  0  0  0
  -11.1660   -1.3990  -23.4480 O   0  0  0  0  0  0  0  0  0  0  0  0
   -9.8790   -1.9240  -23.6680 C   0  0  0  0  0  0  0  0  0  0  0  0
   -9.1770   -2.4430  -22.3960 C   0  0  1  0  0  0  0  0  0  0  0  0
  -10.1210   -3.4690  -21.7230 C   0  0  0  0  0  0  0  0  0  0  0  0
  -10.1120   -4.3820  -22.3310 H   0  0  0  0  0  0  0  0  0  0  0  0
   -9.7150   -3.7580  -20.7450 H   0  0  0  0  0  0  0  0  0  0  0  0
   -7.8970   -3.0310  -22.7520 N   0  0  0  0  0  0  0  0  0  0  0  0
   -6.8360   -2.5720  -22.0260 C   0  0  0  0  0  0  0  0  0  0  0  0
   -5.6790   -2.9210  -22.0780 O   0  0  0  0  0  0  0  0  0  0  0  0
   -7.3500   -1.5570  -21.2020 N   0  0  0  0  0  0  0  0  0  0  0  0
   -6.5920   -0.8940  -20.2000 C   0  0  0  0  0  0  0  0  0  0  0  0
   -6.9420   -1.0690  -18.8840 C   0  0  0  0  0  0  0  0  0  0  0  0
   -6.2670   -0.5470  -17.8310 N   0  0  0  0  0  0  0  0  0  0  0  0
   -5.2200    0.1900  -18.1120 C   0  0  0  0  0  0  0  0  0  0  0  0
   -4.7690    0.4770  -19.4290 C   0  0  0  0  0  0  0  0  0  0  0  0
   -3.6510    1.3180  -19.6410 C   0  0  0  0  0  0  0  0  0  0  0  0
   -3.2550    1.6330  -20.9110 C   0  0  0  0  0  0  0  0  0  0  0  0
   -3.9690    1.1290  -22.0180 C   0  0  0  0  0  0  0  0  0  0  0  0
   -5.0550    0.3080  -21.8420 C   0  0  0  0  0  0  0  0  0  0  0  0
   -5.4750   -0.0590  -20.5280 C   0  0  0  0  0  0  0  0  0  0  0  0
   -5.6000   -0.0480  -22.7120 H   0  0  0  0  0  0  0  0  0  0  0  0
   -3.6560    1.4090  -23.0200 H   0  0  0  0  0  0  0  0  0  0  0  0
   -2.4030    2.2850  -21.0670 H   0  0  0  0  0  0  0  0  0  0  0  0
   -3.1480    1.7170  -18.7670 H   0  0  0  0  0  0  0  0  0  0  0  0
   -4.6700    0.6130  -17.2730 H   0  0  0  0  0  0  0  0  0  0  0  0
   -7.8060   -1.6810  -18.6330 H   0  0  0  0  0  0  0  0  0  0  0  0
   -8.7010   -1.3130  -21.4580 C   0  0  0  0  0  0  0  0  0  0  0  0
   -9.3110   -0.3570  -21.0470 O   0  0  0  0  0  0  0  0  0  0  0  0
   -7.8210   -3.9080  -23.2400 H   0  0  0  0  0  0  0  0  0  0  0  0
   -9.2820   -1.1270  -24.1220 H   0  0  0  0  0  0  0  0  0  0  0  0
   -9.9270   -2.7850  -24.3560 H   0  0  0  0  0  0  0  0  0  0  0  0
  -13.0150   -1.8430  -22.7600 H   0  0  0  0  0  0  0  0  0  0  0  0
  -12.2110   -3.1870  -23.6100 H   0  0  0  0  0  0  0  0  0  0  0  0
  -11.3650   -2.0280  -20.9540 H   0  0  0  0  0  0  0  0  0  0  0  0
  -12.3060   -4.4470  -20.1940 H   0  0  0  0  0  0  0  0  0  0  0  0
  -13.1140   -4.3960  -21.7500 H   0  0  0  0  0  0  0  0  0  0  0  0
  -13.3700   -3.1020  -20.5440 H   0  0  0  0  0  0  0  0  0  0  0  0
  1  2  1  0  0  0  0
  1 38  1  0  0  0  0
  1 39  1  0  0  0  0
  1 40  1  0  0  0  0
  2  3  1  0  0  0  0
  2  7  1  0  0  0  0
  2 37  1  1  0  0  0
  3  4  1  0  0  0  0
  3 35  1  0  0  0  0
  3 36  1  0  0  0  0
  4  5  1  0  0  0  0
  5  6  1  0  0  0  0
  5 33  1  0  0  0  0
  5 34  1  0  0  0  0
  6  7  1  0  0  0  0
  6 10  1  0  0  0  0
  6 30  1  1  0  0  0
  7  8  1  0  0  0  0
  7  9  1  0  0  0  0
 10 11  1  0  0  0  0
 10 32  1  0  0  0  0
 11 12  2  0  0  0  0
 11 13  1  0  0  0  0
 13 14  1  0  0  0  0
 13 30  1  0  0  0  0
 14 15  2  0  0  0  0
 14 23  1  0  0  0  0
 15 16  1  0  0  0  0
 15 29  1  0  0  0  0
 16 17  2  0  0  0  0
 17 18  1  0  0  0  0
 17 28  1  0  0  0  0
 18 19  2  0  0  0  0
 18 23  1  0  0  0  0
 19 20  1  0  0  0  0
 19 27  1  0  0  0  0
 20 21  2  0  0  0  0
 20 26  1  0  0  0  0
 21 22  1  0  0  0  0
 21 25  1  0  0  0  0
 22 23  2  0  0  0  0
 22 24  1  0  0  0  0
 30 31  2  0  0  0  0
M  END
>  <MODEL>
       1

$$$$
