tmp_first_model_1_12.pdb
 OpenBabel08272517043D

 76 82  0  0  1  0  0  0  0  0999 V2000
  -12.0730   -0.1690  -24.8000 O   0  0  0  0  0  0  0  0  0  0  0  0
  -11.2350   -0.7790  -24.1480 C   0  0  0  0  0  0  0  0  0  0  0  0
  -11.6070   -1.8790  -23.1830 C   0  0  0  0  0  0  0  0  0  0  0  0
  -12.9460   -2.0400  -22.7990 C   0  0  0  0  0  0  0  0  0  0  0  0
  -13.3040   -2.8440  -21.7320 C   0  0  0  0  0  0  0  0  0  0  0  0
  -12.3030   -3.5720  -21.0990 C   0  0  0  0  0  0  0  0  0  0  0  0
  -12.6780   -4.4620  -19.5880 Cl  0  0  0  0  0  0  0  0  0  0  0  0
  -10.9880   -3.5070  -21.5330 C   0  0  0  0  0  0  0  0  0  0  0  0
  -10.5940   -2.5640  -22.4980 C   0  0  0  0  0  0  0  0  0  0  0  0
   -9.1250   -2.1890  -22.6450 C   0  0  1  0  0  0  0  0  0  0  0  0
   -8.8960   -1.3820  -23.9530 C   0  0  0  0  0  0  0  0  0  0  0  0
   -9.9190   -0.3900  -24.1200 N   0  0  0  0  0  0  0  0  0  0  0  0
   -9.6360    0.9740  -24.5090 C   0  0  0  0  0  0  0  0  0  0  0  0
   -8.9520    1.9200  -23.5200 C   0  0  0  0  0  0  0  0  0  0  0  0
   -9.8080    3.1030  -23.2360 N   0  3  0  0  0  0  0  0  0  0  0  0
  -10.1950    3.9930  -24.3860 C   0  0  0  0  0  0  0  0  0  0  0  0
  -10.6160    5.3320  -23.7510 C   0  0  0  0  0  0  0  0  0  0  0  0
  -10.8940    5.1690  -22.3650 O   0  0  0  0  0  0  0  0  0  0  0  0
  -11.7770    4.0930  -22.1330 C   0  0  0  0  0  0  0  0  0  0  0  0
  -11.0720    2.7770  -22.4970 C   0  0  0  0  0  0  0  0  0  0  0  0
  -10.7910    2.2000  -21.6190 H   0  0  0  0  0  0  0  0  0  0  0  0
  -11.7230    2.1710  -23.1270 H   0  0  0  0  0  0  0  0  0  0  0  0
  -12.0320    4.1020  -21.0720 H   0  0  0  0  0  0  0  0  0  0  0  0
  -12.7020    4.2160  -22.7150 H   0  0  0  0  0  0  0  0  0  0  0  0
   -9.7960    6.0540  -23.7910 H   0  0  0  0  0  0  0  0  0  0  0  0
  -11.4900    5.7610  -24.2590 H   0  0  0  0  0  0  0  0  0  0  0  0
   -9.3650    4.1130  -25.0840 H   0  0  0  0  0  0  0  0  0  0  0  0
  -11.0230    3.5350  -24.9390 H   0  0  0  0  0  0  0  0  0  0  0  0
   -9.2940    3.7160  -22.5860 H   0  0  0  0  0  0  0  0  0  0  0  0
   -8.7260    1.4210  -22.5760 H   0  0  0  0  0  0  0  0  0  0  0  0
   -8.0090    2.2840  -23.9350 H   0  0  0  0  0  0  0  0  0  0  0  0
   -9.1700    1.0260  -25.4980 H   0  0  0  0  0  0  0  0  0  0  0  0
  -10.6340    1.3580  -24.5770 H   0  0  0  0  0  0  0  0  0  0  0  0
   -7.9230   -0.8800  -23.9500 H   0  0  0  0  0  0  0  0  0  0  0  0
   -8.9170   -2.0840  -24.7950 H   0  0  0  0  0  0  0  0  0  0  0  0
   -8.6070   -1.2980  -21.5000 C   0  0  0  0  0  0  0  0  0  0  0  0
   -9.1920   -0.4030  -20.9190 O   0  0  0  0  0  0  0  0  0  0  0  0
   -7.2870   -1.6050  -21.2770 N   0  0  0  0  0  0  0  0  0  0  0  0
   -6.5780   -0.9600  -20.2430 C   0  0  0  0  0  0  0  0  0  0  0  0
   -6.9720   -1.1380  -18.9420 C   0  0  0  0  0  0  0  0  0  0  0  0
   -6.3100   -0.6320  -17.8750 N   0  0  0  0  0  0  0  0  0  0  0  0
   -5.2630    0.1230  -18.1120 C   0  0  0  0  0  0  0  0  0  0  0  0
   -4.7840    0.4340  -19.4190 C   0  0  0  0  0  0  0  0  0  0  0  0
   -3.6760    1.2940  -19.6400 C   0  0  0  0  0  0  0  0  0  0  0  0
   -3.2820    1.5980  -20.9150 C   0  0  0  0  0  0  0  0  0  0  0  0
   -3.9670    1.0650  -22.0280 C   0  0  0  0  0  0  0  0  0  0  0  0
   -5.0380    0.2260  -21.8400 C   0  0  0  0  0  0  0  0  0  0  0  0
   -5.4620   -0.1140  -20.5280 C   0  0  0  0  0  0  0  0  0  0  0  0
   -5.5830   -0.1620  -22.6950 H   0  0  0  0  0  0  0  0  0  0  0  0
   -3.6500    1.3240  -23.0340 H   0  0  0  0  0  0  0  0  0  0  0  0
   -2.4360    2.2560  -21.0850 H   0  0  0  0  0  0  0  0  0  0  0  0
   -3.1610    1.7090  -18.7790 H   0  0  0  0  0  0  0  0  0  0  0  0
   -4.7450    0.5410  -17.2480 H   0  0  0  0  0  0  0  0  0  0  0  0
   -7.8530   -1.7380  -18.7200 H   0  0  0  0  0  0  0  0  0  0  0  0
   -6.8130   -2.7290  -22.0680 C   0  0  0  0  0  0  0  0  0  0  0  0
   -8.1250   -3.3730  -22.5410 C   0  0  2  0  0  0  0  0  0  0  0  0
   -7.9930   -4.1950  -23.8150 C   0  0  0  0  0  0  0  0  0  0  0  0
   -7.1510   -5.3600  -23.6690 N   0  0  0  0  0  0  0  0  0  0  0  0
   -6.8330   -6.0930  -24.7630 C   0  0  0  0  0  0  0  0  0  0  0  0
   -5.9730   -7.1160  -24.5920 N   0  0  0  0  0  0  0  0  0  0  0  0
   -5.7090   -7.8270  -25.6790 C   0  0  0  0  0  0  0  0  0  0  0  0
   -6.2620   -7.5600  -26.9280 C   0  0  0  0  0  0  0  0  0  0  0  0
   -7.1270   -6.4780  -26.9810 C   0  0  0  0  0  0  0  0  0  0  0  0
   -7.4110   -5.7270  -25.9210 N   0  0  0  0  0  0  0  0  0  0  0  0
   -7.6130   -6.1910  -27.9140 H   0  0  0  0  0  0  0  0  0  0  0  0
   -6.0460   -8.1690  -27.7960 H   0  0  0  0  0  0  0  0  0  0  0  0
   -5.0180   -8.6590  -25.5430 H   0  0  0  0  0  0  0  0  0  0  0  0
   -6.7010   -5.6060  -22.8030 H   0  0  0  0  0  0  0  0  0  0  0  0
   -7.5600   -3.5880  -24.6220 H   0  0  0  0  0  0  0  0  0  0  0  0
   -8.9860   -4.5140  -24.1550 H   0  0  0  0  0  0  0  0  0  0  0  0
   -8.4640   -4.0300  -21.7340 H   0  0  0  0  0  0  0  0  0  0  0  0
   -6.1960   -3.3870  -21.4500 H   0  0  0  0  0  0  0  0  0  0  0  0
   -6.2080   -2.4040  -22.9300 H   0  0  0  0  0  0  0  0  0  0  0  0
  -10.2530   -4.1020  -21.0030 H   0  0  0  0  0  0  0  0  0  0  0  0
  -14.3310   -2.8860  -21.3890 H   0  0  0  0  0  0  0  0  0  0  0  0
  -13.7100   -1.4230  -23.2570 H   0  0  0  0  0  0  0  0  0  0  0  0
  1  2  2  0  0  0  0
  2  3  1  0  0  0  0
  2 12  1  0  0  0  0
  3  4  2  0  0  0  0
  3  9  1  0  0  0  0
  4  5  1  0  0  0  0
  4 76  1  0  0  0  0
  5  6  2  0  0  0  0
  5 75  1  0  0  0  0
  6  7  1  0  0  0  0
  6  8  1  0  0  0  0
  8  9  2  0  0  0  0
  8 74  1  0  0  0  0
 10  9  1  1  0  0  0
 10 11  1  0  0  0  0
 10 36  1  0  0  0  0
 10 56  1  0  0  0  0
 11 12  1  0  0  0  0
 11 34  1  0  0  0  0
 11 35  1  0  0  0  0
 12 13  1  0  0  0  0
 13 14  1  0  0  0  0
 13 32  1  0  0  0  0
 13 33  1  0  0  0  0
 14 15  1  0  0  0  0
 14 30  1  0  0  0  0
 14 31  1  0  0  0  0
 15 16  1  0  0  0  0
 15 20  1  0  0  0  0
 15 29  1  0  0  0  0
 16 17  1  0  0  0  0
 16 27  1  0  0  0  0
 16 28  1  0  0  0  0
 17 18  1  0  0  0  0
 17 25  1  0  0  0  0
 17 26  1  0  0  0  0
 18 19  1  0  0  0  0
 19 20  1  0  0  0  0
 19 23  1  0  0  0  0
 19 24  1  0  0  0  0
 20 21  1  0  0  0  0
 20 22  1  0  0  0  0
 36 37  2  0  0  0  0
 36 38  1  0  0  0  0
 38 39  1  0  0  0  0
 38 55  1  0  0  0  0
 39 40  2  0  0  0  0
 39 48  1  0  0  0  0
 40 41  1  0  0  0  0
 40 54  1  0  0  0  0
 41 42  2  0  0  0  0
 42 43  1  0  0  0  0
 42 53  1  0  0  0  0
 43 44  2  0  0  0  0
 43 48  1  0  0  0  0
 44 45  1  0  0  0  0
 44 52  1  0  0  0  0
 45 46  2  0  0  0  0
 45 51  1  0  0  0  0
 46 47  1  0  0  0  0
 46 50  1  0  0  0  0
 47 48  2  0  0  0  0
 47 49  1  0  0  0  0
 55 56  1  0  0  0  0
 55 72  1  0  0  0  0
 55 73  1  0  0  0  0
 56 57  1  0  0  0  0
 56 71  1  1  0  0  0
 57 58  1  0  0  0  0
 57 69  1  0  0  0  0
 57 70  1  0  0  0  0
 58 59  1  0  0  0  0
 58 68  1  0  0  0  0
 59 60  2  0  0  0  0
 59 64  1  0  0  0  0
 60 61  1  0  0  0  0
 61 62  2  0  0  0  0
 61 67  1  0  0  0  0
 62 63  1  0  0  0  0
 62 66  1  0  0  0  0
 63 64  2  0  0  0  0
 63 65  1  0  0  0  0
M  CHG  1  15   1
M  END
>  <MODEL>
       1

$$$$
