tmp_first_model_16_38.pdb
 OpenBabel08282501503D

 46 48  0  0  1  0  0  0  0  0999 V2000
   -8.1580   -4.6950  -26.5420 C   0  0  0  0  0  0  0  0  0  0  0  0
   -8.6540   -4.9600  -25.1180 C   0  0  1  0  0  0  0  0  0  0  0  0
   -7.5900   -5.5230  -24.1810 C   0  0  0  0  0  0  0  0  0  0  0  0
   -6.6170   -4.5170  -23.5540 C   0  0  1  0  0  0  0  0  0  0  0  0
   -5.4130   -4.1590  -24.4390 C   0  0  0  0  0  0  0  0  0  0  0  0
   -4.6070   -3.7380  -23.8290 H   0  0  0  0  0  0  0  0  0  0  0  0
   -5.6630   -3.4320  -25.2150 H   0  0  0  0  0  0  0  0  0  0  0  0
   -5.0170   -5.0540  -24.9370 H   0  0  0  0  0  0  0  0  0  0  0  0
   -7.3280   -3.3410  -23.0130 N   0  0  0  0  0  0  0  0  0  0  0  0
   -6.7240   -2.7060  -21.9390 C   0  0  0  0  0  0  0  0  0  0  0  0
   -5.6770   -3.1230  -21.4710 O   0  0  0  0  0  0  0  0  0  0  0  0
   -7.4090   -1.4730  -21.2890 C   0  0  0  0  0  0  0  0  0  0  0  0
   -6.5850   -0.8360  -20.1970 C   0  0  0  0  0  0  0  0  0  0  0  0
   -6.8950   -1.0570  -18.8830 C   0  0  0  0  0  0  0  0  0  0  0  0
   -6.1940   -0.6040  -17.8150 N   0  0  0  0  0  0  0  0  0  0  0  0
   -5.1280    0.1070  -18.0750 C   0  0  0  0  0  0  0  0  0  0  0  0
   -4.7150    0.4970  -19.3800 C   0  0  0  0  0  0  0  0  0  0  0  0
   -3.5990    1.3470  -19.6200 C   0  0  0  0  0  0  0  0  0  0  0  0
   -3.2000    1.6370  -20.8980 C   0  0  0  0  0  0  0  0  0  0  0  0
   -3.9080    1.0940  -21.9940 C   0  0  0  0  0  0  0  0  0  0  0  0
   -5.0030    0.2910  -21.7900 C   0  0  0  0  0  0  0  0  0  0  0  0
   -5.4510   -0.0180  -20.4800 C   0  0  0  0  0  0  0  0  0  0  0  0
   -5.5360   -0.1240  -22.6400 H   0  0  0  0  0  0  0  0  0  0  0  0
   -3.5780    1.3170  -23.0040 H   0  0  0  0  0  0  0  0  0  0  0  0
   -2.3310    2.2670  -21.0860 H   0  0  0  0  0  0  0  0  0  0  0  0
   -3.0630    1.7650  -18.7680 H   0  0  0  0  0  0  0  0  0  0  0  0
   -4.5370    0.3840  -17.2010 H   0  0  0  0  0  0  0  0  0  0  0  0
   -7.7410   -1.6750  -18.5970 H   0  0  0  0  0  0  0  0  0  0  0  0
   -7.6730   -0.7140  -22.0360 H   0  0  0  0  0  0  0  0  0  0  0  0
   -8.3590   -1.8080  -20.8490 H   0  0  0  0  0  0  0  0  0  0  0  0
   -8.4090   -2.7210  -23.7930 C   0  0  1  0  0  0  0  0  0  0  0  0
   -7.9390   -1.6610  -24.8000 C   0  0  0  0  0  0  0  0  0  0  0  0
   -7.4440   -2.0880  -25.6760 H   0  0  0  0  0  0  0  0  0  0  0  0
   -8.7980   -1.0850  -25.1700 H   0  0  0  0  0  0  0  0  0  0  0  0
   -7.2440   -0.9490  -24.3440 H   0  0  0  0  0  0  0  0  0  0  0  0
   -9.3270   -3.7780  -24.4230 C   0  0  0  0  0  0  0  0  0  0  0  0
   -9.9780   -4.1700  -23.6350 H   0  0  0  0  0  0  0  0  0  0  0  0
   -9.9920   -3.2780  -25.1330 H   0  0  0  0  0  0  0  0  0  0  0  0
   -9.0300   -2.1960  -23.0610 H   0  0  0  0  0  0  0  0  0  0  0  0
   -6.1950   -5.0140  -22.6780 H   0  0  0  0  0  0  0  0  0  0  0  0
   -8.0930   -6.0540  -23.3650 H   0  0  0  0  0  0  0  0  0  0  0  0
   -7.0120   -6.2840  -24.7120 H   0  0  0  0  0  0  0  0  0  0  0  0
   -9.4280   -5.7360  -25.2230 H   0  0  0  0  0  0  0  0  0  0  0  0
   -7.9240   -5.6400  -27.0480 H   0  0  0  0  0  0  0  0  0  0  0  0
   -8.9300   -4.1940  -27.1380 H   0  0  0  0  0  0  0  0  0  0  0  0
   -7.2560   -4.0800  -26.5810 H   0  0  0  0  0  0  0  0  0  0  0  0
  1  2  1  0  0  0  0
  1 44  1  0  0  0  0
  1 45  1  0  0  0  0
  1 46  1  0  0  0  0
  2  3  1  0  0  0  0
  2 36  1  0  0  0  0
  2 43  1  6  0  0  0
  3  4  1  0  0  0  0
  3 41  1  0  0  0  0
  3 42  1  0  0  0  0
  4  5  1  0  0  0  0
  4  9  1  0  0  0  0
  4 40  1  1  0  0  0
  5  6  1  0  0  0  0
  5  7  1  0  0  0  0
  5  8  1  0  0  0  0
  9 10  1  0  0  0  0
  9 31  1  0  0  0  0
 10 11  2  0  0  0  0
 10 12  1  0  0  0  0
 12 13  1  0  0  0  0
 12 29  1  0  0  0  0
 12 30  1  0  0  0  0
 13 14  2  0  0  0  0
 13 22  1  0  0  0  0
 14 15  1  0  0  0  0
 14 28  1  0  0  0  0
 15 16  2  0  0  0  0
 16 17  1  0  0  0  0
 16 27  1  0  0  0  0
 17 18  2  0  0  0  0
 17 22  1  0  0  0  0
 18 19  1  0  0  0  0
 18 26  1  0  0  0  0
 19 20  2  0  0  0  0
 19 25  1  0  0  0  0
 20 21  1  0  0  0  0
 20 24  1  0  0  0  0
 21 22  2  0  0  0  0
 21 23  1  0  0  0  0
 31 32  1  0  0  0  0
 31 36  1  0  0  0  0
 31 39  1  1  0  0  0
 32 33  1  0  0  0  0
 32 34  1  0  0  0  0
 32 35  1  0  0  0  0
 36 37  1  0  0  0  0
 36 38  1  0  0  0  0
M  END
>  <MODEL>
       1

$$$$
