tmp_first_model_5_28.pdb
 OpenBabel08272519233D

 64 68  0  0  1  0  0  0  0  0999 V2000
  -14.7220   -1.6760  -23.2890 C   0  0  0  0  0  0  0  0  0  0  0  0
  -13.5100   -2.4070  -22.9750 N   0  0  0  0  0  0  0  0  0  0  0  0
  -13.2610   -2.8150  -21.6960 C   0  0  0  0  0  0  0  0  0  0  0  0
  -13.7930   -2.3450  -20.7020 O   0  0  0  0  0  0  0  0  0  0  0  0
  -12.2990   -3.9890  -21.6300 C   0  0  0  0  0  0  0  0  0  0  0  0
  -11.0550   -3.8290  -22.3580 N   0  0  0  0  0  0  0  0  0  0  0  0
   -9.9020   -3.3630  -21.6120 C   0  0  0  0  0  0  0  0  0  0  0  0
   -8.7140   -2.9170  -22.4890 C   0  0  2  0  0  0  0  0  0  0  0  0
   -7.5240   -2.7950  -21.5380 C   0  0  0  0  0  0  0  0  0  0  0  0
   -6.8330   -3.6990  -21.1090 O   0  0  0  0  0  0  0  0  0  0  0  0
   -7.3630   -1.4630  -21.2010 N   0  0  0  0  0  0  0  0  0  0  0  0
   -6.4050   -1.1320  -20.2210 C   0  0  0  0  0  0  0  0  0  0  0  0
   -6.4480   -1.7660  -19.0030 C   0  0  0  0  0  0  0  0  0  0  0  0
   -5.5170   -1.6150  -18.0330 N   0  0  0  0  0  0  0  0  0  0  0  0
   -4.4860   -0.8460  -18.2990 C   0  0  0  0  0  0  0  0  0  0  0  0
   -4.3170   -0.1380  -19.5210 C   0  0  0  0  0  0  0  0  0  0  0  0
   -3.2090    0.7240  -19.7490 C   0  0  0  0  0  0  0  0  0  0  0  0
   -3.1550    1.5100  -20.8670 C   0  0  0  0  0  0  0  0  0  0  0  0
   -4.1590    1.4050  -21.8600 C   0  0  0  0  0  0  0  0  0  0  0  0
   -5.2060    0.5360  -21.6970 C   0  0  0  0  0  0  0  0  0  0  0  0
   -5.3290   -0.2350  -20.5040 C   0  0  0  0  0  0  0  0  0  0  0  0
   -5.9480    0.4460  -22.4870 H   0  0  0  0  0  0  0  0  0  0  0  0
   -4.0820    1.9930  -22.7700 H   0  0  0  0  0  0  0  0  0  0  0  0
   -2.3310    2.2000  -21.0140 H   0  0  0  0  0  0  0  0  0  0  0  0
   -2.4720    0.8320  -18.9620 H   0  0  0  0  0  0  0  0  0  0  0  0
   -3.7290   -0.7520  -17.5200 H   0  0  0  0  0  0  0  0  0  0  0  0
   -7.2650   -2.4500  -18.7730 H   0  0  0  0  0  0  0  0  0  0  0  0
   -8.3840   -0.6100  -21.8040 C   0  0  0  0  0  0  0  0  0  0  0  0
   -8.8230   -1.4530  -23.0090 C   0  0  2  0  0  0  0  0  0  0  0  0
  -10.1670   -1.0840  -23.6140 C   0  0  0  0  0  0  0  0  0  0  0  0
  -10.0620    0.4850  -24.4630 S   0  0  0  0  0  0  0  0  0  0  0  0
   -9.2050    0.3020  -25.6230 O   0  0  0  0  0  0  0  0  0  0  0  0
   -9.8220    1.5420  -23.4960 O   0  0  0  0  0  0  0  0  0  0  0  0
  -11.5840    0.6720  -25.0330 N   0  0  0  0  0  0  0  0  0  0  0  0
  -12.6690    1.0340  -24.1440 C   0  0  0  0  0  0  0  0  0  0  0  0
  -12.4750    2.0180  -23.7170 H   0  0  0  0  0  0  0  0  0  0  0  0
  -12.7870    0.3070  -23.3330 H   0  0  0  0  0  0  0  0  0  0  0  0
  -13.6000    1.0680  -24.7170 H   0  0  0  0  0  0  0  0  0  0  0  0
  -11.7670    0.0960  -25.8400 H   0  0  0  0  0  0  0  0  0  0  0  0
  -10.4620   -1.8240  -24.3670 H   0  0  0  0  0  0  0  0  0  0  0  0
  -10.9530   -1.0250  -22.8550 H   0  0  0  0  0  0  0  0  0  0  0  0
   -8.0650   -1.3600  -23.8000 H   0  0  0  0  0  0  0  0  0  0  0  0
   -9.2270   -0.4370  -21.1180 H   0  0  0  0  0  0  0  0  0  0  0  0
   -8.0000    0.3640  -22.0910 H   0  0  0  0  0  0  0  0  0  0  0  0
   -8.5010   -3.9270  -23.5820 C   0  0  0  0  0  0  0  0  0  0  0  0
   -7.2270   -4.1520  -24.1170 C   0  0  0  0  0  0  0  0  0  0  0  0
   -7.0460   -5.1540  -25.0560 C   0  0  0  0  0  0  0  0  0  0  0  0
   -5.4300   -5.5420  -25.5910 Cl  0  0  0  0  0  0  0  0  0  0  0  0
   -8.1200   -5.8980  -25.5480 C   0  0  0  0  0  0  0  0  0  0  0  0
   -9.3910   -5.6260  -25.0710 C   0  0  0  0  0  0  0  0  0  0  0  0
   -9.5800   -4.6620  -24.0850 C   0  0  0  0  0  0  0  0  0  0  0  0
  -10.9610   -4.4520  -23.5710 C   0  0  0  0  0  0  0  0  0  0  0  0
  -11.9640   -4.7910  -24.1920 O   0  0  0  0  0  0  0  0  0  0  0  0
  -10.2590   -6.1720  -25.4280 H   0  0  0  0  0  0  0  0  0  0  0  0
   -7.9420   -6.6820  -26.2790 H   0  0  0  0  0  0  0  0  0  0  0  0
   -6.3780   -3.5690  -23.7670 H   0  0  0  0  0  0  0  0  0  0  0  0
  -10.2180   -2.5240  -20.9860 H   0  0  0  0  0  0  0  0  0  0  0  0
   -9.5360   -4.1520  -20.9490 H   0  0  0  0  0  0  0  0  0  0  0  0
  -12.8260   -4.8090  -22.1220 H   0  0  0  0  0  0  0  0  0  0  0  0
  -12.1470   -4.2330  -20.5790 H   0  0  0  0  0  0  0  0  0  0  0  0
  -13.1590   -3.0310  -23.6960 H   0  0  0  0  0  0  0  0  0  0  0  0
  -14.4940   -0.7350  -23.7910 H   0  0  0  0  0  0  0  0  0  0  0  0
  -15.2450   -1.4570  -22.3600 H   0  0  0  0  0  0  0  0  0  0  0  0
  -15.3670   -2.2620  -23.9470 H   0  0  0  0  0  0  0  0  0  0  0  0
  1  2  1  0  0  0  0
  1 62  1  0  0  0  0
  1 63  1  0  0  0  0
  1 64  1  0  0  0  0
  2  3  1  0  0  0  0
  2 61  1  0  0  0  0
  3  4  2  0  0  0  0
  3  5  1  0  0  0  0
  5  6  1  0  0  0  0
  5 59  1  0  0  0  0
  5 60  1  0  0  0  0
  6  7  1  0  0  0  0
  6 52  1  0  0  0  0
  7  8  1  0  0  0  0
  7 57  1  0  0  0  0
  7 58  1  0  0  0  0
  8  9  1  1  0  0  0
  8 29  1  0  0  0  0
  8 45  1  0  0  0  0
  9 10  2  0  0  0  0
  9 11  1  0  0  0  0
 11 12  1  0  0  0  0
 11 28  1  0  0  0  0
 12 13  2  0  0  0  0
 12 21  1  0  0  0  0
 13 14  1  0  0  0  0
 13 27  1  0  0  0  0
 14 15  2  0  0  0  0
 15 16  1  0  0  0  0
 15 26  1  0  0  0  0
 16 17  2  0  0  0  0
 16 21  1  0  0  0  0
 17 18  1  0  0  0  0
 17 25  1  0  0  0  0
 18 19  2  0  0  0  0
 18 24  1  0  0  0  0
 19 20  1  0  0  0  0
 19 23  1  0  0  0  0
 20 21  2  0  0  0  0
 20 22  1  0  0  0  0
 28 29  1  0  0  0  0
 28 43  1  0  0  0  0
 28 44  1  0  0  0  0
 29 30  1  0  0  0  0
 29 42  1  6  0  0  0
 30 31  1  0  0  0  0
 30 40  1  0  0  0  0
 30 41  1  0  0  0  0
 31 32  2  0  0  0  0
 31 33  2  0  0  0  0
 31 34  1  0  0  0  0
 34 35  1  0  0  0  0
 34 39  1  0  0  0  0
 35 36  1  0  0  0  0
 35 37  1  0  0  0  0
 35 38  1  0  0  0  0
 45 46  2  0  0  0  0
 45 51  1  0  0  0  0
 46 47  1  0  0  0  0
 46 56  1  0  0  0  0
 47 48  1  0  0  0  0
 47 49  2  0  0  0  0
 49 50  1  0  0  0  0
 49 55  1  0  0  0  0
 50 51  2  0  0  0  0
 50 54  1  0  0  0  0
 51 52  1  0  0  0  0
 52 53  2  0  0  0  0
M  END
>  <MODEL>
       1

$$$$
