tmp_first_model_8_26.pdb
 OpenBabel08272521063D

 55 60  0  0  1  0  0  0  0  0999 V2000
  -10.4150   -0.9760  -23.3660 C   0  0  0  0  0  0  0  0  0  0  0  0
   -8.9920   -1.3800  -22.9830 C   0  0  1  0  0  0  0  0  0  0  0  0
   -8.3890   -0.4800  -21.8970 C   0  0  0  0  0  0  0  0  0  0  0  0
   -7.4060   -1.3370  -21.2510 N   0  0  0  0  0  0  0  0  0  0  0  0
   -6.5980   -0.8700  -20.1910 C   0  0  0  0  0  0  0  0  0  0  0  0
   -6.8920   -1.1750  -18.8870 C   0  0  0  0  0  0  0  0  0  0  0  0
   -6.2300   -0.6550  -17.8230 N   0  0  0  0  0  0  0  0  0  0  0  0
   -5.2370    0.1680  -18.0640 C   0  0  0  0  0  0  0  0  0  0  0  0
   -4.8020    0.5380  -19.3710 C   0  0  0  0  0  0  0  0  0  0  0  0
   -3.6960    1.4000  -19.5970 C   0  0  0  0  0  0  0  0  0  0  0  0
   -3.3390    1.7420  -20.8750 C   0  0  0  0  0  0  0  0  0  0  0  0
   -4.0610    1.2360  -21.9790 C   0  0  0  0  0  0  0  0  0  0  0  0
   -5.1160    0.3800  -21.7850 C   0  0  0  0  0  0  0  0  0  0  0  0
   -5.5120    0.0160  -20.4720 C   0  0  0  0  0  0  0  0  0  0  0  0
   -5.6480   -0.0410  -22.6310 H   0  0  0  0  0  0  0  0  0  0  0  0
   -3.7610    1.5030  -22.9880 H   0  0  0  0  0  0  0  0  0  0  0  0
   -2.4910    2.3970  -21.0520 H   0  0  0  0  0  0  0  0  0  0  0  0
   -3.1440    1.7800  -18.7420 H   0  0  0  0  0  0  0  0  0  0  0  0
   -4.7150    0.5820  -17.2010 H   0  0  0  0  0  0  0  0  0  0  0  0
   -7.7060   -1.8590  -18.6530 H   0  0  0  0  0  0  0  0  0  0  0  0
   -7.6430   -2.6790  -21.4460 C   0  0  0  0  0  0  0  0  0  0  0  0
   -7.0050   -3.5720  -20.9240 O   0  0  0  0  0  0  0  0  0  0  0  0
   -8.8180   -2.8330  -22.4220 C   0  0  1  0  0  0  0  0  0  0  0  0
  -10.0390   -3.2620  -21.5750 C   0  0  0  0  0  0  0  0  0  0  0  0
  -11.1540   -3.7310  -22.3900 N   0  0  0  0  0  0  0  0  0  0  0  0
  -12.5320   -3.6390  -21.9040 C   0  0  0  0  0  0  0  0  0  0  0  0
  -13.3800   -2.5350  -22.4620 C   0  0  0  0  0  0  0  0  0  0  0  0
  -14.0850   -2.4480  -23.6760 C   0  0  0  0  0  0  0  0  0  0  0  0
  -14.7650   -1.3020  -23.7010 N   0  0  0  0  0  0  0  0  0  0  0  0
  -14.4580   -0.7540  -22.5430 N   0  0  0  0  0  0  0  0  0  0  0  0
  -13.6540   -1.4430  -21.7540 N   0  0  0  0  0  0  0  0  0  0  0  0
  -14.8600    0.1170  -22.2190 H   0  0  0  0  0  0  0  0  0  0  0  0
  -14.2120   -3.1770  -24.4620 H   0  0  0  0  0  0  0  0  0  0  0  0
  -12.5440   -3.5250  -20.8180 H   0  0  0  0  0  0  0  0  0  0  0  0
  -13.0230   -4.5640  -22.2070 H   0  0  0  0  0  0  0  0  0  0  0  0
  -10.9560   -4.5290  -23.4890 C   0  0  0  0  0  0  0  0  0  0  0  0
  -11.8990   -5.0580  -24.0650 O   0  0  0  0  0  0  0  0  0  0  0  0
   -9.5510   -4.7110  -23.9540 C   0  0  0  0  0  0  0  0  0  0  0  0
   -9.2970   -5.6950  -24.9100 C   0  0  0  0  0  0  0  0  0  0  0  0
   -8.0230   -5.9000  -25.4010 C   0  0  0  0  0  0  0  0  0  0  0  0
   -7.0130   -5.0680  -24.9330 C   0  0  0  0  0  0  0  0  0  0  0  0
   -5.7700   -5.2430  -25.4130 F   0  0  0  0  0  0  0  0  0  0  0  0
   -7.2370   -4.0850  -23.9860 C   0  0  0  0  0  0  0  0  0  0  0  0
   -8.5270   -3.8940  -23.4680 C   0  0  0  0  0  0  0  0  0  0  0  0
   -6.3900   -3.5160  -23.6210 H   0  0  0  0  0  0  0  0  0  0  0  0
   -7.8000   -6.6990  -26.1030 H   0  0  0  0  0  0  0  0  0  0  0  0
  -10.1300   -6.3000  -25.2480 H   0  0  0  0  0  0  0  0  0  0  0  0
  -10.3650   -2.4120  -20.9570 H   0  0  0  0  0  0  0  0  0  0  0  0
   -9.6980   -4.0510  -20.8990 H   0  0  0  0  0  0  0  0  0  0  0  0
   -9.1520   -0.1420  -21.1770 H   0  0  0  0  0  0  0  0  0  0  0  0
   -7.9200    0.4200  -22.3050 H   0  0  0  0  0  0  0  0  0  0  0  0
   -8.3460   -1.3270  -23.8680 H   0  0  0  0  0  0  0  0  0  0  0  0
  -10.4340   -0.0040  -23.8660 H   0  0  0  0  0  0  0  0  0  0  0  0
  -10.8620   -1.7200  -24.0320 H   0  0  0  0  0  0  0  0  0  0  0  0
  -11.0600   -0.9050  -22.4830 H   0  0  0  0  0  0  0  0  0  0  0  0
  1  2  1  0  0  0  0
  1 53  1  0  0  0  0
  1 54  1  0  0  0  0
  1 55  1  0  0  0  0
  2  3  1  0  0  0  0
  2 23  1  0  0  0  0
  2 52  1  6  0  0  0
  3  4  1  0  0  0  0
  3 50  1  0  0  0  0
  3 51  1  0  0  0  0
  4  5  1  0  0  0  0
  4 21  1  0  0  0  0
  5  6  2  0  0  0  0
  5 14  1  0  0  0  0
  6  7  1  0  0  0  0
  6 20  1  0  0  0  0
  7  8  2  0  0  0  0
  8  9  1  0  0  0  0
  8 19  1  0  0  0  0
  9 10  2  0  0  0  0
  9 14  1  0  0  0  0
 10 11  1  0  0  0  0
 10 18  1  0  0  0  0
 11 12  2  0  0  0  0
 11 17  1  0  0  0  0
 12 13  1  0  0  0  0
 12 16  1  0  0  0  0
 13 14  2  0  0  0  0
 13 15  1  0  0  0  0
 21 22  2  0  0  0  0
 23 21  1  1  0  0  0
 23 24  1  0  0  0  0
 23 44  1  0  0  0  0
 24 25  1  0  0  0  0
 24 48  1  0  0  0  0
 24 49  1  0  0  0  0
 25 26  1  0  0  0  0
 25 36  1  0  0  0  0
 26 27  1  0  0  0  0
 26 34  1  0  0  0  0
 26 35  1  0  0  0  0
 27 28  1  0  0  0  0
 27 31  2  0  0  0  0
 28 29  2  0  0  0  0
 28 33  1  0  0  0  0
 29 30  1  0  0  0  0
 30 31  1  0  0  0  0
 30 32  1  0  0  0  0
 36 37  2  0  0  0  0
 36 38  1  0  0  0  0
 38 39  2  0  0  0  0
 38 44  1  0  0  0  0
 39 40  1  0  0  0  0
 39 47  1  0  0  0  0
 40 41  2  0  0  0  0
 40 46  1  0  0  0  0
 41 42  1  0  0  0  0
 41 43  1  0  0  0  0
 43 44  2  0  0  0  0
 43 45  1  0  0  0  0
M  END
>  <MODEL>
       1

$$$$
