tmp_first_model_11_19.pdb
 OpenBabel08272522543D

 42 45  0  0  1  0  0  0  0  0999 V2000
   -9.1430   -0.0600  -20.7260 O   0  0  0  0  0  0  0  0  0  0  0  0
   -8.6540   -0.9060  -21.4500 C   0  0  0  0  0  0  0  0  0  0  0  0
   -9.3660   -1.5020  -22.6770 C   0  0  1  0  0  0  0  0  0  0  0  0
  -10.4380   -0.5580  -23.1890 C   0  0  0  0  0  0  0  0  0  0  0  0
  -10.1000    0.7540  -23.5120 C   0  0  0  0  0  0  0  0  0  0  0  0
  -11.0710    1.6280  -23.9660 C   0  0  0  0  0  0  0  0  0  0  0  0
  -12.3990    1.2410  -24.0790 C   0  0  0  0  0  0  0  0  0  0  0  0
  -13.5520    2.5020  -24.3670 Cl  0  0  0  0  0  0  0  0  0  0  0  0
  -12.7260   -0.0990  -23.8630 C   0  0  0  0  0  0  0  0  0  0  0  0
  -14.3300   -0.6890  -24.1120 Cl  0  0  0  0  0  0  0  0  0  0  0  0
  -11.7470   -0.9860  -23.4060 C   0  0  0  0  0  0  0  0  0  0  0  0
  -12.0450   -2.0120  -23.1860 H   0  0  0  0  0  0  0  0  0  0  0  0
  -10.8320    2.6540  -24.2050 H   0  0  0  0  0  0  0  0  0  0  0  0
   -9.0880    1.1200  -23.3390 H   0  0  0  0  0  0  0  0  0  0  0  0
   -8.3340   -1.7860  -23.7750 C   0  0  0  0  0  0  0  0  0  0  0  0
   -7.2410   -2.7560  -23.3380 C   0  0  2  0  0  0  0  0  0  0  0  0
   -7.5420   -4.1060  -23.6600 O   0  0  0  0  0  0  0  0  0  0  0  0
   -8.3970   -4.3210  -23.2660 H   0  0  0  0  0  0  0  0  0  0  0  0
   -6.9340   -2.6370  -21.8350 C   0  0  0  0  0  0  0  0  0  0  0  0
   -7.3750   -1.3770  -21.2540 N   0  0  0  0  0  0  0  0  0  0  0  0
   -6.6080   -0.8080  -20.1920 C   0  0  0  0  0  0  0  0  0  0  0  0
   -6.9100   -1.0510  -18.8770 C   0  0  0  0  0  0  0  0  0  0  0  0
   -6.2040   -0.5590  -17.8270 N   0  0  0  0  0  0  0  0  0  0  0  0
   -5.1690    0.2030  -18.0830 C   0  0  0  0  0  0  0  0  0  0  0  0
   -4.7260    0.5230  -19.3970 C   0  0  0  0  0  0  0  0  0  0  0  0
   -3.5970    1.3510  -19.6390 C   0  0  0  0  0  0  0  0  0  0  0  0
   -3.2120    1.6380  -20.9190 C   0  0  0  0  0  0  0  0  0  0  0  0
   -3.9330    1.1050  -22.0120 C   0  0  0  0  0  0  0  0  0  0  0  0
   -5.0240    0.3010  -21.8010 C   0  0  0  0  0  0  0  0  0  0  0  0
   -5.4550   -0.0050  -20.4850 C   0  0  0  0  0  0  0  0  0  0  0  0
   -5.5880   -0.0960  -22.6370 H   0  0  0  0  0  0  0  0  0  0  0  0
   -3.6290    1.3490  -23.0250 H   0  0  0  0  0  0  0  0  0  0  0  0
   -2.3610    2.2890  -21.1050 H   0  0  0  0  0  0  0  0  0  0  0  0
   -3.0680    1.7700  -18.7870 H   0  0  0  0  0  0  0  0  0  0  0  0
   -4.6240    0.6110  -17.2290 H   0  0  0  0  0  0  0  0  0  0  0  0
   -7.7580   -1.6710  -18.5960 H   0  0  0  0  0  0  0  0  0  0  0  0
   -7.3920   -3.5110  -21.3360 H   0  0  0  0  0  0  0  0  0  0  0  0
   -5.8580   -2.6960  -21.6660 H   0  0  0  0  0  0  0  0  0  0  0  0
   -6.3400   -2.5480  -23.9200 H   0  0  0  0  0  0  0  0  0  0  0  0
   -7.8960   -0.8290  -24.0860 H   0  0  0  0  0  0  0  0  0  0  0  0
   -8.8240   -2.2060  -24.6590 H   0  0  0  0  0  0  0  0  0  0  0  0
   -9.8470   -2.4440  -22.3750 H   0  0  0  0  0  0  0  0  0  0  0  0
  1  2  2  0  0  0  0
  2  3  1  0  0  0  0
  2 20  1  0  0  0  0
  3  4  1  0  0  0  0
  3 15  1  0  0  0  0
  3 42  1  1  0  0  0
  4  5  2  0  0  0  0
  4 11  1  0  0  0  0
  5  6  1  0  0  0  0
  5 14  1  0  0  0  0
  6  7  2  0  0  0  0
  6 13  1  0  0  0  0
  7  8  1  0  0  0  0
  7  9  1  0  0  0  0
  9 10  1  0  0  0  0
  9 11  2  0  0  0  0
 11 12  1  0  0  0  0
 15 16  1  0  0  0  0
 15 40  1  0  0  0  0
 15 41  1  0  0  0  0
 16 17  1  0  0  0  0
 16 19  1  0  0  0  0
 16 39  1  6  0  0  0
 17 18  1  0  0  0  0
 19 20  1  0  0  0  0
 19 37  1  0  0  0  0
 19 38  1  0  0  0  0
 20 21  1  0  0  0  0
 21 22  2  0  0  0  0
 21 30  1  0  0  0  0
 22 23  1  0  0  0  0
 22 36  1  0  0  0  0
 23 24  2  0  0  0  0
 24 25  1  0  0  0  0
 24 35  1  0  0  0  0
 25 26  2  0  0  0  0
 25 30  1  0  0  0  0
 26 27  1  0  0  0  0
 26 34  1  0  0  0  0
 27 28  2  0  0  0  0
 27 33  1  0  0  0  0
 28 29  1  0  0  0  0
 28 32  1  0  0  0  0
 29 30  2  0  0  0  0
 29 31  1  0  0  0  0
M  END
>  <MODEL>
       1

$$$$
