tmp_first_model_13_95.pdb
 OpenBabel08282500103D

 66 71  0  0  1  0  0  0  0  0999 V2000
   -7.4690    3.2940  -21.6960 C   0  0  0  0  0  0  0  0  0  0  0  0
   -8.3550    2.8490  -22.7530 N   0  0  0  0  0  0  0  0  0  0  0  0
   -7.8000    2.2020  -23.7970 C   0  0  0  0  0  0  0  0  0  0  0  0
   -6.5860    2.1240  -23.9390 O   0  0  0  0  0  0  0  0  0  0  0  0
   -8.7580    1.5800  -24.8200 C   0  0  0  0  0  0  0  0  0  0  0  0
   -9.4610    0.4100  -24.3290 N   0  0  0  0  0  0  0  0  0  0  0  0
   -8.7250   -0.8350  -24.1920 C   0  0  0  0  0  0  0  0  0  0  0  0
   -9.0840   -1.5720  -22.8750 C   0  0  2  0  0  0  0  0  0  0  0  0
   -8.5440   -0.7710  -21.6550 C   0  0  0  0  0  0  0  0  0  0  0  0
   -9.0270    0.2270  -21.1590 O   0  0  0  0  0  0  0  0  0  0  0  0
   -7.3980   -1.3820  -21.2040 N   0  0  0  0  0  0  0  0  0  0  0  0
   -6.6050   -0.8080  -20.1770 C   0  0  0  0  0  0  0  0  0  0  0  0
   -6.9070   -1.0420  -18.8600 C   0  0  0  0  0  0  0  0  0  0  0  0
   -6.1990   -0.5470  -17.8180 N   0  0  0  0  0  0  0  0  0  0  0  0
   -5.1650    0.2090  -18.0820 C   0  0  0  0  0  0  0  0  0  0  0  0
   -4.7280    0.5320  -19.3970 C   0  0  0  0  0  0  0  0  0  0  0  0
   -3.6020    1.3670  -19.6420 C   0  0  0  0  0  0  0  0  0  0  0  0
   -3.2180    1.6610  -20.9210 C   0  0  0  0  0  0  0  0  0  0  0  0
   -3.9430    1.1340  -22.0130 C   0  0  0  0  0  0  0  0  0  0  0  0
   -5.0340    0.3250  -21.8020 C   0  0  0  0  0  0  0  0  0  0  0  0
   -5.4640    0.0020  -20.4860 C   0  0  0  0  0  0  0  0  0  0  0  0
   -5.5950   -0.0540  -22.6520 H   0  0  0  0  0  0  0  0  0  0  0  0
   -3.6560    1.3750  -23.0310 H   0  0  0  0  0  0  0  0  0  0  0  0
   -2.3680    2.3130  -21.1010 H   0  0  0  0  0  0  0  0  0  0  0  0
   -3.0710    1.7730  -18.7850 H   0  0  0  0  0  0  0  0  0  0  0  0
   -4.6170    0.6120  -17.2290 H   0  0  0  0  0  0  0  0  0  0  0  0
   -7.7560   -1.6680  -18.5980 H   0  0  0  0  0  0  0  0  0  0  0  0
   -7.0300   -2.5750  -21.9340 C   0  0  0  0  0  0  0  0  0  0  0  0
   -8.3050   -2.9220  -22.7300 C   0  0  2  0  0  0  0  0  0  0  0  0
   -7.9950   -3.7280  -24.0180 C   0  0  0  0  0  0  0  0  0  0  0  0
   -7.4780   -5.0650  -23.7800 N   0  0  0  0  0  0  0  0  0  0  0  0
   -6.1880   -5.3890  -23.5150 C   0  0  0  0  0  0  0  0  0  0  0  0
   -5.0980   -4.6010  -23.9350 C   0  0  0  0  0  0  0  0  0  0  0  0
   -3.8410   -5.0620  -23.5910 C   0  0  0  0  0  0  0  0  0  0  0  0
   -3.6400   -6.1830  -22.8820 N   0  0  0  0  0  0  0  0  0  0  0  0
   -4.7420   -6.8530  -22.5600 C   0  0  0  0  0  0  0  0  0  0  0  0
   -6.0020   -6.5420  -22.8440 N   0  0  0  0  0  0  0  0  0  0  0  0
   -4.5850   -7.7770  -21.9890 H   0  0  0  0  0  0  0  0  0  0  0  0
   -2.9410   -4.5110  -23.8920 H   0  0  0  0  0  0  0  0  0  0  0  0
   -5.2450   -3.6910  -24.5170 H   0  0  0  0  0  0  0  0  0  0  0  0
   -8.1230   -5.7910  -23.5090 H   0  0  0  0  0  0  0  0  0  0  0  0
   -7.2730   -3.1770  -24.6390 H   0  0  0  0  0  0  0  0  0  0  0  0
   -8.9100   -3.8580  -24.6060 H   0  0  0  0  0  0  0  0  0  0  0  0
   -8.9320   -3.5620  -22.1020 H   0  0  0  0  0  0  0  0  0  0  0  0
   -6.1760   -2.3810  -22.6030 H   0  0  0  0  0  0  0  0  0  0  0  0
   -6.7270   -3.3740  -21.2490 H   0  0  0  0  0  0  0  0  0  0  0  0
  -10.6000   -1.6470  -22.7880 C   0  0  0  0  0  0  0  0  0  0  0  0
  -11.2170   -2.5590  -21.9230 C   0  0  0  0  0  0  0  0  0  0  0  0
  -12.5950   -2.5970  -21.8210 C   0  0  0  0  0  0  0  0  0  0  0  0
  -13.3470   -3.7330  -20.7400 Cl  0  0  0  0  0  0  0  0  0  0  0  0
  -13.4060   -1.7310  -22.5530 C   0  0  0  0  0  0  0  0  0  0  0  0
  -12.8050   -0.7840  -23.3570 C   0  0  0  0  0  0  0  0  0  0  0  0
  -11.4150   -0.7170  -23.4530 C   0  0  0  0  0  0  0  0  0  0  0  0
  -10.8250    0.4340  -24.2160 C   0  0  0  0  0  0  0  0  0  0  0  0
  -11.5160    1.3350  -24.6650 O   0  0  0  0  0  0  0  0  0  0  0  0
  -13.3860   -0.0540  -23.9120 H   0  0  0  0  0  0  0  0  0  0  0  0
  -14.4840   -1.7960  -22.4630 H   0  0  0  0  0  0  0  0  0  0  0  0
  -10.6350   -3.2290  -21.3030 H   0  0  0  0  0  0  0  0  0  0  0  0
   -7.6620   -0.5760  -24.1950 H   0  0  0  0  0  0  0  0  0  0  0  0
   -8.9350   -1.5000  -25.0460 H   0  0  0  0  0  0  0  0  0  0  0  0
   -9.5400    2.2810  -25.1290 H   0  0  0  0  0  0  0  0  0  0  0  0
   -8.1270    1.3280  -25.6800 H   0  0  0  0  0  0  0  0  0  0  0  0
   -9.3480    2.7710  -22.5850 H   0  0  0  0  0  0  0  0  0  0  0  0
   -6.8460    2.4600  -21.3440 H   0  0  0  0  0  0  0  0  0  0  0  0
   -8.0760    3.6740  -20.8890 H   0  0  0  0  0  0  0  0  0  0  0  0
   -6.8100    4.0910  -22.0530 H   0  0  0  0  0  0  0  0  0  0  0  0
  1  2  1  0  0  0  0
  1 64  1  0  0  0  0
  1 65  1  0  0  0  0
  1 66  1  0  0  0  0
  2  3  1  0  0  0  0
  2 63  1  0  0  0  0
  3  4  2  0  0  0  0
  3  5  1  0  0  0  0
  5  6  1  0  0  0  0
  5 61  1  0  0  0  0
  5 62  1  0  0  0  0
  6  7  1  0  0  0  0
  6 54  1  0  0  0  0
  7  8  1  0  0  0  0
  7 59  1  0  0  0  0
  7 60  1  0  0  0  0
  8  9  1  1  0  0  0
  8 29  1  0  0  0  0
  8 47  1  0  0  0  0
  9 10  2  0  0  0  0
  9 11  1  0  0  0  0
 11 12  1  0  0  0  0
 11 28  1  0  0  0  0
 12 13  2  0  0  0  0
 12 21  1  0  0  0  0
 13 14  1  0  0  0  0
 13 27  1  0  0  0  0
 14 15  2  0  0  0  0
 15 16  1  0  0  0  0
 15 26  1  0  0  0  0
 16 17  2  0  0  0  0
 16 21  1  0  0  0  0
 17 18  1  0  0  0  0
 17 25  1  0  0  0  0
 18 19  2  0  0  0  0
 18 24  1  0  0  0  0
 19 20  1  0  0  0  0
 19 23  1  0  0  0  0
 20 21  2  0  0  0  0
 20 22  1  0  0  0  0
 28 29  1  0  0  0  0
 28 45  1  0  0  0  0
 28 46  1  0  0  0  0
 29 30  1  0  0  0  0
 29 44  1  1  0  0  0
 30 31  1  0  0  0  0
 30 42  1  0  0  0  0
 30 43  1  0  0  0  0
 31 32  1  0  0  0  0
 31 41  1  0  0  0  0
 32 33  2  0  0  0  0
 32 37  1  0  0  0  0
 33 34  1  0  0  0  0
 33 40  1  0  0  0  0
 34 35  2  0  0  0  0
 34 39  1  0  0  0  0
 35 36  1  0  0  0  0
 36 37  2  0  0  0  0
 36 38  1  0  0  0  0
 47 48  2  0  0  0  0
 47 53  1  0  0  0  0
 48 49  1  0  0  0  0
 48 58  1  0  0  0  0
 49 50  1  0  0  0  0
 49 51  2  0  0  0  0
 51 52  1  0  0  0  0
 51 57  1  0  0  0  0
 52 53  2  0  0  0  0
 52 56  1  0  0  0  0
 53 54  1  0  0  0  0
 54 55  2  0  0  0  0
M  END
>  <MODEL>
       1

$$$$
