tmp_first_model_14_88.pdb
 OpenBabel08282500413D

 40 42  0  0  0  0  0  0  0  0999 V2000
   -8.4690    0.7570  -21.5550 O   0  0  0  0  0  0  0  0  0  0  0  0
   -8.5720   -0.4400  -21.7660 C   0  0  0  0  0  0  0  0  0  0  0  0
   -7.4900   -1.4140  -21.2830 C   0  0  0  0  0  0  0  0  0  0  0  0
   -6.6120   -0.8170  -20.2110 C   0  0  0  0  0  0  0  0  0  0  0  0
   -6.9210   -1.0110  -18.8900 C   0  0  0  0  0  0  0  0  0  0  0  0
   -6.2510   -0.4820  -17.8340 N   0  0  0  0  0  0  0  0  0  0  0  0
   -5.1940    0.2450  -18.0980 C   0  0  0  0  0  0  0  0  0  0  0  0
   -4.7470    0.5300  -19.4130 C   0  0  0  0  0  0  0  0  0  0  0  0
   -3.6100    1.3460  -19.6420 C   0  0  0  0  0  0  0  0  0  0  0  0
   -3.2170    1.6420  -20.9200 C   0  0  0  0  0  0  0  0  0  0  0  0
   -3.9410    1.1270  -22.0180 C   0  0  0  0  0  0  0  0  0  0  0  0
   -5.0460    0.3310  -21.8180 C   0  0  0  0  0  0  0  0  0  0  0  0
   -5.4790    0.0050  -20.5050 C   0  0  0  0  0  0  0  0  0  0  0  0
   -5.6130   -0.0330  -22.6680 H   0  0  0  0  0  0  0  0  0  0  0  0
   -3.6260    1.3760  -23.0290 H   0  0  0  0  0  0  0  0  0  0  0  0
   -2.3630    2.2930  -21.0930 H   0  0  0  0  0  0  0  0  0  0  0  0
   -3.0830    1.7460  -18.7790 H   0  0  0  0  0  0  0  0  0  0  0  0
   -4.6300    0.6530  -17.2550 H   0  0  0  0  0  0  0  0  0  0  0  0
   -7.7650   -1.6470  -18.6110 H   0  0  0  0  0  0  0  0  0  0  0  0
   -6.9050   -1.7580  -22.1470 H   0  0  0  0  0  0  0  0  0  0  0  0
   -7.9940   -2.2990  -20.8770 H   0  0  0  0  0  0  0  0  0  0  0  0
   -9.6620   -0.9720  -22.4050 N   0  0  0  0  0  0  0  0  0  0  0  0
  -10.7690   -0.0720  -22.7060 C   0  0  0  0  0  0  0  0  0  0  0  0
  -12.0750   -0.8370  -22.6540 C   0  0  0  0  0  0  0  0  0  0  0  0
  -12.1620   -1.8750  -23.7770 C   0  0  0  0  0  0  0  0  0  0  0  0
  -13.1580   -2.9380  -23.3570 C   0  0  0  0  0  0  0  0  0  0  0  0
  -12.7080   -3.5430  -22.2140 F   0  0  0  0  0  0  0  0  0  0  0  0
  -14.3650   -2.3690  -23.0640 F   0  0  0  0  0  0  0  0  0  0  0  0
  -13.3330   -3.7330  -24.0890 H   0  0  0  0  0  0  0  0  0  0  0  0
  -10.7630   -2.4630  -24.0390 C   0  0  0  0  0  0  0  0  0  0  0  0
   -9.8390   -2.3650  -22.8180 C   0  0  0  0  0  0  0  0  0  0  0  0
   -8.8650   -2.7870  -23.0780 H   0  0  0  0  0  0  0  0  0  0  0  0
  -10.2490   -2.9580  -21.9950 H   0  0  0  0  0  0  0  0  0  0  0  0
  -10.8380   -3.5050  -24.3690 H   0  0  0  0  0  0  0  0  0  0  0  0
  -10.2910   -1.9090  -24.8560 H   0  0  0  0  0  0  0  0  0  0  0  0
  -12.5580   -1.4250  -24.6960 H   0  0  0  0  0  0  0  0  0  0  0  0
  -12.0830   -1.3880  -21.7180 H   0  0  0  0  0  0  0  0  0  0  0  0
  -12.9570   -0.1950  -22.6570 H   0  0  0  0  0  0  0  0  0  0  0  0
  -10.7340    0.7370  -21.9790 H   0  0  0  0  0  0  0  0  0  0  0  0
  -10.6240    0.3650  -23.6990 H   0  0  0  0  0  0  0  0  0  0  0  0
  1  2  2  0  0  0  0
  2  3  1  0  0  0  0
  2 22  1  0  0  0  0
  3  4  1  0  0  0  0
  3 20  1  0  0  0  0
  3 21  1  0  0  0  0
  4  5  2  0  0  0  0
  4 13  1  0  0  0  0
  5  6  1  0  0  0  0
  5 19  1  0  0  0  0
  6  7  2  0  0  0  0
  7  8  1  0  0  0  0
  7 18  1  0  0  0  0
  8  9  2  0  0  0  0
  8 13  1  0  0  0  0
  9 10  1  0  0  0  0
  9 17  1  0  0  0  0
 10 11  2  0  0  0  0
 10 16  1  0  0  0  0
 11 12  1  0  0  0  0
 11 15  1  0  0  0  0
 12 13  2  0  0  0  0
 12 14  1  0  0  0  0
 22 23  1  0  0  0  0
 22 31  1  0  0  0  0
 23 24  1  0  0  0  0
 23 39  1  0  0  0  0
 23 40  1  0  0  0  0
 24 25  1  0  0  0  0
 24 37  1  0  0  0  0
 24 38  1  0  0  0  0
 25 26  1  0  0  0  0
 25 30  1  0  0  0  0
 25 36  1  0  0  0  0
 26 27  1  0  0  0  0
 26 28  1  0  0  0  0
 26 29  1  0  0  0  0
 30 31  1  0  0  0  0
 30 34  1  0  0  0  0
 30 35  1  0  0  0  0
 31 32  1  0  0  0  0
 31 33  1  0  0  0  0
M  END
>  <MODEL>
       1

$$$$
