tmp_first_model_2_69.pdb
 OpenBabel08272517383D

 63 67  0  0  0  0  0  0  0  0999 V2000
   -3.5490    2.9980  -26.2720 C   0  0  0  0  0  0  0  0  0  0  0  0
   -4.3740    1.9840  -26.0460 C   0  0  0  0  0  0  0  0  0  0  0  0
   -4.9240    1.1570  -27.1580 C   0  0  0  0  0  0  0  0  0  0  0  0
   -4.7750    1.4400  -28.3280 O   0  0  0  0  0  0  0  0  0  0  0  0
   -5.7140    0.0700  -26.7610 N   0  0  0  0  0  0  0  0  0  0  0  0
   -7.0090   -0.0110  -27.4200 C   0  0  0  0  0  0  0  0  0  0  0  0
   -7.6780   -1.3470  -27.1530 C   0  0  0  0  0  0  0  0  0  0  0  0
   -7.6970   -1.6410  -25.6500 C   0  0  0  0  0  0  0  0  0  0  0  0
   -6.2900   -1.5980  -25.0800 C   0  0  0  0  0  0  0  0  0  0  0  0
   -5.3310   -0.7920  -25.7230 C   0  0  0  0  0  0  0  0  0  0  0  0
   -3.9750   -0.8850  -25.3860 C   0  0  0  0  0  0  0  0  0  0  0  0
   -3.5830   -1.5880  -24.2660 C   0  0  0  0  0  0  0  0  0  0  0  0
   -4.5510   -2.2240  -23.4960 C   0  0  0  0  0  0  0  0  0  0  0  0
   -5.8580   -2.2820  -23.9440 C   0  0  0  0  0  0  0  0  0  0  0  0
   -6.8770   -3.1510  -23.0660 N   0  3  0  0  0  0  0  0  0  0  0  0
   -6.7010   -4.6670  -23.3020 C   0  0  0  0  0  0  0  0  0  0  0  0
   -7.0420   -5.0560  -24.7130 C   0  0  0  0  0  0  0  0  0  0  0  0
   -8.3540   -5.3860  -25.0700 C   0  0  0  0  0  0  0  0  0  0  0  0
   -8.6610   -5.7090  -26.3860 C   0  0  0  0  0  0  0  0  0  0  0  0
   -7.6700   -5.7260  -27.3640 C   0  0  0  0  0  0  0  0  0  0  0  0
   -6.3640   -5.4270  -26.9980 C   0  0  0  0  0  0  0  0  0  0  0  0
   -5.1090   -5.4620  -28.2080 Cl  0  0  0  0  0  0  0  0  0  0  0  0
   -6.0410   -5.1010  -25.6880 C   0  0  0  0  0  0  0  0  0  0  0  0
   -5.0120   -4.8690  -25.4230 H   0  0  0  0  0  0  0  0  0  0  0  0
   -7.8990   -5.9710  -28.3960 H   0  0  0  0  0  0  0  0  0  0  0  0
   -9.6810   -5.9570  -26.6580 H   0  0  0  0  0  0  0  0  0  0  0  0
   -9.1410   -5.3790  -24.3150 H   0  0  0  0  0  0  0  0  0  0  0  0
   -7.3270   -5.2020  -22.5850 H   0  0  0  0  0  0  0  0  0  0  0  0
   -5.6620   -4.8960  -23.0650 H   0  0  0  0  0  0  0  0  0  0  0  0
   -6.7950   -2.8470  -21.6380 C   0  0  0  0  0  0  0  0  0  0  0  0
   -6.2370   -3.6130  -20.8900 O   0  0  0  0  0  0  0  0  0  0  0  0
   -7.3980   -1.5000  -21.2170 C   0  0  0  0  0  0  0  0  0  0  0  0
   -6.5850   -0.8170  -20.1440 C   0  0  0  0  0  0  0  0  0  0  0  0
   -6.8850   -1.0300  -18.8240 C   0  0  0  0  0  0  0  0  0  0  0  0
   -6.2030   -0.5160  -17.7670 N   0  0  0  0  0  0  0  0  0  0  0  0
   -5.1680    0.2400  -18.0440 C   0  0  0  0  0  0  0  0  0  0  0  0
   -4.7360    0.5500  -19.3620 C   0  0  0  0  0  0  0  0  0  0  0  0
   -3.6000    1.3600  -19.6100 C   0  0  0  0  0  0  0  0  0  0  0  0
   -3.2050    1.6360  -20.8900 C   0  0  0  0  0  0  0  0  0  0  0  0
   -3.9420    1.1250  -21.9810 C   0  0  0  0  0  0  0  0  0  0  0  0
   -5.0530    0.3440  -21.7640 C   0  0  0  0  0  0  0  0  0  0  0  0
   -5.4710    0.0190  -20.4480 C   0  0  0  0  0  0  0  0  0  0  0  0
   -5.6030   -0.0520  -22.6090 H   0  0  0  0  0  0  0  0  0  0  0  0
   -3.6280    1.3540  -22.9990 H   0  0  0  0  0  0  0  0  0  0  0  0
   -2.3300    2.2550  -21.0710 H   0  0  0  0  0  0  0  0  0  0  0  0
   -3.0590    1.7560  -18.7540 H   0  0  0  0  0  0  0  0  0  0  0  0
   -4.6020    0.6450  -17.2030 H   0  0  0  0  0  0  0  0  0  0  0  0
   -7.7380   -1.6560  -18.5650 H   0  0  0  0  0  0  0  0  0  0  0  0
   -8.4110   -1.6900  -20.8260 H   0  0  0  0  0  0  0  0  0  0  0  0
   -7.5110   -0.8780  -22.1100 H   0  0  0  0  0  0  0  0  0  0  0  0
   -7.7970   -2.8390  -23.4320 H   0  0  0  0  0  0  0  0  0  0  0  0
   -4.3460   -2.5390  -22.4830 H   0  0  0  0  0  0  0  0  0  0  0  0
   -2.5360   -1.5820  -23.9840 H   0  0  0  0  0  0  0  0  0  0  0  0
   -3.2420   -0.3720  -25.9960 H   0  0  0  0  0  0  0  0  0  0  0  0
   -8.1570   -2.6210  -25.4690 H   0  0  0  0  0  0  0  0  0  0  0  0
   -8.3120   -0.8930  -25.1230 H   0  0  0  0  0  0  0  0  0  0  0  0
   -7.1490   -2.1510  -27.6810 H   0  0  0  0  0  0  0  0  0  0  0  0
   -8.6960   -1.3100  -27.5560 H   0  0  0  0  0  0  0  0  0  0  0  0
   -6.8220    0.1730  -28.4820 H   0  0  0  0  0  0  0  0  0  0  0  0
   -7.6580    0.8060  -27.0650 H   0  0  0  0  0  0  0  0  0  0  0  0
   -4.7170    1.7140  -25.0490 H   0  0  0  0  0  0  0  0  0  0  0  0
   -3.2080    3.6530  -25.4720 H   0  0  0  0  0  0  0  0  0  0  0  0
   -3.2120    3.2050  -27.2840 H   0  0  0  0  0  0  0  0  0  0  0  0
  1  2  2  0  0  0  0
  1 62  1  0  0  0  0
  1 63  1  0  0  0  0
  2  3  1  0  0  0  0
  2 61  1  0  0  0  0
  3  4  2  0  0  0  0
  3  5  1  0  0  0  0
  5  6  1  0  0  0  0
  5 10  1  0  0  0  0
  6  7  1  0  0  0  0
  6 59  1  0  0  0  0
  6 60  1  0  0  0  0
  7  8  1  0  0  0  0
  7 57  1  0  0  0  0
  7 58  1  0  0  0  0
  8  9  1  0  0  0  0
  8 55  1  0  0  0  0
  8 56  1  0  0  0  0
  9 10  2  0  0  0  0
  9 14  1  0  0  0  0
 10 11  1  0  0  0  0
 11 12  2  0  0  0  0
 11 54  1  0  0  0  0
 12 13  1  0  0  0  0
 12 53  1  0  0  0  0
 13 14  2  0  0  0  0
 13 52  1  0  0  0  0
 14 15  1  0  0  0  0
 15 16  1  0  0  0  0
 15 30  1  0  0  0  0
 15 51  1  0  0  0  0
 16 17  1  0  0  0  0
 16 28  1  0  0  0  0
 16 29  1  0  0  0  0
 17 18  2  0  0  0  0
 17 23  1  0  0  0  0
 18 19  1  0  0  0  0
 18 27  1  0  0  0  0
 19 20  2  0  0  0  0
 19 26  1  0  0  0  0
 20 21  1  0  0  0  0
 20 25  1  0  0  0  0
 21 22  1  0  0  0  0
 21 23  2  0  0  0  0
 23 24  1  0  0  0  0
 30 31  2  0  0  0  0
 30 32  1  0  0  0  0
 32 33  1  0  0  0  0
 32 49  1  0  0  0  0
 32 50  1  0  0  0  0
 33 34  2  0  0  0  0
 33 42  1  0  0  0  0
 34 35  1  0  0  0  0
 34 48  1  0  0  0  0
 35 36  2  0  0  0  0
 36 37  1  0  0  0  0
 36 47  1  0  0  0  0
 37 38  2  0  0  0  0
 37 42  1  0  0  0  0
 38 39  1  0  0  0  0
 38 46  1  0  0  0  0
 39 40  2  0  0  0  0
 39 45  1  0  0  0  0
 40 41  1  0  0  0  0
 40 44  1  0  0  0  0
 41 42  2  0  0  0  0
 41 43  1  0  0  0  0
M  CHG  1  15   1
M  END
>  <MODEL>
       1

$$$$
