tmp_first_model_8_16.pdb
 OpenBabel08272521063D

 61 66  0  0  1  0  0  0  0  0999 V2000
  -12.2610    3.8850  -21.6170 C   0  0  0  0  0  0  0  0  0  0  0  0
  -12.2650    2.7670  -22.5410 N   0  0  0  0  0  0  0  0  0  0  0  0
  -11.1550    2.4050  -23.2390 C   0  0  0  0  0  0  0  0  0  0  0  0
  -10.0690    2.9500  -23.1330 O   0  0  0  0  0  0  0  0  0  0  0  0
  -11.4180    1.3000  -24.2700 C   0  0  0  0  0  0  0  0  0  0  0  0
  -11.3270   -0.0360  -23.7100 N   0  0  0  0  0  0  0  0  0  0  0  0
  -10.1420   -0.8680  -23.9590 C   0  0  0  0  0  0  0  0  0  0  0  0
   -9.7070   -1.7230  -22.7250 C   0  0  2  0  0  0  0  0  0  0  0  0
   -9.0820   -0.7980  -21.6420 C   0  0  0  0  0  0  0  0  0  0  0  0
   -9.5720    0.2070  -21.1780 O   0  0  0  0  0  0  0  0  0  0  0  0
   -7.8500   -1.2980  -21.2800 N   0  0  0  0  0  0  0  0  0  0  0  0
   -7.1000   -0.7320  -20.2160 C   0  0  0  0  0  0  0  0  0  0  0  0
   -7.4750   -0.9420  -18.9130 C   0  0  0  0  0  0  0  0  0  0  0  0
   -6.7980   -0.4720  -17.8350 N   0  0  0  0  0  0  0  0  0  0  0  0
   -5.7240    0.2460  -18.0510 C   0  0  0  0  0  0  0  0  0  0  0  0
   -5.2290    0.5560  -19.3480 C   0  0  0  0  0  0  0  0  0  0  0  0
   -4.0830    1.3740  -19.5270 C   0  0  0  0  0  0  0  0  0  0  0  0
   -3.6170    1.6330  -20.7860 C   0  0  0  0  0  0  0  0  0  0  0  0
   -4.2780    1.0960  -21.9140 C   0  0  0  0  0  0  0  0  0  0  0  0
   -5.3960    0.3130  -21.7660 C   0  0  0  0  0  0  0  0  0  0  0  0
   -5.9140    0.0340  -20.4710 C   0  0  0  0  0  0  0  0  0  0  0  0
   -5.8970   -0.0940  -22.6390 H   0  0  0  0  0  0  0  0  0  0  0  0
   -3.8840    1.3030  -22.9050 H   0  0  0  0  0  0  0  0  0  0  0  0
   -2.7410    2.2600  -20.9260 H   0  0  0  0  0  0  0  0  0  0  0  0
   -3.5980    1.7870  -18.6440 H   0  0  0  0  0  0  0  0  0  0  0  0
   -5.1870    0.6200  -17.1760 H   0  0  0  0  0  0  0  0  0  0  0  0
   -8.3690   -1.5200  -18.6840 H   0  0  0  0  0  0  0  0  0  0  0  0
   -7.6040   -2.6290  -21.7900 C   0  0  0  0  0  0  0  0  0  0  0  0
   -8.5040   -2.6890  -23.0370 C   0  0  2  0  0  0  0  0  0  0  0  0
   -7.7090   -2.2900  -24.3010 C   0  0  0  0  0  0  0  0  0  0  0  0
   -6.6100   -3.2040  -24.5700 N   0  0  0  0  0  0  0  0  0  0  0  0
   -6.7920   -4.4420  -24.9950 N   0  0  0  0  0  0  0  0  0  0  0  0
   -5.5440   -4.8820  -25.0580 C   0  0  0  0  0  0  0  0  0  0  0  0
   -4.6460   -3.9470  -24.6830 N   0  0  0  0  0  0  0  0  0  0  0  0
   -5.3480   -2.8880  -24.3780 N   0  0  0  0  0  0  0  0  0  0  0  0
   -5.2800   -5.8790  -25.3790 H   0  0  0  0  0  0  0  0  0  0  0  0
   -8.3540   -2.3300  -25.1780 H   0  0  0  0  0  0  0  0  0  0  0  0
   -7.2740   -1.2910  -24.2030 H   0  0  0  0  0  0  0  0  0  0  0  0
   -8.8290   -3.7120  -23.2340 H   0  0  0  0  0  0  0  0  0  0  0  0
   -7.8860   -3.3960  -21.0580 H   0  0  0  0  0  0  0  0  0  0  0  0
   -6.5460   -2.7720  -22.0180 H   0  0  0  0  0  0  0  0  0  0  0  0
  -10.9940   -2.4310  -22.2170 C   0  0  0  0  0  0  0  0  0  0  0  0
  -11.0820   -3.5670  -21.5200 C   0  0  0  0  0  0  0  0  0  0  0  0
  -12.9430   -3.7390  -21.1040 C   0  0  0  0  0  0  0  0  0  0  0  0
  -12.5220   -5.2490  -19.1010 Cl  0  0  0  0  0  0  0  0  0  0  0  0
  -12.9780   -3.8120  -20.7620 C   0  0  0  0  0  0  0  0  0  0  0  0
  -13.4080   -2.3360  -21.6910 C   0  0  0  0  0  0  0  0  0  0  0  0
  -12.2980   -1.7630  -22.3800 C   0  0  0  0  0  0  0  0  0  0  0  0
  -12.4490   -0.5010  -23.0850 C   0  0  0  0  0  0  0  0  0  0  0  0
  -13.5070    0.1280  -23.1060 O   0  0  0  0  0  0  0  0  0  0  0  0
  -14.3440   -2.4270  -22.2150 H   0  0  0  0  0  0  0  0  0  0  0  0
  -12.9750   -3.1930  -19.8720 H   0  0  0  0  0  0  0  0  0  0  0  0
  -10.3460   -4.3450  -21.4040 H   0  0  0  0  0  0  0  0  0  0  0  0
   -9.3430   -0.2000  -24.2670 H   0  0  0  0  0  0  0  0  0  0  0  0
  -10.3580   -1.5600  -24.7800 H   0  0  0  0  0  0  0  0  0  0  0  0
  -12.4290    1.4390  -24.6570 H   0  0  0  0  0  0  0  0  0  0  0  0
  -10.6950    1.4080  -25.0820 H   0  0  0  0  0  0  0  0  0  0  0  0
  -13.0980    2.1940  -22.6060 H   0  0  0  0  0  0  0  0  0  0  0  0
  -13.2200    4.4090  -21.6870 H   0  0  0  0  0  0  0  0  0  0  0  0
  -11.4630    4.5720  -21.8960 H   0  0  0  0  0  0  0  0  0  0  0  0
  -12.0990    3.5530  -20.5850 H   0  0  0  0  0  0  0  0  0  0  0  0
  1  2  1  0  0  0  0
  1 59  1  0  0  0  0
  1 60  1  0  0  0  0
  1 61  1  0  0  0  0
  2  3  1  0  0  0  0
  2 58  1  0  0  0  0
  3  4  2  0  0  0  0
  3  5  1  0  0  0  0
  5  6  1  0  0  0  0
  5 56  1  0  0  0  0
  5 57  1  0  0  0  0
  6  7  1  0  0  0  0
  6 49  1  0  0  0  0
  7  8  1  0  0  0  0
  7 54  1  0  0  0  0
  7 55  1  0  0  0  0
  8  9  1  1  0  0  0
  8 29  1  0  0  0  0
  8 42  1  0  0  0  0
  9 10  2  0  0  0  0
  9 11  1  0  0  0  0
 11 12  1  0  0  0  0
 11 28  1  0  0  0  0
 12 13  2  0  0  0  0
 12 21  1  0  0  0  0
 13 14  1  0  0  0  0
 13 27  1  0  0  0  0
 14 15  2  0  0  0  0
 15 16  1  0  0  0  0
 15 26  1  0  0  0  0
 16 17  2  0  0  0  0
 16 21  1  0  0  0  0
 17 18  1  0  0  0  0
 17 25  1  0  0  0  0
 18 19  2  0  0  0  0
 18 24  1  0  0  0  0
 19 20  1  0  0  0  0
 19 23  1  0  0  0  0
 20 21  2  0  0  0  0
 20 22  1  0  0  0  0
 28 29  1  0  0  0  0
 28 40  1  0  0  0  0
 28 41  1  0  0  0  0
 29 30  1  0  0  0  0
 29 39  1  6  0  0  0
 30 31  1  0  0  0  0
 30 37  1  0  0  0  0
 30 38  1  0  0  0  0
 31 32  1  0  0  0  0
 31 35  1  0  0  0  0
 32 33  2  0  0  0  0
 33 34  1  0  0  0  0
 33 36  1  0  0  0  0
 34 35  2  0  0  0  0
 42 43  2  0  0  0  0
 42 48  1  0  0  0  0
 43 44  1  0  0  0  0
 43 53  1  0  0  0  0
 44 45  1  0  0  0  0
 44 46  2  0  0  0  0
 46 47  1  0  0  0  0
 46 52  1  0  0  0  0
 47 48  2  0  0  0  0
 47 51  1  0  0  0  0
 48 49  1  0  0  0  0
 49 50  2  0  0  0  0
M  END
>  <MODEL>
       1

$$$$
