tmp_first_model_3_19.pdb
 OpenBabel08272518143D

 42 45  0  0  1  0  0  0  0  0999 V2000
   -9.1390   -0.0610  -20.7240 O   0  0  0  0  0  0  0  0  0  0  0  0
   -8.6540   -0.9070  -21.4490 C   0  0  0  0  0  0  0  0  0  0  0  0
   -9.3670   -1.5030  -22.6750 C   0  0  1  0  0  0  0  0  0  0  0  0
  -10.4380   -0.5590  -23.1880 C   0  0  0  0  0  0  0  0  0  0  0  0
  -10.1010    0.7530  -23.5140 C   0  0  0  0  0  0  0  0  0  0  0  0
  -11.0740    1.6250  -23.9690 C   0  0  0  0  0  0  0  0  0  0  0  0
  -12.4010    1.2340  -24.0760 C   0  0  0  0  0  0  0  0  0  0  0  0
  -13.5700    2.4840  -24.3380 Cl  0  0  0  0  0  0  0  0  0  0  0  0
  -12.7260   -0.1060  -23.8590 C   0  0  0  0  0  0  0  0  0  0  0  0
  -14.3300   -0.6950  -24.1100 Cl  0  0  0  0  0  0  0  0  0  0  0  0
  -11.7460   -0.9910  -23.4030 C   0  0  0  0  0  0  0  0  0  0  0  0
  -12.0470   -2.0160  -23.1830 H   0  0  0  0  0  0  0  0  0  0  0  0
  -10.8390    2.6520  -24.2070 H   0  0  0  0  0  0  0  0  0  0  0  0
   -9.0890    1.1200  -23.3390 H   0  0  0  0  0  0  0  0  0  0  0  0
   -8.3350   -1.7870  -23.7750 C   0  0  0  0  0  0  0  0  0  0  0  0
   -7.2420   -2.7560  -23.3380 C   0  0  2  0  0  0  0  0  0  0  0  0
   -7.5420   -4.1050  -23.6630 O   0  0  0  0  0  0  0  0  0  0  0  0
   -8.3930   -4.3250  -23.2610 H   0  0  0  0  0  0  0  0  0  0  0  0
   -6.9340   -2.6380  -21.8350 C   0  0  0  0  0  0  0  0  0  0  0  0
   -7.3730   -1.3770  -21.2540 N   0  0  0  0  0  0  0  0  0  0  0  0
   -6.6070   -0.8080  -20.1930 C   0  0  0  0  0  0  0  0  0  0  0  0
   -6.9100   -1.0500  -18.8770 C   0  0  0  0  0  0  0  0  0  0  0  0
   -6.2060   -0.5570  -17.8270 N   0  0  0  0  0  0  0  0  0  0  0  0
   -5.1690    0.2050  -18.0820 C   0  0  0  0  0  0  0  0  0  0  0  0
   -4.7270    0.5240  -19.3970 C   0  0  0  0  0  0  0  0  0  0  0  0
   -3.5990    1.3530  -19.6380 C   0  0  0  0  0  0  0  0  0  0  0  0
   -3.2120    1.6390  -20.9190 C   0  0  0  0  0  0  0  0  0  0  0  0
   -3.9330    1.1050  -22.0120 C   0  0  0  0  0  0  0  0  0  0  0  0
   -5.0240    0.3010  -21.8010 C   0  0  0  0  0  0  0  0  0  0  0  0
   -5.4550   -0.0050  -20.4850 C   0  0  0  0  0  0  0  0  0  0  0  0
   -5.5900   -0.0960  -22.6360 H   0  0  0  0  0  0  0  0  0  0  0  0
   -3.6290    1.3500  -23.0250 H   0  0  0  0  0  0  0  0  0  0  0  0
   -2.3610    2.2880  -21.1050 H   0  0  0  0  0  0  0  0  0  0  0  0
   -3.0700    1.7710  -18.7850 H   0  0  0  0  0  0  0  0  0  0  0  0
   -4.6240    0.6120  -17.2280 H   0  0  0  0  0  0  0  0  0  0  0  0
   -7.7580   -1.6710  -18.5970 H   0  0  0  0  0  0  0  0  0  0  0  0
   -7.3940   -3.5110  -21.3350 H   0  0  0  0  0  0  0  0  0  0  0  0
   -5.8590   -2.6980  -21.6660 H   0  0  0  0  0  0  0  0  0  0  0  0
   -6.3410   -2.5460  -23.9200 H   0  0  0  0  0  0  0  0  0  0  0  0
   -7.8970   -0.8290  -24.0860 H   0  0  0  0  0  0  0  0  0  0  0  0
   -8.8260   -2.2060  -24.6590 H   0  0  0  0  0  0  0  0  0  0  0  0
   -9.8480   -2.4450  -22.3760 H   0  0  0  0  0  0  0  0  0  0  0  0
  1  2  2  0  0  0  0
  2  3  1  0  0  0  0
  2 20  1  0  0  0  0
  3  4  1  0  0  0  0
  3 15  1  0  0  0  0
  3 42  1  1  0  0  0
  4  5  2  0  0  0  0
  4 11  1  0  0  0  0
  5  6  1  0  0  0  0
  5 14  1  0  0  0  0
  6  7  2  0  0  0  0
  6 13  1  0  0  0  0
  7  8  1  0  0  0  0
  7  9  1  0  0  0  0
  9 10  1  0  0  0  0
  9 11  2  0  0  0  0
 11 12  1  0  0  0  0
 15 16  1  0  0  0  0
 15 40  1  0  0  0  0
 15 41  1  0  0  0  0
 16 17  1  0  0  0  0
 16 19  1  0  0  0  0
 16 39  1  6  0  0  0
 17 18  1  0  0  0  0
 19 20  1  0  0  0  0
 19 37  1  0  0  0  0
 19 38  1  0  0  0  0
 20 21  1  0  0  0  0
 21 22  2  0  0  0  0
 21 30  1  0  0  0  0
 22 23  1  0  0  0  0
 22 36  1  0  0  0  0
 23 24  2  0  0  0  0
 24 25  1  0  0  0  0
 24 35  1  0  0  0  0
 25 26  2  0  0  0  0
 25 30  1  0  0  0  0
 26 27  1  0  0  0  0
 26 34  1  0  0  0  0
 27 28  2  0  0  0  0
 27 33  1  0  0  0  0
 28 29  1  0  0  0  0
 28 32  1  0  0  0  0
 29 30  2  0  0  0  0
 29 31  1  0  0  0  0
M  END
>  <MODEL>
       1

$$$$
