tmp_first_model_6_46.pdb
 OpenBabel08272519583D

 50 54  0  0  1  0  0  0  0  0999 V2000
  -10.5100   -2.5330  -22.6370 C   0  0  0  0  0  0  0  0  0  0  0  0
   -9.0980   -1.9670  -22.6540 C   0  0  1  0  0  0  0  0  0  0  0  0
   -8.7520   -1.3780  -21.2830 C   0  0  0  0  0  0  0  0  0  0  0  0
   -7.3050   -1.4180  -21.2600 N   0  0  0  0  0  0  0  0  0  0  0  0
   -6.5660   -0.8380  -20.2120 C   0  0  0  0  0  0  0  0  0  0  0  0
   -6.9200   -1.0660  -18.9080 C   0  0  0  0  0  0  0  0  0  0  0  0
   -6.2540   -0.5750  -17.8380 N   0  0  0  0  0  0  0  0  0  0  0  0
   -5.2140    0.1900  -18.0680 C   0  0  0  0  0  0  0  0  0  0  0  0
   -4.7680    0.5410  -19.3740 C   0  0  0  0  0  0  0  0  0  0  0  0
   -3.6430    1.3860  -19.5810 C   0  0  0  0  0  0  0  0  0  0  0  0
   -3.2830    1.7570  -20.8470 C   0  0  0  0  0  0  0  0  0  0  0  0
   -4.0270    1.3080  -21.9640 C   0  0  0  0  0  0  0  0  0  0  0  0
   -5.0970    0.4650  -21.7930 C   0  0  0  0  0  0  0  0  0  0  0  0
   -5.4740    0.0400  -20.4880 C   0  0  0  0  0  0  0  0  0  0  0  0
   -5.6480    0.0870  -22.6510 H   0  0  0  0  0  0  0  0  0  0  0  0
   -3.7340    1.6090  -22.9650 H   0  0  0  0  0  0  0  0  0  0  0  0
   -2.4290    2.4110  -21.0090 H   0  0  0  0  0  0  0  0  0  0  0  0
   -3.0960    1.7440  -18.7120 H   0  0  0  0  0  0  0  0  0  0  0  0
   -4.6740    0.5860  -17.2050 H   0  0  0  0  0  0  0  0  0  0  0  0
   -7.7660   -1.7100  -18.6720 H   0  0  0  0  0  0  0  0  0  0  0  0
   -6.7860   -2.3660  -22.1250 C   0  0  0  0  0  0  0  0  0  0  0  0
   -5.6260   -2.7280  -22.1540 O   0  0  0  0  0  0  0  0  0  0  0  0
   -7.9170   -2.9500  -22.9850 C   0  0  1  0  0  0  0  0  0  0  0  0
   -8.1390   -4.3860  -22.4330 C   0  0  0  0  0  0  0  0  0  0  0  0
   -8.9470   -5.2170  -23.2940 N   0  0  0  0  0  0  0  0  0  0  0  0
   -9.7600   -6.2650  -22.7290 C   0  0  0  0  0  0  0  0  0  0  0  0
   -9.3230   -7.6030  -23.1690 C   0  0  0  0  0  0  0  0  0  0  0  0
   -8.9950   -8.6480  -23.5360 N   0  0  0  0  0  0  0  0  0  0  0  0
   -9.6750   -6.1850  -21.6440 H   0  0  0  0  0  0  0  0  0  0  0  0
  -10.8030   -6.1220  -23.0270 H   0  0  0  0  0  0  0  0  0  0  0  0
   -8.9110   -5.1490  -24.6510 C   0  0  0  0  0  0  0  0  0  0  0  0
   -9.5930   -5.9000  -25.3400 O   0  0  0  0  0  0  0  0  0  0  0  0
   -8.0210   -4.1100  -25.2360 C   0  0  0  0  0  0  0  0  0  0  0  0
   -7.7440   -4.2230  -26.5970 C   0  0  0  0  0  0  0  0  0  0  0  0
   -6.9800   -3.2730  -27.2360 C   0  0  0  0  0  0  0  0  0  0  0  0
   -6.5140   -2.2070  -26.4770 C   0  0  0  0  0  0  0  0  0  0  0  0
   -5.7800   -1.2700  -27.0990 F   0  0  0  0  0  0  0  0  0  0  0  0
   -6.7600   -2.0710  -25.1220 C   0  0  0  0  0  0  0  0  0  0  0  0
   -7.5450   -3.0380  -24.4650 C   0  0  0  0  0  0  0  0  0  0  0  0
   -6.3130   -1.2210  -24.6110 H   0  0  0  0  0  0  0  0  0  0  0  0
   -6.7690   -3.3450  -28.2970 H   0  0  0  0  0  0  0  0  0  0  0  0
   -8.1440   -5.0770  -27.1380 H   0  0  0  0  0  0  0  0  0  0  0  0
   -7.1570   -4.8360  -22.2420 H   0  0  0  0  0  0  0  0  0  0  0  0
   -8.6500   -4.3240  -21.4690 H   0  0  0  0  0  0  0  0  0  0  0  0
   -9.1910   -1.9830  -20.4770 H   0  0  0  0  0  0  0  0  0  0  0  0
   -9.1250   -0.3580  -21.1510 H   0  0  0  0  0  0  0  0  0  0  0  0
   -9.0250   -1.1590  -23.3920 H   0  0  0  0  0  0  0  0  0  0  0  0
  -10.6210   -3.2450  -21.8130 H   0  0  0  0  0  0  0  0  0  0  0  0
  -11.2460   -1.7380  -22.4760 H   0  0  0  0  0  0  0  0  0  0  0  0
  -10.7590   -3.0570  -23.5600 H   0  0  0  0  0  0  0  0  0  0  0  0
  1  2  1  0  0  0  0
  1 48  1  0  0  0  0
  1 49  1  0  0  0  0
  1 50  1  0  0  0  0
  2  3  1  0  0  0  0
  2 23  1  0  0  0  0
  2 47  1  6  0  0  0
  3  4  1  0  0  0  0
  3 45  1  0  0  0  0
  3 46  1  0  0  0  0
  4  5  1  0  0  0  0
  4 21  1  0  0  0  0
  5  6  2  0  0  0  0
  5 14  1  0  0  0  0
  6  7  1  0  0  0  0
  6 20  1  0  0  0  0
  7  8  2  0  0  0  0
  8  9  1  0  0  0  0
  8 19  1  0  0  0  0
  9 10  2  0  0  0  0
  9 14  1  0  0  0  0
 10 11  1  0  0  0  0
 10 18  1  0  0  0  0
 11 12  2  0  0  0  0
 11 17  1  0  0  0  0
 12 13  1  0  0  0  0
 12 16  1  0  0  0  0
 13 14  2  0  0  0  0
 13 15  1  0  0  0  0
 21 22  2  0  0  0  0
 23 21  1  1  0  0  0
 23 24  1  0  0  0  0
 23 39  1  0  0  0  0
 24 25  1  0  0  0  0
 24 43  1  0  0  0  0
 24 44  1  0  0  0  0
 25 26  1  0  0  0  0
 25 31  1  0  0  0  0
 26 27  1  0  0  0  0
 26 29  1  0  0  0  0
 26 30  1  0  0  0  0
 27 28  3  0  0  0  0
 31 32  2  0  0  0  0
 31 33  1  0  0  0  0
 33 34  2  0  0  0  0
 33 39  1  0  0  0  0
 34 35  1  0  0  0  0
 34 42  1  0  0  0  0
 35 36  2  0  0  0  0
 35 41  1  0  0  0  0
 36 37  1  0  0  0  0
 36 38  1  0  0  0  0
 38 39  2  0  0  0  0
 38 40  1  0  0  0  0
M  END
>  <MODEL>
       1

$$$$
