tmp_first_model_1_16.pdb
 OpenBabel08272517043D

 61 66  0  0  1  0  0  0  0  0999 V2000
   -5.9120   -0.0300  -29.3980 C   0  0  0  0  0  0  0  0  0  0  0  0
   -5.8200    0.3410  -28.0020 N   0  0  0  0  0  0  0  0  0  0  0  0
   -5.1630   -0.4750  -27.1300 C   0  0  0  0  0  0  0  0  0  0  0  0
   -4.4230   -1.3760  -27.4800 O   0  0  0  0  0  0  0  0  0  0  0  0
   -5.3780   -0.1410  -25.6380 C   0  0  0  0  0  0  0  0  0  0  0  0
   -6.5660   -0.7530  -25.0590 N   0  0  0  0  0  0  0  0  0  0  0  0
   -6.4570   -1.9650  -24.2390 C   0  0  0  0  0  0  0  0  0  0  0  0
   -7.5800   -2.0590  -23.1530 C   0  0  2  0  0  0  0  0  0  0  0  0
   -7.3100   -1.0340  -22.0260 C   0  0  0  0  0  0  0  0  0  0  0  0
   -7.6610    0.1220  -21.9830 O   0  0  0  0  0  0  0  0  0  0  0  0
   -6.5850   -1.6860  -21.0440 N   0  0  0  0  0  0  0  0  0  0  0  0
   -6.0310   -0.9830  -19.9550 C   0  0  0  0  0  0  0  0  0  0  0  0
   -6.4520   -1.2250  -18.6710 C   0  0  0  0  0  0  0  0  0  0  0  0
   -5.9740   -0.5870  -17.5760 N   0  0  0  0  0  0  0  0  0  0  0  0
   -5.0240    0.2980  -17.7590 C   0  0  0  0  0  0  0  0  0  0  0  0
   -4.4650    0.6110  -19.0300 C   0  0  0  0  0  0  0  0  0  0  0  0
   -3.4000    1.5390  -19.1760 C   0  0  0  0  0  0  0  0  0  0  0  0
   -2.9140    1.8470  -20.4170 C   0  0  0  0  0  0  0  0  0  0  0  0
   -3.4630    1.2410  -21.5710 C   0  0  0  0  0  0  0  0  0  0  0  0
   -4.4710    0.3210  -21.4520 C   0  0  0  0  0  0  0  0  0  0  0  0
   -4.9970   -0.0200  -20.1730 C   0  0  0  0  0  0  0  0  0  0  0  0
   -4.8810   -0.1530  -22.3380 H   0  0  0  0  0  0  0  0  0  0  0  0
   -3.0900    1.5050  -22.5580 H   0  0  0  0  0  0  0  0  0  0  0  0
   -2.1150    2.5730  -20.5280 H   0  0  0  0  0  0  0  0  0  0  0  0
   -2.9880    1.9970  -18.2790 H   0  0  0  0  0  0  0  0  0  0  0  0
   -4.6470    0.8160  -16.8760 H   0  0  0  0  0  0  0  0  0  0  0  0
   -7.2440   -1.9540  -18.5000 H   0  0  0  0  0  0  0  0  0  0  0  0
   -6.3740   -3.1060  -21.3130 C   0  0  0  0  0  0  0  0  0  0  0  0
   -7.5020   -3.3670  -22.3180 C   0  0  2  0  0  0  0  0  0  0  0  0
   -7.5310   -4.6810  -23.0910 C   0  0  0  0  0  0  0  0  0  0  0  0
   -6.3390   -5.1030  -23.8230 N   0  0  0  0  0  0  0  0  0  0  0  0
   -5.2630   -5.6130  -23.2340 N   0  0  0  0  0  0  0  0  0  0  0  0
   -4.6770   -6.2230  -24.2480 C   0  0  0  0  0  0  0  0  0  0  0  0
   -5.3630   -6.0990  -25.4020 N   0  0  0  0  0  0  0  0  0  0  0  0
   -6.4220   -5.4050  -25.1070 N   0  0  0  0  0  0  0  0  0  0  0  0
   -3.7790   -6.8210  -24.1550 H   0  0  0  0  0  0  0  0  0  0  0  0
   -7.7960   -5.5020  -22.4200 H   0  0  0  0  0  0  0  0  0  0  0  0
   -8.3090   -4.6050  -23.8550 H   0  0  0  0  0  0  0  0  0  0  0  0
   -8.4160   -3.3840  -21.7100 H   0  0  0  0  0  0  0  0  0  0  0  0
   -5.3870   -3.3020  -21.7590 H   0  0  0  0  0  0  0  0  0  0  0  0
   -6.4580   -3.6680  -20.3780 H   0  0  0  0  0  0  0  0  0  0  0  0
   -8.9130   -1.7720  -23.7960 C   0  0  0  0  0  0  0  0  0  0  0  0
  -10.1310   -2.1780  -23.2310 C   0  0  0  0  0  0  0  0  0  0  0  0
  -11.3300   -1.6830  -23.7190 C   0  0  0  0  0  0  0  0  0  0  0  0
  -12.8240   -2.0930  -22.9140 Cl  0  0  0  0  0  0  0  0  0  0  0  0
  -11.3680   -0.8270  -24.8250 C   0  0  0  0  0  0  0  0  0  0  0  0
  -10.1820   -0.4950  -25.4280 C   0  0  0  0  0  0  0  0  0  0  0  0
   -8.9720   -0.9000  -24.8840 C   0  0  0  0  0  0  0  0  0  0  0  0
   -7.7630   -0.2630  -25.4550 C   0  0  0  0  0  0  0  0  0  0  0  0
   -7.8660    0.6840  -26.2470 O   0  0  0  0  0  0  0  0  0  0  0  0
  -10.1420    0.1090  -26.3210 H   0  0  0  0  0  0  0  0  0  0  0  0
  -12.2760   -0.3690  -25.1970 H   0  0  0  0  0  0  0  0  0  0  0  0
  -10.1680   -2.8800  -22.4060 H   0  0  0  0  0  0  0  0  0  0  0  0
   -5.4910   -1.9680  -23.7200 H   0  0  0  0  0  0  0  0  0  0  0  0
   -6.4850   -2.8450  -24.8870 H   0  0  0  0  0  0  0  0  0  0  0  0
   -5.4670    0.9440  -25.5090 H   0  0  0  0  0  0  0  0  0  0  0  0
   -4.5110   -0.5100  -25.0850 H   0  0  0  0  0  0  0  0  0  0  0  0
   -6.6290    0.8050  -27.6000 H   0  0  0  0  0  0  0  0  0  0  0  0
   -6.3680    0.7980  -29.9470 H   0  0  0  0  0  0  0  0  0  0  0  0
   -6.5130   -0.9400  -29.5400 H   0  0  0  0  0  0  0  0  0  0  0  0
   -4.9100   -0.1970  -29.8010 H   0  0  0  0  0  0  0  0  0  0  0  0
  1  2  1  0  0  0  0
  1 59  1  0  0  0  0
  1 60  1  0  0  0  0
  1 61  1  0  0  0  0
  2  3  1  0  0  0  0
  2 58  1  0  0  0  0
  3  4  2  0  0  0  0
  3  5  1  0  0  0  0
  5  6  1  0  0  0  0
  5 56  1  0  0  0  0
  5 57  1  0  0  0  0
  6  7  1  0  0  0  0
  6 49  1  0  0  0  0
  7  8  1  0  0  0  0
  7 54  1  0  0  0  0
  7 55  1  0  0  0  0
  8  9  1  1  0  0  0
  8 29  1  0  0  0  0
  8 42  1  0  0  0  0
  9 10  2  0  0  0  0
  9 11  1  0  0  0  0
 11 12  1  0  0  0  0
 11 28  1  0  0  0  0
 12 13  2  0  0  0  0
 12 21  1  0  0  0  0
 13 14  1  0  0  0  0
 13 27  1  0  0  0  0
 14 15  2  0  0  0  0
 15 16  1  0  0  0  0
 15 26  1  0  0  0  0
 16 17  2  0  0  0  0
 16 21  1  0  0  0  0
 17 18  1  0  0  0  0
 17 25  1  0  0  0  0
 18 19  2  0  0  0  0
 18 24  1  0  0  0  0
 19 20  1  0  0  0  0
 19 23  1  0  0  0  0
 20 21  2  0  0  0  0
 20 22  1  0  0  0  0
 28 29  1  0  0  0  0
 28 40  1  0  0  0  0
 28 41  1  0  0  0  0
 29 30  1  0  0  0  0
 29 39  1  1  0  0  0
 30 31  1  0  0  0  0
 30 37  1  0  0  0  0
 30 38  1  0  0  0  0
 31 32  1  0  0  0  0
 31 35  1  0  0  0  0
 32 33  2  0  0  0  0
 33 34  1  0  0  0  0
 33 36  1  0  0  0  0
 34 35  2  0  0  0  0
 42 43  2  0  0  0  0
 42 48  1  0  0  0  0
 43 44  1  0  0  0  0
 43 53  1  0  0  0  0
 44 45  1  0  0  0  0
 44 46  2  0  0  0  0
 46 47  1  0  0  0  0
 46 52  1  0  0  0  0
 47 48  2  0  0  0  0
 47 51  1  0  0  0  0
 48 49  1  0  0  0  0
 49 50  2  0  0  0  0
M  END
>  <MODEL>
       1

$$$$
