tmp_first_model_15_80.pdb
 OpenBabel08282501153D

 60 65  0  0  1  0  0  0  0  0999 V2000
   -8.7880   -8.0210  -25.8160 C   0  0  0  0  0  0  0  0  0  0  0  0
   -8.1340   -6.9820  -25.0510 N   0  0  0  0  0  0  0  0  0  0  0  0
   -7.3710   -7.2480  -23.9650 C   0  0  0  0  0  0  0  0  0  0  0  0
   -7.3860   -8.3040  -23.3550 O   0  0  0  0  0  0  0  0  0  0  0  0
   -6.5190   -6.0870  -23.4890 C   0  0  0  0  0  0  0  0  0  0  0  0
   -6.8680   -4.7830  -23.9530 N   0  0  0  0  0  0  0  0  0  0  0  0
   -8.0380   -4.1790  -23.3610 C   0  0  0  0  0  0  0  0  0  0  0  0
   -7.8460   -2.6700  -23.1660 C   0  0  2  0  0  0  0  0  0  0  0  0
   -6.8370   -2.4070  -22.0340 C   0  0  0  0  0  0  0  0  0  0  0  0
   -5.7480   -2.9240  -21.8830 O   0  0  0  0  0  0  0  0  0  0  0  0
   -7.3560   -1.4560  -21.1970 N   0  0  0  0  0  0  0  0  0  0  0  0
   -6.5750   -0.8520  -20.1830 C   0  0  0  0  0  0  0  0  0  0  0  0
   -6.9130   -1.0510  -18.8700 C   0  0  0  0  0  0  0  0  0  0  0  0
   -6.2300   -0.5440  -17.8160 N   0  0  0  0  0  0  0  0  0  0  0  0
   -5.1870    0.2050  -18.0880 C   0  0  0  0  0  0  0  0  0  0  0  0
   -4.7440    0.5110  -19.4070 C   0  0  0  0  0  0  0  0  0  0  0  0
   -3.6230    1.3510  -19.6360 C   0  0  0  0  0  0  0  0  0  0  0  0
   -3.2350    1.6610  -20.9090 C   0  0  0  0  0  0  0  0  0  0  0  0
   -3.9530    1.1490  -22.0170 C   0  0  0  0  0  0  0  0  0  0  0  0
   -5.0400    0.3330  -21.8280 C   0  0  0  0  0  0  0  0  0  0  0  0
   -5.4550   -0.0220  -20.5060 C   0  0  0  0  0  0  0  0  0  0  0  0
   -5.5910   -0.0380  -22.6960 H   0  0  0  0  0  0  0  0  0  0  0  0
   -3.6400    1.4150  -23.0230 H   0  0  0  0  0  0  0  0  0  0  0  0
   -2.3790    2.3070  -21.0820 H   0  0  0  0  0  0  0  0  0  0  0  0
   -3.0980    1.7540  -18.7730 H   0  0  0  0  0  0  0  0  0  0  0  0
   -4.6330    0.6200  -17.2450 H   0  0  0  0  0  0  0  0  0  0  0  0
   -7.7700   -1.6820  -18.6320 H   0  0  0  0  0  0  0  0  0  0  0  0
   -8.6730   -0.9930  -21.5590 C   0  0  0  0  0  0  0  0  0  0  0  0
   -9.1410   -1.9630  -22.6640 C   0  0  2  0  0  0  0  0  0  0  0  0
  -10.2520   -2.8790  -22.1250 C   0  0  0  0  0  0  0  0  0  0  0  0
  -11.0970   -2.2770  -21.7670 H   0  0  0  0  0  0  0  0  0  0  0  0
  -10.6430   -3.5470  -22.8990 H   0  0  0  0  0  0  0  0  0  0  0  0
   -9.9030   -3.4890  -21.2840 H   0  0  0  0  0  0  0  0  0  0  0  0
   -9.5830   -1.4160  -23.5020 H   0  0  0  0  0  0  0  0  0  0  0  0
   -9.3360   -1.0320  -20.6980 H   0  0  0  0  0  0  0  0  0  0  0  0
   -8.6390    0.0510  -21.8940 H   0  0  0  0  0  0  0  0  0  0  0  0
   -7.3050   -2.0770  -24.4640 C   0  0  0  0  0  0  0  0  0  0  0  0
   -7.4590   -0.7150  -24.7490 C   0  0  0  0  0  0  0  0  0  0  0  0
   -6.9270   -0.1840  -25.9130 C   0  0  0  0  0  0  0  0  0  0  0  0
   -7.1240    1.5220  -26.2370 Cl  0  0  0  0  0  0  0  0  0  0  0  0
   -6.2300   -0.9740  -26.8270 C   0  0  0  0  0  0  0  0  0  0  0  0
   -6.0490   -2.3110  -26.5400 C   0  0  0  0  0  0  0  0  0  0  0  0
   -6.5630   -2.8510  -25.3630 C   0  0  0  0  0  0  0  0  0  0  0  0
   -6.2540   -4.2780  -25.0760 C   0  0  0  0  0  0  0  0  0  0  0  0
   -5.5020   -4.9520  -25.7630 O   0  0  0  0  0  0  0  0  0  0  0  0
   -5.4930   -2.9680  -27.2020 H   0  0  0  0  0  0  0  0  0  0  0  0
   -5.8220   -0.5260  -27.7250 H   0  0  0  0  0  0  0  0  0  0  0  0
   -7.9940   -0.0570  -24.0710 H   0  0  0  0  0  0  0  0  0  0  0  0
   -8.2240   -4.6620  -22.4010 H   0  0  0  0  0  0  0  0  0  0  0  0
   -8.9120   -4.3330  -24.0080 H   0  0  0  0  0  0  0  0  0  0  0  0
   -6.1310   -6.2370  -22.0470 C   0  0  0  0  0  0  0  0  0  0  0  0
   -5.0850   -6.3440  -23.1100 C   0  0  0  0  0  0  0  0  0  0  0  0
   -4.6790   -7.3180  -23.3720 H   0  0  0  0  0  0  0  0  0  0  0  0
   -4.4050   -5.5030  -23.2330 H   0  0  0  0  0  0  0  0  0  0  0  0
   -6.1590   -5.3290  -21.4550 H   0  0  0  0  0  0  0  0  0  0  0  0
   -6.4720   -7.1670  -21.6020 H   0  0  0  0  0  0  0  0  0  0  0  0
   -7.9610   -6.1210  -25.5460 H   0  0  0  0  0  0  0  0  0  0  0  0
   -8.0610   -8.7500  -26.1560 H   0  0  0  0  0  0  0  0  0  0  0  0
   -9.5280   -8.5480  -25.2100 H   0  0  0  0  0  0  0  0  0  0  0  0
   -9.2530   -7.5640  -26.6940 H   0  0  0  0  0  0  0  0  0  0  0  0
  1  2  1  0  0  0  0
  1 58  1  0  0  0  0
  1 59  1  0  0  0  0
  1 60  1  0  0  0  0
  2  3  1  0  0  0  0
  2 57  1  0  0  0  0
  3  4  2  0  0  0  0
  3  5  1  0  0  0  0
  5  6  1  0  0  0  0
  5 51  1  0  0  0  0
  5 52  1  0  0  0  0
  6  7  1  0  0  0  0
  6 44  1  0  0  0  0
  7  8  1  0  0  0  0
  7 49  1  0  0  0  0
  7 50  1  0  0  0  0
  8  9  1  1  0  0  0
  8 29  1  0  0  0  0
  8 37  1  0  0  0  0
  9 10  2  0  0  0  0
  9 11  1  0  0  0  0
 11 12  1  0  0  0  0
 11 28  1  0  0  0  0
 12 13  2  0  0  0  0
 12 21  1  0  0  0  0
 13 14  1  0  0  0  0
 13 27  1  0  0  0  0
 14 15  2  0  0  0  0
 15 16  1  0  0  0  0
 15 26  1  0  0  0  0
 16 17  2  0  0  0  0
 16 21  1  0  0  0  0
 17 18  1  0  0  0  0
 17 25  1  0  0  0  0
 18 19  2  0  0  0  0
 18 24  1  0  0  0  0
 19 20  1  0  0  0  0
 19 23  1  0  0  0  0
 20 21  2  0  0  0  0
 20 22  1  0  0  0  0
 28 29  1  0  0  0  0
 28 35  1  0  0  0  0
 28 36  1  0  0  0  0
 29 30  1  0  0  0  0
 29 34  1  6  0  0  0
 30 31  1  0  0  0  0
 30 32  1  0  0  0  0
 30 33  1  0  0  0  0
 37 38  2  0  0  0  0
 37 43  1  0  0  0  0
 38 39  1  0  0  0  0
 38 48  1  0  0  0  0
 39 40  1  0  0  0  0
 39 41  2  0  0  0  0
 41 42  1  0  0  0  0
 41 47  1  0  0  0  0
 42 43  2  0  0  0  0
 42 46  1  0  0  0  0
 43 44  1  0  0  0  0
 44 45  2  0  0  0  0
 51 52  1  0  0  0  0
 51 55  1  0  0  0  0
 51 56  1  0  0  0  0
 52 53  1  0  0  0  0
 52 54  1  0  0  0  0
M  END
>  <MODEL>
       1

$$$$
