tmp_first_model_14_36.pdb
 OpenBabel08282500413D

 47 50  0  0  1  0  0  0  0  0999 V2000
   -8.6900    0.6150  -21.3230 O   0  0  0  0  0  0  0  0  0  0  0  0
   -8.4190   -0.4160  -21.9180 C   0  0  0  0  0  0  0  0  0  0  0  0
   -7.4210   -1.4240  -21.2960 C   0  0  0  0  0  0  0  0  0  0  0  0
   -6.5820   -0.8210  -20.1980 C   0  0  0  0  0  0  0  0  0  0  0  0
   -6.8880   -1.0220  -18.8790 C   0  0  0  0  0  0  0  0  0  0  0  0
   -6.2110   -0.4980  -17.8250 N   0  0  0  0  0  0  0  0  0  0  0  0
   -5.1610    0.2350  -18.0830 C   0  0  0  0  0  0  0  0  0  0  0  0
   -4.7190    0.5360  -19.3970 C   0  0  0  0  0  0  0  0  0  0  0  0
   -3.5920    1.3590  -19.6300 C   0  0  0  0  0  0  0  0  0  0  0  0
   -3.2050    1.6510  -20.9040 C   0  0  0  0  0  0  0  0  0  0  0  0
   -3.9340    1.1230  -21.9970 C   0  0  0  0  0  0  0  0  0  0  0  0
   -5.0290    0.3200  -21.8050 C   0  0  0  0  0  0  0  0  0  0  0  0
   -5.4530    0.0040  -20.4890 C   0  0  0  0  0  0  0  0  0  0  0  0
   -5.5720   -0.0720  -22.6680 H   0  0  0  0  0  0  0  0  0  0  0  0
   -3.6200    1.3650  -23.0050 H   0  0  0  0  0  0  0  0  0  0  0  0
   -2.3520    2.2990  -21.0890 H   0  0  0  0  0  0  0  0  0  0  0  0
   -3.0640    1.7690  -18.7710 H   0  0  0  0  0  0  0  0  0  0  0  0
   -4.6080    0.6250  -17.2250 H   0  0  0  0  0  0  0  0  0  0  0  0
   -7.7270   -1.6530  -18.5870 H   0  0  0  0  0  0  0  0  0  0  0  0
   -6.7890   -1.8930  -22.0570 H   0  0  0  0  0  0  0  0  0  0  0  0
   -8.0310   -2.2290  -20.8640 H   0  0  0  0  0  0  0  0  0  0  0  0
   -9.0580   -0.7450  -23.0980 N   0  0  0  0  0  0  0  0  0  0  0  0
  -10.1000    0.2020  -23.5150 C   0  0  0  0  0  0  0  0  0  0  0  0
  -11.1020   -0.4410  -24.4650 C   0  0  0  0  0  0  0  0  0  0  0  0
  -10.3500   -1.0260  -25.6680 C   0  0  0  0  0  0  0  0  0  0  0  0
   -9.5170   -2.1800  -25.1200 C   0  0  0  0  0  0  0  0  0  0  0  0
   -8.5110   -1.7330  -24.0360 C   0  0  1  0  0  0  0  0  0  0  0  0
   -7.1780   -1.3040  -24.6550 C   0  0  0  0  0  0  0  0  0  0  0  0
   -6.1550   -2.2450  -24.7870 C   0  0  0  0  0  0  0  0  0  0  0  0
   -4.9320   -1.9040  -25.3580 C   0  0  0  0  0  0  0  0  0  0  0  0
   -4.7200   -0.6100  -25.8250 C   0  0  0  0  0  0  0  0  0  0  0  0
   -5.7470    0.3260  -25.7270 C   0  0  0  0  0  0  0  0  0  0  0  0
   -6.9660   -0.0190  -25.1510 C   0  0  0  0  0  0  0  0  0  0  0  0
   -7.7580    0.7250  -25.1020 H   0  0  0  0  0  0  0  0  0  0  0  0
   -5.6040    1.3370  -26.0940 H   0  0  0  0  0  0  0  0  0  0  0  0
   -3.7630   -0.3280  -26.2570 H   0  0  0  0  0  0  0  0  0  0  0  0
   -4.1430   -2.6460  -25.4260 H   0  0  0  0  0  0  0  0  0  0  0  0
   -6.3120   -3.2630  -24.4360 H   0  0  0  0  0  0  0  0  0  0  0  0
   -8.3020   -2.6250  -23.4360 H   0  0  0  0  0  0  0  0  0  0  0  0
   -8.9590   -2.7030  -25.9070 H   0  0  0  0  0  0  0  0  0  0  0  0
  -10.2130   -2.9050  -24.6860 H   0  0  0  0  0  0  0  0  0  0  0  0
   -9.6520   -0.3230  -26.1470 H   0  0  0  0  0  0  0  0  0  0  0  0
  -11.0370   -1.3710  -26.4480 H   0  0  0  0  0  0  0  0  0  0  0  0
  -11.9150    0.2570  -24.6930 H   0  0  0  0  0  0  0  0  0  0  0  0
  -11.5890   -1.2810  -23.9430 H   0  0  0  0  0  0  0  0  0  0  0  0
  -10.5950    0.5390  -22.6060 H   0  0  0  0  0  0  0  0  0  0  0  0
   -9.6430    1.1120  -23.9410 H   0  0  0  0  0  0  0  0  0  0  0  0
  1  2  2  0  0  0  0
  2  3  1  0  0  0  0
  2 22  1  0  0  0  0
  3  4  1  0  0  0  0
  3 20  1  0  0  0  0
  3 21  1  0  0  0  0
  4  5  2  0  0  0  0
  4 13  1  0  0  0  0
  5  6  1  0  0  0  0
  5 19  1  0  0  0  0
  6  7  2  0  0  0  0
  7  8  1  0  0  0  0
  7 18  1  0  0  0  0
  8  9  2  0  0  0  0
  8 13  1  0  0  0  0
  9 10  1  0  0  0  0
  9 17  1  0  0  0  0
 10 11  2  0  0  0  0
 10 16  1  0  0  0  0
 11 12  1  0  0  0  0
 11 15  1  0  0  0  0
 12 13  2  0  0  0  0
 12 14  1  0  0  0  0
 22 23  1  0  0  0  0
 22 27  1  0  0  0  0
 23 24  1  0  0  0  0
 23 46  1  0  0  0  0
 23 47  1  0  0  0  0
 24 25  1  0  0  0  0
 24 44  1  0  0  0  0
 24 45  1  0  0  0  0
 25 26  1  0  0  0  0
 25 42  1  0  0  0  0
 25 43  1  0  0  0  0
 26 27  1  0  0  0  0
 26 40  1  0  0  0  0
 26 41  1  0  0  0  0
 27 28  1  0  0  0  0
 27 39  1  1  0  0  0
 28 29  2  0  0  0  0
 28 33  1  0  0  0  0
 29 30  1  0  0  0  0
 29 38  1  0  0  0  0
 30 31  2  0  0  0  0
 30 37  1  0  0  0  0
 31 32  1  0  0  0  0
 31 36  1  0  0  0  0
 32 33  2  0  0  0  0
 32 35  1  0  0  0  0
 33 34  1  0  0  0  0
M  END
>  <MODEL>
       1

$$$$
