tmp_first_model_13_25.pdb
 OpenBabel08282500103D

 70 75  0  0  1  0  0  0  0  0999 V2000
   -5.7810   -7.7700  -25.5500 O   0  0  0  0  0  0  0  0  0  0  0  0
   -5.6680   -7.1690  -24.4960 C   0  0  0  0  0  0  0  0  0  0  0  0
   -6.8490   -6.4180  -23.8690 C   0  0  0  0  0  0  0  0  0  0  0  0
   -6.7830   -4.9120  -23.9720 N   0  3  1  0  0  0  0  0  0  0  0  0
   -6.7630   -4.5230  -25.4510 C   0  0  0  0  0  0  0  0  0  0  0  0
   -6.7690   -3.0270  -25.6400 C   0  0  0  0  0  0  0  0  0  0  0  0
   -6.2820   -2.4800  -26.8290 C   0  0  0  0  0  0  0  0  0  0  0  0
   -6.3000   -1.1090  -27.0500 C   0  0  0  0  0  0  0  0  0  0  0  0
   -6.8110   -0.2780  -26.0600 C   0  0  0  0  0  0  0  0  0  0  0  0
   -6.8460    1.4470  -26.3170 Cl  0  0  0  0  0  0  0  0  0  0  0  0
   -7.3010   -0.8050  -24.8740 C   0  0  0  0  0  0  0  0  0  0  0  0
   -7.2940   -2.1850  -24.6590 C   0  0  0  0  0  0  0  0  0  0  0  0
   -7.8080   -2.7010  -23.3250 C   0  0  2  0  0  0  0  0  0  0  0  0
   -6.8340   -2.3350  -22.2100 C   0  0  0  0  0  0  0  0  0  0  0  0
   -5.7240   -2.8470  -22.1920 O   0  0  0  0  0  0  0  0  0  0  0  0
   -7.3080   -1.4340  -21.2730 N   0  0  0  0  0  0  0  0  0  0  0  0
   -6.5550   -0.8570  -20.2170 C   0  0  0  0  0  0  0  0  0  0  0  0
   -6.8930   -1.0590  -18.8970 C   0  0  0  0  0  0  0  0  0  0  0  0
   -6.2070   -0.5520  -17.8440 N   0  0  0  0  0  0  0  0  0  0  0  0
   -5.1690    0.2030  -18.0910 C   0  0  0  0  0  0  0  0  0  0  0  0
   -4.7300    0.5250  -19.4050 C   0  0  0  0  0  0  0  0  0  0  0  0
   -3.6110    1.3720  -19.6300 C   0  0  0  0  0  0  0  0  0  0  0  0
   -3.2380    1.6970  -20.9050 C   0  0  0  0  0  0  0  0  0  0  0  0
   -3.9710    1.2010  -22.0100 C   0  0  0  0  0  0  0  0  0  0  0  0
   -5.0530    0.3780  -21.8170 C   0  0  0  0  0  0  0  0  0  0  0  0
   -5.4470    0.0010  -20.5020 C   0  0  0  0  0  0  0  0  0  0  0  0
   -5.6160    0.0080  -22.6680 H   0  0  0  0  0  0  0  0  0  0  0  0
   -3.6790    1.4650  -23.0210 H   0  0  0  0  0  0  0  0  0  0  0  0
   -2.3870    2.3500  -21.0790 H   0  0  0  0  0  0  0  0  0  0  0  0
   -3.0770    1.7560  -18.7630 H   0  0  0  0  0  0  0  0  0  0  0  0
   -4.6230    0.6000  -17.2350 H   0  0  0  0  0  0  0  0  0  0  0  0
   -7.7490   -1.6750  -18.6230 H   0  0  0  0  0  0  0  0  0  0  0  0
   -8.3130   -1.3760  -21.1710 H   0  0  0  0  0  0  0  0  0  0  0  0
   -7.9870   -4.2220  -23.3150 C   0  0  0  0  0  0  0  0  0  0  0  0
   -8.8870   -4.4940  -23.8740 H   0  0  0  0  0  0  0  0  0  0  0  0
   -8.0820   -4.5740  -22.2850 H   0  0  0  0  0  0  0  0  0  0  0  0
   -8.7640   -2.2200  -23.1050 H   0  0  0  0  0  0  0  0  0  0  0  0
   -7.6900   -0.1400  -24.1080 H   0  0  0  0  0  0  0  0  0  0  0  0
   -5.9240   -0.6800  -27.9730 H   0  0  0  0  0  0  0  0  0  0  0  0
   -5.8800   -3.1370  -27.5980 H   0  0  0  0  0  0  0  0  0  0  0  0
   -7.6470   -4.9720  -25.9270 H   0  0  0  0  0  0  0  0  0  0  0  0
   -5.8940   -4.9750  -25.9330 H   0  0  0  0  0  0  0  0  0  0  0  0
   -5.9450   -4.4960  -23.4960 H   0  0  0  0  0  0  0  0  0  0  0  0
   -7.7270   -6.7800  -24.4090 H   0  0  0  0  0  0  0  0  0  0  0  0
   -6.9740   -6.6950  -22.8210 H   0  0  0  0  0  0  0  0  0  0  0  0
   -4.5030   -7.1170  -23.7840 N   0  0  0  0  0  0  0  0  0  0  0  0
   -3.2950   -7.7510  -24.1730 C   0  0  0  0  0  0  0  0  0  0  0  0
   -2.0720   -7.1090  -23.9610 C   0  0  0  0  0  0  0  0  0  0  0  0
   -0.8870   -7.7080  -24.3860 C   0  0  0  0  0  0  0  0  0  0  0  0
   -0.9060   -8.9500  -25.0260 C   0  0  0  0  0  0  0  0  0  0  0  0
    0.3190   -9.5450  -25.4770 N   0  0  0  0  0  0  0  0  0  0  0  0
    1.3340   -9.8740  -24.4770 C   0  0  0  0  0  0  0  0  0  0  0  0
    2.6530  -10.2400  -25.1420 C   0  0  0  0  0  0  0  0  0  0  0  0
    2.4250  -11.1940  -26.1510 O   0  0  0  0  0  0  0  0  0  0  0  0
    1.7030  -10.6240  -27.2100 C   0  0  0  0  0  0  0  0  0  0  0  0
    0.4040   -9.9430  -26.7880 C   0  0  0  0  0  0  0  0  0  0  0  0
   -0.4690   -9.7270  -27.6090 O   0  0  0  0  0  0  0  0  0  0  0  0
    2.3120   -9.8660  -27.7330 H   0  0  0  0  0  0  0  0  0  0  0  0
    1.4530  -11.4280  -27.9060 H   0  0  0  0  0  0  0  0  0  0  0  0
    3.1440   -9.3540  -25.5710 H   0  0  0  0  0  0  0  0  0  0  0  0
    3.3360  -10.6980  -24.4180 H   0  0  0  0  0  0  0  0  0  0  0  0
    1.4730   -9.0110  -23.8190 H   0  0  0  0  0  0  0  0  0  0  0  0
    0.9800  -10.7220  -23.8760 H   0  0  0  0  0  0  0  0  0  0  0  0
   -2.1290   -9.6070  -25.1960 C   0  0  0  0  0  0  0  0  0  0  0  0
   -3.3120   -9.0090  -24.7740 C   0  0  0  0  0  0  0  0  0  0  0  0
   -4.2640   -9.5030  -24.9310 H   0  0  0  0  0  0  0  0  0  0  0  0
   -2.1640  -10.5780  -25.6890 H   0  0  0  0  0  0  0  0  0  0  0  0
    0.0600   -7.1900  -24.2330 H   0  0  0  0  0  0  0  0  0  0  0  0
   -2.0420   -6.1410  -23.4680 H   0  0  0  0  0  0  0  0  0  0  0  0
   -4.4970   -6.5230  -22.9720 H   0  0  0  0  0  0  0  0  0  0  0  0
  1  2  2  0  0  0  0
  2  3  1  0  0  0  0
  2 46  1  0  0  0  0
  3  4  1  0  0  0  0
  3 44  1  0  0  0  0
  3 45  1  0  0  0  0
  4  5  1  0  0  0  0
  4 34  1  0  0  0  0
  4 43  1  1  0  0  0
  5  6  1  0  0  0  0
  5 41  1  0  0  0  0
  5 42  1  0  0  0  0
  6  7  2  0  0  0  0
  6 12  1  0  0  0  0
  7  8  1  0  0  0  0
  7 40  1  0  0  0  0
  8  9  2  0  0  0  0
  8 39  1  0  0  0  0
  9 10  1  0  0  0  0
  9 11  1  0  0  0  0
 11 12  2  0  0  0  0
 11 38  1  0  0  0  0
 12 13  1  0  0  0  0
 13 14  1  0  0  0  0
 13 34  1  0  0  0  0
 13 37  1  1  0  0  0
 14 15  2  0  0  0  0
 14 16  1  0  0  0  0
 16 17  1  0  0  0  0
 16 33  1  0  0  0  0
 17 18  2  0  0  0  0
 17 26  1  0  0  0  0
 18 19  1  0  0  0  0
 18 32  1  0  0  0  0
 19 20  2  0  0  0  0
 20 21  1  0  0  0  0
 20 31  1  0  0  0  0
 21 22  2  0  0  0  0
 21 26  1  0  0  0  0
 22 23  1  0  0  0  0
 22 30  1  0  0  0  0
 23 24  2  0  0  0  0
 23 29  1  0  0  0  0
 24 25  1  0  0  0  0
 24 28  1  0  0  0  0
 25 26  2  0  0  0  0
 25 27  1  0  0  0  0
 34 35  1  0  0  0  0
 34 36  1  0  0  0  0
 46 47  1  0  0  0  0
 46 70  1  0  0  0  0
 47 48  2  0  0  0  0
 47 65  1  0  0  0  0
 48 49  1  0  0  0  0
 48 69  1  0  0  0  0
 49 50  2  0  0  0  0
 49 68  1  0  0  0  0
 50 51  1  0  0  0  0
 50 64  1  0  0  0  0
 51 52  1  0  0  0  0
 51 56  1  0  0  0  0
 52 53  1  0  0  0  0
 52 62  1  0  0  0  0
 52 63  1  0  0  0  0
 53 54  1  0  0  0  0
 53 60  1  0  0  0  0
 53 61  1  0  0  0  0
 54 55  1  0  0  0  0
 55 56  1  0  0  0  0
 55 58  1  0  0  0  0
 55 59  1  0  0  0  0
 56 57  2  0  0  0  0
 64 65  2  0  0  0  0
 64 67  1  0  0  0  0
 65 66  1  0  0  0  0
M  CHG  1   4   1
M  END
>  <MODEL>
       1

$$$$
