tmp_first_model_13_68.pdb
 OpenBabel08282500103D

 65 70  0  0  1  0  0  0  0  0999 V2000
   -8.9700    0.3540  -21.2220 O   0  0  0  0  0  0  0  0  0  0  0  0
   -8.2730   -0.3760  -21.8980 C   0  0  0  0  0  0  0  0  0  0  0  0
   -7.4410   -1.4720  -21.2310 C   0  0  0  0  0  0  0  0  0  0  0  0
   -6.5710   -0.8810  -20.1470 C   0  0  0  0  0  0  0  0  0  0  0  0
   -6.8890   -1.0510  -18.8270 C   0  0  0  0  0  0  0  0  0  0  0  0
   -6.2060   -0.5210  -17.7810 N   0  0  0  0  0  0  0  0  0  0  0  0
   -5.1690    0.2250  -18.0610 C   0  0  0  0  0  0  0  0  0  0  0  0
   -4.7260    0.5040  -19.3820 C   0  0  0  0  0  0  0  0  0  0  0  0
   -3.6060    1.3380  -19.6280 C   0  0  0  0  0  0  0  0  0  0  0  0
   -3.2070    1.6050  -20.9090 C   0  0  0  0  0  0  0  0  0  0  0  0
   -3.9170    1.0470  -21.9960 C   0  0  0  0  0  0  0  0  0  0  0  0
   -5.0070    0.2380  -21.7790 C   0  0  0  0  0  0  0  0  0  0  0  0
   -5.4480   -0.0590  -20.4610 C   0  0  0  0  0  0  0  0  0  0  0  0
   -5.5560   -0.1510  -22.6330 H   0  0  0  0  0  0  0  0  0  0  0  0
   -3.6040    1.2690  -23.0130 H   0  0  0  0  0  0  0  0  0  0  0  0
   -2.3580    2.2570  -21.0980 H   0  0  0  0  0  0  0  0  0  0  0  0
   -3.0840    1.7650  -18.7750 H   0  0  0  0  0  0  0  0  0  0  0  0
   -4.6200    0.6500  -17.2180 H   0  0  0  0  0  0  0  0  0  0  0  0
   -7.7520   -1.6570  -18.5500 H   0  0  0  0  0  0  0  0  0  0  0  0
   -6.8470   -1.9920  -21.9880 H   0  0  0  0  0  0  0  0  0  0  0  0
   -8.1360   -2.1950  -20.7880 H   0  0  0  0  0  0  0  0  0  0  0  0
   -8.1370   -0.2940  -23.3100 N   0  0  0  0  0  0  0  0  0  0  0  0
   -8.6530   -1.4380  -24.1010 C   0  0  0  0  0  0  0  0  0  0  0  0
   -7.8110   -1.7820  -25.3100 C   0  0  0  0  0  0  0  0  0  0  0  0
   -6.4520   -2.0480  -25.1560 C   0  0  0  0  0  0  0  0  0  0  0  0
   -5.6510   -2.3160  -26.2590 C   0  0  0  0  0  0  0  0  0  0  0  0
   -6.1910   -2.3180  -27.5410 C   0  0  0  0  0  0  0  0  0  0  0  0
   -7.5460   -2.0530  -27.6910 C   0  0  0  0  0  0  0  0  0  0  0  0
   -8.2330   -2.0060  -29.2910 Cl  0  0  0  0  0  0  0  0  0  0  0  0
   -8.3630   -1.8020  -26.5920 C   0  0  0  0  0  0  0  0  0  0  0  0
   -9.4160   -1.5780  -26.7570 H   0  0  0  0  0  0  0  0  0  0  0  0
   -5.5730   -2.5130  -28.4110 H   0  0  0  0  0  0  0  0  0  0  0  0
   -4.5930   -2.5150  -26.1140 H   0  0  0  0  0  0  0  0  0  0  0  0
   -6.0010   -2.0150  -24.1650 H   0  0  0  0  0  0  0  0  0  0  0  0
   -8.6910   -2.3000  -23.4260 H   0  0  0  0  0  0  0  0  0  0  0  0
   -9.6870   -1.2480  -24.4300 H   0  0  0  0  0  0  0  0  0  0  0  0
   -8.3100    1.0270  -23.9150 C   0  0  2  0  0  0  0  0  0  0  0  0
   -7.6250    1.2100  -25.2980 C   0  0  0  0  0  0  0  0  0  0  0  0
   -7.4320    2.7370  -25.4380 C   0  0  0  0  0  0  0  0  0  0  0  0
   -8.1320    3.2390  -24.1950 C   0  0  2  0  0  0  0  0  0  0  0  0
   -7.7370    2.2300  -23.1300 C   0  0  0  0  0  0  0  0  0  0  0  0
   -6.6530    2.1630  -22.9800 H   0  0  0  0  0  0  0  0  0  0  0  0
   -8.2370    2.3830  -22.1690 H   0  0  0  0  0  0  0  0  0  0  0  0
   -9.6410    2.9490  -24.3960 N   0  3  2  0  0  0  0  0  0  0  0  0
  -10.5260    3.7770  -23.4970 C   0  0  0  0  0  0  0  0  0  0  0  0
  -10.4190    5.2250  -23.7340 C   0  0  0  0  0  0  0  0  0  0  0  0
  -10.6720    5.3070  -23.6590 C   0  0  0  0  0  0  0  0  0  0  0  0
   -9.8420    5.7670  -21.5190 O   0  0  0  0  0  0  0  0  0  0  0  0
   -9.4880    5.9380  -22.8410 C   0  0  0  0  0  0  0  0  0  0  0  0
   -8.4320    5.5750  -22.9250 H   0  0  0  0  0  0  0  0  0  0  0  0
   -9.3680    7.0260  -23.0540 H   0  0  0  0  0  0  0  0  0  0  0  0
  -12.0310    5.8270  -23.9940 H   0  0  0  0  0  0  0  0  0  0  0  0
  -11.3720    5.5170  -22.3590 H   0  0  0  0  0  0  0  0  0  0  0  0
  -10.2120    5.5970  -24.8400 H   0  0  0  0  0  0  0  0  0  0  0  0
  -10.2150    3.4630  -22.4770 H   0  0  0  0  0  0  0  0  0  0  0  0
  -11.5300    3.3310  -23.5980 H   0  0  0  0  0  0  0  0  0  0  0  0
   -9.7680    1.4860  -24.1200 C   0  0  0  0  0  0  0  0  0  0  0  0
  -10.2640    0.9820  -24.9560 H   0  0  0  0  0  0  0  0  0  0  0  0
  -10.3460    1.3220  -23.2050 H   0  0  0  0  0  0  0  0  0  0  0  0
   -9.9080    3.1610  -25.3760 H   0  0  0  0  0  0  0  0  0  0  0  0
   -8.0350    4.2920  -23.9720 H   0  0  0  0  0  0  0  0  0  0  0  0
   -6.3740    3.0140  -25.4220 H   0  0  0  0  0  0  0  0  0  0  0  0
   -7.8890    3.1550  -26.3410 H   0  0  0  0  0  0  0  0  0  0  0  0
   -6.6660    0.6880  -25.3070 H   0  0  0  0  0  0  0  0  0  0  0  0
   -8.2600    0.8220  -26.1010 H   0  0  0  0  0  0  0  0  0  0  0  0
  1  2  2  0  0  0  0
  2  3  1  0  0  0  0
  2 22  1  0  0  0  0
  3  4  1  0  0  0  0
  3 20  1  0  0  0  0
  3 21  1  0  0  0  0
  4  5  2  0  0  0  0
  4 13  1  0  0  0  0
  5  6  1  0  0  0  0
  5 19  1  0  0  0  0
  6  7  2  0  0  0  0
  7  8  1  0  0  0  0
  7 18  1  0  0  0  0
  8  9  2  0  0  0  0
  8 13  1  0  0  0  0
  9 10  1  0  0  0  0
  9 17  1  0  0  0  0
 10 11  2  0  0  0  0
 10 16  1  0  0  0  0
 11 12  1  0  0  0  0
 11 15  1  0  0  0  0
 12 13  2  0  0  0  0
 12 14  1  0  0  0  0
 22 23  1  0  0  0  0
 23 24  1  0  0  0  0
 23 35  1  0  0  0  0
 23 36  1  0  0  0  0
 24 25  2  0  0  0  0
 24 30  1  0  0  0  0
 25 26  1  0  0  0  0
 25 34  1  0  0  0  0
 26 27  2  0  0  0  0
 26 33  1  0  0  0  0
 27 28  1  0  0  0  0
 27 32  1  0  0  0  0
 28 29  1  0  0  0  0
 28 30  2  0  0  0  0
 30 31  1  0  0  0  0
 37 22  1  1  0  0  0
 37 38  1  0  0  0  0
 37 41  1  0  0  0  0
 37 57  1  0  0  0  0
 38 39  1  0  0  0  0
 38 64  1  0  0  0  0
 38 65  1  0  0  0  0
 39 40  1  0  0  0  0
 39 62  1  0  0  0  0
 39 63  1  0  0  0  0
 40 41  1  0  0  0  0
 40 44  1  0  0  0  0
 40 61  1  1  0  0  0
 41 42  1  0  0  0  0
 41 43  1  0  0  0  0
 44 45  1  0  0  0  0
 44 57  1  0  0  0  0
 44 60  1  6  0  0  0
 45 46  1  0  0  0  0
 45 55  1  0  0  0  0
 45 56  1  0  0  0  0
 46 47  1  0  0  0  0
 46 49  1  0  0  0  0
 46 54  1  0  0  0  0
 47 48  1  0  0  0  0
 47 52  1  0  0  0  0
 47 53  1  0  0  0  0
 48 49  1  0  0  0  0
 49 50  1  0  0  0  0
 49 51  1  0  0  0  0
 57 58  1  0  0  0  0
 57 59  1  0  0  0  0
M  CHG  1  44   1
M  END
>  <MODEL>
       1

$$$$
