tmp_first_model_15_40.pdb
 OpenBabel08282501153D

 40 42  0  0  0  0  0  0  0  0999 V2000
   -9.2650   -6.6080  -25.1430 C   0  0  0  0  0  0  0  0  0  0  0  0
   -8.9080   -5.7630  -23.9200 C   0  0  0  0  0  0  0  0  0  0  0  0
   -7.4650   -5.9500  -23.4680 C   0  0  0  0  0  0  0  0  0  0  0  0
   -7.2290   -5.1530  -22.1900 C   0  0  0  0  0  0  0  0  0  0  0  0
   -7.6130   -3.7540  -22.3190 N   0  0  0  0  0  0  0  0  0  0  0  0
   -6.7830   -2.8190  -21.7580 C   0  0  0  0  0  0  0  0  0  0  0  0
   -5.5870   -3.0370  -21.6210 O   0  0  0  0  0  0  0  0  0  0  0  0
   -7.4080   -1.4970  -21.2650 C   0  0  0  0  0  0  0  0  0  0  0  0
   -6.5830   -0.8350  -20.1850 C   0  0  0  0  0  0  0  0  0  0  0  0
   -6.8820   -1.0500  -18.8650 C   0  0  0  0  0  0  0  0  0  0  0  0
   -6.1990   -0.5440  -17.8030 N   0  0  0  0  0  0  0  0  0  0  0  0
   -5.1650    0.2150  -18.0710 C   0  0  0  0  0  0  0  0  0  0  0  0
   -4.7250    0.5240  -19.3860 C   0  0  0  0  0  0  0  0  0  0  0  0
   -3.5980    1.3520  -19.6220 C   0  0  0  0  0  0  0  0  0  0  0  0
   -3.1940    1.6260  -20.8990 C   0  0  0  0  0  0  0  0  0  0  0  0
   -3.9020    1.0820  -21.9940 C   0  0  0  0  0  0  0  0  0  0  0  0
   -4.9950    0.2770  -21.7910 C   0  0  0  0  0  0  0  0  0  0  0  0
   -5.4460   -0.0200  -20.4770 C   0  0  0  0  0  0  0  0  0  0  0  0
   -5.5240   -0.1520  -22.6360 H   0  0  0  0  0  0  0  0  0  0  0  0
   -3.5790    1.3110  -23.0050 H   0  0  0  0  0  0  0  0  0  0  0  0
   -2.3360    2.2690  -21.0740 H   0  0  0  0  0  0  0  0  0  0  0  0
   -3.0840    1.7680  -18.7580 H   0  0  0  0  0  0  0  0  0  0  0  0
   -4.6200    0.6250  -17.2180 H   0  0  0  0  0  0  0  0  0  0  0  0
   -7.7310   -1.6710  -18.5830 H   0  0  0  0  0  0  0  0  0  0  0  0
   -7.5580   -0.8210  -22.1170 H   0  0  0  0  0  0  0  0  0  0  0  0
   -8.4080   -1.7140  -20.8680 H   0  0  0  0  0  0  0  0  0  0  0  0
   -8.9590   -3.4970  -22.8020 C   0  0  0  0  0  0  0  0  0  0  0  0
   -9.2340   -4.2830  -24.0930 C   0  0  0  0  0  0  0  0  0  0  0  0
  -10.2990   -4.1770  -24.3360 H   0  0  0  0  0  0  0  0  0  0  0  0
   -8.6520   -3.8680  -24.9310 H   0  0  0  0  0  0  0  0  0  0  0  0
   -9.0610   -2.4230  -22.9870 H   0  0  0  0  0  0  0  0  0  0  0  0
   -9.7070   -3.7830  -22.0380 H   0  0  0  0  0  0  0  0  0  0  0  0
   -7.8280   -5.6280  -21.3940 H   0  0  0  0  0  0  0  0  0  0  0  0
   -6.1830   -5.1430  -21.8850 H   0  0  0  0  0  0  0  0  0  0  0  0
   -6.7520   -5.6770  -24.2610 H   0  0  0  0  0  0  0  0  0  0  0  0
   -7.3270   -7.0110  -23.2230 H   0  0  0  0  0  0  0  0  0  0  0  0
   -9.4760   -6.0780  -23.0490 H   0  0  0  0  0  0  0  0  0  0  0  0
   -9.1020   -7.6730  -24.9560 H   0  0  0  0  0  0  0  0  0  0  0  0
  -10.3120   -6.4850  -25.4340 H   0  0  0  0  0  0  0  0  0  0  0  0
   -8.6560   -6.3310  -26.0100 H   0  0  0  0  0  0  0  0  0  0  0  0
  1  2  1  0  0  0  0
  1 38  1  0  0  0  0
  1 39  1  0  0  0  0
  1 40  1  0  0  0  0
  2  3  1  0  0  0  0
  2 28  1  0  0  0  0
  2 37  1  0  0  0  0
  3  4  1  0  0  0  0
  3 35  1  0  0  0  0
  3 36  1  0  0  0  0
  4  5  1  0  0  0  0
  4 33  1  0  0  0  0
  4 34  1  0  0  0  0
  5  6  1  0  0  0  0
  5 27  1  0  0  0  0
  6  7  2  0  0  0  0
  6  8  1  0  0  0  0
  8  9  1  0  0  0  0
  8 25  1  0  0  0  0
  8 26  1  0  0  0  0
  9 10  2  0  0  0  0
  9 18  1  0  0  0  0
 10 11  1  0  0  0  0
 10 24  1  0  0  0  0
 11 12  2  0  0  0  0
 12 13  1  0  0  0  0
 12 23  1  0  0  0  0
 13 14  2  0  0  0  0
 13 18  1  0  0  0  0
 14 15  1  0  0  0  0
 14 22  1  0  0  0  0
 15 16  2  0  0  0  0
 15 21  1  0  0  0  0
 16 17  1  0  0  0  0
 16 20  1  0  0  0  0
 17 18  2  0  0  0  0
 17 19  1  0  0  0  0
 27 28  1  0  0  0  0
 27 31  1  0  0  0  0
 27 32  1  0  0  0  0
 28 29  1  0  0  0  0
 28 30  1  0  0  0  0
M  END
>  <MODEL>
       1

$$$$
