tmp_first_model_3_89.pdb
 OpenBabel08272518143D

 43 45  0  0  0  0  0  0  0  0999 V2000
   -9.8350    0.6070  -27.2160 C   0  0  0  0  0  0  0  0  0  0  0  0
   -8.8040    0.4570  -26.0910 C   0  0  0  0  0  0  0  0  0  0  0  0
   -7.4080    0.6990  -26.6800 C   0  0  0  0  0  0  0  0  0  0  0  0
   -6.6080    0.6040  -25.9420 H   0  0  0  0  0  0  0  0  0  0  0  0
   -7.3370    1.7030  -27.1110 H   0  0  0  0  0  0  0  0  0  0  0  0
   -7.1980   -0.0180  -27.4810 H   0  0  0  0  0  0  0  0  0  0  0  0
   -9.1180    1.4690  -24.9810 C   0  0  0  0  0  0  0  0  0  0  0  0
   -8.2850    1.2660  -23.7220 C   0  0  0  0  0  0  0  0  0  0  0  0
   -8.3470   -0.1110  -23.2420 N   0  0  0  0  0  0  0  0  0  0  0  0
   -8.3590   -0.3280  -21.8680 C   0  0  0  0  0  0  0  0  0  0  0  0
   -9.0500    0.3350  -21.1200 O   0  0  0  0  0  0  0  0  0  0  0  0
   -7.4330   -1.4130  -21.2770 C   0  0  0  0  0  0  0  0  0  0  0  0
   -6.5700   -0.8340  -20.1750 C   0  0  0  0  0  0  0  0  0  0  0  0
   -6.8770   -1.0400  -18.8550 C   0  0  0  0  0  0  0  0  0  0  0  0
   -6.1940   -0.5320  -17.7920 N   0  0  0  0  0  0  0  0  0  0  0  0
   -5.1570    0.2230  -18.0640 C   0  0  0  0  0  0  0  0  0  0  0  0
   -4.7200    0.5330  -19.3800 C   0  0  0  0  0  0  0  0  0  0  0  0
   -3.5980    1.3650  -19.6220 C   0  0  0  0  0  0  0  0  0  0  0  0
   -3.2080    1.6580  -20.9010 C   0  0  0  0  0  0  0  0  0  0  0  0
   -3.9280    1.1260  -21.9950 C   0  0  0  0  0  0  0  0  0  0  0  0
   -5.0190    0.3160  -21.7880 C   0  0  0  0  0  0  0  0  0  0  0  0
   -5.4460   -0.0040  -20.4710 C   0  0  0  0  0  0  0  0  0  0  0  0
   -5.5610   -0.0800  -22.6440 H   0  0  0  0  0  0  0  0  0  0  0  0
   -3.6150    1.3670  -23.0060 H   0  0  0  0  0  0  0  0  0  0  0  0
   -2.3540    2.3050  -21.0850 H   0  0  0  0  0  0  0  0  0  0  0  0
   -3.0630    1.7790  -18.7700 H   0  0  0  0  0  0  0  0  0  0  0  0
   -4.6020    0.6290  -17.2160 H   0  0  0  0  0  0  0  0  0  0  0  0
   -7.7300   -1.6600  -18.5830 H   0  0  0  0  0  0  0  0  0  0  0  0
   -6.8120   -1.8920  -22.0450 H   0  0  0  0  0  0  0  0  0  0  0  0
   -8.0810   -2.1860  -20.8460 H   0  0  0  0  0  0  0  0  0  0  0  0
   -8.0640   -1.1430  -24.2250 C   0  0  0  0  0  0  0  0  0  0  0  0
   -8.9070   -0.9490  -25.4890 C   0  0  0  0  0  0  0  0  0  0  0  0
   -9.9560   -1.1580  -25.2520 H   0  0  0  0  0  0  0  0  0  0  0  0
   -8.6130   -1.6890  -26.2400 H   0  0  0  0  0  0  0  0  0  0  0  0
   -6.9940   -1.1820  -24.4910 H   0  0  0  0  0  0  0  0  0  0  0  0
   -8.3140   -2.1070  -23.7810 H   0  0  0  0  0  0  0  0  0  0  0  0
   -8.6500    1.9020  -22.9170 H   0  0  0  0  0  0  0  0  0  0  0  0
   -7.2390    1.5660  -23.9110 H   0  0  0  0  0  0  0  0  0  0  0  0
  -10.1790    1.3950  -24.7170 H   0  0  0  0  0  0  0  0  0  0  0  0
   -8.9690    2.4860  -25.3640 H   0  0  0  0  0  0  0  0  0  0  0  0
   -9.7950    1.6100  -27.6570 H   0  0  0  0  0  0  0  0  0  0  0  0
  -10.8550    0.4450  -26.8500 H   0  0  0  0  0  0  0  0  0  0  0  0
   -9.6520   -0.1150  -28.0200 H   0  0  0  0  0  0  0  0  0  0  0  0
  1  2  1  0  0  0  0
  1 41  1  0  0  0  0
  1 42  1  0  0  0  0
  1 43  1  0  0  0  0
  2  3  1  0  0  0  0
  2  7  1  0  0  0  0
  2 32  1  0  0  0  0
  3  4  1  0  0  0  0
  3  5  1  0  0  0  0
  3  6  1  0  0  0  0
  7  8  1  0  0  0  0
  7 39  1  0  0  0  0
  7 40  1  0  0  0  0
  8  9  1  0  0  0  0
  8 37  1  0  0  0  0
  8 38  1  0  0  0  0
  9 10  1  0  0  0  0
  9 31  1  0  0  0  0
 10 11  2  0  0  0  0
 10 12  1  0  0  0  0
 12 13  1  0  0  0  0
 12 29  1  0  0  0  0
 12 30  1  0  0  0  0
 13 14  2  0  0  0  0
 13 22  1  0  0  0  0
 14 15  1  0  0  0  0
 14 28  1  0  0  0  0
 15 16  2  0  0  0  0
 16 17  1  0  0  0  0
 16 27  1  0  0  0  0
 17 18  2  0  0  0  0
 17 22  1  0  0  0  0
 18 19  1  0  0  0  0
 18 26  1  0  0  0  0
 19 20  2  0  0  0  0
 19 25  1  0  0  0  0
 20 21  1  0  0  0  0
 20 24  1  0  0  0  0
 21 22  2  0  0  0  0
 21 23  1  0  0  0  0
 31 32  1  0  0  0  0
 31 35  1  0  0  0  0
 31 36  1  0  0  0  0
 32 33  1  0  0  0  0
 32 34  1  0  0  0  0
M  END
>  <MODEL>
       1

$$$$
