tmp_first_model_18_43.pdb
 OpenBabel08282502533D

 67 72  0  0  1  0  0  0  0  0999 V2000
   -7.8490   -3.3430  -29.1150 C   0  0  0  0  0  0  0  0  0  0  0  0
   -8.5190   -2.3930  -28.2560 N   0  0  0  0  0  0  0  0  0  0  0  0
   -7.8590   -1.7400  -27.2710 C   0  0  0  0  0  0  0  0  0  0  0  0
   -6.7090   -1.9900  -26.9400 O   0  0  0  0  0  0  0  0  0  0  0  0
   -8.6840   -0.6270  -26.6240 C   0  0  0  0  0  0  0  0  0  0  0  0
   -9.3130   -1.0490  -25.3900 N   0  0  0  0  0  0  0  0  0  0  0  0
   -8.6230   -0.7250  -24.1560 C   0  0  0  0  0  0  0  0  0  0  0  0
   -9.0400   -1.5680  -22.9360 C   0  0  2  0  0  0  0  0  0  0  0  0
   -8.5230   -0.7790  -21.7080 C   0  0  0  0  0  0  0  0  0  0  0  0
   -8.9570    0.2650  -21.2660 O   0  0  0  0  0  0  0  0  0  0  0  0
   -7.4130   -1.4240  -21.2070 N   0  0  0  0  0  0  0  0  0  0  0  0
   -6.6180   -0.8250  -20.1920 C   0  0  0  0  0  0  0  0  0  0  0  0
   -6.9340   -1.0490  -18.8790 C   0  0  0  0  0  0  0  0  0  0  0  0
   -6.2380   -0.5560  -17.8220 N   0  0  0  0  0  0  0  0  0  0  0  0
   -5.2000    0.2000  -18.0850 C   0  0  0  0  0  0  0  0  0  0  0  0
   -4.7620    0.5210  -19.4030 C   0  0  0  0  0  0  0  0  0  0  0  0
   -3.6330    1.3510  -19.6310 C   0  0  0  0  0  0  0  0  0  0  0  0
   -3.2360    1.6460  -20.9060 C   0  0  0  0  0  0  0  0  0  0  0  0
   -3.9480    1.1260  -22.0110 C   0  0  0  0  0  0  0  0  0  0  0  0
   -5.0450    0.3230  -21.8150 C   0  0  0  0  0  0  0  0  0  0  0  0
   -5.4820   -0.0050  -20.5010 C   0  0  0  0  0  0  0  0  0  0  0  0
   -5.5870   -0.0640  -22.6720 H   0  0  0  0  0  0  0  0  0  0  0  0
   -3.6240    1.3620  -23.0210 H   0  0  0  0  0  0  0  0  0  0  0  0
   -2.3740    2.2850  -21.0820 H   0  0  0  0  0  0  0  0  0  0  0  0
   -3.0990    1.7450  -18.7700 H   0  0  0  0  0  0  0  0  0  0  0  0
   -4.6300    0.5920  -17.2390 H   0  0  0  0  0  0  0  0  0  0  0  0
   -7.8010   -1.6600  -18.6350 H   0  0  0  0  0  0  0  0  0  0  0  0
   -7.0390   -2.6140  -21.9480 C   0  0  0  0  0  0  0  0  0  0  0  0
   -8.2960   -2.9300  -22.7640 C   0  0  2  0  0  0  0  0  0  0  0  0
   -8.0100   -3.7270  -24.0320 C   0  0  0  0  0  0  0  0  0  0  0  0
   -9.2320   -4.2610  -24.5870 N   0  0  0  0  0  0  0  0  0  0  0  0
   -9.3340   -4.9170  -25.7820 C   0  0  0  0  0  0  0  0  0  0  0  0
  -10.8710   -5.0950  -26.6010 S   0  0  0  0  0  0  0  0  0  0  0  0
  -10.0670   -6.0250  -27.8180 C   0  0  0  0  0  0  0  0  0  0  0  0
   -8.7950   -6.1820  -27.6520 N   0  0  0  0  0  0  0  0  0  0  0  0
   -8.3610   -5.5680  -26.5020 C   0  0  0  0  0  0  0  0  0  0  0  0
   -6.9100   -5.6800  -26.1440 C   0  0  0  0  0  0  0  0  0  0  0  0
   -6.3990   -6.2740  -26.9040 H   0  0  0  0  0  0  0  0  0  0  0  0
   -6.7700   -6.1820  -25.1810 H   0  0  0  0  0  0  0  0  0  0  0  0
   -6.4290   -4.6970  -26.0900 H   0  0  0  0  0  0  0  0  0  0  0  0
  -10.6170   -6.3920  -28.6740 H   0  0  0  0  0  0  0  0  0  0  0  0
  -10.1000   -3.9910  -24.1440 H   0  0  0  0  0  0  0  0  0  0  0  0
   -7.3320   -4.5450  -23.7810 H   0  0  0  0  0  0  0  0  0  0  0  0
   -7.4910   -3.1200  -24.7790 H   0  0  0  0  0  0  0  0  0  0  0  0
   -8.9490   -3.5550  -22.1420 H   0  0  0  0  0  0  0  0  0  0  0  0
   -6.1740   -2.4320  -22.6050 H   0  0  0  0  0  0  0  0  0  0  0  0
   -6.7740   -3.4200  -21.2570 H   0  0  0  0  0  0  0  0  0  0  0  0
  -10.5390   -1.7540  -22.9690 C   0  0  0  0  0  0  0  0  0  0  0  0
  -11.2210   -2.1940  -21.8310 C   0  0  0  0  0  0  0  0  0  0  0  0
  -12.5990   -2.3460  -21.8460 C   0  0  0  0  0  0  0  0  0  0  0  0
  -13.4000   -3.0380  -20.4590 Cl  0  0  0  0  0  0  0  0  0  0  0  0
  -13.3590   -1.9550  -22.9470 C   0  0  0  0  0  0  0  0  0  0  0  0
  -12.6840   -1.4860  -24.0590 C   0  0  0  0  0  0  0  0  0  0  0  0
  -11.2950   -1.5340  -24.1210 C   0  0  0  0  0  0  0  0  0  0  0  0
  -10.6250   -1.4200  -25.4430 C   0  0  0  0  0  0  0  0  0  0  0  0
  -11.1990   -1.6350  -26.5090 O   0  0  0  0  0  0  0  0  0  0  0  0
  -13.2190   -1.0700  -24.9050 H   0  0  0  0  0  0  0  0  0  0  0  0
  -14.4410   -2.0270  -22.9120 H   0  0  0  0  0  0  0  0  0  0  0  0
  -10.6590   -2.3530  -20.9240 H   0  0  0  0  0  0  0  0  0  0  0  0
   -8.7840    0.3290  -23.8990 H   0  0  0  0  0  0  0  0  0  0  0  0
   -7.5530   -0.8630  -24.3390 H   0  0  0  0  0  0  0  0  0  0  0  0
   -8.0220    0.2170  -26.4100 H   0  0  0  0  0  0  0  0  0  0  0  0
   -9.4720   -0.3120  -27.3110 H   0  0  0  0  0  0  0  0  0  0  0  0
   -9.5170   -2.2630  -28.3130 H   0  0  0  0  0  0  0  0  0  0  0  0
   -7.1360   -3.8960  -28.5060 H   0  0  0  0  0  0  0  0  0  0  0  0
   -7.3030   -2.8610  -29.9310 H   0  0  0  0  0  0  0  0  0  0  0  0
   -8.5580   -4.0520  -29.5410 H   0  0  0  0  0  0  0  0  0  0  0  0
  1  2  1  0  0  0  0
  1 65  1  0  0  0  0
  1 66  1  0  0  0  0
  1 67  1  0  0  0  0
  2  3  1  0  0  0  0
  2 64  1  0  0  0  0
  3  4  2  0  0  0  0
  3  5  1  0  0  0  0
  5  6  1  0  0  0  0
  5 62  1  0  0  0  0
  5 63  1  0  0  0  0
  6  7  1  0  0  0  0
  6 55  1  0  0  0  0
  7  8  1  0  0  0  0
  7 60  1  0  0  0  0
  7 61  1  0  0  0  0
  8  9  1  1  0  0  0
  8 29  1  0  0  0  0
  8 48  1  0  0  0  0
  9 10  2  0  0  0  0
  9 11  1  0  0  0  0
 11 12  1  0  0  0  0
 11 28  1  0  0  0  0
 12 13  2  0  0  0  0
 12 21  1  0  0  0  0
 13 14  1  0  0  0  0
 13 27  1  0  0  0  0
 14 15  2  0  0  0  0
 15 16  1  0  0  0  0
 15 26  1  0  0  0  0
 16 17  2  0  0  0  0
 16 21  1  0  0  0  0
 17 18  1  0  0  0  0
 17 25  1  0  0  0  0
 18 19  2  0  0  0  0
 18 24  1  0  0  0  0
 19 20  1  0  0  0  0
 19 23  1  0  0  0  0
 20 21  2  0  0  0  0
 20 22  1  0  0  0  0
 28 29  1  0  0  0  0
 28 46  1  0  0  0  0
 28 47  1  0  0  0  0
 29 30  1  0  0  0  0
 29 45  1  1  0  0  0
 30 31  1  0  0  0  0
 30 43  1  0  0  0  0
 30 44  1  0  0  0  0
 31 32  1  0  0  0  0
 31 42  1  0  0  0  0
 32 33  1  0  0  0  0
 32 36  2  0  0  0  0
 33 34  1  0  0  0  0
 34 35  2  0  0  0  0
 34 41  1  0  0  0  0
 35 36  1  0  0  0  0
 36 37  1  0  0  0  0
 37 38  1  0  0  0  0
 37 39  1  0  0  0  0
 37 40  1  0  0  0  0
 48 49  2  0  0  0  0
 48 54  1  0  0  0  0
 49 50  1  0  0  0  0
 49 59  1  0  0  0  0
 50 51  1  0  0  0  0
 50 52  2  0  0  0  0
 52 53  1  0  0  0  0
 52 58  1  0  0  0  0
 53 54  2  0  0  0  0
 53 57  1  0  0  0  0
 54 55  1  0  0  0  0
 55 56  2  0  0  0  0
M  END
>  <MODEL>
       1

$$$$
