tmp_first_model_6_44.pdb
 OpenBabel08272519583D

 60 64  0  0  1  0  0  0  0  0999 V2000
   -7.4120    3.3820  -21.7870 C   0  0  0  0  0  0  0  0  0  0  0  0
   -8.2830    2.9250  -22.8510 N   0  0  0  0  0  0  0  0  0  0  0  0
   -7.7130    2.2370  -23.8720 C   0  0  0  0  0  0  0  0  0  0  0  0
   -6.5000    2.1340  -23.9870 O   0  0  0  0  0  0  0  0  0  0  0  0
   -8.6630    1.6170  -24.8970 C   0  0  0  0  0  0  0  0  0  0  0  0
   -9.3860    0.4630  -24.3970 N   0  0  0  0  0  0  0  0  0  0  0  0
   -8.6730   -0.7950  -24.2300 C   0  0  0  0  0  0  0  0  0  0  0  0
   -9.0670   -1.5170  -22.9140 C   0  0  2  0  0  0  0  0  0  0  0  0
   -8.5150   -0.7270  -21.6930 C   0  0  0  0  0  0  0  0  0  0  0  0
   -8.9600    0.2960  -21.2210 O   0  0  0  0  0  0  0  0  0  0  0  0
   -7.4060   -1.3840  -21.2030 N   0  0  0  0  0  0  0  0  0  0  0  0
   -6.6070   -0.8080  -20.1740 C   0  0  0  0  0  0  0  0  0  0  0  0
   -6.9080   -1.0460  -18.8580 C   0  0  0  0  0  0  0  0  0  0  0  0
   -6.2030   -0.5570  -17.8080 N   0  0  0  0  0  0  0  0  0  0  0  0
   -5.1690    0.2040  -18.0730 C   0  0  0  0  0  0  0  0  0  0  0  0
   -4.7370    0.5390  -19.3870 C   0  0  0  0  0  0  0  0  0  0  0  0
   -3.6110    1.3750  -19.6310 C   0  0  0  0  0  0  0  0  0  0  0  0
   -3.2360    1.6850  -20.9100 C   0  0  0  0  0  0  0  0  0  0  0  0
   -3.9780    1.1830  -22.0010 C   0  0  0  0  0  0  0  0  0  0  0  0
   -5.0640    0.3660  -21.7920 C   0  0  0  0  0  0  0  0  0  0  0  0
   -5.4800    0.0220  -20.4790 C   0  0  0  0  0  0  0  0  0  0  0  0
   -5.5970   -0.0460  -22.6450 H   0  0  0  0  0  0  0  0  0  0  0  0
   -3.6730    1.4040  -23.0190 H   0  0  0  0  0  0  0  0  0  0  0  0
   -2.3670    2.3120  -21.0930 H   0  0  0  0  0  0  0  0  0  0  0  0
   -3.0680    1.7670  -18.7740 H   0  0  0  0  0  0  0  0  0  0  0  0
   -4.6200    0.6090  -17.2220 H   0  0  0  0  0  0  0  0  0  0  0  0
   -7.7620   -1.6700  -18.6030 H   0  0  0  0  0  0  0  0  0  0  0  0
   -7.0700   -2.5980  -21.9210 C   0  0  0  0  0  0  0  0  0  0  0  0
   -8.3310   -2.8870  -22.7610 C   0  0  2  0  0  0  0  0  0  0  0  0
   -7.9810   -3.6550  -24.0350 C   0  0  0  0  0  0  0  0  0  0  0  0
   -9.1510   -3.9340  -24.7630 O   0  0  0  0  0  0  0  0  0  0  0  0
   -8.8680   -4.5820  -25.9800 C   0  0  0  0  0  0  0  0  0  0  0  0
   -8.2690   -3.9460  -26.6530 H   0  0  0  0  0  0  0  0  0  0  0  0
   -8.3150   -5.5200  -25.8190 H   0  0  0  0  0  0  0  0  0  0  0  0
   -9.8220   -4.8090  -26.4610 H   0  0  0  0  0  0  0  0  0  0  0  0
   -7.2780   -3.0680  -24.6490 H   0  0  0  0  0  0  0  0  0  0  0  0
   -7.4690   -4.5990  -23.7800 H   0  0  0  0  0  0  0  0  0  0  0  0
   -9.0010   -3.5240  -22.1840 H   0  0  0  0  0  0  0  0  0  0  0  0
   -6.1880   -2.4450  -22.5650 H   0  0  0  0  0  0  0  0  0  0  0  0
   -6.8290   -3.4090  -21.2220 H   0  0  0  0  0  0  0  0  0  0  0  0
  -10.5920   -1.5650  -22.8510 C   0  0  0  0  0  0  0  0  0  0  0  0
  -11.2350   -2.4070  -21.9330 C   0  0  0  0  0  0  0  0  0  0  0  0
  -12.6100   -2.3560  -21.7930 C   0  0  0  0  0  0  0  0  0  0  0  0
  -13.4140   -3.1790  -20.4910 Cl  0  0  0  0  0  0  0  0  0  0  0  0
  -13.3860   -1.5530  -22.6280 C   0  0  0  0  0  0  0  0  0  0  0  0
  -12.7640   -0.6700  -23.4860 C   0  0  0  0  0  0  0  0  0  0  0  0
  -11.3740   -0.6360  -23.5570 C   0  0  0  0  0  0  0  0  0  0  0  0
  -10.7520    0.5080  -24.3040 C   0  0  0  0  0  0  0  0  0  0  0  0
  -11.4300    1.4250  -24.7530 O   0  0  0  0  0  0  0  0  0  0  0  0
  -13.3140    0.0750  -24.0560 H   0  0  0  0  0  0  0  0  0  0  0  0
  -14.4620   -1.5910  -22.5480 H   0  0  0  0  0  0  0  0  0  0  0  0
  -10.6580   -3.0700  -21.3000 H   0  0  0  0  0  0  0  0  0  0  0  0
   -8.8830   -1.4710  -25.0720 H   0  0  0  0  0  0  0  0  0  0  0  0
   -7.6030   -0.5560  -24.2150 H   0  0  0  0  0  0  0  0  0  0  0  0
   -9.4330    2.3220  -25.2190 H   0  0  0  0  0  0  0  0  0  0  0  0
   -8.0320    1.3400  -25.7510 H   0  0  0  0  0  0  0  0  0  0  0  0
   -9.2780    2.8360  -22.6890 H   0  0  0  0  0  0  0  0  0  0  0  0
   -6.7160    4.1450  -22.1540 H   0  0  0  0  0  0  0  0  0  0  0  0
   -6.8200    2.5370  -21.4000 H   0  0  0  0  0  0  0  0  0  0  0  0
   -8.0270    3.8260  -21.0050 H   0  0  0  0  0  0  0  0  0  0  0  0
  1  2  1  0  0  0  0
  1 58  1  0  0  0  0
  1 59  1  0  0  0  0
  1 60  1  0  0  0  0
  2  3  1  0  0  0  0
  2 57  1  0  0  0  0
  3  4  2  0  0  0  0
  3  5  1  0  0  0  0
  5  6  1  0  0  0  0
  5 55  1  0  0  0  0
  5 56  1  0  0  0  0
  6  7  1  0  0  0  0
  6 48  1  0  0  0  0
  7  8  1  0  0  0  0
  7 53  1  0  0  0  0
  7 54  1  0  0  0  0
  8  9  1  1  0  0  0
  8 29  1  0  0  0  0
  8 41  1  0  0  0  0
  9 10  2  0  0  0  0
  9 11  1  0  0  0  0
 11 12  1  0  0  0  0
 11 28  1  0  0  0  0
 12 13  2  0  0  0  0
 12 21  1  0  0  0  0
 13 14  1  0  0  0  0
 13 27  1  0  0  0  0
 14 15  2  0  0  0  0
 15 16  1  0  0  0  0
 15 26  1  0  0  0  0
 16 17  2  0  0  0  0
 16 21  1  0  0  0  0
 17 18  1  0  0  0  0
 17 25  1  0  0  0  0
 18 19  2  0  0  0  0
 18 24  1  0  0  0  0
 19 20  1  0  0  0  0
 19 23  1  0  0  0  0
 20 21  2  0  0  0  0
 20 22  1  0  0  0  0
 28 29  1  0  0  0  0
 28 39  1  0  0  0  0
 28 40  1  0  0  0  0
 29 30  1  0  0  0  0
 29 38  1  1  0  0  0
 30 31  1  0  0  0  0
 30 36  1  0  0  0  0
 30 37  1  0  0  0  0
 31 32  1  0  0  0  0
 32 33  1  0  0  0  0
 32 34  1  0  0  0  0
 32 35  1  0  0  0  0
 41 42  2  0  0  0  0
 41 47  1  0  0  0  0
 42 43  1  0  0  0  0
 42 52  1  0  0  0  0
 43 44  1  0  0  0  0
 43 45  2  0  0  0  0
 45 46  1  0  0  0  0
 45 51  1  0  0  0  0
 46 47  2  0  0  0  0
 46 50  1  0  0  0  0
 47 48  1  0  0  0  0
 48 49  2  0  0  0  0
M  END
>  <MODEL>
       1

$$$$
