tmp_first_model_15_62.pdb
 OpenBabel08282501153D

 44 47  0  0  0  0  0  0  0  0999 V2000
   -5.5760   -3.1160  -21.3700 O   0  0  0  0  0  0  0  0  0  0  0  0
   -6.7320   -2.8630  -21.6840 C   0  0  0  0  0  0  0  0  0  0  0  0
   -7.3860   -1.5400  -21.2710 C   0  0  0  0  0  0  0  0  0  0  0  0
   -6.5980   -0.8560  -20.1970 C   0  0  0  0  0  0  0  0  0  0  0  0
   -6.9190   -1.0690  -18.8830 C   0  0  0  0  0  0  0  0  0  0  0  0
   -6.2570   -0.5640  -17.8130 N   0  0  0  0  0  0  0  0  0  0  0  0
   -5.2160    0.1920  -18.0740 C   0  0  0  0  0  0  0  0  0  0  0  0
   -4.7540    0.4890  -19.3850 C   0  0  0  0  0  0  0  0  0  0  0  0
   -3.6340    1.3240  -19.6160 C   0  0  0  0  0  0  0  0  0  0  0  0
   -3.2260    1.6040  -20.8880 C   0  0  0  0  0  0  0  0  0  0  0  0
   -3.9160    1.0530  -21.9910 C   0  0  0  0  0  0  0  0  0  0  0  0
   -4.9990    0.2330  -21.7950 C   0  0  0  0  0  0  0  0  0  0  0  0
   -5.4560   -0.0580  -20.4850 C   0  0  0  0  0  0  0  0  0  0  0  0
   -5.5110   -0.1930  -22.6520 H   0  0  0  0  0  0  0  0  0  0  0  0
   -3.5900    1.2910  -22.9970 H   0  0  0  0  0  0  0  0  0  0  0  0
   -2.3750    2.2550  -21.0650 H   0  0  0  0  0  0  0  0  0  0  0  0
   -3.1210    1.7580  -18.7600 H   0  0  0  0  0  0  0  0  0  0  0  0
   -4.6800    0.6090  -17.2230 H   0  0  0  0  0  0  0  0  0  0  0  0
   -7.7750   -1.6960  -18.6370 H   0  0  0  0  0  0  0  0  0  0  0  0
   -8.3940   -1.7610  -20.8890 H   0  0  0  0  0  0  0  0  0  0  0  0
   -7.4980   -0.8980  -22.1550 H   0  0  0  0  0  0  0  0  0  0  0  0
   -7.5120   -3.7500  -22.3910 N   0  0  0  0  0  0  0  0  0  0  0  0
   -7.1480   -5.1590  -22.3000 C   0  0  0  0  0  0  0  0  0  0  0  0
   -7.3730   -5.8740  -23.6220 C   0  0  0  0  0  0  0  0  0  0  0  0
   -8.8310   -5.6990  -24.0590 C   0  0  0  0  0  0  0  0  0  0  0  0
   -9.1520   -6.5380  -25.2910 C   0  0  0  0  0  0  0  0  0  0  0  0
  -10.5310   -6.7460  -25.8650 C   0  0  0  0  0  0  0  0  0  0  0  0
   -9.4960   -5.9770  -26.6390 C   0  0  0  0  0  0  0  0  0  0  0  0
   -9.6480   -4.9040  -26.7280 H   0  0  0  0  0  0  0  0  0  0  0  0
   -8.9910   -6.4460  -27.4820 H   0  0  0  0  0  0  0  0  0  0  0  0
  -10.7670   -7.7390  -26.2400 H   0  0  0  0  0  0  0  0  0  0  0  0
  -11.3910   -6.2260  -25.4490 H   0  0  0  0  0  0  0  0  0  0  0  0
   -8.5790   -7.4620  -25.3270 H   0  0  0  0  0  0  0  0  0  0  0  0
   -9.1690   -4.2050  -24.1500 C   0  0  0  0  0  0  0  0  0  0  0  0
   -8.8940   -3.5130  -22.8120 C   0  0  0  0  0  0  0  0  0  0  0  0
   -9.6190   -3.8690  -22.0520 H   0  0  0  0  0  0  0  0  0  0  0  0
   -9.0830   -2.4430  -22.9140 H   0  0  0  0  0  0  0  0  0  0  0  0
   -8.5970   -3.7120  -24.9510 H   0  0  0  0  0  0  0  0  0  0  0  0
  -10.2250   -4.0620  -24.4070 H   0  0  0  0  0  0  0  0  0  0  0  0
   -9.4230   -6.1000  -23.2280 H   0  0  0  0  0  0  0  0  0  0  0  0
   -7.1450   -6.9390  -23.4750 H   0  0  0  0  0  0  0  0  0  0  0  0
   -6.6850   -5.5000  -24.3930 H   0  0  0  0  0  0  0  0  0  0  0  0
   -6.1080   -5.2060  -21.9910 H   0  0  0  0  0  0  0  0  0  0  0  0
   -7.7390   -5.6490  -21.5050 H   0  0  0  0  0  0  0  0  0  0  0  0
  1  2  2  0  0  0  0
  2  3  1  0  0  0  0
  2 22  1  0  0  0  0
  3  4  1  0  0  0  0
  3 20  1  0  0  0  0
  3 21  1  0  0  0  0
  4  5  2  0  0  0  0
  4 13  1  0  0  0  0
  5  6  1  0  0  0  0
  5 19  1  0  0  0  0
  6  7  2  0  0  0  0
  7  8  1  0  0  0  0
  7 18  1  0  0  0  0
  8  9  2  0  0  0  0
  8 13  1  0  0  0  0
  9 10  1  0  0  0  0
  9 17  1  0  0  0  0
 10 11  2  0  0  0  0
 10 16  1  0  0  0  0
 11 12  1  0  0  0  0
 11 15  1  0  0  0  0
 12 13  2  0  0  0  0
 12 14  1  0  0  0  0
 22 23  1  0  0  0  0
 22 35  1  0  0  0  0
 23 24  1  0  0  0  0
 23 43  1  0  0  0  0
 23 44  1  0  0  0  0
 24 25  1  0  0  0  0
 24 41  1  0  0  0  0
 24 42  1  0  0  0  0
 25 26  1  0  0  0  0
 25 34  1  0  0  0  0
 25 40  1  0  0  0  0
 26 27  1  0  0  0  0
 26 28  1  0  0  0  0
 26 33  1  0  0  0  0
 27 28  1  0  0  0  0
 27 31  1  0  0  0  0
 27 32  1  0  0  0  0
 28 29  1  0  0  0  0
 28 30  1  0  0  0  0
 34 35  1  0  0  0  0
 34 38  1  0  0  0  0
 34 39  1  0  0  0  0
 35 36  1  0  0  0  0
 35 37  1  0  0  0  0
M  END
>  <MODEL>
       1

$$$$
