tmp_first_model_9_5.pdb
 OpenBabel08272521403D

 58 61  0  0  1  0  0  0  0  0999 V2000
   -8.0360   -4.6410  -21.9690 C   0  0  0  0  0  0  0  0  0  0  0  0
   -7.0100   -3.8610  -21.6380 C   0  0  0  0  0  0  0  0  0  0  0  0
   -6.7280   -2.4500  -22.0430 C   0  0  0  0  0  0  0  0  0  0  0  0
   -7.3760   -1.3980  -21.2470 N   0  0  0  0  0  0  0  0  0  0  0  0
   -8.6110   -0.7950  -21.4880 C   0  0  0  0  0  0  0  0  0  0  0  0
   -9.0720    0.0050  -20.7050 O   0  0  0  0  0  0  0  0  0  0  0  0
   -9.3210   -1.1090  -22.8050 C   0  0  2  0  0  0  0  0  0  0  0  0
   -8.7160   -0.2370  -23.9170 C   0  0  0  0  0  0  0  0  0  0  0  0
   -9.0520    1.1550  -23.6650 N   0  0  0  0  0  0  0  0  0  0  0  0
   -8.0110    2.1630  -23.7140 C   0  0  0  0  0  0  0  0  0  0  0  0
   -7.5030    2.3280  -25.1440 C   0  0  0  0  0  0  0  0  0  0  0  0
   -6.4570    1.8300  -25.5370 O   0  0  0  0  0  0  0  0  0  0  0  0
   -8.3390    3.0180  -25.9580 N   0  0  0  0  0  0  0  0  0  0  0  0
   -7.9750    3.2110  -27.3470 C   0  0  0  0  0  0  0  0  0  0  0  0
   -7.0230    3.7480  -27.4160 H   0  0  0  0  0  0  0  0  0  0  0  0
   -7.8470    2.2510  -27.8600 H   0  0  0  0  0  0  0  0  0  0  0  0
   -8.7550    3.7900  -27.8460 H   0  0  0  0  0  0  0  0  0  0  0  0
   -9.2520    3.2910  -25.6190 H   0  0  0  0  0  0  0  0  0  0  0  0
   -7.1750    1.8730  -23.0670 H   0  0  0  0  0  0  0  0  0  0  0  0
   -8.4520    3.0930  -23.3410 H   0  0  0  0  0  0  0  0  0  0  0  0
  -10.3500    1.5480  -23.5080 C   0  0  0  0  0  0  0  0  0  0  0  0
  -10.7160    2.6980  -23.7440 O   0  0  0  0  0  0  0  0  0  0  0  0
  -11.2760    0.4790  -23.0210 C   0  0  0  0  0  0  0  0  0  0  0  0
  -12.6330    0.7760  -22.8950 C   0  0  0  0  0  0  0  0  0  0  0  0
  -13.5240   -0.2010  -22.4900 C   0  0  0  0  0  0  0  0  0  0  0  0
  -13.0420   -1.4680  -22.1660 C   0  0  0  0  0  0  0  0  0  0  0  0
  -14.1620   -2.6910  -21.6340 Cl  0  0  0  0  0  0  0  0  0  0  0  0
  -11.6880   -1.7610  -22.2510 C   0  0  0  0  0  0  0  0  0  0  0  0
  -10.7920   -0.7900  -22.7000 C   0  0  0  0  0  0  0  0  0  0  0  0
  -11.3270   -2.7450  -21.9610 H   0  0  0  0  0  0  0  0  0  0  0  0
  -14.5850    0.0130  -22.4090 H   0  0  0  0  0  0  0  0  0  0  0  0
  -12.9650    1.7840  -23.1210 H   0  0  0  0  0  0  0  0  0  0  0  0
   -9.1060   -0.5620  -24.8890 H   0  0  0  0  0  0  0  0  0  0  0  0
   -7.6260   -0.3100  -23.9650 H   0  0  0  0  0  0  0  0  0  0  0  0
   -9.1950   -2.1730  -23.0150 H   0  0  0  0  0  0  0  0  0  0  0  0
   -6.6110   -0.8140  -20.1980 C   0  0  0  0  0  0  0  0  0  0  0  0
   -6.9420   -1.0430  -18.8900 C   0  0  0  0  0  0  0  0  0  0  0  0
   -6.2400   -0.5650  -17.8380 N   0  0  0  0  0  0  0  0  0  0  0  0
   -5.1880    0.1790  -18.0850 C   0  0  0  0  0  0  0  0  0  0  0  0
   -4.7380    0.5040  -19.3980 C   0  0  0  0  0  0  0  0  0  0  0  0
   -3.6080    1.3350  -19.6370 C   0  0  0  0  0  0  0  0  0  0  0  0
   -3.2170    1.6370  -20.9130 C   0  0  0  0  0  0  0  0  0  0  0  0
   -3.9420    1.1300  -22.0130 C   0  0  0  0  0  0  0  0  0  0  0  0
   -5.0460    0.3390  -21.8090 C   0  0  0  0  0  0  0  0  0  0  0  0
   -5.4660   -0.0070  -20.4940 C   0  0  0  0  0  0  0  0  0  0  0  0
   -5.5980   -0.0270  -22.6700 H   0  0  0  0  0  0  0  0  0  0  0  0
   -3.6320    1.3630  -23.0280 H   0  0  0  0  0  0  0  0  0  0  0  0
   -2.3650    2.2890  -21.0870 H   0  0  0  0  0  0  0  0  0  0  0  0
   -3.0890    1.7480  -18.7780 H   0  0  0  0  0  0  0  0  0  0  0  0
   -4.6430    0.5670  -17.2220 H   0  0  0  0  0  0  0  0  0  0  0  0
   -7.8250   -1.6340  -18.6520 H   0  0  0  0  0  0  0  0  0  0  0  0
   -6.8860   -2.2680  -23.1170 H   0  0  0  0  0  0  0  0  0  0  0  0
   -5.6650   -2.4390  -21.7540 H   0  0  0  0  0  0  0  0  0  0  0  0
   -5.7650   -4.3360  -20.8190 C   0  0  0  0  0  0  0  0  0  0  0  0
   -4.9070   -3.4320  -20.6780 O   0  0  0  0  0  0  0  0  0  0  0  0
   -5.6620   -5.4830  -20.3680 O   0  5  0  0  0  0  0  0  0  0  0  0
   -8.8090   -4.2920  -22.6560 H   0  0  0  0  0  0  0  0  0  0  0  0
   -8.1670   -5.6470  -21.5850 H   0  0  0  0  0  0  0  0  0  0  0  0
  1  2  2  0  0  0  0
  1 57  1  0  0  0  0
  1 58  1  0  0  0  0
  2  3  1  0  0  0  0
  2 54  1  0  0  0  0
  3  4  1  0  0  0  0
  3 52  1  0  0  0  0
  3 53  1  0  0  0  0
  4  5  1  0  0  0  0
  4 36  1  0  0  0  0
  5  6  2  0  0  0  0
  5  7  1  0  0  0  0
  7  8  1  0  0  0  0
  7 29  1  0  0  0  0
  7 35  1  6  0  0  0
  8  9  1  0  0  0  0
  8 33  1  0  0  0  0
  8 34  1  0  0  0  0
  9 10  1  0  0  0  0
  9 21  1  0  0  0  0
 10 11  1  0  0  0  0
 10 19  1  0  0  0  0
 10 20  1  0  0  0  0
 11 12  2  0  0  0  0
 11 13  1  0  0  0  0
 13 14  1  0  0  0  0
 13 18  1  0  0  0  0
 14 15  1  0  0  0  0
 14 16  1  0  0  0  0
 14 17  1  0  0  0  0
 21 22  2  0  0  0  0
 21 23  1  0  0  0  0
 23 24  2  0  0  0  0
 23 29  1  0  0  0  0
 24 25  1  0  0  0  0
 24 32  1  0  0  0  0
 25 26  2  0  0  0  0
 25 31  1  0  0  0  0
 26 27  1  0  0  0  0
 26 28  1  0  0  0  0
 28 29  2  0  0  0  0
 28 30  1  0  0  0  0
 36 37  2  0  0  0  0
 36 45  1  0  0  0  0
 37 38  1  0  0  0  0
 37 51  1  0  0  0  0
 38 39  2  0  0  0  0
 39 40  1  0  0  0  0
 39 50  1  0  0  0  0
 40 41  2  0  0  0  0
 40 45  1  0  0  0  0
 41 42  1  0  0  0  0
 41 49  1  0  0  0  0
 42 43  2  0  0  0  0
 42 48  1  0  0  0  0
 43 44  1  0  0  0  0
 43 47  1  0  0  0  0
 44 45  2  0  0  0  0
 44 46  1  0  0  0  0
 54 55  2  0  0  0  0
 54 56  1  0  0  0  0
M  CHG  1  56  -1
M  END
>  <MODEL>
       1

$$$$
