tmp_first_model_18_73.pdb
 OpenBabel08282502533D

 50 53  0  0  1  0  0  0  0  0999 V2000
   -5.6020   -3.0340  -21.5740 O   0  0  0  0  0  0  0  0  0  0  0  0
   -6.7570   -2.7540  -21.8610 C   0  0  0  0  0  0  0  0  0  0  0  0
   -7.4140   -1.4790  -21.2690 C   0  0  0  0  0  0  0  0  0  0  0  0
   -6.5810   -0.8310  -20.1830 C   0  0  0  0  0  0  0  0  0  0  0  0
   -6.8730   -1.0450  -18.8610 C   0  0  0  0  0  0  0  0  0  0  0  0
   -6.1890   -0.5440  -17.7970 N   0  0  0  0  0  0  0  0  0  0  0  0
   -5.1600    0.2240  -18.0640 C   0  0  0  0  0  0  0  0  0  0  0  0
   -4.7230    0.5310  -19.3810 C   0  0  0  0  0  0  0  0  0  0  0  0
   -3.5930    1.3580  -19.6210 C   0  0  0  0  0  0  0  0  0  0  0  0
   -3.1900    1.6330  -20.8990 C   0  0  0  0  0  0  0  0  0  0  0  0
   -3.9020    1.0890  -21.9920 C   0  0  0  0  0  0  0  0  0  0  0  0
   -4.9990    0.2880  -21.7860 C   0  0  0  0  0  0  0  0  0  0  0  0
   -5.4450   -0.0130  -20.4740 C   0  0  0  0  0  0  0  0  0  0  0  0
   -5.5220   -0.1350  -22.6370 H   0  0  0  0  0  0  0  0  0  0  0  0
   -3.5760    1.3070  -23.0040 H   0  0  0  0  0  0  0  0  0  0  0  0
   -2.3270    2.2690  -21.0860 H   0  0  0  0  0  0  0  0  0  0  0  0
   -3.0570    1.7730  -18.7690 H   0  0  0  0  0  0  0  0  0  0  0  0
   -4.6040    0.6290  -17.2150 H   0  0  0  0  0  0  0  0  0  0  0  0
   -7.7190   -1.6690  -18.5840 H   0  0  0  0  0  0  0  0  0  0  0  0
   -7.6150   -0.7490  -22.0650 H   0  0  0  0  0  0  0  0  0  0  0  0
   -8.3950   -1.7470  -20.8490 H   0  0  0  0  0  0  0  0  0  0  0  0
   -7.5190   -3.5820  -22.6610 N   0  0  0  0  0  0  0  0  0  0  0  0
   -8.6620   -3.1220  -23.4500 C   0  0  0  0  0  0  0  0  0  0  0  0
   -9.7310   -4.1950  -23.5640 C   0  0  0  0  0  0  0  0  0  0  0  0
   -9.1430   -5.4840  -24.1100 C   0  0  0  0  0  0  0  0  0  0  0  0
   -7.9760   -5.9310  -23.2450 C   0  0  0  0  0  0  0  0  0  0  0  0
   -6.9080   -4.8500  -23.1020 C   0  0  1  0  0  0  0  0  0  0  0  0
   -6.0410   -4.6950  -24.3700 C   0  0  0  0  0  0  0  0  0  0  0  0
   -5.2070   -5.9190  -24.6890 C   0  0  0  0  0  0  0  0  0  0  0  0
   -4.0470   -6.1880  -23.9580 C   0  0  0  0  0  0  0  0  0  0  0  0
   -3.2840   -7.3200  -24.2200 C   0  0  0  0  0  0  0  0  0  0  0  0
   -3.6700   -8.2110  -25.2180 C   0  0  0  0  0  0  0  0  0  0  0  0
   -4.8270   -7.9610  -25.9500 C   0  0  0  0  0  0  0  0  0  0  0  0
   -5.5850   -6.8240  -25.6830 C   0  0  0  0  0  0  0  0  0  0  0  0
   -6.4940   -6.6400  -26.2530 H   0  0  0  0  0  0  0  0  0  0  0  0
   -5.1410   -8.6460  -26.7320 H   0  0  0  0  0  0  0  0  0  0  0  0
   -3.0720   -9.0920  -25.4250 H   0  0  0  0  0  0  0  0  0  0  0  0
   -2.3830   -7.5100  -23.6430 H   0  0  0  0  0  0  0  0  0  0  0  0
   -3.7430   -5.4990  -23.1730 H   0  0  0  0  0  0  0  0  0  0  0  0
   -6.6850   -4.4570  -25.2230 H   0  0  0  0  0  0  0  0  0  0  0  0
   -5.3810   -3.8360  -24.2150 H   0  0  0  0  0  0  0  0  0  0  0  0
   -6.2380   -5.1520  -22.2980 H   0  0  0  0  0  0  0  0  0  0  0  0
   -8.3330   -6.1840  -22.2450 H   0  0  0  0  0  0  0  0  0  0  0  0
   -7.5380   -6.8530  -23.6390 H   0  0  0  0  0  0  0  0  0  0  0  0
   -9.9040   -6.2550  -24.1670 H   0  0  0  0  0  0  0  0  0  0  0  0
   -8.8250   -5.3630  -25.1520 H   0  0  0  0  0  0  0  0  0  0  0  0
  -10.1650   -4.3770  -22.5780 H   0  0  0  0  0  0  0  0  0  0  0  0
  -10.5500   -3.8490  -24.1990 H   0  0  0  0  0  0  0  0  0  0  0  0
   -9.0840   -2.2300  -22.9910 H   0  0  0  0  0  0  0  0  0  0  0  0
   -8.3550   -2.8290  -24.4650 H   0  0  0  0  0  0  0  0  0  0  0  0
  1  2  2  0  0  0  0
  2  3  1  0  0  0  0
  2 22  1  0  0  0  0
  3  4  1  0  0  0  0
  3 20  1  0  0  0  0
  3 21  1  0  0  0  0
  4  5  2  0  0  0  0
  4 13  1  0  0  0  0
  5  6  1  0  0  0  0
  5 19  1  0  0  0  0
  6  7  2  0  0  0  0
  7  8  1  0  0  0  0
  7 18  1  0  0  0  0
  8  9  2  0  0  0  0
  8 13  1  0  0  0  0
  9 10  1  0  0  0  0
  9 17  1  0  0  0  0
 10 11  2  0  0  0  0
 10 16  1  0  0  0  0
 11 12  1  0  0  0  0
 11 15  1  0  0  0  0
 12 13  2  0  0  0  0
 12 14  1  0  0  0  0
 22 23  1  0  0  0  0
 22 27  1  0  0  0  0
 23 24  1  0  0  0  0
 23 49  1  0  0  0  0
 23 50  1  0  0  0  0
 24 25  1  0  0  0  0
 24 47  1  0  0  0  0
 24 48  1  0  0  0  0
 25 26  1  0  0  0  0
 25 45  1  0  0  0  0
 25 46  1  0  0  0  0
 26 27  1  0  0  0  0
 26 43  1  0  0  0  0
 26 44  1  0  0  0  0
 27 28  1  0  0  0  0
 27 42  1  1  0  0  0
 28 29  1  0  0  0  0
 28 40  1  0  0  0  0
 28 41  1  0  0  0  0
 29 30  2  0  0  0  0
 29 34  1  0  0  0  0
 30 31  1  0  0  0  0
 30 39  1  0  0  0  0
 31 32  2  0  0  0  0
 31 38  1  0  0  0  0
 32 33  1  0  0  0  0
 32 37  1  0  0  0  0
 33 34  2  0  0  0  0
 33 36  1  0  0  0  0
 34 35  1  0  0  0  0
M  END
>  <MODEL>
       1

$$$$
