tmp_first_model_1_78.pdb
 OpenBabel08272517043D

 56 60  0  0  1  0  0  0  0  0999 V2000
   -6.2110   -8.9520  -22.5420 C   0  0  0  0  0  0  0  0  0  0  0  0
   -7.1480   -7.8590  -22.3460 N   0  0  0  0  0  0  0  0  0  0  0  0
   -8.2260   -7.7010  -23.1670 C   0  0  0  0  0  0  0  0  0  0  0  0
   -8.5820   -8.5690  -23.9390 O   0  0  0  0  0  0  0  0  0  0  0  0
   -8.9900   -6.3850  -23.0460 C   0  0  0  0  0  0  0  0  0  0  0  0
   -8.3600   -5.2400  -23.6630 N   0  0  0  0  0  0  0  0  0  0  0  0
   -7.4860   -4.4310  -22.8430 C   0  0  0  0  0  0  0  0  0  0  0  0
   -7.6950   -2.9140  -23.0490 C   0  0  2  0  0  0  0  0  0  0  0  0
   -6.6520   -2.2620  -22.1490 C   0  0  0  0  0  0  0  0  0  0  0  0
   -5.4740   -2.5570  -22.0730 O   0  0  0  0  0  0  0  0  0  0  0  0
   -7.2800   -1.3560  -21.3330 N   0  0  0  0  0  0  0  0  0  0  0  0
   -6.5660   -0.7780  -20.2650 C   0  0  0  0  0  0  0  0  0  0  0  0
   -6.9350   -1.0230  -18.9670 C   0  0  0  0  0  0  0  0  0  0  0  0
   -6.2680   -0.5570  -17.8860 N   0  0  0  0  0  0  0  0  0  0  0  0
   -5.2170    0.1990  -18.1100 C   0  0  0  0  0  0  0  0  0  0  0  0
   -4.7360    0.5360  -19.4090 C   0  0  0  0  0  0  0  0  0  0  0  0
   -3.5980    1.3640  -19.6020 C   0  0  0  0  0  0  0  0  0  0  0  0
   -3.1680    1.6780  -20.8630 C   0  0  0  0  0  0  0  0  0  0  0  0
   -3.8490    1.1720  -21.9930 C   0  0  0  0  0  0  0  0  0  0  0  0
   -4.9480    0.3690  -21.8320 C   0  0  0  0  0  0  0  0  0  0  0  0
   -5.4220    0.0310  -20.5300 C   0  0  0  0  0  0  0  0  0  0  0  0
   -5.4520   -0.0190  -22.7100 H   0  0  0  0  0  0  0  0  0  0  0  0
   -3.5000    1.4190  -22.9920 H   0  0  0  0  0  0  0  0  0  0  0  0
   -2.3070    2.3250  -21.0080 H   0  0  0  0  0  0  0  0  0  0  0  0
   -3.0900    1.7530  -18.7240 H   0  0  0  0  0  0  0  0  0  0  0  0
   -4.6890    0.5820  -17.2380 H   0  0  0  0  0  0  0  0  0  0  0  0
   -7.7910   -1.6640  -18.7600 H   0  0  0  0  0  0  0  0  0  0  0  0
   -8.6300   -1.0450  -21.7630 C   0  0  0  0  0  0  0  0  0  0  0  0
   -9.0620   -2.3080  -22.5350 C   0  0  2  0  0  0  0  0  0  0  0  0
   -9.9440   -3.2610  -21.7300 C   0  0  0  0  0  0  0  0  0  0  0  0
   -9.5200   -3.4730  -20.7460 H   0  0  0  0  0  0  0  0  0  0  0  0
  -10.9430   -2.8340  -21.5920 H   0  0  0  0  0  0  0  0  0  0  0  0
  -10.0570   -4.1960  -22.2830 H   0  0  0  0  0  0  0  0  0  0  0  0
   -9.6600   -2.0070  -23.4020 H   0  0  0  0  0  0  0  0  0  0  0  0
   -8.6140   -0.1660  -22.4290 H   0  0  0  0  0  0  0  0  0  0  0  0
   -9.2730   -0.8170  -20.9110 H   0  0  0  0  0  0  0  0  0  0  0  0
   -7.5930   -2.6350  -24.5410 C   0  0  0  0  0  0  0  0  0  0  0  0
   -7.2280   -1.3780  -25.0440 C   0  0  0  0  0  0  0  0  0  0  0  0
   -7.4710   -1.0680  -26.3780 C   0  0  0  0  0  0  0  0  0  0  0  0
   -7.1100    0.5240  -26.9960 Cl  0  0  0  0  0  0  0  0  0  0  0  0
   -8.0770   -1.9830  -27.2360 C   0  0  0  0  0  0  0  0  0  0  0  0
   -8.4260   -3.2250  -26.7390 C   0  0  0  0  0  0  0  0  0  0  0  0
   -8.1790   -3.5640  -25.4120 C   0  0  0  0  0  0  0  0  0  0  0  0
   -8.7180   -4.8850  -24.9380 C   0  0  0  0  0  0  0  0  0  0  0  0
   -9.4460   -5.5830  -25.6300 O   0  0  0  0  0  0  0  0  0  0  0  0
   -8.9390   -3.9550  -27.3550 H   0  0  0  0  0  0  0  0  0  0  0  0
   -8.3030   -1.7010  -28.2610 H   0  0  0  0  0  0  0  0  0  0  0  0
   -6.8170   -0.6140  -24.3880 H   0  0  0  0  0  0  0  0  0  0  0  0
   -6.4340   -4.6490  -23.0600 H   0  0  0  0  0  0  0  0  0  0  0  0
   -7.6420   -4.6570  -21.7830 H   0  0  0  0  0  0  0  0  0  0  0  0
   -9.1150   -6.1470  -21.9830 H   0  0  0  0  0  0  0  0  0  0  0  0
   -9.9520   -6.5500  -23.5280 H   0  0  0  0  0  0  0  0  0  0  0  0
   -6.8500   -7.1280  -21.7170 H   0  0  0  0  0  0  0  0  0  0  0  0
   -5.6540   -8.8590  -23.4850 H   0  0  0  0  0  0  0  0  0  0  0  0
   -5.5010   -8.8860  -21.7170 H   0  0  0  0  0  0  0  0  0  0  0  0
   -6.7080   -9.9310  -22.5180 H   0  0  0  0  0  0  0  0  0  0  0  0
  1  2  1  0  0  0  0
  1 54  1  0  0  0  0
  1 55  1  0  0  0  0
  1 56  1  0  0  0  0
  2  3  1  0  0  0  0
  2 53  1  0  0  0  0
  3  4  2  0  0  0  0
  3  5  1  0  0  0  0
  5  6  1  0  0  0  0
  5 51  1  0  0  0  0
  5 52  1  0  0  0  0
  6  7  1  0  0  0  0
  6 44  1  0  0  0  0
  7  8  1  0  0  0  0
  7 49  1  0  0  0  0
  7 50  1  0  0  0  0
  8  9  1  1  0  0  0
  8 29  1  0  0  0  0
  8 37  1  0  0  0  0
  9 10  2  0  0  0  0
  9 11  1  0  0  0  0
 11 12  1  0  0  0  0
 11 28  1  0  0  0  0
 12 13  2  0  0  0  0
 12 21  1  0  0  0  0
 13 14  1  0  0  0  0
 13 27  1  0  0  0  0
 14 15  2  0  0  0  0
 15 16  1  0  0  0  0
 15 26  1  0  0  0  0
 16 17  2  0  0  0  0
 16 21  1  0  0  0  0
 17 18  1  0  0  0  0
 17 25  1  0  0  0  0
 18 19  2  0  0  0  0
 18 24  1  0  0  0  0
 19 20  1  0  0  0  0
 19 23  1  0  0  0  0
 20 21  2  0  0  0  0
 20 22  1  0  0  0  0
 28 29  1  0  0  0  0
 28 35  1  0  0  0  0
 28 36  1  0  0  0  0
 29 30  1  0  0  0  0
 29 34  1  6  0  0  0
 30 31  1  0  0  0  0
 30 32  1  0  0  0  0
 30 33  1  0  0  0  0
 37 38  2  0  0  0  0
 37 43  1  0  0  0  0
 38 39  1  0  0  0  0
 38 48  1  0  0  0  0
 39 40  1  0  0  0  0
 39 41  2  0  0  0  0
 41 42  1  0  0  0  0
 41 47  1  0  0  0  0
 42 43  2  0  0  0  0
 42 46  1  0  0  0  0
 43 44  1  0  0  0  0
 44 45  2  0  0  0  0
M  END
>  <MODEL>
       1

$$$$
