tmp_first_model_15_64.pdb
 OpenBabel08282501153D

 55 60  0  0  1  0  0  0  0  0999 V2000
  -10.4260   -1.0330  -23.3710 C   0  0  0  0  0  0  0  0  0  0  0  0
   -8.9860   -1.3740  -22.9930 C   0  0  1  0  0  0  0  0  0  0  0  0
   -8.4090   -0.4600  -21.8930 C   0  0  0  0  0  0  0  0  0  0  0  0
   -7.4130   -1.3030  -21.2530 N   0  0  0  0  0  0  0  0  0  0  0  0
   -6.6000   -0.8380  -20.1940 C   0  0  0  0  0  0  0  0  0  0  0  0
   -6.9130   -1.1200  -18.8890 C   0  0  0  0  0  0  0  0  0  0  0  0
   -6.2480   -0.6000  -17.8260 N   0  0  0  0  0  0  0  0  0  0  0  0
   -5.2390    0.2000  -18.0760 C   0  0  0  0  0  0  0  0  0  0  0  0
   -4.7800    0.5340  -19.3830 C   0  0  0  0  0  0  0  0  0  0  0  0
   -3.6490    1.3630  -19.6150 C   0  0  0  0  0  0  0  0  0  0  0  0
   -3.2380    1.6240  -20.8930 C   0  0  0  0  0  0  0  0  0  0  0  0
   -3.9280    1.0730  -21.9990 C   0  0  0  0  0  0  0  0  0  0  0  0
   -5.0270    0.2730  -21.8020 C   0  0  0  0  0  0  0  0  0  0  0  0
   -5.4780   -0.0050  -20.4850 C   0  0  0  0  0  0  0  0  0  0  0  0
   -5.5570   -0.1700  -22.6410 H   0  0  0  0  0  0  0  0  0  0  0  0
   -3.5890    1.2810  -23.0090 H   0  0  0  0  0  0  0  0  0  0  0  0
   -2.3680    2.2510  -21.0720 H   0  0  0  0  0  0  0  0  0  0  0  0
   -3.1250    1.7780  -18.7570 H   0  0  0  0  0  0  0  0  0  0  0  0
   -4.7190    0.6230  -17.2150 H   0  0  0  0  0  0  0  0  0  0  0  0
   -7.7390   -1.7890  -18.6530 H   0  0  0  0  0  0  0  0  0  0  0  0
   -7.5740   -2.6480  -21.5080 C   0  0  0  0  0  0  0  0  0  0  0  0
   -6.8630   -3.5180  -21.0460 O   0  0  0  0  0  0  0  0  0  0  0  0
   -8.7690   -2.8350  -22.4530 C   0  0  1  0  0  0  0  0  0  0  0  0
   -9.9660   -3.2970  -21.5780 C   0  0  0  0  0  0  0  0  0  0  0  0
  -11.0930   -3.7990  -22.3540 N   0  0  0  0  0  0  0  0  0  0  0  0
  -12.4530   -3.7790  -21.8260 C   0  0  0  0  0  0  0  0  0  0  0  0
  -13.2790   -2.6320  -22.3340 C   0  0  0  0  0  0  0  0  0  0  0  0
  -13.7380   -2.6260  -23.6180 N   0  0  0  0  0  0  0  0  0  0  0  0
  -14.5240   -1.5720  -23.6520 C   0  0  0  0  0  0  0  0  0  0  0  0
  -14.5090   -0.9570  -22.4620 N   0  0  0  0  0  0  0  0  0  0  0  0
  -13.7200   -1.6330  -21.5940 N   0  0  0  0  0  0  0  0  0  0  0  0
  -15.0230   -0.1460  -22.1470 H   0  0  0  0  0  0  0  0  0  0  0  0
  -15.1680   -1.2540  -24.4650 H   0  0  0  0  0  0  0  0  0  0  0  0
  -12.4590   -3.8060  -20.7360 H   0  0  0  0  0  0  0  0  0  0  0  0
  -12.9250   -4.6880  -22.2100 H   0  0  0  0  0  0  0  0  0  0  0  0
  -10.9130   -4.5280  -23.5020 C   0  0  0  0  0  0  0  0  0  0  0  0
  -11.8520   -5.0360  -24.0960 O   0  0  0  0  0  0  0  0  0  0  0  0
   -9.5140   -4.6830  -24.0010 C   0  0  0  0  0  0  0  0  0  0  0  0
   -9.2840   -5.6440  -24.9900 C   0  0  0  0  0  0  0  0  0  0  0  0
   -8.0030   -5.8670  -25.4620 C   0  0  0  0  0  0  0  0  0  0  0  0
   -6.9710   -5.0780  -24.9650 C   0  0  0  0  0  0  0  0  0  0  0  0
   -5.7220   -5.2640  -25.4310 F   0  0  0  0  0  0  0  0  0  0  0  0
   -7.1820   -4.0910  -24.0240 C   0  0  0  0  0  0  0  0  0  0  0  0
   -8.4740   -3.8860  -23.5100 C   0  0  0  0  0  0  0  0  0  0  0  0
   -6.3220   -3.5400  -23.6590 H   0  0  0  0  0  0  0  0  0  0  0  0
   -7.7810   -6.6460  -26.1830 H   0  0  0  0  0  0  0  0  0  0  0  0
  -10.1260   -6.2180  -25.3760 H   0  0  0  0  0  0  0  0  0  0  0  0
   -9.5980   -4.0700  -20.9010 H   0  0  0  0  0  0  0  0  0  0  0  0
  -10.2690   -2.4510  -20.9480 H   0  0  0  0  0  0  0  0  0  0  0  0
   -7.9580    0.4570  -22.2880 H   0  0  0  0  0  0  0  0  0  0  0  0
   -9.1850   -0.1300  -21.1810 H   0  0  0  0  0  0  0  0  0  0  0  0
   -8.3520   -1.2700  -23.8830 H   0  0  0  0  0  0  0  0  0  0  0  0
  -11.0700   -0.9990  -22.4890 H   0  0  0  0  0  0  0  0  0  0  0  0
  -10.5090   -0.0560  -23.8550 H   0  0  0  0  0  0  0  0  0  0  0  0
  -10.8370   -1.7890  -24.0480 H   0  0  0  0  0  0  0  0  0  0  0  0
  1  2  1  0  0  0  0
  1 53  1  0  0  0  0
  1 54  1  0  0  0  0
  1 55  1  0  0  0  0
  2  3  1  0  0  0  0
  2 23  1  0  0  0  0
  2 52  1  6  0  0  0
  3  4  1  0  0  0  0
  3 50  1  0  0  0  0
  3 51  1  0  0  0  0
  4  5  1  0  0  0  0
  4 21  1  0  0  0  0
  5  6  2  0  0  0  0
  5 14  1  0  0  0  0
  6  7  1  0  0  0  0
  6 20  1  0  0  0  0
  7  8  2  0  0  0  0
  8  9  1  0  0  0  0
  8 19  1  0  0  0  0
  9 10  2  0  0  0  0
  9 14  1  0  0  0  0
 10 11  1  0  0  0  0
 10 18  1  0  0  0  0
 11 12  2  0  0  0  0
 11 17  1  0  0  0  0
 12 13  1  0  0  0  0
 12 16  1  0  0  0  0
 13 14  2  0  0  0  0
 13 15  1  0  0  0  0
 21 22  2  0  0  0  0
 23 21  1  1  0  0  0
 23 24  1  0  0  0  0
 23 44  1  0  0  0  0
 24 25  1  0  0  0  0
 24 48  1  0  0  0  0
 24 49  1  0  0  0  0
 25 26  1  0  0  0  0
 25 36  1  0  0  0  0
 26 27  1  0  0  0  0
 26 34  1  0  0  0  0
 26 35  1  0  0  0  0
 27 28  1  0  0  0  0
 27 31  2  0  0  0  0
 28 29  2  0  0  0  0
 29 30  1  0  0  0  0
 29 33  1  0  0  0  0
 30 31  1  0  0  0  0
 30 32  1  0  0  0  0
 36 37  2  0  0  0  0
 36 38  1  0  0  0  0
 38 39  2  0  0  0  0
 38 44  1  0  0  0  0
 39 40  1  0  0  0  0
 39 47  1  0  0  0  0
 40 41  2  0  0  0  0
 40 46  1  0  0  0  0
 41 42  1  0  0  0  0
 41 43  1  0  0  0  0
 43 44  2  0  0  0  0
 43 45  1  0  0  0  0
M  END
>  <MODEL>
       1

$$$$
