
     RDKit          3D

 66 71  0  0  0  0  0  0  0  0999 V2000
   -7.4419    3.3639  -21.8196 C   0  0  0  0  0  0  0  0  0  0  0  0
   -8.3372    2.8711  -22.8549 N   0  0  0  0  0  0  0  0  0  0  0  0
   -7.7810    2.1660  -23.8819 C   0  0  0  0  0  0  0  0  0  0  0  0
   -6.5741    2.0337  -24.0196 O   0  0  0  0  0  0  0  0  0  0  0  0
   -8.7680    1.5548  -24.8771 C   0  0  0  0  0  0  0  0  0  0  0  0
   -9.4411    0.4037  -24.3158 N   0  0  0  0  0  0  0  0  0  0  0  0
   -8.6989   -0.8359  -24.1672 C   0  0  0  0  0  0  0  0  0  0  0  0
   -9.0738   -1.5704  -22.8560 C   0  0  2  0  0  0  0  0  0  0  0  0
   -8.5531   -0.7746  -21.6369 C   0  0  0  0  0  0  0  0  0  0  0  0
   -9.0510    0.2105  -21.1351 O   0  0  0  0  0  0  0  0  0  0  0  0
   -7.3980   -1.3766  -21.2014 N   0  0  0  0  0  0  0  0  0  0  0  0
   -6.6065   -0.8070  -20.1807 C   0  0  0  0  0  0  0  0  0  0  0  0
   -6.9220   -1.0457  -18.8698 C   0  0  0  0  0  0  0  0  0  0  0  0
   -6.2209   -0.5646  -17.8168 N   0  0  0  0  0  0  0  0  0  0  0  0
   -5.1829    0.1936  -18.0808 C   0  0  0  0  0  0  0  0  0  0  0  0
   -4.7415    0.5162  -19.3968 C   0  0  0  0  0  0  0  0  0  0  0  0
   -3.6118    1.3419  -19.6409 C   0  0  0  0  0  0  0  0  0  0  0  0
   -3.2322    1.6457  -20.9184 C   0  0  0  0  0  0  0  0  0  0  0  0
   -3.9602    1.1430  -22.0198 C   0  0  0  0  0  0  0  0  0  0  0  0
   -5.0568    0.3401  -21.8134 C   0  0  0  0  0  0  0  0  0  0  0  0
   -5.4725    0.0019  -20.4952 C   0  0  0  0  0  0  0  0  0  0  0  0
   -5.6225   -0.0172  -22.6700 H   0  0  0  0  0  0  0  0  0  0  0  0
   -3.6615    1.3965  -23.0321 H   0  0  0  0  0  0  0  0  0  0  0  0
   -2.3733    2.2855  -21.0929 H   0  0  0  0  0  0  0  0  0  0  0  0
   -3.0762    1.7417  -18.7832 H   0  0  0  0  0  0  0  0  0  0  0  0
   -4.6236    0.5923  -17.2328 H   0  0  0  0  0  0  0  0  0  0  0  0
   -7.7877   -1.6611  -18.6360 H   0  0  0  0  0  0  0  0  0  0  0  0
   -7.0233   -2.5645  -21.9294 C   0  0  0  0  0  0  0  0  0  0  0  0
   -8.3062   -2.9187  -22.7023 C   0  0  2  0  0  0  0  0  0  0  0  0
   -8.0235   -3.7230  -23.9871 C   0  0  0  0  0  0  0  0  0  0  0  0
   -7.4993   -5.0511  -23.7539 N   0  0  0  0  0  0  0  0  0  0  0  0
   -6.2006   -5.3687  -23.5201 C   0  0  0  0  0  0  0  0  0  0  0  0
   -5.1042   -4.5928  -23.9348 C   0  0  0  0  0  0  0  0  0  0  0  0
   -3.8544   -5.0617  -23.5832 C   0  0  0  0  0  0  0  0  0  0  0  0
   -3.6458   -6.1817  -22.8803 N   0  0  0  0  0  0  0  0  0  0  0  0
   -4.7531   -6.8503  -22.5761 C   0  0  0  0  0  0  0  0  0  0  0  0
   -6.0044   -6.5296  -22.8713 N   0  0  0  0  0  0  0  0  0  0  0  0
   -4.6339   -7.7765  -22.0082 H   0  0  0  0  0  0  0  0  0  0  0  0
   -2.9576   -4.5133  -23.8682 H   0  0  0  0  0  0  0  0  0  0  0  0
   -5.2244   -3.6782  -24.5055 H   0  0  0  0  0  0  0  0  0  0  0  0
   -8.1313   -5.7770  -23.4543 H   0  0  0  0  0  0  0  0  0  0  0  0
   -7.3029   -3.1800  -24.6049 H   0  0  0  0  0  0  0  0  0  0  0  0
   -8.9343   -3.8269  -24.5880 H   0  0  0  0  0  0  0  0  0  0  0  0
   -8.9109   -3.5546  -22.0521 H   0  0  0  0  0  0  0  0  0  0  0  0
   -6.1765   -2.3656  -22.6073 H   0  0  0  0  0  0  0  0  0  0  0  0
   -6.7146   -3.3495  -21.2331 H   0  0  0  0  0  0  0  0  0  0  0  0
  -10.5836   -1.6509  -22.7846 C   0  0  0  0  0  0  0  0  0  0  0  0
  -11.2079   -2.5800  -21.9511 C   0  0  0  0  0  0  0  0  0  0  0  0
  -12.5862   -2.6103  -21.8609 C   0  0  0  0  0  0  0  0  0  0  0  0
  -13.3230   -3.7576  -20.7835 Cl  0  0  0  0  0  0  0  0  0  0  0  0
  -13.3948   -1.7326  -22.5839 C   0  0  0  0  0  0  0  0  0  0  0  0
  -12.7817   -0.7737  -23.3620 C   0  0  0  0  0  0  0  0  0  0  0  0
  -11.3933   -0.7074  -23.4302 C   0  0  0  0  0  0  0  0  0  0  0  0
  -10.7943    0.4552  -24.1480 C   0  0  0  0  0  0  0  0  0  0  0  0
  -11.4695    1.4035  -24.5279 O   0  0  0  0  0  0  0  0  0  0  0  0
  -13.3514   -0.0379  -23.9180 H   0  0  0  0  0  0  0  0  0  0  0  0
  -14.4747   -1.7933  -22.5051 H   0  0  0  0  0  0  0  0  0  0  0  0
  -10.6334   -3.2743  -21.3482 H   0  0  0  0  0  0  0  0  0  0  0  0
   -7.6277   -0.6018  -24.1908 H   0  0  0  0  0  0  0  0  0  0  0  0
   -8.9228   -1.5001  -25.0123 H   0  0  0  0  0  0  0  0  0  0  0  0
   -9.5481    2.2752  -25.1456 H   0  0  0  0  0  0  0  0  0  0  0  0
   -8.2017    1.2710  -25.7700 H   0  0  0  0  0  0  0  0  0  0  0  0
   -9.2971    2.6712  -22.5849 H   0  0  0  0  0  0  0  0  0  0  0  0
   -6.9610    2.5311  -21.2755 H   0  0  0  0  0  0  0  0  0  0  0  0
   -7.9853    4.0166  -21.1310 H   0  0  0  0  0  0  0  0  0  0  0  0
   -6.6533    3.9569  -22.2916 H   0  0  0  0  0  0  0  0  0  0  0  0
  1  2  1  0
  2  3  1  0
  3  4  2  0
  3  5  1  0
  5  6  1  0
  6  7  1  0
  8  7  1  6
  8  9  1  0
  9 10  2  0
  9 11  1  0
 11 12  1  0
 12 13  2  0
 13 14  1  0
 14 15  2  0
 15 16  1  0
 16 17  2  0
 17 18  1  0
 18 19  2  0
 19 20  1  0
 20 21  2  0
 20 22  1  0
 19 23  1  0
 18 24  1  0
 17 25  1  0
 15 26  1  0
 13 27  1  0
 11 28  1  0
 28 29  1  0
 29 30  1  0
 30 31  1  0
 31 32  1  0
 32 33  2  0
 33 34  1  0
 34 35  2  0
 35 36  1  0
 36 37  2  0
 36 38  1  0
 34 39  1  0
 33 40  1  0
 31 41  1  0
 30 42  1  0
 30 43  1  0
 29 44  1  1
 28 45  1  0
 28 46  1  0
  8 47  1  0
 47 48  2  0
 48 49  1  0
 49 50  1  0
 49 51  2  0
 51 52  1  0
 52 53  2  0
 53 54  1  0
 54 55  2  0
 52 56  1  0
 51 57  1  0
 48 58  1  0
  7 59  1  0
  7 60  1  0
  5 61  1  0
  5 62  1  0
  2 63  1  0
  1 64  1  0
  1 65  1  0
  1 66  1  0
 54  6  1  0
 29  8  1  0
 37 32  1  0
 53 47  1  0
 21 12  1  0
 21 16  1  0
M  END
>  <cnnaffinities>  (1) 
[6.83275, 6.81016, 5.80809]

>  <score>  (1) 
6.83275

>  <index>  (1) 
0

>  <Smiles>  (1) 
C(N(C(=O)C(N1C([C@@]2(C(=O)N(c3c(nc(c4c(c(c(c(c34)[H])[H])[H])[H])[H])[H])C([C@@]2(C(N(c2c(c(nc(n2)[H])[H])[H])[H])([H])[H])[H])([H])[H])c2c(c(Cl)c(c(c2C1=O)[H])[H])[H])([H])[H])([H])[H])[H])([H])([H])[H]

>  <h>  (1) 
<NA>

>  <Training>  (1) 
True

>  <Success>  (1) 
True

>  <enamine_searched>  (1) 
False

>  <enamine_id>  (1) 
nan

$$$$

     RDKit          3D

 68 73  0  0  0  0  0  0  0  0999 V2000
   -7.4015    3.4292  -21.8652 C   0  0  0  0  0  0  0  0  0  0  0  0
   -8.3709    2.9306  -22.8204 N   0  0  0  0  0  0  0  0  0  0  0  0
   -7.9026    2.2226  -23.8862 C   0  0  0  0  0  0  0  0  0  0  0  0
   -6.7083    2.0467  -24.0852 O   0  0  0  0  0  0  0  0  0  0  0  0
   -8.9738    1.6616  -24.8223 C   0  0  0  0  0  0  0  0  0  0  0  0
   -9.5822    0.4796  -24.2348 N   0  0  0  0  0  0  0  0  0  0  0  0
   -8.7722   -0.7231  -24.1019 C   0  0  0  0  0  0  0  0  0  0  0  0
   -9.1027   -1.5198  -22.8083 C   0  0  2  0  0  0  0  0  0  0  0  0
   -8.5916   -0.7312  -21.5837 C   0  0  0  0  0  0  0  0  0  0  0  0
   -9.0997    0.2440  -21.0712 O   0  0  0  0  0  0  0  0  0  0  0  0
   -7.4246   -1.3106  -21.1519 N   0  0  0  0  0  0  0  0  0  0  0  0
   -6.6336   -0.7457  -20.1396 C   0  0  0  0  0  0  0  0  0  0  0  0
   -6.9305   -1.0093  -18.8310 C   0  0  0  0  0  0  0  0  0  0  0  0
   -6.2050   -0.5534  -17.7862 N   0  0  0  0  0  0  0  0  0  0  0  0
   -5.1644    0.1990  -18.0593 C   0  0  0  0  0  0  0  0  0  0  0  0
   -4.7385    0.5303  -19.3799 C   0  0  0  0  0  0  0  0  0  0  0  0
   -3.6025    1.3442  -19.6336 C   0  0  0  0  0  0  0  0  0  0  0  0
   -3.2356    1.6501  -20.9162 C   0  0  0  0  0  0  0  0  0  0  0  0
   -3.9851    1.1605  -22.0113 C   0  0  0  0  0  0  0  0  0  0  0  0
   -5.0908    0.3738  -21.7942 C   0  0  0  0  0  0  0  0  0  0  0  0
   -5.4932    0.0416  -20.4689 C   0  0  0  0  0  0  0  0  0  0  0  0
   -5.6728    0.0218  -22.6417 H   0  0  0  0  0  0  0  0  0  0  0  0
   -3.6957    1.4186  -23.0265 H   0  0  0  0  0  0  0  0  0  0  0  0
   -2.3735    2.2852  -21.1001 H   0  0  0  0  0  0  0  0  0  0  0  0
   -3.0537    1.7340  -18.7798 H   0  0  0  0  0  0  0  0  0  0  0  0
   -4.5953    0.5842  -17.2128 H   0  0  0  0  0  0  0  0  0  0  0  0
   -7.7911   -1.6313  -18.5952 H   0  0  0  0  0  0  0  0  0  0  0  0
   -7.0024   -2.4627  -21.8945 C   0  0  0  0  0  0  0  0  0  0  0  0
   -8.2588   -2.8308  -22.6782 C   0  0  2  0  0  0  0  0  0  0  0  0
   -7.8771   -3.5553  -23.9496 C   0  0  0  0  0  0  0  0  0  0  0  0
   -9.0325   -4.2058  -24.5188 N   0  0  0  0  0  0  0  0  0  0  0  0
   -8.8587   -4.7030  -25.8155 C   0  0  0  0  0  0  0  0  0  0  0  0
   -7.7072   -4.7315  -26.6386 C   0  0  0  0  0  0  0  0  0  0  0  0
   -7.9600   -5.3104  -27.8047 N   0  0  0  0  0  0  0  0  0  0  0  0
   -9.2407   -5.6690  -27.7425 N   0  0  0  0  0  0  0  0  0  0  0  0
   -9.9477   -6.0422  -28.9311 C   0  0  0  0  0  0  0  0  0  0  0  0
  -10.6924   -5.2750  -29.1412 H   0  0  0  0  0  0  0  0  0  0  0  0
  -10.4456   -7.0017  -28.8078 H   0  0  0  0  0  0  0  0  0  0  0  0
   -9.2295   -6.0908  -29.7456 H   0  0  0  0  0  0  0  0  0  0  0  0
   -9.8250   -5.3206  -26.5700 C   0  0  0  0  0  0  0  0  0  0  0  0
  -10.8533   -5.5483  -26.3466 H   0  0  0  0  0  0  0  0  0  0  0  0
   -6.7264   -4.3129  -26.4431 H   0  0  0  0  0  0  0  0  0  0  0  0
   -9.8451   -3.5957  -24.4924 H   0  0  0  0  0  0  0  0  0  0  0  0
   -7.4283   -2.8496  -24.6665 H   0  0  0  0  0  0  0  0  0  0  0  0
   -7.1027   -4.3010  -23.7352 H   0  0  0  0  0  0  0  0  0  0  0  0
   -8.8315   -3.5328  -22.0675 H   0  0  0  0  0  0  0  0  0  0  0  0
   -6.1525   -2.2366  -22.5578 H   0  0  0  0  0  0  0  0  0  0  0  0
   -6.6820   -3.2701  -21.2276 H   0  0  0  0  0  0  0  0  0  0  0  0
  -10.6116   -1.6858  -22.7254 C   0  0  0  0  0  0  0  0  0  0  0  0
  -11.1895   -2.6776  -21.9225 C   0  0  0  0  0  0  0  0  0  0  0  0
  -12.5654   -2.7709  -21.8073 C   0  0  0  0  0  0  0  0  0  0  0  0
  -13.2482   -3.9875  -20.7665 Cl  0  0  0  0  0  0  0  0  0  0  0  0
  -13.4120   -1.8934  -22.4822 C   0  0  0  0  0  0  0  0  0  0  0  0
  -12.8514   -0.8795  -23.2313 C   0  0  0  0  0  0  0  0  0  0  0  0
  -11.4673   -0.7511  -23.3301 C   0  0  0  0  0  0  0  0  0  0  0  0
  -10.9338    0.4589  -24.0361 C   0  0  0  0  0  0  0  0  0  0  0  0
  -11.6642    1.3799  -24.3871 O   0  0  0  0  0  0  0  0  0  0  0  0
  -13.4687   -0.1466  -23.7382 H   0  0  0  0  0  0  0  0  0  0  0  0
  -14.4866   -1.9960  -22.3994 H   0  0  0  0  0  0  0  0  0  0  0  0
  -10.5856   -3.3685  -21.3460 H   0  0  0  0  0  0  0  0  0  0  0  0
   -7.7200   -0.4202  -24.0916 H   0  0  0  0  0  0  0  0  0  0  0  0
   -8.9358   -1.3613  -24.9825 H   0  0  0  0  0  0  0  0  0  0  0  0
   -9.7811    2.3809  -24.9996 H   0  0  0  0  0  0  0  0  0  0  0  0
   -8.5031    1.4308  -25.7861 H   0  0  0  0  0  0  0  0  0  0  0  0
   -9.2981    2.7335  -22.4663 H   0  0  0  0  0  0  0  0  0  0  0  0
   -6.5557    3.8448  -22.4120 H   0  0  0  0  0  0  0  0  0  0  0  0
   -7.8576    4.2193  -21.2666 H   0  0  0  0  0  0  0  0  0  0  0  0
   -7.0109    2.6220  -21.2300 H   0  0  0  0  0  0  0  0  0  0  0  0
  1  2  1  0
  2  3  1  0
  3  4  2  0
  3  5  1  0
  5  6  1  0
  6  7  1  0
  8  7  1  6
  8  9  1  0
  9 10  2  0
  9 11  1  0
 11 12  1  0
 12 13  2  0
 13 14  1  0
 14 15  2  0
 15 16  1  0
 16 17  2  0
 17 18  1  0
 18 19  2  0
 19 20  1  0
 20 21  2  0
 20 22  1  0
 19 23  1  0
 18 24  1  0
 17 25  1  0
 15 26  1  0
 13 27  1  0
 11 28  1  0
 28 29  1  0
 29 30  1  0
 30 31  1  0
 31 32  1  0
 32 33  1  0
 33 34  2  0
 34 35  1  0
 35 36  1  0
 36 37  1  0
 36 38  1  0
 36 39  1  0
 35 40  1  0
 40 41  1  0
 33 42  1  0
 31 43  1  0
 30 44  1  0
 30 45  1  0
 29 46  1  1
 28 47  1  0
 28 48  1  0
  8 49  1  0
 49 50  2  0
 50 51  1  0
 51 52  1  0
 51 53  2  0
 53 54  1  0
 54 55  2  0
 55 56  1  0
 56 57  2  0
 54 58  1  0
 53 59  1  0
 50 60  1  0
  7 61  1  0
  7 62  1  0
  5 63  1  0
  5 64  1  0
  2 65  1  0
  1 66  1  0
  1 67  1  0
  1 68  1  0
 56  6  1  0
 29  8  1  0
 40 32  2  0
 55 49  1  0
 21 12  1  0
 21 16  1  0
M  END
>  <cnnaffinities>  (2) 
[6.01206, 6.71506]

>  <score>  (2) 
6.01206

>  <index>  (2) 
1

>  <Smiles>  (2) 
C(N(C(=O)C(N1C([C@@]2(C(=O)N(c3c(nc(c4c(c(c(c(c34)[H])[H])[H])[H])[H])[H])C([C@@]2(C(N(c2c(nn(C([H])([H])[H])c2[H])[H])[H])([H])[H])[H])([H])[H])c2c(c(Cl)c(c(c2C1=O)[H])[H])[H])([H])[H])([H])[H])[H])([H])([H])[H]

>  <h>  (2) 
<NA>

>  <Training>  (2) 
True

>  <Success>  (2) 
True

>  <enamine_searched>  (2) 
False

>  <enamine_id>  (2) 
nan

$$$$

     RDKit          3D

 60 65  0  0  0  0  0  0  0  0999 V2000
   -6.3290    1.0717  -30.6319 C   0  0  0  0  0  0  0  0  0  0  0  0
   -6.7056    1.2282  -29.1821 C   0  0  0  0  0  0  0  0  0  0  0  0
   -6.0627    0.4833  -28.1882 C   0  0  0  0  0  0  0  0  0  0  0  0
   -6.3555    0.5884  -26.8936 N   0  0  0  0  0  0  0  0  0  0  0  0
   -7.3256    1.4518  -26.5729 C   0  0  0  0  0  0  0  0  0  0  0  0
   -7.7395    1.5603  -25.1206 C   0  0  0  0  0  0  0  0  0  0  0  0
   -8.7080    0.5425  -24.6930 N   0  0  0  0  0  0  0  0  0  0  0  0
   -8.2508   -0.8122  -24.4229 C   0  0  0  0  0  0  0  0  0  0  0  0
   -8.8815   -1.3623  -23.1121 C   0  0  2  0  0  0  0  0  0  0  0  0
   -8.3070   -0.5536  -21.9259 C   0  0  0  0  0  0  0  0  0  0  0  0
   -8.5484    0.6033  -21.6679 O   0  0  0  0  0  0  0  0  0  0  0  0
   -7.4400   -1.3473  -21.2034 N   0  0  0  0  0  0  0  0  0  0  0  0
   -6.6065   -0.7996  -20.1803 C   0  0  0  0  0  0  0  0  0  0  0  0
   -6.8878   -1.0476  -18.8623 C   0  0  0  0  0  0  0  0  0  0  0  0
   -6.1848   -0.5537  -17.8114 N   0  0  0  0  0  0  0  0  0  0  0  0
   -5.1572    0.2200  -18.0671 C   0  0  0  0  0  0  0  0  0  0  0  0
   -4.7215    0.5315  -19.3872 C   0  0  0  0  0  0  0  0  0  0  0  0
   -3.5920    1.3610  -19.6330 C   0  0  0  0  0  0  0  0  0  0  0  0
   -3.2076    1.6437  -20.9150 C   0  0  0  0  0  0  0  0  0  0  0  0
   -3.9228    1.1055  -22.0072 C   0  0  0  0  0  0  0  0  0  0  0  0
   -5.0128    0.3005  -21.7948 C   0  0  0  0  0  0  0  0  0  0  0  0
   -5.4532    0.0021  -20.4763 C   0  0  0  0  0  0  0  0  0  0  0  0
   -5.5615   -0.1128  -22.6356 H   0  0  0  0  0  0  0  0  0  0  0  0
   -3.6100    1.3353  -23.0208 H   0  0  0  0  0  0  0  0  0  0  0  0
   -2.3512    2.2847  -21.1062 H   0  0  0  0  0  0  0  0  0  0  0  0
   -3.0513    1.7795  -18.7867 H   0  0  0  0  0  0  0  0  0  0  0  0
   -4.6016    0.6275  -17.2172 H   0  0  0  0  0  0  0  0  0  0  0  0
   -7.7423   -1.6676  -18.5968 H   0  0  0  0  0  0  0  0  0  0  0  0
   -7.2323   -2.6553  -21.7951 C   0  0  0  0  0  0  0  0  0  0  0  0
   -8.4007   -2.8140  -22.7901 C   0  0  2  0  0  0  0  0  0  0  0  0
   -8.0328   -3.6977  -23.9836 C   0  0  0  0  0  0  0  0  0  0  0  0
   -7.1579   -3.3174  -24.5227 H   0  0  0  0  0  0  0  0  0  0  0  0
   -8.8585   -3.7712  -24.6985 H   0  0  0  0  0  0  0  0  0  0  0  0
   -7.7927   -4.7128  -23.6505 H   0  0  0  0  0  0  0  0  0  0  0  0
   -9.2113   -3.3237  -22.2621 H   0  0  0  0  0  0  0  0  0  0  0  0
   -6.2611   -2.7249  -22.3086 H   0  0  0  0  0  0  0  0  0  0  0  0
   -7.2446   -3.4324  -21.0284 H   0  0  0  0  0  0  0  0  0  0  0  0
  -10.3936   -1.1393  -23.1711 C   0  0  0  0  0  0  0  0  0  0  0  0
  -11.2532   -1.7965  -22.2765 C   0  0  0  0  0  0  0  0  0  0  0  0
  -12.6186   -1.5800  -22.3388 C   0  0  0  0  0  0  0  0  0  0  0  0
  -13.4240   -2.2462  -21.4944 F   0  0  0  0  0  0  0  0  0  0  0  0
  -13.1933   -0.6901  -23.2355 C   0  0  0  0  0  0  0  0  0  0  0  0
  -12.3397    0.0273  -24.0506 C   0  0  0  0  0  0  0  0  0  0  0  0
  -10.9498   -0.1584  -24.0125 C   0  0  0  0  0  0  0  0  0  0  0  0
  -10.0588    0.7857  -24.7955 C   0  0  0  0  0  0  0  0  0  0  0  0
  -10.5121    1.7252  -25.4359 O   0  0  0  0  0  0  0  0  0  0  0  0
  -12.7740    0.7733  -24.6990 H   0  0  0  0  0  0  0  0  0  0  0  0
  -14.2732   -0.5488  -23.2527 H   0  0  0  0  0  0  0  0  0  0  0  0
  -10.8836   -2.4530  -21.4953 H   0  0  0  0  0  0  0  0  0  0  0  0
   -7.1604   -0.8071  -24.3467 H   0  0  0  0  0  0  0  0  0  0  0  0
   -8.4986   -1.4666  -25.2723 H   0  0  0  0  0  0  0  0  0  0  0  0
   -6.8468    1.4668  -24.4906 H   0  0  0  0  0  0  0  0  0  0  0  0
   -8.1658    2.5445  -24.9062 H   0  0  0  0  0  0  0  0  0  0  0  0
   -7.9582    2.2000  -27.5607 C   0  0  0  0  0  0  0  0  0  0  0  0
   -7.6670    2.0928  -28.8603 N   0  0  0  0  0  0  0  0  0  0  0  0
   -8.7470    2.8972  -27.2888 H   0  0  0  0  0  0  0  0  0  0  0  0
   -5.2859   -0.2264  -28.4629 H   0  0  0  0  0  0  0  0  0  0  0  0
   -6.4940    0.0469  -30.9801 H   0  0  0  0  0  0  0  0  0  0  0  0
   -6.9152    1.7437  -31.2599 H   0  0  0  0  0  0  0  0  0  0  0  0
   -5.2679    1.2846  -30.7984 H   0  0  0  0  0  0  0  0  0  0  0  0
  1  2  1  0
  2  3  2  0
  3  4  1  0
  4  5  2  0
  5  6  1  0
  6  7  1  0
  7  8  1  0
  9  8  1  6
  9 10  1  0
 10 11  2  0
 10 12  1  0
 12 13  1  0
 13 14  2  0
 14 15  1  0
 15 16  2  0
 16 17  1  0
 17 18  2  0
 18 19  1  0
 19 20  2  0
 20 21  1  0
 21 22  2  0
 21 23  1  0
 20 24  1  0
 19 25  1  0
 18 26  1  0
 16 27  1  0
 14 28  1  0
 12 29  1  0
 29 30  1  0
 30 31  1  0
 31 32  1  0
 31 33  1  0
 31 34  1  0
 30 35  1  1
 29 36  1  0
 29 37  1  0
  9 38  1  0
 38 39  2  0
 39 40  1  0
 40 41  1  0
 40 42  2  0
 42 43  1  0
 43 44  2  0
 44 45  1  0
 45 46  2  0
 43 47  1  0
 42 48  1  0
 39 49  1  0
  8 50  1  0
  8 51  1  0
  6 52  1  0
  6 53  1  0
  5 54  1  0
 54 55  2  0
 54 56  1  0
  3 57  1  0
  1 58  1  0
  1 59  1  0
  1 60  1  0
 55  2  1  0
 45  7  1  0
 30  9  1  0
 44 38  1  0
 22 13  1  0
 22 17  1  0
M  END
>  <cnnaffinities>  (3) 
[6.02335]

>  <score>  (3) 
6.02335

>  <index>  (3) 
2

>  <Smiles>  (3) 
C(c1c(nc(C(N2C([C@@]3(C(=O)N(c4c(nc(c5c(c(c(c(c45)[H])[H])[H])[H])[H])[H])C([C@@]3(C([H])([H])[H])[H])([H])[H])c3c(c(F)c(c(c3C2=O)[H])[H])[H])([H])[H])([H])[H])c(n1)[H])[H])([H])([H])[H]

>  <h>  (3) 
<NA>

>  <Training>  (3) 
True

>  <Success>  (3) 
True

>  <enamine_searched>  (3) 
False

>  <enamine_id>  (3) 
nan

$$$$

     RDKit          3D

 66 70  0  0  0  0  0  0  0  0999 V2000
   -7.5209    3.2612  -21.8151 C   0  0  0  0  0  0  0  0  0  0  0  0
   -8.5139    2.7776  -22.7642 N   0  0  0  0  0  0  0  0  0  0  0  0
   -8.0393    2.0584  -23.8264 C   0  0  0  0  0  0  0  0  0  0  0  0
   -6.8459    1.9107  -24.0316 O   0  0  0  0  0  0  0  0  0  0  0  0
   -9.0738    1.4540  -24.7658 C   0  0  0  0  0  0  0  0  0  0  0  0
   -9.6510    0.2506  -24.2186 N   0  0  0  0  0  0  0  0  0  0  0  0
   -8.8182   -0.9297  -24.1038 C   0  0  0  0  0  0  0  0  0  0  0  0
   -9.0925   -1.7019  -22.7932 C   0  0  2  0  0  0  0  0  0  0  0  0
   -8.5768   -0.8947  -21.5839 C   0  0  0  0  0  0  0  0  0  0  0  0
   -9.1205    0.0545  -21.0495 O   0  0  0  0  0  0  0  0  0  0  0  0
   -7.3688   -1.4230  -21.2004 N   0  0  0  0  0  0  0  0  0  0  0  0
   -6.5941   -0.8286  -20.1790 C   0  0  0  0  0  0  0  0  0  0  0  0
   -6.9189   -1.0548  -18.8656 C   0  0  0  0  0  0  0  0  0  0  0  0
   -6.2220   -0.5627  -17.8160 N   0  0  0  0  0  0  0  0  0  0  0  0
   -5.1841    0.1967  -18.0816 C   0  0  0  0  0  0  0  0  0  0  0  0
   -4.7404    0.5108  -19.3989 C   0  0  0  0  0  0  0  0  0  0  0  0
   -3.6158    1.3434  -19.6397 C   0  0  0  0  0  0  0  0  0  0  0  0
   -3.2342    1.6486  -20.9187 C   0  0  0  0  0  0  0  0  0  0  0  0
   -3.9570    1.1362  -22.0182 C   0  0  0  0  0  0  0  0  0  0  0  0
   -5.0530    0.3303  -21.8154 C   0  0  0  0  0  0  0  0  0  0  0  0
   -5.4655   -0.0110  -20.4952 C   0  0  0  0  0  0  0  0  0  0  0  0
   -5.6189   -0.0219  -22.6736 H   0  0  0  0  0  0  0  0  0  0  0  0
   -3.6547    1.3891  -23.0313 H   0  0  0  0  0  0  0  0  0  0  0  0
   -2.3804    2.2966  -21.0943 H   0  0  0  0  0  0  0  0  0  0  0  0
   -3.0837    1.7466  -18.7835 H   0  0  0  0  0  0  0  0  0  0  0  0
   -4.6263    0.6002  -17.2358 H   0  0  0  0  0  0  0  0  0  0  0  0
   -7.7851   -1.6689  -18.6244 H   0  0  0  0  0  0  0  0  0  0  0  0
   -6.9587   -2.5957  -21.9468 C   0  0  0  0  0  0  0  0  0  0  0  0
   -8.2326   -2.9984  -22.7136 C   0  0  2  0  0  0  0  0  0  0  0  0
   -7.9317   -3.6890  -24.0423 C   0  0  0  0  0  0  0  0  0  0  0  0
   -7.2258   -4.8891  -23.7970 O   0  0  0  0  0  0  0  0  0  0  0  0
   -7.0482   -5.6994  -24.9560 C   0  0  0  0  0  0  0  0  0  0  0  0
   -5.6729   -6.3478  -24.8783 C   0  0  0  0  0  0  0  0  0  0  0  0
   -5.4879   -6.9638  -25.7656 H   0  0  0  0  0  0  0  0  0  0  0  0
   -4.8813   -5.5957  -24.8185 H   0  0  0  0  0  0  0  0  0  0  0  0
   -5.6028   -6.9921  -23.9969 H   0  0  0  0  0  0  0  0  0  0  0  0
   -8.1522   -6.7489  -25.0476 C   0  0  0  0  0  0  0  0  0  0  0  0
   -8.1301   -7.4030  -24.1700 H   0  0  0  0  0  0  0  0  0  0  0  0
   -9.1448   -6.2909  -25.1073 H   0  0  0  0  0  0  0  0  0  0  0  0
   -8.0145   -7.3662  -25.9419 H   0  0  0  0  0  0  0  0  0  0  0  0
   -7.0839   -5.0630  -25.8564 H   0  0  0  0  0  0  0  0  0  0  0  0
   -8.8741   -3.8860  -24.5839 H   0  0  0  0  0  0  0  0  0  0  0  0
   -7.3168   -3.0221  -24.6729 H   0  0  0  0  0  0  0  0  0  0  0  0
   -8.7746   -3.7204  -22.1030 H   0  0  0  0  0  0  0  0  0  0  0  0
   -6.1345   -2.3589  -22.6346 H   0  0  0  0  0  0  0  0  0  0  0  0
   -6.6182   -3.3819  -21.2666 H   0  0  0  0  0  0  0  0  0  0  0  0
  -10.5911   -1.8920  -22.6805 C   0  0  0  0  0  0  0  0  0  0  0  0
  -11.1232   -2.8788  -21.8468 C   0  0  0  0  0  0  0  0  0  0  0  0
  -12.4950   -3.0016  -21.7142 C   0  0  0  0  0  0  0  0  0  0  0  0
  -13.1265   -4.2032  -20.6237 Cl  0  0  0  0  0  0  0  0  0  0  0  0
  -13.3820   -2.1755  -22.4068 C   0  0  0  0  0  0  0  0  0  0  0  0
  -12.8638   -1.1668  -23.1926 C   0  0  0  0  0  0  0  0  0  0  0  0
  -11.4850   -1.0051  -23.2953 C   0  0  0  0  0  0  0  0  0  0  0  0
  -10.9988    0.2061  -24.0157 C   0  0  0  0  0  0  0  0  0  0  0  0
  -11.7535    1.1033  -24.3671 O   0  0  0  0  0  0  0  0  0  0  0  0
  -13.4962   -0.4632  -23.7249 H   0  0  0  0  0  0  0  0  0  0  0  0
  -14.4505   -2.3201  -22.2944 H   0  0  0  0  0  0  0  0  0  0  0  0
  -10.4771   -3.5404  -21.2791 H   0  0  0  0  0  0  0  0  0  0  0  0
   -9.0227   -1.6004  -24.9468 H   0  0  0  0  0  0  0  0  0  0  0  0
   -7.7710   -0.6148  -24.1557 H   0  0  0  0  0  0  0  0  0  0  0  0
   -8.5424    1.2381  -25.6971 H   0  0  0  0  0  0  0  0  0  0  0  0
   -9.9054    2.1388  -24.9441 H   0  0  0  0  0  0  0  0  0  0  0  0
   -9.4447    2.5960  -22.4054 H   0  0  0  0  0  0  0  0  0  0  0  0
   -6.7240    3.7480  -22.3844 H   0  0  0  0  0  0  0  0  0  0  0  0
   -7.9507    3.9789  -21.1105 H   0  0  0  0  0  0  0  0  0  0  0  0
   -7.0645    2.4295  -21.2563 H   0  0  0  0  0  0  0  0  0  0  0  0
  1  2  1  0
  2  3  1  0
  3  4  2  0
  3  5  1  0
  5  6  1  0
  6  7  1  0
  8  7  1  6
  8  9  1  0
  9 10  2  0
  9 11  1  0
 11 12  1  0
 12 13  2  0
 13 14  1  0
 14 15  2  0
 15 16  1  0
 16 17  2  0
 17 18  1  0
 18 19  2  0
 19 20  1  0
 20 21  2  0
 20 22  1  0
 19 23  1  0
 18 24  1  0
 17 25  1  0
 15 26  1  0
 13 27  1  0
 11 28  1  0
 28 29  1  0
 29 30  1  0
 30 31  1  0
 31 32  1  0
 32 33  1  0
 33 34  1  0
 33 35  1  0
 33 36  1  0
 32 37  1  0
 37 38  1  0
 37 39  1  0
 37 40  1  0
 32 41  1  0
 30 42  1  0
 30 43  1  0
 29 44  1  1
 28 45  1  0
 28 46  1  0
  8 47  1  0
 47 48  2  0
 48 49  1  0
 49 50  1  0
 49 51  2  0
 51 52  1  0
 52 53  2  0
 53 54  1  0
 54 55  2  0
 52 56  1  0
 51 57  1  0
 48 58  1  0
  7 59  1  0
  7 60  1  0
  5 61  1  0
  5 62  1  0
  2 63  1  0
  1 64  1  0
  1 65  1  0
  1 66  1  0
 54  6  1  0
 29  8  1  0
 53 47  1  0
 21 12  1  0
 21 16  1  0
M  END
>  <cnnaffinities>  (4) 
[6.40092, 6.1737]

>  <score>  (4) 
6.40092

>  <index>  (4) 
3

>  <Smiles>  (4) 
C(N(C(=O)C(N1C([C@@]2(C(=O)N(c3c(nc(c4c(c(c(c(c34)[H])[H])[H])[H])[H])[H])C([C@@]2(C(OC(C([H])([H])[H])(C([H])([H])[H])[H])([H])[H])[H])([H])[H])c2c(c(Cl)c(c(c2C1=O)[H])[H])[H])([H])[H])([H])[H])[H])([H])([H])[H]

>  <h>  (4) 
<NA>

>  <Training>  (4) 
True

>  <Success>  (4) 
True

>  <enamine_searched>  (4) 
False

>  <enamine_id>  (4) 
nan

$$$$

     RDKit          3D

 59 64  0  0  0  0  0  0  0  0999 V2000
   -8.0720   -3.8393  -23.8611 C   0  0  0  0  0  0  0  0  0  0  0  0
   -8.4108   -2.8545  -22.7330 C   0  0  1  0  0  0  0  0  0  0  0  0
   -7.2572   -2.7024  -21.7181 C   0  0  0  0  0  0  0  0  0  0  0  0
   -7.4335   -1.3604  -21.1979 N   0  0  0  0  0  0  0  0  0  0  0  0
   -6.6134   -0.7980  -20.1847 C   0  0  0  0  0  0  0  0  0  0  0  0
   -6.8981   -1.0532  -18.8683 C   0  0  0  0  0  0  0  0  0  0  0  0
   -6.1902   -0.5691  -17.8212 N   0  0  0  0  0  0  0  0  0  0  0  0
   -5.1658    0.2050  -18.0890 C   0  0  0  0  0  0  0  0  0  0  0  0
   -4.7365    0.5284  -19.4081 C   0  0  0  0  0  0  0  0  0  0  0  0
   -3.6009    1.3498  -19.6474 C   0  0  0  0  0  0  0  0  0  0  0  0
   -3.2012    1.6327  -20.9249 C   0  0  0  0  0  0  0  0  0  0  0  0
   -3.9116    1.0944  -22.0239 C   0  0  0  0  0  0  0  0  0  0  0  0
   -5.0112    0.2974  -21.8175 C   0  0  0  0  0  0  0  0  0  0  0  0
   -5.4701    0.0087  -20.4985 C   0  0  0  0  0  0  0  0  0  0  0  0
   -5.5449   -0.1141  -22.6710 H   0  0  0  0  0  0  0  0  0  0  0  0
   -3.6054    1.3219  -23.0410 H   0  0  0  0  0  0  0  0  0  0  0  0
   -2.3474    2.2841  -21.0940 H   0  0  0  0  0  0  0  0  0  0  0  0
   -3.0772    1.7634  -18.7890 H   0  0  0  0  0  0  0  0  0  0  0  0
   -4.6253    0.6122  -17.2351 H   0  0  0  0  0  0  0  0  0  0  0  0
   -7.7477   -1.6813  -18.6075 H   0  0  0  0  0  0  0  0  0  0  0  0
   -8.2422   -0.5625  -21.9740 C   0  0  0  0  0  0  0  0  0  0  0  0
   -8.4312    0.6172  -21.7496 O   0  0  0  0  0  0  0  0  0  0  0  0
   -8.7972   -1.4007  -23.1519 C   0  0  1  0  0  0  0  0  0  0  0  0
   -8.0715   -0.9746  -24.4543 C   0  0  0  0  0  0  0  0  0  0  0  0
   -8.4476    0.3618  -24.8678 N   0  0  0  0  0  0  0  0  0  0  0  0
   -7.3940    1.3615  -25.0187 C   0  0  0  0  0  0  0  0  0  0  0  0
   -6.2972    0.9621  -25.9697 C   0  0  0  0  0  0  0  0  0  0  0  0
   -5.0457    0.7221  -25.6253 N   0  0  0  0  0  0  0  0  0  0  0  0
   -4.4116    0.3468  -26.7831 C   0  0  0  0  0  0  0  0  0  0  0  0
   -5.2913    0.3662  -27.8314 C   0  0  0  0  0  0  0  0  0  0  0  0
   -6.4984    0.7691  -27.3030 N   0  0  0  0  0  0  0  0  0  0  0  0
   -7.7466    0.9180  -28.0252 C   0  0  0  0  0  0  0  0  0  0  0  0
   -8.4558    0.1295  -27.7523 H   0  0  0  0  0  0  0  0  0  0  0  0
   -8.1979    1.8959  -27.8225 H   0  0  0  0  0  0  0  0  0  0  0  0
   -7.5199    0.8457  -29.0918 H   0  0  0  0  0  0  0  0  0  0  0  0
   -5.1970    0.1298  -28.8825 H   0  0  0  0  0  0  0  0  0  0  0  0
   -3.3635    0.0732  -26.7762 H   0  0  0  0  0  0  0  0  0  0  0  0
   -7.9027    2.2765  -25.3397 H   0  0  0  0  0  0  0  0  0  0  0  0
   -6.9138    1.5476  -24.0467 H   0  0  0  0  0  0  0  0  0  0  0  0
   -9.7648    0.7298  -24.9479 C   0  0  0  0  0  0  0  0  0  0  0  0
  -10.1377    1.7197  -25.5690 O   0  0  0  0  0  0  0  0  0  0  0  0
  -10.7354   -0.1303  -24.1851 C   0  0  0  0  0  0  0  0  0  0  0  0
  -12.0943    0.1817  -24.2465 C   0  0  0  0  0  0  0  0  0  0  0  0
  -13.0245   -0.5556  -23.5463 C   0  0  0  0  0  0  0  0  0  0  0  0
  -12.5566   -1.4902  -22.6330 C   0  0  0  0  0  0  0  0  0  0  0  0
  -13.4348   -2.0970  -21.8204 F   0  0  0  0  0  0  0  0  0  0  0  0
  -11.2154   -1.7656  -22.4743 C   0  0  0  0  0  0  0  0  0  0  0  0
  -10.2860   -1.1402  -23.3199 C   0  0  0  0  0  0  0  0  0  0  0  0
  -10.9204   -2.4118  -21.6489 H   0  0  0  0  0  0  0  0  0  0  0  0
  -14.0863   -0.3738  -23.6530 H   0  0  0  0  0  0  0  0  0  0  0  0
  -12.4079    1.0845  -24.7511 H   0  0  0  0  0  0  0  0  0  0  0  0
   -6.9874   -0.9731  -24.3046 H   0  0  0  0  0  0  0  0  0  0  0  0
   -8.3165   -1.6876  -25.2556 H   0  0  0  0  0  0  0  0  0  0  0  0
   -7.2994   -3.4340  -20.9039 H   0  0  0  0  0  0  0  0  0  0  0  0
   -6.2788   -2.8260  -22.2125 H   0  0  0  0  0  0  0  0  0  0  0  0
   -9.2753   -3.2429  -22.1921 H   0  0  0  0  0  0  0  0  0  0  0  0
   -7.9008   -4.8501  -23.4688 H   0  0  0  0  0  0  0  0  0  0  0  0
   -8.8748   -3.9026  -24.6054 H   0  0  0  0  0  0  0  0  0  0  0  0
   -7.1592   -3.5362  -24.3907 H   0  0  0  0  0  0  0  0  0  0  0  0
  1  2  1  0
  2  3  1  0
  3  4  1  0
  4  5  1  0
  5  6  2  0
  6  7  1  0
  7  8  2  0
  8  9  1  0
  9 10  2  0
 10 11  1  0
 11 12  2  0
 12 13  1  0
 13 14  2  0
 13 15  1  0
 12 16  1  0
 11 17  1  0
 10 18  1  0
  8 19  1  0
  6 20  1  0
  4 21  1  0
 21 22  2  0
 21 23  1  0
 23 24  1  6
 24 25  1  0
 25 26  1  0
 26 27  1  0
 27 28  2  0
 28 29  1  0
 29 30  2  0
 30 31  1  0
 31 32  1  0
 32 33  1  0
 32 34  1  0
 32 35  1  0
 30 36  1  0
 29 37  1  0
 26 38  1  0
 26 39  1  0
 25 40  1  0
 40 41  2  0
 40 42  1  0
 42 43  2  0
 43 44  1  0
 44 45  2  0
 45 46  1  0
 45 47  1  0
 47 48  2  0
 47 49  1  0
 44 50  1  0
 43 51  1  0
 24 52  1  0
 24 53  1  0
  3 54  1  0
  3 55  1  0
  2 56  1  1
  1 57  1  0
  1 58  1  0
  1 59  1  0
 23  2  1  0
 31 27  1  0
 48 42  1  0
 14  5  1  0
 48 23  1  0
 14  9  1  0
M  END
>  <cnnaffinities>  (5) 
[6.06208, 5.76868]

>  <score>  (5) 
6.06208

>  <index>  (5) 
4

>  <Smiles>  (5) 
C([C@]1(C(N(c2c(nc(c3c(c(c(c(c23)[H])[H])[H])[H])[H])[H])C(=O)[C@]21C(N(C(c1nc(c(n1C([H])([H])[H])[H])[H])([H])[H])C(=O)c1c(c(c(F)c(c21)[H])[H])[H])([H])[H])([H])[H])[H])([H])([H])[H]

>  <h>  (5) 
<NA>

>  <Training>  (5) 
True

>  <Success>  (5) 
True

>  <enamine_searched>  (5) 
False

>  <enamine_id>  (5) 
nan

$$$$

     RDKit          3D

 58 61  0  0  0  0  0  0  0  0999 V2000
   -5.1621   -3.2535  -22.2450 C   0  0  0  0  0  0  0  0  0  0  0  0
   -6.4743   -3.3483  -22.4403 C   0  0  0  0  0  0  0  0  0  0  0  0
   -7.4709   -2.8444  -21.4280 C   0  0  0  0  0  0  0  0  0  0  0  0
   -7.4206   -1.3971  -21.2365 N   0  0  0  0  0  0  0  0  0  0  0  0
   -8.2294   -0.5018  -21.9284 C   0  0  0  0  0  0  0  0  0  0  0  0
   -8.4245    0.6195  -21.4948 O   0  0  0  0  0  0  0  0  0  0  0  0
   -8.8260   -0.9785  -23.2444 C   0  0  2  0  0  0  0  0  0  0  0  0
   -8.4211    0.0105  -24.3467 C   0  0  0  0  0  0  0  0  0  0  0  0
   -9.0347   -0.3642  -25.6057 N   0  0  0  0  0  0  0  0  0  0  0  0
   -8.2433   -0.4036  -26.8265 C   0  0  0  0  0  0  0  0  0  0  0  0
   -7.5873   -1.7769  -26.9444 C   0  0  0  0  0  0  0  0  0  0  0  0
   -6.4460   -1.9668  -26.5584 O   0  0  0  0  0  0  0  0  0  0  0  0
   -8.3757   -2.7661  -27.4395 N   0  0  0  0  0  0  0  0  0  0  0  0
   -7.9310   -4.1357  -27.2443 C   0  0  0  0  0  0  0  0  0  0  0  0
   -8.7140   -4.8171  -27.5806 H   0  0  0  0  0  0  0  0  0  0  0  0
   -7.6898   -4.3265  -26.1804 H   0  0  0  0  0  0  0  0  0  0  0  0
   -7.0224   -4.3155  -27.8267 H   0  0  0  0  0  0  0  0  0  0  0  0
   -9.3598   -2.5634  -27.5847 H   0  0  0  0  0  0  0  0  0  0  0  0
   -7.4662    0.3634  -26.7912 H   0  0  0  0  0  0  0  0  0  0  0  0
   -8.9076   -0.2087  -27.6686 H   0  0  0  0  0  0  0  0  0  0  0  0
  -10.2957   -0.8664  -25.6747 C   0  0  0  0  0  0  0  0  0  0  0  0
  -10.7781   -1.2368  -26.7450 O   0  0  0  0  0  0  0  0  0  0  0  0
  -11.0316   -0.9981  -24.3941 C   0  0  0  0  0  0  0  0  0  0  0  0
  -12.4171   -1.0933  -24.4388 C   0  0  0  0  0  0  0  0  0  0  0  0
  -13.1166   -1.5244  -23.3318 C   0  0  0  0  0  0  0  0  0  0  0  0
  -12.3924   -1.8866  -22.1934 C   0  0  0  0  0  0  0  0  0  0  0  0
  -13.2578   -2.7312  -20.9321 Cl  0  0  0  0  0  0  0  0  0  0  0  0
  -11.0252   -1.6321  -22.0791 C   0  0  0  0  0  0  0  0  0  0  0  0
  -10.3326   -1.1689  -23.2017 C   0  0  0  0  0  0  0  0  0  0  0  0
  -10.5129   -1.7665  -21.1307 H   0  0  0  0  0  0  0  0  0  0  0  0
  -14.1951   -1.6329  -23.3632 H   0  0  0  0  0  0  0  0  0  0  0  0
  -12.9260   -0.8784  -25.3689 H   0  0  0  0  0  0  0  0  0  0  0  0
   -7.3312   -0.0250  -24.4853 H   0  0  0  0  0  0  0  0  0  0  0  0
   -8.7230    1.0219  -24.0474 H   0  0  0  0  0  0  0  0  0  0  0  0
   -8.4066   -1.9498  -23.5240 H   0  0  0  0  0  0  0  0  0  0  0  0
   -6.6185   -0.8536  -20.2000 C   0  0  0  0  0  0  0  0  0  0  0  0
   -6.9453   -1.0755  -18.8873 C   0  0  0  0  0  0  0  0  0  0  0  0
   -6.2565   -0.5804  -17.8351 N   0  0  0  0  0  0  0  0  0  0  0  0
   -5.2148    0.1725  -18.0986 C   0  0  0  0  0  0  0  0  0  0  0  0
   -4.7662    0.4832  -19.4138 C   0  0  0  0  0  0  0  0  0  0  0  0
   -3.6320    1.3061  -19.6474 C   0  0  0  0  0  0  0  0  0  0  0  0
   -3.2212    1.5812  -20.9219 C   0  0  0  0  0  0  0  0  0  0  0  0
   -3.9169    1.0361  -22.0247 C   0  0  0  0  0  0  0  0  0  0  0  0
   -5.0138    0.2309  -21.8253 C   0  0  0  0  0  0  0  0  0  0  0  0
   -5.4811   -0.0473  -20.5096 C   0  0  0  0  0  0  0  0  0  0  0  0
   -5.5368   -0.1949  -22.6775 H   0  0  0  0  0  0  0  0  0  0  0  0
   -3.5845    1.2655  -23.0325 H   0  0  0  0  0  0  0  0  0  0  0  0
   -2.3631    2.2274  -21.0924 H   0  0  0  0  0  0  0  0  0  0  0  0
   -3.1119    1.7201  -18.7870 H   0  0  0  0  0  0  0  0  0  0  0  0
   -4.6692    0.5784  -17.2468 H   0  0  0  0  0  0  0  0  0  0  0  0
   -7.8226   -1.6744  -18.6460 H   0  0  0  0  0  0  0  0  0  0  0  0
   -8.4734   -3.1316  -21.7541 H   0  0  0  0  0  0  0  0  0  0  0  0
   -7.2522   -3.2789  -20.4483 H   0  0  0  0  0  0  0  0  0  0  0  0
   -7.0488   -3.9630  -23.7306 C   0  0  0  0  0  0  0  0  0  0  0  0
   -6.2307   -4.4223  -24.5519 O   0  0  0  0  0  0  0  0  0  0  0  0
   -8.2934   -3.9296  -23.8385 O   0  0  0  0  0  1  0  0  0  0  0  0
   -4.4364   -3.6646  -22.9398 H   0  0  0  0  0  0  0  0  0  0  0  0
   -4.7868   -2.7289  -21.3634 H   0  0  0  0  0  0  0  0  0  0  0  0
  1  2  2  0
  2  3  1  0
  3  4  1  0
  4  5  1  0
  5  6  2  0
  5  7  1  0
  7  8  1  0
  8  9  1  0
  9 10  1  0
 10 11  1  0
 11 12  2  0
 11 13  1  0
 13 14  1  0
 14 15  1  0
 14 16  1  0
 14 17  1  0
 13 18  1  0
 10 19  1  0
 10 20  1  0
  9 21  1  0
 21 22  2  0
 21 23  1  0
 23 24  2  0
 24 25  1  0
 25 26  2  0
 26 27  1  0
 26 28  1  0
 28 29  2  0
 28 30  1  0
 25 31  1  0
 24 32  1  0
  8 33  1  0
  8 34  1  0
  7 35  1  6
  4 36  1  0
 36 37  2  0
 37 38  1  0
 38 39  2  0
 39 40  1  0
 40 41  2  0
 41 42  1  0
 42 43  2  0
 43 44  1  0
 44 45  2  0
 44 46  1  0
 43 47  1  0
 42 48  1  0
 41 49  1  0
 39 50  1  0
 37 51  1  0
  3 52  1  0
  3 53  1  0
  2 54  1  0
 54 55  2  0
 54 56  1  0
  1 57  1  0
  1 58  1  0
 29  7  1  0
 45 36  1  0
 29 23  1  0
 45 40  1  0
M  CHG  1  56  -1
M  END
>  <cnnaffinities>  (6) 
[6.28773]

>  <score>  (6) 
6.28773

>  <index>  (6) 
5

>  <Smiles>  (6) 
C(=C(C(N(C(=O)[C@@]1(C(N(C(C(=O)N(C([H])([H])[H])[H])([H])[H])C(=O)c2c(c(c(Cl)c(c12)[H])[H])[H])([H])[H])[H])c1c(nc(c2c(c(c(c(c12)[H])[H])[H])[H])[H])[H])([H])[H])C(=O)[O-])([H])[H]

>  <h>  (6) 
<NA>

>  <Training>  (6) 
True

>  <Success>  (6) 
True

>  <enamine_searched>  (6) 
False

>  <enamine_id>  (6) 
nan

$$$$

     RDKit          3D

 43 45  0  0  0  0  0  0  0  0999 V2000
   -8.2947   -5.9235  -27.5887 C   0  0  0  0  0  0  0  0  0  0  0  0
   -8.9421   -4.8589  -26.7115 C   0  0  0  0  0  0  0  0  0  0  0  0
   -7.9763   -4.1568  -25.7454 C   0  0  0  0  0  0  0  0  0  0  0  0
   -7.3677   -5.1160  -24.7220 C   0  0  0  0  0  0  0  0  0  0  0  0
   -6.5637   -4.4019  -23.6398 C   0  0  0  0  0  0  0  0  0  0  0  0
   -7.3130   -3.3162  -22.9960 N   0  0  0  0  0  0  0  0  0  0  0  0
   -6.7221   -2.7010  -21.9186 C   0  0  0  0  0  0  0  0  0  0  0  0
   -5.6577   -3.1061  -21.4767 O   0  0  0  0  0  0  0  0  0  0  0  0
   -7.4112   -1.4706  -21.2764 C   0  0  0  0  0  0  0  0  0  0  0  0
   -6.5791   -0.8321  -20.1860 C   0  0  0  0  0  0  0  0  0  0  0  0
   -6.8730   -1.0472  -18.8663 C   0  0  0  0  0  0  0  0  0  0  0  0
   -6.1859   -0.5482  -17.8033 N   0  0  0  0  0  0  0  0  0  0  0  0
   -5.1592    0.2223  -18.0662 C   0  0  0  0  0  0  0  0  0  0  0  0
   -4.7207    0.5296  -19.3819 C   0  0  0  0  0  0  0  0  0  0  0  0
   -3.5901    1.3531  -19.6242 C   0  0  0  0  0  0  0  0  0  0  0  0
   -3.1911    1.6330  -20.9017 C   0  0  0  0  0  0  0  0  0  0  0  0
   -3.9050    1.0912  -21.9943 C   0  0  0  0  0  0  0  0  0  0  0  0
   -5.0012    0.2898  -21.7871 C   0  0  0  0  0  0  0  0  0  0  0  0
   -5.4450   -0.0130  -20.4748 C   0  0  0  0  0  0  0  0  0  0  0  0
   -5.5341   -0.1238  -22.6373 H   0  0  0  0  0  0  0  0  0  0  0  0
   -3.5808    1.3164  -23.0056 H   0  0  0  0  0  0  0  0  0  0  0  0
   -2.3305    2.2724  -21.0870 H   0  0  0  0  0  0  0  0  0  0  0  0
   -3.0552    1.7724  -18.7731 H   0  0  0  0  0  0  0  0  0  0  0  0
   -4.6032    0.6286  -17.2165 H   0  0  0  0  0  0  0  0  0  0  0  0
   -7.7212   -1.6711  -18.5890 H   0  0  0  0  0  0  0  0  0  0  0  0
   -8.3714   -1.7893  -20.8449 H   0  0  0  0  0  0  0  0  0  0  0  0
   -7.6543   -0.7198  -22.0421 H   0  0  0  0  0  0  0  0  0  0  0  0
   -8.6459   -3.0528  -23.5201 C   0  0  0  0  0  0  0  0  0  0  0  0
   -8.6342   -2.9511  -25.0431 C   0  0  0  0  0  0  0  0  0  0  0  0
   -8.1120   -2.0339  -25.3276 H   0  0  0  0  0  0  0  0  0  0  0  0
   -9.6637   -2.8245  -25.3934 H   0  0  0  0  0  0  0  0  0  0  0  0
   -9.3377   -3.8465  -23.2116 H   0  0  0  0  0  0  0  0  0  0  0  0
   -9.0309   -2.1252  -23.0973 H   0  0  0  0  0  0  0  0  0  0  0  0
   -6.2442   -5.1236  -22.8824 H   0  0  0  0  0  0  0  0  0  0  0  0
   -5.6398   -4.0049  -24.0752 H   0  0  0  0  0  0  0  0  0  0  0  0
   -6.7108   -5.8304  -25.2283 H   0  0  0  0  0  0  0  0  0  0  0  0
   -8.1490   -5.7330  -24.2654 H   0  0  0  0  0  0  0  0  0  0  0  0
   -7.1503   -3.7658  -26.3524 H   0  0  0  0  0  0  0  0  0  0  0  0
   -9.4050   -4.1054  -27.3598 H   0  0  0  0  0  0  0  0  0  0  0  0
   -9.7636   -5.3044  -26.1389 H   0  0  0  0  0  0  0  0  0  0  0  0
   -7.4225   -5.5189  -28.1125 H   0  0  0  0  0  0  0  0  0  0  0  0
   -7.9589   -6.7865  -27.0069 H   0  0  0  0  0  0  0  0  0  0  0  0
   -8.9918   -6.2901  -28.3493 H   0  0  0  0  0  0  0  0  0  0  0  0
  1  2  1  0
  2  3  1  0
  3  4  1  0
  4  5  1  0
  5  6  1  0
  6  7  1  0
  7  8  2  0
  7  9  1  0
  9 10  1  0
 10 11  2  0
 11 12  1  0
 12 13  2  0
 13 14  1  0
 14 15  2  0
 15 16  1  0
 16 17  2  0
 17 18  1  0
 18 19  2  0
 18 20  1  0
 17 21  1  0
 16 22  1  0
 15 23  1  0
 13 24  1  0
 11 25  1  0
  9 26  1  0
  9 27  1  0
  6 28  1  0
 28 29  1  0
 29 30  1  0
 29 31  1  0
 28 32  1  0
 28 33  1  0
  5 34  1  0
  5 35  1  0
  4 36  1  0
  4 37  1  0
  3 38  1  0
  2 39  1  0
  2 40  1  0
  1 41  1  0
  1 42  1  0
  1 43  1  0
 29  3  1  0
 19 10  1  0
 19 14  1  0
M  END
>  <cnnaffinities>  (7) 
[4.87421, 4.45841]

>  <score>  (7) 
4.87421

>  <index>  (7) 
6

>  <Smiles>  (7) 
C(C(C1(C(C(N(C(=O)C(c2c(nc(c3c(c(c(c(c23)[H])[H])[H])[H])[H])[H])([H])[H])C(C1([H])[H])([H])[H])([H])[H])([H])[H])[H])([H])[H])([H])([H])[H]

>  <h>  (7) 
<NA>

>  <Training>  (7) 
True

>  <Success>  (7) 
True

>  <enamine_searched>  (7) 
False

>  <enamine_id>  (7) 
nan

$$$$

     RDKit          3D

 44 47  0  0  0  0  0  0  0  0999 V2000
  -10.0922   -5.9990  -27.5798 C   0  0  0  0  0  0  0  0  0  0  0  0
   -8.9750   -5.2879  -26.8092 C   0  0  0  0  0  0  0  0  0  0  0  0
   -9.2126   -5.5150  -25.0537 S   0  0  0  0  0  0  0  0  0  0  0  0
   -9.0098   -6.9205  -24.7521 O   0  0  0  0  0  0  0  0  0  0  0  0
  -10.4614   -4.8443  -24.7087 O   0  0  0  0  0  0  0  0  0  0  0  0
   -7.9492   -4.6905  -24.2770 N   0  0  0  0  0  0  0  0  0  0  0  0
   -7.9910   -3.2071  -24.3172 C   0  0  0  0  0  0  0  0  0  0  0  0
   -8.0642   -3.1457  -22.7703 C   0  0  0  0  0  0  0  0  0  0  0  0
   -8.0632   -4.6841  -22.7763 C   0  0  0  0  0  0  0  0  0  0  0  0
   -7.1828   -5.1266  -22.3083 H   0  0  0  0  0  0  0  0  0  0  0  0
   -8.9723   -5.1344  -22.3702 H   0  0  0  0  0  0  0  0  0  0  0  0
   -6.8679   -2.5245  -22.0678 C   0  0  0  0  0  0  0  0  0  0  0  0
   -5.7079   -2.8147  -22.2232 O   0  0  0  0  0  0  0  0  0  0  0  0
   -7.3669   -1.5344  -21.2175 N   0  0  0  0  0  0  0  0  0  0  0  0
   -6.5997   -0.8672  -20.2050 C   0  0  0  0  0  0  0  0  0  0  0  0
   -6.9136   -1.0658  -18.8820 C   0  0  0  0  0  0  0  0  0  0  0  0
   -6.2154   -0.5569  -17.8360 N   0  0  0  0  0  0  0  0  0  0  0  0
   -5.1824    0.2029  -18.1022 C   0  0  0  0  0  0  0  0  0  0  0  0
   -4.7493    0.5166  -19.4183 C   0  0  0  0  0  0  0  0  0  0  0  0
   -3.6164    1.3481  -19.6417 C   0  0  0  0  0  0  0  0  0  0  0  0
   -3.2250    1.6567  -20.9145 C   0  0  0  0  0  0  0  0  0  0  0  0
   -3.9553    1.1460  -22.0099 C   0  0  0  0  0  0  0  0  0  0  0  0
   -5.0507    0.3386  -21.8182 C   0  0  0  0  0  0  0  0  0  0  0  0
   -5.4783   -0.0170  -20.5093 C   0  0  0  0  0  0  0  0  0  0  0  0
   -5.5976   -0.0446  -22.6725 H   0  0  0  0  0  0  0  0  0  0  0  0
   -3.6471    1.3990  -23.0188 H   0  0  0  0  0  0  0  0  0  0  0  0
   -2.3682    2.3041  -21.0884 H   0  0  0  0  0  0  0  0  0  0  0  0
   -3.0858    1.7472  -18.7799 H   0  0  0  0  0  0  0  0  0  0  0  0
   -4.6324    0.6080  -17.2508 H   0  0  0  0  0  0  0  0  0  0  0  0
   -7.7619   -1.6856  -18.6063 H   0  0  0  0  0  0  0  0  0  0  0  0
   -8.7606   -1.3835  -21.4065 C   0  0  0  0  0  0  0  0  0  0  0  0
   -9.4384   -0.4621  -21.0099 O   0  0  0  0  0  0  0  0  0  0  0  0
   -9.1718   -2.4483  -22.1722 N   0  0  0  0  0  0  0  0  0  0  0  0
  -10.5618   -2.6993  -22.4969 C   0  0  0  0  0  0  0  0  0  0  0  0
  -10.7630   -2.4925  -23.5549 H   0  0  0  0  0  0  0  0  0  0  0  0
  -10.8347   -3.7410  -22.2843 H   0  0  0  0  0  0  0  0  0  0  0  0
  -11.1488   -2.0258  -21.8711 H   0  0  0  0  0  0  0  0  0  0  0  0
   -7.0639   -2.8164  -24.7354 H   0  0  0  0  0  0  0  0  0  0  0  0
   -8.8532   -2.7795  -24.8408 H   0  0  0  0  0  0  0  0  0  0  0  0
   -8.9750   -4.2054  -26.9829 H   0  0  0  0  0  0  0  0  0  0  0  0
   -7.9853   -5.6968  -27.0328 H   0  0  0  0  0  0  0  0  0  0  0  0
  -11.0773   -5.6118  -27.3065 H   0  0  0  0  0  0  0  0  0  0  0  0
   -9.9517   -5.8554  -28.6550 H   0  0  0  0  0  0  0  0  0  0  0  0
  -10.0903   -7.0725  -27.3660 H   0  0  0  0  0  0  0  0  0  0  0  0
  1  2  1  0
  2  3  1  0
  3  4  2  0
  3  5  2  0
  3  6  1  0
  6  7  1  0
  7  8  1  0
  8  9  1  0
  9 10  1  0
  9 11  1  0
  8 12  1  0
 12 13  2  0
 12 14  1  0
 14 15  1  0
 15 16  2  0
 16 17  1  0
 17 18  2  0
 18 19  1  0
 19 20  2  0
 20 21  1  0
 21 22  2  0
 22 23  1  0
 23 24  2  0
 23 25  1  0
 22 26  1  0
 21 27  1  0
 20 28  1  0
 18 29  1  0
 16 30  1  0
 14 31  1  0
 31 32  2  0
 31 33  1  0
 33 34  1  0
 34 35  1  0
 34 36  1  0
 34 37  1  0
  7 38  1  0
  7 39  1  0
  2 40  1  0
  2 41  1  0
  1 42  1  0
  1 43  1  0
  1 44  1  0
  9  6  1  0
 24 15  1  0
 33  8  1  0
 24 19  1  0
M  END
>  <cnnaffinities>  (8) 
[5.05738, 5.06563, 5.06404]

>  <score>  (8) 
5.05738

>  <index>  (8) 
7

>  <Smiles>  (8) 
C(C(S(=O)(=O)N1C(C2(C1([H])[H])C(=O)N(c1c(nc(c3c(c(c(c(c13)[H])[H])[H])[H])[H])[H])C(=O)N2C([H])([H])[H])([H])[H])([H])[H])([H])([H])[H]

>  <h>  (8) 
<NA>

>  <Training>  (8) 
True

>  <Success>  (8) 
True

>  <enamine_searched>  (8) 
False

>  <enamine_id>  (8) 
nan

$$$$

     RDKit          3D

 60 64  0  0  0  0  0  0  0  0999 V2000
   -7.4358    3.3911  -21.7810 C   0  0  0  0  0  0  0  0  0  0  0  0
   -8.2720    2.8986  -22.8544 N   0  0  0  0  0  0  0  0  0  0  0  0
   -7.7002    2.2207  -23.8715 C   0  0  0  0  0  0  0  0  0  0  0  0
   -6.4838    2.1211  -23.9980 O   0  0  0  0  0  0  0  0  0  0  0  0
   -8.6574    1.6029  -24.8941 C   0  0  0  0  0  0  0  0  0  0  0  0
   -9.3842    0.4529  -24.3929 N   0  0  0  0  0  0  0  0  0  0  0  0
   -8.6737   -0.8026  -24.2279 C   0  0  0  0  0  0  0  0  0  0  0  0
   -9.0612   -1.5166  -22.9077 C   0  0  2  0  0  0  0  0  0  0  0  0
   -8.5131   -0.7276  -21.6892 C   0  0  0  0  0  0  0  0  0  0  0  0
   -8.9568    0.2988  -21.2137 O   0  0  0  0  0  0  0  0  0  0  0  0
   -7.4050   -1.3824  -21.2051 N   0  0  0  0  0  0  0  0  0  0  0  0
   -6.6063   -0.8089  -20.1797 C   0  0  0  0  0  0  0  0  0  0  0  0
   -6.9114   -1.0439  -18.8639 C   0  0  0  0  0  0  0  0  0  0  0  0
   -6.2040   -0.5596  -17.8159 N   0  0  0  0  0  0  0  0  0  0  0  0
   -5.1694    0.2023  -18.0808 C   0  0  0  0  0  0  0  0  0  0  0  0
   -4.7305    0.5249  -19.3976 C   0  0  0  0  0  0  0  0  0  0  0  0
   -3.6012    1.3556  -19.6430 C   0  0  0  0  0  0  0  0  0  0  0  0
   -3.2161    1.6499  -20.9223 C   0  0  0  0  0  0  0  0  0  0  0  0
   -3.9404    1.1258  -22.0161 C   0  0  0  0  0  0  0  0  0  0  0  0
   -5.0354    0.3211  -21.8047 C   0  0  0  0  0  0  0  0  0  0  0  0
   -5.4669    0.0028  -20.4881 C   0  0  0  0  0  0  0  0  0  0  0  0
   -5.5951   -0.0628  -22.6524 H   0  0  0  0  0  0  0  0  0  0  0  0
   -3.6504    1.3744  -23.0311 H   0  0  0  0  0  0  0  0  0  0  0  0
   -2.3659    2.3034  -21.0982 H   0  0  0  0  0  0  0  0  0  0  0  0
   -3.0740    1.7670  -18.7859 H   0  0  0  0  0  0  0  0  0  0  0  0
   -4.6251    0.6091  -17.2288 H   0  0  0  0  0  0  0  0  0  0  0  0
   -7.7655   -1.6660  -18.6082 H   0  0  0  0  0  0  0  0  0  0  0  0
   -7.0714   -2.5980  -21.9200 C   0  0  0  0  0  0  0  0  0  0  0  0
   -8.3311   -2.8888  -22.7578 C   0  0  2  0  0  0  0  0  0  0  0  0
   -7.9806   -3.6562  -24.0300 C   0  0  0  0  0  0  0  0  0  0  0  0
   -9.1479   -3.9444  -24.7568 O   0  0  0  0  0  0  0  0  0  0  0  0
   -8.8659   -4.5840  -25.9783 C   0  0  0  0  0  0  0  0  0  0  0  0
   -8.2711   -3.9446  -26.6499 H   0  0  0  0  0  0  0  0  0  0  0  0
   -8.3099   -5.5206  -25.8230 H   0  0  0  0  0  0  0  0  0  0  0  0
   -9.8202   -4.8114  -26.4559 H   0  0  0  0  0  0  0  0  0  0  0  0
   -7.2814   -3.0660  -24.6464 H   0  0  0  0  0  0  0  0  0  0  0  0
   -7.4621   -4.5967  -23.7761 H   0  0  0  0  0  0  0  0  0  0  0  0
   -9.0063   -3.5212  -22.1830 H   0  0  0  0  0  0  0  0  0  0  0  0
   -6.1906   -2.4463  -22.5659 H   0  0  0  0  0  0  0  0  0  0  0  0
   -6.8289   -3.4073  -21.2203 H   0  0  0  0  0  0  0  0  0  0  0  0
  -10.5783   -1.5597  -22.8386 C   0  0  0  0  0  0  0  0  0  0  0  0
  -11.2140   -2.4420  -21.9569 C   0  0  0  0  0  0  0  0  0  0  0  0
  -12.5926   -2.4573  -21.8644 C   0  0  0  0  0  0  0  0  0  0  0  0
  -13.3682   -3.5540  -20.7597 Cl  0  0  0  0  0  0  0  0  0  0  0  0
  -13.3801   -1.5932  -22.6249 C   0  0  0  0  0  0  0  0  0  0  0  0
  -12.7594   -0.6701  -23.4431 C   0  0  0  0  0  0  0  0  0  0  0  0
  -11.3687   -0.6249  -23.5250 C   0  0  0  0  0  0  0  0  0  0  0  0
  -10.7441    0.5179  -24.2664 C   0  0  0  0  0  0  0  0  0  0  0  0
  -11.4015    1.4635  -24.6856 O   0  0  0  0  0  0  0  0  0  0  0  0
  -13.3201    0.0609  -24.0169 H   0  0  0  0  0  0  0  0  0  0  0  0
  -14.4588   -1.6348  -22.5439 H   0  0  0  0  0  0  0  0  0  0  0  0
  -10.6406   -3.0959  -21.3099 H   0  0  0  0  0  0  0  0  0  0  0  0
   -8.8871   -1.4844  -25.0659 H   0  0  0  0  0  0  0  0  0  0  0  0
   -7.6058   -0.5630  -24.2111 H   0  0  0  0  0  0  0  0  0  0  0  0
   -9.4346    2.3072  -25.2040 H   0  0  0  0  0  0  0  0  0  0  0  0
   -8.0287    1.3321  -25.7500 H   0  0  0  0  0  0  0  0  0  0  0  0
   -9.2665    2.8145  -22.7002 H   0  0  0  0  0  0  0  0  0  0  0  0
   -6.6925    4.1039  -22.1575 H   0  0  0  0  0  0  0  0  0  0  0  0
   -6.9038    2.5607  -21.2872 H   0  0  0  0  0  0  0  0  0  0  0  0
   -8.0852    3.9141  -21.0836 H   0  0  0  0  0  0  0  0  0  0  0  0
  1  2  1  0
  2  3  1  0
  3  4  2  0
  3  5  1  0
  5  6  1  0
  6  7  1  0
  8  7  1  6
  8  9  1  0
  9 10  2  0
  9 11  1  0
 11 12  1  0
 12 13  2  0
 13 14  1  0
 14 15  2  0
 15 16  1  0
 16 17  2  0
 17 18  1  0
 18 19  2  0
 19 20  1  0
 20 21  2  0
 20 22  1  0
 19 23  1  0
 18 24  1  0
 17 25  1  0
 15 26  1  0
 13 27  1  0
 11 28  1  0
 28 29  1  0
 29 30  1  0
 30 31  1  0
 31 32  1  0
 32 33  1  0
 32 34  1  0
 32 35  1  0
 30 36  1  0
 30 37  1  0
 29 38  1  1
 28 39  1  0
 28 40  1  0
  8 41  1  0
 41 42  2  0
 42 43  1  0
 43 44  1  0
 43 45  2  0
 45 46  1  0
 46 47  2  0
 47 48  1  0
 48 49  2  0
 46 50  1  0
 45 51  1  0
 42 52  1  0
  7 53  1  0
  7 54  1  0
  5 55  1  0
  5 56  1  0
  2 57  1  0
  1 58  1  0
  1 59  1  0
  1 60  1  0
 48  6  1  0
 29  8  1  0
 47 41  1  0
 21 12  1  0
 21 16  1  0
M  END
>  <cnnaffinities>  (9) 
[6.08473, 6.15521, 6.31553]

>  <score>  (9) 
6.08473

>  <index>  (9) 
8

>  <Smiles>  (9) 
C(N(C(=O)C(N1C([C@@]2(C(=O)N(c3c(nc(c4c(c(c(c(c34)[H])[H])[H])[H])[H])[H])C([C@@]2(C(OC([H])([H])[H])([H])[H])[H])([H])[H])c2c(c(Cl)c(c(c2C1=O)[H])[H])[H])([H])[H])([H])[H])[H])([H])([H])[H]

>  <h>  (9) 
<NA>

>  <Training>  (9) 
True

>  <Success>  (9) 
True

>  <enamine_searched>  (9) 
False

>  <enamine_id>  (9) 
nan

$$$$

     RDKit          3D

 41 43  0  0  0  0  0  0  0  0999 V2000
  -13.1822   -2.9167  -22.8919 C   0  0  0  0  0  0  0  0  0  0  0  0
  -11.9706   -2.0486  -23.2170 C   0  0  1  0  0  0  0  0  0  0  0  0
  -12.1552   -0.6568  -22.6469 C   0  0  0  0  0  0  0  0  0  0  0  0
  -11.3208    0.3564  -22.8360 C   0  0  0  0  0  0  0  0  0  0  0  0
  -10.0214    0.2171  -23.6021 C   0  0  0  0  0  0  0  0  0  0  0  0
   -9.0868   -0.7816  -23.0629 N   0  0  0  0  0  0  0  0  0  0  0  0
   -8.3807   -0.4082  -21.9330 C   0  0  0  0  0  0  0  0  0  0  0  0
   -8.4794    0.7176  -21.4754 O   0  0  0  0  0  0  0  0  0  0  0  0
   -7.4335   -1.4333  -21.2746 C   0  0  0  0  0  0  0  0  0  0  0  0
   -6.5800   -0.8292  -20.1845 C   0  0  0  0  0  0  0  0  0  0  0  0
   -6.8780   -1.0386  -18.8645 C   0  0  0  0  0  0  0  0  0  0  0  0
   -6.1894   -0.5426  -17.8023 N   0  0  0  0  0  0  0  0  0  0  0  0
   -5.1581    0.2218  -18.0652 C   0  0  0  0  0  0  0  0  0  0  0  0
   -4.7237    0.5334  -19.3824 C   0  0  0  0  0  0  0  0  0  0  0  0
   -3.5952    1.3603  -19.6238 C   0  0  0  0  0  0  0  0  0  0  0  0
   -3.2089    1.6570  -20.9023 C   0  0  0  0  0  0  0  0  0  0  0  0
   -3.9336    1.1303  -21.9942 C   0  0  0  0  0  0  0  0  0  0  0  0
   -5.0258    0.3228  -21.7874 C   0  0  0  0  0  0  0  0  0  0  0  0
   -5.4542    0.0010  -20.4735 C   0  0  0  0  0  0  0  0  0  0  0  0
   -5.5773   -0.0661  -22.6370 H   0  0  0  0  0  0  0  0  0  0  0  0
   -3.6226    1.3730  -23.0058 H   0  0  0  0  0  0  0  0  0  0  0  0
   -2.3526    2.3027  -21.0870 H   0  0  0  0  0  0  0  0  0  0  0  0
   -3.0571    1.7742  -18.7731 H   0  0  0  0  0  0  0  0  0  0  0  0
   -4.6026    0.6277  -17.2162 H   0  0  0  0  0  0  0  0  0  0  0  0
   -7.7287   -1.6588  -18.5869 H   0  0  0  0  0  0  0  0  0  0  0  0
   -6.7963   -1.8997  -22.0376 H   0  0  0  0  0  0  0  0  0  0  0  0
   -8.0402   -2.2444  -20.8449 H   0  0  0  0  0  0  0  0  0  0  0  0
   -9.3956   -2.1683  -23.3966 C   0  0  0  0  0  0  0  0  0  0  0  0
  -10.6679   -2.7293  -22.7552 C   0  0  0  0  0  0  0  0  0  0  0  0
  -10.5873   -2.6368  -21.6682 H   0  0  0  0  0  0  0  0  0  0  0  0
  -10.7255   -3.8078  -22.9648 H   0  0  0  0  0  0  0  0  0  0  0  0
   -8.5313   -2.7917  -23.1574 H   0  0  0  0  0  0  0  0  0  0  0  0
   -9.5114   -2.2194  -24.4819 H   0  0  0  0  0  0  0  0  0  0  0  0
  -10.2457   -0.0760  -24.6326 H   0  0  0  0  0  0  0  0  0  0  0  0
   -9.5090    1.1775  -23.6540 H   0  0  0  0  0  0  0  0  0  0  0  0
  -11.5318    1.3299  -22.3864 H   0  0  0  0  0  0  0  0  0  0  0  0
  -13.0279   -0.4959  -22.0115 H   0  0  0  0  0  0  0  0  0  0  0  0
  -11.9087   -1.9537  -24.3101 H   0  0  0  0  0  0  0  0  0  0  0  0
  -13.1169   -3.9116  -23.3350 H   0  0  0  0  0  0  0  0  0  0  0  0
  -13.2658   -3.0787  -21.8128 H   0  0  0  0  0  0  0  0  0  0  0  0
  -14.1089   -2.4537  -23.2489 H   0  0  0  0  0  0  0  0  0  0  0  0
  1  2  1  0
  2  3  1  0
  3  4  2  0
  4  5  1  0
  5  6  1  0
  6  7  1  0
  7  8  2  0
  7  9  1  0
  9 10  1  0
 10 11  2  0
 11 12  1  0
 12 13  2  0
 13 14  1  0
 14 15  2  0
 15 16  1  0
 16 17  2  0
 17 18  1  0
 18 19  2  0
 18 20  1  0
 17 21  1  0
 16 22  1  0
 15 23  1  0
 13 24  1  0
 11 25  1  0
  9 26  1  0
  9 27  1  0
  6 28  1  0
 28 29  1  0
 29 30  1  0
 29 31  1  0
 28 32  1  0
 28 33  1  0
  5 34  1  0
  5 35  1  0
  4 36  1  0
  3 37  1  0
  2 38  1  6
  1 39  1  0
  1 40  1  0
  1 41  1  0
 29  2  1  0
 19 10  1  0
 19 14  1  0
M  END
>  <cnnaffinities>  (10) 
[4.51011, 4.98815]

>  <score>  (10) 
4.51011

>  <index>  (10) 
9

>  <Smiles>  (10) 
C([C@]1(C(=C(C(N(C(=O)C(c2c(nc(c3c(c(c(c(c23)[H])[H])[H])[H])[H])[H])([H])[H])C(C1([H])[H])([H])[H])([H])[H])[H])[H])[H])([H])([H])[H]

>  <h>  (10) 
<NA>

>  <Training>  (10) 
True

>  <Success>  (10) 
True

>  <enamine_searched>  (10) 
False

>  <enamine_id>  (10) 
nan

$$$$

     RDKit          3D

 57 62  0  0  0  0  0  0  0  0999 V2000
   -9.8551   -0.6521  -23.6918 C   0  0  0  0  0  0  0  0  0  0  0  0
   -8.5352   -1.0149  -23.0240 C   0  0  1  0  0  0  0  0  0  0  0  0
   -8.1871   -0.1178  -21.8331 C   0  0  0  0  0  0  0  0  0  0  0  0
   -7.2044   -0.9079  -21.1010 N   0  0  0  0  0  0  0  0  0  0  0  0
   -6.3607   -0.4422  -20.0659 C   0  0  0  0  0  0  0  0  0  0  0  0
   -6.6286   -0.7638  -18.7576 C   0  0  0  0  0  0  0  0  0  0  0  0
   -5.9107   -0.3210  -17.6948 N   0  0  0  0  0  0  0  0  0  0  0  0
   -4.8806    0.4486  -17.9482 C   0  0  0  0  0  0  0  0  0  0  0  0
   -4.4541    0.8026  -19.2574 C   0  0  0  0  0  0  0  0  0  0  0  0
   -3.2943    1.5916  -19.4575 C   0  0  0  0  0  0  0  0  0  0  0  0
   -2.8584    1.8768  -20.7203 C   0  0  0  0  0  0  0  0  0  0  0  0
   -3.5791    1.3977  -21.8374 C   0  0  0  0  0  0  0  0  0  0  0  0
   -4.7255    0.6574  -21.6677 C   0  0  0  0  0  0  0  0  0  0  0  0
   -5.2004    0.3456  -20.3637 C   0  0  0  0  0  0  0  0  0  0  0  0
   -5.2702    0.2977  -22.5338 H   0  0  0  0  0  0  0  0  0  0  0  0
   -3.2116    1.6078  -22.8377 H   0  0  0  0  0  0  0  0  0  0  0  0
   -1.9623    2.4726  -20.8711 H   0  0  0  0  0  0  0  0  0  0  0  0
   -2.7747    1.9518  -18.5743 H   0  0  0  0  0  0  0  0  0  0  0  0
   -4.2965    0.8203  -17.1055 H   0  0  0  0  0  0  0  0  0  0  0  0
   -7.4703   -1.4066  -18.5111 H   0  0  0  0  0  0  0  0  0  0  0  0
   -7.2631   -2.2471  -21.4141 C   0  0  0  0  0  0  0  0  0  0  0  0
   -6.5721   -3.1203  -20.9229 O   0  0  0  0  0  0  0  0  0  0  0  0
   -8.3822   -2.4527  -22.4279 C   0  0  1  0  0  0  0  0  0  0  0  0
   -9.6218   -2.9086  -21.6238 C   0  0  0  0  0  0  0  0  0  0  0  0
  -10.7021   -3.3575  -22.4819 N   0  0  0  0  0  0  0  0  0  0  0  0
  -12.0757   -3.3461  -21.9630 C   0  0  0  0  0  0  0  0  0  0  0  0
  -13.0331   -2.4643  -22.7112 C   0  0  0  0  0  0  0  0  0  0  0  0
  -13.5218   -1.2149  -22.5022 C   0  0  0  0  0  0  0  0  0  0  0  0
  -14.4069   -0.9554  -23.5338 N   0  0  0  0  0  4  0  0  0  0  0  0
  -14.4689   -2.0247  -24.3382 C   0  0  0  0  0  0  0  0  0  0  0  0
  -13.6554   -2.9608  -23.8355 N   0  0  0  0  0  0  0  0  0  0  0  0
  -13.5046   -3.9172  -24.1594 H   0  0  0  0  0  0  0  0  0  0  0  0
  -15.0427   -2.1138  -25.2513 H   0  0  0  0  0  0  0  0  0  0  0  0
  -14.9761   -0.1184  -23.5896 H   0  0  0  0  0  0  0  0  0  0  0  0
  -13.3567   -0.4759  -21.7205 H   0  0  0  0  0  0  0  0  0  0  0  0
  -12.4661   -4.3704  -22.0228 H   0  0  0  0  0  0  0  0  0  0  0  0
  -12.0463   -3.0287  -20.9219 H   0  0  0  0  0  0  0  0  0  0  0  0
  -10.4198   -4.2127  -23.5090 C   0  0  0  0  0  0  0  0  0  0  0  0
  -11.2612   -4.9423  -23.9938 O   0  0  0  0  0  0  0  0  0  0  0  0
   -9.0242   -4.2503  -24.0333 C   0  0  0  0  0  0  0  0  0  0  0  0
   -8.7541   -5.0905  -25.1151 C   0  0  0  0  0  0  0  0  0  0  0  0
   -7.4544   -5.2734  -25.5488 C   0  0  0  0  0  0  0  0  0  0  0  0
   -6.4425   -4.5761  -24.8932 C   0  0  0  0  0  0  0  0  0  0  0  0
   -5.1763   -4.7338  -25.3145 F   0  0  0  0  0  0  0  0  0  0  0  0
   -6.6896   -3.7287  -23.8316 C   0  0  0  0  0  0  0  0  0  0  0  0
   -8.0136   -3.5106  -23.4291 C   0  0  0  0  0  0  0  0  0  0  0  0
   -5.8624   -3.2580  -23.3132 H   0  0  0  0  0  0  0  0  0  0  0  0
   -7.2147   -5.9353  -26.3759 H   0  0  0  0  0  0  0  0  0  0  0  0
   -9.5876   -5.5863  -25.6053 H   0  0  0  0  0  0  0  0  0  0  0  0
   -9.3068   -3.7178  -20.9520 H   0  0  0  0  0  0  0  0  0  0  0  0
   -9.9853   -2.0744  -21.0144 H   0  0  0  0  0  0  0  0  0  0  0  0
   -7.7988    0.8556  -22.1432 H   0  0  0  0  0  0  0  0  0  0  0  0
   -9.0871    0.0504  -21.2242 H   0  0  0  0  0  0  0  0  0  0  0  0
   -7.7318   -0.9361  -23.7657 H   0  0  0  0  0  0  0  0  0  0  0  0
  -10.6863   -0.7850  -22.9948 H   0  0  0  0  0  0  0  0  0  0  0  0
  -10.0522   -1.2862  -24.5632 H   0  0  0  0  0  0  0  0  0  0  0  0
   -9.8469    0.3976  -24.0084 H   0  0  0  0  0  0  0  0  0  0  0  0
  1  2  1  0
  2  3  1  0
  3  4  1  0
  4  5  1  0
  5  6  2  0
  6  7  1  0
  7  8  2  0
  8  9  1  0
  9 10  2  0
 10 11  1  0
 11 12  2  0
 12 13  1  0
 13 14  2  0
 13 15  1  0
 12 16  1  0
 11 17  1  0
 10 18  1  0
  8 19  1  0
  6 20  1  0
  4 21  1  0
 21 22  2  0
 21 23  1  0
 23 24  1  1
 24 25  1  0
 25 26  1  0
 26 27  1  0
 27 28  2  0
 28 29  1  0
 29 30  2  0
 30 31  1  0
 31 32  1  0
 30 33  1  0
 29 34  1  0
 28 35  1  0
 26 36  1  0
 26 37  1  0
 25 38  1  0
 38 39  2  0
 38 40  1  0
 40 41  2  0
 41 42  1  0
 42 43  2  0
 43 44  1  0
 43 45  1  0
 45 46  2  0
 45 47  1  0
 42 48  1  0
 41 49  1  0
 24 50  1  0
 24 51  1  0
  3 52  1  0
  3 53  1  0
  2 54  1  6
  1 55  1  0
  1 56  1  0
  1 57  1  0
 23  2  1  0
 31 27  1  0
 46 40  1  0
 14  5  1  0
 46 23  1  0
 14  9  1  0
M  CHG  1  29   1
M  END
>  <cnnaffinities>  (11) 
[6.605]

>  <score>  (11) 
6.605

>  <index>  (11) 
10

>  <Smiles>  (11) 
C([C@]1(C(N(c2c(nc(c3c(c(c(c(c23)[H])[H])[H])[H])[H])[H])C(=O)[C@]21C(N(C(c1c([n+](c(n1[H])[H])[H])[H])([H])[H])C(=O)c1c(c(c(F)c(c21)[H])[H])[H])([H])[H])([H])[H])[H])([H])([H])[H]

>  <h>  (11) 
<NA>

>  <Training>  (11) 
True

>  <Success>  (11) 
True

>  <enamine_searched>  (11) 
False

>  <enamine_id>  (11) 
nan

$$$$

     RDKit          3D

 48 52  0  0  0  0  0  0  0  0999 V2000
   -9.6832   -0.9145  -23.9973 C   0  0  0  0  0  0  0  0  0  0  0  0
   -8.6744   -1.3837  -23.0714 N   0  0  0  0  0  0  0  0  0  0  0  0
   -8.4529   -0.7722  -21.8666 C   0  0  0  0  0  0  0  0  0  0  0  0
   -9.0643    0.1439  -21.3620 O   0  0  0  0  0  0  0  0  0  0  0  0
   -7.3453   -1.4208  -21.2984 N   0  0  0  0  0  0  0  0  0  0  0  0
   -6.5738   -0.8396  -20.2610 C   0  0  0  0  0  0  0  0  0  0  0  0
   -6.9361   -1.0701  -18.9647 C   0  0  0  0  0  0  0  0  0  0  0  0
   -6.2664   -0.5859  -17.8924 N   0  0  0  0  0  0  0  0  0  0  0  0
   -5.2211    0.1680  -18.1267 C   0  0  0  0  0  0  0  0  0  0  0  0
   -4.7447    0.4987  -19.4289 C   0  0  0  0  0  0  0  0  0  0  0  0
   -3.6068    1.3250  -19.6267 C   0  0  0  0  0  0  0  0  0  0  0  0
   -3.1943    1.6415  -20.8907 C   0  0  0  0  0  0  0  0  0  0  0  0
   -3.8981    1.1492  -22.0137 C   0  0  0  0  0  0  0  0  0  0  0  0
   -5.0003    0.3497  -21.8492 C   0  0  0  0  0  0  0  0  0  0  0  0
   -5.4448   -0.0066  -20.5439 C   0  0  0  0  0  0  0  0  0  0  0  0
   -5.5459   -0.0024  -22.7188 H   0  0  0  0  0  0  0  0  0  0  0  0
   -3.5664    1.4134  -23.0140 H   0  0  0  0  0  0  0  0  0  0  0  0
   -2.3314    2.2842  -21.0420 H   0  0  0  0  0  0  0  0  0  0  0  0
   -3.0929    1.7130  -18.7515 H   0  0  0  0  0  0  0  0  0  0  0  0
   -4.6898    0.5551  -17.2577 H   0  0  0  0  0  0  0  0  0  0  0  0
   -7.8054   -1.6879  -18.7569 H   0  0  0  0  0  0  0  0  0  0  0  0
   -6.9119   -2.4989  -22.0635 C   0  0  0  0  0  0  0  0  0  0  0  0
   -6.0125   -3.2475  -21.7835 O   0  0  0  0  0  0  0  0  0  0  0  0
   -7.7771   -2.4870  -23.3085 C   0  0  0  0  0  0  0  0  0  0  0  0
   -6.9429   -2.5242  -24.6013 C   0  0  0  0  0  0  0  0  0  0  0  0
   -7.5150   -3.8594  -24.9363 N   0  0  0  0  0  0  0  0  0  0  0  0
   -8.2287   -3.8607  -26.4677 S   0  0  0  0  0  0  0  0  0  0  0  0
   -9.2932   -2.8587  -26.4923 O   0  0  0  0  0  0  0  0  0  0  0  0
   -7.1237   -3.7675  -27.4014 O   0  0  0  0  0  0  0  0  0  0  0  0
   -9.0113   -5.4614  -26.5354 C   0  0  0  0  0  0  0  0  0  0  0  0
   -8.6623   -6.5468  -25.7297 C   0  0  0  0  0  0  0  0  0  0  0  0
   -9.4586   -7.6884  -25.7636 C   0  0  0  0  0  0  0  0  0  0  0  0
  -10.5354   -7.7559  -26.6420 C   0  0  0  0  0  0  0  0  0  0  0  0
  -10.8569   -6.6862  -27.4699 C   0  0  0  0  0  0  0  0  0  0  0  0
  -10.0891   -5.5316  -27.4174 C   0  0  0  0  0  0  0  0  0  0  0  0
  -10.3172   -4.6676  -28.0274 H   0  0  0  0  0  0  0  0  0  0  0  0
  -11.6865   -6.7736  -28.1672 H   0  0  0  0  0  0  0  0  0  0  0  0
  -11.1001   -8.6731  -26.7332 H   0  0  0  0  0  0  0  0  0  0  0  0
   -9.2002   -8.5540  -25.1509 H   0  0  0  0  0  0  0  0  0  0  0  0
   -7.7990   -6.4961  -25.0689 H   0  0  0  0  0  0  0  0  0  0  0  0
   -8.3796   -3.8452  -23.7288 C   0  0  0  0  0  0  0  0  0  0  0  0
   -9.4594   -3.8474  -23.9180 H   0  0  0  0  0  0  0  0  0  0  0  0
   -8.1105   -4.6565  -23.0495 H   0  0  0  0  0  0  0  0  0  0  0  0
   -5.8647   -2.5883  -24.4550 H   0  0  0  0  0  0  0  0  0  0  0  0
   -7.1868   -1.7412  -25.3214 H   0  0  0  0  0  0  0  0  0  0  0  0
   -9.2335   -0.5043  -24.9068 H   0  0  0  0  0  0  0  0  0  0  0  0
  -10.3651   -1.7224  -24.2743 H   0  0  0  0  0  0  0  0  0  0  0  0
  -10.2339   -0.1262  -23.4823 H   0  0  0  0  0  0  0  0  0  0  0  0
  1  2  1  0
  2  3  1  0
  3  4  2  0
  3  5  1  0
  5  6  1  0
  6  7  2  0
  7  8  1  0
  8  9  2  0
  9 10  1  0
 10 11  2  0
 11 12  1  0
 12 13  2  0
 13 14  1  0
 14 15  2  0
 14 16  1  0
 13 17  1  0
 12 18  1  0
 11 19  1  0
  9 20  1  0
  7 21  1  0
  5 22  1  0
 22 23  2  0
 22 24  1  0
 24 25  1  0
 25 26  1  0
 26 27  1  0
 27 28  2  0
 27 29  2  0
 27 30  1  0
 30 31  2  0
 31 32  1  0
 32 33  2  0
 33 34  1  0
 34 35  2  0
 35 36  1  0
 34 37  1  0
 33 38  1  0
 32 39  1  0
 31 40  1  0
 26 41  1  0
 41 42  1  0
 41 43  1  0
 25 44  1  0
 25 45  1  0
  1 46  1  0
  1 47  1  0
  1 48  1  0
 24  2  1  0
 35 30  1  0
 15  6  1  0
 41 24  1  0
 15 10  1  0
M  END
>  <cnnaffinities>  (12) 
[5.39927, 5.40808]

>  <score>  (12) 
5.39927

>  <index>  (12) 
11

>  <Smiles>  (12) 
C(N1C(=O)N(c2c(nc(c3c(c(c(c(c23)[H])[H])[H])[H])[H])[H])C(=O)C21C(N(S(=O)(=O)c1c(c(c(c(c1[H])[H])[H])[H])[H])C2([H])[H])([H])[H])([H])([H])[H]

>  <h>  (12) 
<NA>

>  <Training>  (12) 
True

>  <Success>  (12) 
True

>  <enamine_searched>  (12) 
False

>  <enamine_id>  (12) 
nan

$$$$

     RDKit          3D

 76 82  0  0  0  0  0  0  0  0999 V2000
  -11.3935    1.5091  -24.1158 O   0  0  0  0  0  0  0  0  0  0  0  0
  -10.7497    0.4939  -23.8896 C   0  0  0  0  0  0  0  0  0  0  0  0
  -11.3865   -0.7332  -23.2909 C   0  0  0  0  0  0  0  0  0  0  0  0
  -12.7775   -0.7573  -23.2255 C   0  0  0  0  0  0  0  0  0  0  0  0
  -13.4298   -1.8460  -22.6816 C   0  0  0  0  0  0  0  0  0  0  0  0
  -12.6696   -2.9069  -22.1917 C   0  0  0  0  0  0  0  0  0  0  0  0
  -13.4886   -4.2673  -21.4747 Cl  0  0  0  0  0  0  0  0  0  0  0  0
  -11.2860   -2.8976  -22.2421 C   0  0  0  0  0  0  0  0  0  0  0  0
  -10.6151   -1.8044  -22.8041 C   0  0  0  0  0  0  0  0  0  0  0  0
   -9.1023   -1.6860  -22.8231 C   0  0  1  0  0  0  0  0  0  0  0  0
   -8.7544   -0.9015  -24.1117 C   0  0  0  0  0  0  0  0  0  0  0  0
   -9.4187    0.3843  -24.1619 N   0  0  0  0  0  0  0  0  0  0  0  0
   -8.6597    1.5697  -24.5091 C   0  0  0  0  0  0  0  0  0  0  0  0
   -8.0773    2.2270  -23.2597 C   0  0  0  0  0  0  0  0  0  0  0  0
   -7.2558    3.4340  -23.5280 N   0  0  0  0  0  4  0  0  0  0  0  0
   -6.0598    3.1672  -24.4283 C   0  0  0  0  0  0  0  0  0  0  0  0
   -5.0227    4.2832  -24.2487 C   0  0  0  0  0  0  0  0  0  0  0  0
   -5.6666    5.4755  -23.8588 O   0  0  0  0  0  0  0  0  0  0  0  0
   -6.0946    5.4017  -22.5138 C   0  0  0  0  0  0  0  0  0  0  0  0
   -6.8438    4.0866  -22.2357 C   0  0  0  0  0  0  0  0  0  0  0  0
   -7.7405    4.2631  -21.6339 H   0  0  0  0  0  0  0  0  0  0  0  0
   -6.2097    3.3782  -21.6884 H   0  0  0  0  0  0  0  0  0  0  0  0
   -5.2360    5.4824  -21.8270 H   0  0  0  0  0  0  0  0  0  0  0  0
   -6.7288    6.2783  -22.3592 H   0  0  0  0  0  0  0  0  0  0  0  0
   -4.2627    3.9919  -23.5046 H   0  0  0  0  0  0  0  0  0  0  0  0
   -4.5084    4.4967  -25.1904 H   0  0  0  0  0  0  0  0  0  0  0  0
   -6.4128    3.1446  -25.4611 H   0  0  0  0  0  0  0  0  0  0  0  0
   -5.6390    2.1883  -24.1822 H   0  0  0  0  0  0  0  0  0  0  0  0
   -7.8503    4.1270  -24.0212 H   0  0  0  0  0  0  0  0  0  0  0  0
   -7.4536    1.4987  -22.7287 H   0  0  0  0  0  0  0  0  0  0  0  0
   -8.8893    2.4964  -22.5766 H   0  0  0  0  0  0  0  0  0  0  0  0
   -9.3373    2.2443  -25.0349 H   0  0  0  0  0  0  0  0  0  0  0  0
   -7.8598    1.2618  -25.1934 H   0  0  0  0  0  0  0  0  0  0  0  0
   -9.0747   -1.5133  -24.9628 H   0  0  0  0  0  0  0  0  0  0  0  0
   -7.6753   -0.7345  -24.1705 H   0  0  0  0  0  0  0  0  0  0  0  0
   -8.5979   -0.9094  -21.5834 C   0  0  0  0  0  0  0  0  0  0  0  0
   -9.1497    0.0279  -21.0283 O   0  0  0  0  0  0  0  0  0  0  0  0
   -7.3842   -1.4322  -21.2075 N   0  0  0  0  0  0  0  0  0  0  0  0
   -6.6004   -0.8319  -20.1883 C   0  0  0  0  0  0  0  0  0  0  0  0
   -6.9163   -1.0534  -18.8721 C   0  0  0  0  0  0  0  0  0  0  0  0
   -6.2160   -0.5588  -17.8222 N   0  0  0  0  0  0  0  0  0  0  0  0
   -5.1833    0.2035  -18.0896 C   0  0  0  0  0  0  0  0  0  0  0  0
   -4.7427    0.5181  -19.4074 C   0  0  0  0  0  0  0  0  0  0  0  0
   -3.6123    1.3458  -19.6412 C   0  0  0  0  0  0  0  0  0  0  0  0
   -3.2119    1.6350  -20.9162 C   0  0  0  0  0  0  0  0  0  0  0  0
   -3.9263    1.1136  -22.0174 C   0  0  0  0  0  0  0  0  0  0  0  0
   -5.0268    0.3104  -21.8189 C   0  0  0  0  0  0  0  0  0  0  0  0
   -5.4653   -0.0150  -20.5026 C   0  0  0  0  0  0  0  0  0  0  0  0
   -5.5693   -0.0783  -22.6764 H   0  0  0  0  0  0  0  0  0  0  0  0
   -3.6001    1.3480  -23.0275 H   0  0  0  0  0  0  0  0  0  0  0  0
   -2.3521    2.2778  -21.0850 H   0  0  0  0  0  0  0  0  0  0  0  0
   -3.0883    1.7534  -18.7808 H   0  0  0  0  0  0  0  0  0  0  0  0
   -4.6271    0.6108  -17.2428 H   0  0  0  0  0  0  0  0  0  0  0  0
   -7.7757   -1.6709  -18.6206 H   0  0  0  0  0  0  0  0  0  0  0  0
   -6.9785   -2.5923  -21.9835 C   0  0  0  0  0  0  0  0  0  0  0  0
   -8.2777   -2.9983  -22.6991 C   0  0  2  0  0  0  0  0  0  0  0  0
   -8.0896   -3.8873  -23.9388 C   0  0  0  0  0  0  0  0  0  0  0  0
   -7.1656   -3.3967  -24.9460 N   0  0  0  0  0  0  0  0  0  0  0  0
   -7.4375   -3.3670  -26.2812 C   0  0  0  0  0  0  0  0  0  0  0  0
   -6.3983   -3.0053  -27.0676 N   0  0  0  0  0  0  0  0  0  0  0  0
   -6.7099   -2.7427  -28.3292 C   0  0  0  0  0  0  0  0  0  0  0  0
   -8.0034   -2.8726  -28.8323 C   0  0  0  0  0  0  0  0  0  0  0  0
   -8.9351   -3.4485  -27.9846 C   0  0  0  0  0  0  0  0  0  0  0  0
   -8.6739   -3.6773  -26.6898 N   0  0  0  0  0  0  0  0  0  0  0  0
   -9.9356   -3.7125  -28.3413 H   0  0  0  0  0  0  0  0  0  0  0  0
   -8.2665   -2.5050  -29.8163 H   0  0  0  0  0  0  0  0  0  0  0  0
   -5.8799   -2.3884  -28.9468 H   0  0  0  0  0  0  0  0  0  0  0  0
   -6.1864   -3.2949  -24.7359 H   0  0  0  0  0  0  0  0  0  0  0  0
   -7.7623   -4.8813  -23.6119 H   0  0  0  0  0  0  0  0  0  0  0  0
   -9.0466   -4.0082  -24.4454 H   0  0  0  0  0  0  0  0  0  0  0  0
   -8.8291   -3.6133  -21.9831 H   0  0  0  0  0  0  0  0  0  0  0  0
   -6.1765   -2.3300  -22.6859 H   0  0  0  0  0  0  0  0  0  0  0  0
   -6.6041   -3.3841  -21.3253 H   0  0  0  0  0  0  0  0  0  0  0  0
  -10.7515   -3.7452  -21.8279 H   0  0  0  0  0  0  0  0  0  0  0  0
  -14.5108   -1.8825  -22.6200 H   0  0  0  0  0  0  0  0  0  0  0  0
  -13.3171    0.1038  -23.6075 H   0  0  0  0  0  0  0  0  0  0  0  0
  1  2  2  0
  2  3  1  0
  3  4  2  0
  4  5  1  0
  5  6  2  0
  6  7  1  0
  6  8  1  0
  8  9  2  0
  9 10  1  0
 10 11  1  6
 11 12  1  0
 12 13  1  0
 13 14  1  0
 14 15  1  0
 15 16  1  0
 16 17  1  0
 17 18  1  0
 18 19  1  0
 19 20  1  0
 20 21  1  0
 20 22  1  0
 19 23  1  0
 19 24  1  0
 17 25  1  0
 17 26  1  0
 16 27  1  0
 16 28  1  0
 15 29  1  0
 14 30  1  0
 14 31  1  0
 13 32  1  0
 13 33  1  0
 11 34  1  0
 11 35  1  0
 10 36  1  0
 36 37  2  0
 36 38  1  0
 38 39  1  0
 39 40  2  0
 40 41  1  0
 41 42  2  0
 42 43  1  0
 43 44  2  0
 44 45  1  0
 45 46  2  0
 46 47  1  0
 47 48  2  0
 47 49  1  0
 46 50  1  0
 45 51  1  0
 44 52  1  0
 42 53  1  0
 40 54  1  0
 38 55  1  0
 55 56  1  0
 56 57  1  0
 57 58  1  0
 58 59  1  0
 59 60  2  0
 60 61  1  0
 61 62  2  0
 62 63  1  0
 63 64  2  0
 63 65  1  0
 62 66  1  0
 61 67  1  0
 58 68  1  0
 57 69  1  0
 57 70  1  0
 56 71  1  1
 55 72  1  0
 55 73  1  0
  8 74  1  0
  5 75  1  0
  4 76  1  0
 12  2  1  0
 20 15  1  0
 48 39  1  0
 64 59  1  0
  9  3  1  0
 56 10  1  0
 48 43  1  0
M  CHG  1  15   1
M  END
>  <cnnaffinities>  (13) 
[6.33059]

>  <score>  (13) 
6.33059

>  <index>  (13) 
12

>  <Smiles>  (13) 
O=C1c2c(c(c(Cl)c(c2[C@@]2(C(N1C(C([N+]1(C(C(OC(C1([H])[H])([H])[H])([H])[H])([H])[H])[H])([H])[H])([H])[H])([H])[H])C(=O)N(c1c(nc(c3c(c(c(c(c13)[H])[H])[H])[H])[H])[H])C([C@@]2(C(N(c1nc(c(c(n1)[H])[H])[H])[H])([H])[H])[H])([H])[H])[H])[H])[H]

>  <h>  (13) 
<NA>

>  <Training>  (13) 
True

>  <Success>  (13) 
True

>  <enamine_searched>  (13) 
False

>  <enamine_id>  (13) 
nan

$$$$

     RDKit          3D

 69 74  0  0  0  0  0  0  0  0999 V2000
   -7.4714    3.3805  -21.8438 C   0  0  0  0  0  0  0  0  0  0  0  0
   -8.4868    2.9055  -22.7699 N   0  0  0  0  0  0  0  0  0  0  0  0
   -8.0463    2.1482  -23.8170 C   0  0  0  0  0  0  0  0  0  0  0  0
   -6.8617    1.9325  -24.0140 O   0  0  0  0  0  0  0  0  0  0  0  0
   -9.1199    1.5718  -24.7346 C   0  0  0  0  0  0  0  0  0  0  0  0
   -9.7174    0.3994  -24.1280 N   0  0  0  0  0  0  0  0  0  0  0  0
   -8.9363   -0.8271  -24.0689 C   0  0  0  0  0  0  0  0  0  0  0  0
   -9.2042   -1.6051  -22.7597 C   0  0  2  0  0  0  0  0  0  0  0  0
   -8.6266   -0.8109  -21.5586 C   0  0  0  0  0  0  0  0  0  0  0  0
   -9.1069    0.1679  -21.0231 O   0  0  0  0  0  0  0  0  0  0  0  0
   -7.4288   -1.3855  -21.2022 N   0  0  0  0  0  0  0  0  0  0  0  0
   -6.6216   -0.8174  -20.1878 C   0  0  0  0  0  0  0  0  0  0  0  0
   -6.9345   -1.0508  -18.8735 C   0  0  0  0  0  0  0  0  0  0  0  0
   -6.2261   -0.5758  -17.8231 N   0  0  0  0  0  0  0  0  0  0  0  0
   -5.1886    0.1800  -18.0903 C   0  0  0  0  0  0  0  0  0  0  0  0
   -4.7557    0.5067  -19.4068 C   0  0  0  0  0  0  0  0  0  0  0  0
   -3.6282    1.3362  -19.6427 C   0  0  0  0  0  0  0  0  0  0  0  0
   -3.2459    1.6443  -20.9177 C   0  0  0  0  0  0  0  0  0  0  0  0
   -3.9716    1.1398  -22.0193 C   0  0  0  0  0  0  0  0  0  0  0  0
   -5.0733    0.3400  -21.8206 C   0  0  0  0  0  0  0  0  0  0  0  0
   -5.4896   -0.0040  -20.5046 C   0  0  0  0  0  0  0  0  0  0  0  0
   -5.6396   -0.0051  -22.6806 H   0  0  0  0  0  0  0  0  0  0  0  0
   -3.6608    1.3909  -23.0291 H   0  0  0  0  0  0  0  0  0  0  0  0
   -2.3866    2.2857  -21.0909 H   0  0  0  0  0  0  0  0  0  0  0  0
   -3.0939    1.7298  -18.7814 H   0  0  0  0  0  0  0  0  0  0  0  0
   -4.6248    0.5752  -17.2437 H   0  0  0  0  0  0  0  0  0  0  0  0
   -7.8011   -1.6615  -18.6334 H   0  0  0  0  0  0  0  0  0  0  0  0
   -7.0768   -2.5568  -21.9792 C   0  0  0  0  0  0  0  0  0  0  0  0
   -8.3845   -2.9314  -22.6946 C   0  0  2  0  0  0  0  0  0  0  0  0
   -8.0939   -3.7017  -23.9890 C   0  0  0  0  0  0  0  0  0  0  0  0
   -9.2868   -4.2887  -24.5508 N   0  0  0  0  0  0  0  0  0  0  0  0
   -9.2854   -4.9613  -25.7430 C   0  0  0  0  0  0  0  0  0  0  0  0
  -10.4425   -5.6181  -26.2063 C   0  0  0  0  0  0  0  0  0  0  0  0
  -10.4207   -6.0324  -27.5175 C   0  0  0  0  0  0  0  0  0  0  0  0
   -9.3211   -5.9912  -28.2851 N   0  0  0  0  0  0  0  0  0  0  0  0
   -8.2130   -5.5564  -27.6783 C   0  0  0  0  0  0  0  0  0  0  0  0
   -6.9195   -5.7912  -28.4367 C   0  0  0  0  0  0  0  0  0  0  0  0
   -7.1285   -5.7453  -29.5127 H   0  0  0  0  0  0  0  0  0  0  0  0
   -6.5581   -6.8117  -28.2197 H   0  0  0  0  0  0  0  0  0  0  0  0
   -6.1275   -5.0783  -28.1716 H   0  0  0  0  0  0  0  0  0  0  0  0
   -8.1462   -5.0012  -26.4556 N   0  0  0  0  0  0  0  0  0  0  0  0
  -11.3290   -6.4236  -27.9822 H   0  0  0  0  0  0  0  0  0  0  0  0
  -11.3027   -5.8105  -25.5693 H   0  0  0  0  0  0  0  0  0  0  0  0
  -10.1731   -3.9812  -24.1683 H   0  0  0  0  0  0  0  0  0  0  0  0
   -7.3840   -4.5050  -23.7652 H   0  0  0  0  0  0  0  0  0  0  0  0
   -7.5886   -3.0596  -24.7246 H   0  0  0  0  0  0  0  0  0  0  0  0
   -8.9384   -3.6159  -22.0441 H   0  0  0  0  0  0  0  0  0  0  0  0
   -6.2757   -2.3384  -22.7050 H   0  0  0  0  0  0  0  0  0  0  0  0
   -6.7241   -3.3662  -21.3318 H   0  0  0  0  0  0  0  0  0  0  0  0
  -10.7078   -1.7529  -22.6191 C   0  0  0  0  0  0  0  0  0  0  0  0
  -11.2696   -2.7625  -21.8343 C   0  0  0  0  0  0  0  0  0  0  0  0
  -12.6417   -2.8603  -21.6986 C   0  0  0  0  0  0  0  0  0  0  0  0
  -13.2844   -4.0866  -20.6493 Cl  0  0  0  0  0  0  0  0  0  0  0  0
  -13.5126   -1.9776  -22.3333 C   0  0  0  0  0  0  0  0  0  0  0  0
  -12.9636   -0.9281  -23.0419 C   0  0  0  0  0  0  0  0  0  0  0  0
  -11.5826   -0.8051  -23.1730 C   0  0  0  0  0  0  0  0  0  0  0  0
  -11.0622    0.4028  -23.8868 C   0  0  0  0  0  0  0  0  0  0  0  0
  -11.7863    1.3336  -24.2156 O   0  0  0  0  0  0  0  0  0  0  0  0
  -13.5764   -0.1602  -23.4985 H   0  0  0  0  0  0  0  0  0  0  0  0
  -14.5838   -2.1141  -22.2461 H   0  0  0  0  0  0  0  0  0  0  0  0
  -10.6613   -3.4558  -21.2662 H   0  0  0  0  0  0  0  0  0  0  0  0
   -7.8771   -0.5672  -24.1535 H   0  0  0  0  0  0  0  0  0  0  0  0
   -9.1891   -1.4764  -24.9192 H   0  0  0  0  0  0  0  0  0  0  0  0
   -8.6544    1.3029  -25.6905 H   0  0  0  0  0  0  0  0  0  0  0  0
   -9.9273    2.2862  -24.9197 H   0  0  0  0  0  0  0  0  0  0  0  0
   -9.4023    2.6912  -22.3879 H   0  0  0  0  0  0  0  0  0  0  0  0
   -7.0873    2.5578  -21.2136 H   0  0  0  0  0  0  0  0  0  0  0  0
   -6.6462    3.7817  -22.4374 H   0  0  0  0  0  0  0  0  0  0  0  0
   -7.8799    4.1962  -21.2412 H   0  0  0  0  0  0  0  0  0  0  0  0
  1  2  1  0
  2  3  1  0
  3  4  2  0
  3  5  1  0
  5  6  1  0
  6  7  1  0
  8  7  1  6
  8  9  1  0
  9 10  2  0
  9 11  1  0
 11 12  1  0
 12 13  2  0
 13 14  1  0
 14 15  2  0
 15 16  1  0
 16 17  2  0
 17 18  1  0
 18 19  2  0
 19 20  1  0
 20 21  2  0
 20 22  1  0
 19 23  1  0
 18 24  1  0
 17 25  1  0
 15 26  1  0
 13 27  1  0
 11 28  1  0
 28 29  1  0
 29 30  1  0
 30 31  1  0
 31 32  1  0
 32 33  2  0
 33 34  1  0
 34 35  2  0
 35 36  1  0
 36 37  1  0
 37 38  1  0
 37 39  1  0
 37 40  1  0
 36 41  2  0
 34 42  1  0
 33 43  1  0
 31 44  1  0
 30 45  1  0
 30 46  1  0
 29 47  1  1
 28 48  1  0
 28 49  1  0
  8 50  1  0
 50 51  2  0
 51 52  1  0
 52 53  1  0
 52 54  2  0
 54 55  1  0
 55 56  2  0
 56 57  1  0
 57 58  2  0
 55 59  1  0
 54 60  1  0
 51 61  1  0
  7 62  1  0
  7 63  1  0
  5 64  1  0
  5 65  1  0
  2 66  1  0
  1 67  1  0
  1 68  1  0
  1 69  1  0
 57  6  1  0
 29  8  1  0
 41 32  1  0
 56 50  1  0
 21 12  1  0
 21 16  1  0
M  END
>  <cnnaffinities>  (14) 
[6.0885, 6.37902]

>  <score>  (14) 
6.0885

>  <index>  (14) 
13

>  <Smiles>  (14) 
C(N(C(=O)C(N1C([C@@]2(C(=O)N(c3c(nc(c4c(c(c(c(c34)[H])[H])[H])[H])[H])[H])C([C@@]2(C(N(c2c(c(nc(C([H])([H])[H])n2)[H])[H])[H])([H])[H])[H])([H])[H])c2c(c(Cl)c(c(c2C1=O)[H])[H])[H])([H])[H])([H])[H])[H])([H])([H])[H]

>  <h>  (14) 
<NA>

>  <Training>  (14) 
True

>  <Success>  (14) 
True

>  <enamine_searched>  (14) 
False

>  <enamine_id>  (14) 
nan

$$$$

     RDKit          3D

 73 78  0  0  0  0  0  0  0  0999 V2000
   -7.9432   -3.7514  -24.0050 C   0  0  0  0  0  0  0  0  0  0  0  0
   -8.2979   -2.8754  -22.7992 C   0  0  1  0  0  0  0  0  0  0  0  0
   -7.1005   -2.6539  -21.8501 C   0  0  0  0  0  0  0  0  0  0  0  0
   -7.4068   -1.3929  -21.2012 N   0  0  0  0  0  0  0  0  0  0  0  0
   -6.6045   -0.8122  -20.1800 C   0  0  0  0  0  0  0  0  0  0  0  0
   -6.9005   -1.0520  -18.8646 C   0  0  0  0  0  0  0  0  0  0  0  0
   -6.1939   -0.5618  -17.8163 N   0  0  0  0  0  0  0  0  0  0  0  0
   -5.1674    0.2092  -18.0823 C   0  0  0  0  0  0  0  0  0  0  0  0
   -4.7351    0.5354  -19.4002 C   0  0  0  0  0  0  0  0  0  0  0  0
   -3.6057    1.3656  -19.6445 C   0  0  0  0  0  0  0  0  0  0  0  0
   -3.2166    1.6580  -20.9232 C   0  0  0  0  0  0  0  0  0  0  0  0
   -3.9344    1.1278  -22.0182 C   0  0  0  0  0  0  0  0  0  0  0  0
   -5.0292    0.3231  -21.8063 C   0  0  0  0  0  0  0  0  0  0  0  0
   -5.4700    0.0074  -20.4899 C   0  0  0  0  0  0  0  0  0  0  0  0
   -5.5657   -0.0861  -22.6560 H   0  0  0  0  0  0  0  0  0  0  0  0
   -3.6352    1.3777  -23.0327 H   0  0  0  0  0  0  0  0  0  0  0  0
   -2.3657    2.3097  -21.0995 H   0  0  0  0  0  0  0  0  0  0  0  0
   -3.0761    1.7769  -18.7890 H   0  0  0  0  0  0  0  0  0  0  0  0
   -4.6205    0.6171  -17.2306 H   0  0  0  0  0  0  0  0  0  0  0  0
   -7.7534   -1.6745  -18.6040 H   0  0  0  0  0  0  0  0  0  0  0  0
   -8.3913   -0.6649  -21.8339 C   0  0  0  0  0  0  0  0  0  0  0  0
   -8.8026    0.4056  -21.4399 O   0  0  0  0  0  0  0  0  0  0  0  0
   -8.8406   -1.4420  -23.1013 C   0  0  1  0  0  0  0  0  0  0  0  0
   -8.1547   -0.8415  -24.3604 C   0  0  0  0  0  0  0  0  0  0  0  0
   -8.5996    0.5093  -24.6290 N   0  0  0  0  0  0  0  0  0  0  0  0
   -7.6386    1.5719  -24.8905 C   0  0  0  0  0  0  0  0  0  0  0  0
   -7.5127    2.5185  -23.6946 C   0  0  0  0  0  0  0  0  0  0  0  0
   -6.4221    3.5565  -23.8585 N   0  0  0  0  0  4  0  0  0  0  0  0
   -6.7545    4.6777  -24.8357 C   0  0  0  0  0  0  0  0  0  0  0  0
   -7.7587    5.6773  -24.2572 C   0  0  0  0  0  0  0  0  0  0  0  0
   -7.3556    6.1559  -22.9357 N   0  0  0  0  0  0  0  0  0  0  0  0
   -6.5499    7.5992  -22.8293 S   0  0  0  0  0  0  0  0  0  0  0  0
   -6.0343    7.6817  -21.4765 O   0  0  0  0  0  0  0  0  0  0  0  0
   -7.4114    8.6215  -23.3945 O   0  0  0  0  0  0  0  0  0  0  0  0
   -5.1463    7.5258  -23.9316 C   0  0  0  0  0  0  0  0  0  0  0  0
   -5.5136    7.5009  -24.9622 H   0  0  0  0  0  0  0  0  0  0  0  0
   -4.5147    6.6690  -23.6903 H   0  0  0  0  0  0  0  0  0  0  0  0
   -4.6080    8.4635  -23.7597 H   0  0  0  0  0  0  0  0  0  0  0  0
   -7.0464    5.0938  -21.9742 C   0  0  0  0  0  0  0  0  0  0  0  0
   -5.9876    4.1513  -22.5331 C   0  0  0  0  0  0  0  0  0  0  0  0
   -5.0611    4.7039  -22.7080 H   0  0  0  0  0  0  0  0  0  0  0  0
   -5.7770    3.3315  -21.8408 H   0  0  0  0  0  0  0  0  0  0  0  0
   -7.9794    4.5507  -21.7908 H   0  0  0  0  0  0  0  0  0  0  0  0
   -6.7259    5.5567  -21.0420 H   0  0  0  0  0  0  0  0  0  0  0  0
   -8.7363    5.2030  -24.1329 H   0  0  0  0  0  0  0  0  0  0  0  0
   -7.8925    6.5381  -24.9160 H   0  0  0  0  0  0  0  0  0  0  0  0
   -7.1490    4.2443  -25.7533 H   0  0  0  0  0  0  0  0  0  0  0  0
   -5.8187    5.1863  -25.0783 H   0  0  0  0  0  0  0  0  0  0  0  0
   -5.5902    3.0551  -24.2229 H   0  0  0  0  0  0  0  0  0  0  0  0
   -7.2841    1.9434  -22.7926 H   0  0  0  0  0  0  0  0  0  0  0  0
   -8.4705    3.0199  -23.5410 H   0  0  0  0  0  0  0  0  0  0  0  0
   -6.6653    1.1097  -25.0939 H   0  0  0  0  0  0  0  0  0  0  0  0
   -7.9560    2.1138  -25.7853 H   0  0  0  0  0  0  0  0  0  0  0  0
   -9.9347    0.7930  -24.6838 C   0  0  0  0  0  0  0  0  0  0  0  0
  -10.3691    1.8206  -25.1945 O   0  0  0  0  0  0  0  0  0  0  0  0
  -10.8509   -0.2255  -24.0478 C   0  0  0  0  0  0  0  0  0  0  0  0
  -12.2296   -0.0454  -24.1663 C   0  0  0  0  0  0  0  0  0  0  0  0
  -13.1167   -0.9084  -23.5572 C   0  0  0  0  0  0  0  0  0  0  0  0
  -12.6109   -1.9309  -22.7589 C   0  0  0  0  0  0  0  0  0  0  0  0
  -13.7254   -2.9637  -21.9109 Cl  0  0  0  0  0  0  0  0  0  0  0  0
  -11.2487   -2.1185  -22.6061 C   0  0  0  0  0  0  0  0  0  0  0  0
  -10.3424   -1.2945  -23.2888 C   0  0  0  0  0  0  0  0  0  0  0  0
  -10.9149   -2.8946  -21.9254 H   0  0  0  0  0  0  0  0  0  0  0  0
  -14.1870   -0.7770  -23.6681 H   0  0  0  0  0  0  0  0  0  0  0  0
  -12.5977    0.8146  -24.7068 H   0  0  0  0  0  0  0  0  0  0  0  0
   -8.3806   -1.4913  -25.2212 H   0  0  0  0  0  0  0  0  0  0  0  0
   -7.0690   -0.8200  -24.2131 H   0  0  0  0  0  0  0  0  0  0  0  0
   -6.1521   -2.6056  -22.4104 H   0  0  0  0  0  0  0  0  0  0  0  0
   -6.9965   -3.4527  -21.1076 H   0  0  0  0  0  0  0  0  0  0  0  0
   -9.0734   -3.3831  -22.2191 H   0  0  0  0  0  0  0  0  0  0  0  0
   -7.0900   -3.3403  -24.5585 H   0  0  0  0  0  0  0  0  0  0  0  0
   -7.6636   -4.7618  -23.6869 H   0  0  0  0  0  0  0  0  0  0  0  0
   -8.7809   -3.8412  -24.7056 H   0  0  0  0  0  0  0  0  0  0  0  0
  1  2  1  0
  2  3  1  0
  3  4  1  0
  4  5  1  0
  5  6  2  0
  6  7  1  0
  7  8  2  0
  8  9  1  0
  9 10  2  0
 10 11  1  0
 11 12  2  0
 12 13  1  0
 13 14  2  0
 13 15  1  0
 12 16  1  0
 11 17  1  0
 10 18  1  0
  8 19  1  0
  6 20  1  0
  4 21  1  0
 21 22  2  0
 21 23  1  0
 23 24  1  6
 24 25  1  0
 25 26  1  0
 26 27  1  0
 27 28  1  0
 28 29  1  0
 29 30  1  0
 30 31  1  0
 31 32  1  0
 32 33  2  0
 32 34  2  0
 32 35  1  0
 35 36  1  0
 35 37  1  0
 35 38  1  0
 31 39  1  0
 39 40  1  0
 40 41  1  0
 40 42  1  0
 39 43  1  0
 39 44  1  0
 30 45  1  0
 30 46  1  0
 29 47  1  0
 29 48  1  0
 28 49  1  0
 27 50  1  0
 27 51  1  0
 26 52  1  0
 26 53  1  0
 25 54  1  0
 54 55  2  0
 54 56  1  0
 56 57  2  0
 57 58  1  0
 58 59  2  0
 59 60  1  0
 59 61  1  0
 61 62  2  0
 61 63  1  0
 58 64  1  0
 57 65  1  0
 24 66  1  0
 24 67  1  0
  3 68  1  0
  3 69  1  0
  2 70  1  1
  1 71  1  0
  1 72  1  0
  1 73  1  0
 23  2  1  0
 40 28  1  0
 62 56  1  0
 14  5  1  0
 62 23  1  0
 14  9  1  0
M  CHG  1  28   1
M  END
>  <cnnaffinities>  (15) 
[6.58852]

>  <score>  (15) 
6.58852

>  <index>  (15) 
14

>  <Smiles>  (15) 
C([C@]1(C(N(c2c(nc(c3c(c(c(c(c23)[H])[H])[H])[H])[H])[H])C(=O)[C@]21C(N(C(C([N+]1(C(C(N(S(=O)(=O)C([H])([H])[H])C(C1([H])[H])([H])[H])([H])[H])([H])[H])[H])([H])[H])([H])[H])C(=O)c1c(c(c(Cl)c(c21)[H])[H])[H])([H])[H])([H])[H])[H])([H])([H])[H]

>  <h>  (15) 
<NA>

>  <Training>  (15) 
True

>  <Success>  (15) 
True

>  <enamine_searched>  (15) 
False

>  <enamine_id>  (15) 
nan

$$$$

     RDKit          3D

 63 68  0  0  0  0  0  0  0  0999 V2000
   -7.5191    3.1733  -21.8737 C   0  0  0  0  0  0  0  0  0  0  0  0
   -8.6172    2.6927  -22.7023 N   0  0  0  0  0  0  0  0  0  0  0  0
   -8.2720    1.9474  -23.7929 C   0  0  0  0  0  0  0  0  0  0  0  0
   -7.1025    1.7335  -24.0888 O   0  0  0  0  0  0  0  0  0  0  0  0
   -9.4080    1.3710  -24.6383 C   0  0  0  0  0  0  0  0  0  0  0  0
   -9.9241    0.1620  -24.0228 N   0  0  0  0  0  0  0  0  0  0  0  0
   -9.0714   -1.0189  -23.9843 C   0  0  0  0  0  0  0  0  0  0  0  0
   -9.2358   -1.7756  -22.6406 C   0  0  2  0  0  0  0  0  0  0  0  0
   -8.6555   -0.9167  -21.4905 C   0  0  0  0  0  0  0  0  0  0  0  0
   -9.1816    0.0319  -20.9465 O   0  0  0  0  0  0  0  0  0  0  0  0
   -7.3948   -1.3944  -21.1966 N   0  0  0  0  0  0  0  0  0  0  0  0
   -6.6075   -0.8187  -20.1744 C   0  0  0  0  0  0  0  0  0  0  0  0
   -6.9235   -1.0488  -18.8588 C   0  0  0  0  0  0  0  0  0  0  0  0
   -6.2174   -0.5670  -17.8104 N   0  0  0  0  0  0  0  0  0  0  0  0
   -5.1783    0.1869  -18.0820 C   0  0  0  0  0  0  0  0  0  0  0  0
   -4.7429    0.5079  -19.3999 C   0  0  0  0  0  0  0  0  0  0  0  0
   -3.6187    1.3397  -19.6420 C   0  0  0  0  0  0  0  0  0  0  0  0
   -3.2448    1.6463  -20.9213 C   0  0  0  0  0  0  0  0  0  0  0  0
   -3.9751    1.1429  -22.0190 C   0  0  0  0  0  0  0  0  0  0  0  0
   -5.0724    0.3391  -21.8140 C   0  0  0  0  0  0  0  0  0  0  0  0
   -5.4769   -0.0070  -20.4938 C   0  0  0  0  0  0  0  0  0  0  0  0
   -5.6517    0.0022  -22.6687 H   0  0  0  0  0  0  0  0  0  0  0  0
   -3.6705    1.3965  -23.0304 H   0  0  0  0  0  0  0  0  0  0  0  0
   -2.3894    2.2906  -21.0971 H   0  0  0  0  0  0  0  0  0  0  0  0
   -3.0826    1.7380  -18.7848 H   0  0  0  0  0  0  0  0  0  0  0  0
   -4.6206    0.5896  -17.2367 H   0  0  0  0  0  0  0  0  0  0  0  0
   -7.7866   -1.6649  -18.6181 H   0  0  0  0  0  0  0  0  0  0  0  0
   -6.9977   -2.5572  -21.9660 C   0  0  0  0  0  0  0  0  0  0  0  0
   -8.3295   -3.0332  -22.5634 C   0  0  2  0  0  0  0  0  0  0  0  0
   -8.1481   -3.8056  -23.8738 C   0  0  0  0  0  0  0  0  0  0  0  0
   -7.4202   -5.0420  -23.6606 N   0  0  0  0  0  0  0  0  0  0  0  0
   -6.0867   -5.2336  -23.7773 C   0  0  0  0  0  0  0  0  0  0  0  0
   -5.8388   -6.5441  -23.4397 C   0  0  0  0  0  0  0  0  0  0  0  0
   -7.1107   -7.0641  -23.1277 C   0  0  0  0  0  0  0  0  0  0  0  0
   -8.0619   -6.1444  -23.2512 N   0  0  0  0  0  0  0  0  0  0  0  0
   -7.3766   -8.0742  -22.8325 H   0  0  0  0  0  0  0  0  0  0  0  0
   -4.8872   -7.0569  -23.4257 H   0  0  0  0  0  0  0  0  0  0  0  0
   -5.4238   -4.4359  -24.0902 H   0  0  0  0  0  0  0  0  0  0  0  0
   -7.5860   -3.1995  -24.5976 H   0  0  0  0  0  0  0  0  0  0  0  0
   -9.1181   -4.0696  -24.3058 H   0  0  0  0  0  0  0  0  0  0  0  0
   -8.7688   -3.7199  -21.8353 H   0  0  0  0  0  0  0  0  0  0  0  0
   -6.5463   -3.3201  -21.3220 H   0  0  0  0  0  0  0  0  0  0  0  0
   -6.2682   -2.3004  -22.7544 H   0  0  0  0  0  0  0  0  0  0  0  0
  -10.7217   -2.0245  -22.4567 C   0  0  0  0  0  0  0  0  0  0  0  0
  -11.1925   -3.0934  -21.6914 C   0  0  0  0  0  0  0  0  0  0  0  0
  -12.5478   -3.2547  -21.4764 C   0  0  0  0  0  0  0  0  0  0  0  0
  -13.0805   -4.5035  -20.3951 Cl  0  0  0  0  0  0  0  0  0  0  0  0
  -13.4919   -2.4081  -22.0485 C   0  0  0  0  0  0  0  0  0  0  0  0
  -13.0381   -1.3275  -22.7728 C   0  0  0  0  0  0  0  0  0  0  0  0
  -11.6733   -1.1283  -22.9656 C   0  0  0  0  0  0  0  0  0  0  0  0
  -11.2570    0.0937  -23.7234 C   0  0  0  0  0  0  0  0  0  0  0  0
  -12.0507    0.9673  -24.0410 O   0  0  0  0  0  0  0  0  0  0  0  0
  -13.7170   -0.5967  -23.1950 H   0  0  0  0  0  0  0  0  0  0  0  0
  -14.5496   -2.5954  -21.9135 H   0  0  0  0  0  0  0  0  0  0  0  0
  -10.5235   -3.8045  -21.2230 H   0  0  0  0  0  0  0  0  0  0  0  0
   -8.0344   -0.6961  -24.1284 H   0  0  0  0  0  0  0  0  0  0  0  0
   -9.3353   -1.7004  -24.8075 H   0  0  0  0  0  0  0  0  0  0  0  0
  -10.2471    2.0687  -24.7388 H   0  0  0  0  0  0  0  0  0  0  0  0
   -9.0038    1.1465  -25.6361 H   0  0  0  0  0  0  0  0  0  0  0  0
   -9.5085    2.5233  -22.2449 H   0  0  0  0  0  0  0  0  0  0  0  0
   -7.8609    4.0186  -21.2686 H   0  0  0  0  0  0  0  0  0  0  0  0
   -6.7338    3.5292  -22.5463 H   0  0  0  0  0  0  0  0  0  0  0  0
   -7.1084    2.3723  -21.2300 H   0  0  0  0  0  0  0  0  0  0  0  0
  1  2  1  0
  2  3  1  0
  3  4  2  0
  3  5  1  0
  5  6  1  0
  6  7  1  0
  8  7  1  6
  8  9  1  0
  9 10  2  0
  9 11  1  0
 11 12  1  0
 12 13  2  0
 13 14  1  0
 14 15  2  0
 15 16  1  0
 16 17  2  0
 17 18  1  0
 18 19  2  0
 19 20  1  0
 20 21  2  0
 20 22  1  0
 19 23  1  0
 18 24  1  0
 17 25  1  0
 15 26  1  0
 13 27  1  0
 11 28  1  0
 28 29  1  0
 29 30  1  0
 30 31  1  0
 31 32  1  0
 32 33  2  0
 33 34  1  0
 34 35  2  0
 34 36  1  0
 33 37  1  0
 32 38  1  0
 30 39  1  0
 30 40  1  0
 29 41  1  1
 28 42  1  0
 28 43  1  0
  8 44  1  0
 44 45  2  0
 45 46  1  0
 46 47  1  0
 46 48  2  0
 48 49  1  0
 49 50  2  0
 50 51  1  0
 51 52  2  0
 49 53  1  0
 48 54  1  0
 45 55  1  0
  7 56  1  0
  7 57  1  0
  5 58  1  0
  5 59  1  0
  2 60  1  0
  1 61  1  0
  1 62  1  0
  1 63  1  0
 51  6  1  0
 29  8  1  0
 35 31  1  0
 50 44  1  0
 21 12  1  0
 21 16  1  0
M  END
>  <cnnaffinities>  (16) 
[6.71171]

>  <score>  (16) 
6.71171

>  <index>  (16) 
15

>  <Smiles>  (16) 
C(N(C(=O)C(N1C([C@@]2(C(=O)N(c3c(nc(c4c(c(c(c(c34)[H])[H])[H])[H])[H])[H])C([C@@]2(C(n2c(c(c(n2)[H])[H])[H])([H])[H])[H])([H])[H])c2c(c(Cl)c(c(c2C1=O)[H])[H])[H])([H])[H])([H])[H])[H])([H])([H])[H]

>  <h>  (16) 
<NA>

>  <Training>  (16) 
True

>  <Success>  (16) 
True

>  <enamine_searched>  (16) 
False

>  <enamine_id>  (16) 
nan

$$$$

     RDKit          3D

 61 66  0  0  0  0  0  0  0  0999 V2000
   -7.3962    3.4079  -21.8106 C   0  0  0  0  0  0  0  0  0  0  0  0
   -8.2218    2.9172  -22.8946 N   0  0  0  0  0  0  0  0  0  0  0  0
   -7.6430    2.2350  -23.9076 C   0  0  0  0  0  0  0  0  0  0  0  0
   -6.4289    2.1315  -24.0211 O   0  0  0  0  0  0  0  0  0  0  0  0
   -8.6017    1.6166  -24.9353 C   0  0  0  0  0  0  0  0  0  0  0  0
   -9.3340    0.4651  -24.4388 N   0  0  0  0  0  0  0  0  0  0  0  0
   -8.6298   -0.7930  -24.2641 C   0  0  0  0  0  0  0  0  0  0  0  0
   -9.0336   -1.4981  -22.9413 C   0  0  2  0  0  0  0  0  0  0  0  0
   -8.4862   -0.7042  -21.7245 C   0  0  0  0  0  0  0  0  0  0  0  0
   -8.9087    0.3378  -21.2747 O   0  0  0  0  0  0  0  0  0  0  0  0
   -7.4024   -1.3810  -21.2092 N   0  0  0  0  0  0  0  0  0  0  0  0
   -6.6055   -0.8081  -20.1813 C   0  0  0  0  0  0  0  0  0  0  0  0
   -6.9080   -1.0445  -18.8661 C   0  0  0  0  0  0  0  0  0  0  0  0
   -6.2001   -0.5590  -17.8168 N   0  0  0  0  0  0  0  0  0  0  0  0
   -5.1674    0.2048  -18.0803 C   0  0  0  0  0  0  0  0  0  0  0  0
   -4.7283    0.5272  -19.3951 C   0  0  0  0  0  0  0  0  0  0  0  0
   -3.5989    1.3566  -19.6422 C   0  0  0  0  0  0  0  0  0  0  0  0
   -3.2128    1.6493  -20.9207 C   0  0  0  0  0  0  0  0  0  0  0  0
   -3.9364    1.1219  -22.0152 C   0  0  0  0  0  0  0  0  0  0  0  0
   -5.0305    0.3176  -21.8020 C   0  0  0  0  0  0  0  0  0  0  0  0
   -5.4645    0.0034  -20.4866 C   0  0  0  0  0  0  0  0  0  0  0  0
   -5.5890   -0.0714  -22.6488 H   0  0  0  0  0  0  0  0  0  0  0  0
   -3.6450    1.3669  -23.0299 H   0  0  0  0  0  0  0  0  0  0  0  0
   -2.3621    2.3012  -21.0996 H   0  0  0  0  0  0  0  0  0  0  0  0
   -3.0710    1.7703  -18.7864 H   0  0  0  0  0  0  0  0  0  0  0  0
   -4.6243    0.6121  -17.2273 H   0  0  0  0  0  0  0  0  0  0  0  0
   -7.7601   -1.6683  -18.6074 H   0  0  0  0  0  0  0  0  0  0  0  0
   -7.0713   -2.6051  -21.9090 C   0  0  0  0  0  0  0  0  0  0  0  0
   -8.3152   -2.8731  -22.7769 C   0  0  2  0  0  0  0  0  0  0  0  0
   -7.9529   -3.6340  -24.0707 C   0  0  0  0  0  0  0  0  0  0  0  0
   -7.4243   -4.9590  -23.7800 N   0  0  0  0  0  0  0  0  0  0  0  0
   -6.1339   -5.2366  -23.6775 N   0  0  0  0  0  0  0  0  0  0  0  0
   -6.1681   -6.5188  -23.3493 C   0  0  0  0  0  0  0  0  0  0  0  0
   -7.4283   -6.9932  -23.2574 N   0  0  0  0  0  0  0  0  0  0  0  0
   -8.2095   -5.9876  -23.5375 N   0  0  0  0  0  0  0  0  0  0  0  0
   -5.2849   -7.1171  -23.1702 H   0  0  0  0  0  0  0  0  0  0  0  0
   -7.1676   -3.1236  -24.6368 H   0  0  0  0  0  0  0  0  0  0  0  0
   -8.8307   -3.7875  -24.7060 H   0  0  0  0  0  0  0  0  0  0  0  0
   -8.9911   -3.5250  -22.2182 H   0  0  0  0  0  0  0  0  0  0  0  0
   -6.1658   -2.4837  -22.5264 H   0  0  0  0  0  0  0  0  0  0  0  0
   -6.8721   -3.4210  -21.2056 H   0  0  0  0  0  0  0  0  0  0  0  0
  -10.5506   -1.5272  -22.8696 C   0  0  0  0  0  0  0  0  0  0  0  0
  -11.1948   -2.3880  -21.9729 C   0  0  0  0  0  0  0  0  0  0  0  0
  -12.5743   -2.3967  -21.8881 C   0  0  0  0  0  0  0  0  0  0  0  0
  -13.3616   -3.4741  -20.7716 Cl  0  0  0  0  0  0  0  0  0  0  0  0
  -13.3562   -1.5412  -22.6627 C   0  0  0  0  0  0  0  0  0  0  0  0
  -12.7243   -0.6348  -23.4893 C   0  0  0  0  0  0  0  0  0  0  0  0
  -11.3321   -0.5956  -23.5693 C   0  0  0  0  0  0  0  0  0  0  0  0
  -10.6956    0.5368  -24.3238 C   0  0  0  0  0  0  0  0  0  0  0  0
  -11.3402    1.4780  -24.7596 O   0  0  0  0  0  0  0  0  0  0  0  0
  -13.2855    0.0866  -24.0715 H   0  0  0  0  0  0  0  0  0  0  0  0
  -14.4362   -1.5755  -22.5821 H   0  0  0  0  0  0  0  0  0  0  0  0
  -10.6311   -3.0316  -21.3070 H   0  0  0  0  0  0  0  0  0  0  0  0
   -8.8297   -1.4690  -25.1123 H   0  0  0  0  0  0  0  0  0  0  0  0
   -7.5615   -0.5544  -24.2407 H   0  0  0  0  0  0  0  0  0  0  0  0
   -7.9680    1.3447  -25.7859 H   0  0  0  0  0  0  0  0  0  0  0  0
   -9.3684    2.3256  -25.2655 H   0  0  0  0  0  0  0  0  0  0  0  0
   -9.2240    2.8644  -22.7591 H   0  0  0  0  0  0  0  0  0  0  0  0
   -6.6603    4.1385  -22.1720 H   0  0  0  0  0  0  0  0  0  0  0  0
   -6.8541    2.5823  -21.3131 H   0  0  0  0  0  0  0  0  0  0  0  0
   -8.0647    3.9164  -21.1185 H   0  0  0  0  0  0  0  0  0  0  0  0
  1  2  1  0
  2  3  1  0
  3  4  2  0
  3  5  1  0
  5  6  1  0
  6  7  1  0
  8  7  1  6
  8  9  1  0
  9 10  2  0
  9 11  1  0
 11 12  1  0
 12 13  2  0
 13 14  1  0
 14 15  2  0
 15 16  1  0
 16 17  2  0
 17 18  1  0
 18 19  2  0
 19 20  1  0
 20 21  2  0
 20 22  1  0
 19 23  1  0
 18 24  1  0
 17 25  1  0
 15 26  1  0
 13 27  1  0
 11 28  1  0
 28 29  1  0
 29 30  1  0
 30 31  1  0
 31 32  1  0
 32 33  2  0
 33 34  1  0
 34 35  2  0
 33 36  1  0
 30 37  1  0
 30 38  1  0
 29 39  1  1
 28 40  1  0
 28 41  1  0
  8 42  1  0
 42 43  2  0
 43 44  1  0
 44 45  1  0
 44 46  2  0
 46 47  1  0
 47 48  2  0
 48 49  1  0
 49 50  2  0
 47 51  1  0
 46 52  1  0
 43 53  1  0
  7 54  1  0
  7 55  1  0
  5 56  1  0
  5 57  1  0
  2 58  1  0
  1 59  1  0
  1 60  1  0
  1 61  1  0
 49  6  1  0
 29  8  1  0
 35 31  1  0
 48 42  1  0
 21 12  1  0
 21 16  1  0
M  END
>  <cnnaffinities>  (17) 
[6.39497, 6.30365]

>  <score>  (17) 
6.39497

>  <index>  (17) 
16

>  <Smiles>  (17) 
C(N(C(=O)C(N1C([C@@]2(C(=O)N(c3c(nc(c4c(c(c(c(c34)[H])[H])[H])[H])[H])[H])C([C@@]2(C(n2nc(nn2)[H])([H])[H])[H])([H])[H])c2c(c(Cl)c(c(c2C1=O)[H])[H])[H])([H])[H])([H])[H])[H])([H])([H])[H]

>  <h>  (17) 
<NA>

>  <Training>  (17) 
True

>  <Success>  (17) 
True

>  <enamine_searched>  (17) 
False

>  <enamine_id>  (17) 
nan

$$$$

     RDKit          3D

 38 41  0  0  0  0  0  0  0  0999 V2000
   -9.3471   -4.9435  -25.6880 C   0  0  0  0  0  0  0  0  0  0  0  0
   -9.3373   -4.1929  -24.3542 C   0  0  2  0  0  0  0  0  0  0  0  0
  -10.3136   -3.0206  -24.3743 C   0  0  0  0  0  0  0  0  0  0  0  0
  -10.4115   -2.3450  -23.0081 C   0  0  0  0  0  0  0  0  0  0  0  0
   -9.0779   -2.1153  -22.4583 C   0  0  0  0  0  0  0  0  0  0  0  0
   -8.7149   -1.1873  -21.4387 C   0  0  0  0  0  0  0  0  0  0  0  0
   -9.3793   -0.3188  -20.9191 O   0  0  0  0  0  1  0  0  0  0  0  0
   -7.3417   -1.4719  -21.1983 N   0  0  0  0  0  0  0  0  0  0  0  0
   -6.5714   -0.8434  -20.1852 C   0  0  0  0  0  0  0  0  0  0  0  0
   -6.8887   -1.0539  -18.8685 C   0  0  0  0  0  0  0  0  0  0  0  0
   -6.1898   -0.5537  -17.8206 N   0  0  0  0  0  0  0  0  0  0  0  0
   -5.1590    0.2122  -18.0788 C   0  0  0  0  0  0  0  0  0  0  0  0
   -4.7258    0.5300  -19.3939 C   0  0  0  0  0  0  0  0  0  0  0  0
   -3.5957    1.3590  -19.6310 C   0  0  0  0  0  0  0  0  0  0  0  0
   -3.2192    1.6663  -20.9094 C   0  0  0  0  0  0  0  0  0  0  0  0
   -3.9534    1.1573  -22.0036 C   0  0  0  0  0  0  0  0  0  0  0  0
   -5.0476    0.3543  -21.8001 C   0  0  0  0  0  0  0  0  0  0  0  0
   -5.4560    0.0035  -20.4865 C   0  0  0  0  0  0  0  0  0  0  0  0
   -5.6089   -0.0304  -22.6441 H   0  0  0  0  0  0  0  0  0  0  0  0
   -3.6548    1.4098  -23.0168 H   0  0  0  0  0  0  0  0  0  0  0  0
   -2.3664    2.3163  -21.0935 H   0  0  0  0  0  0  0  0  0  0  0  0
   -3.0600    1.7668  -18.7773 H   0  0  0  0  0  0  0  0  0  0  0  0
   -4.6133    0.6187  -17.2233 H   0  0  0  0  0  0  0  0  0  0  0  0
   -7.7406   -1.6721  -18.5982 H   0  0  0  0  0  0  0  0  0  0  0  0
   -6.8608   -2.4224  -22.1185 C   0  0  0  0  0  0  0  0  0  0  0  0
   -5.7266   -2.8200  -22.2447 O   0  0  0  0  0  0  0  0  0  0  0  0
   -7.9731   -2.7856  -22.8628 N   0  0  0  0  0  0  0  0  0  0  0  0
   -7.9390   -3.6830  -24.0058 C   0  0  0  0  0  0  0  0  0  0  0  0
   -7.2716   -4.4995  -23.7538 H   0  0  0  0  0  0  0  0  0  0  0  0
   -7.5088   -3.1768  -24.8739 H   0  0  0  0  0  0  0  0  0  0  0  0
  -10.9634   -1.4009  -23.0738 H   0  0  0  0  0  0  0  0  0  0  0  0
  -11.0025   -2.9659  -22.3156 H   0  0  0  0  0  0  0  0  0  0  0  0
  -10.0030   -2.3007  -25.1403 H   0  0  0  0  0  0  0  0  0  0  0  0
  -11.3032   -3.3546  -24.6685 H   0  0  0  0  0  0  0  0  0  0  0  0
   -9.6525   -4.8966  -23.5727 H   0  0  0  0  0  0  0  0  0  0  0  0
  -10.3412   -5.3469  -25.9185 H   0  0  0  0  0  0  0  0  0  0  0  0
   -8.6477   -5.7870  -25.6934 H   0  0  0  0  0  0  0  0  0  0  0  0
   -9.0737   -4.2819  -26.5197 H   0  0  0  0  0  0  0  0  0  0  0  0
  1  2  1  0
  2  3  1  0
  3  4  1  0
  4  5  1  0
  5  6  2  0
  6  7  1  0
  6  8  1  0
  8  9  1  0
  9 10  2  0
 10 11  1  0
 11 12  2  0
 12 13  1  0
 13 14  2  0
 14 15  1  0
 15 16  2  0
 16 17  1  0
 17 18  2  0
 17 19  1  0
 16 20  1  0
 15 21  1  0
 14 22  1  0
 12 23  1  0
 10 24  1  0
  8 25  1  0
 25 26  2  0
 25 27  1  0
 27 28  1  0
 28 29  1  0
 28 30  1  0
  4 31  1  0
  4 32  1  0
  3 33  1  0
  3 34  1  0
  2 35  1  1
  1 36  1  0
  1 37  1  0
  1 38  1  0
 28  2  1  0
 27  5  1  0
 18  9  1  0
 18 13  1  0
M  CHG  1   7  -1
M  END
>  <cnnaffinities>  (18) 
[4.56359, 4.53302]

>  <score>  (18) 
4.56359

>  <index>  (18) 
17

>  <Smiles>  (18) 
C([C@@]1(C(C(c2c([O-])n(c3c(nc(c4c(c(c(c(c34)[H])[H])[H])[H])[H])[H])c(=O)n2C1([H])[H])([H])[H])([H])[H])[H])([H])([H])[H]

>  <h>  (18) 
<NA>

>  <Training>  (18) 
True

>  <Success>  (18) 
True

>  <enamine_searched>  (18) 
False

>  <enamine_id>  (18) 
nan

$$$$

     RDKit          3D

 56 61  0  0  0  0  0  0  0  0999 V2000
   -7.8962   -3.5684  -24.1198 C   0  0  0  0  0  0  0  0  0  0  0  0
   -8.2889   -2.8429  -22.8250 C   0  0  1  0  0  0  0  0  0  0  0  0
   -7.0714   -2.5948  -21.9079 C   0  0  0  0  0  0  0  0  0  0  0  0
   -7.3998   -1.3723  -21.2056 N   0  0  0  0  0  0  0  0  0  0  0  0
   -6.5977   -0.8110  -20.1766 C   0  0  0  0  0  0  0  0  0  0  0  0
   -6.9069   -1.0464  -18.8640 C   0  0  0  0  0  0  0  0  0  0  0  0
   -6.2002   -0.5600  -17.8152 N   0  0  0  0  0  0  0  0  0  0  0  0
   -5.1710    0.2055  -18.0831 C   0  0  0  0  0  0  0  0  0  0  0  0
   -4.7315    0.5287  -19.3994 C   0  0  0  0  0  0  0  0  0  0  0  0
   -3.6018    1.3586  -19.6446 C   0  0  0  0  0  0  0  0  0  0  0  0
   -3.2065    1.6369  -20.9214 C   0  0  0  0  0  0  0  0  0  0  0  0
   -3.9131    1.0890  -22.0144 C   0  0  0  0  0  0  0  0  0  0  0  0
   -5.0051    0.2786  -21.8057 C   0  0  0  0  0  0  0  0  0  0  0  0
   -5.4543   -0.0107  -20.4884 C   0  0  0  0  0  0  0  0  0  0  0  0
   -5.5710   -0.0867  -22.6583 H   0  0  0  0  0  0  0  0  0  0  0  0
   -3.6209    1.3459  -23.0288 H   0  0  0  0  0  0  0  0  0  0  0  0
   -2.3593    2.2967  -21.1003 H   0  0  0  0  0  0  0  0  0  0  0  0
   -3.0775    1.7724  -18.7862 H   0  0  0  0  0  0  0  0  0  0  0  0
   -4.6241    0.6130  -17.2316 H   0  0  0  0  0  0  0  0  0  0  0  0
   -7.7651   -1.6653  -18.6088 H   0  0  0  0  0  0  0  0  0  0  0  0
   -8.4602   -0.6731  -21.7337 C   0  0  0  0  0  0  0  0  0  0  0  0
   -8.8792    0.3634  -21.2692 O   0  0  0  0  0  0  0  0  0  0  0  0
   -8.9976   -1.4551  -22.9685 C   0  0  1  0  0  0  0  0  0  0  0  0
   -8.5681   -0.7607  -24.2854 C   0  0  0  0  0  0  0  0  0  0  0  0
   -9.2735    0.4808  -24.5161 N   0  0  0  0  0  0  0  0  0  0  0  0
   -8.5161    1.6852  -24.8180 C   0  0  0  0  0  0  0  0  0  0  0  0
   -8.1599    2.4908  -23.5933 C   0  0  0  0  0  0  0  0  0  0  0  0
   -8.9548    3.4607  -22.9448 C   0  0  0  0  0  0  0  0  0  0  0  0
   -8.1316    3.9740  -21.9645 C   0  0  0  0  0  0  0  0  0  0  0  0
   -6.9660    3.3017  -22.0463 N   0  0  0  0  0  0  0  0  0  0  0  0
   -6.9643    2.3743  -23.0177 N   0  0  0  0  0  0  0  0  0  0  0  0
   -6.2316    3.3302  -21.3595 H   0  0  0  0  0  0  0  0  0  0  0  0
   -8.2803    4.7157  -21.1930 H   0  0  0  0  0  0  0  0  0  0  0  0
  -10.0096    3.6236  -23.1177 H   0  0  0  0  0  0  0  0  0  0  0  0
   -7.5932    1.3938  -25.3340 H   0  0  0  0  0  0  0  0  0  0  0  0
   -9.1366    2.2796  -25.4964 H   0  0  0  0  0  0  0  0  0  0  0  0
  -10.6262    0.5923  -24.3657 C   0  0  0  0  0  0  0  0  0  0  0  0
  -11.2444    1.5673  -24.7763 O   0  0  0  0  0  0  0  0  0  0  0  0
  -11.2841   -0.5311  -23.6207 C   0  0  0  0  0  0  0  0  0  0  0  0
  -12.6776   -0.5534  -23.5562 C   0  0  0  0  0  0  0  0  0  0  0  0
  -13.3235   -1.4693  -22.7503 C   0  0  0  0  0  0  0  0  0  0  0  0
  -12.5544   -2.3409  -21.9882 C   0  0  0  0  0  0  0  0  0  0  0  0
  -13.1771   -3.1891  -21.1530 F   0  0  0  0  0  0  0  0  0  0  0  0
  -11.1780   -2.3517  -22.0480 C   0  0  0  0  0  0  0  0  0  0  0  0
  -10.5170   -1.4760  -22.9190 C   0  0  0  0  0  0  0  0  0  0  0  0
  -10.6465   -3.0237  -21.3846 H   0  0  0  0  0  0  0  0  0  0  0  0
  -14.4008   -1.5085  -22.6698 H   0  0  0  0  0  0  0  0  0  0  0  0
  -13.2207    0.1851  -24.1383 H   0  0  0  0  0  0  0  0  0  0  0  0
   -7.4993   -0.5199  -24.2255 H   0  0  0  0  0  0  0  0  0  0  0  0
   -8.7521   -1.4474  -25.1252 H   0  0  0  0  0  0  0  0  0  0  0  0
   -6.9075   -3.4144  -21.1972 H   0  0  0  0  0  0  0  0  0  0  0  0
   -6.1465   -2.4764  -22.4938 H   0  0  0  0  0  0  0  0  0  0  0  0
   -8.9913   -3.4799  -22.2843 H   0  0  0  0  0  0  0  0  0  0  0  0
   -8.7516   -3.7178  -24.7890 H   0  0  0  0  0  0  0  0  0  0  0  0
   -7.1346   -3.0062  -24.6742 H   0  0  0  0  0  0  0  0  0  0  0  0
   -7.4723   -4.5537  -23.8993 H   0  0  0  0  0  0  0  0  0  0  0  0
  1  2  1  0
  2  3  1  0
  3  4  1  0
  4  5  1  0
  5  6  2  0
  6  7  1  0
  7  8  2  0
  8  9  1  0
  9 10  2  0
 10 11  1  0
 11 12  2  0
 12 13  1  0
 13 14  2  0
 13 15  1  0
 12 16  1  0
 11 17  1  0
 10 18  1  0
  8 19  1  0
  6 20  1  0
  4 21  1  0
 21 22  2  0
 21 23  1  0
 23 24  1  6
 24 25  1  0
 25 26  1  0
 26 27  1  0
 27 28  1  0
 28 29  2  0
 29 30  1  0
 30 31  1  0
 30 32  1  0
 29 33  1  0
 28 34  1  0
 26 35  1  0
 26 36  1  0
 25 37  1  0
 37 38  2  0
 37 39  1  0
 39 40  2  0
 40 41  1  0
 41 42  2  0
 42 43  1  0
 42 44  1  0
 44 45  2  0
 44 46  1  0
 41 47  1  0
 40 48  1  0
 24 49  1  0
 24 50  1  0
  3 51  1  0
  3 52  1  0
  2 53  1  1
  1 54  1  0
  1 55  1  0
  1 56  1  0
 23  2  1  0
 31 27  2  0
 45 39  1  0
 14  5  1  0
 45 23  1  0
 14  9  1  0
M  END
>  <cnnaffinities>  (19) 
[5.82149]

>  <score>  (19) 
5.82149

>  <index>  (19) 
18

>  <Smiles>  (19) 
C([C@]1(C(N(c2c(nc(c3c(c(c(c(c23)[H])[H])[H])[H])[H])[H])C(=O)[C@]21C(N(C(c1c(c(n(n1)[H])[H])[H])([H])[H])C(=O)c1c(c(c(F)c(c21)[H])[H])[H])([H])[H])([H])[H])[H])([H])([H])[H]

>  <h>  (19) 
<NA>

>  <Training>  (19) 
True

>  <Success>  (19) 
True

>  <enamine_searched>  (19) 
False

>  <enamine_id>  (19) 
nan

$$$$

     RDKit          3D

 42 45  0  0  0  0  0  0  0  0999 V2000
   -5.6980   -2.9346  -21.6445 O   0  0  0  0  0  0  0  0  0  0  0  0
   -6.7846   -2.4922  -21.9572 C   0  0  0  0  0  0  0  0  0  0  0  0
   -7.5226   -2.9893  -23.2153 C   0  0  1  0  0  0  0  0  0  0  0  0
   -7.2824   -4.4715  -23.4533 C   0  0  0  0  0  0  0  0  0  0  0  0
   -7.5912   -5.4109  -22.4756 C   0  0  0  0  0  0  0  0  0  0  0  0
   -7.4120   -6.7682  -22.6883 C   0  0  0  0  0  0  0  0  0  0  0  0
   -6.9283   -7.2296  -23.9059 C   0  0  0  0  0  0  0  0  0  0  0  0
   -6.7075   -8.9326  -24.1189 Cl  0  0  0  0  0  0  0  0  0  0  0  0
   -6.6319   -6.3061  -24.9082 C   0  0  0  0  0  0  0  0  0  0  0  0
   -6.0261   -6.8133  -26.4485 Cl  0  0  0  0  0  0  0  0  0  0  0  0
   -6.8111   -4.9433  -24.6763 C   0  0  0  0  0  0  0  0  0  0  0  0
   -6.5781   -4.2624  -25.4879 H   0  0  0  0  0  0  0  0  0  0  0  0
   -7.6374   -7.4888  -21.9121 H   0  0  0  0  0  0  0  0  0  0  0  0
   -7.9662   -5.0671  -21.5237 H   0  0  0  0  0  0  0  0  0  0  0  0
   -9.0136   -2.6631  -23.2151 C   0  0  0  0  0  0  0  0  0  0  0  0
   -9.2930   -1.2516  -22.7409 C   0  0  2  0  0  0  0  0  0  0  0  0
   -8.6774   -0.3418  -23.6345 O   0  0  0  0  0  0  0  0  0  0  0  0
   -9.0327    0.5385  -23.4453 H   0  0  0  0  0  0  0  0  0  0  0  0
   -8.7639   -1.0998  -21.3234 C   0  0  0  0  0  0  0  0  0  0  0  0
   -7.3520   -1.4473  -21.2382 N   0  0  0  0  0  0  0  0  0  0  0  0
   -6.5688   -0.8585  -20.1962 C   0  0  0  0  0  0  0  0  0  0  0  0
   -6.8879   -1.0552  -18.8777 C   0  0  0  0  0  0  0  0  0  0  0  0
   -6.1987   -0.5478  -17.8234 N   0  0  0  0  0  0  0  0  0  0  0  0
   -5.1629    0.2171  -18.0765 C   0  0  0  0  0  0  0  0  0  0  0  0
   -4.7253    0.5277  -19.3938 C   0  0  0  0  0  0  0  0  0  0  0  0
   -3.5970    1.3587  -19.6335 C   0  0  0  0  0  0  0  0  0  0  0  0
   -3.2150    1.6570  -20.9142 C   0  0  0  0  0  0  0  0  0  0  0  0
   -3.9431    1.1381  -22.0076 C   0  0  0  0  0  0  0  0  0  0  0  0
   -5.0359    0.3345  -21.7991 C   0  0  0  0  0  0  0  0  0  0  0  0
   -5.4482   -0.0114  -20.4861 C   0  0  0  0  0  0  0  0  0  0  0  0
   -5.6050   -0.0541  -22.6354 H   0  0  0  0  0  0  0  0  0  0  0  0
   -3.6404    1.3810  -23.0206 H   0  0  0  0  0  0  0  0  0  0  0  0
   -2.3615    2.3031  -21.1014 H   0  0  0  0  0  0  0  0  0  0  0  0
   -3.0580    1.7728  -18.7845 H   0  0  0  0  0  0  0  0  0  0  0  0
   -4.6126    0.6219  -17.2229 H   0  0  0  0  0  0  0  0  0  0  0  0
   -7.7350   -1.6790  -18.6010 H   0  0  0  0  0  0  0  0  0  0  0  0
   -9.3712   -1.7247  -20.6545 H   0  0  0  0  0  0  0  0  0  0  0  0
   -8.8663   -0.0619  -21.0008 H   0  0  0  0  0  0  0  0  0  0  0  0
  -10.3830   -1.0934  -22.7287 H   0  0  0  0  0  0  0  0  0  0  0  0
   -9.5354   -3.3670  -22.5593 H   0  0  0  0  0  0  0  0  0  0  0  0
   -9.4236   -2.8066  -24.2183 H   0  0  0  0  0  0  0  0  0  0  0  0
   -7.0663   -2.4426  -24.0440 H   0  0  0  0  0  0  0  0  0  0  0  0
  1  2  2  0
  2  3  1  0
  3  4  1  0
  4  5  2  0
  5  6  1  0
  6  7  2  0
  7  8  1  0
  7  9  1  0
  9 10  1  0
  9 11  2  0
 11 12  1  0
  6 13  1  0
  5 14  1  0
  3 15  1  0
 15 16  1  0
 16 17  1  0
 17 18  1  0
 16 19  1  0
 19 20  1  0
 20 21  1  0
 21 22  2  0
 22 23  1  0
 23 24  2  0
 24 25  1  0
 25 26  2  0
 26 27  1  0
 27 28  2  0
 28 29  1  0
 29 30  2  0
 29 31  1  0
 28 32  1  0
 27 33  1  0
 26 34  1  0
 24 35  1  0
 22 36  1  0
 19 37  1  0
 19 38  1  0
 16 39  1  1
 15 40  1  0
 15 41  1  0
  3 42  1  6
 20  2  1  0
 30 21  1  0
 11  4  1  0
 30 25  1  0
M  END
>  <cnnaffinities>  (20) 
[5.21338]

>  <score>  (20) 
5.21338

>  <index>  (20) 
19

>  <Smiles>  (20) 
O=C1[C@@](c2c(c(c(Cl)c(Cl)c2[H])[H])[H])(C([C@](O[H])(C(N1c1c(nc(c2c(c(c(c(c12)[H])[H])[H])[H])[H])[H])([H])[H])[H])([H])[H])[H]

>  <h>  (20) 
<NA>

>  <Training>  (20) 
True

>  <Success>  (20) 
True

>  <enamine_searched>  (20) 
False

>  <enamine_id>  (20) 
nan

$$$$

     RDKit          3D

 66 71  0  0  0  0  0  0  0  0999 V2000
   -7.4587    3.3741  -21.7988 C   0  0  0  0  0  0  0  0  0  0  0  0
   -8.3268    2.8830  -22.8505 N   0  0  0  0  0  0  0  0  0  0  0  0
   -7.7703    2.1830  -23.8753 C   0  0  0  0  0  0  0  0  0  0  0  0
   -6.5638    2.0560  -24.0068 O   0  0  0  0  0  0  0  0  0  0  0  0
   -8.7480    1.5747  -24.8755 C   0  0  0  0  0  0  0  0  0  0  0  0
   -9.4391    0.4282  -24.3348 N   0  0  0  0  0  0  0  0  0  0  0  0
   -8.7013   -0.8068  -24.1705 C   0  0  0  0  0  0  0  0  0  0  0  0
   -9.0740   -1.5314  -22.8610 C   0  0  2  0  0  0  0  0  0  0  0  0
   -8.5373   -0.7522  -21.6417 C   0  0  0  0  0  0  0  0  0  0  0  0
   -9.0112    0.2423  -21.1374 O   0  0  0  0  0  0  0  0  0  0  0  0
   -7.3962   -1.3797  -21.2010 N   0  0  0  0  0  0  0  0  0  0  0  0
   -6.5984   -0.8137  -20.1798 C   0  0  0  0  0  0  0  0  0  0  0  0
   -6.9171   -1.0496  -18.8674 C   0  0  0  0  0  0  0  0  0  0  0  0
   -6.2161   -0.5636  -17.8163 N   0  0  0  0  0  0  0  0  0  0  0  0
   -5.1812    0.1988  -18.0807 C   0  0  0  0  0  0  0  0  0  0  0  0
   -4.7387    0.5171  -19.3963 C   0  0  0  0  0  0  0  0  0  0  0  0
   -3.6120    1.3460  -19.6412 C   0  0  0  0  0  0  0  0  0  0  0  0
   -3.2295    1.6471  -20.9199 C   0  0  0  0  0  0  0  0  0  0  0  0
   -3.9550    1.1354  -22.0207 C   0  0  0  0  0  0  0  0  0  0  0  0
   -5.0498    0.3303  -21.8128 C   0  0  0  0  0  0  0  0  0  0  0  0
   -5.4663   -0.0010  -20.4935 C   0  0  0  0  0  0  0  0  0  0  0  0
   -5.6105   -0.0396  -22.6670 H   0  0  0  0  0  0  0  0  0  0  0  0
   -3.6583    1.3881  -23.0347 H   0  0  0  0  0  0  0  0  0  0  0  0
   -2.3722    2.2937  -21.0962 H   0  0  0  0  0  0  0  0  0  0  0  0
   -3.0784    1.7509  -18.7858 H   0  0  0  0  0  0  0  0  0  0  0  0
   -4.6226    0.5987  -17.2335 H   0  0  0  0  0  0  0  0  0  0  0  0
   -7.7843   -1.6640  -18.6262 H   0  0  0  0  0  0  0  0  0  0  0  0
   -7.0484   -2.5743  -21.9358 C   0  0  0  0  0  0  0  0  0  0  0  0
   -8.3189   -2.8903  -22.7349 C   0  0  2  0  0  0  0  0  0  0  0  0
   -8.0165   -3.6671  -24.0334 C   0  0  0  0  0  0  0  0  0  0  0  0
   -7.4459   -5.0462  -23.7831 C   0  0  0  0  0  0  0  0  0  0  0  0
   -6.0717   -5.2984  -23.7656 C   0  0  0  0  0  0  0  0  0  0  0  0
   -5.5878   -6.5737  -23.4875 C   0  0  0  0  0  0  0  0  0  0  0  0
   -6.4706   -7.6139  -23.2135 C   0  0  0  0  0  0  0  0  0  0  0  0
   -7.8411   -7.3768  -23.2342 C   0  0  0  0  0  0  0  0  0  0  0  0
   -8.3165   -6.1041  -23.5252 C   0  0  0  0  0  0  0  0  0  0  0  0
   -9.3833   -5.9083  -23.5781 H   0  0  0  0  0  0  0  0  0  0  0  0
   -8.5397   -8.1843  -23.0329 H   0  0  0  0  0  0  0  0  0  0  0  0
   -6.0894   -8.6063  -22.9877 H   0  0  0  0  0  0  0  0  0  0  0  0
   -4.5176   -6.7632  -23.4918 H   0  0  0  0  0  0  0  0  0  0  0  0
   -5.3709   -4.4944  -23.9836 H   0  0  0  0  0  0  0  0  0  0  0  0
   -8.9442   -3.7619  -24.6148 H   0  0  0  0  0  0  0  0  0  0  0  0
   -7.3173   -3.0851  -24.6468 H   0  0  0  0  0  0  0  0  0  0  0  0
   -8.9502   -3.5327  -22.1185 H   0  0  0  0  0  0  0  0  0  0  0  0
   -6.7746   -3.3877  -21.2564 H   0  0  0  0  0  0  0  0  0  0  0  0
   -6.1952   -2.3953  -22.6068 H   0  0  0  0  0  0  0  0  0  0  0  0
  -10.5851   -1.6093  -22.7862 C   0  0  0  0  0  0  0  0  0  0  0  0
  -11.2087   -2.5354  -21.9451 C   0  0  0  0  0  0  0  0  0  0  0  0
  -12.5888   -2.5638  -21.8531 C   0  0  0  0  0  0  0  0  0  0  0  0
  -13.3321   -3.7004  -20.7596 Cl  0  0  0  0  0  0  0  0  0  0  0  0
  -13.3937   -1.6909  -22.5882 C   0  0  0  0  0  0  0  0  0  0  0  0
  -12.7845   -0.7385  -23.3805 C   0  0  0  0  0  0  0  0  0  0  0  0
  -11.3942   -0.6745  -23.4469 C   0  0  0  0  0  0  0  0  0  0  0  0
  -10.7941    0.4840  -24.1754 C   0  0  0  0  0  0  0  0  0  0  0  0
  -11.4709    1.4266  -24.5677 O   0  0  0  0  0  0  0  0  0  0  0  0
  -13.3572   -0.0081  -23.9448 H   0  0  0  0  0  0  0  0  0  0  0  0
  -14.4721   -1.7550  -22.5019 H   0  0  0  0  0  0  0  0  0  0  0  0
  -10.6249   -3.2230  -21.3420 H   0  0  0  0  0  0  0  0  0  0  0  0
   -7.6345   -0.5655  -24.1863 H   0  0  0  0  0  0  0  0  0  0  0  0
   -8.9228   -1.4757  -25.0103 H   0  0  0  0  0  0  0  0  0  0  0  0
   -8.1601    1.2937  -25.7533 H   0  0  0  0  0  0  0  0  0  0  0  0
   -9.5267    2.2899  -25.1449 H   0  0  0  0  0  0  0  0  0  0  0  0
   -9.2942    2.7188  -22.6162 H   0  0  0  0  0  0  0  0  0  0  0  0
   -8.0181    3.9806  -21.0835 H   0  0  0  0  0  0  0  0  0  0  0  0
   -6.6830    3.9989  -22.2371 H   0  0  0  0  0  0  0  0  0  0  0  0
   -6.9579    2.5462  -21.2818 H   0  0  0  0  0  0  0  0  0  0  0  0
  1  2  1  0
  2  3  1  0
  3  4  2  0
  3  5  1  0
  5  6  1  0
  6  7  1  0
  8  7  1  6
  8  9  1  0
  9 10  2  0
  9 11  1  0
 11 12  1  0
 12 13  2  0
 13 14  1  0
 14 15  2  0
 15 16  1  0
 16 17  2  0
 17 18  1  0
 18 19  2  0
 19 20  1  0
 20 21  2  0
 20 22  1  0
 19 23  1  0
 18 24  1  0
 17 25  1  0
 15 26  1  0
 13 27  1  0
 11 28  1  0
 28 29  1  0
 29 30  1  0
 30 31  1  0
 31 32  2  0
 32 33  1  0
 33 34  2  0
 34 35  1  0
 35 36  2  0
 36 37  1  0
 35 38  1  0
 34 39  1  0
 33 40  1  0
 32 41  1  0
 30 42  1  0
 30 43  1  0
 29 44  1  1
 28 45  1  0
 28 46  1  0
  8 47  1  0
 47 48  2  0
 48 49  1  0
 49 50  1  0
 49 51  2  0
 51 52  1  0
 52 53  2  0
 53 54  1  0
 54 55  2  0
 52 56  1  0
 51 57  1  0
 48 58  1  0
  7 59  1  0
  7 60  1  0
  5 61  1  0
  5 62  1  0
  2 63  1  0
  1 64  1  0
  1 65  1  0
  1 66  1  0
 54  6  1  0
 29  8  1  0
 36 31  1  0
 53 47  1  0
 21 12  1  0
 21 16  1  0
M  END
>  <cnnaffinities>  (21) 
[6.43116, 6.4041]

>  <score>  (21) 
6.43116

>  <index>  (21) 
20

>  <Smiles>  (21) 
C(N(C(=O)C(N1C([C@@]2(C(=O)N(c3c(nc(c4c(c(c(c(c34)[H])[H])[H])[H])[H])[H])C([C@@]2(C(c2c(c(c(c(c2[H])[H])[H])[H])[H])([H])[H])[H])([H])[H])c2c(c(Cl)c(c(c2C1=O)[H])[H])[H])([H])[H])([H])[H])[H])([H])([H])[H]

>  <h>  (21) 
<NA>

>  <Training>  (21) 
True

>  <Success>  (21) 
True

>  <enamine_searched>  (21) 
False

>  <enamine_id>  (21) 
nan

$$$$

     RDKit          3D

 63 68  0  0  0  0  0  0  0  0999 V2000
   -8.1550   -3.7531  -23.9268 C   0  0  0  0  0  0  0  0  0  0  0  0
   -8.3103   -3.0506  -22.5834 C   0  0  1  0  0  0  0  0  0  0  0  0
   -6.9865   -2.4951  -22.0331 C   0  0  0  0  0  0  0  0  0  0  0  0
   -7.4210   -1.4033  -21.1845 N   0  0  0  0  0  0  0  0  0  0  0  0
   -6.6226   -0.8242  -20.1710 C   0  0  0  0  0  0  0  0  0  0  0  0
   -6.9382   -1.0442  -18.8518 C   0  0  0  0  0  0  0  0  0  0  0  0
   -6.2314   -0.5555  -17.8086 N   0  0  0  0  0  0  0  0  0  0  0  0
   -5.1953    0.1996  -18.0878 C   0  0  0  0  0  0  0  0  0  0  0  0
   -4.7581    0.5076  -19.4076 C   0  0  0  0  0  0  0  0  0  0  0  0
   -3.6365    1.3446  -19.6502 C   0  0  0  0  0  0  0  0  0  0  0  0
   -3.2556    1.6407  -20.9313 C   0  0  0  0  0  0  0  0  0  0  0  0
   -3.9767    1.1201  -22.0238 C   0  0  0  0  0  0  0  0  0  0  0  0
   -5.0677    0.3025  -21.8185 C   0  0  0  0  0  0  0  0  0  0  0  0
   -5.4820   -0.0287  -20.4963 C   0  0  0  0  0  0  0  0  0  0  0  0
   -5.6662    0.0021  -22.6731 H   0  0  0  0  0  0  0  0  0  0  0  0
   -3.6892    1.3948  -23.0352 H   0  0  0  0  0  0  0  0  0  0  0  0
   -2.4039    2.2918  -21.1085 H   0  0  0  0  0  0  0  0  0  0  0  0
   -3.1085    1.7514  -18.7941 H   0  0  0  0  0  0  0  0  0  0  0  0
   -4.6377    0.6125  -17.2476 H   0  0  0  0  0  0  0  0  0  0  0  0
   -7.7988   -1.6614  -18.6063 H   0  0  0  0  0  0  0  0  0  0  0  0
   -8.7005   -0.9658  -21.4481 C   0  0  0  0  0  0  0  0  0  0  0  0
   -9.2219    0.0003  -20.9234 O   0  0  0  0  0  0  0  0  0  0  0  0
   -9.3075   -1.8573  -22.5634 C   0  0  1  0  0  0  0  0  0  0  0  0
   -9.2819   -1.0615  -23.8940 C   0  0  0  0  0  0  0  0  0  0  0  0
  -10.2067    0.0581  -23.8607 N   0  0  0  0  0  0  0  0  0  0  0  0
   -9.7947    1.2964  -24.4901 C   0  0  0  0  0  0  0  0  0  0  0  0
   -8.5455    1.8034  -23.7830 C   0  0  0  0  0  0  0  0  0  0  0  0
   -7.4240    1.6118  -24.2312 O   0  0  0  0  0  0  0  0  0  0  0  0
   -8.7815    2.3956  -22.5846 N   0  0  0  0  0  0  0  0  0  0  0  0
   -7.6837    2.6851  -21.6825 C   0  0  0  0  0  0  0  0  0  0  0  0
   -7.3119    4.1504  -21.6886 C   0  0  0  0  0  0  0  0  0  0  0  0
   -6.1605    4.7316  -20.9164 C   0  0  0  0  0  0  0  0  0  0  0  0
   -6.0664    4.5636  -22.4006 C   0  0  0  0  0  0  0  0  0  0  0  0
   -5.4134    3.7651  -22.7371 H   0  0  0  0  0  0  0  0  0  0  0  0
   -6.1348    5.4245  -23.0484 H   0  0  0  0  0  0  0  0  0  0  0  0
   -5.5962    4.0670  -20.2624 H   0  0  0  0  0  0  0  0  0  0  0  0
   -6.3269    5.7303  -20.5245 H   0  0  0  0  0  0  0  0  0  0  0  0
   -8.1433    4.8424  -21.7696 H   0  0  0  0  0  0  0  0  0  0  0  0
   -8.0012    2.2963  -20.7114 H   0  0  0  0  0  0  0  0  0  0  0  0
   -6.8233    2.0956  -22.0117 H   0  0  0  0  0  0  0  0  0  0  0  0
   -9.6812    2.2575  -22.1433 H   0  0  0  0  0  0  0  0  0  0  0  0
  -10.6283    1.9927  -24.3973 H   0  0  0  0  0  0  0  0  0  0  0  0
   -9.5850    1.1355  -25.5514 H   0  0  0  0  0  0  0  0  0  0  0  0
  -11.4840   -0.0653  -23.4019 C   0  0  0  0  0  0  0  0  0  0  0  0
  -12.3364    0.7984  -23.5591 O   0  0  0  0  0  0  0  0  0  0  0  0
  -11.7852   -1.3409  -22.6778 C   0  0  0  0  0  0  0  0  0  0  0  0
  -13.1231   -1.6053  -22.3790 C   0  0  0  0  0  0  0  0  0  0  0  0
  -13.4786   -2.7400  -21.6789 C   0  0  0  0  0  0  0  0  0  0  0  0
  -12.4600   -3.6006  -21.2956 C   0  0  0  0  0  0  0  0  0  0  0  0
  -12.7827   -4.6488  -20.5205 F   0  0  0  0  0  0  0  0  0  0  0  0
  -11.1369   -3.3992  -21.6347 C   0  0  0  0  0  0  0  0  0  0  0  0
  -10.7610   -2.2260  -22.3030 C   0  0  0  0  0  0  0  0  0  0  0  0
  -10.4236   -4.1508  -21.3178 H   0  0  0  0  0  0  0  0  0  0  0  0
  -14.5025   -2.9853  -21.4138 H   0  0  0  0  0  0  0  0  0  0  0  0
  -13.8732   -0.8961  -22.7095 H   0  0  0  0  0  0  0  0  0  0  0  0
   -8.2807   -0.6631  -24.0753 H   0  0  0  0  0  0  0  0  0  0  0  0
   -9.5439   -1.7354  -24.7215 H   0  0  0  0  0  0  0  0  0  0  0  0
   -6.3301   -2.1428  -22.8452 H   0  0  0  0  0  0  0  0  0  0  0  0
   -6.4335   -3.2459  -21.4562 H   0  0  0  0  0  0  0  0  0  0  0  0
   -8.6522   -3.7768  -21.8398 H   0  0  0  0  0  0  0  0  0  0  0  0
   -7.7139   -3.0724  -24.6664 H   0  0  0  0  0  0  0  0  0  0  0  0
   -7.5002   -4.6262  -23.8396 H   0  0  0  0  0  0  0  0  0  0  0  0
   -9.1272   -4.0801  -24.3142 H   0  0  0  0  0  0  0  0  0  0  0  0
  1  2  1  0
  2  3  1  0
  3  4  1  0
  4  5  1  0
  5  6  2  0
  6  7  1  0
  7  8  2  0
  8  9  1  0
  9 10  2  0
 10 11  1  0
 11 12  2  0
 12 13  1  0
 13 14  2  0
 13 15  1  0
 12 16  1  0
 11 17  1  0
 10 18  1  0
  8 19  1  0
  6 20  1  0
  4 21  1  0
 21 22  2  0
 21 23  1  0
 23 24  1  6
 24 25  1  0
 25 26  1  0
 26 27  1  0
 27 28  2  0
 27 29  1  0
 29 30  1  0
 30 31  1  0
 31 32  1  0
 32 33  1  0
 33 34  1  0
 33 35  1  0
 32 36  1  0
 32 37  1  0
 31 38  1  0
 30 39  1  0
 30 40  1  0
 29 41  1  0
 26 42  1  0
 26 43  1  0
 25 44  1  0
 44 45  2  0
 44 46  1  0
 46 47  2  0
 47 48  1  0
 48 49  2  0
 49 50  1  0
 49 51  1  0
 51 52  2  0
 51 53  1  0
 48 54  1  0
 47 55  1  0
 24 56  1  0
 24 57  1  0
  3 58  1  0
  3 59  1  0
  2 60  1  1
  1 61  1  0
  1 62  1  0
  1 63  1  0
 23  2  1  0
 33 31  1  0
 52 46  1  0
 14  5  1  0
 52 23  1  0
 14  9  1  0
M  END
>  <cnnaffinities>  (22) 
[6.79737]

>  <score>  (22) 
6.79737

>  <index>  (22) 
21

>  <Smiles>  (22) 
C([C@]1(C(N(c2c(nc(c3c(c(c(c(c23)[H])[H])[H])[H])[H])[H])C(=O)[C@]21C(N(C(C(=O)N(C(C1(C(C1([H])[H])([H])[H])[H])([H])[H])[H])([H])[H])C(=O)c1c(c(c(F)c(c21)[H])[H])[H])([H])[H])([H])[H])[H])([H])([H])[H]

>  <h>  (22) 
<NA>

>  <Training>  (22) 
True

>  <Success>  (22) 
True

>  <enamine_searched>  (22) 
False

>  <enamine_id>  (22) 
nan

$$$$

     RDKit          3D

 68 73  0  0  0  0  0  0  0  0999 V2000
   -7.4400    3.3609  -21.8359 C   0  0  0  0  0  0  0  0  0  0  0  0
   -8.3348    2.8711  -22.8698 N   0  0  0  0  0  0  0  0  0  0  0  0
   -7.7786    2.1578  -23.8928 C   0  0  0  0  0  0  0  0  0  0  0  0
   -6.5712    2.0241  -24.0258 O   0  0  0  0  0  0  0  0  0  0  0  0
   -8.7678    1.5467  -24.8811 C   0  0  0  0  0  0  0  0  0  0  0  0
   -9.4380    0.3978  -24.3179 N   0  0  0  0  0  0  0  0  0  0  0  0
   -8.6939   -0.8373  -24.1639 C   0  0  0  0  0  0  0  0  0  0  0  0
   -9.0647   -1.5719  -22.8546 C   0  0  2  0  0  0  0  0  0  0  0  0
   -8.5462   -0.7815  -21.6331 C   0  0  0  0  0  0  0  0  0  0  0  0
   -9.0416    0.2034  -21.1307 O   0  0  0  0  0  0  0  0  0  0  0  0
   -7.3942   -1.3872  -21.1961 N   0  0  0  0  0  0  0  0  0  0  0  0
   -6.6027   -0.8124  -20.1805 C   0  0  0  0  0  0  0  0  0  0  0  0
   -6.9224   -1.0480  -18.8692 C   0  0  0  0  0  0  0  0  0  0  0  0
   -6.2227   -0.5652  -17.8172 N   0  0  0  0  0  0  0  0  0  0  0  0
   -5.1848    0.1942  -18.0806 C   0  0  0  0  0  0  0  0  0  0  0  0
   -4.7425    0.5136  -19.3975 C   0  0  0  0  0  0  0  0  0  0  0  0
   -3.6131    1.3386  -19.6403 C   0  0  0  0  0  0  0  0  0  0  0  0
   -3.2322    1.6436  -20.9184 C   0  0  0  0  0  0  0  0  0  0  0  0
   -3.9601    1.1413  -22.0211 C   0  0  0  0  0  0  0  0  0  0  0  0
   -5.0572    0.3381  -21.8151 C   0  0  0  0  0  0  0  0  0  0  0  0
   -5.4708   -0.0013  -20.4959 C   0  0  0  0  0  0  0  0  0  0  0  0
   -5.6218   -0.0181  -22.6724 H   0  0  0  0  0  0  0  0  0  0  0  0
   -3.6612    1.3950  -23.0331 H   0  0  0  0  0  0  0  0  0  0  0  0
   -2.3726    2.2830  -21.0927 H   0  0  0  0  0  0  0  0  0  0  0  0
   -3.0778    1.7388  -18.7838 H   0  0  0  0  0  0  0  0  0  0  0  0
   -4.6241    0.5918  -17.2340 H   0  0  0  0  0  0  0  0  0  0  0  0
   -7.7905   -1.6611  -18.6360 H   0  0  0  0  0  0  0  0  0  0  0  0
   -7.0177   -2.5691  -21.9309 C   0  0  0  0  0  0  0  0  0  0  0  0
   -8.2971   -2.9198  -22.7052 C   0  0  2  0  0  0  0  0  0  0  0  0
   -8.0104   -3.7190  -23.9948 C   0  0  0  0  0  0  0  0  0  0  0  0
   -7.5047   -5.0621  -23.7998 N   0  0  0  0  0  0  0  0  0  0  0  0
   -6.2022   -5.3723  -23.4353 C   0  0  0  0  0  0  0  0  0  0  0  0
   -5.1007   -4.6253  -23.8780 C   0  0  0  0  0  0  0  0  0  0  0  0
   -3.8133   -4.9888  -23.4973 C   0  0  0  0  0  0  0  0  0  0  0  0
   -3.5868   -6.0858  -22.6753 C   0  0  0  0  0  0  0  0  0  0  0  0
   -4.6781   -6.8338  -22.2455 C   0  0  0  0  0  0  0  0  0  0  0  0
   -5.9671   -6.4957  -22.6275 C   0  0  0  0  0  0  0  0  0  0  0  0
   -6.8148   -7.0932  -22.2946 H   0  0  0  0  0  0  0  0  0  0  0  0
   -4.5271   -7.7028  -21.6131 H   0  0  0  0  0  0  0  0  0  0  0  0
   -2.5779   -6.3606  -22.3862 H   0  0  0  0  0  0  0  0  0  0  0  0
   -2.9778   -4.4023  -23.8597 H   0  0  0  0  0  0  0  0  0  0  0  0
   -5.2515   -3.7662  -24.5304 H   0  0  0  0  0  0  0  0  0  0  0  0
   -8.1893   -5.7467  -23.5232 H   0  0  0  0  0  0  0  0  0  0  0  0
   -8.9166   -3.7958  -24.6077 H   0  0  0  0  0  0  0  0  0  0  0  0
   -7.2830   -3.1658  -24.5944 H   0  0  0  0  0  0  0  0  0  0  0  0
   -8.9042   -3.5560  -22.0603 H   0  0  0  0  0  0  0  0  0  0  0  0
   -6.1762   -2.3663  -22.6127 H   0  0  0  0  0  0  0  0  0  0  0  0
   -6.7024   -3.3623  -21.2469 H   0  0  0  0  0  0  0  0  0  0  0  0
  -10.5739   -1.6544  -22.7869 C   0  0  0  0  0  0  0  0  0  0  0  0
  -11.1992   -2.5840  -21.9561 C   0  0  0  0  0  0  0  0  0  0  0  0
  -12.5784   -2.6139  -21.8699 C   0  0  0  0  0  0  0  0  0  0  0  0
  -13.3119   -3.7618  -20.7892 Cl  0  0  0  0  0  0  0  0  0  0  0  0
  -13.3884   -1.7401  -22.5957 C   0  0  0  0  0  0  0  0  0  0  0  0
  -12.7740   -0.7816  -23.3739 C   0  0  0  0  0  0  0  0  0  0  0  0
  -11.3847   -0.7135  -23.4347 C   0  0  0  0  0  0  0  0  0  0  0  0
  -10.7899    0.4517  -24.1487 C   0  0  0  0  0  0  0  0  0  0  0  0
  -11.4635    1.4012  -24.5256 O   0  0  0  0  0  0  0  0  0  0  0  0
  -13.3429   -0.0497  -23.9348 H   0  0  0  0  0  0  0  0  0  0  0  0
  -14.4683   -1.8052  -22.5158 H   0  0  0  0  0  0  0  0  0  0  0  0
  -10.6233   -3.2792  -21.3549 H   0  0  0  0  0  0  0  0  0  0  0  0
   -7.6248   -0.5996  -24.1896 H   0  0  0  0  0  0  0  0  0  0  0  0
   -8.9156   -1.5026  -25.0070 H   0  0  0  0  0  0  0  0  0  0  0  0
   -8.2022    1.2623  -25.7723 H   0  0  0  0  0  0  0  0  0  0  0  0
   -9.5491    2.2652  -25.1476 H   0  0  0  0  0  0  0  0  0  0  0  0
   -9.2879    2.6609  -22.5920 H   0  0  0  0  0  0  0  0  0  0  0  0
   -6.9591    2.5325  -21.2879 H   0  0  0  0  0  0  0  0  0  0  0  0
   -7.9699    4.0191  -21.1422 H   0  0  0  0  0  0  0  0  0  0  0  0
   -6.6494    3.9482  -22.3059 H   0  0  0  0  0  0  0  0  0  0  0  0
  1  2  1  0
  2  3  1  0
  3  4  2  0
  3  5  1  0
  5  6  1  0
  6  7  1  0
  8  7  1  6
  8  9  1  0
  9 10  2  0
  9 11  1  0
 11 12  1  0
 12 13  2  0
 13 14  1  0
 14 15  2  0
 15 16  1  0
 16 17  2  0
 17 18  1  0
 18 19  2  0
 19 20  1  0
 20 21  2  0
 20 22  1  0
 19 23  1  0
 18 24  1  0
 17 25  1  0
 15 26  1  0
 13 27  1  0
 11 28  1  0
 28 29  1  0
 29 30  1  0
 30 31  1  0
 31 32  1  0
 32 33  2  0
 33 34  1  0
 34 35  2  0
 35 36  1  0
 36 37  2  0
 37 38  1  0
 36 39  1  0
 35 40  1  0
 34 41  1  0
 33 42  1  0
 31 43  1  0
 30 44  1  0
 30 45  1  0
 29 46  1  1
 28 47  1  0
 28 48  1  0
  8 49  1  0
 49 50  2  0
 50 51  1  0
 51 52  1  0
 51 53  2  0
 53 54  1  0
 54 55  2  0
 55 56  1  0
 56 57  2  0
 54 58  1  0
 53 59  1  0
 50 60  1  0
  7 61  1  0
  7 62  1  0
  5 63  1  0
  5 64  1  0
  2 65  1  0
  1 66  1  0
  1 67  1  0
  1 68  1  0
 56  6  1  0
 29  8  1  0
 37 32  1  0
 55 49  1  0
 21 12  1  0
 21 16  1  0
M  END
>  <cnnaffinities>  (23) 
[6.60403, 6.61317]

>  <score>  (23) 
6.60403

>  <index>  (23) 
23

>  <Smiles>  (23) 
C(N(C(=O)C(N1C([C@@]2(C(=O)N(c3c(nc(c4c(c(c(c(c34)[H])[H])[H])[H])[H])[H])C([C@@]2(C(N(c2c(c(c(c(c2[H])[H])[H])[H])[H])[H])([H])[H])[H])([H])[H])c2c(c(Cl)c(c(c2C1=O)[H])[H])[H])([H])[H])([H])[H])[H])([H])([H])[H]

>  <h>  (23) 
<NA>

>  <Training>  (23) 
True

>  <Success>  (23) 
True

>  <enamine_searched>  (23) 
False

>  <enamine_id>  (23) 
nan

$$$$

     RDKit          3D

 65 70  0  0  0  0  0  0  0  0999 V2000
   -5.9554   -7.5241  -25.2514 O   0  0  0  0  0  0  0  0  0  0  0  0
   -5.8827   -7.0889  -24.1148 C   0  0  0  0  0  0  0  0  0  0  0  0
   -7.0741   -6.4338  -23.4267 C   0  0  0  0  0  0  0  0  0  0  0  0
   -7.0968   -4.9833  -23.6922 N   0  0  1  0  0  4  0  0  0  0  0  0
   -7.2234   -4.7280  -25.1828 C   0  0  0  0  0  0  0  0  0  0  0  0
   -7.1848   -3.2565  -25.4944 C   0  0  0  0  0  0  0  0  0  0  0  0
   -6.8338   -2.7870  -26.7615 C   0  0  0  0  0  0  0  0  0  0  0  0
   -6.7799   -1.4262  -27.0367 C   0  0  0  0  0  0  0  0  0  0  0  0
   -7.0820   -0.5254  -26.0206 C   0  0  0  0  0  0  0  0  0  0  0  0
   -6.9870    1.1880  -26.3297 Cl  0  0  0  0  0  0  0  0  0  0  0  0
   -7.4712   -0.9753  -24.7687 C   0  0  0  0  0  0  0  0  0  0  0  0
   -7.5678   -2.3480  -24.5093 C   0  0  0  0  0  0  0  0  0  0  0  0
   -8.0233   -2.8149  -23.1396 C   0  0  2  0  0  0  0  0  0  0  0  0
   -9.2168   -2.0421  -22.5766 C   0  0  0  0  0  0  0  0  0  0  0  0
   -8.6639   -1.1369  -21.4713 C   0  0  0  0  0  0  0  0  0  0  0  0
   -7.2794   -1.5425  -21.3041 N   0  0  0  0  0  0  0  0  0  0  0  0
   -6.5008   -0.9641  -20.2763 C   0  0  0  0  0  0  0  0  0  0  0  0
   -6.8983   -1.1203  -18.9728 C   0  0  0  0  0  0  0  0  0  0  0  0
   -6.2594   -0.5936  -17.9053 N   0  0  0  0  0  0  0  0  0  0  0  0
   -5.2159    0.1640  -18.1457 C   0  0  0  0  0  0  0  0  0  0  0  0
   -4.7314    0.4527  -19.4524 C   0  0  0  0  0  0  0  0  0  0  0  0
   -3.6189    1.3107  -19.6508 C   0  0  0  0  0  0  0  0  0  0  0  0
   -3.2234    1.6449  -20.9162 C   0  0  0  0  0  0  0  0  0  0  0  0
   -3.9190    1.1377  -22.0376 C   0  0  0  0  0  0  0  0  0  0  0  0
   -4.9850    0.2846  -21.8766 C   0  0  0  0  0  0  0  0  0  0  0  0
   -5.4038   -0.0949  -20.5676 C   0  0  0  0  0  0  0  0  0  0  0  0
   -5.5205   -0.0916  -22.7477 H   0  0  0  0  0  0  0  0  0  0  0  0
   -3.6122    1.4376  -23.0347 H   0  0  0  0  0  0  0  0  0  0  0  0
   -2.3859    2.3209  -21.0655 H   0  0  0  0  0  0  0  0  0  0  0  0
   -3.1208    1.7177  -18.7754 H   0  0  0  0  0  0  0  0  0  0  0  0
   -4.7027    0.5932  -17.2851 H   0  0  0  0  0  0  0  0  0  0  0  0
   -7.7811   -1.7164  -18.7466 H   0  0  0  0  0  0  0  0  0  0  0  0
   -6.8879   -2.5402  -22.1521 C   0  0  0  0  0  0  0  0  0  0  0  0
   -5.8383   -3.1660  -22.1468 O   0  0  0  0  0  0  0  0  0  0  0  0
   -9.2060   -1.3008  -20.5479 H   0  0  0  0  0  0  0  0  0  0  0  0
   -8.7336   -0.0706  -21.7151 H   0  0  0  0  0  0  0  0  0  0  0  0
   -9.9328   -2.7526  -22.1511 H   0  0  0  0  0  0  0  0  0  0  0  0
   -9.7510   -1.4822  -23.3479 H   0  0  0  0  0  0  0  0  0  0  0  0
   -8.2579   -4.3223  -23.0485 C   0  0  0  0  0  0  0  0  0  0  0  0
   -8.3180   -4.6102  -21.9926 H   0  0  0  0  0  0  0  0  0  0  0  0
   -9.1970   -4.6194  -23.5377 H   0  0  0  0  0  0  0  0  0  0  0  0
   -7.6941   -0.2439  -23.9971 H   0  0  0  0  0  0  0  0  0  0  0  0
   -6.5033   -1.0638  -28.0223 H   0  0  0  0  0  0  0  0  0  0  0  0
   -6.6013   -3.4898  -27.5605 H   0  0  0  0  0  0  0  0  0  0  0  0
   -6.4471   -5.2829  -25.7062 H   0  0  0  0  0  0  0  0  0  0  0  0
   -8.1878   -5.1504  -25.5051 H   0  0  0  0  0  0  0  0  0  0  0  0
   -6.2434   -4.5113  -23.2986 H   0  0  0  0  0  0  0  0  0  0  0  0
   -7.0517   -6.6398  -22.3523 H   0  0  0  0  0  0  0  0  0  0  0  0
   -7.9862   -6.8793  -23.8434 H   0  0  0  0  0  0  0  0  0  0  0  0
   -4.7179   -7.1222  -23.4311 N   0  0  0  0  0  0  0  0  0  0  0  0
   -3.6217   -7.8609  -24.0236 C   0  0  0  0  0  0  0  0  0  0  0  0
   -2.3293   -7.5977  -23.2977 C   0  0  1  0  0  0  0  0  0  0  0  0
   -1.0663   -8.0401  -24.0714 C   0  0  0  0  0  0  0  0  0  0  0  0
   -0.5920   -6.5769  -24.1224 C   0  0  1  0  0  0  0  0  0  0  0  0
   -0.4666   -6.0750  -25.4108 F   0  0  0  0  0  0  0  0  0  0  0  0
   -1.8841   -6.1245  -23.4258 C   0  0  0  0  0  0  0  0  0  0  0  0
   -1.8090   -5.5701  -22.4903 H   0  0  0  0  0  0  0  0  0  0  0  0
   -2.5087   -5.5584  -24.1262 H   0  0  0  0  0  0  0  0  0  0  0  0
    0.3457   -6.3598  -23.6004 H   0  0  0  0  0  0  0  0  0  0  0  0
   -1.2687   -8.4369  -25.0721 H   0  0  0  0  0  0  0  0  0  0  0  0
   -0.4093   -8.7346  -23.5459 H   0  0  0  0  0  0  0  0  0  0  0  0
   -2.3672   -7.9725  -22.2650 H   0  0  0  0  0  0  0  0  0  0  0  0
   -3.5524   -7.5131  -25.0586 H   0  0  0  0  0  0  0  0  0  0  0  0
   -3.8684   -8.9247  -24.0898 H   0  0  0  0  0  0  0  0  0  0  0  0
   -4.6727   -6.7510  -22.4989 H   0  0  0  0  0  0  0  0  0  0  0  0
  1  2  2  0
  2  3  1  0
  3  4  1  0
  4  5  1  0
  5  6  1  0
  6  7  2  0
  7  8  1  0
  8  9  2  0
  9 10  1  0
  9 11  1  0
 11 12  2  0
 12 13  1  0
 13 14  1  1
 14 15  1  0
 15 16  1  0
 16 17  1  0
 17 18  2  0
 18 19  1  0
 19 20  2  0
 20 21  1  0
 21 22  2  0
 22 23  1  0
 23 24  2  0
 24 25  1  0
 25 26  2  0
 25 27  1  0
 24 28  1  0
 23 29  1  0
 22 30  1  0
 20 31  1  0
 18 32  1  0
 16 33  1  0
 33 34  2  0
 15 35  1  0
 15 36  1  0
 14 37  1  0
 14 38  1  0
 13 39  1  0
 39 40  1  0
 39 41  1  0
 11 42  1  0
  8 43  1  0
  7 44  1  0
  5 45  1  0
  5 46  1  0
  4 47  1  1
  3 48  1  0
  3 49  1  0
  2 50  1  0
 50 51  1  0
 51 52  1  0
 52 53  1  0
 53 54  1  0
 54 55  1  0
 54 56  1  0
 56 57  1  0
 56 58  1  0
 54 59  1  1
 53 60  1  0
 53 61  1  0
 52 62  1  1
 51 63  1  0
 51 64  1  0
 50 65  1  0
 39  4  1  0
 56 52  1  0
 12  6  1  0
 33 13  1  0
 26 17  1  0
 26 21  1  0
M  CHG  1   4   1
M  END
>  <cnnaffinities>  (24) 
[6.5078]

>  <score>  (24) 
6.5078

>  <index>  (24) 
24

>  <Smiles>  (24) 
O=C(C([N@+]1(C(c2c(c(c(Cl)c(c2[C@@]2(C(C(N(c3c(nc(c4c(c(c(c(c34)[H])[H])[H])[H])[H])[H])C2=O)([H])[H])([H])[H])C1([H])[H])[H])[H])[H])([H])[H])[H])([H])[H])N(C([C@]1(C([C@@](F)(C1([H])[H])[H])([H])[H])[H])([H])[H])[H]

>  <h>  (24) 
<NA>

>  <Training>  (24) 
True

>  <Success>  (24) 
True

>  <enamine_searched>  (24) 
False

>  <enamine_id>  (24) 
nan

$$$$

     RDKit          3D

 70 75  0  0  0  0  0  0  0  0999 V2000
   -5.6041   -7.4796  -25.6104 O   0  0  0  0  0  0  0  0  0  0  0  0
   -5.5756   -7.0414  -24.4751 C   0  0  0  0  0  0  0  0  0  0  0  0
   -6.7961   -6.3691  -23.8432 C   0  0  0  0  0  0  0  0  0  0  0  0
   -6.7930   -4.8752  -23.9444 N   0  0  1  0  0  4  0  0  0  0  0  0
   -6.7610   -4.5110  -25.4191 C   0  0  0  0  0  0  0  0  0  0  0  0
   -6.7767   -3.0222  -25.6328 C   0  0  0  0  0  0  0  0  0  0  0  0
   -6.2864   -2.4786  -26.8198 C   0  0  0  0  0  0  0  0  0  0  0  0
   -6.3078   -1.1072  -27.0343 C   0  0  0  0  0  0  0  0  0  0  0  0
   -6.8192   -0.2708  -26.0480 C   0  0  0  0  0  0  0  0  0  0  0  0
   -6.8477    1.4515  -26.3014 Cl  0  0  0  0  0  0  0  0  0  0  0  0
   -7.3095   -0.7984  -24.8651 C   0  0  0  0  0  0  0  0  0  0  0  0
   -7.3033   -2.1791  -24.6576 C   0  0  0  0  0  0  0  0  0  0  0  0
   -7.8151   -2.7071  -23.3348 C   0  0  2  0  0  0  0  0  0  0  0  0
   -6.8231   -2.3785  -22.2294 C   0  0  0  0  0  0  0  0  0  0  0  0
   -5.7305   -2.9240  -22.2101 O   0  0  0  0  0  0  0  0  0  0  0  0
   -7.2765   -1.4640  -21.3010 N   0  0  0  0  0  0  0  0  0  0  0  0
   -6.5392   -0.8784  -20.2440 C   0  0  0  0  0  0  0  0  0  0  0  0
   -6.9027   -1.0763  -18.9318 C   0  0  0  0  0  0  0  0  0  0  0  0
   -6.2273   -0.5820  -17.8653 N   0  0  0  0  0  0  0  0  0  0  0  0
   -5.1873    0.1830  -18.1017 C   0  0  0  0  0  0  0  0  0  0  0  0
   -4.7378    0.5056  -19.4128 C   0  0  0  0  0  0  0  0  0  0  0  0
   -3.6184    1.3517  -19.6313 C   0  0  0  0  0  0  0  0  0  0  0  0
   -3.2430    1.6891  -20.9042 C   0  0  0  0  0  0  0  0  0  0  0  0
   -3.9662    1.2014  -22.0175 C   0  0  0  0  0  0  0  0  0  0  0  0
   -5.0444    0.3716  -21.8361 C   0  0  0  0  0  0  0  0  0  0  0  0
   -5.4396   -0.0123  -20.5205 C   0  0  0  0  0  0  0  0  0  0  0  0
   -5.6110    0.0133  -22.6905 H   0  0  0  0  0  0  0  0  0  0  0  0
   -3.6683    1.4864  -23.0248 H   0  0  0  0  0  0  0  0  0  0  0  0
   -2.3866    2.3398  -21.0683 H   0  0  0  0  0  0  0  0  0  0  0  0
   -3.0872    1.7342  -18.7637 H   0  0  0  0  0  0  0  0  0  0  0  0
   -4.6434    0.5853  -17.2436 H   0  0  0  0  0  0  0  0  0  0  0  0
   -7.7698   -1.6909  -18.6796 H   0  0  0  0  0  0  0  0  0  0  0  0
   -8.2814   -1.4022  -21.2116 H   0  0  0  0  0  0  0  0  0  0  0  0
   -8.0102   -4.2222  -23.3184 C   0  0  0  0  0  0  0  0  0  0  0  0
   -8.9065   -4.4993  -23.8813 H   0  0  0  0  0  0  0  0  0  0  0  0
   -8.1209   -4.5587  -22.2833 H   0  0  0  0  0  0  0  0  0  0  0  0
   -8.7443   -2.1963  -23.0830 H   0  0  0  0  0  0  0  0  0  0  0  0
   -7.6847   -0.1338  -24.0936 H   0  0  0  0  0  0  0  0  0  0  0  0
   -5.9315   -0.6847  -27.9569 H   0  0  0  0  0  0  0  0  0  0  0  0
   -5.8850   -3.1390  -27.5893 H   0  0  0  0  0  0  0  0  0  0  0  0
   -7.6435   -4.9806  -25.8766 H   0  0  0  0  0  0  0  0  0  0  0  0
   -5.8883   -4.9702  -25.8870 H   0  0  0  0  0  0  0  0  0  0  0  0
   -5.9764   -4.4397  -23.4508 H   0  0  0  0  0  0  0  0  0  0  0  0
   -7.6476   -6.7849  -24.3959 H   0  0  0  0  0  0  0  0  0  0  0  0
   -6.8756   -6.6898  -22.8052 H   0  0  0  0  0  0  0  0  0  0  0  0
   -4.4570   -7.1262  -23.6916 N   0  0  0  0  0  0  0  0  0  0  0  0
   -3.2590   -7.7427  -24.1353 C   0  0  0  0  0  0  0  0  0  0  0  0
   -2.0361   -7.0985  -23.9363 C   0  0  0  0  0  0  0  0  0  0  0  0
   -0.8631   -7.7018  -24.3760 C   0  0  0  0  0  0  0  0  0  0  0  0
   -0.9064   -8.9423  -25.0189 C   0  0  0  0  0  0  0  0  0  0  0  0
    0.3053   -9.5499  -25.4697 N   0  0  0  0  0  0  0  0  0  0  0  0
    1.3177   -9.8667  -24.4658 C   0  0  0  0  0  0  0  0  0  0  0  0
    2.6352  -10.2238  -25.1305 C   0  0  0  0  0  0  0  0  0  0  0  0
    2.4029  -11.1750  -26.1412 O   0  0  0  0  0  0  0  0  0  0  0  0
    1.6782  -10.6202  -27.2042 C   0  0  0  0  0  0  0  0  0  0  0  0
    0.3865   -9.9369  -26.7850 C   0  0  0  0  0  0  0  0  0  0  0  0
   -0.4838   -9.7056  -27.6057 O   0  0  0  0  0  0  0  0  0  0  0  0
    2.2730   -9.8627  -27.7375 H   0  0  0  0  0  0  0  0  0  0  0  0
    1.4211  -11.4254  -27.8956 H   0  0  0  0  0  0  0  0  0  0  0  0
    3.1358   -9.3384  -25.5478 H   0  0  0  0  0  0  0  0  0  0  0  0
    3.3204  -10.6818  -24.4108 H   0  0  0  0  0  0  0  0  0  0  0  0
    1.4547   -9.0102  -23.7969 H   0  0  0  0  0  0  0  0  0  0  0  0
    0.9663  -10.7189  -23.8722 H   0  0  0  0  0  0  0  0  0  0  0  0
   -2.1318   -9.5904  -25.1995 C   0  0  0  0  0  0  0  0  0  0  0  0
   -3.3045   -8.9869  -24.7677 C   0  0  0  0  0  0  0  0  0  0  0  0
   -4.2617   -9.4672  -24.9399 H   0  0  0  0  0  0  0  0  0  0  0  0
   -2.1748  -10.5613  -25.6927 H   0  0  0  0  0  0  0  0  0  0  0  0
    0.0942   -7.1981  -24.2363 H   0  0  0  0  0  0  0  0  0  0  0  0
   -2.0061   -6.1247  -23.4473 H   0  0  0  0  0  0  0  0  0  0  0  0
   -4.4116   -6.5424  -22.8707 H   0  0  0  0  0  0  0  0  0  0  0  0
  1  2  2  0
  2  3  1  0
  3  4  1  0
  4  5  1  0
  5  6  1  0
  6  7  2  0
  7  8  1  0
  8  9  2  0
  9 10  1  0
  9 11  1  0
 11 12  2  0
 12 13  1  0
 13 14  1  0
 14 15  2  0
 14 16  1  0
 16 17  1  0
 17 18  2  0
 18 19  1  0
 19 20  2  0
 20 21  1  0
 21 22  2  0
 22 23  1  0
 23 24  2  0
 24 25  1  0
 25 26  2  0
 25 27  1  0
 24 28  1  0
 23 29  1  0
 22 30  1  0
 20 31  1  0
 18 32  1  0
 16 33  1  0
 13 34  1  0
 34 35  1  0
 34 36  1  0
 13 37  1  1
 11 38  1  0
  8 39  1  0
  7 40  1  0
  5 41  1  0
  5 42  1  0
  4 43  1  1
  3 44  1  0
  3 45  1  0
  2 46  1  0
 46 47  1  0
 47 48  2  0
 48 49  1  0
 49 50  2  0
 50 51  1  0
 51 52  1  0
 52 53  1  0
 53 54  1  0
 54 55  1  0
 55 56  1  0
 56 57  2  0
 55 58  1  0
 55 59  1  0
 53 60  1  0
 53 61  1  0
 52 62  1  0
 52 63  1  0
 50 64  1  0
 64 65  2  0
 65 66  1  0
 64 67  1  0
 49 68  1  0
 48 69  1  0
 46 70  1  0
 34  4  1  0
 65 47  1  0
 12  6  1  0
 26 17  1  0
 56 51  1  0
 26 21  1  0
M  CHG  1   4   1
M  END
>  <cnnaffinities>  (25) 
[6.19635, 6.41062]

>  <score>  (25) 
6.19635

>  <index>  (25) 
25

>  <Smiles>  (25) 
O=C(C([N@+]1(C(c2c(c(c(Cl)c(c2[C@](C(=O)N(c2c(nc(c3c(c(c(c(c23)[H])[H])[H])[H])[H])[H])[H])(C1([H])[H])[H])[H])[H])[H])([H])[H])[H])([H])[H])N(c1c(c(c(N2C(C(OC(C2=O)([H])[H])([H])[H])([H])[H])c(c1[H])[H])[H])[H])[H]

>  <h>  (25) 
<NA>

>  <Training>  (25) 
True

>  <Success>  (25) 
True

>  <enamine_searched>  (25) 
False

>  <enamine_id>  (25) 
nan

$$$$

     RDKit          3D

 55 60  0  0  0  0  0  0  0  0999 V2000
   -7.8790   -3.6225  -24.0840 C   0  0  0  0  0  0  0  0  0  0  0  0
   -8.2916   -2.8540  -22.8193 C   0  0  1  0  0  0  0  0  0  0  0  0
   -7.0950   -2.6240  -21.8708 C   0  0  0  0  0  0  0  0  0  0  0  0
   -7.4093   -1.3783  -21.2016 N   0  0  0  0  0  0  0  0  0  0  0  0
   -6.6075   -0.8023  -20.1798 C   0  0  0  0  0  0  0  0  0  0  0  0
   -6.9053   -1.0460  -18.8647 C   0  0  0  0  0  0  0  0  0  0  0  0
   -6.1936   -0.5630  -17.8184 N   0  0  0  0  0  0  0  0  0  0  0  0
   -5.1678    0.2096  -18.0818 C   0  0  0  0  0  0  0  0  0  0  0  0
   -4.7343    0.5351  -19.3993 C   0  0  0  0  0  0  0  0  0  0  0  0
   -3.6024    1.3615  -19.6432 C   0  0  0  0  0  0  0  0  0  0  0  0
   -3.2058    1.6426  -20.9211 C   0  0  0  0  0  0  0  0  0  0  0  0
   -3.9161    1.0954  -22.0139 C   0  0  0  0  0  0  0  0  0  0  0  0
   -5.0095    0.2860  -21.8021 C   0  0  0  0  0  0  0  0  0  0  0  0
   -5.4621    0.0006  -20.4870 C   0  0  0  0  0  0  0  0  0  0  0  0
   -5.5644   -0.0951  -22.6536 H   0  0  0  0  0  0  0  0  0  0  0  0
   -3.6215    1.3408  -23.0280 H   0  0  0  0  0  0  0  0  0  0  0  0
   -2.3547    2.2938  -21.1011 H   0  0  0  0  0  0  0  0  0  0  0  0
   -3.0746    1.7741  -18.7873 H   0  0  0  0  0  0  0  0  0  0  0  0
   -4.6243    0.6145  -17.2274 H   0  0  0  0  0  0  0  0  0  0  0  0
   -7.7543   -1.6706  -18.5997 H   0  0  0  0  0  0  0  0  0  0  0  0
   -8.4136   -0.6477  -21.7964 C   0  0  0  0  0  0  0  0  0  0  0  0
   -8.7764    0.4352  -21.3930 O   0  0  0  0  0  0  0  0  0  0  0  0
   -8.9515   -1.4479  -23.0168 C   0  0  1  0  0  0  0  0  0  0  0  0
   -8.4798   -0.8041  -24.3453 C   0  0  0  0  0  0  0  0  0  0  0  0
   -9.1320    0.4542  -24.6164 N   0  0  0  0  0  0  0  0  0  0  0  0
   -8.3412    1.6304  -24.9488 C   0  0  0  0  0  0  0  0  0  0  0  0
   -8.0441    2.4984  -23.7548 C   0  0  0  0  0  0  0  0  0  0  0  0
   -8.8766    3.4257  -23.1132 C   0  0  0  0  0  0  0  0  0  0  0  0
   -8.2171    3.9573  -22.0894 N   0  0  0  0  0  0  0  0  0  0  0  0
   -7.0519    3.3512  -22.1276 N   0  0  0  0  0  0  0  0  0  0  0  0
   -6.8767    2.4744  -23.1051 N   0  0  0  0  0  0  0  0  0  0  0  0
   -6.3697    3.5051  -21.3971 H   0  0  0  0  0  0  0  0  0  0  0  0
   -9.9056    3.6929  -23.3243 H   0  0  0  0  0  0  0  0  0  0  0  0
   -7.3951    1.3094  -25.3965 H   0  0  0  0  0  0  0  0  0  0  0  0
   -8.9110    2.2043  -25.6845 H   0  0  0  0  0  0  0  0  0  0  0  0
  -10.4874    0.5997  -24.5130 C   0  0  0  0  0  0  0  0  0  0  0  0
  -11.0615    1.5744  -24.9858 O   0  0  0  0  0  0  0  0  0  0  0  0
  -11.1916   -0.4791  -23.7405 C   0  0  0  0  0  0  0  0  0  0  0  0
  -12.5872   -0.4622  -23.6969 C   0  0  0  0  0  0  0  0  0  0  0  0
  -13.2824   -1.3257  -22.8740 C   0  0  0  0  0  0  0  0  0  0  0  0
  -12.5491   -2.1885  -22.0697 C   0  0  0  0  0  0  0  0  0  0  0  0
  -13.2114   -2.9884  -21.2189 F   0  0  0  0  0  0  0  0  0  0  0  0
  -11.1720   -2.2425  -22.1010 C   0  0  0  0  0  0  0  0  0  0  0  0
  -10.4689   -1.4234  -22.9930 C   0  0  0  0  0  0  0  0  0  0  0  0
  -10.6761   -2.9016  -21.3961 H   0  0  0  0  0  0  0  0  0  0  0  0
  -14.3649   -1.3344  -22.8088 H   0  0  0  0  0  0  0  0  0  0  0  0
  -13.1064    0.2644  -24.3082 H   0  0  0  0  0  0  0  0  0  0  0  0
   -7.4080   -0.5960  -24.2693 H   0  0  0  0  0  0  0  0  0  0  0  0
   -8.6643   -1.5040  -25.1757 H   0  0  0  0  0  0  0  0  0  0  0  0
   -6.1467   -2.5558  -22.4285 H   0  0  0  0  0  0  0  0  0  0  0  0
   -6.9731   -3.4312  -21.1393 H   0  0  0  0  0  0  0  0  0  0  0  0
   -9.0306   -3.4586  -22.2883 H   0  0  0  0  0  0  0  0  0  0  0  0
   -7.4902   -4.6163  -23.8311 H   0  0  0  0  0  0  0  0  0  0  0  0
   -7.0871   -3.0979  -24.6338 H   0  0  0  0  0  0  0  0  0  0  0  0
   -8.7171   -3.7633  -24.7762 H   0  0  0  0  0  0  0  0  0  0  0  0
  1  2  1  0
  2  3  1  0
  3  4  1  0
  4  5  1  0
  5  6  2  0
  6  7  1  0
  7  8  2  0
  8  9  1  0
  9 10  2  0
 10 11  1  0
 11 12  2  0
 12 13  1  0
 13 14  2  0
 13 15  1  0
 12 16  1  0
 11 17  1  0
 10 18  1  0
  8 19  1  0
  6 20  1  0
  4 21  1  0
 21 22  2  0
 21 23  1  0
 23 24  1  6
 24 25  1  0
 25 26  1  0
 26 27  1  0
 27 28  1  0
 28 29  2  0
 29 30  1  0
 30 31  1  0
 30 32  1  0
 28 33  1  0
 26 34  1  0
 26 35  1  0
 25 36  1  0
 36 37  2  0
 36 38  1  0
 38 39  2  0
 39 40  1  0
 40 41  2  0
 41 42  1  0
 41 43  1  0
 43 44  2  0
 43 45  1  0
 40 46  1  0
 39 47  1  0
 24 48  1  0
 24 49  1  0
  3 50  1  0
  3 51  1  0
  2 52  1  1
  1 53  1  0
  1 54  1  0
  1 55  1  0
 23  2  1  0
 31 27  2  0
 44 38  1  0
 14  5  1  0
 44 23  1  0
 14  9  1  0
M  END
>  <cnnaffinities>  (26) 
[5.96622, 6.07951]

>  <score>  (26) 
5.96622

>  <index>  (26) 
26

>  <Smiles>  (26) 
C([C@]1(C(N(c2c(nc(c3c(c(c(c(c23)[H])[H])[H])[H])[H])[H])C(=O)[C@]21C(N(C(c1c(nn(n1)[H])[H])([H])[H])C(=O)c1c(c(c(F)c(c21)[H])[H])[H])([H])[H])([H])[H])[H])([H])([H])[H]

>  <h>  (26) 
<NA>

>  <Training>  (26) 
True

>  <Success>  (26) 
True

>  <enamine_searched>  (26) 
False

>  <enamine_id>  (26) 
nan

$$$$

     RDKit          3D

 58 62  0  0  0  0  0  0  0  0999 V2000
   -7.0479    3.5736  -22.0987 C   0  0  0  0  0  0  0  0  0  0  0  0
   -7.2889    2.5310  -23.1012 N   0  0  0  0  0  4  0  0  0  0  0  0
   -8.4453    2.8263  -23.9968 C   0  0  0  0  0  0  0  0  0  0  0  0
   -8.7211    1.6662  -24.9547 C   0  0  0  0  0  0  0  0  0  0  0  0
   -9.3783    0.5270  -24.3211 N   0  0  0  0  0  0  0  0  0  0  0  0
   -8.6749   -0.7345  -24.1906 C   0  0  0  0  0  0  0  0  0  0  0  0
   -9.0695   -1.4893  -22.8980 C   0  0  2  0  0  0  0  0  0  0  0  0
   -8.5319   -0.7316  -21.6595 C   0  0  0  0  0  0  0  0  0  0  0  0
   -8.9666    0.2989  -21.1805 O   0  0  0  0  0  0  0  0  0  0  0  0
   -7.4159   -1.3851  -21.1927 N   0  0  0  0  0  0  0  0  0  0  0  0
   -6.6056   -0.8065  -20.1760 C   0  0  0  0  0  0  0  0  0  0  0  0
   -6.9092   -1.0431  -18.8619 C   0  0  0  0  0  0  0  0  0  0  0  0
   -6.1974   -0.5604  -17.8155 N   0  0  0  0  0  0  0  0  0  0  0  0
   -5.1681    0.2042  -18.0869 C   0  0  0  0  0  0  0  0  0  0  0  0
   -4.7370    0.5329  -19.4033 C   0  0  0  0  0  0  0  0  0  0  0  0
   -3.6087    1.3631  -19.6461 C   0  0  0  0  0  0  0  0  0  0  0  0
   -3.2244    1.6646  -20.9238 C   0  0  0  0  0  0  0  0  0  0  0  0
   -3.9460    1.1398  -22.0183 C   0  0  0  0  0  0  0  0  0  0  0  0
   -5.0380    0.3285  -21.8110 C   0  0  0  0  0  0  0  0  0  0  0  0
   -5.4736    0.0086  -20.4945 C   0  0  0  0  0  0  0  0  0  0  0  0
   -5.5689   -0.0819  -22.6655 H   0  0  0  0  0  0  0  0  0  0  0  0
   -3.6426    1.3852  -23.0329 H   0  0  0  0  0  0  0  0  0  0  0  0
   -2.3723    2.3167  -21.0990 H   0  0  0  0  0  0  0  0  0  0  0  0
   -3.0797    1.7688  -18.7872 H   0  0  0  0  0  0  0  0  0  0  0  0
   -4.6239    0.6118  -17.2343 H   0  0  0  0  0  0  0  0  0  0  0  0
   -7.7624   -1.6672  -18.6052 H   0  0  0  0  0  0  0  0  0  0  0  0
   -7.0558   -2.5681  -21.9505 C   0  0  0  0  0  0  0  0  0  0  0  0
   -8.3138   -2.8547  -22.8005 C   0  0  2  0  0  0  0  0  0  0  0  0
   -7.9716   -3.5637  -24.1206 C   0  0  0  0  0  0  0  0  0  0  0  0
   -7.5152   -4.5457  -23.9354 H   0  0  0  0  0  0  0  0  0  0  0  0
   -8.8585   -3.7218  -24.7480 H   0  0  0  0  0  0  0  0  0  0  0  0
   -7.2502   -2.9797  -24.7104 H   0  0  0  0  0  0  0  0  0  0  0  0
   -8.9597   -3.5137  -22.2150 H   0  0  0  0  0  0  0  0  0  0  0  0
   -6.8031   -3.3943  -21.2733 H   0  0  0  0  0  0  0  0  0  0  0  0
   -6.1731   -2.3878  -22.5862 H   0  0  0  0  0  0  0  0  0  0  0  0
  -10.5841   -1.5587  -22.8306 C   0  0  0  0  0  0  0  0  0  0  0  0
  -11.2281   -2.5130  -22.0334 C   0  0  0  0  0  0  0  0  0  0  0  0
  -12.6047   -2.5160  -21.9575 C   0  0  0  0  0  0  0  0  0  0  0  0
  -13.2120   -3.4390  -21.1926 F   0  0  0  0  0  0  0  0  0  0  0  0
  -13.3907   -1.5898  -22.6330 C   0  0  0  0  0  0  0  0  0  0  0  0
  -12.7586   -0.6078  -23.3671 C   0  0  0  0  0  0  0  0  0  0  0  0
  -11.3665   -0.5686  -23.4475 C   0  0  0  0  0  0  0  0  0  0  0  0
  -10.7315    0.5971  -24.1518 C   0  0  0  0  0  0  0  0  0  0  0  0
  -11.3829    1.5616  -24.5367 O   0  0  0  0  0  0  0  0  0  0  0  0
  -13.3158    0.1672  -23.8810 H   0  0  0  0  0  0  0  0  0  0  0  0
  -14.4677   -1.6482  -22.5500 H   0  0  0  0  0  0  0  0  0  0  0  0
  -10.6898   -3.2407  -21.4364 H   0  0  0  0  0  0  0  0  0  0  0  0
   -8.8797   -1.3867  -25.0548 H   0  0  0  0  0  0  0  0  0  0  0  0
   -7.6020   -0.5131  -24.1568 H   0  0  0  0  0  0  0  0  0  0  0  0
   -7.7776    1.3091  -25.3863 H   0  0  0  0  0  0  0  0  0  0  0  0
   -9.3725    2.0144  -25.7597 H   0  0  0  0  0  0  0  0  0  0  0  0
   -9.3310    3.0116  -23.3795 H   0  0  0  0  0  0  0  0  0  0  0  0
   -8.2389    3.7366  -24.5712 H   0  0  0  0  0  0  0  0  0  0  0  0
   -6.4226    2.4047  -23.6783 H   0  0  0  0  0  0  0  0  0  0  0  0
   -7.5015    1.6390  -22.6010 H   0  0  0  0  0  0  0  0  0  0  0  0
   -6.1792    3.2987  -21.4982 H   0  0  0  0  0  0  0  0  0  0  0  0
   -7.9262    3.6774  -21.4529 H   0  0  0  0  0  0  0  0  0  0  0  0
   -6.8745    4.5487  -22.5701 H   0  0  0  0  0  0  0  0  0  0  0  0
  1  2  1  0
  2  3  1  0
  3  4  1  0
  4  5  1  0
  5  6  1  0
  7  6  1  6
  7  8  1  0
  8  9  2  0
  8 10  1  0
 10 11  1  0
 11 12  2  0
 12 13  1  0
 13 14  2  0
 14 15  1  0
 15 16  2  0
 16 17  1  0
 17 18  2  0
 18 19  1  0
 19 20  2  0
 19 21  1  0
 18 22  1  0
 17 23  1  0
 16 24  1  0
 14 25  1  0
 12 26  1  0
 10 27  1  0
 27 28  1  0
 28 29  1  0
 29 30  1  0
 29 31  1  0
 29 32  1  0
 28 33  1  1
 27 34  1  0
 27 35  1  0
  7 36  1  0
 36 37  2  0
 37 38  1  0
 38 39  1  0
 38 40  2  0
 40 41  1  0
 41 42  2  0
 42 43  1  0
 43 44  2  0
 41 45  1  0
 40 46  1  0
 37 47  1  0
  6 48  1  0
  6 49  1  0
  4 50  1  0
  4 51  1  0
  3 52  1  0
  3 53  1  0
  2 54  1  0
  2 55  1  0
  1 56  1  0
  1 57  1  0
  1 58  1  0
 43  5  1  0
 28  7  1  0
 42 36  1  0
 20 11  1  0
 20 15  1  0
M  CHG  1   2   1
M  END
>  <cnnaffinities>  (27) 
[6.13871, 5.64808]

>  <score>  (27) 
6.13871

>  <index>  (27) 
27

>  <Smiles>  (27) 
C([N+](C(C(N1C([C@@]2(C(=O)N(c3c(nc(c4c(c(c(c(c34)[H])[H])[H])[H])[H])[H])C([C@@]2(C([H])([H])[H])[H])([H])[H])c2c(c(F)c(c(c2C1=O)[H])[H])[H])([H])[H])([H])[H])([H])[H])([H])[H])([H])([H])[H]

>  <h>  (27) 
<NA>

>  <Training>  (27) 
True

>  <Success>  (27) 
True

>  <enamine_searched>  (27) 
False

>  <enamine_id>  (27) 
nan

$$$$

     RDKit          3D

 64 68  0  0  0  0  0  0  0  0999 V2000
   -7.5454    3.0849  -21.8696 C   0  0  0  0  0  0  0  0  0  0  0  0
   -8.6462    2.6092  -22.6985 N   0  0  0  0  0  0  0  0  0  0  0  0
   -8.3077    1.8758  -23.7975 C   0  0  0  0  0  0  0  0  0  0  0  0
   -7.1401    1.6787  -24.1123 O   0  0  0  0  0  0  0  0  0  0  0  0
   -9.4617    1.3041  -24.6209 C   0  0  0  0  0  0  0  0  0  0  0  0
   -9.9658    0.1006  -23.9920 N   0  0  0  0  0  0  0  0  0  0  0  0
   -9.1046   -1.0737  -23.9648 C   0  0  0  0  0  0  0  0  0  0  0  0
   -9.2481   -1.8269  -22.6212 C   0  0  2  0  0  0  0  0  0  0  0  0
   -8.6683   -0.9598  -21.4809 C   0  0  0  0  0  0  0  0  0  0  0  0
   -9.2070   -0.0174  -20.9364 O   0  0  0  0  0  0  0  0  0  0  0  0
   -7.3977   -1.4146  -21.1963 N   0  0  0  0  0  0  0  0  0  0  0  0
   -6.6088   -0.8334  -20.1771 C   0  0  0  0  0  0  0  0  0  0  0  0
   -6.9257   -1.0565  -18.8597 C   0  0  0  0  0  0  0  0  0  0  0  0
   -6.2230   -0.5668  -17.8121 N   0  0  0  0  0  0  0  0  0  0  0  0
   -5.1847    0.1880  -18.0846 C   0  0  0  0  0  0  0  0  0  0  0  0
   -4.7481    0.5034  -19.4040 C   0  0  0  0  0  0  0  0  0  0  0  0
   -3.6264    1.3395  -19.6458 C   0  0  0  0  0  0  0  0  0  0  0  0
   -3.2528    1.6473  -20.9244 C   0  0  0  0  0  0  0  0  0  0  0  0
   -3.9791    1.1406  -22.0226 C   0  0  0  0  0  0  0  0  0  0  0  0
   -5.0720    0.3288  -21.8181 C   0  0  0  0  0  0  0  0  0  0  0  0
   -5.4774   -0.0210  -20.4982 C   0  0  0  0  0  0  0  0  0  0  0  0
   -5.6503   -0.0039  -22.6757 H   0  0  0  0  0  0  0  0  0  0  0  0
   -3.6748    1.3939  -23.0340 H   0  0  0  0  0  0  0  0  0  0  0  0
   -2.3982    2.2918  -21.0997 H   0  0  0  0  0  0  0  0  0  0  0  0
   -3.0912    1.7392  -18.7883 H   0  0  0  0  0  0  0  0  0  0  0  0
   -4.6215    0.5940  -17.2426 H   0  0  0  0  0  0  0  0  0  0  0  0
   -7.7900   -1.6695  -18.6174 H   0  0  0  0  0  0  0  0  0  0  0  0
   -6.9895   -2.5701  -21.9667 C   0  0  0  0  0  0  0  0  0  0  0  0
   -8.3223   -3.0716  -22.5530 C   0  0  2  0  0  0  0  0  0  0  0  0
   -8.1677   -3.8659  -23.8470 C   0  0  0  0  0  0  0  0  0  0  0  0
   -7.2538   -5.3749  -23.5503 S   0  0  0  0  0  0  0  0  0  0  0  0
   -5.8678   -5.0251  -23.2496 O   0  0  0  0  0  0  0  0  0  0  0  0
   -7.9784   -6.2110  -22.6040 O   0  0  0  0  0  0  0  0  0  0  0  0
   -7.4049   -6.1410  -25.0302 N   0  0  0  0  0  0  0  0  0  0  0  0
   -6.6886   -5.6266  -26.1959 C   0  0  0  0  0  0  0  0  0  0  0  0
   -7.1722   -4.7160  -26.5664 H   0  0  0  0  0  0  0  0  0  0  0  0
   -6.7638   -6.3727  -26.9916 H   0  0  0  0  0  0  0  0  0  0  0  0
   -5.6307   -5.4249  -25.9958 H   0  0  0  0  0  0  0  0  0  0  0  0
   -7.3016   -7.1376  -24.8757 H   0  0  0  0  0  0  0  0  0  0  0  0
   -7.6209   -3.2966  -24.6045 H   0  0  0  0  0  0  0  0  0  0  0  0
   -9.1342   -4.1559  -24.2668 H   0  0  0  0  0  0  0  0  0  0  0  0
   -8.7361   -3.7601  -21.8169 H   0  0  0  0  0  0  0  0  0  0  0  0
   -6.5225   -3.3214  -21.3235 H   0  0  0  0  0  0  0  0  0  0  0  0
   -6.2746   -2.2977  -22.7581 H   0  0  0  0  0  0  0  0  0  0  0  0
  -10.7308   -2.0858  -22.4183 C   0  0  0  0  0  0  0  0  0  0  0  0
  -11.1895   -3.1688  -21.6667 C   0  0  0  0  0  0  0  0  0  0  0  0
  -12.5414   -3.3279  -21.4262 C   0  0  0  0  0  0  0  0  0  0  0  0
  -13.0533   -4.5680  -20.3225 Cl  0  0  0  0  0  0  0  0  0  0  0  0
  -13.4937   -2.4739  -21.9733 C   0  0  0  0  0  0  0  0  0  0  0  0
  -13.0530   -1.3848  -22.6926 C   0  0  0  0  0  0  0  0  0  0  0  0
  -11.6916   -1.1854  -22.9024 C   0  0  0  0  0  0  0  0  0  0  0  0
  -11.2882    0.0349  -23.6605 C   0  0  0  0  0  0  0  0  0  0  0  0
  -12.0863    0.9174  -23.9547 O   0  0  0  0  0  0  0  0  0  0  0  0
  -13.7417   -0.6464  -23.0851 H   0  0  0  0  0  0  0  0  0  0  0  0
  -14.5477   -2.6639  -21.8162 H   0  0  0  0  0  0  0  0  0  0  0  0
  -10.5121   -3.8919  -21.2297 H   0  0  0  0  0  0  0  0  0  0  0  0
   -8.0701   -0.7490  -24.1284 H   0  0  0  0  0  0  0  0  0  0  0  0
   -9.3811   -1.7542  -24.7822 H   0  0  0  0  0  0  0  0  0  0  0  0
  -10.2958    2.0120  -24.7087 H   0  0  0  0  0  0  0  0  0  0  0  0
   -9.0712    1.0737  -25.6197 H   0  0  0  0  0  0  0  0  0  0  0  0
   -9.5377    2.4544  -22.2288 H   0  0  0  0  0  0  0  0  0  0  0  0
   -6.7849    3.5147  -22.5310 H   0  0  0  0  0  0  0  0  0  0  0  0
   -7.9155    3.8660  -21.1995 H   0  0  0  0  0  0  0  0  0  0  0  0
   -7.0727    2.2644  -21.2944 H   0  0  0  0  0  0  0  0  0  0  0  0
  1  2  1  0
  2  3  1  0
  3  4  2  0
  3  5  1  0
  5  6  1  0
  6  7  1  0
  8  7  1  6
  8  9  1  0
  9 10  2  0
  9 11  1  0
 11 12  1  0
 12 13  2  0
 13 14  1  0
 14 15  2  0
 15 16  1  0
 16 17  2  0
 17 18  1  0
 18 19  2  0
 19 20  1  0
 20 21  2  0
 20 22  1  0
 19 23  1  0
 18 24  1  0
 17 25  1  0
 15 26  1  0
 13 27  1  0
 11 28  1  0
 28 29  1  0
 29 30  1  0
 30 31  1  0
 31 32  2  0
 31 33  2  0
 31 34  1  0
 34 35  1  0
 35 36  1  0
 35 37  1  0
 35 38  1  0
 34 39  1  0
 30 40  1  0
 30 41  1  0
 29 42  1  1
 28 43  1  0
 28 44  1  0
  8 45  1  0
 45 46  2  0
 46 47  1  0
 47 48  1  0
 47 49  2  0
 49 50  1  0
 50 51  2  0
 51 52  1  0
 52 53  2  0
 50 54  1  0
 49 55  1  0
 46 56  1  0
  7 57  1  0
  7 58  1  0
  5 59  1  0
  5 60  1  0
  2 61  1  0
  1 62  1  0
  1 63  1  0
  1 64  1  0
 52  6  1  0
 29  8  1  0
 51 45  1  0
 21 12  1  0
 21 16  1  0
M  END
>  <cnnaffinities>  (28) 
[6.65751, 6.41742, 6.69396]

>  <score>  (28) 
6.65751

>  <index>  (28) 
28

>  <Smiles>  (28) 
C(N(C(=O)C(N1C([C@@]2(C(=O)N(c3c(nc(c4c(c(c(c(c34)[H])[H])[H])[H])[H])[H])C([C@@]2(C(S(=O)(=O)N(C([H])([H])[H])[H])([H])[H])[H])([H])[H])c2c(c(Cl)c(c(c2C1=O)[H])[H])[H])([H])[H])([H])[H])[H])([H])([H])[H]

>  <h>  (28) 
<NA>

>  <Training>  (28) 
True

>  <Success>  (28) 
True

>  <enamine_searched>  (28) 
False

>  <enamine_id>  (28) 
nan

$$$$

     RDKit          3D

 55 60  0  0  0  0  0  0  0  0999 V2000
   -7.8790   -3.6225  -24.0840 C   0  0  0  0  0  0  0  0  0  0  0  0
   -8.2916   -2.8540  -22.8193 C   0  0  1  0  0  0  0  0  0  0  0  0
   -7.0950   -2.6240  -21.8708 C   0  0  0  0  0  0  0  0  0  0  0  0
   -7.4093   -1.3783  -21.2016 N   0  0  0  0  0  0  0  0  0  0  0  0
   -6.6075   -0.8023  -20.1798 C   0  0  0  0  0  0  0  0  0  0  0  0
   -6.9053   -1.0460  -18.8648 C   0  0  0  0  0  0  0  0  0  0  0  0
   -6.1936   -0.5630  -17.8184 N   0  0  0  0  0  0  0  0  0  0  0  0
   -5.1678    0.2096  -18.0818 C   0  0  0  0  0  0  0  0  0  0  0  0
   -4.7343    0.5351  -19.3993 C   0  0  0  0  0  0  0  0  0  0  0  0
   -3.6024    1.3615  -19.6432 C   0  0  0  0  0  0  0  0  0  0  0  0
   -3.2058    1.6426  -20.9212 C   0  0  0  0  0  0  0  0  0  0  0  0
   -3.9161    1.0954  -22.0139 C   0  0  0  0  0  0  0  0  0  0  0  0
   -5.0095    0.2860  -21.8021 C   0  0  0  0  0  0  0  0  0  0  0  0
   -5.4620    0.0006  -20.4870 C   0  0  0  0  0  0  0  0  0  0  0  0
   -5.5644   -0.0951  -22.6536 H   0  0  0  0  0  0  0  0  0  0  0  0
   -3.6215    1.3408  -23.0280 H   0  0  0  0  0  0  0  0  0  0  0  0
   -2.3547    2.2938  -21.1011 H   0  0  0  0  0  0  0  0  0  0  0  0
   -3.0746    1.7741  -18.7873 H   0  0  0  0  0  0  0  0  0  0  0  0
   -4.6243    0.6145  -17.2274 H   0  0  0  0  0  0  0  0  0  0  0  0
   -7.7543   -1.6706  -18.5997 H   0  0  0  0  0  0  0  0  0  0  0  0
   -8.4136   -0.6477  -21.7964 C   0  0  0  0  0  0  0  0  0  0  0  0
   -8.7764    0.4352  -21.3930 O   0  0  0  0  0  0  0  0  0  0  0  0
   -8.9515   -1.4479  -23.0168 C   0  0  1  0  0  0  0  0  0  0  0  0
   -8.4798   -0.8041  -24.3453 C   0  0  0  0  0  0  0  0  0  0  0  0
   -9.1320    0.4542  -24.6164 N   0  0  0  0  0  0  0  0  0  0  0  0
   -8.3412    1.6304  -24.9488 C   0  0  0  0  0  0  0  0  0  0  0  0
   -8.0441    2.4984  -23.7548 C   0  0  0  0  0  0  0  0  0  0  0  0
   -8.8766    3.4257  -23.1132 C   0  0  0  0  0  0  0  0  0  0  0  0
   -8.2172    3.9573  -22.0894 N   0  0  0  0  0  0  0  0  0  0  0  0
   -7.0519    3.3512  -22.1276 N   0  0  0  0  0  0  0  0  0  0  0  0
   -6.8767    2.4744  -23.1051 N   0  0  0  0  0  0  0  0  0  0  0  0
   -6.3698    3.5052  -21.3971 H   0  0  0  0  0  0  0  0  0  0  0  0
   -9.9056    3.6929  -23.3243 H   0  0  0  0  0  0  0  0  0  0  0  0
   -7.3951    1.3094  -25.3965 H   0  0  0  0  0  0  0  0  0  0  0  0
   -8.9110    2.2043  -25.6845 H   0  0  0  0  0  0  0  0  0  0  0  0
  -10.4874    0.5997  -24.5130 C   0  0  0  0  0  0  0  0  0  0  0  0
  -11.0615    1.5744  -24.9858 O   0  0  0  0  0  0  0  0  0  0  0  0
  -11.1916   -0.4791  -23.7405 C   0  0  0  0  0  0  0  0  0  0  0  0
  -12.5872   -0.4622  -23.6969 C   0  0  0  0  0  0  0  0  0  0  0  0
  -13.2824   -1.3257  -22.8740 C   0  0  0  0  0  0  0  0  0  0  0  0
  -12.5491   -2.1885  -22.0697 C   0  0  0  0  0  0  0  0  0  0  0  0
  -13.2114   -2.9884  -21.2189 F   0  0  0  0  0  0  0  0  0  0  0  0
  -11.1720   -2.2425  -22.1010 C   0  0  0  0  0  0  0  0  0  0  0  0
  -10.4689   -1.4234  -22.9930 C   0  0  0  0  0  0  0  0  0  0  0  0
  -10.6761   -2.9016  -21.3961 H   0  0  0  0  0  0  0  0  0  0  0  0
  -14.3649   -1.3344  -22.8088 H   0  0  0  0  0  0  0  0  0  0  0  0
  -13.1064    0.2644  -24.3081 H   0  0  0  0  0  0  0  0  0  0  0  0
   -7.4080   -0.5960  -24.2693 H   0  0  0  0  0  0  0  0  0  0  0  0
   -8.6643   -1.5040  -25.1758 H   0  0  0  0  0  0  0  0  0  0  0  0
   -6.1467   -2.5558  -22.4285 H   0  0  0  0  0  0  0  0  0  0  0  0
   -6.9731   -3.4312  -21.1393 H   0  0  0  0  0  0  0  0  0  0  0  0
   -9.0306   -3.4586  -22.2883 H   0  0  0  0  0  0  0  0  0  0  0  0
   -7.4902   -4.6163  -23.8311 H   0  0  0  0  0  0  0  0  0  0  0  0
   -7.0871   -3.0979  -24.6338 H   0  0  0  0  0  0  0  0  0  0  0  0
   -8.7171   -3.7633  -24.7762 H   0  0  0  0  0  0  0  0  0  0  0  0
  1  2  1  0
  2  3  1  0
  3  4  1  0
  4  5  1  0
  5  6  2  0
  6  7  1  0
  7  8  2  0
  8  9  1  0
  9 10  2  0
 10 11  1  0
 11 12  2  0
 12 13  1  0
 13 14  2  0
 13 15  1  0
 12 16  1  0
 11 17  1  0
 10 18  1  0
  8 19  1  0
  6 20  1  0
  4 21  1  0
 21 22  2  0
 21 23  1  0
 23 24  1  6
 24 25  1  0
 25 26  1  0
 26 27  1  0
 27 28  1  0
 28 29  2  0
 29 30  1  0
 30 31  1  0
 30 32  1  0
 28 33  1  0
 26 34  1  0
 26 35  1  0
 25 36  1  0
 36 37  2  0
 36 38  1  0
 38 39  2  0
 39 40  1  0
 40 41  2  0
 41 42  1  0
 41 43  1  0
 43 44  2  0
 43 45  1  0
 40 46  1  0
 39 47  1  0
 24 48  1  0
 24 49  1  0
  3 50  1  0
  3 51  1  0
  2 52  1  1
  1 53  1  0
  1 54  1  0
  1 55  1  0
 23  2  1  0
 31 27  2  0
 44 38  1  0
 14  5  1  0
 44 23  1  0
 14  9  1  0
M  END
>  <cnnaffinities>  (29) 
[5.96621, 6.07963]

>  <score>  (29) 
5.96621

>  <index>  (29) 
29

>  <Smiles>  (29) 
C([C@]1(C(N(c2c(nc(c3c(c(c(c(c23)[H])[H])[H])[H])[H])[H])C(=O)[C@]21C(N(C(c1c(nn(n1)[H])[H])([H])[H])C(=O)c1c(c(c(F)c(c21)[H])[H])[H])([H])[H])([H])[H])[H])([H])([H])[H]

>  <h>  (29) 
<NA>

>  <Training>  (29) 
True

>  <Success>  (29) 
True

>  <enamine_searched>  (29) 
False

>  <enamine_id>  (29) 
nan

$$$$

     RDKit          3D

 58 63  0  0  0  0  0  0  0  0999 V2000
   -9.5134   -0.2908  -23.7707 C   0  0  0  0  0  0  0  0  0  0  0  0
   -8.3051   -0.7618  -22.9812 C   0  0  1  0  0  0  0  0  0  0  0  0
   -7.9697    0.1218  -21.7813 C   0  0  0  0  0  0  0  0  0  0  0  0
   -7.0879   -0.7465  -21.0215 N   0  0  0  0  0  0  0  0  0  0  0  0
   -6.2480   -0.3465  -19.9788 C   0  0  0  0  0  0  0  0  0  0  0  0
   -6.5423   -0.6962  -18.6901 C   0  0  0  0  0  0  0  0  0  0  0  0
   -5.8313   -0.2752  -17.6219 N   0  0  0  0  0  0  0  0  0  0  0  0
   -4.7863    0.4821  -17.8632 C   0  0  0  0  0  0  0  0  0  0  0  0
   -4.3331    0.8468  -19.1658 C   0  0  0  0  0  0  0  0  0  0  0  0
   -3.1588    1.6128  -19.3898 C   0  0  0  0  0  0  0  0  0  0  0  0
   -2.7649    1.9134  -20.6650 C   0  0  0  0  0  0  0  0  0  0  0  0
   -3.5106    1.4644  -21.7809 C   0  0  0  0  0  0  0  0  0  0  0  0
   -4.6499    0.7252  -21.5904 C   0  0  0  0  0  0  0  0  0  0  0  0
   -5.0875    0.4189  -20.2729 C   0  0  0  0  0  0  0  0  0  0  0  0
   -5.2140    0.3606  -22.4429 H   0  0  0  0  0  0  0  0  0  0  0  0
   -3.1814    1.7091  -22.7878 H   0  0  0  0  0  0  0  0  0  0  0  0
   -1.8739    2.5109  -20.8313 H   0  0  0  0  0  0  0  0  0  0  0  0
   -2.6001    1.9624  -18.5254 H   0  0  0  0  0  0  0  0  0  0  0  0
   -4.2304    0.8172  -16.9927 H   0  0  0  0  0  0  0  0  0  0  0  0
   -7.4013   -1.3319  -18.4885 H   0  0  0  0  0  0  0  0  0  0  0  0
   -7.2811   -2.0818  -21.2666 C   0  0  0  0  0  0  0  0  0  0  0  0
   -6.7194   -2.9810  -20.6686 O   0  0  0  0  0  0  0  0  0  0  0  0
   -8.3261   -2.2080  -22.3665 C   0  0  1  0  0  0  0  0  0  0  0  0
   -9.6291   -2.6012  -21.6289 C   0  0  0  0  0  0  0  0  0  0  0  0
  -10.6919   -3.0171  -22.5372 N   0  0  0  0  0  0  0  0  0  0  0  0
  -12.0536   -3.0963  -21.9882 C   0  0  0  0  0  0  0  0  0  0  0  0
  -13.1019   -2.5195  -22.8974 C   0  0  0  0  0  0  0  0  0  0  0  0
  -13.1123   -1.1762  -23.1268 C   0  0  0  0  0  0  0  0  0  0  0  0
  -13.9781   -0.6162  -24.1323 C   0  0  0  0  0  0  0  0  0  0  0  0
  -13.9823    0.5076  -24.6018 O   0  0  0  0  0  0  0  0  0  0  0  0
  -14.9008   -1.5680  -24.6053 N   0  0  0  0  0  0  0  0  0  0  0  0
  -14.8730   -2.8789  -24.2507 C   0  0  0  0  0  0  0  0  0  0  0  0
  -14.0321   -3.3905  -23.4163 N   0  0  0  0  0  0  0  0  0  0  0  0
  -15.6004   -3.5145  -24.7466 H   0  0  0  0  0  0  0  0  0  0  0  0
  -15.6271   -1.2252  -25.2202 H   0  0  0  0  0  0  0  0  0  0  0  0
  -12.4621   -0.5062  -22.5717 H   0  0  0  0  0  0  0  0  0  0  0  0
  -12.3247   -4.1273  -21.7686 H   0  0  0  0  0  0  0  0  0  0  0  0
  -12.0564   -2.5306  -21.0553 H   0  0  0  0  0  0  0  0  0  0  0  0
  -10.3652   -3.9627  -23.4863 C   0  0  0  0  0  0  0  0  0  0  0  0
  -11.1598   -4.7797  -23.9090 O   0  0  0  0  0  0  0  0  0  0  0  0
   -8.9595   -3.9987  -23.9834 C   0  0  0  0  0  0  0  0  0  0  0  0
   -8.6682   -4.8465  -25.0534 C   0  0  0  0  0  0  0  0  0  0  0  0
   -7.3599   -5.0459  -25.4543 C   0  0  0  0  0  0  0  0  0  0  0  0
   -6.3570   -4.3639  -24.7710 C   0  0  0  0  0  0  0  0  0  0  0  0
   -5.0781   -4.5823  -25.1163 F   0  0  0  0  0  0  0  0  0  0  0  0
   -6.6233   -3.4982  -23.7298 C   0  0  0  0  0  0  0  0  0  0  0  0
   -7.9543   -3.2724  -23.3590 C   0  0  0  0  0  0  0  0  0  0  0  0
   -5.8124   -3.0213  -23.1904 H   0  0  0  0  0  0  0  0  0  0  0  0
   -7.0894   -5.7238  -26.2584 H   0  0  0  0  0  0  0  0  0  0  0  0
   -9.4939   -5.3423  -25.5545 H   0  0  0  0  0  0  0  0  0  0  0  0
   -9.3619   -3.4076  -20.9282 H   0  0  0  0  0  0  0  0  0  0  0  0
   -9.9733   -1.7647  -21.0095 H   0  0  0  0  0  0  0  0  0  0  0  0
   -8.8795    0.3596  -21.2086 H   0  0  0  0  0  0  0  0  0  0  0  0
   -7.4855    1.0694  -22.0383 H   0  0  0  0  0  0  0  0  0  0  0  0
   -7.4258   -0.7466  -23.6401 H   0  0  0  0  0  0  0  0  0  0  0  0
  -10.3929   -0.2448  -23.1254 H   0  0  0  0  0  0  0  0  0  0  0  0
   -9.7321   -0.9554  -24.6119 H   0  0  0  0  0  0  0  0  0  0  0  0
   -9.3364    0.7154  -24.1670 H   0  0  0  0  0  0  0  0  0  0  0  0
  1  2  1  0
  2  3  1  0
  3  4  1  0
  4  5  1  0
  5  6  2  0
  6  7  1  0
  7  8  2  0
  8  9  1  0
  9 10  2  0
 10 11  1  0
 11 12  2  0
 12 13  1  0
 13 14  2  0
 13 15  1  0
 12 16  1  0
 11 17  1  0
 10 18  1  0
  8 19  1  0
  6 20  1  0
  4 21  1  0
 21 22  2  0
 21 23  1  0
 23 24  1  1
 24 25  1  0
 25 26  1  0
 26 27  1  0
 27 28  2  0
 28 29  1  0
 29 30  2  0
 29 31  1  0
 31 32  1  0
 32 33  2  0
 32 34  1  0
 31 35  1  0
 28 36  1  0
 26 37  1  0
 26 38  1  0
 25 39  1  0
 39 40  2  0
 39 41  1  0
 41 42  2  0
 42 43  1  0
 43 44  2  0
 44 45  1  0
 44 46  1  0
 46 47  2  0
 46 48  1  0
 43 49  1  0
 42 50  1  0
 24 51  1  0
 24 52  1  0
  3 53  1  0
  3 54  1  0
  2 55  1  6
  1 56  1  0
  1 57  1  0
  1 58  1  0
 23  2  1  0
 33 27  1  0
 47 41  1  0
 14  5  1  0
 47 23  1  0
 14  9  1  0
M  END
>  <cnnaffinities>  (30) 
[6.71057]

>  <score>  (30) 
6.71057

>  <index>  (30) 
30

>  <Smiles>  (30) 
C([C@]1(C(N(c2c(nc(c3c(c(c(c(c23)[H])[H])[H])[H])[H])[H])C(=O)[C@]21C(N(C(c1c(c(=O)n(c(n1)[H])[H])[H])([H])[H])C(=O)c1c(c(c(F)c(c21)[H])[H])[H])([H])[H])([H])[H])[H])([H])([H])[H]

>  <h>  (30) 
<NA>

>  <Training>  (30) 
True

>  <Success>  (30) 
True

>  <enamine_searched>  (30) 
False

>  <enamine_id>  (30) 
nan

$$$$

     RDKit          3D

 66 71  0  0  0  0  0  0  0  0999 V2000
   -7.4419    3.3639  -21.8196 C   0  0  0  0  0  0  0  0  0  0  0  0
   -8.3372    2.8711  -22.8549 N   0  0  0  0  0  0  0  0  0  0  0  0
   -7.7810    2.1660  -23.8819 C   0  0  0  0  0  0  0  0  0  0  0  0
   -6.5741    2.0336  -24.0197 O   0  0  0  0  0  0  0  0  0  0  0  0
   -8.7680    1.5548  -24.8771 C   0  0  0  0  0  0  0  0  0  0  0  0
   -9.4411    0.4037  -24.3158 N   0  0  0  0  0  0  0  0  0  0  0  0
   -8.6989   -0.8359  -24.1672 C   0  0  0  0  0  0  0  0  0  0  0  0
   -9.0738   -1.5704  -22.8560 C   0  0  2  0  0  0  0  0  0  0  0  0
   -8.5531   -0.7746  -21.6369 C   0  0  0  0  0  0  0  0  0  0  0  0
   -9.0510    0.2105  -21.1351 O   0  0  0  0  0  0  0  0  0  0  0  0
   -7.3980   -1.3766  -21.2014 N   0  0  0  0  0  0  0  0  0  0  0  0
   -6.6065   -0.8070  -20.1807 C   0  0  0  0  0  0  0  0  0  0  0  0
   -6.9220   -1.0457  -18.8698 C   0  0  0  0  0  0  0  0  0  0  0  0
   -6.2209   -0.5646  -17.8168 N   0  0  0  0  0  0  0  0  0  0  0  0
   -5.1829    0.1936  -18.0808 C   0  0  0  0  0  0  0  0  0  0  0  0
   -4.7415    0.5162  -19.3968 C   0  0  0  0  0  0  0  0  0  0  0  0
   -3.6118    1.3419  -19.6409 C   0  0  0  0  0  0  0  0  0  0  0  0
   -3.2323    1.6457  -20.9184 C   0  0  0  0  0  0  0  0  0  0  0  0
   -3.9602    1.1430  -22.0198 C   0  0  0  0  0  0  0  0  0  0  0  0
   -5.0568    0.3401  -21.8134 C   0  0  0  0  0  0  0  0  0  0  0  0
   -5.4725    0.0019  -20.4952 C   0  0  0  0  0  0  0  0  0  0  0  0
   -5.6225   -0.0172  -22.6700 H   0  0  0  0  0  0  0  0  0  0  0  0
   -3.6615    1.3965  -23.0321 H   0  0  0  0  0  0  0  0  0  0  0  0
   -2.3733    2.2855  -21.0929 H   0  0  0  0  0  0  0  0  0  0  0  0
   -3.0762    1.7417  -18.7832 H   0  0  0  0  0  0  0  0  0  0  0  0
   -4.6236    0.5923  -17.2328 H   0  0  0  0  0  0  0  0  0  0  0  0
   -7.7877   -1.6611  -18.6360 H   0  0  0  0  0  0  0  0  0  0  0  0
   -7.0233   -2.5645  -21.9294 C   0  0  0  0  0  0  0  0  0  0  0  0
   -8.3062   -2.9187  -22.7023 C   0  0  2  0  0  0  0  0  0  0  0  0
   -8.0235   -3.7230  -23.9871 C   0  0  0  0  0  0  0  0  0  0  0  0
   -7.4993   -5.0511  -23.7539 N   0  0  0  0  0  0  0  0  0  0  0  0
   -6.2006   -5.3687  -23.5201 C   0  0  0  0  0  0  0  0  0  0  0  0
   -5.1042   -4.5928  -23.9348 C   0  0  0  0  0  0  0  0  0  0  0  0
   -3.8544   -5.0617  -23.5832 C   0  0  0  0  0  0  0  0  0  0  0  0
   -3.6458   -6.1817  -22.8803 N   0  0  0  0  0  0  0  0  0  0  0  0
   -4.7531   -6.8503  -22.5761 C   0  0  0  0  0  0  0  0  0  0  0  0
   -6.0044   -6.5296  -22.8713 N   0  0  0  0  0  0  0  0  0  0  0  0
   -4.6339   -7.7765  -22.0082 H   0  0  0  0  0  0  0  0  0  0  0  0
   -2.9576   -4.5133  -23.8682 H   0  0  0  0  0  0  0  0  0  0  0  0
   -5.2244   -3.6782  -24.5055 H   0  0  0  0  0  0  0  0  0  0  0  0
   -8.1313   -5.7770  -23.4543 H   0  0  0  0  0  0  0  0  0  0  0  0
   -7.3030   -3.1799  -24.6049 H   0  0  0  0  0  0  0  0  0  0  0  0
   -8.9343   -3.8269  -24.5880 H   0  0  0  0  0  0  0  0  0  0  0  0
   -8.9109   -3.5546  -22.0521 H   0  0  0  0  0  0  0  0  0  0  0  0
   -6.1765   -2.3656  -22.6073 H   0  0  0  0  0  0  0  0  0  0  0  0
   -6.7146   -3.3495  -21.2331 H   0  0  0  0  0  0  0  0  0  0  0  0
  -10.5836   -1.6509  -22.7846 C   0  0  0  0  0  0  0  0  0  0  0  0
  -11.2079   -2.5800  -21.9511 C   0  0  0  0  0  0  0  0  0  0  0  0
  -12.5862   -2.6103  -21.8609 C   0  0  0  0  0  0  0  0  0  0  0  0
  -13.3230   -3.7576  -20.7835 Cl  0  0  0  0  0  0  0  0  0  0  0  0
  -13.3948   -1.7326  -22.5839 C   0  0  0  0  0  0  0  0  0  0  0  0
  -12.7817   -0.7737  -23.3620 C   0  0  0  0  0  0  0  0  0  0  0  0
  -11.3932   -0.7074  -23.4302 C   0  0  0  0  0  0  0  0  0  0  0  0
  -10.7943    0.4552  -24.1479 C   0  0  0  0  0  0  0  0  0  0  0  0
  -11.4695    1.4035  -24.5279 O   0  0  0  0  0  0  0  0  0  0  0  0
  -13.3514   -0.0379  -23.9180 H   0  0  0  0  0  0  0  0  0  0  0  0
  -14.4747   -1.7933  -22.5051 H   0  0  0  0  0  0  0  0  0  0  0  0
  -10.6334   -3.2743  -21.3482 H   0  0  0  0  0  0  0  0  0  0  0  0
   -7.6277   -0.6018  -24.1908 H   0  0  0  0  0  0  0  0  0  0  0  0
   -8.9228   -1.5001  -25.0123 H   0  0  0  0  0  0  0  0  0  0  0  0
   -9.5481    2.2752  -25.1456 H   0  0  0  0  0  0  0  0  0  0  0  0
   -8.2017    1.2710  -25.7701 H   0  0  0  0  0  0  0  0  0  0  0  0
   -9.2970    2.6712  -22.5849 H   0  0  0  0  0  0  0  0  0  0  0  0
   -6.9610    2.5311  -21.2755 H   0  0  0  0  0  0  0  0  0  0  0  0
   -7.9852    4.0167  -21.1311 H   0  0  0  0  0  0  0  0  0  0  0  0
   -6.6533    3.9569  -22.2916 H   0  0  0  0  0  0  0  0  0  0  0  0
  1  2  1  0
  2  3  1  0
  3  4  2  0
  3  5  1  0
  5  6  1  0
  6  7  1  0
  8  7  1  6
  8  9  1  0
  9 10  2  0
  9 11  1  0
 11 12  1  0
 12 13  2  0
 13 14  1  0
 14 15  2  0
 15 16  1  0
 16 17  2  0
 17 18  1  0
 18 19  2  0
 19 20  1  0
 20 21  2  0
 20 22  1  0
 19 23  1  0
 18 24  1  0
 17 25  1  0
 15 26  1  0
 13 27  1  0
 11 28  1  0
 28 29  1  0
 29 30  1  0
 30 31  1  0
 31 32  1  0
 32 33  2  0
 33 34  1  0
 34 35  2  0
 35 36  1  0
 36 37  2  0
 36 38  1  0
 34 39  1  0
 33 40  1  0
 31 41  1  0
 30 42  1  0
 30 43  1  0
 29 44  1  1
 28 45  1  0
 28 46  1  0
  8 47  1  0
 47 48  2  0
 48 49  1  0
 49 50  1  0
 49 51  2  0
 51 52  1  0
 52 53  2  0
 53 54  1  0
 54 55  2  0
 52 56  1  0
 51 57  1  0
 48 58  1  0
  7 59  1  0
  7 60  1  0
  5 61  1  0
  5 62  1  0
  2 63  1  0
  1 64  1  0
  1 65  1  0
  1 66  1  0
 54  6  1  0
 29  8  1  0
 37 32  1  0
 53 47  1  0
 21 12  1  0
 21 16  1  0
M  END
>  <cnnaffinities>  (31) 
[6.83272, 6.80999, 5.80803]

>  <score>  (31) 
6.83272

>  <index>  (31) 
31

>  <Smiles>  (31) 
C(N(C(=O)C(N1C([C@@]2(C(=O)N(c3c(nc(c4c(c(c(c(c34)[H])[H])[H])[H])[H])[H])C([C@@]2(C(N(c2c(c(nc(n2)[H])[H])[H])[H])([H])[H])[H])([H])[H])c2c(c(Cl)c(c(c2C1=O)[H])[H])[H])([H])[H])([H])[H])[H])([H])([H])[H]

>  <h>  (31) 
<NA>

>  <Training>  (31) 
True

>  <Success>  (31) 
True

>  <enamine_searched>  (31) 
False

>  <enamine_id>  (31) 
nan

$$$$

     RDKit          3D

 57 62  0  0  0  0  0  0  0  0999 V2000
   -8.0899   -4.0929  -23.7766 C   0  0  0  0  0  0  0  0  0  0  0  0
   -8.3098   -3.2191  -22.5429 C   0  0  1  0  0  0  0  0  0  0  0  0
   -7.0338   -2.4686  -22.1199 C   0  0  0  0  0  0  0  0  0  0  0  0
   -7.5201   -1.3168  -21.3797 N   0  0  0  0  0  0  0  0  0  0  0  0
   -6.7768   -0.7685  -20.2989 C   0  0  0  0  0  0  0  0  0  0  0  0
   -7.1256   -1.0221  -18.9913 C   0  0  0  0  0  0  0  0  0  0  0  0
   -6.3998   -0.6188  -17.9176 N   0  0  0  0  0  0  0  0  0  0  0  0
   -5.3146    0.0864  -18.1296 C   0  0  0  0  0  0  0  0  0  0  0  0
   -4.8390    0.4308  -19.4286 C   0  0  0  0  0  0  0  0  0  0  0  0
   -3.6776    1.2260  -19.6332 C   0  0  0  0  0  0  0  0  0  0  0  0
   -3.2368    1.4969  -20.8999 C   0  0  0  0  0  0  0  0  0  0  0  0
   -3.9093    0.9579  -22.0190 C   0  0  0  0  0  0  0  0  0  0  0  0
   -5.0369    0.1944  -21.8457 C   0  0  0  0  0  0  0  0  0  0  0  0
   -5.5578   -0.0518  -20.5475 C   0  0  0  0  0  0  0  0  0  0  0  0
   -5.5449   -0.2273  -22.7082 H   0  0  0  0  0  0  0  0  0  0  0  0
   -3.5352    1.1467  -23.0209 H   0  0  0  0  0  0  0  0  0  0  0  0
   -2.3646    2.1262  -21.0568 H   0  0  0  0  0  0  0  0  0  0  0  0
   -3.1558    1.6240  -18.7660 H   0  0  0  0  0  0  0  0  0  0  0  0
   -4.7388    0.4041  -17.2554 H   0  0  0  0  0  0  0  0  0  0  0  0
   -8.0166   -1.6027  -18.7559 H   0  0  0  0  0  0  0  0  0  0  0  0
   -8.8640   -1.0813  -21.5984 C   0  0  0  0  0  0  0  0  0  0  0  0
   -9.5104   -0.2260  -21.0308 O   0  0  0  0  0  0  0  0  0  0  0  0
   -9.3785   -2.0880  -22.6806 C   0  0  1  0  0  0  0  0  0  0  0  0
   -9.2952   -1.4573  -24.0950 C   0  0  0  0  0  0  0  0  0  0  0  0
  -10.3447   -0.4905  -24.3800 N   0  0  0  0  0  0  0  0  0  0  0  0
   -9.9342    0.7081  -25.0965 C   0  0  0  0  0  0  0  0  0  0  0  0
   -9.1435    1.5712  -24.1621 C   0  0  0  0  0  0  0  0  0  0  0  0
   -7.8320    1.6903  -24.1341 N   0  0  0  0  0  0  0  0  0  0  0  0
   -7.5476    2.3845  -23.0127 N   0  0  0  0  0  0  0  0  0  0  0  0
   -8.6244    2.6776  -22.3755 N   0  0  0  0  0  0  0  0  0  0  0  0
   -9.6509    2.1801  -23.0788 N   0  0  0  0  0  0  0  0  0  0  0  0
  -11.0072    2.3635  -22.5627 C   0  0  0  0  0  0  0  0  0  0  0  0
  -11.1895    1.6452  -21.7600 H   0  0  0  0  0  0  0  0  0  0  0  0
  -11.7256    2.2102  -23.3728 H   0  0  0  0  0  0  0  0  0  0  0  0
  -11.0823    3.3833  -22.1690 H   0  0  0  0  0  0  0  0  0  0  0  0
  -10.8333    1.1860  -25.4917 H   0  0  0  0  0  0  0  0  0  0  0  0
   -9.2867    0.4316  -25.9302 H   0  0  0  0  0  0  0  0  0  0  0  0
  -11.6313   -0.6124  -23.9511 C   0  0  0  0  0  0  0  0  0  0  0  0
  -12.5376    0.1113  -24.3543 O   0  0  0  0  0  0  0  0  0  0  0  0
  -11.8759   -1.6841  -22.9376 C   0  0  0  0  0  0  0  0  0  0  0  0
  -13.1924   -1.8566  -22.5086 C   0  0  0  0  0  0  0  0  0  0  0  0
  -13.5098   -2.8675  -21.6261 C   0  0  0  0  0  0  0  0  0  0  0  0
  -12.4852   -3.7076  -21.2128 C   0  0  0  0  0  0  0  0  0  0  0  0
  -12.7628   -4.6547  -20.3006 F   0  0  0  0  0  0  0  0  0  0  0  0
  -11.1752   -3.5562  -21.6169 C   0  0  0  0  0  0  0  0  0  0  0  0
  -10.8253   -2.4800  -22.4390 C   0  0  0  0  0  0  0  0  0  0  0  0
  -10.4467   -4.2360  -21.1919 H   0  0  0  0  0  0  0  0  0  0  0  0
  -14.5154   -3.0601  -21.2707 H   0  0  0  0  0  0  0  0  0  0  0  0
  -13.9438   -1.1554  -22.8622 H   0  0  0  0  0  0  0  0  0  0  0  0
   -8.3304   -0.9467  -24.1942 H   0  0  0  0  0  0  0  0  0  0  0  0
   -9.3595   -2.2622  -24.8348 H   0  0  0  0  0  0  0  0  0  0  0  0
   -6.4815   -2.1678  -23.0202 H   0  0  0  0  0  0  0  0  0  0  0  0
   -6.3530   -3.0487  -21.4936 H   0  0  0  0  0  0  0  0  0  0  0  0
   -8.5996   -3.8531  -21.7006 H   0  0  0  0  0  0  0  0  0  0  0  0
   -7.4067   -4.9226  -23.5765 H   0  0  0  0  0  0  0  0  0  0  0  0
   -9.0232   -4.5155  -24.1629 H   0  0  0  0  0  0  0  0  0  0  0  0
   -7.6467   -3.5036  -24.5861 H   0  0  0  0  0  0  0  0  0  0  0  0
  1  2  1  0
  2  3  1  0
  3  4  1  0
  4  5  1  0
  5  6  2  0
  6  7  1  0
  7  8  2  0
  8  9  1  0
  9 10  2  0
 10 11  1  0
 11 12  2  0
 12 13  1  0
 13 14  2  0
 13 15  1  0
 12 16  1  0
 11 17  1  0
 10 18  1  0
  8 19  1  0
  6 20  1  0
  4 21  1  0
 21 22  2  0
 21 23  1  0
 23 24  1  6
 24 25  1  0
 25 26  1  0
 26 27  1  0
 27 28  2  0
 28 29  1  0
 29 30  2  0
 30 31  1  0
 31 32  1  0
 32 33  1  0
 32 34  1  0
 32 35  1  0
 26 36  1  0
 26 37  1  0
 25 38  1  0
 38 39  2  0
 38 40  1  0
 40 41  2  0
 41 42  1  0
 42 43  2  0
 43 44  1  0
 43 45  1  0
 45 46  2  0
 45 47  1  0
 42 48  1  0
 41 49  1  0
 24 50  1  0
 24 51  1  0
  3 52  1  0
  3 53  1  0
  2 54  1  1
  1 55  1  0
  1 56  1  0
  1 57  1  0
 23  2  1  0
 31 27  1  0
 46 40  1  0
 14  5  1  0
 46 23  1  0
 14  9  1  0
M  END
>  <cnnaffinities>  (32) 
[6.52111]

>  <score>  (32) 
6.52111

>  <index>  (32) 
32

>  <Smiles>  (32) 
C([C@]1(C(N(c2c(nc(c3c(c(c(c(c23)[H])[H])[H])[H])[H])[H])C(=O)[C@]21C(N(C(c1nnnn1C([H])([H])[H])([H])[H])C(=O)c1c(c(c(F)c(c21)[H])[H])[H])([H])[H])([H])[H])[H])([H])([H])[H]

>  <h>  (32) 
<NA>

>  <Training>  (32) 
True

>  <Success>  (32) 
True

>  <enamine_searched>  (32) 
False

>  <enamine_id>  (32) 
nan

$$$$

     RDKit          3D

 66 70  0  0  0  0  0  0  0  0999 V2000
   -7.5208    3.2613  -21.8151 C   0  0  0  0  0  0  0  0  0  0  0  0
   -8.5139    2.7776  -22.7642 N   0  0  0  0  0  0  0  0  0  0  0  0
   -8.0393    2.0584  -23.8265 C   0  0  0  0  0  0  0  0  0  0  0  0
   -6.8459    1.9107  -24.0316 O   0  0  0  0  0  0  0  0  0  0  0  0
   -9.0738    1.4540  -24.7658 C   0  0  0  0  0  0  0  0  0  0  0  0
   -9.6510    0.2506  -24.2186 N   0  0  0  0  0  0  0  0  0  0  0  0
   -8.8182   -0.9297  -24.1038 C   0  0  0  0  0  0  0  0  0  0  0  0
   -9.0925   -1.7019  -22.7932 C   0  0  2  0  0  0  0  0  0  0  0  0
   -8.5768   -0.8947  -21.5839 C   0  0  0  0  0  0  0  0  0  0  0  0
   -9.1205    0.0545  -21.0495 O   0  0  0  0  0  0  0  0  0  0  0  0
   -7.3688   -1.4230  -21.2004 N   0  0  0  0  0  0  0  0  0  0  0  0
   -6.5941   -0.8286  -20.1790 C   0  0  0  0  0  0  0  0  0  0  0  0
   -6.9189   -1.0548  -18.8656 C   0  0  0  0  0  0  0  0  0  0  0  0
   -6.2220   -0.5627  -17.8160 N   0  0  0  0  0  0  0  0  0  0  0  0
   -5.1841    0.1967  -18.0816 C   0  0  0  0  0  0  0  0  0  0  0  0
   -4.7404    0.5108  -19.3989 C   0  0  0  0  0  0  0  0  0  0  0  0
   -3.6159    1.3434  -19.6397 C   0  0  0  0  0  0  0  0  0  0  0  0
   -3.2342    1.6486  -20.9187 C   0  0  0  0  0  0  0  0  0  0  0  0
   -3.9570    1.1362  -22.0182 C   0  0  0  0  0  0  0  0  0  0  0  0
   -5.0530    0.3303  -21.8154 C   0  0  0  0  0  0  0  0  0  0  0  0
   -5.4655   -0.0110  -20.4952 C   0  0  0  0  0  0  0  0  0  0  0  0
   -5.6189   -0.0219  -22.6736 H   0  0  0  0  0  0  0  0  0  0  0  0
   -3.6547    1.3891  -23.0313 H   0  0  0  0  0  0  0  0  0  0  0  0
   -2.3804    2.2966  -21.0943 H   0  0  0  0  0  0  0  0  0  0  0  0
   -3.0837    1.7466  -18.7835 H   0  0  0  0  0  0  0  0  0  0  0  0
   -4.6263    0.6002  -17.2358 H   0  0  0  0  0  0  0  0  0  0  0  0
   -7.7851   -1.6689  -18.6244 H   0  0  0  0  0  0  0  0  0  0  0  0
   -6.9587   -2.5957  -21.9468 C   0  0  0  0  0  0  0  0  0  0  0  0
   -8.2326   -2.9984  -22.7135 C   0  0  2  0  0  0  0  0  0  0  0  0
   -7.9317   -3.6890  -24.0423 C   0  0  0  0  0  0  0  0  0  0  0  0
   -7.2258   -4.8891  -23.7970 O   0  0  0  0  0  0  0  0  0  0  0  0
   -7.0482   -5.6994  -24.9560 C   0  0  0  0  0  0  0  0  0  0  0  0
   -5.6729   -6.3478  -24.8782 C   0  0  0  0  0  0  0  0  0  0  0  0
   -5.4879   -6.9638  -25.7656 H   0  0  0  0  0  0  0  0  0  0  0  0
   -4.8813   -5.5957  -24.8185 H   0  0  0  0  0  0  0  0  0  0  0  0
   -5.6028   -6.9921  -23.9969 H   0  0  0  0  0  0  0  0  0  0  0  0
   -8.1522   -6.7489  -25.0476 C   0  0  0  0  0  0  0  0  0  0  0  0
   -8.1301   -7.4030  -24.1700 H   0  0  0  0  0  0  0  0  0  0  0  0
   -9.1448   -6.2909  -25.1073 H   0  0  0  0  0  0  0  0  0  0  0  0
   -8.0145   -7.3662  -25.9419 H   0  0  0  0  0  0  0  0  0  0  0  0
   -7.0839   -5.0630  -25.8564 H   0  0  0  0  0  0  0  0  0  0  0  0
   -8.8741   -3.8860  -24.5839 H   0  0  0  0  0  0  0  0  0  0  0  0
   -7.3168   -3.0221  -24.6729 H   0  0  0  0  0  0  0  0  0  0  0  0
   -8.7746   -3.7204  -22.1030 H   0  0  0  0  0  0  0  0  0  0  0  0
   -6.1345   -2.3589  -22.6346 H   0  0  0  0  0  0  0  0  0  0  0  0
   -6.6182   -3.3819  -21.2666 H   0  0  0  0  0  0  0  0  0  0  0  0
  -10.5910   -1.8920  -22.6805 C   0  0  0  0  0  0  0  0  0  0  0  0
  -11.1232   -2.8788  -21.8469 C   0  0  0  0  0  0  0  0  0  0  0  0
  -12.4950   -3.0016  -21.7142 C   0  0  0  0  0  0  0  0  0  0  0  0
  -13.1265   -4.2032  -20.6237 Cl  0  0  0  0  0  0  0  0  0  0  0  0
  -13.3820   -2.1755  -22.4068 C   0  0  0  0  0  0  0  0  0  0  0  0
  -12.8638   -1.1668  -23.1926 C   0  0  0  0  0  0  0  0  0  0  0  0
  -11.4850   -1.0051  -23.2953 C   0  0  0  0  0  0  0  0  0  0  0  0
  -10.9988    0.2061  -24.0157 C   0  0  0  0  0  0  0  0  0  0  0  0
  -11.7535    1.1033  -24.3671 O   0  0  0  0  0  0  0  0  0  0  0  0
  -13.4962   -0.4632  -23.7249 H   0  0  0  0  0  0  0  0  0  0  0  0
  -14.4505   -2.3201  -22.2944 H   0  0  0  0  0  0  0  0  0  0  0  0
  -10.4771   -3.5404  -21.2791 H   0  0  0  0  0  0  0  0  0  0  0  0
   -9.0227   -1.6004  -24.9468 H   0  0  0  0  0  0  0  0  0  0  0  0
   -7.7710   -0.6148  -24.1557 H   0  0  0  0  0  0  0  0  0  0  0  0
   -8.5425    1.2381  -25.6971 H   0  0  0  0  0  0  0  0  0  0  0  0
   -9.9054    2.1388  -24.9441 H   0  0  0  0  0  0  0  0  0  0  0  0
   -9.4447    2.5960  -22.4054 H   0  0  0  0  0  0  0  0  0  0  0  0
   -6.7239    3.7480  -22.3845 H   0  0  0  0  0  0  0  0  0  0  0  0
   -7.9506    3.9790  -21.1106 H   0  0  0  0  0  0  0  0  0  0  0  0
   -7.0644    2.4295  -21.2564 H   0  0  0  0  0  0  0  0  0  0  0  0
  1  2  1  0
  2  3  1  0
  3  4  2  0
  3  5  1  0
  5  6  1  0
  6  7  1  0
  8  7  1  6
  8  9  1  0
  9 10  2  0
  9 11  1  0
 11 12  1  0
 12 13  2  0
 13 14  1  0
 14 15  2  0
 15 16  1  0
 16 17  2  0
 17 18  1  0
 18 19  2  0
 19 20  1  0
 20 21  2  0
 20 22  1  0
 19 23  1  0
 18 24  1  0
 17 25  1  0
 15 26  1  0
 13 27  1  0
 11 28  1  0
 28 29  1  0
 29 30  1  0
 30 31  1  0
 31 32  1  0
 32 33  1  0
 33 34  1  0
 33 35  1  0
 33 36  1  0
 32 37  1  0
 37 38  1  0
 37 39  1  0
 37 40  1  0
 32 41  1  0
 30 42  1  0
 30 43  1  0
 29 44  1  1
 28 45  1  0
 28 46  1  0
  8 47  1  0
 47 48  2  0
 48 49  1  0
 49 50  1  0
 49 51  2  0
 51 52  1  0
 52 53  2  0
 53 54  1  0
 54 55  2  0
 52 56  1  0
 51 57  1  0
 48 58  1  0
  7 59  1  0
  7 60  1  0
  5 61  1  0
  5 62  1  0
  2 63  1  0
  1 64  1  0
  1 65  1  0
  1 66  1  0
 54  6  1  0
 29  8  1  0
 53 47  1  0
 21 12  1  0
 21 16  1  0
M  END
>  <cnnaffinities>  (33) 
[6.40088, 6.17381]

>  <score>  (33) 
6.40088

>  <index>  (33) 
34

>  <Smiles>  (33) 
C(N(C(=O)C(N1C([C@@]2(C(=O)N(c3c(nc(c4c(c(c(c(c34)[H])[H])[H])[H])[H])[H])C([C@@]2(C(OC(C([H])([H])[H])(C([H])([H])[H])[H])([H])[H])[H])([H])[H])c2c(c(Cl)c(c(c2C1=O)[H])[H])[H])([H])[H])([H])[H])[H])([H])([H])[H]

>  <h>  (33) 
<NA>

>  <Training>  (33) 
True

>  <Success>  (33) 
True

>  <enamine_searched>  (33) 
False

>  <enamine_id>  (33) 
nan

$$$$

     RDKit          3D

 40 42  0  0  0  0  0  0  0  0999 V2000
   -9.1189   -1.8431  -22.7325 O   0  0  0  0  0  0  0  0  0  0  0  0
   -8.2004   -1.0816  -22.4614 C   0  0  0  0  0  0  0  0  0  0  0  0
   -6.8184   -1.6095  -22.1086 C   0  0  0  0  0  0  0  0  0  0  0  0
   -6.2648   -0.9731  -20.8461 C   0  0  0  0  0  0  0  0  0  0  0  0
   -6.9352   -1.1456  -19.6583 C   0  0  0  0  0  0  0  0  0  0  0  0
   -6.5778   -0.6039  -18.4683 N   0  0  0  0  0  0  0  0  0  0  0  0
   -5.5155    0.1675  -18.4605 C   0  0  0  0  0  0  0  0  0  0  0  0
   -4.7050    0.4203  -19.6018 C   0  0  0  0  0  0  0  0  0  0  0  0
   -3.5535    1.2492  -19.5520 C   0  0  0  0  0  0  0  0  0  0  0  0
   -2.8224    1.5001  -20.6812 C   0  0  0  0  0  0  0  0  0  0  0  0
   -3.2100    0.9427  -21.9175 C   0  0  0  0  0  0  0  0  0  0  0  0
   -4.3185    0.1321  -21.9930 C   0  0  0  0  0  0  0  0  0  0  0  0
   -5.0863   -0.1653  -20.8362 C   0  0  0  0  0  0  0  0  0  0  0  0
   -4.6340   -0.2512  -22.9610 H   0  0  0  0  0  0  0  0  0  0  0  0
   -2.6326    1.1602  -22.8104 H   0  0  0  0  0  0  0  0  0  0  0  0
   -1.9532    2.1477  -20.6363 H   0  0  0  0  0  0  0  0  0  0  0  0
   -3.2798    1.6943  -18.5980 H   0  0  0  0  0  0  0  0  0  0  0  0
   -5.2540    0.6405  -17.5132 H   0  0  0  0  0  0  0  0  0  0  0  0
   -7.8271   -1.7733  -19.6268 H   0  0  0  0  0  0  0  0  0  0  0  0
   -6.1531   -1.4726  -22.9658 H   0  0  0  0  0  0  0  0  0  0  0  0
   -6.9335   -2.6921  -21.9780 H   0  0  0  0  0  0  0  0  0  0  0  0
   -8.2765    0.2851  -22.4130 N   0  0  0  0  0  0  0  0  0  0  0  0
   -9.4512    1.0599  -21.9507 C   0  0  0  0  0  0  0  0  0  0  0  0
   -9.4695    0.9022  -21.7811 C   0  0  0  0  0  0  0  0  0  0  0  0
   -9.1388    2.8474  -23.6981 C   0  0  0  0  0  0  0  0  0  0  0  0
   -8.5842    5.5842  -23.1450 C   0  0  0  0  0  0  0  0  0  0  0  0
   -8.1079    5.2598  -21.9612 F   0  0  0  0  0  0  0  0  0  0  0  0
   -7.6641    6.2017  -23.8609 F   0  0  0  0  0  0  0  0  0  0  0  0
   -9.6671    6.3272  -23.0202 F   0  0  0  0  0  0  0  0  0  0  0  0
   -7.8754    2.4568  -23.6631 C   0  0  0  0  0  0  0  0  0  0  0  0
   -7.3005    1.1778  -23.1149 C   0  0  0  0  0  0  0  0  0  0  0  0
   -6.8414    0.6089  -23.9237 H   0  0  0  0  0  0  0  0  0  0  0  0
   -6.5189    1.4775  -22.4069 H   0  0  0  0  0  0  0  0  0  0  0  0
   -7.0935    3.1254  -24.0265 H   0  0  0  0  0  0  0  0  0  0  0  0
   -9.9395    2.1545  -23.5502 H   0  0  0  0  0  0  0  0  0  0  0  0
   -9.3409    3.8904  -23.9387 H   0  0  0  0  0  0  0  0  0  0  0  0
   -8.7291    1.8833  -21.3965 H   0  0  0  0  0  0  0  0  0  0  0  0
  -10.3611    1.8238  -21.6753 H   0  0  0  0  0  0  0  0  0  0  0  0
  -10.2154    0.5845  -22.7758 H   0  0  0  0  0  0  0  0  0  0  0  0
   -9.8444   -0.0085  -20.5630 H   0  0  0  0  0  0  0  0  0  0  0  0
  1  2  2  0
  2  3  1  0
  3  4  1  0
  4  5  2  0
  5  6  1  0
  6  7  2  0
  7  8  1  0
  8  9  2  0
  9 10  1  0
 10 11  2  0
 11 12  1  0
 12 13  2  0
 12 14  1  0
 11 15  1  0
 10 16  1  0
  9 17  1  0
  7 18  1  0
  5 19  1  0
  3 20  1  0
  3 21  1  0
  2 22  1  0
 22 23  1  0
 23 24  1  0
 24 25  1  0
 25 26  1  0
 26 27  1  0
 26 28  1  0
 26 29  1  0
 25 30  1  0
 30 31  1  0
 31 32  1  0
 31 33  1  0
 30 34  1  0
 30 35  1  0
 25 36  1  0
 24 37  1  0
 24 38  1  0
 23 39  1  0
 23 40  1  0
 13  4  1  0
 31 22  1  0
 13  8  1  0
M  END
>  <cnnaffinities>  (34) 
[4.63797, 4.43588]

>  <score>  (34) 
4.63797

>  <index>  (34) 
35

>  <Smiles>  (34) 
O=C(C(c1c(nc(c2c(c(c(c(c12)[H])[H])[H])[H])[H])[H])([H])[H])N1C(C(C(C(F)(F)F)(C(C1([H])[H])([H])[H])[H])([H])[H])([H])[H]

>  <h>  (34) 
<NA>

>  <Training>  (34) 
True

>  <Success>  (34) 
True

>  <enamine_searched>  (34) 
False

>  <enamine_id>  (34) 
nan

$$$$

     RDKit          3D

 47 50  0  0  0  0  0  0  0  0999 V2000
   -8.6673    0.6232  -21.3315 O   0  0  0  0  0  0  0  0  0  0  0  0
   -8.4179   -0.4131  -21.9219 C   0  0  0  0  0  0  0  0  0  0  0  0
   -7.4268   -1.4247  -21.2916 C   0  0  0  0  0  0  0  0  0  0  0  0
   -6.5848   -0.8230  -20.1887 C   0  0  0  0  0  0  0  0  0  0  0  0
   -6.8808   -1.0376  -18.8679 C   0  0  0  0  0  0  0  0  0  0  0  0
   -6.1894   -0.5432  -17.8043 N   0  0  0  0  0  0  0  0  0  0  0  0
   -5.1580    0.2214  -18.0685 C   0  0  0  0  0  0  0  0  0  0  0  0
   -4.7230    0.5333  -19.3848 C   0  0  0  0  0  0  0  0  0  0  0  0
   -3.5942    1.3563  -19.6256 C   0  0  0  0  0  0  0  0  0  0  0  0
   -3.2059    1.6513  -20.9017 C   0  0  0  0  0  0  0  0  0  0  0  0
   -3.9342    1.1225  -21.9937 C   0  0  0  0  0  0  0  0  0  0  0  0
   -5.0293    0.3190  -21.7968 C   0  0  0  0  0  0  0  0  0  0  0  0
   -5.4555    0.0020  -20.4802 C   0  0  0  0  0  0  0  0  0  0  0  0
   -5.5719   -0.0717  -22.6601 H   0  0  0  0  0  0  0  0  0  0  0  0
   -3.6197    1.3640  -23.0031 H   0  0  0  0  0  0  0  0  0  0  0  0
   -2.3502    2.2968  -21.0883 H   0  0  0  0  0  0  0  0  0  0  0  0
   -3.0594    1.7705  -18.7728 H   0  0  0  0  0  0  0  0  0  0  0  0
   -4.6051    0.6264  -17.2163 H   0  0  0  0  0  0  0  0  0  0  0  0
   -7.7296   -1.6590  -18.5872 H   0  0  0  0  0  0  0  0  0  0  0  0
   -6.7830   -1.8979  -22.0425 H   0  0  0  0  0  0  0  0  0  0  0  0
   -8.0341   -2.2313  -20.8579 H   0  0  0  0  0  0  0  0  0  0  0  0
   -9.0677   -0.7325  -23.1041 N   0  0  0  0  0  0  0  0  0  0  0  0
  -10.0822    0.2373  -23.5278 C   0  0  0  0  0  0  0  0  0  0  0  0
  -11.0524   -0.3184  -24.5536 C   0  0  0  0  0  0  0  0  0  0  0  0
  -10.3369   -0.9956  -25.7086 C   0  0  0  0  0  0  0  0  0  0  0  0
   -9.5330   -2.1500  -25.1311 C   0  0  0  0  0  0  0  0  0  0  0  0
   -8.5261   -1.7202  -24.0467 C   0  0  1  0  0  0  0  0  0  0  0  0
   -7.1873   -1.3034  -24.6625 C   0  0  0  0  0  0  0  0  0  0  0  0
   -6.9706   -0.0195  -25.1587 C   0  0  0  0  0  0  0  0  0  0  0  0
   -5.7495    0.3284  -25.7287 C   0  0  0  0  0  0  0  0  0  0  0  0
   -4.7211   -0.6054  -25.8234 C   0  0  0  0  0  0  0  0  0  0  0  0
   -4.9338   -1.9001  -25.3577 C   0  0  0  0  0  0  0  0  0  0  0  0
   -6.1593   -2.2437  -24.7910 C   0  0  0  0  0  0  0  0  0  0  0  0
   -6.3086   -3.2631  -24.4401 H   0  0  0  0  0  0  0  0  0  0  0  0
   -4.1404   -2.6391  -25.4266 H   0  0  0  0  0  0  0  0  0  0  0  0
   -3.7641   -0.3230  -26.2539 H   0  0  0  0  0  0  0  0  0  0  0  0
   -5.6023    1.3399  -26.0939 H   0  0  0  0  0  0  0  0  0  0  0  0
   -7.7592    0.7249  -25.1075 H   0  0  0  0  0  0  0  0  0  0  0  0
   -8.3260   -2.6154  -23.4526 H   0  0  0  0  0  0  0  0  0  0  0  0
  -10.2285   -2.8786  -24.7025 H   0  0  0  0  0  0  0  0  0  0  0  0
   -8.9904   -2.6778  -25.9202 H   0  0  0  0  0  0  0  0  0  0  0  0
   -9.6721   -0.2930  -26.2249 H   0  0  0  0  0  0  0  0  0  0  0  0
  -11.0486   -1.3554  -26.4611 H   0  0  0  0  0  0  0  0  0  0  0  0
  -11.6800    0.5058  -24.8880 H   0  0  0  0  0  0  0  0  0  0  0  0
  -11.7297   -1.0346  -24.0804 H   0  0  0  0  0  0  0  0  0  0  0  0
  -10.6262    0.5479  -22.6356 H   0  0  0  0  0  0  0  0  0  0  0  0
   -9.6296    1.1605  -23.9219 H   0  0  0  0  0  0  0  0  0  0  0  0
  1  2  2  0
  2  3  1  0
  3  4  1  0
  4  5  2  0
  5  6  1  0
  6  7  2  0
  7  8  1  0
  8  9  2  0
  9 10  1  0
 10 11  2  0
 11 12  1  0
 12 13  2  0
 12 14  1  0
 11 15  1  0
 10 16  1  0
  9 17  1  0
  7 18  1  0
  5 19  1  0
  3 20  1  0
  3 21  1  0
  2 22  1  0
 22 23  1  0
 23 24  1  0
 24 25  1  0
 25 26  1  0
 26 27  1  0
 27 28  1  0
 28 29  2  0
 29 30  1  0
 30 31  2  0
 31 32  1  0
 32 33  2  0
 33 34  1  0
 32 35  1  0
 31 36  1  0
 30 37  1  0
 29 38  1  0
 27 39  1  1
 26 40  1  0
 26 41  1  0
 25 42  1  0
 25 43  1  0
 24 44  1  0
 24 45  1  0
 23 46  1  0
 23 47  1  0
 13  4  1  0
 27 22  1  0
 33 28  1  0
 13  8  1  0
M  END
>  <cnnaffinities>  (35) 
[4.62083, 4.62033, 4.93624, 4.93629]

>  <score>  (35) 
4.62083

>  <index>  (35) 
36

>  <Smiles>  (35) 
O=C(C(c1c(nc(c2c(c(c(c(c12)[H])[H])[H])[H])[H])[H])([H])[H])N1C(C(C(C([C@]1(c1c(c(c(c(c1[H])[H])[H])[H])[H])[H])([H])[H])([H])[H])([H])[H])([H])[H]

>  <h>  (35) 
<NA>

>  <Training>  (35) 
True

>  <Success>  (35) 
True

>  <enamine_searched>  (35) 
False

>  <enamine_id>  (35) 
nan

$$$$

     RDKit          3D

 56 60  0  0  0  0  0  0  0  0999 V2000
   -7.3225    3.4502  -21.8824 C   0  0  0  0  0  0  0  0  0  0  0  0
   -8.1381    2.9603  -22.9776 N   0  0  0  0  0  0  0  0  0  0  0  0
   -7.5621    2.2537  -23.9773 C   0  0  0  0  0  0  0  0  0  0  0  0
   -6.3477    2.1252  -24.0788 O   0  0  0  0  0  0  0  0  0  0  0  0
   -8.5107    1.6328  -25.0090 C   0  0  0  0  0  0  0  0  0  0  0  0
   -9.2574    0.4954  -24.5024 N   0  0  0  0  0  0  0  0  0  0  0  0
   -8.5654   -0.7640  -24.3072 C   0  0  0  0  0  0  0  0  0  0  0  0
   -8.9887   -1.4585  -22.9861 C   0  0  2  0  0  0  0  0  0  0  0  0
   -8.4407   -0.6669  -21.7689 C   0  0  0  0  0  0  0  0  0  0  0  0
   -8.8330    0.4039  -21.3520 O   0  0  0  0  0  0  0  0  0  0  0  0
   -7.4067   -1.3760  -21.2047 N   0  0  0  0  0  0  0  0  0  0  0  0
   -6.6048   -0.8056  -20.1775 C   0  0  0  0  0  0  0  0  0  0  0  0
   -6.9066   -1.0444  -18.8636 C   0  0  0  0  0  0  0  0  0  0  0  0
   -6.2000   -0.5586  -17.8141 N   0  0  0  0  0  0  0  0  0  0  0  0
   -5.1677    0.2059  -18.0794 C   0  0  0  0  0  0  0  0  0  0  0  0
   -4.7300    0.5291  -19.3953 C   0  0  0  0  0  0  0  0  0  0  0  0
   -3.5989    1.3566  -19.6421 C   0  0  0  0  0  0  0  0  0  0  0  0
   -3.2098    1.6446  -20.9212 C   0  0  0  0  0  0  0  0  0  0  0  0
   -3.9314    1.1155  -22.0153 C   0  0  0  0  0  0  0  0  0  0  0  0
   -5.0277    0.3140  -21.8030 C   0  0  0  0  0  0  0  0  0  0  0  0
   -5.4665    0.0053  -20.4870 C   0  0  0  0  0  0  0  0  0  0  0  0
   -5.5800   -0.0795  -22.6522 H   0  0  0  0  0  0  0  0  0  0  0  0
   -3.6377    1.3589  -23.0306 H   0  0  0  0  0  0  0  0  0  0  0  0
   -2.3574    2.2945  -21.0993 H   0  0  0  0  0  0  0  0  0  0  0  0
   -3.0704    1.7695  -18.7856 H   0  0  0  0  0  0  0  0  0  0  0  0
   -4.6217    0.6132  -17.2271 H   0  0  0  0  0  0  0  0  0  0  0  0
   -7.7599   -1.6676  -18.6072 H   0  0  0  0  0  0  0  0  0  0  0  0
   -7.0857   -2.6135  -21.8856 C   0  0  0  0  0  0  0  0  0  0  0  0
   -8.2915   -2.8542  -22.8230 C   0  0  2  0  0  0  0  0  0  0  0  0
   -7.8847   -3.5926  -24.1047 C   0  0  0  0  0  0  0  0  0  0  0  0
   -7.1141   -3.0409  -24.6567 H   0  0  0  0  0  0  0  0  0  0  0  0
   -7.4691   -4.5779  -23.8665 H   0  0  0  0  0  0  0  0  0  0  0  0
   -8.7346   -3.7451  -24.7789 H   0  0  0  0  0  0  0  0  0  0  0  0
   -9.0065   -3.4847  -22.2888 H   0  0  0  0  0  0  0  0  0  0  0  0
   -6.1480   -2.5197  -22.4562 H   0  0  0  0  0  0  0  0  0  0  0  0
   -6.9470   -3.4271  -21.1622 H   0  0  0  0  0  0  0  0  0  0  0  0
  -10.5107   -1.4646  -22.9160 C   0  0  0  0  0  0  0  0  0  0  0  0
  -11.1729   -2.3035  -22.0129 C   0  0  0  0  0  0  0  0  0  0  0  0
  -12.5547   -2.3105  -21.9193 C   0  0  0  0  0  0  0  0  0  0  0  0
  -13.3125   -1.4451  -22.7131 C   0  0  0  0  0  0  0  0  0  0  0  0
  -12.6735   -0.5538  -23.5554 C   0  0  0  0  0  0  0  0  0  0  0  0
  -11.2795   -0.5337  -23.6299 C   0  0  0  0  0  0  0  0  0  0  0  0
  -10.6205    0.5799  -24.3956 C   0  0  0  0  0  0  0  0  0  0  0  0
  -11.2535    1.5241  -24.8487 O   0  0  0  0  0  0  0  0  0  0  0  0
  -13.2201    0.1691  -24.1516 H   0  0  0  0  0  0  0  0  0  0  0  0
  -14.3959   -1.4482  -22.6454 H   0  0  0  0  0  0  0  0  0  0  0  0
  -13.0428   -2.9810  -21.2167 H   0  0  0  0  0  0  0  0  0  0  0  0
  -10.6031   -2.9469  -21.3478 H   0  0  0  0  0  0  0  0  0  0  0  0
   -8.7665   -1.4492  -25.1478 H   0  0  0  0  0  0  0  0  0  0  0  0
   -7.4935   -0.5424  -24.2765 H   0  0  0  0  0  0  0  0  0  0  0  0
   -7.8772    1.3403  -25.8540 H   0  0  0  0  0  0  0  0  0  0  0  0
   -9.2692    2.3427  -25.3491 H   0  0  0  0  0  0  0  0  0  0  0  0
   -9.1390    2.9200  -22.8561 H   0  0  0  0  0  0  0  0  0  0  0  0
   -6.7867    2.6254  -21.3845 H   0  0  0  0  0  0  0  0  0  0  0  0
   -6.5802    4.1710  -22.2445 H   0  0  0  0  0  0  0  0  0  0  0  0
   -7.9923    3.9547  -21.1855 H   0  0  0  0  0  0  0  0  0  0  0  0
  1  2  1  0
  2  3  1  0
  3  4  2  0
  3  5  1  0
  5  6  1  0
  6  7  1  0
  8  7  1  6
  8  9  1  0
  9 10  2  0
  9 11  1  0
 11 12  1  0
 12 13  2  0
 13 14  1  0
 14 15  2  0
 15 16  1  0
 16 17  2  0
 17 18  1  0
 18 19  2  0
 19 20  1  0
 20 21  2  0
 20 22  1  0
 19 23  1  0
 18 24  1  0
 17 25  1  0
 15 26  1  0
 13 27  1  0
 11 28  1  0
 28 29  1  0
 29 30  1  0
 30 31  1  0
 30 32  1  0
 30 33  1  0
 29 34  1  1
 28 35  1  0
 28 36  1  0
  8 37  1  0
 37 38  2  0
 38 39  1  0
 39 40  2  0
 40 41  1  0
 41 42  2  0
 42 43  1  0
 43 44  2  0
 41 45  1  0
 40 46  1  0
 39 47  1  0
 38 48  1  0
  7 49  1  0
  7 50  1  0
  5 51  1  0
  5 52  1  0
  2 53  1  0
  1 54  1  0
  1 55  1  0
  1 56  1  0
 43  6  1  0
 29  8  1  0
 42 37  1  0
 21 12  1  0
 21 16  1  0
M  END
>  <cnnaffinities>  (36) 
[5.98797]

>  <score>  (36) 
5.98797

>  <index>  (36) 
37

>  <Smiles>  (36) 
C(N(C(=O)C(N1C([C@@]2(C(=O)N(c3c(nc(c4c(c(c(c(c34)[H])[H])[H])[H])[H])[H])C([C@@]2(C([H])([H])[H])[H])([H])[H])c2c(c(c(c(c2C1=O)[H])[H])[H])[H])([H])[H])([H])[H])[H])([H])([H])[H]

>  <h>  (36) 
<NA>

>  <Training>  (36) 
True

>  <Success>  (36) 
True

>  <enamine_searched>  (36) 
False

>  <enamine_id>  (36) 
nan

$$$$

     RDKit          3D

 46 48  0  0  0  0  0  0  0  0999 V2000
   -8.1587   -4.6948  -26.5424 C   0  0  0  0  0  0  0  0  0  0  0  0
   -8.6541   -4.9601  -25.1186 C   0  0  1  0  0  0  0  0  0  0  0  0
   -7.5896   -5.5253  -24.1815 C   0  0  0  0  0  0  0  0  0  0  0  0
   -6.6147   -4.5189  -23.5535 C   0  0  1  0  0  0  0  0  0  0  0  0
   -5.4118   -4.1595  -24.4400 C   0  0  0  0  0  0  0  0  0  0  0  0
   -4.6074   -3.7382  -23.8290 H   0  0  0  0  0  0  0  0  0  0  0  0
   -5.6634   -3.4319  -25.2147 H   0  0  0  0  0  0  0  0  0  0  0  0
   -5.0163   -5.0547  -24.9376 H   0  0  0  0  0  0  0  0  0  0  0  0
   -7.3248   -3.3384  -23.0135 N   0  0  0  0  0  0  0  0  0  0  0  0
   -6.7239   -2.7040  -21.9371 C   0  0  0  0  0  0  0  0  0  0  0  0
   -5.6769   -3.1183  -21.4657 O   0  0  0  0  0  0  0  0  0  0  0  0
   -7.4080   -1.4707  -21.2821 C   0  0  0  0  0  0  0  0  0  0  0  0
   -6.5782   -0.8341  -20.1879 C   0  0  0  0  0  0  0  0  0  0  0  0
   -6.8728   -1.0484  -18.8675 C   0  0  0  0  0  0  0  0  0  0  0  0
   -6.1864   -0.5491  -17.8039 N   0  0  0  0  0  0  0  0  0  0  0  0
   -5.1590    0.2216  -18.0669 C   0  0  0  0  0  0  0  0  0  0  0  0
   -4.7208    0.5283  -19.3824 C   0  0  0  0  0  0  0  0  0  0  0  0
   -3.5904    1.3514  -19.6250 C   0  0  0  0  0  0  0  0  0  0  0  0
   -3.1910    1.6319  -20.9033 C   0  0  0  0  0  0  0  0  0  0  0  0
   -3.9045    1.0913  -21.9954 C   0  0  0  0  0  0  0  0  0  0  0  0
   -5.0001    0.2893  -21.7877 C   0  0  0  0  0  0  0  0  0  0  0  0
   -5.4448   -0.0143  -20.4749 C   0  0  0  0  0  0  0  0  0  0  0  0
   -5.5354   -0.1229  -22.6376 H   0  0  0  0  0  0  0  0  0  0  0  0
   -3.5813    1.3177  -23.0067 H   0  0  0  0  0  0  0  0  0  0  0  0
   -2.3312    2.2724  -21.0867 H   0  0  0  0  0  0  0  0  0  0  0  0
   -3.0581    1.7705  -18.7735 H   0  0  0  0  0  0  0  0  0  0  0  0
   -4.6055    0.6281  -17.2164 H   0  0  0  0  0  0  0  0  0  0  0  0
   -7.7213   -1.6709  -18.5888 H   0  0  0  0  0  0  0  0  0  0  0  0
   -7.6721   -0.7136  -22.0323 H   0  0  0  0  0  0  0  0  0  0  0  0
   -8.3596   -1.8077  -20.8476 H   0  0  0  0  0  0  0  0  0  0  0  0
   -8.4101   -2.7197  -23.7935 C   0  0  1  0  0  0  0  0  0  0  0  0
   -7.9394   -1.6595  -24.8006 C   0  0  0  0  0  0  0  0  0  0  0  0
   -7.4436   -2.0882  -25.6756 H   0  0  0  0  0  0  0  0  0  0  0  0
   -8.7986   -1.0850  -25.1703 H   0  0  0  0  0  0  0  0  0  0  0  0
   -7.2438   -0.9498  -24.3426 H   0  0  0  0  0  0  0  0  0  0  0  0
   -9.3297   -3.7778  -24.4244 C   0  0  0  0  0  0  0  0  0  0  0  0
   -9.9799   -4.1700  -23.6353 H   0  0  0  0  0  0  0  0  0  0  0  0
   -9.9950   -3.2771  -25.1353 H   0  0  0  0  0  0  0  0  0  0  0  0
   -9.0330   -2.1950  -23.0634 H   0  0  0  0  0  0  0  0  0  0  0  0
   -6.1939   -5.0185  -22.6794 H   0  0  0  0  0  0  0  0  0  0  0  0
   -8.0925   -6.0556  -23.3655 H   0  0  0  0  0  0  0  0  0  0  0  0
   -7.0110   -6.2879  -24.7145 H   0  0  0  0  0  0  0  0  0  0  0  0
   -9.4279   -5.7354  -25.2246 H   0  0  0  0  0  0  0  0  0  0  0  0
   -7.9243   -5.6402  -27.0470 H   0  0  0  0  0  0  0  0  0  0  0  0
   -8.9312   -4.1942  -27.1378 H   0  0  0  0  0  0  0  0  0  0  0  0
   -7.2555   -4.0806  -26.5816 H   0  0  0  0  0  0  0  0  0  0  0  0
  1  2  1  0
  2  3  1  0
  3  4  1  0
  4  5  1  0
  5  6  1  0
  5  7  1  0
  5  8  1  0
  4  9  1  0
  9 10  1  0
 10 11  2  0
 10 12  1  0
 12 13  1  0
 13 14  2  0
 14 15  1  0
 15 16  2  0
 16 17  1  0
 17 18  2  0
 18 19  1  0
 19 20  2  0
 20 21  1  0
 21 22  2  0
 21 23  1  0
 20 24  1  0
 19 25  1  0
 18 26  1  0
 16 27  1  0
 14 28  1  0
 12 29  1  0
 12 30  1  0
  9 31  1  0
 31 32  1  0
 32 33  1  0
 32 34  1  0
 32 35  1  0
 31 36  1  0
 36 37  1  0
 36 38  1  0
 31 39  1  1
  4 40  1  1
  3 41  1  0
  3 42  1  0
  2 43  1  6
  1 44  1  0
  1 45  1  0
  1 46  1  0
 36  2  1  0
 22 13  1  0
 22 17  1  0
M  END
>  <cnnaffinities>  (37) 
[5.09927]

>  <score>  (37) 
5.09927

>  <index>  (37) 
38

>  <Smiles>  (37) 
C([C@]1(C([C@@](C([H])([H])[H])(N(C(=O)C(c2c(nc(c3c(c(c(c(c23)[H])[H])[H])[H])[H])[H])([H])[H])[C@@](C([H])([H])[H])(C1([H])[H])[H])[H])([H])[H])[H])([H])([H])[H]

>  <h>  (37) 
<NA>

>  <Training>  (37) 
True

>  <Success>  (37) 
True

>  <enamine_searched>  (37) 
False

>  <enamine_id>  (37) 
nan

$$$$

     RDKit          3D

 40 44  0  0  0  0  0  0  0  0999 V2000
   -7.2317    0.9543  -25.6026 C   0  0  0  0  0  0  0  0  0  0  0  0
   -6.4998   -0.3688  -25.4070 C   0  0  0  0  0  0  0  0  0  0  0  0
   -5.2973   -0.4680  -25.5814 O   0  0  0  0  0  0  0  0  0  0  0  0
   -7.2543   -1.4515  -25.0420 N   0  0  0  0  0  0  0  0  0  0  0  0
   -6.6459   -2.7650  -24.7204 C   0  0  0  0  0  0  0  0  0  0  0  0
   -7.8235   -3.4992  -24.0346 C   0  0  2  0  0  0  0  0  0  0  0  0
   -8.9949   -2.9687  -24.8671 C   0  0  0  0  0  0  0  0  0  0  0  0
   -8.6589   -1.5018  -24.5575 C   0  0  1  0  0  0  0  0  0  0  0  0
   -8.5980   -1.5851  -23.0825 C   0  0  0  0  0  0  0  0  0  0  0  0
   -8.1605   -0.6182  -22.1229 C   0  0  0  0  0  0  0  0  0  0  0  0
   -8.3101    0.5820  -22.0806 O   0  0  0  0  0  1  0  0  0  0  0  0
   -7.4074   -1.3991  -21.1909 N   0  0  0  0  0  0  0  0  0  0  0  0
   -6.5887   -0.8200  -20.1773 C   0  0  0  0  0  0  0  0  0  0  0  0
   -6.8831   -1.0552  -18.8609 C   0  0  0  0  0  0  0  0  0  0  0  0
   -6.1869   -0.5490  -17.8119 N   0  0  0  0  0  0  0  0  0  0  0  0
   -5.1608    0.2227  -18.0711 C   0  0  0  0  0  0  0  0  0  0  0  0
   -4.7213    0.5322  -19.3899 C   0  0  0  0  0  0  0  0  0  0  0  0
   -3.5854    1.3535  -19.6317 C   0  0  0  0  0  0  0  0  0  0  0  0
   -3.1879    1.6237  -20.9113 C   0  0  0  0  0  0  0  0  0  0  0  0
   -3.8929    1.0747  -22.0054 C   0  0  0  0  0  0  0  0  0  0  0  0
   -4.9852    0.2729  -21.7965 C   0  0  0  0  0  0  0  0  0  0  0  0
   -5.4440   -0.0076  -20.4812 C   0  0  0  0  0  0  0  0  0  0  0  0
   -5.5117   -0.1543  -22.6452 H   0  0  0  0  0  0  0  0  0  0  0  0
   -3.5720    1.2863  -23.0212 H   0  0  0  0  0  0  0  0  0  0  0  0
   -2.3287    2.2617  -21.0996 H   0  0  0  0  0  0  0  0  0  0  0  0
   -3.0526    1.7742  -18.7817 H   0  0  0  0  0  0  0  0  0  0  0  0
   -4.6076    0.6249  -17.2181 H   0  0  0  0  0  0  0  0  0  0  0  0
   -7.7371   -1.6745  -18.6012 H   0  0  0  0  0  0  0  0  0  0  0  0
   -7.2467   -2.7307  -21.6339 C   0  0  0  0  0  0  0  0  0  0  0  0
   -6.5161   -3.5729  -21.1679 O   0  0  0  0  0  0  0  0  0  0  0  0
   -8.0974   -2.8214  -22.7427 N   0  0  0  0  0  0  0  0  0  0  0  0
   -9.2962   -0.7218  -24.9745 H   0  0  0  0  0  0  0  0  0  0  0  0
   -9.9613   -3.2810  -24.4799 H   0  0  0  0  0  0  0  0  0  0  0  0
   -8.9167   -3.2079  -25.9302 H   0  0  0  0  0  0  0  0  0  0  0  0
   -7.7301   -4.5734  -23.9236 H   0  0  0  0  0  0  0  0  0  0  0  0
   -5.7867   -2.6793  -24.0512 H   0  0  0  0  0  0  0  0  0  0  0  0
   -6.3249   -3.2732  -25.6337 H   0  0  0  0  0  0  0  0  0  0  0  0
   -6.4988    1.6972  -25.9134 H   0  0  0  0  0  0  0  0  0  0  0  0
   -7.7133    1.2970  -24.6827 H   0  0  0  0  0  0  0  0  0  0  0  0
   -7.9971    0.8936  -26.3820 H   0  0  0  0  0  0  0  0  0  0  0  0
  1  2  1  0
  2  3  2  0
  2  4  1  0
  4  5  1  0
  5  6  1  0
  6  7  1  0
  7  8  1  0
  8  9  1  0
  9 10  2  0
 10 11  1  0
 10 12  1  0
 12 13  1  0
 13 14  2  0
 14 15  1  0
 15 16  2  0
 16 17  1  0
 17 18  2  0
 18 19  1  0
 19 20  2  0
 20 21  1  0
 21 22  2  0
 21 23  1  0
 20 24  1  0
 19 25  1  0
 18 26  1  0
 16 27  1  0
 14 28  1  0
 12 29  1  0
 29 30  2  0
 29 31  1  0
  8 32  1  1
  7 33  1  0
  7 34  1  0
  6 35  1  1
  5 36  1  0
  5 37  1  0
  1 38  1  0
  1 39  1  0
  1 40  1  0
  8  4  1  0
 31  9  1  0
 31  6  1  0
 22 13  1  0
 22 17  1  0
M  CHG  1  11  -1
M  END
>  <cnnaffinities>  (38) 
[5.17143, 5.13632, 4.90108]

>  <score>  (38) 
5.17143

>  <index>  (38) 
39

>  <Smiles>  (38) 
C(C(=O)N1C([C@@]2(C([C@]1(c1c([O-])n(c3c(nc(c4c(c(c(c(c34)[H])[H])[H])[H])[H])[H])c(=O)n21)[H])([H])[H])[H])([H])[H])([H])([H])[H]

>  <h>  (38) 
<NA>

>  <Training>  (38) 
True

>  <Success>  (38) 
True

>  <enamine_searched>  (38) 
False

>  <enamine_id>  (38) 
nan

$$$$

     RDKit          3D

 40 42  0  0  0  0  0  0  0  0999 V2000
   -6.4972    1.4267  -26.8585 C   0  0  0  0  0  0  0  0  0  0  0  0
   -7.5012    1.0191  -25.7826 C   0  0  0  0  0  0  0  0  0  0  0  0
   -7.4154    1.9214  -24.5564 C   0  0  0  0  0  0  0  0  0  0  0  0
   -8.3907    1.4916  -23.4642 C   0  0  0  0  0  0  0  0  0  0  0  0
   -8.1743    0.0877  -23.1325 N   0  0  0  0  0  0  0  0  0  0  0  0
   -8.3761   -0.3125  -21.8080 C   0  0  0  0  0  0  0  0  0  0  0  0
   -9.1755    0.2288  -21.0766 O   0  0  0  0  0  0  0  0  0  0  0  0
   -7.4440   -1.4118  -21.2733 C   0  0  0  0  0  0  0  0  0  0  0  0
   -6.5713   -0.8337  -20.1783 C   0  0  0  0  0  0  0  0  0  0  0  0
   -6.8767   -1.0414  -18.8592 C   0  0  0  0  0  0  0  0  0  0  0  0
   -6.1868   -0.5424  -17.7997 N   0  0  0  0  0  0  0  0  0  0  0  0
   -5.1559    0.2219  -18.0666 C   0  0  0  0  0  0  0  0  0  0  0  0
   -4.7216    0.5329  -19.3825 C   0  0  0  0  0  0  0  0  0  0  0  0
   -3.5975    1.3623  -19.6255 C   0  0  0  0  0  0  0  0  0  0  0  0
   -3.2101    1.6605  -20.9033 C   0  0  0  0  0  0  0  0  0  0  0  0
   -3.9316    1.1285  -21.9962 C   0  0  0  0  0  0  0  0  0  0  0  0
   -5.0187    0.3161  -21.7867 C   0  0  0  0  0  0  0  0  0  0  0  0
   -5.4491   -0.0028  -20.4729 C   0  0  0  0  0  0  0  0  0  0  0  0
   -5.5542   -0.0868  -22.6387 H   0  0  0  0  0  0  0  0  0  0  0  0
   -3.6170    1.3677  -23.0076 H   0  0  0  0  0  0  0  0  0  0  0  0
   -2.3584    2.3107  -21.0845 H   0  0  0  0  0  0  0  0  0  0  0  0
   -3.0643    1.7776  -18.7736 H   0  0  0  0  0  0  0  0  0  0  0  0
   -4.6047    0.6278  -17.2159 H   0  0  0  0  0  0  0  0  0  0  0  0
   -7.7292   -1.6601  -18.5838 H   0  0  0  0  0  0  0  0  0  0  0  0
   -6.8341   -1.8489  -22.0737 H   0  0  0  0  0  0  0  0  0  0  0  0
   -8.0698   -2.2033  -20.8443 H   0  0  0  0  0  0  0  0  0  0  0  0
   -8.2783   -0.8313  -24.2614 C   0  0  0  0  0  0  0  0  0  0  0  0
   -7.3103   -0.4350  -25.3656 C   0  0  0  0  0  0  0  0  0  0  0  0
   -6.2852   -0.5785  -25.0068 H   0  0  0  0  0  0  0  0  0  0  0  0
   -7.4343   -1.0954  -26.2313 H   0  0  0  0  0  0  0  0  0  0  0  0
   -8.0801   -1.8417  -23.9077 H   0  0  0  0  0  0  0  0  0  0  0  0
   -9.3015   -0.8432  -24.6779 H   0  0  0  0  0  0  0  0  0  0  0  0
   -9.4241    1.6918  -23.7870 H   0  0  0  0  0  0  0  0  0  0  0  0
   -8.2315    2.0723  -22.5556 H   0  0  0  0  0  0  0  0  0  0  0  0
   -6.3939    1.8967  -24.1549 H   0  0  0  0  0  0  0  0  0  0  0  0
   -7.6019    2.9620  -24.8414 H   0  0  0  0  0  0  0  0  0  0  0  0
   -8.5121    1.1197  -26.2009 H   0  0  0  0  0  0  0  0  0  0  0  0
   -5.4707    1.3390  -26.4824 H   0  0  0  0  0  0  0  0  0  0  0  0
   -6.6428    2.4658  -27.1752 H   0  0  0  0  0  0  0  0  0  0  0  0
   -6.5760    0.7866  -27.7449 H   0  0  0  0  0  0  0  0  0  0  0  0
  1  2  1  0
  2  3  1  0
  3  4  1  0
  4  5  1  0
  5  6  1  0
  6  7  2  0
  6  8  1  0
  8  9  1  0
  9 10  2  0
 10 11  1  0
 11 12  2  0
 12 13  1  0
 13 14  2  0
 14 15  1  0
 15 16  2  0
 16 17  1  0
 17 18  2  0
 17 19  1  0
 16 20  1  0
 15 21  1  0
 14 22  1  0
 12 23  1  0
 10 24  1  0
  8 25  1  0
  8 26  1  0
  5 27  1  0
 27 28  1  0
 28 29  1  0
 28 30  1  0
 27 31  1  0
 27 32  1  0
  4 33  1  0
  4 34  1  0
  3 35  1  0
  3 36  1  0
  2 37  1  0
  1 38  1  0
  1 39  1  0
  1 40  1  0
 28  2  1  0
 18  9  1  0
 18 13  1  0
M  END
>  <cnnaffinities>  (39) 
[4.56157, 4.56152, 4.67093, 4.67086, 4.16923, 4.16566, 4.41888, 4.4189]

>  <score>  (39) 
4.56157

>  <index>  (39) 
40

>  <Smiles>  (39) 
C(C1(C(C(N(C(=O)C(c2c(nc(c3c(c(c(c(c23)[H])[H])[H])[H])[H])[H])([H])[H])C(C1([H])[H])([H])[H])([H])[H])([H])[H])[H])([H])([H])[H]

>  <h>  (39) 
<NA>

>  <Training>  (39) 
True

>  <Success>  (39) 
True

>  <enamine_searched>  (39) 
False

>  <enamine_id>  (39) 
nan

$$$$

     RDKit          3D

 67 71  0  0  0  0  0  0  0  0999 V2000
   -7.5817    2.5118  -21.4822 C   0  0  0  0  0  0  0  0  0  0  0  0
   -8.6336    2.2738  -22.4419 N   0  0  0  0  0  0  0  0  0  0  0  0
   -8.3728    1.6836  -23.6246 C   0  0  0  0  0  0  0  0  0  0  0  0
   -7.2373    1.4959  -24.0529 O   0  0  0  0  0  0  0  0  0  0  0  0
   -9.6113    1.2022  -24.3916 C   0  0  0  0  0  0  0  0  0  0  0  0
  -10.1042   -0.0487  -23.8333 N   0  0  0  0  0  0  0  0  0  0  0  0
   -9.2402   -1.2160  -23.8702 C   0  0  0  0  0  0  0  0  0  0  0  0
   -9.2916   -1.9778  -22.5203 C   0  0  2  0  0  0  0  0  0  0  0  0
   -8.7040   -1.0397  -21.4368 C   0  0  0  0  0  0  0  0  0  0  0  0
   -9.2583   -0.0985  -20.9021 O   0  0  0  0  0  0  0  0  0  0  0  0
   -7.3949   -1.4068  -21.2041 N   0  0  0  0  0  0  0  0  0  0  0  0
   -6.6173   -0.8067  -20.1833 C   0  0  0  0  0  0  0  0  0  0  0  0
   -6.9428   -1.0149  -18.8626 C   0  0  0  0  0  0  0  0  0  0  0  0
   -6.2500   -0.5030  -17.8219 N   0  0  0  0  0  0  0  0  0  0  0  0
   -5.2123    0.2544  -18.0978 C   0  0  0  0  0  0  0  0  0  0  0  0
   -4.7620    0.5474  -19.4169 C   0  0  0  0  0  0  0  0  0  0  0  0
   -3.6319    1.3687  -19.6681 C   0  0  0  0  0  0  0  0  0  0  0  0
   -3.2354    1.6436  -20.9501 C   0  0  0  0  0  0  0  0  0  0  0  0
   -3.9447    1.1051  -22.0424 C   0  0  0  0  0  0  0  0  0  0  0  0
   -5.0400    0.2953  -21.8264 C   0  0  0  0  0  0  0  0  0  0  0  0
   -5.4753   -0.0083  -20.5061 C   0  0  0  0  0  0  0  0  0  0  0  0
   -5.6541    0.0005  -22.6719 H   0  0  0  0  0  0  0  0  0  0  0  0
   -3.6542    1.3681  -23.0552 H   0  0  0  0  0  0  0  0  0  0  0  0
   -2.3863    2.2964  -21.1310 H   0  0  0  0  0  0  0  0  0  0  0  0
   -3.1152    1.8030  -18.8174 H   0  0  0  0  0  0  0  0  0  0  0  0
   -4.6756    0.6903  -17.2545 H   0  0  0  0  0  0  0  0  0  0  0  0
   -7.7902   -1.6468  -18.6036 H   0  0  0  0  0  0  0  0  0  0  0  0
   -6.9602   -2.5571  -21.9717 C   0  0  0  0  0  0  0  0  0  0  0  0
   -8.2905   -3.1649  -22.4588 C   0  0  2  0  0  0  0  0  0  0  0  0
   -8.1954   -3.9729  -23.7528 C   0  0  0  0  0  0  0  0  0  0  0  0
   -7.2627   -5.4788  -23.5346 S   0  0  0  0  0  0  0  0  0  0  0  0
   -5.8625   -5.1160  -23.3720 O   0  0  0  0  0  0  0  0  0  0  0  0
   -7.9527   -6.2850  -22.5372 O   0  0  0  0  0  0  0  0  0  0  0  0
   -7.4004   -6.2697  -24.9857 N   0  0  0  0  0  0  0  0  0  0  0  0
   -8.6710   -6.9232  -25.2544 C   0  0  0  0  0  0  0  0  0  0  0  0
   -9.4801   -6.2243  -25.5087 H   0  0  0  0  0  0  0  0  0  0  0  0
   -8.5301   -7.6044  -26.0936 H   0  0  0  0  0  0  0  0  0  0  0  0
   -8.9628   -7.5056  -24.3820 H   0  0  0  0  0  0  0  0  0  0  0  0
   -6.7552   -5.6568  -26.1358 C   0  0  0  0  0  0  0  0  0  0  0  0
   -7.3175   -4.8076  -26.5490 H   0  0  0  0  0  0  0  0  0  0  0  0
   -6.6529   -6.4138  -26.9158 H   0  0  0  0  0  0  0  0  0  0  0  0
   -5.7572   -5.3213  -25.8578 H   0  0  0  0  0  0  0  0  0  0  0  0
   -9.1983   -4.2568  -24.0899 H   0  0  0  0  0  0  0  0  0  0  0  0
   -7.6976   -3.3899  -24.5342 H   0  0  0  0  0  0  0  0  0  0  0  0
   -8.6199   -3.8354  -21.6616 H   0  0  0  0  0  0  0  0  0  0  0  0
   -6.3210   -2.2537  -22.8100 H   0  0  0  0  0  0  0  0  0  0  0  0
   -6.3841   -3.2572  -21.3608 H   0  0  0  0  0  0  0  0  0  0  0  0
  -10.7528   -2.3188  -22.2686 C   0  0  0  0  0  0  0  0  0  0  0  0
  -11.1599   -3.4731  -21.5849 C   0  0  0  0  0  0  0  0  0  0  0  0
  -12.4911   -3.6332  -21.2523 C   0  0  0  0  0  0  0  0  0  0  0  0
  -12.8527   -4.6527  -20.4563 F   0  0  0  0  0  0  0  0  0  0  0  0
  -13.4789   -2.7497  -21.6577 C   0  0  0  0  0  0  0  0  0  0  0  0
  -13.0953   -1.6370  -22.3776 C   0  0  0  0  0  0  0  0  0  0  0  0
  -11.7486   -1.4091  -22.6675 C   0  0  0  0  0  0  0  0  0  0  0  0
  -11.4023   -0.1445  -23.4107 C   0  0  0  0  0  0  0  0  0  0  0  0
  -12.2296    0.7300  -23.6181 O   0  0  0  0  0  0  0  0  0  0  0  0
  -13.8260   -0.9127  -22.7181 H   0  0  0  0  0  0  0  0  0  0  0  0
  -14.5080   -2.9640  -21.3969 H   0  0  0  0  0  0  0  0  0  0  0  0
  -10.4643   -4.2196  -21.2240 H   0  0  0  0  0  0  0  0  0  0  0  0
   -9.5597   -1.8818  -24.6836 H   0  0  0  0  0  0  0  0  0  0  0  0
   -8.2244   -0.8712  -24.0793 H   0  0  0  0  0  0  0  0  0  0  0  0
   -9.3061    1.0737  -25.4342 H   0  0  0  0  0  0  0  0  0  0  0  0
  -10.4436    1.9120  -24.3517 H   0  0  0  0  0  0  0  0  0  0  0  0
   -9.5850    2.3504  -22.1127 H   0  0  0  0  0  0  0  0  0  0  0  0
   -6.6664    2.0941  -21.8942 H   0  0  0  0  0  0  0  0  0  0  0  0
   -7.8125    1.9781  -20.5543 H   0  0  0  0  0  0  0  0  0  0  0  0
   -7.4154    3.5897  -21.3492 H   0  0  0  0  0  0  0  0  0  0  0  0
  1  2  1  0
  2  3  1  0
  3  4  2  0
  3  5  1  0
  5  6  1  0
  6  7  1  0
  8  7  1  6
  8  9  1  0
  9 10  2  0
  9 11  1  0
 11 12  1  0
 12 13  2  0
 13 14  1  0
 14 15  2  0
 15 16  1  0
 16 17  2  0
 17 18  1  0
 18 19  2  0
 19 20  1  0
 20 21  2  0
 20 22  1  0
 19 23  1  0
 18 24  1  0
 17 25  1  0
 15 26  1  0
 13 27  1  0
 11 28  1  0
 28 29  1  0
 29 30  1  0
 30 31  1  0
 31 32  2  0
 31 33  2  0
 31 34  1  0
 34 35  1  0
 35 36  1  0
 35 37  1  0
 35 38  1  0
 34 39  1  0
 39 40  1  0
 39 41  1  0
 39 42  1  0
 30 43  1  0
 30 44  1  0
 29 45  1  1
 28 46  1  0
 28 47  1  0
  8 48  1  0
 48 49  2  0
 49 50  1  0
 50 51  1  0
 50 52  2  0
 52 53  1  0
 53 54  2  0
 54 55  1  0
 55 56  2  0
 53 57  1  0
 52 58  1  0
 49 59  1  0
  7 60  1  0
  7 61  1  0
  5 62  1  0
  5 63  1  0
  2 64  1  0
  1 65  1  0
  1 66  1  0
  1 67  1  0
 55  6  1  0
 29  8  1  0
 54 48  1  0
 21 12  1  0
 21 16  1  0
M  END
>  <cnnaffinities>  (40) 
[7.14389]

>  <score>  (40) 
7.14389

>  <index>  (40) 
41

>  <Smiles>  (40) 
C(N(C(=O)C(N1C([C@@]2(C(=O)N(c3c(nc(c4c(c(c(c(c34)[H])[H])[H])[H])[H])[H])C([C@@]2(C(S(=O)(=O)N(C([H])([H])[H])C([H])([H])[H])([H])[H])[H])([H])[H])c2c(c(F)c(c(c2C1=O)[H])[H])[H])([H])[H])([H])[H])[H])([H])([H])[H]

>  <h>  (40) 
<NA>

>  <Training>  (40) 
True

>  <Success>  (40) 
True

>  <enamine_searched>  (40) 
False

>  <enamine_id>  (40) 
nan

$$$$

     RDKit          3D

 67 72  0  0  0  0  0  0  0  0999 V2000
   -7.5276    2.9175  -22.0031 C   0  0  0  0  0  0  0  0  0  0  0  0
   -8.5851    2.4526  -22.8843 N   0  0  0  0  0  0  0  0  0  0  0  0
   -8.2769    1.7594  -24.0145 C   0  0  0  0  0  0  0  0  0  0  0  0
   -7.1292    1.5593  -24.3903 O   0  0  0  0  0  0  0  0  0  0  0  0
   -9.5154    1.2204  -24.7491 C   0  0  0  0  0  0  0  0  0  0  0  0
   -9.9944    0.0194  -24.0845 N   0  0  0  0  0  0  0  0  0  0  0  0
   -9.0969   -1.1180  -24.0036 C   0  0  0  0  0  0  0  0  0  0  0  0
   -9.2374   -1.8781  -22.6541 C   0  0  2  0  0  0  0  0  0  0  0  0
   -8.6738   -0.9911  -21.5134 C   0  0  0  0  0  0  0  0  0  0  0  0
   -9.2217   -0.0456  -20.9806 O   0  0  0  0  0  0  0  0  0  0  0  0
   -7.4037   -1.4260  -21.2068 N   0  0  0  0  0  0  0  0  0  0  0  0
   -6.6298   -0.8264  -20.1849 C   0  0  0  0  0  0  0  0  0  0  0  0
   -6.9481   -1.0489  -18.8684 C   0  0  0  0  0  0  0  0  0  0  0  0
   -6.2340   -0.5696  -17.8245 N   0  0  0  0  0  0  0  0  0  0  0  0
   -5.1877    0.1743  -18.0913 C   0  0  0  0  0  0  0  0  0  0  0  0
   -4.7417    0.4822  -19.4082 C   0  0  0  0  0  0  0  0  0  0  0  0
   -3.6160    1.3142  -19.6510 C   0  0  0  0  0  0  0  0  0  0  0  0
   -3.2446    1.6280  -20.9301 C   0  0  0  0  0  0  0  0  0  0  0  0
   -3.9810    1.1262  -22.0259 C   0  0  0  0  0  0  0  0  0  0  0  0
   -5.0767    0.3166  -21.8172 C   0  0  0  0  0  0  0  0  0  0  0  0
   -5.4825   -0.0329  -20.4991 C   0  0  0  0  0  0  0  0  0  0  0  0
   -5.6769   -0.0034  -22.6645 H   0  0  0  0  0  0  0  0  0  0  0  0
   -3.6989    1.3986  -23.0382 H   0  0  0  0  0  0  0  0  0  0  0  0
   -2.3997    2.2888  -21.1073 H   0  0  0  0  0  0  0  0  0  0  0  0
   -3.0895    1.7252  -18.7935 H   0  0  0  0  0  0  0  0  0  0  0  0
   -4.6370    0.5788  -17.2407 H   0  0  0  0  0  0  0  0  0  0  0  0
   -7.8117   -1.6570  -18.6096 H   0  0  0  0  0  0  0  0  0  0  0  0
   -6.9589   -2.5606  -21.9883 C   0  0  0  0  0  0  0  0  0  0  0  0
   -8.2742   -3.0934  -22.5876 C   0  0  2  0  0  0  0  0  0  0  0  0
   -8.0987   -3.8387  -23.9074 C   0  0  0  0  0  0  0  0  0  0  0  0
   -7.4012   -5.0818  -23.7103 N   0  0  0  0  0  0  0  0  0  0  0  0
   -6.9035   -5.8017  -24.7622 C   0  0  0  0  0  0  0  0  0  0  0  0
   -7.3538   -5.4380  -26.4061 S   0  0  0  0  0  0  0  0  0  0  0  0
   -6.2238   -6.6508  -26.9190 C   0  0  0  0  0  0  0  0  0  0  0  0
   -5.5874   -7.2635  -25.9788 N   0  0  0  0  0  0  0  0  0  0  0  0
   -6.0077   -6.8355  -24.7331 C   0  0  0  0  0  0  0  0  0  0  0  0
   -5.4773   -7.5029  -23.4969 C   0  0  0  0  0  0  0  0  0  0  0  0
   -4.9373   -8.4102  -23.7823 H   0  0  0  0  0  0  0  0  0  0  0  0
   -6.2819   -7.7923  -22.8069 H   0  0  0  0  0  0  0  0  0  0  0  0
   -4.7831   -6.8482  -22.9537 H   0  0  0  0  0  0  0  0  0  0  0  0
   -6.0992   -6.8650  -27.9717 H   0  0  0  0  0  0  0  0  0  0  0  0
   -6.9919   -5.2629  -22.8070 H   0  0  0  0  0  0  0  0  0  0  0  0
   -7.5379   -3.2117  -24.6167 H   0  0  0  0  0  0  0  0  0  0  0  0
   -9.0813   -4.0266  -24.3582 H   0  0  0  0  0  0  0  0  0  0  0  0
   -8.6798   -3.7905  -21.8509 H   0  0  0  0  0  0  0  0  0  0  0  0
   -6.4491   -3.2918  -21.3497 H   0  0  0  0  0  0  0  0  0  0  0  0
   -6.2404   -2.2570  -22.7661 H   0  0  0  0  0  0  0  0  0  0  0  0
  -10.7144   -2.1897  -22.4574 C   0  0  0  0  0  0  0  0  0  0  0  0
  -11.1615   -3.2726  -21.6847 C   0  0  0  0  0  0  0  0  0  0  0  0
  -12.5117   -3.4271  -21.4142 C   0  0  0  0  0  0  0  0  0  0  0  0
  -13.0460   -4.6250  -20.2688 Cl  0  0  0  0  0  0  0  0  0  0  0  0
  -13.4695   -2.5870  -21.9732 C   0  0  0  0  0  0  0  0  0  0  0  0
  -13.0416   -1.5288  -22.7442 C   0  0  0  0  0  0  0  0  0  0  0  0
  -11.6838   -1.3106  -22.9669 C   0  0  0  0  0  0  0  0  0  0  0  0
  -11.3128   -0.0822  -23.7459 C   0  0  0  0  0  0  0  0  0  0  0  0
  -12.1376    0.7738  -24.0396 O   0  0  0  0  0  0  0  0  0  0  0  0
  -13.7488   -0.8360  -23.1814 H   0  0  0  0  0  0  0  0  0  0  0  0
  -14.5206   -2.7798  -21.7909 H   0  0  0  0  0  0  0  0  0  0  0  0
  -10.4705   -3.9777  -21.2350 H   0  0  0  0  0  0  0  0  0  0  0  0
   -8.0793   -0.7326  -24.1024 H   0  0  0  0  0  0  0  0  0  0  0  0
   -9.2955   -1.7989  -24.8449 H   0  0  0  0  0  0  0  0  0  0  0  0
  -10.3454    1.9341  -24.7340 H   0  0  0  0  0  0  0  0  0  0  0  0
   -9.2656    1.0277  -25.7982 H   0  0  0  0  0  0  0  0  0  0  0  0
   -9.4789    2.2543  -22.4546 H   0  0  0  0  0  0  0  0  0  0  0  0
   -7.9732    3.5324  -21.2190 H   0  0  0  0  0  0  0  0  0  0  0  0
   -6.8265    3.5263  -22.5791 H   0  0  0  0  0  0  0  0  0  0  0  0
   -6.9710    2.0829  -21.5518 H   0  0  0  0  0  0  0  0  0  0  0  0
  1  2  1  0
  2  3  1  0
  3  4  2  0
  3  5  1  0
  5  6  1  0
  6  7  1  0
  8  7  1  6
  8  9  1  0
  9 10  2  0
  9 11  1  0
 11 12  1  0
 12 13  2  0
 13 14  1  0
 14 15  2  0
 15 16  1  0
 16 17  2  0
 17 18  1  0
 18 19  2  0
 19 20  1  0
 20 21  2  0
 20 22  1  0
 19 23  1  0
 18 24  1  0
 17 25  1  0
 15 26  1  0
 13 27  1  0
 11 28  1  0
 28 29  1  0
 29 30  1  0
 30 31  1  0
 31 32  1  0
 32 33  1  0
 33 34  1  0
 34 35  2  0
 35 36  1  0
 36 37  1  0
 37 38  1  0
 37 39  1  0
 37 40  1  0
 34 41  1  0
 31 42  1  0
 30 43  1  0
 30 44  1  0
 29 45  1  1
 28 46  1  0
 28 47  1  0
  8 48  1  0
 48 49  2  0
 49 50  1  0
 50 51  1  0
 50 52  2  0
 52 53  1  0
 53 54  2  0
 54 55  1  0
 55 56  2  0
 53 57  1  0
 52 58  1  0
 49 59  1  0
  7 60  1  0
  7 61  1  0
  5 62  1  0
  5 63  1  0
  2 64  1  0
  1 65  1  0
  1 66  1  0
  1 67  1  0
 55  6  1  0
 29  8  1  0
 36 32  2  0
 54 48  1  0
 21 12  1  0
 21 16  1  0
M  END
>  <cnnaffinities>  (41) 
[7.07257, 6.96422]

>  <score>  (41) 
7.07257

>  <index>  (41) 
43

>  <Smiles>  (41) 
C(N(C(=O)C(N1C([C@@]2(C(=O)N(c3c(nc(c4c(c(c(c(c34)[H])[H])[H])[H])[H])[H])C([C@@]2(C(N(c2sc(nc2C([H])([H])[H])[H])[H])([H])[H])[H])([H])[H])c2c(c(Cl)c(c(c2C1=O)[H])[H])[H])([H])[H])([H])[H])[H])([H])([H])[H]

>  <h>  (41) 
<NA>

>  <Training>  (41) 
True

>  <Success>  (41) 
True

>  <enamine_searched>  (41) 
False

>  <enamine_id>  (41) 
nan

$$$$

     RDKit          3D

 60 64  0  0  0  0  0  0  0  0999 V2000
   -7.4358    3.3911  -21.7810 C   0  0  0  0  0  0  0  0  0  0  0  0
   -8.2720    2.8986  -22.8544 N   0  0  0  0  0  0  0  0  0  0  0  0
   -7.7002    2.2207  -23.8715 C   0  0  0  0  0  0  0  0  0  0  0  0
   -6.4838    2.1211  -23.9980 O   0  0  0  0  0  0  0  0  0  0  0  0
   -8.6574    1.6029  -24.8941 C   0  0  0  0  0  0  0  0  0  0  0  0
   -9.3842    0.4529  -24.3929 N   0  0  0  0  0  0  0  0  0  0  0  0
   -8.6737   -0.8026  -24.2279 C   0  0  0  0  0  0  0  0  0  0  0  0
   -9.0612   -1.5166  -22.9077 C   0  0  2  0  0  0  0  0  0  0  0  0
   -8.5131   -0.7276  -21.6892 C   0  0  0  0  0  0  0  0  0  0  0  0
   -8.9568    0.2988  -21.2137 O   0  0  0  0  0  0  0  0  0  0  0  0
   -7.4050   -1.3824  -21.2051 N   0  0  0  0  0  0  0  0  0  0  0  0
   -6.6063   -0.8089  -20.1797 C   0  0  0  0  0  0  0  0  0  0  0  0
   -6.9114   -1.0439  -18.8639 C   0  0  0  0  0  0  0  0  0  0  0  0
   -6.2040   -0.5596  -17.8159 N   0  0  0  0  0  0  0  0  0  0  0  0
   -5.1694    0.2023  -18.0808 C   0  0  0  0  0  0  0  0  0  0  0  0
   -4.7305    0.5249  -19.3976 C   0  0  0  0  0  0  0  0  0  0  0  0
   -3.6012    1.3556  -19.6430 C   0  0  0  0  0  0  0  0  0  0  0  0
   -3.2161    1.6499  -20.9223 C   0  0  0  0  0  0  0  0  0  0  0  0
   -3.9404    1.1258  -22.0161 C   0  0  0  0  0  0  0  0  0  0  0  0
   -5.0354    0.3211  -21.8047 C   0  0  0  0  0  0  0  0  0  0  0  0
   -5.4669    0.0028  -20.4881 C   0  0  0  0  0  0  0  0  0  0  0  0
   -5.5951   -0.0628  -22.6524 H   0  0  0  0  0  0  0  0  0  0  0  0
   -3.6504    1.3744  -23.0311 H   0  0  0  0  0  0  0  0  0  0  0  0
   -2.3659    2.3034  -21.0982 H   0  0  0  0  0  0  0  0  0  0  0  0
   -3.0740    1.7670  -18.7859 H   0  0  0  0  0  0  0  0  0  0  0  0
   -4.6251    0.6091  -17.2288 H   0  0  0  0  0  0  0  0  0  0  0  0
   -7.7655   -1.6660  -18.6082 H   0  0  0  0  0  0  0  0  0  0  0  0
   -7.0714   -2.5980  -21.9200 C   0  0  0  0  0  0  0  0  0  0  0  0
   -8.3311   -2.8888  -22.7578 C   0  0  2  0  0  0  0  0  0  0  0  0
   -7.9806   -3.6562  -24.0300 C   0  0  0  0  0  0  0  0  0  0  0  0
   -9.1479   -3.9444  -24.7568 O   0  0  0  0  0  0  0  0  0  0  0  0
   -8.8659   -4.5840  -25.9783 C   0  0  0  0  0  0  0  0  0  0  0  0
   -8.2711   -3.9446  -26.6499 H   0  0  0  0  0  0  0  0  0  0  0  0
   -8.3099   -5.5206  -25.8230 H   0  0  0  0  0  0  0  0  0  0  0  0
   -9.8202   -4.8114  -26.4559 H   0  0  0  0  0  0  0  0  0  0  0  0
   -7.2814   -3.0660  -24.6464 H   0  0  0  0  0  0  0  0  0  0  0  0
   -7.4621   -4.5967  -23.7761 H   0  0  0  0  0  0  0  0  0  0  0  0
   -9.0063   -3.5212  -22.1830 H   0  0  0  0  0  0  0  0  0  0  0  0
   -6.1906   -2.4463  -22.5659 H   0  0  0  0  0  0  0  0  0  0  0  0
   -6.8289   -3.4073  -21.2203 H   0  0  0  0  0  0  0  0  0  0  0  0
  -10.5783   -1.5597  -22.8386 C   0  0  0  0  0  0  0  0  0  0  0  0
  -11.2140   -2.4420  -21.9569 C   0  0  0  0  0  0  0  0  0  0  0  0
  -12.5926   -2.4573  -21.8644 C   0  0  0  0  0  0  0  0  0  0  0  0
  -13.3682   -3.5540  -20.7597 Cl  0  0  0  0  0  0  0  0  0  0  0  0
  -13.3801   -1.5932  -22.6249 C   0  0  0  0  0  0  0  0  0  0  0  0
  -12.7594   -0.6701  -23.4431 C   0  0  0  0  0  0  0  0  0  0  0  0
  -11.3687   -0.6249  -23.5250 C   0  0  0  0  0  0  0  0  0  0  0  0
  -10.7441    0.5179  -24.2664 C   0  0  0  0  0  0  0  0  0  0  0  0
  -11.4015    1.4635  -24.6856 O   0  0  0  0  0  0  0  0  0  0  0  0
  -13.3201    0.0609  -24.0169 H   0  0  0  0  0  0  0  0  0  0  0  0
  -14.4588   -1.6348  -22.5439 H   0  0  0  0  0  0  0  0  0  0  0  0
  -10.6406   -3.0959  -21.3099 H   0  0  0  0  0  0  0  0  0  0  0  0
   -8.8871   -1.4844  -25.0659 H   0  0  0  0  0  0  0  0  0  0  0  0
   -7.6058   -0.5630  -24.2111 H   0  0  0  0  0  0  0  0  0  0  0  0
   -9.4346    2.3072  -25.2040 H   0  0  0  0  0  0  0  0  0  0  0  0
   -8.0287    1.3321  -25.7500 H   0  0  0  0  0  0  0  0  0  0  0  0
   -9.2665    2.8145  -22.7002 H   0  0  0  0  0  0  0  0  0  0  0  0
   -6.6925    4.1039  -22.1575 H   0  0  0  0  0  0  0  0  0  0  0  0
   -6.9038    2.5607  -21.2872 H   0  0  0  0  0  0  0  0  0  0  0  0
   -8.0852    3.9141  -21.0836 H   0  0  0  0  0  0  0  0  0  0  0  0
  1  2  1  0
  2  3  1  0
  3  4  2  0
  3  5  1  0
  5  6  1  0
  6  7  1  0
  8  7  1  6
  8  9  1  0
  9 10  2  0
  9 11  1  0
 11 12  1  0
 12 13  2  0
 13 14  1  0
 14 15  2  0
 15 16  1  0
 16 17  2  0
 17 18  1  0
 18 19  2  0
 19 20  1  0
 20 21  2  0
 20 22  1  0
 19 23  1  0
 18 24  1  0
 17 25  1  0
 15 26  1  0
 13 27  1  0
 11 28  1  0
 28 29  1  0
 29 30  1  0
 30 31  1  0
 31 32  1  0
 32 33  1  0
 32 34  1  0
 32 35  1  0
 30 36  1  0
 30 37  1  0
 29 38  1  1
 28 39  1  0
 28 40  1  0
  8 41  1  0
 41 42  2  0
 42 43  1  0
 43 44  1  0
 43 45  2  0
 45 46  1  0
 46 47  2  0
 47 48  1  0
 48 49  2  0
 46 50  1  0
 45 51  1  0
 42 52  1  0
  7 53  1  0
  7 54  1  0
  5 55  1  0
  5 56  1  0
  2 57  1  0
  1 58  1  0
  1 59  1  0
  1 60  1  0
 48  6  1  0
 29  8  1  0
 47 41  1  0
 21 12  1  0
 21 16  1  0
M  END
>  <cnnaffinities>  (42) 
[6.08473, 6.15518, 6.31553]

>  <score>  (42) 
6.08473

>  <index>  (42) 
44

>  <Smiles>  (42) 
C(N(C(=O)C(N1C([C@@]2(C(=O)N(c3c(nc(c4c(c(c(c(c34)[H])[H])[H])[H])[H])[H])C([C@@]2(C(OC([H])([H])[H])([H])[H])[H])([H])[H])c2c(c(Cl)c(c(c2C1=O)[H])[H])[H])([H])[H])([H])[H])[H])([H])([H])[H]

>  <h>  (42) 
<NA>

>  <Training>  (42) 
True

>  <Success>  (42) 
True

>  <enamine_searched>  (42) 
False

>  <enamine_id>  (42) 
nan

$$$$

     RDKit          3D

 66 71  0  0  0  0  0  0  0  0999 V2000
   -7.4587    3.3741  -21.7988 C   0  0  0  0  0  0  0  0  0  0  0  0
   -8.3268    2.8830  -22.8505 N   0  0  0  0  0  0  0  0  0  0  0  0
   -7.7703    2.1830  -23.8753 C   0  0  0  0  0  0  0  0  0  0  0  0
   -6.5638    2.0559  -24.0068 O   0  0  0  0  0  0  0  0  0  0  0  0
   -8.7480    1.5747  -24.8755 C   0  0  0  0  0  0  0  0  0  0  0  0
   -9.4391    0.4283  -24.3348 N   0  0  0  0  0  0  0  0  0  0  0  0
   -8.7013   -0.8068  -24.1705 C   0  0  0  0  0  0  0  0  0  0  0  0
   -9.0740   -1.5314  -22.8610 C   0  0  2  0  0  0  0  0  0  0  0  0
   -8.5373   -0.7522  -21.6417 C   0  0  0  0  0  0  0  0  0  0  0  0
   -9.0113    0.2423  -21.1374 O   0  0  0  0  0  0  0  0  0  0  0  0
   -7.3962   -1.3797  -21.2010 N   0  0  0  0  0  0  0  0  0  0  0  0
   -6.5984   -0.8137  -20.1798 C   0  0  0  0  0  0  0  0  0  0  0  0
   -6.9171   -1.0496  -18.8674 C   0  0  0  0  0  0  0  0  0  0  0  0
   -6.2161   -0.5636  -17.8163 N   0  0  0  0  0  0  0  0  0  0  0  0
   -5.1812    0.1988  -18.0807 C   0  0  0  0  0  0  0  0  0  0  0  0
   -4.7387    0.5171  -19.3963 C   0  0  0  0  0  0  0  0  0  0  0  0
   -3.6120    1.3459  -19.6412 C   0  0  0  0  0  0  0  0  0  0  0  0
   -3.2295    1.6471  -20.9199 C   0  0  0  0  0  0  0  0  0  0  0  0
   -3.9550    1.1354  -22.0207 C   0  0  0  0  0  0  0  0  0  0  0  0
   -5.0498    0.3303  -21.8128 C   0  0  0  0  0  0  0  0  0  0  0  0
   -5.4663   -0.0010  -20.4935 C   0  0  0  0  0  0  0  0  0  0  0  0
   -5.6105   -0.0396  -22.6670 H   0  0  0  0  0  0  0  0  0  0  0  0
   -3.6583    1.3881  -23.0347 H   0  0  0  0  0  0  0  0  0  0  0  0
   -2.3722    2.2937  -21.0962 H   0  0  0  0  0  0  0  0  0  0  0  0
   -3.0784    1.7509  -18.7858 H   0  0  0  0  0  0  0  0  0  0  0  0
   -4.6226    0.5987  -17.2335 H   0  0  0  0  0  0  0  0  0  0  0  0
   -7.7843   -1.6640  -18.6262 H   0  0  0  0  0  0  0  0  0  0  0  0
   -7.0484   -2.5743  -21.9358 C   0  0  0  0  0  0  0  0  0  0  0  0
   -8.3189   -2.8903  -22.7349 C   0  0  2  0  0  0  0  0  0  0  0  0
   -8.0165   -3.6671  -24.0334 C   0  0  0  0  0  0  0  0  0  0  0  0
   -7.4459   -5.0462  -23.7831 C   0  0  0  0  0  0  0  0  0  0  0  0
   -6.0717   -5.2984  -23.7656 C   0  0  0  0  0  0  0  0  0  0  0  0
   -5.5878   -6.5737  -23.4875 C   0  0  0  0  0  0  0  0  0  0  0  0
   -6.4706   -7.6139  -23.2135 C   0  0  0  0  0  0  0  0  0  0  0  0
   -7.8411   -7.3768  -23.2342 C   0  0  0  0  0  0  0  0  0  0  0  0
   -8.3165   -6.1041  -23.5252 C   0  0  0  0  0  0  0  0  0  0  0  0
   -9.3833   -5.9083  -23.5781 H   0  0  0  0  0  0  0  0  0  0  0  0
   -8.5397   -8.1843  -23.0329 H   0  0  0  0  0  0  0  0  0  0  0  0
   -6.0894   -8.6063  -22.9877 H   0  0  0  0  0  0  0  0  0  0  0  0
   -4.5176   -6.7632  -23.4918 H   0  0  0  0  0  0  0  0  0  0  0  0
   -5.3709   -4.4944  -23.9836 H   0  0  0  0  0  0  0  0  0  0  0  0
   -8.9442   -3.7619  -24.6148 H   0  0  0  0  0  0  0  0  0  0  0  0
   -7.3174   -3.0851  -24.6468 H   0  0  0  0  0  0  0  0  0  0  0  0
   -8.9502   -3.5327  -22.1185 H   0  0  0  0  0  0  0  0  0  0  0  0
   -6.7746   -3.3877  -21.2564 H   0  0  0  0  0  0  0  0  0  0  0  0
   -6.1952   -2.3953  -22.6068 H   0  0  0  0  0  0  0  0  0  0  0  0
  -10.5851   -1.6093  -22.7862 C   0  0  0  0  0  0  0  0  0  0  0  0
  -11.2087   -2.5354  -21.9451 C   0  0  0  0  0  0  0  0  0  0  0  0
  -12.5888   -2.5638  -21.8531 C   0  0  0  0  0  0  0  0  0  0  0  0
  -13.3321   -3.7004  -20.7596 Cl  0  0  0  0  0  0  0  0  0  0  0  0
  -13.3937   -1.6909  -22.5882 C   0  0  0  0  0  0  0  0  0  0  0  0
  -12.7845   -0.7384  -23.3805 C   0  0  0  0  0  0  0  0  0  0  0  0
  -11.3941   -0.6745  -23.4469 C   0  0  0  0  0  0  0  0  0  0  0  0
  -10.7941    0.4840  -24.1754 C   0  0  0  0  0  0  0  0  0  0  0  0
  -11.4709    1.4267  -24.5677 O   0  0  0  0  0  0  0  0  0  0  0  0
  -13.3572   -0.0081  -23.9448 H   0  0  0  0  0  0  0  0  0  0  0  0
  -14.4721   -1.7550  -22.5020 H   0  0  0  0  0  0  0  0  0  0  0  0
  -10.6249   -3.2230  -21.3421 H   0  0  0  0  0  0  0  0  0  0  0  0
   -7.6345   -0.5655  -24.1863 H   0  0  0  0  0  0  0  0  0  0  0  0
   -8.9227   -1.4757  -25.0103 H   0  0  0  0  0  0  0  0  0  0  0  0
   -8.1601    1.2937  -25.7533 H   0  0  0  0  0  0  0  0  0  0  0  0
   -9.5267    2.2899  -25.1449 H   0  0  0  0  0  0  0  0  0  0  0  0
   -9.2942    2.7188  -22.6162 H   0  0  0  0  0  0  0  0  0  0  0  0
   -8.0181    3.9806  -21.0835 H   0  0  0  0  0  0  0  0  0  0  0  0
   -6.6829    3.9989  -22.2372 H   0  0  0  0  0  0  0  0  0  0  0  0
   -6.9579    2.5462  -21.2818 H   0  0  0  0  0  0  0  0  0  0  0  0
  1  2  1  0
  2  3  1  0
  3  4  2  0
  3  5  1  0
  5  6  1  0
  6  7  1  0
  8  7  1  6
  8  9  1  0
  9 10  2  0
  9 11  1  0
 11 12  1  0
 12 13  2  0
 13 14  1  0
 14 15  2  0
 15 16  1  0
 16 17  2  0
 17 18  1  0
 18 19  2  0
 19 20  1  0
 20 21  2  0
 20 22  1  0
 19 23  1  0
 18 24  1  0
 17 25  1  0
 15 26  1  0
 13 27  1  0
 11 28  1  0
 28 29  1  0
 29 30  1  0
 30 31  1  0
 31 32  2  0
 32 33  1  0
 33 34  2  0
 34 35  1  0
 35 36  2  0
 36 37  1  0
 35 38  1  0
 34 39  1  0
 33 40  1  0
 32 41  1  0
 30 42  1  0
 30 43  1  0
 29 44  1  1
 28 45  1  0
 28 46  1  0
  8 47  1  0
 47 48  2  0
 48 49  1  0
 49 50  1  0
 49 51  2  0
 51 52  1  0
 52 53  2  0
 53 54  1  0
 54 55  2  0
 52 56  1  0
 51 57  1  0
 48 58  1  0
  7 59  1  0
  7 60  1  0
  5 61  1  0
  5 62  1  0
  2 63  1  0
  1 64  1  0
  1 65  1  0
  1 66  1  0
 54  6  1  0
 29  8  1  0
 36 31  1  0
 53 47  1  0
 21 12  1  0
 21 16  1  0
M  END
>  <cnnaffinities>  (43) 
[6.43123, 6.40411]

>  <score>  (43) 
6.43123

>  <index>  (43) 
45

>  <Smiles>  (43) 
C(N(C(=O)C(N1C([C@@]2(C(=O)N(c3c(nc(c4c(c(c(c(c34)[H])[H])[H])[H])[H])[H])C([C@@]2(C(c2c(c(c(c(c2[H])[H])[H])[H])[H])([H])[H])[H])([H])[H])c2c(c(Cl)c(c(c2C1=O)[H])[H])[H])([H])[H])([H])[H])[H])([H])([H])[H]

>  <h>  (43) 
<NA>

>  <Training>  (43) 
True

>  <Success>  (43) 
True

>  <enamine_searched>  (43) 
False

>  <enamine_id>  (43) 
nan

$$$$

     RDKit          3D

 50 54  0  0  0  0  0  0  0  0999 V2000
  -10.5370   -2.5709  -22.6787 C   0  0  0  0  0  0  0  0  0  0  0  0
   -9.1128   -1.9915  -22.6800 C   0  0  1  0  0  0  0  0  0  0  0  0
   -8.7757   -1.3251  -21.3289 C   0  0  0  0  0  0  0  0  0  0  0  0
   -7.3316   -1.4427  -21.2301 N   0  0  0  0  0  0  0  0  0  0  0  0
   -6.5696   -0.8501  -20.1954 C   0  0  0  0  0  0  0  0  0  0  0  0
   -6.8933   -1.0601  -18.8790 C   0  0  0  0  0  0  0  0  0  0  0  0
   -6.2105   -0.5496  -17.8286 N   0  0  0  0  0  0  0  0  0  0  0  0
   -5.1734    0.2076  -18.0882 C   0  0  0  0  0  0  0  0  0  0  0  0
   -4.7282    0.5217  -19.4039 C   0  0  0  0  0  0  0  0  0  0  0  0
   -3.5991    1.3550  -19.6375 C   0  0  0  0  0  0  0  0  0  0  0  0
   -3.2165    1.6612  -20.9138 C   0  0  0  0  0  0  0  0  0  0  0  0
   -3.9476    1.1575  -22.0116 C   0  0  0  0  0  0  0  0  0  0  0  0
   -5.0384    0.3515  -21.8099 C   0  0  0  0  0  0  0  0  0  0  0  0
   -5.4468   -0.0079  -20.4947 C   0  0  0  0  0  0  0  0  0  0  0  0
   -5.5985   -0.0366  -22.6537 H   0  0  0  0  0  0  0  0  0  0  0  0
   -3.6419    1.4089  -23.0243 H   0  0  0  0  0  0  0  0  0  0  0  0
   -2.3621    2.3107  -21.0868 H   0  0  0  0  0  0  0  0  0  0  0  0
   -3.0726    1.7567  -18.7759 H   0  0  0  0  0  0  0  0  0  0  0  0
   -4.6333    0.6104  -17.2333 H   0  0  0  0  0  0  0  0  0  0  0  0
   -7.7450   -1.6830  -18.6073 H   0  0  0  0  0  0  0  0  0  0  0  0
   -6.8093   -2.4284  -22.0406 C   0  0  0  0  0  0  0  0  0  0  0  0
   -5.6528   -2.7914  -22.0124 O   0  0  0  0  0  0  0  0  0  0  0  0
   -7.9397   -2.9846  -22.9546 C   0  0  1  0  0  0  0  0  0  0  0  0
   -8.3193   -4.4130  -22.5043 C   0  0  0  0  0  0  0  0  0  0  0  0
   -7.2908   -5.3739  -22.8130 N   0  0  0  0  0  0  0  0  0  0  0  0
   -6.8492   -6.3426  -21.8330 C   0  0  0  0  0  0  0  0  0  0  0  0
   -5.4600   -6.0569  -21.4544 C   0  0  0  0  0  0  0  0  0  0  0  0
   -4.3565   -5.8195  -21.2353 N   0  0  0  0  0  0  0  0  0  0  0  0
   -6.8859   -7.3530  -22.2555 H   0  0  0  0  0  0  0  0  0  0  0  0
   -7.4929   -6.2853  -20.9497 H   0  0  0  0  0  0  0  0  0  0  0  0
   -6.7638   -5.4678  -24.0732 C   0  0  0  0  0  0  0  0  0  0  0  0
   -6.1661   -6.4690  -24.4409 O   0  0  0  0  0  0  0  0  0  0  0  0
   -6.9363   -4.2450  -24.9215 C   0  0  0  0  0  0  0  0  0  0  0  0
   -6.4992   -4.3064  -26.2417 C   0  0  0  0  0  0  0  0  0  0  0  0
   -6.5027   -3.1750  -27.0291 C   0  0  0  0  0  0  0  0  0  0  0  0
   -6.9274   -1.9832  -26.4592 C   0  0  0  0  0  0  0  0  0  0  0  0
   -6.8836   -0.8671  -27.2031 F   0  0  0  0  0  0  0  0  0  0  0  0
   -7.3877   -1.8963  -25.1655 C   0  0  0  0  0  0  0  0  0  0  0  0
   -7.4497   -3.0555  -24.3848 C   0  0  0  0  0  0  0  0  0  0  0  0
   -7.6673   -0.9173  -24.7906 H   0  0  0  0  0  0  0  0  0  0  0  0
   -6.1711   -3.1825  -28.0583 H   0  0  0  0  0  0  0  0  0  0  0  0
   -6.1449   -5.2633  -26.6075 H   0  0  0  0  0  0  0  0  0  0  0  0
   -8.4363   -4.3776  -21.4236 H   0  0  0  0  0  0  0  0  0  0  0  0
   -9.2689   -4.7130  -22.9820 H   0  0  0  0  0  0  0  0  0  0  0  0
   -9.0709   -0.2696  -21.2913 H   0  0  0  0  0  0  0  0  0  0  0  0
   -9.2859   -1.8545  -20.5095 H   0  0  0  0  0  0  0  0  0  0  0  0
   -9.0470   -1.2280  -23.4591 H   0  0  0  0  0  0  0  0  0  0  0  0
  -11.2874   -1.7794  -22.5471 H   0  0  0  0  0  0  0  0  0  0  0  0
  -10.7692   -3.0975  -23.6126 H   0  0  0  0  0  0  0  0  0  0  0  0
  -10.6772   -3.2876  -21.8567 H   0  0  0  0  0  0  0  0  0  0  0  0
  1  2  1  0
  2  3  1  0
  3  4  1  0
  4  5  1  0
  5  6  2  0
  6  7  1  0
  7  8  2  0
  8  9  1  0
  9 10  2  0
 10 11  1  0
 11 12  2  0
 12 13  1  0
 13 14  2  0
 13 15  1  0
 12 16  1  0
 11 17  1  0
 10 18  1  0
  8 19  1  0
  6 20  1  0
  4 21  1  0
 21 22  2  0
 21 23  1  0
 23 24  1  1
 24 25  1  0
 25 26  1  0
 26 27  1  0
 27 28  3  0
 26 29  1  0
 26 30  1  0
 25 31  1  0
 31 32  2  0
 31 33  1  0
 33 34  2  0
 34 35  1  0
 35 36  2  0
 36 37  1  0
 36 38  1  0
 38 39  2  0
 38 40  1  0
 35 41  1  0
 34 42  1  0
 24 43  1  0
 24 44  1  0
  3 45  1  0
  3 46  1  0
  2 47  1  6
  1 48  1  0
  1 49  1  0
  1 50  1  0
 23  2  1  0
 39 33  1  0
 14  5  1  0
 39 23  1  0
 14  9  1  0
M  END
>  <cnnaffinities>  (44) 
[5.38926, 5.75687, 5.85662]

>  <score>  (44) 
5.38926

>  <index>  (44) 
46

>  <Smiles>  (44) 
C([C@]1(C(N(c2c(nc(c3c(c(c(c(c23)[H])[H])[H])[H])[H])[H])C(=O)[C@]21C(N(C(C#N)([H])[H])C(=O)c1c(c(c(F)c(c21)[H])[H])[H])([H])[H])([H])[H])[H])([H])([H])[H]

>  <h>  (44) 
<NA>

>  <Training>  (44) 
True

>  <Success>  (44) 
True

>  <enamine_searched>  (44) 
False

>  <enamine_id>  (44) 
nan

$$$$

     RDKit          3D

 58 63  0  0  0  0  0  0  0  0999 V2000
   -8.5040    0.7138  -21.4038 O   0  0  0  0  0  0  0  0  0  0  0  0
   -8.4553   -0.4140  -21.8504 C   0  0  0  0  0  0  0  0  0  0  0  0
   -7.4452   -1.4287  -21.2633 C   0  0  0  0  0  0  0  0  0  0  0  0
   -6.5783   -0.8299  -20.1816 C   0  0  0  0  0  0  0  0  0  0  0  0
   -6.8770   -1.0394  -18.8632 C   0  0  0  0  0  0  0  0  0  0  0  0
   -6.1889   -0.5424  -17.8007 N   0  0  0  0  0  0  0  0  0  0  0  0
   -5.1572    0.2215  -18.0653 C   0  0  0  0  0  0  0  0  0  0  0  0
   -4.7241    0.5344  -19.3816 C   0  0  0  0  0  0  0  0  0  0  0  0
   -3.5967    1.3636  -19.6238 C   0  0  0  0  0  0  0  0  0  0  0  0
   -3.2123    1.6607  -20.9018 C   0  0  0  0  0  0  0  0  0  0  0  0
   -3.9363    1.1347  -21.9941 C   0  0  0  0  0  0  0  0  0  0  0  0
   -5.0267    0.3268  -21.7876 C   0  0  0  0  0  0  0  0  0  0  0  0
   -5.4543    0.0015  -20.4728 C   0  0  0  0  0  0  0  0  0  0  0  0
   -5.5774   -0.0605  -22.6402 H   0  0  0  0  0  0  0  0  0  0  0  0
   -3.6242    1.3797  -23.0055 H   0  0  0  0  0  0  0  0  0  0  0  0
   -2.3569    2.3078  -21.0856 H   0  0  0  0  0  0  0  0  0  0  0  0
   -3.0589    1.7760  -18.7724 H   0  0  0  0  0  0  0  0  0  0  0  0
   -4.6019    0.6289  -17.2164 H   0  0  0  0  0  0  0  0  0  0  0  0
   -7.7309   -1.6593  -18.5879 H   0  0  0  0  0  0  0  0  0  0  0  0
   -6.8296   -1.8589  -22.0643 H   0  0  0  0  0  0  0  0  0  0  0  0
   -8.0185   -2.2625  -20.8344 H   0  0  0  0  0  0  0  0  0  0  0  0
   -9.3035   -0.8276  -22.8743 N   0  0  0  0  0  0  0  0  0  0  0  0
   -9.2701   -2.1311  -23.5273 C   0  0  0  0  0  0  0  0  0  0  0  0
   -8.5421   -2.1612  -24.8614 C   0  0  0  0  0  0  0  0  0  0  0  0
   -7.4412   -1.3433  -25.1025 C   0  0  0  0  0  0  0  0  0  0  0  0
   -6.7660   -1.4066  -26.3152 C   0  0  0  0  0  0  0  0  0  0  0  0
   -7.1734   -2.2825  -27.3133 C   0  0  0  0  0  0  0  0  0  0  0  0
   -8.2686   -3.1004  -27.0672 C   0  0  0  0  0  0  0  0  0  0  0  0
   -8.7943   -4.2106  -28.3044 Cl  0  0  0  0  0  0  0  0  0  0  0  0
   -8.9508   -3.0525  -25.8554 C   0  0  0  0  0  0  0  0  0  0  0  0
   -9.7991   -3.7159  -25.6991 H   0  0  0  0  0  0  0  0  0  0  0  0
   -6.6520   -2.3322  -28.2647 H   0  0  0  0  0  0  0  0  0  0  0  0
   -5.9101   -0.7615  -26.4852 H   0  0  0  0  0  0  0  0  0  0  0  0
   -7.0950   -0.6504  -24.3385 H   0  0  0  0  0  0  0  0  0  0  0  0
  -10.3027   -2.4524  -23.6866 H   0  0  0  0  0  0  0  0  0  0  0  0
   -8.8316   -2.8623  -22.8428 H   0  0  0  0  0  0  0  0  0  0  0  0
  -10.2371    0.1517  -23.4002 C   0  0  2  0  0  0  0  0  0  0  0  0
  -11.3907    0.6139  -22.4906 C   0  0  0  0  0  0  0  0  0  0  0  0
  -12.0735    1.5932  -23.4139 N   0  0  1  0  0  4  0  0  0  0  0  0
  -12.2536    2.9519  -22.8865 C   0  0  0  0  0  0  0  0  0  0  0  0
  -13.5240    3.2853  -22.1754 C   0  0  0  0  0  0  0  0  0  0  0  0
  -13.2600    3.8368  -23.5484 C   0  0  0  0  0  0  0  0  0  0  0  0
  -13.0462    4.8961  -23.6426 H   0  0  0  0  0  0  0  0  0  0  0  0
  -13.8100    3.3987  -24.3764 H   0  0  0  0  0  0  0  0  0  0  0  0
  -13.4772    3.9703  -21.3355 H   0  0  0  0  0  0  0  0  0  0  0  0
  -14.2398    2.4748  -22.0829 H   0  0  0  0  0  0  0  0  0  0  0  0
  -11.3463    3.4136  -22.5207 H   0  0  0  0  0  0  0  0  0  0  0  0
  -11.1646    1.4907  -24.6097 C   0  0  2  0  0  0  0  0  0  0  0  0
  -11.0155   -0.0310  -24.7276 C   0  0  0  0  0  0  0  0  0  0  0  0
  -10.4052   -0.3314  -25.5732 H   0  0  0  0  0  0  0  0  0  0  0  0
  -11.9461   -0.6099  -24.6718 H   0  0  0  0  0  0  0  0  0  0  0  0
   -9.7705    1.5161  -23.9703 C   0  0  0  0  0  0  0  0  0  0  0  0
   -8.9687    1.4210  -24.6980 H   0  0  0  0  0  0  0  0  0  0  0  0
   -9.5633    2.2921  -23.2280 H   0  0  0  0  0  0  0  0  0  0  0  0
  -11.4546    2.1266  -25.4386 H   0  0  0  0  0  0  0  0  0  0  0  0
  -13.0164    1.2464  -23.6602 H   0  0  0  0  0  0  0  0  0  0  0  0
  -11.0325    1.1606  -21.6253 H   0  0  0  0  0  0  0  0  0  0  0  0
  -12.0817   -0.1798  -22.2007 H   0  0  0  0  0  0  0  0  0  0  0  0
  1  2  2  0
  2  3  1  0
  3  4  1  0
  4  5  2  0
  5  6  1  0
  6  7  2  0
  7  8  1  0
  8  9  2  0
  9 10  1  0
 10 11  2  0
 11 12  1  0
 12 13  2  0
 12 14  1  0
 11 15  1  0
 10 16  1  0
  9 17  1  0
  7 18  1  0
  5 19  1  0
  3 20  1  0
  3 21  1  0
  2 22  1  0
 22 23  1  0
 23 24  1  0
 24 25  2  0
 25 26  1  0
 26 27  2  0
 27 28  1  0
 28 29  1  0
 28 30  2  0
 30 31  1  0
 27 32  1  0
 26 33  1  0
 25 34  1  0
 23 35  1  0
 23 36  1  0
 37 22  1  1
 37 38  1  0
 38 39  1  0
 39 40  1  0
 40 41  1  0
 41 42  1  0
 42 43  1  0
 42 44  1  0
 41 45  1  0
 41 46  1  0
 40 47  1  0
 39 48  1  0
 48 49  1  0
 49 50  1  0
 49 51  1  0
 48 52  1  0
 52 53  1  0
 52 54  1  0
 48 55  1  6
 39 56  1  6
 38 57  1  0
 38 58  1  0
 13  4  1  0
 30 24  1  0
 49 37  1  0
 13  8  1  0
 52 37  1  0
 42 40  1  0
M  CHG  1  39   1
M  END
>  <cnnaffinities>  (45) 
[5.61653]

>  <score>  (45) 
5.61653

>  <index>  (45) 
47

>  <Smiles>  (45) 
O=C(C(c1c(nc(c2c(c(c(c(c12)[H])[H])[H])[H])[H])[H])([H])[H])N(C(c1c(c(c(c(Cl)c1[H])[H])[H])[H])([H])[H])[C@]12C([N@@+](C3(C(C3([H])[H])([H])[H])[H])([C@](C1([H])[H])(C2([H])[H])[H])[H])([H])[H]

>  <h>  (45) 
<NA>

>  <Training>  (45) 
True

>  <Success>  (45) 
True

>  <enamine_searched>  (45) 
False

>  <enamine_id>  (45) 
nan

$$$$

     RDKit          3D

 46 48  0  0  0  0  0  0  0  0999 V2000
  -10.5017   -6.2326  -26.2184 C   0  0  0  0  0  0  0  0  0  0  0  0
   -9.2390   -6.4009  -25.3733 C   0  0  0  0  0  0  0  0  0  0  0  0
   -8.0527   -6.5403  -26.3267 C   0  0  0  0  0  0  0  0  0  0  0  0
   -7.9416   -5.6288  -26.9298 H   0  0  0  0  0  0  0  0  0  0  0  0
   -8.2514   -7.3665  -27.0265 H   0  0  0  0  0  0  0  0  0  0  0  0
   -7.1107   -6.7563  -25.8081 H   0  0  0  0  0  0  0  0  0  0  0  0
   -9.0786   -5.3516  -24.2431 C   0  0  0  0  0  0  0  0  0  0  0  0
   -7.9985   -5.7663  -23.2189 C   0  0  0  0  0  0  0  0  0  0  0  0
   -6.8370   -4.7888  -23.1214 C   0  0  0  0  0  0  0  0  0  0  0  0
   -7.3633   -3.4833  -22.7377 N   0  0  0  0  0  0  0  0  0  0  0  0
   -6.6776   -2.7546  -21.8158 C   0  0  0  0  0  0  0  0  0  0  0  0
   -5.5704   -3.0857  -21.4151 O   0  0  0  0  0  0  0  0  0  0  0  0
   -7.3775   -1.4962  -21.2867 C   0  0  0  0  0  0  0  0  0  0  0  0
   -6.5930   -0.8493  -20.1960 C   0  0  0  0  0  0  0  0  0  0  0  0
   -6.9067   -1.0787  -18.8845 C   0  0  0  0  0  0  0  0  0  0  0  0
   -6.2296   -0.5825  -17.8187 N   0  0  0  0  0  0  0  0  0  0  0  0
   -5.1940    0.1800  -18.0815 C   0  0  0  0  0  0  0  0  0  0  0  0
   -4.7370    0.4816  -19.3937 C   0  0  0  0  0  0  0  0  0  0  0  0
   -3.6082    1.3065  -19.6290 C   0  0  0  0  0  0  0  0  0  0  0  0
   -3.2097    1.5918  -20.9063 C   0  0  0  0  0  0  0  0  0  0  0  0
   -3.9130    1.0541  -22.0051 C   0  0  0  0  0  0  0  0  0  0  0  0
   -5.0047    0.2466  -21.8071 C   0  0  0  0  0  0  0  0  0  0  0  0
   -5.4534   -0.0502  -20.4892 C   0  0  0  0  0  0  0  0  0  0  0  0
   -5.5256   -0.1711  -22.6626 H   0  0  0  0  0  0  0  0  0  0  0  0
   -3.5926    1.2967  -23.0161 H   0  0  0  0  0  0  0  0  0  0  0  0
   -2.3571    2.2431  -21.0814 H   0  0  0  0  0  0  0  0  0  0  0  0
   -3.0852    1.7253  -18.7713 H   0  0  0  0  0  0  0  0  0  0  0  0
   -4.6551    0.5935  -17.2278 H   0  0  0  0  0  0  0  0  0  0  0  0
   -7.7602   -1.7089  -18.6348 H   0  0  0  0  0  0  0  0  0  0  0  0
   -7.5325   -0.7837  -22.1052 H   0  0  0  0  0  0  0  0  0  0  0  0
   -8.3697   -1.7821  -20.9147 H   0  0  0  0  0  0  0  0  0  0  0  0
   -8.6585   -3.0961  -23.2991 C   0  0  0  0  0  0  0  0  0  0  0  0
   -8.9160   -3.8675  -24.5981 C   0  0  0  0  0  0  0  0  0  0  0  0
   -8.0807   -3.7222  -25.2909 H   0  0  0  0  0  0  0  0  0  0  0  0
   -9.8172   -3.4668  -25.0870 H   0  0  0  0  0  0  0  0  0  0  0  0
   -8.6729   -2.0219  -23.5003 H   0  0  0  0  0  0  0  0  0  0  0  0
   -9.4727   -3.2887  -22.5762 H   0  0  0  0  0  0  0  0  0  0  0  0
   -6.1503   -5.1192  -22.3434 H   0  0  0  0  0  0  0  0  0  0  0  0
   -6.2616   -4.7166  -24.0553 H   0  0  0  0  0  0  0  0  0  0  0  0
   -8.4554   -5.7786  -22.2249 H   0  0  0  0  0  0  0  0  0  0  0  0
   -7.6303   -6.7788  -23.4248 H   0  0  0  0  0  0  0  0  0  0  0  0
  -10.0312   -5.3631  -23.7039 H   0  0  0  0  0  0  0  0  0  0  0  0
   -9.3535   -7.3672  -24.8529 H   0  0  0  0  0  0  0  0  0  0  0  0
  -11.4169   -6.1251  -25.6313 H   0  0  0  0  0  0  0  0  0  0  0  0
  -10.4194   -5.3666  -26.8877 H   0  0  0  0  0  0  0  0  0  0  0  0
  -10.6196   -7.1431  -26.8237 H   0  0  0  0  0  0  0  0  0  0  0  0
  1  2  1  0
  2  3  1  0
  3  4  1  0
  3  5  1  0
  3  6  1  0
  2  7  1  0
  7  8  1  0
  8  9  1  0
  9 10  1  0
 10 11  1  0
 11 12  2  0
 11 13  1  0
 13 14  1  0
 14 15  2  0
 15 16  1  0
 16 17  2  0
 17 18  1  0
 18 19  2  0
 19 20  1  0
 20 21  2  0
 21 22  1  0
 22 23  2  0
 22 24  1  0
 21 25  1  0
 20 26  1  0
 19 27  1  0
 17 28  1  0
 15 29  1  0
 13 30  1  0
 13 31  1  0
 10 32  1  0
 32 33  1  0
 33 34  1  0
 33 35  1  0
 32 36  1  0
 32 37  1  0
  9 38  1  0
  9 39  1  0
  8 40  1  0
  8 41  1  0
  7 42  1  0
  2 43  1  0
  1 44  1  0
  1 45  1  0
  1 46  1  0
 33  7  1  0
 23 14  1  0
 23 18  1  0
M  END
>  <cnnaffinities>  (46) 
[4.53689, 4.53706, 4.53736, 4.54329, 4.68387, 4.68379, 4.68377, 4.7637, 4.63907, 4.63911, 4.90128, 4.91106, 4.92257, 4.91658, 4.70185, 4.7019, 4.82385, 4.70215, 4.82796, 4.82886]

>  <score>  (46) 
4.53689

>  <index>  (46) 
48

>  <Smiles>  (46) 
C(C(C([H])([H])[H])(C1(C(C(N(C(=O)C(c2c(nc(c3c(c(c(c(c23)[H])[H])[H])[H])[H])[H])([H])[H])C(C1([H])[H])([H])[H])([H])[H])([H])[H])[H])[H])([H])([H])[H]

>  <h>  (46) 
<NA>

>  <Training>  (46) 
True

>  <Success>  (46) 
True

>  <enamine_searched>  (46) 
False

>  <enamine_id>  (46) 
nan

$$$$

     RDKit          3D

 67 72  0  0  0  0  0  0  0  0999 V2000
   -7.4288    3.3871  -21.8190 C   0  0  0  0  0  0  0  0  0  0  0  0
   -8.2623    2.8941  -22.8913 N   0  0  0  0  0  0  0  0  0  0  0  0
   -7.6926    2.2003  -23.9032 C   0  0  0  0  0  0  0  0  0  0  0  0
   -6.4815    2.0881  -24.0185 O   0  0  0  0  0  0  0  0  0  0  0  0
   -8.6466    1.5807  -24.9169 C   0  0  0  0  0  0  0  0  0  0  0  0
   -9.3586    0.4400  -24.3902 N   0  0  0  0  0  0  0  0  0  0  0  0
   -8.6403   -0.8062  -24.2193 C   0  0  0  0  0  0  0  0  0  0  0  0
   -9.0309   -1.5238  -22.9094 C   0  0  2  0  0  0  0  0  0  0  0  0
   -8.4977   -0.7430  -21.6876 C   0  0  0  0  0  0  0  0  0  0  0  0
   -8.9543    0.2714  -21.2025 O   0  0  0  0  0  0  0  0  0  0  0  0
   -7.3832   -1.3924  -21.2126 N   0  0  0  0  0  0  0  0  0  0  0  0
   -6.5944   -0.8202  -20.1855 C   0  0  0  0  0  0  0  0  0  0  0  0
   -6.9156   -1.0522  -18.8742 C   0  0  0  0  0  0  0  0  0  0  0  0
   -6.2166   -0.5638  -17.8214 N   0  0  0  0  0  0  0  0  0  0  0  0
   -5.1822    0.1989  -18.0833 C   0  0  0  0  0  0  0  0  0  0  0  0
   -4.7365    0.5175  -19.3979 C   0  0  0  0  0  0  0  0  0  0  0  0
   -3.6077    1.3463  -19.6422 C   0  0  0  0  0  0  0  0  0  0  0  0
   -3.2214    1.6450  -20.9192 C   0  0  0  0  0  0  0  0  0  0  0  0
   -3.9468    1.1322  -22.0202 C   0  0  0  0  0  0  0  0  0  0  0  0
   -5.0431    0.3307  -21.8126 C   0  0  0  0  0  0  0  0  0  0  0  0
   -5.4649   -0.0012  -20.4957 C   0  0  0  0  0  0  0  0  0  0  0  0
   -5.6049   -0.0408  -22.6656 H   0  0  0  0  0  0  0  0  0  0  0  0
   -3.6512    1.3838  -23.0346 H   0  0  0  0  0  0  0  0  0  0  0  0
   -2.3645    2.2922  -21.0941 H   0  0  0  0  0  0  0  0  0  0  0  0
   -3.0769    1.7523  -18.7838 H   0  0  0  0  0  0  0  0  0  0  0  0
   -4.6268    0.6001  -17.2327 H   0  0  0  0  0  0  0  0  0  0  0  0
   -7.7803   -1.6666  -18.6274 H   0  0  0  0  0  0  0  0  0  0  0  0
   -7.0381   -2.5966  -21.9312 C   0  0  0  0  0  0  0  0  0  0  0  0
   -8.2965   -2.8898  -22.7583 C   0  0  2  0  0  0  0  0  0  0  0  0
   -7.9713   -3.6783  -24.0346 C   0  0  0  0  0  0  0  0  0  0  0  0
   -7.4512   -4.9952  -23.7461 N   0  0  0  0  0  0  0  0  0  0  0  0
   -6.1214   -5.3069  -23.6458 C   0  0  0  0  0  0  0  0  0  0  0  0
   -5.0251   -4.5794  -24.0003 C   0  0  0  0  0  0  0  0  0  0  0  0
   -3.8013   -5.1717  -23.7879 N   0  0  0  0  0  0  0  0  0  0  0  0
   -3.9424   -6.3630  -23.3017 C   0  0  0  0  0  0  0  0  0  0  0  0
   -2.8099   -7.2887  -22.9863 C   0  0  0  0  0  0  0  0  0  0  0  0
   -3.0233   -7.9214  -22.1182 H   0  0  0  0  0  0  0  0  0  0  0  0
   -2.5975   -7.9461  -23.8408 H   0  0  0  0  0  0  0  0  0  0  0  0
   -1.9174   -6.6876  -22.7965 H   0  0  0  0  0  0  0  0  0  0  0  0
   -5.6012   -6.8543  -23.0306 S   0  0  0  0  0  0  0  0  0  0  0  0
   -5.0472   -3.5928  -24.4467 H   0  0  0  0  0  0  0  0  0  0  0  0
   -8.1061   -5.7264  -23.5354 H   0  0  0  0  0  0  0  0  0  0  0  0
   -8.8632   -3.7841  -24.6632 H   0  0  0  0  0  0  0  0  0  0  0  0
   -7.2263   -3.1362  -24.6204 H   0  0  0  0  0  0  0  0  0  0  0  0
   -8.9549   -3.5210  -22.1619 H   0  0  0  0  0  0  0  0  0  0  0  0
   -6.1637   -2.4420  -22.5803 H   0  0  0  0  0  0  0  0  0  0  0  0
   -6.7876   -3.4143  -21.2502 H   0  0  0  0  0  0  0  0  0  0  0  0
  -10.5456   -1.5752  -22.8455 C   0  0  0  0  0  0  0  0  0  0  0  0
  -11.1902   -2.4700  -21.9866 C   0  0  0  0  0  0  0  0  0  0  0  0
  -12.5710   -2.4863  -21.9116 C   0  0  0  0  0  0  0  0  0  0  0  0
  -13.3413   -3.5979  -20.8136 Cl  0  0  0  0  0  0  0  0  0  0  0  0
  -13.3581   -1.6182  -22.6719 C   0  0  0  0  0  0  0  0  0  0  0  0
  -12.7293   -0.6860  -23.4738 C   0  0  0  0  0  0  0  0  0  0  0  0
  -11.3375   -0.6389  -23.5273 C   0  0  0  0  0  0  0  0  0  0  0  0
  -10.7142    0.5091  -24.2530 C   0  0  0  0  0  0  0  0  0  0  0  0
  -11.3758    1.4616  -24.6570 O   0  0  0  0  0  0  0  0  0  0  0  0
  -13.2867    0.0451  -24.0544 H   0  0  0  0  0  0  0  0  0  0  0  0
  -14.4383   -1.6669  -22.5934 H   0  0  0  0  0  0  0  0  0  0  0  0
  -10.6222   -3.1412  -21.3517 H   0  0  0  0  0  0  0  0  0  0  0  0
   -7.5729   -0.5710  -24.2181 H   0  0  0  0  0  0  0  0  0  0  0  0
   -8.8575   -1.4727  -25.0629 H   0  0  0  0  0  0  0  0  0  0  0  0
   -9.4238    2.2880  -25.2095 H   0  0  0  0  0  0  0  0  0  0  0  0
   -8.0349    1.2963  -25.7776 H   0  0  0  0  0  0  0  0  0  0  0  0
   -9.2386    2.7519  -22.6987 H   0  0  0  0  0  0  0  0  0  0  0  0
   -6.9121    2.5660  -21.3144 H   0  0  0  0  0  0  0  0  0  0  0  0
   -6.6714    4.0585  -22.2152 H   0  0  0  0  0  0  0  0  0  0  0  0
   -8.0327    3.9467  -21.1090 H   0  0  0  0  0  0  0  0  0  0  0  0
  1  2  1  0
  2  3  1  0
  3  4  2  0
  3  5  1  0
  5  6  1  0
  6  7  1  0
  8  7  1  6
  8  9  1  0
  9 10  2  0
  9 11  1  0
 11 12  1  0
 12 13  2  0
 13 14  1  0
 14 15  2  0
 15 16  1  0
 16 17  2  0
 17 18  1  0
 18 19  2  0
 19 20  1  0
 20 21  2  0
 20 22  1  0
 19 23  1  0
 18 24  1  0
 17 25  1  0
 15 26  1  0
 13 27  1  0
 11 28  1  0
 28 29  1  0
 29 30  1  0
 30 31  1  0
 31 32  1  0
 32 33  2  0
 33 34  1  0
 34 35  2  0
 35 36  1  0
 36 37  1  0
 36 38  1  0
 36 39  1  0
 35 40  1  0
 33 41  1  0
 31 42  1  0
 30 43  1  0
 30 44  1  0
 29 45  1  1
 28 46  1  0
 28 47  1  0
  8 48  1  0
 48 49  2  0
 49 50  1  0
 50 51  1  0
 50 52  2  0
 52 53  1  0
 53 54  2  0
 54 55  1  0
 55 56  2  0
 53 57  1  0
 52 58  1  0
 49 59  1  0
  7 60  1  0
  7 61  1  0
  5 62  1  0
  5 63  1  0
  2 64  1  0
  1 65  1  0
  1 66  1  0
  1 67  1  0
 55  6  1  0
 29  8  1  0
 40 32  1  0
 54 48  1  0
 21 12  1  0
 21 16  1  0
M  END
>  <cnnaffinities>  (47) 
[6.95139]

>  <score>  (47) 
6.95139

>  <index>  (47) 
49

>  <Smiles>  (47) 
C(N(C(=O)C(N1C([C@@]2(C(=O)N(c3c(nc(c4c(c(c(c(c34)[H])[H])[H])[H])[H])[H])C([C@@]2(C(N(c2c(nc(C([H])([H])[H])s2)[H])[H])([H])[H])[H])([H])[H])c2c(c(Cl)c(c(c2C1=O)[H])[H])[H])([H])[H])([H])[H])[H])([H])([H])[H]

>  <h>  (47) 
<NA>

>  <Training>  (47) 
True

>  <Success>  (47) 
True

>  <enamine_searched>  (47) 
False

>  <enamine_id>  (47) 
nan

$$$$

     RDKit          3D

 66 70  0  0  0  0  0  0  0  0999 V2000
   -7.6968    2.6343  -21.7720 C   0  0  0  0  0  0  0  0  0  0  0  0
   -8.7496    2.3719  -22.7365 N   0  0  0  0  0  0  0  0  0  0  0  0
   -8.4656    1.6726  -23.8642 C   0  0  0  0  0  0  0  0  0  0  0  0
   -7.3237    1.4326  -24.2304 O   0  0  0  0  0  0  0  0  0  0  0  0
   -9.6926    1.1266  -24.6041 C   0  0  0  0  0  0  0  0  0  0  0  0
  -10.1481   -0.0769  -23.9253 N   0  0  0  0  0  0  0  0  0  0  0  0
   -9.2564   -1.2262  -23.9000 C   0  0  0  0  0  0  0  0  0  0  0  0
   -9.3063   -1.9527  -22.5306 C   0  0  2  0  0  0  0  0  0  0  0  0
   -8.7072   -1.0167  -21.4438 C   0  0  0  0  0  0  0  0  0  0  0  0
   -9.2442   -0.0573  -20.9219 O   0  0  0  0  0  0  0  0  0  0  0  0
   -7.4130   -1.4223  -21.1894 N   0  0  0  0  0  0  0  0  0  0  0  0
   -6.6218   -0.8318  -20.1749 C   0  0  0  0  0  0  0  0  0  0  0  0
   -6.9391   -1.0456  -18.8552 C   0  0  0  0  0  0  0  0  0  0  0  0
   -6.2273   -0.5617  -17.8131 N   0  0  0  0  0  0  0  0  0  0  0  0
   -5.1831    0.1822  -18.0889 C   0  0  0  0  0  0  0  0  0  0  0  0
   -4.7426    0.4856  -19.4081 C   0  0  0  0  0  0  0  0  0  0  0  0
   -3.6211    1.3232  -19.6481 C   0  0  0  0  0  0  0  0  0  0  0  0
   -3.2444    1.6308  -20.9276 C   0  0  0  0  0  0  0  0  0  0  0  0
   -3.9682    1.1167  -22.0226 C   0  0  0  0  0  0  0  0  0  0  0  0
   -5.0579    0.2964  -21.8159 C   0  0  0  0  0  0  0  0  0  0  0  0
   -5.4743   -0.0427  -20.4974 C   0  0  0  0  0  0  0  0  0  0  0  0
   -5.6578   -0.0080  -22.6683 H   0  0  0  0  0  0  0  0  0  0  0  0
   -3.6847    1.3914  -23.0340 H   0  0  0  0  0  0  0  0  0  0  0  0
   -2.4007    2.2933  -21.1031 H   0  0  0  0  0  0  0  0  0  0  0  0
   -3.0947    1.7333  -18.7909 H   0  0  0  0  0  0  0  0  0  0  0  0
   -4.6293    0.5909  -17.2442 H   0  0  0  0  0  0  0  0  0  0  0  0
   -7.7998   -1.6604  -18.6036 H   0  0  0  0  0  0  0  0  0  0  0  0
   -6.9822   -2.5530  -21.9869 C   0  0  0  0  0  0  0  0  0  0  0  0
   -8.3196   -3.1474  -22.4577 C   0  0  2  0  0  0  0  0  0  0  0  0
   -8.2060   -3.9973  -23.7191 C   0  0  0  0  0  0  0  0  0  0  0  0
   -7.4383   -5.1492  -23.4620 O   0  0  0  0  0  0  0  0  0  0  0  0
   -6.1611   -5.2185  -24.0842 C   0  0  0  0  0  0  0  0  0  0  0  0
   -6.2685   -5.7341  -25.5151 C   0  0  0  0  0  0  0  0  0  0  0  0
   -6.8761   -5.0729  -26.1417 H   0  0  0  0  0  0  0  0  0  0  0  0
   -5.2737   -5.8105  -25.9674 H   0  0  0  0  0  0  0  0  0  0  0  0
   -6.7287   -6.7268  -25.5219 H   0  0  0  0  0  0  0  0  0  0  0  0
   -5.3306   -6.1343  -23.2027 C   0  0  0  0  0  0  0  0  0  0  0  0
   -5.7802   -7.1331  -23.1868 H   0  0  0  0  0  0  0  0  0  0  0  0
   -5.3165   -5.7463  -22.1792 H   0  0  0  0  0  0  0  0  0  0  0  0
   -4.2999   -6.2174  -23.5653 H   0  0  0  0  0  0  0  0  0  0  0  0
   -5.7068   -4.2132  -24.1025 H   0  0  0  0  0  0  0  0  0  0  0  0
   -7.7633   -3.3947  -24.5307 H   0  0  0  0  0  0  0  0  0  0  0  0
   -9.2113   -4.3097  -24.0403 H   0  0  0  0  0  0  0  0  0  0  0  0
   -8.6479   -3.8045  -21.6491 H   0  0  0  0  0  0  0  0  0  0  0  0
   -6.3506   -2.2404  -22.8353 H   0  0  0  0  0  0  0  0  0  0  0  0
   -6.3977   -3.2567  -21.3843 H   0  0  0  0  0  0  0  0  0  0  0  0
  -10.7678   -2.2890  -22.2856 C   0  0  0  0  0  0  0  0  0  0  0  0
  -11.1777   -3.4445  -21.6086 C   0  0  0  0  0  0  0  0  0  0  0  0
  -12.5089   -3.6077  -21.2816 C   0  0  0  0  0  0  0  0  0  0  0  0
  -12.8745   -4.6446  -20.5118 F   0  0  0  0  0  0  0  0  0  0  0  0
  -13.4971   -2.7191  -21.6711 C   0  0  0  0  0  0  0  0  0  0  0  0
  -13.1082   -1.5973  -22.3706 C   0  0  0  0  0  0  0  0  0  0  0  0
  -11.7649   -1.3793  -22.6761 C   0  0  0  0  0  0  0  0  0  0  0  0
  -11.4257   -0.1400  -23.4483 C   0  0  0  0  0  0  0  0  0  0  0  0
  -12.2475    0.7502  -23.6391 O   0  0  0  0  0  0  0  0  0  0  0  0
  -13.8350   -0.8747  -22.7188 H   0  0  0  0  0  0  0  0  0  0  0  0
  -14.5294   -2.9357  -21.4239 H   0  0  0  0  0  0  0  0  0  0  0  0
  -10.4884   -4.2092  -21.2771 H   0  0  0  0  0  0  0  0  0  0  0  0
   -9.5377   -1.9302  -24.6978 H   0  0  0  0  0  0  0  0  0  0  0  0
   -8.2458   -0.8609  -24.1002 H   0  0  0  0  0  0  0  0  0  0  0  0
  -10.5274    1.8318  -24.5913 H   0  0  0  0  0  0  0  0  0  0  0  0
   -9.4282    0.9078  -25.6478 H   0  0  0  0  0  0  0  0  0  0  0  0
   -9.6678    2.2345  -22.3426 H   0  0  0  0  0  0  0  0  0  0  0  0
   -6.9429    1.8527  -21.8355 H   0  0  0  0  0  0  0  0  0  0  0  0
   -8.1380    2.5543  -20.7827 H   0  0  0  0  0  0  0  0  0  0  0  0
   -7.2294    3.6149  -21.9224 H   0  0  0  0  0  0  0  0  0  0  0  0
  1  2  1  0
  2  3  1  0
  3  4  2  0
  3  5  1  0
  5  6  1  0
  6  7  1  0
  8  7  1  6
  8  9  1  0
  9 10  2  0
  9 11  1  0
 11 12  1  0
 12 13  2  0
 13 14  1  0
 14 15  2  0
 15 16  1  0
 16 17  2  0
 17 18  1  0
 18 19  2  0
 19 20  1  0
 20 21  2  0
 20 22  1  0
 19 23  1  0
 18 24  1  0
 17 25  1  0
 15 26  1  0
 13 27  1  0
 11 28  1  0
 28 29  1  0
 29 30  1  0
 30 31  1  0
 31 32  1  0
 32 33  1  0
 33 34  1  0
 33 35  1  0
 33 36  1  0
 32 37  1  0
 37 38  1  0
 37 39  1  0
 37 40  1  0
 32 41  1  0
 30 42  1  0
 30 43  1  0
 29 44  1  1
 28 45  1  0
 28 46  1  0
  8 47  1  0
 47 48  2  0
 48 49  1  0
 49 50  1  0
 49 51  2  0
 51 52  1  0
 52 53  2  0
 53 54  1  0
 54 55  2  0
 52 56  1  0
 51 57  1  0
 48 58  1  0
  7 59  1  0
  7 60  1  0
  5 61  1  0
  5 62  1  0
  2 63  1  0
  1 64  1  0
  1 65  1  0
  1 66  1  0
 54  6  1  0
 29  8  1  0
 53 47  1  0
 21 12  1  0
 21 16  1  0
M  END
>  <cnnaffinities>  (48) 
[6.88273, 6.10003, 6.31744, 6.45813, 5.97867, 6.42099, 5.98564]

>  <score>  (48) 
6.88273

>  <index>  (48) 
50

>  <Smiles>  (48) 
C(N(C(=O)C(N1C([C@@]2(C(=O)N(c3c(nc(c4c(c(c(c(c34)[H])[H])[H])[H])[H])[H])C([C@@]2(C(OC(C([H])([H])[H])(C([H])([H])[H])[H])([H])[H])[H])([H])[H])c2c(c(F)c(c(c2C1=O)[H])[H])[H])([H])[H])([H])[H])[H])([H])([H])[H]

>  <h>  (48) 
<NA>

>  <Training>  (48) 
True

>  <Success>  (48) 
True

>  <enamine_searched>  (48) 
False

>  <enamine_id>  (48) 
nan

$$$$

     RDKit          3D

 50 52  0  0  0  0  0  0  0  0999 V2000
  -11.3000   -0.5040  -25.1105 C   0  0  0  0  0  0  0  0  0  0  0  0
  -10.7276   -0.0957  -23.9773 C   0  0  0  0  0  0  0  0  0  0  0  0
  -10.7090   -0.9692  -22.7394 C   0  0  0  0  0  0  0  0  0  0  0  0
   -9.3597   -1.4846  -22.4867 N   0  0  0  0  0  0  0  0  0  0  0  0
   -8.6489   -0.8843  -21.4703 C   0  0  0  0  0  0  0  0  0  0  0  0
   -9.1387   -0.0038  -20.7616 O   0  0  0  0  0  0  0  0  0  0  0  0
   -7.3748   -1.3335  -21.2700 N   0  0  0  0  0  0  0  0  0  0  0  0
   -6.5921   -0.8179  -20.2132 C   0  0  0  0  0  0  0  0  0  0  0  0
   -6.9313   -1.0526  -18.9062 C   0  0  0  0  0  0  0  0  0  0  0  0
   -6.2348   -0.5793  -17.8491 N   0  0  0  0  0  0  0  0  0  0  0  0
   -5.1967    0.1861  -18.1022 C   0  0  0  0  0  0  0  0  0  0  0  0
   -4.7490    0.5169  -19.4124 C   0  0  0  0  0  0  0  0  0  0  0  0
   -3.6270    1.3493  -19.6544 C   0  0  0  0  0  0  0  0  0  0  0  0
   -3.2511    1.6552  -20.9328 C   0  0  0  0  0  0  0  0  0  0  0  0
   -3.9705    1.1489  -22.0354 C   0  0  0  0  0  0  0  0  0  0  0  0
   -5.0665    0.3426  -21.8323 C   0  0  0  0  0  0  0  0  0  0  0  0
   -5.4660   -0.0011  -20.5135 C   0  0  0  0  0  0  0  0  0  0  0  0
   -5.6330   -0.0294  -22.6836 H   0  0  0  0  0  0  0  0  0  0  0  0
   -3.6598    1.4010  -23.0442 H   0  0  0  0  0  0  0  0  0  0  0  0
   -2.3956    2.3007  -21.1069 H   0  0  0  0  0  0  0  0  0  0  0  0
   -3.0949    1.7487  -18.7970 H   0  0  0  0  0  0  0  0  0  0  0  0
   -4.6499    0.5836  -17.2467 H   0  0  0  0  0  0  0  0  0  0  0  0
   -7.8017   -1.6660  -18.6759 H   0  0  0  0  0  0  0  0  0  0  0  0
   -6.9545   -1.9492  -21.9521 H   0  0  0  0  0  0  0  0  0  0  0  0
   -8.7448   -2.2101  -23.5606 C   0  0  0  0  0  0  0  0  0  0  0  0
   -9.1947   -3.4958  -23.8486 C   0  0  0  0  0  0  0  0  0  0  0  0
   -8.6035   -4.2313  -24.8706 C   0  0  0  0  0  0  0  0  0  0  0  0
   -7.6019   -3.6747  -25.6584 C   0  0  0  0  0  0  0  0  0  0  0  0
   -7.2217   -2.3599  -25.4210 C   0  0  0  0  0  0  0  0  0  0  0  0
   -5.9778   -1.6482  -26.4188 Cl  0  0  0  0  0  0  0  0  0  0  0  0
   -7.7910   -1.6125  -24.3927 C   0  0  0  0  0  0  0  0  0  0  0  0
   -7.5024   -0.5709  -24.2644 H   0  0  0  0  0  0  0  0  0  0  0  0
   -7.1348   -4.2480  -26.4551 H   0  0  0  0  0  0  0  0  0  0  0  0
   -8.9275   -5.2534  -25.0518 H   0  0  0  0  0  0  0  0  0  0  0  0
   -9.9994   -3.9220  -23.2545 H   0  0  0  0  0  0  0  0  0  0  0  0
  -11.3873   -1.8194  -22.8659 H   0  0  0  0  0  0  0  0  0  0  0  0
  -11.0178   -0.4476  -21.8367 H   0  0  0  0  0  0  0  0  0  0  0  0
   -9.8473    1.1339  -24.0762 C   0  0  0  0  0  0  0  0  0  0  0  0
   -9.5249    1.5681  -25.1762 O   0  0  0  0  0  0  0  0  0  0  0  0
   -9.3790    1.7250  -22.9438 N   0  0  0  0  0  0  0  0  0  0  0  0
   -8.1354    2.4805  -23.0724 C   0  0  0  0  0  0  0  0  0  0  0  0
   -7.5436    2.8369  -21.7157 C   0  0  0  0  0  0  0  0  0  0  0  0
   -7.5758    1.9785  -21.0277 H   0  0  0  0  0  0  0  0  0  0  0  0
   -6.4945    3.1332  -21.8358 H   0  0  0  0  0  0  0  0  0  0  0  0
   -8.0719    3.6897  -21.2758 H   0  0  0  0  0  0  0  0  0  0  0  0
   -7.4090    1.8660  -23.6324 H   0  0  0  0  0  0  0  0  0  0  0  0
   -8.3232    3.3822  -23.6736 H   0  0  0  0  0  0  0  0  0  0  0  0
   -9.5782    1.3329  -22.0273 H   0  0  0  0  0  0  0  0  0  0  0  0
  -11.0700    0.0201  -26.0288 H   0  0  0  0  0  0  0  0  0  0  0  0
  -11.9997   -1.3404  -25.1138 H   0  0  0  0  0  0  0  0  0  0  0  0
  1  2  2  0
  2  3  1  0
  3  4  1  0
  4  5  1  0
  5  6  2  0
  5  7  1  0
  7  8  1  0
  8  9  2  0
  9 10  1  0
 10 11  2  0
 11 12  1  0
 12 13  2  0
 13 14  1  0
 14 15  2  0
 15 16  1  0
 16 17  2  0
 16 18  1  0
 15 19  1  0
 14 20  1  0
 13 21  1  0
 11 22  1  0
  9 23  1  0
  7 24  1  0
  4 25  1  0
 25 26  2  0
 26 27  1  0
 27 28  2  0
 28 29  1  0
 29 30  1  0
 29 31  2  0
 31 32  1  0
 28 33  1  0
 27 34  1  0
 26 35  1  0
  3 36  1  0
  3 37  1  0
  2 38  1  0
 38 39  2  0
 38 40  1  0
 40 41  1  0
 41 42  1  0
 42 43  1  0
 42 44  1  0
 42 45  1  0
 41 46  1  0
 41 47  1  0
 40 48  1  0
  1 49  1  0
  1 50  1  0
 17  8  1  0
 31 25  1  0
 17 12  1  0
M  END
>  <cnnaffinities>  (49) 
[5.85409]

>  <score>  (49) 
5.85409

>  <index>  (49) 
51

>  <Smiles>  (49) 
C(=C(C(N(C(=O)N(c1c(nc(c2c(c(c(c(c12)[H])[H])[H])[H])[H])[H])[H])c1c(c(c(c(Cl)c1[H])[H])[H])[H])([H])[H])C(=O)N(C(C([H])([H])[H])([H])[H])[H])([H])[H]

>  <h>  (49) 
<NA>

>  <Training>  (49) 
True

>  <Success>  (49) 
True

>  <enamine_searched>  (49) 
False

>  <enamine_id>  (49) 
nan

$$$$

     RDKit          3D

 57 60  0  0  0  0  0  0  0  0999 V2000
  -13.9742   -1.5514  -23.5902 C   0  0  0  0  0  0  0  0  0  0  0  0
  -13.2452   -1.3265  -24.9233 C   0  0  0  0  0  0  0  0  0  0  0  0
  -11.7699   -0.9806  -24.7660 C   0  0  0  0  0  0  0  0  0  0  0  0
  -11.3964    0.1414  -24.4879 O   0  0  0  0  0  0  0  0  0  0  0  0
  -10.8773   -2.0043  -24.9667 N   0  0  0  0  0  0  0  0  0  0  0  0
   -9.4763   -1.7573  -25.0547 C   0  0  0  0  0  0  0  0  0  0  0  0
   -8.9545   -0.9237  -26.0432 C   0  0  0  0  0  0  0  0  0  0  0  0
   -7.5812   -0.7077  -26.0788 C   0  0  0  0  0  0  0  0  0  0  0  0
   -6.7340   -1.2859  -25.1378 C   0  0  0  0  0  0  0  0  0  0  0  0
   -7.2592   -2.1222  -24.1504 C   0  0  0  0  0  0  0  0  0  0  0  0
   -6.3901   -2.7381  -23.2007 N   0  0  0  0  0  0  0  0  0  0  0  0
   -5.3908   -3.6870  -23.7014 C   0  0  0  0  0  0  0  0  0  0  0  0
   -5.9990   -5.0258  -24.0589 C   0  0  0  0  0  0  0  0  0  0  0  0
   -6.6270   -5.2210  -25.2905 C   0  0  0  0  0  0  0  0  0  0  0  0
   -7.2421   -6.4345  -25.5838 C   0  0  0  0  0  0  0  0  0  0  0  0
   -7.2312   -7.4634  -24.6458 C   0  0  0  0  0  0  0  0  0  0  0  0
   -6.5887   -7.2836  -23.4257 C   0  0  0  0  0  0  0  0  0  0  0  0
   -5.9872   -6.0653  -23.1303 C   0  0  0  0  0  0  0  0  0  0  0  0
   -5.5223   -5.9074  -22.1602 H   0  0  0  0  0  0  0  0  0  0  0  0
   -6.5420   -8.0979  -22.7059 H   0  0  0  0  0  0  0  0  0  0  0  0
   -7.7168   -8.4102  -24.8694 H   0  0  0  0  0  0  0  0  0  0  0  0
   -7.7258   -6.5815  -26.5480 H   0  0  0  0  0  0  0  0  0  0  0  0
   -6.6592   -4.4118  -26.0202 H   0  0  0  0  0  0  0  0  0  0  0  0
   -4.9204   -3.2449  -24.5854 H   0  0  0  0  0  0  0  0  0  0  0  0
   -4.6231   -3.8017  -22.9325 H   0  0  0  0  0  0  0  0  0  0  0  0
   -6.5935   -2.6902  -21.8320 C   0  0  0  0  0  0  0  0  0  0  0  0
   -6.0998   -3.5196  -21.0902 O   0  0  0  0  0  0  0  0  0  0  0  0
   -7.3809   -1.5020  -21.2638 C   0  0  0  0  0  0  0  0  0  0  0  0
   -6.5875   -0.8348  -20.1768 C   0  0  0  0  0  0  0  0  0  0  0  0
   -6.8896   -1.0642  -18.8634 C   0  0  0  0  0  0  0  0  0  0  0  0
   -6.2093   -0.5587  -17.8034 N   0  0  0  0  0  0  0  0  0  0  0  0
   -5.1795    0.2054  -18.0738 C   0  0  0  0  0  0  0  0  0  0  0  0
   -4.7329    0.5122  -19.3889 C   0  0  0  0  0  0  0  0  0  0  0  0
   -3.5980    1.3307  -19.6208 C   0  0  0  0  0  0  0  0  0  0  0  0
   -3.1956    1.6169  -20.8944 C   0  0  0  0  0  0  0  0  0  0  0  0
   -3.9114    1.0924  -21.9937 C   0  0  0  0  0  0  0  0  0  0  0  0
   -5.0127    0.2950  -21.7990 C   0  0  0  0  0  0  0  0  0  0  0  0
   -5.4553   -0.0193  -20.4819 C   0  0  0  0  0  0  0  0  0  0  0  0
   -5.5440   -0.0916  -22.6681 H   0  0  0  0  0  0  0  0  0  0  0  0
   -3.5855    1.3329  -23.0011 H   0  0  0  0  0  0  0  0  0  0  0  0
   -2.3326    2.2535  -21.0701 H   0  0  0  0  0  0  0  0  0  0  0  0
   -3.0669    1.7394  -18.7648 H   0  0  0  0  0  0  0  0  0  0  0  0
   -4.6307    0.6183  -17.2266 H   0  0  0  0  0  0  0  0  0  0  0  0
   -7.7400   -1.6982  -18.6088 H   0  0  0  0  0  0  0  0  0  0  0  0
   -7.6337   -0.7900  -22.0531 H   0  0  0  0  0  0  0  0  0  0  0  0
   -8.3244   -1.8895  -20.8564 H   0  0  0  0  0  0  0  0  0  0  0  0
   -8.6320   -2.3639  -24.1309 C   0  0  0  0  0  0  0  0  0  0  0  0
   -9.0758   -3.0161  -23.3846 H   0  0  0  0  0  0  0  0  0  0  0  0
   -5.6654   -1.0902  -25.1636 H   0  0  0  0  0  0  0  0  0  0  0  0
   -7.1574   -0.0691  -26.8463 H   0  0  0  0  0  0  0  0  0  0  0  0
   -9.6099   -0.4793  -26.7881 H   0  0  0  0  0  0  0  0  0  0  0  0
  -11.2060   -2.9425  -25.1541 H   0  0  0  0  0  0  0  0  0  0  0  0
  -13.3806   -2.1884  -25.5900 H   0  0  0  0  0  0  0  0  0  0  0  0
  -13.7061   -0.4605  -25.4075 H   0  0  0  0  0  0  0  0  0  0  0  0
  -13.4812   -2.2995  -22.9623 H   0  0  0  0  0  0  0  0  0  0  0  0
  -14.0420   -0.6185  -23.0173 H   0  0  0  0  0  0  0  0  0  0  0  0
  -14.9925   -1.9111  -23.7844 H   0  0  0  0  0  0  0  0  0  0  0  0
  1  2  1  0
  2  3  1  0
  3  4  2  0
  3  5  1  0
  5  6  1  0
  6  7  2  0
  7  8  1  0
  8  9  2  0
  9 10  1  0
 10 11  1  0
 11 12  1  0
 12 13  1  0
 13 14  2  0
 14 15  1  0
 15 16  2  0
 16 17  1  0
 17 18  2  0
 18 19  1  0
 17 20  1  0
 16 21  1  0
 15 22  1  0
 14 23  1  0
 12 24  1  0
 12 25  1  0
 11 26  1  0
 26 27  2  0
 26 28  1  0
 28 29  1  0
 29 30  2  0
 30 31  1  0
 31 32  2  0
 32 33  1  0
 33 34  2  0
 34 35  1  0
 35 36  2  0
 36 37  1  0
 37 38  2  0
 37 39  1  0
 36 40  1  0
 35 41  1  0
 34 42  1  0
 32 43  1  0
 30 44  1  0
 28 45  1  0
 28 46  1  0
 10 47  2  0
 47 48  1  0
  9 49  1  0
  8 50  1  0
  7 51  1  0
  5 52  1  0
  2 53  1  0
  2 54  1  0
  1 55  1  0
  1 56  1  0
  1 57  1  0
 47  6  1  0
 18 13  1  0
 38 29  1  0
 38 33  1  0
M  END
>  <cnnaffinities>  (50) 
[6.27963, 6.28352, 6.29289, 6.01023, 6.01104]

>  <score>  (50) 
6.27963

>  <index>  (50) 
52

>  <Smiles>  (50) 
C(C(C(=O)N(c1c(c(c(c(N(C(c2c(c(c(c(c2[H])[H])[H])[H])[H])([H])[H])C(=O)C(c2c(nc(c3c(c(c(c(c23)[H])[H])[H])[H])[H])[H])([H])[H])c1[H])[H])[H])[H])[H])([H])[H])([H])([H])[H]

>  <h>  (50) 
<NA>

>  <Training>  (50) 
True

>  <Success>  (50) 
True

>  <enamine_searched>  (50) 
False

>  <enamine_id>  (50) 
nan

$$$$

     RDKit          3D

 59 63  0  0  0  0  0  0  0  0999 V2000
   -7.7375    4.3966  -22.3471 C   0  0  0  0  0  0  0  0  0  0  0  0
   -6.8321    3.4626  -23.1215 C   0  0  0  0  0  0  0  0  0  0  0  0
   -7.6227    2.7249  -24.0959 N   0  0  0  0  0  0  0  0  0  0  0  0
   -7.0075    1.7289  -24.7847 C   0  0  0  0  0  0  0  0  0  0  0  0
   -5.8066    1.5176  -24.7043 O   0  0  0  0  0  0  0  0  0  0  0  0
   -7.9064    0.8963  -25.7001 C   0  0  0  0  0  0  0  0  0  0  0  0
   -8.8567    0.1088  -24.9476 N   0  0  0  0  0  0  0  0  0  0  0  0
   -8.4438   -1.1781  -24.4244 C   0  0  0  0  0  0  0  0  0  0  0  0
   -8.9662   -1.4324  -22.9950 C   0  0  2  0  0  0  0  0  0  0  0  0
   -8.2346   -0.5269  -21.9772 C   0  0  0  0  0  0  0  0  0  0  0  0
   -8.3287    0.6765  -21.8640 O   0  0  0  0  0  0  0  0  0  0  0  0
   -7.4202   -1.3201  -21.2113 N   0  0  0  0  0  0  0  0  0  0  0  0
   -6.6040   -0.7960  -20.1888 C   0  0  0  0  0  0  0  0  0  0  0  0
   -6.8969   -1.0695  -18.8780 C   0  0  0  0  0  0  0  0  0  0  0  0
   -6.2053   -0.5790  -17.8244 N   0  0  0  0  0  0  0  0  0  0  0  0
   -5.1813    0.1987  -18.0891 C   0  0  0  0  0  0  0  0  0  0  0  0
   -4.7416    0.5144  -19.4064 C   0  0  0  0  0  0  0  0  0  0  0  0
   -3.6059    1.3337  -19.6419 C   0  0  0  0  0  0  0  0  0  0  0  0
   -3.1972    1.6118  -20.9172 C   0  0  0  0  0  0  0  0  0  0  0  0
   -3.9005    1.0807  -22.0226 C   0  0  0  0  0  0  0  0  0  0  0  0
   -4.9987    0.2818  -21.8226 C   0  0  0  0  0  0  0  0  0  0  0  0
   -5.4599   -0.0067  -20.5043 C   0  0  0  0  0  0  0  0  0  0  0  0
   -5.5236   -0.1177  -22.6848 H   0  0  0  0  0  0  0  0  0  0  0  0
   -3.5974    1.3243  -23.0373 H   0  0  0  0  0  0  0  0  0  0  0  0
   -2.3322    2.2457  -21.0862 H   0  0  0  0  0  0  0  0  0  0  0  0
   -3.0857    1.7451  -18.7819 H   0  0  0  0  0  0  0  0  0  0  0  0
   -4.6273    0.6075  -17.2432 H   0  0  0  0  0  0  0  0  0  0  0  0
   -7.7545   -1.6964  -18.6336 H   0  0  0  0  0  0  0  0  0  0  0  0
   -7.4228   -2.7163  -21.5620 C   0  0  0  0  0  0  0  0  0  0  0  0
   -8.6269   -2.8700  -22.4955 C   0  0  2  0  0  0  0  0  0  0  0  0
   -8.4152   -3.9572  -23.5452 C   0  0  0  0  0  0  0  0  0  0  0  0
   -8.2458   -4.9232  -23.0574 H   0  0  0  0  0  0  0  0  0  0  0  0
   -7.5396   -3.7410  -24.1673 H   0  0  0  0  0  0  0  0  0  0  0  0
   -9.2834   -4.0689  -24.2035 H   0  0  0  0  0  0  0  0  0  0  0  0
   -9.4705   -3.1876  -21.8875 H   0  0  0  0  0  0  0  0  0  0  0  0
   -6.4873   -3.0152  -22.0544 H   0  0  0  0  0  0  0  0  0  0  0  0
   -7.5203   -3.3125  -20.6561 H   0  0  0  0  0  0  0  0  0  0  0  0
  -10.4455   -1.1246  -22.9953 C   0  0  0  0  0  0  0  0  0  0  0  0
  -11.2760   -1.7352  -22.0607 C   0  0  0  0  0  0  0  0  0  0  0  0
  -12.6375   -1.5389  -22.1218 C   0  0  0  0  0  0  0  0  0  0  0  0
  -13.6172   -2.5337  -21.0973 Cl  0  0  0  0  0  0  0  0  0  0  0  0
  -13.2072   -0.5846  -22.9620 C   0  0  0  0  0  0  0  0  0  0  0  0
  -12.3675    0.1201  -23.8051 C   0  0  0  0  0  0  0  0  0  0  0  0
  -11.0046   -0.1786  -23.8636 C   0  0  0  0  0  0  0  0  0  0  0  0
  -10.1229    0.5880  -24.7971 C   0  0  0  0  0  0  0  0  0  0  0  0
  -10.4944    1.6133  -25.3635 O   0  0  0  0  0  0  0  0  0  0  0  0
  -12.7431    0.9262  -24.4237 H   0  0  0  0  0  0  0  0  0  0  0  0
  -14.2720   -0.3810  -22.9093 H   0  0  0  0  0  0  0  0  0  0  0  0
  -10.8632   -2.3180  -21.2450 H   0  0  0  0  0  0  0  0  0  0  0  0
   -7.3529   -1.2164  -24.4390 H   0  0  0  0  0  0  0  0  0  0  0  0
   -8.8235   -1.9755  -25.0731 H   0  0  0  0  0  0  0  0  0  0  0  0
   -7.2557    0.2377  -26.2795 H   0  0  0  0  0  0  0  0  0  0  0  0
   -8.4820    1.5446  -26.3691 H   0  0  0  0  0  0  0  0  0  0  0  0
   -8.6292    2.7215  -23.9668 H   0  0  0  0  0  0  0  0  0  0  0  0
   -6.3459    2.7530  -22.4336 H   0  0  0  0  0  0  0  0  0  0  0  0
   -6.0333    3.9849  -23.6571 H   0  0  0  0  0  0  0  0  0  0  0  0
   -8.4799    3.7785  -21.8446 H   0  0  0  0  0  0  0  0  0  0  0  0
   -8.2576    5.1105  -22.9951 H   0  0  0  0  0  0  0  0  0  0  0  0
   -7.1890    4.9526  -21.5814 H   0  0  0  0  0  0  0  0  0  0  0  0
  1  2  1  0
  2  3  1  0
  3  4  1  0
  4  5  2  0
  4  6  1  0
  6  7  1  0
  7  8  1  0
  9  8  1  6
  9 10  1  0
 10 11  2  0
 10 12  1  0
 12 13  1  0
 13 14  2  0
 14 15  1  0
 15 16  2  0
 16 17  1  0
 17 18  2  0
 18 19  1  0
 19 20  2  0
 20 21  1  0
 21 22  2  0
 21 23  1  0
 20 24  1  0
 19 25  1  0
 18 26  1  0
 16 27  1  0
 14 28  1  0
 12 29  1  0
 29 30  1  0
 30 31  1  0
 31 32  1  0
 31 33  1  0
 31 34  1  0
 30 35  1  1
 29 36  1  0
 29 37  1  0
  9 38  1  0
 38 39  2  0
 39 40  1  0
 40 41  1  0
 40 42  2  0
 42 43  1  0
 43 44  2  0
 44 45  1  0
 45 46  2  0
 43 47  1  0
 42 48  1  0
 39 49  1  0
  8 50  1  0
  8 51  1  0
  6 52  1  0
  6 53  1  0
  3 54  1  0
  2 55  1  0
  2 56  1  0
  1 57  1  0
  1 58  1  0
  1 59  1  0
 45  7  1  0
 30  9  1  0
 44 38  1  0
 22 13  1  0
 22 17  1  0
M  END
>  <cnnaffinities>  (51) 
[6.01112]

>  <score>  (51) 
6.01112

>  <index>  (51) 
53

>  <Smiles>  (51) 
C(C(N(C(=O)C(N1C([C@@]2(C(=O)N(c3c(nc(c4c(c(c(c(c34)[H])[H])[H])[H])[H])[H])C([C@@]2(C([H])([H])[H])[H])([H])[H])c2c(c(Cl)c(c(c2C1=O)[H])[H])[H])([H])[H])([H])[H])[H])([H])[H])([H])([H])[H]

>  <h>  (51) 
<NA>

>  <Training>  (51) 
True

>  <Success>  (51) 
True

>  <enamine_searched>  (51) 
False

>  <enamine_id>  (51) 
nan

$$$$

     RDKit          3D

 40 43  0  0  0  0  0  0  0  0999 V2000
   -9.5744   -1.3395  -24.0579 C   0  0  0  0  0  0  0  0  0  0  0  0
   -8.7818   -1.6249  -22.8767 N   0  0  0  0  0  0  0  0  0  0  0  0
   -8.4643   -2.8430  -22.3331 C   0  0  0  0  0  0  0  0  0  0  0  0
   -8.9105   -4.1506  -22.9025 C   0  0  0  0  0  0  0  0  0  0  0  0
   -8.0829   -4.5386  -24.1091 C   0  0  0  0  0  0  0  0  0  0  0  0
   -8.5956   -4.4429  -25.3996 C   0  0  0  0  0  0  0  0  0  0  0  0
   -7.8118   -4.7744  -26.5011 C   0  0  0  0  0  0  0  0  0  0  0  0
   -6.5008   -5.2001  -26.3161 C   0  0  0  0  0  0  0  0  0  0  0  0
   -5.9777   -5.2879  -25.0290 C   0  0  0  0  0  0  0  0  0  0  0  0
   -6.7632   -4.9517  -23.9321 C   0  0  0  0  0  0  0  0  0  0  0  0
   -6.3518   -5.0124  -22.9273 H   0  0  0  0  0  0  0  0  0  0  0  0
   -4.9534   -5.6193  -24.8831 H   0  0  0  0  0  0  0  0  0  0  0  0
   -5.8886   -5.4613  -27.1744 H   0  0  0  0  0  0  0  0  0  0  0  0
   -8.2287   -4.7032  -27.5016 H   0  0  0  0  0  0  0  0  0  0  0  0
   -9.6186   -4.1034  -25.5476 H   0  0  0  0  0  0  0  0  0  0  0  0
   -9.9754   -4.1081  -23.1628 H   0  0  0  0  0  0  0  0  0  0  0  0
   -8.8069   -4.8939  -22.1067 H   0  0  0  0  0  0  0  0  0  0  0  0
   -7.6557   -2.7297  -21.3211 N   0  0  0  0  0  0  0  0  0  0  0  0
   -7.4050   -1.3856  -21.2132 N   0  0  0  0  0  0  0  0  0  0  0  0
   -6.5814   -0.8343  -20.1855 C   0  0  0  0  0  0  0  0  0  0  0  0
   -6.8881   -1.0595  -18.8665 C   0  0  0  0  0  0  0  0  0  0  0  0
   -6.1940   -0.5478  -17.8208 N   0  0  0  0  0  0  0  0  0  0  0  0
   -5.1629    0.2238  -18.0732 C   0  0  0  0  0  0  0  0  0  0  0  0
   -4.7226    0.5310  -19.3899 C   0  0  0  0  0  0  0  0  0  0  0  0
   -3.5847    1.3520  -19.6270 C   0  0  0  0  0  0  0  0  0  0  0  0
   -3.1783    1.6137  -20.9065 C   0  0  0  0  0  0  0  0  0  0  0  0
   -3.8785    1.0563  -21.9996 C   0  0  0  0  0  0  0  0  0  0  0  0
   -4.9725    0.2558  -21.7949 C   0  0  0  0  0  0  0  0  0  0  0  0
   -5.4402   -0.0135  -20.4800 C   0  0  0  0  0  0  0  0  0  0  0  0
   -5.4991   -0.1749  -22.6384 H   0  0  0  0  0  0  0  0  0  0  0  0
   -3.5458    1.2593  -23.0120 H   0  0  0  0  0  0  0  0  0  0  0  0
   -2.3164    2.2461  -21.0956 H   0  0  0  0  0  0  0  0  0  0  0  0
   -3.0519    1.7743  -18.7775 H   0  0  0  0  0  0  0  0  0  0  0  0
   -4.6067    0.6253  -17.2211 H   0  0  0  0  0  0  0  0  0  0  0  0
   -7.7387   -1.6776  -18.5940 H   0  0  0  0  0  0  0  0  0  0  0  0
   -8.1149   -0.6451  -22.1484 C   0  0  0  0  0  0  0  0  0  0  0  0
   -8.1376    0.5576  -22.3073 O   0  0  0  0  0  0  0  0  0  0  0  0
   -9.0057   -1.4816  -24.9822 H   0  0  0  0  0  0  0  0  0  0  0  0
   -9.8966   -0.3007  -24.0236 H   0  0  0  0  0  0  0  0  0  0  0  0
  -10.4721   -1.9615  -24.1014 H   0  0  0  0  0  0  0  0  0  0  0  0
  1  2  1  0
  2  3  1  0
  3  4  1  0
  4  5  1  0
  5  6  2  0
  6  7  1  0
  7  8  2  0
  8  9  1  0
  9 10  2  0
 10 11  1  0
  9 12  1  0
  8 13  1  0
  7 14  1  0
  6 15  1  0
  4 16  1  0
  4 17  1  0
  3 18  2  0
 18 19  1  0
 19 20  1  0
 20 21  2  0
 21 22  1  0
 22 23  2  0
 23 24  1  0
 24 25  2  0
 25 26  1  0
 26 27  2  0
 27 28  1  0
 28 29  2  0
 28 30  1  0
 27 31  1  0
 26 32  1  0
 25 33  1  0
 23 34  1  0
 21 35  1  0
 19 36  1  0
 36 37  2  0
  1 38  1  0
  1 39  1  0
  1 40  1  0
 36  2  1  0
 10  5  1  0
 29 20  1  0
 29 24  1  0
M  END
>  <cnnaffinities>  (52) 
[5.26714, 5.26939, 4.8802, 4.88008, 4.76352, 4.76435]

>  <score>  (52) 
5.26714

>  <index>  (52) 
54

>  <Smiles>  (52) 
C(n1c(C(c2c(c(c(c(c2[H])[H])[H])[H])[H])([H])[H])nn(c2c(nc(c3c(c(c(c(c23)[H])[H])[H])[H])[H])[H])c1=O)([H])([H])[H]

>  <h>  (52) 
<NA>

>  <Training>  (52) 
True

>  <Success>  (52) 
True

>  <enamine_searched>  (52) 
False

>  <enamine_id>  (52) 
nan

$$$$

     RDKit          3D

 61 66  0  0  0  0  0  0  0  0999 V2000
   -7.0106   -5.4608  -25.0451 C   0  0  0  0  0  0  0  0  0  0  0  0
   -7.3428   -4.8000  -23.8500 O   0  0  0  0  0  0  0  0  0  0  0  0
   -7.9906   -3.5747  -24.0836 C   0  0  0  0  0  0  0  0  0  0  0  0
   -8.2878   -2.9179  -22.7404 C   0  0  1  0  0  0  0  0  0  0  0  0
   -7.0091   -2.5534  -21.9659 C   0  0  0  0  0  0  0  0  0  0  0  0
   -7.3883   -1.3719  -21.2171 N   0  0  0  0  0  0  0  0  0  0  0  0
   -6.5986   -0.8113  -20.1875 C   0  0  0  0  0  0  0  0  0  0  0  0
   -6.9168   -1.0478  -18.8745 C   0  0  0  0  0  0  0  0  0  0  0  0
   -6.2171   -0.5623  -17.8216 N   0  0  0  0  0  0  0  0  0  0  0  0
   -5.1841    0.2041  -18.0849 C   0  0  0  0  0  0  0  0  0  0  0  0
   -4.7456    0.5269  -19.4026 C   0  0  0  0  0  0  0  0  0  0  0  0
   -3.6232    1.3619  -19.6419 C   0  0  0  0  0  0  0  0  0  0  0  0
   -3.2415    1.6624  -20.9208 C   0  0  0  0  0  0  0  0  0  0  0  0
   -3.9473    1.1309  -22.0220 C   0  0  0  0  0  0  0  0  0  0  0  0
   -5.0252    0.3014  -21.8148 C   0  0  0  0  0  0  0  0  0  0  0  0
   -5.4591   -0.0098  -20.4966 C   0  0  0  0  0  0  0  0  0  0  0  0
   -5.5842   -0.0723  -22.6673 H   0  0  0  0  0  0  0  0  0  0  0  0
   -3.6290    1.3876  -23.0291 H   0  0  0  0  0  0  0  0  0  0  0  0
   -2.3867    2.3061  -21.0974 H   0  0  0  0  0  0  0  0  0  0  0  0
   -3.0833    1.7577  -18.7873 H   0  0  0  0  0  0  0  0  0  0  0  0
   -4.6202    0.6035  -17.2406 H   0  0  0  0  0  0  0  0  0  0  0  0
   -7.7824   -1.6632  -18.6395 H   0  0  0  0  0  0  0  0  0  0  0  0
   -8.5920   -0.8178  -21.5891 C   0  0  0  0  0  0  0  0  0  0  0  0
   -9.1107    0.1455  -21.0610 O   0  0  0  0  0  0  0  0  0  0  0  0
   -9.1347   -1.6166  -22.7908 C   0  0  1  0  0  0  0  0  0  0  0  0
   -8.8602   -0.8367  -24.1006 C   0  0  0  0  0  0  0  0  0  0  0  0
   -9.6780    0.3551  -24.2024 N   0  0  0  0  0  0  0  0  0  0  0  0
   -9.0458    1.5779  -24.6674 C   0  0  0  0  0  0  0  0  0  0  0  0
   -8.2474    2.2634  -23.6043 C   0  0  0  0  0  0  0  0  0  0  0  0
   -6.9107    2.3599  -23.4145 C   0  0  0  0  0  0  0  0  0  0  0  0
   -6.7047    3.1558  -22.3137 N   0  0  0  0  0  4  0  0  0  0  0  0
   -7.8828    3.5536  -21.8340 C   0  0  0  0  0  0  0  0  0  0  0  0
   -8.8421    3.0083  -22.6014 N   0  0  0  0  0  0  0  0  0  0  0  0
   -9.8201    2.9530  -22.3227 H   0  0  0  0  0  0  0  0  0  0  0  0
   -8.0418    4.2710  -21.0436 H   0  0  0  0  0  0  0  0  0  0  0  0
   -5.8031    3.1923  -21.8496 H   0  0  0  0  0  0  0  0  0  0  0  0
   -6.0732    1.9219  -23.9324 H   0  0  0  0  0  0  0  0  0  0  0  0
   -9.8399    2.2378  -25.0287 H   0  0  0  0  0  0  0  0  0  0  0  0
   -8.4090    1.3306  -25.5234 H   0  0  0  0  0  0  0  0  0  0  0  0
  -11.0243    0.3236  -23.9702 C   0  0  0  0  0  0  0  0  0  0  0  0
  -11.7737    1.2304  -24.3134 O   0  0  0  0  0  0  0  0  0  0  0  0
  -11.5271   -0.8873  -23.2427 C   0  0  0  0  0  0  0  0  0  0  0  0
  -12.9072   -1.0488  -23.1145 C   0  0  0  0  0  0  0  0  0  0  0  0
  -13.4217   -2.0716  -22.3433 C   0  0  0  0  0  0  0  0  0  0  0  0
  -12.5311   -2.9101  -21.6748 C   0  0  0  0  0  0  0  0  0  0  0  0
  -13.1474   -4.1313  -20.6007 Cl  0  0  0  0  0  0  0  0  0  0  0  0
  -11.1626   -2.7830  -21.8229 C   0  0  0  0  0  0  0  0  0  0  0  0
  -10.6343   -1.7924  -22.6537 C   0  0  0  0  0  0  0  0  0  0  0  0
  -10.5169   -3.4516  -21.2653 H   0  0  0  0  0  0  0  0  0  0  0  0
  -14.4899   -2.2149  -22.2308 H   0  0  0  0  0  0  0  0  0  0  0  0
  -13.5566   -0.3392  -23.6147 H   0  0  0  0  0  0  0  0  0  0  0  0
   -9.0745   -1.4971  -24.9493 H   0  0  0  0  0  0  0  0  0  0  0  0
   -7.8028   -0.5490  -24.1580 H   0  0  0  0  0  0  0  0  0  0  0  0
   -6.1701   -2.3475  -22.6460 H   0  0  0  0  0  0  0  0  0  0  0  0
   -6.7053   -3.3545  -21.2864 H   0  0  0  0  0  0  0  0  0  0  0  0
   -8.8261   -3.6609  -22.1532 H   0  0  0  0  0  0  0  0  0  0  0  0
   -8.9277   -3.7368  -24.6449 H   0  0  0  0  0  0  0  0  0  0  0  0
   -7.3464   -2.9143  -24.6921 H   0  0  0  0  0  0  0  0  0  0  0  0
   -6.5433   -6.4119  -24.7812 H   0  0  0  0  0  0  0  0  0  0  0  0
   -7.9009   -5.6698  -25.6604 H   0  0  0  0  0  0  0  0  0  0  0  0
   -6.2962   -4.8781  -25.6485 H   0  0  0  0  0  0  0  0  0  0  0  0
  1  2  1  0
  2  3  1  0
  3  4  1  0
  4  5  1  0
  5  6  1  0
  6  7  1  0
  7  8  2  0
  8  9  1  0
  9 10  2  0
 10 11  1  0
 11 12  2  0
 12 13  1  0
 13 14  2  0
 14 15  1  0
 15 16  2  0
 15 17  1  0
 14 18  1  0
 13 19  1  0
 12 20  1  0
 10 21  1  0
  8 22  1  0
  6 23  1  0
 23 24  2  0
 23 25  1  0
 25 26  1  6
 26 27  1  0
 27 28  1  0
 28 29  1  0
 29 30  2  0
 30 31  1  0
 31 32  2  0
 32 33  1  0
 33 34  1  0
 32 35  1  0
 31 36  1  0
 30 37  1  0
 28 38  1  0
 28 39  1  0
 27 40  1  0
 40 41  2  0
 40 42  1  0
 42 43  2  0
 43 44  1  0
 44 45  2  0
 45 46  1  0
 45 47  1  0
 47 48  2  0
 47 49  1  0
 44 50  1  0
 43 51  1  0
 26 52  1  0
 26 53  1  0
  5 54  1  0
  5 55  1  0
  4 56  1  1
  3 57  1  0
  3 58  1  0
  1 59  1  0
  1 60  1  0
  1 61  1  0
 25  4  1  0
 33 29  1  0
 48 42  1  0
 16  7  1  0
 48 25  1  0
 16 11  1  0
M  CHG  1  31   1
M  END
>  <cnnaffinities>  (53) 
[6.31188, 6.23251]

>  <score>  (53) 
6.31188

>  <index>  (53) 
55

>  <Smiles>  (53) 
C(OC([C@]1(C(N(c2c(nc(c3c(c(c(c(c23)[H])[H])[H])[H])[H])[H])C(=O)[C@]21C(N(C(c1c([n+](c(n1[H])[H])[H])[H])([H])[H])C(=O)c1c(c(c(Cl)c(c21)[H])[H])[H])([H])[H])([H])[H])[H])([H])[H])([H])([H])[H]

>  <h>  (53) 
<NA>

>  <Training>  (53) 
True

>  <Success>  (53) 
True

>  <enamine_searched>  (53) 
False

>  <enamine_id>  (53) 
nan

$$$$

     RDKit          3D

 57 62  0  0  0  0  0  0  0  0999 V2000
   -7.4618   -3.5086  -23.8143 C   0  0  0  0  0  0  0  0  0  0  0  0
   -8.3534   -2.9154  -22.7194 C   0  0  1  0  0  0  0  0  0  0  0  0
   -7.6240   -2.7548  -21.3708 C   0  0  0  0  0  0  0  0  0  0  0  0
   -7.3596   -1.3397  -21.2714 N   0  0  0  0  0  0  0  0  0  0  0  0
   -6.5856   -0.7941  -20.2260 C   0  0  0  0  0  0  0  0  0  0  0  0
   -6.8897   -1.0682  -18.9167 C   0  0  0  0  0  0  0  0  0  0  0  0
   -6.2095   -0.5796  -17.8526 N   0  0  0  0  0  0  0  0  0  0  0  0
   -5.1820    0.1978  -18.1007 C   0  0  0  0  0  0  0  0  0  0  0  0
   -4.7302    0.5195  -19.4128 C   0  0  0  0  0  0  0  0  0  0  0  0
   -3.5867    1.3326  -19.6307 C   0  0  0  0  0  0  0  0  0  0  0  0
   -3.1552    1.5958  -20.9010 C   0  0  0  0  0  0  0  0  0  0  0  0
   -3.8440    1.0626  -22.0130 C   0  0  0  0  0  0  0  0  0  0  0  0
   -4.9703    0.2999  -21.8336 C   0  0  0  0  0  0  0  0  0  0  0  0
   -5.4426    0.0104  -20.5206 C   0  0  0  0  0  0  0  0  0  0  0  0
   -5.5134   -0.0731  -22.6964 H   0  0  0  0  0  0  0  0  0  0  0  0
   -3.4894    1.2759  -23.0186 H   0  0  0  0  0  0  0  0  0  0  0  0
   -2.2900    2.2296  -21.0700 H   0  0  0  0  0  0  0  0  0  0  0  0
   -3.0748    1.7433  -18.7655 H   0  0  0  0  0  0  0  0  0  0  0  0
   -4.6399    0.6023  -17.2450 H   0  0  0  0  0  0  0  0  0  0  0  0
   -7.7466   -1.6949  -18.6710 H   0  0  0  0  0  0  0  0  0  0  0  0
   -8.2058   -0.5726  -22.0433 C   0  0  0  0  0  0  0  0  0  0  0  0
   -8.3145    0.6284  -21.9578 O   0  0  0  0  0  0  0  0  0  0  0  0
   -8.9700   -1.5121  -23.0099 C   0  0  1  0  0  0  0  0  0  0  0  0
   -8.7926   -1.0457  -24.4817 C   0  0  0  0  0  0  0  0  0  0  0  0
   -9.4308    0.2342  -24.7349 N   0  0  0  0  0  0  0  0  0  0  0  0
   -8.7347    1.2916  -25.4460 C   0  0  0  0  0  0  0  0  0  0  0  0
   -8.1665    2.3188  -24.5003 C   0  0  0  0  0  0  0  0  0  0  0  0
   -9.0347    3.2266  -24.0380 N   0  0  0  0  0  0  0  0  0  0  0  0
   -8.5467    4.1505  -23.2230 C   0  0  0  0  0  0  0  0  0  0  0  0
   -7.2000    4.2053  -22.8895 C   0  0  0  0  0  0  0  0  0  0  0  0
   -6.4017    3.2150  -23.4280 C   0  0  0  0  0  0  0  0  0  0  0  0
   -6.8681    2.2456  -24.2183 N   0  0  0  0  0  0  0  0  0  0  0  0
   -5.3336    3.1875  -23.2320 H   0  0  0  0  0  0  0  0  0  0  0  0
   -6.8012    4.9776  -22.2417 H   0  0  0  0  0  0  0  0  0  0  0  0
   -9.2574    4.8769  -22.8370 H   0  0  0  0  0  0  0  0  0  0  0  0
   -9.4846    1.7809  -26.0717 H   0  0  0  0  0  0  0  0  0  0  0  0
   -7.9407    0.8528  -26.0565 H   0  0  0  0  0  0  0  0  0  0  0  0
  -10.6813    0.5231  -24.2840 C   0  0  0  0  0  0  0  0  0  0  0  0
  -11.3197    1.4858  -24.6998 O   0  0  0  0  0  0  0  0  0  0  0  0
  -11.2344   -0.4205  -23.2773 C   0  0  0  0  0  0  0  0  0  0  0  0
  -12.5953   -0.3190  -23.0154 C   0  0  0  0  0  0  0  0  0  0  0  0
  -13.2452   -1.2584  -22.2458 C   0  0  0  0  0  0  0  0  0  0  0  0
  -12.4685   -2.2716  -21.6889 C   0  0  0  0  0  0  0  0  0  0  0  0
  -13.0580   -3.1695  -20.8836 F   0  0  0  0  0  0  0  0  0  0  0  0
  -11.1031   -2.3589  -21.8755 C   0  0  0  0  0  0  0  0  0  0  0  0
  -10.4616   -1.4437  -22.7171 C   0  0  0  0  0  0  0  0  0  0  0  0
  -10.5754   -3.1525  -21.3522 H   0  0  0  0  0  0  0  0  0  0  0  0
  -14.3182   -1.2151  -22.1050 H   0  0  0  0  0  0  0  0  0  0  0  0
  -13.1373    0.4917  -23.4837 H   0  0  0  0  0  0  0  0  0  0  0  0
   -9.2107   -1.8257  -25.1388 H   0  0  0  0  0  0  0  0  0  0  0  0
   -7.7336   -0.9280  -24.7141 H   0  0  0  0  0  0  0  0  0  0  0  0
   -8.2645   -3.0789  -20.5426 H   0  0  0  0  0  0  0  0  0  0  0  0
   -6.6840   -3.3117  -21.3116 H   0  0  0  0  0  0  0  0  0  0  0  0
   -9.1597   -3.6422  -22.6077 H   0  0  0  0  0  0  0  0  0  0  0  0
   -7.1048   -4.4991  -23.5109 H   0  0  0  0  0  0  0  0  0  0  0  0
   -8.0362   -3.6479  -24.7353 H   0  0  0  0  0  0  0  0  0  0  0  0
   -6.5917   -2.8830  -24.0377 H   0  0  0  0  0  0  0  0  0  0  0  0
  1  2  1  0
  2  3  1  0
  3  4  1  0
  4  5  1  0
  5  6  2  0
  6  7  1  0
  7  8  2  0
  8  9  1  0
  9 10  2  0
 10 11  1  0
 11 12  2  0
 12 13  1  0
 13 14  2  0
 13 15  1  0
 12 16  1  0
 11 17  1  0
 10 18  1  0
  8 19  1  0
  6 20  1  0
  4 21  1  0
 21 22  2  0
 21 23  1  0
 23 24  1  6
 24 25  1  0
 25 26  1  0
 26 27  1  0
 27 28  2  0
 28 29  1  0
 29 30  2  0
 30 31  1  0
 31 32  2  0
 31 33  1  0
 30 34  1  0
 29 35  1  0
 26 36  1  0
 26 37  1  0
 25 38  1  0
 38 39  2  0
 38 40  1  0
 40 41  2  0
 41 42  1  0
 42 43  2  0
 43 44  1  0
 43 45  1  0
 45 46  2  0
 45 47  1  0
 42 48  1  0
 41 49  1  0
 24 50  1  0
 24 51  1  0
  3 52  1  0
  3 53  1  0
  2 54  1  1
  1 55  1  0
  1 56  1  0
  1 57  1  0
 23  2  1  0
 32 27  1  0
 46 40  1  0
 14  5  1  0
 46 23  1  0
 14  9  1  0
M  END
>  <cnnaffinities>  (54) 
[6.05438, 6.04074]

>  <score>  (54) 
6.05438

>  <index>  (54) 
56

>  <Smiles>  (54) 
C([C@]1(C(N(c2c(nc(c3c(c(c(c(c23)[H])[H])[H])[H])[H])[H])C(=O)[C@]21C(N(C(c1nc(c(c(n1)[H])[H])[H])([H])[H])C(=O)c1c(c(c(F)c(c21)[H])[H])[H])([H])[H])([H])[H])[H])([H])([H])[H]

>  <h>  (54) 
<NA>

>  <Training>  (54) 
True

>  <Success>  (54) 
True

>  <enamine_searched>  (54) 
False

>  <enamine_id>  (54) 
nan

$$$$

     RDKit          3D

 59 63  0  0  0  0  0  0  0  0999 V2000
   -7.3777    3.3541  -21.9162 C   0  0  0  0  0  0  0  0  0  0  0  0
   -8.2080    2.8452  -22.9918 N   0  0  0  0  0  0  0  0  0  0  0  0
   -7.6116    2.1462  -23.9941 C   0  0  0  0  0  0  0  0  0  0  0  0
   -6.3995    2.0215  -24.0868 O   0  0  0  0  0  0  0  0  0  0  0  0
   -8.5687    1.5431  -25.0182 C   0  0  0  0  0  0  0  0  0  0  0  0
   -9.3115    0.4223  -24.4749 N   0  0  0  0  0  0  0  0  0  0  0  0
   -8.6093   -0.8261  -24.1958 C   0  0  0  0  0  0  0  0  0  0  0  0
   -9.0684   -1.5203  -22.8730 C   0  0  2  0  0  0  0  0  0  0  0  0
   -8.5269   -0.7527  -21.6387 C   0  0  0  0  0  0  0  0  0  0  0  0
   -8.9783    0.2647  -21.1451 O   0  0  0  0  0  0  0  0  0  0  0  0
   -7.4000   -1.3920  -21.1882 N   0  0  0  0  0  0  0  0  0  0  0  0
   -6.5960   -0.8217  -20.1709 C   0  0  0  0  0  0  0  0  0  0  0  0
   -6.9158   -1.0479  -18.8586 C   0  0  0  0  0  0  0  0  0  0  0  0
   -6.2143   -0.5600  -17.8093 N   0  0  0  0  0  0  0  0  0  0  0  0
   -5.1778    0.1980  -18.0775 C   0  0  0  0  0  0  0  0  0  0  0  0
   -4.7382    0.5140  -19.3951 C   0  0  0  0  0  0  0  0  0  0  0  0
   -3.6110    1.3418  -19.6406 C   0  0  0  0  0  0  0  0  0  0  0  0
   -3.2330    1.6435  -20.9195 C   0  0  0  0  0  0  0  0  0  0  0  0
   -3.9625    1.1361  -22.0173 C   0  0  0  0  0  0  0  0  0  0  0  0
   -5.0556    0.3289  -21.8090 C   0  0  0  0  0  0  0  0  0  0  0  0
   -5.4677   -0.0076  -20.4895 C   0  0  0  0  0  0  0  0  0  0  0  0
   -5.6247   -0.0301  -22.6614 H   0  0  0  0  0  0  0  0  0  0  0  0
   -3.6680    1.3912  -23.0299 H   0  0  0  0  0  0  0  0  0  0  0  0
   -2.3728    2.2823  -21.0970 H   0  0  0  0  0  0  0  0  0  0  0  0
   -3.0751    1.7448  -18.7859 H   0  0  0  0  0  0  0  0  0  0  0  0
   -4.6166    0.5984  -17.2320 H   0  0  0  0  0  0  0  0  0  0  0  0
   -7.7844   -1.6567  -18.6192 H   0  0  0  0  0  0  0  0  0  0  0  0
   -7.0585   -2.5864  -21.9256 C   0  0  0  0  0  0  0  0  0  0  0  0
   -8.3543   -2.9454  -22.7106 C   0  0  0  0  0  0  0  0  0  0  0  0
   -9.1598   -3.9875  -21.9119 C   0  0  0  0  0  0  0  0  0  0  0  0
   -9.3293   -3.6802  -20.8766 H   0  0  0  0  0  0  0  0  0  0  0  0
   -8.6119   -4.9349  -21.8773 H   0  0  0  0  0  0  0  0  0  0  0  0
  -10.1268   -4.1839  -22.3843 H   0  0  0  0  0  0  0  0  0  0  0  0
   -7.9802   -3.6328  -24.0352 C   0  0  0  0  0  0  0  0  0  0  0  0
   -7.5156   -4.6040  -23.8321 H   0  0  0  0  0  0  0  0  0  0  0  0
   -8.8674   -3.8139  -24.6534 H   0  0  0  0  0  0  0  0  0  0  0  0
   -7.2613   -3.0535  -24.6240 H   0  0  0  0  0  0  0  0  0  0  0  0
   -6.7523   -3.3822  -21.2370 H   0  0  0  0  0  0  0  0  0  0  0  0
   -6.2111   -2.4118  -22.6097 H   0  0  0  0  0  0  0  0  0  0  0  0
  -10.5799   -1.4406  -22.8362 C   0  0  0  0  0  0  0  0  0  0  0  0
  -11.2757   -2.0359  -21.7924 C   0  0  0  0  0  0  0  0  0  0  0  0
  -12.6510   -2.1594  -21.8613 C   0  0  0  0  0  0  0  0  0  0  0  0
  -13.4628   -3.1242  -20.6631 Cl  0  0  0  0  0  0  0  0  0  0  0  0
  -13.3997   -1.5092  -22.8429 C   0  0  0  0  0  0  0  0  0  0  0  0
  -12.7185   -0.7099  -23.7378 C   0  0  0  0  0  0  0  0  0  0  0  0
  -11.3298   -0.6228  -23.6880 C   0  0  0  0  0  0  0  0  0  0  0  0
  -10.6711    0.5136  -24.3922 C   0  0  0  0  0  0  0  0  0  0  0  0
  -11.2984    1.4899  -24.7826 O   0  0  0  0  0  0  0  0  0  0  0  0
  -13.2400   -0.0956  -24.4612 H   0  0  0  0  0  0  0  0  0  0  0  0
  -14.4832   -1.5629  -22.8320 H   0  0  0  0  0  0  0  0  0  0  0  0
  -10.7196   -2.3906  -20.9432 H   0  0  0  0  0  0  0  0  0  0  0  0
   -7.5463   -0.5915  -24.1162 H   0  0  0  0  0  0  0  0  0  0  0  0
   -8.7687   -1.5336  -25.0202 H   0  0  0  0  0  0  0  0  0  0  0  0
   -9.3030    2.2951  -25.3234 H   0  0  0  0  0  0  0  0  0  0  0  0
   -7.9819    1.2443  -25.8911 H   0  0  0  0  0  0  0  0  0  0  0  0
   -9.1877    2.6728  -22.7969 H   0  0  0  0  0  0  0  0  0  0  0  0
   -6.8636    2.5339  -21.3909 H   0  0  0  0  0  0  0  0  0  0  0  0
   -6.6227    4.0350  -22.3194 H   0  0  0  0  0  0  0  0  0  0  0  0
   -7.9903    3.9251  -21.2190 H   0  0  0  0  0  0  0  0  0  0  0  0
  1  2  1  0
  2  3  1  0
  3  4  2  0
  3  5  1  0
  5  6  1  0
  6  7  1  0
  8  7  1  6
  8  9  1  0
  9 10  2  0
  9 11  1  0
 11 12  1  0
 12 13  2  0
 13 14  1  0
 14 15  2  0
 15 16  1  0
 16 17  2  0
 17 18  1  0
 18 19  2  0
 19 20  1  0
 20 21  2  0
 20 22  1  0
 19 23  1  0
 18 24  1  0
 17 25  1  0
 15 26  1  0
 13 27  1  0
 11 28  1  0
 28 29  1  0
 29 30  1  0
 30 31  1  0
 30 32  1  0
 30 33  1  0
 29 34  1  0
 34 35  1  0
 34 36  1  0
 34 37  1  0
 28 38  1  0
 28 39  1  0
  8 40  1  0
 40 41  2  0
 41 42  1  0
 42 43  1  0
 42 44  2  0
 44 45  1  0
 45 46  2  0
 46 47  1  0
 47 48  2  0
 45 49  1  0
 44 50  1  0
 41 51  1  0
  7 52  1  0
  7 53  1  0
  5 54  1  0
  5 55  1  0
  2 56  1  0
  1 57  1  0
  1 58  1  0
  1 59  1  0
 47  6  1  0
 29  8  1  0
 46 40  1  0
 21 12  1  0
 21 16  1  0
M  END
>  <cnnaffinities>  (55) 
[6.36782, 6.36133, 6.29523]

>  <score>  (55) 
6.36782

>  <index>  (55) 
57

>  <Smiles>  (55) 
C(N(C(=O)C(N1C([C@@]2(C(=O)N(c3c(nc(c4c(c(c(c(c34)[H])[H])[H])[H])[H])[H])C(C2(C([H])([H])[H])C([H])([H])[H])([H])[H])c2c(c(Cl)c(c(c2C1=O)[H])[H])[H])([H])[H])([H])[H])[H])([H])([H])[H]

>  <h>  (55) 
<NA>

>  <Training>  (55) 
True

>  <Success>  (55) 
True

>  <enamine_searched>  (55) 
False

>  <enamine_id>  (55) 
nan

$$$$

     RDKit          3D

 42 45  0  0  0  0  0  0  0  0999 V2000
  -10.7227   -3.7030  -21.5128 C   0  0  0  0  0  0  0  0  0  0  0  0
   -9.9186   -3.2309  -22.6303 N   0  0  0  0  0  0  0  0  0  0  0  0
  -10.0437   -1.8596  -23.1093 C   0  0  0  0  0  0  0  0  0  0  0  0
   -8.6858   -1.1861  -23.3950 C   0  0  1  0  0  0  0  0  0  0  0  0
   -8.0950   -0.5211  -22.1417 C   0  0  0  0  0  0  0  0  0  0  0  0
   -8.2469    0.6687  -21.9308 O   0  0  0  0  0  0  0  0  0  0  0  0
   -7.4073   -1.3383  -21.2865 N   0  0  0  0  0  0  0  0  0  0  0  0
   -6.6076   -0.8216  -20.2404 C   0  0  0  0  0  0  0  0  0  0  0  0
   -6.9234   -1.0820  -18.9335 C   0  0  0  0  0  0  0  0  0  0  0  0
   -6.2457   -0.5930  -17.8677 N   0  0  0  0  0  0  0  0  0  0  0  0
   -5.2183    0.1852  -18.1114 C   0  0  0  0  0  0  0  0  0  0  0  0
   -4.7552    0.5022  -19.4182 C   0  0  0  0  0  0  0  0  0  0  0  0
   -3.6153    1.3237  -19.6290 C   0  0  0  0  0  0  0  0  0  0  0  0
   -3.1822    1.5941  -20.8979 C   0  0  0  0  0  0  0  0  0  0  0  0
   -3.8543    1.0390  -22.0089 C   0  0  0  0  0  0  0  0  0  0  0  0
   -4.9504    0.2352  -21.8299 C   0  0  0  0  0  0  0  0  0  0  0  0
   -5.4545   -0.0254  -20.5224 C   0  0  0  0  0  0  0  0  0  0  0  0
   -5.4488   -0.2024  -22.6880 H   0  0  0  0  0  0  0  0  0  0  0  0
   -3.5003    1.2570  -23.0117 H   0  0  0  0  0  0  0  0  0  0  0  0
   -2.3201    2.2340  -21.0572 H   0  0  0  0  0  0  0  0  0  0  0  0
   -3.1108    1.7404  -18.7619 H   0  0  0  0  0  0  0  0  0  0  0  0
   -4.6873    0.5923  -17.2513 H   0  0  0  0  0  0  0  0  0  0  0  0
   -7.7795   -1.7104  -18.6948 H   0  0  0  0  0  0  0  0  0  0  0  0
   -7.5338   -2.3393  -21.3487 H   0  0  0  0  0  0  0  0  0  0  0  0
   -7.7920   -2.1415  -24.1517 C   0  0  0  0  0  0  0  0  0  0  0  0
   -6.8323   -1.6894  -25.0630 C   0  0  0  0  0  0  0  0  0  0  0  0
   -5.9979   -2.6071  -25.6907 C   0  0  0  0  0  0  0  0  0  0  0  0
   -4.7792   -2.0456  -26.8003 Cl  0  0  0  0  0  0  0  0  0  0  0  0
   -6.0920   -3.9764  -25.4522 C   0  0  0  0  0  0  0  0  0  0  0  0
   -7.0480   -4.4189  -24.5596 C   0  0  0  0  0  0  0  0  0  0  0  0
   -7.8881   -3.5085  -23.9232 C   0  0  0  0  0  0  0  0  0  0  0  0
   -8.8436   -4.0242  -22.9049 C   0  0  0  0  0  0  0  0  0  0  0  0
   -8.6655   -5.0836  -22.3211 O   0  0  0  0  0  0  0  0  0  0  0  0
   -7.1597   -5.4680  -24.3193 H   0  0  0  0  0  0  0  0  0  0  0  0
   -5.4259   -4.6760  -25.9483 H   0  0  0  0  0  0  0  0  0  0  0  0
   -6.7177   -0.6319  -25.2874 H   0  0  0  0  0  0  0  0  0  0  0  0
   -8.8770   -0.3137  -24.0158 H   0  0  0  0  0  0  0  0  0  0  0  0
  -10.5858   -1.3021  -22.3370 H   0  0  0  0  0  0  0  0  0  0  0  0
  -10.6287   -1.8057  -24.0377 H   0  0  0  0  0  0  0  0  0  0  0  0
  -11.2704   -4.6249  -21.7206 H   0  0  0  0  0  0  0  0  0  0  0  0
  -10.0417   -3.9245  -20.6912 H   0  0  0  0  0  0  0  0  0  0  0  0
  -11.4432   -2.9415  -21.2190 H   0  0  0  0  0  0  0  0  0  0  0  0
  1  2  1  0
  2  3  1  0
  3  4  1  0
  4  5  1  0
  5  6  2  0
  5  7  1  0
  7  8  1  0
  8  9  2  0
  9 10  1  0
 10 11  2  0
 11 12  1  0
 12 13  2  0
 13 14  1  0
 14 15  2  0
 15 16  1  0
 16 17  2  0
 16 18  1  0
 15 19  1  0
 14 20  1  0
 13 21  1  0
 11 22  1  0
  9 23  1  0
  7 24  1  0
  4 25  1  0
 25 26  2  0
 26 27  1  0
 27 28  1  0
 27 29  2  0
 29 30  1  0
 30 31  2  0
 31 32  1  0
 32 33  2  0
 30 34  1  0
 29 35  1  0
 26 36  1  0
  4 37  1  6
  3 38  1  0
  3 39  1  0
  1 40  1  0
  1 41  1  0
  1 42  1  0
 32  2  1  0
 17  8  1  0
 31 25  1  0
 17 12  1  0
M  END
>  <cnnaffinities>  (56) 
[5.4755, 5.33283, 5.02571]

>  <score>  (56) 
5.4755

>  <index>  (56) 
58

>  <Smiles>  (56) 
C(N1C([C@@](C(=O)N(c2c(nc(c3c(c(c(c(c23)[H])[H])[H])[H])[H])[H])[H])(c2c(c(Cl)c(c(c2C1=O)[H])[H])[H])[H])([H])[H])([H])([H])[H]

>  <h>  (56) 
<NA>

>  <Training>  (56) 
True

>  <Success>  (56) 
True

>  <enamine_searched>  (56) 
False

>  <enamine_id>  (56) 
nan

$$$$

     RDKit          3D

 60 65  0  0  0  0  0  0  0  0999 V2000
   -7.4223    3.4007  -21.7903 C   0  0  0  0  0  0  0  0  0  0  0  0
   -8.2588    2.9069  -22.8689 N   0  0  0  0  0  0  0  0  0  0  0  0
   -7.6840    2.2256  -23.8827 C   0  0  0  0  0  0  0  0  0  0  0  0
   -6.4721    2.1171  -24.0082 O   0  0  0  0  0  0  0  0  0  0  0  0
   -8.6446    1.6102  -24.9077 C   0  0  0  0  0  0  0  0  0  0  0  0
   -9.3703    0.4606  -24.4049 N   0  0  0  0  0  0  0  0  0  0  0  0
   -8.6553   -0.7888  -24.2343 C   0  0  0  0  0  0  0  0  0  0  0  0
   -9.0499   -1.5014  -22.9157 C   0  0  2  0  0  0  0  0  0  0  0  0
   -8.4977   -0.7213  -21.6968 C   0  0  0  0  0  0  0  0  0  0  0  0
   -8.9348    0.3102  -21.2221 O   0  0  0  0  0  0  0  0  0  0  0  0
   -7.3959   -1.3863  -21.2105 N   0  0  0  0  0  0  0  0  0  0  0  0
   -6.6007   -0.8145  -20.1810 C   0  0  0  0  0  0  0  0  0  0  0  0
   -6.9105   -1.0463  -18.8656 C   0  0  0  0  0  0  0  0  0  0  0  0
   -6.2054   -0.5603  -17.8170 N   0  0  0  0  0  0  0  0  0  0  0  0
   -5.1702    0.2007  -18.0815 C   0  0  0  0  0  0  0  0  0  0  0  0
   -4.7303    0.5246  -19.3972 C   0  0  0  0  0  0  0  0  0  0  0  0
   -3.6006    1.3538  -19.6432 C   0  0  0  0  0  0  0  0  0  0  0  0
   -3.2159    1.6472  -20.9225 C   0  0  0  0  0  0  0  0  0  0  0  0
   -3.9399    1.1247  -22.0160 C   0  0  0  0  0  0  0  0  0  0  0  0
   -5.0356    0.3215  -21.8053 C   0  0  0  0  0  0  0  0  0  0  0  0
   -5.4659    0.0024  -20.4885 C   0  0  0  0  0  0  0  0  0  0  0  0
   -5.5956   -0.0639  -22.6526 H   0  0  0  0  0  0  0  0  0  0  0  0
   -3.6486    1.3725  -23.0321 H   0  0  0  0  0  0  0  0  0  0  0  0
   -2.3634    2.3007  -21.0982 H   0  0  0  0  0  0  0  0  0  0  0  0
   -3.0719    1.7642  -18.7862 H   0  0  0  0  0  0  0  0  0  0  0  0
   -4.6258    0.6069  -17.2291 H   0  0  0  0  0  0  0  0  0  0  0  0
   -7.7669   -1.6677  -18.6117 H   0  0  0  0  0  0  0  0  0  0  0  0
   -7.0712   -2.6084  -21.9199 C   0  0  0  0  0  0  0  0  0  0  0  0
   -8.3236   -2.8752  -22.7778 C   0  0  2  0  0  0  0  0  0  0  0  0
   -7.9856   -3.6284  -24.0838 C   0  0  0  0  0  0  0  0  0  0  0  0
   -7.4485   -4.9910  -23.7924 C   0  0  0  0  0  0  0  0  0  0  0  0
   -6.1581   -5.2831  -23.7113 N   0  0  0  0  0  0  0  0  0  0  0  0
   -6.1199   -6.5733  -23.3893 N   0  0  0  0  0  0  0  0  0  0  0  0
   -7.3422   -7.0294  -23.2867 N   0  0  0  0  0  2  0  0  0  0  0  0
   -8.2038   -6.0490  -23.5360 N   0  0  0  0  0  0  0  0  0  0  0  0
   -7.2185   -3.0992  -24.6582 H   0  0  0  0  0  0  0  0  0  0  0  0
   -8.8797   -3.7579  -24.7005 H   0  0  0  0  0  0  0  0  0  0  0  0
   -8.9914   -3.5295  -22.2111 H   0  0  0  0  0  0  0  0  0  0  0  0
   -6.8571   -3.4319  -21.2280 H   0  0  0  0  0  0  0  0  0  0  0  0
   -6.1773   -2.4816  -22.5520 H   0  0  0  0  0  0  0  0  0  0  0  0
  -10.5665   -1.5428  -22.8416 C   0  0  0  0  0  0  0  0  0  0  0  0
  -11.1999   -2.4238  -21.9567 C   0  0  0  0  0  0  0  0  0  0  0  0
  -12.5795   -2.4412  -21.8673 C   0  0  0  0  0  0  0  0  0  0  0  0
  -13.3562   -3.5328  -20.7562 Cl  0  0  0  0  0  0  0  0  0  0  0  0
  -13.3671   -1.5820  -22.6335 C   0  0  0  0  0  0  0  0  0  0  0  0
  -12.7481   -0.6613  -23.4554 C   0  0  0  0  0  0  0  0  0  0  0  0
  -11.3571   -0.6130  -23.5325 C   0  0  0  0  0  0  0  0  0  0  0  0
  -10.7299    0.5259  -24.2790 C   0  0  0  0  0  0  0  0  0  0  0  0
  -11.3885    1.4686  -24.7023 O   0  0  0  0  0  0  0  0  0  0  0  0
  -13.3093    0.0652  -24.0348 H   0  0  0  0  0  0  0  0  0  0  0  0
  -14.4454   -1.6238  -22.5507 H   0  0  0  0  0  0  0  0  0  0  0  0
  -10.6254   -3.0754  -21.3090 H   0  0  0  0  0  0  0  0  0  0  0  0
   -7.5886   -0.5446  -24.2177 H   0  0  0  0  0  0  0  0  0  0  0  0
   -8.8615   -1.4713  -25.0766 H   0  0  0  0  0  0  0  0  0  0  0  0
   -8.0182    1.3398  -25.7653 H   0  0  0  0  0  0  0  0  0  0  0  0
   -9.4228    2.3150  -25.2119 H   0  0  0  0  0  0  0  0  0  0  0  0
   -9.2522    2.8267  -22.7142 H   0  0  0  0  0  0  0  0  0  0  0  0
   -6.8925    2.5694  -21.2966 H   0  0  0  0  0  0  0  0  0  0  0  0
   -6.6772    4.1111  -22.1677 H   0  0  0  0  0  0  0  0  0  0  0  0
   -8.0745    3.9217  -21.0929 H   0  0  0  0  0  0  0  0  0  0  0  0
  1  2  1  0
  2  3  1  0
  3  4  2  0
  3  5  1  0
  5  6  1  0
  6  7  1  0
  8  7  1  6
  8  9  1  0
  9 10  2  0
  9 11  1  0
 11 12  1  0
 12 13  2  0
 13 14  1  0
 14 15  2  0
 15 16  1  0
 16 17  2  0
 17 18  1  0
 18 19  2  0
 19 20  1  0
 20 21  2  0
 20 22  1  0
 19 23  1  0
 18 24  1  0
 17 25  1  0
 15 26  1  0
 13 27  1  0
 11 28  1  0
 28 29  1  0
 29 30  1  0
 30 31  1  0
 31 32  1  0
 32 33  2  0
 33 34  1  0
 34 35  1  0
 30 36  1  0
 30 37  1  0
 29 38  1  1
 28 39  1  0
 28 40  1  0
  8 41  1  0
 41 42  2  0
 42 43  1  0
 43 44  1  0
 43 45  2  0
 45 46  1  0
 46 47  2  0
 47 48  1  0
 48 49  2  0
 46 50  1  0
 45 51  1  0
 42 52  1  0
  7 53  1  0
  7 54  1  0
  5 55  1  0
  5 56  1  0
  2 57  1  0
  1 58  1  0
  1 59  1  0
  1 60  1  0
 48  6  1  0
 29  8  1  0
 35 31  2  0
 47 41  1  0
 21 12  1  0
 21 16  1  0
M  CHG  1  34  -1
M  END
>  <cnnaffinities>  (57) 
[6.49242, 6.49104, 6.37761]

>  <score>  (57) 
6.49242

>  <index>  (57) 
59

>  <Smiles>  (57) 
C(N(C(=O)C(N1C([C@@]2(C(=O)N(c3c(nc(c4c(c(c(c(c34)[H])[H])[H])[H])[H])[H])C([C@@]2(C(c2nn[n-]n2)([H])[H])[H])([H])[H])c2c(c(Cl)c(c(c2C1=O)[H])[H])[H])([H])[H])([H])[H])[H])([H])([H])[H]

>  <h>  (57) 
<NA>

>  <Training>  (57) 
True

>  <Success>  (57) 
True

>  <enamine_searched>  (57) 
False

>  <enamine_id>  (57) 
nan

$$$$

     RDKit          3D

 62 67  0  0  0  0  0  0  0  0999 V2000
  -11.3174    4.3021  -25.2310 C   0  0  0  0  0  0  0  0  0  0  0  0
   -9.8233    4.1725  -25.5282 C   0  0  0  0  0  0  0  0  0  0  0  0
   -9.0688    3.5893  -24.4254 N   0  0  0  0  0  0  0  0  0  0  0  0
   -8.4878    4.4118  -23.5385 N   0  0  0  0  0  0  0  0  0  0  0  0
   -7.9032    3.6198  -22.6501 C   0  0  0  0  0  0  0  0  0  0  0  0
   -8.1109    2.2647  -22.9707 C   0  0  0  0  0  0  0  0  0  0  0  0
   -8.8898    2.2762  -24.1054 C   0  0  0  0  0  0  0  0  0  0  0  0
   -9.3907    1.1028  -24.9059 C   0  0  0  0  0  0  0  0  0  0  0  0
   -9.8539    0.0008  -24.0806 N   0  0  0  0  0  0  0  0  0  0  0  0
   -9.0391   -1.1949  -23.9797 C   0  0  0  0  0  0  0  0  0  0  0  0
   -9.2210   -1.9102  -22.6153 C   0  0  2  0  0  0  0  0  0  0  0  0
   -8.6612   -1.0285  -21.4705 C   0  0  0  0  0  0  0  0  0  0  0  0
   -9.2304   -0.1069  -20.9100 O   0  0  0  0  0  0  0  0  0  0  0  0
   -7.3767   -1.4334  -21.1950 N   0  0  0  0  0  0  0  0  0  0  0  0
   -6.6004   -0.8244  -20.1710 C   0  0  0  0  0  0  0  0  0  0  0  0
   -6.9071   -1.0508  -18.8531 C   0  0  0  0  0  0  0  0  0  0  0  0
   -6.1970   -0.5573  -17.8106 N   0  0  0  0  0  0  0  0  0  0  0  0
   -5.1666    0.2034  -18.0823 C   0  0  0  0  0  0  0  0  0  0  0  0
   -4.7320    0.5226  -19.3996 C   0  0  0  0  0  0  0  0  0  0  0  0
   -3.6056    1.3550  -19.6433 C   0  0  0  0  0  0  0  0  0  0  0  0
   -3.2266    1.6566  -20.9196 C   0  0  0  0  0  0  0  0  0  0  0  0
   -3.9559    1.1359  -22.0135 C   0  0  0  0  0  0  0  0  0  0  0  0
   -5.0489    0.3264  -21.8032 C   0  0  0  0  0  0  0  0  0  0  0  0
   -5.4665   -0.0055  -20.4879 C   0  0  0  0  0  0  0  0  0  0  0  0
   -5.6038   -0.0609  -22.6532 H   0  0  0  0  0  0  0  0  0  0  0  0
   -3.6563    1.3895  -23.0254 H   0  0  0  0  0  0  0  0  0  0  0  0
   -2.3772    2.3114  -21.1007 H   0  0  0  0  0  0  0  0  0  0  0  0
   -3.0747    1.7647  -18.7861 H   0  0  0  0  0  0  0  0  0  0  0  0
   -4.6199    0.6150  -17.2317 H   0  0  0  0  0  0  0  0  0  0  0  0
   -7.7573   -1.6748  -18.5870 H   0  0  0  0  0  0  0  0  0  0  0  0
   -6.9631   -2.6144  -21.9355 C   0  0  0  0  0  0  0  0  0  0  0  0
   -8.2905   -3.1593  -22.5102 C   0  0  2  0  0  0  0  0  0  0  0  0
   -8.0947   -3.9864  -23.7847 C   0  0  0  0  0  0  0  0  0  0  0  0
   -7.5548   -3.4108  -24.5486 H   0  0  0  0  0  0  0  0  0  0  0  0
   -7.5060   -4.8899  -23.5815 H   0  0  0  0  0  0  0  0  0  0  0  0
   -9.0514   -4.2989  -24.2210 H   0  0  0  0  0  0  0  0  0  0  0  0
   -8.7274   -3.7977  -21.7358 H   0  0  0  0  0  0  0  0  0  0  0  0
   -6.4631   -3.3260  -21.2691 H   0  0  0  0  0  0  0  0  0  0  0  0
   -6.2545   -2.3618  -22.7399 H   0  0  0  0  0  0  0  0  0  0  0  0
  -10.7061   -2.1426  -22.4236 C   0  0  0  0  0  0  0  0  0  0  0  0
  -11.2046   -3.2325  -21.7017 C   0  0  0  0  0  0  0  0  0  0  0  0
  -12.5615   -3.3299  -21.4810 C   0  0  0  0  0  0  0  0  0  0  0  0
  -13.0398   -4.3501  -20.7486 F   0  0  0  0  0  0  0  0  0  0  0  0
  -13.4693   -2.4008  -21.9680 C   0  0  0  0  0  0  0  0  0  0  0  0
  -12.9818   -1.2992  -22.6403 C   0  0  0  0  0  0  0  0  0  0  0  0
  -11.6139   -1.1687  -22.8748 C   0  0  0  0  0  0  0  0  0  0  0  0
  -11.1449    0.0378  -23.6394 C   0  0  0  0  0  0  0  0  0  0  0  0
  -11.8825    0.9891  -23.8705 O   0  0  0  0  0  0  0  0  0  0  0  0
  -13.6348   -0.5137  -23.0044 H   0  0  0  0  0  0  0  0  0  0  0  0
  -14.5224   -2.5986  -21.8193 H   0  0  0  0  0  0  0  0  0  0  0  0
  -10.5741   -3.9965  -21.2599 H   0  0  0  0  0  0  0  0  0  0  0  0
   -9.2989   -1.9076  -24.7810 H   0  0  0  0  0  0  0  0  0  0  0  0
   -7.9935   -0.8952  -24.0898 H   0  0  0  0  0  0  0  0  0  0  0  0
  -10.2074    1.4057  -25.5699 H   0  0  0  0  0  0  0  0  0  0  0  0
   -8.5753    0.7038  -25.5192 H   0  0  0  0  0  0  0  0  0  0  0  0
   -7.7797    1.3712  -22.4617 H   0  0  0  0  0  0  0  0  0  0  0  0
   -7.3657    4.0665  -21.8189 H   0  0  0  0  0  0  0  0  0  0  0  0
   -9.3670    5.1533  -25.7068 H   0  0  0  0  0  0  0  0  0  0  0  0
   -9.6495    3.5502  -26.4158 H   0  0  0  0  0  0  0  0  0  0  0  0
  -11.7707    3.3207  -25.0412 H   0  0  0  0  0  0  0  0  0  0  0  0
  -11.4844    4.9448  -24.3586 H   0  0  0  0  0  0  0  0  0  0  0  0
  -11.8196    4.7597  -26.0904 H   0  0  0  0  0  0  0  0  0  0  0  0
  1  2  1  0
  2  3  1  0
  3  4  1  0
  4  5  2  0
  5  6  1  0
  6  7  2  0
  7  8  1  0
  8  9  1  0
  9 10  1  0
 11 10  1  6
 11 12  1  0
 12 13  2  0
 12 14  1  0
 14 15  1  0
 15 16  2  0
 16 17  1  0
 17 18  2  0
 18 19  1  0
 19 20  2  0
 20 21  1  0
 21 22  2  0
 22 23  1  0
 23 24  2  0
 23 25  1  0
 22 26  1  0
 21 27  1  0
 20 28  1  0
 18 29  1  0
 16 30  1  0
 14 31  1  0
 31 32  1  0
 32 33  1  0
 33 34  1  0
 33 35  1  0
 33 36  1  0
 32 37  1  1
 31 38  1  0
 31 39  1  0
 11 40  1  0
 40 41  2  0
 41 42  1  0
 42 43  1  0
 42 44  2  0
 44 45  1  0
 45 46  2  0
 46 47  1  0
 47 48  2  0
 45 49  1  0
 44 50  1  0
 41 51  1  0
 10 52  1  0
 10 53  1  0
  8 54  1  0
  8 55  1  0
  6 56  1  0
  5 57  1  0
  2 58  1  0
  2 59  1  0
  1 60  1  0
  1 61  1  0
  1 62  1  0
  7  3  1  0
 47  9  1  0
 32 11  1  0
 46 40  1  0
 24 15  1  0
 24 19  1  0
M  END
>  <cnnaffinities>  (58) 
[6.74465]

>  <score>  (58) 
6.74465

>  <index>  (58) 
60

>  <Smiles>  (58) 
C(C(n1nc(c(c1C(N1C([C@@]2(C(=O)N(c3c(nc(c4c(c(c(c(c34)[H])[H])[H])[H])[H])[H])C([C@@]2(C([H])([H])[H])[H])([H])[H])c2c(c(F)c(c(c2C1=O)[H])[H])[H])([H])[H])([H])[H])[H])[H])([H])[H])([H])([H])[H]

>  <h>  (58) 
<NA>

>  <Training>  (58) 
True

>  <Success>  (58) 
True

>  <enamine_searched>  (58) 
False

>  <enamine_id>  (58) 
nan

$$$$

     RDKit          3D

 44 47  0  0  0  0  0  0  0  0999 V2000
   -8.4063    0.7607  -21.5408 O   0  0  0  0  0  0  0  0  0  0  0  0
   -8.5348   -0.4337  -21.7699 C   0  0  0  0  0  0  0  0  0  0  0  0
   -7.4740   -1.4340  -21.2690 C   0  0  0  0  0  0  0  0  0  0  0  0
   -6.5972   -0.8436  -20.1939 C   0  0  0  0  0  0  0  0  0  0  0  0
   -6.8999   -1.0599  -18.8753 C   0  0  0  0  0  0  0  0  0  0  0  0
   -6.2150   -0.5622  -17.8133 N   0  0  0  0  0  0  0  0  0  0  0  0
   -5.1830    0.2014  -18.0773 C   0  0  0  0  0  0  0  0  0  0  0  0
   -4.7451    0.5159  -19.3924 C   0  0  0  0  0  0  0  0  0  0  0  0
   -3.6121    1.3386  -19.6283 C   0  0  0  0  0  0  0  0  0  0  0  0
   -3.2241    1.6352  -20.9051 C   0  0  0  0  0  0  0  0  0  0  0  0
   -3.9518    1.1235  -22.0021 C   0  0  0  0  0  0  0  0  0  0  0  0
   -5.0532    0.3249  -21.8004 C   0  0  0  0  0  0  0  0  0  0  0  0
   -5.4755   -0.0084  -20.4850 C   0  0  0  0  0  0  0  0  0  0  0  0
   -5.6183   -0.0404  -22.6512 H   0  0  0  0  0  0  0  0  0  0  0  0
   -3.6387    1.3699  -23.0125 H   0  0  0  0  0  0  0  0  0  0  0  0
   -2.3627    2.2755  -21.0825 H   0  0  0  0  0  0  0  0  0  0  0  0
   -3.0761    1.7387  -18.7705 H   0  0  0  0  0  0  0  0  0  0  0  0
   -4.6330    0.6077  -17.2264 H   0  0  0  0  0  0  0  0  0  0  0  0
   -7.7540   -1.6820  -18.6083 H   0  0  0  0  0  0  0  0  0  0  0  0
   -6.8634   -1.7785  -22.1157 H   0  0  0  0  0  0  0  0  0  0  0  0
   -7.9810   -2.3237  -20.8718 H   0  0  0  0  0  0  0  0  0  0  0  0
   -9.6171   -0.9201  -22.4530 N   0  0  0  0  0  0  0  0  0  0  0  0
   -9.7736   -2.3139  -22.8803 C   0  0  0  0  0  0  0  0  0  0  0  0
  -10.8289   -2.4247  -23.9865 C   0  0  0  0  0  0  0  0  0  0  0  0
  -12.2155   -1.9459  -23.5414 C   0  0  0  0  0  0  0  0  0  0  0  0
  -13.2936   -1.7891  -24.6526 C   0  0  0  0  0  0  0  0  0  0  0  0
  -14.2662   -2.6864  -23.8469 C   0  0  0  0  0  0  0  0  0  0  0  0
  -13.1316   -3.0105  -22.8604 C   0  0  0  0  0  0  0  0  0  0  0  0
  -13.3728   -2.8192  -21.8082 H   0  0  0  0  0  0  0  0  0  0  0  0
  -12.7558   -4.0347  -22.9437 H   0  0  0  0  0  0  0  0  0  0  0  0
  -15.0598   -2.0818  -23.3940 H   0  0  0  0  0  0  0  0  0  0  0  0
  -14.7203   -3.5473  -24.3497 H   0  0  0  0  0  0  0  0  0  0  0  0
  -13.6540   -0.7661  -24.8034 H   0  0  0  0  0  0  0  0  0  0  0  0
  -12.9794   -2.1597  -25.6294 H   0  0  0  0  0  0  0  0  0  0  0  0
  -12.0362   -0.7282  -22.6319 C   0  0  0  0  0  0  0  0  0  0  0  0
  -10.7081    0.0084  -22.7593 C   0  0  0  0  0  0  0  0  0  0  0  0
  -10.6557    0.8178  -22.0288 H   0  0  0  0  0  0  0  0  0  0  0  0
  -10.5682    0.4660  -23.7487 H   0  0  0  0  0  0  0  0  0  0  0  0
  -12.8892   -0.0429  -22.6944 H   0  0  0  0  0  0  0  0  0  0  0  0
  -12.0228   -1.1389  -21.6282 H   0  0  0  0  0  0  0  0  0  0  0  0
  -10.5028   -1.8177  -24.8423 H   0  0  0  0  0  0  0  0  0  0  0  0
  -10.8765   -3.4612  -24.3382 H   0  0  0  0  0  0  0  0  0  0  0  0
   -8.8148   -2.6832  -23.2640 H   0  0  0  0  0  0  0  0  0  0  0  0
  -10.0427   -2.9618  -22.0291 H   0  0  0  0  0  0  0  0  0  0  0  0
  1  2  2  0
  2  3  1  0
  3  4  1  0
  4  5  2  0
  5  6  1  0
  6  7  2  0
  7  8  1  0
  8  9  2  0
  9 10  1  0
 10 11  2  0
 11 12  1  0
 12 13  2  0
 12 14  1  0
 11 15  1  0
 10 16  1  0
  9 17  1  0
  7 18  1  0
  5 19  1  0
  3 20  1  0
  3 21  1  0
  2 22  1  0
 22 23  1  0
 23 24  1  0
 24 25  1  0
 25 26  1  0
 26 27  1  0
 27 28  1  0
 28 29  1  0
 28 30  1  0
 27 31  1  0
 27 32  1  0
 26 33  1  0
 26 34  1  0
 25 35  1  0
 35 36  1  0
 36 37  1  0
 36 38  1  0
 35 39  1  0
 35 40  1  0
 24 41  1  0
 24 42  1  0
 23 43  1  0
 23 44  1  0
 13  4  1  0
 36 22  1  0
 13  8  1  0
 28 25  1  0
M  END
>  <cnnaffinities>  (59) 
[4.5637, 4.56634, 4.55751]

>  <score>  (59) 
4.5637

>  <index>  (59) 
61

>  <Smiles>  (59) 
O=C(C(c1c(nc(c2c(c(c(c(c12)[H])[H])[H])[H])[H])[H])([H])[H])N1C(C(C2(C(C(C2([H])[H])([H])[H])([H])[H])C(C1([H])[H])([H])[H])([H])[H])([H])[H]

>  <h>  (59) 
<NA>

>  <Training>  (59) 
True

>  <Success>  (59) 
True

>  <enamine_searched>  (59) 
False

>  <enamine_id>  (59) 
nan

$$$$

     RDKit          3D

 44 47  0  0  0  0  0  0  0  0999 V2000
   -5.6328   -3.2114  -21.3546 O   0  0  0  0  0  0  0  0  0  0  0  0
   -6.7558   -2.9120  -21.7256 C   0  0  0  0  0  0  0  0  0  0  0  0
   -7.3928   -1.5746  -21.3099 C   0  0  0  0  0  0  0  0  0  0  0  0
   -6.5954   -0.8971  -20.2314 C   0  0  0  0  0  0  0  0  0  0  0  0
   -6.9218   -1.1067  -18.9198 C   0  0  0  0  0  0  0  0  0  0  0  0
   -6.2596   -0.6008  -17.8481 N   0  0  0  0  0  0  0  0  0  0  0  0
   -5.2204    0.1606  -18.1007 C   0  0  0  0  0  0  0  0  0  0  0  0
   -4.7530    0.4551  -19.4105 C   0  0  0  0  0  0  0  0  0  0  0  0
   -3.6248    1.2863  -19.6368 C   0  0  0  0  0  0  0  0  0  0  0  0
   -3.2195    1.5769  -20.9117 C   0  0  0  0  0  0  0  0  0  0  0  0
   -3.9141    1.0347  -22.0162 C   0  0  0  0  0  0  0  0  0  0  0  0
   -4.9986    0.2122  -21.8240 C   0  0  0  0  0  0  0  0  0  0  0  0
   -5.4536   -0.0898  -20.5127 C   0  0  0  0  0  0  0  0  0  0  0  0
   -5.5186   -0.2111  -22.6777 H   0  0  0  0  0  0  0  0  0  0  0  0
   -3.5942    1.2838  -23.0247 H   0  0  0  0  0  0  0  0  0  0  0  0
   -2.3709    2.2356  -21.0813 H   0  0  0  0  0  0  0  0  0  0  0  0
   -3.1090    1.7036  -18.7751 H   0  0  0  0  0  0  0  0  0  0  0  0
   -4.6883    0.5766  -17.2436 H   0  0  0  0  0  0  0  0  0  0  0  0
   -7.7832   -1.7264  -18.6675 H   0  0  0  0  0  0  0  0  0  0  0  0
   -8.4023   -1.7817  -20.9271 H   0  0  0  0  0  0  0  0  0  0  0  0
   -7.5153   -0.9310  -22.1908 H   0  0  0  0  0  0  0  0  0  0  0  0
   -7.5022   -3.7579  -22.5090 N   0  0  0  0  0  0  0  0  0  0  0  0
   -7.1357   -5.1686  -22.4903 C   0  0  0  0  0  0  0  0  0  0  0  0
   -7.3147   -5.7898  -23.8583 C   0  0  0  0  0  0  0  0  0  0  0  0
   -8.7475   -5.6135  -24.3399 C   0  0  0  0  0  0  0  0  0  0  0  0
   -8.9473   -6.4280  -25.6055 C   0  0  0  0  0  0  0  0  0  0  0  0
  -10.2974   -6.6233  -26.2412 C   0  0  0  0  0  0  0  0  0  0  0  0
   -9.2149   -5.8770  -26.9722 C   0  0  0  0  0  0  0  0  0  0  0  0
   -9.3183   -4.8052  -27.1178 H   0  0  0  0  0  0  0  0  0  0  0  0
   -8.7299   -6.3852  -27.7968 H   0  0  0  0  0  0  0  0  0  0  0  0
  -10.5815   -7.6115  -26.5956 H   0  0  0  0  0  0  0  0  0  0  0  0
  -11.1275   -6.0389  -25.8542 H   0  0  0  0  0  0  0  0  0  0  0  0
   -8.3154   -7.3161  -25.6093 H   0  0  0  0  0  0  0  0  0  0  0  0
   -9.0966   -4.1233  -24.3647 C   0  0  0  0  0  0  0  0  0  0  0  0
   -8.8700   -3.5245  -22.9712 C   0  0  0  0  0  0  0  0  0  0  0  0
   -9.5697   -4.0104  -22.2716 H   0  0  0  0  0  0  0  0  0  0  0  0
   -9.0934   -2.4554  -22.9712 H   0  0  0  0  0  0  0  0  0  0  0  0
   -8.4776   -3.5906  -25.0960 H   0  0  0  0  0  0  0  0  0  0  0  0
  -10.1445   -3.9687  -24.6548 H   0  0  0  0  0  0  0  0  0  0  0  0
   -9.3883   -6.0569  -23.5727 H   0  0  0  0  0  0  0  0  0  0  0  0
   -7.0748   -6.8588  -23.8124 H   0  0  0  0  0  0  0  0  0  0  0  0
   -6.6369   -5.3361  -24.5891 H   0  0  0  0  0  0  0  0  0  0  0  0
   -6.1131   -5.2580  -22.1298 H   0  0  0  0  0  0  0  0  0  0  0  0
   -7.7876   -5.6937  -21.7732 H   0  0  0  0  0  0  0  0  0  0  0  0
  1  2  2  0
  2  3  1  0
  3  4  1  0
  4  5  2  0
  5  6  1  0
  6  7  2  0
  7  8  1  0
  8  9  2  0
  9 10  1  0
 10 11  2  0
 11 12  1  0
 12 13  2  0
 12 14  1  0
 11 15  1  0
 10 16  1  0
  9 17  1  0
  7 18  1  0
  5 19  1  0
  3 20  1  0
  3 21  1  0
  2 22  1  0
 22 23  1  0
 23 24  1  0
 24 25  1  0
 25 26  1  0
 26 27  1  0
 27 28  1  0
 28 29  1  0
 28 30  1  0
 27 31  1  0
 27 32  1  0
 26 33  1  0
 25 34  1  0
 34 35  1  0
 35 36  1  0
 35 37  1  0
 34 38  1  0
 34 39  1  0
 25 40  1  0
 24 41  1  0
 24 42  1  0
 23 43  1  0
 23 44  1  0
 13  4  1  0
 35 22  1  0
 13  8  1  0
 28 26  1  0
M  END
>  <cnnaffinities>  (60) 
[4.8793]

>  <score>  (60) 
4.8793

>  <index>  (60) 
62

>  <Smiles>  (60) 
O=C(C(c1c(nc(c2c(c(c(c(c12)[H])[H])[H])[H])[H])[H])([H])[H])N1C(C(C(C2(C(C2([H])[H])([H])[H])[H])(C(C1([H])[H])([H])[H])[H])([H])[H])([H])[H]

>  <h>  (60) 
<NA>

>  <Training>  (60) 
True

>  <Success>  (60) 
True

>  <enamine_searched>  (60) 
False

>  <enamine_id>  (60) 
nan

$$$$

     RDKit          3D

 57 61  0  0  0  0  0  0  0  0999 V2000
   -7.3548    3.4346  -21.8524 C   0  0  0  0  0  0  0  0  0  0  0  0
   -8.1751    2.9445  -22.9431 N   0  0  0  0  0  0  0  0  0  0  0  0
   -7.5994    2.2449  -23.9472 C   0  0  0  0  0  0  0  0  0  0  0  0
   -6.3848    2.1239  -24.0548 O   0  0  0  0  0  0  0  0  0  0  0  0
   -8.5511    1.6250  -24.9755 C   0  0  0  0  0  0  0  0  0  0  0  0
   -9.2917    0.4848  -24.4698 N   0  0  0  0  0  0  0  0  0  0  0  0
   -8.5956   -0.7734  -24.2862 C   0  0  0  0  0  0  0  0  0  0  0  0
   -9.0110   -1.4782  -22.9650 C   0  0  2  0  0  0  0  0  0  0  0  0
   -8.4605   -0.6900  -21.7498 C   0  0  0  0  0  0  0  0  0  0  0  0
   -8.8677    0.3689  -21.3165 O   0  0  0  0  0  0  0  0  0  0  0  0
   -7.4026   -1.3846  -21.2106 N   0  0  0  0  0  0  0  0  0  0  0  0
   -6.6049   -0.8110  -20.1814 C   0  0  0  0  0  0  0  0  0  0  0  0
   -6.9095   -1.0459  -18.8669 C   0  0  0  0  0  0  0  0  0  0  0  0
   -6.2028   -0.5596  -17.8175 N   0  0  0  0  0  0  0  0  0  0  0  0
   -5.1697    0.2037  -18.0819 C   0  0  0  0  0  0  0  0  0  0  0  0
   -4.7312    0.5271  -19.3973 C   0  0  0  0  0  0  0  0  0  0  0  0
   -3.6003    1.3554  -19.6432 C   0  0  0  0  0  0  0  0  0  0  0  0
   -3.2119    1.6458  -20.9216 C   0  0  0  0  0  0  0  0  0  0  0  0
   -3.9346    1.1186  -22.0159 C   0  0  0  0  0  0  0  0  0  0  0  0
   -5.0307    0.3162  -21.8044 C   0  0  0  0  0  0  0  0  0  0  0  0
   -5.4678    0.0032  -20.4892 C   0  0  0  0  0  0  0  0  0  0  0  0
   -5.5851   -0.0742  -22.6534 H   0  0  0  0  0  0  0  0  0  0  0  0
   -3.6419    1.3636  -23.0309 H   0  0  0  0  0  0  0  0  0  0  0  0
   -2.3601    2.2969  -21.0989 H   0  0  0  0  0  0  0  0  0  0  0  0
   -3.0722    1.7677  -18.7860 H   0  0  0  0  0  0  0  0  0  0  0  0
   -4.6244    0.6109  -17.2289 H   0  0  0  0  0  0  0  0  0  0  0  0
   -7.7631   -1.6676  -18.6083 H   0  0  0  0  0  0  0  0  0  0  0  0
   -7.0773   -2.6172  -21.9024 C   0  0  0  0  0  0  0  0  0  0  0  0
   -8.3079   -2.8643  -22.8084 C   0  0  2  0  0  0  0  0  0  0  0  0
   -7.9397   -3.5871  -24.1055 C   0  0  0  0  0  0  0  0  0  0  0  0
   -7.4320   -4.8608  -23.7583 O   0  0  0  0  0  0  0  0  0  0  0  0
   -7.2018   -5.3251  -24.5730 H   0  0  0  0  0  0  0  0  0  0  0  0
   -7.1792   -3.0047  -24.6515 H   0  0  0  0  0  0  0  0  0  0  0  0
   -8.8243   -3.6818  -24.7559 H   0  0  0  0  0  0  0  0  0  0  0  0
   -8.9959   -3.5259  -22.2775 H   0  0  0  0  0  0  0  0  0  0  0  0
   -6.9111   -3.4285  -21.1855 H   0  0  0  0  0  0  0  0  0  0  0  0
   -6.1523   -2.5047  -22.4896 H   0  0  0  0  0  0  0  0  0  0  0  0
  -10.5300   -1.4897  -22.8949 C   0  0  0  0  0  0  0  0  0  0  0  0
  -11.1798   -2.3357  -21.9878 C   0  0  0  0  0  0  0  0  0  0  0  0
  -12.5597   -2.3326  -21.9035 C   0  0  0  0  0  0  0  0  0  0  0  0
  -13.3567   -3.3883  -20.7737 Cl  0  0  0  0  0  0  0  0  0  0  0  0
  -13.3318   -1.4772  -22.6895 C   0  0  0  0  0  0  0  0  0  0  0  0
  -12.6950   -0.5829  -23.5271 C   0  0  0  0  0  0  0  0  0  0  0  0
  -11.3023   -0.5569  -23.6035 C   0  0  0  0  0  0  0  0  0  0  0  0
  -10.6538    0.5648  -24.3604 C   0  0  0  0  0  0  0  0  0  0  0  0
  -11.2935    1.5090  -24.8043 O   0  0  0  0  0  0  0  0  0  0  0  0
  -13.2479    0.1397  -24.1184 H   0  0  0  0  0  0  0  0  0  0  0  0
  -14.4119   -1.4988  -22.6065 H   0  0  0  0  0  0  0  0  0  0  0  0
  -10.6205   -2.9750  -21.3135 H   0  0  0  0  0  0  0  0  0  0  0  0
   -7.5256   -0.5416  -24.2575 H   0  0  0  0  0  0  0  0  0  0  0  0
   -8.8000   -1.4492  -25.1334 H   0  0  0  0  0  0  0  0  0  0  0  0
   -7.9194    1.3391  -25.8236 H   0  0  0  0  0  0  0  0  0  0  0  0
   -9.3165    2.3317  -25.3065 H   0  0  0  0  0  0  0  0  0  0  0  0
   -9.1745    2.8916  -22.8135 H   0  0  0  0  0  0  0  0  0  0  0  0
   -6.6130    4.1550  -22.2163 H   0  0  0  0  0  0  0  0  0  0  0  0
   -8.0234    3.9409  -21.1573 H   0  0  0  0  0  0  0  0  0  0  0  0
   -6.8191    2.6083  -21.3567 H   0  0  0  0  0  0  0  0  0  0  0  0
  1  2  1  0
  2  3  1  0
  3  4  2  0
  3  5  1  0
  5  6  1  0
  6  7  1  0
  8  7  1  6
  8  9  1  0
  9 10  2  0
  9 11  1  0
 11 12  1  0
 12 13  2  0
 13 14  1  0
 14 15  2  0
 15 16  1  0
 16 17  2  0
 17 18  1  0
 18 19  2  0
 19 20  1  0
 20 21  2  0
 20 22  1  0
 19 23  1  0
 18 24  1  0
 17 25  1  0
 15 26  1  0
 13 27  1  0
 11 28  1  0
 28 29  1  0
 29 30  1  0
 30 31  1  0
 31 32  1  0
 30 33  1  0
 30 34  1  0
 29 35  1  1
 28 36  1  0
 28 37  1  0
  8 38  1  0
 38 39  2  0
 39 40  1  0
 40 41  1  0
 40 42  2  0
 42 43  1  0
 43 44  2  0
 44 45  1  0
 45 46  2  0
 43 47  1  0
 42 48  1  0
 39 49  1  0
  7 50  1  0
  7 51  1  0
  5 52  1  0
  5 53  1  0
  2 54  1  0
  1 55  1  0
  1 56  1  0
  1 57  1  0
 45  6  1  0
 29  8  1  0
 44 38  1  0
 21 12  1  0
 21 16  1  0
M  END
>  <cnnaffinities>  (61) 
[5.83072, 6.24266]

>  <score>  (61) 
5.83072

>  <index>  (61) 
63

>  <Smiles>  (61) 
C(N(C(=O)C(N1C([C@@]2(C(=O)N(c3c(nc(c4c(c(c(c(c34)[H])[H])[H])[H])[H])[H])C([C@@]2(C(O[H])([H])[H])[H])([H])[H])c2c(c(Cl)c(c(c2C1=O)[H])[H])[H])([H])[H])([H])[H])[H])([H])([H])[H]

>  <h>  (61) 
<NA>

>  <Training>  (61) 
True

>  <Success>  (61) 
True

>  <enamine_searched>  (61) 
False

>  <enamine_id>  (61) 
nan

$$$$

     RDKit          3D

 55 60  0  0  0  0  0  0  0  0999 V2000
   -7.8962   -3.6550  -24.0577 C   0  0  0  0  0  0  0  0  0  0  0  0
   -8.3050   -2.8584  -22.8104 C   0  0  1  0  0  0  0  0  0  0  0  0
   -7.1145   -2.6395  -21.8494 C   0  0  0  0  0  0  0  0  0  0  0  0
   -7.4129   -1.3787  -21.1991 N   0  0  0  0  0  0  0  0  0  0  0  0
   -6.6048   -0.8058  -20.1770 C   0  0  0  0  0  0  0  0  0  0  0  0
   -6.9010   -1.0474  -18.8620 C   0  0  0  0  0  0  0  0  0  0  0  0
   -6.1921   -0.5612  -17.8147 N   0  0  0  0  0  0  0  0  0  0  0  0
   -5.1652    0.2083  -18.0778 C   0  0  0  0  0  0  0  0  0  0  0  0
   -4.7285    0.5305  -19.3956 C   0  0  0  0  0  0  0  0  0  0  0  0
   -3.5972    1.3577  -19.6404 C   0  0  0  0  0  0  0  0  0  0  0  0
   -3.2016    1.6357  -20.9178 C   0  0  0  0  0  0  0  0  0  0  0  0
   -3.9081    1.0853  -22.0097 C   0  0  0  0  0  0  0  0  0  0  0  0
   -5.0023    0.2789  -21.7988 C   0  0  0  0  0  0  0  0  0  0  0  0
   -5.4580   -0.0024  -20.4839 C   0  0  0  0  0  0  0  0  0  0  0  0
   -5.5606   -0.1030  -22.6497 H   0  0  0  0  0  0  0  0  0  0  0  0
   -3.6106    1.3311  -23.0243 H   0  0  0  0  0  0  0  0  0  0  0  0
   -2.3522    2.2898  -21.0999 H   0  0  0  0  0  0  0  0  0  0  0  0
   -3.0705    1.7747  -18.7849 H   0  0  0  0  0  0  0  0  0  0  0  0
   -4.6206    0.6163  -17.2247 H   0  0  0  0  0  0  0  0  0  0  0  0
   -7.7510   -1.6725  -18.5981 H   0  0  0  0  0  0  0  0  0  0  0  0
   -8.3836   -0.6348  -21.8277 C   0  0  0  0  0  0  0  0  0  0  0  0
   -8.7213    0.4747  -21.4633 O   0  0  0  0  0  0  0  0  0  0  0  0
   -8.9321   -1.4410  -23.0368 C   0  0  1  0  0  0  0  0  0  0  0  0
   -8.4321   -0.8132  -24.3658 C   0  0  0  0  0  0  0  0  0  0  0  0
   -9.0543    0.4650  -24.6378 N   0  0  0  0  0  0  0  0  0  0  0  0
   -8.2507    1.6284  -24.9870 C   0  0  0  0  0  0  0  0  0  0  0  0
   -7.9904    2.5360  -23.8136 C   0  0  0  0  0  0  0  0  0  0  0  0
   -6.7971    2.5711  -23.1506 N   0  0  0  0  0  0  0  0  0  0  0  0
   -7.0340    3.4304  -22.1763 C   0  0  0  0  0  0  0  0  0  0  0  0
   -8.2832    3.9201  -22.2851 N   0  0  0  0  0  0  0  0  0  0  0  0
   -8.9081    3.3474  -23.3334 N   0  0  0  0  0  0  0  0  0  0  0  0
   -8.8067    4.5003  -21.6442 H   0  0  0  0  0  0  0  0  0  0  0  0
   -6.3582    3.7105  -21.3829 H   0  0  0  0  0  0  0  0  0  0  0  0
   -8.7882    2.1789  -25.7668 H   0  0  0  0  0  0  0  0  0  0  0  0
   -7.2810    1.2928  -25.3630 H   0  0  0  0  0  0  0  0  0  0  0  0
  -10.4129    0.6186  -24.5822 C   0  0  0  0  0  0  0  0  0  0  0  0
  -10.9681    1.5789  -25.0996 O   0  0  0  0  0  0  0  0  0  0  0  0
  -11.1464   -0.4320  -23.7978 C   0  0  0  0  0  0  0  0  0  0  0  0
  -12.5409   -0.3805  -23.7698 C   0  0  0  0  0  0  0  0  0  0  0  0
  -13.2641   -1.2185  -22.9443 C   0  0  0  0  0  0  0  0  0  0  0  0
  -12.5618   -2.0887  -22.1209 C   0  0  0  0  0  0  0  0  0  0  0  0
  -13.2537   -2.8637  -21.2705 F   0  0  0  0  0  0  0  0  0  0  0  0
  -11.1854   -2.1729  -22.1347 C   0  0  0  0  0  0  0  0  0  0  0  0
  -10.4523   -1.3808  -23.0284 C   0  0  0  0  0  0  0  0  0  0  0  0
  -10.7138   -2.8335  -21.4145 H   0  0  0  0  0  0  0  0  0  0  0  0
  -14.3469   -1.1971  -22.8955 H   0  0  0  0  0  0  0  0  0  0  0  0
  -13.0379    0.3520  -24.3950 H   0  0  0  0  0  0  0  0  0  0  0  0
   -7.3528   -0.6481  -24.2903 H   0  0  0  0  0  0  0  0  0  0  0  0
   -8.6344   -1.5129  -25.1939 H   0  0  0  0  0  0  0  0  0  0  0  0
   -6.1605   -2.5949  -22.4006 H   0  0  0  0  0  0  0  0  0  0  0  0
   -7.0179   -3.4405  -21.1075 H   0  0  0  0  0  0  0  0  0  0  0  0
   -9.0592   -3.4416  -22.2766 H   0  0  0  0  0  0  0  0  0  0  0  0
   -7.0863   -3.1572  -24.6055 H   0  0  0  0  0  0  0  0  0  0  0  0
   -8.7322   -3.7881  -24.7536 H   0  0  0  0  0  0  0  0  0  0  0  0
   -7.5334   -4.6525  -23.7819 H   0  0  0  0  0  0  0  0  0  0  0  0
  1  2  1  0
  2  3  1  0
  3  4  1  0
  4  5  1  0
  5  6  2  0
  6  7  1  0
  7  8  2  0
  8  9  1  0
  9 10  2  0
 10 11  1  0
 11 12  2  0
 12 13  1  0
 13 14  2  0
 13 15  1  0
 12 16  1  0
 11 17  1  0
 10 18  1  0
  8 19  1  0
  6 20  1  0
  4 21  1  0
 21 22  2  0
 21 23  1  0
 23 24  1  6
 24 25  1  0
 25 26  1  0
 26 27  1  0
 27 28  1  0
 28 29  2  0
 29 30  1  0
 30 31  1  0
 30 32  1  0
 29 33  1  0
 26 34  1  0
 26 35  1  0
 25 36  1  0
 36 37  2  0
 36 38  1  0
 38 39  2  0
 39 40  1  0
 40 41  2  0
 41 42  1  0
 41 43  1  0
 43 44  2  0
 43 45  1  0
 40 46  1  0
 39 47  1  0
 24 48  1  0
 24 49  1  0
  3 50  1  0
  3 51  1  0
  2 52  1  1
  1 53  1  0
  1 54  1  0
  1 55  1  0
 23  2  1  0
 31 27  2  0
 44 38  1  0
 14  5  1  0
 44 23  1  0
 14  9  1  0
M  END
>  <cnnaffinities>  (62) 
[6.13, 5.91222]

>  <score>  (62) 
6.13

>  <index>  (62) 
64

>  <Smiles>  (62) 
C([C@]1(C(N(c2c(nc(c3c(c(c(c(c23)[H])[H])[H])[H])[H])[H])C(=O)[C@]21C(N(C(c1nc(n(n1)[H])[H])([H])[H])C(=O)c1c(c(c(F)c(c21)[H])[H])[H])([H])[H])([H])[H])[H])([H])([H])[H]

>  <h>  (62) 
<NA>

>  <Training>  (62) 
True

>  <Success>  (62) 
True

>  <enamine_searched>  (62) 
False

>  <enamine_id>  (62) 
nan

$$$$

     RDKit          3D

 55 60  0  0  0  0  0  0  0  0999 V2000
   -7.8772   -3.5926  -24.1083 C   0  0  0  0  0  0  0  0  0  0  0  0
   -8.2860   -2.8487  -22.8283 C   0  0  1  0  0  0  0  0  0  0  0  0
   -7.0818   -2.6117  -21.8890 C   0  0  0  0  0  0  0  0  0  0  0  0
   -7.4065   -1.3789  -21.2012 N   0  0  0  0  0  0  0  0  0  0  0  0
   -6.6021   -0.8081  -20.1768 C   0  0  0  0  0  0  0  0  0  0  0  0
   -6.9050   -1.0456  -18.8630 C   0  0  0  0  0  0  0  0  0  0  0  0
   -6.1962   -0.5603  -17.8146 N   0  0  0  0  0  0  0  0  0  0  0  0
   -5.1680    0.2072  -18.0804 C   0  0  0  0  0  0  0  0  0  0  0  0
   -4.7312    0.5311  -19.3974 C   0  0  0  0  0  0  0  0  0  0  0  0
   -3.6004    1.3594  -19.6416 C   0  0  0  0  0  0  0  0  0  0  0  0
   -3.2054    1.6388  -20.9185 C   0  0  0  0  0  0  0  0  0  0  0  0
   -3.9130    1.0899  -22.0113 C   0  0  0  0  0  0  0  0  0  0  0  0
   -5.0049    0.2799  -21.8018 C   0  0  0  0  0  0  0  0  0  0  0  0
   -5.4569   -0.0053  -20.4862 C   0  0  0  0  0  0  0  0  0  0  0  0
   -5.5646   -0.0956  -22.6544 H   0  0  0  0  0  0  0  0  0  0  0  0
   -3.6149    1.3398  -23.0245 H   0  0  0  0  0  0  0  0  0  0  0  0
   -2.3585    2.2958  -21.1003 H   0  0  0  0  0  0  0  0  0  0  0  0
   -3.0736    1.7734  -18.7846 H   0  0  0  0  0  0  0  0  0  0  0  0
   -4.6227    0.6148  -17.2278 H   0  0  0  0  0  0  0  0  0  0  0  0
   -7.7586   -1.6680  -18.6045 H   0  0  0  0  0  0  0  0  0  0  0  0
   -8.4324   -0.6603  -21.7717 C   0  0  0  0  0  0  0  0  0  0  0  0
   -8.8211    0.4065  -21.3471 O   0  0  0  0  0  0  0  0  0  0  0  0
   -8.9707   -1.4499  -23.0001 C   0  0  1  0  0  0  0  0  0  0  0  0
   -8.5176   -0.7783  -24.3248 C   0  0  0  0  0  0  0  0  0  0  0  0
   -9.1974    0.4726  -24.5771 N   0  0  0  0  0  0  0  0  0  0  0  0
   -8.4312    1.6644  -24.9095 C   0  0  0  0  0  0  0  0  0  0  0  0
   -8.1336    2.5203  -23.7126 C   0  0  0  0  0  0  0  0  0  0  0  0
   -8.9520    3.3769  -23.0683 C   0  0  0  0  0  0  0  0  0  0  0  0
   -8.2685    3.9228  -22.0306 O   0  0  0  0  0  0  0  0  0  0  0  0
   -7.0619    3.3352  -22.0734 C   0  0  0  0  0  0  0  0  0  0  0  0
   -6.9056    2.5103  -23.0589 N   0  0  0  0  0  0  0  0  0  0  0  0
   -6.3927    3.5793  -21.2571 H   0  0  0  0  0  0  0  0  0  0  0  0
   -9.9855    3.6652  -23.1774 H   0  0  0  0  0  0  0  0  0  0  0  0
   -9.0294    2.2247  -25.6342 H   0  0  0  0  0  0  0  0  0  0  0  0
   -7.4868    1.3613  -25.3730 H   0  0  0  0  0  0  0  0  0  0  0  0
  -10.5518    0.6019  -24.4416 C   0  0  0  0  0  0  0  0  0  0  0  0
  -11.1499    1.5834  -24.8699 O   0  0  0  0  0  0  0  0  0  0  0  0
  -11.2354   -0.5027  -23.6875 C   0  0  0  0  0  0  0  0  0  0  0  0
  -12.6308   -0.5072  -23.6343 C   0  0  0  0  0  0  0  0  0  0  0  0
  -13.3008   -1.3992  -22.8203 C   0  0  0  0  0  0  0  0  0  0  0  0
  -12.5510   -2.2665  -22.0351 C   0  0  0  0  0  0  0  0  0  0  0  0
  -13.1945   -3.0915  -21.1930 F   0  0  0  0  0  0  0  0  0  0  0  0
  -11.1735   -2.2963  -22.0802 C   0  0  0  0  0  0  0  0  0  0  0  0
  -10.4912   -1.4480  -22.9622 C   0  0  0  0  0  0  0  0  0  0  0  0
  -10.6603   -2.9612  -21.3940 H   0  0  0  0  0  0  0  0  0  0  0  0
  -14.3811   -1.4229  -22.7500 H   0  0  0  0  0  0  0  0  0  0  0  0
  -13.1634    0.2249  -24.2316 H   0  0  0  0  0  0  0  0  0  0  0  0
   -8.6996   -1.4755  -25.1590 H   0  0  0  0  0  0  0  0  0  0  0  0
   -7.4460   -0.5596  -24.2536 H   0  0  0  0  0  0  0  0  0  0  0  0
   -6.1432   -2.5149  -22.4586 H   0  0  0  0  0  0  0  0  0  0  0  0
   -6.9416   -3.4278  -21.1691 H   0  0  0  0  0  0  0  0  0  0  0  0
   -9.0069   -3.4729  -22.2952 H   0  0  0  0  0  0  0  0  0  0  0  0
   -8.7233   -3.7364  -24.7905 H   0  0  0  0  0  0  0  0  0  0  0  0
   -7.0986   -3.0465  -24.6563 H   0  0  0  0  0  0  0  0  0  0  0  0
   -7.4708   -4.5827  -23.8705 H   0  0  0  0  0  0  0  0  0  0  0  0
  1  2  1  0
  2  3  1  0
  3  4  1  0
  4  5  1  0
  5  6  2  0
  6  7  1  0
  7  8  2  0
  8  9  1  0
  9 10  2  0
 10 11  1  0
 11 12  2  0
 12 13  1  0
 13 14  2  0
 13 15  1  0
 12 16  1  0
 11 17  1  0
 10 18  1  0
  8 19  1  0
  6 20  1  0
  4 21  1  0
 21 22  2  0
 21 23  1  0
 23 24  1  6
 24 25  1  0
 25 26  1  0
 26 27  1  0
 27 28  2  0
 28 29  1  0
 29 30  1  0
 30 31  2  0
 30 32  1  0
 28 33  1  0
 26 34  1  0
 26 35  1  0
 25 36  1  0
 36 37  2  0
 36 38  1  0
 38 39  2  0
 39 40  1  0
 40 41  2  0
 41 42  1  0
 41 43  1  0
 43 44  2  0
 43 45  1  0
 40 46  1  0
 39 47  1  0
 24 48  1  0
 24 49  1  0
  3 50  1  0
  3 51  1  0
  2 52  1  1
  1 53  1  0
  1 54  1  0
  1 55  1  0
 23  2  1  0
 31 27  1  0
 44 38  1  0
 14  5  1  0
 44 23  1  0
 14  9  1  0
M  END
>  <cnnaffinities>  (63) 
[5.70857]

>  <score>  (63) 
5.70857

>  <index>  (63) 
65

>  <Smiles>  (63) 
C([C@]1(C(N(c2c(nc(c3c(c(c(c(c23)[H])[H])[H])[H])[H])[H])C(=O)[C@]21C(N(C(c1c(oc(n1)[H])[H])([H])[H])C(=O)c1c(c(c(F)c(c21)[H])[H])[H])([H])[H])([H])[H])[H])([H])([H])[H]

>  <h>  (63) 
<NA>

>  <Training>  (63) 
True

>  <Success>  (63) 
True

>  <enamine_searched>  (63) 
False

>  <enamine_id>  (63) 
nan

$$$$

     RDKit          3D

 44 47  0  0  0  0  0  0  0  0999 V2000
  -10.3460    2.3314  -24.8867 C   0  0  0  0  0  0  0  0  0  0  0  0
   -9.4664    1.1529  -24.4743 C   0  0  0  0  0  0  0  0  0  0  0  0
  -10.1187    0.2905  -23.3747 C   0  0  1  0  0  0  0  0  0  0  0  0
  -11.4158   -0.3065  -23.8065 C   0  0  0  0  0  0  0  0  0  0  0  0
  -12.7111    0.2878  -23.7477 C   0  0  0  0  0  0  0  0  0  0  0  0
  -13.6559   -0.4427  -24.3942 C   0  0  0  0  0  0  0  0  0  0  0  0
  -12.9763   -1.8681  -25.0825 S   0  0  0  0  0  0  0  0  0  0  0  0
  -11.4124   -1.4870  -24.4738 C   0  0  0  0  0  0  0  0  0  0  0  0
  -10.1408   -2.2396  -24.6807 C   0  0  0  0  0  0  0  0  0  0  0  0
   -9.2052   -2.1090  -23.4734 C   0  0  0  0  0  0  0  0  0  0  0  0
   -9.1930   -0.7474  -22.9166 N   0  0  0  0  0  0  0  0  0  0  0  0
   -8.4062   -0.3710  -21.8575 C   0  0  0  0  0  0  0  0  0  0  0  0
   -8.4744    0.7450  -21.3651 O   0  0  0  0  0  0  0  0  0  0  0  0
   -7.4550   -1.4223  -21.3028 C   0  0  0  0  0  0  0  0  0  0  0  0
   -6.6006   -0.8460  -20.2223 C   0  0  0  0  0  0  0  0  0  0  0  0
   -6.9250   -1.0644  -18.9115 C   0  0  0  0  0  0  0  0  0  0  0  0
   -6.2513   -0.5736  -17.8418 N   0  0  0  0  0  0  0  0  0  0  0  0
   -5.2136    0.1873  -18.0978 C   0  0  0  0  0  0  0  0  0  0  0  0
   -4.7673    0.5081  -19.4084 C   0  0  0  0  0  0  0  0  0  0  0  0
   -3.6320    1.3235  -19.6362 C   0  0  0  0  0  0  0  0  0  0  0  0
   -3.2330    1.6255  -20.9086 C   0  0  0  0  0  0  0  0  0  0  0  0
   -3.9510    1.1180  -22.0127 C   0  0  0  0  0  0  0  0  0  0  0  0
   -5.0544    0.3209  -21.8226 C   0  0  0  0  0  0  0  0  0  0  0  0
   -5.4850   -0.0114  -20.5105 C   0  0  0  0  0  0  0  0  0  0  0  0
   -5.6102   -0.0502  -22.6792 H   0  0  0  0  0  0  0  0  0  0  0  0
   -3.6240    1.3602  -23.0189 H   0  0  0  0  0  0  0  0  0  0  0  0
   -2.3693    2.2635  -21.0796 H   0  0  0  0  0  0  0  0  0  0  0  0
   -3.0974    1.7177  -18.7767 H   0  0  0  0  0  0  0  0  0  0  0  0
   -4.6605    0.5902  -17.2473 H   0  0  0  0  0  0  0  0  0  0  0  0
   -7.7884   -1.6837  -18.6687 H   0  0  0  0  0  0  0  0  0  0  0  0
   -6.8509   -1.8424  -22.1168 H   0  0  0  0  0  0  0  0  0  0  0  0
   -8.0792   -2.2303  -20.8941 H   0  0  0  0  0  0  0  0  0  0  0  0
   -9.4988   -2.8300  -22.7009 H   0  0  0  0  0  0  0  0  0  0  0  0
   -8.1954   -2.3988  -23.7904 H   0  0  0  0  0  0  0  0  0  0  0  0
  -10.3395   -3.2875  -24.9013 H   0  0  0  0  0  0  0  0  0  0  0  0
   -9.6215   -1.8269  -25.5536 H   0  0  0  0  0  0  0  0  0  0  0  0
  -14.7099   -0.2199  -24.4906 H   0  0  0  0  0  0  0  0  0  0  0  0
  -12.9254    1.2497  -23.2949 H   0  0  0  0  0  0  0  0  0  0  0  0
  -10.2880    0.9414  -22.5105 H   0  0  0  0  0  0  0  0  0  0  0  0
   -9.2711    0.5127  -25.3429 H   0  0  0  0  0  0  0  0  0  0  0  0
   -8.5001    1.5105  -24.0952 H   0  0  0  0  0  0  0  0  0  0  0  0
  -10.6401    2.9126  -24.0035 H   0  0  0  0  0  0  0  0  0  0  0  0
   -9.8182    3.0054  -25.5714 H   0  0  0  0  0  0  0  0  0  0  0  0
  -11.2598    1.9917  -25.3872 H   0  0  0  0  0  0  0  0  0  0  0  0
  1  2  1  0
  2  3  1  0
  3  4  1  0
  4  5  1  0
  5  6  2  0
  6  7  1  0
  7  8  1  0
  8  9  1  0
  9 10  1  0
 10 11  1  0
 11 12  1  0
 12 13  2  0
 12 14  1  0
 14 15  1  0
 15 16  2  0
 16 17  1  0
 17 18  2  0
 18 19  1  0
 19 20  2  0
 20 21  1  0
 21 22  2  0
 22 23  1  0
 23 24  2  0
 23 25  1  0
 22 26  1  0
 21 27  1  0
 20 28  1  0
 18 29  1  0
 16 30  1  0
 14 31  1  0
 14 32  1  0
 10 33  1  0
 10 34  1  0
  9 35  1  0
  9 36  1  0
  6 37  1  0
  5 38  1  0
  3 39  1  1
  2 40  1  0
  2 41  1  0
  1 42  1  0
  1 43  1  0
  1 44  1  0
 11  3  1  0
 24 15  1  0
  8  4  2  0
 24 19  1  0
M  END
>  <cnnaffinities>  (64) 
[5.12922, 5.24222]

>  <score>  (64) 
5.12922

>  <index>  (64) 
66

>  <Smiles>  (64) 
C(C([C@]1(c2c(c(sc2C(C(N1C(=O)C(c1c(nc(c2c(c(c(c(c12)[H])[H])[H])[H])[H])[H])([H])[H])([H])[H])([H])[H])[H])[H])[H])([H])[H])([H])([H])[H]

>  <h>  (64) 
<NA>

>  <Training>  (64) 
True

>  <Success>  (64) 
True

>  <enamine_searched>  (64) 
False

>  <enamine_id>  (64) 
nan

$$$$

     RDKit          3D

 58 63  0  0  0  0  0  0  0  0999 V2000
   -5.7325    4.0787  -22.3470 C   0  0  0  0  0  0  0  0  0  0  0  0
   -6.8127    3.5255  -23.2185 C   0  0  0  0  0  0  0  0  0  0  0  0
   -6.7382    2.4010  -24.0891 C   0  0  0  0  0  0  0  0  0  0  0  0
   -7.9924    2.3025  -24.5997 C   0  0  0  0  0  0  0  0  0  0  0  0
   -8.6502    1.3124  -25.5081 C   0  0  0  0  0  0  0  0  0  0  0  0
   -9.3574    0.2868  -24.7640 N   0  0  0  0  0  0  0  0  0  0  0  0
   -8.7343   -0.9909  -24.4821 C   0  0  0  0  0  0  0  0  0  0  0  0
   -8.9593   -1.4657  -23.0235 C   0  0  2  0  0  0  0  0  0  0  0  0
   -8.2155   -0.5562  -22.0210 C   0  0  0  0  0  0  0  0  0  0  0  0
   -8.3513    0.6372  -21.8858 O   0  0  0  0  0  0  0  0  0  0  0  0
   -7.3615   -1.3373  -21.2704 N   0  0  0  0  0  0  0  0  0  0  0  0
   -6.5874   -0.8046  -20.2176 C   0  0  0  0  0  0  0  0  0  0  0  0
   -6.8924   -1.0745  -18.9088 C   0  0  0  0  0  0  0  0  0  0  0  0
   -6.2130   -0.5816  -17.8448 N   0  0  0  0  0  0  0  0  0  0  0  0
   -5.1884    0.2004  -18.0963 C   0  0  0  0  0  0  0  0  0  0  0  0
   -4.7377    0.5215  -19.4093 C   0  0  0  0  0  0  0  0  0  0  0  0
   -3.6011    1.3388  -19.6385 C   0  0  0  0  0  0  0  0  0  0  0  0
   -3.1868    1.6134  -20.9134 C   0  0  0  0  0  0  0  0  0  0  0  0
   -3.8823    1.0818  -22.0192 C   0  0  0  0  0  0  0  0  0  0  0  0
   -4.9845    0.2884  -21.8290 C   0  0  0  0  0  0  0  0  0  0  0  0
   -5.4468   -0.0000  -20.5134 C   0  0  0  0  0  0  0  0  0  0  0  0
   -5.5149   -0.1209  -22.6824 H   0  0  0  0  0  0  0  0  0  0  0  0
   -3.5350    1.3063  -23.0247 H   0  0  0  0  0  0  0  0  0  0  0  0
   -2.3181    2.2427  -21.0800 H   0  0  0  0  0  0  0  0  0  0  0  0
   -3.0801    1.7492  -18.7799 H   0  0  0  0  0  0  0  0  0  0  0  0
   -4.6398    0.6072  -17.2450 H   0  0  0  0  0  0  0  0  0  0  0  0
   -7.7519   -1.7001  -18.6690 H   0  0  0  0  0  0  0  0  0  0  0  0
   -7.6473   -2.7473  -21.3823 C   0  0  0  0  0  0  0  0  0  0  0  0
   -8.3591   -2.8800  -22.7427 C   0  0  2  0  0  0  0  0  0  0  0  0
   -7.4469   -3.4606  -23.8248 C   0  0  0  0  0  0  0  0  0  0  0  0
   -7.1042   -4.4546  -23.5233 H   0  0  0  0  0  0  0  0  0  0  0  0
   -6.5672   -2.8396  -24.0123 H   0  0  0  0  0  0  0  0  0  0  0  0
   -7.9905   -3.5823  -24.7658 H   0  0  0  0  0  0  0  0  0  0  0  0
   -9.1769   -3.5977  -22.6662 H   0  0  0  0  0  0  0  0  0  0  0  0
   -8.3051   -3.0804  -20.5696 H   0  0  0  0  0  0  0  0  0  0  0  0
   -6.7180   -3.3207  -21.3250 H   0  0  0  0  0  0  0  0  0  0  0  0
  -10.4588   -1.3830  -22.7694 C   0  0  0  0  0  0  0  0  0  0  0  0
  -11.1164   -2.2732  -21.9198 C   0  0  0  0  0  0  0  0  0  0  0  0
  -12.4852   -2.1808  -21.7788 C   0  0  0  0  0  0  0  0  0  0  0  0
  -13.0970   -3.1397  -21.0624 F   0  0  0  0  0  0  0  0  0  0  0  0
  -13.2526   -1.1558  -22.3199 C   0  0  0  0  0  0  0  0  0  0  0  0
  -12.5877   -0.2293  -23.0991 C   0  0  0  0  0  0  0  0  0  0  0  0
  -11.2221   -0.3642  -23.3530 C   0  0  0  0  0  0  0  0  0  0  0  0
  -10.6122    0.5961  -24.3226 C   0  0  0  0  0  0  0  0  0  0  0  0
  -11.2146    1.5839  -24.7200 O   0  0  0  0  0  0  0  0  0  0  0  0
  -13.1053    0.6141  -23.5359 H   0  0  0  0  0  0  0  0  0  0  0  0
  -14.3263   -1.1307  -22.1520 H   0  0  0  0  0  0  0  0  0  0  0  0
  -10.6063   -3.0665  -21.3819 H   0  0  0  0  0  0  0  0  0  0  0  0
   -7.6699   -0.9258  -24.7089 H   0  0  0  0  0  0  0  0  0  0  0  0
   -9.1625   -1.7493  -25.1455 H   0  0  0  0  0  0  0  0  0  0  0  0
   -9.3698    1.8227  -26.1475 H   0  0  0  0  0  0  0  0  0  0  0  0
   -7.9024    0.8421  -26.1475 H   0  0  0  0  0  0  0  0  0  0  0  0
   -8.7545    3.2873  -24.1102 O   0  0  0  0  0  0  0  0  0  0  0  0
   -8.0120    4.0595  -23.2460 N   0  0  0  0  0  0  0  0  0  0  0  0
   -5.8879    1.7617  -24.2753 H   0  0  0  0  0  0  0  0  0  0  0  0
   -5.6823    3.5086  -21.4126 H   0  0  0  0  0  0  0  0  0  0  0  0
   -4.7591    3.9746  -22.8360 H   0  0  0  0  0  0  0  0  0  0  0  0
   -5.9075    5.1312  -22.1147 H   0  0  0  0  0  0  0  0  0  0  0  0
  1  2  1  0
  2  3  1  0
  3  4  2  0
  4  5  1  0
  5  6  1  0
  6  7  1  0
  8  7  1  6
  8  9  1  0
  9 10  2  0
  9 11  1  0
 11 12  1  0
 12 13  2  0
 13 14  1  0
 14 15  2  0
 15 16  1  0
 16 17  2  0
 17 18  1  0
 18 19  2  0
 19 20  1  0
 20 21  2  0
 20 22  1  0
 19 23  1  0
 18 24  1  0
 17 25  1  0
 15 26  1  0
 13 27  1  0
 11 28  1  0
 28 29  1  0
 29 30  1  0
 30 31  1  0
 30 32  1  0
 30 33  1  0
 29 34  1  1
 28 35  1  0
 28 36  1  0
  8 37  1  0
 37 38  2  0
 38 39  1  0
 39 40  1  0
 39 41  2  0
 41 42  1  0
 42 43  2  0
 43 44  1  0
 44 45  2  0
 42 46  1  0
 41 47  1  0
 38 48  1  0
  7 49  1  0
  7 50  1  0
  5 51  1  0
  5 52  1  0
  4 53  1  0
 53 54  1  0
  3 55  1  0
  1 56  1  0
  1 57  1  0
  1 58  1  0
 54  2  2  0
 44  6  1  0
 29  8  1  0
 43 37  1  0
 21 12  1  0
 21 16  1  0
M  END
>  <cnnaffinities>  (65) 
[6.08435, 6.33212]

>  <score>  (65) 
6.08435

>  <index>  (65) 
67

>  <Smiles>  (65) 
C(c1c(c(C(N2C([C@@]3(C(=O)N(c4c(nc(c5c(c(c(c(c45)[H])[H])[H])[H])[H])[H])C([C@@]3(C([H])([H])[H])[H])([H])[H])c3c(c(F)c(c(c3C2=O)[H])[H])[H])([H])[H])([H])[H])on1)[H])([H])([H])[H]

>  <h>  (65) 
<NA>

>  <Training>  (65) 
True

>  <Success>  (65) 
True

>  <enamine_searched>  (65) 
False

>  <enamine_id>  (65) 
nan

$$$$

     RDKit          3D

 65 70  0  0  0  0  0  0  0  0999 V2000
   -5.6554   -3.2097  -21.2872 O   0  0  0  0  0  0  0  0  0  0  0  0
   -6.6158   -2.7389  -21.8799 C   0  0  0  0  0  0  0  0  0  0  0  0
   -7.3400   -1.5146  -21.3122 C   0  0  0  0  0  0  0  0  0  0  0  0
   -6.5643   -0.8538  -20.2173 C   0  0  0  0  0  0  0  0  0  0  0  0
   -6.8881   -1.0769  -18.9066 C   0  0  0  0  0  0  0  0  0  0  0  0
   -6.2232   -0.5744  -17.8341 N   0  0  0  0  0  0  0  0  0  0  0  0
   -5.1886    0.1919  -18.0883 C   0  0  0  0  0  0  0  0  0  0  0  0
   -4.7216    0.4909  -19.3974 C   0  0  0  0  0  0  0  0  0  0  0  0
   -3.5934    1.3189  -19.6254 C   0  0  0  0  0  0  0  0  0  0  0  0
   -3.1847    1.6071  -20.8989 C   0  0  0  0  0  0  0  0  0  0  0  0
   -3.8869    1.0760  -22.0050 C   0  0  0  0  0  0  0  0  0  0  0  0
   -4.9806    0.2707  -21.8110 C   0  0  0  0  0  0  0  0  0  0  0  0
   -5.4290   -0.0442  -20.4994 C   0  0  0  0  0  0  0  0  0  0  0  0
   -5.5206   -0.1208  -22.6686 H   0  0  0  0  0  0  0  0  0  0  0  0
   -3.5658    1.3215  -23.0136 H   0  0  0  0  0  0  0  0  0  0  0  0
   -2.3296    2.2551  -21.0690 H   0  0  0  0  0  0  0  0  0  0  0  0
   -3.0797    1.7402  -18.7633 H   0  0  0  0  0  0  0  0  0  0  0  0
   -4.6602    0.6169  -17.2334 H   0  0  0  0  0  0  0  0  0  0  0  0
   -7.7440   -1.7067  -18.6656 H   0  0  0  0  0  0  0  0  0  0  0  0
   -8.3024   -1.8718  -20.9220 H   0  0  0  0  0  0  0  0  0  0  0  0
   -7.5756   -0.8118  -22.1146 H   0  0  0  0  0  0  0  0  0  0  0  0
   -7.1334   -3.2836  -23.0414 N   0  0  0  0  0  0  0  0  0  0  0  0
   -7.8497   -2.4772  -24.0265 C   0  0  0  0  0  0  0  0  0  0  0  0
   -9.3118   -2.1828  -23.7275 C   0  0  0  0  0  0  0  0  0  0  0  0
   -9.9209   -1.0678  -24.3117 C   0  0  0  0  0  0  0  0  0  0  0  0
  -11.2530   -0.7652  -24.0448 C   0  0  0  0  0  0  0  0  0  0  0  0
  -12.0096   -1.5728  -23.2024 C   0  0  0  0  0  0  0  0  0  0  0  0
  -11.4043   -2.6883  -22.6393 C   0  0  0  0  0  0  0  0  0  0  0  0
  -12.3355   -3.7339  -21.6005 Cl  0  0  0  0  0  0  0  0  0  0  0  0
  -10.0722   -2.9973  -22.8873 C   0  0  0  0  0  0  0  0  0  0  0  0
   -9.6392   -3.8633  -22.4015 H   0  0  0  0  0  0  0  0  0  0  0  0
  -13.0473   -1.3461  -22.9823 H   0  0  0  0  0  0  0  0  0  0  0  0
  -11.7096    0.1122  -24.4952 H   0  0  0  0  0  0  0  0  0  0  0  0
   -9.3508   -0.4252  -24.9790 H   0  0  0  0  0  0  0  0  0  0  0  0
   -7.7736   -2.9787  -24.9943 H   0  0  0  0  0  0  0  0  0  0  0  0
   -7.3158   -1.5274  -24.1618 H   0  0  0  0  0  0  0  0  0  0  0  0
   -6.7890   -4.6710  -23.3648 C   0  0  2  0  0  0  0  0  0  0  0  0
   -7.7036   -5.3402  -24.4150 C   0  0  0  0  0  0  0  0  0  0  0  0
   -7.4889   -6.8554  -24.1884 C   0  0  0  0  0  0  0  0  0  0  0  0
   -6.4652   -6.8692  -23.0588 C   0  0  2  0  0  0  0  0  0  0  0  0
   -6.8805   -5.6795  -22.2070 C   0  0  0  0  0  0  0  0  0  0  0  0
   -6.1992   -5.4433  -21.3854 H   0  0  0  0  0  0  0  0  0  0  0  0
   -7.9033   -5.7521  -21.8189 H   0  0  0  0  0  0  0  0  0  0  0  0
   -5.1310   -6.4086  -23.6898 N   0  0  2  0  0  4  0  0  0  0  0  0
   -3.9319   -6.7621  -22.8594 C   0  0  0  0  0  0  0  0  0  0  0  0
   -3.0869   -7.9391  -23.3626 C   0  0  0  0  0  0  0  0  0  0  0  0
   -3.7902   -9.0434  -24.1579 C   0  0  0  0  0  0  0  0  0  0  0  0
   -3.5081   -8.3586  -25.3904 O   0  0  0  0  0  0  0  0  0  0  0  0
   -2.4316   -7.6660  -24.7241 C   0  0  0  0  0  0  0  0  0  0  0  0
   -2.3818   -6.6186  -25.0375 H   0  0  0  0  0  0  0  0  0  0  0  0
   -1.4552   -8.1708  -24.8480 H   0  0  0  0  0  0  0  0  0  0  0  0
   -3.2130   -9.9801  -24.0694 H   0  0  0  0  0  0  0  0  0  0  0  0
   -4.8611   -9.2340  -24.0334 H   0  0  0  0  0  0  0  0  0  0  0  0
   -2.4530   -8.2898  -22.5473 H   0  0  0  0  0  0  0  0  0  0  0  0
   -3.2734   -5.8876  -22.8230 H   0  0  0  0  0  0  0  0  0  0  0  0
   -4.2661   -6.9333  -21.8315 H   0  0  0  0  0  0  0  0  0  0  0  0
   -5.3470   -4.8994  -23.8655 C   0  0  0  0  0  0  0  0  0  0  0  0
   -4.6325   -4.3574  -23.2466 H   0  0  0  0  0  0  0  0  0  0  0  0
   -5.2013   -4.6321  -24.9144 H   0  0  0  0  0  0  0  0  0  0  0  0
   -5.0044   -6.8505  -24.6141 H   0  0  0  0  0  0  0  0  0  0  0  0
   -6.3226   -7.8192  -22.5425 H   0  0  0  0  0  0  0  0  0  0  0  0
   -8.4187   -7.3514  -23.8979 H   0  0  0  0  0  0  0  0  0  0  0  0
   -7.0865   -7.3689  -25.0682 H   0  0  0  0  0  0  0  0  0  0  0  0
   -7.4315   -5.0380  -25.4302 H   0  0  0  0  0  0  0  0  0  0  0  0
   -8.7410   -5.0467  -24.2346 H   0  0  0  0  0  0  0  0  0  0  0  0
  1  2  2  0
  2  3  1  0
  3  4  1  0
  4  5  2  0
  5  6  1  0
  6  7  2  0
  7  8  1  0
  8  9  2  0
  9 10  1  0
 10 11  2  0
 11 12  1  0
 12 13  2  0
 12 14  1  0
 11 15  1  0
 10 16  1  0
  9 17  1  0
  7 18  1  0
  5 19  1  0
  3 20  1  0
  3 21  1  0
  2 22  1  0
 22 23  1  0
 23 24  1  0
 24 25  2  0
 25 26  1  0
 26 27  2  0
 27 28  1  0
 28 29  1  0
 28 30  2  0
 30 31  1  0
 27 32  1  0
 26 33  1  0
 25 34  1  0
 23 35  1  0
 23 36  1  0
 37 22  1  1
 37 38  1  0
 38 39  1  0
 39 40  1  0
 40 41  1  0
 41 42  1  0
 41 43  1  0
 40 44  1  0
 44 45  1  0
 45 46  1  0
 46 47  1  0
 47 48  1  0
 48 49  1  0
 49 50  1  0
 49 51  1  0
 47 52  1  0
 47 53  1  0
 46 54  1  0
 45 55  1  0
 45 56  1  0
 44 57  1  0
 57 58  1  0
 57 59  1  0
 44 60  1  6
 40 61  1  1
 39 62  1  0
 39 63  1  0
 38 64  1  0
 38 65  1  0
 13  4  1  0
 30 24  1  0
 41 37  1  0
 49 46  1  0
 13  8  1  0
 57 37  1  0
M  CHG  1  44   1
M  END
>  <cnnaffinities>  (66) 
[6.16434]

>  <score>  (66) 
6.16434

>  <index>  (66) 
68

>  <Smiles>  (66) 
O=C(C(c1c(nc(c2c(c(c(c(c12)[H])[H])[H])[H])[H])[H])([H])[H])N(C(c1c(c(c(c(Cl)c1[H])[H])[H])[H])([H])[H])[C@]12C(C([C@](C1([H])[H])([N@+](C(C1(C(OC1([H])[H])([H])[H])[H])([H])[H])(C2([H])[H])[H])[H])([H])[H])([H])[H]

>  <h>  (66) 
<NA>

>  <Training>  (66) 
True

>  <Success>  (66) 
True

>  <enamine_searched>  (66) 
False

>  <enamine_id>  (66) 
nan

$$$$

     RDKit          3D

 63 67  0  0  0  0  0  0  0  0999 V2000
  -12.1761    6.5052  -23.7150 C   0  0  0  0  0  0  0  0  0  0  0  0
  -11.4396    5.3948  -23.7096 C   0  0  0  0  0  0  0  0  0  0  0  0
  -10.5374    5.1134  -24.8716 C   0  0  0  0  0  0  0  0  0  0  0  0
  -10.3092    5.9660  -25.7178 O   0  0  0  0  0  0  0  0  0  0  0  0
   -9.9041    3.8764  -24.9346 N   0  0  0  0  0  0  0  0  0  0  0  0
   -8.5921    3.8519  -25.5795 C   0  0  0  0  0  0  0  0  0  0  0  0
   -7.6086    3.2469  -24.5959 C   0  0  0  0  0  0  0  0  0  0  0  0
   -8.0250    1.8012  -24.3414 C   0  0  0  0  0  0  0  0  0  0  0  0
   -9.5070    1.6454  -24.0376 C   0  0  0  0  0  0  0  0  0  0  0  0
  -10.4068    2.6662  -24.4015 C   0  0  0  0  0  0  0  0  0  0  0  0
  -11.7890    2.4692  -24.2750 C   0  0  0  0  0  0  0  0  0  0  0  0
  -12.2872    1.2879  -23.7595 C   0  0  0  0  0  0  0  0  0  0  0  0
  -11.4071    0.2942  -23.3394 C   0  0  0  0  0  0  0  0  0  0  0  0
  -10.0373    0.4729  -23.4899 C   0  0  0  0  0  0  0  0  0  0  0  0
   -9.1399   -0.6788  -23.0190 N   0  0  1  0  0  4  0  0  0  0  0  0
   -8.2540   -1.3230  -24.1691 C   0  0  0  0  0  0  0  0  0  0  0  0
   -8.3132   -2.8391  -24.2697 C   0  0  0  0  0  0  0  0  0  0  0  0
   -7.1857   -3.6117  -23.9690 C   0  0  0  0  0  0  0  0  0  0  0  0
   -7.1994   -4.9968  -24.0932 C   0  0  0  0  0  0  0  0  0  0  0  0
   -8.3075   -5.6410  -24.6284 C   0  0  0  0  0  0  0  0  0  0  0  0
   -9.4140   -4.8754  -24.9675 C   0  0  0  0  0  0  0  0  0  0  0  0
  -10.7721   -5.6822  -25.6998 Cl  0  0  0  0  0  0  0  0  0  0  0  0
   -9.4479   -3.4999  -24.7580 C   0  0  0  0  0  0  0  0  0  0  0  0
  -10.3487   -2.9449  -25.0051 H   0  0  0  0  0  0  0  0  0  0  0  0
   -8.3281   -6.7136  -24.7965 H   0  0  0  0  0  0  0  0  0  0  0  0
   -6.3390   -5.5765  -23.7732 H   0  0  0  0  0  0  0  0  0  0  0  0
   -6.2776   -3.1174  -23.6310 H   0  0  0  0  0  0  0  0  0  0  0  0
   -7.2151   -1.0028  -24.0301 H   0  0  0  0  0  0  0  0  0  0  0  0
   -8.6232   -0.8534  -25.0806 H   0  0  0  0  0  0  0  0  0  0  0  0
   -8.4545   -0.3436  -21.7132 C   0  0  0  0  0  0  0  0  0  0  0  0
   -8.7180    0.6709  -21.1302 O   0  0  0  0  0  0  0  0  0  0  0  0
   -7.4803   -1.4015  -21.2039 C   0  0  0  0  0  0  0  0  0  0  0  0
   -6.5874   -0.8576  -20.1267 C   0  0  0  0  0  0  0  0  0  0  0  0
   -6.8646   -1.0850  -18.8059 C   0  0  0  0  0  0  0  0  0  0  0  0
   -6.1635   -0.5877  -17.7538 N   0  0  0  0  0  0  0  0  0  0  0  0
   -5.1485    0.1919  -18.0405 C   0  0  0  0  0  0  0  0  0  0  0  0
   -4.7329    0.5060  -19.3655 C   0  0  0  0  0  0  0  0  0  0  0  0
   -3.6140    1.3353  -19.6259 C   0  0  0  0  0  0  0  0  0  0  0  0
   -3.2459    1.6312  -20.9102 C   0  0  0  0  0  0  0  0  0  0  0  0
   -3.9761    1.0987  -21.9970 C   0  0  0  0  0  0  0  0  0  0  0  0
   -5.0602    0.2862  -21.7713 C   0  0  0  0  0  0  0  0  0  0  0  0
   -5.4696   -0.0318  -20.4458 C   0  0  0  0  0  0  0  0  0  0  0  0
   -5.6264   -0.1006  -22.6165 H   0  0  0  0  0  0  0  0  0  0  0  0
   -3.6777    1.3400  -23.0137 H   0  0  0  0  0  0  0  0  0  0  0  0
   -2.3941    2.2761  -21.1015 H   0  0  0  0  0  0  0  0  0  0  0  0
   -3.0749    1.7473  -18.7770 H   0  0  0  0  0  0  0  0  0  0  0  0
   -4.6024    0.6236  -17.2010 H   0  0  0  0  0  0  0  0  0  0  0  0
   -7.6975   -1.7345  -18.5344 H   0  0  0  0  0  0  0  0  0  0  0  0
   -8.0879   -2.2326  -20.8153 H   0  0  0  0  0  0  0  0  0  0  0  0
   -6.8877   -1.7718  -22.0446 H   0  0  0  0  0  0  0  0  0  0  0  0
   -9.8168   -1.4516  -22.8100 H   0  0  0  0  0  0  0  0  0  0  0  0
  -11.7858   -0.6223  -22.8998 H   0  0  0  0  0  0  0  0  0  0  0  0
  -13.3604    1.1487  -23.6600 H   0  0  0  0  0  0  0  0  0  0  0  0
  -12.4659    3.2602  -24.5744 H   0  0  0  0  0  0  0  0  0  0  0  0
   -7.7966    1.2315  -25.2541 H   0  0  0  0  0  0  0  0  0  0  0  0
   -7.4186    1.3611  -23.5437 H   0  0  0  0  0  0  0  0  0  0  0  0
   -6.5776    3.3001  -24.9682 H   0  0  0  0  0  0  0  0  0  0  0  0
   -7.6582    3.8274  -23.6696 H   0  0  0  0  0  0  0  0  0  0  0  0
   -8.6337    3.2665  -26.5069 H   0  0  0  0  0  0  0  0  0  0  0  0
   -8.3517    4.8794  -25.8536 H   0  0  0  0  0  0  0  0  0  0  0  0
  -11.4491    4.6964  -22.8742 H   0  0  0  0  0  0  0  0  0  0  0  0
  -12.1277    7.1757  -24.5690 H   0  0  0  0  0  0  0  0  0  0  0  0
  -12.8364    6.7654  -22.8927 H   0  0  0  0  0  0  0  0  0  0  0  0
  1  2  2  0
  2  3  1  0
  3  4  2  0
  3  5  1  0
  5  6  1  0
  6  7  1  0
  7  8  1  0
  8  9  1  0
  9 10  2  0
 10 11  1  0
 11 12  2  0
 12 13  1  0
 13 14  2  0
 14 15  1  0
 15 16  1  0
 16 17  1  0
 17 18  2  0
 18 19  1  0
 19 20  2  0
 20 21  1  0
 21 22  1  0
 21 23  2  0
 23 24  1  0
 20 25  1  0
 19 26  1  0
 18 27  1  0
 16 28  1  0
 16 29  1  0
 15 30  1  0
 30 31  2  0
 30 32  1  0
 32 33  1  0
 33 34  2  0
 34 35  1  0
 35 36  2  0
 36 37  1  0
 37 38  2  0
 38 39  1  0
 39 40  2  0
 40 41  1  0
 41 42  2  0
 41 43  1  0
 40 44  1  0
 39 45  1  0
 38 46  1  0
 36 47  1  0
 34 48  1  0
 32 49  1  0
 32 50  1  0
 15 51  1  1
 13 52  1  0
 12 53  1  0
 11 54  1  0
  8 55  1  0
  8 56  1  0
  7 57  1  0
  7 58  1  0
  6 59  1  0
  6 60  1  0
  2 61  1  0
  1 62  1  0
  1 63  1  0
 10  5  1  0
 23 17  1  0
 42 33  1  0
 14  9  1  0
 42 37  1  0
M  CHG  1  15   1
M  END
>  <cnnaffinities>  (67) 
[6.31671, 6.12841]

>  <score>  (67) 
6.31671

>  <index>  (67) 
69

>  <Smiles>  (67) 
C(=C(C(=O)N1C(C(C(c2c1c(c(c(c2[N@@+](C(c1c(c(c(c(Cl)c1[H])[H])[H])[H])([H])[H])(C(=O)C(c1c(nc(c2c(c(c(c(c12)[H])[H])[H])[H])[H])[H])([H])[H])[H])[H])[H])[H])([H])[H])([H])[H])([H])[H])[H])([H])[H]

>  <h>  (67) 
<NA>

>  <Training>  (67) 
True

>  <Success>  (67) 
True

>  <enamine_searched>  (67) 
False

>  <enamine_id>  (67) 
nan

$$$$

     RDKit          3D

 52 54  0  0  0  0  0  0  0  0999 V2000
   -5.6961    2.0500  -27.4778 C   0  0  0  0  0  0  0  0  0  0  0  0
   -6.5937    2.0654  -26.2399 C   0  0  0  0  0  0  0  0  0  0  0  0
   -6.0206    3.0283  -25.1996 C   0  0  0  0  0  0  0  0  0  0  0  0
   -5.8796    4.0310  -25.6159 H   0  0  0  0  0  0  0  0  0  0  0  0
   -6.6808    3.1184  -24.3302 H   0  0  0  0  0  0  0  0  0  0  0  0
   -5.0421    2.6909  -24.8384 H   0  0  0  0  0  0  0  0  0  0  0  0
   -6.7971    0.6563  -25.6492 C   0  0  0  0  0  0  0  0  0  0  0  0
   -8.1356   -0.0765  -25.9419 C   0  0  0  0  0  0  0  0  0  0  0  0
   -8.3210   -0.2042  -27.4576 C   0  0  0  0  0  0  0  0  0  0  0  0
   -7.4828   -0.7330  -27.9270 H   0  0  0  0  0  0  0  0  0  0  0  0
   -9.2318   -0.7625  -27.7019 H   0  0  0  0  0  0  0  0  0  0  0  0
   -8.3964    0.7694  -27.9497 H   0  0  0  0  0  0  0  0  0  0  0  0
   -9.3342    0.6683  -25.3354 C   0  0  0  0  0  0  0  0  0  0  0  0
   -9.2638    0.8006  -23.8114 C   0  0  0  0  0  0  0  0  0  0  0  0
   -8.7401   -0.4173  -23.1896 N   0  0  0  0  0  0  0  0  0  0  0  0
   -8.4191   -0.3585  -21.8554 C   0  0  0  0  0  0  0  0  0  0  0  0
   -8.8621    0.5201  -21.1346 O   0  0  0  0  0  0  0  0  0  0  0  0
   -7.4424   -1.4079  -21.2787 C   0  0  0  0  0  0  0  0  0  0  0  0
   -6.5785   -0.8297  -20.1802 C   0  0  0  0  0  0  0  0  0  0  0  0
   -6.8782   -1.0397  -18.8599 C   0  0  0  0  0  0  0  0  0  0  0  0
   -6.1863   -0.5440  -17.7985 N   0  0  0  0  0  0  0  0  0  0  0  0
   -5.1571    0.2221  -18.0641 C   0  0  0  0  0  0  0  0  0  0  0  0
   -4.7219    0.5345  -19.3810 C   0  0  0  0  0  0  0  0  0  0  0  0
   -3.5967    1.3650  -19.6244 C   0  0  0  0  0  0  0  0  0  0  0  0
   -3.2115    1.6622  -20.9030 C   0  0  0  0  0  0  0  0  0  0  0  0
   -3.9347    1.1299  -21.9938 C   0  0  0  0  0  0  0  0  0  0  0  0
   -5.0220    0.3172  -21.7849 C   0  0  0  0  0  0  0  0  0  0  0  0
   -5.4517   -0.0026  -20.4720 C   0  0  0  0  0  0  0  0  0  0  0  0
   -5.5617   -0.0864  -22.6358 H   0  0  0  0  0  0  0  0  0  0  0  0
   -3.6161    1.3691  -23.0048 H   0  0  0  0  0  0  0  0  0  0  0  0
   -2.3589    2.3105  -21.0881 H   0  0  0  0  0  0  0  0  0  0  0  0
   -3.0594    1.7808  -18.7741 H   0  0  0  0  0  0  0  0  0  0  0  0
   -4.6018    0.6288  -17.2155 H   0  0  0  0  0  0  0  0  0  0  0  0
   -7.7304   -1.6600  -18.5854 H   0  0  0  0  0  0  0  0  0  0  0  0
   -8.0442   -2.2263  -20.8588 H   0  0  0  0  0  0  0  0  0  0  0  0
   -6.8147   -1.8465  -22.0653 H   0  0  0  0  0  0  0  0  0  0  0  0
   -8.8427   -1.6263  -23.9903 C   0  0  0  0  0  0  0  0  0  0  0  0
   -8.0962   -1.4980  -25.3221 C   0  0  0  0  0  0  0  0  0  0  0  0
   -7.0561   -1.8090  -25.1906 H   0  0  0  0  0  0  0  0  0  0  0  0
   -8.5312   -2.2256  -26.0173 H   0  0  0  0  0  0  0  0  0  0  0  0
   -9.8995   -1.8540  -24.1878 H   0  0  0  0  0  0  0  0  0  0  0  0
   -8.4631   -2.4705  -23.4165 H   0  0  0  0  0  0  0  0  0  0  0  0
  -10.2510    1.0597  -23.4097 H   0  0  0  0  0  0  0  0  0  0  0  0
   -8.6097    1.6386  -23.5470 H   0  0  0  0  0  0  0  0  0  0  0  0
   -9.4249    1.6644  -25.7790 H   0  0  0  0  0  0  0  0  0  0  0  0
  -10.2602    0.1556  -25.6230 H   0  0  0  0  0  0  0  0  0  0  0  0
   -6.6626    0.6899  -24.5620 H   0  0  0  0  0  0  0  0  0  0  0  0
   -5.9790    0.0152  -26.0027 H   0  0  0  0  0  0  0  0  0  0  0  0
   -7.5618    2.4730  -26.5469 H   0  0  0  0  0  0  0  0  0  0  0  0
   -5.6115    3.0474  -27.9223 H   0  0  0  0  0  0  0  0  0  0  0  0
   -6.0655    1.3703  -28.2518 H   0  0  0  0  0  0  0  0  0  0  0  0
   -4.6798    1.7301  -27.2201 H   0  0  0  0  0  0  0  0  0  0  0  0
  1  2  1  0
  2  3  1  0
  3  4  1  0
  3  5  1  0
  3  6  1  0
  2  7  1  0
  7  8  1  0
  8  9  1  0
  9 10  1  0
  9 11  1  0
  9 12  1  0
  8 13  1  0
 13 14  1  0
 14 15  1  0
 15 16  1  0
 16 17  2  0
 16 18  1  0
 18 19  1  0
 19 20  2  0
 20 21  1  0
 21 22  2  0
 22 23  1  0
 23 24  2  0
 24 25  1  0
 25 26  2  0
 26 27  1  0
 27 28  2  0
 27 29  1  0
 26 30  1  0
 25 31  1  0
 24 32  1  0
 22 33  1  0
 20 34  1  0
 18 35  1  0
 18 36  1  0
 15 37  1  0
 37 38  1  0
 38 39  1  0
 38 40  1  0
 37 41  1  0
 37 42  1  0
 14 43  1  0
 14 44  1  0
 13 45  1  0
 13 46  1  0
  7 47  1  0
  7 48  1  0
  2 49  1  0
  1 50  1  0
  1 51  1  0
  1 52  1  0
 38  8  1  0
 28 19  1  0
 28 23  1  0
M  END
>  <cnnaffinities>  (68) 
[4.82235, 4.79968, 5.33224, 4.99197, 5.07611, 5.07623, 5.29402, 5.01096, 5.00932, 5.0648, 5.06487, 5.06398]

>  <score>  (68) 
4.82235

>  <index>  (68) 
70

>  <Smiles>  (68) 
C(C(C([H])([H])[H])(C(C1(C([H])([H])[H])C(C(N(C(=O)C(c2c(nc(c3c(c(c(c(c23)[H])[H])[H])[H])[H])[H])([H])[H])C(C1([H])[H])([H])[H])([H])[H])([H])[H])([H])[H])[H])([H])([H])[H]

>  <h>  (68) 
<NA>

>  <Training>  (68) 
True

>  <Success>  (68) 
True

>  <enamine_searched>  (68) 
False

>  <enamine_id>  (68) 
nan

$$$$

     RDKit          3D

 50 54  0  0  0  0  0  0  0  0999 V2000
  -10.5370   -2.5709  -22.6787 C   0  0  0  0  0  0  0  0  0  0  0  0
   -9.1128   -1.9915  -22.6800 C   0  0  1  0  0  0  0  0  0  0  0  0
   -8.7757   -1.3251  -21.3289 C   0  0  0  0  0  0  0  0  0  0  0  0
   -7.3316   -1.4427  -21.2301 N   0  0  0  0  0  0  0  0  0  0  0  0
   -6.5696   -0.8501  -20.1954 C   0  0  0  0  0  0  0  0  0  0  0  0
   -6.8933   -1.0601  -18.8790 C   0  0  0  0  0  0  0  0  0  0  0  0
   -6.2105   -0.5496  -17.8286 N   0  0  0  0  0  0  0  0  0  0  0  0
   -5.1734    0.2076  -18.0882 C   0  0  0  0  0  0  0  0  0  0  0  0
   -4.7282    0.5217  -19.4039 C   0  0  0  0  0  0  0  0  0  0  0  0
   -3.5991    1.3550  -19.6375 C   0  0  0  0  0  0  0  0  0  0  0  0
   -3.2165    1.6612  -20.9138 C   0  0  0  0  0  0  0  0  0  0  0  0
   -3.9476    1.1575  -22.0116 C   0  0  0  0  0  0  0  0  0  0  0  0
   -5.0384    0.3515  -21.8099 C   0  0  0  0  0  0  0  0  0  0  0  0
   -5.4468   -0.0079  -20.4947 C   0  0  0  0  0  0  0  0  0  0  0  0
   -5.5985   -0.0366  -22.6537 H   0  0  0  0  0  0  0  0  0  0  0  0
   -3.6419    1.4089  -23.0243 H   0  0  0  0  0  0  0  0  0  0  0  0
   -2.3621    2.3107  -21.0868 H   0  0  0  0  0  0  0  0  0  0  0  0
   -3.0726    1.7567  -18.7759 H   0  0  0  0  0  0  0  0  0  0  0  0
   -4.6333    0.6104  -17.2333 H   0  0  0  0  0  0  0  0  0  0  0  0
   -7.7450   -1.6830  -18.6073 H   0  0  0  0  0  0  0  0  0  0  0  0
   -6.8093   -2.4284  -22.0406 C   0  0  0  0  0  0  0  0  0  0  0  0
   -5.6528   -2.7914  -22.0124 O   0  0  0  0  0  0  0  0  0  0  0  0
   -7.9397   -2.9846  -22.9546 C   0  0  1  0  0  0  0  0  0  0  0  0
   -8.3193   -4.4130  -22.5043 C   0  0  0  0  0  0  0  0  0  0  0  0
   -7.2908   -5.3739  -22.8130 N   0  0  0  0  0  0  0  0  0  0  0  0
   -6.8492   -6.3426  -21.8330 C   0  0  0  0  0  0  0  0  0  0  0  0
   -5.4600   -6.0569  -21.4544 C   0  0  0  0  0  0  0  0  0  0  0  0
   -4.3565   -5.8195  -21.2353 N   0  0  0  0  0  0  0  0  0  0  0  0
   -6.8859   -7.3530  -22.2555 H   0  0  0  0  0  0  0  0  0  0  0  0
   -7.4929   -6.2853  -20.9497 H   0  0  0  0  0  0  0  0  0  0  0  0
   -6.7638   -5.4678  -24.0732 C   0  0  0  0  0  0  0  0  0  0  0  0
   -6.1661   -6.4690  -24.4409 O   0  0  0  0  0  0  0  0  0  0  0  0
   -6.9363   -4.2450  -24.9215 C   0  0  0  0  0  0  0  0  0  0  0  0
   -6.4992   -4.3064  -26.2417 C   0  0  0  0  0  0  0  0  0  0  0  0
   -6.5027   -3.1750  -27.0291 C   0  0  0  0  0  0  0  0  0  0  0  0
   -6.9274   -1.9832  -26.4592 C   0  0  0  0  0  0  0  0  0  0  0  0
   -6.8836   -0.8671  -27.2031 F   0  0  0  0  0  0  0  0  0  0  0  0
   -7.3877   -1.8963  -25.1655 C   0  0  0  0  0  0  0  0  0  0  0  0
   -7.4497   -3.0555  -24.3848 C   0  0  0  0  0  0  0  0  0  0  0  0
   -7.6673   -0.9173  -24.7906 H   0  0  0  0  0  0  0  0  0  0  0  0
   -6.1711   -3.1825  -28.0583 H   0  0  0  0  0  0  0  0  0  0  0  0
   -6.1449   -5.2633  -26.6075 H   0  0  0  0  0  0  0  0  0  0  0  0
   -8.4363   -4.3776  -21.4236 H   0  0  0  0  0  0  0  0  0  0  0  0
   -9.2689   -4.7130  -22.9820 H   0  0  0  0  0  0  0  0  0  0  0  0
   -9.0709   -0.2696  -21.2913 H   0  0  0  0  0  0  0  0  0  0  0  0
   -9.2859   -1.8545  -20.5095 H   0  0  0  0  0  0  0  0  0  0  0  0
   -9.0470   -1.2280  -23.4591 H   0  0  0  0  0  0  0  0  0  0  0  0
  -11.2874   -1.7794  -22.5471 H   0  0  0  0  0  0  0  0  0  0  0  0
  -10.7692   -3.0975  -23.6126 H   0  0  0  0  0  0  0  0  0  0  0  0
  -10.6772   -3.2876  -21.8567 H   0  0  0  0  0  0  0  0  0  0  0  0
  1  2  1  0
  2  3  1  0
  3  4  1  0
  4  5  1  0
  5  6  2  0
  6  7  1  0
  7  8  2  0
  8  9  1  0
  9 10  2  0
 10 11  1  0
 11 12  2  0
 12 13  1  0
 13 14  2  0
 13 15  1  0
 12 16  1  0
 11 17  1  0
 10 18  1  0
  8 19  1  0
  6 20  1  0
  4 21  1  0
 21 22  2  0
 21 23  1  0
 23 24  1  1
 24 25  1  0
 25 26  1  0
 26 27  1  0
 27 28  3  0
 26 29  1  0
 26 30  1  0
 25 31  1  0
 31 32  2  0
 31 33  1  0
 33 34  2  0
 34 35  1  0
 35 36  2  0
 36 37  1  0
 36 38  1  0
 38 39  2  0
 38 40  1  0
 35 41  1  0
 34 42  1  0
 24 43  1  0
 24 44  1  0
  3 45  1  0
  3 46  1  0
  2 47  1  6
  1 48  1  0
  1 49  1  0
  1 50  1  0
 23  2  1  0
 39 33  1  0
 14  5  1  0
 39 23  1  0
 14  9  1  0
M  END
>  <cnnaffinities>  (69) 
[5.38926, 5.75687, 5.85661]

>  <score>  (69) 
5.38926

>  <index>  (69) 
71

>  <Smiles>  (69) 
C([C@]1(C(N(c2c(nc(c3c(c(c(c(c23)[H])[H])[H])[H])[H])[H])C(=O)[C@]21C(N(C(C#N)([H])[H])C(=O)c1c(c(c(F)c(c21)[H])[H])[H])([H])[H])([H])[H])[H])([H])([H])[H]

>  <h>  (69) 
<NA>

>  <Training>  (69) 
True

>  <Success>  (69) 
True

>  <enamine_searched>  (69) 
False

>  <enamine_id>  (69) 
nan

$$$$

     RDKit          3D

 41 44  0  0  0  0  0  0  0  0999 V2000
   -8.4814    0.7242  -21.4334 O   0  0  0  0  0  0  0  0  0  0  0  0
   -8.3520   -0.3894  -21.9094 C   0  0  0  0  0  0  0  0  0  0  0  0
   -7.4273   -1.4240  -21.2710 C   0  0  0  0  0  0  0  0  0  0  0  0
   -6.5791   -0.8392  -20.1856 C   0  0  0  0  0  0  0  0  0  0  0  0
   -6.8940   -1.0520  -18.8739 C   0  0  0  0  0  0  0  0  0  0  0  0
   -6.2156   -0.5544  -17.8085 N   0  0  0  0  0  0  0  0  0  0  0  0
   -5.1784    0.2065  -18.0734 C   0  0  0  0  0  0  0  0  0  0  0  0
   -4.7374    0.5202  -19.3881 C   0  0  0  0  0  0  0  0  0  0  0  0
   -3.6082    1.3451  -19.6254 C   0  0  0  0  0  0  0  0  0  0  0  0
   -3.2191    1.6422  -20.9030 C   0  0  0  0  0  0  0  0  0  0  0  0
   -3.9391    1.1223  -22.0035 C   0  0  0  0  0  0  0  0  0  0  0  0
   -5.0343    0.3180  -21.8013 C   0  0  0  0  0  0  0  0  0  0  0  0
   -5.4579   -0.0099  -20.4834 C   0  0  0  0  0  0  0  0  0  0  0  0
   -5.5887   -0.0644  -22.6545 H   0  0  0  0  0  0  0  0  0  0  0  0
   -3.6235    1.3678  -23.0150 H   0  0  0  0  0  0  0  0  0  0  0  0
   -2.3608    2.2861  -21.0809 H   0  0  0  0  0  0  0  0  0  0  0  0
   -3.0737    1.7479  -18.7673 H   0  0  0  0  0  0  0  0  0  0  0  0
   -4.6243    0.6165  -17.2274 H   0  0  0  0  0  0  0  0  0  0  0  0
   -7.7573   -1.6713  -18.6199 H   0  0  0  0  0  0  0  0  0  0  0  0
   -6.8101   -1.8799  -22.0541 H   0  0  0  0  0  0  0  0  0  0  0  0
   -8.0735   -2.2125  -20.8614 H   0  0  0  0  0  0  0  0  0  0  0  0
   -8.9967   -0.7851  -23.0633 N   0  0  0  0  0  0  0  0  0  0  0  0
   -9.3115   -2.1690  -23.4018 C   0  0  0  0  0  0  0  0  0  0  0  0
  -10.5803   -2.7083  -22.7400 C   0  0  0  0  0  0  0  0  0  0  0  0
  -11.8835   -2.0911  -23.2744 C   0  0  0  0  0  0  0  0  0  0  0  0
  -12.0775   -0.6183  -22.9917 C   0  0  0  0  0  0  0  0  0  0  0  0
  -13.6108   -0.0365  -22.4445 S   0  0  0  0  0  0  0  0  0  0  0  0
  -12.9670    1.5197  -22.0745 C   0  0  0  0  0  0  0  0  0  0  0  0
  -11.6779    1.6254  -22.4964 C   0  0  0  0  0  0  0  0  0  0  0  0
  -11.1751    0.4082  -23.0663 C   0  0  0  0  0  0  0  0  0  0  0  0
   -9.8186    0.2267  -23.7130 C   0  0  0  0  0  0  0  0  0  0  0  0
   -9.2482    1.1576  -23.7041 H   0  0  0  0  0  0  0  0  0  0  0  0
   -9.9324   -0.0657  -24.7659 H   0  0  0  0  0  0  0  0  0  0  0  0
  -11.0693    2.5219  -22.4035 H   0  0  0  0  0  0  0  0  0  0  0  0
  -13.5400    2.2322  -21.4909 H   0  0  0  0  0  0  0  0  0  0  0  0
  -12.7346   -2.6423  -22.8557 H   0  0  0  0  0  0  0  0  0  0  0  0
  -11.9224   -2.2356  -24.3646 H   0  0  0  0  0  0  0  0  0  0  0  0
  -10.6243   -3.7865  -22.9297 H   0  0  0  0  0  0  0  0  0  0  0  0
  -10.5295   -2.5883  -21.6512 H   0  0  0  0  0  0  0  0  0  0  0  0
   -8.4542   -2.8115  -23.1814 H   0  0  0  0  0  0  0  0  0  0  0  0
   -9.4340   -2.2327  -24.4897 H   0  0  0  0  0  0  0  0  0  0  0  0
  1  2  2  0
  2  3  1  0
  3  4  1  0
  4  5  2  0
  5  6  1  0
  6  7  2  0
  7  8  1  0
  8  9  2  0
  9 10  1  0
 10 11  2  0
 11 12  1  0
 12 13  2  0
 12 14  1  0
 11 15  1  0
 10 16  1  0
  9 17  1  0
  7 18  1  0
  5 19  1  0
  3 20  1  0
  3 21  1  0
  2 22  1  0
 22 23  1  0
 23 24  1  0
 24 25  1  0
 25 26  1  0
 26 27  1  0
 27 28  1  0
 28 29  2  0
 29 30  1  0
 30 31  1  0
 31 32  1  0
 31 33  1  0
 29 34  1  0
 28 35  1  0
 25 36  1  0
 25 37  1  0
 24 38  1  0
 24 39  1  0
 23 40  1  0
 23 41  1  0
 13  4  1  0
 31 22  1  0
 13  8  1  0
 30 26  2  0
M  END
>  <cnnaffinities>  (70) 
[4.71217, 5.07609]

>  <score>  (70) 
4.71217

>  <index>  (70) 
72

>  <Smiles>  (70) 
O=C(C(c1c(nc(c2c(c(c(c(c12)[H])[H])[H])[H])[H])[H])([H])[H])N1C(C(C(c2sc(c(c2C1([H])[H])[H])[H])([H])[H])([H])[H])([H])[H]

>  <h>  (70) 
<NA>

>  <Training>  (70) 
True

>  <Success>  (70) 
True

>  <enamine_searched>  (70) 
False

>  <enamine_id>  (70) 
nan

$$$$

     RDKit          3D

 50 53  0  0  0  0  0  0  0  0999 V2000
   -8.7478    0.5470  -21.3584 O   0  0  0  0  0  0  0  0  0  0  0  0
   -8.3206   -0.4072  -21.9809 C   0  0  0  0  0  0  0  0  0  0  0  0
   -7.4120   -1.4442  -21.2856 C   0  0  0  0  0  0  0  0  0  0  0  0
   -6.5743   -0.8327  -20.1840 C   0  0  0  0  0  0  0  0  0  0  0  0
   -6.8787   -1.0405  -18.8646 C   0  0  0  0  0  0  0  0  0  0  0  0
   -6.1905   -0.5406  -17.8024 N   0  0  0  0  0  0  0  0  0  0  0  0
   -5.1574    0.2219  -18.0666 C   0  0  0  0  0  0  0  0  0  0  0  0
   -4.7207    0.5321  -19.3828 C   0  0  0  0  0  0  0  0  0  0  0  0
   -3.5905    1.3550  -19.6257 C   0  0  0  0  0  0  0  0  0  0  0  0
   -3.2020    1.6467  -20.9038 C   0  0  0  0  0  0  0  0  0  0  0  0
   -3.9314    1.1183  -21.9927 C   0  0  0  0  0  0  0  0  0  0  0  0
   -5.0278    0.3184  -21.7918 C   0  0  0  0  0  0  0  0  0  0  0  0
   -5.4512   -0.0011  -20.4747 C   0  0  0  0  0  0  0  0  0  0  0  0
   -5.5767   -0.0699  -22.6454 H   0  0  0  0  0  0  0  0  0  0  0  0
   -3.6177    1.3653  -23.0027 H   0  0  0  0  0  0  0  0  0  0  0  0
   -2.3448    2.2900  -21.0892 H   0  0  0  0  0  0  0  0  0  0  0  0
   -3.0544    1.7687  -18.7746 H   0  0  0  0  0  0  0  0  0  0  0  0
   -4.6042    0.6272  -17.2158 H   0  0  0  0  0  0  0  0  0  0  0  0
   -7.7297   -1.6609  -18.5876 H   0  0  0  0  0  0  0  0  0  0  0  0
   -8.0680   -2.2056  -20.8416 H   0  0  0  0  0  0  0  0  0  0  0  0
   -6.7747   -1.9592  -22.0163 H   0  0  0  0  0  0  0  0  0  0  0  0
   -8.5869   -0.5841  -23.3330 N   0  0  0  0  0  0  0  0  0  0  0  0
   -9.0837    0.5717  -24.0781 C   0  0  0  0  0  0  0  0  0  0  0  0
  -10.5893    0.5073  -24.3003 C   0  0  0  0  0  0  0  0  0  0  0  0
  -10.9757   -0.8068  -24.9726 C   0  0  0  0  0  0  0  0  0  0  0  0
  -10.4087   -1.9991  -24.2003 C   0  0  0  0  0  0  0  0  0  0  0  0
   -8.8932   -1.8833  -23.9403 C   0  0  1  0  0  0  0  0  0  0  0  0
   -8.0686   -2.1560  -25.2111 C   0  0  0  0  0  0  0  0  0  0  0  0
   -6.5803   -2.1029  -24.9796 C   0  0  0  0  0  0  0  0  0  0  0  0
   -5.8350   -0.9861  -25.3564 C   0  0  0  0  0  0  0  0  0  0  0  0
   -4.4701   -0.9248  -25.1107 C   0  0  0  0  0  0  0  0  0  0  0  0
   -3.8280   -1.9808  -24.4723 C   0  0  0  0  0  0  0  0  0  0  0  0
   -4.5610   -3.0952  -24.0738 C   0  0  0  0  0  0  0  0  0  0  0  0
   -5.9265   -3.1542  -24.3317 C   0  0  0  0  0  0  0  0  0  0  0  0
   -6.4977   -4.0253  -24.0174 H   0  0  0  0  0  0  0  0  0  0  0  0
   -4.0689   -3.9255  -23.5758 H   0  0  0  0  0  0  0  0  0  0  0  0
   -2.7589   -1.9305  -24.3099 H   0  0  0  0  0  0  0  0  0  0  0  0
   -3.9002   -0.0531  -25.4241 H   0  0  0  0  0  0  0  0  0  0  0  0
   -6.3299   -0.1529  -25.8480 H   0  0  0  0  0  0  0  0  0  0  0  0
   -8.3390   -3.1530  -25.5816 H   0  0  0  0  0  0  0  0  0  0  0  0
   -8.3544   -1.4518  -25.9971 H   0  0  0  0  0  0  0  0  0  0  0  0
   -8.6202   -2.6458  -23.2087 H   0  0  0  0  0  0  0  0  0  0  0  0
  -10.9202   -2.0822  -23.2348 H   0  0  0  0  0  0  0  0  0  0  0  0
  -10.6156   -2.9328  -24.7364 H   0  0  0  0  0  0  0  0  0  0  0  0
  -10.6034   -0.8231  -26.0060 H   0  0  0  0  0  0  0  0  0  0  0  0
  -12.0659   -0.8918  -25.0415 H   0  0  0  0  0  0  0  0  0  0  0  0
  -10.9218    1.3596  -24.9053 H   0  0  0  0  0  0  0  0  0  0  0  0
  -11.0807    0.5981  -23.3268 H   0  0  0  0  0  0  0  0  0  0  0  0
   -8.8048    1.4718  -23.5323 H   0  0  0  0  0  0  0  0  0  0  0  0
   -8.5774    0.6175  -25.0495 H   0  0  0  0  0  0  0  0  0  0  0  0
  1  2  2  0
  2  3  1  0
  3  4  1  0
  4  5  2  0
  5  6  1  0
  6  7  2  0
  7  8  1  0
  8  9  2  0
  9 10  1  0
 10 11  2  0
 11 12  1  0
 12 13  2  0
 12 14  1  0
 11 15  1  0
 10 16  1  0
  9 17  1  0
  7 18  1  0
  5 19  1  0
  3 20  1  0
  3 21  1  0
  2 22  1  0
 22 23  1  0
 23 24  1  0
 24 25  1  0
 25 26  1  0
 26 27  1  0
 27 28  1  0
 28 29  1  0
 29 30  2  0
 30 31  1  0
 31 32  2  0
 32 33  1  0
 33 34  2  0
 34 35  1  0
 33 36  1  0
 32 37  1  0
 31 38  1  0
 30 39  1  0
 28 40  1  0
 28 41  1  0
 27 42  1  1
 26 43  1  0
 26 44  1  0
 25 45  1  0
 25 46  1  0
 24 47  1  0
 24 48  1  0
 23 49  1  0
 23 50  1  0
 13  4  1  0
 27 22  1  0
 34 29  1  0
 13  8  1  0
M  END
>  <cnnaffinities>  (71) 
[5.25462]

>  <score>  (71) 
5.25462

>  <index>  (71) 
73

>  <Smiles>  (71) 
O=C(C(c1c(nc(c2c(c(c(c(c12)[H])[H])[H])[H])[H])[H])([H])[H])N1C(C(C(C([C@]1(C(c1c(c(c(c(c1[H])[H])[H])[H])[H])([H])[H])[H])([H])[H])([H])[H])([H])[H])([H])[H]

>  <h>  (71) 
<NA>

>  <Training>  (71) 
True

>  <Success>  (71) 
True

>  <enamine_searched>  (71) 
False

>  <enamine_id>  (71) 
nan

$$$$

     RDKit          3D

 43 47  0  0  0  0  0  0  0  0999 V2000
   -9.3404   -0.3734  -20.9843 O   0  0  0  0  0  0  0  0  0  0  0  0
   -8.7077   -1.3190  -21.3932 C   0  0  0  0  0  0  0  0  0  0  0  0
   -9.1316   -2.4221  -22.0866 N   0  0  0  0  0  0  0  0  0  0  0  0
   -8.0436   -3.1405  -22.7192 C   0  0  1  0  0  0  0  0  0  0  0  0
   -8.1027   -4.6835  -22.6949 C   0  0  0  0  0  0  0  0  0  0  0  0
   -8.2208   -4.7116  -24.2490 C   0  0  2  0  0  0  0  0  0  0  0  0
   -7.1713   -5.4588  -25.0056 C   0  0  0  0  0  0  0  0  0  0  0  0
   -5.8198   -5.2491  -24.7134 C   0  0  0  0  0  0  0  0  0  0  0  0
   -4.8254   -5.9584  -25.3749 C   0  0  0  0  0  0  0  0  0  0  0  0
   -5.1618   -6.8213  -26.4142 C   0  0  0  0  0  0  0  0  0  0  0  0
   -6.4919   -6.9677  -26.7887 C   0  0  0  0  0  0  0  0  0  0  0  0
   -7.4814   -6.3562  -26.0270 C   0  0  0  0  0  0  0  0  0  0  0  0
   -9.1367   -6.8252  -26.3352 Cl  0  0  0  0  0  0  0  0  0  0  0  0
   -6.7793   -7.6304  -27.6026 H   0  0  0  0  0  0  0  0  0  0  0  0
   -4.3957   -7.4036  -26.9181 H   0  0  0  0  0  0  0  0  0  0  0  0
   -3.7901   -5.8493  -25.0664 H   0  0  0  0  0  0  0  0  0  0  0  0
   -5.5464   -4.5345  -23.9365 H   0  0  0  0  0  0  0  0  0  0  0  0
   -8.0404   -3.1692  -24.2641 C   0  0  0  0  0  0  0  0  0  0  0  0
   -8.8401   -2.5855  -24.7186 H   0  0  0  0  0  0  0  0  0  0  0  0
   -7.0940   -2.8539  -24.7070 H   0  0  0  0  0  0  0  0  0  0  0  0
   -9.2079   -5.0210  -24.5807 H   0  0  0  0  0  0  0  0  0  0  0  0
   -8.9478   -5.0628  -22.1195 H   0  0  0  0  0  0  0  0  0  0  0  0
   -7.1908   -5.1512  -22.3176 H   0  0  0  0  0  0  0  0  0  0  0  0
   -6.8391   -2.5084  -22.0561 C   0  0  0  0  0  0  0  0  0  0  0  0
   -5.6785   -2.8207  -22.1846 O   0  0  0  0  0  0  0  0  0  0  0  0
   -7.3227   -1.4816  -21.2457 N   0  0  0  0  0  0  0  0  0  0  0  0
   -6.5866   -0.8542  -20.2080 C   0  0  0  0  0  0  0  0  0  0  0  0
   -6.9248   -1.0654  -18.8908 C   0  0  0  0  0  0  0  0  0  0  0  0
   -6.2352   -0.5646  -17.8356 N   0  0  0  0  0  0  0  0  0  0  0  0
   -5.1997    0.1945  -18.1016 C   0  0  0  0  0  0  0  0  0  0  0  0
   -4.7580    0.5019  -19.4196 C   0  0  0  0  0  0  0  0  0  0  0  0
   -3.6303    1.3333  -19.6424 C   0  0  0  0  0  0  0  0  0  0  0  0
   -3.2416    1.6457  -20.9158 C   0  0  0  0  0  0  0  0  0  0  0  0
   -3.9582    1.1420  -22.0260 C   0  0  0  0  0  0  0  0  0  0  0  0
   -5.0495    0.3294  -21.8373 C   0  0  0  0  0  0  0  0  0  0  0  0
   -5.4686   -0.0215  -20.5192 C   0  0  0  0  0  0  0  0  0  0  0  0
   -5.5982   -0.0490  -22.6958 H   0  0  0  0  0  0  0  0  0  0  0  0
   -3.6445    1.4059  -23.0338 H   0  0  0  0  0  0  0  0  0  0  0  0
   -2.3819    2.2886  -21.0818 H   0  0  0  0  0  0  0  0  0  0  0  0
   -3.1076    1.7238  -18.7726 H   0  0  0  0  0  0  0  0  0  0  0  0
   -4.6381    0.6070  -17.2605 H   0  0  0  0  0  0  0  0  0  0  0  0
   -7.7792   -1.6883  -18.6314 H   0  0  0  0  0  0  0  0  0  0  0  0
  -10.0890   -2.4966  -22.3802 H   0  0  0  0  0  0  0  0  0  0  0  0
  1  2  2  0
  2  3  1  0
  4  3  1  6
  4  5  1  0
  5  6  1  0
  6  7  1  0
  7  8  2  0
  8  9  1  0
  9 10  2  0
 10 11  1  0
 11 12  2  0
 12 13  1  0
 11 14  1  0
 10 15  1  0
  9 16  1  0
  8 17  1  0
  6 18  1  0
 18 19  1  0
 18 20  1  0
  6 21  1  1
  5 22  1  0
  5 23  1  0
  4 24  1  0
 24 25  2  0
 24 26  1  0
 26 27  1  0
 27 28  2  0
 28 29  1  0
 29 30  2  0
 30 31  1  0
 31 32  2  0
 32 33  1  0
 33 34  2  0
 34 35  1  0
 35 36  2  0
 35 37  1  0
 34 38  1  0
 33 39  1  0
 32 40  1  0
 30 41  1  0
 28 42  1  0
  3 43  1  0
 26  2  1  0
 36 27  1  0
 18  4  1  0
 36 31  1  0
 12  7  1  0
M  END
>  <cnnaffinities>  (72) 
[5.62645]

>  <score>  (72) 
5.62645

>  <index>  (72) 
74

>  <Smiles>  (72) 
O=C1N([C@]2(C([C@](c3c(c(c(c(c3Cl)[H])[H])[H])[H])(C2([H])[H])[H])([H])[H])C(=O)N1c1c(nc(c2c(c(c(c(c12)[H])[H])[H])[H])[H])[H])[H]

>  <h>  (72) 
<NA>

>  <Training>  (72) 
True

>  <Success>  (72) 
True

>  <enamine_searched>  (72) 
False

>  <enamine_id>  (72) 
nan

$$$$

     RDKit          3D

 66 71  0  0  0  0  0  0  0  0999 V2000
   -7.5224    3.3127  -21.8656 C   0  0  0  0  0  0  0  0  0  0  0  0
   -8.5773    2.8345  -22.7465 N   0  0  0  0  0  0  0  0  0  0  0  0
   -8.2024    2.0550  -23.8020 C   0  0  0  0  0  0  0  0  0  0  0  0
   -7.0291    1.8064  -24.0443 O   0  0  0  0  0  0  0  0  0  0  0  0
   -9.3309    1.4948  -24.6681 C   0  0  0  0  0  0  0  0  0  0  0  0
   -9.8849    0.3063  -24.0497 N   0  0  0  0  0  0  0  0  0  0  0  0
   -9.0687   -0.8999  -24.0289 C   0  0  0  0  0  0  0  0  0  0  0  0
   -9.2578   -1.6742  -22.7043 C   0  0  2  0  0  0  0  0  0  0  0  0
   -8.6443   -0.8494  -21.5445 C   0  0  0  0  0  0  0  0  0  0  0  0
   -9.1170    0.1371  -21.0094 O   0  0  0  0  0  0  0  0  0  0  0  0
   -7.4258   -1.3990  -21.2121 N   0  0  0  0  0  0  0  0  0  0  0  0
   -6.6165   -0.8311  -20.1954 C   0  0  0  0  0  0  0  0  0  0  0  0
   -6.9295   -1.0578  -18.8779 C   0  0  0  0  0  0  0  0  0  0  0  0
   -6.2243   -0.5778  -17.8265 N   0  0  0  0  0  0  0  0  0  0  0  0
   -5.1869    0.1788  -18.0938 C   0  0  0  0  0  0  0  0  0  0  0  0
   -4.7526    0.5018  -19.4105 C   0  0  0  0  0  0  0  0  0  0  0  0
   -3.6265    1.3338  -19.6443 C   0  0  0  0  0  0  0  0  0  0  0  0
   -3.2445    1.6412  -20.9205 C   0  0  0  0  0  0  0  0  0  0  0  0
   -3.9698    1.1375  -22.0217 C   0  0  0  0  0  0  0  0  0  0  0  0
   -5.0728    0.3388  -21.8244 C   0  0  0  0  0  0  0  0  0  0  0  0
   -5.4852   -0.0119  -20.5085 C   0  0  0  0  0  0  0  0  0  0  0  0
   -5.6474    0.0039  -22.6831 H   0  0  0  0  0  0  0  0  0  0  0  0
   -3.6567    1.3874  -23.0315 H   0  0  0  0  0  0  0  0  0  0  0  0
   -2.3850    2.2814  -21.0937 H   0  0  0  0  0  0  0  0  0  0  0  0
   -3.0932    1.7288  -18.7836 H   0  0  0  0  0  0  0  0  0  0  0  0
   -4.6246    0.5777  -17.2488 H   0  0  0  0  0  0  0  0  0  0  0  0
   -7.7965   -1.6675  -18.6354 H   0  0  0  0  0  0  0  0  0  0  0  0
   -7.0783   -2.5729  -21.9895 C   0  0  0  0  0  0  0  0  0  0  0  0
   -8.4079   -2.9728  -22.6409 C   0  0  2  0  0  0  0  0  0  0  0  0
   -8.1998   -3.7720  -23.9255 C   0  0  0  0  0  0  0  0  0  0  0  0
   -9.4171   -4.3953  -24.3859 N   0  0  0  0  0  0  0  0  0  0  0  0
   -9.4942   -5.0610  -25.5835 C   0  0  0  0  0  0  0  0  0  0  0  0
   -8.3847   -5.2411  -26.4498 C   0  0  0  0  0  0  0  0  0  0  0  0
   -8.5086   -5.8109  -27.6384 N   0  0  0  0  0  0  0  0  0  0  0  0
   -9.7332   -6.2158  -27.9931 C   0  0  0  0  0  0  0  0  0  0  0  0
  -10.8004   -6.1076  -27.1144 C   0  0  0  0  0  0  0  0  0  0  0  0
  -10.6887   -5.5560  -25.9065 N   0  0  0  0  0  0  0  0  0  0  0  0
  -11.7907   -6.4628  -27.3886 H   0  0  0  0  0  0  0  0  0  0  0  0
   -9.8598   -6.6220  -28.9936 H   0  0  0  0  0  0  0  0  0  0  0  0
   -7.3866   -4.8998  -26.1791 H   0  0  0  0  0  0  0  0  0  0  0  0
  -10.3159   -4.0782  -24.0367 H   0  0  0  0  0  0  0  0  0  0  0  0
   -7.4657   -4.5652  -23.7300 H   0  0  0  0  0  0  0  0  0  0  0  0
   -7.7666   -3.1242  -24.7066 H   0  0  0  0  0  0  0  0  0  0  0  0
   -8.9065   -3.6407  -21.9377 H   0  0  0  0  0  0  0  0  0  0  0  0
   -6.3114   -2.3473  -22.7487 H   0  0  0  0  0  0  0  0  0  0  0  0
   -6.6946   -3.3732  -21.3451 H   0  0  0  0  0  0  0  0  0  0  0  0
  -10.7464   -1.8872  -22.5157 C   0  0  0  0  0  0  0  0  0  0  0  0
  -11.2405   -2.9526  -21.7582 C   0  0  0  0  0  0  0  0  0  0  0  0
  -12.6001   -3.1254  -21.5976 C   0  0  0  0  0  0  0  0  0  0  0  0
  -13.1586   -4.4496  -20.6296 Cl  0  0  0  0  0  0  0  0  0  0  0  0
  -13.5205   -2.2381  -22.1466 C   0  0  0  0  0  0  0  0  0  0  0  0
  -13.0414   -1.1418  -22.8376 C   0  0  0  0  0  0  0  0  0  0  0  0
  -11.6718   -0.9642  -23.0262 C   0  0  0  0  0  0  0  0  0  0  0  0
  -11.2186    0.2663  -23.7496 C   0  0  0  0  0  0  0  0  0  0  0  0
  -11.9912    1.1691  -24.0486 O   0  0  0  0  0  0  0  0  0  0  0  0
  -13.7153   -0.3819  -23.2202 H   0  0  0  0  0  0  0  0  0  0  0  0
  -14.5838   -2.4376  -22.0668 H   0  0  0  0  0  0  0  0  0  0  0  0
  -10.6023   -3.6504  -21.2328 H   0  0  0  0  0  0  0  0  0  0  0  0
   -8.0204   -0.6118  -24.1686 H   0  0  0  0  0  0  0  0  0  0  0  0
   -9.3643   -1.5527  -24.8624 H   0  0  0  0  0  0  0  0  0  0  0  0
  -10.1363    2.2252  -24.7943 H   0  0  0  0  0  0  0  0  0  0  0  0
   -8.9126    1.2509  -25.6538 H   0  0  0  0  0  0  0  0  0  0  0  0
   -9.4880    2.6756  -22.3295 H   0  0  0  0  0  0  0  0  0  0  0  0
   -7.8997    4.1259  -21.2373 H   0  0  0  0  0  0  0  0  0  0  0  0
   -7.1125    2.4978  -21.2447 H   0  0  0  0  0  0  0  0  0  0  0  0
   -6.7209    3.7046  -22.4959 H   0  0  0  0  0  0  0  0  0  0  0  0
  1  2  1  0
  2  3  1  0
  3  4  2  0
  3  5  1  0
  5  6  1  0
  6  7  1  0
  8  7  1  6
  8  9  1  0
  9 10  2  0
  9 11  1  0
 11 12  1  0
 12 13  2  0
 13 14  1  0
 14 15  2  0
 15 16  1  0
 16 17  2  0
 17 18  1  0
 18 19  2  0
 19 20  1  0
 20 21  2  0
 20 22  1  0
 19 23  1  0
 18 24  1  0
 17 25  1  0
 15 26  1  0
 13 27  1  0
 11 28  1  0
 28 29  1  0
 29 30  1  0
 30 31  1  0
 31 32  1  0
 32 33  2  0
 33 34  1  0
 34 35  2  0
 35 36  1  0
 36 37  2  0
 36 38  1  0
 35 39  1  0
 33 40  1  0
 31 41  1  0
 30 42  1  0
 30 43  1  0
 29 44  1  1
 28 45  1  0
 28 46  1  0
  8 47  1  0
 47 48  2  0
 48 49  1  0
 49 50  1  0
 49 51  2  0
 51 52  1  0
 52 53  2  0
 53 54  1  0
 54 55  2  0
 52 56  1  0
 51 57  1  0
 48 58  1  0
  7 59  1  0
  7 60  1  0
  5 61  1  0
  5 62  1  0
  2 63  1  0
  1 64  1  0
  1 65  1  0
  1 66  1  0
 54  6  1  0
 29  8  1  0
 37 32  1  0
 53 47  1  0
 21 12  1  0
 21 16  1  0
M  END
>  <cnnaffinities>  (73) 
[6.31159]

>  <score>  (73) 
6.31159

>  <index>  (73) 
75

>  <Smiles>  (73) 
C(N(C(=O)C(N1C([C@@]2(C(=O)N(c3c(nc(c4c(c(c(c(c34)[H])[H])[H])[H])[H])[H])C([C@@]2(C(N(c2c(nc(c(n2)[H])[H])[H])[H])([H])[H])[H])([H])[H])c2c(c(Cl)c(c(c2C1=O)[H])[H])[H])([H])[H])([H])[H])[H])([H])([H])[H]

>  <h>  (73) 
<NA>

>  <Training>  (73) 
True

>  <Success>  (73) 
True

>  <enamine_searched>  (73) 
False

>  <enamine_id>  (73) 
nan

$$$$

     RDKit          3D

 66 71  0  0  0  0  0  0  0  0999 V2000
   -8.1952   -3.4715  -24.1030 C   0  0  0  0  0  0  0  0  0  0  0  0
   -8.4678   -2.7352  -22.7834 C   0  0  1  0  0  0  0  0  0  0  0  0
   -7.1838   -2.5243  -21.9500 C   0  0  0  0  0  0  0  0  0  0  0  0
   -7.4553   -1.3151  -21.1942 N   0  0  0  0  0  0  0  0  0  0  0  0
   -6.6159   -0.7934  -20.1717 C   0  0  0  0  0  0  0  0  0  0  0  0
   -6.9128   -1.0406  -18.8579 C   0  0  0  0  0  0  0  0  0  0  0  0
   -6.1964   -0.5649  -17.8109 N   0  0  0  0  0  0  0  0  0  0  0  0
   -5.1684    0.2029  -18.0815 C   0  0  0  0  0  0  0  0  0  0  0  0
   -4.7368    0.5339  -19.3976 C   0  0  0  0  0  0  0  0  0  0  0  0
   -3.6157    1.3735  -19.6458 C   0  0  0  0  0  0  0  0  0  0  0  0
   -3.2357    1.6739  -20.9250 C   0  0  0  0  0  0  0  0  0  0  0  0
   -3.9467    1.1349  -22.0194 C   0  0  0  0  0  0  0  0  0  0  0  0
   -5.0307    0.3132  -21.8062 C   0  0  0  0  0  0  0  0  0  0  0  0
   -5.4718    0.0063  -20.4882 C   0  0  0  0  0  0  0  0  0  0  0  0
   -5.5647   -0.0984  -22.6574 H   0  0  0  0  0  0  0  0  0  0  0  0
   -3.6446    1.3858  -23.0317 H   0  0  0  0  0  0  0  0  0  0  0  0
   -2.3951    2.3411  -21.1033 H   0  0  0  0  0  0  0  0  0  0  0  0
   -3.0874    1.7868  -18.7904 H   0  0  0  0  0  0  0  0  0  0  0  0
   -4.6221    0.6115  -17.2299 H   0  0  0  0  0  0  0  0  0  0  0  0
   -7.7696   -1.6605  -18.6018 H   0  0  0  0  0  0  0  0  0  0  0  0
   -8.5342   -0.5951  -21.6495 C   0  0  0  0  0  0  0  0  0  0  0  0
   -8.9209    0.4506  -21.1601 O   0  0  0  0  0  0  0  0  0  0  0  0
   -9.1345   -1.3233  -22.8767 C   0  0  1  0  0  0  0  0  0  0  0  0
   -8.7138   -0.5892  -24.1720 C   0  0  0  0  0  0  0  0  0  0  0  0
   -9.3127    0.7271  -24.2665 N   0  0  0  0  0  0  0  0  0  0  0  0
   -8.5123    1.7837  -24.8608 C   0  0  0  0  0  0  0  0  0  0  0  0
   -7.5476    2.4136  -23.8634 C   0  0  0  0  0  0  0  0  0  0  0  0
   -8.2725    3.2147  -22.8318 N   0  0  0  0  0  4  0  0  0  0  0  0
   -7.4970    3.3150  -21.5622 C   0  0  0  0  0  0  0  0  0  0  0  0
   -6.3377    4.2982  -21.6161 C   0  0  0  0  0  0  0  0  0  0  0  0
   -6.8048    5.5902  -21.9420 O   0  0  0  0  0  0  0  0  0  0  0  0
   -7.4338    5.5853  -23.2055 C   0  0  0  0  0  0  0  0  0  0  0  0
   -8.6375    4.6374  -23.2491 C   0  0  0  0  0  0  0  0  0  0  0  0
   -9.3952    4.9939  -22.5460 H   0  0  0  0  0  0  0  0  0  0  0  0
   -9.0633    4.6139  -24.2544 H   0  0  0  0  0  0  0  0  0  0  0  0
   -6.7069    5.3040  -23.9819 H   0  0  0  0  0  0  0  0  0  0  0  0
   -7.7592    6.6125  -23.3850 H   0  0  0  0  0  0  0  0  0  0  0  0
   -5.8759    4.3798  -20.6270 H   0  0  0  0  0  0  0  0  0  0  0  0
   -5.5739    3.9581  -22.3368 H   0  0  0  0  0  0  0  0  0  0  0  0
   -7.1688    2.3128  -21.2750 H   0  0  0  0  0  0  0  0  0  0  0  0
   -8.2097    3.6899  -20.8294 H   0  0  0  0  0  0  0  0  0  0  0  0
   -9.1356    2.6941  -22.5781 H   0  0  0  0  0  0  0  0  0  0  0  0
   -6.9842    1.6399  -23.3279 H   0  0  0  0  0  0  0  0  0  0  0  0
   -6.8285    3.0532  -24.3796 H   0  0  0  0  0  0  0  0  0  0  0  0
   -7.9319    1.3763  -25.6966 H   0  0  0  0  0  0  0  0  0  0  0  0
   -9.2086    2.5326  -25.2361 H   0  0  0  0  0  0  0  0  0  0  0  0
  -10.6614    0.8868  -24.1047 C   0  0  0  0  0  0  0  0  0  0  0  0
  -11.2623    1.8879  -24.4772 O   0  0  0  0  0  0  0  0  0  0  0  0
  -11.3659   -0.2349  -23.3931 C   0  0  0  0  0  0  0  0  0  0  0  0
  -12.7540   -0.1738  -23.2922 C   0  0  0  0  0  0  0  0  0  0  0  0
  -13.4452   -1.1185  -22.5612 C   0  0  0  0  0  0  0  0  0  0  0  0
  -12.7294   -2.1196  -21.9053 C   0  0  0  0  0  0  0  0  0  0  0  0
  -13.5797   -3.2516  -20.8934 Cl  0  0  0  0  0  0  0  0  0  0  0  0
  -11.3528   -2.2009  -22.0023 C   0  0  0  0  0  0  0  0  0  0  0  0
  -10.6506   -1.2846  -22.7935 C   0  0  0  0  0  0  0  0  0  0  0  0
  -10.8414   -2.9588  -21.4178 H   0  0  0  0  0  0  0  0  0  0  0  0
  -14.5224   -1.0702  -22.4667 H   0  0  0  0  0  0  0  0  0  0  0  0
  -13.2596    0.6490  -23.7860 H   0  0  0  0  0  0  0  0  0  0  0  0
   -7.6264   -0.4616  -24.1831 H   0  0  0  0  0  0  0  0  0  0  0  0
   -9.0084   -1.2076  -25.0361 H   0  0  0  0  0  0  0  0  0  0  0  0
   -6.9769   -3.3642  -21.2750 H   0  0  0  0  0  0  0  0  0  0  0  0
   -6.3021   -2.4044  -22.5997 H   0  0  0  0  0  0  0  0  0  0  0  0
   -9.1448   -3.3501  -22.1857 H   0  0  0  0  0  0  0  0  0  0  0  0
   -9.1013   -3.5772  -24.7121 H   0  0  0  0  0  0  0  0  0  0  0  0
   -7.4478   -2.9416  -24.7083 H   0  0  0  0  0  0  0  0  0  0  0  0
   -7.8022   -4.4786  -23.9162 H   0  0  0  0  0  0  0  0  0  0  0  0
  1  2  1  0
  2  3  1  0
  3  4  1  0
  4  5  1  0
  5  6  2  0
  6  7  1  0
  7  8  2  0
  8  9  1  0
  9 10  2  0
 10 11  1  0
 11 12  2  0
 12 13  1  0
 13 14  2  0
 13 15  1  0
 12 16  1  0
 11 17  1  0
 10 18  1  0
  8 19  1  0
  6 20  1  0
  4 21  1  0
 21 22  2  0
 21 23  1  0
 23 24  1  6
 24 25  1  0
 25 26  1  0
 26 27  1  0
 27 28  1  0
 28 29  1  0
 29 30  1  0
 30 31  1  0
 31 32  1  0
 32 33  1  0
 33 34  1  0
 33 35  1  0
 32 36  1  0
 32 37  1  0
 30 38  1  0
 30 39  1  0
 29 40  1  0
 29 41  1  0
 28 42  1  0
 27 43  1  0
 27 44  1  0
 26 45  1  0
 26 46  1  0
 25 47  1  0
 47 48  2  0
 47 49  1  0
 49 50  2  0
 50 51  1  0
 51 52  2  0
 52 53  1  0
 52 54  1  0
 54 55  2  0
 54 56  1  0
 51 57  1  0
 50 58  1  0
 24 59  1  0
 24 60  1  0
  3 61  1  0
  3 62  1  0
  2 63  1  1
  1 64  1  0
  1 65  1  0
  1 66  1  0
 23  2  1  0
 33 28  1  0
 55 49  1  0
 14  5  1  0
 55 23  1  0
 14  9  1  0
M  CHG  1  28   1
M  END
>  <cnnaffinities>  (74) 
[6.28259]

>  <score>  (74) 
6.28259

>  <index>  (74) 
76

>  <Smiles>  (74) 
C([C@]1(C(N(c2c(nc(c3c(c(c(c(c23)[H])[H])[H])[H])[H])[H])C(=O)[C@]21C(N(C(C([N+]1(C(C(OC(C1([H])[H])([H])[H])([H])[H])([H])[H])[H])([H])[H])([H])[H])C(=O)c1c(c(c(Cl)c(c21)[H])[H])[H])([H])[H])([H])[H])[H])([H])([H])[H]

>  <h>  (74) 
<NA>

>  <Training>  (74) 
True

>  <Success>  (74) 
True

>  <enamine_searched>  (74) 
False

>  <enamine_id>  (74) 
nan

$$$$

     RDKit          3D

 55 60  0  0  0  0  0  0  0  0999 V2000
   -7.8772   -3.5926  -24.1083 C   0  0  0  0  0  0  0  0  0  0  0  0
   -8.2860   -2.8487  -22.8283 C   0  0  1  0  0  0  0  0  0  0  0  0
   -7.0818   -2.6117  -21.8890 C   0  0  0  0  0  0  0  0  0  0  0  0
   -7.4065   -1.3789  -21.2012 N   0  0  0  0  0  0  0  0  0  0  0  0
   -6.6021   -0.8081  -20.1768 C   0  0  0  0  0  0  0  0  0  0  0  0
   -6.9050   -1.0456  -18.8630 C   0  0  0  0  0  0  0  0  0  0  0  0
   -6.1962   -0.5603  -17.8146 N   0  0  0  0  0  0  0  0  0  0  0  0
   -5.1680    0.2072  -18.0804 C   0  0  0  0  0  0  0  0  0  0  0  0
   -4.7312    0.5311  -19.3974 C   0  0  0  0  0  0  0  0  0  0  0  0
   -3.6004    1.3594  -19.6416 C   0  0  0  0  0  0  0  0  0  0  0  0
   -3.2054    1.6388  -20.9185 C   0  0  0  0  0  0  0  0  0  0  0  0
   -3.9130    1.0899  -22.0113 C   0  0  0  0  0  0  0  0  0  0  0  0
   -5.0049    0.2799  -21.8018 C   0  0  0  0  0  0  0  0  0  0  0  0
   -5.4569   -0.0053  -20.4862 C   0  0  0  0  0  0  0  0  0  0  0  0
   -5.5646   -0.0956  -22.6544 H   0  0  0  0  0  0  0  0  0  0  0  0
   -3.6149    1.3398  -23.0245 H   0  0  0  0  0  0  0  0  0  0  0  0
   -2.3585    2.2958  -21.1003 H   0  0  0  0  0  0  0  0  0  0  0  0
   -3.0736    1.7734  -18.7846 H   0  0  0  0  0  0  0  0  0  0  0  0
   -4.6227    0.6148  -17.2278 H   0  0  0  0  0  0  0  0  0  0  0  0
   -7.7586   -1.6680  -18.6045 H   0  0  0  0  0  0  0  0  0  0  0  0
   -8.4324   -0.6603  -21.7717 C   0  0  0  0  0  0  0  0  0  0  0  0
   -8.8211    0.4065  -21.3471 O   0  0  0  0  0  0  0  0  0  0  0  0
   -8.9707   -1.4499  -23.0001 C   0  0  1  0  0  0  0  0  0  0  0  0
   -8.5176   -0.7783  -24.3248 C   0  0  0  0  0  0  0  0  0  0  0  0
   -9.1974    0.4726  -24.5771 N   0  0  0  0  0  0  0  0  0  0  0  0
   -8.4312    1.6644  -24.9095 C   0  0  0  0  0  0  0  0  0  0  0  0
   -8.1336    2.5203  -23.7126 C   0  0  0  0  0  0  0  0  0  0  0  0
   -8.9520    3.3769  -23.0683 C   0  0  0  0  0  0  0  0  0  0  0  0
   -8.2685    3.9228  -22.0306 O   0  0  0  0  0  0  0  0  0  0  0  0
   -7.0619    3.3352  -22.0734 C   0  0  0  0  0  0  0  0  0  0  0  0
   -6.9056    2.5103  -23.0589 N   0  0  0  0  0  0  0  0  0  0  0  0
   -6.3927    3.5793  -21.2571 H   0  0  0  0  0  0  0  0  0  0  0  0
   -9.9855    3.6652  -23.1774 H   0  0  0  0  0  0  0  0  0  0  0  0
   -9.0294    2.2247  -25.6342 H   0  0  0  0  0  0  0  0  0  0  0  0
   -7.4868    1.3613  -25.3730 H   0  0  0  0  0  0  0  0  0  0  0  0
  -10.5518    0.6019  -24.4416 C   0  0  0  0  0  0  0  0  0  0  0  0
  -11.1499    1.5834  -24.8699 O   0  0  0  0  0  0  0  0  0  0  0  0
  -11.2354   -0.5027  -23.6875 C   0  0  0  0  0  0  0  0  0  0  0  0
  -12.6308   -0.5072  -23.6343 C   0  0  0  0  0  0  0  0  0  0  0  0
  -13.3008   -1.3992  -22.8203 C   0  0  0  0  0  0  0  0  0  0  0  0
  -12.5510   -2.2665  -22.0351 C   0  0  0  0  0  0  0  0  0  0  0  0
  -13.1945   -3.0915  -21.1930 F   0  0  0  0  0  0  0  0  0  0  0  0
  -11.1735   -2.2963  -22.0802 C   0  0  0  0  0  0  0  0  0  0  0  0
  -10.4912   -1.4480  -22.9622 C   0  0  0  0  0  0  0  0  0  0  0  0
  -10.6603   -2.9612  -21.3940 H   0  0  0  0  0  0  0  0  0  0  0  0
  -14.3811   -1.4229  -22.7500 H   0  0  0  0  0  0  0  0  0  0  0  0
  -13.1634    0.2249  -24.2316 H   0  0  0  0  0  0  0  0  0  0  0  0
   -8.6996   -1.4755  -25.1590 H   0  0  0  0  0  0  0  0  0  0  0  0
   -7.4460   -0.5596  -24.2536 H   0  0  0  0  0  0  0  0  0  0  0  0
   -6.1432   -2.5149  -22.4586 H   0  0  0  0  0  0  0  0  0  0  0  0
   -6.9416   -3.4278  -21.1691 H   0  0  0  0  0  0  0  0  0  0  0  0
   -9.0069   -3.4729  -22.2952 H   0  0  0  0  0  0  0  0  0  0  0  0
   -8.7233   -3.7364  -24.7905 H   0  0  0  0  0  0  0  0  0  0  0  0
   -7.0986   -3.0465  -24.6563 H   0  0  0  0  0  0  0  0  0  0  0  0
   -7.4708   -4.5827  -23.8705 H   0  0  0  0  0  0  0  0  0  0  0  0
  1  2  1  0
  2  3  1  0
  3  4  1  0
  4  5  1  0
  5  6  2  0
  6  7  1  0
  7  8  2  0
  8  9  1  0
  9 10  2  0
 10 11  1  0
 11 12  2  0
 12 13  1  0
 13 14  2  0
 13 15  1  0
 12 16  1  0
 11 17  1  0
 10 18  1  0
  8 19  1  0
  6 20  1  0
  4 21  1  0
 21 22  2  0
 21 23  1  0
 23 24  1  6
 24 25  1  0
 25 26  1  0
 26 27  1  0
 27 28  2  0
 28 29  1  0
 29 30  1  0
 30 31  2  0
 30 32  1  0
 28 33  1  0
 26 34  1  0
 26 35  1  0
 25 36  1  0
 36 37  2  0
 36 38  1  0
 38 39  2  0
 39 40  1  0
 40 41  2  0
 41 42  1  0
 41 43  1  0
 43 44  2  0
 43 45  1  0
 40 46  1  0
 39 47  1  0
 24 48  1  0
 24 49  1  0
  3 50  1  0
  3 51  1  0
  2 52  1  1
  1 53  1  0
  1 54  1  0
  1 55  1  0
 23  2  1  0
 31 27  1  0
 44 38  1  0
 14  5  1  0
 44 23  1  0
 14  9  1  0
M  END
>  <cnnaffinities>  (75) 
[5.70858]

>  <score>  (75) 
5.70858

>  <index>  (75) 
77

>  <Smiles>  (75) 
C([C@]1(C(N(c2c(nc(c3c(c(c(c(c23)[H])[H])[H])[H])[H])[H])C(=O)[C@]21C(N(C(c1c(oc(n1)[H])[H])([H])[H])C(=O)c1c(c(c(F)c(c21)[H])[H])[H])([H])[H])([H])[H])[H])([H])([H])[H]

>  <h>  (75) 
<NA>

>  <Training>  (75) 
True

>  <Success>  (75) 
True

>  <enamine_searched>  (75) 
False

>  <enamine_id>  (75) 
nan

$$$$

     RDKit          3D

 56 60  0  0  0  0  0  0  0  0999 V2000
   -7.3222    3.4510  -21.8815 C   0  0  0  0  0  0  0  0  0  0  0  0
   -8.1416    2.9634  -22.9752 N   0  0  0  0  0  0  0  0  0  0  0  0
   -7.5693    2.2553  -23.9759 C   0  0  0  0  0  0  0  0  0  0  0  0
   -6.3553    2.1238  -24.0788 O   0  0  0  0  0  0  0  0  0  0  0  0
   -8.5223    1.6375  -25.0059 C   0  0  0  0  0  0  0  0  0  0  0  0
   -9.2645    0.4966  -24.5008 N   0  0  0  0  0  0  0  0  0  0  0  0
   -8.5691   -0.7612  -24.3076 C   0  0  0  0  0  0  0  0  0  0  0  0
   -8.9888   -1.4578  -22.9865 C   0  0  2  0  0  0  0  0  0  0  0  0
   -8.4427   -0.6671  -21.7689 C   0  0  0  0  0  0  0  0  0  0  0  0
   -8.8361    0.4034  -21.3517 O   0  0  0  0  0  0  0  0  0  0  0  0
   -7.4088   -1.3759  -21.2039 N   0  0  0  0  0  0  0  0  0  0  0  0
   -6.6060   -0.8046  -20.1779 C   0  0  0  0  0  0  0  0  0  0  0  0
   -6.9067   -1.0441  -18.8637 C   0  0  0  0  0  0  0  0  0  0  0  0
   -6.1995   -0.5590  -17.8148 N   0  0  0  0  0  0  0  0  0  0  0  0
   -5.1675    0.2060  -18.0796 C   0  0  0  0  0  0  0  0  0  0  0  0
   -4.7301    0.5291  -19.3956 C   0  0  0  0  0  0  0  0  0  0  0  0
   -3.5990    1.3568  -19.6421 C   0  0  0  0  0  0  0  0  0  0  0  0
   -3.2102    1.6453  -20.9212 C   0  0  0  0  0  0  0  0  0  0  0  0
   -3.9318    1.1160  -22.0152 C   0  0  0  0  0  0  0  0  0  0  0  0
   -5.0278    0.3139  -21.8028 C   0  0  0  0  0  0  0  0  0  0  0  0
   -5.4669    0.0055  -20.4869 C   0  0  0  0  0  0  0  0  0  0  0  0
   -5.5803   -0.0797  -22.6516 H   0  0  0  0  0  0  0  0  0  0  0  0
   -3.6382    1.3593  -23.0305 H   0  0  0  0  0  0  0  0  0  0  0  0
   -2.3580    2.2955  -21.0996 H   0  0  0  0  0  0  0  0  0  0  0  0
   -3.0704    1.7700  -18.7859 H   0  0  0  0  0  0  0  0  0  0  0  0
   -4.6219    0.6133  -17.2271 H   0  0  0  0  0  0  0  0  0  0  0  0
   -7.7595   -1.6678  -18.6067 H   0  0  0  0  0  0  0  0  0  0  0  0
   -7.0887   -2.6140  -21.8845 C   0  0  0  0  0  0  0  0  0  0  0  0
   -8.2925   -2.8524  -22.8253 C   0  0  2  0  0  0  0  0  0  0  0  0
   -7.8809   -3.5869  -24.1083 C   0  0  0  0  0  0  0  0  0  0  0  0
   -7.4634   -4.5720  -23.8714 H   0  0  0  0  0  0  0  0  0  0  0  0
   -7.1108   -3.0314  -24.6575 H   0  0  0  0  0  0  0  0  0  0  0  0
   -8.7289   -3.7397  -24.7853 H   0  0  0  0  0  0  0  0  0  0  0  0
   -9.0100   -3.4849  -22.2978 H   0  0  0  0  0  0  0  0  0  0  0  0
   -6.1498   -2.5225  -22.4534 H   0  0  0  0  0  0  0  0  0  0  0  0
   -6.9533   -3.4279  -21.1613 H   0  0  0  0  0  0  0  0  0  0  0  0
  -10.5092   -1.4679  -22.9147 C   0  0  0  0  0  0  0  0  0  0  0  0
  -11.1613   -2.3074  -22.0020 C   0  0  0  0  0  0  0  0  0  0  0  0
  -12.5413   -2.3034  -21.9174 C   0  0  0  0  0  0  0  0  0  0  0  0
  -13.3395   -3.3527  -20.7821 Cl  0  0  0  0  0  0  0  0  0  0  0  0
  -13.3122   -1.4512  -22.7078 C   0  0  0  0  0  0  0  0  0  0  0  0
  -12.6732   -0.5632  -23.5506 C   0  0  0  0  0  0  0  0  0  0  0  0
  -11.2800   -0.5390  -23.6288 C   0  0  0  0  0  0  0  0  0  0  0  0
  -10.6273    0.5774  -24.3927 C   0  0  0  0  0  0  0  0  0  0  0  0
  -11.2640    1.5196  -24.8434 O   0  0  0  0  0  0  0  0  0  0  0  0
  -13.2288    0.1551  -24.1436 H   0  0  0  0  0  0  0  0  0  0  0  0
  -14.3926   -1.4704  -22.6226 H   0  0  0  0  0  0  0  0  0  0  0  0
  -10.6041   -2.9422  -21.3217 H   0  0  0  0  0  0  0  0  0  0  0  0
   -7.4985   -0.5362  -24.2770 H   0  0  0  0  0  0  0  0  0  0  0  0
   -8.7698   -1.4462  -25.1485 H   0  0  0  0  0  0  0  0  0  0  0  0
   -7.8923    1.3499  -25.8542 H   0  0  0  0  0  0  0  0  0  0  0  0
   -9.2829    2.3475  -25.3419 H   0  0  0  0  0  0  0  0  0  0  0  0
   -9.1430    2.9272  -22.8520 H   0  0  0  0  0  0  0  0  0  0  0  0
   -7.9905    3.9570  -21.1845 H   0  0  0  0  0  0  0  0  0  0  0  0
   -6.7870    2.6250  -21.3841 H   0  0  0  0  0  0  0  0  0  0  0  0
   -6.5795    4.1709  -22.2445 H   0  0  0  0  0  0  0  0  0  0  0  0
  1  2  1  0
  2  3  1  0
  3  4  2  0
  3  5  1  0
  5  6  1  0
  6  7  1  0
  8  7  1  6
  8  9  1  0
  9 10  2  0
  9 11  1  0
 11 12  1  0
 12 13  2  0
 13 14  1  0
 14 15  2  0
 15 16  1  0
 16 17  2  0
 17 18  1  0
 18 19  2  0
 19 20  1  0
 20 21  2  0
 20 22  1  0
 19 23  1  0
 18 24  1  0
 17 25  1  0
 15 26  1  0
 13 27  1  0
 11 28  1  0
 28 29  1  0
 29 30  1  0
 30 31  1  0
 30 32  1  0
 30 33  1  0
 29 34  1  1
 28 35  1  0
 28 36  1  0
  8 37  1  0
 37 38  2  0
 38 39  1  0
 39 40  1  0
 39 41  2  0
 41 42  1  0
 42 43  2  0
 43 44  1  0
 44 45  2  0
 42 46  1  0
 41 47  1  0
 38 48  1  0
  7 49  1  0
  7 50  1  0
  5 51  1  0
  5 52  1  0
  2 53  1  0
  1 54  1  0
  1 55  1  0
  1 56  1  0
 44  6  1  0
 29  8  1  0
 43 37  1  0
 21 12  1  0
 21 16  1  0
M  END
>  <cnnaffinities>  (76) 
[6.18253]

>  <score>  (76) 
6.18253

>  <index>  (76) 
78

>  <Smiles>  (76) 
C(N(C(=O)C(N1C([C@@]2(C(=O)N(c3c(nc(c4c(c(c(c(c34)[H])[H])[H])[H])[H])[H])C([C@@]2(C([H])([H])[H])[H])([H])[H])c2c(c(Cl)c(c(c2C1=O)[H])[H])[H])([H])[H])([H])[H])[H])([H])([H])[H]

>  <h>  (76) 
<NA>

>  <Training>  (76) 
True

>  <Success>  (76) 
True

>  <enamine_searched>  (76) 
False

>  <enamine_id>  (76) 
nan

$$$$

     RDKit          3D

 45 49  0  0  0  0  0  0  0  0999 V2000
  -10.5764   -2.6923  -22.4854 C   0  0  0  0  0  0  0  0  0  0  0  0
   -9.1804   -2.4395  -22.1680 N   0  0  0  0  0  0  0  0  0  0  0  0
   -8.7696   -1.3786  -21.3974 C   0  0  0  0  0  0  0  0  0  0  0  0
   -9.4458   -0.4636  -20.9929 O   0  0  0  0  0  0  0  0  0  0  0  0
   -7.3714   -1.5344  -21.2144 N   0  0  0  0  0  0  0  0  0  0  0  0
   -6.6005   -0.8651  -20.2034 C   0  0  0  0  0  0  0  0  0  0  0  0
   -6.9097   -1.0634  -18.8807 C   0  0  0  0  0  0  0  0  0  0  0  0
   -6.2102   -0.5544  -17.8351 N   0  0  0  0  0  0  0  0  0  0  0  0
   -5.1778    0.2050  -18.0983 C   0  0  0  0  0  0  0  0  0  0  0  0
   -4.7466    0.5196  -19.4154 C   0  0  0  0  0  0  0  0  0  0  0  0
   -3.6124    1.3510  -19.6407 C   0  0  0  0  0  0  0  0  0  0  0  0
   -3.2227    1.6582  -20.9133 C   0  0  0  0  0  0  0  0  0  0  0  0
   -3.9546    1.1462  -22.0080 C   0  0  0  0  0  0  0  0  0  0  0  0
   -5.0493    0.3401  -21.8142 C   0  0  0  0  0  0  0  0  0  0  0  0
   -5.4772   -0.0148  -20.5047 C   0  0  0  0  0  0  0  0  0  0  0  0
   -5.5978   -0.0452  -22.6662 H   0  0  0  0  0  0  0  0  0  0  0  0
   -3.6476    1.3981  -23.0178 H   0  0  0  0  0  0  0  0  0  0  0  0
   -2.3670    2.3060  -21.0904 H   0  0  0  0  0  0  0  0  0  0  0  0
   -3.0802    1.7523  -18.7807 H   0  0  0  0  0  0  0  0  0  0  0  0
   -4.6288    0.6100  -17.2461 H   0  0  0  0  0  0  0  0  0  0  0  0
   -7.7569   -1.6834  -18.6029 H   0  0  0  0  0  0  0  0  0  0  0  0
   -6.8745   -2.5204  -22.0661 C   0  0  0  0  0  0  0  0  0  0  0  0
   -5.7135   -2.8103  -22.2285 O   0  0  0  0  0  0  0  0  0  0  0  0
   -8.0758   -3.1390  -22.7673 C   0  0  0  0  0  0  0  0  0  0  0  0
   -8.0030   -3.1995  -24.3157 C   0  0  0  0  0  0  0  0  0  0  0  0
   -7.9667   -4.6835  -24.2770 N   0  0  0  0  0  0  0  0  0  0  0  0
   -9.2361   -5.4901  -25.0536 S   0  0  0  0  0  0  0  0  0  0  0  0
   -9.0206   -6.9010  -24.8186 O   0  0  0  0  0  0  0  0  0  0  0  0
  -10.4817   -4.8436  -24.6583 O   0  0  0  0  0  0  0  0  0  0  0  0
   -9.0173   -5.2263  -26.7921 C   0  0  0  0  0  0  0  0  0  0  0  0
   -8.0933   -6.1545  -27.5283 C   0  0  0  0  0  0  0  0  0  0  0  0
   -9.5759   -6.3002  -27.6999 C   0  0  0  0  0  0  0  0  0  0  0  0
  -10.0330   -5.9744  -28.6327 H   0  0  0  0  0  0  0  0  0  0  0  0
  -10.0726   -7.1450  -27.2226 H   0  0  0  0  0  0  0  0  0  0  0  0
   -7.5729   -6.9011  -26.9301 H   0  0  0  0  0  0  0  0  0  0  0  0
   -7.5152   -5.7259  -28.3437 H   0  0  0  0  0  0  0  0  0  0  0  0
   -9.1130   -4.1803  -27.0727 H   0  0  0  0  0  0  0  0  0  0  0  0
   -8.0801   -4.6790  -22.7766 C   0  0  0  0  0  0  0  0  0  0  0  0
   -7.2007   -5.1202  -22.3085 H   0  0  0  0  0  0  0  0  0  0  0  0
   -8.9916   -5.1244  -22.3720 H   0  0  0  0  0  0  0  0  0  0  0  0
   -7.0749   -2.8128  -24.7339 H   0  0  0  0  0  0  0  0  0  0  0  0
   -8.8656   -2.7698  -24.8377 H   0  0  0  0  0  0  0  0  0  0  0  0
  -10.7801   -2.5109  -23.5475 H   0  0  0  0  0  0  0  0  0  0  0  0
  -10.8557   -3.7272  -22.2479 H   0  0  0  0  0  0  0  0  0  0  0  0
  -11.1620   -2.0032  -21.8766 H   0  0  0  0  0  0  0  0  0  0  0  0
  1  2  1  0
  2  3  1  0
  3  4  2  0
  3  5  1  0
  5  6  1  0
  6  7  2  0
  7  8  1  0
  8  9  2  0
  9 10  1  0
 10 11  2  0
 11 12  1  0
 12 13  2  0
 13 14  1  0
 14 15  2  0
 14 16  1  0
 13 17  1  0
 12 18  1  0
 11 19  1  0
  9 20  1  0
  7 21  1  0
  5 22  1  0
 22 23  2  0
 22 24  1  0
 24 25  1  0
 25 26  1  0
 26 27  1  0
 27 28  2  0
 27 29  2  0
 27 30  1  0
 30 31  1  0
 31 32  1  0
 32 33  1  0
 32 34  1  0
 31 35  1  0
 31 36  1  0
 30 37  1  0
 26 38  1  0
 38 39  1  0
 38 40  1  0
 25 41  1  0
 25 42  1  0
  1 43  1  0
  1 44  1  0
  1 45  1  0
 24  2  1  0
 32 30  1  0
 15  6  1  0
 38 24  1  0
 15 10  1  0
M  END
>  <cnnaffinities>  (77) 
[5.10011, 4.8419, 5.08892, 5.11819, 5.11086, 5.14577, 5.09151]

>  <score>  (77) 
5.10011

>  <index>  (77) 
79

>  <Smiles>  (77) 
C(N1C(=O)N(c2c(nc(c3c(c(c(c(c23)[H])[H])[H])[H])[H])[H])C(=O)C21C(N(S(=O)(=O)C1(C(C1([H])[H])([H])[H])[H])C2([H])[H])([H])[H])([H])([H])[H]

>  <h>  (77) 
<NA>

>  <Training>  (77) 
True

>  <Success>  (77) 
True

>  <enamine_searched>  (77) 
False

>  <enamine_id>  (77) 
nan

$$$$

     RDKit          3D

 60 65  0  0  0  0  0  0  0  0999 V2000
   -6.8469    3.5107  -23.3140 C   0  0  0  0  0  0  0  0  0  0  0  0
   -7.4851    2.7285  -24.3580 N   0  0  0  0  0  0  0  0  0  0  0  0
   -6.8138    1.7152  -24.9375 C   0  0  0  0  0  0  0  0  0  0  0  0
   -5.5906    1.6258  -24.8978 O   0  0  0  0  0  0  0  0  0  0  0  0
   -7.6302    0.6705  -25.7087 C   0  0  0  0  0  0  0  0  0  0  0  0
   -8.7087    0.0002  -25.0091 N   0  0  0  0  0  0  0  0  0  0  0  0
   -8.4602   -1.3308  -24.4582 C   0  0  0  0  0  0  0  0  0  0  0  0
   -8.9610   -1.4785  -22.9945 C   0  0  2  0  0  0  0  0  0  0  0  0
   -8.1527   -0.5191  -22.0878 C   0  0  0  0  0  0  0  0  0  0  0  0
   -8.1770    0.6993  -22.0969 O   0  0  0  0  0  0  0  0  0  0  0  0
   -7.3695   -1.2731  -21.2504 N   0  0  0  0  0  0  0  0  0  0  0  0
   -6.5810   -0.7185  -20.2172 C   0  0  0  0  0  0  0  0  0  0  0  0
   -6.8756   -1.0220  -18.9124 C   0  0  0  0  0  0  0  0  0  0  0  0
   -6.1778   -0.5683  -17.8469 N   0  0  0  0  0  0  0  0  0  0  0  0
   -5.1440    0.2068  -18.0808 C   0  0  0  0  0  0  0  0  0  0  0  0
   -4.7084    0.5716  -19.3886 C   0  0  0  0  0  0  0  0  0  0  0  0
   -3.5589    1.3767  -19.6140 C   0  0  0  0  0  0  0  0  0  0  0  0
   -3.1554    1.6783  -20.8858 C   0  0  0  0  0  0  0  0  0  0  0  0
   -3.8715    1.1836  -21.9994 C   0  0  0  0  0  0  0  0  0  0  0  0
   -4.9844    0.4064  -21.8099 C   0  0  0  0  0  0  0  0  0  0  0  0
   -5.4406    0.0935  -20.4986 C   0  0  0  0  0  0  0  0  0  0  0  0
   -5.5321    0.0234  -22.6650 H   0  0  0  0  0  0  0  0  0  0  0  0
   -3.5520    1.4183  -23.0093 H   0  0  0  0  0  0  0  0  0  0  0  0
   -2.2782    2.2971  -21.0475 H   0  0  0  0  0  0  0  0  0  0  0  0
   -3.0137    1.7517  -18.7531 H   0  0  0  0  0  0  0  0  0  0  0  0
   -4.5860    0.5682  -17.2148 H   0  0  0  0  0  0  0  0  0  0  0  0
   -7.7246   -1.6693  -18.6854 H   0  0  0  0  0  0  0  0  0  0  0  0
   -7.3148   -2.6752  -21.6075 C   0  0  0  0  0  0  0  0  0  0  0  0
   -8.6319   -2.8743  -22.3792 C   0  0  2  0  0  0  0  0  0  0  0  0
   -8.6707   -4.0381  -23.3766 C   0  0  0  0  0  0  0  0  0  0  0  0
   -7.8679   -3.9515  -24.1218 H   0  0  0  0  0  0  0  0  0  0  0  0
   -9.6223   -4.0429  -23.9275 H   0  0  0  0  0  0  0  0  0  0  0  0
   -8.5745   -5.0128  -22.8843 H   0  0  0  0  0  0  0  0  0  0  0  0
   -9.3773   -3.0631  -21.5997 H   0  0  0  0  0  0  0  0  0  0  0  0
   -7.2564   -3.2662  -20.6915 H   0  0  0  0  0  0  0  0  0  0  0  0
   -6.4219   -2.9105  -22.2125 H   0  0  0  0  0  0  0  0  0  0  0  0
  -10.4401   -1.1418  -23.0322 C   0  0  0  0  0  0  0  0  0  0  0  0
  -11.4075   -1.8624  -22.3200 C   0  0  0  0  0  0  0  0  0  0  0  0
  -12.7447   -1.5519  -22.4621 C   0  0  0  0  0  0  0  0  0  0  0  0
  -13.8867   -2.6401  -21.7237 Cl  0  0  0  0  0  0  0  0  0  0  0  0
  -13.1606   -0.4474  -23.2017 C   0  0  0  0  0  0  0  0  0  0  0  0
  -12.2080    0.2826  -23.8892 C   0  0  0  0  0  0  0  0  0  0  0  0
  -10.8591   -0.0772  -23.8495 C   0  0  0  0  0  0  0  0  0  0  0  0
   -9.8660    0.6731  -24.6994 C   0  0  0  0  0  0  0  0  0  0  0  0
  -10.0726    1.8115  -25.1188 O   0  0  0  0  0  0  0  0  0  0  0  0
  -12.5255    1.1273  -24.4859 H   0  0  0  0  0  0  0  0  0  0  0  0
  -14.2077   -0.1720  -23.2600 H   0  0  0  0  0  0  0  0  0  0  0  0
  -11.1502   -2.6589  -21.6310 H   0  0  0  0  0  0  0  0  0  0  0  0
   -7.3876   -1.5114  -24.4926 H   0  0  0  0  0  0  0  0  0  0  0  0
   -8.9807   -2.0691  -25.0777 H   0  0  0  0  0  0  0  0  0  0  0  0
   -6.7567   -0.1579  -26.6166 C   0  0  0  0  0  0  0  0  0  0  0  0
   -7.6730    0.8456  -27.2190 C   0  0  0  0  0  0  0  0  0  0  0  0
   -8.5516    0.4908  -27.7374 H   0  0  0  0  0  0  0  0  0  0  0  0
   -7.2243    1.7306  -27.6590 H   0  0  0  0  0  0  0  0  0  0  0  0
   -6.9680   -1.2162  -26.7122 H   0  0  0  0  0  0  0  0  0  0  0  0
   -5.7072    0.0997  -26.5973 H   0  0  0  0  0  0  0  0  0  0  0  0
   -8.4877    2.7739  -24.5028 H   0  0  0  0  0  0  0  0  0  0  0  0
   -6.5771    2.8810  -22.4519 H   0  0  0  0  0  0  0  0  0  0  0  0
   -5.9385    3.9893  -23.6948 H   0  0  0  0  0  0  0  0  0  0  0  0
   -7.5426    4.2837  -22.9805 H   0  0  0  0  0  0  0  0  0  0  0  0
  1  2  1  0
  2  3  1  0
  3  4  2  0
  3  5  1  0
  5  6  1  0
  6  7  1  0
  8  7  1  6
  8  9  1  0
  9 10  2  0
  9 11  1  0
 11 12  1  0
 12 13  2  0
 13 14  1  0
 14 15  2  0
 15 16  1  0
 16 17  2  0
 17 18  1  0
 18 19  2  0
 19 20  1  0
 20 21  2  0
 20 22  1  0
 19 23  1  0
 18 24  1  0
 17 25  1  0
 15 26  1  0
 13 27  1  0
 11 28  1  0
 28 29  1  0
 29 30  1  0
 30 31  1  0
 30 32  1  0
 30 33  1  0
 29 34  1  1
 28 35  1  0
 28 36  1  0
  8 37  1  0
 37 38  2  0
 38 39  1  0
 39 40  1  0
 39 41  2  0
 41 42  1  0
 42 43  2  0
 43 44  1  0
 44 45  2  0
 42 46  1  0
 41 47  1  0
 38 48  1  0
  7 49  1  0
  7 50  1  0
  5 51  1  0
 51 52  1  0
 52 53  1  0
 52 54  1  0
 51 55  1  0
 51 56  1  0
  2 57  1  0
  1 58  1  0
  1 59  1  0
  1 60  1  0
 52  5  1  0
 44  6  1  0
 29  8  1  0
 43 37  1  0
 21 12  1  0
 21 16  1  0
M  END
>  <cnnaffinities>  (78) 
[6.09546]

>  <score>  (78) 
6.09546

>  <index>  (78) 
80

>  <Smiles>  (78) 
C(N(C(=O)C1(N2C([C@@]3(C(=O)N(c4c(nc(c5c(c(c(c(c45)[H])[H])[H])[H])[H])[H])C([C@@]3(C([H])([H])[H])[H])([H])[H])c3c(c(Cl)c(c(c3C2=O)[H])[H])[H])([H])[H])C(C1([H])[H])([H])[H])[H])([H])([H])[H]

>  <h>  (78) 
<NA>

>  <Training>  (78) 
True

>  <Success>  (78) 
True

>  <enamine_searched>  (78) 
False

>  <enamine_id>  (78) 
nan

$$$$

     RDKit          3D

 36 38  0  0  0  0  0  0  0  0999 V2000
   -8.5037    0.7117  -21.4654 O   0  0  0  0  0  0  0  0  0  0  0  0
   -8.3861   -0.4022  -21.9336 C   0  0  0  0  0  0  0  0  0  0  0  0
   -7.4393   -1.4331  -21.2764 C   0  0  0  0  0  0  0  0  0  0  0  0
   -6.5826   -0.8273  -20.1866 C   0  0  0  0  0  0  0  0  0  0  0  0
   -6.8793   -1.0396  -18.8656 C   0  0  0  0  0  0  0  0  0  0  0  0
   -6.1901   -0.5428  -17.8037 N   0  0  0  0  0  0  0  0  0  0  0  0
   -5.1577    0.2217  -18.0662 C   0  0  0  0  0  0  0  0  0  0  0  0
   -4.7242    0.5332  -19.3829 C   0  0  0  0  0  0  0  0  0  0  0  0
   -3.5956    1.3597  -19.6234 C   0  0  0  0  0  0  0  0  0  0  0  0
   -3.2085    1.6564  -20.9028 C   0  0  0  0  0  0  0  0  0  0  0  0
   -3.9336    1.1299  -21.9948 C   0  0  0  0  0  0  0  0  0  0  0  0
   -5.0271    0.3230  -21.7880 C   0  0  0  0  0  0  0  0  0  0  0  0
   -5.4549    0.0010  -20.4739 C   0  0  0  0  0  0  0  0  0  0  0  0
   -5.5772   -0.0670  -22.6374 H   0  0  0  0  0  0  0  0  0  0  0  0
   -3.6228    1.3721  -23.0059 H   0  0  0  0  0  0  0  0  0  0  0  0
   -2.3532    2.3019  -21.0866 H   0  0  0  0  0  0  0  0  0  0  0  0
   -3.0582    1.7729  -18.7730 H   0  0  0  0  0  0  0  0  0  0  0  0
   -4.6038    0.6271  -17.2166 H   0  0  0  0  0  0  0  0  0  0  0  0
   -7.7291   -1.6591  -18.5871 H   0  0  0  0  0  0  0  0  0  0  0  0
   -6.8029   -1.8995  -22.0408 H   0  0  0  0  0  0  0  0  0  0  0  0
   -8.0412   -2.2451  -20.8444 H   0  0  0  0  0  0  0  0  0  0  0  0
   -9.0622   -0.7717  -23.0893 N   0  0  0  0  0  0  0  0  0  0  0  0
  -10.0069    0.1954  -23.6426 C   0  0  0  0  0  0  0  0  0  0  0  0
  -11.3804    0.2156  -23.0201 C   0  0  0  0  0  0  0  0  0  0  0  0
  -12.0207   -0.7909  -22.4160 C   0  0  0  0  0  0  0  0  0  0  0  0
  -11.5704   -2.1751  -22.1567 C   0  0  0  0  0  0  0  0  0  0  0  0
  -10.4470   -2.7807  -22.5518 C   0  0  0  0  0  0  0  0  0  0  0  0
   -9.3684   -2.1605  -23.4052 C   0  0  0  0  0  0  0  0  0  0  0  0
   -8.4506   -2.7535  -23.3603 H   0  0  0  0  0  0  0  0  0  0  0  0
   -9.6851   -2.1766  -24.4546 H   0  0  0  0  0  0  0  0  0  0  0  0
  -10.2835   -3.8153  -22.2468 H   0  0  0  0  0  0  0  0  0  0  0  0
  -12.2759   -2.7642  -21.5737 H   0  0  0  0  0  0  0  0  0  0  0  0
  -13.0199   -0.5791  -22.0385 H   0  0  0  0  0  0  0  0  0  0  0  0
  -11.8927    1.1789  -23.0812 H   0  0  0  0  0  0  0  0  0  0  0  0
  -10.1139   -0.0415  -24.7080 H   0  0  0  0  0  0  0  0  0  0  0  0
   -9.5585    1.1912  -23.5956 H   0  0  0  0  0  0  0  0  0  0  0  0
  1  2  2  0
  2  3  1  0
  3  4  1  0
  4  5  2  0
  5  6  1  0
  6  7  2  0
  7  8  1  0
  8  9  2  0
  9 10  1  0
 10 11  2  0
 11 12  1  0
 12 13  2  0
 12 14  1  0
 11 15  1  0
 10 16  1  0
  9 17  1  0
  7 18  1  0
  5 19  1  0
  3 20  1  0
  3 21  1  0
  2 22  1  0
 22 23  1  0
 23 24  1  0
 24 25  2  0
 25 26  1  0
 26 27  2  0
 27 28  1  0
 28 29  1  0
 28 30  1  0
 27 31  1  0
 26 32  1  0
 25 33  1  0
 24 34  1  0
 23 35  1  0
 23 36  1  0
 13  4  1  0
 28 22  1  0
 13  8  1  0
M  END
>  <cnnaffinities>  (79) 
[4.30273, 4.30274]

>  <score>  (79) 
4.30273

>  <index>  (79) 
81

>  <Smiles>  (79) 
O=C(C(c1c(nc(c2c(c(c(c(c12)[H])[H])[H])[H])[H])[H])([H])[H])N1C(C(=C(C(=C(C1([H])[H])[H])[H])[H])[H])([H])[H]

>  <h>  (79) 
<NA>

>  <Training>  (79) 
True

>  <Success>  (79) 
True

>  <enamine_searched>  (79) 
False

>  <enamine_id>  (79) 
nan

$$$$

     RDKit          3D

 54 57  0  0  0  0  0  0  0  0999 V2000
  -10.6789    0.2988  -25.2090 C   0  0  0  0  0  0  0  0  0  0  0  0
   -9.7448   -0.5971  -24.6879 O   0  0  0  0  0  0  0  0  0  0  0  0
   -8.4689   -0.5249  -25.1495 C   0  0  0  0  0  0  0  0  0  0  0  0
   -7.9655    0.4934  -25.9659 C   0  0  0  0  0  0  0  0  0  0  0  0
   -6.5971    0.5302  -26.2408 C   0  0  0  0  0  0  0  0  0  0  0  0
   -5.7623   -0.4533  -25.7266 C   0  0  0  0  0  0  0  0  0  0  0  0
   -6.2962   -1.4793  -24.9460 C   0  0  0  0  0  0  0  0  0  0  0  0
   -7.6486   -1.5583  -24.6673 C   0  0  0  0  0  0  0  0  0  0  0  0
   -8.2989   -2.6681  -23.8325 C   0  0  1  0  0  0  0  0  0  0  0  0
   -9.1439   -3.6457  -24.6813 C   0  0  0  0  0  0  0  0  0  0  0  0
   -8.4072   -4.8564  -25.2695 C   0  0  1  0  0  0  0  0  0  0  0  0
   -7.5046   -4.5313  -26.4666 C   0  0  0  0  0  0  0  0  0  0  0  0
   -6.6817   -3.8626  -26.1915 H   0  0  0  0  0  0  0  0  0  0  0  0
   -7.0692   -5.4474  -26.8878 H   0  0  0  0  0  0  0  0  0  0  0  0
   -8.0767   -4.0365  -27.2616 H   0  0  0  0  0  0  0  0  0  0  0  0
   -7.6738   -5.5502  -24.1189 C   0  0  0  0  0  0  0  0  0  0  0  0
   -6.7170   -4.6060  -23.4035 C   0  0  0  0  0  0  0  0  0  0  0  0
   -7.3659   -3.3735  -22.9585 N   0  0  0  0  0  0  0  0  0  0  0  0
   -6.7488   -2.7535  -21.8890 C   0  0  0  0  0  0  0  0  0  0  0  0
   -5.7327   -3.2206  -21.4050 O   0  0  0  0  0  0  0  0  0  0  0  0
   -7.3977   -1.4824  -21.2969 C   0  0  0  0  0  0  0  0  0  0  0  0
   -6.5725   -0.8492  -20.2023 C   0  0  0  0  0  0  0  0  0  0  0  0
   -6.8743   -1.0635  -18.8831 C   0  0  0  0  0  0  0  0  0  0  0  0
   -6.1934   -0.5582  -17.8194 N   0  0  0  0  0  0  0  0  0  0  0  0
   -5.1641    0.2086  -18.0785 C   0  0  0  0  0  0  0  0  0  0  0  0
   -4.7215    0.5157  -19.3922 C   0  0  0  0  0  0  0  0  0  0  0  0
   -3.5937    1.3416  -19.6290 C   0  0  0  0  0  0  0  0  0  0  0  0
   -3.1953    1.6207  -20.9049 C   0  0  0  0  0  0  0  0  0  0  0  0
   -3.9064    1.0839  -22.0012 C   0  0  0  0  0  0  0  0  0  0  0  0
   -5.0013    0.2803  -21.8008 C   0  0  0  0  0  0  0  0  0  0  0  0
   -5.4408   -0.0262  -20.4866 C   0  0  0  0  0  0  0  0  0  0  0  0
   -5.5464   -0.1230  -22.6517 H   0  0  0  0  0  0  0  0  0  0  0  0
   -3.5891    1.3206  -23.0136 H   0  0  0  0  0  0  0  0  0  0  0  0
   -2.3410    2.2683  -21.0821 H   0  0  0  0  0  0  0  0  0  0  0  0
   -3.0742    1.7582  -18.7684 H   0  0  0  0  0  0  0  0  0  0  0  0
   -4.6245    0.6235  -17.2232 H   0  0  0  0  0  0  0  0  0  0  0  0
   -7.7280   -1.6790  -18.5999 H   0  0  0  0  0  0  0  0  0  0  0  0
   -7.6192   -0.7663  -22.1001 H   0  0  0  0  0  0  0  0  0  0  0  0
   -8.3713   -1.7819  -20.8839 H   0  0  0  0  0  0  0  0  0  0  0  0
   -6.3189   -5.0656  -22.4996 H   0  0  0  0  0  0  0  0  0  0  0  0
   -5.8470   -4.3910  -24.0453 H   0  0  0  0  0  0  0  0  0  0  0  0
   -8.4148   -5.9204  -23.3970 H   0  0  0  0  0  0  0  0  0  0  0  0
   -7.1069   -6.4149  -24.4929 H   0  0  0  0  0  0  0  0  0  0  0  0
   -9.1822   -5.5477  -25.6331 H   0  0  0  0  0  0  0  0  0  0  0  0
   -9.6154   -3.0668  -25.4824 H   0  0  0  0  0  0  0  0  0  0  0  0
   -9.9453   -4.0259  -24.0326 H   0  0  0  0  0  0  0  0  0  0  0  0
   -9.0214   -2.1635  -23.1836 H   0  0  0  0  0  0  0  0  0  0  0  0
   -5.6541   -2.2621  -24.5512 H   0  0  0  0  0  0  0  0  0  0  0  0
   -4.6952   -0.4538  -25.9268 H   0  0  0  0  0  0  0  0  0  0  0  0
   -6.1736    1.3363  -26.8409 H   0  0  0  0  0  0  0  0  0  0  0  0
   -8.6076    1.2737  -26.3665 H   0  0  0  0  0  0  0  0  0  0  0  0
  -11.6370    0.0116  -24.7711 H   0  0  0  0  0  0  0  0  0  0  0  0
  -10.6932    0.1989  -26.2957 H   0  0  0  0  0  0  0  0  0  0  0  0
  -10.4292    1.3279  -24.9250 H   0  0  0  0  0  0  0  0  0  0  0  0
  1  2  1  0
  2  3  1  0
  3  4  2  0
  4  5  1  0
  5  6  2  0
  6  7  1  0
  7  8  2  0
  8  9  1  0
  9 10  1  0
 10 11  1  0
 11 12  1  0
 12 13  1  0
 12 14  1  0
 12 15  1  0
 11 16  1  0
 16 17  1  0
 17 18  1  0
 18 19  1  0
 19 20  2  0
 19 21  1  0
 21 22  1  0
 22 23  2  0
 23 24  1  0
 24 25  2  0
 25 26  1  0
 26 27  2  0
 27 28  1  0
 28 29  2  0
 29 30  1  0
 30 31  2  0
 30 32  1  0
 29 33  1  0
 28 34  1  0
 27 35  1  0
 25 36  1  0
 23 37  1  0
 21 38  1  0
 21 39  1  0
 17 40  1  0
 17 41  1  0
 16 42  1  0
 16 43  1  0
 11 44  1  6
 10 45  1  0
 10 46  1  0
  9 47  1  1
  7 48  1  0
  6 49  1  0
  5 50  1  0
  4 51  1  0
  1 52  1  0
  1 53  1  0
  1 54  1  0
  8  3  1  0
 18  9  1  0
 31 22  1  0
 31 26  1  0
M  END
>  <cnnaffinities>  (80) 
[5.42457, 5.21372]

>  <score>  (80) 
5.42457

>  <index>  (80) 
82

>  <Smiles>  (80) 
C(Oc1c(c(c(c(c1[C@]1(C([C@@](C([H])([H])[H])(C(C(N1C(=O)C(c1c(nc(c2c(c(c(c(c12)[H])[H])[H])[H])[H])[H])([H])[H])([H])[H])([H])[H])[H])([H])[H])[H])[H])[H])[H])[H])([H])([H])[H]

>  <h>  (80) 
<NA>

>  <Training>  (80) 
True

>  <Success>  (80) 
True

>  <enamine_searched>  (80) 
False

>  <enamine_id>  (80) 
nan

$$$$

     RDKit          3D

 46 50  0  0  0  0  0  0  0  0999 V2000
   -5.3091   -3.3327  -26.7905 N   0  0  0  0  0  0  0  0  0  0  0  0
   -5.7723   -1.7425  -26.8133 S   0  0  0  0  0  0  0  0  0  0  0  0
   -4.9138   -1.0800  -25.8527 O   0  0  0  0  0  0  0  0  0  0  0  0
   -5.8152   -1.3724  -28.2145 O   0  0  0  0  0  0  0  0  0  0  0  0
   -7.4373   -1.6840  -26.1887 C   0  0  0  0  0  0  0  0  0  0  0  0
   -8.5073   -1.7063  -27.0795 C   0  0  0  0  0  0  0  0  0  0  0  0
   -9.7974   -1.6819  -26.5838 C   0  0  0  0  0  0  0  0  0  0  0  0
  -10.0274   -1.6541  -25.2053 C   0  0  0  0  0  0  0  0  0  0  0  0
   -8.9528   -1.6000  -24.3074 C   0  0  0  0  0  0  0  0  0  0  0  0
   -7.6565   -1.6539  -24.8182 C   0  0  0  0  0  0  0  0  0  0  0  0
   -6.8036   -1.6639  -24.1457 H   0  0  0  0  0  0  0  0  0  0  0  0
   -9.1856   -1.5275  -22.8044 C   0  0  1  0  0  0  0  0  0  0  0  0
  -10.6360   -1.1168  -22.5210 C   0  0  0  0  0  0  0  0  0  0  0  0
  -11.6020   -1.8665  -23.4265 C   0  0  0  0  0  0  0  0  0  0  0  0
  -11.3301   -1.6367  -24.8073 O   0  0  0  0  0  0  0  0  0  0  0  0
  -12.6282   -1.5121  -23.2784 H   0  0  0  0  0  0  0  0  0  0  0  0
  -11.5773   -2.9487  -23.2127 H   0  0  0  0  0  0  0  0  0  0  0  0
  -10.7259   -0.0348  -22.6784 H   0  0  0  0  0  0  0  0  0  0  0  0
  -10.8364   -1.3427  -21.4728 H   0  0  0  0  0  0  0  0  0  0  0  0
   -8.8194   -2.7740  -22.1477 N   0  0  0  0  0  0  0  0  0  0  0  0
   -7.7011   -2.6811  -21.3674 C   0  0  0  0  0  0  0  0  0  0  0  0
   -6.9906   -3.5540  -20.9344 O   0  0  0  0  0  0  0  0  0  0  0  0
   -7.4702   -1.2963  -21.2044 N   0  0  0  0  0  0  0  0  0  0  0  0
   -6.6174   -0.7840  -20.1904 C   0  0  0  0  0  0  0  0  0  0  0  0
   -6.9022   -1.0573  -18.8762 C   0  0  0  0  0  0  0  0  0  0  0  0
   -6.2015   -0.5625  -17.8303 N   0  0  0  0  0  0  0  0  0  0  0  0
   -5.1749    0.2063  -18.0962 C   0  0  0  0  0  0  0  0  0  0  0  0
   -4.7302    0.5169  -19.4086 C   0  0  0  0  0  0  0  0  0  0  0  0
   -3.5957    1.3397  -19.6404 C   0  0  0  0  0  0  0  0  0  0  0  0
   -3.1882    1.6119  -20.9147 C   0  0  0  0  0  0  0  0  0  0  0  0
   -3.8892    1.0626  -22.0124 C   0  0  0  0  0  0  0  0  0  0  0  0
   -4.9877    0.2662  -21.8129 C   0  0  0  0  0  0  0  0  0  0  0  0
   -5.4548   -0.0078  -20.4995 C   0  0  0  0  0  0  0  0  0  0  0  0
   -5.5303   -0.1459  -22.6611 H   0  0  0  0  0  0  0  0  0  0  0  0
   -3.5650    1.2827  -23.0239 H   0  0  0  0  0  0  0  0  0  0  0  0
   -2.3302    2.2558  -21.0909 H   0  0  0  0  0  0  0  0  0  0  0  0
   -3.0780    1.7570  -18.7814 H   0  0  0  0  0  0  0  0  0  0  0  0
   -4.6331    0.6125  -17.2439 H   0  0  0  0  0  0  0  0  0  0  0  0
   -7.7490   -1.6853  -18.6078 H   0  0  0  0  0  0  0  0  0  0  0  0
   -8.2439   -0.5464  -22.0926 C   0  0  0  0  0  0  0  0  0  0  0  0
   -8.1817    0.6486  -22.2580 O   0  0  0  0  0  0  0  0  0  0  0  0
   -9.2295   -3.6590  -22.4063 H   0  0  0  0  0  0  0  0  0  0  0  0
  -10.6462   -1.6713  -27.2578 H   0  0  0  0  0  0  0  0  0  0  0  0
   -8.3252   -1.7393  -28.1499 H   0  0  0  0  0  0  0  0  0  0  0  0
   -5.8459   -3.8954  -27.4423 H   0  0  0  0  0  0  0  0  0  0  0  0
   -5.2416   -3.6909  -25.8447 H   0  0  0  0  0  0  0  0  0  0  0  0
  1  2  1  0
  2  3  2  0
  2  4  2  0
  2  5  1  0
  5  6  2  0
  6  7  1  0
  7  8  2  0
  8  9  1  0
  9 10  2  0
 10 11  1  0
  9 12  1  0
 12 13  1  0
 13 14  1  0
 14 15  1  0
 14 16  1  0
 14 17  1  0
 13 18  1  0
 13 19  1  0
 12 20  1  1
 20 21  1  0
 21 22  2  0
 21 23  1  0
 23 24  1  0
 24 25  2  0
 25 26  1  0
 26 27  2  0
 27 28  1  0
 28 29  2  0
 29 30  1  0
 30 31  2  0
 31 32  1  0
 32 33  2  0
 32 34  1  0
 31 35  1  0
 30 36  1  0
 29 37  1  0
 27 38  1  0
 25 39  1  0
 23 40  1  0
 40 41  2  0
 20 42  1  0
  7 43  1  0
  6 44  1  0
  1 45  1  0
  1 46  1  0
 10  5  1  0
 40 12  1  0
 15  8  1  0
 33 24  1  0
 33 28  1  0
M  END
>  <cnnaffinities>  (81) 
[5.22959, 5.33121, 5.31559, 5.23514, 5.4424, 5.44236]

>  <score>  (81) 
5.22959

>  <index>  (81) 
83

>  <Smiles>  (81) 
N(S(=O)(=O)c1c(c(c2c(c1[H])[C@@]1(C(C(O2)([H])[H])([H])[H])N(C(=O)N(c2c(nc(c3c(c(c(c(c23)[H])[H])[H])[H])[H])[H])C1=O)[H])[H])[H])([H])[H]

>  <h>  (81) 
<NA>

>  <Training>  (81) 
True

>  <Success>  (81) 
True

>  <enamine_searched>  (81) 
False

>  <enamine_id>  (81) 
nan

$$$$

     RDKit          3D

 63 68  0  0  0  0  0  0  0  0999 V2000
   -8.2213   -3.6456  -23.9657 C   0  0  0  0  0  0  0  0  0  0  0  0
   -8.3744   -2.9078  -22.6428 C   0  0  1  0  0  0  0  0  0  0  0  0
   -7.0431   -2.4720  -22.0049 C   0  0  0  0  0  0  0  0  0  0  0  0
   -7.4356   -1.3342  -21.2007 N   0  0  0  0  0  0  0  0  0  0  0  0
   -6.6315   -0.7803  -20.1746 C   0  0  0  0  0  0  0  0  0  0  0  0
   -6.9473   -1.0133  -18.8596 C   0  0  0  0  0  0  0  0  0  0  0  0
   -6.2222   -0.5544  -17.8130 N   0  0  0  0  0  0  0  0  0  0  0  0
   -5.1724    0.1871  -18.0763 C   0  0  0  0  0  0  0  0  0  0  0  0
   -4.7226    0.4949  -19.3939 C   0  0  0  0  0  0  0  0  0  0  0  0
   -3.5894    1.3185  -19.6370 C   0  0  0  0  0  0  0  0  0  0  0  0
   -3.1992    1.6074  -20.9183 C   0  0  0  0  0  0  0  0  0  0  0  0
   -3.9152    1.0793  -22.0148 C   0  0  0  0  0  0  0  0  0  0  0  0
   -5.0182    0.2812  -21.8037 C   0  0  0  0  0  0  0  0  0  0  0  0
   -5.4584   -0.0232  -20.4847 C   0  0  0  0  0  0  0  0  0  0  0  0
   -5.6132   -0.0410  -22.6527 H   0  0  0  0  0  0  0  0  0  0  0  0
   -3.6240    1.3335  -23.0307 H   0  0  0  0  0  0  0  0  0  0  0  0
   -2.3537    2.2669  -21.0991 H   0  0  0  0  0  0  0  0  0  0  0  0
   -3.0684    1.7364  -18.7794 H   0  0  0  0  0  0  0  0  0  0  0  0
   -4.6146    0.5827  -17.2258 H   0  0  0  0  0  0  0  0  0  0  0  0
   -7.8183   -1.6134  -18.6031 H   0  0  0  0  0  0  0  0  0  0  0  0
   -8.6509   -0.7887  -21.5498 C   0  0  0  0  0  0  0  0  0  0  0  0
   -9.1210    0.2179  -21.0544 O   0  0  0  0  0  0  0  0  0  0  0  0
   -9.2746   -1.6360  -22.6852 C   0  0  1  0  0  0  0  0  0  0  0  0
   -9.1293   -0.8758  -24.0376 C   0  0  0  0  0  0  0  0  0  0  0  0
   -9.9805    0.3005  -24.1178 N   0  0  0  0  0  0  0  0  0  0  0  0
   -9.4387    1.4980  -24.7521 C   0  0  0  0  0  0  0  0  0  0  0  0
   -8.2105    1.9579  -23.9637 C   0  0  0  0  0  0  0  0  0  0  0  0
   -7.0669    1.6291  -24.2526 O   0  0  0  0  0  0  0  0  0  0  0  0
   -8.5170    2.7003  -22.8691 N   0  0  0  0  0  0  0  0  0  0  0  0
   -7.5503    2.8909  -21.8092 C   0  0  0  0  0  0  0  0  0  0  0  0
   -6.8798    4.2468  -21.8625 C   0  0  0  0  0  0  0  0  0  0  0  0
   -6.0099    4.2639  -22.9423 F   0  0  0  0  0  0  0  0  0  0  0  0
   -6.3919    5.1076  -20.7425 C   0  0  0  0  0  0  0  0  0  0  0  0
   -7.5188    5.5795  -21.6358 C   0  0  0  0  0  0  0  0  0  0  0  0
   -8.5183    5.6542  -21.2035 H   0  0  0  0  0  0  0  0  0  0  0  0
   -7.2741    6.3083  -22.4041 H   0  0  0  0  0  0  0  0  0  0  0  0
   -6.6523    4.9219  -19.7047 H   0  0  0  0  0  0  0  0  0  0  0  0
   -5.4018    5.5224  -20.9137 H   0  0  0  0  0  0  0  0  0  0  0  0
   -6.7907    2.1239  -21.9452 H   0  0  0  0  0  0  0  0  0  0  0  0
   -8.0533    2.6367  -20.8784 H   0  0  0  0  0  0  0  0  0  0  0  0
   -9.4877    2.8539  -22.6347 H   0  0  0  0  0  0  0  0  0  0  0  0
   -9.1397    1.2992  -25.7884 H   0  0  0  0  0  0  0  0  0  0  0  0
  -10.2371    2.2470  -24.7499 H   0  0  0  0  0  0  0  0  0  0  0  0
  -11.2777    0.2782  -23.6963 C   0  0  0  0  0  0  0  0  0  0  0  0
  -12.0513    1.2092  -23.9005 O   0  0  0  0  0  0  0  0  0  0  0  0
  -11.7028   -0.9658  -22.9658 C   0  0  0  0  0  0  0  0  0  0  0  0
  -13.0736   -1.1808  -22.8074 C   0  0  0  0  0  0  0  0  0  0  0  0
  -13.5326   -2.3011  -22.1488 C   0  0  0  0  0  0  0  0  0  0  0  0
  -12.6037   -3.1818  -21.6209 C   0  0  0  0  0  0  0  0  0  0  0  0
  -13.0613   -4.2664  -20.9727 F   0  0  0  0  0  0  0  0  0  0  0  0
  -11.2412   -2.9865  -21.7478 C   0  0  0  0  0  0  0  0  0  0  0  0
  -10.7623   -1.8797  -22.4627 C   0  0  0  0  0  0  0  0  0  0  0  0
  -10.5734   -3.6861  -21.2645 H   0  0  0  0  0  0  0  0  0  0  0  0
  -14.5853   -2.5195  -22.0189 H   0  0  0  0  0  0  0  0  0  0  0  0
  -13.7563   -0.4545  -23.2358 H   0  0  0  0  0  0  0  0  0  0  0  0
   -9.3712   -1.5486  -24.8740 H   0  0  0  0  0  0  0  0  0  0  0  0
   -8.0982   -0.5343  -24.1503 H   0  0  0  0  0  0  0  0  0  0  0  0
   -6.2895   -2.1957  -22.7583 H   0  0  0  0  0  0  0  0  0  0  0  0
   -6.5972   -3.2557  -21.3811 H   0  0  0  0  0  0  0  0  0  0  0  0
   -8.8374   -3.5772  -21.9163 H   0  0  0  0  0  0  0  0  0  0  0  0
   -7.6772   -3.0321  -24.6925 H   0  0  0  0  0  0  0  0  0  0  0  0
   -7.6691   -4.5815  -23.8456 H   0  0  0  0  0  0  0  0  0  0  0  0
   -9.2012   -3.8790  -24.3951 H   0  0  0  0  0  0  0  0  0  0  0  0
  1  2  1  0
  2  3  1  0
  3  4  1  0
  4  5  1  0
  5  6  2  0
  6  7  1  0
  7  8  2  0
  8  9  1  0
  9 10  2  0
 10 11  1  0
 11 12  2  0
 12 13  1  0
 13 14  2  0
 13 15  1  0
 12 16  1  0
 11 17  1  0
 10 18  1  0
  8 19  1  0
  6 20  1  0
  4 21  1  0
 21 22  2  0
 21 23  1  0
 23 24  1  6
 24 25  1  0
 25 26  1  0
 26 27  1  0
 27 28  2  0
 27 29  1  0
 29 30  1  0
 30 31  1  0
 31 32  1  0
 31 33  1  0
 33 34  1  0
 34 35  1  0
 34 36  1  0
 33 37  1  0
 33 38  1  0
 30 39  1  0
 30 40  1  0
 29 41  1  0
 26 42  1  0
 26 43  1  0
 25 44  1  0
 44 45  2  0
 44 46  1  0
 46 47  2  0
 47 48  1  0
 48 49  2  0
 49 50  1  0
 49 51  1  0
 51 52  2  0
 51 53  1  0
 48 54  1  0
 47 55  1  0
 24 56  1  0
 24 57  1  0
  3 58  1  0
  3 59  1  0
  2 60  1  1
  1 61  1  0
  1 62  1  0
  1 63  1  0
 23  2  1  0
 34 31  1  0
 52 46  1  0
 14  5  1  0
 52 23  1  0
 14  9  1  0
M  END
>  <cnnaffinities>  (82) 
[6.8607, 6.82511, 6.19709]

>  <score>  (82) 
6.8607

>  <index>  (82) 
84

>  <Smiles>  (82) 
C([C@]1(C(N(c2c(nc(c3c(c(c(c(c23)[H])[H])[H])[H])[H])[H])C(=O)[C@]21C(N(C(C(=O)N(C(C1(F)C(C1([H])[H])([H])[H])([H])[H])[H])([H])[H])C(=O)c1c(c(c(F)c(c21)[H])[H])[H])([H])[H])([H])[H])[H])([H])([H])[H]

>  <h>  (82) 
<NA>

>  <Training>  (82) 
True

>  <Success>  (82) 
True

>  <enamine_searched>  (82) 
False

>  <enamine_id>  (82) 
nan

$$$$

     RDKit          3D

 57 62  0  0  0  0  0  0  0  0999 V2000
   -6.5769    3.4695  -23.0957 C   0  0  0  0  0  0  0  0  0  0  0  0
   -6.9531    2.4732  -24.0875 N   0  0  0  0  0  0  0  0  0  0  0  0
   -8.2268    2.5243  -24.5811 C   0  0  0  0  0  0  0  0  0  0  0  0
   -8.9566    3.4774  -24.3895 O   0  0  0  0  0  0  0  0  0  0  0  0
   -8.6455    1.3262  -25.4444 C   0  0  0  0  0  0  0  0  0  0  0  0
   -9.3395    0.2976  -24.6996 N   0  0  0  0  0  0  0  0  0  0  0  0
   -8.7466   -1.0047  -24.4615 C   0  0  0  0  0  0  0  0  0  0  0  0
   -8.9748   -1.4950  -23.0154 C   0  0  2  0  0  0  0  0  0  0  0  0
   -8.2242   -0.5816  -22.0274 C   0  0  0  0  0  0  0  0  0  0  0  0
   -8.3305    0.6237  -21.9259 O   0  0  0  0  0  0  0  0  0  0  0  0
   -7.3743   -1.3441  -21.2624 N   0  0  0  0  0  0  0  0  0  0  0  0
   -6.5925   -0.8014  -20.2171 C   0  0  0  0  0  0  0  0  0  0  0  0
   -6.8967   -1.0700  -18.9065 C   0  0  0  0  0  0  0  0  0  0  0  0
   -6.2115   -0.5787  -17.8470 N   0  0  0  0  0  0  0  0  0  0  0  0
   -5.1870    0.2024  -18.1001 C   0  0  0  0  0  0  0  0  0  0  0  0
   -4.7418    0.5272  -19.4135 C   0  0  0  0  0  0  0  0  0  0  0  0
   -3.6044    1.3453  -19.6429 C   0  0  0  0  0  0  0  0  0  0  0  0
   -3.1890    1.6172  -20.9179 C   0  0  0  0  0  0  0  0  0  0  0  0
   -3.8774    1.0750  -22.0254 C   0  0  0  0  0  0  0  0  0  0  0  0
   -4.9815    0.2818  -21.8318 C   0  0  0  0  0  0  0  0  0  0  0  0
   -5.4534    0.0060  -20.5153 C   0  0  0  0  0  0  0  0  0  0  0  0
   -5.4909   -0.1569  -22.6825 H   0  0  0  0  0  0  0  0  0  0  0  0
   -3.5357    1.3003  -23.0336 H   0  0  0  0  0  0  0  0  0  0  0  0
   -2.3237    2.2506  -21.0900 H   0  0  0  0  0  0  0  0  0  0  0  0
   -3.0813    1.7539  -18.7844 H   0  0  0  0  0  0  0  0  0  0  0  0
   -4.6401    0.6026  -17.2461 H   0  0  0  0  0  0  0  0  0  0  0  0
   -7.7550   -1.6967  -18.6623 H   0  0  0  0  0  0  0  0  0  0  0  0
   -7.4850   -2.7591  -21.4903 C   0  0  0  0  0  0  0  0  0  0  0  0
   -8.3487   -2.8693  -22.7358 C   0  0  0  0  0  0  0  0  0  0  0  0
   -7.9102   -3.8191  -23.8203 C   0  0  0  0  0  0  0  0  0  0  0  0
   -9.1127   -4.1369  -22.9806 C   0  0  0  0  0  0  0  0  0  0  0  0
  -10.0883   -4.0404  -23.4513 H   0  0  0  0  0  0  0  0  0  0  0  0
   -9.0440   -4.9306  -22.2370 H   0  0  0  0  0  0  0  0  0  0  0  0
   -8.0655   -3.5210  -24.8529 H   0  0  0  0  0  0  0  0  0  0  0  0
   -6.9981   -4.3914  -23.6588 H   0  0  0  0  0  0  0  0  0  0  0  0
   -6.4956   -3.2061  -21.6243 H   0  0  0  0  0  0  0  0  0  0  0  0
   -7.9639   -3.2420  -20.6386 H   0  0  0  0  0  0  0  0  0  0  0  0
  -10.4778   -1.4084  -22.7742 C   0  0  0  0  0  0  0  0  0  0  0  0
  -11.1319   -2.2485  -21.8678 C   0  0  0  0  0  0  0  0  0  0  0  0
  -12.5093   -2.1717  -21.7167 C   0  0  0  0  0  0  0  0  0  0  0  0
  -13.2940   -3.3744  -20.7333 Cl  0  0  0  0  0  0  0  0  0  0  0  0
  -13.2585   -1.1527  -22.3094 C   0  0  0  0  0  0  0  0  0  0  0  0
  -12.5978   -0.2638  -23.1381 C   0  0  0  0  0  0  0  0  0  0  0  0
  -11.2414   -0.4200  -23.4009 C   0  0  0  0  0  0  0  0  0  0  0  0
  -10.6342    0.5494  -24.3530 C   0  0  0  0  0  0  0  0  0  0  0  0
  -11.2543    1.5132  -24.7815 O   0  0  0  0  0  0  0  0  0  0  0  0
  -13.0969    0.5761  -23.6075 H   0  0  0  0  0  0  0  0  0  0  0  0
  -14.3220   -1.0686  -22.1205 H   0  0  0  0  0  0  0  0  0  0  0  0
  -10.5763   -2.9834  -21.2971 H   0  0  0  0  0  0  0  0  0  0  0  0
   -7.6779   -0.9728  -24.6680 H   0  0  0  0  0  0  0  0  0  0  0  0
   -9.1977   -1.7363  -25.1389 H   0  0  0  0  0  0  0  0  0  0  0  0
   -7.7760    0.8801  -25.9406 H   0  0  0  0  0  0  0  0  0  0  0  0
   -9.3422    1.7206  -26.1828 H   0  0  0  0  0  0  0  0  0  0  0  0
   -6.4527    1.5946  -24.0723 H   0  0  0  0  0  0  0  0  0  0  0  0
   -5.5650    3.2634  -22.7359 H   0  0  0  0  0  0  0  0  0  0  0  0
   -7.2738    3.4551  -22.2502 H   0  0  0  0  0  0  0  0  0  0  0  0
   -6.6102    4.4666  -23.5424 H   0  0  0  0  0  0  0  0  0  0  0  0
  1  2  1  0
  2  3  1  0
  3  4  2  0
  3  5  1  0
  5  6  1  0
  6  7  1  0
  8  7  1  6
  8  9  1  0
  9 10  2  0
  9 11  1  0
 11 12  1  0
 12 13  2  0
 13 14  1  0
 14 15  2  0
 15 16  1  0
 16 17  2  0
 17 18  1  0
 18 19  2  0
 19 20  1  0
 20 21  2  0
 20 22  1  0
 19 23  1  0
 18 24  1  0
 17 25  1  0
 15 26  1  0
 13 27  1  0
 11 28  1  0
 28 29  1  0
 29 30  1  0
 30 31  1  0
 31 32  1  0
 31 33  1  0
 30 34  1  0
 30 35  1  0
 28 36  1  0
 28 37  1  0
  8 38  1  0
 38 39  2  0
 39 40  1  0
 40 41  1  0
 40 42  2  0
 42 43  1  0
 43 44  2  0
 44 45  1  0
 45 46  2  0
 43 47  1  0
 42 48  1  0
 39 49  1  0
  7 50  1  0
  7 51  1  0
  5 52  1  0
  5 53  1  0
  2 54  1  0
  1 55  1  0
  1 56  1  0
  1 57  1  0
 45  6  1  0
 29  8  1  0
 44 38  1  0
 21 12  1  0
 31 29  1  0
 21 16  1  0
M  END
>  <cnnaffinities>  (83) 
[5.83555]

>  <score>  (83) 
5.83555

>  <index>  (83) 
85

>  <Smiles>  (83) 
C(N(C(=O)C(N1C([C@@]2(C(=O)N(c3c(nc(c4c(c(c(c(c34)[H])[H])[H])[H])[H])[H])C(C32C(C3([H])[H])([H])[H])([H])[H])c2c(c(Cl)c(c(c2C1=O)[H])[H])[H])([H])[H])([H])[H])[H])([H])([H])[H]

>  <h>  (83) 
<NA>

>  <Training>  (83) 
True

>  <Success>  (83) 
True

>  <enamine_searched>  (83) 
False

>  <enamine_id>  (83) 
nan

$$$$

     RDKit          3D

 43 45  0  0  0  0  0  0  0  0999 V2000
  -13.0174   -1.7905  -24.0333 C   0  0  0  0  0  0  0  0  0  0  0  0
  -11.6641   -1.2288  -24.4793 C   0  0  1  0  0  0  0  0  0  0  0  0
  -11.3478    0.1091  -23.8157 C   0  0  0  0  0  0  0  0  0  0  0  0
  -10.8584   -0.0746  -22.3914 C   0  0  0  0  0  0  0  0  0  0  0  0
   -9.6954   -0.9496  -22.3061 N   0  0  0  0  0  0  0  0  0  0  0  0
   -8.5190   -0.4483  -21.7848 C   0  0  0  0  0  0  0  0  0  0  0  0
   -8.3207    0.7500  -21.7052 O   0  0  0  0  0  0  0  0  0  0  0  0
   -7.4552   -1.4402  -21.2572 C   0  0  0  0  0  0  0  0  0  0  0  0
   -6.5786   -0.8312  -20.1839 C   0  0  0  0  0  0  0  0  0  0  0  0
   -6.8746   -1.0415  -18.8648 C   0  0  0  0  0  0  0  0  0  0  0  0
   -6.1894   -0.5413  -17.8038 N   0  0  0  0  0  0  0  0  0  0  0  0
   -5.1573    0.2220  -18.0677 C   0  0  0  0  0  0  0  0  0  0  0  0
   -4.7228    0.5333  -19.3823 C   0  0  0  0  0  0  0  0  0  0  0  0
   -3.5945    1.3596  -19.6225 C   0  0  0  0  0  0  0  0  0  0  0  0
   -3.2079    1.6589  -20.8997 C   0  0  0  0  0  0  0  0  0  0  0  0
   -3.9336    1.1353  -21.9929 C   0  0  0  0  0  0  0  0  0  0  0  0
   -5.0255    0.3283  -21.7869 C   0  0  0  0  0  0  0  0  0  0  0  0
   -5.4533    0.0006  -20.4754 C   0  0  0  0  0  0  0  0  0  0  0  0
   -5.5887   -0.0459  -22.6357 H   0  0  0  0  0  0  0  0  0  0  0  0
   -3.6256    1.3826  -23.0048 H   0  0  0  0  0  0  0  0  0  0  0  0
   -2.3526    2.3064  -21.0822 H   0  0  0  0  0  0  0  0  0  0  0  0
   -3.0586    1.7712  -18.7692 H   0  0  0  0  0  0  0  0  0  0  0  0
   -4.6050    0.6268  -17.2162 H   0  0  0  0  0  0  0  0  0  0  0  0
   -7.7268   -1.6589  -18.5854 H   0  0  0  0  0  0  0  0  0  0  0  0
   -7.9526   -2.3332  -20.8503 H   0  0  0  0  0  0  0  0  0  0  0  0
   -6.8400   -1.7855  -22.0980 H   0  0  0  0  0  0  0  0  0  0  0  0
   -9.8756   -2.2810  -22.8797 C   0  0  1  0  0  0  0  0  0  0  0  0
  -10.6342   -3.2218  -21.9442 C   0  0  0  0  0  0  0  0  0  0  0  0
  -10.7965   -4.1974  -22.4153 H   0  0  0  0  0  0  0  0  0  0  0  0
  -10.0522   -3.3929  -21.0318 H   0  0  0  0  0  0  0  0  0  0  0  0
  -11.6106   -2.8254  -21.6525 H   0  0  0  0  0  0  0  0  0  0  0  0
  -10.4806   -2.1876  -24.2939 C   0  0  0  0  0  0  0  0  0  0  0  0
   -9.6819   -1.8856  -24.9809 H   0  0  0  0  0  0  0  0  0  0  0  0
  -10.7753   -3.1935  -24.6101 H   0  0  0  0  0  0  0  0  0  0  0  0
   -8.8745   -2.6997  -23.0105 H   0  0  0  0  0  0  0  0  0  0  0  0
  -11.6878   -0.5194  -21.8312 H   0  0  0  0  0  0  0  0  0  0  0  0
  -10.5926    0.8850  -21.9474 H   0  0  0  0  0  0  0  0  0  0  0  0
  -12.2453    0.7400  -23.8171 H   0  0  0  0  0  0  0  0  0  0  0  0
  -10.5756    0.6427  -24.3718 H   0  0  0  0  0  0  0  0  0  0  0  0
  -11.7521   -1.0492  -25.5582 H   0  0  0  0  0  0  0  0  0  0  0  0
  -13.1220   -1.8840  -22.9485 H   0  0  0  0  0  0  0  0  0  0  0  0
  -13.8412   -1.1641  -24.3959 H   0  0  0  0  0  0  0  0  0  0  0  0
  -13.1895   -2.7844  -24.4408 H   0  0  0  0  0  0  0  0  0  0  0  0
  1  2  1  0
  2  3  1  0
  3  4  1  0
  4  5  1  0
  5  6  1  0
  6  7  2  0
  6  8  1  0
  8  9  1  0
  9 10  2  0
 10 11  1  0
 11 12  2  0
 12 13  1  0
 13 14  2  0
 14 15  1  0
 15 16  2  0
 16 17  1  0
 17 18  2  0
 17 19  1  0
 16 20  1  0
 15 21  1  0
 14 22  1  0
 12 23  1  0
 10 24  1  0
  8 25  1  0
  8 26  1  0
  5 27  1  0
 27 28  1  0
 28 29  1  0
 28 30  1  0
 28 31  1  0
 27 32  1  0
 32 33  1  0
 32 34  1  0
 27 35  1  6
  4 36  1  0
  4 37  1  0
  3 38  1  0
  3 39  1  0
  2 40  1  6
  1 41  1  0
  1 42  1  0
  1 43  1  0
 32  2  1  0
 18  9  1  0
 18 13  1  0
M  END
>  <cnnaffinities>  (84) 
[4.38883, 5.03977, 4.92852, 4.66021]

>  <score>  (84) 
4.38883

>  <index>  (84) 
86

>  <Smiles>  (84) 
C([C@]1(C(C(N(C(=O)C(c2c(nc(c3c(c(c(c(c23)[H])[H])[H])[H])[H])[H])([H])[H])[C@@](C([H])([H])[H])(C1([H])[H])[H])([H])[H])([H])[H])[H])([H])([H])[H]

>  <h>  (84) 
<NA>

>  <Training>  (84) 
True

>  <Success>  (84) 
True

>  <enamine_searched>  (84) 
False

>  <enamine_id>  (84) 
nan

$$$$

     RDKit          3D

 59 64  0  0  0  0  0  0  0  0999 V2000
   -7.8699   -3.6831  -24.0568 C   0  0  0  0  0  0  0  0  0  0  0  0
   -8.2733   -2.8866  -22.8073 C   0  0  1  0  0  0  0  0  0  0  0  0
   -7.0715   -2.6402  -21.8674 C   0  0  0  0  0  0  0  0  0  0  0  0
   -7.4007   -1.3969  -21.2027 N   0  0  0  0  0  0  0  0  0  0  0  0
   -6.6031   -0.8137  -20.1782 C   0  0  0  0  0  0  0  0  0  0  0  0
   -6.9036   -1.0479  -18.8650 C   0  0  0  0  0  0  0  0  0  0  0  0
   -6.1953   -0.5594  -17.8156 N   0  0  0  0  0  0  0  0  0  0  0  0
   -5.1658    0.2045  -18.0831 C   0  0  0  0  0  0  0  0  0  0  0  0
   -4.7304    0.5257  -19.4000 C   0  0  0  0  0  0  0  0  0  0  0  0
   -3.6002    1.3531  -19.6433 C   0  0  0  0  0  0  0  0  0  0  0  0
   -3.2091    1.6410  -20.9192 C   0  0  0  0  0  0  0  0  0  0  0  0
   -3.9251    1.1066  -22.0149 C   0  0  0  0  0  0  0  0  0  0  0  0
   -5.0207    0.3046  -21.8068 C   0  0  0  0  0  0  0  0  0  0  0  0
   -5.4637   -0.0027  -20.4899 C   0  0  0  0  0  0  0  0  0  0  0  0
   -5.5684   -0.0881  -22.6592 H   0  0  0  0  0  0  0  0  0  0  0  0
   -3.6138    1.3440  -23.0270 H   0  0  0  0  0  0  0  0  0  0  0  0
   -2.3578    2.2927  -21.1001 H   0  0  0  0  0  0  0  0  0  0  0  0
   -3.0739    1.7669  -18.7855 H   0  0  0  0  0  0  0  0  0  0  0  0
   -4.6225    0.6147  -17.2300 H   0  0  0  0  0  0  0  0  0  0  0  0
   -7.7563   -1.6707  -18.6026 H   0  0  0  0  0  0  0  0  0  0  0  0
   -8.4268   -0.6913  -21.7907 C   0  0  0  0  0  0  0  0  0  0  0  0
   -8.8507    0.3589  -21.3687 O   0  0  0  0  0  0  0  0  0  0  0  0
   -8.9261   -1.4808  -23.0337 C   0  0  1  0  0  0  0  0  0  0  0  0
   -8.4084   -0.8390  -24.3474 C   0  0  0  0  0  0  0  0  0  0  0  0
   -9.0456    0.4306  -24.6363 N   0  0  0  0  0  0  0  0  0  0  0  0
   -8.2916    1.5164  -25.2426 C   0  0  0  0  0  0  0  0  0  0  0  0
   -8.1792    2.7177  -24.3485 C   0  0  0  0  0  0  0  0  0  0  0  0
   -7.5777    2.8205  -23.1122 C   0  0  0  0  0  0  0  0  0  0  0  0
   -7.7718    4.1590  -22.7217 C   0  0  0  0  0  0  0  0  0  0  0  0
   -8.4157    4.8418  -23.6626 N   0  0  0  0  0  0  0  0  0  0  0  0
   -8.6466    3.9565  -24.6425 N   0  0  0  0  0  0  0  0  0  0  0  0
   -9.2920    4.3949  -25.8682 C   0  0  0  0  0  0  0  0  0  0  0  0
  -10.1874    3.7908  -26.0381 H   0  0  0  0  0  0  0  0  0  0  0  0
   -8.6037    4.2975  -26.7181 H   0  0  0  0  0  0  0  0  0  0  0  0
   -9.5431    5.4488  -25.7234 H   0  0  0  0  0  0  0  0  0  0  0  0
   -7.4852    4.6579  -21.8001 H   0  0  0  0  0  0  0  0  0  0  0  0
   -7.0999    2.0125  -22.5773 H   0  0  0  0  0  0  0  0  0  0  0  0
   -8.7371    1.7739  -26.2105 H   0  0  0  0  0  0  0  0  0  0  0  0
   -7.2881    1.1264  -25.4246 H   0  0  0  0  0  0  0  0  0  0  0  0
  -10.3982    0.5779  -24.5750 C   0  0  0  0  0  0  0  0  0  0  0  0
  -10.9534    1.5424  -25.0907 O   0  0  0  0  0  0  0  0  0  0  0  0
  -11.1371   -0.4866  -23.8103 C   0  0  0  0  0  0  0  0  0  0  0  0
  -12.5328   -0.4561  -23.8050 C   0  0  0  0  0  0  0  0  0  0  0  0
  -13.2542   -1.3216  -23.0061 C   0  0  0  0  0  0  0  0  0  0  0  0
  -12.5550   -2.1996  -22.1870 C   0  0  0  0  0  0  0  0  0  0  0  0
  -13.2494   -3.0027  -21.3640 F   0  0  0  0  0  0  0  0  0  0  0  0
  -11.1781   -2.2658  -22.1819 C   0  0  0  0  0  0  0  0  0  0  0  0
  -10.4447   -1.4453  -23.0498 C   0  0  0  0  0  0  0  0  0  0  0  0
  -10.7090   -2.9396  -21.4726 H   0  0  0  0  0  0  0  0  0  0  0  0
  -14.3365   -1.3197  -22.9746 H   0  0  0  0  0  0  0  0  0  0  0  0
  -13.0272    0.2805  -24.4282 H   0  0  0  0  0  0  0  0  0  0  0  0
   -8.5782   -1.5480  -25.1741 H   0  0  0  0  0  0  0  0  0  0  0  0
   -7.3308   -0.6662  -24.2425 H   0  0  0  0  0  0  0  0  0  0  0  0
   -6.1297   -2.5566  -22.4350 H   0  0  0  0  0  0  0  0  0  0  0  0
   -6.9356   -3.4425  -21.1311 H   0  0  0  0  0  0  0  0  0  0  0  0
   -9.0092   -3.4763  -22.2541 H   0  0  0  0  0  0  0  0  0  0  0  0
   -8.7120   -3.8231  -24.7456 H   0  0  0  0  0  0  0  0  0  0  0  0
   -7.0682   -3.1762  -24.6114 H   0  0  0  0  0  0  0  0  0  0  0  0
   -7.4941   -4.6773  -23.7827 H   0  0  0  0  0  0  0  0  0  0  0  0
  1  2  1  0
  2  3  1  0
  3  4  1  0
  4  5  1  0
  5  6  2  0
  6  7  1  0
  7  8  2  0
  8  9  1  0
  9 10  2  0
 10 11  1  0
 11 12  2  0
 12 13  1  0
 13 14  2  0
 13 15  1  0
 12 16  1  0
 11 17  1  0
 10 18  1  0
  8 19  1  0
  6 20  1  0
  4 21  1  0
 21 22  2  0
 21 23  1  0
 23 24  1  6
 24 25  1  0
 25 26  1  0
 26 27  1  0
 27 28  2  0
 28 29  1  0
 29 30  2  0
 30 31  1  0
 31 32  1  0
 32 33  1  0
 32 34  1  0
 32 35  1  0
 29 36  1  0
 28 37  1  0
 26 38  1  0
 26 39  1  0
 25 40  1  0
 40 41  2  0
 40 42  1  0
 42 43  2  0
 43 44  1  0
 44 45  2  0
 45 46  1  0
 45 47  1  0
 47 48  2  0
 47 49  1  0
 44 50  1  0
 43 51  1  0
 24 52  1  0
 24 53  1  0
  3 54  1  0
  3 55  1  0
  2 56  1  1
  1 57  1  0
  1 58  1  0
  1 59  1  0
 23  2  1  0
 31 27  1  0
 48 42  1  0
 14  5  1  0
 48 23  1  0
 14  9  1  0
M  END
>  <cnnaffinities>  (85) 
[6.44049]

>  <score>  (85) 
6.44049

>  <index>  (85) 
87

>  <Smiles>  (85) 
C([C@]1(C(N(c2c(nc(c3c(c(c(c(c23)[H])[H])[H])[H])[H])[H])C(=O)[C@]21C(N(C(c1c(c(nn1C([H])([H])[H])[H])[H])([H])[H])C(=O)c1c(c(c(F)c(c21)[H])[H])[H])([H])[H])([H])[H])[H])([H])([H])[H]

>  <h>  (85) 
<NA>

>  <Training>  (85) 
True

>  <Success>  (85) 
True

>  <enamine_searched>  (85) 
False

>  <enamine_id>  (85) 
nan

$$$$

     RDKit          3D

 40 42  0  0  0  0  0  0  0  0999 V2000
   -9.1772    0.2271  -21.0771 O   0  0  0  0  0  0  0  0  0  0  0  0
   -8.3765   -0.3115  -21.8086 C   0  0  0  0  0  0  0  0  0  0  0  0
   -7.4446   -1.4107  -21.2747 C   0  0  0  0  0  0  0  0  0  0  0  0
   -6.5714   -0.8337  -20.1789 C   0  0  0  0  0  0  0  0  0  0  0  0
   -6.8764   -1.0414  -18.8602 C   0  0  0  0  0  0  0  0  0  0  0  0
   -6.1869   -0.5427  -17.8003 N   0  0  0  0  0  0  0  0  0  0  0  0
   -5.1561    0.2219  -18.0674 C   0  0  0  0  0  0  0  0  0  0  0  0
   -4.7217    0.5328  -19.3830 C   0  0  0  0  0  0  0  0  0  0  0  0
   -3.5978    1.3618  -19.6266 C   0  0  0  0  0  0  0  0  0  0  0  0
   -3.2109    1.6598  -20.9040 C   0  0  0  0  0  0  0  0  0  0  0  0
   -3.9316    1.1290  -21.9971 C   0  0  0  0  0  0  0  0  0  0  0  0
   -5.0189    0.3166  -21.7879 C   0  0  0  0  0  0  0  0  0  0  0  0
   -5.4495   -0.0028  -20.4741 C   0  0  0  0  0  0  0  0  0  0  0  0
   -5.5540   -0.0878  -22.6400 H   0  0  0  0  0  0  0  0  0  0  0  0
   -3.6164    1.3677  -23.0091 H   0  0  0  0  0  0  0  0  0  0  0  0
   -2.3586    2.3109  -21.0838 H   0  0  0  0  0  0  0  0  0  0  0  0
   -3.0653    1.7770  -18.7739 H   0  0  0  0  0  0  0  0  0  0  0  0
   -4.6053    0.6276  -17.2161 H   0  0  0  0  0  0  0  0  0  0  0  0
   -7.7288   -1.6600  -18.5834 H   0  0  0  0  0  0  0  0  0  0  0  0
   -8.0694   -2.2025  -20.8448 H   0  0  0  0  0  0  0  0  0  0  0  0
   -6.8353   -1.8472  -22.0755 H   0  0  0  0  0  0  0  0  0  0  0  0
   -8.1723    0.0942  -23.1322 N   0  0  0  0  0  0  0  0  0  0  0  0
   -8.3883    1.4984  -23.4579 C   0  0  0  0  0  0  0  0  0  0  0  0
   -7.4024    1.9413  -24.5372 C   0  0  0  0  0  0  0  0  0  0  0  0
   -7.4898    1.0308  -25.7611 C   0  0  0  0  0  0  0  0  0  0  0  0
   -6.5073    1.4236  -26.8479 C   0  0  0  0  0  0  0  0  0  0  0  0
   -5.2281    1.3786  -26.3660 F   0  0  0  0  0  0  0  0  0  0  0  0
   -6.7334    2.7052  -27.2625 F   0  0  0  0  0  0  0  0  0  0  0  0
   -6.5518    0.7734  -27.7346 H   0  0  0  0  0  0  0  0  0  0  0  0
   -7.2926   -0.4273  -25.3567 C   0  0  0  0  0  0  0  0  0  0  0  0
   -8.2707   -0.8213  -24.2621 C   0  0  0  0  0  0  0  0  0  0  0  0
   -9.2903   -0.8311  -24.6859 H   0  0  0  0  0  0  0  0  0  0  0  0
   -8.0775   -1.8322  -23.9102 H   0  0  0  0  0  0  0  0  0  0  0  0
   -7.4172   -1.0797  -26.2277 H   0  0  0  0  0  0  0  0  0  0  0  0
   -6.2692   -0.5685  -24.9971 H   0  0  0  0  0  0  0  0  0  0  0  0
   -8.4818    1.1512  -26.2149 H   0  0  0  0  0  0  0  0  0  0  0  0
   -7.5898    2.9802  -24.8236 H   0  0  0  0  0  0  0  0  0  0  0  0
   -6.3846    1.9120  -24.1308 H   0  0  0  0  0  0  0  0  0  0  0  0
   -8.2404    2.0716  -22.5433 H   0  0  0  0  0  0  0  0  0  0  0  0
   -9.4193    1.6989  -23.7878 H   0  0  0  0  0  0  0  0  0  0  0  0
  1  2  2  0
  2  3  1  0
  3  4  1  0
  4  5  2  0
  5  6  1  0
  6  7  2  0
  7  8  1  0
  8  9  2  0
  9 10  1  0
 10 11  2  0
 11 12  1  0
 12 13  2  0
 12 14  1  0
 11 15  1  0
 10 16  1  0
  9 17  1  0
  7 18  1  0
  5 19  1  0
  3 20  1  0
  3 21  1  0
  2 22  1  0
 22 23  1  0
 23 24  1  0
 24 25  1  0
 25 26  1  0
 26 27  1  0
 26 28  1  0
 26 29  1  0
 25 30  1  0
 30 31  1  0
 31 32  1  0
 31 33  1  0
 30 34  1  0
 30 35  1  0
 25 36  1  0
 24 37  1  0
 24 38  1  0
 23 39  1  0
 23 40  1  0
 13  4  1  0
 31 22  1  0
 13  8  1  0
M  END
>  <cnnaffinities>  (86) 
[4.6196, 4.61984, 4.64385, 4.59476, 4.51023, 4.51013, 4.60742, 4.60727, 4.60727, 4.69535, 4.45454, 4.71265, 4.71265, 4.71264, 4.79508, 4.79459, 4.79494]

>  <score>  (86) 
4.6196

>  <index>  (86) 
88

>  <Smiles>  (86) 
O=C(C(c1c(nc(c2c(c(c(c(c12)[H])[H])[H])[H])[H])[H])([H])[H])N1C(C(C(C(F)(F)[H])(C(C1([H])[H])([H])[H])[H])([H])[H])([H])[H]

>  <h>  (86) 
<NA>

>  <Training>  (86) 
True

>  <Success>  (86) 
True

>  <enamine_searched>  (86) 
False

>  <enamine_id>  (86) 
nan

$$$$

     RDKit          3D

 43 45  0  0  0  0  0  0  0  0999 V2000
   -6.1706   -4.4179  -27.1884 C   0  0  0  0  0  0  0  0  0  0  0  0
   -6.0041   -3.3828  -26.0697 C   0  0  0  0  0  0  0  0  0  0  0  0
   -5.3447   -2.1322  -26.6651 C   0  0  0  0  0  0  0  0  0  0  0  0
   -4.3649   -2.3748  -27.0899 H   0  0  0  0  0  0  0  0  0  0  0  0
   -5.9594   -1.7189  -27.4721 H   0  0  0  0  0  0  0  0  0  0  0  0
   -5.1943   -1.3357  -25.9322 H   0  0  0  0  0  0  0  0  0  0  0  0
   -5.1424   -3.9830  -24.9519 C   0  0  0  0  0  0  0  0  0  0  0  0
   -5.0876   -3.1181  -23.7000 C   0  0  0  0  0  0  0  0  0  0  0  0
   -6.4202   -2.7533  -23.2307 N   0  0  0  0  0  0  0  0  0  0  0  0
   -6.6334   -2.6895  -21.8588 C   0  0  0  0  0  0  0  0  0  0  0  0
   -6.2028   -3.5444  -21.1107 O   0  0  0  0  0  0  0  0  0  0  0  0
   -7.3902   -1.4736  -21.2782 C   0  0  0  0  0  0  0  0  0  0  0  0
   -6.5812   -0.8190  -20.1780 C   0  0  0  0  0  0  0  0  0  0  0  0
   -6.8736   -1.0450  -18.8591 C   0  0  0  0  0  0  0  0  0  0  0  0
   -6.1838   -0.5466  -17.7981 N   0  0  0  0  0  0  0  0  0  0  0  0
   -5.1569    0.2234  -18.0656 C   0  0  0  0  0  0  0  0  0  0  0  0
   -4.7206    0.5329  -19.3818 C   0  0  0  0  0  0  0  0  0  0  0  0
   -3.5877    1.3511  -19.6237 C   0  0  0  0  0  0  0  0  0  0  0  0
   -3.1891    1.6323  -20.9019 C   0  0  0  0  0  0  0  0  0  0  0  0
   -3.9068    1.0960  -21.9950 C   0  0  0  0  0  0  0  0  0  0  0  0
   -5.0054    0.2978  -21.7888 C   0  0  0  0  0  0  0  0  0  0  0  0
   -5.4473   -0.0031  -20.4728 C   0  0  0  0  0  0  0  0  0  0  0  0
   -5.5436   -0.1029  -22.6442 H   0  0  0  0  0  0  0  0  0  0  0  0
   -3.5860    1.3259  -23.0061 H   0  0  0  0  0  0  0  0  0  0  0  0
   -2.3290    2.2713  -21.0851 H   0  0  0  0  0  0  0  0  0  0  0  0
   -3.0554    1.7674  -18.7717 H   0  0  0  0  0  0  0  0  0  0  0  0
   -4.6043    0.6289  -17.2156 H   0  0  0  0  0  0  0  0  0  0  0  0
   -7.7217   -1.6705  -18.5849 H   0  0  0  0  0  0  0  0  0  0  0  0
   -8.3264   -1.8496  -20.8475 H   0  0  0  0  0  0  0  0  0  0  0  0
   -7.6528   -0.7405  -22.0513 H   0  0  0  0  0  0  0  0  0  0  0  0
   -7.3114   -2.1751  -24.2201 C   0  0  0  0  0  0  0  0  0  0  0  0
   -7.3774   -3.0471  -25.4777 C   0  0  0  0  0  0  0  0  0  0  0  0
   -7.9881   -2.5463  -26.2349 H   0  0  0  0  0  0  0  0  0  0  0  0
   -7.8986   -3.9804  -25.2372 H   0  0  0  0  0  0  0  0  0  0  0  0
   -7.0201   -1.1468  -24.4916 H   0  0  0  0  0  0  0  0  0  0  0  0
   -8.3066   -2.1155  -23.7806 H   0  0  0  0  0  0  0  0  0  0  0  0
   -4.5995   -3.6537  -22.8870 H   0  0  0  0  0  0  0  0  0  0  0  0
   -4.4822   -2.2149  -23.8916 H   0  0  0  0  0  0  0  0  0  0  0  0
   -4.1277   -4.1547  -25.3287 H   0  0  0  0  0  0  0  0  0  0  0  0
   -5.5397   -4.9681  -24.6833 H   0  0  0  0  0  0  0  0  0  0  0  0
   -5.2019   -4.6907  -27.6232 H   0  0  0  0  0  0  0  0  0  0  0  0
   -6.6379   -5.3376  -26.8191 H   0  0  0  0  0  0  0  0  0  0  0  0
   -6.7993   -4.0298  -27.9982 H   0  0  0  0  0  0  0  0  0  0  0  0
  1  2  1  0
  2  3  1  0
  3  4  1  0
  3  5  1  0
  3  6  1  0
  2  7  1  0
  7  8  1  0
  8  9  1  0
  9 10  1  0
 10 11  2  0
 10 12  1  0
 12 13  1  0
 13 14  2  0
 14 15  1  0
 15 16  2  0
 16 17  1  0
 17 18  2  0
 18 19  1  0
 19 20  2  0
 20 21  1  0
 21 22  2  0
 21 23  1  0
 20 24  1  0
 19 25  1  0
 18 26  1  0
 16 27  1  0
 14 28  1  0
 12 29  1  0
 12 30  1  0
  9 31  1  0
 31 32  1  0
 32 33  1  0
 32 34  1  0
 31 35  1  0
 31 36  1  0
  8 37  1  0
  8 38  1  0
  7 39  1  0
  7 40  1  0
  1 41  1  0
  1 42  1  0
  1 43  1  0
 32  2  1  0
 22 13  1  0
 22 17  1  0
M  END
>  <cnnaffinities>  (87) 
[4.73853, 4.95643, 4.95642, 4.95639, 4.66403, 4.664, 4.66402, 4.68496, 4.68496, 4.68498, 4.68498]

>  <score>  (87) 
4.73853

>  <index>  (87) 
89

>  <Smiles>  (87) 
C(C1(C([H])([H])[H])C(C(N(C(=O)C(c2c(nc(c3c(c(c(c(c23)[H])[H])[H])[H])[H])[H])([H])[H])C(C1([H])[H])([H])[H])([H])[H])([H])[H])([H])([H])[H]

>  <h>  (87) 
<NA>

>  <Training>  (87) 
True

>  <Success>  (87) 
True

>  <enamine_searched>  (87) 
False

>  <enamine_id>  (87) 
nan

$$$$

     RDKit          3D

 64 68  0  0  0  0  0  0  0  0999 V2000
   -7.4830    2.9819  -21.9864 C   0  0  0  0  0  0  0  0  0  0  0  0
   -8.5876    2.5040  -22.7965 N   0  0  0  0  0  0  0  0  0  0  0  0
   -8.3159    1.7853  -23.9175 C   0  0  0  0  0  0  0  0  0  0  0  0
   -7.1724    1.5520  -24.2847 O   0  0  0  0  0  0  0  0  0  0  0  0
   -9.5317    1.2435  -24.6722 C   0  0  0  0  0  0  0  0  0  0  0  0
  -10.0163    0.0544  -23.9990 N   0  0  0  0  0  0  0  0  0  0  0  0
   -9.1440   -1.1100  -23.9622 C   0  0  0  0  0  0  0  0  0  0  0  0
   -9.2596   -1.8578  -22.6091 C   0  0  2  0  0  0  0  0  0  0  0  0
   -8.6773   -0.9680  -21.4820 C   0  0  0  0  0  0  0  0  0  0  0  0
   -9.2092   -0.0162  -20.9463 O   0  0  0  0  0  0  0  0  0  0  0  0
   -7.4038   -1.4167  -21.1962 N   0  0  0  0  0  0  0  0  0  0  0  0
   -6.6187   -0.8318  -20.1774 C   0  0  0  0  0  0  0  0  0  0  0  0
   -6.9388   -1.0535  -18.8614 C   0  0  0  0  0  0  0  0  0  0  0  0
   -6.2296   -0.5706  -17.8167 N   0  0  0  0  0  0  0  0  0  0  0  0
   -5.1876    0.1775  -18.0896 C   0  0  0  0  0  0  0  0  0  0  0  0
   -4.7485    0.4874  -19.4073 C   0  0  0  0  0  0  0  0  0  0  0  0
   -3.6279    1.3233  -19.6482 C   0  0  0  0  0  0  0  0  0  0  0  0
   -3.2524    1.6326  -20.9262 C   0  0  0  0  0  0  0  0  0  0  0  0
   -3.9826    1.1275  -22.0241 C   0  0  0  0  0  0  0  0  0  0  0  0
   -5.0773    0.3177  -21.8193 C   0  0  0  0  0  0  0  0  0  0  0  0
   -5.4815   -0.0318  -20.4998 C   0  0  0  0  0  0  0  0  0  0  0  0
   -5.6708    0.0018  -22.6727 H   0  0  0  0  0  0  0  0  0  0  0  0
   -3.6868    1.3913  -23.0352 H   0  0  0  0  0  0  0  0  0  0  0  0
   -2.4005    2.2842  -21.1018 H   0  0  0  0  0  0  0  0  0  0  0  0
   -3.0974    1.7278  -18.7909 H   0  0  0  0  0  0  0  0  0  0  0  0
   -4.6321    0.5837  -17.2446 H   0  0  0  0  0  0  0  0  0  0  0  0
   -7.8029   -1.6665  -18.6145 H   0  0  0  0  0  0  0  0  0  0  0  0
   -6.9794   -2.5576  -21.9783 C   0  0  0  0  0  0  0  0  0  0  0  0
   -8.3125   -3.0882  -22.5295 C   0  0  2  0  0  0  0  0  0  0  0  0
   -8.1832   -3.8996  -23.8151 C   0  0  0  0  0  0  0  0  0  0  0  0
   -7.3662   -5.4505  -23.5155 S   0  0  0  0  0  0  0  0  0  0  0  0
   -8.1693   -6.2294  -22.5824 O   0  0  0  0  0  0  0  0  0  0  0  0
   -5.9643   -5.2049  -23.2051 O   0  0  0  0  0  0  0  0  0  0  0  0
   -7.3825   -6.1027  -25.0458 N   0  0  0  0  0  0  0  0  0  0  0  0
   -8.6160   -6.6478  -25.6058 C   0  0  0  0  0  0  0  0  0  0  0  0
   -9.2781   -5.8396  -25.9394 H   0  0  0  0  0  0  0  0  0  0  0  0
   -9.1557   -7.3086  -24.9153 H   0  0  0  0  0  0  0  0  0  0  0  0
   -8.3393   -7.2094  -26.5008 H   0  0  0  0  0  0  0  0  0  0  0  0
   -6.5611   -6.6868  -25.1518 H   0  0  0  0  0  0  0  0  0  0  0  0
   -7.5983   -3.3765  -24.5793 H   0  0  0  0  0  0  0  0  0  0  0  0
   -9.1759   -4.1229  -24.2198 H   0  0  0  0  0  0  0  0  0  0  0  0
   -8.7078   -3.7558  -21.7592 H   0  0  0  0  0  0  0  0  0  0  0  0
   -6.4769   -3.3062  -21.3611 H   0  0  0  0  0  0  0  0  0  0  0  0
   -6.2826   -2.2706  -22.7811 H   0  0  0  0  0  0  0  0  0  0  0  0
  -10.7356   -2.1499  -22.3977 C   0  0  0  0  0  0  0  0  0  0  0  0
  -11.1835   -3.2679  -21.6851 C   0  0  0  0  0  0  0  0  0  0  0  0
  -12.5309   -3.4292  -21.4333 C   0  0  0  0  0  0  0  0  0  0  0  0
  -12.9271   -4.4681  -20.6801 F   0  0  0  0  0  0  0  0  0  0  0  0
  -13.4962   -2.5541  -21.9097 C   0  0  0  0  0  0  0  0  0  0  0  0
  -13.0634   -1.4474  -22.6093 C   0  0  0  0  0  0  0  0  0  0  0  0
  -11.7051   -1.2403  -22.8498 C   0  0  0  0  0  0  0  0  0  0  0  0
  -11.3221   -0.0038  -23.6036 C   0  0  0  0  0  0  0  0  0  0  0  0
  -12.1306    0.8825  -23.8460 O   0  0  0  0  0  0  0  0  0  0  0  0
  -13.7657   -0.7158  -22.9902 H   0  0  0  0  0  0  0  0  0  0  0  0
  -14.5461   -2.7603  -21.7362 H   0  0  0  0  0  0  0  0  0  0  0  0
  -10.5116   -4.0145  -21.2824 H   0  0  0  0  0  0  0  0  0  0  0  0
   -9.4051   -1.7925  -24.7835 H   0  0  0  0  0  0  0  0  0  0  0  0
   -8.1196   -0.7624  -24.1205 H   0  0  0  0  0  0  0  0  0  0  0  0
  -10.3571    1.9591  -24.6850 H   0  0  0  0  0  0  0  0  0  0  0  0
   -9.2529    1.0102  -25.7094 H   0  0  0  0  0  0  0  0  0  0  0  0
   -9.4638    2.3312  -22.3230 H   0  0  0  0  0  0  0  0  0  0  0  0
   -7.8368    3.7374  -21.2853 H   0  0  0  0  0  0  0  0  0  0  0  0
   -7.0164    2.1631  -21.4182 H   0  0  0  0  0  0  0  0  0  0  0  0
   -6.7483    3.4581  -22.6441 H   0  0  0  0  0  0  0  0  0  0  0  0
  1  2  1  0
  2  3  1  0
  3  4  2  0
  3  5  1  0
  5  6  1  0
  6  7  1  0
  8  7  1  6
  8  9  1  0
  9 10  2  0
  9 11  1  0
 11 12  1  0
 12 13  2  0
 13 14  1  0
 14 15  2  0
 15 16  1  0
 16 17  2  0
 17 18  1  0
 18 19  2  0
 19 20  1  0
 20 21  2  0
 20 22  1  0
 19 23  1  0
 18 24  1  0
 17 25  1  0
 15 26  1  0
 13 27  1  0
 11 28  1  0
 28 29  1  0
 29 30  1  0
 30 31  1  0
 31 32  2  0
 31 33  2  0
 31 34  1  0
 34 35  1  0
 35 36  1  0
 35 37  1  0
 35 38  1  0
 34 39  1  0
 30 40  1  0
 30 41  1  0
 29 42  1  1
 28 43  1  0
 28 44  1  0
  8 45  1  0
 45 46  2  0
 46 47  1  0
 47 48  1  0
 47 49  2  0
 49 50  1  0
 50 51  2  0
 51 52  1  0
 52 53  2  0
 50 54  1  0
 49 55  1  0
 46 56  1  0
  7 57  1  0
  7 58  1  0
  5 59  1  0
  5 60  1  0
  2 61  1  0
  1 62  1  0
  1 63  1  0
  1 64  1  0
 52  6  1  0
 29  8  1  0
 51 45  1  0
 21 12  1  0
 21 16  1  0
M  END
>  <cnnaffinities>  (88) 
[6.88825]

>  <score>  (88) 
6.88825

>  <index>  (88) 
90

>  <Smiles>  (88) 
C(N(C(=O)C(N1C([C@@]2(C(=O)N(c3c(nc(c4c(c(c(c(c34)[H])[H])[H])[H])[H])[H])C([C@@]2(C(S(=O)(=O)N(C([H])([H])[H])[H])([H])[H])[H])([H])[H])c2c(c(F)c(c(c2C1=O)[H])[H])[H])([H])[H])([H])[H])[H])([H])([H])[H]

>  <h>  (88) 
<NA>

>  <Training>  (88) 
True

>  <Success>  (88) 
True

>  <enamine_searched>  (88) 
False

>  <enamine_id>  (88) 
nan

$$$$

     RDKit          3D

 66 71  0  0  0  0  0  0  0  0999 V2000
   -7.5225    3.3127  -21.8655 C   0  0  0  0  0  0  0  0  0  0  0  0
   -8.5774    2.8345  -22.7464 N   0  0  0  0  0  0  0  0  0  0  0  0
   -8.2024    2.0551  -23.8019 C   0  0  0  0  0  0  0  0  0  0  0  0
   -7.0291    1.8065  -24.0443 O   0  0  0  0  0  0  0  0  0  0  0  0
   -9.3309    1.4947  -24.6681 C   0  0  0  0  0  0  0  0  0  0  0  0
   -9.8849    0.3063  -24.0497 N   0  0  0  0  0  0  0  0  0  0  0  0
   -9.0687   -0.8999  -24.0289 C   0  0  0  0  0  0  0  0  0  0  0  0
   -9.2578   -1.6742  -22.7043 C   0  0  2  0  0  0  0  0  0  0  0  0
   -8.6443   -0.8494  -21.5444 C   0  0  0  0  0  0  0  0  0  0  0  0
   -9.1169    0.1371  -21.0093 O   0  0  0  0  0  0  0  0  0  0  0  0
   -7.4258   -1.3990  -21.2121 N   0  0  0  0  0  0  0  0  0  0  0  0
   -6.6165   -0.8311  -20.1953 C   0  0  0  0  0  0  0  0  0  0  0  0
   -6.9295   -1.0579  -18.8778 C   0  0  0  0  0  0  0  0  0  0  0  0
   -6.2243   -0.5777  -17.8265 N   0  0  0  0  0  0  0  0  0  0  0  0
   -5.1869    0.1788  -18.0938 C   0  0  0  0  0  0  0  0  0  0  0  0
   -4.7526    0.5018  -19.4105 C   0  0  0  0  0  0  0  0  0  0  0  0
   -3.6265    1.3338  -19.6443 C   0  0  0  0  0  0  0  0  0  0  0  0
   -3.2445    1.6413  -20.9205 C   0  0  0  0  0  0  0  0  0  0  0  0
   -3.9698    1.1375  -22.0217 C   0  0  0  0  0  0  0  0  0  0  0  0
   -5.0728    0.3388  -21.8244 C   0  0  0  0  0  0  0  0  0  0  0  0
   -5.4852   -0.0118  -20.5085 C   0  0  0  0  0  0  0  0  0  0  0  0
   -5.6473    0.0038  -22.6831 H   0  0  0  0  0  0  0  0  0  0  0  0
   -3.6567    1.3874  -23.0315 H   0  0  0  0  0  0  0  0  0  0  0  0
   -2.3850    2.2814  -21.0937 H   0  0  0  0  0  0  0  0  0  0  0  0
   -3.0932    1.7288  -18.7836 H   0  0  0  0  0  0  0  0  0  0  0  0
   -4.6246    0.5778  -17.2488 H   0  0  0  0  0  0  0  0  0  0  0  0
   -7.7965   -1.6675  -18.6354 H   0  0  0  0  0  0  0  0  0  0  0  0
   -7.0783   -2.5729  -21.9894 C   0  0  0  0  0  0  0  0  0  0  0  0
   -8.4079   -2.9728  -22.6409 C   0  0  2  0  0  0  0  0  0  0  0  0
   -8.1999   -3.7719  -23.9255 C   0  0  0  0  0  0  0  0  0  0  0  0
   -9.4171   -4.3953  -24.3859 N   0  0  0  0  0  0  0  0  0  0  0  0
   -9.4942   -5.0610  -25.5835 C   0  0  0  0  0  0  0  0  0  0  0  0
   -8.3847   -5.2411  -26.4498 C   0  0  0  0  0  0  0  0  0  0  0  0
   -8.5086   -5.8110  -27.6384 N   0  0  0  0  0  0  0  0  0  0  0  0
   -9.7332   -6.2158  -27.9931 C   0  0  0  0  0  0  0  0  0  0  0  0
  -10.8005   -6.1076  -27.1145 C   0  0  0  0  0  0  0  0  0  0  0  0
  -10.6887   -5.5559  -25.9066 N   0  0  0  0  0  0  0  0  0  0  0  0
  -11.7907   -6.4627  -27.3887 H   0  0  0  0  0  0  0  0  0  0  0  0
   -9.8598   -6.6220  -28.9937 H   0  0  0  0  0  0  0  0  0  0  0  0
   -7.3866   -4.8998  -26.1792 H   0  0  0  0  0  0  0  0  0  0  0  0
  -10.3159   -4.0782  -24.0367 H   0  0  0  0  0  0  0  0  0  0  0  0
   -7.4658   -4.5652  -23.7299 H   0  0  0  0  0  0  0  0  0  0  0  0
   -7.7666   -3.1242  -24.7066 H   0  0  0  0  0  0  0  0  0  0  0  0
   -8.9066   -3.6407  -21.9377 H   0  0  0  0  0  0  0  0  0  0  0  0
   -6.3114   -2.3474  -22.7487 H   0  0  0  0  0  0  0  0  0  0  0  0
   -6.6946   -3.3732  -21.3451 H   0  0  0  0  0  0  0  0  0  0  0  0
  -10.7464   -1.8872  -22.5157 C   0  0  0  0  0  0  0  0  0  0  0  0
  -11.2404   -2.9526  -21.7581 C   0  0  0  0  0  0  0  0  0  0  0  0
  -12.6000   -3.1253  -21.5975 C   0  0  0  0  0  0  0  0  0  0  0  0
  -13.1585   -4.4495  -20.6294 Cl  0  0  0  0  0  0  0  0  0  0  0  0
  -13.5204   -2.2380  -22.1465 C   0  0  0  0  0  0  0  0  0  0  0  0
  -13.0414   -1.1417  -22.8376 C   0  0  0  0  0  0  0  0  0  0  0  0
  -11.6718   -0.9642  -23.0261 C   0  0  0  0  0  0  0  0  0  0  0  0
  -11.2186    0.2664  -23.7496 C   0  0  0  0  0  0  0  0  0  0  0  0
  -11.9911    1.1691  -24.0487 O   0  0  0  0  0  0  0  0  0  0  0  0
  -13.7153   -0.3819  -23.2202 H   0  0  0  0  0  0  0  0  0  0  0  0
  -14.5837   -2.4376  -22.0668 H   0  0  0  0  0  0  0  0  0  0  0  0
  -10.6023   -3.6503  -21.2327 H   0  0  0  0  0  0  0  0  0  0  0  0
   -8.0204   -0.6118  -24.1686 H   0  0  0  0  0  0  0  0  0  0  0  0
   -9.3644   -1.5527  -24.8624 H   0  0  0  0  0  0  0  0  0  0  0  0
  -10.1363    2.2252  -24.7943 H   0  0  0  0  0  0  0  0  0  0  0  0
   -8.9126    1.2508  -25.6538 H   0  0  0  0  0  0  0  0  0  0  0  0
   -9.4880    2.6756  -22.3295 H   0  0  0  0  0  0  0  0  0  0  0  0
   -7.8998    4.1258  -21.2371 H   0  0  0  0  0  0  0  0  0  0  0  0
   -7.1125    2.4978  -21.2447 H   0  0  0  0  0  0  0  0  0  0  0  0
   -6.7210    3.7047  -22.4958 H   0  0  0  0  0  0  0  0  0  0  0  0
  1  2  1  0
  2  3  1  0
  3  4  2  0
  3  5  1  0
  5  6  1  0
  6  7  1  0
  8  7  1  6
  8  9  1  0
  9 10  2  0
  9 11  1  0
 11 12  1  0
 12 13  2  0
 13 14  1  0
 14 15  2  0
 15 16  1  0
 16 17  2  0
 17 18  1  0
 18 19  2  0
 19 20  1  0
 20 21  2  0
 20 22  1  0
 19 23  1  0
 18 24  1  0
 17 25  1  0
 15 26  1  0
 13 27  1  0
 11 28  1  0
 28 29  1  0
 29 30  1  0
 30 31  1  0
 31 32  1  0
 32 33  2  0
 33 34  1  0
 34 35  2  0
 35 36  1  0
 36 37  2  0
 36 38  1  0
 35 39  1  0
 33 40  1  0
 31 41  1  0
 30 42  1  0
 30 43  1  0
 29 44  1  1
 28 45  1  0
 28 46  1  0
  8 47  1  0
 47 48  2  0
 48 49  1  0
 49 50  1  0
 49 51  2  0
 51 52  1  0
 52 53  2  0
 53 54  1  0
 54 55  2  0
 52 56  1  0
 51 57  1  0
 48 58  1  0
  7 59  1  0
  7 60  1  0
  5 61  1  0
  5 62  1  0
  2 63  1  0
  1 64  1  0
  1 65  1  0
  1 66  1  0
 54  6  1  0
 29  8  1  0
 37 32  1  0
 53 47  1  0
 21 12  1  0
 21 16  1  0
M  END
>  <cnnaffinities>  (89) 
[6.31158]

>  <score>  (89) 
6.31158

>  <index>  (89) 
91

>  <Smiles>  (89) 
C(N(C(=O)C(N1C([C@@]2(C(=O)N(c3c(nc(c4c(c(c(c(c34)[H])[H])[H])[H])[H])[H])C([C@@]2(C(N(c2c(nc(c(n2)[H])[H])[H])[H])([H])[H])[H])([H])[H])c2c(c(Cl)c(c(c2C1=O)[H])[H])[H])([H])[H])([H])[H])[H])([H])([H])[H]

>  <h>  (89) 
<NA>

>  <Training>  (89) 
True

>  <Success>  (89) 
True

>  <enamine_searched>  (89) 
False

>  <enamine_id>  (89) 
nan

$$$$

     RDKit          3D

 60 65  0  0  0  0  0  0  0  0999 V2000
  -12.3784   -2.0564  -22.6515 C   0  0  0  0  0  0  0  0  0  0  0  0
  -11.3657   -2.1765  -21.6848 O   0  0  0  0  0  0  0  0  0  0  0  0
  -10.2385   -2.9140  -22.1037 C   0  0  0  0  0  0  0  0  0  0  0  0
   -9.1473   -1.9838  -22.6745 C   0  0  1  0  0  0  0  0  0  0  0  0
   -8.6903   -0.9913  -21.5808 C   0  0  0  0  0  0  0  0  0  0  0  0
   -7.3730   -1.4490  -21.2064 N   0  0  0  0  0  0  0  0  0  0  0  0
   -6.5878   -0.8460  -20.1954 C   0  0  0  0  0  0  0  0  0  0  0  0
   -6.9148   -1.0527  -18.8807 C   0  0  0  0  0  0  0  0  0  0  0  0
   -6.2266   -0.5510  -17.8287 N   0  0  0  0  0  0  0  0  0  0  0  0
   -5.1869    0.2027  -18.0983 C   0  0  0  0  0  0  0  0  0  0  0  0
   -4.7433    0.5076  -19.4166 C   0  0  0  0  0  0  0  0  0  0  0  0
   -3.6127    1.3356  -19.6416 C   0  0  0  0  0  0  0  0  0  0  0  0
   -3.2256    1.6496  -20.9137 C   0  0  0  0  0  0  0  0  0  0  0  0
   -3.9534    1.1487  -22.0195 C   0  0  0  0  0  0  0  0  0  0  0  0
   -5.0476    0.3408  -21.8327 C   0  0  0  0  0  0  0  0  0  0  0  0
   -5.4646   -0.0143  -20.5134 C   0  0  0  0  0  0  0  0  0  0  0  0
   -5.5955   -0.0340  -22.6987 H   0  0  0  0  0  0  0  0  0  0  0  0
   -3.6403    1.4148  -23.0236 H   0  0  0  0  0  0  0  0  0  0  0  0
   -2.3713    2.2983  -21.0823 H   0  0  0  0  0  0  0  0  0  0  0  0
   -3.0854    1.7317  -18.7773 H   0  0  0  0  0  0  0  0  0  0  0  0
   -4.6371    0.6105  -17.2505 H   0  0  0  0  0  0  0  0  0  0  0  0
   -7.7716   -1.6788  -18.6362 H   0  0  0  0  0  0  0  0  0  0  0  0
   -6.8428   -2.4046  -22.0368 C   0  0  0  0  0  0  0  0  0  0  0  0
   -5.7361   -2.8762  -21.8926 O   0  0  0  0  0  0  0  0  0  0  0  0
   -7.8502   -2.6955  -23.1704 C   0  0  1  0  0  0  0  0  0  0  0  0
   -8.0324   -4.2197  -23.3833 C   0  0  0  0  0  0  0  0  0  0  0  0
   -6.8456   -4.8551  -23.9332 N   0  0  0  0  0  0  0  0  0  0  0  0
   -6.3087   -6.0808  -23.3205 C   0  0  0  0  0  0  0  0  0  0  0  0
   -5.2116   -5.8894  -22.4019 C   0  0  0  0  0  0  0  0  0  0  0  0
   -3.8250   -6.1285  -22.7982 C   0  0  0  0  0  0  0  0  0  0  0  0
   -3.8421   -6.0973  -22.8196 N   0  0  0  0  0  0  0  0  0  0  0  0
   -4.8454   -5.7703  -20.0206 N   0  0  0  0  0  0  0  0  0  0  0  0
   -5.5683   -5.8457  -21.0749 C   0  0  0  0  0  0  0  0  0  0  0  0
   -6.6647   -5.8541  -20.9270 H   0  0  0  0  0  0  0  0  0  0  0  0
   -5.4528   -5.7138  -19.2148 H   0  0  0  0  0  0  0  0  0  0  0  0
   -3.9568   -5.9306  -23.9120 H   0  0  0  0  0  0  0  0  0  0  0  0
   -7.1573   -6.5680  -22.8230 H   0  0  0  0  0  0  0  0  0  0  0  0
   -5.8937   -6.7247  -24.0927 H   0  0  0  0  0  0  0  0  0  0  0  0
   -6.1826   -4.3140  -24.9968 C   0  0  0  0  0  0  0  0  0  0  0  0
   -5.3126   -4.9321  -25.6094 O   0  0  0  0  0  0  0  0  0  0  0  0
   -6.5320   -2.8906  -25.3343 C   0  0  0  0  0  0  0  0  0  0  0  0
   -5.9876   -2.3422  -26.4955 C   0  0  0  0  0  0  0  0  0  0  0  0
   -6.1794   -1.0089  -26.8071 C   0  0  0  0  0  0  0  0  0  0  0  0
   -6.9148   -0.2161  -25.9278 C   0  0  0  0  0  0  0  0  0  0  0  0
   -7.1359    1.4762  -26.2908 Cl  0  0  0  0  0  0  0  0  0  0  0  0
   -7.4649   -0.7444  -24.7706 C   0  0  0  0  0  0  0  0  0  0  0  0
   -7.3031   -2.1049  -24.4690 C   0  0  0  0  0  0  0  0  0  0  0  0
   -8.0088   -0.0694  -24.1156 H   0  0  0  0  0  0  0  0  0  0  0  0
   -5.7586   -0.5750  -27.7078 H   0  0  0  0  0  0  0  0  0  0  0  0
   -5.3996   -2.9932  -27.1336 H   0  0  0  0  0  0  0  0  0  0  0  0
   -8.2534   -4.6946  -22.4247 H   0  0  0  0  0  0  0  0  0  0  0  0
   -8.8810   -4.3667  -24.0699 H   0  0  0  0  0  0  0  0  0  0  0  0
   -8.6629    0.0495  -21.9302 H   0  0  0  0  0  0  0  0  0  0  0  0
   -9.3648   -1.0189  -20.7284 H   0  0  0  0  0  0  0  0  0  0  0  0
   -9.6206   -1.4548  -23.5099 H   0  0  0  0  0  0  0  0  0  0  0  0
  -10.5453   -3.6719  -22.8391 H   0  0  0  0  0  0  0  0  0  0  0  0
   -9.8570   -3.4365  -21.2172 H   0  0  0  0  0  0  0  0  0  0  0  0
  -12.8444   -3.0290  -22.8755 H   0  0  0  0  0  0  0  0  0  0  0  0
  -13.1360   -1.3881  -22.2340 H   0  0  0  0  0  0  0  0  0  0  0  0
  -12.0103   -1.6269  -23.5961 H   0  0  0  0  0  0  0  0  0  0  0  0
  1  2  1  0
  2  3  1  0
  3  4  1  0
  4  5  1  0
  5  6  1  0
  6  7  1  0
  7  8  2  0
  8  9  1  0
  9 10  2  0
 10 11  1  0
 11 12  2  0
 12 13  1  0
 13 14  2  0
 14 15  1  0
 15 16  2  0
 15 17  1  0
 14 18  1  0
 13 19  1  0
 12 20  1  0
 10 21  1  0
  8 22  1  0
  6 23  1  0
 23 24  2  0
 23 25  1  0
 25 26  1  6
 26 27  1  0
 27 28  1  0
 28 29  1  0
 29 30  1  0
 30 31  2  0
 31 32  1  0
 32 33  1  0
 33 34  1  0
 32 35  1  0
 30 36  1  0
 28 37  1  0
 28 38  1  0
 27 39  1  0
 39 40  2  0
 39 41  1  0
 41 42  2  0
 42 43  1  0
 43 44  2  0
 44 45  1  0
 44 46  1  0
 46 47  2  0
 46 48  1  0
 43 49  1  0
 42 50  1  0
 26 51  1  0
 26 52  1  0
  5 53  1  0
  5 54  1  0
  4 55  1  6
  3 56  1  0
  3 57  1  0
  1 58  1  0
  1 59  1  0
  1 60  1  0
 25  4  1  0
 33 29  2  0
 47 41  1  0
 16  7  1  0
 47 25  1  0
 16 11  1  0
M  END
>  <cnnaffinities>  (90) 
[6.08613]

>  <score>  (90) 
6.08613

>  <index>  (90) 
92

>  <Smiles>  (90) 
C(OC([C@]1(C(N(c2c(nc(c3c(c(c(c(c23)[H])[H])[H])[H])[H])[H])C(=O)[C@]21C(N(C(c1c(nn(c1[H])[H])[H])([H])[H])C(=O)c1c(c(c(Cl)c(c21)[H])[H])[H])([H])[H])([H])[H])[H])([H])[H])([H])([H])[H]

>  <h>  (90) 
<NA>

>  <Training>  (90) 
True

>  <Success>  (90) 
True

>  <enamine_searched>  (90) 
False

>  <enamine_id>  (90) 
nan

$$$$

     RDKit          3D

 62 67  0  0  0  0  0  0  0  0999 V2000
  -11.3174    4.3021  -25.2310 C   0  0  0  0  0  0  0  0  0  0  0  0
   -9.8233    4.1725  -25.5282 C   0  0  0  0  0  0  0  0  0  0  0  0
   -9.0688    3.5893  -24.4254 N   0  0  0  0  0  0  0  0  0  0  0  0
   -8.4878    4.4118  -23.5385 N   0  0  0  0  0  0  0  0  0  0  0  0
   -7.9032    3.6198  -22.6501 C   0  0  0  0  0  0  0  0  0  0  0  0
   -8.1109    2.2647  -22.9707 C   0  0  0  0  0  0  0  0  0  0  0  0
   -8.8898    2.2762  -24.1054 C   0  0  0  0  0  0  0  0  0  0  0  0
   -9.3907    1.1028  -24.9059 C   0  0  0  0  0  0  0  0  0  0  0  0
   -9.8539    0.0008  -24.0806 N   0  0  0  0  0  0  0  0  0  0  0  0
   -9.0391   -1.1949  -23.9797 C   0  0  0  0  0  0  0  0  0  0  0  0
   -9.2210   -1.9102  -22.6153 C   0  0  2  0  0  0  0  0  0  0  0  0
   -8.6612   -1.0285  -21.4705 C   0  0  0  0  0  0  0  0  0  0  0  0
   -9.2304   -0.1069  -20.9100 O   0  0  0  0  0  0  0  0  0  0  0  0
   -7.3767   -1.4334  -21.1950 N   0  0  0  0  0  0  0  0  0  0  0  0
   -6.6004   -0.8244  -20.1711 C   0  0  0  0  0  0  0  0  0  0  0  0
   -6.9071   -1.0508  -18.8531 C   0  0  0  0  0  0  0  0  0  0  0  0
   -6.1970   -0.5573  -17.8106 N   0  0  0  0  0  0  0  0  0  0  0  0
   -5.1666    0.2034  -18.0823 C   0  0  0  0  0  0  0  0  0  0  0  0
   -4.7320    0.5226  -19.3996 C   0  0  0  0  0  0  0  0  0  0  0  0
   -3.6056    1.3550  -19.6433 C   0  0  0  0  0  0  0  0  0  0  0  0
   -3.2266    1.6566  -20.9196 C   0  0  0  0  0  0  0  0  0  0  0  0
   -3.9559    1.1359  -22.0135 C   0  0  0  0  0  0  0  0  0  0  0  0
   -5.0489    0.3264  -21.8032 C   0  0  0  0  0  0  0  0  0  0  0  0
   -5.4665   -0.0055  -20.4879 C   0  0  0  0  0  0  0  0  0  0  0  0
   -5.6038   -0.0609  -22.6531 H   0  0  0  0  0  0  0  0  0  0  0  0
   -3.6563    1.3895  -23.0254 H   0  0  0  0  0  0  0  0  0  0  0  0
   -2.3772    2.3114  -21.1007 H   0  0  0  0  0  0  0  0  0  0  0  0
   -3.0747    1.7647  -18.7861 H   0  0  0  0  0  0  0  0  0  0  0  0
   -4.6199    0.6150  -17.2317 H   0  0  0  0  0  0  0  0  0  0  0  0
   -7.7573   -1.6748  -18.5870 H   0  0  0  0  0  0  0  0  0  0  0  0
   -6.9631   -2.6144  -21.9355 C   0  0  0  0  0  0  0  0  0  0  0  0
   -8.2905   -3.1593  -22.5102 C   0  0  2  0  0  0  0  0  0  0  0  0
   -8.0947   -3.9864  -23.7847 C   0  0  0  0  0  0  0  0  0  0  0  0
   -7.5548   -3.4108  -24.5486 H   0  0  0  0  0  0  0  0  0  0  0  0
   -7.5060   -4.8899  -23.5815 H   0  0  0  0  0  0  0  0  0  0  0  0
   -9.0514   -4.2989  -24.2210 H   0  0  0  0  0  0  0  0  0  0  0  0
   -8.7274   -3.7977  -21.7358 H   0  0  0  0  0  0  0  0  0  0  0  0
   -6.4631   -3.3260  -21.2691 H   0  0  0  0  0  0  0  0  0  0  0  0
   -6.2545   -2.3618  -22.7399 H   0  0  0  0  0  0  0  0  0  0  0  0
  -10.7061   -2.1426  -22.4236 C   0  0  0  0  0  0  0  0  0  0  0  0
  -11.2046   -3.2324  -21.7017 C   0  0  0  0  0  0  0  0  0  0  0  0
  -12.5615   -3.3299  -21.4810 C   0  0  0  0  0  0  0  0  0  0  0  0
  -13.0398   -4.3501  -20.7486 F   0  0  0  0  0  0  0  0  0  0  0  0
  -13.4693   -2.4008  -21.9680 C   0  0  0  0  0  0  0  0  0  0  0  0
  -12.9818   -1.2992  -22.6403 C   0  0  0  0  0  0  0  0  0  0  0  0
  -11.6139   -1.1687  -22.8748 C   0  0  0  0  0  0  0  0  0  0  0  0
  -11.1449    0.0378  -23.6394 C   0  0  0  0  0  0  0  0  0  0  0  0
  -11.8825    0.9891  -23.8705 O   0  0  0  0  0  0  0  0  0  0  0  0
  -13.6348   -0.5137  -23.0044 H   0  0  0  0  0  0  0  0  0  0  0  0
  -14.5224   -2.5986  -21.8193 H   0  0  0  0  0  0  0  0  0  0  0  0
  -10.5741   -3.9965  -21.2599 H   0  0  0  0  0  0  0  0  0  0  0  0
   -9.2989   -1.9076  -24.7810 H   0  0  0  0  0  0  0  0  0  0  0  0
   -7.9935   -0.8952  -24.0898 H   0  0  0  0  0  0  0  0  0  0  0  0
  -10.2074    1.4057  -25.5699 H   0  0  0  0  0  0  0  0  0  0  0  0
   -8.5753    0.7038  -25.5192 H   0  0  0  0  0  0  0  0  0  0  0  0
   -7.7797    1.3712  -22.4618 H   0  0  0  0  0  0  0  0  0  0  0  0
   -7.3657    4.0665  -21.8189 H   0  0  0  0  0  0  0  0  0  0  0  0
   -9.3670    5.1533  -25.7068 H   0  0  0  0  0  0  0  0  0  0  0  0
   -9.6495    3.5502  -26.4158 H   0  0  0  0  0  0  0  0  0  0  0  0
  -11.7707    3.3207  -25.0412 H   0  0  0  0  0  0  0  0  0  0  0  0
  -11.4844    4.9448  -24.3586 H   0  0  0  0  0  0  0  0  0  0  0  0
  -11.8196    4.7597  -26.0904 H   0  0  0  0  0  0  0  0  0  0  0  0
  1  2  1  0
  2  3  1  0
  3  4  1  0
  4  5  2  0
  5  6  1  0
  6  7  2  0
  7  8  1  0
  8  9  1  0
  9 10  1  0
 11 10  1  6
 11 12  1  0
 12 13  2  0
 12 14  1  0
 14 15  1  0
 15 16  2  0
 16 17  1  0
 17 18  2  0
 18 19  1  0
 19 20  2  0
 20 21  1  0
 21 22  2  0
 22 23  1  0
 23 24  2  0
 23 25  1  0
 22 26  1  0
 21 27  1  0
 20 28  1  0
 18 29  1  0
 16 30  1  0
 14 31  1  0
 31 32  1  0
 32 33  1  0
 33 34  1  0
 33 35  1  0
 33 36  1  0
 32 37  1  1
 31 38  1  0
 31 39  1  0
 11 40  1  0
 40 41  2  0
 41 42  1  0
 42 43  1  0
 42 44  2  0
 44 45  1  0
 45 46  2  0
 46 47  1  0
 47 48  2  0
 45 49  1  0
 44 50  1  0
 41 51  1  0
 10 52  1  0
 10 53  1  0
  8 54  1  0
  8 55  1  0
  6 56  1  0
  5 57  1  0
  2 58  1  0
  2 59  1  0
  1 60  1  0
  1 61  1  0
  1 62  1  0
  7  3  1  0
 47  9  1  0
 32 11  1  0
 46 40  1  0
 24 15  1  0
 24 19  1  0
M  END
>  <cnnaffinities>  (91) 
[6.74469]

>  <score>  (91) 
6.74469

>  <index>  (91) 
93

>  <Smiles>  (91) 
C(C(n1nc(c(c1C(N1C([C@@]2(C(=O)N(c3c(nc(c4c(c(c(c(c34)[H])[H])[H])[H])[H])[H])C([C@@]2(C([H])([H])[H])[H])([H])[H])c2c(c(F)c(c(c2C1=O)[H])[H])[H])([H])[H])([H])[H])[H])[H])([H])[H])([H])([H])[H]

>  <h>  (91) 
<NA>

>  <Training>  (91) 
True

>  <Success>  (91) 
True

>  <enamine_searched>  (91) 
False

>  <enamine_id>  (91) 
nan

$$$$

     RDKit          3D

 66 71  0  0  0  0  0  0  0  0999 V2000
   -7.4419    3.3639  -21.8196 C   0  0  0  0  0  0  0  0  0  0  0  0
   -8.3372    2.8711  -22.8549 N   0  0  0  0  0  0  0  0  0  0  0  0
   -7.7810    2.1660  -23.8819 C   0  0  0  0  0  0  0  0  0  0  0  0
   -6.5741    2.0337  -24.0196 O   0  0  0  0  0  0  0  0  0  0  0  0
   -8.7680    1.5548  -24.8771 C   0  0  0  0  0  0  0  0  0  0  0  0
   -9.4411    0.4037  -24.3158 N   0  0  0  0  0  0  0  0  0  0  0  0
   -8.6989   -0.8359  -24.1672 C   0  0  0  0  0  0  0  0  0  0  0  0
   -9.0738   -1.5704  -22.8560 C   0  0  2  0  0  0  0  0  0  0  0  0
   -8.5531   -0.7746  -21.6369 C   0  0  0  0  0  0  0  0  0  0  0  0
   -9.0510    0.2105  -21.1351 O   0  0  0  0  0  0  0  0  0  0  0  0
   -7.3980   -1.3766  -21.2014 N   0  0  0  0  0  0  0  0  0  0  0  0
   -6.6065   -0.8070  -20.1807 C   0  0  0  0  0  0  0  0  0  0  0  0
   -6.9220   -1.0457  -18.8698 C   0  0  0  0  0  0  0  0  0  0  0  0
   -6.2209   -0.5646  -17.8168 N   0  0  0  0  0  0  0  0  0  0  0  0
   -5.1829    0.1936  -18.0808 C   0  0  0  0  0  0  0  0  0  0  0  0
   -4.7415    0.5162  -19.3968 C   0  0  0  0  0  0  0  0  0  0  0  0
   -3.6118    1.3419  -19.6409 C   0  0  0  0  0  0  0  0  0  0  0  0
   -3.2322    1.6457  -20.9184 C   0  0  0  0  0  0  0  0  0  0  0  0
   -3.9602    1.1430  -22.0198 C   0  0  0  0  0  0  0  0  0  0  0  0
   -5.0568    0.3401  -21.8134 C   0  0  0  0  0  0  0  0  0  0  0  0
   -5.4725    0.0019  -20.4952 C   0  0  0  0  0  0  0  0  0  0  0  0
   -5.6225   -0.0172  -22.6700 H   0  0  0  0  0  0  0  0  0  0  0  0
   -3.6615    1.3965  -23.0321 H   0  0  0  0  0  0  0  0  0  0  0  0
   -2.3733    2.2855  -21.0929 H   0  0  0  0  0  0  0  0  0  0  0  0
   -3.0762    1.7417  -18.7832 H   0  0  0  0  0  0  0  0  0  0  0  0
   -4.6236    0.5923  -17.2328 H   0  0  0  0  0  0  0  0  0  0  0  0
   -7.7877   -1.6611  -18.6360 H   0  0  0  0  0  0  0  0  0  0  0  0
   -7.0233   -2.5645  -21.9294 C   0  0  0  0  0  0  0  0  0  0  0  0
   -8.3062   -2.9187  -22.7023 C   0  0  2  0  0  0  0  0  0  0  0  0
   -8.0235   -3.7230  -23.9871 C   0  0  0  0  0  0  0  0  0  0  0  0
   -7.4993   -5.0511  -23.7539 N   0  0  0  0  0  0  0  0  0  0  0  0
   -6.2006   -5.3687  -23.5201 C   0  0  0  0  0  0  0  0  0  0  0  0
   -5.1042   -4.5928  -23.9348 C   0  0  0  0  0  0  0  0  0  0  0  0
   -3.8544   -5.0617  -23.5832 C   0  0  0  0  0  0  0  0  0  0  0  0
   -3.6458   -6.1817  -22.8803 N   0  0  0  0  0  0  0  0  0  0  0  0
   -4.7531   -6.8503  -22.5761 C   0  0  0  0  0  0  0  0  0  0  0  0
   -6.0044   -6.5296  -22.8713 N   0  0  0  0  0  0  0  0  0  0  0  0
   -4.6339   -7.7765  -22.0082 H   0  0  0  0  0  0  0  0  0  0  0  0
   -2.9576   -4.5133  -23.8682 H   0  0  0  0  0  0  0  0  0  0  0  0
   -5.2245   -3.6782  -24.5055 H   0  0  0  0  0  0  0  0  0  0  0  0
   -8.1313   -5.7770  -23.4543 H   0  0  0  0  0  0  0  0  0  0  0  0
   -7.3029   -3.1800  -24.6049 H   0  0  0  0  0  0  0  0  0  0  0  0
   -8.9343   -3.8269  -24.5880 H   0  0  0  0  0  0  0  0  0  0  0  0
   -8.9109   -3.5546  -22.0521 H   0  0  0  0  0  0  0  0  0  0  0  0
   -6.1765   -2.3656  -22.6073 H   0  0  0  0  0  0  0  0  0  0  0  0
   -6.7146   -3.3495  -21.2331 H   0  0  0  0  0  0  0  0  0  0  0  0
  -10.5836   -1.6509  -22.7846 C   0  0  0  0  0  0  0  0  0  0  0  0
  -11.2079   -2.5800  -21.9511 C   0  0  0  0  0  0  0  0  0  0  0  0
  -12.5862   -2.6103  -21.8609 C   0  0  0  0  0  0  0  0  0  0  0  0
  -13.3230   -3.7576  -20.7835 Cl  0  0  0  0  0  0  0  0  0  0  0  0
  -13.3948   -1.7326  -22.5839 C   0  0  0  0  0  0  0  0  0  0  0  0
  -12.7817   -0.7737  -23.3620 C   0  0  0  0  0  0  0  0  0  0  0  0
  -11.3933   -0.7074  -23.4302 C   0  0  0  0  0  0  0  0  0  0  0  0
  -10.7943    0.4552  -24.1480 C   0  0  0  0  0  0  0  0  0  0  0  0
  -11.4695    1.4035  -24.5279 O   0  0  0  0  0  0  0  0  0  0  0  0
  -13.3514   -0.0379  -23.9180 H   0  0  0  0  0  0  0  0  0  0  0  0
  -14.4747   -1.7933  -22.5051 H   0  0  0  0  0  0  0  0  0  0  0  0
  -10.6334   -3.2743  -21.3482 H   0  0  0  0  0  0  0  0  0  0  0  0
   -7.6277   -0.6018  -24.1908 H   0  0  0  0  0  0  0  0  0  0  0  0
   -8.9228   -1.5001  -25.0123 H   0  0  0  0  0  0  0  0  0  0  0  0
   -9.5481    2.2751  -25.1456 H   0  0  0  0  0  0  0  0  0  0  0  0
   -8.2017    1.2710  -25.7700 H   0  0  0  0  0  0  0  0  0  0  0  0
   -9.2971    2.6712  -22.5849 H   0  0  0  0  0  0  0  0  0  0  0  0
   -6.9610    2.5311  -21.2755 H   0  0  0  0  0  0  0  0  0  0  0  0
   -7.9853    4.0166  -21.1310 H   0  0  0  0  0  0  0  0  0  0  0  0
   -6.6533    3.9569  -22.2916 H   0  0  0  0  0  0  0  0  0  0  0  0
  1  2  1  0
  2  3  1  0
  3  4  2  0
  3  5  1  0
  5  6  1  0
  6  7  1  0
  8  7  1  6
  8  9  1  0
  9 10  2  0
  9 11  1  0
 11 12  1  0
 12 13  2  0
 13 14  1  0
 14 15  2  0
 15 16  1  0
 16 17  2  0
 17 18  1  0
 18 19  2  0
 19 20  1  0
 20 21  2  0
 20 22  1  0
 19 23  1  0
 18 24  1  0
 17 25  1  0
 15 26  1  0
 13 27  1  0
 11 28  1  0
 28 29  1  0
 29 30  1  0
 30 31  1  0
 31 32  1  0
 32 33  2  0
 33 34  1  0
 34 35  2  0
 35 36  1  0
 36 37  2  0
 36 38  1  0
 34 39  1  0
 33 40  1  0
 31 41  1  0
 30 42  1  0
 30 43  1  0
 29 44  1  1
 28 45  1  0
 28 46  1  0
  8 47  1  0
 47 48  2  0
 48 49  1  0
 49 50  1  0
 49 51  2  0
 51 52  1  0
 52 53  2  0
 53 54  1  0
 54 55  2  0
 52 56  1  0
 51 57  1  0
 48 58  1  0
  7 59  1  0
  7 60  1  0
  5 61  1  0
  5 62  1  0
  2 63  1  0
  1 64  1  0
  1 65  1  0
  1 66  1  0
 54  6  1  0
 29  8  1  0
 37 32  1  0
 53 47  1  0
 21 12  1  0
 21 16  1  0
M  END
>  <cnnaffinities>  (92) 
[6.83274, 6.80991, 5.80802]

>  <score>  (92) 
6.83274

>  <index>  (92) 
95

>  <Smiles>  (92) 
C(N(C(=O)C(N1C([C@@]2(C(=O)N(c3c(nc(c4c(c(c(c(c34)[H])[H])[H])[H])[H])[H])C([C@@]2(C(N(c2c(c(nc(n2)[H])[H])[H])[H])([H])[H])[H])([H])[H])c2c(c(Cl)c(c(c2C1=O)[H])[H])[H])([H])[H])([H])[H])[H])([H])([H])[H]

>  <h>  (92) 
<NA>

>  <Training>  (92) 
True

>  <Success>  (92) 
True

>  <enamine_searched>  (92) 
False

>  <enamine_id>  (92) 
nan

$$$$

     RDKit          3D

 66 70  0  0  0  0  0  0  0  0999 V2000
   -7.5211    3.2612  -21.8149 C   0  0  0  0  0  0  0  0  0  0  0  0
   -8.5139    2.7775  -22.7641 N   0  0  0  0  0  0  0  0  0  0  0  0
   -8.0394    2.0584  -23.8263 C   0  0  0  0  0  0  0  0  0  0  0  0
   -6.8459    1.9108  -24.0314 O   0  0  0  0  0  0  0  0  0  0  0  0
   -9.0737    1.4541  -24.7657 C   0  0  0  0  0  0  0  0  0  0  0  0
   -9.6510    0.2506  -24.2187 N   0  0  0  0  0  0  0  0  0  0  0  0
   -8.8182   -0.9297  -24.1038 C   0  0  0  0  0  0  0  0  0  0  0  0
   -9.0925   -1.7019  -22.7933 C   0  0  2  0  0  0  0  0  0  0  0  0
   -8.5768   -0.8947  -21.5839 C   0  0  0  0  0  0  0  0  0  0  0  0
   -9.1205    0.0545  -21.0496 O   0  0  0  0  0  0  0  0  0  0  0  0
   -7.3688   -1.4230  -21.2004 N   0  0  0  0  0  0  0  0  0  0  0  0
   -6.5941   -0.8286  -20.1790 C   0  0  0  0  0  0  0  0  0  0  0  0
   -6.9189   -1.0548  -18.8656 C   0  0  0  0  0  0  0  0  0  0  0  0
   -6.2219   -0.5626  -17.8160 N   0  0  0  0  0  0  0  0  0  0  0  0
   -5.1841    0.1967  -18.0816 C   0  0  0  0  0  0  0  0  0  0  0  0
   -4.7404    0.5109  -19.3989 C   0  0  0  0  0  0  0  0  0  0  0  0
   -3.6158    1.3435  -19.6397 C   0  0  0  0  0  0  0  0  0  0  0  0
   -3.2342    1.6486  -20.9187 C   0  0  0  0  0  0  0  0  0  0  0  0
   -3.9570    1.1362  -22.0182 C   0  0  0  0  0  0  0  0  0  0  0  0
   -5.0530    0.3303  -21.8154 C   0  0  0  0  0  0  0  0  0  0  0  0
   -5.4655   -0.0109  -20.4952 C   0  0  0  0  0  0  0  0  0  0  0  0
   -5.6189   -0.0219  -22.6736 H   0  0  0  0  0  0  0  0  0  0  0  0
   -3.6547    1.3891  -23.0313 H   0  0  0  0  0  0  0  0  0  0  0  0
   -2.3804    2.2966  -21.0943 H   0  0  0  0  0  0  0  0  0  0  0  0
   -3.0836    1.7466  -18.7835 H   0  0  0  0  0  0  0  0  0  0  0  0
   -4.6263    0.6002  -17.2358 H   0  0  0  0  0  0  0  0  0  0  0  0
   -7.7850   -1.6689  -18.6244 H   0  0  0  0  0  0  0  0  0  0  0  0
   -6.9587   -2.5957  -21.9468 C   0  0  0  0  0  0  0  0  0  0  0  0
   -8.2326   -2.9984  -22.7136 C   0  0  2  0  0  0  0  0  0  0  0  0
   -7.9317   -3.6890  -24.0424 C   0  0  0  0  0  0  0  0  0  0  0  0
   -7.2258   -4.8891  -23.7971 O   0  0  0  0  0  0  0  0  0  0  0  0
   -7.0482   -5.6994  -24.9560 C   0  0  0  0  0  0  0  0  0  0  0  0
   -5.6729   -6.3478  -24.8783 C   0  0  0  0  0  0  0  0  0  0  0  0
   -5.4879   -6.9638  -25.7657 H   0  0  0  0  0  0  0  0  0  0  0  0
   -4.8812   -5.5957  -24.8185 H   0  0  0  0  0  0  0  0  0  0  0  0
   -5.6027   -6.9921  -23.9969 H   0  0  0  0  0  0  0  0  0  0  0  0
   -8.1522   -6.7489  -25.0476 C   0  0  0  0  0  0  0  0  0  0  0  0
   -8.1301   -7.4030  -24.1701 H   0  0  0  0  0  0  0  0  0  0  0  0
   -9.1448   -6.2909  -25.1074 H   0  0  0  0  0  0  0  0  0  0  0  0
   -8.0145   -7.3662  -25.9419 H   0  0  0  0  0  0  0  0  0  0  0  0
   -7.0839   -5.0630  -25.8563 H   0  0  0  0  0  0  0  0  0  0  0  0
   -8.8740   -3.8861  -24.5839 H   0  0  0  0  0  0  0  0  0  0  0  0
   -7.3167   -3.0221  -24.6729 H   0  0  0  0  0  0  0  0  0  0  0  0
   -8.7746   -3.7204  -22.1030 H   0  0  0  0  0  0  0  0  0  0  0  0
   -6.1345   -2.3589  -22.6346 H   0  0  0  0  0  0  0  0  0  0  0  0
   -6.6182   -3.3819  -21.2666 H   0  0  0  0  0  0  0  0  0  0  0  0
  -10.5911   -1.8920  -22.6805 C   0  0  0  0  0  0  0  0  0  0  0  0
  -11.1232   -2.8788  -21.8468 C   0  0  0  0  0  0  0  0  0  0  0  0
  -12.4950   -3.0016  -21.7141 C   0  0  0  0  0  0  0  0  0  0  0  0
  -13.1265   -4.2031  -20.6236 Cl  0  0  0  0  0  0  0  0  0  0  0  0
  -13.3820   -2.1755  -22.4067 C   0  0  0  0  0  0  0  0  0  0  0  0
  -12.8639   -1.1668  -23.1926 C   0  0  0  0  0  0  0  0  0  0  0  0
  -11.4850   -1.0051  -23.2953 C   0  0  0  0  0  0  0  0  0  0  0  0
  -10.9989    0.2062  -24.0158 C   0  0  0  0  0  0  0  0  0  0  0  0
  -11.7535    1.1032  -24.3672 O   0  0  0  0  0  0  0  0  0  0  0  0
  -13.4963   -0.4632  -23.7250 H   0  0  0  0  0  0  0  0  0  0  0  0
  -14.4505   -2.3201  -22.2944 H   0  0  0  0  0  0  0  0  0  0  0  0
  -10.4770   -3.5403  -21.2790 H   0  0  0  0  0  0  0  0  0  0  0  0
   -9.0227   -1.6004  -24.9468 H   0  0  0  0  0  0  0  0  0  0  0  0
   -7.7710   -0.6147  -24.1557 H   0  0  0  0  0  0  0  0  0  0  0  0
   -8.5423    1.2382  -25.6969 H   0  0  0  0  0  0  0  0  0  0  0  0
   -9.9053    2.1387  -24.9440 H   0  0  0  0  0  0  0  0  0  0  0  0
   -9.4448    2.5961  -22.4054 H   0  0  0  0  0  0  0  0  0  0  0  0
   -6.7242    3.7482  -22.3840 H   0  0  0  0  0  0  0  0  0  0  0  0
   -7.9510    3.9787  -21.1101 H   0  0  0  0  0  0  0  0  0  0  0  0
   -7.0645    2.4295  -21.2563 H   0  0  0  0  0  0  0  0  0  0  0  0
  1  2  1  0
  2  3  1  0
  3  4  2  0
  3  5  1  0
  5  6  1  0
  6  7  1  0
  8  7  1  6
  8  9  1  0
  9 10  2  0
  9 11  1  0
 11 12  1  0
 12 13  2  0
 13 14  1  0
 14 15  2  0
 15 16  1  0
 16 17  2  0
 17 18  1  0
 18 19  2  0
 19 20  1  0
 20 21  2  0
 20 22  1  0
 19 23  1  0
 18 24  1  0
 17 25  1  0
 15 26  1  0
 13 27  1  0
 11 28  1  0
 28 29  1  0
 29 30  1  0
 30 31  1  0
 31 32  1  0
 32 33  1  0
 33 34  1  0
 33 35  1  0
 33 36  1  0
 32 37  1  0
 37 38  1  0
 37 39  1  0
 37 40  1  0
 32 41  1  0
 30 42  1  0
 30 43  1  0
 29 44  1  1
 28 45  1  0
 28 46  1  0
  8 47  1  0
 47 48  2  0
 48 49  1  0
 49 50  1  0
 49 51  2  0
 51 52  1  0
 52 53  2  0
 53 54  1  0
 54 55  2  0
 52 56  1  0
 51 57  1  0
 48 58  1  0
  7 59  1  0
  7 60  1  0
  5 61  1  0
  5 62  1  0
  2 63  1  0
  1 64  1  0
  1 65  1  0
  1 66  1  0
 54  6  1  0
 29  8  1  0
 53 47  1  0
 21 12  1  0
 21 16  1  0
M  END
>  <cnnaffinities>  (93) 
[6.40077, 6.17366]

>  <score>  (93) 
6.40077

>  <index>  (93) 
96

>  <Smiles>  (93) 
C(N(C(=O)C(N1C([C@@]2(C(=O)N(c3c(nc(c4c(c(c(c(c34)[H])[H])[H])[H])[H])[H])C([C@@]2(C(OC(C([H])([H])[H])(C([H])([H])[H])[H])([H])[H])[H])([H])[H])c2c(c(Cl)c(c(c2C1=O)[H])[H])[H])([H])[H])([H])[H])[H])([H])([H])[H]

>  <h>  (93) 
<NA>

>  <Training>  (93) 
True

>  <Success>  (93) 
True

>  <enamine_searched>  (93) 
False

>  <enamine_id>  (93) 
nan

$$$$

     RDKit          3D

 40 43  0  0  0  0  0  0  0  0999 V2000
  -12.5574   -1.4493  -23.7774 C   0  0  0  0  0  0  0  0  0  0  0  0
  -11.1651   -0.8778  -23.5451 C   0  0  2  0  0  0  0  0  0  0  0  0
  -10.7052   -0.0523  -24.7410 C   0  0  0  0  0  0  0  0  0  0  0  0
   -9.4102    0.4707  -24.5583 O   0  0  0  0  0  0  0  0  0  0  0  0
   -8.4560   -0.5556  -24.4624 C   0  0  0  0  0  0  0  0  0  0  0  0
   -8.7013   -1.4529  -23.2355 C   0  0  1  0  0  0  0  0  0  0  0  0
  -10.1452   -1.9773  -23.2676 C   0  0  0  0  0  0  0  0  0  0  0  0
  -10.3614   -2.4733  -22.3161 H   0  0  0  0  0  0  0  0  0  0  0  0
  -10.2156   -2.7529  -24.0450 H   0  0  0  0  0  0  0  0  0  0  0  0
   -7.7349   -2.5213  -23.1555 N   0  0  0  0  0  0  0  0  0  0  0  0
   -6.9430   -2.5245  -22.0376 C   0  0  0  0  0  0  0  0  0  0  0  0
   -6.0460   -3.2832  -21.7538 O   0  0  0  0  0  0  0  0  0  0  0  0
   -7.3761   -1.4191  -21.2652 N   0  0  0  0  0  0  0  0  0  0  0  0
   -6.5896   -0.8418  -20.2074 C   0  0  0  0  0  0  0  0  0  0  0  0
   -6.8937   -1.0549  -18.8849 C   0  0  0  0  0  0  0  0  0  0  0  0
   -6.1948   -0.5499  -17.8294 N   0  0  0  0  0  0  0  0  0  0  0  0
   -5.1604    0.2200  -18.0711 C   0  0  0  0  0  0  0  0  0  0  0  0
   -4.7238    0.5309  -19.3912 C   0  0  0  0  0  0  0  0  0  0  0  0
   -3.5931    1.3614  -19.6302 C   0  0  0  0  0  0  0  0  0  0  0  0
   -3.2089    1.6487  -20.9138 C   0  0  0  0  0  0  0  0  0  0  0  0
   -3.9293    1.1169  -22.0041 C   0  0  0  0  0  0  0  0  0  0  0  0
   -5.0208    0.3122  -21.7948 C   0  0  0  0  0  0  0  0  0  0  0  0
   -5.4523   -0.0058  -20.4803 C   0  0  0  0  0  0  0  0  0  0  0  0
   -5.5705   -0.0913  -22.6376 H   0  0  0  0  0  0  0  0  0  0  0  0
   -3.6211    1.3480  -23.0183 H   0  0  0  0  0  0  0  0  0  0  0  0
   -2.3532    2.2892  -21.1038 H   0  0  0  0  0  0  0  0  0  0  0  0
   -3.0509    1.7783  -18.7841 H   0  0  0  0  0  0  0  0  0  0  0  0
   -4.6034    0.6269  -17.2190 H   0  0  0  0  0  0  0  0  0  0  0  0
   -7.7413   -1.6762  -18.6096 H   0  0  0  0  0  0  0  0  0  0  0  0
   -8.3873   -0.7058  -21.9375 C   0  0  0  0  0  0  0  0  0  0  0  0
   -8.8822    0.3161  -21.5380 O   0  0  0  0  0  0  0  0  0  0  0  0
   -7.6174   -3.2116  -23.8771 H   0  0  0  0  0  0  0  0  0  0  0  0
   -7.4706   -0.0872  -24.3804 H   0  0  0  0  0  0  0  0  0  0  0  0
   -8.4655   -1.1640  -25.3825 H   0  0  0  0  0  0  0  0  0  0  0  0
  -10.7239   -0.6590  -25.6633 H   0  0  0  0  0  0  0  0  0  0  0  0
  -11.3679    0.8049  -24.8894 H   0  0  0  0  0  0  0  0  0  0  0  0
  -11.1941   -0.2081  -22.6802 H   0  0  0  0  0  0  0  0  0  0  0  0
  -12.8898   -2.0305  -22.9120 H   0  0  0  0  0  0  0  0  0  0  0  0
  -13.2886   -0.6525  -23.9470 H   0  0  0  0  0  0  0  0  0  0  0  0
  -12.5720   -2.1103  -24.6513 H   0  0  0  0  0  0  0  0  0  0  0  0
  1  2  1  0
  2  3  1  0
  3  4  1  0
  4  5  1  0
  5  6  1  0
  6  7  1  0
  7  8  1  0
  7  9  1  0
  6 10  1  6
 10 11  1  0
 11 12  2  0
 11 13  1  0
 13 14  1  0
 14 15  2  0
 15 16  1  0
 16 17  2  0
 17 18  1  0
 18 19  2  0
 19 20  1  0
 20 21  2  0
 21 22  1  0
 22 23  2  0
 22 24  1  0
 21 25  1  0
 20 26  1  0
 19 27  1  0
 17 28  1  0
 15 29  1  0
 13 30  1  0
 30 31  2  0
 10 32  1  0
  5 33  1  0
  5 34  1  0
  3 35  1  0
  3 36  1  0
  2 37  1  1
  1 38  1  0
  1 39  1  0
  1 40  1  0
  7  2  1  0
 23 14  1  0
 30  6  1  0
 23 18  1  0
M  END
>  <cnnaffinities>  (94) 
[5.18415, 5.22949]

>  <score>  (94) 
5.18415

>  <index>  (94) 
97

>  <Smiles>  (94) 
C([C@@]1(C(OC([C@@]2(C1([H])[H])N(C(=O)N(c1c(nc(c3c(c(c(c(c13)[H])[H])[H])[H])[H])[H])C2=O)[H])([H])[H])([H])[H])[H])([H])([H])[H]

>  <h>  (94) 
<NA>

>  <Training>  (94) 
True

>  <Success>  (94) 
True

>  <enamine_searched>  (94) 
False

>  <enamine_id>  (94) 
nan

$$$$
