
     RDKit          3D

 66 71  0  0  0  0  0  0  0  0999 V2000
   -7.2989    3.3465  -21.8143 C   0  0  0  0  0  0  0  0  0  0  0  0
   -8.1790    2.9167  -22.8892 N   0  0  0  0  0  0  0  0  0  0  0  0
   -7.6362    2.2353  -23.9346 C   0  0  0  0  0  0  0  0  0  0  0  0
   -6.4299    2.0749  -24.0547 O   0  0  0  0  0  0  0  0  0  0  0  0
   -8.6232    1.6520  -24.9517 C   0  0  0  0  0  0  0  0  0  0  0  0
   -9.3130    0.4993  -24.4015 N   0  0  0  0  0  0  0  0  0  0  0  0
   -8.5567   -0.7385  -24.2456 C   0  0  0  0  0  0  0  0  0  0  0  0
   -8.9865   -1.5149  -22.9728 C   0  0  2  0  0  0  0  0  0  0  0  0
   -8.4680   -0.7845  -21.7130 C   0  0  0  0  0  0  0  0  0  0  0  0
   -8.8904    0.2442  -21.2212 O   0  0  0  0  0  0  0  0  0  0  0  0
   -7.4004   -1.4943  -21.2159 N   0  0  0  0  0  0  0  0  0  0  0  0
   -6.5543   -0.9713  -20.2182 C   0  0  0  0  0  0  0  0  0  0  0  0
   -6.8559   -1.1322  -18.8960 C   0  0  0  0  0  0  0  0  0  0  0  0
   -5.9984   -0.8551  -17.8850 N   0  0  0  0  0  0  0  0  0  0  0  0
   -4.8257   -0.3668  -18.2164 C   0  0  0  0  0  0  0  0  0  0  0  0
   -4.4419   -0.0400  -19.5480 C   0  0  0  0  0  0  0  0  0  0  0  0
   -3.2647    0.7041  -19.8296 C   0  0  0  0  0  0  0  0  0  0  0  0
   -3.1607    1.3970  -21.0008 C   0  0  0  0  0  0  0  0  0  0  0  0
   -4.0875    1.1629  -22.0506 C   0  0  0  0  0  0  0  0  0  0  0  0
   -5.1205    0.2795  -21.8629 C   0  0  0  0  0  0  0  0  0  0  0  0
   -5.3721   -0.2682  -20.5775 C   0  0  0  0  0  0  0  0  0  0  0  0
   -5.7390   -0.0099  -22.7038 H   0  0  0  0  0  0  0  0  0  0  0  0
   -3.9616    1.6573  -23.0092 H   0  0  0  0  0  0  0  0  0  0  0  0
   -2.2957    2.0278  -21.1784 H   0  0  0  0  0  0  0  0  0  0  0  0
   -2.5342    0.8049  -19.0348 H   0  0  0  0  0  0  0  0  0  0  0  0
   -4.1391   -0.1132  -17.4074 H   0  0  0  0  0  0  0  0  0  0  0  0
   -7.8285   -1.5234  -18.6235 H   0  0  0  0  0  0  0  0  0  0  0  0
   -7.0350   -2.6616  -21.9843 C   0  0  0  0  0  0  0  0  0  0  0  0
   -8.2730   -2.8983  -22.8473 C   0  0  2  0  0  0  0  0  0  0  0  0
   -7.9167   -3.6382  -24.1274 C   0  0  0  0  0  0  0  0  0  0  0  0
   -9.0921   -3.9510  -24.9037 N   0  0  0  0  0  0  0  0  0  0  0  0
   -8.9965   -4.5895  -26.0961 C   0  0  0  0  0  0  0  0  0  0  0  0
  -10.1448   -4.9155  -26.8458 C   0  0  0  0  0  0  0  0  0  0  0  0
   -9.9315   -5.5316  -28.0560 C   0  0  0  0  0  0  0  0  0  0  0  0
   -8.7096   -5.8242  -28.5332 N   0  0  0  0  0  0  0  0  0  0  0  0
   -7.7084   -5.4902  -27.7340 C   0  0  0  0  0  0  0  0  0  0  0  0
   -7.7677   -4.8808  -26.5483 N   0  0  0  0  0  0  0  0  0  0  0  0
   -6.7068   -5.7357  -28.0918 H   0  0  0  0  0  0  0  0  0  0  0  0
  -10.7750   -5.8045  -28.6901 H   0  0  0  0  0  0  0  0  0  0  0  0
  -11.1462   -4.6987  -26.4805 H   0  0  0  0  0  0  0  0  0  0  0  0
  -10.0054   -3.7820  -24.5086 H   0  0  0  0  0  0  0  0  0  0  0  0
   -7.3864   -4.5676  -23.8851 H   0  0  0  0  0  0  0  0  0  0  0  0
   -7.2360   -3.0468  -24.7541 H   0  0  0  0  0  0  0  0  0  0  0  0
   -8.9424   -3.5507  -22.2775 H   0  0  0  0  0  0  0  0  0  0  0  0
   -6.8258   -3.5155  -21.3292 H   0  0  0  0  0  0  0  0  0  0  0  0
   -6.1364   -2.4970  -22.6015 H   0  0  0  0  0  0  0  0  0  0  0  0
  -10.5004   -1.5941  -22.9586 C   0  0  0  0  0  0  0  0  0  0  0  0
  -11.1627   -2.4897  -22.1117 C   0  0  0  0  0  0  0  0  0  0  0  0
  -12.5270   -2.6776  -22.2335 C   0  0  0  0  0  0  0  0  0  0  0  0
  -13.3263   -3.7788  -21.1488 Cl  0  0  0  0  0  0  0  0  0  0  0  0
  -13.2707   -1.9883  -23.1939 C   0  0  0  0  0  0  0  0  0  0  0  0
  -12.6520   -0.9646  -23.8911 C   0  0  0  0  0  0  0  0  0  0  0  0
  -11.2872   -0.7254  -23.7301 C   0  0  0  0  0  0  0  0  0  0  0  0
  -10.6826    0.4996  -24.3502 C   0  0  0  0  0  0  0  0  0  0  0  0
  -11.3625    1.4318  -24.7607 O   0  0  0  0  0  0  0  0  0  0  0  0
  -13.2229   -0.3224  -24.5563 H   0  0  0  0  0  0  0  0  0  0  0  0
  -14.3313   -2.1888  -23.3109 H   0  0  0  0  0  0  0  0  0  0  0  0
  -10.6292   -3.0410  -21.3457 H   0  0  0  0  0  0  0  0  0  0  0  0
   -8.7030   -1.3715  -25.1318 H   0  0  0  0  0  0  0  0  0  0  0  0
   -7.4906   -0.4979  -24.1932 H   0  0  0  0  0  0  0  0  0  0  0  0
   -8.0572    1.3643  -25.8454 H   0  0  0  0  0  0  0  0  0  0  0  0
   -9.3817    2.3853  -25.2432 H   0  0  0  0  0  0  0  0  0  0  0  0
   -9.1514    2.7584  -22.6626 H   0  0  0  0  0  0  0  0  0  0  0  0
   -7.8816    3.8351  -21.0334 H   0  0  0  0  0  0  0  0  0  0  0  0
   -6.5736    4.0674  -22.2005 H   0  0  0  0  0  0  0  0  0  0  0  0
   -6.7551    2.4915  -21.3880 H   0  0  0  0  0  0  0  0  0  0  0  0
  1  2  1  0
  2  3  1  0
  3  4  2  0
  3  5  1  0
  5  6  1  0
  6  7  1  0
  8  7  1  6
  8  9  1  0
  9 10  2  0
  9 11  1  0
 11 12  1  0
 12 13  2  0
 13 14  1  0
 14 15  2  0
 15 16  1  0
 16 17  2  0
 17 18  1  0
 18 19  2  0
 19 20  1  0
 20 21  2  0
 20 22  1  0
 19 23  1  0
 18 24  1  0
 17 25  1  0
 15 26  1  0
 13 27  1  0
 11 28  1  0
 28 29  1  0
 29 30  1  0
 30 31  1  0
 31 32  1  0
 32 33  2  0
 33 34  1  0
 34 35  2  0
 35 36  1  0
 36 37  2  0
 36 38  1  0
 34 39  1  0
 33 40  1  0
 31 41  1  0
 30 42  1  0
 30 43  1  0
 29 44  1  1
 28 45  1  0
 28 46  1  0
  8 47  1  0
 47 48  2  0
 48 49  1  0
 49 50  1  0
 49 51  2  0
 51 52  1  0
 52 53  2  0
 53 54  1  0
 54 55  2  0
 52 56  1  0
 51 57  1  0
 48 58  1  0
  7 59  1  0
  7 60  1  0
  5 61  1  0
  5 62  1  0
  2 63  1  0
  1 64  1  0
  1 65  1  0
  1 66  1  0
 54  6  1  0
 29  8  1  0
 37 32  1  0
 53 47  1  0
 21 12  1  0
 21 16  1  0
M  END
>  <cnnaffinities>  (1) 
[6.72956, 7.05754, 6.98259]

>  <score>  (1) 
6.72956

>  <index>  (1) 
0

>  <Smiles>  (1) 
C(N(C(=O)C(N1C([C@@]2(C(=O)N(c3c(nc(c4c(c(c(c(c34)[H])[H])[H])[H])[H])[H])C([C@@]2(C(N(c2c(c(nc(n2)[H])[H])[H])[H])([H])[H])[H])([H])[H])c2c(c(Cl)c(c(c2C1=O)[H])[H])[H])([H])[H])([H])[H])[H])([H])([H])[H]

>  <h>  (1) 
<NA>

>  <Training>  (1) 
True

>  <Success>  (1) 
True

>  <enamine_searched>  (1) 
False

>  <enamine_id>  (1) 
nan

$$$$

     RDKit          3D

 68 73  0  0  0  0  0  0  0  0999 V2000
   -7.2965    3.2618  -21.6647 C   0  0  0  0  0  0  0  0  0  0  0  0
   -8.2928    2.8359  -22.6324 N   0  0  0  0  0  0  0  0  0  0  0  0
   -7.8910    2.2188  -23.7724 C   0  0  0  0  0  0  0  0  0  0  0  0
   -6.7100    2.0558  -24.0490 O   0  0  0  0  0  0  0  0  0  0  0  0
   -9.0079    1.7184  -24.6939 C   0  0  0  0  0  0  0  0  0  0  0  0
   -9.5818    0.4848  -24.1842 N   0  0  0  0  0  0  0  0  0  0  0  0
   -8.7176   -0.6780  -24.0477 C   0  0  0  0  0  0  0  0  0  0  0  0
   -9.0571   -1.5200  -22.7853 C   0  0  2  0  0  0  0  0  0  0  0  0
   -8.5572   -0.7761  -21.5188 C   0  0  0  0  0  0  0  0  0  0  0  0
   -9.0234    0.2151  -21.0038 O   0  0  0  0  0  0  0  0  0  0  0  0
   -7.4205   -1.4127  -21.0720 N   0  0  0  0  0  0  0  0  0  0  0  0
   -6.5595   -0.8871  -20.0910 C   0  0  0  0  0  0  0  0  0  0  0  0
   -6.7971   -1.1244  -18.7642 C   0  0  0  0  0  0  0  0  0  0  0  0
   -5.8658   -0.9474  -17.7994 N   0  0  0  0  0  0  0  0  0  0  0  0
   -4.7032   -0.4546  -18.1698 C   0  0  0  0  0  0  0  0  0  0  0  0
   -4.3930   -0.0160  -19.4957 C   0  0  0  0  0  0  0  0  0  0  0  0
   -3.2233    0.7390  -19.8170 C   0  0  0  0  0  0  0  0  0  0  0  0
   -3.1398    1.4148  -21.0054 C   0  0  0  0  0  0  0  0  0  0  0  0
   -4.1036    1.2004  -22.0221 C   0  0  0  0  0  0  0  0  0  0  0  0
   -5.1633    0.3581  -21.7881 C   0  0  0  0  0  0  0  0  0  0  0  0
   -5.3781   -0.1926  -20.4884 C   0  0  0  0  0  0  0  0  0  0  0  0
   -5.8612    0.1594  -22.5969 H   0  0  0  0  0  0  0  0  0  0  0  0
   -4.0155    1.7203  -22.9732 H   0  0  0  0  0  0  0  0  0  0  0  0
   -2.2550    2.0046  -21.2252 H   0  0  0  0  0  0  0  0  0  0  0  0
   -2.4516    0.8429  -19.0612 H   0  0  0  0  0  0  0  0  0  0  0  0
   -3.9464   -0.3645  -17.3918 H   0  0  0  0  0  0  0  0  0  0  0  0
   -7.7470   -1.5483  -18.4492 H   0  0  0  0  0  0  0  0  0  0  0  0
   -6.9670   -2.5034  -21.8966 C   0  0  0  0  0  0  0  0  0  0  0  0
   -8.2154   -2.8375  -22.6983 C   0  0  2  0  0  0  0  0  0  0  0  0
   -7.8700   -3.5155  -23.9995 C   0  0  0  0  0  0  0  0  0  0  0  0
   -9.0717   -3.9152  -24.6565 N   0  0  0  0  0  0  0  0  0  0  0  0
   -8.9720   -4.4820  -25.8967 C   0  0  0  0  0  0  0  0  0  0  0  0
   -7.7788   -4.7715  -26.6067 C   0  0  0  0  0  0  0  0  0  0  0  0
   -8.0456   -5.3398  -27.7766 N   0  0  0  0  0  0  0  0  0  0  0  0
   -9.3709   -5.4322  -27.8088 N   0  0  0  0  0  0  0  0  0  0  0  0
  -10.0487   -5.9451  -28.9538 C   0  0  0  0  0  0  0  0  0  0  0  0
  -10.8032   -5.2101  -29.2403 H   0  0  0  0  0  0  0  0  0  0  0  0
  -10.5335   -6.9021  -28.7312 H   0  0  0  0  0  0  0  0  0  0  0  0
   -9.3006   -6.0603  -29.7368 H   0  0  0  0  0  0  0  0  0  0  0  0
   -9.9869   -4.9288  -26.7137 C   0  0  0  0  0  0  0  0  0  0  0  0
  -11.0717   -4.9582  -26.6424 H   0  0  0  0  0  0  0  0  0  0  0  0
   -6.7477   -4.6199  -26.3055 H   0  0  0  0  0  0  0  0  0  0  0  0
   -9.9842   -3.6525  -24.3125 H   0  0  0  0  0  0  0  0  0  0  0  0
   -7.2654   -2.8431  -24.6323 H   0  0  0  0  0  0  0  0  0  0  0  0
   -7.2365   -4.4013  -23.8444 H   0  0  0  0  0  0  0  0  0  0  0  0
   -8.8065   -3.5488  -22.1150 H   0  0  0  0  0  0  0  0  0  0  0  0
   -6.1203   -2.2076  -22.5389 H   0  0  0  0  0  0  0  0  0  0  0  0
   -6.6274   -3.3461  -21.2826 H   0  0  0  0  0  0  0  0  0  0  0  0
  -10.5612   -1.7359  -22.7707 C   0  0  0  0  0  0  0  0  0  0  0  0
  -11.1448   -2.7128  -21.9519 C   0  0  0  0  0  0  0  0  0  0  0  0
  -12.5034   -2.9617  -22.0388 C   0  0  0  0  0  0  0  0  0  0  0  0
  -13.2603   -4.0617  -20.9355 Cl  0  0  0  0  0  0  0  0  0  0  0  0
  -13.3082   -2.3132  -22.9722 C   0  0  0  0  0  0  0  0  0  0  0  0
  -12.7587   -1.2871  -23.7156 C   0  0  0  0  0  0  0  0  0  0  0  0
  -11.4203   -0.9382  -23.5463 C   0  0  0  0  0  0  0  0  0  0  0  0
  -10.9414    0.3360  -24.1752 C   0  0  0  0  0  0  0  0  0  0  0  0
  -11.7135    1.1730  -24.6260 O   0  0  0  0  0  0  0  0  0  0  0  0
  -13.3584   -0.7268  -24.4267 H   0  0  0  0  0  0  0  0  0  0  0  0
  -14.3530   -2.5878  -23.0685 H   0  0  0  0  0  0  0  0  0  0  0  0
  -10.5607   -3.2754  -21.2329 H   0  0  0  0  0  0  0  0  0  0  0  0
   -7.6902   -0.3157  -23.9870 H   0  0  0  0  0  0  0  0  0  0  0  0
   -8.8129   -1.2976  -24.9501 H   0  0  0  0  0  0  0  0  0  0  0  0
   -9.8343    2.4319  -24.7639 H   0  0  0  0  0  0  0  0  0  0  0  0
   -8.5781    1.5882  -25.6966 H   0  0  0  0  0  0  0  0  0  0  0  0
   -9.2401    2.6983  -22.3065 H   0  0  0  0  0  0  0  0  0  0  0  0
   -6.6116    3.9804  -22.1217 H   0  0  0  0  0  0  0  0  0  0  0  0
   -7.7949    3.7365  -20.8190 H   0  0  0  0  0  0  0  0  0  0  0  0
   -6.7004    2.4136  -21.3044 H   0  0  0  0  0  0  0  0  0  0  0  0
  1  2  1  0
  2  3  1  0
  3  4  2  0
  3  5  1  0
  5  6  1  0
  6  7  1  0
  8  7  1  6
  8  9  1  0
  9 10  2  0
  9 11  1  0
 11 12  1  0
 12 13  2  0
 13 14  1  0
 14 15  2  0
 15 16  1  0
 16 17  2  0
 17 18  1  0
 18 19  2  0
 19 20  1  0
 20 21  2  0
 20 22  1  0
 19 23  1  0
 18 24  1  0
 17 25  1  0
 15 26  1  0
 13 27  1  0
 11 28  1  0
 28 29  1  0
 29 30  1  0
 30 31  1  0
 31 32  1  0
 32 33  1  0
 33 34  2  0
 34 35  1  0
 35 36  1  0
 36 37  1  0
 36 38  1  0
 36 39  1  0
 35 40  1  0
 40 41  1  0
 33 42  1  0
 31 43  1  0
 30 44  1  0
 30 45  1  0
 29 46  1  1
 28 47  1  0
 28 48  1  0
  8 49  1  0
 49 50  2  0
 50 51  1  0
 51 52  1  0
 51 53  2  0
 53 54  1  0
 54 55  2  0
 55 56  1  0
 56 57  2  0
 54 58  1  0
 53 59  1  0
 50 60  1  0
  7 61  1  0
  7 62  1  0
  5 63  1  0
  5 64  1  0
  2 65  1  0
  1 66  1  0
  1 67  1  0
  1 68  1  0
 56  6  1  0
 29  8  1  0
 40 32  2  0
 55 49  1  0
 21 12  1  0
 21 16  1  0
M  END
>  <cnnaffinities>  (2) 
[6.68292, 6.95322]

>  <score>  (2) 
6.68292

>  <index>  (2) 
1

>  <Smiles>  (2) 
C(N(C(=O)C(N1C([C@@]2(C(=O)N(c3c(nc(c4c(c(c(c(c34)[H])[H])[H])[H])[H])[H])C([C@@]2(C(N(c2c(nn(C([H])([H])[H])c2[H])[H])[H])([H])[H])[H])([H])[H])c2c(c(Cl)c(c(c2C1=O)[H])[H])[H])([H])[H])([H])[H])[H])([H])([H])[H]

>  <h>  (2) 
<NA>

>  <Training>  (2) 
True

>  <Success>  (2) 
True

>  <enamine_searched>  (2) 
False

>  <enamine_id>  (2) 
nan

$$$$

     RDKit          3D

 60 65  0  0  0  0  0  0  0  0999 V2000
   -6.3328    1.0794  -30.6325 C   0  0  0  0  0  0  0  0  0  0  0  0
   -6.7092    1.2119  -29.1827 C   0  0  0  0  0  0  0  0  0  0  0  0
   -6.0537    0.4754  -28.1916 C   0  0  0  0  0  0  0  0  0  0  0  0
   -6.3519    0.5880  -26.8990 N   0  0  0  0  0  0  0  0  0  0  0  0
   -7.3423    1.4307  -26.5805 C   0  0  0  0  0  0  0  0  0  0  0  0
   -7.7069    1.5824  -25.1203 C   0  0  0  0  0  0  0  0  0  0  0  0
   -8.6258    0.5750  -24.6095 N   0  0  0  0  0  0  0  0  0  0  0  0
   -8.1441   -0.7713  -24.3631 C   0  0  0  0  0  0  0  0  0  0  0  0
   -8.8038   -1.3902  -23.1020 C   0  0  2  0  0  0  0  0  0  0  0  0
   -8.2929   -0.6550  -21.8410 C   0  0  0  0  0  0  0  0  0  0  0  0
   -8.5497    0.4799  -21.5005 O   0  0  0  0  0  0  0  0  0  0  0  0
   -7.4363   -1.4929  -21.1547 N   0  0  0  0  0  0  0  0  0  0  0  0
   -6.5509   -0.9832  -20.1646 C   0  0  0  0  0  0  0  0  0  0  0  0
   -6.8049   -1.2064  -18.8336 C   0  0  0  0  0  0  0  0  0  0  0  0
   -5.8971   -0.9956  -17.8480 N   0  0  0  0  0  0  0  0  0  0  0  0
   -4.7420   -0.4787  -18.1910 C   0  0  0  0  0  0  0  0  0  0  0  0
   -4.4239   -0.0392  -19.5089 C   0  0  0  0  0  0  0  0  0  0  0  0
   -3.2533    0.7231  -19.7893 C   0  0  0  0  0  0  0  0  0  0  0  0
   -3.1339    1.3963  -20.9735 C   0  0  0  0  0  0  0  0  0  0  0  0
   -4.0678    1.1693  -22.0173 C   0  0  0  0  0  0  0  0  0  0  0  0
   -5.1268    0.3164  -21.8243 C   0  0  0  0  0  0  0  0  0  0  0  0
   -5.3729   -0.2529  -20.5296 C   0  0  0  0  0  0  0  0  0  0  0  0
   -5.7702    0.0704  -22.6672 H   0  0  0  0  0  0  0  0  0  0  0  0
   -3.9312    1.6729  -22.9748 H   0  0  0  0  0  0  0  0  0  0  0  0
   -2.2543    2.0035  -21.1674 H   0  0  0  0  0  0  0  0  0  0  0  0
   -2.5073    0.8341  -19.0113 H   0  0  0  0  0  0  0  0  0  0  0  0
   -3.9959   -0.3679  -17.4039 H   0  0  0  0  0  0  0  0  0  0  0  0
   -7.7629   -1.6166  -18.5120 H   0  0  0  0  0  0  0  0  0  0  0  0
   -7.1423   -2.7282  -21.8612 C   0  0  0  0  0  0  0  0  0  0  0  0
   -8.3222   -2.8477  -22.8316 C   0  0  2  0  0  0  0  0  0  0  0  0
   -8.0398   -3.7304  -24.0420 C   0  0  0  0  0  0  0  0  0  0  0  0
   -7.1934   -3.3546  -24.6277 H   0  0  0  0  0  0  0  0  0  0  0  0
   -8.9096   -3.7835  -24.7033 H   0  0  0  0  0  0  0  0  0  0  0  0
   -7.7937   -4.7516  -23.7297 H   0  0  0  0  0  0  0  0  0  0  0  0
   -9.1165   -3.3185  -22.2516 H   0  0  0  0  0  0  0  0  0  0  0  0
   -6.1714   -2.6824  -22.3797 H   0  0  0  0  0  0  0  0  0  0  0  0
   -7.0979   -3.5710  -21.1624 H   0  0  0  0  0  0  0  0  0  0  0  0
  -10.3083   -1.2446  -23.2657 C   0  0  0  0  0  0  0  0  0  0  0  0
  -11.2010   -2.1003  -22.6040 C   0  0  0  0  0  0  0  0  0  0  0  0
  -12.5427   -2.0560  -22.9131 C   0  0  0  0  0  0  0  0  0  0  0  0
  -13.3665   -2.9385  -22.3219 F   0  0  0  0  0  0  0  0  0  0  0  0
  -13.0778   -1.1283  -23.7968 C   0  0  0  0  0  0  0  0  0  0  0  0
  -12.2180   -0.1950  -24.3352 C   0  0  0  0  0  0  0  0  0  0  0  0
  -10.8466   -0.2396  -24.0862 C   0  0  0  0  0  0  0  0  0  0  0  0
   -9.9703    0.7991  -24.7303 C   0  0  0  0  0  0  0  0  0  0  0  0
  -10.4184    1.7709  -25.3259 O   0  0  0  0  0  0  0  0  0  0  0  0
  -12.5928    0.6056  -24.9571 H   0  0  0  0  0  0  0  0  0  0  0  0
  -14.1378   -1.1341  -24.0289 H   0  0  0  0  0  0  0  0  0  0  0  0
  -10.8969   -2.7995  -21.8317 H   0  0  0  0  0  0  0  0  0  0  0  0
   -7.0554   -0.7365  -24.2640 H   0  0  0  0  0  0  0  0  0  0  0  0
   -8.3812   -1.3959  -25.2356 H   0  0  0  0  0  0  0  0  0  0  0  0
   -6.7907    1.5295  -24.5198 H   0  0  0  0  0  0  0  0  0  0  0  0
   -8.1806    2.5529  -24.9571 H   0  0  0  0  0  0  0  0  0  0  0  0
   -8.0046    2.1543  -27.5681 C   0  0  0  0  0  0  0  0  0  0  0  0
   -7.6899    2.0567  -28.8625 N   0  0  0  0  0  0  0  0  0  0  0  0
   -8.8091    2.8386  -27.3025 H   0  0  0  0  0  0  0  0  0  0  0  0
   -5.2710   -0.2334  -28.4600 H   0  0  0  0  0  0  0  0  0  0  0  0
   -6.4955    0.0613  -31.0014 H   0  0  0  0  0  0  0  0  0  0  0  0
   -6.9260    1.7630  -31.2406 H   0  0  0  0  0  0  0  0  0  0  0  0
   -5.2732    1.3046  -30.7900 H   0  0  0  0  0  0  0  0  0  0  0  0
  1  2  1  0
  2  3  2  0
  3  4  1  0
  4  5  2  0
  5  6  1  0
  6  7  1  0
  7  8  1  0
  9  8  1  6
  9 10  1  0
 10 11  2  0
 10 12  1  0
 12 13  1  0
 13 14  2  0
 14 15  1  0
 15 16  2  0
 16 17  1  0
 17 18  2  0
 18 19  1  0
 19 20  2  0
 20 21  1  0
 21 22  2  0
 21 23  1  0
 20 24  1  0
 19 25  1  0
 18 26  1  0
 16 27  1  0
 14 28  1  0
 12 29  1  0
 29 30  1  0
 30 31  1  0
 31 32  1  0
 31 33  1  0
 31 34  1  0
 30 35  1  1
 29 36  1  0
 29 37  1  0
  9 38  1  0
 38 39  2  0
 39 40  1  0
 40 41  1  0
 40 42  2  0
 42 43  1  0
 43 44  2  0
 44 45  1  0
 45 46  2  0
 43 47  1  0
 42 48  1  0
 39 49  1  0
  8 50  1  0
  8 51  1  0
  6 52  1  0
  6 53  1  0
  5 54  1  0
 54 55  2  0
 54 56  1  0
  3 57  1  0
  1 58  1  0
  1 59  1  0
  1 60  1  0
 55  2  1  0
 45  7  1  0
 30  9  1  0
 44 38  1  0
 22 13  1  0
 22 17  1  0
M  END
>  <cnnaffinities>  (3) 
[6.34849]

>  <score>  (3) 
6.34849

>  <index>  (3) 
2

>  <Smiles>  (3) 
C(c1c(nc(C(N2C([C@@]3(C(=O)N(c4c(nc(c5c(c(c(c(c45)[H])[H])[H])[H])[H])[H])C([C@@]3(C([H])([H])[H])[H])([H])[H])c3c(c(F)c(c(c3C2=O)[H])[H])[H])([H])[H])([H])[H])c(n1)[H])[H])([H])([H])[H]

>  <h>  (3) 
<NA>

>  <Training>  (3) 
True

>  <Success>  (3) 
True

>  <enamine_searched>  (3) 
False

>  <enamine_id>  (3) 
nan

$$$$

     RDKit          3D

 66 70  0  0  0  0  0  0  0  0999 V2000
   -7.3754    3.5701  -22.7050 C   0  0  0  0  0  0  0  0  0  0  0  0
   -8.3257    2.9913  -23.6390 N   0  0  0  0  0  0  0  0  0  0  0  0
   -7.8826    2.0642  -24.5302 C   0  0  0  0  0  0  0  0  0  0  0  0
   -6.6978    1.7951  -24.6730 O   0  0  0  0  0  0  0  0  0  0  0  0
   -8.9677    1.3669  -25.3507 C   0  0  0  0  0  0  0  0  0  0  0  0
   -9.5292    0.2260  -24.6322 N   0  0  0  0  0  0  0  0  0  0  0  0
   -8.7543   -0.9985  -24.4540 C   0  0  0  0  0  0  0  0  0  0  0  0
   -8.9489   -1.6804  -23.0009 C   0  0  2  0  0  0  0  0  0  0  0  0
   -8.1996   -0.7166  -21.9925 C   0  0  0  0  0  0  0  0  0  0  0  0
   -8.3422    0.4832  -21.8779 O   0  0  0  0  0  0  0  0  0  0  0  0
   -7.3438   -1.4692  -21.2386 N   0  0  0  0  0  0  0  0  0  0  0  0
   -6.5064   -0.9459  -20.2295 C   0  0  0  0  0  0  0  0  0  0  0  0
   -6.8180   -1.1358  -18.9090 C   0  0  0  0  0  0  0  0  0  0  0  0
   -6.0354   -0.7446  -17.8733 N   0  0  0  0  0  0  0  0  0  0  0  0
   -4.8891   -0.1815  -18.1818 C   0  0  0  0  0  0  0  0  0  0  0  0
   -4.4415    0.0561  -19.5273 C   0  0  0  0  0  0  0  0  0  0  0  0
   -3.2727    0.8354  -19.7954 C   0  0  0  0  0  0  0  0  0  0  0  0
   -3.1402    1.4627  -21.0045 C   0  0  0  0  0  0  0  0  0  0  0  0
   -4.0004    1.1330  -22.0805 C   0  0  0  0  0  0  0  0  0  0  0  0
   -5.0297    0.2449  -21.8893 C   0  0  0  0  0  0  0  0  0  0  0  0
   -5.3170   -0.2480  -20.5843 C   0  0  0  0  0  0  0  0  0  0  0  0
   -5.6559   -0.0445  -22.7231 H   0  0  0  0  0  0  0  0  0  0  0  0
   -3.8266    1.5624  -23.0621 H   0  0  0  0  0  0  0  0  0  0  0  0
   -2.3224    2.1595  -21.1595 H   0  0  0  0  0  0  0  0  0  0  0  0
   -2.6481    1.1036  -18.9437 H   0  0  0  0  0  0  0  0  0  0  0  0
   -4.2986    0.2242  -17.3536 H   0  0  0  0  0  0  0  0  0  0  0  0
   -7.7660   -1.5952  -18.6389 H   0  0  0  0  0  0  0  0  0  0  0  0
   -7.3534   -2.8795  -21.5093 C   0  0  0  0  0  0  0  0  0  0  0  0
   -8.1570   -3.0064  -22.8223 C   0  0  2  0  0  0  0  0  0  0  0  0
   -7.2122   -3.3913  -23.9633 C   0  0  0  0  0  0  0  0  0  0  0  0
   -6.1615   -2.4594  -24.0618 O   0  0  0  0  0  0  0  0  0  0  0  0
   -5.2736   -2.7070  -25.1399 C   0  0  0  0  0  0  0  0  0  0  0  0
   -5.5864   -1.8060  -26.3298 C   0  0  0  0  0  0  0  0  0  0  0  0
   -6.5710   -2.0083  -26.7648 H   0  0  0  0  0  0  0  0  0  0  0  0
   -5.5564   -0.7594  -26.0000 H   0  0  0  0  0  0  0  0  0  0  0  0
   -4.8282   -1.9417  -27.1120 H   0  0  0  0  0  0  0  0  0  0  0  0
   -3.9241   -2.3555  -24.5914 C   0  0  0  0  0  0  0  0  0  0  0  0
   -3.1452   -2.4481  -25.3583 H   0  0  0  0  0  0  0  0  0  0  0  0
   -3.6577   -2.9588  -23.7191 H   0  0  0  0  0  0  0  0  0  0  0  0
   -4.0095   -1.3089  -24.2644 H   0  0  0  0  0  0  0  0  0  0  0  0
   -5.3207   -3.7686  -25.4289 H   0  0  0  0  0  0  0  0  0  0  0  0
   -6.7902   -4.3903  -23.7642 H   0  0  0  0  0  0  0  0  0  0  0  0
   -7.7580   -3.4431  -24.9134 H   0  0  0  0  0  0  0  0  0  0  0  0
   -8.9046   -3.8001  -22.7507 H   0  0  0  0  0  0  0  0  0  0  0  0
   -7.8203   -3.4034  -20.6746 H   0  0  0  0  0  0  0  0  0  0  0  0
   -6.3194   -3.2367  -21.5926 H   0  0  0  0  0  0  0  0  0  0  0  0
  -10.4141   -1.9027  -22.7356 C   0  0  0  0  0  0  0  0  0  0  0  0
  -11.1204   -3.0865  -22.2140 C   0  0  0  0  0  0  0  0  0  0  0  0
  -12.5224   -2.5047  -22.0938 C   0  0  0  0  0  0  0  0  0  0  0  0
  -12.7191   -4.0707  -20.3255 Cl  0  0  0  0  0  0  0  0  0  0  0  0
  -12.5244   -2.5028  -22.0959 C   0  0  0  0  0  0  0  0  0  0  0  0
  -12.4896   -1.1552  -22.9438 C   0  0  0  0  0  0  0  0  0  0  0  0
  -11.2820   -0.8778  -23.2467 C   0  0  0  0  0  0  0  0  0  0  0  0
  -10.8209    0.2968  -24.1708 C   0  0  0  0  0  0  0  0  0  0  0  0
  -11.5503    1.2360  -24.4713 O   0  0  0  0  0  0  0  0  0  0  0  0
  -13.4473   -1.0717  -23.3710 H   0  0  0  0  0  0  0  0  0  0  0  0
  -13.6502   -2.5150  -22.4708 H   0  0  0  0  0  0  0  0  0  0  0  0
  -11.1515   -3.0496  -21.2558 H   0  0  0  0  0  0  0  0  0  0  0  0
   -9.0450   -1.7199  -25.2355 H   0  0  0  0  0  0  0  0  0  0  0  0
   -7.7129   -0.7504  -24.6344 H   0  0  0  0  0  0  0  0  0  0  0  0
   -9.7995    2.0415  -25.5670 H   0  0  0  0  0  0  0  0  0  0  0  0
   -8.5140    1.0468  -26.2963 H   0  0  0  0  0  0  0  0  0  0  0  0
   -9.3009    2.9741  -23.3748 H   0  0  0  0  0  0  0  0  0  0  0  0
   -6.6587    4.1920  -23.2503 H   0  0  0  0  0  0  0  0  0  0  0  0
   -6.8190    2.7840  -22.1756 H   0  0  0  0  0  0  0  0  0  0  0  0
   -7.9095    4.1964  -21.9860 H   0  0  0  0  0  0  0  0  0  0  0  0
  1  2  1  0
  2  3  1  0
  3  4  2  0
  3  5  1  0
  5  6  1  0
  6  7  1  0
  8  7  1  6
  8  9  1  0
  9 10  2  0
  9 11  1  0
 11 12  1  0
 12 13  2  0
 13 14  1  0
 14 15  2  0
 15 16  1  0
 16 17  2  0
 17 18  1  0
 18 19  2  0
 19 20  1  0
 20 21  2  0
 20 22  1  0
 19 23  1  0
 18 24  1  0
 17 25  1  0
 15 26  1  0
 13 27  1  0
 11 28  1  0
 28 29  1  0
 29 30  1  0
 30 31  1  0
 31 32  1  0
 32 33  1  0
 33 34  1  0
 33 35  1  0
 33 36  1  0
 32 37  1  0
 37 38  1  0
 37 39  1  0
 37 40  1  0
 32 41  1  0
 30 42  1  0
 30 43  1  0
 29 44  1  1
 28 45  1  0
 28 46  1  0
  8 47  1  0
 47 48  2  0
 48 49  1  0
 49 50  1  0
 49 51  2  0
 51 52  1  0
 52 53  2  0
 53 54  1  0
 54 55  2  0
 52 56  1  0
 51 57  1  0
 48 58  1  0
  7 59  1  0
  7 60  1  0
  5 61  1  0
  5 62  1  0
  2 63  1  0
  1 64  1  0
  1 65  1  0
  1 66  1  0
 54  6  1  0
 29  8  1  0
 53 47  1  0
 21 12  1  0
 21 16  1  0
M  END
>  <cnnaffinities>  (4) 
[6.16501]

>  <score>  (4) 
6.16501

>  <index>  (4) 
3

>  <Smiles>  (4) 
C(N(C(=O)C(N1C([C@@]2(C(=O)N(c3c(nc(c4c(c(c(c(c34)[H])[H])[H])[H])[H])[H])C([C@@]2(C(OC(C([H])([H])[H])(C([H])([H])[H])[H])([H])[H])[H])([H])[H])c2c(c(Cl)c(c(c2C1=O)[H])[H])[H])([H])[H])([H])[H])[H])([H])([H])[H]

>  <h>  (4) 
<NA>

>  <Training>  (4) 
True

>  <Success>  (4) 
True

>  <enamine_searched>  (4) 
False

>  <enamine_id>  (4) 
nan

$$$$

     RDKit          3D

 59 64  0  0  0  0  0  0  0  0999 V2000
   -8.0736   -3.8541  -23.8924 C   0  0  0  0  0  0  0  0  0  0  0  0
   -8.3523   -2.8798  -22.7619 C   0  0  1  0  0  0  0  0  0  0  0  0
   -7.2047   -2.7623  -21.7609 C   0  0  0  0  0  0  0  0  0  0  0  0
   -7.4343   -1.4509  -21.1884 N   0  0  0  0  0  0  0  0  0  0  0  0
   -6.5615   -0.9376  -20.2063 C   0  0  0  0  0  0  0  0  0  0  0  0
   -6.8143   -1.1566  -18.8812 C   0  0  0  0  0  0  0  0  0  0  0  0
   -5.9486   -0.8840  -17.8758 N   0  0  0  0  0  0  0  0  0  0  0  0
   -4.7924   -0.3634  -18.2197 C   0  0  0  0  0  0  0  0  0  0  0  0
   -4.4435   -0.0124  -19.5540 C   0  0  0  0  0  0  0  0  0  0  0  0
   -3.2688    0.7375  -19.8388 C   0  0  0  0  0  0  0  0  0  0  0  0
   -3.1547    1.4164  -21.0191 C   0  0  0  0  0  0  0  0  0  0  0  0
   -4.0709    1.1653  -22.0707 C   0  0  0  0  0  0  0  0  0  0  0  0
   -5.0805    0.2581  -21.8812 C   0  0  0  0  0  0  0  0  0  0  0  0
   -5.3748   -0.2389  -20.5796 C   0  0  0  0  0  0  0  0  0  0  0  0
   -5.6693   -0.0652  -22.7302 H   0  0  0  0  0  0  0  0  0  0  0  0
   -3.9137    1.5997  -23.0557 H   0  0  0  0  0  0  0  0  0  0  0  0
   -2.2860    2.0402  -21.2019 H   0  0  0  0  0  0  0  0  0  0  0  0
   -2.5512    0.8654  -19.0347 H   0  0  0  0  0  0  0  0  0  0  0  0
   -4.0906   -0.1216  -17.4214 H   0  0  0  0  0  0  0  0  0  0  0  0
   -7.7716   -1.5775  -18.5864 H   0  0  0  0  0  0  0  0  0  0  0  0
   -8.2021   -0.6140  -21.9678 C   0  0  0  0  0  0  0  0  0  0  0  0
   -8.3911    0.5572  -21.7136 O   0  0  0  0  0  0  0  0  0  0  0  0
   -8.7316   -1.4269  -23.1707 C   0  0  1  0  0  0  0  0  0  0  0  0
   -8.0116   -0.9865  -24.4747 C   0  0  0  0  0  0  0  0  0  0  0  0
   -8.4077    0.3538  -24.8848 N   0  0  0  0  0  0  0  0  0  0  0  0
   -7.3780    1.3818  -25.0092 C   0  0  0  0  0  0  0  0  0  0  0  0
   -6.2846    0.9781  -25.9503 C   0  0  0  0  0  0  0  0  0  0  0  0
   -5.0378    0.7267  -25.6040 N   0  0  0  0  0  0  0  0  0  0  0  0
   -4.4137    0.3407  -26.7628 C   0  0  0  0  0  0  0  0  0  0  0  0
   -5.2950    0.3565  -27.8072 C   0  0  0  0  0  0  0  0  0  0  0  0
   -6.5012    0.7690  -27.2812 N   0  0  0  0  0  0  0  0  0  0  0  0
   -7.7547    0.9178  -28.0035 C   0  0  0  0  0  0  0  0  0  0  0  0
   -8.4679    0.1261  -27.7520 H   0  0  0  0  0  0  0  0  0  0  0  0
   -8.2122    1.8902  -27.7940 H   0  0  0  0  0  0  0  0  0  0  0  0
   -7.5406    0.8622  -29.0734 H   0  0  0  0  0  0  0  0  0  0  0  0
   -5.1781    0.1421  -28.8595 H   0  0  0  0  0  0  0  0  0  0  0  0
   -3.3610    0.0897  -26.7825 H   0  0  0  0  0  0  0  0  0  0  0  0
   -7.8679    2.3051  -25.3395 H   0  0  0  0  0  0  0  0  0  0  0  0
   -6.9379    1.5727  -24.0207 H   0  0  0  0  0  0  0  0  0  0  0  0
   -9.7248    0.7164  -24.9447 C   0  0  0  0  0  0  0  0  0  0  0  0
  -10.1123    1.6997  -25.5696 O   0  0  0  0  0  0  0  0  0  0  0  0
  -10.6827   -0.1741  -24.2089 C   0  0  0  0  0  0  0  0  0  0  0  0
  -12.0504    0.0408  -24.3886 C   0  0  0  0  0  0  0  0  0  0  0  0
  -12.9778   -0.8168  -23.8312 C   0  0  0  0  0  0  0  0  0  0  0  0
  -12.5008   -1.8170  -22.9928 C   0  0  0  0  0  0  0  0  0  0  0  0
  -13.3922   -2.6463  -22.4243 F   0  0  0  0  0  0  0  0  0  0  0  0
  -11.1679   -1.9713  -22.6915 C   0  0  0  0  0  0  0  0  0  0  0  0
  -10.2176   -1.1976  -23.3686 C   0  0  0  0  0  0  0  0  0  0  0  0
  -10.9048   -2.6928  -21.9251 H   0  0  0  0  0  0  0  0  0  0  0  0
  -14.0448   -0.7410  -24.0093 H   0  0  0  0  0  0  0  0  0  0  0  0
  -12.3704    0.8996  -24.9645 H   0  0  0  0  0  0  0  0  0  0  0  0
   -6.9271   -1.0026  -24.3466 H   0  0  0  0  0  0  0  0  0  0  0  0
   -8.2424   -1.7056  -25.2748 H   0  0  0  0  0  0  0  0  0  0  0  0
   -7.2530   -3.5364  -20.9861 H   0  0  0  0  0  0  0  0  0  0  0  0
   -6.2164   -2.8477  -22.2421 H   0  0  0  0  0  0  0  0  0  0  0  0
   -9.1891   -3.2623  -22.1784 H   0  0  0  0  0  0  0  0  0  0  0  0
   -7.9096   -4.8551  -23.4838 H   0  0  0  0  0  0  0  0  0  0  0  0
   -8.9147   -3.8940  -24.5914 H   0  0  0  0  0  0  0  0  0  0  0  0
   -7.1764   -3.5653  -24.4526 H   0  0  0  0  0  0  0  0  0  0  0  0
  1  2  1  0
  2  3  1  0
  3  4  1  0
  4  5  1  0
  5  6  2  0
  6  7  1  0
  7  8  2  0
  8  9  1  0
  9 10  2  0
 10 11  1  0
 11 12  2  0
 12 13  1  0
 13 14  2  0
 13 15  1  0
 12 16  1  0
 11 17  1  0
 10 18  1  0
  8 19  1  0
  6 20  1  0
  4 21  1  0
 21 22  2  0
 21 23  1  0
 23 24  1  6
 24 25  1  0
 25 26  1  0
 26 27  1  0
 27 28  2  0
 28 29  1  0
 29 30  2  0
 30 31  1  0
 31 32  1  0
 32 33  1  0
 32 34  1  0
 32 35  1  0
 30 36  1  0
 29 37  1  0
 26 38  1  0
 26 39  1  0
 25 40  1  0
 40 41  2  0
 40 42  1  0
 42 43  2  0
 43 44  1  0
 44 45  2  0
 45 46  1  0
 45 47  1  0
 47 48  2  0
 47 49  1  0
 44 50  1  0
 43 51  1  0
 24 52  1  0
 24 53  1  0
  3 54  1  0
  3 55  1  0
  2 56  1  1
  1 57  1  0
  1 58  1  0
  1 59  1  0
 23  2  1  0
 31 27  1  0
 48 42  1  0
 14  5  1  0
 48 23  1  0
 14  9  1  0
M  END
>  <cnnaffinities>  (5) 
[6.33277]

>  <score>  (5) 
6.33277

>  <index>  (5) 
4

>  <Smiles>  (5) 
C([C@]1(C(N(c2c(nc(c3c(c(c(c(c23)[H])[H])[H])[H])[H])[H])C(=O)[C@]21C(N(C(c1nc(c(n1C([H])([H])[H])[H])[H])([H])[H])C(=O)c1c(c(c(F)c(c21)[H])[H])[H])([H])[H])([H])[H])[H])([H])([H])[H]

>  <h>  (5) 
<NA>

>  <Training>  (5) 
True

>  <Success>  (5) 
True

>  <enamine_searched>  (5) 
False

>  <enamine_id>  (5) 
nan

$$$$

     RDKit          3D

 58 61  0  0  0  0  0  0  0  0999 V2000
   -5.7007   -4.3312  -20.2474 C   0  0  0  0  0  0  0  0  0  0  0  0
   -6.1488   -3.5188  -21.1951 C   0  0  0  0  0  0  0  0  0  0  0  0
   -7.5008   -2.8680  -21.2531 C   0  0  0  0  0  0  0  0  0  0  0  0
   -7.3547   -1.4484  -20.9195 N   0  0  0  0  0  0  0  0  0  0  0  0
   -8.0149   -0.3997  -21.5526 C   0  0  0  0  0  0  0  0  0  0  0  0
   -8.2257    0.6529  -20.9835 O   0  0  0  0  0  0  0  0  0  0  0  0
   -8.4288   -0.6490  -22.9840 C   0  0  2  0  0  0  0  0  0  0  0  0
   -8.1491    0.6177  -23.8060 C   0  0  0  0  0  0  0  0  0  0  0  0
   -8.6146    0.3997  -25.1593 N   0  0  0  0  0  0  0  0  0  0  0  0
   -7.8834    0.8911  -26.3175 C   0  0  0  0  0  0  0  0  0  0  0  0
   -8.2407    2.3160  -26.7675 C   0  0  0  0  0  0  0  0  0  0  0  0
   -8.8555    2.5572  -27.7892 O   0  0  0  0  0  0  0  0  0  0  0  0
   -7.8042    3.3153  -25.9568 N   0  0  0  0  0  0  0  0  0  0  0  0
   -8.1568    4.6819  -26.2772 C   0  0  0  0  0  0  0  0  0  0  0  0
   -7.6500    5.3612  -25.5904 H   0  0  0  0  0  0  0  0  0  0  0  0
   -9.2379    4.8306  -26.1956 H   0  0  0  0  0  0  0  0  0  0  0  0
   -7.8605    4.9156  -27.3030 H   0  0  0  0  0  0  0  0  0  0  0  0
   -7.2693    3.1224  -25.1265 H   0  0  0  0  0  0  0  0  0  0  0  0
   -8.1057    0.2357  -27.1589 H   0  0  0  0  0  0  0  0  0  0  0  0
   -6.8115    0.8259  -26.0951 H   0  0  0  0  0  0  0  0  0  0  0  0
   -9.8726   -0.0927  -25.3755 C   0  0  0  0  0  0  0  0  0  0  0  0
  -10.4031    0.0006  -26.4684 O   0  0  0  0  0  0  0  0  0  0  0  0
  -10.5553   -0.7742  -24.2350 C   0  0  0  0  0  0  0  0  0  0  0  0
  -11.8807   -1.1597  -24.3873 C   0  0  0  0  0  0  0  0  0  0  0  0
  -12.5471   -1.8477  -23.3964 C   0  0  0  0  0  0  0  0  0  0  0  0
  -11.8607   -2.1744  -22.2337 C   0  0  0  0  0  0  0  0  0  0  0  0
  -12.7184   -3.1039  -21.0389 Cl  0  0  0  0  0  0  0  0  0  0  0  0
  -10.5395   -1.7887  -22.0488 C   0  0  0  0  0  0  0  0  0  0  0  0
   -9.8805   -1.0705  -23.0589 C   0  0  0  0  0  0  0  0  0  0  0  0
  -10.0319   -2.0448  -21.1236 H   0  0  0  0  0  0  0  0  0  0  0  0
  -13.5858   -2.1341  -23.5003 H   0  0  0  0  0  0  0  0  0  0  0  0
  -12.3719   -0.9246  -25.3086 H   0  0  0  0  0  0  0  0  0  0  0  0
   -8.6355    1.4750  -23.3217 H   0  0  0  0  0  0  0  0  0  0  0  0
   -7.0695    0.8082  -23.8376 H   0  0  0  0  0  0  0  0  0  0  0  0
   -7.7953   -1.4235  -23.4364 H   0  0  0  0  0  0  0  0  0  0  0  0
   -6.4000   -1.0875  -19.9576 C   0  0  0  0  0  0  0  0  0  0  0  0
   -6.5631   -1.4100  -18.6340 C   0  0  0  0  0  0  0  0  0  0  0  0
   -5.6208   -1.1870  -17.6917 N   0  0  0  0  0  0  0  0  0  0  0  0
   -4.5215   -0.5715  -18.0711 C   0  0  0  0  0  0  0  0  0  0  0  0
   -4.2763   -0.1307  -19.4029 C   0  0  0  0  0  0  0  0  0  0  0  0
   -3.2176    0.7594  -19.7222 C   0  0  0  0  0  0  0  0  0  0  0  0
   -3.1960    1.4017  -20.9302 C   0  0  0  0  0  0  0  0  0  0  0  0
   -4.0812    1.0084  -21.9653 C   0  0  0  0  0  0  0  0  0  0  0  0
   -5.0043    0.0225  -21.7301 C   0  0  0  0  0  0  0  0  0  0  0  0
   -5.2260   -0.4221  -20.3936 C   0  0  0  0  0  0  0  0  0  0  0  0
   -5.5318   -0.4546  -22.5558 H   0  0  0  0  0  0  0  0  0  0  0  0
   -3.9687    1.4191  -22.9647 H   0  0  0  0  0  0  0  0  0  0  0  0
   -2.4623    2.1740  -21.1323 H   0  0  0  0  0  0  0  0  0  0  0  0
   -2.5358    1.0371  -18.9247 H   0  0  0  0  0  0  0  0  0  0  0  0
   -3.7733   -0.3492  -17.3078 H   0  0  0  0  0  0  0  0  0  0  0  0
   -7.4847   -1.8919  -18.3080 H   0  0  0  0  0  0  0  0  0  0  0  0
   -7.9291   -2.9571  -22.2528 H   0  0  0  0  0  0  0  0  0  0  0  0
   -8.2032   -3.3289  -20.5575 H   0  0  0  0  0  0  0  0  0  0  0  0
   -5.1903   -3.0093  -22.2773 C   0  0  0  0  0  0  0  0  0  0  0  0
   -3.9850   -3.2406  -22.0619 O   0  0  0  0  0  0  0  0  0  0  0  0
   -5.7063   -2.4812  -23.2882 O   0  0  0  0  0  1  0  0  0  0  0  0
   -4.6692   -4.6589  -20.2328 H   0  0  0  0  0  0  0  0  0  0  0  0
   -6.3349   -4.6539  -19.4245 H   0  0  0  0  0  0  0  0  0  0  0  0
  1  2  2  0
  2  3  1  0
  3  4  1  0
  4  5  1  0
  5  6  2  0
  5  7  1  0
  7  8  1  0
  8  9  1  0
  9 10  1  0
 10 11  1  0
 11 12  2  0
 11 13  1  0
 13 14  1  0
 14 15  1  0
 14 16  1  0
 14 17  1  0
 13 18  1  0
 10 19  1  0
 10 20  1  0
  9 21  1  0
 21 22  2  0
 21 23  1  0
 23 24  2  0
 24 25  1  0
 25 26  2  0
 26 27  1  0
 26 28  1  0
 28 29  2  0
 28 30  1  0
 25 31  1  0
 24 32  1  0
  8 33  1  0
  8 34  1  0
  7 35  1  6
  4 36  1  0
 36 37  2  0
 37 38  1  0
 38 39  2  0
 39 40  1  0
 40 41  2  0
 41 42  1  0
 42 43  2  0
 43 44  1  0
 44 45  2  0
 44 46  1  0
 43 47  1  0
 42 48  1  0
 41 49  1  0
 39 50  1  0
 37 51  1  0
  3 52  1  0
  3 53  1  0
  2 54  1  0
 54 55  2  0
 54 56  1  0
  1 57  1  0
  1 58  1  0
 29  7  1  0
 45 36  1  0
 29 23  1  0
 45 40  1  0
M  CHG  1  56  -1
M  END
>  <cnnaffinities>  (6) 
[5.44101]

>  <score>  (6) 
5.44101

>  <index>  (6) 
5

>  <Smiles>  (6) 
C(=C(C(N(C(=O)[C@@]1(C(N(C(C(=O)N(C([H])([H])[H])[H])([H])[H])C(=O)c2c(c(c(Cl)c(c12)[H])[H])[H])([H])[H])[H])c1c(nc(c2c(c(c(c(c12)[H])[H])[H])[H])[H])[H])([H])[H])C(=O)[O-])([H])[H]

>  <h>  (6) 
<NA>

>  <Training>  (6) 
True

>  <Success>  (6) 
True

>  <enamine_searched>  (6) 
False

>  <enamine_id>  (6) 
nan

$$$$

     RDKit          3D

 43 45  0  0  0  0  0  0  0  0999 V2000
   -9.2976   -7.9885  -24.9634 C   0  0  0  0  0  0  0  0  0  0  0  0
   -9.3818   -6.4869  -25.1713 C   0  0  0  0  0  0  0  0  0  0  0  0
   -9.0264   -5.7194  -23.9027 C   0  0  0  0  0  0  0  0  0  0  0  0
   -7.5775   -5.9562  -23.4684 C   0  0  0  0  0  0  0  0  0  0  0  0
   -7.2729   -5.1881  -22.2009 C   0  0  0  0  0  0  0  0  0  0  0  0
   -7.6224   -3.7807  -22.3458 N   0  0  0  0  0  0  0  0  0  0  0  0
   -6.7655   -2.8852  -21.7686 C   0  0  0  0  0  0  0  0  0  0  0  0
   -5.5833   -3.1373  -21.6057 O   0  0  0  0  0  0  0  0  0  0  0  0
   -7.3816   -1.5678  -21.2900 C   0  0  0  0  0  0  0  0  0  0  0  0
   -6.5374   -0.9658  -20.2180 C   0  0  0  0  0  0  0  0  0  0  0  0
   -6.8239   -1.1534  -18.8921 C   0  0  0  0  0  0  0  0  0  0  0  0
   -5.9909   -0.8532  -17.8659 N   0  0  0  0  0  0  0  0  0  0  0  0
   -4.8235   -0.3393  -18.1880 C   0  0  0  0  0  0  0  0  0  0  0  0
   -4.4312   -0.0208  -19.5142 C   0  0  0  0  0  0  0  0  0  0  0  0
   -3.2604    0.7227  -19.7924 C   0  0  0  0  0  0  0  0  0  0  0  0
   -3.1457    1.3967  -20.9753 C   0  0  0  0  0  0  0  0  0  0  0  0
   -4.0564    1.1412  -22.0363 C   0  0  0  0  0  0  0  0  0  0  0  0
   -5.0776    0.2472  -21.8488 C   0  0  0  0  0  0  0  0  0  0  0  0
   -5.3496   -0.2665  -20.5501 C   0  0  0  0  0  0  0  0  0  0  0  0
   -5.6527   -0.1070  -22.6950 H   0  0  0  0  0  0  0  0  0  0  0  0
   -3.8980    1.5975  -23.0120 H   0  0  0  0  0  0  0  0  0  0  0  0
   -2.2865    2.0294  -21.1652 H   0  0  0  0  0  0  0  0  0  0  0  0
   -2.5491    0.8527  -18.9827 H   0  0  0  0  0  0  0  0  0  0  0  0
   -4.1507   -0.0877  -17.3686 H   0  0  0  0  0  0  0  0  0  0  0  0
   -7.7899   -1.5766  -18.6080 H   0  0  0  0  0  0  0  0  0  0  0  0
   -7.4900   -0.8910  -22.1448 H   0  0  0  0  0  0  0  0  0  0  0  0
   -8.3819   -1.7720  -20.8959 H   0  0  0  0  0  0  0  0  0  0  0  0
   -8.9862   -3.4810  -22.7744 C   0  0  0  0  0  0  0  0  0  0  0  0
   -9.2847   -4.2237  -24.0717 C   0  0  0  0  0  0  0  0  0  0  0  0
   -8.6491   -3.8276  -24.8776 H   0  0  0  0  0  0  0  0  0  0  0  0
  -10.3268   -4.0520  -24.3727 H   0  0  0  0  0  0  0  0  0  0  0  0
   -9.7126   -3.7839  -21.9989 H   0  0  0  0  0  0  0  0  0  0  0  0
   -9.1067   -2.4043  -22.9353 H   0  0  0  0  0  0  0  0  0  0  0  0
   -7.8291   -5.6190  -21.3520 H   0  0  0  0  0  0  0  0  0  0  0  0
   -6.2104   -5.2301  -21.9578 H   0  0  0  0  0  0  0  0  0  0  0  0
   -6.8920   -5.6376  -24.2673 H   0  0  0  0  0  0  0  0  0  0  0  0
   -7.3812   -7.0184  -23.2772 H   0  0  0  0  0  0  0  0  0  0  0  0
   -9.6731   -6.0765  -23.0843 H   0  0  0  0  0  0  0  0  0  0  0  0
  -10.3994   -6.2126  -25.4765 H   0  0  0  0  0  0  0  0  0  0  0  0
   -8.6963   -6.1692  -25.9725 H   0  0  0  0  0  0  0  0  0  0  0  0
   -9.9871   -8.3066  -24.1731 H   0  0  0  0  0  0  0  0  0  0  0  0
   -8.2838   -8.2533  -24.6522 H   0  0  0  0  0  0  0  0  0  0  0  0
   -9.5485   -8.5449  -25.8703 H   0  0  0  0  0  0  0  0  0  0  0  0
  1  2  1  0
  2  3  1  0
  3  4  1  0
  4  5  1  0
  5  6  1  0
  6  7  1  0
  7  8  2  0
  7  9  1  0
  9 10  1  0
 10 11  2  0
 11 12  1  0
 12 13  2  0
 13 14  1  0
 14 15  2  0
 15 16  1  0
 16 17  2  0
 17 18  1  0
 18 19  2  0
 18 20  1  0
 17 21  1  0
 16 22  1  0
 15 23  1  0
 13 24  1  0
 11 25  1  0
  9 26  1  0
  9 27  1  0
  6 28  1  0
 28 29  1  0
 29 30  1  0
 29 31  1  0
 28 32  1  0
 28 33  1  0
  5 34  1  0
  5 35  1  0
  4 36  1  0
  4 37  1  0
  3 38  1  0
  2 39  1  0
  2 40  1  0
  1 41  1  0
  1 42  1  0
  1 43  1  0
 29  3  1  0
 19 10  1  0
 19 14  1  0
M  END
>  <cnnaffinities>  (7) 
[5.20954, 5.2093, 4.59882]

>  <score>  (7) 
5.20954

>  <index>  (7) 
6

>  <Smiles>  (7) 
C(C(C1(C(C(N(C(=O)C(c2c(nc(c3c(c(c(c(c23)[H])[H])[H])[H])[H])[H])([H])[H])C(C1([H])[H])([H])[H])([H])[H])([H])[H])[H])([H])[H])([H])([H])[H]

>  <h>  (7) 
<NA>

>  <Training>  (7) 
True

>  <Success>  (7) 
True

>  <enamine_searched>  (7) 
False

>  <enamine_id>  (7) 
nan

$$$$

     RDKit          3D

 44 47  0  0  0  0  0  0  0  0999 V2000
   -9.5683   -6.2734  -25.8426 C   0  0  0  0  0  0  0  0  0  0  0  0
  -10.9765   -6.1351  -25.2769 C   0  0  0  0  0  0  0  0  0  0  0  0
  -11.2683   -4.5951  -24.4138 S   0  0  0  0  0  0  0  0  0  0  0  0
  -12.4812   -4.6949  -23.6293 O   0  0  0  0  0  0  0  0  0  0  0  0
  -11.1129   -3.5151  -25.3861 O   0  0  0  0  0  0  0  0  0  0  0  0
   -9.9892   -4.5961  -23.3103 N   0  0  0  0  0  0  0  0  0  0  0  0
  -10.1360   -3.8099  -22.0520 C   0  0  0  0  0  0  0  0  0  0  0  0
   -8.9282   -2.9147  -22.4691 C   0  0  0  0  0  0  0  0  0  0  0  0
   -8.7507   -3.8768  -23.6715 C   0  0  0  0  0  0  0  0  0  0  0  0
   -8.7646   -3.4335  -24.6695 H   0  0  0  0  0  0  0  0  0  0  0  0
   -7.8933   -4.5400  -23.5347 H   0  0  0  0  0  0  0  0  0  0  0  0
   -7.7560   -2.8533  -21.5080 C   0  0  0  0  0  0  0  0  0  0  0  0
   -7.1084   -3.7789  -21.0856 O   0  0  0  0  0  0  0  0  0  0  0  0
   -7.5343   -1.5015  -21.2316 N   0  0  0  0  0  0  0  0  0  0  0  0
   -6.5909   -1.0425  -20.2686 C   0  0  0  0  0  0  0  0  0  0  0  0
   -6.7937   -1.3751  -18.9535 C   0  0  0  0  0  0  0  0  0  0  0  0
   -5.8737   -1.2275  -17.9711 N   0  0  0  0  0  0  0  0  0  0  0  0
   -4.7172   -0.6985  -18.3073 C   0  0  0  0  0  0  0  0  0  0  0  0
   -4.4505   -0.1338  -19.5929 C   0  0  0  0  0  0  0  0  0  0  0  0
   -3.2937    0.6656  -19.8300 C   0  0  0  0  0  0  0  0  0  0  0  0
   -3.1899    1.3896  -20.9887 C   0  0  0  0  0  0  0  0  0  0  0  0
   -4.1507    1.2402  -22.0122 C   0  0  0  0  0  0  0  0  0  0  0  0
   -5.2261    0.4065  -21.8475 C   0  0  0  0  0  0  0  0  0  0  0  0
   -5.4299   -0.2705  -20.6093 C   0  0  0  0  0  0  0  0  0  0  0  0
   -5.9553    0.3056  -22.6444 H   0  0  0  0  0  0  0  0  0  0  0  0
   -4.0128    1.7582  -22.9559 H   0  0  0  0  0  0  0  0  0  0  0  0
   -2.3276    2.0249  -21.1658 H   0  0  0  0  0  0  0  0  0  0  0  0
   -2.5521    0.7847  -19.0467 H   0  0  0  0  0  0  0  0  0  0  0  0
   -3.9514   -0.6526  -17.5263 H   0  0  0  0  0  0  0  0  0  0  0  0
   -7.7580   -1.7817  -18.6502 H   0  0  0  0  0  0  0  0  0  0  0  0
   -8.4444   -0.6825  -21.9152 C   0  0  0  0  0  0  0  0  0  0  0  0
   -8.5677    0.5156  -21.8090 O   0  0  0  0  0  0  0  0  0  0  0  0
   -9.1824   -1.5158  -22.7103 N   0  0  0  0  0  0  0  0  0  0  0  0
  -10.1488   -0.9713  -23.6375 C   0  0  0  0  0  0  0  0  0  0  0  0
  -10.6508   -0.1324  -23.1528 H   0  0  0  0  0  0  0  0  0  0  0  0
   -9.6628   -0.6018  -24.5486 H   0  0  0  0  0  0  0  0  0  0  0  0
  -10.8749   -1.7407  -23.9012 H   0  0  0  0  0  0  0  0  0  0  0  0
  -11.1042   -3.3175  -21.9318 H   0  0  0  0  0  0  0  0  0  0  0  0
   -9.9176   -4.4428  -21.1906 H   0  0  0  0  0  0  0  0  0  0  0  0
  -11.7425   -6.1602  -26.0594 H   0  0  0  0  0  0  0  0  0  0  0  0
  -11.1974   -6.9211  -24.5525 H   0  0  0  0  0  0  0  0  0  0  0  0
   -8.8177   -6.2819  -25.0429 H   0  0  0  0  0  0  0  0  0  0  0  0
   -9.3278   -5.4718  -26.5482 H   0  0  0  0  0  0  0  0  0  0  0  0
   -9.4976   -7.2305  -26.3663 H   0  0  0  0  0  0  0  0  0  0  0  0
  1  2  1  0
  2  3  1  0
  3  4  2  0
  3  5  2  0
  3  6  1  0
  6  7  1  0
  7  8  1  0
  8  9  1  0
  9 10  1  0
  9 11  1  0
  8 12  1  0
 12 13  2  0
 12 14  1  0
 14 15  1  0
 15 16  2  0
 16 17  1  0
 17 18  2  0
 18 19  1  0
 19 20  2  0
 20 21  1  0
 21 22  2  0
 22 23  1  0
 23 24  2  0
 23 25  1  0
 22 26  1  0
 21 27  1  0
 20 28  1  0
 18 29  1  0
 16 30  1  0
 14 31  1  0
 31 32  2  0
 31 33  1  0
 33 34  1  0
 34 35  1  0
 34 36  1  0
 34 37  1  0
  7 38  1  0
  7 39  1  0
  2 40  1  0
  2 41  1  0
  1 42  1  0
  1 43  1  0
  1 44  1  0
  9  6  1  0
 24 15  1  0
 33  8  1  0
 24 19  1  0
M  END
>  <cnnaffinities>  (8) 
[5.44809]

>  <score>  (8) 
5.44809

>  <index>  (8) 
7

>  <Smiles>  (8) 
C(C(S(=O)(=O)N1C(C2(C1([H])[H])C(=O)N(c1c(nc(c3c(c(c(c(c13)[H])[H])[H])[H])[H])[H])C(=O)N2C([H])([H])[H])([H])[H])([H])[H])([H])([H])[H]

>  <h>  (8) 
<NA>

>  <Training>  (8) 
True

>  <Success>  (8) 
True

>  <enamine_searched>  (8) 
False

>  <enamine_id>  (8) 
nan

$$$$

     RDKit          3D

 60 64  0  0  0  0  0  0  0  0999 V2000
  -14.7189   -1.7496  -23.3220 C   0  0  0  0  0  0  0  0  0  0  0  0
  -13.7779   -2.7563  -22.8976 N   0  0  0  0  0  0  0  0  0  0  0  0
  -13.3684   -2.9497  -21.6210 C   0  0  0  0  0  0  0  0  0  0  0  0
  -13.7779   -2.3261  -20.6546 O   0  0  0  0  0  0  0  0  0  0  0  0
  -12.3600   -4.0994  -21.5738 C   0  0  0  0  0  0  0  0  0  0  0  0
  -11.1515   -3.8865  -22.3499 N   0  0  0  0  0  0  0  0  0  0  0  0
  -10.0067   -3.3959  -21.6159 C   0  0  0  0  0  0  0  0  0  0  0  0
   -8.8472   -2.8885  -22.4971 C   0  0  2  0  0  0  0  0  0  0  0  0
   -7.6691   -2.7440  -21.5318 C   0  0  0  0  0  0  0  0  0  0  0  0
   -7.0153   -3.6481  -21.0476 O   0  0  0  0  0  0  0  0  0  0  0  0
   -7.4698   -1.4093  -21.2383 N   0  0  0  0  0  0  0  0  0  0  0  0
   -6.5210   -1.0643  -20.2425 C   0  0  0  0  0  0  0  0  0  0  0  0
   -6.6750   -1.4980  -18.9514 C   0  0  0  0  0  0  0  0  0  0  0  0
   -5.7354   -1.3706  -17.9811 N   0  0  0  0  0  0  0  0  0  0  0  0
   -4.6294   -0.7388  -18.2974 C   0  0  0  0  0  0  0  0  0  0  0  0
   -4.3863   -0.1476  -19.5653 C   0  0  0  0  0  0  0  0  0  0  0  0
   -3.2599    0.6815  -19.8104 C   0  0  0  0  0  0  0  0  0  0  0  0
   -3.1886    1.4259  -20.9550 C   0  0  0  0  0  0  0  0  0  0  0  0
   -4.1479    1.2459  -21.9820 C   0  0  0  0  0  0  0  0  0  0  0  0
   -5.2186    0.4153  -21.7886 C   0  0  0  0  0  0  0  0  0  0  0  0
   -5.3826   -0.2665  -20.5583 C   0  0  0  0  0  0  0  0  0  0  0  0
   -5.9395    0.2531  -22.5823 H   0  0  0  0  0  0  0  0  0  0  0  0
   -4.0325    1.7496  -22.9362 H   0  0  0  0  0  0  0  0  0  0  0  0
   -2.3496    2.0895  -21.1362 H   0  0  0  0  0  0  0  0  0  0  0  0
   -2.5415    0.8065  -19.0078 H   0  0  0  0  0  0  0  0  0  0  0  0
   -3.8663   -0.6311  -17.5286 H   0  0  0  0  0  0  0  0  0  0  0  0
   -7.5951   -2.0001  -18.6641 H   0  0  0  0  0  0  0  0  0  0  0  0
   -8.4604   -0.5314  -21.8617 C   0  0  0  0  0  0  0  0  0  0  0  0
   -9.0079   -1.4174  -22.9990 C   0  0  2  0  0  0  0  0  0  0  0  0
  -10.4226   -1.0827  -23.4287 C   0  0  0  0  0  0  0  0  0  0  0  0
  -10.4981    0.2211  -23.9487 O   0  0  0  0  0  0  0  0  0  0  0  0
  -11.8316    0.5040  -24.2827 C   0  0  0  0  0  0  0  0  0  0  0  0
  -12.4609    0.5777  -23.3826 H   0  0  0  0  0  0  0  0  0  0  0  0
  -12.2445   -0.3022  -24.9069 H   0  0  0  0  0  0  0  0  0  0  0  0
  -11.8753    1.4453  -24.8341 H   0  0  0  0  0  0  0  0  0  0  0  0
  -10.7346   -1.8049  -24.1973 H   0  0  0  0  0  0  0  0  0  0  0  0
  -11.1136   -1.1930  -22.5803 H   0  0  0  0  0  0  0  0  0  0  0  0
   -8.3506   -1.2929  -23.8681 H   0  0  0  0  0  0  0  0  0  0  0  0
   -9.2463   -0.2523  -21.1444 H   0  0  0  0  0  0  0  0  0  0  0  0
   -8.0169    0.4002  -22.2283 H   0  0  0  0  0  0  0  0  0  0  0  0
   -8.6031   -3.9201  -23.5784 C   0  0  0  0  0  0  0  0  0  0  0  0
   -7.3192   -4.1096  -24.1016 C   0  0  0  0  0  0  0  0  0  0  0  0
   -7.0848   -5.1181  -25.0196 C   0  0  0  0  0  0  0  0  0  0  0  0
   -5.4638   -5.3622  -25.6081 Cl  0  0  0  0  0  0  0  0  0  0  0  0
   -8.1168   -5.9324  -25.4854 C   0  0  0  0  0  0  0  0  0  0  0  0
   -9.4022   -5.6952  -25.0248 C   0  0  0  0  0  0  0  0  0  0  0  0
   -9.6524   -4.7045  -24.0753 C   0  0  0  0  0  0  0  0  0  0  0  0
  -11.0418   -4.5129  -23.5591 C   0  0  0  0  0  0  0  0  0  0  0  0
  -12.0448   -4.8828  -24.1725 O   0  0  0  0  0  0  0  0  0  0  0  0
  -10.2352   -6.2830  -25.3935 H   0  0  0  0  0  0  0  0  0  0  0  0
   -7.9075   -6.7261  -26.1984 H   0  0  0  0  0  0  0  0  0  0  0  0
   -6.4991   -3.4862  -23.7614 H   0  0  0  0  0  0  0  0  0  0  0  0
   -9.6019   -4.1965  -20.9890 H   0  0  0  0  0  0  0  0  0  0  0  0
  -10.3574   -2.5914  -20.9629 H   0  0  0  0  0  0  0  0  0  0  0  0
  -12.8678   -4.9143  -22.0815 H   0  0  0  0  0  0  0  0  0  0  0  0
  -12.1149   -4.3723  -20.5469 H   0  0  0  0  0  0  0  0  0  0  0  0
  -13.4802   -3.4495  -23.5770 H   0  0  0  0  0  0  0  0  0  0  0  0
  -15.1903   -1.2993  -22.4494 H   0  0  0  0  0  0  0  0  0  0  0  0
  -15.4872   -2.1960  -23.9560 H   0  0  0  0  0  0  0  0  0  0  0  0
  -14.1934   -0.9800  -23.9016 H   0  0  0  0  0  0  0  0  0  0  0  0
  1  2  1  0
  2  3  1  0
  3  4  2  0
  3  5  1  0
  5  6  1  0
  6  7  1  0
  8  7  1  1
  8  9  1  0
  9 10  2  0
  9 11  1  0
 11 12  1  0
 12 13  2  0
 13 14  1  0
 14 15  2  0
 15 16  1  0
 16 17  2  0
 17 18  1  0
 18 19  2  0
 19 20  1  0
 20 21  2  0
 20 22  1  0
 19 23  1  0
 18 24  1  0
 17 25  1  0
 15 26  1  0
 13 27  1  0
 11 28  1  0
 28 29  1  0
 29 30  1  0
 30 31  1  0
 31 32  1  0
 32 33  1  0
 32 34  1  0
 32 35  1  0
 30 36  1  0
 30 37  1  0
 29 38  1  6
 28 39  1  0
 28 40  1  0
  8 41  1  0
 41 42  2  0
 42 43  1  0
 43 44  1  0
 43 45  2  0
 45 46  1  0
 46 47  2  0
 47 48  1  0
 48 49  2  0
 46 50  1  0
 45 51  1  0
 42 52  1  0
  7 53  1  0
  7 54  1  0
  5 55  1  0
  5 56  1  0
  2 57  1  0
  1 58  1  0
  1 59  1  0
  1 60  1  0
 48  6  1  0
 29  8  1  0
 47 41  1  0
 21 12  1  0
 21 16  1  0
M  END
>  <cnnaffinities>  (9) 
[6.42437, 6.57682]

>  <score>  (9) 
6.42437

>  <index>  (9) 
8

>  <Smiles>  (9) 
C(N(C(=O)C(N1C([C@@]2(C(=O)N(c3c(nc(c4c(c(c(c(c34)[H])[H])[H])[H])[H])[H])C([C@@]2(C(OC([H])([H])[H])([H])[H])[H])([H])[H])c2c(c(Cl)c(c(c2C1=O)[H])[H])[H])([H])[H])([H])[H])[H])([H])([H])[H]

>  <h>  (9) 
<NA>

>  <Training>  (9) 
True

>  <Success>  (9) 
True

>  <enamine_searched>  (9) 
False

>  <enamine_id>  (9) 
nan

$$$$

     RDKit          3D

 41 43  0  0  0  0  0  0  0  0999 V2000
   -6.8932    2.3023  -24.2181 C   0  0  0  0  0  0  0  0  0  0  0  0
   -7.5557    1.3616  -25.2334 C   0  0  1  0  0  0  0  0  0  0  0  0
   -6.8142    0.0395  -25.3187 C   0  0  0  0  0  0  0  0  0  0  0  0
   -7.1928   -1.1488  -24.8451 C   0  0  0  0  0  0  0  0  0  0  0  0
   -8.4664   -1.4054  -24.0670 C   0  0  0  0  0  0  0  0  0  0  0  0
   -8.8055   -0.3555  -23.1127 N   0  0  0  0  0  0  0  0  0  0  0  0
   -8.4436   -0.3730  -21.7907 C   0  0  0  0  0  0  0  0  0  0  0  0
   -8.8818    0.4359  -20.9918 O   0  0  0  0  0  0  0  0  0  0  0  0
   -7.4744   -1.4754  -21.3449 C   0  0  0  0  0  0  0  0  0  0  0  0
   -6.5405   -1.0124  -20.2586 C   0  0  0  0  0  0  0  0  0  0  0  0
   -6.8327   -1.1714  -18.9306 C   0  0  0  0  0  0  0  0  0  0  0  0
   -5.9918   -0.8691  -17.9049 N   0  0  0  0  0  0  0  0  0  0  0  0
   -4.8304   -0.3469  -18.2194 C   0  0  0  0  0  0  0  0  0  0  0  0
   -4.4376   -0.0317  -19.5448 C   0  0  0  0  0  0  0  0  0  0  0  0
   -3.2661    0.7212  -19.8080 C   0  0  0  0  0  0  0  0  0  0  0  0
   -3.1461    1.4053  -20.9830 C   0  0  0  0  0  0  0  0  0  0  0  0
   -4.0614    1.1558  -22.0415 C   0  0  0  0  0  0  0  0  0  0  0  0
   -5.0851    0.2571  -21.8682 C   0  0  0  0  0  0  0  0  0  0  0  0
   -5.3550   -0.2896  -20.5844 C   0  0  0  0  0  0  0  0  0  0  0  0
   -5.6638   -0.0673  -22.7311 H   0  0  0  0  0  0  0  0  0  0  0  0
   -3.8939    1.6183  -23.0163 H   0  0  0  0  0  0  0  0  0  0  0  0
   -2.2850    2.0384  -21.1601 H   0  0  0  0  0  0  0  0  0  0  0  0
   -2.5592    0.8429  -18.9938 H   0  0  0  0  0  0  0  0  0  0  0  0
   -4.1598   -0.0800  -17.4010 H   0  0  0  0  0  0  0  0  0  0  0  0
   -7.8063   -1.5709  -18.6437 H   0  0  0  0  0  0  0  0  0  0  0  0
   -6.9055   -1.8411  -22.2057 H   0  0  0  0  0  0  0  0  0  0  0  0
   -8.0922   -2.3163  -20.9896 H   0  0  0  0  0  0  0  0  0  0  0  0
   -9.5222    0.8149  -23.6075 C   0  0  0  0  0  0  0  0  0  0  0  0
   -9.0727    1.2202  -25.0113 C   0  0  0  0  0  0  0  0  0  0  0  0
   -9.5491    2.1813  -25.2495 H   0  0  0  0  0  0  0  0  0  0  0  0
   -9.4658    0.5024  -25.7428 H   0  0  0  0  0  0  0  0  0  0  0  0
  -10.6034    0.6144  -23.6106 H   0  0  0  0  0  0  0  0  0  0  0  0
   -9.3599    1.6350  -22.9011 H   0  0  0  0  0  0  0  0  0  0  0  0
   -9.2999   -1.5043  -24.7757 H   0  0  0  0  0  0  0  0  0  0  0  0
   -8.4064   -2.3662  -23.5423 H   0  0  0  0  0  0  0  0  0  0  0  0
   -6.5792   -2.0223  -25.0720 H   0  0  0  0  0  0  0  0  0  0  0  0
   -5.8613    0.0885  -25.8536 H   0  0  0  0  0  0  0  0  0  0  0  0
   -7.4368    1.8276  -26.2225 H   0  0  0  0  0  0  0  0  0  0  0  0
   -5.8343    2.4533  -24.4634 H   0  0  0  0  0  0  0  0  0  0  0  0
   -6.9378    1.9049  -23.1962 H   0  0  0  0  0  0  0  0  0  0  0  0
   -7.3926    3.2789  -24.2189 H   0  0  0  0  0  0  0  0  0  0  0  0
  1  2  1  0
  2  3  1  0
  3  4  2  0
  4  5  1  0
  5  6  1  0
  6  7  1  0
  7  8  2  0
  7  9  1  0
  9 10  1  0
 10 11  2  0
 11 12  1  0
 12 13  2  0
 13 14  1  0
 14 15  2  0
 15 16  1  0
 16 17  2  0
 17 18  1  0
 18 19  2  0
 18 20  1  0
 17 21  1  0
 16 22  1  0
 15 23  1  0
 13 24  1  0
 11 25  1  0
  9 26  1  0
  9 27  1  0
  6 28  1  0
 28 29  1  0
 29 30  1  0
 29 31  1  0
 28 32  1  0
 28 33  1  0
  5 34  1  0
  5 35  1  0
  4 36  1  0
  3 37  1  0
  2 38  1  6
  1 39  1  0
  1 40  1  0
  1 41  1  0
 29  2  1  0
 19 10  1  0
 19 14  1  0
M  END
>  <cnnaffinities>  (10) 
[4.72344, 4.95088, 5.3227]

>  <score>  (10) 
4.72344

>  <index>  (10) 
9

>  <Smiles>  (10) 
C([C@]1(C(=C(C(N(C(=O)C(c2c(nc(c3c(c(c(c(c23)[H])[H])[H])[H])[H])[H])([H])[H])C(C1([H])[H])([H])[H])([H])[H])[H])[H])[H])([H])([H])[H]

>  <h>  (10) 
<NA>

>  <Training>  (10) 
True

>  <Success>  (10) 
True

>  <enamine_searched>  (10) 
False

>  <enamine_id>  (10) 
nan

$$$$

     RDKit          3D

 57 62  0  0  0  0  0  0  0  0999 V2000
  -10.2848   -2.8413  -22.0020 C   0  0  0  0  0  0  0  0  0  0  0  0
   -9.2387   -1.9556  -22.6958 C   0  0  1  0  0  0  0  0  0  0  0  0
   -8.6262   -0.9856  -21.6608 C   0  0  0  0  0  0  0  0  0  0  0  0
   -7.4268   -1.6776  -21.2415 N   0  0  0  0  0  0  0  0  0  0  0  0
   -6.5394   -1.1668  -20.2579 C   0  0  0  0  0  0  0  0  0  0  0  0
   -6.7885   -1.4134  -18.9347 C   0  0  0  0  0  0  0  0  0  0  0  0
   -5.9023   -1.1854  -17.9344 N   0  0  0  0  0  0  0  0  0  0  0  0
   -4.7510   -0.6459  -18.2723 C   0  0  0  0  0  0  0  0  0  0  0  0
   -4.4532   -0.1615  -19.5796 C   0  0  0  0  0  0  0  0  0  0  0  0
   -3.3253    0.6695  -19.8300 C   0  0  0  0  0  0  0  0  0  0  0  0
   -3.2332    1.3766  -20.9973 C   0  0  0  0  0  0  0  0  0  0  0  0
   -4.1786    1.1645  -22.0305 C   0  0  0  0  0  0  0  0  0  0  0  0
   -5.2275    0.2978  -21.8556 C   0  0  0  0  0  0  0  0  0  0  0  0
   -5.4013   -0.3697  -20.6053 C   0  0  0  0  0  0  0  0  0  0  0  0
   -5.9531    0.1527  -22.6585 H   0  0  0  0  0  0  0  0  0  0  0  0
   -4.0577    1.6790  -22.9776 H   0  0  0  0  0  0  0  0  0  0  0  0
   -2.3907    2.0391  -21.1803 H   0  0  0  0  0  0  0  0  0  0  0  0
   -2.6338    0.8639  -19.0160 H   0  0  0  0  0  0  0  0  0  0  0  0
   -4.0090   -0.5071  -17.4842 H   0  0  0  0  0  0  0  0  0  0  0  0
   -7.7523   -1.8238  -18.6365 H   0  0  0  0  0  0  0  0  0  0  0  0
   -6.9865   -2.6235  -22.1499 C   0  0  0  0  0  0  0  0  0  0  0  0
   -5.9486   -3.2281  -22.0443 O   0  0  0  0  0  0  0  0  0  0  0  0
   -8.0126   -2.7272  -23.3060 C   0  0  1  0  0  0  0  0  0  0  0  0
   -8.3420   -4.2100  -23.6477 C   0  0  0  0  0  0  0  0  0  0  0  0
   -7.3019   -4.9063  -24.3910 N   0  0  0  0  0  0  0  0  0  0  0  0
   -6.9807   -6.2951  -24.0544 C   0  0  0  0  0  0  0  0  0  0  0  0
   -5.8874   -6.3833  -23.0357 C   0  0  0  0  0  0  0  0  0  0  0  0
   -4.5479   -6.4469  -23.2196 C   0  0  0  0  0  0  0  0  0  0  0  0
   -3.9603   -6.3098  -21.9817 N   0  0  0  0  0  4  0  0  0  0  0  0
   -4.9211   -6.1722  -21.0588 C   0  0  0  0  0  0  0  0  0  0  0  0
   -6.1068   -6.2443  -21.6716 N   0  0  0  0  0  0  0  0  0  0  0  0
   -7.0095   -6.0950  -21.2235 H   0  0  0  0  0  0  0  0  0  0  0  0
   -4.7688   -5.9836  -20.0065 H   0  0  0  0  0  0  0  0  0  0  0  0
   -2.9589   -6.2496  -21.8459 H   0  0  0  0  0  0  0  0  0  0  0  0
   -3.9695   -6.5725  -24.1301 H   0  0  0  0  0  0  0  0  0  0  0  0
   -6.6516   -6.7816  -24.9740 H   0  0  0  0  0  0  0  0  0  0  0  0
   -7.9027   -6.7866  -23.7193 H   0  0  0  0  0  0  0  0  0  0  0  0
   -6.5127   -4.2970  -25.3235 C   0  0  0  0  0  0  0  0  0  0  0  0
   -5.6733   -4.9090  -25.9720 O   0  0  0  0  0  0  0  0  0  0  0  0
   -6.7157   -2.8268  -25.4988 C   0  0  0  0  0  0  0  0  0  0  0  0
   -6.1126   -2.2364  -26.6103 C   0  0  0  0  0  0  0  0  0  0  0  0
   -6.2705   -0.8909  -26.8657 C   0  0  0  0  0  0  0  0  0  0  0  0
   -7.0181   -0.1518  -25.9590 C   0  0  0  0  0  0  0  0  0  0  0  0
   -7.1862    1.1607  -26.1965 F   0  0  0  0  0  0  0  0  0  0  0  0
   -7.5886   -0.7030  -24.8263 C   0  0  0  0  0  0  0  0  0  0  0  0
   -7.4531   -2.0746  -24.5764 C   0  0  0  0  0  0  0  0  0  0  0  0
   -8.1339   -0.0409  -24.1641 H   0  0  0  0  0  0  0  0  0  0  0  0
   -5.8313   -0.4022  -27.7279 H   0  0  0  0  0  0  0  0  0  0  0  0
   -5.5178   -2.8778  -27.2515 H   0  0  0  0  0  0  0  0  0  0  0  0
   -9.2744   -4.2121  -24.2276 H   0  0  0  0  0  0  0  0  0  0  0  0
   -8.5036   -4.7747  -22.7263 H   0  0  0  0  0  0  0  0  0  0  0  0
   -8.3855    0.0002  -22.0870 H   0  0  0  0  0  0  0  0  0  0  0  0
   -9.2914   -0.8045  -20.8131 H   0  0  0  0  0  0  0  0  0  0  0  0
   -9.7534   -1.4051  -23.4881 H   0  0  0  0  0  0  0  0  0  0  0  0
  -11.0757   -2.2239  -21.5592 H   0  0  0  0  0  0  0  0  0  0  0  0
  -10.7627   -3.5293  -22.7043 H   0  0  0  0  0  0  0  0  0  0  0  0
   -9.8432   -3.4354  -21.1946 H   0  0  0  0  0  0  0  0  0  0  0  0
  1  2  1  0
  2  3  1  0
  3  4  1  0
  4  5  1  0
  5  6  2  0
  6  7  1  0
  7  8  2  0
  8  9  1  0
  9 10  2  0
 10 11  1  0
 11 12  2  0
 12 13  1  0
 13 14  2  0
 13 15  1  0
 12 16  1  0
 11 17  1  0
 10 18  1  0
  8 19  1  0
  6 20  1  0
  4 21  1  0
 21 22  2  0
 21 23  1  0
 23 24  1  6
 24 25  1  0
 25 26  1  0
 26 27  1  0
 27 28  2  0
 28 29  1  0
 29 30  2  0
 30 31  1  0
 31 32  1  0
 30 33  1  0
 29 34  1  0
 28 35  1  0
 26 36  1  0
 26 37  1  0
 25 38  1  0
 38 39  2  0
 38 40  1  0
 40 41  2  0
 41 42  1  0
 42 43  2  0
 43 44  1  0
 43 45  1  0
 45 46  2  0
 45 47  1  0
 42 48  1  0
 41 49  1  0
 24 50  1  0
 24 51  1  0
  3 52  1  0
  3 53  1  0
  2 54  1  6
  1 55  1  0
  1 56  1  0
  1 57  1  0
 23  2  1  0
 31 27  1  0
 46 40  1  0
 14  5  1  0
 46 23  1  0
 14  9  1  0
M  CHG  1  29   1
M  END
>  <cnnaffinities>  (11) 
[6.21736]

>  <score>  (11) 
6.21736

>  <index>  (11) 
10

>  <Smiles>  (11) 
C([C@]1(C(N(c2c(nc(c3c(c(c(c(c23)[H])[H])[H])[H])[H])[H])C(=O)[C@]21C(N(C(c1c([n+](c(n1[H])[H])[H])[H])([H])[H])C(=O)c1c(c(c(F)c(c21)[H])[H])[H])([H])[H])([H])[H])[H])([H])([H])[H]

>  <h>  (11) 
<NA>

>  <Training>  (11) 
True

>  <Success>  (11) 
True

>  <enamine_searched>  (11) 
False

>  <enamine_id>  (11) 
nan

$$$$

     RDKit          3D

 48 52  0  0  0  0  0  0  0  0999 V2000
  -10.1185   -0.8210  -23.6021 C   0  0  0  0  0  0  0  0  0  0  0  0
   -9.1159   -1.4174  -22.7371 N   0  0  0  0  0  0  0  0  0  0  0  0
   -8.4128   -0.6460  -21.8478 C   0  0  0  0  0  0  0  0  0  0  0  0
   -8.5459    0.5429  -21.6482 O   0  0  0  0  0  0  0  0  0  0  0  0
   -7.5169   -1.5032  -21.1876 N   0  0  0  0  0  0  0  0  0  0  0  0
   -6.5376   -1.1135  -20.2203 C   0  0  0  0  0  0  0  0  0  0  0  0
   -6.6533   -1.5680  -18.9270 C   0  0  0  0  0  0  0  0  0  0  0  0
   -5.6838   -1.4419  -17.9872 N   0  0  0  0  0  0  0  0  0  0  0  0
   -4.5822   -0.8162  -18.3308 C   0  0  0  0  0  0  0  0  0  0  0  0
   -4.3965   -0.1738  -19.5838 C   0  0  0  0  0  0  0  0  0  0  0  0
   -3.2682    0.6620  -19.8072 C   0  0  0  0  0  0  0  0  0  0  0  0
   -3.2102    1.4413  -20.9293 C   0  0  0  0  0  0  0  0  0  0  0  0
   -4.2153    1.3291  -21.9187 C   0  0  0  0  0  0  0  0  0  0  0  0
   -5.3054    0.5091  -21.7318 C   0  0  0  0  0  0  0  0  0  0  0  0
   -5.4220   -0.2690  -20.5477 C   0  0  0  0  0  0  0  0  0  0  0  0
   -6.1142    0.4786  -22.4509 H   0  0  0  0  0  0  0  0  0  0  0  0
   -4.1039    1.8707  -22.8513 H   0  0  0  0  0  0  0  0  0  0  0  0
   -2.3681    2.1123  -21.0835 H   0  0  0  0  0  0  0  0  0  0  0  0
   -2.5388    0.7332  -19.0060 H   0  0  0  0  0  0  0  0  0  0  0  0
   -3.7841   -0.7336  -17.5888 H   0  0  0  0  0  0  0  0  0  0  0  0
   -7.5784   -2.0400  -18.5919 H   0  0  0  0  0  0  0  0  0  0  0  0
   -7.7510   -2.8324  -21.5343 C   0  0  0  0  0  0  0  0  0  0  0  0
   -7.1280   -3.7848  -21.1287 O   0  0  0  0  0  0  0  0  0  0  0  0
   -8.9028   -2.8307  -22.5254 C   0  0  0  0  0  0  0  0  0  0  0  0
   -8.7187   -3.7582  -23.7449 C   0  0  0  0  0  0  0  0  0  0  0  0
   -9.9541   -4.4946  -23.3957 N   0  0  0  0  0  0  0  0  0  0  0  0
  -11.2078   -4.3942  -24.5265 S   0  0  0  0  0  0  0  0  0  0  0  0
  -11.2292   -3.0642  -25.1236 O   0  0  0  0  0  0  0  0  0  0  0  0
  -12.4018   -4.8938  -23.8835 O   0  0  0  0  0  0  0  0  0  0  0  0
  -10.6102   -5.5065  -25.7594 C   0  0  0  0  0  0  0  0  0  0  0  0
  -10.2554   -5.0131  -27.0110 C   0  0  0  0  0  0  0  0  0  0  0  0
   -9.6923   -5.8738  -27.9431 C   0  0  0  0  0  0  0  0  0  0  0  0
   -9.4603   -7.2067  -27.6064 C   0  0  0  0  0  0  0  0  0  0  0  0
   -9.8274   -7.6819  -26.3458 C   0  0  0  0  0  0  0  0  0  0  0  0
  -10.4069   -6.8327  -25.4111 C   0  0  0  0  0  0  0  0  0  0  0  0
  -10.6828   -7.1836  -24.4194 H   0  0  0  0  0  0  0  0  0  0  0  0
   -9.6523   -8.7216  -26.0891 H   0  0  0  0  0  0  0  0  0  0  0  0
   -8.9546   -7.8685  -28.3067 H   0  0  0  0  0  0  0  0  0  0  0  0
   -9.4219   -5.4854  -28.9216 H   0  0  0  0  0  0  0  0  0  0  0  0
  -10.3890   -3.9570  -27.2163 H   0  0  0  0  0  0  0  0  0  0  0  0
  -10.1325   -3.7007  -22.1483 C   0  0  0  0  0  0  0  0  0  0  0  0
   -9.9567   -4.3216  -21.2701 H   0  0  0  0  0  0  0  0  0  0  0  0
  -11.0905   -3.1801  -22.0676 H   0  0  0  0  0  0  0  0  0  0  0  0
   -7.8532   -4.4138  -23.6533 H   0  0  0  0  0  0  0  0  0  0  0  0
   -8.7201   -3.2626  -24.7178 H   0  0  0  0  0  0  0  0  0  0  0  0
   -9.9626    0.2578  -23.5567 H   0  0  0  0  0  0  0  0  0  0  0  0
  -11.1329   -1.0451  -23.2547 H   0  0  0  0  0  0  0  0  0  0  0  0
  -10.0147   -1.1777  -24.6291 H   0  0  0  0  0  0  0  0  0  0  0  0
  1  2  1  0
  2  3  1  0
  3  4  2  0
  3  5  1  0
  5  6  1  0
  6  7  2  0
  7  8  1  0
  8  9  2  0
  9 10  1  0
 10 11  2  0
 11 12  1  0
 12 13  2  0
 13 14  1  0
 14 15  2  0
 14 16  1  0
 13 17  1  0
 12 18  1  0
 11 19  1  0
  9 20  1  0
  7 21  1  0
  5 22  1  0
 22 23  2  0
 22 24  1  0
 24 25  1  0
 25 26  1  0
 26 27  1  0
 27 28  2  0
 27 29  2  0
 27 30  1  0
 30 31  2  0
 31 32  1  0
 32 33  2  0
 33 34  1  0
 34 35  2  0
 35 36  1  0
 34 37  1  0
 33 38  1  0
 32 39  1  0
 31 40  1  0
 26 41  1  0
 41 42  1  0
 41 43  1  0
 25 44  1  0
 25 45  1  0
  1 46  1  0
  1 47  1  0
  1 48  1  0
 24  2  1  0
 35 30  1  0
 15  6  1  0
 41 24  1  0
 15 10  1  0
M  END
>  <cnnaffinities>  (12) 
[5.83437, 5.83604]

>  <score>  (12) 
5.83437

>  <index>  (12) 
11

>  <Smiles>  (12) 
C(N1C(=O)N(c2c(nc(c3c(c(c(c(c23)[H])[H])[H])[H])[H])[H])C(=O)C21C(N(S(=O)(=O)c1c(c(c(c(c1[H])[H])[H])[H])[H])C2([H])[H])([H])[H])([H])([H])[H]

>  <h>  (12) 
<NA>

>  <Training>  (12) 
True

>  <Success>  (12) 
True

>  <enamine_searched>  (12) 
False

>  <enamine_id>  (12) 
nan

$$$$

     RDKit          3D

 76 82  0  0  0  0  0  0  0  0999 V2000
  -11.7789    1.0469  -24.4033 O   0  0  0  0  0  0  0  0  0  0  0  0
  -11.0021    0.1476  -24.0881 C   0  0  0  0  0  0  0  0  0  0  0  0
  -11.4805   -1.1141  -23.4449 C   0  0  0  0  0  0  0  0  0  0  0  0
  -12.8427   -1.4001  -23.4983 C   0  0  0  0  0  0  0  0  0  0  0  0
  -13.3755   -2.3951  -22.6977 C   0  0  0  0  0  0  0  0  0  0  0  0
  -12.5183   -3.0425  -21.8058 C   0  0  0  0  0  0  0  0  0  0  0  0
  -13.2011   -4.0380  -20.5616 Cl  0  0  0  0  0  0  0  0  0  0  0  0
  -11.1458   -2.8748  -21.8604 C   0  0  0  0  0  0  0  0  0  0  0  0
  -10.5942   -1.9313  -22.7290 C   0  0  0  0  0  0  0  0  0  0  0  0
   -9.0938   -1.7300  -22.8105 C   0  0  1  0  0  0  0  0  0  0  0  0
   -8.8169   -0.9444  -24.1243 C   0  0  0  0  0  0  0  0  0  0  0  0
   -9.6515    0.2340  -24.2658 N   0  0  0  0  0  0  0  0  0  0  0  0
   -9.0694    1.5568  -24.4418 C   0  0  0  0  0  0  0  0  0  0  0  0
   -9.2435    2.1108  -25.8507 C   0  0  0  0  0  0  0  0  0  0  0  0
   -8.6667    1.2418  -26.8998 N   0  0  0  0  0  4  0  0  0  0  0  0
   -9.1309    1.6600  -28.2650 C   0  0  0  0  0  0  0  0  0  0  0  0
   -8.5962    0.6802  -29.3259 C   0  0  0  0  0  0  0  0  0  0  0  0
   -7.6457   -0.2022  -28.7654 O   0  0  0  0  0  0  0  0  0  0  0  0
   -6.6221    0.5325  -28.1286 C   0  0  0  0  0  0  0  0  0  0  0  0
   -7.1578    1.1619  -26.8335 C   0  0  0  0  0  0  0  0  0  0  0  0
   -6.7496    2.1640  -26.6759 H   0  0  0  0  0  0  0  0  0  0  0  0
   -6.8794    0.5395  -25.9798 H   0  0  0  0  0  0  0  0  0  0  0  0
   -6.2261    1.3053  -28.8053 H   0  0  0  0  0  0  0  0  0  0  0  0
   -5.8115   -0.1661  -27.9050 H   0  0  0  0  0  0  0  0  0  0  0  0
   -8.1452    1.2454  -30.1570 H   0  0  0  0  0  0  0  0  0  0  0  0
   -9.3958    0.0609  -29.7388 H   0  0  0  0  0  0  0  0  0  0  0  0
   -8.7719    2.6759  -28.4599 H   0  0  0  0  0  0  0  0  0  0  0  0
  -10.2252    1.6918  -28.2751 H   0  0  0  0  0  0  0  0  0  0  0  0
   -9.0235    0.2805  -26.7425 H   0  0  0  0  0  0  0  0  0  0  0  0
  -10.3107    2.2345  -26.0442 H   0  0  0  0  0  0  0  0  0  0  0  0
   -8.7783    3.1058  -25.8960 H   0  0  0  0  0  0  0  0  0  0  0  0
   -9.5404    2.2415  -23.7289 H   0  0  0  0  0  0  0  0  0  0  0  0
   -8.0080    1.4973  -24.1797 H   0  0  0  0  0  0  0  0  0  0  0  0
   -7.7623   -0.6490  -24.1941 H   0  0  0  0  0  0  0  0  0  0  0  0
   -9.0290   -1.6301  -24.9570 H   0  0  0  0  0  0  0  0  0  0  0  0
   -8.5475   -0.9547  -21.5843 C   0  0  0  0  0  0  0  0  0  0  0  0
   -9.0335    0.0059  -21.0289 O   0  0  0  0  0  0  0  0  0  0  0  0
   -7.3520   -1.5350  -21.2261 N   0  0  0  0  0  0  0  0  0  0  0  0
   -6.5197   -1.0001  -20.2261 C   0  0  0  0  0  0  0  0  0  0  0  0
   -6.8413   -1.1341  -18.9046 C   0  0  0  0  0  0  0  0  0  0  0  0
   -6.0070   -0.7999  -17.8893 N   0  0  0  0  0  0  0  0  0  0  0  0
   -4.8413   -0.2898  -18.2121 C   0  0  0  0  0  0  0  0  0  0  0  0
   -4.4374   -0.0077  -19.5457 C   0  0  0  0  0  0  0  0  0  0  0  0
   -3.2744    0.7608  -19.8108 C   0  0  0  0  0  0  0  0  0  0  0  0
   -3.1596    1.4159  -21.0021 C   0  0  0  0  0  0  0  0  0  0  0  0
   -4.0590    1.1279  -22.0637 C   0  0  0  0  0  0  0  0  0  0  0  0
   -5.0922    0.2450  -21.8770 C   0  0  0  0  0  0  0  0  0  0  0  0
   -5.3351   -0.2953  -20.5859 C   0  0  0  0  0  0  0  0  0  0  0  0
   -5.7233   -0.0425  -22.7134 H   0  0  0  0  0  0  0  0  0  0  0  0
   -3.9023    1.5931  -23.0328 H   0  0  0  0  0  0  0  0  0  0  0  0
   -2.3163    2.0748  -21.1782 H   0  0  0  0  0  0  0  0  0  0  0  0
   -2.5734    0.9037  -18.9972 H   0  0  0  0  0  0  0  0  0  0  0  0
   -4.1904    0.0374  -17.3998 H   0  0  0  0  0  0  0  0  0  0  0  0
   -7.8182   -1.5287  -18.6339 H   0  0  0  0  0  0  0  0  0  0  0  0
   -6.9641   -2.6803  -22.0103 C   0  0  0  0  0  0  0  0  0  0  0  0
   -8.2586   -3.0418  -22.7414 C   0  0  2  0  0  0  0  0  0  0  0  0
   -8.0068   -3.7372  -24.0707 C   0  0  0  0  0  0  0  0  0  0  0  0
   -7.3165   -4.9895  -23.8842 N   0  0  0  0  0  0  0  0  0  0  0  0
   -6.8946   -5.7427  -24.9256 C   0  0  0  0  0  0  0  0  0  0  0  0
   -6.1849   -6.8409  -24.6043 N   0  0  0  0  0  0  0  0  0  0  0  0
   -5.7838   -7.5777  -25.6273 C   0  0  0  0  0  0  0  0  0  0  0  0
   -6.0744   -7.2844  -26.9543 C   0  0  0  0  0  0  0  0  0  0  0  0
   -6.7941   -6.1191  -27.1600 C   0  0  0  0  0  0  0  0  0  0  0  0
   -7.2004   -5.3279  -26.1677 N   0  0  0  0  0  0  0  0  0  0  0  0
   -7.0440   -5.8022  -28.1719 H   0  0  0  0  0  0  0  0  0  0  0  0
   -5.7648   -7.9323  -27.7652 H   0  0  0  0  0  0  0  0  0  0  0  0
   -5.2053   -8.4569  -25.3585 H   0  0  0  0  0  0  0  0  0  0  0  0
   -7.1522   -5.3666  -22.9661 H   0  0  0  0  0  0  0  0  0  0  0  0
   -7.3868   -3.1001  -24.7145 H   0  0  0  0  0  0  0  0  0  0  0  0
   -8.9530   -3.9134  -24.5952 H   0  0  0  0  0  0  0  0  0  0  0  0
   -8.8065   -3.7384  -22.1019 H   0  0  0  0  0  0  0  0  0  0  0  0
   -6.6187   -3.4790  -21.3470 H   0  0  0  0  0  0  0  0  0  0  0  0
   -6.1439   -2.4608  -22.7135 H   0  0  0  0  0  0  0  0  0  0  0  0
  -10.5134   -3.4759  -21.2191 H   0  0  0  0  0  0  0  0  0  0  0  0
  -14.4416   -2.6114  -22.6956 H   0  0  0  0  0  0  0  0  0  0  0  0
  -13.4742   -0.7803  -24.1301 H   0  0  0  0  0  0  0  0  0  0  0  0
  1  2  2  0
  2  3  1  0
  3  4  2  0
  4  5  1  0
  5  6  2  0
  6  7  1  0
  6  8  1  0
  8  9  2  0
  9 10  1  0
 10 11  1  6
 11 12  1  0
 12 13  1  0
 13 14  1  0
 14 15  1  0
 15 16  1  0
 16 17  1  0
 17 18  1  0
 18 19  1  0
 19 20  1  0
 20 21  1  0
 20 22  1  0
 19 23  1  0
 19 24  1  0
 17 25  1  0
 17 26  1  0
 16 27  1  0
 16 28  1  0
 15 29  1  0
 14 30  1  0
 14 31  1  0
 13 32  1  0
 13 33  1  0
 11 34  1  0
 11 35  1  0
 10 36  1  0
 36 37  2  0
 36 38  1  0
 38 39  1  0
 39 40  2  0
 40 41  1  0
 41 42  2  0
 42 43  1  0
 43 44  2  0
 44 45  1  0
 45 46  2  0
 46 47  1  0
 47 48  2  0
 47 49  1  0
 46 50  1  0
 45 51  1  0
 44 52  1  0
 42 53  1  0
 40 54  1  0
 38 55  1  0
 55 56  1  0
 56 57  1  0
 57 58  1  0
 58 59  1  0
 59 60  2  0
 60 61  1  0
 61 62  2  0
 62 63  1  0
 63 64  2  0
 63 65  1  0
 62 66  1  0
 61 67  1  0
 58 68  1  0
 57 69  1  0
 57 70  1  0
 56 71  1  1
 55 72  1  0
 55 73  1  0
  8 74  1  0
  5 75  1  0
  4 76  1  0
 12  2  1  0
 20 15  1  0
 48 39  1  0
 64 59  1  0
  9  3  1  0
 56 10  1  0
 48 43  1  0
M  CHG  1  15   1
M  END
>  <cnnaffinities>  (13) 
[6.5573, 7.06365, 6.81161]

>  <score>  (13) 
6.5573

>  <index>  (13) 
12

>  <Smiles>  (13) 
O=C1c2c(c(c(Cl)c(c2[C@@]2(C(N1C(C([N+]1(C(C(OC(C1([H])[H])([H])[H])([H])[H])([H])[H])[H])([H])[H])([H])[H])([H])[H])C(=O)N(c1c(nc(c3c(c(c(c(c13)[H])[H])[H])[H])[H])[H])C([C@@]2(C(N(c1nc(c(c(n1)[H])[H])[H])[H])([H])[H])[H])([H])[H])[H])[H])[H]

>  <h>  (13) 
<NA>

>  <Training>  (13) 
True

>  <Success>  (13) 
True

>  <enamine_searched>  (13) 
False

>  <enamine_id>  (13) 
nan

$$$$

     RDKit          3D

 69 74  0  0  0  0  0  0  0  0999 V2000
   -7.3370    3.2126  -21.6533 C   0  0  0  0  0  0  0  0  0  0  0  0
   -8.3335    2.7513  -22.6048 N   0  0  0  0  0  0  0  0  0  0  0  0
   -7.9437    2.1348  -23.7453 C   0  0  0  0  0  0  0  0  0  0  0  0
   -6.7608    1.9849  -24.0400 O   0  0  0  0  0  0  0  0  0  0  0  0
   -9.0628    1.6218  -24.6477 C   0  0  0  0  0  0  0  0  0  0  0  0
   -9.6805    0.4294  -24.0990 N   0  0  0  0  0  0  0  0  0  0  0  0
   -8.8822   -0.7879  -24.0730 C   0  0  0  0  0  0  0  0  0  0  0  0
   -9.1883   -1.6095  -22.7993 C   0  0  2  0  0  0  0  0  0  0  0  0
   -8.6302   -0.8876  -21.5443 C   0  0  0  0  0  0  0  0  0  0  0  0
   -9.0988    0.0608  -20.9491 O   0  0  0  0  0  0  0  0  0  0  0  0
   -7.4498   -1.5013  -21.2013 N   0  0  0  0  0  0  0  0  0  0  0  0
   -6.5923   -0.9902  -20.2037 C   0  0  0  0  0  0  0  0  0  0  0  0
   -6.8525   -1.2345  -18.8802 C   0  0  0  0  0  0  0  0  0  0  0  0
   -5.9657   -0.9881  -17.8856 N   0  0  0  0  0  0  0  0  0  0  0  0
   -4.8144   -0.4532  -18.2259 C   0  0  0  0  0  0  0  0  0  0  0  0
   -4.4743   -0.0451  -19.5493 C   0  0  0  0  0  0  0  0  0  0  0  0
   -3.3145    0.7304  -19.8330 C   0  0  0  0  0  0  0  0  0  0  0  0
   -3.2086    1.4041  -21.0174 C   0  0  0  0  0  0  0  0  0  0  0  0
   -4.1504    1.1820  -22.0513 C   0  0  0  0  0  0  0  0  0  0  0  0
   -5.2103    0.3318  -21.8472 C   0  0  0  0  0  0  0  0  0  0  0  0
   -5.4226   -0.2585  -20.5700 C   0  0  0  0  0  0  0  0  0  0  0  0
   -5.9272    0.1755  -22.6482 H   0  0  0  0  0  0  0  0  0  0  0  0
   -4.0362    1.6789  -23.0100 H   0  0  0  0  0  0  0  0  0  0  0  0
   -2.3598    2.0560  -21.1977 H   0  0  0  0  0  0  0  0  0  0  0  0
   -2.5958    0.8826  -19.0353 H   0  0  0  0  0  0  0  0  0  0  0  0
   -4.1017   -0.2625  -17.4238 H   0  0  0  0  0  0  0  0  0  0  0  0
   -7.8049   -1.6746  -18.5888 H   0  0  0  0  0  0  0  0  0  0  0  0
   -7.0711   -2.5966  -22.0691 C   0  0  0  0  0  0  0  0  0  0  0  0
   -8.3927   -2.9535  -22.7566 C   0  0  2  0  0  0  0  0  0  0  0  0
   -8.1854   -3.7008  -24.0717 C   0  0  0  0  0  0  0  0  0  0  0  0
   -9.4390   -4.0957  -24.6687 N   0  0  0  0  0  0  0  0  0  0  0  0
   -9.4714   -4.7529  -25.8563 C   0  0  0  0  0  0  0  0  0  0  0  0
  -10.6825   -5.2107  -26.4108 C   0  0  0  0  0  0  0  0  0  0  0  0
  -10.5972   -5.8121  -27.6446 C   0  0  0  0  0  0  0  0  0  0  0  0
   -9.4439   -5.9853  -28.3074 N   0  0  0  0  0  0  0  0  0  0  0  0
   -8.3527   -5.5543  -27.6770 C   0  0  0  0  0  0  0  0  0  0  0  0
   -7.0352   -5.7992  -28.3580 C   0  0  0  0  0  0  0  0  0  0  0  0
   -7.1615   -5.7558  -29.4429 H   0  0  0  0  0  0  0  0  0  0  0  0
   -6.6633   -6.7999  -28.1071 H   0  0  0  0  0  0  0  0  0  0  0  0
   -6.2953   -5.0662  -28.0289 H   0  0  0  0  0  0  0  0  0  0  0  0
   -8.3063   -4.9284  -26.4937 N   0  0  0  0  0  0  0  0  0  0  0  0
  -11.4939   -6.1787  -28.1440 H   0  0  0  0  0  0  0  0  0  0  0  0
  -11.6279   -5.1074  -25.8854 H   0  0  0  0  0  0  0  0  0  0  0  0
  -10.2899   -4.0422  -24.1287 H   0  0  0  0  0  0  0  0  0  0  0  0
   -7.5578   -4.5875  -23.9167 H   0  0  0  0  0  0  0  0  0  0  0  0
   -7.6409   -3.0791  -24.7932 H   0  0  0  0  0  0  0  0  0  0  0  0
   -8.9360   -3.6259  -22.0811 H   0  0  0  0  0  0  0  0  0  0  0  0
   -6.3063   -2.2882  -22.7999 H   0  0  0  0  0  0  0  0  0  0  0  0
   -6.6583   -3.4212  -21.4792 H   0  0  0  0  0  0  0  0  0  0  0  0
  -10.6900   -1.7702  -22.7114 C   0  0  0  0  0  0  0  0  0  0  0  0
  -11.2496   -2.7402  -21.8734 C   0  0  0  0  0  0  0  0  0  0  0  0
  -12.6121   -2.9739  -21.9053 C   0  0  0  0  0  0  0  0  0  0  0  0
  -13.3384   -3.9725  -20.6858 Cl  0  0  0  0  0  0  0  0  0  0  0  0
  -13.4425   -2.3287  -22.8201 C   0  0  0  0  0  0  0  0  0  0  0  0
  -12.9153   -1.2658  -23.5421 C   0  0  0  0  0  0  0  0  0  0  0  0
  -11.5671   -0.9245  -23.4083 C   0  0  0  0  0  0  0  0  0  0  0  0
  -11.0509    0.3665  -23.9867 C   0  0  0  0  0  0  0  0  0  0  0  0
  -11.7916    1.2821  -24.3163 O   0  0  0  0  0  0  0  0  0  0  0  0
  -13.5434   -0.6247  -24.1520 H   0  0  0  0  0  0  0  0  0  0  0  0
  -14.4996   -2.5875  -22.8505 H   0  0  0  0  0  0  0  0  0  0  0  0
  -10.6433   -3.3205  -21.1878 H   0  0  0  0  0  0  0  0  0  0  0  0
   -7.8226   -0.5135  -24.1078 H   0  0  0  0  0  0  0  0  0  0  0  0
   -9.1075   -1.4090  -24.9542 H   0  0  0  0  0  0  0  0  0  0  0  0
   -8.6206    1.4170  -25.6290 H   0  0  0  0  0  0  0  0  0  0  0  0
   -9.8624    2.3567  -24.7656 H   0  0  0  0  0  0  0  0  0  0  0  0
   -9.2865    2.6470  -22.2850 H   0  0  0  0  0  0  0  0  0  0  0  0
   -6.7686    2.3676  -21.2369 H   0  0  0  0  0  0  0  0  0  0  0  0
   -6.6327    3.8883  -22.1483 H   0  0  0  0  0  0  0  0  0  0  0  0
   -7.8328    3.7583  -20.8471 H   0  0  0  0  0  0  0  0  0  0  0  0
  1  2  1  0
  2  3  1  0
  3  4  2  0
  3  5  1  0
  5  6  1  0
  6  7  1  0
  8  7  1  6
  8  9  1  0
  9 10  2  0
  9 11  1  0
 11 12  1  0
 12 13  2  0
 13 14  1  0
 14 15  2  0
 15 16  1  0
 16 17  2  0
 17 18  1  0
 18 19  2  0
 19 20  1  0
 20 21  2  0
 20 22  1  0
 19 23  1  0
 18 24  1  0
 17 25  1  0
 15 26  1  0
 13 27  1  0
 11 28  1  0
 28 29  1  0
 29 30  1  0
 30 31  1  0
 31 32  1  0
 32 33  2  0
 33 34  1  0
 34 35  2  0
 35 36  1  0
 36 37  1  0
 37 38  1  0
 37 39  1  0
 37 40  1  0
 36 41  2  0
 34 42  1  0
 33 43  1  0
 31 44  1  0
 30 45  1  0
 30 46  1  0
 29 47  1  1
 28 48  1  0
 28 49  1  0
  8 50  1  0
 50 51  2  0
 51 52  1  0
 52 53  1  0
 52 54  2  0
 54 55  1  0
 55 56  2  0
 56 57  1  0
 57 58  2  0
 55 59  1  0
 54 60  1  0
 51 61  1  0
  7 62  1  0
  7 63  1  0
  5 64  1  0
  5 65  1  0
  2 66  1  0
  1 67  1  0
  1 68  1  0
  1 69  1  0
 57  6  1  0
 29  8  1  0
 41 32  1  0
 56 50  1  0
 21 12  1  0
 21 16  1  0
M  END
>  <cnnaffinities>  (14) 
[6.87428]

>  <score>  (14) 
6.87428

>  <index>  (14) 
13

>  <Smiles>  (14) 
C(N(C(=O)C(N1C([C@@]2(C(=O)N(c3c(nc(c4c(c(c(c(c34)[H])[H])[H])[H])[H])[H])C([C@@]2(C(N(c2c(c(nc(C([H])([H])[H])n2)[H])[H])[H])([H])[H])[H])([H])[H])c2c(c(Cl)c(c(c2C1=O)[H])[H])[H])([H])[H])([H])[H])[H])([H])([H])[H]

>  <h>  (14) 
<NA>

>  <Training>  (14) 
True

>  <Success>  (14) 
True

>  <enamine_searched>  (14) 
False

>  <enamine_id>  (14) 
nan

$$$$

     RDKit          3D

 73 78  0  0  0  0  0  0  0  0999 V2000
   -6.8307   -2.9494  -24.2019 C   0  0  0  0  0  0  0  0  0  0  0  0
   -7.9129   -2.8331  -23.1154 C   0  0  1  0  0  0  0  0  0  0  0  0
   -7.2750   -2.8068  -21.7059 C   0  0  0  0  0  0  0  0  0  0  0  0
   -7.5367   -1.4710  -21.1944 N   0  0  0  0  0  0  0  0  0  0  0  0
   -6.6345   -0.9788  -20.2014 C   0  0  0  0  0  0  0  0  0  0  0  0
   -6.7804   -1.3856  -18.8990 C   0  0  0  0  0  0  0  0  0  0  0  0
   -5.8670   -1.1861  -17.9185 N   0  0  0  0  0  0  0  0  0  0  0  0
   -4.7612   -0.5622  -18.2498 C   0  0  0  0  0  0  0  0  0  0  0  0
   -4.4898   -0.0572  -19.5499 C   0  0  0  0  0  0  0  0  0  0  0  0
   -3.3299    0.7311  -19.8071 C   0  0  0  0  0  0  0  0  0  0  0  0
   -3.2227    1.4344  -20.9740 C   0  0  0  0  0  0  0  0  0  0  0  0
   -4.1769    1.2383  -22.0018 C   0  0  0  0  0  0  0  0  0  0  0  0
   -5.2752    0.4434  -21.8003 C   0  0  0  0  0  0  0  0  0  0  0  0
   -5.4809   -0.2040  -20.5458 C   0  0  0  0  0  0  0  0  0  0  0  0
   -6.0230    0.3370  -22.5782 H   0  0  0  0  0  0  0  0  0  0  0  0
   -4.0408    1.7458  -22.9532 H   0  0  0  0  0  0  0  0  0  0  0  0
   -2.3755    2.0945  -21.1396 H   0  0  0  0  0  0  0  0  0  0  0  0
   -2.6391    0.8927  -18.9852 H   0  0  0  0  0  0  0  0  0  0  0  0
   -4.0148   -0.4049  -17.4717 H   0  0  0  0  0  0  0  0  0  0  0  0
   -7.6930   -1.8970  -18.5982 H   0  0  0  0  0  0  0  0  0  0  0  0
   -8.2454   -0.6876  -22.0666 C   0  0  0  0  0  0  0  0  0  0  0  0
   -8.3445    0.5295  -21.9915 O   0  0  0  0  0  0  0  0  0  0  0  0
   -8.8177   -1.5508  -23.2060 C   0  0  1  0  0  0  0  0  0  0  0  0
   -8.6628   -0.8085  -24.5727 C   0  0  0  0  0  0  0  0  0  0  0  0
   -9.7016    0.1771  -24.8173 N   0  0  0  0  0  0  0  0  0  0  0  0
   -9.3967    1.4736  -25.4133 C   0  0  0  0  0  0  0  0  0  0  0  0
   -9.4129    2.6081  -24.3837 C   0  0  0  0  0  0  0  0  0  0  0  0
   -8.1304    2.7044  -23.6247 N   0  0  0  0  0  4  0  0  0  0  0  0
   -8.2900    3.4943  -22.3734 C   0  0  0  0  0  0  0  0  0  0  0  0
   -6.9793    3.6579  -21.6067 C   0  0  0  0  0  0  0  0  0  0  0  0
   -5.8961    4.1180  -22.4857 N   0  0  0  0  0  0  0  0  0  0  0  0
   -4.5738    4.8560  -21.8079 S   0  0  0  0  0  0  0  0  0  0  0  0
   -3.4455    4.6199  -22.6923 O   0  0  0  0  0  0  0  0  0  0  0  0
   -4.5316    4.4894  -20.4046 O   0  0  0  0  0  0  0  0  0  0  0  0
   -4.9226    6.6086  -21.8655 C   0  0  0  0  0  0  0  0  0  0  0  0
   -4.1202    7.1063  -21.3126 H   0  0  0  0  0  0  0  0  0  0  0  0
   -5.8827    6.8030  -21.3806 H   0  0  0  0  0  0  0  0  0  0  0  0
   -4.9227    6.9491  -22.9043 H   0  0  0  0  0  0  0  0  0  0  0  0
   -6.2746    4.4160  -23.8635 C   0  0  0  0  0  0  0  0  0  0  0  0
   -6.9983    3.2149  -24.4784 C   0  0  0  0  0  0  0  0  0  0  0  0
   -6.2984    2.3889  -24.6505 H   0  0  0  0  0  0  0  0  0  0  0  0
   -7.4132    3.5111  -25.4457 H   0  0  0  0  0  0  0  0  0  0  0  0
   -6.9211    5.3078  -23.9096 H   0  0  0  0  0  0  0  0  0  0  0  0
   -5.3723    4.6166  -24.4421 H   0  0  0  0  0  0  0  0  0  0  0  0
   -7.1343    4.3778  -20.7972 H   0  0  0  0  0  0  0  0  0  0  0  0
   -6.6626    2.7016  -21.1627 H   0  0  0  0  0  0  0  0  0  0  0  0
   -8.7318    4.4760  -22.5994 H   0  0  0  0  0  0  0  0  0  0  0  0
   -8.9944    2.9363  -21.7610 H   0  0  0  0  0  0  0  0  0  0  0  0
   -7.9330    1.7489  -23.2839 H   0  0  0  0  0  0  0  0  0  0  0  0
  -10.2328    2.4464  -23.6739 H   0  0  0  0  0  0  0  0  0  0  0  0
   -9.6062    3.5651  -24.8844 H   0  0  0  0  0  0  0  0  0  0  0  0
  -10.1521    1.6642  -26.1798 H   0  0  0  0  0  0  0  0  0  0  0  0
   -8.4141    1.4133  -25.8956 H   0  0  0  0  0  0  0  0  0  0  0  0
  -11.0145   -0.0819  -24.5662 C   0  0  0  0  0  0  0  0  0  0  0  0
  -11.9184    0.6332  -24.9770 O   0  0  0  0  0  0  0  0  0  0  0  0
  -11.3059   -1.2406  -23.6806 C   0  0  0  0  0  0  0  0  0  0  0  0
  -12.6370   -1.6394  -23.5771 C   0  0  0  0  0  0  0  0  0  0  0  0
  -13.0033   -2.5682  -22.6305 C   0  0  0  0  0  0  0  0  0  0  0  0
  -12.0292   -3.0741  -21.7769 C   0  0  0  0  0  0  0  0  0  0  0  0
  -12.6420   -4.1443  -20.5533 Cl  0  0  0  0  0  0  0  0  0  0  0  0
  -10.6888   -2.7470  -21.9208 C   0  0  0  0  0  0  0  0  0  0  0  0
  -10.2972   -1.8490  -22.9329 C   0  0  0  0  0  0  0  0  0  0  0  0
   -9.9548   -3.1904  -21.2578 H   0  0  0  0  0  0  0  0  0  0  0  0
  -14.0266   -2.9036  -22.4948 H   0  0  0  0  0  0  0  0  0  0  0  0
  -13.3674   -1.2006  -24.2511 H   0  0  0  0  0  0  0  0  0  0  0  0
   -8.6556   -1.5422  -25.3945 H   0  0  0  0  0  0  0  0  0  0  0  0
   -7.7072   -0.2715  -24.5882 H   0  0  0  0  0  0  0  0  0  0  0  0
   -6.1872   -2.9517  -21.7319 H   0  0  0  0  0  0  0  0  0  0  0  0
   -7.6827   -3.5720  -21.0350 H   0  0  0  0  0  0  0  0  0  0  0  0
   -8.5481   -3.7180  -23.2123 H   0  0  0  0  0  0  0  0  0  0  0  0
   -7.2701   -3.0413  -25.1990 H   0  0  0  0  0  0  0  0  0  0  0  0
   -6.2160   -3.8411  -24.0410 H   0  0  0  0  0  0  0  0  0  0  0  0
   -6.1587   -2.0836  -24.2044 H   0  0  0  0  0  0  0  0  0  0  0  0
  1  2  1  0
  2  3  1  0
  3  4  1  0
  4  5  1  0
  5  6  2  0
  6  7  1  0
  7  8  2  0
  8  9  1  0
  9 10  2  0
 10 11  1  0
 11 12  2  0
 12 13  1  0
 13 14  2  0
 13 15  1  0
 12 16  1  0
 11 17  1  0
 10 18  1  0
  8 19  1  0
  6 20  1  0
  4 21  1  0
 21 22  2  0
 21 23  1  0
 23 24  1  6
 24 25  1  0
 25 26  1  0
 26 27  1  0
 27 28  1  0
 28 29  1  0
 29 30  1  0
 30 31  1  0
 31 32  1  0
 32 33  2  0
 32 34  2  0
 32 35  1  0
 35 36  1  0
 35 37  1  0
 35 38  1  0
 31 39  1  0
 39 40  1  0
 40 41  1  0
 40 42  1  0
 39 43  1  0
 39 44  1  0
 30 45  1  0
 30 46  1  0
 29 47  1  0
 29 48  1  0
 28 49  1  0
 27 50  1  0
 27 51  1  0
 26 52  1  0
 26 53  1  0
 25 54  1  0
 54 55  2  0
 54 56  1  0
 56 57  2  0
 57 58  1  0
 58 59  2  0
 59 60  1  0
 59 61  1  0
 61 62  2  0
 61 63  1  0
 58 64  1  0
 57 65  1  0
 24 66  1  0
 24 67  1  0
  3 68  1  0
  3 69  1  0
  2 70  1  1
  1 71  1  0
  1 72  1  0
  1 73  1  0
 23  2  1  0
 40 28  1  0
 62 56  1  0
 14  5  1  0
 62 23  1  0
 14  9  1  0
M  CHG  1  28   1
M  END
>  <cnnaffinities>  (15) 
[6.22148, 6.80387]

>  <score>  (15) 
6.22148

>  <index>  (15) 
14

>  <Smiles>  (15) 
C([C@]1(C(N(c2c(nc(c3c(c(c(c(c23)[H])[H])[H])[H])[H])[H])C(=O)[C@]21C(N(C(C([N+]1(C(C(N(S(=O)(=O)C([H])([H])[H])C(C1([H])[H])([H])[H])([H])[H])([H])[H])[H])([H])[H])([H])[H])C(=O)c1c(c(c(Cl)c(c21)[H])[H])[H])([H])[H])([H])[H])[H])([H])([H])[H]

>  <h>  (15) 
<NA>

>  <Training>  (15) 
True

>  <Success>  (15) 
True

>  <enamine_searched>  (15) 
False

>  <enamine_id>  (15) 
nan

$$$$

     RDKit          3D

 63 68  0  0  0  0  0  0  0  0999 V2000
   -7.3388    3.2446  -21.7039 C   0  0  0  0  0  0  0  0  0  0  0  0
   -8.3181    2.8188  -22.6900 N   0  0  0  0  0  0  0  0  0  0  0  0
   -7.8593    2.1694  -23.7922 C   0  0  0  0  0  0  0  0  0  0  0  0
   -6.6642    2.0264  -24.0013 O   0  0  0  0  0  0  0  0  0  0  0  0
   -8.8959    1.6092  -24.7689 C   0  0  0  0  0  0  0  0  0  0  0  0
   -9.5116    0.4026  -24.2495 N   0  0  0  0  0  0  0  0  0  0  0  0
   -8.7081   -0.8084  -24.1438 C   0  0  0  0  0  0  0  0  0  0  0  0
   -9.0569   -1.6019  -22.8558 C   0  0  2  0  0  0  0  0  0  0  0  0
   -8.5235   -0.8499  -21.6171 C   0  0  0  0  0  0  0  0  0  0  0  0
   -8.9832    0.1397  -21.0817 O   0  0  0  0  0  0  0  0  0  0  0  0
   -7.3770   -1.4830  -21.1990 N   0  0  0  0  0  0  0  0  0  0  0  0
   -6.5462   -0.9439  -20.1961 C   0  0  0  0  0  0  0  0  0  0  0  0
   -6.8297   -1.1484  -18.8717 C   0  0  0  0  0  0  0  0  0  0  0  0
   -5.9674   -0.8632  -17.8616 N   0  0  0  0  0  0  0  0  0  0  0  0
   -4.7953   -0.3721  -18.2017 C   0  0  0  0  0  0  0  0  0  0  0  0
   -4.4257   -0.0271  -19.5387 C   0  0  0  0  0  0  0  0  0  0  0  0
   -3.2530    0.7236  -19.8315 C   0  0  0  0  0  0  0  0  0  0  0  0
   -3.1466    1.4094  -21.0088 C   0  0  0  0  0  0  0  0  0  0  0  0
   -4.0851    1.1876  -22.0471 C   0  0  0  0  0  0  0  0  0  0  0  0
   -5.1134    0.2969  -21.8600 C   0  0  0  0  0  0  0  0  0  0  0  0
   -5.3652   -0.2356  -20.5669 C   0  0  0  0  0  0  0  0  0  0  0  0
   -5.7769    0.0337  -22.6783 H   0  0  0  0  0  0  0  0  0  0  0  0
   -3.9722    1.6684  -23.0101 H   0  0  0  0  0  0  0  0  0  0  0  0
   -2.2815    2.0340  -21.2043 H   0  0  0  0  0  0  0  0  0  0  0  0
   -2.5192    0.8465  -19.0429 H   0  0  0  0  0  0  0  0  0  0  0  0
   -4.0919   -0.1532  -17.3957 H   0  0  0  0  0  0  0  0  0  0  0  0
   -7.8069   -1.5344  -18.5812 H   0  0  0  0  0  0  0  0  0  0  0  0
   -6.9833   -2.6312  -21.9843 C   0  0  0  0  0  0  0  0  0  0  0  0
   -8.2700   -2.9437  -22.7528 C   0  0  2  0  0  0  0  0  0  0  0  0
   -8.0082   -3.6813  -24.0668 C   0  0  0  0  0  0  0  0  0  0  0  0
   -7.4385   -4.9958  -23.8340 N   0  0  0  0  0  0  0  0  0  0  0  0
   -8.0989   -6.1382  -23.5325 C   0  0  0  0  0  0  0  0  0  0  0  0
   -7.1423   -7.0992  -23.2892 C   0  0  0  0  0  0  0  0  0  0  0  0
   -5.9188   -6.4204  -23.4597 C   0  0  0  0  0  0  0  0  0  0  0  0
   -6.1072   -5.1428  -23.7739 N   0  0  0  0  0  0  0  0  0  0  0  0
   -4.9102   -6.8085  -23.3837 H   0  0  0  0  0  0  0  0  0  0  0  0
   -7.3003   -8.1423  -23.0495 H   0  0  0  0  0  0  0  0  0  0  0  0
   -9.1822   -6.1892  -23.5136 H   0  0  0  0  0  0  0  0  0  0  0  0
   -7.2870   -3.1268  -24.6756 H   0  0  0  0  0  0  0  0  0  0  0  0
   -8.9396   -3.7922  -24.6319 H   0  0  0  0  0  0  0  0  0  0  0  0
   -8.8563   -3.6080  -22.1119 H   0  0  0  0  0  0  0  0  0  0  0  0
   -6.1346   -2.4174  -22.6569 H   0  0  0  0  0  0  0  0  0  0  0  0
   -6.6725   -3.4631  -21.3421 H   0  0  0  0  0  0  0  0  0  0  0  0
  -10.5626   -1.7501  -22.7967 C   0  0  0  0  0  0  0  0  0  0  0  0
  -11.1582   -2.7069  -21.9667 C   0  0  0  0  0  0  0  0  0  0  0  0
  -12.5197   -2.9212  -22.0285 C   0  0  0  0  0  0  0  0  0  0  0  0
  -13.2514   -4.0275  -20.9083 Cl  0  0  0  0  0  0  0  0  0  0  0  0
  -13.3238   -2.2578  -22.9561 C   0  0  0  0  0  0  0  0  0  0  0  0
  -12.7581   -1.2304  -23.6909 C   0  0  0  0  0  0  0  0  0  0  0  0
  -11.4064   -0.9261  -23.5546 C   0  0  0  0  0  0  0  0  0  0  0  0
  -10.8777    0.3292  -24.1851 C   0  0  0  0  0  0  0  0  0  0  0  0
  -11.6140    1.2119  -24.6030 O   0  0  0  0  0  0  0  0  0  0  0  0
  -13.3639   -0.6224  -24.3524 H   0  0  0  0  0  0  0  0  0  0  0  0
  -14.3763   -2.5038  -23.0390 H   0  0  0  0  0  0  0  0  0  0  0  0
  -10.5721   -3.3022  -21.2745 H   0  0  0  0  0  0  0  0  0  0  0  0
   -8.8828   -1.4432  -25.0252 H   0  0  0  0  0  0  0  0  0  0  0  0
   -7.6514   -0.5267  -24.1396 H   0  0  0  0  0  0  0  0  0  0  0  0
   -9.7048    2.3153  -24.9762 H   0  0  0  0  0  0  0  0  0  0  0  0
   -8.3786    1.4019  -25.7129 H   0  0  0  0  0  0  0  0  0  0  0  0
   -9.2664    2.6698  -22.3751 H   0  0  0  0  0  0  0  0  0  0  0  0
   -6.7312    2.3922  -21.3703 H   0  0  0  0  0  0  0  0  0  0  0  0
   -7.8539    3.6872  -20.8528 H   0  0  0  0  0  0  0  0  0  0  0  0
   -6.6766    3.9987  -22.1383 H   0  0  0  0  0  0  0  0  0  0  0  0
  1  2  1  0
  2  3  1  0
  3  4  2  0
  3  5  1  0
  5  6  1  0
  6  7  1  0
  8  7  1  6
  8  9  1  0
  9 10  2  0
  9 11  1  0
 11 12  1  0
 12 13  2  0
 13 14  1  0
 14 15  2  0
 15 16  1  0
 16 17  2  0
 17 18  1  0
 18 19  2  0
 19 20  1  0
 20 21  2  0
 20 22  1  0
 19 23  1  0
 18 24  1  0
 17 25  1  0
 15 26  1  0
 13 27  1  0
 11 28  1  0
 28 29  1  0
 29 30  1  0
 30 31  1  0
 31 32  1  0
 32 33  2  0
 33 34  1  0
 34 35  2  0
 34 36  1  0
 33 37  1  0
 32 38  1  0
 30 39  1  0
 30 40  1  0
 29 41  1  1
 28 42  1  0
 28 43  1  0
  8 44  1  0
 44 45  2  0
 45 46  1  0
 46 47  1  0
 46 48  2  0
 48 49  1  0
 49 50  2  0
 50 51  1  0
 51 52  2  0
 49 53  1  0
 48 54  1  0
 45 55  1  0
  7 56  1  0
  7 57  1  0
  5 58  1  0
  5 59  1  0
  2 60  1  0
  1 61  1  0
  1 62  1  0
  1 63  1  0
 51  6  1  0
 29  8  1  0
 35 31  1  0
 50 44  1  0
 21 12  1  0
 21 16  1  0
M  END
>  <cnnaffinities>  (16) 
[6.90336, 6.88886]

>  <score>  (16) 
6.90336

>  <index>  (16) 
15

>  <Smiles>  (16) 
C(N(C(=O)C(N1C([C@@]2(C(=O)N(c3c(nc(c4c(c(c(c(c34)[H])[H])[H])[H])[H])[H])C([C@@]2(C(n2c(c(c(n2)[H])[H])[H])([H])[H])[H])([H])[H])c2c(c(Cl)c(c(c2C1=O)[H])[H])[H])([H])[H])([H])[H])[H])([H])([H])[H]

>  <h>  (16) 
<NA>

>  <Training>  (16) 
True

>  <Success>  (16) 
True

>  <enamine_searched>  (16) 
False

>  <enamine_id>  (16) 
nan

$$$$

     RDKit          3D

 61 66  0  0  0  0  0  0  0  0999 V2000
   -7.2884    3.3156  -21.8005 C   0  0  0  0  0  0  0  0  0  0  0  0
   -8.1810    2.8799  -22.8626 N   0  0  0  0  0  0  0  0  0  0  0  0
   -7.6475    2.2125  -23.9200 C   0  0  0  0  0  0  0  0  0  0  0  0
   -6.4436    2.0702  -24.0603 O   0  0  0  0  0  0  0  0  0  0  0  0
   -8.6479    1.6417  -24.9328 C   0  0  0  0  0  0  0  0  0  0  0  0
   -9.3369    0.4846  -24.3871 N   0  0  0  0  0  0  0  0  0  0  0  0
   -8.5911   -0.7550  -24.2146 C   0  0  0  0  0  0  0  0  0  0  0  0
   -9.0175   -1.5106  -22.9242 C   0  0  2  0  0  0  0  0  0  0  0  0
   -8.4908   -0.7747  -21.6700 C   0  0  0  0  0  0  0  0  0  0  0  0
   -8.9047    0.2517  -21.1710 O   0  0  0  0  0  0  0  0  0  0  0  0
   -7.4079   -1.4727  -21.1859 N   0  0  0  0  0  0  0  0  0  0  0  0
   -6.5600   -0.9416  -20.1879 C   0  0  0  0  0  0  0  0  0  0  0  0
   -6.8383   -1.1512  -18.8614 C   0  0  0  0  0  0  0  0  0  0  0  0
   -5.9622   -0.8948  -17.8565 N   0  0  0  0  0  0  0  0  0  0  0  0
   -4.7911   -0.4030  -18.1979 C   0  0  0  0  0  0  0  0  0  0  0  0
   -4.4336   -0.0307  -19.5293 C   0  0  0  0  0  0  0  0  0  0  0  0
   -3.2570    0.7151  -19.8201 C   0  0  0  0  0  0  0  0  0  0  0  0
   -3.1467    1.4011  -21.0001 C   0  0  0  0  0  0  0  0  0  0  0  0
   -4.0880    1.1876  -22.0378 C   0  0  0  0  0  0  0  0  0  0  0  0
   -5.1224    0.3058  -21.8511 C   0  0  0  0  0  0  0  0  0  0  0  0
   -5.3745   -0.2378  -20.5582 C   0  0  0  0  0  0  0  0  0  0  0  0
   -5.7731    0.0389  -22.6783 H   0  0  0  0  0  0  0  0  0  0  0  0
   -3.9777    1.6869  -22.9939 H   0  0  0  0  0  0  0  0  0  0  0  0
   -2.2780    2.0207  -21.1933 H   0  0  0  0  0  0  0  0  0  0  0  0
   -2.5092    0.8221  -19.0465 H   0  0  0  0  0  0  0  0  0  0  0  0
   -4.0740   -0.2187  -17.3965 H   0  0  0  0  0  0  0  0  0  0  0  0
   -7.8085   -1.5449  -18.5599 H   0  0  0  0  0  0  0  0  0  0  0  0
   -7.0461   -2.6452  -21.9499 C   0  0  0  0  0  0  0  0  0  0  0  0
   -8.3006   -2.8900  -22.7910 C   0  0  2  0  0  0  0  0  0  0  0  0
   -7.9814   -3.6385  -24.0868 C   0  0  0  0  0  0  0  0  0  0  0  0
   -7.4594   -4.9639  -23.8057 N   0  0  0  0  0  0  0  0  0  0  0  0
   -8.2229   -5.9984  -23.5092 N   0  0  0  0  0  0  0  0  0  0  0  0
   -7.3125   -6.9292  -23.2675 C   0  0  0  0  0  0  0  0  0  0  0  0
   -6.0514   -6.4683  -23.3908 N   0  0  0  0  0  0  0  0  0  0  0  0
   -6.1707   -5.2136  -23.7313 N   0  0  0  0  0  0  0  0  0  0  0  0
   -7.5577   -7.9501  -23.0175 H   0  0  0  0  0  0  0  0  0  0  0  0
   -8.8727   -3.7611  -24.7029 H   0  0  0  0  0  0  0  0  0  0  0  0
   -7.2131   -3.1137  -24.6587 H   0  0  0  0  0  0  0  0  0  0  0  0
   -8.9515   -3.5434  -22.2072 H   0  0  0  0  0  0  0  0  0  0  0  0
   -6.8109   -3.4999  -21.3056 H   0  0  0  0  0  0  0  0  0  0  0  0
   -6.1570   -2.4742  -22.5788 H   0  0  0  0  0  0  0  0  0  0  0  0
  -10.5284   -1.5907  -22.9085 C   0  0  0  0  0  0  0  0  0  0  0  0
  -11.1799   -2.5079  -22.0743 C   0  0  0  0  0  0  0  0  0  0  0  0
  -12.5416   -2.7075  -22.2136 C   0  0  0  0  0  0  0  0  0  0  0  0
  -13.3357   -3.8627  -21.1867 Cl  0  0  0  0  0  0  0  0  0  0  0  0
  -13.2772   -2.0157  -23.1738 C   0  0  0  0  0  0  0  0  0  0  0  0
  -12.6660   -1.0031  -23.8829 C   0  0  0  0  0  0  0  0  0  0  0  0
  -11.3074   -0.7442  -23.7067 C   0  0  0  0  0  0  0  0  0  0  0  0
  -10.7052    0.4803  -24.3325 C   0  0  0  0  0  0  0  0  0  0  0  0
  -11.3904    1.4030  -24.7564 O   0  0  0  0  0  0  0  0  0  0  0  0
  -13.2249   -0.4018  -24.5903 H   0  0  0  0  0  0  0  0  0  0  0  0
  -14.3337   -2.2292  -23.3028 H   0  0  0  0  0  0  0  0  0  0  0  0
  -10.6504   -3.0594  -21.3063 H   0  0  0  0  0  0  0  0  0  0  0  0
   -7.5238   -0.5142  -24.1743 H   0  0  0  0  0  0  0  0  0  0  0  0
   -8.7628   -1.4093  -25.0828 H   0  0  0  0  0  0  0  0  0  0  0  0
   -8.0888    1.3785  -25.8384 H   0  0  0  0  0  0  0  0  0  0  0  0
   -9.4183    2.3696  -25.2071 H   0  0  0  0  0  0  0  0  0  0  0  0
   -9.1503    2.7207  -22.6270 H   0  0  0  0  0  0  0  0  0  0  0  0
   -6.5628    4.0288  -22.2007 H   0  0  0  0  0  0  0  0  0  0  0  0
   -7.8689    3.8101  -21.0211 H   0  0  0  0  0  0  0  0  0  0  0  0
   -6.7348    2.4673  -21.3716 H   0  0  0  0  0  0  0  0  0  0  0  0
  1  2  1  0
  2  3  1  0
  3  4  2  0
  3  5  1  0
  5  6  1  0
  6  7  1  0
  8  7  1  6
  8  9  1  0
  9 10  2  0
  9 11  1  0
 11 12  1  0
 12 13  2  0
 13 14  1  0
 14 15  2  0
 15 16  1  0
 16 17  2  0
 17 18  1  0
 18 19  2  0
 19 20  1  0
 20 21  2  0
 20 22  1  0
 19 23  1  0
 18 24  1  0
 17 25  1  0
 15 26  1  0
 13 27  1  0
 11 28  1  0
 28 29  1  0
 29 30  1  0
 30 31  1  0
 31 32  1  0
 32 33  2  0
 33 34  1  0
 34 35  2  0
 33 36  1  0
 30 37  1  0
 30 38  1  0
 29 39  1  1
 28 40  1  0
 28 41  1  0
  8 42  1  0
 42 43  2  0
 43 44  1  0
 44 45  1  0
 44 46  2  0
 46 47  1  0
 47 48  2  0
 48 49  1  0
 49 50  2  0
 47 51  1  0
 46 52  1  0
 43 53  1  0
  7 54  1  0
  7 55  1  0
  5 56  1  0
  5 57  1  0
  2 58  1  0
  1 59  1  0
  1 60  1  0
  1 61  1  0
 49  6  1  0
 29  8  1  0
 35 31  1  0
 48 42  1  0
 21 12  1  0
 21 16  1  0
M  END
>  <cnnaffinities>  (17) 
[6.91683, 6.92761]

>  <score>  (17) 
6.91683

>  <index>  (17) 
16

>  <Smiles>  (17) 
C(N(C(=O)C(N1C([C@@]2(C(=O)N(c3c(nc(c4c(c(c(c(c34)[H])[H])[H])[H])[H])[H])C([C@@]2(C(n2nc(nn2)[H])([H])[H])[H])([H])[H])c2c(c(Cl)c(c(c2C1=O)[H])[H])[H])([H])[H])([H])[H])[H])([H])([H])[H]

>  <h>  (17) 
<NA>

>  <Training>  (17) 
True

>  <Success>  (17) 
True

>  <enamine_searched>  (17) 
False

>  <enamine_id>  (17) 
nan

$$$$

     RDKit          3D

 38 41  0  0  0  0  0  0  0  0999 V2000
  -10.8346   -4.6599  -22.9597 C   0  0  0  0  0  0  0  0  0  0  0  0
  -10.5835   -3.4243  -23.8287 C   0  0  2  0  0  0  0  0  0  0  0  0
   -9.4011   -3.6494  -24.7832 C   0  0  0  0  0  0  0  0  0  0  0  0
   -8.0849   -3.8474  -24.0218 C   0  0  0  0  0  0  0  0  0  0  0  0
   -7.9619   -2.8581  -22.9528 C   0  0  0  0  0  0  0  0  0  0  0  0
   -6.8017   -2.5541  -22.1669 C   0  0  0  0  0  0  0  0  0  0  0  0
   -5.6728   -2.9944  -22.2253 O   0  0  0  0  0  1  0  0  0  0  0  0
   -7.2624   -1.5683  -21.2582 N   0  0  0  0  0  0  0  0  0  0  0  0
   -6.4917   -1.0017  -20.2287 C   0  0  0  0  0  0  0  0  0  0  0  0
   -6.8287   -1.1479  -18.9095 C   0  0  0  0  0  0  0  0  0  0  0  0
   -5.9961   -0.8365  -17.8922 N   0  0  0  0  0  0  0  0  0  0  0  0
   -4.8262   -0.3277  -18.2096 C   0  0  0  0  0  0  0  0  0  0  0  0
   -4.4240   -0.0214  -19.5348 C   0  0  0  0  0  0  0  0  0  0  0  0
   -3.2477    0.7185  -19.8051 C   0  0  0  0  0  0  0  0  0  0  0  0
   -3.1434    1.4145  -20.9739 C   0  0  0  0  0  0  0  0  0  0  0  0
   -4.0635    1.1957  -22.0319 C   0  0  0  0  0  0  0  0  0  0  0  0
   -5.1066    0.3214  -21.8517 C   0  0  0  0  0  0  0  0  0  0  0  0
   -5.3340   -0.2548  -20.5711 C   0  0  0  0  0  0  0  0  0  0  0  0
   -5.7404    0.0449  -22.6876 H   0  0  0  0  0  0  0  0  0  0  0  0
   -3.9042    1.6663  -23.0003 H   0  0  0  0  0  0  0  0  0  0  0  0
   -2.2744    2.0362  -21.1575 H   0  0  0  0  0  0  0  0  0  0  0  0
   -2.5379    0.8309  -18.9903 H   0  0  0  0  0  0  0  0  0  0  0  0
   -4.1632   -0.0717  -17.3891 H   0  0  0  0  0  0  0  0  0  0  0  0
   -7.8070   -1.5472  -18.6461 H   0  0  0  0  0  0  0  0  0  0  0  0
   -8.5883   -1.2241  -21.5096 C   0  0  0  0  0  0  0  0  0  0  0  0
   -9.2172   -0.3445  -20.9682 O   0  0  0  0  0  0  0  0  0  0  0  0
   -8.9939   -2.0899  -22.5137 N   0  0  0  0  0  0  0  0  0  0  0  0
  -10.3658   -2.1453  -23.0095 C   0  0  0  0  0  0  0  0  0  0  0  0
  -10.5725   -1.2560  -23.6190 H   0  0  0  0  0  0  0  0  0  0  0  0
  -11.0369   -2.1048  -22.1460 H   0  0  0  0  0  0  0  0  0  0  0  0
   -7.2257   -3.7531  -24.6952 H   0  0  0  0  0  0  0  0  0  0  0  0
   -8.0107   -4.8592  -23.5953 H   0  0  0  0  0  0  0  0  0  0  0  0
   -9.5979   -4.5211  -25.4199 H   0  0  0  0  0  0  0  0  0  0  0  0
   -9.2966   -2.7761  -25.4382 H   0  0  0  0  0  0  0  0  0  0  0  0
  -11.4842   -3.2614  -24.4344 H   0  0  0  0  0  0  0  0  0  0  0  0
  -10.9022   -5.5425  -23.6074 H   0  0  0  0  0  0  0  0  0  0  0  0
  -10.0246   -4.8274  -22.2387 H   0  0  0  0  0  0  0  0  0  0  0  0
  -11.7732   -4.5724  -22.3995 H   0  0  0  0  0  0  0  0  0  0  0  0
  1  2  1  0
  2  3  1  0
  3  4  1  0
  4  5  1  0
  5  6  2  0
  6  7  1  0
  6  8  1  0
  8  9  1  0
  9 10  2  0
 10 11  1  0
 11 12  2  0
 12 13  1  0
 13 14  2  0
 14 15  1  0
 15 16  2  0
 16 17  1  0
 17 18  2  0
 17 19  1  0
 16 20  1  0
 15 21  1  0
 14 22  1  0
 12 23  1  0
 10 24  1  0
  8 25  1  0
 25 26  2  0
 25 27  1  0
 27 28  1  0
 28 29  1  0
 28 30  1  0
  4 31  1  0
  4 32  1  0
  3 33  1  0
  3 34  1  0
  2 35  1  6
  1 36  1  0
  1 37  1  0
  1 38  1  0
 28  2  1  0
 27  5  1  0
 18  9  1  0
 18 13  1  0
M  CHG  1   7  -1
M  END
>  <cnnaffinities>  (18) 
[5.27927, 5.57057, 5.30777, 5.25907, 5.51135]

>  <score>  (18) 
5.27927

>  <index>  (18) 
17

>  <Smiles>  (18) 
C([C@@]1(C(C(c2c([O-])n(c3c(nc(c4c(c(c(c(c34)[H])[H])[H])[H])[H])[H])c(=O)n2C1([H])[H])([H])[H])([H])[H])[H])([H])([H])[H]

>  <h>  (18) 
<NA>

>  <Training>  (18) 
True

>  <Success>  (18) 
True

>  <enamine_searched>  (18) 
False

>  <enamine_id>  (18) 
nan

$$$$

     RDKit          3D

 56 61  0  0  0  0  0  0  0  0999 V2000
  -10.2085   -2.9395  -22.0405 C   0  0  0  0  0  0  0  0  0  0  0  0
   -9.1493   -2.0183  -22.6645 C   0  0  1  0  0  0  0  0  0  0  0  0
   -8.6320   -1.0003  -21.6207 C   0  0  0  0  0  0  0  0  0  0  0  0
   -7.3839   -1.5773  -21.1703 N   0  0  0  0  0  0  0  0  0  0  0  0
   -6.5391   -1.0416  -20.1684 C   0  0  0  0  0  0  0  0  0  0  0  0
   -6.7896   -1.2701  -18.8417 C   0  0  0  0  0  0  0  0  0  0  0  0
   -5.8981   -1.0222  -17.8500 N   0  0  0  0  0  0  0  0  0  0  0  0
   -4.7540   -0.4766  -18.1973 C   0  0  0  0  0  0  0  0  0  0  0  0
   -4.4343   -0.0659  -19.5231 C   0  0  0  0  0  0  0  0  0  0  0  0
   -3.2862    0.7260  -19.8024 C   0  0  0  0  0  0  0  0  0  0  0  0
   -3.1896    1.4039  -20.9860 C   0  0  0  0  0  0  0  0  0  0  0  0
   -4.1396    1.1825  -22.0145 C   0  0  0  0  0  0  0  0  0  0  0  0
   -5.1901    0.3252  -21.8163 C   0  0  0  0  0  0  0  0  0  0  0  0
   -5.3874   -0.2795  -20.5374 C   0  0  0  0  0  0  0  0  0  0  0  0
   -5.8982    0.1311  -22.6200 H   0  0  0  0  0  0  0  0  0  0  0  0
   -4.0049    1.6719  -22.9721 H   0  0  0  0  0  0  0  0  0  0  0  0
   -2.3481    2.0684  -21.1668 H   0  0  0  0  0  0  0  0  0  0  0  0
   -2.5603    0.8804  -19.0076 H   0  0  0  0  0  0  0  0  0  0  0  0
   -4.0304   -0.2958  -17.4024 H   0  0  0  0  0  0  0  0  0  0  0  0
   -7.7338   -1.7219  -18.5361 H   0  0  0  0  0  0  0  0  0  0  0  0
   -6.9013   -2.5708  -21.9866 C   0  0  0  0  0  0  0  0  0  0  0  0
   -5.8935   -3.2138  -21.7642 O   0  0  0  0  0  0  0  0  0  0  0  0
   -7.8655   -2.7502  -23.1768 C   0  0  1  0  0  0  0  0  0  0  0  0
   -8.0443   -4.2675  -23.4186 C   0  0  0  0  0  0  0  0  0  0  0  0
   -6.8310   -4.8781  -23.9533 N   0  0  0  0  0  0  0  0  0  0  0  0
   -6.3451   -6.1746  -23.4465 C   0  0  0  0  0  0  0  0  0  0  0  0
   -5.1675   -6.0636  -22.5633 C   0  0  0  0  0  0  0  0  0  0  0  0
   -5.2233   -5.9362  -20.9284 C   0  0  0  0  0  0  0  0  0  0  0  0
   -5.1847   -6.2795  -21.1423 C   0  0  0  0  0  0  0  0  0  0  0  0
   -2.9899   -6.0046  -22.3805 N   0  0  0  0  0  0  0  0  0  0  0  0
   -3.9927   -5.9612  -23.1787 N   0  0  0  0  0  0  0  0  0  0  0  0
   -2.1523   -5.9028  -22.9718 H   0  0  0  0  0  0  0  0  0  0  0  0
   -5.0621   -4.9158  -20.5233 H   0  0  0  0  0  0  0  0  0  0  0  0
   -6.1963   -6.5597  -20.5751 H   0  0  0  0  0  0  0  0  0  0  0  0
   -7.2049   -6.7162  -23.0156 H   0  0  0  0  0  0  0  0  0  0  0  0
   -6.0209   -6.7233  -24.3409 H   0  0  0  0  0  0  0  0  0  0  0  0
   -6.2784   -4.3663  -25.1031 C   0  0  0  0  0  0  0  0  0  0  0  0
   -5.5735   -5.0236  -25.8567 O   0  0  0  0  0  0  0  0  0  0  0  0
   -6.5685   -2.9196  -25.3616 C   0  0  0  0  0  0  0  0  0  0  0  0
   -6.0676   -2.3783  -26.5454 C   0  0  0  0  0  0  0  0  0  0  0  0
   -6.2703   -1.0495  -26.8571 C   0  0  0  0  0  0  0  0  0  0  0  0
   -6.9780   -0.2736  -25.9471 C   0  0  0  0  0  0  0  0  0  0  0  0
   -7.1928    1.0219  -26.2445 F   0  0  0  0  0  0  0  0  0  0  0  0
   -7.4848   -0.7824  -24.7649 C   0  0  0  0  0  0  0  0  0  0  0  0
   -7.3022   -2.1397  -24.4582 C   0  0  0  0  0  0  0  0  0  0  0  0
   -8.0351   -0.1033  -24.1207 H   0  0  0  0  0  0  0  0  0  0  0  0
   -5.8996   -0.6016  -27.7732 H   0  0  0  0  0  0  0  0  0  0  0  0
   -5.5097   -3.0330  -27.2052 H   0  0  0  0  0  0  0  0  0  0  0  0
   -8.2967   -4.7627  -22.4819 H   0  0  0  0  0  0  0  0  0  0  0  0
   -8.8797   -4.4154  -24.1169 H   0  0  0  0  0  0  0  0  0  0  0  0
   -8.4926   -0.0005  -22.0525 H   0  0  0  0  0  0  0  0  0  0  0  0
   -9.3255   -0.8805  -20.7901 H   0  0  0  0  0  0  0  0  0  0  0  0
   -9.6309   -1.5075  -23.5052 H   0  0  0  0  0  0  0  0  0  0  0  0
   -9.8132   -3.4842  -21.1744 H   0  0  0  0  0  0  0  0  0  0  0  0
  -10.5781   -3.6732  -22.7652 H   0  0  0  0  0  0  0  0  0  0  0  0
  -11.0704   -2.3530  -21.7010 H   0  0  0  0  0  0  0  0  0  0  0  0
  1  2  1  0
  2  3  1  0
  3  4  1  0
  4  5  1  0
  5  6  2  0
  6  7  1  0
  7  8  2  0
  8  9  1  0
  9 10  2  0
 10 11  1  0
 11 12  2  0
 12 13  1  0
 13 14  2  0
 13 15  1  0
 12 16  1  0
 11 17  1  0
 10 18  1  0
  8 19  1  0
  6 20  1  0
  4 21  1  0
 21 22  2  0
 21 23  1  0
 23 24  1  6
 24 25  1  0
 25 26  1  0
 26 27  1  0
 27 28  1  0
 28 29  2  0
 29 30  1  0
 30 31  1  0
 30 32  1  0
 29 33  1  0
 28 34  1  0
 26 35  1  0
 26 36  1  0
 25 37  1  0
 37 38  2  0
 37 39  1  0
 39 40  2  0
 40 41  1  0
 41 42  2  0
 42 43  1  0
 42 44  1  0
 44 45  2  0
 44 46  1  0
 41 47  1  0
 40 48  1  0
 24 49  1  0
 24 50  1  0
  3 51  1  0
  3 52  1  0
  2 53  1  6
  1 54  1  0
  1 55  1  0
  1 56  1  0
 23  2  1  0
 31 27  2  0
 45 39  1  0
 14  5  1  0
 45 23  1  0
 14  9  1  0
M  END
>  <cnnaffinities>  (19) 
[6.22457]

>  <score>  (19) 
6.22457

>  <index>  (19) 
18

>  <Smiles>  (19) 
C([C@]1(C(N(c2c(nc(c3c(c(c(c(c23)[H])[H])[H])[H])[H])[H])C(=O)[C@]21C(N(C(c1c(c(n(n1)[H])[H])[H])([H])[H])C(=O)c1c(c(c(F)c(c21)[H])[H])[H])([H])[H])([H])[H])[H])([H])([H])[H]

>  <h>  (19) 
<NA>

>  <Training>  (19) 
True

>  <Success>  (19) 
True

>  <enamine_searched>  (19) 
False

>  <enamine_id>  (19) 
nan

$$$$

     RDKit          3D

 42 45  0  0  0  0  0  0  0  0999 V2000
   -9.0501   -0.0316  -20.7790 O   0  0  0  0  0  0  0  0  0  0  0  0
   -8.6077   -0.9059  -21.4979 C   0  0  0  0  0  0  0  0  0  0  0  0
   -9.3420   -1.5089  -22.6976 C   0  0  1  0  0  0  0  0  0  0  0  0
  -10.4056   -0.5634  -23.1993 C   0  0  0  0  0  0  0  0  0  0  0  0
  -10.0634    0.7538  -23.4962 C   0  0  0  0  0  0  0  0  0  0  0  0
  -11.0293    1.6651  -23.8882 C   0  0  0  0  0  0  0  0  0  0  0  0
  -12.3586    1.2706  -24.0082 C   0  0  0  0  0  0  0  0  0  0  0  0
  -13.5691    2.4762  -24.2920 Cl  0  0  0  0  0  0  0  0  0  0  0  0
  -12.6879   -0.0740  -23.8279 C   0  0  0  0  0  0  0  0  0  0  0  0
  -14.2989   -0.6372  -24.1118 Cl  0  0  0  0  0  0  0  0  0  0  0  0
  -11.7147   -0.9812  -23.4136 C   0  0  0  0  0  0  0  0  0  0  0  0
  -12.0129   -2.0151  -23.2550 H   0  0  0  0  0  0  0  0  0  0  0  0
  -10.7617    2.6975  -24.0849 H   0  0  0  0  0  0  0  0  0  0  0  0
   -9.0350    1.0879  -23.3748 H   0  0  0  0  0  0  0  0  0  0  0  0
   -8.3257   -1.8156  -23.8053 C   0  0  0  0  0  0  0  0  0  0  0  0
   -7.2381   -2.8028  -23.3813 C   0  0  2  0  0  0  0  0  0  0  0  0
   -7.5392   -4.1455  -23.7238 O   0  0  0  0  0  0  0  0  0  0  0  0
   -8.3761   -4.3689  -23.2935 H   0  0  0  0  0  0  0  0  0  0  0  0
   -6.9371   -2.7071  -21.8786 C   0  0  0  0  0  0  0  0  0  0  0  0
   -7.3520   -1.4366  -21.3053 N   0  0  0  0  0  0  0  0  0  0  0  0
   -6.5665   -0.9265  -20.2476 C   0  0  0  0  0  0  0  0  0  0  0  0
   -6.8818   -1.1341  -18.9321 C   0  0  0  0  0  0  0  0  0  0  0  0
   -6.0333   -0.8589  -17.9132 N   0  0  0  0  0  0  0  0  0  0  0  0
   -4.8601   -0.3519  -18.2172 C   0  0  0  0  0  0  0  0  0  0  0  0
   -4.4519   -0.0189  -19.5410 C   0  0  0  0  0  0  0  0  0  0  0  0
   -3.2777    0.7243  -19.8138 C   0  0  0  0  0  0  0  0  0  0  0  0
   -3.1580    1.3967  -20.9953 C   0  0  0  0  0  0  0  0  0  0  0  0
   -4.0588    1.1476  -22.0652 C   0  0  0  0  0  0  0  0  0  0  0  0
   -5.0909    0.2696  -21.8774 C   0  0  0  0  0  0  0  0  0  0  0  0
   -5.3635   -0.2437  -20.5810 C   0  0  0  0  0  0  0  0  0  0  0  0
   -5.7004   -0.0555  -22.7130 H   0  0  0  0  0  0  0  0  0  0  0  0
   -3.8819    1.5912  -23.0425 H   0  0  0  0  0  0  0  0  0  0  0  0
   -2.2995    2.0293  -21.1791 H   0  0  0  0  0  0  0  0  0  0  0  0
   -2.5791    0.8775  -18.9986 H   0  0  0  0  0  0  0  0  0  0  0  0
   -4.1946   -0.1175  -17.3900 H   0  0  0  0  0  0  0  0  0  0  0  0
   -7.8541   -1.5372  -18.6501 H   0  0  0  0  0  0  0  0  0  0  0  0
   -7.4197   -3.5592  -21.3635 H   0  0  0  0  0  0  0  0  0  0  0  0
   -5.8601   -2.8085  -21.7131 H   0  0  0  0  0  0  0  0  0  0  0  0
   -6.3325   -2.5718  -23.9551 H   0  0  0  0  0  0  0  0  0  0  0  0
   -7.8563   -0.8662  -24.0961 H   0  0  0  0  0  0  0  0  0  0  0  0
   -8.8342   -2.2015  -24.6953 H   0  0  0  0  0  0  0  0  0  0  0  0
   -9.8099   -2.4402  -22.3460 H   0  0  0  0  0  0  0  0  0  0  0  0
  1  2  2  0
  2  3  1  0
  3  4  1  0
  4  5  2  0
  5  6  1  0
  6  7  2  0
  7  8  1  0
  7  9  1  0
  9 10  1  0
  9 11  2  0
 11 12  1  0
  6 13  1  0
  5 14  1  0
  3 15  1  0
 15 16  1  0
 16 17  1  0
 17 18  1  0
 16 19  1  0
 19 20  1  0
 20 21  1  0
 21 22  2  0
 22 23  1  0
 23 24  2  0
 24 25  1  0
 25 26  2  0
 26 27  1  0
 27 28  2  0
 28 29  1  0
 29 30  2  0
 29 31  1  0
 28 32  1  0
 27 33  1  0
 26 34  1  0
 24 35  1  0
 22 36  1  0
 19 37  1  0
 19 38  1  0
 16 39  1  6
 15 40  1  0
 15 41  1  0
  3 42  1  1
 20  2  1  0
 30 21  1  0
 11  4  1  0
 30 25  1  0
M  END
>  <cnnaffinities>  (20) 
[5.58381, 5.55492]

>  <score>  (20) 
5.58381

>  <index>  (20) 
19

>  <Smiles>  (20) 
O=C1[C@@](c2c(c(c(Cl)c(Cl)c2[H])[H])[H])(C([C@](O[H])(C(N1c1c(nc(c2c(c(c(c(c12)[H])[H])[H])[H])[H])[H])([H])[H])[H])([H])[H])[H]

>  <h>  (20) 
<NA>

>  <Training>  (20) 
True

>  <Success>  (20) 
True

>  <enamine_searched>  (20) 
False

>  <enamine_id>  (20) 
nan

$$$$

     RDKit          3D

 66 71  0  0  0  0  0  0  0  0999 V2000
   -8.5879    4.4894  -23.2626 C   0  0  0  0  0  0  0  0  0  0  0  0
   -8.5979    3.4380  -24.2546 N   0  0  0  0  0  0  0  0  0  0  0  0
   -7.5724    2.5530  -24.3190 C   0  0  0  0  0  0  0  0  0  0  0  0
   -6.5261    2.6885  -23.7031 O   0  0  0  0  0  0  0  0  0  0  0  0
   -7.8430    1.3603  -25.2494 C   0  0  0  0  0  0  0  0  0  0  0  0
   -8.6966    0.3625  -24.6162 N   0  0  0  0  0  0  0  0  0  0  0  0
   -8.1150   -0.9161  -24.2292 C   0  0  0  0  0  0  0  0  0  0  0  0
   -8.8312   -1.5687  -23.0110 C   0  0  2  0  0  0  0  0  0  0  0  0
   -8.4301   -0.8409  -21.6923 C   0  0  0  0  0  0  0  0  0  0  0  0
   -8.9053    0.1702  -21.2283 O   0  0  0  0  0  0  0  0  0  0  0  0
   -7.4057   -1.5656  -21.1136 N   0  0  0  0  0  0  0  0  0  0  0  0
   -6.5182   -1.0621  -20.1225 C   0  0  0  0  0  0  0  0  0  0  0  0
   -6.6808   -1.4116  -18.8115 C   0  0  0  0  0  0  0  0  0  0  0  0
   -5.7125   -1.3296  -17.8666 N   0  0  0  0  0  0  0  0  0  0  0  0
   -4.5732   -0.7792  -18.2217 C   0  0  0  0  0  0  0  0  0  0  0  0
   -4.3491   -0.1762  -19.4895 C   0  0  0  0  0  0  0  0  0  0  0  0
   -3.2190    0.6499  -19.7541 C   0  0  0  0  0  0  0  0  0  0  0  0
   -3.1576    1.4059  -20.8931 C   0  0  0  0  0  0  0  0  0  0  0  0
   -4.1709    1.2908  -21.8767 C   0  0  0  0  0  0  0  0  0  0  0  0
   -5.2621    0.4871  -21.6542 C   0  0  0  0  0  0  0  0  0  0  0  0
   -5.3750   -0.2671  -20.4569 C   0  0  0  0  0  0  0  0  0  0  0  0
   -6.0516    0.4598  -22.3996 H   0  0  0  0  0  0  0  0  0  0  0  0
   -4.1005    1.8407  -22.8070 H   0  0  0  0  0  0  0  0  0  0  0  0
   -2.3143    2.0647  -21.0847 H   0  0  0  0  0  0  0  0  0  0  0  0
   -2.4703    0.7679  -18.9812 H   0  0  0  0  0  0  0  0  0  0  0  0
   -3.7759   -0.7583  -17.4797 H   0  0  0  0  0  0  0  0  0  0  0  0
   -7.6357   -1.8231  -18.4948 H   0  0  0  0  0  0  0  0  0  0  0  0
   -7.0260   -2.7368  -21.8818 C   0  0  0  0  0  0  0  0  0  0  0  0
   -8.2563   -2.9902  -22.7523 C   0  0  2  0  0  0  0  0  0  0  0  0
   -8.0298   -3.9134  -23.9629 C   0  0  0  0  0  0  0  0  0  0  0  0
   -7.6863   -5.3346  -23.5736 C   0  0  0  0  0  0  0  0  0  0  0  0
   -8.6576   -6.3361  -23.5050 C   0  0  0  0  0  0  0  0  0  0  0  0
   -8.3227   -7.6353  -23.1302 C   0  0  0  0  0  0  0  0  0  0  0  0
   -7.0029   -7.9624  -22.8375 C   0  0  0  0  0  0  0  0  0  0  0  0
   -6.0254   -6.9742  -22.8922 C   0  0  0  0  0  0  0  0  0  0  0  0
   -6.3704   -5.6733  -23.2427 C   0  0  0  0  0  0  0  0  0  0  0  0
   -5.6048   -4.8998  -23.2464 H   0  0  0  0  0  0  0  0  0  0  0  0
   -4.9891   -7.2216  -22.6760 H   0  0  0  0  0  0  0  0  0  0  0  0
   -6.7337   -8.9806  -22.5691 H   0  0  0  0  0  0  0  0  0  0  0  0
   -9.1033   -8.3906  -23.0689 H   0  0  0  0  0  0  0  0  0  0  0  0
   -9.6931   -6.1148  -23.7579 H   0  0  0  0  0  0  0  0  0  0  0  0
   -8.9360   -3.9083  -24.5794 H   0  0  0  0  0  0  0  0  0  0  0  0
   -7.2292   -3.5180  -24.6008 H   0  0  0  0  0  0  0  0  0  0  0  0
   -8.9787   -3.5005  -22.1169 H   0  0  0  0  0  0  0  0  0  0  0  0
   -6.7861   -3.5839  -21.2284 H   0  0  0  0  0  0  0  0  0  0  0  0
   -6.1358   -2.5082  -22.4849 H   0  0  0  0  0  0  0  0  0  0  0  0
  -10.3257   -1.5139  -23.2406 C   0  0  0  0  0  0  0  0  0  0  0  0
  -11.2047   -2.4001  -22.6057 C   0  0  0  0  0  0  0  0  0  0  0  0
  -12.5579   -2.3558  -22.8927 C   0  0  0  0  0  0  0  0  0  0  0  0
  -13.6150   -3.5550  -22.2054 Cl  0  0  0  0  0  0  0  0  0  0  0  0
  -13.1019   -1.3653  -23.7086 C   0  0  0  0  0  0  0  0  0  0  0  0
  -12.2560   -0.4100  -24.2244 C   0  0  0  0  0  0  0  0  0  0  0  0
  -10.8814   -0.5033  -24.0320 C   0  0  0  0  0  0  0  0  0  0  0  0
  -10.0403    0.5583  -24.6520 C   0  0  0  0  0  0  0  0  0  0  0  0
  -10.5458    1.5642  -25.1633 O   0  0  0  0  0  0  0  0  0  0  0  0
  -12.6129    0.4472  -24.7810 H   0  0  0  0  0  0  0  0  0  0  0  0
  -14.1697   -1.3380  -23.8973 H   0  0  0  0  0  0  0  0  0  0  0  0
  -10.8525   -3.1211  -21.8769 H   0  0  0  0  0  0  0  0  0  0  0  0
   -7.0545   -0.7482  -24.0053 H   0  0  0  0  0  0  0  0  0  0  0  0
   -8.1622   -1.6067  -25.0799 H   0  0  0  0  0  0  0  0  0  0  0  0
   -8.3408    1.7057  -26.1627 H   0  0  0  0  0  0  0  0  0  0  0  0
   -6.8876    0.9009  -25.5113 H   0  0  0  0  0  0  0  0  0  0  0  0
   -9.4778    3.1697  -24.6833 H   0  0  0  0  0  0  0  0  0  0  0  0
   -7.6337    5.0156  -23.2987 H   0  0  0  0  0  0  0  0  0  0  0  0
   -8.7079    4.1013  -22.2458 H   0  0  0  0  0  0  0  0  0  0  0  0
   -9.3992    5.1888  -23.4748 H   0  0  0  0  0  0  0  0  0  0  0  0
  1  2  1  0
  2  3  1  0
  3  4  2  0
  3  5  1  0
  5  6  1  0
  6  7  1  0
  8  7  1  6
  8  9  1  0
  9 10  2  0
  9 11  1  0
 11 12  1  0
 12 13  2  0
 13 14  1  0
 14 15  2  0
 15 16  1  0
 16 17  2  0
 17 18  1  0
 18 19  2  0
 19 20  1  0
 20 21  2  0
 20 22  1  0
 19 23  1  0
 18 24  1  0
 17 25  1  0
 15 26  1  0
 13 27  1  0
 11 28  1  0
 28 29  1  0
 29 30  1  0
 30 31  1  0
 31 32  2  0
 32 33  1  0
 33 34  2  0
 34 35  1  0
 35 36  2  0
 36 37  1  0
 35 38  1  0
 34 39  1  0
 33 40  1  0
 32 41  1  0
 30 42  1  0
 30 43  1  0
 29 44  1  1
 28 45  1  0
 28 46  1  0
  8 47  1  0
 47 48  2  0
 48 49  1  0
 49 50  1  0
 49 51  2  0
 51 52  1  0
 52 53  2  0
 53 54  1  0
 54 55  2  0
 52 56  1  0
 51 57  1  0
 48 58  1  0
  7 59  1  0
  7 60  1  0
  5 61  1  0
  5 62  1  0
  2 63  1  0
  1 64  1  0
  1 65  1  0
  1 66  1  0
 54  6  1  0
 29  8  1  0
 36 31  1  0
 53 47  1  0
 21 12  1  0
 21 16  1  0
M  END
>  <cnnaffinities>  (21) 
[7.06472]

>  <score>  (21) 
7.06472

>  <index>  (21) 
20

>  <Smiles>  (21) 
C(N(C(=O)C(N1C([C@@]2(C(=O)N(c3c(nc(c4c(c(c(c(c34)[H])[H])[H])[H])[H])[H])C([C@@]2(C(c2c(c(c(c(c2[H])[H])[H])[H])[H])([H])[H])[H])([H])[H])c2c(c(Cl)c(c(c2C1=O)[H])[H])[H])([H])[H])([H])[H])[H])([H])([H])[H]

>  <h>  (21) 
<NA>

>  <Training>  (21) 
True

>  <Success>  (21) 
True

>  <enamine_searched>  (21) 
False

>  <enamine_id>  (21) 
nan

$$$$

     RDKit          3D

 63 68  0  0  0  0  0  0  0  0999 V2000
   -8.0584   -4.0199  -23.8617 C   0  0  0  0  0  0  0  0  0  0  0  0
   -8.2966   -3.0766  -22.6850 C   0  0  1  0  0  0  0  0  0  0  0  0
   -7.0717   -2.8413  -21.7967 C   0  0  0  0  0  0  0  0  0  0  0  0
   -7.3887   -1.5902  -21.1231 N   0  0  0  0  0  0  0  0  0  0  0  0
   -6.4878   -1.0911  -20.1367 C   0  0  0  0  0  0  0  0  0  0  0  0
   -6.6005   -1.5241  -18.8398 C   0  0  0  0  0  0  0  0  0  0  0  0
   -5.6311   -1.4034  -17.8981 N   0  0  0  0  0  0  0  0  0  0  0  0
   -4.5253   -0.7880  -18.2485 C   0  0  0  0  0  0  0  0  0  0  0  0
   -4.3323   -0.1649  -19.5105 C   0  0  0  0  0  0  0  0  0  0  0  0
   -3.2048    0.6676  -19.7560 C   0  0  0  0  0  0  0  0  0  0  0  0
   -3.1515    1.4324  -20.8881 C   0  0  0  0  0  0  0  0  0  0  0  0
   -4.1678    1.3278  -21.8679 C   0  0  0  0  0  0  0  0  0  0  0  0
   -5.2515    0.5109  -21.6592 C   0  0  0  0  0  0  0  0  0  0  0  0
   -5.3648   -0.2600  -20.4714 C   0  0  0  0  0  0  0  0  0  0  0  0
   -6.0698    0.4996  -22.3722 H   0  0  0  0  0  0  0  0  0  0  0  0
   -4.0973    1.8886  -22.7929 H   0  0  0  0  0  0  0  0  0  0  0  0
   -2.3193    2.1097  -21.0465 H   0  0  0  0  0  0  0  0  0  0  0  0
   -2.4605    0.7573  -18.9692 H   0  0  0  0  0  0  0  0  0  0  0  0
   -3.7328   -0.7125  -17.5003 H   0  0  0  0  0  0  0  0  0  0  0  0
   -7.5285   -1.9958  -18.5161 H   0  0  0  0  0  0  0  0  0  0  0  0
   -8.3330   -0.8378  -21.7980 C   0  0  0  0  0  0  0  0  0  0  0  0
   -8.7020    0.2702  -21.4774 O   0  0  0  0  0  0  0  0  0  0  0  0
   -8.7855   -1.6484  -23.0485 C   0  0  1  0  0  0  0  0  0  0  0  0
   -8.0058   -1.0967  -24.2901 C   0  0  0  0  0  0  0  0  0  0  0  0
   -8.5103    0.2005  -24.7407 N   0  0  0  0  0  0  0  0  0  0  0  0
   -7.6260    1.1046  -25.4660 C   0  0  0  0  0  0  0  0  0  0  0  0
   -7.3116    2.3843  -24.6644 C   0  0  0  0  0  0  0  0  0  0  0  0
   -6.2126    2.6146  -24.1850 O   0  0  0  0  0  0  0  0  0  0  0  0
   -8.3499    3.2420  -24.5536 N   0  0  0  0  0  0  0  0  0  0  0  0
   -8.3598    4.2911  -23.5620 C   0  0  0  0  0  0  0  0  0  0  0  0
   -9.4522    5.2778  -23.8786 C   0  0  0  0  0  0  0  0  0  0  0  0
  -10.0926    6.0235  -22.7467 C   0  0  0  0  0  0  0  0  0  0  0  0
  -10.8574    4.9478  -23.4554 C   0  0  0  0  0  0  0  0  0  0  0  0
  -11.0210    4.0061  -22.9370 H   0  0  0  0  0  0  0  0  0  0  0  0
  -11.6765    5.2410  -24.1029 H   0  0  0  0  0  0  0  0  0  0  0  0
   -9.7250    5.8095  -21.7472 H   0  0  0  0  0  0  0  0  0  0  0  0
  -10.3835    7.0543  -22.9124 H   0  0  0  0  0  0  0  0  0  0  0  0
   -9.3335    5.8018  -24.8269 H   0  0  0  0  0  0  0  0  0  0  0  0
   -7.3663    4.7464  -23.5504 H   0  0  0  0  0  0  0  0  0  0  0  0
   -8.5311    3.8747  -22.5549 H   0  0  0  0  0  0  0  0  0  0  0  0
   -9.2358    2.9361  -24.9379 H   0  0  0  0  0  0  0  0  0  0  0  0
   -8.1328    1.3827  -26.3990 H   0  0  0  0  0  0  0  0  0  0  0  0
   -6.6845    0.5937  -25.6804 H   0  0  0  0  0  0  0  0  0  0  0  0
   -9.8403    0.4696  -24.8034 C   0  0  0  0  0  0  0  0  0  0  0  0
  -10.2858    1.4633  -25.3864 O   0  0  0  0  0  0  0  0  0  0  0  0
  -10.7541   -0.5044  -24.1461 C   0  0  0  0  0  0  0  0  0  0  0  0
  -12.1188   -0.3246  -24.3797 C   0  0  0  0  0  0  0  0  0  0  0  0
  -13.0502   -1.1806  -23.8262 C   0  0  0  0  0  0  0  0  0  0  0  0
  -12.5755   -2.1849  -22.9915 C   0  0  0  0  0  0  0  0  0  0  0  0
  -13.4743   -2.9930  -22.4003 F   0  0  0  0  0  0  0  0  0  0  0  0
  -11.2339   -2.3664  -22.7149 C   0  0  0  0  0  0  0  0  0  0  0  0
  -10.2775   -1.5311  -23.3166 C   0  0  0  0  0  0  0  0  0  0  0  0
  -10.9715   -3.1537  -22.0161 H   0  0  0  0  0  0  0  0  0  0  0  0
  -14.1229   -1.0879  -23.9772 H   0  0  0  0  0  0  0  0  0  0  0  0
  -12.4186    0.5291  -24.9747 H   0  0  0  0  0  0  0  0  0  0  0  0
   -6.9474   -0.9762  -24.0248 H   0  0  0  0  0  0  0  0  0  0  0  0
   -8.0599   -1.8064  -25.1292 H   0  0  0  0  0  0  0  0  0  0  0  0
   -6.9119   -3.6404  -21.0664 H   0  0  0  0  0  0  0  0  0  0  0  0
   -6.1490   -2.7479  -22.3929 H   0  0  0  0  0  0  0  0  0  0  0  0
   -9.0618   -3.5203  -22.0398 H   0  0  0  0  0  0  0  0  0  0  0  0
   -7.1864   -3.7177  -24.4569 H   0  0  0  0  0  0  0  0  0  0  0  0
   -7.8837   -5.0424  -23.5106 H   0  0  0  0  0  0  0  0  0  0  0  0
   -8.9296   -4.0295  -24.5282 H   0  0  0  0  0  0  0  0  0  0  0  0
  1  2  1  0
  2  3  1  0
  3  4  1  0
  4  5  1  0
  5  6  2  0
  6  7  1  0
  7  8  2  0
  8  9  1  0
  9 10  2  0
 10 11  1  0
 11 12  2  0
 12 13  1  0
 13 14  2  0
 13 15  1  0
 12 16  1  0
 11 17  1  0
 10 18  1  0
  8 19  1  0
  6 20  1  0
  4 21  1  0
 21 22  2  0
 21 23  1  0
 23 24  1  6
 24 25  1  0
 25 26  1  0
 26 27  1  0
 27 28  2  0
 27 29  1  0
 29 30  1  0
 30 31  1  0
 31 32  1  0
 32 33  1  0
 33 34  1  0
 33 35  1  0
 32 36  1  0
 32 37  1  0
 31 38  1  0
 30 39  1  0
 30 40  1  0
 29 41  1  0
 26 42  1  0
 26 43  1  0
 25 44  1  0
 44 45  2  0
 44 46  1  0
 46 47  2  0
 47 48  1  0
 48 49  2  0
 49 50  1  0
 49 51  1  0
 51 52  2  0
 51 53  1  0
 48 54  1  0
 47 55  1  0
 24 56  1  0
 24 57  1  0
  3 58  1  0
  3 59  1  0
  2 60  1  1
  1 61  1  0
  1 62  1  0
  1 63  1  0
 23  2  1  0
 33 31  1  0
 52 46  1  0
 14  5  1  0
 52 23  1  0
 14  9  1  0
M  END
>  <cnnaffinities>  (22) 
[6.51507]

>  <score>  (22) 
6.51507

>  <index>  (22) 
21

>  <Smiles>  (22) 
C([C@]1(C(N(c2c(nc(c3c(c(c(c(c23)[H])[H])[H])[H])[H])[H])C(=O)[C@]21C(N(C(C(=O)N(C(C1(C(C1([H])[H])([H])[H])[H])([H])[H])[H])([H])[H])C(=O)c1c(c(c(F)c(c21)[H])[H])[H])([H])[H])([H])[H])[H])([H])([H])[H]

>  <h>  (22) 
<NA>

>  <Training>  (22) 
True

>  <Success>  (22) 
True

>  <enamine_searched>  (22) 
False

>  <enamine_id>  (22) 
nan

$$$$

     RDKit          3D

 68 73  0  0  0  0  0  0  0  0999 V2000
   -7.3370    3.2570  -21.7301 C   0  0  0  0  0  0  0  0  0  0  0  0
   -8.2847    2.8311  -22.7470 N   0  0  0  0  0  0  0  0  0  0  0  0
   -7.7901    2.1734  -23.8285 C   0  0  0  0  0  0  0  0  0  0  0  0
   -6.5857    2.0375  -24.0015 O   0  0  0  0  0  0  0  0  0  0  0  0
   -8.7977    1.5904  -24.8224 C   0  0  0  0  0  0  0  0  0  0  0  0
   -9.4431    0.4071  -24.2825 N   0  0  0  0  0  0  0  0  0  0  0  0
   -8.6693   -0.8237  -24.1656 C   0  0  0  0  0  0  0  0  0  0  0  0
   -9.0467   -1.6012  -22.8751 C   0  0  2  0  0  0  0  0  0  0  0  0
   -8.5200   -0.8406  -21.6340 C   0  0  0  0  0  0  0  0  0  0  0  0
   -8.9785    0.1618  -21.1222 O   0  0  0  0  0  0  0  0  0  0  0  0
   -7.3875   -1.4841  -21.1912 N   0  0  0  0  0  0  0  0  0  0  0  0
   -6.5488   -0.9492  -20.1975 C   0  0  0  0  0  0  0  0  0  0  0  0
   -6.8458   -1.1221  -18.8708 C   0  0  0  0  0  0  0  0  0  0  0  0
   -5.9851   -0.8405  -17.8637 N   0  0  0  0  0  0  0  0  0  0  0  0
   -4.8175   -0.3423  -18.1987 C   0  0  0  0  0  0  0  0  0  0  0  0
   -4.4356   -0.0198  -19.5356 C   0  0  0  0  0  0  0  0  0  0  0  0
   -3.2595    0.7257  -19.8255 C   0  0  0  0  0  0  0  0  0  0  0  0
   -3.1558    1.4129  -21.0019 C   0  0  0  0  0  0  0  0  0  0  0  0
   -4.0857    1.1773  -22.0462 C   0  0  0  0  0  0  0  0  0  0  0  0
   -5.1169    0.2945  -21.8535 C   0  0  0  0  0  0  0  0  0  0  0  0
   -5.3696   -0.2411  -20.5620 C   0  0  0  0  0  0  0  0  0  0  0  0
   -5.7596    0.0216  -22.6811 H   0  0  0  0  0  0  0  0  0  0  0  0
   -3.9605    1.6557  -23.0099 H   0  0  0  0  0  0  0  0  0  0  0  0
   -2.2932    2.0430  -21.1864 H   0  0  0  0  0  0  0  0  0  0  0  0
   -2.5405    0.8546  -19.0228 H   0  0  0  0  0  0  0  0  0  0  0  0
   -4.1287   -0.0922  -17.3902 H   0  0  0  0  0  0  0  0  0  0  0  0
   -7.8144   -1.5262  -18.5953 H   0  0  0  0  0  0  0  0  0  0  0  0
   -6.9913   -2.6285  -21.9757 C   0  0  0  0  0  0  0  0  0  0  0  0
   -8.2748   -2.9528  -22.7461 C   0  0  2  0  0  0  0  0  0  0  0  0
   -8.0068   -3.7324  -24.0436 C   0  0  0  0  0  0  0  0  0  0  0  0
   -7.5121   -5.0813  -23.8431 N   0  0  0  0  0  0  0  0  0  0  0  0
   -6.2073   -5.3790  -23.4566 C   0  0  0  0  0  0  0  0  0  0  0  0
   -5.1004   -4.6303  -23.8859 C   0  0  0  0  0  0  0  0  0  0  0  0
   -3.8117   -4.9883  -23.4986 C   0  0  0  0  0  0  0  0  0  0  0  0
   -3.5864   -6.0860  -22.6775 C   0  0  0  0  0  0  0  0  0  0  0  0
   -4.6785   -6.8345  -22.2511 C   0  0  0  0  0  0  0  0  0  0  0  0
   -5.9682   -6.4926  -22.6360 C   0  0  0  0  0  0  0  0  0  0  0  0
   -6.8098   -7.0961  -22.3020 H   0  0  0  0  0  0  0  0  0  0  0  0
   -4.5235   -7.7051  -21.6177 H   0  0  0  0  0  0  0  0  0  0  0  0
   -2.5757   -6.3608  -22.3853 H   0  0  0  0  0  0  0  0  0  0  0  0
   -2.9695   -4.3979  -23.8492 H   0  0  0  0  0  0  0  0  0  0  0  0
   -5.2348   -3.7636  -24.5288 H   0  0  0  0  0  0  0  0  0  0  0  0
   -8.1995   -5.7242  -23.4784 H   0  0  0  0  0  0  0  0  0  0  0  0
   -8.9358   -3.7967  -24.6231 H   0  0  0  0  0  0  0  0  0  0  0  0
   -7.2789   -3.1876  -24.6565 H   0  0  0  0  0  0  0  0  0  0  0  0
   -8.8686   -3.5922  -22.0842 H   0  0  0  0  0  0  0  0  0  0  0  0
   -6.1453   -2.4007  -22.6473 H   0  0  0  0  0  0  0  0  0  0  0  0
   -6.6636   -3.4556  -21.3351 H   0  0  0  0  0  0  0  0  0  0  0  0
  -10.5558   -1.7170  -22.8341 C   0  0  0  0  0  0  0  0  0  0  0  0
  -11.1789   -2.6550  -22.0077 C   0  0  0  0  0  0  0  0  0  0  0  0
  -12.5430   -2.8539  -22.0966 C   0  0  0  0  0  0  0  0  0  0  0  0
  -13.2985   -3.9658  -21.0038 Cl  0  0  0  0  0  0  0  0  0  0  0  0
  -13.3272   -2.1620  -23.0191 C   0  0  0  0  0  0  0  0  0  0  0  0
  -12.7356   -1.1375  -23.7340 C   0  0  0  0  0  0  0  0  0  0  0  0
  -11.3744   -0.8693  -23.5926 C   0  0  0  0  0  0  0  0  0  0  0  0
  -10.8115    0.3701  -24.2243 C   0  0  0  0  0  0  0  0  0  0  0  0
  -11.5201    1.2711  -24.6470 O   0  0  0  0  0  0  0  0  0  0  0  0
  -13.3239   -0.4919  -24.3784 H   0  0  0  0  0  0  0  0  0  0  0  0
  -14.3858   -2.3871  -23.1225 H   0  0  0  0  0  0  0  0  0  0  0  0
  -10.6128   -3.2571  -21.3093 H   0  0  0  0  0  0  0  0  0  0  0  0
   -7.6054   -0.5666  -24.1648 H   0  0  0  0  0  0  0  0  0  0  0  0
   -8.8524   -1.4587  -25.0454 H   0  0  0  0  0  0  0  0  0  0  0  0
   -8.2488    1.3437  -25.7386 H   0  0  0  0  0  0  0  0  0  0  0  0
   -9.5851    2.3059  -25.0811 H   0  0  0  0  0  0  0  0  0  0  0  0
   -9.2434    2.6792  -22.4632 H   0  0  0  0  0  0  0  0  0  0  0  0
   -6.7560    2.4002  -21.3597 H   0  0  0  0  0  0  0  0  0  0  0  0
   -7.8753    3.7204  -20.9055 H   0  0  0  0  0  0  0  0  0  0  0  0
   -6.6521    3.9983  -22.1521 H   0  0  0  0  0  0  0  0  0  0  0  0
  1  2  1  0
  2  3  1  0
  3  4  2  0
  3  5  1  0
  5  6  1  0
  6  7  1  0
  8  7  1  6
  8  9  1  0
  9 10  2  0
  9 11  1  0
 11 12  1  0
 12 13  2  0
 13 14  1  0
 14 15  2  0
 15 16  1  0
 16 17  2  0
 17 18  1  0
 18 19  2  0
 19 20  1  0
 20 21  2  0
 20 22  1  0
 19 23  1  0
 18 24  1  0
 17 25  1  0
 15 26  1  0
 13 27  1  0
 11 28  1  0
 28 29  1  0
 29 30  1  0
 30 31  1  0
 31 32  1  0
 32 33  2  0
 33 34  1  0
 34 35  2  0
 35 36  1  0
 36 37  2  0
 37 38  1  0
 36 39  1  0
 35 40  1  0
 34 41  1  0
 33 42  1  0
 31 43  1  0
 30 44  1  0
 30 45  1  0
 29 46  1  1
 28 47  1  0
 28 48  1  0
  8 49  1  0
 49 50  2  0
 50 51  1  0
 51 52  1  0
 51 53  2  0
 53 54  1  0
 54 55  2  0
 55 56  1  0
 56 57  2  0
 54 58  1  0
 53 59  1  0
 50 60  1  0
  7 61  1  0
  7 62  1  0
  5 63  1  0
  5 64  1  0
  2 65  1  0
  1 66  1  0
  1 67  1  0
  1 68  1  0
 56  6  1  0
 29  8  1  0
 37 32  1  0
 55 49  1  0
 21 12  1  0
 21 16  1  0
M  END
>  <cnnaffinities>  (23) 
[6.97997, 7.09731]

>  <score>  (23) 
6.97997

>  <index>  (23) 
23

>  <Smiles>  (23) 
C(N(C(=O)C(N1C([C@@]2(C(=O)N(c3c(nc(c4c(c(c(c(c34)[H])[H])[H])[H])[H])[H])C([C@@]2(C(N(c2c(c(c(c(c2[H])[H])[H])[H])[H])[H])([H])[H])[H])([H])[H])c2c(c(Cl)c(c(c2C1=O)[H])[H])[H])([H])[H])([H])[H])[H])([H])([H])[H]

>  <h>  (23) 
<NA>

>  <Training>  (23) 
True

>  <Success>  (23) 
True

>  <enamine_searched>  (23) 
False

>  <enamine_id>  (23) 
nan

$$$$

     RDKit          3D

 65 70  0  0  0  0  0  0  0  0999 V2000
   -5.9507   -7.4348  -25.5400 O   0  0  0  0  0  0  0  0  0  0  0  0
   -5.9159   -7.1060  -24.3607 C   0  0  0  0  0  0  0  0  0  0  0  0
   -7.1019   -6.5013  -23.6103 C   0  0  0  0  0  0  0  0  0  0  0  0
   -7.1170   -5.0309  -23.7881 N   0  0  1  0  0  4  0  0  0  0  0  0
   -7.2645   -4.7206  -25.2648 C   0  0  0  0  0  0  0  0  0  0  0  0
   -7.2180   -3.2454  -25.5385 C   0  0  0  0  0  0  0  0  0  0  0  0
   -6.8414   -2.7613  -26.7909 C   0  0  0  0  0  0  0  0  0  0  0  0
   -6.7752   -1.4005  -27.0530 C   0  0  0  0  0  0  0  0  0  0  0  0
   -7.0895   -0.5168  -26.0251 C   0  0  0  0  0  0  0  0  0  0  0  0
   -6.9828    1.1980  -26.3141 Cl  0  0  0  0  0  0  0  0  0  0  0  0
   -7.4895   -0.9770  -24.7792 C   0  0  0  0  0  0  0  0  0  0  0  0
   -7.5961   -2.3531  -24.5402 C   0  0  0  0  0  0  0  0  0  0  0  0
   -8.0235   -2.8457  -23.1731 C   0  0  2  0  0  0  0  0  0  0  0  0
   -9.2173   -2.0855  -22.5863 C   0  0  0  0  0  0  0  0  0  0  0  0
   -8.6681   -1.1809  -21.4762 C   0  0  0  0  0  0  0  0  0  0  0  0
   -7.2939   -1.6157  -21.3045 N   0  0  0  0  0  0  0  0  0  0  0  0
   -6.4750   -1.0857  -20.2869 C   0  0  0  0  0  0  0  0  0  0  0  0
   -6.8246   -1.1829  -18.9656 C   0  0  0  0  0  0  0  0  0  0  0  0
   -6.0156   -0.8518  -17.9315 N   0  0  0  0  0  0  0  0  0  0  0  0
   -4.8411   -0.3557  -18.2444 C   0  0  0  0  0  0  0  0  0  0  0  0
   -4.4276   -0.0553  -19.5702 C   0  0  0  0  0  0  0  0  0  0  0  0
   -3.2671    0.7181  -19.8325 C   0  0  0  0  0  0  0  0  0  0  0  0
   -3.1508    1.4096  -21.0045 C   0  0  0  0  0  0  0  0  0  0  0  0
   -4.0635    1.1671  -22.0610 C   0  0  0  0  0  0  0  0  0  0  0  0
   -5.0595    0.2407  -21.9043 C   0  0  0  0  0  0  0  0  0  0  0  0
   -5.3148   -0.3309  -20.6258 C   0  0  0  0  0  0  0  0  0  0  0  0
   -5.6738   -0.0398  -22.7518 H   0  0  0  0  0  0  0  0  0  0  0  0
   -3.9038    1.6449  -23.0226 H   0  0  0  0  0  0  0  0  0  0  0  0
   -2.3000    2.0613  -21.1709 H   0  0  0  0  0  0  0  0  0  0  0  0
   -2.5659    0.8577  -19.0165 H   0  0  0  0  0  0  0  0  0  0  0  0
   -4.1889   -0.0568  -17.4270 H   0  0  0  0  0  0  0  0  0  0  0  0
   -7.8016   -1.5725  -18.6872 H   0  0  0  0  0  0  0  0  0  0  0  0
   -6.8856   -2.5694  -22.1975 C   0  0  0  0  0  0  0  0  0  0  0  0
   -5.8264   -3.1768  -22.2167 O   0  0  0  0  0  0  0  0  0  0  0  0
   -9.2091   -1.3429  -20.5503 H   0  0  0  0  0  0  0  0  0  0  0  0
   -8.7185   -0.1113  -21.7235 H   0  0  0  0  0  0  0  0  0  0  0  0
   -9.9198   -2.8034  -22.1526 H   0  0  0  0  0  0  0  0  0  0  0  0
   -9.7630   -1.5285  -23.3508 H   0  0  0  0  0  0  0  0  0  0  0  0
   -8.2439   -4.3614  -23.0837 C   0  0  0  0  0  0  0  0  0  0  0  0
   -8.2473   -4.6450  -22.0265 H   0  0  0  0  0  0  0  0  0  0  0  0
   -9.2083   -4.6598  -23.5146 H   0  0  0  0  0  0  0  0  0  0  0  0
   -7.7127   -0.2538  -23.9980 H   0  0  0  0  0  0  0  0  0  0  0  0
   -6.4802   -1.0258  -28.0301 H   0  0  0  0  0  0  0  0  0  0  0  0
   -6.5873   -3.4597  -27.5841 H   0  0  0  0  0  0  0  0  0  0  0  0
   -6.4965   -5.2562  -25.8150 H   0  0  0  0  0  0  0  0  0  0  0  0
   -8.2304   -5.1350  -25.5867 H   0  0  0  0  0  0  0  0  0  0  0  0
   -6.2468   -4.5892  -23.4025 H   0  0  0  0  0  0  0  0  0  0  0  0
   -7.0674   -6.7681  -22.5489 H   0  0  0  0  0  0  0  0  0  0  0  0
   -8.0213   -6.9220  -24.0295 H   0  0  0  0  0  0  0  0  0  0  0  0
   -4.7825   -7.2034  -23.6278 N   0  0  0  0  0  0  0  0  0  0  0  0
   -3.6357   -7.8696  -24.1936 C   0  0  0  0  0  0  0  0  0  0  0  0
   -2.3925   -7.5501  -23.3957 C   0  0  1  0  0  0  0  0  0  0  0  0
   -1.0927   -8.0246  -24.0826 C   0  0  0  0  0  0  0  0  0  0  0  0
   -0.6166   -6.5677  -24.1853 C   0  0  1  0  0  0  0  0  0  0  0  0
   -0.4926   -6.1252  -25.4940 F   0  0  0  0  0  0  0  0  0  0  0  0
   -1.9049   -6.0793  -23.5027 C   0  0  0  0  0  0  0  0  0  0  0  0
   -1.7709   -5.5585  -22.5493 H   0  0  0  0  0  0  0  0  0  0  0  0
   -2.5008   -5.4574  -24.1799 H   0  0  0  0  0  0  0  0  0  0  0  0
    0.3246   -6.3320  -23.6815 H   0  0  0  0  0  0  0  0  0  0  0  0
   -1.2492   -8.4747  -25.0688 H   0  0  0  0  0  0  0  0  0  0  0  0
   -0.4628   -8.6925  -23.4917 H   0  0  0  0  0  0  0  0  0  0  0  0
   -2.5008   -7.9037  -22.3591 H   0  0  0  0  0  0  0  0  0  0  0  0
   -3.5523   -7.5146  -25.2282 H   0  0  0  0  0  0  0  0  0  0  0  0
   -3.7968   -8.9551  -24.2431 H   0  0  0  0  0  0  0  0  0  0  0  0
   -4.7929   -6.9721  -22.6489 H   0  0  0  0  0  0  0  0  0  0  0  0
  1  2  2  0
  2  3  1  0
  3  4  1  0
  4  5  1  0
  5  6  1  0
  6  7  2  0
  7  8  1  0
  8  9  2  0
  9 10  1  0
  9 11  1  0
 11 12  2  0
 12 13  1  0
 13 14  1  1
 14 15  1  0
 15 16  1  0
 16 17  1  0
 17 18  2  0
 18 19  1  0
 19 20  2  0
 20 21  1  0
 21 22  2  0
 22 23  1  0
 23 24  2  0
 24 25  1  0
 25 26  2  0
 25 27  1  0
 24 28  1  0
 23 29  1  0
 22 30  1  0
 20 31  1  0
 18 32  1  0
 16 33  1  0
 33 34  2  0
 15 35  1  0
 15 36  1  0
 14 37  1  0
 14 38  1  0
 13 39  1  0
 39 40  1  0
 39 41  1  0
 11 42  1  0
  8 43  1  0
  7 44  1  0
  5 45  1  0
  5 46  1  0
  4 47  1  1
  3 48  1  0
  3 49  1  0
  2 50  1  0
 50 51  1  0
 51 52  1  0
 52 53  1  0
 53 54  1  0
 54 55  1  0
 54 56  1  0
 56 57  1  0
 56 58  1  0
 54 59  1  1
 53 60  1  0
 53 61  1  0
 52 62  1  1
 51 63  1  0
 51 64  1  0
 50 65  1  0
 39  4  1  0
 56 52  1  0
 12  6  1  0
 33 13  1  0
 26 17  1  0
 26 21  1  0
M  CHG  1   4   1
M  END
>  <cnnaffinities>  (24) 
[6.45746, 6.54797, 6.42186]

>  <score>  (24) 
6.45746

>  <index>  (24) 
24

>  <Smiles>  (24) 
O=C(C([N@+]1(C(c2c(c(c(Cl)c(c2[C@@]2(C(C(N(c3c(nc(c4c(c(c(c(c34)[H])[H])[H])[H])[H])[H])C2=O)([H])[H])([H])[H])C1([H])[H])[H])[H])[H])([H])[H])[H])([H])[H])N(C([C@]1(C([C@@](F)(C1([H])[H])[H])([H])[H])[H])([H])[H])[H]

>  <h>  (24) 
<NA>

>  <Training>  (24) 
True

>  <Success>  (24) 
True

>  <enamine_searched>  (24) 
False

>  <enamine_id>  (24) 
nan

$$$$

     RDKit          3D

 70 75  0  0  0  0  0  0  0  0999 V2000
   -8.1390   -7.0802  -23.9547 O   0  0  0  0  0  0  0  0  0  0  0  0
   -8.0703   -6.3403  -22.9881 C   0  0  0  0  0  0  0  0  0  0  0  0
   -9.1850   -5.3680  -22.6073 C   0  0  0  0  0  0  0  0  0  0  0  0
   -8.7929   -3.9427  -22.8694 N   0  0  1  0  0  4  0  0  0  0  0  0
   -8.4337   -3.7580  -24.3478 C   0  0  0  0  0  0  0  0  0  0  0  0
   -8.1454   -2.3178  -24.6881 C   0  0  0  0  0  0  0  0  0  0  0  0
   -7.3507   -2.0054  -25.7917 C   0  0  0  0  0  0  0  0  0  0  0  0
   -7.0705   -0.6864  -26.1280 C   0  0  0  0  0  0  0  0  0  0  0  0
   -7.5909    0.3354  -25.3384 C   0  0  0  0  0  0  0  0  0  0  0  0
   -7.2253    1.9974  -25.7187 Cl  0  0  0  0  0  0  0  0  0  0  0  0
   -8.3756    0.0455  -24.2336 C   0  0  0  0  0  0  0  0  0  0  0  0
   -8.6681   -1.2836  -23.9164 C   0  0  0  0  0  0  0  0  0  0  0  0
   -9.4462   -1.5334  -22.6492 C   0  0  2  0  0  0  0  0  0  0  0  0
   -8.6426   -1.0450  -21.4521 C   0  0  0  0  0  0  0  0  0  0  0  0
   -9.0549   -0.1880  -20.6944 O   0  0  0  0  0  0  0  0  0  0  0  0
   -7.4099   -1.6455  -21.2761 N   0  0  0  0  0  0  0  0  0  0  0  0
   -6.5394   -1.1276  -20.2887 C   0  0  0  0  0  0  0  0  0  0  0  0
   -6.8485   -1.2881  -18.9645 C   0  0  0  0  0  0  0  0  0  0  0  0
   -6.0003   -1.0067  -17.9458 N   0  0  0  0  0  0  0  0  0  0  0  0
   -4.8366   -0.4926  -18.2712 C   0  0  0  0  0  0  0  0  0  0  0  0
   -4.4802   -0.0955  -19.5944 C   0  0  0  0  0  0  0  0  0  0  0  0
   -3.3142    0.6758  -19.8505 C   0  0  0  0  0  0  0  0  0  0  0  0
   -3.2002    1.3715  -21.0210 C   0  0  0  0  0  0  0  0  0  0  0  0
   -4.1230    1.1391  -22.0761 C   0  0  0  0  0  0  0  0  0  0  0  0
   -5.1480    0.2376  -21.9168 C   0  0  0  0  0  0  0  0  0  0  0  0
   -5.3828   -0.3563  -20.6436 C   0  0  0  0  0  0  0  0  0  0  0  0
   -5.7761   -0.0211  -22.7628 H   0  0  0  0  0  0  0  0  0  0  0  0
   -3.9925    1.6594  -23.0218 H   0  0  0  0  0  0  0  0  0  0  0  0
   -2.3185    1.9834  -21.2035 H   0  0  0  0  0  0  0  0  0  0  0  0
   -2.5927    0.7949  -19.0479 H   0  0  0  0  0  0  0  0  0  0  0  0
   -4.1352   -0.2952  -17.4604 H   0  0  0  0  0  0  0  0  0  0  0  0
   -7.8232   -1.6633  -18.6645 H   0  0  0  0  0  0  0  0  0  0  0  0
   -6.9676   -2.0393  -22.0942 H   0  0  0  0  0  0  0  0  0  0  0  0
   -9.8933   -2.9841  -22.4783 C   0  0  0  0  0  0  0  0  0  0  0  0
  -10.1814   -3.1682  -21.4400 H   0  0  0  0  0  0  0  0  0  0  0  0
  -10.7551   -3.1892  -23.1224 H   0  0  0  0  0  0  0  0  0  0  0  0
  -10.3326   -0.9030  -22.6333 H   0  0  0  0  0  0  0  0  0  0  0  0
   -8.7572    0.8437  -23.6032 H   0  0  0  0  0  0  0  0  0  0  0  0
   -6.4506   -0.4514  -26.9877 H   0  0  0  0  0  0  0  0  0  0  0  0
   -6.9446   -2.8128  -26.3972 H   0  0  0  0  0  0  0  0  0  0  0  0
   -9.2755   -4.1396  -24.9396 H   0  0  0  0  0  0  0  0  0  0  0  0
   -7.5686   -4.3837  -24.5711 H   0  0  0  0  0  0  0  0  0  0  0  0
   -7.9566   -3.7366  -22.2826 H   0  0  0  0  0  0  0  0  0  0  0  0
  -10.0720   -5.6309  -23.1913 H   0  0  0  0  0  0  0  0  0  0  0  0
   -9.4257   -5.4643  -21.5440 H   0  0  0  0  0  0  0  0  0  0  0  0
   -6.9724   -6.2737  -22.1715 N   0  0  0  0  0  0  0  0  0  0  0  0
   -5.7674   -6.9549  -22.4364 C   0  0  0  0  0  0  0  0  0  0  0  0
   -4.9967   -7.4353  -21.3812 C   0  0  0  0  0  0  0  0  0  0  0  0
   -3.7871   -8.0438  -21.6624 C   0  0  0  0  0  0  0  0  0  0  0  0
   -3.3019   -8.1571  -22.9635 C   0  0  0  0  0  0  0  0  0  0  0  0
   -2.0686   -8.8151  -23.2076 N   0  0  0  0  0  0  0  0  0  0  0  0
   -1.0493   -8.7985  -22.1593 C   0  0  0  0  0  0  0  0  0  0  0  0
    0.2902   -9.1772  -22.7613 C   0  0  0  0  0  0  0  0  0  0  0  0
    0.1911  -10.4686  -23.3224 O   0  0  0  0  0  0  0  0  0  0  0  0
   -0.6891  -10.4860  -24.4191 C   0  0  0  0  0  0  0  0  0  0  0  0
   -2.0002   -9.7195  -24.2449 C   0  0  0  0  0  0  0  0  0  0  0  0
   -2.9202   -9.9249  -25.0181 O   0  0  0  0  0  0  0  0  0  0  0  0
   -0.9740  -11.5255  -24.5919 H   0  0  0  0  0  0  0  0  0  0  0  0
   -0.2074  -10.1058  -25.3353 H   0  0  0  0  0  0  0  0  0  0  0  0
    1.0635   -9.2143  -21.9896 H   0  0  0  0  0  0  0  0  0  0  0  0
    0.5851   -8.4376  -23.5209 H   0  0  0  0  0  0  0  0  0  0  0  0
   -1.0135   -7.7986  -21.7183 H   0  0  0  0  0  0  0  0  0  0  0  0
   -1.2882   -9.5125  -21.3576 H   0  0  0  0  0  0  0  0  0  0  0  0
   -4.0784   -7.6711  -24.0112 C   0  0  0  0  0  0  0  0  0  0  0  0
   -5.3095   -7.0995  -23.7476 C   0  0  0  0  0  0  0  0  0  0  0  0
   -5.9362   -6.7855  -24.5731 H   0  0  0  0  0  0  0  0  0  0  0  0
   -3.7434   -7.7617  -25.0365 H   0  0  0  0  0  0  0  0  0  0  0  0
   -3.2315   -8.5177  -20.8556 H   0  0  0  0  0  0  0  0  0  0  0  0
   -5.3320   -7.3509  -20.3478 H   0  0  0  0  0  0  0  0  0  0  0  0
   -7.0483   -5.7829  -21.2923 H   0  0  0  0  0  0  0  0  0  0  0  0
  1  2  2  0
  2  3  1  0
  3  4  1  0
  4  5  1  0
  5  6  1  0
  6  7  2  0
  7  8  1  0
  8  9  2  0
  9 10  1  0
  9 11  1  0
 11 12  2  0
 12 13  1  0
 13 14  1  0
 14 15  2  0
 14 16  1  0
 16 17  1  0
 17 18  2  0
 18 19  1  0
 19 20  2  0
 20 21  1  0
 21 22  2  0
 22 23  1  0
 23 24  2  0
 24 25  1  0
 25 26  2  0
 25 27  1  0
 24 28  1  0
 23 29  1  0
 22 30  1  0
 20 31  1  0
 18 32  1  0
 16 33  1  0
 13 34  1  0
 34 35  1  0
 34 36  1  0
 13 37  1  6
 11 38  1  0
  8 39  1  0
  7 40  1  0
  5 41  1  0
  5 42  1  0
  4 43  1  1
  3 44  1  0
  3 45  1  0
  2 46  1  0
 46 47  1  0
 47 48  2  0
 48 49  1  0
 49 50  2  0
 50 51  1  0
 51 52  1  0
 52 53  1  0
 53 54  1  0
 54 55  1  0
 55 56  1  0
 56 57  2  0
 55 58  1  0
 55 59  1  0
 53 60  1  0
 53 61  1  0
 52 62  1  0
 52 63  1  0
 50 64  1  0
 64 65  2  0
 65 66  1  0
 64 67  1  0
 49 68  1  0
 48 69  1  0
 46 70  1  0
 34  4  1  0
 65 47  1  0
 12  6  1  0
 26 17  1  0
 56 51  1  0
 26 21  1  0
M  CHG  1   4   1
M  END
>  <cnnaffinities>  (25) 
[6.32752, 6.36067]

>  <score>  (25) 
6.32752

>  <index>  (25) 
25

>  <Smiles>  (25) 
O=C(C([N@+]1(C(c2c(c(c(Cl)c(c2[C@](C(=O)N(c2c(nc(c3c(c(c(c(c23)[H])[H])[H])[H])[H])[H])[H])(C1([H])[H])[H])[H])[H])[H])([H])[H])[H])([H])[H])N(c1c(c(c(N2C(C(OC(C2=O)([H])[H])([H])[H])([H])[H])c(c1[H])[H])[H])[H])[H]

>  <h>  (25) 
<NA>

>  <Training>  (25) 
True

>  <Success>  (25) 
True

>  <enamine_searched>  (25) 
False

>  <enamine_id>  (25) 
nan

$$$$

     RDKit          3D

 55 60  0  0  0  0  0  0  0  0999 V2000
  -10.1266   -0.9863  -23.6070 C   0  0  0  0  0  0  0  0  0  0  0  0
   -8.7844   -1.4327  -23.0552 C   0  0  1  0  0  0  0  0  0  0  0  0
   -8.3521   -0.6848  -21.7858 C   0  0  0  0  0  0  0  0  0  0  0  0
   -7.2671   -1.5344  -21.3053 N   0  0  0  0  0  0  0  0  0  0  0  0
   -6.3037   -1.2200  -20.3205 C   0  0  0  0  0  0  0  0  0  0  0  0
   -6.3299   -1.8739  -19.1111 C   0  0  0  0  0  0  0  0  0  0  0  0
   -5.4207   -1.6932  -18.1243 N   0  0  0  0  0  0  0  0  0  0  0  0
   -4.4302   -0.8648  -18.3674 C   0  0  0  0  0  0  0  0  0  0  0  0
   -4.2699   -0.1398  -19.5809 C   0  0  0  0  0  0  0  0  0  0  0  0
   -3.1753    0.7440  -19.7851 C   0  0  0  0  0  0  0  0  0  0  0  0
   -3.1450    1.5562  -20.8825 C   0  0  0  0  0  0  0  0  0  0  0  0
   -4.1611    1.4650  -21.8655 C   0  0  0  0  0  0  0  0  0  0  0  0
   -5.1941    0.5719  -21.7175 C   0  0  0  0  0  0  0  0  0  0  0  0
   -5.2733   -0.2557  -20.5671 C   0  0  0  0  0  0  0  0  0  0  0  0
   -5.9615    0.5181  -22.4786 H   0  0  0  0  0  0  0  0  0  0  0  0
   -4.1210    2.1044  -22.7431 H   0  0  0  0  0  0  0  0  0  0  0  0
   -2.3323    2.2658  -21.0217 H   0  0  0  0  0  0  0  0  0  0  0  0
   -2.4152    0.8178  -19.0153 H   0  0  0  0  0  0  0  0  0  0  0  0
   -3.6942   -0.7263  -17.5741 H   0  0  0  0  0  0  0  0  0  0  0  0
   -7.1246   -2.5886  -18.8956 H   0  0  0  0  0  0  0  0  0  0  0  0
   -7.4101   -2.8451  -21.7314 C   0  0  0  0  0  0  0  0  0  0  0  0
   -6.6876   -3.7576  -21.3833 O   0  0  0  0  0  0  0  0  0  0  0  0
   -8.6363   -2.9416  -22.6589 C   0  0  1  0  0  0  0  0  0  0  0  0
   -9.7689   -3.5115  -21.7703 C   0  0  0  0  0  0  0  0  0  0  0  0
  -11.0141   -3.8236  -22.5018 N   0  0  0  0  0  0  0  0  0  0  0  0
  -12.1853   -4.0580  -21.7535 C   0  0  0  0  0  0  0  0  0  0  0  0
  -13.4115   -3.0473  -21.5270 C   0  0  0  0  0  0  0  0  0  0  0  0
  -14.5115   -3.9519  -21.8493 C   0  0  0  0  0  0  0  0  0  0  0  0
  -15.1392   -1.4497  -22.9665 N   0  0  0  0  0  0  0  0  0  0  0  0
  -14.1546   -1.7784  -23.6095 N   0  0  0  0  0  0  0  0  0  0  0  0
  -13.4156   -3.0653  -21.5316 N   0  0  0  0  0  0  0  0  0  0  0  0
  -14.2868   -1.3881  -24.5663 H   0  0  0  0  0  0  0  0  0  0  0  0
  -15.1787   -1.7983  -21.9891 H   0  0  0  0  0  0  0  0  0  0  0  0
  -12.1503   -4.3436  -20.7340 H   0  0  0  0  0  0  0  0  0  0  0  0
  -13.0149   -4.5248  -22.2201 H   0  0  0  0  0  0  0  0  0  0  0  0
  -10.9156   -4.4945  -23.7198 C   0  0  0  0  0  0  0  0  0  0  0  0
  -11.9001   -4.9271  -24.2998 O   0  0  0  0  0  0  0  0  0  0  0  0
   -9.5360   -4.6589  -24.2748 C   0  0  0  0  0  0  0  0  0  0  0  0
   -9.3625   -5.6267  -25.2619 C   0  0  0  0  0  0  0  0  0  0  0  0
   -8.1091   -5.8961  -25.7770 C   0  0  0  0  0  0  0  0  0  0  0  0
   -7.0355   -5.1531  -25.3017 C   0  0  0  0  0  0  0  0  0  0  0  0
   -5.8086   -5.4184  -25.7869 F   0  0  0  0  0  0  0  0  0  0  0  0
   -7.1746   -4.1693  -24.3401 C   0  0  0  0  0  0  0  0  0  0  0  0
   -8.4428   -3.9219  -23.7930 C   0  0  0  0  0  0  0  0  0  0  0  0
   -6.2838   -3.6541  -23.9908 H   0  0  0  0  0  0  0  0  0  0  0  0
   -7.9457   -6.6627  -26.5248 H   0  0  0  0  0  0  0  0  0  0  0  0
  -10.2368   -6.1768  -25.5882 H   0  0  0  0  0  0  0  0  0  0  0  0
   -9.3703   -4.4210  -21.2935 H   0  0  0  0  0  0  0  0  0  0  0  0
  -10.0106   -2.7976  -20.9826 H   0  0  0  0  0  0  0  0  0  0  0  0
   -8.0352    0.3477  -21.9605 H   0  0  0  0  0  0  0  0  0  0  0  0
   -9.1813   -0.6331  -21.0583 H   0  0  0  0  0  0  0  0  0  0  0  0
   -8.0073   -1.2547  -23.8080 H   0  0  0  0  0  0  0  0  0  0  0  0
  -10.1195    0.0751  -23.8852 H   0  0  0  0  0  0  0  0  0  0  0  0
  -10.4033   -1.5785  -24.4838 H   0  0  0  0  0  0  0  0  0  0  0  0
  -10.9011   -1.1254  -22.8475 H   0  0  0  0  0  0  0  0  0  0  0  0
  1  2  1  0
  2  3  1  0
  3  4  1  0
  4  5  1  0
  5  6  2  0
  6  7  1  0
  7  8  2  0
  8  9  1  0
  9 10  2  0
 10 11  1  0
 11 12  2  0
 12 13  1  0
 13 14  2  0
 13 15  1  0
 12 16  1  0
 11 17  1  0
 10 18  1  0
  8 19  1  0
  6 20  1  0
  4 21  1  0
 21 22  2  0
 21 23  1  0
 23 24  1  1
 24 25  1  0
 25 26  1  0
 26 27  1  0
 27 28  1  0
 28 29  2  0
 29 30  1  0
 30 31  1  0
 30 32  1  0
 28 33  1  0
 26 34  1  0
 26 35  1  0
 25 36  1  0
 36 37  2  0
 36 38  1  0
 38 39  2  0
 39 40  1  0
 40 41  2  0
 41 42  1  0
 41 43  1  0
 43 44  2  0
 43 45  1  0
 40 46  1  0
 39 47  1  0
 24 48  1  0
 24 49  1  0
  3 50  1  0
  3 51  1  0
  2 52  1  6
  1 53  1  0
  1 54  1  0
  1 55  1  0
 23  2  1  0
 31 27  2  0
 44 38  1  0
 14  5  1  0
 44 23  1  0
 14  9  1  0
M  END
>  <cnnaffinities>  (26) 
[6.84987]

>  <score>  (26) 
6.84987

>  <index>  (26) 
26

>  <Smiles>  (26) 
C([C@]1(C(N(c2c(nc(c3c(c(c(c(c23)[H])[H])[H])[H])[H])[H])C(=O)[C@]21C(N(C(c1c(nn(n1)[H])[H])([H])[H])C(=O)c1c(c(c(F)c(c21)[H])[H])[H])([H])[H])([H])[H])[H])([H])([H])[H]

>  <h>  (26) 
<NA>

>  <Training>  (26) 
True

>  <Success>  (26) 
True

>  <enamine_searched>  (26) 
False

>  <enamine_id>  (26) 
nan

$$$$

     RDKit          3D

 58 62  0  0  0  0  0  0  0  0999 V2000
   -7.0826    3.4671  -22.0249 C   0  0  0  0  0  0  0  0  0  0  0  0
   -7.4490    2.4060  -22.9659 N   0  0  0  0  0  4  0  0  0  0  0  0
   -8.4862    2.7968  -23.9452 C   0  0  0  0  0  0  0  0  0  0  0  0
   -8.7497    1.6825  -24.9523 C   0  0  0  0  0  0  0  0  0  0  0  0
   -9.3685    0.5123  -24.3430 N   0  0  0  0  0  0  0  0  0  0  0  0
   -8.6275   -0.7270  -24.1996 C   0  0  0  0  0  0  0  0  0  0  0  0
   -9.0220   -1.4964  -22.9082 C   0  0  2  0  0  0  0  0  0  0  0  0
   -8.3952   -0.7266  -21.7276 C   0  0  0  0  0  0  0  0  0  0  0  0
   -8.5851    0.4534  -21.4500 O   0  0  0  0  0  0  0  0  0  0  0  0
   -7.4334   -1.5062  -21.1425 N   0  0  0  0  0  0  0  0  0  0  0  0
   -6.5472   -0.9715  -20.1701 C   0  0  0  0  0  0  0  0  0  0  0  0
   -6.8151   -1.1664  -18.8401 C   0  0  0  0  0  0  0  0  0  0  0  0
   -5.9203   -0.9233  -17.8531 N   0  0  0  0  0  0  0  0  0  0  0  0
   -4.7575   -0.4303  -18.2110 C   0  0  0  0  0  0  0  0  0  0  0  0
   -4.4263   -0.0360  -19.5405 C   0  0  0  0  0  0  0  0  0  0  0  0
   -3.2565    0.7235  -19.8342 C   0  0  0  0  0  0  0  0  0  0  0  0
   -3.1583    1.4073  -21.0138 C   0  0  0  0  0  0  0  0  0  0  0  0
   -4.1002    1.1823  -22.0482 C   0  0  0  0  0  0  0  0  0  0  0  0
   -5.1239    0.2812  -21.8597 C   0  0  0  0  0  0  0  0  0  0  0  0
   -5.3718   -0.2624  -20.5611 C   0  0  0  0  0  0  0  0  0  0  0  0
   -5.7357   -0.0222  -22.7059 H   0  0  0  0  0  0  0  0  0  0  0  0
   -3.9967    1.7053  -22.9967 H   0  0  0  0  0  0  0  0  0  0  0  0
   -2.2956    2.0368  -21.2118 H   0  0  0  0  0  0  0  0  0  0  0  0
   -2.4978    0.8254  -19.0677 H   0  0  0  0  0  0  0  0  0  0  0  0
   -4.0196   -0.2747  -17.4235 H   0  0  0  0  0  0  0  0  0  0  0  0
   -7.7866   -1.5455  -18.5233 H   0  0  0  0  0  0  0  0  0  0  0  0
   -7.0342   -2.6176  -21.9889 C   0  0  0  0  0  0  0  0  0  0  0  0
   -8.2952   -2.8772  -22.8161 C   0  0  2  0  0  0  0  0  0  0  0  0
   -8.0135   -3.5926  -24.1354 C   0  0  0  0  0  0  0  0  0  0  0  0
   -7.5584   -4.5761  -23.9654 H   0  0  0  0  0  0  0  0  0  0  0  0
   -8.9333   -3.7387  -24.7124 H   0  0  0  0  0  0  0  0  0  0  0  0
   -7.3172   -3.0104  -24.7520 H   0  0  0  0  0  0  0  0  0  0  0  0
   -8.9261   -3.5221  -22.2015 H   0  0  0  0  0  0  0  0  0  0  0  0
   -6.7354   -3.4761  -21.3814 H   0  0  0  0  0  0  0  0  0  0  0  0
   -6.1771   -2.3621  -22.6320 H   0  0  0  0  0  0  0  0  0  0  0  0
  -10.5379   -1.6028  -22.8633 C   0  0  0  0  0  0  0  0  0  0  0  0
  -11.1876   -2.6189  -22.1408 C   0  0  0  0  0  0  0  0  0  0  0  0
  -12.5399   -2.8131  -22.3245 C   0  0  0  0  0  0  0  0  0  0  0  0
  -13.1415   -3.8335  -21.6890 F   0  0  0  0  0  0  0  0  0  0  0  0
  -13.2951   -2.0414  -23.1978 C   0  0  0  0  0  0  0  0  0  0  0  0
  -12.6829   -0.9696  -23.8171 C   0  0  0  0  0  0  0  0  0  0  0  0
  -11.3266   -0.7222  -23.6175 C   0  0  0  0  0  0  0  0  0  0  0  0
  -10.7285    0.5134  -24.2237 C   0  0  0  0  0  0  0  0  0  0  0  0
  -11.4193    1.4627  -24.5837 O   0  0  0  0  0  0  0  0  0  0  0  0
  -13.2375   -0.3130  -24.4785 H   0  0  0  0  0  0  0  0  0  0  0  0
  -14.3464   -2.2596  -23.3350 H   0  0  0  0  0  0  0  0  0  0  0  0
  -10.6749   -3.2438  -21.4165 H   0  0  0  0  0  0  0  0  0  0  0  0
   -8.8170   -1.3708  -25.0699 H   0  0  0  0  0  0  0  0  0  0  0  0
   -7.5577   -0.4954  -24.1557 H   0  0  0  0  0  0  0  0  0  0  0  0
   -7.8139    1.3654  -25.4257 H   0  0  0  0  0  0  0  0  0  0  0  0
   -9.4280    2.0393  -25.7313 H   0  0  0  0  0  0  0  0  0  0  0  0
   -9.4180    3.0286  -23.4227 H   0  0  0  0  0  0  0  0  0  0  0  0
   -8.1794    3.7030  -24.4773 H   0  0  0  0  0  0  0  0  0  0  0  0
   -6.5852    2.1452  -23.4804 H   0  0  0  0  0  0  0  0  0  0  0  0
   -7.7729    1.5772  -22.4350 H   0  0  0  0  0  0  0  0  0  0  0  0
   -6.2026    3.1562  -21.4569 H   0  0  0  0  0  0  0  0  0  0  0  0
   -7.9093    3.6669  -21.3391 H   0  0  0  0  0  0  0  0  0  0  0  0
   -6.8522    4.3990  -22.5527 H   0  0  0  0  0  0  0  0  0  0  0  0
  1  2  1  0
  2  3  1  0
  3  4  1  0
  4  5  1  0
  5  6  1  0
  7  6  1  6
  7  8  1  0
  8  9  2  0
  8 10  1  0
 10 11  1  0
 11 12  2  0
 12 13  1  0
 13 14  2  0
 14 15  1  0
 15 16  2  0
 16 17  1  0
 17 18  2  0
 18 19  1  0
 19 20  2  0
 19 21  1  0
 18 22  1  0
 17 23  1  0
 16 24  1  0
 14 25  1  0
 12 26  1  0
 10 27  1  0
 27 28  1  0
 28 29  1  0
 29 30  1  0
 29 31  1  0
 29 32  1  0
 28 33  1  1
 27 34  1  0
 27 35  1  0
  7 36  1  0
 36 37  2  0
 37 38  1  0
 38 39  1  0
 38 40  2  0
 40 41  1  0
 41 42  2  0
 42 43  1  0
 43 44  2  0
 41 45  1  0
 40 46  1  0
 37 47  1  0
  6 48  1  0
  6 49  1  0
  4 50  1  0
  4 51  1  0
  3 52  1  0
  3 53  1  0
  2 54  1  0
  2 55  1  0
  1 56  1  0
  1 57  1  0
  1 58  1  0
 43  5  1  0
 28  7  1  0
 42 36  1  0
 20 11  1  0
 20 15  1  0
M  CHG  1   2   1
M  END
>  <cnnaffinities>  (27) 
[6.27635]

>  <score>  (27) 
6.27635

>  <index>  (27) 
27

>  <Smiles>  (27) 
C([N+](C(C(N1C([C@@]2(C(=O)N(c3c(nc(c4c(c(c(c(c34)[H])[H])[H])[H])[H])[H])C([C@@]2(C([H])([H])[H])[H])([H])[H])c2c(c(F)c(c(c2C1=O)[H])[H])[H])([H])[H])([H])[H])([H])[H])([H])[H])([H])([H])[H]

>  <h>  (27) 
<NA>

>  <Training>  (27) 
True

>  <Success>  (27) 
True

>  <enamine_searched>  (27) 
False

>  <enamine_id>  (27) 
nan

$$$$

     RDKit          3D

 64 68  0  0  0  0  0  0  0  0999 V2000
  -14.7223   -1.6763  -23.2894 C   0  0  0  0  0  0  0  0  0  0  0  0
  -13.5098   -2.4066  -22.9751 N   0  0  0  0  0  0  0  0  0  0  0  0
  -13.2614   -2.8154  -21.6965 C   0  0  0  0  0  0  0  0  0  0  0  0
  -13.7926   -2.3454  -20.7025 O   0  0  0  0  0  0  0  0  0  0  0  0
  -12.2990   -3.9891  -21.6295 C   0  0  0  0  0  0  0  0  0  0  0  0
  -11.0550   -3.8287  -22.3582 N   0  0  0  0  0  0  0  0  0  0  0  0
   -9.9020   -3.3628  -21.6119 C   0  0  0  0  0  0  0  0  0  0  0  0
   -8.7143   -2.9166  -22.4894 C   0  0  2  0  0  0  0  0  0  0  0  0
   -7.5241   -2.7950  -21.5383 C   0  0  0  0  0  0  0  0  0  0  0  0
   -6.8329   -3.6992  -21.1094 O   0  0  0  0  0  0  0  0  0  0  0  0
   -7.3633   -1.4626  -21.2007 N   0  0  0  0  0  0  0  0  0  0  0  0
   -6.4051   -1.1320  -20.2208 C   0  0  0  0  0  0  0  0  0  0  0  0
   -6.4477   -1.7660  -19.0027 C   0  0  0  0  0  0  0  0  0  0  0  0
   -5.5165   -1.6153  -18.0332 N   0  0  0  0  0  0  0  0  0  0  0  0
   -4.4863   -0.8465  -18.2992 C   0  0  0  0  0  0  0  0  0  0  0  0
   -4.3169   -0.1376  -19.5214 C   0  0  0  0  0  0  0  0  0  0  0  0
   -3.2092    0.7236  -19.7489 C   0  0  0  0  0  0  0  0  0  0  0  0
   -3.1554    1.5099  -20.8674 C   0  0  0  0  0  0  0  0  0  0  0  0
   -4.1592    1.4047  -21.8596 C   0  0  0  0  0  0  0  0  0  0  0  0
   -5.2062    0.5357  -21.6965 C   0  0  0  0  0  0  0  0  0  0  0  0
   -5.3293   -0.2345  -20.5042 C   0  0  0  0  0  0  0  0  0  0  0  0
   -5.9476    0.4462  -22.4868 H   0  0  0  0  0  0  0  0  0  0  0  0
   -4.0821    1.9935  -22.7704 H   0  0  0  0  0  0  0  0  0  0  0  0
   -2.3310    2.2003  -21.0143 H   0  0  0  0  0  0  0  0  0  0  0  0
   -2.4724    0.8318  -18.9623 H   0  0  0  0  0  0  0  0  0  0  0  0
   -3.7292   -0.7518  -17.5199 H   0  0  0  0  0  0  0  0  0  0  0  0
   -7.2653   -2.4501  -18.7730 H   0  0  0  0  0  0  0  0  0  0  0  0
   -8.3843   -0.6102  -21.8035 C   0  0  0  0  0  0  0  0  0  0  0  0
   -8.8230   -1.4533  -23.0093 C   0  0  2  0  0  0  0  0  0  0  0  0
  -10.1674   -1.0842  -23.6138 C   0  0  0  0  0  0  0  0  0  0  0  0
  -10.0619    0.4847  -24.4631 S   0  0  0  0  0  0  0  0  0  0  0  0
   -9.2047    0.3017  -25.6232 O   0  0  0  0  0  0  0  0  0  0  0  0
   -9.8223    1.5424  -23.4960 O   0  0  0  0  0  0  0  0  0  0  0  0
  -11.5839    0.6720  -25.0334 N   0  0  0  0  0  0  0  0  0  0  0  0
  -12.6687    1.0338  -24.1441 C   0  0  0  0  0  0  0  0  0  0  0  0
  -12.4753    2.0184  -23.7170 H   0  0  0  0  0  0  0  0  0  0  0  0
  -12.7865    0.3068  -23.3335 H   0  0  0  0  0  0  0  0  0  0  0  0
  -13.5999    1.0679  -24.7166 H   0  0  0  0  0  0  0  0  0  0  0  0
  -11.7671    0.0963  -25.8398 H   0  0  0  0  0  0  0  0  0  0  0  0
  -10.4623   -1.8244  -24.3672 H   0  0  0  0  0  0  0  0  0  0  0  0
  -10.9530   -1.0254  -22.8550 H   0  0  0  0  0  0  0  0  0  0  0  0
   -8.0651   -1.3599  -23.7999 H   0  0  0  0  0  0  0  0  0  0  0  0
   -9.2270   -0.4369  -21.1178 H   0  0  0  0  0  0  0  0  0  0  0  0
   -7.9996    0.3643  -22.0911 H   0  0  0  0  0  0  0  0  0  0  0  0
   -8.5008   -3.9274  -23.5822 C   0  0  0  0  0  0  0  0  0  0  0  0
   -7.2265   -4.1519  -24.1170 C   0  0  0  0  0  0  0  0  0  0  0  0
   -7.0459   -5.1541  -25.0558 C   0  0  0  0  0  0  0  0  0  0  0  0
   -5.4303   -5.5416  -25.5913 Cl  0  0  0  0  0  0  0  0  0  0  0  0
   -8.1201   -5.8983  -25.5482 C   0  0  0  0  0  0  0  0  0  0  0  0
   -9.3905   -5.6264  -25.0710 C   0  0  0  0  0  0  0  0  0  0  0  0
   -9.5797   -4.6624  -24.0851 C   0  0  0  0  0  0  0  0  0  0  0  0
  -10.9614   -4.4517  -23.5710 C   0  0  0  0  0  0  0  0  0  0  0  0
  -11.9644   -4.7911  -24.1923 O   0  0  0  0  0  0  0  0  0  0  0  0
  -10.2586   -6.1721  -25.4278 H   0  0  0  0  0  0  0  0  0  0  0  0
   -7.9425   -6.6819  -26.2792 H   0  0  0  0  0  0  0  0  0  0  0  0
   -6.3785   -3.5687  -23.7673 H   0  0  0  0  0  0  0  0  0  0  0  0
  -10.2183   -2.5238  -20.9857 H   0  0  0  0  0  0  0  0  0  0  0  0
   -9.5358   -4.1517  -20.9486 H   0  0  0  0  0  0  0  0  0  0  0  0
  -12.8260   -4.8090  -22.1224 H   0  0  0  0  0  0  0  0  0  0  0  0
  -12.1468   -4.2327  -20.5790 H   0  0  0  0  0  0  0  0  0  0  0  0
  -13.1589   -3.0308  -23.6959 H   0  0  0  0  0  0  0  0  0  0  0  0
  -14.4939   -0.7350  -23.7915 H   0  0  0  0  0  0  0  0  0  0  0  0
  -15.2448   -1.4575  -22.3601 H   0  0  0  0  0  0  0  0  0  0  0  0
  -15.3672   -2.2617  -23.9470 H   0  0  0  0  0  0  0  0  0  0  0  0
  1  2  1  0
  2  3  1  0
  3  4  2  0
  3  5  1  0
  5  6  1  0
  6  7  1  0
  8  7  1  1
  8  9  1  0
  9 10  2  0
  9 11  1  0
 11 12  1  0
 12 13  2  0
 13 14  1  0
 14 15  2  0
 15 16  1  0
 16 17  2  0
 17 18  1  0
 18 19  2  0
 19 20  1  0
 20 21  2  0
 20 22  1  0
 19 23  1  0
 18 24  1  0
 17 25  1  0
 15 26  1  0
 13 27  1  0
 11 28  1  0
 28 29  1  0
 29 30  1  0
 30 31  1  0
 31 32  2  0
 31 33  2  0
 31 34  1  0
 34 35  1  0
 35 36  1  0
 35 37  1  0
 35 38  1  0
 34 39  1  0
 30 40  1  0
 30 41  1  0
 29 42  1  6
 28 43  1  0
 28 44  1  0
  8 45  1  0
 45 46  2  0
 46 47  1  0
 47 48  1  0
 47 49  2  0
 49 50  1  0
 50 51  2  0
 51 52  1  0
 52 53  2  0
 50 54  1  0
 49 55  1  0
 46 56  1  0
  7 57  1  0
  7 58  1  0
  5 59  1  0
  5 60  1  0
  2 61  1  0
  1 62  1  0
  1 63  1  0
  1 64  1  0
 52  6  1  0
 29  8  1  0
 51 45  1  0
 21 12  1  0
 21 16  1  0
M  END
>  <cnnaffinities>  (28) 
[6.47812, 6.7976]

>  <score>  (28) 
6.47812

>  <index>  (28) 
28

>  <Smiles>  (28) 
C(N(C(=O)C(N1C([C@@]2(C(=O)N(c3c(nc(c4c(c(c(c(c34)[H])[H])[H])[H])[H])[H])C([C@@]2(C(S(=O)(=O)N(C([H])([H])[H])[H])([H])[H])[H])([H])[H])c2c(c(Cl)c(c(c2C1=O)[H])[H])[H])([H])[H])([H])[H])[H])([H])([H])[H]

>  <h>  (28) 
<NA>

>  <Training>  (28) 
True

>  <Success>  (28) 
True

>  <enamine_searched>  (28) 
False

>  <enamine_id>  (28) 
nan

$$$$

     RDKit          3D

 55 60  0  0  0  0  0  0  0  0999 V2000
  -10.3014   -1.0977  -23.5277 C   0  0  0  0  0  0  0  0  0  0  0  0
   -8.9115   -1.4961  -23.0432 C   0  0  1  0  0  0  0  0  0  0  0  0
   -8.4202   -0.6595  -21.8542 C   0  0  0  0  0  0  0  0  0  0  0  0
   -7.3622   -1.4847  -21.2886 N   0  0  0  0  0  0  0  0  0  0  0  0
   -6.4413   -1.1001  -20.2860 C   0  0  0  0  0  0  0  0  0  0  0  0
   -6.5928   -1.5669  -19.0024 C   0  0  0  0  0  0  0  0  0  0  0  0
   -5.7069   -1.3471  -18.0016 N   0  0  0  0  0  0  0  0  0  0  0  0
   -4.6257   -0.6625  -18.2974 C   0  0  0  0  0  0  0  0  0  0  0  0
   -4.3670   -0.0872  -19.5737 C   0  0  0  0  0  0  0  0  0  0  0  0
   -3.2272    0.7308  -19.8096 C   0  0  0  0  0  0  0  0  0  0  0  0
   -3.1445    1.4834  -20.9480 C   0  0  0  0  0  0  0  0  0  0  0  0
   -4.1088    1.3292  -21.9740 C   0  0  0  0  0  0  0  0  0  0  0  0
   -5.1582    0.4578  -21.8170 C   0  0  0  0  0  0  0  0  0  0  0  0
   -5.3365   -0.2416  -20.5903 C   0  0  0  0  0  0  0  0  0  0  0  0
   -5.8528    0.3009  -22.6362 H   0  0  0  0  0  0  0  0  0  0  0  0
   -3.9945    1.8791  -22.9039 H   0  0  0  0  0  0  0  0  0  0  0  0
   -2.3019    2.1498  -21.1046 H   0  0  0  0  0  0  0  0  0  0  0  0
   -2.4787    0.8080  -19.0275 H   0  0  0  0  0  0  0  0  0  0  0  0
   -3.9023   -0.5131  -17.4955 H   0  0  0  0  0  0  0  0  0  0  0  0
   -7.4655   -2.1613  -18.7347 H   0  0  0  0  0  0  0  0  0  0  0  0
   -7.5315   -2.8221  -21.5825 C   0  0  0  0  0  0  0  0  0  0  0  0
   -6.8647   -3.7176  -21.1019 O   0  0  0  0  0  0  0  0  0  0  0  0
   -8.7133   -2.9678  -22.5585 C   0  0  1  0  0  0  0  0  0  0  0  0
   -9.8527   -3.5305  -21.7133 C   0  0  0  0  0  0  0  0  0  0  0  0
  -11.0468   -3.8501  -22.4980 N   0  0  0  0  0  0  0  0  0  0  0  0
  -12.2260   -4.0289  -21.7656 C   0  0  0  0  0  0  0  0  0  0  0  0
  -13.3866   -2.9116  -21.6562 C   0  0  0  0  0  0  0  0  0  0  0  0
  -14.5275   -3.7988  -21.7910 C   0  0  0  0  0  0  0  0  0  0  0  0
  -15.3421   -1.3066  -22.8237 N   0  0  0  0  0  0  0  0  0  0  0  0
  -14.5916   -1.7681  -23.6788 N   0  0  0  0  0  0  0  0  0  0  0  0
  -13.3963   -2.9455  -21.6589 N   0  0  0  0  0  0  0  0  0  0  0  0
  -14.9667   -1.4352  -24.5819 H   0  0  0  0  0  0  0  0  0  0  0  0
  -15.1644   -1.5668  -21.8358 H   0  0  0  0  0  0  0  0  0  0  0  0
  -12.1921   -4.1741  -20.7210 H   0  0  0  0  0  0  0  0  0  0  0  0
  -13.1140   -4.4233  -22.1785 H   0  0  0  0  0  0  0  0  0  0  0  0
  -10.9103   -4.5755  -23.6859 C   0  0  0  0  0  0  0  0  0  0  0  0
  -11.8909   -4.9891  -24.2769 O   0  0  0  0  0  0  0  0  0  0  0  0
   -9.4991   -4.7661  -24.1624 C   0  0  0  0  0  0  0  0  0  0  0  0
   -9.2102   -5.7589  -25.1006 C   0  0  0  0  0  0  0  0  0  0  0  0
   -7.9202   -5.9369  -25.5762 C   0  0  0  0  0  0  0  0  0  0  0  0
   -6.9239   -5.0867  -25.1100 C   0  0  0  0  0  0  0  0  0  0  0  0
   -5.6701   -5.2454  -25.5651 F   0  0  0  0  0  0  0  0  0  0  0  0
   -7.1728   -4.1076  -24.1717 C   0  0  0  0  0  0  0  0  0  0  0  0
   -8.4629   -3.9646  -23.6597 C   0  0  0  0  0  0  0  0  0  0  0  0
   -6.3598   -3.4964  -23.7953 H   0  0  0  0  0  0  0  0  0  0  0  0
   -7.6639   -6.7189  -26.2856 H   0  0  0  0  0  0  0  0  0  0  0  0
  -10.0153   -6.4061  -25.4334 H   0  0  0  0  0  0  0  0  0  0  0  0
   -9.4686   -4.4345  -21.2300 H   0  0  0  0  0  0  0  0  0  0  0  0
  -10.1157   -2.8059  -20.9381 H   0  0  0  0  0  0  0  0  0  0  0  0
   -8.0500    0.3239  -22.1539 H   0  0  0  0  0  0  0  0  0  0  0  0
   -9.2382   -0.5085  -21.1312 H   0  0  0  0  0  0  0  0  0  0  0  0
   -8.1943   -1.3671  -23.8648 H   0  0  0  0  0  0  0  0  0  0  0  0
  -10.3791   -0.0120  -23.6405 H   0  0  0  0  0  0  0  0  0  0  0  0
  -10.5354   -1.5546  -24.4951 H   0  0  0  0  0  0  0  0  0  0  0  0
  -11.0713   -1.3988  -22.8101 H   0  0  0  0  0  0  0  0  0  0  0  0
  1  2  1  0
  2  3  1  0
  3  4  1  0
  4  5  1  0
  5  6  2  0
  6  7  1  0
  7  8  2  0
  8  9  1  0
  9 10  2  0
 10 11  1  0
 11 12  2  0
 12 13  1  0
 13 14  2  0
 13 15  1  0
 12 16  1  0
 11 17  1  0
 10 18  1  0
  8 19  1  0
  6 20  1  0
  4 21  1  0
 21 22  2  0
 21 23  1  0
 23 24  1  1
 24 25  1  0
 25 26  1  0
 26 27  1  0
 27 28  1  0
 28 29  2  0
 29 30  1  0
 30 31  1  0
 30 32  1  0
 28 33  1  0
 26 34  1  0
 26 35  1  0
 25 36  1  0
 36 37  2  0
 36 38  1  0
 38 39  2  0
 39 40  1  0
 40 41  2  0
 41 42  1  0
 41 43  1  0
 43 44  2  0
 43 45  1  0
 40 46  1  0
 39 47  1  0
 24 48  1  0
 24 49  1  0
  3 50  1  0
  3 51  1  0
  2 52  1  6
  1 53  1  0
  1 54  1  0
  1 55  1  0
 23  2  1  0
 31 27  2  0
 44 38  1  0
 14  5  1  0
 44 23  1  0
 14  9  1  0
M  END
>  <cnnaffinities>  (29) 
[6.89534]

>  <score>  (29) 
6.89534

>  <index>  (29) 
29

>  <Smiles>  (29) 
C([C@]1(C(N(c2c(nc(c3c(c(c(c(c23)[H])[H])[H])[H])[H])[H])C(=O)[C@]21C(N(C(c1c(nn(n1)[H])[H])([H])[H])C(=O)c1c(c(c(F)c(c21)[H])[H])[H])([H])[H])([H])[H])[H])([H])([H])[H]

>  <h>  (29) 
<NA>

>  <Training>  (29) 
True

>  <Success>  (29) 
True

>  <enamine_searched>  (29) 
False

>  <enamine_id>  (29) 
nan

$$$$

     RDKit          3D

 58 63  0  0  0  0  0  0  0  0999 V2000
   -8.3083   -4.3308  -23.8925 C   0  0  0  0  0  0  0  0  0  0  0  0
   -8.4101   -3.4192  -22.6807 C   0  0  1  0  0  0  0  0  0  0  0  0
   -7.0776   -2.7843  -22.2830 C   0  0  0  0  0  0  0  0  0  0  0  0
   -7.5087   -1.7757  -21.3456 N   0  0  0  0  0  0  0  0  0  0  0  0
   -6.6731   -1.3248  -20.2910 C   0  0  0  0  0  0  0  0  0  0  0  0
   -6.8501   -1.7329  -18.9897 C   0  0  0  0  0  0  0  0  0  0  0  0
   -5.9195   -1.5742  -18.0125 N   0  0  0  0  0  0  0  0  0  0  0  0
   -4.8179   -0.9285  -18.3180 C   0  0  0  0  0  0  0  0  0  0  0  0
   -4.5796   -0.3192  -19.5804 C   0  0  0  0  0  0  0  0  0  0  0  0
   -3.4732    0.5399  -19.8199 C   0  0  0  0  0  0  0  0  0  0  0  0
   -3.4220    1.2968  -20.9574 C   0  0  0  0  0  0  0  0  0  0  0  0
   -4.3768    1.1065  -21.9861 C   0  0  0  0  0  0  0  0  0  0  0  0
   -5.4212    0.2314  -21.8025 C   0  0  0  0  0  0  0  0  0  0  0  0
   -5.5579   -0.4819  -20.5834 C   0  0  0  0  0  0  0  0  0  0  0  0
   -6.1845    0.1181  -22.5665 H   0  0  0  0  0  0  0  0  0  0  0  0
   -4.2709    1.6620  -22.9130 H   0  0  0  0  0  0  0  0  0  0  0  0
   -2.6306    2.0336  -21.0724 H   0  0  0  0  0  0  0  0  0  0  0  0
   -2.7376    0.6490  -19.0285 H   0  0  0  0  0  0  0  0  0  0  0  0
   -4.0519   -0.8208  -17.5487 H   0  0  0  0  0  0  0  0  0  0  0  0
   -7.7512   -2.2562  -18.6796 H   0  0  0  0  0  0  0  0  0  0  0  0
   -8.8138   -1.3644  -21.5403 C   0  0  0  0  0  0  0  0  0  0  0  0
   -9.3267   -0.4621  -20.9224 O   0  0  0  0  0  0  0  0  0  0  0  0
   -9.4213   -2.2204  -22.7067 C   0  0  1  0  0  0  0  0  0  0  0  0
   -9.3506   -1.3983  -24.0219 C   0  0  0  0  0  0  0  0  0  0  0  0
  -10.4336   -0.4232  -24.1224 N   0  0  0  0  0  0  0  0  0  0  0  0
  -10.2153    0.8916  -24.7088 C   0  0  0  0  0  0  0  0  0  0  0  0
   -9.0562    1.6068  -24.0682 C   0  0  0  0  0  0  0  0  0  0  0  0
   -7.9495    1.9630  -24.7833 C   0  0  0  0  0  0  0  0  0  0  0  0
   -6.7734    2.4711  -24.1103 C   0  0  0  0  0  0  0  0  0  0  0  0
   -5.6751    2.6797  -24.5964 O   0  0  0  0  0  0  0  0  0  0  0  0
   -7.0184    2.7004  -22.7484 N   0  0  0  0  0  0  0  0  0  0  0  0
   -8.1747    2.3484  -22.1236 C   0  0  0  0  0  0  0  0  0  0  0  0
   -9.2016    1.8368  -22.7276 N   0  0  0  0  0  0  0  0  0  0  0  0
   -8.2027    2.5097  -21.0548 H   0  0  0  0  0  0  0  0  0  0  0  0
   -6.2245    2.9901  -22.1867 H   0  0  0  0  0  0  0  0  0  0  0  0
   -7.8976    1.8016  -25.8485 H   0  0  0  0  0  0  0  0  0  0  0  0
  -11.1303    1.4555  -24.5129 H   0  0  0  0  0  0  0  0  0  0  0  0
  -10.0892    0.8345  -25.7980 H   0  0  0  0  0  0  0  0  0  0  0  0
  -11.7360   -0.8310  -24.0220 C   0  0  0  0  0  0  0  0  0  0  0  0
  -12.6662   -0.2456  -24.5506 O   0  0  0  0  0  0  0  0  0  0  0  0
  -11.9477   -2.0100  -23.1486 C   0  0  0  0  0  0  0  0  0  0  0  0
  -13.2683   -2.4011  -22.9294 C   0  0  0  0  0  0  0  0  0  0  0  0
  -13.5785   -3.2928  -21.9273 C   0  0  0  0  0  0  0  0  0  0  0  0
  -12.5217   -3.7758  -21.1685 C   0  0  0  0  0  0  0  0  0  0  0  0
  -12.8197   -4.4524  -20.0466 F   0  0  0  0  0  0  0  0  0  0  0  0
  -11.1982   -3.5325  -21.4828 C   0  0  0  0  0  0  0  0  0  0  0  0
  -10.8741   -2.6071  -22.4753 C   0  0  0  0  0  0  0  0  0  0  0  0
  -10.4235   -4.0003  -20.8871 H   0  0  0  0  0  0  0  0  0  0  0  0
  -14.5980   -3.5843  -21.6959 H   0  0  0  0  0  0  0  0  0  0  0  0
  -14.0506   -1.9333  -23.5180 H   0  0  0  0  0  0  0  0  0  0  0  0
   -9.3984   -2.0916  -24.8727 H   0  0  0  0  0  0  0  0  0  0  0  0
   -8.4025   -0.8589  -24.0668 H   0  0  0  0  0  0  0  0  0  0  0  0
   -6.3747   -3.4795  -21.8120 H   0  0  0  0  0  0  0  0  0  0  0  0
   -6.5653   -2.3477  -23.1561 H   0  0  0  0  0  0  0  0  0  0  0  0
   -8.6985   -4.0308  -21.8199 H   0  0  0  0  0  0  0  0  0  0  0  0
   -9.2672   -4.8057  -24.1177 H   0  0  0  0  0  0  0  0  0  0  0  0
   -7.9723   -3.7814  -24.7786 H   0  0  0  0  0  0  0  0  0  0  0  0
   -7.5767   -5.1271  -23.7046 H   0  0  0  0  0  0  0  0  0  0  0  0
  1  2  1  0
  2  3  1  0
  3  4  1  0
  4  5  1  0
  5  6  2  0
  6  7  1  0
  7  8  2  0
  8  9  1  0
  9 10  2  0
 10 11  1  0
 11 12  2  0
 12 13  1  0
 13 14  2  0
 13 15  1  0
 12 16  1  0
 11 17  1  0
 10 18  1  0
  8 19  1  0
  6 20  1  0
  4 21  1  0
 21 22  2  0
 21 23  1  0
 23 24  1  6
 24 25  1  0
 25 26  1  0
 26 27  1  0
 27 28  2  0
 28 29  1  0
 29 30  2  0
 29 31  1  0
 31 32  1  0
 32 33  2  0
 32 34  1  0
 31 35  1  0
 28 36  1  0
 26 37  1  0
 26 38  1  0
 25 39  1  0
 39 40  2  0
 39 41  1  0
 41 42  2  0
 42 43  1  0
 43 44  2  0
 44 45  1  0
 44 46  1  0
 46 47  2  0
 46 48  1  0
 43 49  1  0
 42 50  1  0
 24 51  1  0
 24 52  1  0
  3 53  1  0
  3 54  1  0
  2 55  1  1
  1 56  1  0
  1 57  1  0
  1 58  1  0
 23  2  1  0
 33 27  1  0
 47 41  1  0
 14  5  1  0
 47 23  1  0
 14  9  1  0
M  END
>  <cnnaffinities>  (30) 
[6.53679]

>  <score>  (30) 
6.53679

>  <index>  (30) 
30

>  <Smiles>  (30) 
C([C@]1(C(N(c2c(nc(c3c(c(c(c(c23)[H])[H])[H])[H])[H])[H])C(=O)[C@]21C(N(C(c1c(c(=O)n(c(n1)[H])[H])[H])([H])[H])C(=O)c1c(c(c(F)c(c21)[H])[H])[H])([H])[H])([H])[H])[H])([H])([H])[H]

>  <h>  (30) 
<NA>

>  <Training>  (30) 
True

>  <Success>  (30) 
True

>  <enamine_searched>  (30) 
False

>  <enamine_id>  (30) 
nan

$$$$

     RDKit          3D

 66 71  0  0  0  0  0  0  0  0999 V2000
   -7.2989    3.3465  -21.8143 C   0  0  0  0  0  0  0  0  0  0  0  0
   -8.1790    2.9167  -22.8892 N   0  0  0  0  0  0  0  0  0  0  0  0
   -7.6362    2.2353  -23.9346 C   0  0  0  0  0  0  0  0  0  0  0  0
   -6.4299    2.0749  -24.0547 O   0  0  0  0  0  0  0  0  0  0  0  0
   -8.6232    1.6520  -24.9517 C   0  0  0  0  0  0  0  0  0  0  0  0
   -9.3130    0.4993  -24.4015 N   0  0  0  0  0  0  0  0  0  0  0  0
   -8.5567   -0.7385  -24.2456 C   0  0  0  0  0  0  0  0  0  0  0  0
   -8.9865   -1.5149  -22.9728 C   0  0  2  0  0  0  0  0  0  0  0  0
   -8.4680   -0.7845  -21.7130 C   0  0  0  0  0  0  0  0  0  0  0  0
   -8.8904    0.2442  -21.2212 O   0  0  0  0  0  0  0  0  0  0  0  0
   -7.4004   -1.4943  -21.2159 N   0  0  0  0  0  0  0  0  0  0  0  0
   -6.5543   -0.9713  -20.2182 C   0  0  0  0  0  0  0  0  0  0  0  0
   -6.8559   -1.1323  -18.8960 C   0  0  0  0  0  0  0  0  0  0  0  0
   -5.9984   -0.8551  -17.8850 N   0  0  0  0  0  0  0  0  0  0  0  0
   -4.8257   -0.3668  -18.2164 C   0  0  0  0  0  0  0  0  0  0  0  0
   -4.4419   -0.0400  -19.5480 C   0  0  0  0  0  0  0  0  0  0  0  0
   -3.2647    0.7041  -19.8296 C   0  0  0  0  0  0  0  0  0  0  0  0
   -3.1607    1.3970  -21.0008 C   0  0  0  0  0  0  0  0  0  0  0  0
   -4.0876    1.1629  -22.0506 C   0  0  0  0  0  0  0  0  0  0  0  0
   -5.1205    0.2795  -21.8629 C   0  0  0  0  0  0  0  0  0  0  0  0
   -5.3721   -0.2682  -20.5775 C   0  0  0  0  0  0  0  0  0  0  0  0
   -5.7390   -0.0099  -22.7038 H   0  0  0  0  0  0  0  0  0  0  0  0
   -3.9617    1.6573  -23.0092 H   0  0  0  0  0  0  0  0  0  0  0  0
   -2.2957    2.0277  -21.1784 H   0  0  0  0  0  0  0  0  0  0  0  0
   -2.5342    0.8049  -19.0348 H   0  0  0  0  0  0  0  0  0  0  0  0
   -4.1391   -0.1133  -17.4074 H   0  0  0  0  0  0  0  0  0  0  0  0
   -7.8285   -1.5234  -18.6234 H   0  0  0  0  0  0  0  0  0  0  0  0
   -7.0350   -2.6616  -21.9843 C   0  0  0  0  0  0  0  0  0  0  0  0
   -8.2730   -2.8983  -22.8473 C   0  0  2  0  0  0  0  0  0  0  0  0
   -7.9167   -3.6382  -24.1274 C   0  0  0  0  0  0  0  0  0  0  0  0
   -9.0921   -3.9510  -24.9037 N   0  0  0  0  0  0  0  0  0  0  0  0
   -8.9966   -4.5895  -26.0961 C   0  0  0  0  0  0  0  0  0  0  0  0
  -10.1448   -4.9155  -26.8458 C   0  0  0  0  0  0  0  0  0  0  0  0
   -9.9315   -5.5316  -28.0560 C   0  0  0  0  0  0  0  0  0  0  0  0
   -8.7096   -5.8242  -28.5332 N   0  0  0  0  0  0  0  0  0  0  0  0
   -7.7084   -5.4902  -27.7340 C   0  0  0  0  0  0  0  0  0  0  0  0
   -7.7677   -4.8807  -26.5483 N   0  0  0  0  0  0  0  0  0  0  0  0
   -6.7068   -5.7357  -28.0918 H   0  0  0  0  0  0  0  0  0  0  0  0
  -10.7750   -5.8045  -28.6901 H   0  0  0  0  0  0  0  0  0  0  0  0
  -11.1462   -4.6987  -26.4805 H   0  0  0  0  0  0  0  0  0  0  0  0
  -10.0054   -3.7820  -24.5086 H   0  0  0  0  0  0  0  0  0  0  0  0
   -7.3864   -4.5676  -23.8851 H   0  0  0  0  0  0  0  0  0  0  0  0
   -7.2360   -3.0468  -24.7541 H   0  0  0  0  0  0  0  0  0  0  0  0
   -8.9424   -3.5507  -22.2775 H   0  0  0  0  0  0  0  0  0  0  0  0
   -6.8258   -3.5155  -21.3292 H   0  0  0  0  0  0  0  0  0  0  0  0
   -6.1364   -2.4970  -22.6015 H   0  0  0  0  0  0  0  0  0  0  0  0
  -10.5004   -1.5942  -22.9586 C   0  0  0  0  0  0  0  0  0  0  0  0
  -11.1627   -2.4897  -22.1117 C   0  0  0  0  0  0  0  0  0  0  0  0
  -12.5270   -2.6776  -22.2335 C   0  0  0  0  0  0  0  0  0  0  0  0
  -13.3263   -3.7789  -21.1488 Cl  0  0  0  0  0  0  0  0  0  0  0  0
  -13.2707   -1.9883  -23.1939 C   0  0  0  0  0  0  0  0  0  0  0  0
  -12.6520   -0.9646  -23.8911 C   0  0  0  0  0  0  0  0  0  0  0  0
  -11.2872   -0.7254  -23.7301 C   0  0  0  0  0  0  0  0  0  0  0  0
  -10.6826    0.4996  -24.3502 C   0  0  0  0  0  0  0  0  0  0  0  0
  -11.3625    1.4318  -24.7607 O   0  0  0  0  0  0  0  0  0  0  0  0
  -13.2229   -0.3224  -24.5564 H   0  0  0  0  0  0  0  0  0  0  0  0
  -14.3313   -2.1888  -23.3109 H   0  0  0  0  0  0  0  0  0  0  0  0
  -10.6293   -3.0410  -21.3457 H   0  0  0  0  0  0  0  0  0  0  0  0
   -8.7030   -1.3715  -25.1318 H   0  0  0  0  0  0  0  0  0  0  0  0
   -7.4906   -0.4979  -24.1932 H   0  0  0  0  0  0  0  0  0  0  0  0
   -8.0572    1.3643  -25.8454 H   0  0  0  0  0  0  0  0  0  0  0  0
   -9.3817    2.3853  -25.2432 H   0  0  0  0  0  0  0  0  0  0  0  0
   -9.1514    2.7584  -22.6626 H   0  0  0  0  0  0  0  0  0  0  0  0
   -7.8816    3.8351  -21.0334 H   0  0  0  0  0  0  0  0  0  0  0  0
   -6.5736    4.0674  -22.2005 H   0  0  0  0  0  0  0  0  0  0  0  0
   -6.7551    2.4915  -21.3880 H   0  0  0  0  0  0  0  0  0  0  0  0
  1  2  1  0
  2  3  1  0
  3  4  2  0
  3  5  1  0
  5  6  1  0
  6  7  1  0
  8  7  1  6
  8  9  1  0
  9 10  2  0
  9 11  1  0
 11 12  1  0
 12 13  2  0
 13 14  1  0
 14 15  2  0
 15 16  1  0
 16 17  2  0
 17 18  1  0
 18 19  2  0
 19 20  1  0
 20 21  2  0
 20 22  1  0
 19 23  1  0
 18 24  1  0
 17 25  1  0
 15 26  1  0
 13 27  1  0
 11 28  1  0
 28 29  1  0
 29 30  1  0
 30 31  1  0
 31 32  1  0
 32 33  2  0
 33 34  1  0
 34 35  2  0
 35 36  1  0
 36 37  2  0
 36 38  1  0
 34 39  1  0
 33 40  1  0
 31 41  1  0
 30 42  1  0
 30 43  1  0
 29 44  1  1
 28 45  1  0
 28 46  1  0
  8 47  1  0
 47 48  2  0
 48 49  1  0
 49 50  1  0
 49 51  2  0
 51 52  1  0
 52 53  2  0
 53 54  1  0
 54 55  2  0
 52 56  1  0
 51 57  1  0
 48 58  1  0
  7 59  1  0
  7 60  1  0
  5 61  1  0
  5 62  1  0
  2 63  1  0
  1 64  1  0
  1 65  1  0
  1 66  1  0
 54  6  1  0
 29  8  1  0
 37 32  1  0
 53 47  1  0
 21 12  1  0
 21 16  1  0
M  END
>  <cnnaffinities>  (31) 
[6.72949, 7.05827, 6.98261]

>  <score>  (31) 
6.72949

>  <index>  (31) 
31

>  <Smiles>  (31) 
C(N(C(=O)C(N1C([C@@]2(C(=O)N(c3c(nc(c4c(c(c(c(c34)[H])[H])[H])[H])[H])[H])C([C@@]2(C(N(c2c(c(nc(n2)[H])[H])[H])[H])([H])[H])[H])([H])[H])c2c(c(Cl)c(c(c2C1=O)[H])[H])[H])([H])[H])([H])[H])[H])([H])([H])[H]

>  <h>  (31) 
<NA>

>  <Training>  (31) 
True

>  <Success>  (31) 
True

>  <enamine_searched>  (31) 
False

>  <enamine_id>  (31) 
nan

$$$$

     RDKit          3D

 57 62  0  0  0  0  0  0  0  0999 V2000
   -7.9556   -3.7401  -24.0935 C   0  0  0  0  0  0  0  0  0  0  0  0
   -8.2296   -3.0514  -22.7579 C   0  0  1  0  0  0  0  0  0  0  0  0
   -6.9537   -2.6790  -21.9853 C   0  0  0  0  0  0  0  0  0  0  0  0
   -7.3701   -1.5425  -21.1919 N   0  0  0  0  0  0  0  0  0  0  0  0
   -6.5498   -0.9764  -20.1834 C   0  0  0  0  0  0  0  0  0  0  0  0
   -6.8290   -1.1725  -18.8556 C   0  0  0  0  0  0  0  0  0  0  0  0
   -5.9435   -0.9231  -17.8527 N   0  0  0  0  0  0  0  0  0  0  0  0
   -4.7682   -0.4406  -18.1926 C   0  0  0  0  0  0  0  0  0  0  0  0
   -4.4194   -0.0395  -19.5188 C   0  0  0  0  0  0  0  0  0  0  0  0
   -3.2487    0.7220  -19.8078 C   0  0  0  0  0  0  0  0  0  0  0  0
   -3.1351    1.3883  -20.9989 C   0  0  0  0  0  0  0  0  0  0  0  0
   -4.0747    1.1634  -22.0374 C   0  0  0  0  0  0  0  0  0  0  0  0
   -5.1240    0.3006  -21.8345 C   0  0  0  0  0  0  0  0  0  0  0  0
   -5.3587   -0.2638  -20.5474 C   0  0  0  0  0  0  0  0  0  0  0  0
   -5.7760    0.0298  -22.6592 H   0  0  0  0  0  0  0  0  0  0  0  0
   -3.9375    1.6502  -23.0000 H   0  0  0  0  0  0  0  0  0  0  0  0
   -2.2724    2.0185  -21.1937 H   0  0  0  0  0  0  0  0  0  0  0  0
   -2.5041    0.8493  -19.0308 H   0  0  0  0  0  0  0  0  0  0  0  0
   -4.0507   -0.2841  -17.3844 H   0  0  0  0  0  0  0  0  0  0  0  0
   -7.7913   -1.5699  -18.5326 H   0  0  0  0  0  0  0  0  0  0  0  0
   -8.5495   -0.9590  -21.5927 C   0  0  0  0  0  0  0  0  0  0  0  0
   -9.0134    0.0322  -21.0712 O   0  0  0  0  0  0  0  0  0  0  0  0
   -9.1095   -1.7597  -22.7996 C   0  0  1  0  0  0  0  0  0  0  0  0
   -8.9054   -0.9563  -24.1157 C   0  0  0  0  0  0  0  0  0  0  0  0
   -9.8178    0.1699  -24.1991 N   0  0  0  0  0  0  0  0  0  0  0  0
   -9.3738    1.4835  -24.6305 C   0  0  0  0  0  0  0  0  0  0  0  0
   -9.4748    1.7459  -26.1068 C   0  0  0  0  0  0  0  0  0  0  0  0
  -10.3105    2.5835  -26.6791 N   0  0  0  0  0  0  0  0  0  0  0  0
  -10.1153    2.4735  -28.0071 N   0  0  0  0  0  0  0  0  0  0  0  0
   -9.1762    1.6334  -28.2593 N   0  0  0  0  0  0  0  0  0  0  0  0
   -8.7384    1.1707  -27.0778 N   0  0  0  0  0  0  0  0  0  0  0  0
   -7.5769    0.3104  -27.0192 C   0  0  0  0  0  0  0  0  0  0  0  0
   -7.1185    0.3326  -28.0073 H   0  0  0  0  0  0  0  0  0  0  0  0
   -6.8494    0.6730  -26.2866 H   0  0  0  0  0  0  0  0  0  0  0  0
   -7.8732   -0.7147  -26.7803 H   0  0  0  0  0  0  0  0  0  0  0  0
   -8.3421    1.6350  -24.2852 H   0  0  0  0  0  0  0  0  0  0  0  0
  -10.0200    2.2190  -24.1474 H   0  0  0  0  0  0  0  0  0  0  0  0
  -11.1677   -0.0433  -24.0972 C   0  0  0  0  0  0  0  0  0  0  0  0
  -11.9943    0.7468  -24.5306 O   0  0  0  0  0  0  0  0  0  0  0  0
  -11.5544   -1.2943  -23.3749 C   0  0  0  0  0  0  0  0  0  0  0  0
  -12.8976   -1.6760  -23.3884 C   0  0  0  0  0  0  0  0  0  0  0  0
  -13.3464   -2.6825  -22.5547 C   0  0  0  0  0  0  0  0  0  0  0  0
  -12.4221   -3.2762  -21.7003 C   0  0  0  0  0  0  0  0  0  0  0  0
  -12.8690   -4.1638  -20.7990 F   0  0  0  0  0  0  0  0  0  0  0  0
  -11.0727   -2.9871  -21.7494 C   0  0  0  0  0  0  0  0  0  0  0  0
  -10.6026   -2.0252  -22.6496 C   0  0  0  0  0  0  0  0  0  0  0  0
  -10.3906   -3.5277  -21.1004 H   0  0  0  0  0  0  0  0  0  0  0  0
  -14.3825   -3.0003  -22.5328 H   0  0  0  0  0  0  0  0  0  0  0  0
  -13.5836   -1.1354  -24.0335 H   0  0  0  0  0  0  0  0  0  0  0  0
   -7.8773   -0.5842  -24.1875 H   0  0  0  0  0  0  0  0  0  0  0  0
   -9.0983   -1.6261  -24.9703 H   0  0  0  0  0  0  0  0  0  0  0  0
   -6.6057   -3.5027  -21.3490 H   0  0  0  0  0  0  0  0  0  0  0  0
   -6.1203   -2.4255  -22.6566 H   0  0  0  0  0  0  0  0  0  0  0  0
   -8.7758   -3.7576  -22.1290 H   0  0  0  0  0  0  0  0  0  0  0  0
   -7.3674   -3.1021  -24.7633 H   0  0  0  0  0  0  0  0  0  0  0  0
   -8.8870   -3.9947  -24.6123 H   0  0  0  0  0  0  0  0  0  0  0  0
   -7.3883   -4.6669  -23.9508 H   0  0  0  0  0  0  0  0  0  0  0  0
  1  2  1  0
  2  3  1  0
  3  4  1  0
  4  5  1  0
  5  6  2  0
  6  7  1  0
  7  8  2  0
  8  9  1  0
  9 10  2  0
 10 11  1  0
 11 12  2  0
 12 13  1  0
 13 14  2  0
 13 15  1  0
 12 16  1  0
 11 17  1  0
 10 18  1  0
  8 19  1  0
  6 20  1  0
  4 21  1  0
 21 22  2  0
 21 23  1  0
 23 24  1  6
 24 25  1  0
 25 26  1  0
 26 27  1  0
 27 28  2  0
 28 29  1  0
 29 30  2  0
 30 31  1  0
 31 32  1  0
 32 33  1  0
 32 34  1  0
 32 35  1  0
 26 36  1  0
 26 37  1  0
 25 38  1  0
 38 39  2  0
 38 40  1  0
 40 41  2  0
 41 42  1  0
 42 43  2  0
 43 44  1  0
 43 45  1  0
 45 46  2  0
 45 47  1  0
 42 48  1  0
 41 49  1  0
 24 50  1  0
 24 51  1  0
  3 52  1  0
  3 53  1  0
  2 54  1  1
  1 55  1  0
  1 56  1  0
  1 57  1  0
 23  2  1  0
 31 27  1  0
 46 40  1  0
 14  5  1  0
 46 23  1  0
 14  9  1  0
M  END
>  <cnnaffinities>  (32) 
[6.32375]

>  <score>  (32) 
6.32375

>  <index>  (32) 
32

>  <Smiles>  (32) 
C([C@]1(C(N(c2c(nc(c3c(c(c(c(c23)[H])[H])[H])[H])[H])[H])C(=O)[C@]21C(N(C(c1nnnn1C([H])([H])[H])([H])[H])C(=O)c1c(c(c(F)c(c21)[H])[H])[H])([H])[H])([H])[H])[H])([H])([H])[H]

>  <h>  (32) 
<NA>

>  <Training>  (32) 
True

>  <Success>  (32) 
True

>  <enamine_searched>  (32) 
False

>  <enamine_id>  (32) 
nan

$$$$

     RDKit          3D

 66 70  0  0  0  0  0  0  0  0999 V2000
   -7.3725    3.4279  -22.6348 C   0  0  0  0  0  0  0  0  0  0  0  0
   -8.3105    2.8697  -23.5931 N   0  0  0  0  0  0  0  0  0  0  0  0
   -7.8707    1.9837  -24.5216 C   0  0  0  0  0  0  0  0  0  0  0  0
   -6.6835    1.7329  -24.6898 O   0  0  0  0  0  0  0  0  0  0  0  0
   -8.9752    1.2969  -25.3320 C   0  0  0  0  0  0  0  0  0  0  0  0
   -9.5330    0.1745  -24.6017 N   0  0  0  0  0  0  0  0  0  0  0  0
   -8.6248   -0.9479  -24.3585 C   0  0  0  0  0  0  0  0  0  0  0  0
   -8.9825   -1.7596  -23.0296 C   0  0  2  0  0  0  0  0  0  0  0  0
   -8.3368   -0.8627  -21.9158 C   0  0  0  0  0  0  0  0  0  0  0  0
   -8.6158    0.2984  -21.6891 O   0  0  0  0  0  0  0  0  0  0  0  0
   -7.3750   -1.5901  -21.2749 N   0  0  0  0  0  0  0  0  0  0  0  0
   -6.4993   -1.0729  -20.2886 C   0  0  0  0  0  0  0  0  0  0  0  0
   -6.6667   -1.4468  -18.9788 C   0  0  0  0  0  0  0  0  0  0  0  0
   -5.7831   -1.1914  -17.9873 N   0  0  0  0  0  0  0  0  0  0  0  0
   -4.6869   -0.5483  -18.3131 C   0  0  0  0  0  0  0  0  0  0  0  0
   -4.4167   -0.0490  -19.6187 C   0  0  0  0  0  0  0  0  0  0  0  0
   -3.2801    0.7704  -19.8745 C   0  0  0  0  0  0  0  0  0  0  0  0
   -3.1887    1.4819  -21.0372 C   0  0  0  0  0  0  0  0  0  0  0  0
   -4.1406    1.2826  -22.0636 C   0  0  0  0  0  0  0  0  0  0  0  0
   -5.1863    0.4073  -21.8866 C   0  0  0  0  0  0  0  0  0  0  0  0
   -5.3801   -0.2510  -20.6342 C   0  0  0  0  0  0  0  0  0  0  0  0
   -5.8890    0.2537  -22.7014 H   0  0  0  0  0  0  0  0  0  0  0  0
   -4.0471    1.8183  -23.0039 H   0  0  0  0  0  0  0  0  0  0  0  0
   -2.3531    2.1543  -21.2024 H   0  0  0  0  0  0  0  0  0  0  0  0
   -2.5596    0.9119  -19.0749 H   0  0  0  0  0  0  0  0  0  0  0  0
   -3.9656   -0.3596  -17.5169 H   0  0  0  0  0  0  0  0  0  0  0  0
   -7.5689   -1.9781  -18.6783 H   0  0  0  0  0  0  0  0  0  0  0  0
   -7.3924   -3.0007  -21.5885 C   0  0  0  0  0  0  0  0  0  0  0  0
   -8.2478   -3.1216  -22.8640 C   0  0  2  0  0  0  0  0  0  0  0  0
   -7.3760   -3.5780  -24.0330 C   0  0  0  0  0  0  0  0  0  0  0  0
   -6.2984   -2.6764  -24.1240 O   0  0  0  0  0  0  0  0  0  0  0  0
   -5.4196   -2.8149  -25.2242 C   0  0  0  0  0  0  0  0  0  0  0  0
   -5.8139   -1.8600  -26.3474 C   0  0  0  0  0  0  0  0  0  0  0  0
   -6.8045   -2.1023  -26.7501 H   0  0  0  0  0  0  0  0  0  0  0  0
   -5.8363   -0.8238  -25.9855 H   0  0  0  0  0  0  0  0  0  0  0  0
   -5.0944   -1.9233  -27.1727 H   0  0  0  0  0  0  0  0  0  0  0  0
   -4.0566   -2.4817  -24.6519 C   0  0  0  0  0  0  0  0  0  0  0  0
   -3.2807   -2.4864  -25.4242 H   0  0  0  0  0  0  0  0  0  0  0  0
   -3.7832   -3.1933  -23.8666 H   0  0  0  0  0  0  0  0  0  0  0  0
   -4.1241   -1.4849  -24.1953 H   0  0  0  0  0  0  0  0  0  0  0  0
   -5.4366   -3.8526  -25.5958 H   0  0  0  0  0  0  0  0  0  0  0  0
   -6.9930   -4.5974  -23.8527 H   0  0  0  0  0  0  0  0  0  0  0  0
   -7.9611   -3.6093  -24.9647 H   0  0  0  0  0  0  0  0  0  0  0  0
   -9.0144   -3.8854  -22.7222 H   0  0  0  0  0  0  0  0  0  0  0  0
   -7.8443   -3.5510  -20.7658 H   0  0  0  0  0  0  0  0  0  0  0  0
   -6.3696   -3.3629  -21.7202 H   0  0  0  0  0  0  0  0  0  0  0  0
  -10.4776   -1.9656  -22.8923 C   0  0  0  0  0  0  0  0  0  0  0  0
  -11.1618   -3.1325  -22.4871 C   0  0  0  0  0  0  0  0  0  0  0  0
  -12.5735   -2.7810  -22.5860 C   0  0  0  0  0  0  0  0  0  0  0  0
  -13.1263   -2.9094  -20.3539 Cl  0  0  0  0  0  0  0  0  0  0  0  0
  -12.6617   -2.7409  -22.7387 C   0  0  0  0  0  0  0  0  0  0  0  0
  -12.6635   -1.3065  -23.3713 C   0  0  0  0  0  0  0  0  0  0  0  0
  -11.3746   -0.9621  -23.4589 C   0  0  0  0  0  0  0  0  0  0  0  0
  -10.8458    0.2436  -24.1783 C   0  0  0  0  0  0  0  0  0  0  0  0
  -11.5356    1.2315  -24.3836 O   0  0  0  0  0  0  0  0  0  0  0  0
  -13.3863   -1.5467  -24.1317 H   0  0  0  0  0  0  0  0  0  0  0  0
  -13.5892   -3.0862  -23.3317 H   0  0  0  0  0  0  0  0  0  0  0  0
  -11.4693   -3.4101  -21.5683 H   0  0  0  0  0  0  0  0  0  0  0  0
   -8.5858   -1.5954  -25.2431 H   0  0  0  0  0  0  0  0  0  0  0  0
   -7.6229   -0.5350  -24.2499 H   0  0  0  0  0  0  0  0  0  0  0  0
   -9.7954    1.9845  -25.5462 H   0  0  0  0  0  0  0  0  0  0  0  0
   -8.5340    0.9543  -26.2758 H   0  0  0  0  0  0  0  0  0  0  0  0
   -9.2890    2.8422  -23.3424 H   0  0  0  0  0  0  0  0  0  0  0  0
   -6.5943    3.9860  -23.1627 H   0  0  0  0  0  0  0  0  0  0  0  0
   -6.8882    2.6329  -22.0531 H   0  0  0  0  0  0  0  0  0  0  0  0
   -7.9040    4.1019  -21.9605 H   0  0  0  0  0  0  0  0  0  0  0  0
  1  2  1  0
  2  3  1  0
  3  4  2  0
  3  5  1  0
  5  6  1  0
  6  7  1  0
  8  7  1  6
  8  9  1  0
  9 10  2  0
  9 11  1  0
 11 12  1  0
 12 13  2  0
 13 14  1  0
 14 15  2  0
 15 16  1  0
 16 17  2  0
 17 18  1  0
 18 19  2  0
 19 20  1  0
 20 21  2  0
 20 22  1  0
 19 23  1  0
 18 24  1  0
 17 25  1  0
 15 26  1  0
 13 27  1  0
 11 28  1  0
 28 29  1  0
 29 30  1  0
 30 31  1  0
 31 32  1  0
 32 33  1  0
 33 34  1  0
 33 35  1  0
 33 36  1  0
 32 37  1  0
 37 38  1  0
 37 39  1  0
 37 40  1  0
 32 41  1  0
 30 42  1  0
 30 43  1  0
 29 44  1  1
 28 45  1  0
 28 46  1  0
  8 47  1  0
 47 48  2  0
 48 49  1  0
 49 50  1  0
 49 51  2  0
 51 52  1  0
 52 53  2  0
 53 54  1  0
 54 55  2  0
 52 56  1  0
 51 57  1  0
 48 58  1  0
  7 59  1  0
  7 60  1  0
  5 61  1  0
  5 62  1  0
  2 63  1  0
  1 64  1  0
  1 65  1  0
  1 66  1  0
 54  6  1  0
 29  8  1  0
 53 47  1  0
 21 12  1  0
 21 16  1  0
M  END
>  <cnnaffinities>  (33) 
[6.46984]

>  <score>  (33) 
6.46984

>  <index>  (33) 
34

>  <Smiles>  (33) 
C(N(C(=O)C(N1C([C@@]2(C(=O)N(c3c(nc(c4c(c(c(c(c34)[H])[H])[H])[H])[H])[H])C([C@@]2(C(OC(C([H])([H])[H])(C([H])([H])[H])[H])([H])[H])[H])([H])[H])c2c(c(Cl)c(c(c2C1=O)[H])[H])[H])([H])[H])([H])[H])[H])([H])([H])[H]

>  <h>  (33) 
<NA>

>  <Training>  (33) 
True

>  <Success>  (33) 
True

>  <enamine_searched>  (33) 
False

>  <enamine_id>  (33) 
nan

$$$$

     RDKit          3D

 40 42  0  0  0  0  0  0  0  0999 V2000
   -8.8020    0.3505  -20.9055 O   0  0  0  0  0  0  0  0  0  0  0  0
   -8.1719   -0.4035  -21.6177 C   0  0  0  0  0  0  0  0  0  0  0  0
   -7.4652   -1.6166  -21.0228 C   0  0  0  0  0  0  0  0  0  0  0  0
   -6.4421   -1.2104  -19.9954 C   0  0  0  0  0  0  0  0  0  0  0  0
   -6.5446   -1.6004  -18.6879 C   0  0  0  0  0  0  0  0  0  0  0  0
   -5.5701   -1.4480  -17.7543 N   0  0  0  0  0  0  0  0  0  0  0  0
   -4.4893   -0.8045  -18.1225 C   0  0  0  0  0  0  0  0  0  0  0  0
   -4.3129   -0.2114  -19.4034 C   0  0  0  0  0  0  0  0  0  0  0  0
   -3.2313    0.6637  -19.6974 C   0  0  0  0  0  0  0  0  0  0  0  0
   -3.2182    1.3804  -20.8629 C   0  0  0  0  0  0  0  0  0  0  0  0
   -4.1931    1.1416  -21.8546 C   0  0  0  0  0  0  0  0  0  0  0  0
   -5.2103    0.2482  -21.6133 C   0  0  0  0  0  0  0  0  0  0  0  0
   -5.3251   -0.4058  -20.3608 C   0  0  0  0  0  0  0  0  0  0  0  0
   -5.9168    0.0274  -22.3916 H   0  0  0  0  0  0  0  0  0  0  0  0
   -4.1248    1.6405  -22.8173 H   0  0  0  0  0  0  0  0  0  0  0  0
   -2.4267    2.0979  -21.0650 H   0  0  0  0  0  0  0  0  0  0  0  0
   -2.4951    0.8448  -18.9202 H   0  0  0  0  0  0  0  0  0  0  0  0
   -3.6862   -0.7071  -17.3901 H   0  0  0  0  0  0  0  0  0  0  0  0
   -7.4485   -2.1098  -18.3518 H   0  0  0  0  0  0  0  0  0  0  0  0
   -6.9758   -2.2064  -21.7998 H   0  0  0  0  0  0  0  0  0  0  0  0
   -8.2364   -2.2362  -20.5541 H   0  0  0  0  0  0  0  0  0  0  0  0
   -8.0491   -0.1851  -22.9795 N   0  0  0  0  0  0  0  0  0  0  0  0
   -7.5760   -1.1857  -23.9289 C   0  0  0  0  0  0  0  0  0  0  0  0
   -8.2890   -1.0457  -25.2642 C   0  0  0  0  0  0  0  0  0  0  0  0
   -8.2104    0.3908  -25.7867 C   0  0  0  0  0  0  0  0  0  0  0  0
   -9.1592    0.4980  -26.9597 C   0  0  0  0  0  0  0  0  0  0  0  0
   -9.1326    1.6907  -27.5812 F   0  0  0  0  0  0  0  0  0  0  0  0
  -10.4143    0.3143  -26.4946 F   0  0  0  0  0  0  0  0  0  0  0  0
   -8.9581   -0.4532  -27.8913 F   0  0  0  0  0  0  0  0  0  0  0  0
   -8.6116    1.4339  -24.7368 C   0  0  0  0  0  0  0  0  0  0  0  0
   -7.9271    1.2107  -23.4004 C   0  0  0  0  0  0  0  0  0  0  0  0
   -6.8684    1.5162  -23.4708 H   0  0  0  0  0  0  0  0  0  0  0  0
   -8.3999    1.8174  -22.6235 H   0  0  0  0  0  0  0  0  0  0  0  0
   -8.3759    2.4380  -25.1091 H   0  0  0  0  0  0  0  0  0  0  0  0
   -9.6920    1.3891  -24.5916 H   0  0  0  0  0  0  0  0  0  0  0  0
   -7.1914    0.5884  -26.1359 H   0  0  0  0  0  0  0  0  0  0  0  0
   -9.3355   -1.3459  -25.1590 H   0  0  0  0  0  0  0  0  0  0  0  0
   -7.8268   -1.7266  -25.9898 H   0  0  0  0  0  0  0  0  0  0  0  0
   -6.4901   -1.0924  -24.0997 H   0  0  0  0  0  0  0  0  0  0  0  0
   -7.7744   -2.1855  -23.5386 H   0  0  0  0  0  0  0  0  0  0  0  0
  1  2  2  0
  2  3  1  0
  3  4  1  0
  4  5  2  0
  5  6  1  0
  6  7  2  0
  7  8  1  0
  8  9  2  0
  9 10  1  0
 10 11  2  0
 11 12  1  0
 12 13  2  0
 12 14  1  0
 11 15  1  0
 10 16  1  0
  9 17  1  0
  7 18  1  0
  5 19  1  0
  3 20  1  0
  3 21  1  0
  2 22  1  0
 22 23  1  0
 23 24  1  0
 24 25  1  0
 25 26  1  0
 26 27  1  0
 26 28  1  0
 26 29  1  0
 25 30  1  0
 30 31  1  0
 31 32  1  0
 31 33  1  0
 30 34  1  0
 30 35  1  0
 25 36  1  0
 24 37  1  0
 24 38  1  0
 23 39  1  0
 23 40  1  0
 13  4  1  0
 31 22  1  0
 13  8  1  0
M  END
>  <cnnaffinities>  (34) 
[4.70842, 4.77683, 4.77663, 4.77648, 4.7765, 4.77647, 4.77642, 4.77647, 4.77642, 4.7764, 4.77633, 4.77628, 5.4122, 5.41218, 5.41224, 5.41227]

>  <score>  (34) 
4.70842

>  <index>  (34) 
35

>  <Smiles>  (34) 
O=C(C(c1c(nc(c2c(c(c(c(c12)[H])[H])[H])[H])[H])[H])([H])[H])N1C(C(C(C(F)(F)F)(C(C1([H])[H])([H])[H])[H])([H])[H])([H])[H]

>  <h>  (34) 
<NA>

>  <Training>  (34) 
True

>  <Success>  (34) 
True

>  <enamine_searched>  (34) 
False

>  <enamine_id>  (34) 
nan

$$$$

     RDKit          3D

 47 50  0  0  0  0  0  0  0  0999 V2000
   -8.8248    0.4790  -21.0763 O   0  0  0  0  0  0  0  0  0  0  0  0
   -8.4538   -0.4400  -21.7911 C   0  0  0  0  0  0  0  0  0  0  0  0
   -7.4638   -1.4935  -21.2650 C   0  0  0  0  0  0  0  0  0  0  0  0
   -6.5725   -0.9871  -20.1844 C   0  0  0  0  0  0  0  0  0  0  0  0
   -6.8219   -1.2383  -18.8608 C   0  0  0  0  0  0  0  0  0  0  0  0
   -5.9248   -1.0313  -17.8654 N   0  0  0  0  0  0  0  0  0  0  0  0
   -4.7738   -0.5057  -18.2119 C   0  0  0  0  0  0  0  0  0  0  0  0
   -4.4470   -0.0561  -19.5218 C   0  0  0  0  0  0  0  0  0  0  0  0
   -3.2833    0.7086  -19.7915 C   0  0  0  0  0  0  0  0  0  0  0  0
   -3.1617    1.3905  -20.9675 C   0  0  0  0  0  0  0  0  0  0  0  0
   -4.0926    1.1681  -22.0148 C   0  0  0  0  0  0  0  0  0  0  0  0
   -5.1504    0.3130  -21.8321 C   0  0  0  0  0  0  0  0  0  0  0  0
   -5.3962   -0.2591  -20.5449 C   0  0  0  0  0  0  0  0  0  0  0  0
   -5.7946    0.1086  -22.6884 H   0  0  0  0  0  0  0  0  0  0  0  0
   -3.9418    1.6733  -22.9670 H   0  0  0  0  0  0  0  0  0  0  0  0
   -2.2881    2.0024  -21.1577 H   0  0  0  0  0  0  0  0  0  0  0  0
   -2.5530    0.8430  -19.0025 H   0  0  0  0  0  0  0  0  0  0  0  0
   -4.0440   -0.4005  -17.4128 H   0  0  0  0  0  0  0  0  0  0  0  0
   -7.7745   -1.6766  -18.5544 H   0  0  0  0  0  0  0  0  0  0  0  0
   -6.8045   -1.8726  -22.0541 H   0  0  0  0  0  0  0  0  0  0  0  0
   -8.0619   -2.3473  -20.9049 H   0  0  0  0  0  0  0  0  0  0  0  0
   -8.9277   -0.6042  -23.0641 N   0  0  0  0  0  0  0  0  0  0  0  0
   -9.7824    0.4462  -23.6114 C   0  0  0  0  0  0  0  0  0  0  0  0
  -10.9396   -0.1896  -24.3568 C   0  0  0  0  0  0  0  0  0  0  0  0
  -10.4384   -1.1593  -25.4253 C   0  0  0  0  0  0  0  0  0  0  0  0
   -9.4911   -2.2125  -24.8574 C   0  0  0  0  0  0  0  0  0  0  0  0
   -8.4066   -1.6535  -23.9333 C   0  0  1  0  0  0  0  0  0  0  0  0
   -7.1009   -1.2637  -24.6335 C   0  0  0  0  0  0  0  0  0  0  0  0
   -6.0833   -2.2161  -24.7613 C   0  0  0  0  0  0  0  0  0  0  0  0
   -4.8734   -1.9069  -25.3792 C   0  0  0  0  0  0  0  0  0  0  0  0
   -4.6540   -0.6231  -25.8734 C   0  0  0  0  0  0  0  0  0  0  0  0
   -5.6617    0.3312  -25.7576 C   0  0  0  0  0  0  0  0  0  0  0  0
   -6.8696    0.0117  -25.1486 C   0  0  0  0  0  0  0  0  0  0  0  0
   -7.6217    0.7877  -25.0724 H   0  0  0  0  0  0  0  0  0  0  0  0
   -5.5137    1.3434  -26.1281 H   0  0  0  0  0  0  0  0  0  0  0  0
   -3.7109   -0.3626  -26.3468 H   0  0  0  0  0  0  0  0  0  0  0  0
   -4.0973   -2.6655  -25.4590 H   0  0  0  0  0  0  0  0  0  0  0  0
   -6.2319   -3.2191  -24.3624 H   0  0  0  0  0  0  0  0  0  0  0  0
   -8.1508   -2.4865  -23.2738 H   0  0  0  0  0  0  0  0  0  0  0  0
   -8.9980   -2.7671  -25.6638 H   0  0  0  0  0  0  0  0  0  0  0  0
  -10.0625   -2.9541  -24.2860 H   0  0  0  0  0  0  0  0  0  0  0  0
   -9.9265   -0.6065  -26.2282 H   0  0  0  0  0  0  0  0  0  0  0  0
  -11.2985   -1.6827  -25.8491 H   0  0  0  0  0  0  0  0  0  0  0  0
  -11.5460    0.5950  -24.8207 H   0  0  0  0  0  0  0  0  0  0  0  0
  -11.5746   -0.7158  -23.6327 H   0  0  0  0  0  0  0  0  0  0  0  0
  -10.1299    1.0611  -22.7802 H   0  0  0  0  0  0  0  0  0  0  0  0
   -9.2302    1.1171  -24.2843 H   0  0  0  0  0  0  0  0  0  0  0  0
  1  2  2  0
  2  3  1  0
  3  4  1  0
  4  5  2  0
  5  6  1  0
  6  7  2  0
  7  8  1  0
  8  9  2  0
  9 10  1  0
 10 11  2  0
 11 12  1  0
 12 13  2  0
 12 14  1  0
 11 15  1  0
 10 16  1  0
  9 17  1  0
  7 18  1  0
  5 19  1  0
  3 20  1  0
  3 21  1  0
  2 22  1  0
 22 23  1  0
 23 24  1  0
 24 25  1  0
 25 26  1  0
 26 27  1  0
 27 28  1  0
 28 29  2  0
 29 30  1  0
 30 31  2  0
 31 32  1  0
 32 33  2  0
 33 34  1  0
 32 35  1  0
 31 36  1  0
 30 37  1  0
 29 38  1  0
 27 39  1  1
 26 40  1  0
 26 41  1  0
 25 42  1  0
 25 43  1  0
 24 44  1  0
 24 45  1  0
 23 46  1  0
 23 47  1  0
 13  4  1  0
 27 22  1  0
 33 28  1  0
 13  8  1  0
M  END
>  <cnnaffinities>  (35) 
[5.06802, 5.06749, 5.37101, 5.37104, 5.67825, 5.67809, 5.34411, 5.34417]

>  <score>  (35) 
5.06802

>  <index>  (35) 
36

>  <Smiles>  (35) 
O=C(C(c1c(nc(c2c(c(c(c(c12)[H])[H])[H])[H])[H])[H])([H])[H])N1C(C(C(C([C@]1(c1c(c(c(c(c1[H])[H])[H])[H])[H])[H])([H])[H])([H])[H])([H])[H])([H])[H]

>  <h>  (35) 
<NA>

>  <Training>  (35) 
True

>  <Success>  (35) 
True

>  <enamine_searched>  (35) 
False

>  <enamine_id>  (35) 
nan

$$$$

     RDKit          3D

 56 60  0  0  0  0  0  0  0  0999 V2000
   -7.2648    3.3745  -21.8721 C   0  0  0  0  0  0  0  0  0  0  0  0
   -8.1167    2.9353  -22.9646 N   0  0  0  0  0  0  0  0  0  0  0  0
   -7.5571    2.2438  -23.9932 C   0  0  0  0  0  0  0  0  0  0  0  0
   -6.3501    2.0803  -24.0908 O   0  0  0  0  0  0  0  0  0  0  0  0
   -8.5399    1.6600  -25.0168 C   0  0  0  0  0  0  0  0  0  0  0  0
   -9.2507    0.5228  -24.4562 N   0  0  0  0  0  0  0  0  0  0  0  0
   -8.5220   -0.7227  -24.2570 C   0  0  0  0  0  0  0  0  0  0  0  0
   -8.9657   -1.4635  -22.9697 C   0  0  2  0  0  0  0  0  0  0  0  0
   -8.4456   -0.7280  -21.7130 C   0  0  0  0  0  0  0  0  0  0  0  0
   -8.8398    0.3178  -21.2354 O   0  0  0  0  0  0  0  0  0  0  0  0
   -7.4108   -1.4643  -21.1851 N   0  0  0  0  0  0  0  0  0  0  0  0
   -6.5572   -0.9424  -20.1901 C   0  0  0  0  0  0  0  0  0  0  0  0
   -6.8388   -1.1325  -18.8661 C   0  0  0  0  0  0  0  0  0  0  0  0
   -5.9724   -0.8681  -17.8589 N   0  0  0  0  0  0  0  0  0  0  0  0
   -4.7996   -0.3875  -18.2010 C   0  0  0  0  0  0  0  0  0  0  0  0
   -4.4283   -0.0429  -19.5336 C   0  0  0  0  0  0  0  0  0  0  0  0
   -3.2518    0.6987  -19.8298 C   0  0  0  0  0  0  0  0  0  0  0  0
   -3.1536    1.4028  -20.9980 C   0  0  0  0  0  0  0  0  0  0  0  0
   -4.0843    1.1700  -22.0436 C   0  0  0  0  0  0  0  0  0  0  0  0
   -5.1127    0.2817  -21.8528 C   0  0  0  0  0  0  0  0  0  0  0  0
   -5.3704   -0.2489  -20.5576 C   0  0  0  0  0  0  0  0  0  0  0  0
   -5.7444   -0.0036  -22.6889 H   0  0  0  0  0  0  0  0  0  0  0  0
   -3.9654    1.6651  -23.0019 H   0  0  0  0  0  0  0  0  0  0  0  0
   -2.2826    2.0243  -21.1872 H   0  0  0  0  0  0  0  0  0  0  0  0
   -2.5107    0.8048  -19.0466 H   0  0  0  0  0  0  0  0  0  0  0  0
   -4.0969   -0.1682  -17.4003 H   0  0  0  0  0  0  0  0  0  0  0  0
   -7.8099   -1.5197  -18.5774 H   0  0  0  0  0  0  0  0  0  0  0  0
   -7.0487   -2.6467  -21.9352 C   0  0  0  0  0  0  0  0  0  0  0  0
   -8.2708   -2.8615  -22.8368 C   0  0  2  0  0  0  0  0  0  0  0  0
   -7.9122   -3.5916  -24.1252 C   0  0  0  0  0  0  0  0  0  0  0  0
   -7.1531   -3.0433  -24.6941 H   0  0  0  0  0  0  0  0  0  0  0  0
   -7.4941   -4.5761  -23.8920 H   0  0  0  0  0  0  0  0  0  0  0  0
   -8.7820   -3.7378  -24.7735 H   0  0  0  0  0  0  0  0  0  0  0  0
   -8.9596   -3.5009  -22.2795 H   0  0  0  0  0  0  0  0  0  0  0  0
   -6.1279   -2.5023  -22.5269 H   0  0  0  0  0  0  0  0  0  0  0  0
   -6.8721   -3.5009  -21.2653 H   0  0  0  0  0  0  0  0  0  0  0  0
  -10.4800   -1.5213  -22.9681 C   0  0  0  0  0  0  0  0  0  0  0  0
  -11.1606   -2.4173  -22.1359 C   0  0  0  0  0  0  0  0  0  0  0  0
  -12.5114   -2.6516  -22.3177 C   0  0  0  0  0  0  0  0  0  0  0  0
  -13.2251   -1.9233  -23.2712 C   0  0  0  0  0  0  0  0  0  0  0  0
  -12.6066   -0.8896  -23.9502 C   0  0  0  0  0  0  0  0  0  0  0  0
  -11.2460   -0.6550  -23.7591 C   0  0  0  0  0  0  0  0  0  0  0  0
  -10.6180    0.5539  -24.3916 C   0  0  0  0  0  0  0  0  0  0  0  0
  -11.2782    1.4930  -24.8156 O   0  0  0  0  0  0  0  0  0  0  0  0
  -13.1591   -0.2690  -24.6460 H   0  0  0  0  0  0  0  0  0  0  0  0
  -14.2802   -2.1163  -23.4196 H   0  0  0  0  0  0  0  0  0  0  0  0
  -13.0034   -3.4328  -21.7446 H   0  0  0  0  0  0  0  0  0  0  0  0
  -10.6359   -2.9547  -21.3503 H   0  0  0  0  0  0  0  0  0  0  0  0
   -8.6935   -1.3809  -25.1190 H   0  0  0  0  0  0  0  0  0  0  0  0
   -7.4522   -0.4995  -24.2139 H   0  0  0  0  0  0  0  0  0  0  0  0
   -7.9675    1.3602  -25.9023 H   0  0  0  0  0  0  0  0  0  0  0  0
   -9.2890    2.3979  -25.3240 H   0  0  0  0  0  0  0  0  0  0  0  0
   -9.0937    2.7798  -22.7631 H   0  0  0  0  0  0  0  0  0  0  0  0
   -6.7319    2.5259  -21.4190 H   0  0  0  0  0  0  0  0  0  0  0  0
   -6.5260    4.0873  -22.2481 H   0  0  0  0  0  0  0  0  0  0  0  0
   -7.8733    3.8734  -21.1163 H   0  0  0  0  0  0  0  0  0  0  0  0
  1  2  1  0
  2  3  1  0
  3  4  2  0
  3  5  1  0
  5  6  1  0
  6  7  1  0
  8  7  1  6
  8  9  1  0
  9 10  2  0
  9 11  1  0
 11 12  1  0
 12 13  2  0
 13 14  1  0
 14 15  2  0
 15 16  1  0
 16 17  2  0
 17 18  1  0
 18 19  2  0
 19 20  1  0
 20 21  2  0
 20 22  1  0
 19 23  1  0
 18 24  1  0
 17 25  1  0
 15 26  1  0
 13 27  1  0
 11 28  1  0
 28 29  1  0
 29 30  1  0
 30 31  1  0
 30 32  1  0
 30 33  1  0
 29 34  1  1
 28 35  1  0
 28 36  1  0
  8 37  1  0
 37 38  2  0
 38 39  1  0
 39 40  2  0
 40 41  1  0
 41 42  2  0
 42 43  1  0
 43 44  2  0
 41 45  1  0
 40 46  1  0
 39 47  1  0
 38 48  1  0
  7 49  1  0
  7 50  1  0
  5 51  1  0
  5 52  1  0
  2 53  1  0
  1 54  1  0
  1 55  1  0
  1 56  1  0
 43  6  1  0
 29  8  1  0
 42 37  1  0
 21 12  1  0
 21 16  1  0
M  END
>  <cnnaffinities>  (36) 
[6.10556, 6.29366, 5.92893]

>  <score>  (36) 
6.10556

>  <index>  (36) 
37

>  <Smiles>  (36) 
C(N(C(=O)C(N1C([C@@]2(C(=O)N(c3c(nc(c4c(c(c(c(c34)[H])[H])[H])[H])[H])[H])C([C@@]2(C([H])([H])[H])[H])([H])[H])c2c(c(c(c(c2C1=O)[H])[H])[H])[H])([H])[H])([H])[H])[H])([H])([H])[H]

>  <h>  (36) 
<NA>

>  <Training>  (36) 
True

>  <Success>  (36) 
True

>  <enamine_searched>  (36) 
False

>  <enamine_id>  (36) 
nan

$$$$

     RDKit          3D

 46 48  0  0  0  0  0  0  0  0999 V2000
   -8.1441   -4.6729  -26.5246 C   0  0  0  0  0  0  0  0  0  0  0  0
   -8.6539   -4.9466  -25.1088 C   0  0  1  0  0  0  0  0  0  0  0  0
   -7.5923   -5.5300  -24.1738 C   0  0  0  0  0  0  0  0  0  0  0  0
   -6.6136   -4.5284  -23.5649 C   0  0  1  0  0  0  0  0  0  0  0  0
   -5.4241   -4.1469  -24.4485 C   0  0  0  0  0  0  0  0  0  0  0  0
   -4.6373   -3.6971  -23.8356 H   0  0  0  0  0  0  0  0  0  0  0  0
   -5.6984   -3.4178  -25.2142 H   0  0  0  0  0  0  0  0  0  0  0  0
   -5.0260   -5.0454  -24.9332 H   0  0  0  0  0  0  0  0  0  0  0  0
   -7.3204   -3.3511  -23.0356 N   0  0  0  0  0  0  0  0  0  0  0  0
   -6.7168   -2.7629  -21.9541 C   0  0  0  0  0  0  0  0  0  0  0  0
   -5.6769   -3.2106  -21.4841 O   0  0  0  0  0  0  0  0  0  0  0  0
   -7.3921   -1.5461  -21.3081 C   0  0  0  0  0  0  0  0  0  0  0  0
   -6.5178   -0.9911  -20.2376 C   0  0  0  0  0  0  0  0  0  0  0  0
   -6.8283   -1.1498  -18.9161 C   0  0  0  0  0  0  0  0  0  0  0  0
   -6.0471   -0.7795  -17.8643 N   0  0  0  0  0  0  0  0  0  0  0  0
   -4.8910   -0.2355  -18.1750 C   0  0  0  0  0  0  0  0  0  0  0  0
   -4.4577    0.0188  -19.5119 C   0  0  0  0  0  0  0  0  0  0  0  0
   -3.2861    0.7882  -19.7717 C   0  0  0  0  0  0  0  0  0  0  0  0
   -3.1361    1.4198  -20.9754 C   0  0  0  0  0  0  0  0  0  0  0  0
   -4.0173    1.0992  -22.0451 C   0  0  0  0  0  0  0  0  0  0  0  0
   -5.0377    0.1965  -21.8769 C   0  0  0  0  0  0  0  0  0  0  0  0
   -5.3275   -0.2959  -20.5767 C   0  0  0  0  0  0  0  0  0  0  0  0
   -5.6644   -0.1092  -22.7133 H   0  0  0  0  0  0  0  0  0  0  0  0
   -3.8460    1.5315  -23.0214 H   0  0  0  0  0  0  0  0  0  0  0  0
   -2.3023    2.1018  -21.1411 H   0  0  0  0  0  0  0  0  0  0  0  0
   -2.5967    0.9485  -18.9423 H   0  0  0  0  0  0  0  0  0  0  0  0
   -4.2653    0.1470  -17.3597 H   0  0  0  0  0  0  0  0  0  0  0  0
   -7.7970   -1.5791  -18.6613 H   0  0  0  0  0  0  0  0  0  0  0  0
   -7.6000   -0.7842  -22.0684 H   0  0  0  0  0  0  0  0  0  0  0  0
   -8.3554   -1.8666  -20.8874 H   0  0  0  0  0  0  0  0  0  0  0  0
   -8.4128   -2.7117  -23.7925 C   0  0  1  0  0  0  0  0  0  0  0  0
   -7.9388   -1.6639  -24.8033 C   0  0  0  0  0  0  0  0  0  0  0  0
   -7.4465   -2.1196  -25.6650 H   0  0  0  0  0  0  0  0  0  0  0  0
   -8.8020   -1.0980  -25.1750 H   0  0  0  0  0  0  0  0  0  0  0  0
   -7.2321   -0.9575  -24.3555 H   0  0  0  0  0  0  0  0  0  0  0  0
   -9.3409   -3.7640  -24.4150 C   0  0  0  0  0  0  0  0  0  0  0  0
   -9.9690   -4.1616  -23.6110 H   0  0  0  0  0  0  0  0  0  0  0  0
  -10.0287   -3.2588  -25.1080 H   0  0  0  0  0  0  0  0  0  0  0  0
   -9.0292   -2.1792  -23.0588 H   0  0  0  0  0  0  0  0  0  0  0  0
   -6.1891   -5.0192  -22.6858 H   0  0  0  0  0  0  0  0  0  0  0  0
   -8.1015   -6.0302  -23.3420 H   0  0  0  0  0  0  0  0  0  0  0  0
   -7.0100   -6.3098  -24.6837 H   0  0  0  0  0  0  0  0  0  0  0  0
   -9.4266   -5.7199  -25.2149 H   0  0  0  0  0  0  0  0  0  0  0  0
   -7.9025   -5.6194  -27.0218 H   0  0  0  0  0  0  0  0  0  0  0  0
   -8.9124   -4.1705  -27.1232 H   0  0  0  0  0  0  0  0  0  0  0  0
   -7.2384   -4.0611  -26.5541 H   0  0  0  0  0  0  0  0  0  0  0  0
  1  2  1  0
  2  3  1  0
  3  4  1  0
  4  5  1  0
  5  6  1  0
  5  7  1  0
  5  8  1  0
  4  9  1  0
  9 10  1  0
 10 11  2  0
 10 12  1  0
 12 13  1  0
 13 14  2  0
 14 15  1  0
 15 16  2  0
 16 17  1  0
 17 18  2  0
 18 19  1  0
 19 20  2  0
 20 21  1  0
 21 22  2  0
 21 23  1  0
 20 24  1  0
 19 25  1  0
 18 26  1  0
 16 27  1  0
 14 28  1  0
 12 29  1  0
 12 30  1  0
  9 31  1  0
 31 32  1  0
 32 33  1  0
 32 34  1  0
 32 35  1  0
 31 36  1  0
 36 37  1  0
 36 38  1  0
 31 39  1  1
  4 40  1  1
  3 41  1  0
  3 42  1  0
  2 43  1  6
  1 44  1  0
  1 45  1  0
  1 46  1  0
 36  2  1  0
 22 13  1  0
 22 17  1  0
M  END
>  <cnnaffinities>  (37) 
[5.29879]

>  <score>  (37) 
5.29879

>  <index>  (37) 
38

>  <Smiles>  (37) 
C([C@]1(C([C@@](C([H])([H])[H])(N(C(=O)C(c2c(nc(c3c(c(c(c(c23)[H])[H])[H])[H])[H])[H])([H])[H])[C@@](C([H])([H])[H])(C1([H])[H])[H])[H])([H])[H])[H])([H])([H])[H]

>  <h>  (37) 
<NA>

>  <Training>  (37) 
True

>  <Success>  (37) 
True

>  <enamine_searched>  (37) 
False

>  <enamine_id>  (37) 
nan

$$$$

     RDKit          3D

 40 44  0  0  0  0  0  0  0  0999 V2000
  -10.1686   -0.5077  -25.6908 C   0  0  0  0  0  0  0  0  0  0  0  0
  -10.3121   -2.0031  -25.4641 C   0  0  0  0  0  0  0  0  0  0  0  0
  -10.1281   -2.8406  -26.3314 O   0  0  0  0  0  0  0  0  0  0  0  0
  -10.7137   -2.3753  -24.2029 N   0  0  0  0  0  0  0  0  0  0  0  0
  -10.3875   -3.7543  -23.7463 C   0  0  0  0  0  0  0  0  0  0  0  0
  -10.0402   -3.5070  -22.2807 C   0  0  2  0  0  0  0  0  0  0  0  0
  -11.0572   -2.4159  -21.9129 C   0  0  0  0  0  0  0  0  0  0  0  0
  -10.5644   -1.4763  -23.0339 C   0  0  1  0  0  0  0  0  0  0  0  0
   -9.1344   -1.4275  -22.6818 C   0  0  0  0  0  0  0  0  0  0  0  0
   -8.2309   -0.5295  -22.0291 C   0  0  0  0  0  0  0  0  0  0  0  0
   -8.1765    0.6763  -21.9907 O   0  0  0  0  0  1  0  0  0  0  0  0
   -7.3462   -1.4051  -21.3139 N   0  0  0  0  0  0  0  0  0  0  0  0
   -6.4821   -0.9809  -20.2719 C   0  0  0  0  0  0  0  0  0  0  0  0
   -6.7889   -1.1976  -18.9466 C   0  0  0  0  0  0  0  0  0  0  0  0
   -5.9444   -0.9180  -17.9184 N   0  0  0  0  0  0  0  0  0  0  0  0
   -4.7659   -0.4273  -18.2249 C   0  0  0  0  0  0  0  0  0  0  0  0
   -4.3797   -0.0415  -19.5444 C   0  0  0  0  0  0  0  0  0  0  0  0
   -3.2051    0.7246  -19.7999 C   0  0  0  0  0  0  0  0  0  0  0  0
   -3.0810    1.4223  -20.9692 C   0  0  0  0  0  0  0  0  0  0  0  0
   -4.0033    1.2087  -22.0184 C   0  0  0  0  0  0  0  0  0  0  0  0
   -5.0130    0.2974  -21.8663 C   0  0  0  0  0  0  0  0  0  0  0  0
   -5.2935   -0.2579  -20.5918 C   0  0  0  0  0  0  0  0  0  0  0  0
   -5.6102   -0.0156  -22.7091 H   0  0  0  0  0  0  0  0  0  0  0  0
   -3.8413    1.6766  -22.9804 H   0  0  0  0  0  0  0  0  0  0  0  0
   -2.2168    2.0559  -21.1429 H   0  0  0  0  0  0  0  0  0  0  0  0
   -2.4688    0.8336  -19.0135 H   0  0  0  0  0  0  0  0  0  0  0  0
   -4.0824   -0.2394  -17.3930 H   0  0  0  0  0  0  0  0  0  0  0  0
   -7.7626   -1.5857  -18.6457 H   0  0  0  0  0  0  0  0  0  0  0  0
   -7.6504   -2.7599  -21.5460 C   0  0  0  0  0  0  0  0  0  0  0  0
   -7.0314   -3.7330  -21.1870 O   0  0  0  0  0  0  0  0  0  0  0  0
   -8.7924   -2.7096  -22.3164 N   0  0  0  0  0  0  0  0  0  0  0  0
  -11.0711   -0.5148  -23.1535 H   0  0  0  0  0  0  0  0  0  0  0  0
  -10.8423   -1.9971  -20.9350 H   0  0  0  0  0  0  0  0  0  0  0  0
  -12.1003   -2.7143  -22.0257 H   0  0  0  0  0  0  0  0  0  0  0  0
   -9.9338   -4.3666  -21.6315 H   0  0  0  0  0  0  0  0  0  0  0  0
   -9.5126   -4.1320  -24.2770 H   0  0  0  0  0  0  0  0  0  0  0  0
  -11.2277   -4.4390  -23.8923 H   0  0  0  0  0  0  0  0  0  0  0  0
  -11.1290   -0.0061  -25.5393 H   0  0  0  0  0  0  0  0  0  0  0  0
   -9.4787   -0.0641  -24.9665 H   0  0  0  0  0  0  0  0  0  0  0  0
   -9.8258   -0.3162  -26.7091 H   0  0  0  0  0  0  0  0  0  0  0  0
  1  2  1  0
  2  3  2  0
  2  4  1  0
  4  5  1  0
  5  6  1  0
  6  7  1  0
  7  8  1  0
  8  9  1  0
  9 10  2  0
 10 11  1  0
 10 12  1  0
 12 13  1  0
 13 14  2  0
 14 15  1  0
 15 16  2  0
 16 17  1  0
 17 18  2  0
 18 19  1  0
 19 20  2  0
 20 21  1  0
 21 22  2  0
 21 23  1  0
 20 24  1  0
 19 25  1  0
 18 26  1  0
 16 27  1  0
 14 28  1  0
 12 29  1  0
 29 30  2  0
 29 31  1  0
  8 32  1  6
  7 33  1  0
  7 34  1  0
  6 35  1  1
  5 36  1  0
  5 37  1  0
  1 38  1  0
  1 39  1  0
  1 40  1  0
  8  4  1  0
 31  9  1  0
 31  6  1  0
 22 13  1  0
 22 17  1  0
M  CHG  1  11  -1
M  END
>  <cnnaffinities>  (38) 
[5.38826, 5.55712, 5.44812]

>  <score>  (38) 
5.38826

>  <index>  (38) 
39

>  <Smiles>  (38) 
C(C(=O)N1C([C@@]2(C([C@]1(c1c([O-])n(c3c(nc(c4c(c(c(c(c34)[H])[H])[H])[H])[H])[H])c(=O)n21)[H])([H])[H])[H])([H])[H])([H])([H])[H]

>  <h>  (38) 
<NA>

>  <Training>  (38) 
True

>  <Success>  (38) 
True

>  <enamine_searched>  (38) 
False

>  <enamine_id>  (38) 
nan

$$$$

     RDKit          3D

 40 42  0  0  0  0  0  0  0  0999 V2000
   -9.3033   -6.6204  -25.1109 C   0  0  0  0  0  0  0  0  0  0  0  0
   -8.9926   -5.8003  -23.8651 C   0  0  0  0  0  0  0  0  0  0  0  0
   -7.5443   -5.9885  -23.4190 C   0  0  0  0  0  0  0  0  0  0  0  0
   -7.2561   -5.1816  -22.1713 C   0  0  0  0  0  0  0  0  0  0  0  0
   -7.6219   -3.7815  -22.3553 N   0  0  0  0  0  0  0  0  0  0  0  0
   -6.7811   -2.8611  -21.7934 C   0  0  0  0  0  0  0  0  0  0  0  0
   -5.5918   -3.1111  -21.6353 O   0  0  0  0  0  0  0  0  0  0  0  0
   -7.3923   -1.5428  -21.2971 C   0  0  0  0  0  0  0  0  0  0  0  0
   -6.5177   -0.9728  -20.2300 C   0  0  0  0  0  0  0  0  0  0  0  0
   -6.8285   -1.1300  -18.9057 C   0  0  0  0  0  0  0  0  0  0  0  0
   -6.0431   -0.7666  -17.8556 N   0  0  0  0  0  0  0  0  0  0  0  0
   -4.8835   -0.2278  -18.1648 C   0  0  0  0  0  0  0  0  0  0  0  0
   -4.4509    0.0226  -19.5021 C   0  0  0  0  0  0  0  0  0  0  0  0
   -3.2792    0.7882  -19.7670 C   0  0  0  0  0  0  0  0  0  0  0  0
   -3.1354    1.4181  -20.9731 C   0  0  0  0  0  0  0  0  0  0  0  0
   -4.0163    1.0946  -22.0402 C   0  0  0  0  0  0  0  0  0  0  0  0
   -5.0341    0.1920  -21.8682 C   0  0  0  0  0  0  0  0  0  0  0  0
   -5.3229   -0.2877  -20.5660 C   0  0  0  0  0  0  0  0  0  0  0  0
   -5.6506   -0.1293  -22.7040 H   0  0  0  0  0  0  0  0  0  0  0  0
   -3.8469    1.5216  -23.0191 H   0  0  0  0  0  0  0  0  0  0  0  0
   -2.3050    2.1023  -21.1409 H   0  0  0  0  0  0  0  0  0  0  0  0
   -2.5848    0.9495  -18.9430 H   0  0  0  0  0  0  0  0  0  0  0  0
   -4.2548    0.1509  -17.3499 H   0  0  0  0  0  0  0  0  0  0  0  0
   -7.7960   -1.5554  -18.6385 H   0  0  0  0  0  0  0  0  0  0  0  0
   -7.5193   -0.8523  -22.1415 H   0  0  0  0  0  0  0  0  0  0  0  0
   -8.3884   -1.7430  -20.8809 H   0  0  0  0  0  0  0  0  0  0  0  0
   -8.9859   -3.5154  -22.7960 C   0  0  0  0  0  0  0  0  0  0  0  0
   -9.2867   -4.3128  -24.0606 C   0  0  0  0  0  0  0  0  0  0  0  0
  -10.3313   -4.1559  -24.3578 H   0  0  0  0  0  0  0  0  0  0  0  0
   -8.6656   -3.9298  -24.8777 H   0  0  0  0  0  0  0  0  0  0  0  0
   -9.1058   -2.4464  -22.9919 H   0  0  0  0  0  0  0  0  0  0  0  0
   -9.7142   -3.7839  -22.0141 H   0  0  0  0  0  0  0  0  0  0  0  0
   -7.8091   -5.6074  -21.3199 H   0  0  0  0  0  0  0  0  0  0  0  0
   -6.1973   -5.2002  -21.9108 H   0  0  0  0  0  0  0  0  0  0  0  0
   -6.8722   -5.6698  -24.2237 H   0  0  0  0  0  0  0  0  0  0  0  0
   -7.3254   -7.0455  -23.2209 H   0  0  0  0  0  0  0  0  0  0  0  0
   -9.6328   -6.1551  -23.0517 H   0  0  0  0  0  0  0  0  0  0  0  0
   -9.1184   -7.6867  -24.9396 H   0  0  0  0  0  0  0  0  0  0  0  0
  -10.3482   -6.5041  -25.4173 H   0  0  0  0  0  0  0  0  0  0  0  0
   -8.6692   -6.3015  -25.9456 H   0  0  0  0  0  0  0  0  0  0  0  0
  1  2  1  0
  2  3  1  0
  3  4  1  0
  4  5  1  0
  5  6  1  0
  6  7  2  0
  6  8  1  0
  8  9  1  0
  9 10  2  0
 10 11  1  0
 11 12  2  0
 12 13  1  0
 13 14  2  0
 14 15  1  0
 15 16  2  0
 16 17  1  0
 17 18  2  0
 17 19  1  0
 16 20  1  0
 15 21  1  0
 14 22  1  0
 12 23  1  0
 10 24  1  0
  8 25  1  0
  8 26  1  0
  5 27  1  0
 27 28  1  0
 28 29  1  0
 28 30  1  0
 27 31  1  0
 27 32  1  0
  4 33  1  0
  4 34  1  0
  3 35  1  0
  3 36  1  0
  2 37  1  0
  1 38  1  0
  1 39  1  0
  1 40  1  0
 28  2  1  0
 18  9  1  0
 18 13  1  0
M  END
>  <cnnaffinities>  (39) 
[5.11622, 5.11607, 4.51287, 4.51286]

>  <score>  (39) 
5.11622

>  <index>  (39) 
40

>  <Smiles>  (39) 
C(C1(C(C(N(C(=O)C(c2c(nc(c3c(c(c(c(c23)[H])[H])[H])[H])[H])[H])([H])[H])C(C1([H])[H])([H])[H])([H])[H])([H])[H])[H])([H])([H])[H]

>  <h>  (39) 
<NA>

>  <Training>  (39) 
True

>  <Success>  (39) 
True

>  <enamine_searched>  (39) 
False

>  <enamine_id>  (39) 
nan

$$$$

     RDKit          3D

 67 71  0  0  0  0  0  0  0  0999 V2000
   -7.2864    3.2565  -21.6765 C   0  0  0  0  0  0  0  0  0  0  0  0
   -8.2540    2.8215  -22.6680 N   0  0  0  0  0  0  0  0  0  0  0  0
   -7.8122    2.2010  -23.7916 C   0  0  0  0  0  0  0  0  0  0  0  0
   -6.6198    2.0502  -24.0308 O   0  0  0  0  0  0  0  0  0  0  0  0
   -8.8907    1.6847  -24.7531 C   0  0  0  0  0  0  0  0  0  0  0  0
   -9.5201    0.4760  -24.2396 N   0  0  0  0  0  0  0  0  0  0  0  0
   -8.7171   -0.7298  -24.1242 C   0  0  0  0  0  0  0  0  0  0  0  0
   -9.0811   -1.5461  -22.8527 C   0  0  2  0  0  0  0  0  0  0  0  0
   -8.5439   -0.8348  -21.5911 C   0  0  0  0  0  0  0  0  0  0  0  0
   -8.9932    0.1558  -21.0499 O   0  0  0  0  0  0  0  0  0  0  0  0
   -7.4075   -1.4896  -21.1765 N   0  0  0  0  0  0  0  0  0  0  0  0
   -6.5606   -0.9636  -20.1768 C   0  0  0  0  0  0  0  0  0  0  0  0
   -6.8330   -1.1706  -18.8499 C   0  0  0  0  0  0  0  0  0  0  0  0
   -5.9288   -0.9594  -17.8630 N   0  0  0  0  0  0  0  0  0  0  0  0
   -4.7628   -0.4580  -18.2034 C   0  0  0  0  0  0  0  0  0  0  0  0
   -4.4296   -0.0341  -19.5252 C   0  0  0  0  0  0  0  0  0  0  0  0
   -3.2586    0.7273  -19.8204 C   0  0  0  0  0  0  0  0  0  0  0  0
   -3.1505    1.4021  -21.0056 C   0  0  0  0  0  0  0  0  0  0  0  0
   -4.1047    1.1951  -22.0340 C   0  0  0  0  0  0  0  0  0  0  0  0
   -5.1553    0.3307  -21.8303 C   0  0  0  0  0  0  0  0  0  0  0  0
   -5.3840   -0.2429  -20.5446 C   0  0  0  0  0  0  0  0  0  0  0  0
   -5.8337    0.1243  -22.6539 H   0  0  0  0  0  0  0  0  0  0  0  0
   -4.0087    1.7251  -22.9799 H   0  0  0  0  0  0  0  0  0  0  0  0
   -2.2704    2.0094  -21.2064 H   0  0  0  0  0  0  0  0  0  0  0  0
   -2.5017    0.8398  -19.0515 H   0  0  0  0  0  0  0  0  0  0  0  0
   -4.0286   -0.3393  -17.4039 H   0  0  0  0  0  0  0  0  0  0  0  0
   -7.7877   -1.5864  -18.5359 H   0  0  0  0  0  0  0  0  0  0  0  0
   -7.0141   -2.6005  -22.0121 C   0  0  0  0  0  0  0  0  0  0  0  0
   -8.3034   -2.8920  -22.7902 C   0  0  2  0  0  0  0  0  0  0  0  0
   -8.0689   -3.6072  -24.1181 C   0  0  0  0  0  0  0  0  0  0  0  0
   -7.2691   -5.1694  -23.7948 S   0  0  0  0  0  0  0  0  0  0  0  0
   -8.1384   -5.9208  -22.8972 O   0  0  0  0  0  0  0  0  0  0  0  0
   -5.8715   -4.9272  -23.4412 O   0  0  0  0  0  0  0  0  0  0  0  0
   -7.3030   -5.9151  -25.2983 N   0  0  0  0  0  0  0  0  0  0  0  0
   -6.4822   -5.2574  -26.3107 C   0  0  0  0  0  0  0  0  0  0  0  0
   -5.4440   -5.1065  -25.9894 H   0  0  0  0  0  0  0  0  0  0  0  0
   -6.5036   -5.8837  -27.2061 H   0  0  0  0  0  0  0  0  0  0  0  0
   -6.9232   -4.2947  -26.5793 H   0  0  0  0  0  0  0  0  0  0  0  0
   -7.0074   -7.3408  -25.1637 C   0  0  0  0  0  0  0  0  0  0  0  0
   -5.9764   -7.5409  -24.8307 H   0  0  0  0  0  0  0  0  0  0  0  0
   -7.7024   -7.7660  -24.4378 H   0  0  0  0  0  0  0  0  0  0  0  0
   -7.1737   -7.8168  -26.1346 H   0  0  0  0  0  0  0  0  0  0  0  0
   -7.4056   -3.0259  -24.7686 H   0  0  0  0  0  0  0  0  0  0  0  0
   -9.0128   -3.8223  -24.6312 H   0  0  0  0  0  0  0  0  0  0  0  0
   -8.8899   -3.5751  -22.1739 H   0  0  0  0  0  0  0  0  0  0  0  0
   -6.1745   -2.3376  -22.6694 H   0  0  0  0  0  0  0  0  0  0  0  0
   -6.6903   -3.4536  -21.4124 H   0  0  0  0  0  0  0  0  0  0  0  0
  -10.5873   -1.7035  -22.8112 C   0  0  0  0  0  0  0  0  0  0  0  0
  -11.1860   -2.6957  -22.0216 C   0  0  0  0  0  0  0  0  0  0  0  0
  -12.5373   -2.9374  -22.1577 C   0  0  0  0  0  0  0  0  0  0  0  0
  -13.0984   -3.9271  -21.4456 F   0  0  0  0  0  0  0  0  0  0  0  0
  -13.3345   -2.2345  -23.0515 C   0  0  0  0  0  0  0  0  0  0  0  0
  -12.7664   -1.1899  -23.7527 C   0  0  0  0  0  0  0  0  0  0  0  0
  -11.4189   -0.8755  -23.5789 C   0  0  0  0  0  0  0  0  0  0  0  0
  -10.8872    0.3798  -24.2134 C   0  0  0  0  0  0  0  0  0  0  0  0
  -11.6244    1.2612  -24.6309 O   0  0  0  0  0  0  0  0  0  0  0  0
  -13.3589   -0.5880  -24.4338 H   0  0  0  0  0  0  0  0  0  0  0  0
  -14.3832   -2.4920  -23.1500 H   0  0  0  0  0  0  0  0  0  0  0  0
  -10.6314   -3.2780  -21.2940 H   0  0  0  0  0  0  0  0  0  0  0  0
   -7.6663   -0.4316  -24.0942 H   0  0  0  0  0  0  0  0  0  0  0  0
   -8.8700   -1.3529  -25.0197 H   0  0  0  0  0  0  0  0  0  0  0  0
   -9.6974    2.4095  -24.9028 H   0  0  0  0  0  0  0  0  0  0  0  0
   -8.4005    1.5109  -25.7219 H   0  0  0  0  0  0  0  0  0  0  0  0
   -9.2101    2.6840  -22.3709 H   0  0  0  0  0  0  0  0  0  0  0  0
   -7.8093    3.7257  -20.8447 H   0  0  0  0  0  0  0  0  0  0  0  0
   -6.5991    3.9842  -22.1122 H   0  0  0  0  0  0  0  0  0  0  0  0
   -6.6894    2.4154  -21.3035 H   0  0  0  0  0  0  0  0  0  0  0  0
  1  2  1  0
  2  3  1  0
  3  4  2  0
  3  5  1  0
  5  6  1  0
  6  7  1  0
  8  7  1  6
  8  9  1  0
  9 10  2  0
  9 11  1  0
 11 12  1  0
 12 13  2  0
 13 14  1  0
 14 15  2  0
 15 16  1  0
 16 17  2  0
 17 18  1  0
 18 19  2  0
 19 20  1  0
 20 21  2  0
 20 22  1  0
 19 23  1  0
 18 24  1  0
 17 25  1  0
 15 26  1  0
 13 27  1  0
 11 28  1  0
 28 29  1  0
 29 30  1  0
 30 31  1  0
 31 32  2  0
 31 33  2  0
 31 34  1  0
 34 35  1  0
 35 36  1  0
 35 37  1  0
 35 38  1  0
 34 39  1  0
 39 40  1  0
 39 41  1  0
 39 42  1  0
 30 43  1  0
 30 44  1  0
 29 45  1  1
 28 46  1  0
 28 47  1  0
  8 48  1  0
 48 49  2  0
 49 50  1  0
 50 51  1  0
 50 52  2  0
 52 53  1  0
 53 54  2  0
 54 55  1  0
 55 56  2  0
 53 57  1  0
 52 58  1  0
 49 59  1  0
  7 60  1  0
  7 61  1  0
  5 62  1  0
  5 63  1  0
  2 64  1  0
  1 65  1  0
  1 66  1  0
  1 67  1  0
 55  6  1  0
 29  8  1  0
 54 48  1  0
 21 12  1  0
 21 16  1  0
M  END
>  <cnnaffinities>  (40) 
[6.86664, 6.76438]

>  <score>  (40) 
6.86664

>  <index>  (40) 
41

>  <Smiles>  (40) 
C(N(C(=O)C(N1C([C@@]2(C(=O)N(c3c(nc(c4c(c(c(c(c34)[H])[H])[H])[H])[H])[H])C([C@@]2(C(S(=O)(=O)N(C([H])([H])[H])C([H])([H])[H])([H])[H])[H])([H])[H])c2c(c(F)c(c(c2C1=O)[H])[H])[H])([H])[H])([H])[H])[H])([H])([H])[H]

>  <h>  (40) 
<NA>

>  <Training>  (40) 
True

>  <Success>  (40) 
True

>  <enamine_searched>  (40) 
False

>  <enamine_id>  (40) 
nan

$$$$

     RDKit          3D

 67 72  0  0  0  0  0  0  0  0999 V2000
   -8.1010    4.6247  -24.2173 C   0  0  0  0  0  0  0  0  0  0  0  0
   -8.1518    3.3961  -24.9786 N   0  0  0  0  0  0  0  0  0  0  0  0
   -7.1777    2.4596  -24.8700 C   0  0  0  0  0  0  0  0  0  0  0  0
   -6.1062    2.6544  -24.3155 O   0  0  0  0  0  0  0  0  0  0  0  0
   -7.5161    1.1093  -25.5267 C   0  0  0  0  0  0  0  0  0  0  0  0
   -8.4201    0.2831  -24.7213 N   0  0  0  0  0  0  0  0  0  0  0  0
   -7.9504   -1.0346  -24.2983 C   0  0  0  0  0  0  0  0  0  0  0  0
   -8.7503   -1.6215  -23.0918 C   0  0  2  0  0  0  0  0  0  0  0  0
   -8.3330   -0.8780  -21.7882 C   0  0  0  0  0  0  0  0  0  0  0  0
   -8.7594    0.1716  -21.3731 O   0  0  0  0  0  0  0  0  0  0  0  0
   -7.3656   -1.6389  -21.1502 N   0  0  0  0  0  0  0  0  0  0  0  0
   -6.4762   -1.1546  -20.1491 C   0  0  0  0  0  0  0  0  0  0  0  0
   -6.5732   -1.6280  -18.8617 C   0  0  0  0  0  0  0  0  0  0  0  0
   -5.6169   -1.4856  -17.9131 N   0  0  0  0  0  0  0  0  0  0  0  0
   -4.5320   -0.8275  -18.2470 C   0  0  0  0  0  0  0  0  0  0  0  0
   -4.3489   -0.1824  -19.4971 C   0  0  0  0  0  0  0  0  0  0  0  0
   -3.2183    0.6438  -19.7441 C   0  0  0  0  0  0  0  0  0  0  0  0
   -3.1727    1.4413  -20.8554 C   0  0  0  0  0  0  0  0  0  0  0  0
   -4.1975    1.3530  -21.8292 C   0  0  0  0  0  0  0  0  0  0  0  0
   -5.2754    0.5239  -21.6311 C   0  0  0  0  0  0  0  0  0  0  0  0
   -5.3797   -0.2754  -20.4568 C   0  0  0  0  0  0  0  0  0  0  0  0
   -6.0968    0.5143  -22.3410 H   0  0  0  0  0  0  0  0  0  0  0  0
   -4.1404    1.9518  -22.7335 H   0  0  0  0  0  0  0  0  0  0  0  0
   -2.3288    2.1086  -21.0092 H   0  0  0  0  0  0  0  0  0  0  0  0
   -2.4502    0.7076  -18.9831 H   0  0  0  0  0  0  0  0  0  0  0  0
   -3.7385   -0.7516  -17.5063 H   0  0  0  0  0  0  0  0  0  0  0  0
   -7.4697   -2.1524  -18.5355 H   0  0  0  0  0  0  0  0  0  0  0  0
   -7.0416   -2.8666  -21.8511 C   0  0  0  0  0  0  0  0  0  0  0  0
   -8.2532   -3.0567  -22.7685 C   0  0  2  0  0  0  0  0  0  0  0  0
   -7.9355   -3.9404  -23.9762 C   0  0  0  0  0  0  0  0  0  0  0  0
   -7.6971   -5.3167  -23.6216 N   0  0  0  0  0  0  0  0  0  0  0  0
   -6.4893   -5.7880  -23.1743 C   0  0  0  0  0  0  0  0  0  0  0  0
   -4.9538   -5.3335  -23.8664 S   0  0  0  0  0  0  0  0  0  0  0  0
   -4.1805   -6.3404  -22.6731 C   0  0  0  0  0  0  0  0  0  0  0  0
   -4.9745   -6.9520  -21.8579 N   0  0  0  0  0  0  0  0  0  0  0  0
   -6.2899   -6.6664  -22.1474 C   0  0  0  0  0  0  0  0  0  0  0  0
   -7.4143   -7.2499  -21.3542 C   0  0  0  0  0  0  0  0  0  0  0  0
   -8.0945   -7.8269  -21.9948 H   0  0  0  0  0  0  0  0  0  0  0  0
   -8.0065   -6.4471  -20.8957 H   0  0  0  0  0  0  0  0  0  0  0  0
   -7.0185   -7.8928  -20.5683 H   0  0  0  0  0  0  0  0  0  0  0  0
   -3.0978   -6.4094  -22.6301 H   0  0  0  0  0  0  0  0  0  0  0  0
   -8.5109   -5.8690  -23.3977 H   0  0  0  0  0  0  0  0  0  0  0  0
   -7.0257   -3.5754  -24.4602 H   0  0  0  0  0  0  0  0  0  0  0  0
   -8.7557   -3.8980  -24.6978 H   0  0  0  0  0  0  0  0  0  0  0  0
   -9.0262   -3.5366  -22.1617 H   0  0  0  0  0  0  0  0  0  0  0  0
   -6.9042   -3.6936  -21.1471 H   0  0  0  0  0  0  0  0  0  0  0  0
   -6.1029   -2.7779  -22.4236 H   0  0  0  0  0  0  0  0  0  0  0  0
  -10.2384   -1.4750  -23.3761 C   0  0  0  0  0  0  0  0  0  0  0  0
  -11.2097   -2.3252  -22.8258 C   0  0  0  0  0  0  0  0  0  0  0  0
  -12.5507   -2.1126  -23.0851 C   0  0  0  0  0  0  0  0  0  0  0  0
  -13.7455   -3.1513  -22.3708 Cl  0  0  0  0  0  0  0  0  0  0  0  0
  -12.9888   -1.0611  -23.8851 C   0  0  0  0  0  0  0  0  0  0  0  0
  -12.0478   -0.2009  -24.3997 C   0  0  0  0  0  0  0  0  0  0  0  0
  -10.6915   -0.4067  -24.1698 C   0  0  0  0  0  0  0  0  0  0  0  0
   -9.7512    0.5508  -24.8274 C   0  0  0  0  0  0  0  0  0  0  0  0
  -10.1698    1.5280  -25.4539 O   0  0  0  0  0  0  0  0  0  0  0  0
  -12.3489    0.6529  -24.9924 H   0  0  0  0  0  0  0  0  0  0  0  0
  -14.0459   -0.9200  -24.0672 H   0  0  0  0  0  0  0  0  0  0  0  0
  -10.9432   -3.1473  -22.1693 H   0  0  0  0  0  0  0  0  0  0  0  0
   -6.8905   -0.9477  -24.0255 H   0  0  0  0  0  0  0  0  0  0  0  0
   -8.0149   -1.7204  -25.1539 H   0  0  0  0  0  0  0  0  0  0  0  0
   -7.9858    1.2896  -26.5006 H   0  0  0  0  0  0  0  0  0  0  0  0
   -6.5742    0.5770  -25.6805 H   0  0  0  0  0  0  0  0  0  0  0  0
   -9.0408    3.0909  -25.3610 H   0  0  0  0  0  0  0  0  0  0  0  0
   -8.5582    4.5137  -23.2242 H   0  0  0  0  0  0  0  0  0  0  0  0
   -7.0557    4.9117  -24.0886 H   0  0  0  0  0  0  0  0  0  0  0  0
   -8.6291    5.4109  -24.7643 H   0  0  0  0  0  0  0  0  0  0  0  0
  1  2  1  0
  2  3  1  0
  3  4  2  0
  3  5  1  0
  5  6  1  0
  6  7  1  0
  8  7  1  6
  8  9  1  0
  9 10  2  0
  9 11  1  0
 11 12  1  0
 12 13  2  0
 13 14  1  0
 14 15  2  0
 15 16  1  0
 16 17  2  0
 17 18  1  0
 18 19  2  0
 19 20  1  0
 20 21  2  0
 20 22  1  0
 19 23  1  0
 18 24  1  0
 17 25  1  0
 15 26  1  0
 13 27  1  0
 11 28  1  0
 28 29  1  0
 29 30  1  0
 30 31  1  0
 31 32  1  0
 32 33  1  0
 33 34  1  0
 34 35  2  0
 35 36  1  0
 36 37  1  0
 37 38  1  0
 37 39  1  0
 37 40  1  0
 34 41  1  0
 31 42  1  0
 30 43  1  0
 30 44  1  0
 29 45  1  1
 28 46  1  0
 28 47  1  0
  8 48  1  0
 48 49  2  0
 49 50  1  0
 50 51  1  0
 50 52  2  0
 52 53  1  0
 53 54  2  0
 54 55  1  0
 55 56  2  0
 53 57  1  0
 52 58  1  0
 49 59  1  0
  7 60  1  0
  7 61  1  0
  5 62  1  0
  5 63  1  0
  2 64  1  0
  1 65  1  0
  1 66  1  0
  1 67  1  0
 55  6  1  0
 29  8  1  0
 36 32  2  0
 54 48  1  0
 21 12  1  0
 21 16  1  0
M  END
>  <cnnaffinities>  (41) 
[7.09046, 7.19798]

>  <score>  (41) 
7.09046

>  <index>  (41) 
43

>  <Smiles>  (41) 
C(N(C(=O)C(N1C([C@@]2(C(=O)N(c3c(nc(c4c(c(c(c(c34)[H])[H])[H])[H])[H])[H])C([C@@]2(C(N(c2sc(nc2C([H])([H])[H])[H])[H])([H])[H])[H])([H])[H])c2c(c(Cl)c(c(c2C1=O)[H])[H])[H])([H])[H])([H])[H])[H])([H])([H])[H]

>  <h>  (41) 
<NA>

>  <Training>  (41) 
True

>  <Success>  (41) 
True

>  <enamine_searched>  (41) 
False

>  <enamine_id>  (41) 
nan

$$$$

     RDKit          3D

 60 64  0  0  0  0  0  0  0  0999 V2000
  -14.6959   -1.6376  -23.3188 C   0  0  0  0  0  0  0  0  0  0  0  0
  -13.6181   -2.5272  -22.9514 N   0  0  0  0  0  0  0  0  0  0  0  0
  -13.3349   -2.8549  -21.6639 C   0  0  0  0  0  0  0  0  0  0  0  0
  -13.8256   -2.3221  -20.6824 O   0  0  0  0  0  0  0  0  0  0  0  0
  -12.3785   -4.0338  -21.5910 C   0  0  0  0  0  0  0  0  0  0  0  0
  -11.1389   -3.8637  -22.3314 N   0  0  0  0  0  0  0  0  0  0  0  0
   -9.9755   -3.3737  -21.6153 C   0  0  0  0  0  0  0  0  0  0  0  0
   -8.8297   -2.8735  -22.5248 C   0  0  2  0  0  0  0  0  0  0  0  0
   -7.6361   -2.7207  -21.5830 C   0  0  0  0  0  0  0  0  0  0  0  0
   -6.9534   -3.6187  -21.1351 O   0  0  0  0  0  0  0  0  0  0  0  0
   -7.4701   -1.3879  -21.2550 N   0  0  0  0  0  0  0  0  0  0  0  0
   -6.5079   -1.0829  -20.2594 C   0  0  0  0  0  0  0  0  0  0  0  0
   -6.5841   -1.6715  -19.0203 C   0  0  0  0  0  0  0  0  0  0  0  0
   -5.6391   -1.5577  -18.0584 N   0  0  0  0  0  0  0  0  0  0  0  0
   -4.5814   -0.8349  -18.3397 C   0  0  0  0  0  0  0  0  0  0  0  0
   -4.3850   -0.1548  -19.5687 C   0  0  0  0  0  0  0  0  0  0  0  0
   -3.2594    0.6829  -19.7970 C   0  0  0  0  0  0  0  0  0  0  0  0
   -3.2031    1.4739  -20.9123 C   0  0  0  0  0  0  0  0  0  0  0  0
   -4.1742    1.3369  -21.9313 C   0  0  0  0  0  0  0  0  0  0  0  0
   -5.2446    0.4943  -21.7594 C   0  0  0  0  0  0  0  0  0  0  0  0
   -5.3954   -0.2349  -20.5499 C   0  0  0  0  0  0  0  0  0  0  0  0
   -5.9957    0.3987  -22.5346 H   0  0  0  0  0  0  0  0  0  0  0  0
   -4.0772    1.9029  -22.8531 H   0  0  0  0  0  0  0  0  0  0  0  0
   -2.3771    2.1639  -21.0538 H   0  0  0  0  0  0  0  0  0  0  0  0
   -2.5075    0.7600  -19.0218 H   0  0  0  0  0  0  0  0  0  0  0  0
   -3.8133   -0.7530  -17.5733 H   0  0  0  0  0  0  0  0  0  0  0  0
   -7.4305   -2.2962  -18.7402 H   0  0  0  0  0  0  0  0  0  0  0  0
   -8.5153   -0.5355  -21.8367 C   0  0  0  0  0  0  0  0  0  0  0  0
   -9.0265   -1.4045  -23.0070 C   0  0  2  0  0  0  0  0  0  0  0  0
  -10.4324   -1.0802  -23.4775 C   0  0  0  0  0  0  0  0  0  0  0  0
  -10.4664    0.2417  -23.9567 O   0  0  0  0  0  0  0  0  0  0  0  0
  -11.7766    0.6109  -24.2888 C   0  0  0  0  0  0  0  0  0  0  0  0
  -12.4105    0.7015  -23.3943 H   0  0  0  0  0  0  0  0  0  0  0  0
  -12.2358   -0.1443  -24.9423 H   0  0  0  0  0  0  0  0  0  0  0  0
  -11.7449    1.5744  -24.8021 H   0  0  0  0  0  0  0  0  0  0  0  0
  -10.7137   -1.7818  -24.2790 H   0  0  0  0  0  0  0  0  0  0  0  0
  -11.1627   -1.2106  -22.6690 H   0  0  0  0  0  0  0  0  0  0  0  0
   -8.3623   -1.2405  -23.8644 H   0  0  0  0  0  0  0  0  0  0  0  0
   -9.3060   -0.3325  -21.0989 H   0  0  0  0  0  0  0  0  0  0  0  0
   -8.1422    0.4324  -22.1810 H   0  0  0  0  0  0  0  0  0  0  0  0
   -8.6010   -3.8914  -23.6167 C   0  0  0  0  0  0  0  0  0  0  0  0
   -7.3274   -4.1060  -24.1563 C   0  0  0  0  0  0  0  0  0  0  0  0
   -7.1325   -5.1243  -25.0709 C   0  0  0  0  0  0  0  0  0  0  0  0
   -5.5173   -5.4864  -25.6082 Cl  0  0  0  0  0  0  0  0  0  0  0  0
   -8.1939   -5.8944  -25.5432 C   0  0  0  0  0  0  0  0  0  0  0  0
   -9.4662   -5.6334  -25.0698 C   0  0  0  0  0  0  0  0  0  0  0  0
   -9.6724   -4.6498  -24.1034 C   0  0  0  0  0  0  0  0  0  0  0  0
  -11.0462   -4.4500  -23.5614 C   0  0  0  0  0  0  0  0  0  0  0  0
  -12.0544   -4.7837  -24.1833 O   0  0  0  0  0  0  0  0  0  0  0  0
  -10.3152   -6.2066  -25.4286 H   0  0  0  0  0  0  0  0  0  0  0  0
   -8.0100   -6.6814  -26.2677 H   0  0  0  0  0  0  0  0  0  0  0  0
   -6.4806   -3.5133  -23.8261 H   0  0  0  0  0  0  0  0  0  0  0  0
   -9.5684   -4.1727  -20.9906 H   0  0  0  0  0  0  0  0  0  0  0  0
  -10.2608   -2.5424  -20.9616 H   0  0  0  0  0  0  0  0  0  0  0  0
  -12.9247   -4.8442  -22.0781 H   0  0  0  0  0  0  0  0  0  0  0  0
  -12.2062   -4.2745  -20.5434 H   0  0  0  0  0  0  0  0  0  0  0  0
  -13.2634   -3.1675  -23.6503 H   0  0  0  0  0  0  0  0  0  0  0  0
  -15.2680   -1.3988  -22.4243 H   0  0  0  0  0  0  0  0  0  0  0  0
  -15.3415   -2.1081  -24.0662 H   0  0  0  0  0  0  0  0  0  0  0  0
  -14.2927   -0.7090  -23.7347 H   0  0  0  0  0  0  0  0  0  0  0  0
  1  2  1  0
  2  3  1  0
  3  4  2  0
  3  5  1  0
  5  6  1  0
  6  7  1  0
  8  7  1  1
  8  9  1  0
  9 10  2  0
  9 11  1  0
 11 12  1  0
 12 13  2  0
 13 14  1  0
 14 15  2  0
 15 16  1  0
 16 17  2  0
 17 18  1  0
 18 19  2  0
 19 20  1  0
 20 21  2  0
 20 22  1  0
 19 23  1  0
 18 24  1  0
 17 25  1  0
 15 26  1  0
 13 27  1  0
 11 28  1  0
 28 29  1  0
 29 30  1  0
 30 31  1  0
 31 32  1  0
 32 33  1  0
 32 34  1  0
 32 35  1  0
 30 36  1  0
 30 37  1  0
 29 38  1  6
 28 39  1  0
 28 40  1  0
  8 41  1  0
 41 42  2  0
 42 43  1  0
 43 44  1  0
 43 45  2  0
 45 46  1  0
 46 47  2  0
 47 48  1  0
 48 49  2  0
 46 50  1  0
 45 51  1  0
 42 52  1  0
  7 53  1  0
  7 54  1  0
  5 55  1  0
  5 56  1  0
  2 57  1  0
  1 58  1  0
  1 59  1  0
  1 60  1  0
 48  6  1  0
 29  8  1  0
 47 41  1  0
 21 12  1  0
 21 16  1  0
M  END
>  <cnnaffinities>  (42) 
[6.41602]

>  <score>  (42) 
6.41602

>  <index>  (42) 
44

>  <Smiles>  (42) 
C(N(C(=O)C(N1C([C@@]2(C(=O)N(c3c(nc(c4c(c(c(c(c34)[H])[H])[H])[H])[H])[H])C([C@@]2(C(OC([H])([H])[H])([H])[H])[H])([H])[H])c2c(c(Cl)c(c(c2C1=O)[H])[H])[H])([H])[H])([H])[H])[H])([H])([H])[H]

>  <h>  (42) 
<NA>

>  <Training>  (42) 
True

>  <Success>  (42) 
True

>  <enamine_searched>  (42) 
False

>  <enamine_id>  (42) 
nan

$$$$

     RDKit          3D

 66 71  0  0  0  0  0  0  0  0999 V2000
   -8.5878    4.4894  -23.2627 C   0  0  0  0  0  0  0  0  0  0  0  0
   -8.5978    3.4377  -24.2541 N   0  0  0  0  0  0  0  0  0  0  0  0
   -7.5727    2.5532  -24.3200 C   0  0  0  0  0  0  0  0  0  0  0  0
   -6.5242    2.6900  -23.7048 O   0  0  0  0  0  0  0  0  0  0  0  0
   -7.8430    1.3600  -25.2491 C   0  0  0  0  0  0  0  0  0  0  0  0
   -8.6965    0.3625  -24.6152 N   0  0  0  0  0  0  0  0  0  0  0  0
   -8.1147   -0.9159  -24.2284 C   0  0  0  0  0  0  0  0  0  0  0  0
   -8.8313   -1.5691  -23.0106 C   0  0  2  0  0  0  0  0  0  0  0  0
   -8.4308   -0.8408  -21.6912 C   0  0  0  0  0  0  0  0  0  0  0  0
   -8.9059    0.1686  -21.2274 O   0  0  0  0  0  0  0  0  0  0  0  0
   -7.4058   -1.5660  -21.1134 N   0  0  0  0  0  0  0  0  0  0  0  0
   -6.5180   -1.0626  -20.1222 C   0  0  0  0  0  0  0  0  0  0  0  0
   -6.6798   -1.4133  -18.8113 C   0  0  0  0  0  0  0  0  0  0  0  0
   -5.7111   -1.3321  -17.8668 N   0  0  0  0  0  0  0  0  0  0  0  0
   -4.5719   -0.7815  -18.2220 C   0  0  0  0  0  0  0  0  0  0  0  0
   -4.3487   -0.1770  -19.4895 C   0  0  0  0  0  0  0  0  0  0  0  0
   -3.2188    0.6495  -19.7541 C   0  0  0  0  0  0  0  0  0  0  0  0
   -3.1580    1.4057  -20.8925 C   0  0  0  0  0  0  0  0  0  0  0  0
   -4.1715    1.2917  -21.8758 C   0  0  0  0  0  0  0  0  0  0  0  0
   -5.2632    0.4881  -21.6531 C   0  0  0  0  0  0  0  0  0  0  0  0
   -5.3750   -0.2672  -20.4565 C   0  0  0  0  0  0  0  0  0  0  0  0
   -6.0535    0.4623  -22.3977 H   0  0  0  0  0  0  0  0  0  0  0  0
   -4.1015    1.8417  -22.8058 H   0  0  0  0  0  0  0  0  0  0  0  0
   -2.3147    2.0649  -21.0841 H   0  0  0  0  0  0  0  0  0  0  0  0
   -2.4700    0.7669  -18.9809 H   0  0  0  0  0  0  0  0  0  0  0  0
   -3.7742   -0.7610  -17.4805 H   0  0  0  0  0  0  0  0  0  0  0  0
   -7.6348   -1.8246  -18.4947 H   0  0  0  0  0  0  0  0  0  0  0  0
   -7.0255   -2.7366  -21.8821 C   0  0  0  0  0  0  0  0  0  0  0  0
   -8.2561   -2.9905  -22.7522 C   0  0  2  0  0  0  0  0  0  0  0  0
   -8.0299   -3.9135  -23.9630 C   0  0  0  0  0  0  0  0  0  0  0  0
   -7.6863   -5.3348  -23.5740 C   0  0  0  0  0  0  0  0  0  0  0  0
   -8.6573   -6.3366  -23.5061 C   0  0  0  0  0  0  0  0  0  0  0  0
   -8.3223   -7.6359  -23.1314 C   0  0  0  0  0  0  0  0  0  0  0  0
   -7.0024   -7.9627  -22.8385 C   0  0  0  0  0  0  0  0  0  0  0  0
   -6.0251   -6.9742  -22.8928 C   0  0  0  0  0  0  0  0  0  0  0  0
   -6.3704   -5.6733  -23.2429 C   0  0  0  0  0  0  0  0  0  0  0  0
   -5.6050   -4.8996  -23.2463 H   0  0  0  0  0  0  0  0  0  0  0  0
   -4.9888   -7.2214  -22.6765 H   0  0  0  0  0  0  0  0  0  0  0  0
   -6.7331   -8.9808  -22.5702 H   0  0  0  0  0  0  0  0  0  0  0  0
   -9.1027   -8.3913  -23.0705 H   0  0  0  0  0  0  0  0  0  0  0  0
   -9.6929   -6.1157  -23.7595 H   0  0  0  0  0  0  0  0  0  0  0  0
   -8.9363   -3.9082  -24.5792 H   0  0  0  0  0  0  0  0  0  0  0  0
   -7.2294   -3.5181  -24.6011 H   0  0  0  0  0  0  0  0  0  0  0  0
   -8.9781   -3.5010  -22.1164 H   0  0  0  0  0  0  0  0  0  0  0  0
   -6.7847   -3.5838  -21.2290 H   0  0  0  0  0  0  0  0  0  0  0  0
   -6.1356   -2.5071  -22.4856 H   0  0  0  0  0  0  0  0  0  0  0  0
  -10.3257   -1.5145  -23.2407 C   0  0  0  0  0  0  0  0  0  0  0  0
  -11.2048   -2.4014  -22.6068 C   0  0  0  0  0  0  0  0  0  0  0  0
  -12.5581   -2.3569  -22.8940 C   0  0  0  0  0  0  0  0  0  0  0  0
  -13.6151   -3.5573  -22.2083 Cl  0  0  0  0  0  0  0  0  0  0  0  0
  -13.1021   -1.3656  -23.7091 C   0  0  0  0  0  0  0  0  0  0  0  0
  -12.2561   -0.4101  -24.2242 C   0  0  0  0  0  0  0  0  0  0  0  0
  -10.8814   -0.5036  -24.0317 C   0  0  0  0  0  0  0  0  0  0  0  0
  -10.0405    0.5584  -24.6514 C   0  0  0  0  0  0  0  0  0  0  0  0
  -10.5458    1.5638  -25.1624 O   0  0  0  0  0  0  0  0  0  0  0  0
  -12.6126    0.4476  -24.7804 H   0  0  0  0  0  0  0  0  0  0  0  0
  -14.1699   -1.3383  -23.8980 H   0  0  0  0  0  0  0  0  0  0  0  0
  -10.8528   -3.1232  -21.8786 H   0  0  0  0  0  0  0  0  0  0  0  0
   -7.0543   -0.7478  -24.0040 H   0  0  0  0  0  0  0  0  0  0  0  0
   -8.1612   -1.6063  -25.0793 H   0  0  0  0  0  0  0  0  0  0  0  0
   -8.3412    1.7051  -26.1623 H   0  0  0  0  0  0  0  0  0  0  0  0
   -6.8879    0.9003  -25.5113 H   0  0  0  0  0  0  0  0  0  0  0  0
   -9.4779    3.1692  -24.6828 H   0  0  0  0  0  0  0  0  0  0  0  0
   -7.6334    5.0156  -23.2993 H   0  0  0  0  0  0  0  0  0  0  0  0
   -8.7075    4.1017  -22.2456 H   0  0  0  0  0  0  0  0  0  0  0  0
   -9.3990    5.1888  -23.4749 H   0  0  0  0  0  0  0  0  0  0  0  0
  1  2  1  0
  2  3  1  0
  3  4  2  0
  3  5  1  0
  5  6  1  0
  6  7  1  0
  8  7  1  6
  8  9  1  0
  9 10  2  0
  9 11  1  0
 11 12  1  0
 12 13  2  0
 13 14  1  0
 14 15  2  0
 15 16  1  0
 16 17  2  0
 17 18  1  0
 18 19  2  0
 19 20  1  0
 20 21  2  0
 20 22  1  0
 19 23  1  0
 18 24  1  0
 17 25  1  0
 15 26  1  0
 13 27  1  0
 11 28  1  0
 28 29  1  0
 29 30  1  0
 30 31  1  0
 31 32  2  0
 32 33  1  0
 33 34  2  0
 34 35  1  0
 35 36  2  0
 36 37  1  0
 35 38  1  0
 34 39  1  0
 33 40  1  0
 32 41  1  0
 30 42  1  0
 30 43  1  0
 29 44  1  1
 28 45  1  0
 28 46  1  0
  8 47  1  0
 47 48  2  0
 48 49  1  0
 49 50  1  0
 49 51  2  0
 51 52  1  0
 52 53  2  0
 53 54  1  0
 54 55  2  0
 52 56  1  0
 51 57  1  0
 48 58  1  0
  7 59  1  0
  7 60  1  0
  5 61  1  0
  5 62  1  0
  2 63  1  0
  1 64  1  0
  1 65  1  0
  1 66  1  0
 54  6  1  0
 29  8  1  0
 36 31  1  0
 53 47  1  0
 21 12  1  0
 21 16  1  0
M  END
>  <cnnaffinities>  (43) 
[7.06442]

>  <score>  (43) 
7.06442

>  <index>  (43) 
45

>  <Smiles>  (43) 
C(N(C(=O)C(N1C([C@@]2(C(=O)N(c3c(nc(c4c(c(c(c(c34)[H])[H])[H])[H])[H])[H])C([C@@]2(C(c2c(c(c(c(c2[H])[H])[H])[H])[H])([H])[H])[H])([H])[H])c2c(c(Cl)c(c(c2C1=O)[H])[H])[H])([H])[H])([H])[H])[H])([H])([H])[H]

>  <h>  (43) 
<NA>

>  <Training>  (43) 
True

>  <Success>  (43) 
True

>  <enamine_searched>  (43) 
False

>  <enamine_id>  (43) 
nan

$$$$

     RDKit          3D

 50 54  0  0  0  0  0  0  0  0999 V2000
  -10.3787   -0.9840  -23.4423 C   0  0  0  0  0  0  0  0  0  0  0  0
   -8.9840   -1.4260  -23.0052 C   0  0  1  0  0  0  0  0  0  0  0  0
   -8.4067   -0.5488  -21.8788 C   0  0  0  0  0  0  0  0  0  0  0  0
   -7.4458   -1.4282  -21.2346 N   0  0  0  0  0  0  0  0  0  0  0  0
   -6.5118   -1.0552  -20.2386 C   0  0  0  0  0  0  0  0  0  0  0  0
   -6.7092   -1.4278  -18.9317 C   0  0  0  0  0  0  0  0  0  0  0  0
   -5.7971   -1.2524  -17.9424 N   0  0  0  0  0  0  0  0  0  0  0  0
   -4.6667   -0.6698  -18.2742 C   0  0  0  0  0  0  0  0  0  0  0  0
   -4.3845   -0.1224  -19.5644 C   0  0  0  0  0  0  0  0  0  0  0  0
   -3.2372    0.6923  -19.8166 C   0  0  0  0  0  0  0  0  0  0  0  0
   -3.1624    1.4094  -20.9749 C   0  0  0  0  0  0  0  0  0  0  0  0
   -4.1107    1.2086  -22.0068 C   0  0  0  0  0  0  0  0  0  0  0  0
   -5.1573    0.3485  -21.8341 C   0  0  0  0  0  0  0  0  0  0  0  0
   -5.3578   -0.2821  -20.5784 C   0  0  0  0  0  0  0  0  0  0  0  0
   -5.8616    0.2036  -22.6437 H   0  0  0  0  0  0  0  0  0  0  0  0
   -3.9986    1.7364  -22.9461 H   0  0  0  0  0  0  0  0  0  0  0  0
   -2.3109    2.0551  -21.1601 H   0  0  0  0  0  0  0  0  0  0  0  0
   -2.4820    0.8130  -19.0408 H   0  0  0  0  0  0  0  0  0  0  0  0
   -3.9183   -0.5822  -17.4858 H   0  0  0  0  0  0  0  0  0  0  0  0
   -7.6596   -1.8732  -18.6420 H   0  0  0  0  0  0  0  0  0  0  0  0
   -7.6799   -2.7619  -21.4902 C   0  0  0  0  0  0  0  0  0  0  0  0
   -7.0243   -3.6680  -21.0103 O   0  0  0  0  0  0  0  0  0  0  0  0
   -8.8728   -2.8895  -22.4570 C   0  0  1  0  0  0  0  0  0  0  0  0
  -10.1052   -3.3139  -21.6222 C   0  0  0  0  0  0  0  0  0  0  0  0
  -11.2386   -3.7414  -22.4403 N   0  0  0  0  0  0  0  0  0  0  0  0
  -12.5966   -3.6424  -21.9313 C   0  0  0  0  0  0  0  0  0  0  0  0
  -13.4457   -2.6676  -22.6463 C   0  0  0  0  0  0  0  0  0  0  0  0
  -14.1576   -1.9544  -23.2154 N   0  0  0  0  0  0  0  0  0  0  0  0
  -12.5678   -3.3923  -20.8689 H   0  0  0  0  0  0  0  0  0  0  0  0
  -13.0933   -4.6067  -22.0625 H   0  0  0  0  0  0  0  0  0  0  0  0
  -11.0695   -4.5833  -23.5128 C   0  0  0  0  0  0  0  0  0  0  0  0
  -12.0107   -5.1343  -24.0557 O   0  0  0  0  0  0  0  0  0  0  0  0
   -9.6660   -4.7644  -23.9776 C   0  0  0  0  0  0  0  0  0  0  0  0
   -9.4275   -5.7852  -24.8973 C   0  0  0  0  0  0  0  0  0  0  0  0
   -8.1577   -6.0094  -25.3909 C   0  0  0  0  0  0  0  0  0  0  0  0
   -7.1452   -5.1616  -24.9577 C   0  0  0  0  0  0  0  0  0  0  0  0
   -5.9119   -5.3403  -25.4554 F   0  0  0  0  0  0  0  0  0  0  0  0
   -7.3521   -4.1465  -24.0429 C   0  0  0  0  0  0  0  0  0  0  0  0
   -8.6304   -3.9450  -23.5148 C   0  0  0  0  0  0  0  0  0  0  0  0
   -6.5170   -3.5294  -23.7310 H   0  0  0  0  0  0  0  0  0  0  0  0
   -7.9277   -6.8053  -26.0946 H   0  0  0  0  0  0  0  0  0  0  0  0
  -10.2669   -6.4026  -25.1998 H   0  0  0  0  0  0  0  0  0  0  0  0
   -9.7769   -4.1115  -20.9439 H   0  0  0  0  0  0  0  0  0  0  0  0
  -10.4288   -2.4615  -21.0178 H   0  0  0  0  0  0  0  0  0  0  0  0
   -9.1921   -0.2404  -21.1709 H   0  0  0  0  0  0  0  0  0  0  0  0
   -7.9276    0.3602  -22.2527 H   0  0  0  0  0  0  0  0  0  0  0  0
   -8.3008   -1.3663  -23.8665 H   0  0  0  0  0  0  0  0  0  0  0  0
  -10.3496    0.0329  -23.8469 H   0  0  0  0  0  0  0  0  0  0  0  0
  -11.0780   -0.9918  -22.5978 H   0  0  0  0  0  0  0  0  0  0  0  0
  -10.7983   -1.6543  -24.2000 H   0  0  0  0  0  0  0  0  0  0  0  0
  1  2  1  0
  2  3  1  0
  3  4  1  0
  4  5  1  0
  5  6  2  0
  6  7  1  0
  7  8  2  0
  8  9  1  0
  9 10  2  0
 10 11  1  0
 11 12  2  0
 12 13  1  0
 13 14  2  0
 13 15  1  0
 12 16  1  0
 11 17  1  0
 10 18  1  0
  8 19  1  0
  6 20  1  0
  4 21  1  0
 21 22  2  0
 21 23  1  0
 23 24  1  1
 24 25  1  0
 25 26  1  0
 26 27  1  0
 27 28  3  0
 26 29  1  0
 26 30  1  0
 25 31  1  0
 31 32  2  0
 31 33  1  0
 33 34  2  0
 34 35  1  0
 35 36  2  0
 36 37  1  0
 36 38  1  0
 38 39  2  0
 38 40  1  0
 35 41  1  0
 34 42  1  0
 24 43  1  0
 24 44  1  0
  3 45  1  0
  3 46  1  0
  2 47  1  6
  1 48  1  0
  1 49  1  0
  1 50  1  0
 23  2  1  0
 39 33  1  0
 14  5  1  0
 39 23  1  0
 14  9  1  0
M  END
>  <cnnaffinities>  (44) 
[6.30922]

>  <score>  (44) 
6.30922

>  <index>  (44) 
46

>  <Smiles>  (44) 
C([C@]1(C(N(c2c(nc(c3c(c(c(c(c23)[H])[H])[H])[H])[H])[H])C(=O)[C@]21C(N(C(C#N)([H])[H])C(=O)c1c(c(c(F)c(c21)[H])[H])[H])([H])[H])([H])[H])[H])([H])([H])[H]

>  <h>  (44) 
<NA>

>  <Training>  (44) 
True

>  <Success>  (44) 
True

>  <enamine_searched>  (44) 
False

>  <enamine_id>  (44) 
nan

$$$$

     RDKit          3D

 58 63  0  0  0  0  0  0  0  0999 V2000
   -8.6401    0.6036  -21.1110 O   0  0  0  0  0  0  0  0  0  0  0  0
   -8.3904   -0.3600  -21.8139 C   0  0  0  0  0  0  0  0  0  0  0  0
   -7.5133   -1.5075  -21.2990 C   0  0  0  0  0  0  0  0  0  0  0  0
   -6.5676   -1.0293  -20.2410 C   0  0  0  0  0  0  0  0  0  0  0  0
   -6.8319   -1.2339  -18.9112 C   0  0  0  0  0  0  0  0  0  0  0  0
   -5.9679   -0.9721  -17.8924 N   0  0  0  0  0  0  0  0  0  0  0  0
   -4.8048   -0.4730  -18.2298 C   0  0  0  0  0  0  0  0  0  0  0  0
   -4.4545   -0.0838  -19.5538 C   0  0  0  0  0  0  0  0  0  0  0  0
   -3.2732    0.6619  -19.8157 C   0  0  0  0  0  0  0  0  0  0  0  0
   -3.1449    1.3654  -20.9772 C   0  0  0  0  0  0  0  0  0  0  0  0
   -4.0805    1.1615  -22.0205 C   0  0  0  0  0  0  0  0  0  0  0  0
   -5.1315    0.2946  -21.8605 C   0  0  0  0  0  0  0  0  0  0  0  0
   -5.3967   -0.2877  -20.5879 C   0  0  0  0  0  0  0  0  0  0  0  0
   -5.7561    0.0560  -22.7157 H   0  0  0  0  0  0  0  0  0  0  0  0
   -3.9213    1.6386  -22.9793 H   0  0  0  0  0  0  0  0  0  0  0  0
   -2.2578    1.9634  -21.1631 H   0  0  0  0  0  0  0  0  0  0  0  0
   -2.5323    0.7576  -19.0296 H   0  0  0  0  0  0  0  0  0  0  0  0
   -4.0885   -0.2876  -17.4232 H   0  0  0  0  0  0  0  0  0  0  0  0
   -7.7950   -1.6248  -18.5832 H   0  0  0  0  0  0  0  0  0  0  0  0
   -6.9409   -1.9523  -22.1162 H   0  0  0  0  0  0  0  0  0  0  0  0
   -8.1612   -2.2963  -20.8899 H   0  0  0  0  0  0  0  0  0  0  0  0
   -8.8418   -0.4313  -23.1161 N   0  0  0  0  0  0  0  0  0  0  0  0
   -9.1351    0.8429  -23.7724 C   0  0  0  0  0  0  0  0  0  0  0  0
   -7.8596    1.6155  -24.0415 C   0  0  0  0  0  0  0  0  0  0  0  0
   -7.5359    2.7176  -23.2535 C   0  0  0  0  0  0  0  0  0  0  0  0
   -6.3644    3.4277  -23.4845 C   0  0  0  0  0  0  0  0  0  0  0  0
   -5.4834    3.0308  -24.4857 C   0  0  0  0  0  0  0  0  0  0  0  0
   -5.7815    1.8870  -25.2188 C   0  0  0  0  0  0  0  0  0  0  0  0
   -4.6162    1.3014  -26.3750 Cl  0  0  0  0  0  0  0  0  0  0  0  0
   -6.9617    1.1836  -25.0195 C   0  0  0  0  0  0  0  0  0  0  0  0
   -7.1523    0.3084  -25.6360 H   0  0  0  0  0  0  0  0  0  0  0  0
   -4.5607    3.5721  -24.6717 H   0  0  0  0  0  0  0  0  0  0  0  0
   -6.1224    4.2878  -22.8668 H   0  0  0  0  0  0  0  0  0  0  0  0
   -8.2001    3.0059  -22.4412 H   0  0  0  0  0  0  0  0  0  0  0  0
   -9.7960    1.4262  -23.1239 H   0  0  0  0  0  0  0  0  0  0  0  0
   -9.6635    0.6246  -24.7028 H   0  0  0  0  0  0  0  0  0  0  0  0
   -9.1398   -1.6739  -23.7582 C   0  0  2  0  0  0  0  0  0  0  0  0
  -10.2677   -2.5187  -23.1332 C   0  0  0  0  0  0  0  0  0  0  0  0
  -10.2413   -3.6944  -24.0948 N   0  0  1  0  0  4  0  0  0  0  0  0
  -11.5044   -4.1074  -24.7039 C   0  0  0  0  0  0  0  0  0  0  0  0
  -11.6776   -5.5791  -24.8835 C   0  0  0  0  0  0  0  0  0  0  0  0
  -12.4508   -4.8339  -23.8124 C   0  0  0  0  0  0  0  0  0  0  0  0
  -12.1497   -4.9339  -22.7738 H   0  0  0  0  0  0  0  0  0  0  0  0
  -13.5215   -4.7333  -23.9341 H   0  0  0  0  0  0  0  0  0  0  0  0
  -10.8388   -6.2012  -24.5833 H   0  0  0  0  0  0  0  0  0  0  0  0
  -12.2084   -5.9443  -25.7558 H   0  0  0  0  0  0  0  0  0  0  0  0
  -11.8900   -3.4436  -25.4642 H   0  0  0  0  0  0  0  0  0  0  0  0
   -9.1914   -3.2226  -25.0626 C   0  0  2  0  0  0  0  0  0  0  0  0
   -8.1029   -2.7801  -24.0883 C   0  0  0  0  0  0  0  0  0  0  0  0
   -7.9109   -3.5122  -23.2946 H   0  0  0  0  0  0  0  0  0  0  0  0
   -7.1854   -2.4298  -24.5581 H   0  0  0  0  0  0  0  0  0  0  0  0
   -9.5367   -1.7427  -25.2479 C   0  0  0  0  0  0  0  0  0  0  0  0
  -10.5794   -1.4917  -25.4672 H   0  0  0  0  0  0  0  0  0  0  0  0
   -8.8473   -1.2368  -25.9200 H   0  0  0  0  0  0  0  0  0  0  0  0
   -9.0233   -3.9044  -25.8872 H   0  0  0  0  0  0  0  0  0  0  0  0
   -9.8719   -4.5240  -23.5892 H   0  0  0  0  0  0  0  0  0  0  0  0
  -11.2432   -2.0334  -23.1513 H   0  0  0  0  0  0  0  0  0  0  0  0
  -10.0499   -2.8552  -22.1179 H   0  0  0  0  0  0  0  0  0  0  0  0
  1  2  2  0
  2  3  1  0
  3  4  1  0
  4  5  2  0
  5  6  1  0
  6  7  2  0
  7  8  1  0
  8  9  2  0
  9 10  1  0
 10 11  2  0
 11 12  1  0
 12 13  2  0
 12 14  1  0
 11 15  1  0
 10 16  1  0
  9 17  1  0
  7 18  1  0
  5 19  1  0
  3 20  1  0
  3 21  1  0
  2 22  1  0
 22 23  1  0
 23 24  1  0
 24 25  2  0
 25 26  1  0
 26 27  2  0
 27 28  1  0
 28 29  1  0
 28 30  2  0
 30 31  1  0
 27 32  1  0
 26 33  1  0
 25 34  1  0
 23 35  1  0
 23 36  1  0
 37 22  1  1
 37 38  1  0
 38 39  1  0
 39 40  1  0
 40 41  1  0
 41 42  1  0
 42 43  1  0
 42 44  1  0
 41 45  1  0
 41 46  1  0
 40 47  1  0
 39 48  1  0
 48 49  1  0
 49 50  1  0
 49 51  1  0
 48 52  1  0
 52 53  1  0
 52 54  1  0
 48 55  1  6
 39 56  1  1
 38 57  1  0
 38 58  1  0
 13  4  1  0
 30 24  1  0
 49 37  1  0
 13  8  1  0
 52 37  1  0
 42 40  1  0
M  CHG  1  39   1
M  END
>  <cnnaffinities>  (45) 
[5.82283, 5.80387, 5.70294, 6.11314, 5.93084, 6.17638]

>  <score>  (45) 
5.82283

>  <index>  (45) 
47

>  <Smiles>  (45) 
O=C(C(c1c(nc(c2c(c(c(c(c12)[H])[H])[H])[H])[H])[H])([H])[H])N(C(c1c(c(c(c(Cl)c1[H])[H])[H])[H])([H])[H])[C@]12C([N@@+](C3(C(C3([H])[H])([H])[H])[H])([C@](C1([H])[H])(C2([H])[H])[H])[H])([H])[H]

>  <h>  (45) 
<NA>

>  <Training>  (45) 
True

>  <Success>  (45) 
True

>  <enamine_searched>  (45) 
False

>  <enamine_id>  (45) 
nan

$$$$

     RDKit          3D

 46 48  0  0  0  0  0  0  0  0999 V2000
   -3.4899   -7.1706  -22.9812 C   0  0  0  0  0  0  0  0  0  0  0  0
   -3.8631   -6.2885  -24.1752 C   0  0  0  0  0  0  0  0  0  0  0  0
   -2.5903   -5.8140  -24.8821 C   0  0  0  0  0  0  0  0  0  0  0  0
   -1.9960   -6.6720  -25.2170 H   0  0  0  0  0  0  0  0  0  0  0  0
   -1.9571   -5.2282  -24.2054 H   0  0  0  0  0  0  0  0  0  0  0  0
   -2.8099   -5.1945  -25.7597 H   0  0  0  0  0  0  0  0  0  0  0  0
   -4.7990   -5.1082  -23.8102 C   0  0  0  0  0  0  0  0  0  0  0  0
   -6.2118   -5.5858  -23.3962 C   0  0  0  0  0  0  0  0  0  0  0  0
   -6.5925   -5.1292  -21.9915 C   0  0  0  0  0  0  0  0  0  0  0  0
   -6.4607   -3.6805  -21.8664 N   0  0  0  0  0  0  0  0  0  0  0  0
   -7.5913   -2.9470  -21.6391 C   0  0  0  0  0  0  0  0  0  0  0  0
   -8.7022   -3.4585  -21.6565 O   0  0  0  0  0  0  0  0  0  0  0  0
   -7.4525   -1.4321  -21.4201 C   0  0  0  0  0  0  0  0  0  0  0  0
   -6.4942   -0.9877  -20.3261 C   0  0  0  0  0  0  0  0  0  0  0  0
   -6.7407   -1.2912  -19.0007 C   0  0  0  0  0  0  0  0  0  0  0  0
   -5.8805   -1.0939  -17.9751 N   0  0  0  0  0  0  0  0  0  0  0  0
   -4.7352   -0.5246  -18.2645 C   0  0  0  0  0  0  0  0  0  0  0  0
   -4.3880   -0.0464  -19.5605 C   0  0  0  0  0  0  0  0  0  0  0  0
   -3.2146    0.7242  -19.7781 C   0  0  0  0  0  0  0  0  0  0  0  0
   -3.0564    1.4459  -20.9313 C   0  0  0  0  0  0  0  0  0  0  0  0
   -3.9662    1.2629  -21.9987 C   0  0  0  0  0  0  0  0  0  0  0  0
   -5.0186    0.3848  -21.8682 C   0  0  0  0  0  0  0  0  0  0  0  0
   -5.3170   -0.2287  -20.6160 C   0  0  0  0  0  0  0  0  0  0  0  0
   -5.5880    0.1245  -22.7597 H   0  0  0  0  0  0  0  0  0  0  0  0
   -3.8140    1.8238  -22.9169 H   0  0  0  0  0  0  0  0  0  0  0  0
   -2.1672    2.0574  -21.0659 H   0  0  0  0  0  0  0  0  0  0  0  0
   -2.5075    0.8223  -18.9627 H   0  0  0  0  0  0  0  0  0  0  0  0
   -4.0258   -0.4090  -17.4469 H   0  0  0  0  0  0  0  0  0  0  0  0
   -7.6805   -1.7488  -18.7039 H   0  0  0  0  0  0  0  0  0  0  0  0
   -7.1783   -0.9675  -22.3760 H   0  0  0  0  0  0  0  0  0  0  0  0
   -8.4813   -1.1309  -21.2030 H   0  0  0  0  0  0  0  0  0  0  0  0
   -5.2036   -3.0874  -22.3206 C   0  0  0  0  0  0  0  0  0  0  0  0
   -4.2207   -4.1743  -22.7381 C   0  0  0  0  0  0  0  0  0  0  0  0
   -3.9590   -4.7532  -21.8474 H   0  0  0  0  0  0  0  0  0  0  0  0
   -3.3096   -3.7004  -23.1124 H   0  0  0  0  0  0  0  0  0  0  0  0
   -5.3806   -2.4192  -23.1738 H   0  0  0  0  0  0  0  0  0  0  0  0
   -4.7717   -2.4781  -21.5230 H   0  0  0  0  0  0  0  0  0  0  0  0
   -7.6258   -5.3855  -21.7648 H   0  0  0  0  0  0  0  0  0  0  0  0
   -5.9575   -5.6119  -21.2393 H   0  0  0  0  0  0  0  0  0  0  0  0
   -6.9507   -5.1733  -24.0925 H   0  0  0  0  0  0  0  0  0  0  0  0
   -6.2831   -6.6784  -23.4711 H   0  0  0  0  0  0  0  0  0  0  0  0
   -4.9126   -4.5157  -24.7306 H   0  0  0  0  0  0  0  0  0  0  0  0
   -4.4230   -6.9128  -24.8869 H   0  0  0  0  0  0  0  0  0  0  0  0
   -2.8298   -6.6301  -22.2927 H   0  0  0  0  0  0  0  0  0  0  0  0
   -2.9487   -8.0631  -23.3172 H   0  0  0  0  0  0  0  0  0  0  0  0
   -4.3661   -7.5097  -22.4157 H   0  0  0  0  0  0  0  0  0  0  0  0
  1  2  1  0
  2  3  1  0
  3  4  1  0
  3  5  1  0
  3  6  1  0
  2  7  1  0
  7  8  1  0
  8  9  1  0
  9 10  1  0
 10 11  1  0
 11 12  2  0
 11 13  1  0
 13 14  1  0
 14 15  2  0
 15 16  1  0
 16 17  2  0
 17 18  1  0
 18 19  2  0
 19 20  1  0
 20 21  2  0
 21 22  1  0
 22 23  2  0
 22 24  1  0
 21 25  1  0
 20 26  1  0
 19 27  1  0
 17 28  1  0
 15 29  1  0
 13 30  1  0
 13 31  1  0
 10 32  1  0
 32 33  1  0
 33 34  1  0
 33 35  1  0
 32 36  1  0
 32 37  1  0
  9 38  1  0
  9 39  1  0
  8 40  1  0
  8 41  1  0
  7 42  1  0
  2 43  1  0
  1 44  1  0
  1 45  1  0
  1 46  1  0
 33  7  1  0
 23 14  1  0
 23 18  1  0
M  END
>  <cnnaffinities>  (46) 
[5.39135]

>  <score>  (46) 
5.39135

>  <index>  (46) 
48

>  <Smiles>  (46) 
C(C(C([H])([H])[H])(C1(C(C(N(C(=O)C(c2c(nc(c3c(c(c(c(c23)[H])[H])[H])[H])[H])[H])([H])[H])C(C1([H])[H])([H])[H])([H])[H])([H])[H])[H])[H])([H])([H])[H]

>  <h>  (46) 
<NA>

>  <Training>  (46) 
True

>  <Success>  (46) 
True

>  <enamine_searched>  (46) 
False

>  <enamine_id>  (46) 
nan

$$$$

     RDKit          3D

 67 72  0  0  0  0  0  0  0  0999 V2000
   -7.3205    3.3036  -21.7699 C   0  0  0  0  0  0  0  0  0  0  0  0
   -8.2262    2.8719  -22.8232 N   0  0  0  0  0  0  0  0  0  0  0  0
   -7.6938    2.2075  -23.8854 C   0  0  0  0  0  0  0  0  0  0  0  0
   -6.4898    2.0705  -24.0250 O   0  0  0  0  0  0  0  0  0  0  0  0
   -8.6845    1.6207  -24.8967 C   0  0  0  0  0  0  0  0  0  0  0  0
   -9.3597    0.4578  -24.3485 N   0  0  0  0  0  0  0  0  0  0  0  0
   -8.6085   -0.7846  -24.2074 C   0  0  0  0  0  0  0  0  0  0  0  0
   -9.0147   -1.5485  -22.9191 C   0  0  2  0  0  0  0  0  0  0  0  0
   -8.4834   -0.8061  -21.6706 C   0  0  0  0  0  0  0  0  0  0  0  0
   -8.9180    0.2112  -21.1619 O   0  0  0  0  0  0  0  0  0  0  0  0
   -7.3817   -1.4879  -21.2057 N   0  0  0  0  0  0  0  0  0  0  0  0
   -6.5399   -0.9594  -20.2073 C   0  0  0  0  0  0  0  0  0  0  0  0
   -6.8420   -1.1284  -18.8834 C   0  0  0  0  0  0  0  0  0  0  0  0
   -5.9874   -0.8427  -17.8724 N   0  0  0  0  0  0  0  0  0  0  0  0
   -4.8208   -0.3396  -18.2023 C   0  0  0  0  0  0  0  0  0  0  0  0
   -4.4342   -0.0195  -19.5359 C   0  0  0  0  0  0  0  0  0  0  0  0
   -3.2573    0.7229  -19.8253 C   0  0  0  0  0  0  0  0  0  0  0  0
   -3.1533    1.4126  -20.9992 C   0  0  0  0  0  0  0  0  0  0  0  0
   -4.0783    1.1763  -22.0479 C   0  0  0  0  0  0  0  0  0  0  0  0
   -5.1110    0.2905  -21.8586 C   0  0  0  0  0  0  0  0  0  0  0  0
   -5.3644   -0.2433  -20.5661 C   0  0  0  0  0  0  0  0  0  0  0  0
   -5.7425    0.0034  -22.6922 H   0  0  0  0  0  0  0  0  0  0  0  0
   -3.9498    1.6530  -23.0135 H   0  0  0  0  0  0  0  0  0  0  0  0
   -2.2843    2.0362  -21.1900 H   0  0  0  0  0  0  0  0  0  0  0  0
   -2.5373    0.8444  -19.0243 H   0  0  0  0  0  0  0  0  0  0  0  0
   -4.1362   -0.0903  -17.3921 H   0  0  0  0  0  0  0  0  0  0  0  0
   -7.8149   -1.5286  -18.6156 H   0  0  0  0  0  0  0  0  0  0  0  0
   -7.0120   -2.6499  -21.9786 C   0  0  0  0  0  0  0  0  0  0  0  0
   -8.2823   -2.9181  -22.7868 C   0  0  2  0  0  0  0  0  0  0  0  0
   -7.9763   -3.6938  -24.0680 C   0  0  0  0  0  0  0  0  0  0  0  0
   -7.4683   -5.0112  -23.7702 N   0  0  0  0  0  0  0  0  0  0  0  0
   -6.1398   -5.3060  -23.6455 C   0  0  0  0  0  0  0  0  0  0  0  0
   -5.0392   -4.5697  -23.9846 C   0  0  0  0  0  0  0  0  0  0  0  0
   -3.8171   -5.1637  -23.7730 N   0  0  0  0  0  0  0  0  0  0  0  0
   -3.9524   -6.3568  -23.2873 C   0  0  0  0  0  0  0  0  0  0  0  0
   -2.8131   -7.2776  -22.9833 C   0  0  0  0  0  0  0  0  0  0  0  0
   -3.0313   -7.9043  -22.1156 H   0  0  0  0  0  0  0  0  0  0  0  0
   -2.6268   -7.9440  -23.8351 H   0  0  0  0  0  0  0  0  0  0  0  0
   -1.9075   -6.6911  -22.8044 H   0  0  0  0  0  0  0  0  0  0  0  0
   -5.6118   -6.8539  -23.0294 S   0  0  0  0  0  0  0  0  0  0  0  0
   -5.0619   -3.5728  -24.4082 H   0  0  0  0  0  0  0  0  0  0  0  0
   -8.1290   -5.7352  -23.5351 H   0  0  0  0  0  0  0  0  0  0  0  0
   -8.8821   -3.7909  -24.6759 H   0  0  0  0  0  0  0  0  0  0  0  0
   -7.2236   -3.1578  -24.6594 H   0  0  0  0  0  0  0  0  0  0  0  0
   -8.9137   -3.5553  -22.1610 H   0  0  0  0  0  0  0  0  0  0  0  0
   -6.1360   -2.4698  -22.6261 H   0  0  0  0  0  0  0  0  0  0  0  0
   -6.7469   -3.4998  -21.3381 H   0  0  0  0  0  0  0  0  0  0  0  0
  -10.5265   -1.6334  -22.8904 C   0  0  0  0  0  0  0  0  0  0  0  0
  -11.1751   -2.5473  -22.0550 C   0  0  0  0  0  0  0  0  0  0  0  0
  -12.5370   -2.7437  -22.1747 C   0  0  0  0  0  0  0  0  0  0  0  0
  -13.3180   -3.8679  -21.1070 Cl  0  0  0  0  0  0  0  0  0  0  0  0
  -13.2967   -2.0475  -23.1159 C   0  0  0  0  0  0  0  0  0  0  0  0
  -12.6852   -1.0258  -23.8198 C   0  0  0  0  0  0  0  0  0  0  0  0
  -11.3224   -0.7758  -23.6614 C   0  0  0  0  0  0  0  0  0  0  0  0
  -10.7287    0.4486  -24.2944 C   0  0  0  0  0  0  0  0  0  0  0  0
  -11.4173    1.3652  -24.7201 O   0  0  0  0  0  0  0  0  0  0  0  0
  -13.2589   -0.3824  -24.4787 H   0  0  0  0  0  0  0  0  0  0  0  0
  -14.3535   -2.2640  -23.2373 H   0  0  0  0  0  0  0  0  0  0  0  0
  -10.6296   -3.1347  -21.3268 H   0  0  0  0  0  0  0  0  0  0  0  0
   -7.5393   -0.5494  -24.1943 H   0  0  0  0  0  0  0  0  0  0  0  0
   -8.7947   -1.4219  -25.0837 H   0  0  0  0  0  0  0  0  0  0  0  0
   -9.4507    2.3473  -25.1861 H   0  0  0  0  0  0  0  0  0  0  0  0
   -8.1212    1.3462  -25.7955 H   0  0  0  0  0  0  0  0  0  0  0  0
   -9.1934    2.7136  -22.5772 H   0  0  0  0  0  0  0  0  0  0  0  0
   -6.7571    2.4503  -21.3637 H   0  0  0  0  0  0  0  0  0  0  0  0
   -6.6160    4.0371  -22.1723 H   0  0  0  0  0  0  0  0  0  0  0  0
   -7.8886    3.7803  -20.9718 H   0  0  0  0  0  0  0  0  0  0  0  0
  1  2  1  0
  2  3  1  0
  3  4  2  0
  3  5  1  0
  5  6  1  0
  6  7  1  0
  8  7  1  6
  8  9  1  0
  9 10  2  0
  9 11  1  0
 11 12  1  0
 12 13  2  0
 13 14  1  0
 14 15  2  0
 15 16  1  0
 16 17  2  0
 17 18  1  0
 18 19  2  0
 19 20  1  0
 20 21  2  0
 20 22  1  0
 19 23  1  0
 18 24  1  0
 17 25  1  0
 15 26  1  0
 13 27  1  0
 11 28  1  0
 28 29  1  0
 29 30  1  0
 30 31  1  0
 31 32  1  0
 32 33  2  0
 33 34  1  0
 34 35  2  0
 35 36  1  0
 36 37  1  0
 36 38  1  0
 36 39  1  0
 35 40  1  0
 33 41  1  0
 31 42  1  0
 30 43  1  0
 30 44  1  0
 29 45  1  1
 28 46  1  0
 28 47  1  0
  8 48  1  0
 48 49  2  0
 49 50  1  0
 50 51  1  0
 50 52  2  0
 52 53  1  0
 53 54  2  0
 54 55  1  0
 55 56  2  0
 53 57  1  0
 52 58  1  0
 49 59  1  0
  7 60  1  0
  7 61  1  0
  5 62  1  0
  5 63  1  0
  2 64  1  0
  1 65  1  0
  1 66  1  0
  1 67  1  0
 55  6  1  0
 29  8  1  0
 40 32  1  0
 54 48  1  0
 21 12  1  0
 21 16  1  0
M  END
>  <cnnaffinities>  (47) 
[7.12146, 6.91461]

>  <score>  (47) 
7.12146

>  <index>  (47) 
49

>  <Smiles>  (47) 
C(N(C(=O)C(N1C([C@@]2(C(=O)N(c3c(nc(c4c(c(c(c(c34)[H])[H])[H])[H])[H])[H])C([C@@]2(C(N(c2c(nc(C([H])([H])[H])s2)[H])[H])([H])[H])[H])([H])[H])c2c(c(Cl)c(c(c2C1=O)[H])[H])[H])([H])[H])([H])[H])[H])([H])([H])[H]

>  <h>  (47) 
<NA>

>  <Training>  (47) 
True

>  <Success>  (47) 
True

>  <enamine_searched>  (47) 
False

>  <enamine_id>  (47) 
nan

$$$$

     RDKit          3D

 66 70  0  0  0  0  0  0  0  0999 V2000
   -8.0652    4.5677  -24.3037 C   0  0  0  0  0  0  0  0  0  0  0  0
   -8.0972    3.3474  -25.0725 N   0  0  0  0  0  0  0  0  0  0  0  0
   -7.1780    2.3758  -24.8583 C   0  0  0  0  0  0  0  0  0  0  0  0
   -6.1633    2.5382  -24.1950 O   0  0  0  0  0  0  0  0  0  0  0  0
   -7.4928    1.0398  -25.5468 C   0  0  0  0  0  0  0  0  0  0  0  0
   -8.4238    0.2134  -24.7881 N   0  0  0  0  0  0  0  0  0  0  0  0
   -7.9805   -1.0870  -24.2959 C   0  0  0  0  0  0  0  0  0  0  0  0
   -8.7807   -1.5750  -23.0470 C   0  0  2  0  0  0  0  0  0  0  0  0
   -8.3108   -0.7737  -21.7953 C   0  0  0  0  0  0  0  0  0  0  0  0
   -8.6805    0.3248  -21.4486 O   0  0  0  0  0  0  0  0  0  0  0  0
   -7.3792   -1.5473  -21.1225 N   0  0  0  0  0  0  0  0  0  0  0  0
   -6.4660   -1.0710  -20.1392 C   0  0  0  0  0  0  0  0  0  0  0  0
   -6.6070   -1.4699  -18.8353 C   0  0  0  0  0  0  0  0  0  0  0  0
   -5.6333   -1.3657  -17.8949 N   0  0  0  0  0  0  0  0  0  0  0  0
   -4.5141   -0.7743  -18.2362 C   0  0  0  0  0  0  0  0  0  0  0  0
   -4.2999   -0.1669  -19.5013 C   0  0  0  0  0  0  0  0  0  0  0  0
   -3.1709    0.6608  -19.7543 C   0  0  0  0  0  0  0  0  0  0  0  0
   -3.1254    1.4302  -20.8830 C   0  0  0  0  0  0  0  0  0  0  0  0
   -4.1319    1.3157  -21.8673 C   0  0  0  0  0  0  0  0  0  0  0  0
   -5.2064    0.4885  -21.6644 C   0  0  0  0  0  0  0  0  0  0  0  0
   -5.3271   -0.2654  -20.4682 C   0  0  0  0  0  0  0  0  0  0  0  0
   -5.9986    0.4485  -22.4005 H   0  0  0  0  0  0  0  0  0  0  0  0
   -4.0666    1.8701  -22.7963 H   0  0  0  0  0  0  0  0  0  0  0  0
   -2.2917    2.1035  -21.0552 H   0  0  0  0  0  0  0  0  0  0  0  0
   -2.4221    0.7565  -18.9753 H   0  0  0  0  0  0  0  0  0  0  0  0
   -3.7206   -0.7017  -17.4842 H   0  0  0  0  0  0  0  0  0  0  0  0
   -7.5422   -1.9239  -18.5068 H   0  0  0  0  0  0  0  0  0  0  0  0
   -7.1201   -2.8197  -21.7727 C   0  0  0  0  0  0  0  0  0  0  0  0
   -8.3599   -3.0038  -22.6454 C   0  0  2  0  0  0  0  0  0  0  0  0
   -8.1907   -4.0069  -23.7745 C   0  0  0  0  0  0  0  0  0  0  0  0
   -8.0172   -5.2636  -23.1628 O   0  0  0  0  0  0  0  0  0  0  0  0
   -7.7114   -6.3576  -24.0134 C   0  0  0  0  0  0  0  0  0  0  0  0
   -8.9850   -7.1479  -24.2995 C   0  0  0  0  0  0  0  0  0  0  0  0
   -8.8296   -7.8888  -25.0897 H   0  0  0  0  0  0  0  0  0  0  0  0
   -9.3149   -7.6649  -23.3933 H   0  0  0  0  0  0  0  0  0  0  0  0
   -9.7918   -6.4756  -24.6117 H   0  0  0  0  0  0  0  0  0  0  0  0
   -6.6537   -7.1623  -23.2680 C   0  0  0  0  0  0  0  0  0  0  0  0
   -5.8732   -6.4796  -22.9183 H   0  0  0  0  0  0  0  0  0  0  0  0
   -6.1874   -7.9307  -23.8915 H   0  0  0  0  0  0  0  0  0  0  0  0
   -7.1028   -7.6397  -22.3911 H   0  0  0  0  0  0  0  0  0  0  0  0
   -7.2877   -5.9861  -24.9598 H   0  0  0  0  0  0  0  0  0  0  0  0
   -9.0803   -3.9893  -24.4292 H   0  0  0  0  0  0  0  0  0  0  0  0
   -7.3105   -3.7574  -24.3958 H   0  0  0  0  0  0  0  0  0  0  0  0
   -9.1347   -3.4060  -21.9905 H   0  0  0  0  0  0  0  0  0  0  0  0
   -7.0121   -3.6132  -21.0327 H   0  0  0  0  0  0  0  0  0  0  0  0
   -6.1978   -2.7840  -22.3713 H   0  0  0  0  0  0  0  0  0  0  0  0
  -10.2586   -1.4306  -23.3525 C   0  0  0  0  0  0  0  0  0  0  0  0
  -11.2467   -2.2528  -22.7945 C   0  0  0  0  0  0  0  0  0  0  0  0
  -12.5725   -2.0496  -23.1183 C   0  0  0  0  0  0  0  0  0  0  0  0
  -13.4771   -2.8800  -22.5678 F   0  0  0  0  0  0  0  0  0  0  0  0
  -13.0112   -1.0347  -23.9628 C   0  0  0  0  0  0  0  0  0  0  0  0
  -12.0419   -0.1868  -24.4601 C   0  0  0  0  0  0  0  0  0  0  0  0
  -10.6918   -0.4024  -24.1986 C   0  0  0  0  0  0  0  0  0  0  0  0
   -9.7418    0.5233  -24.8725 C   0  0  0  0  0  0  0  0  0  0  0  0
  -10.1575    1.5117  -25.4846 O   0  0  0  0  0  0  0  0  0  0  0  0
  -12.2794    0.6847  -25.0553 H   0  0  0  0  0  0  0  0  0  0  0  0
  -14.0733   -0.9213  -24.1750 H   0  0  0  0  0  0  0  0  0  0  0  0
  -11.0105   -3.0382  -22.0832 H   0  0  0  0  0  0  0  0  0  0  0  0
   -6.9175   -1.0025  -24.0483 H   0  0  0  0  0  0  0  0  0  0  0  0
   -8.0749   -1.8254  -25.1036 H   0  0  0  0  0  0  0  0  0  0  0  0
   -7.9307    1.2258  -26.5323 H   0  0  0  0  0  0  0  0  0  0  0  0
   -6.5619    0.4842  -25.6701 H   0  0  0  0  0  0  0  0  0  0  0  0
   -8.9734    3.0513  -25.4837 H   0  0  0  0  0  0  0  0  0  0  0  0
   -8.6227    5.3374  -24.8387 H   0  0  0  0  0  0  0  0  0  0  0  0
   -7.0270    4.8752  -24.1898 H   0  0  0  0  0  0  0  0  0  0  0  0
   -8.4985    4.4415  -23.3051 H   0  0  0  0  0  0  0  0  0  0  0  0
  1  2  1  0
  2  3  1  0
  3  4  2  0
  3  5  1  0
  5  6  1  0
  6  7  1  0
  8  7  1  6
  8  9  1  0
  9 10  2  0
  9 11  1  0
 11 12  1  0
 12 13  2  0
 13 14  1  0
 14 15  2  0
 15 16  1  0
 16 17  2  0
 17 18  1  0
 18 19  2  0
 19 20  1  0
 20 21  2  0
 20 22  1  0
 19 23  1  0
 18 24  1  0
 17 25  1  0
 15 26  1  0
 13 27  1  0
 11 28  1  0
 28 29  1  0
 29 30  1  0
 30 31  1  0
 31 32  1  0
 32 33  1  0
 33 34  1  0
 33 35  1  0
 33 36  1  0
 32 37  1  0
 37 38  1  0
 37 39  1  0
 37 40  1  0
 32 41  1  0
 30 42  1  0
 30 43  1  0
 29 44  1  1
 28 45  1  0
 28 46  1  0
  8 47  1  0
 47 48  2  0
 48 49  1  0
 49 50  1  0
 49 51  2  0
 51 52  1  0
 52 53  2  0
 53 54  1  0
 54 55  2  0
 52 56  1  0
 51 57  1  0
 48 58  1  0
  7 59  1  0
  7 60  1  0
  5 61  1  0
  5 62  1  0
  2 63  1  0
  1 64  1  0
  1 65  1  0
  1 66  1  0
 54  6  1  0
 29  8  1  0
 53 47  1  0
 21 12  1  0
 21 16  1  0
M  END
>  <cnnaffinities>  (48) 
[6.61431, 6.73496, 6.74641, 6.70986, 6.75669]

>  <score>  (48) 
6.61431

>  <index>  (48) 
50

>  <Smiles>  (48) 
C(N(C(=O)C(N1C([C@@]2(C(=O)N(c3c(nc(c4c(c(c(c(c34)[H])[H])[H])[H])[H])[H])C([C@@]2(C(OC(C([H])([H])[H])(C([H])([H])[H])[H])([H])[H])[H])([H])[H])c2c(c(F)c(c(c2C1=O)[H])[H])[H])([H])[H])([H])[H])[H])([H])([H])[H]

>  <h>  (48) 
<NA>

>  <Training>  (48) 
True

>  <Success>  (48) 
True

>  <enamine_searched>  (48) 
False

>  <enamine_id>  (48) 
nan

$$$$

     RDKit          3D

 50 52  0  0  0  0  0  0  0  0999 V2000
   -9.8974   -3.9196  -25.5641 C   0  0  0  0  0  0  0  0  0  0  0  0
   -8.9242   -3.5625  -24.7283 C   0  0  0  0  0  0  0  0  0  0  0  0
   -8.7996   -2.1370  -24.2287 C   0  0  0  0  0  0  0  0  0  0  0  0
   -9.4426   -1.8960  -22.9376 N   0  0  0  0  0  0  0  0  0  0  0  0
   -8.7593   -1.3682  -21.8351 C   0  0  0  0  0  0  0  0  0  0  0  0
   -9.2654   -0.6035  -21.0382 O   0  0  0  0  0  0  0  0  0  0  0  0
   -7.4455   -1.7770  -21.7324 N   0  0  0  0  0  0  0  0  0  0  0  0
   -6.6702   -1.4549  -20.5966 C   0  0  0  0  0  0  0  0  0  0  0  0
   -6.8156   -2.1054  -19.3976 C   0  0  0  0  0  0  0  0  0  0  0  0
   -5.9695   -1.9476  -18.3466 N   0  0  0  0  0  0  0  0  0  0  0  0
   -4.9219   -1.1722  -18.5025 C   0  0  0  0  0  0  0  0  0  0  0  0
   -4.6752   -0.4162  -19.6861 C   0  0  0  0  0  0  0  0  0  0  0  0
   -3.5528    0.4400  -19.8503 C   0  0  0  0  0  0  0  0  0  0  0  0
   -3.5011    1.2963  -20.9198 C   0  0  0  0  0  0  0  0  0  0  0  0
   -4.5088    1.2912  -21.9145 C   0  0  0  0  0  0  0  0  0  0  0  0
   -5.5444    0.3959  -21.8358 C   0  0  0  0  0  0  0  0  0  0  0  0
   -5.6365   -0.4825  -20.7220 C   0  0  0  0  0  0  0  0  0  0  0  0
   -6.3071    0.3581  -22.6096 H   0  0  0  0  0  0  0  0  0  0  0  0
   -4.4589    1.9914  -22.7493 H   0  0  0  0  0  0  0  0  0  0  0  0
   -2.6710    1.9896  -21.0267 H   0  0  0  0  0  0  0  0  0  0  0  0
   -2.7927    0.4934  -19.0719 H   0  0  0  0  0  0  0  0  0  0  0  0
   -4.2306   -1.1056  -17.6575 H   0  0  0  0  0  0  0  0  0  0  0  0
   -7.6599   -2.7721  -19.2324 H   0  0  0  0  0  0  0  0  0  0  0  0
   -7.1798   -2.6304  -22.2276 H   0  0  0  0  0  0  0  0  0  0  0  0
  -10.8406   -2.1379  -22.8015 C   0  0  0  0  0  0  0  0  0  0  0  0
  -11.7796   -1.5485  -23.6544 C   0  0  0  0  0  0  0  0  0  0  0  0
  -13.1420   -1.7556  -23.4377 C   0  0  0  0  0  0  0  0  0  0  0  0
  -13.5831   -2.5626  -22.3922 C   0  0  0  0  0  0  0  0  0  0  0  0
  -12.6338   -3.1893  -21.6000 C   0  0  0  0  0  0  0  0  0  0  0  0
  -13.1960   -4.1124  -20.2436 Cl  0  0  0  0  0  0  0  0  0  0  0  0
  -11.2715   -3.0268  -21.8106 C   0  0  0  0  0  0  0  0  0  0  0  0
  -10.5578   -3.6020  -21.2166 H   0  0  0  0  0  0  0  0  0  0  0  0
  -14.6393   -2.6747  -22.1509 H   0  0  0  0  0  0  0  0  0  0  0  0
  -13.8788   -1.2667  -24.0698 H   0  0  0  0  0  0  0  0  0  0  0  0
  -11.4582   -0.9250  -24.4885 H   0  0  0  0  0  0  0  0  0  0  0  0
   -7.7451   -1.8893  -24.1056 H   0  0  0  0  0  0  0  0  0  0  0  0
   -9.2192   -1.4531  -24.9835 H   0  0  0  0  0  0  0  0  0  0  0  0
   -7.8655   -4.5120  -24.2303 C   0  0  0  0  0  0  0  0  0  0  0  0
   -7.1667   -4.2309  -23.2579 O   0  0  0  0  0  0  0  0  0  0  0  0
   -7.6911   -5.6771  -24.9026 N   0  0  0  0  0  0  0  0  0  0  0  0
   -6.9311   -6.7788  -24.3352 C   0  0  0  0  0  0  0  0  0  0  0  0
   -7.7876   -7.6385  -23.4016 C   0  0  0  0  0  0  0  0  0  0  0  0
   -8.1527   -7.0194  -22.5745 H   0  0  0  0  0  0  0  0  0  0  0  0
   -7.2166   -8.4768  -22.9857 H   0  0  0  0  0  0  0  0  0  0  0  0
   -8.6569   -8.0445  -23.9364 H   0  0  0  0  0  0  0  0  0  0  0  0
   -6.0848   -6.3447  -23.7966 H   0  0  0  0  0  0  0  0  0  0  0  0
   -6.5243   -7.3703  -25.1626 H   0  0  0  0  0  0  0  0  0  0  0  0
   -8.2456   -5.8608  -25.7209 H   0  0  0  0  0  0  0  0  0  0  0  0
  -10.0091   -4.9285  -25.9538 H   0  0  0  0  0  0  0  0  0  0  0  0
  -10.6231   -3.1864  -25.9154 H   0  0  0  0  0  0  0  0  0  0  0  0
  1  2  2  0
  2  3  1  0
  3  4  1  0
  4  5  1  0
  5  6  2  0
  5  7  1  0
  7  8  1  0
  8  9  2  0
  9 10  1  0
 10 11  2  0
 11 12  1  0
 12 13  2  0
 13 14  1  0
 14 15  2  0
 15 16  1  0
 16 17  2  0
 16 18  1  0
 15 19  1  0
 14 20  1  0
 13 21  1  0
 11 22  1  0
  9 23  1  0
  7 24  1  0
  4 25  1  0
 25 26  2  0
 26 27  1  0
 27 28  2  0
 28 29  1  0
 29 30  1  0
 29 31  2  0
 31 32  1  0
 28 33  1  0
 27 34  1  0
 26 35  1  0
  3 36  1  0
  3 37  1  0
  2 38  1  0
 38 39  2  0
 38 40  1  0
 40 41  1  0
 41 42  1  0
 42 43  1  0
 42 44  1  0
 42 45  1  0
 41 46  1  0
 41 47  1  0
 40 48  1  0
  1 49  1  0
  1 50  1  0
 17  8  1  0
 31 25  1  0
 17 12  1  0
M  END
>  <cnnaffinities>  (49) 
[6.43035]

>  <score>  (49) 
6.43035

>  <index>  (49) 
51

>  <Smiles>  (49) 
C(=C(C(N(C(=O)N(c1c(nc(c2c(c(c(c(c12)[H])[H])[H])[H])[H])[H])[H])c1c(c(c(c(Cl)c1[H])[H])[H])[H])([H])[H])C(=O)N(C(C([H])([H])[H])([H])[H])[H])([H])[H]

>  <h>  (49) 
<NA>

>  <Training>  (49) 
True

>  <Success>  (49) 
True

>  <enamine_searched>  (49) 
False

>  <enamine_id>  (49) 
nan

$$$$

     RDKit          3D

 57 60  0  0  0  0  0  0  0  0999 V2000
   -2.4295   -6.6102  -28.2519 C   0  0  0  0  0  0  0  0  0  0  0  0
   -3.6518   -5.6900  -28.2829 C   0  0  0  0  0  0  0  0  0  0  0  0
   -4.1295   -5.3059  -26.8961 C   0  0  0  0  0  0  0  0  0  0  0  0
   -3.7545   -4.3002  -26.3236 O   0  0  0  0  0  0  0  0  0  0  0  0
   -4.9924   -6.2063  -26.3233 N   0  0  0  0  0  0  0  0  0  0  0  0
   -5.6461   -6.0024  -25.0911 C   0  0  0  0  0  0  0  0  0  0  0  0
   -5.8789   -7.0964  -24.2557 C   0  0  0  0  0  0  0  0  0  0  0  0
   -6.5363   -6.9132  -23.0456 C   0  0  0  0  0  0  0  0  0  0  0  0
   -6.9600   -5.6474  -22.6611 C   0  0  0  0  0  0  0  0  0  0  0  0
   -6.7262   -4.5654  -23.5077 C   0  0  0  0  0  0  0  0  0  0  0  0
   -7.1531   -3.2618  -23.1321 N   0  0  0  0  0  0  0  0  0  0  0  0
   -8.1333   -2.5830  -23.9737 C   0  0  0  0  0  0  0  0  0  0  0  0
   -9.5474   -2.6844  -23.4401 C   0  0  0  0  0  0  0  0  0  0  0  0
  -10.1426   -3.9361  -23.2777 C   0  0  0  0  0  0  0  0  0  0  0  0
  -11.4416   -4.0413  -22.7908 C   0  0  0  0  0  0  0  0  0  0  0  0
  -12.1559   -2.9012  -22.4358 C   0  0  0  0  0  0  0  0  0  0  0  0
  -11.5662   -1.6530  -22.5981 C   0  0  0  0  0  0  0  0  0  0  0  0
  -10.2740   -1.5466  -23.0991 C   0  0  0  0  0  0  0  0  0  0  0  0
   -9.8259   -0.5593  -23.2104 H   0  0  0  0  0  0  0  0  0  0  0  0
  -12.0982   -0.7471  -22.3393 H   0  0  0  0  0  0  0  0  0  0  0  0
  -13.1649   -2.9885  -22.0419 H   0  0  0  0  0  0  0  0  0  0  0  0
  -11.8997   -5.0190  -22.6946 H   0  0  0  0  0  0  0  0  0  0  0  0
   -9.5837   -4.8369  -23.5343 H   0  0  0  0  0  0  0  0  0  0  0  0
   -8.0888   -3.0581  -24.9598 H   0  0  0  0  0  0  0  0  0  0  0  0
   -7.8436   -1.5356  -24.1156 H   0  0  0  0  0  0  0  0  0  0  0  0
   -6.7001   -2.8113  -21.9031 C   0  0  0  0  0  0  0  0  0  0  0  0
   -5.8121   -3.3919  -21.3053 O   0  0  0  0  0  0  0  0  0  0  0  0
   -7.3679   -1.5701  -21.3159 C   0  0  0  0  0  0  0  0  0  0  0  0
   -6.5351   -0.9824  -20.2297 C   0  0  0  0  0  0  0  0  0  0  0  0
   -6.8260   -1.1654  -18.9057 C   0  0  0  0  0  0  0  0  0  0  0  0
   -6.0016   -0.8472  -17.8752 N   0  0  0  0  0  0  0  0  0  0  0  0
   -4.8355   -0.3318  -18.1924 C   0  0  0  0  0  0  0  0  0  0  0  0
   -4.4347   -0.0271  -19.5196 C   0  0  0  0  0  0  0  0  0  0  0  0
   -3.2643    0.7232  -19.7906 C   0  0  0  0  0  0  0  0  0  0  0  0
   -3.1385    1.3994  -20.9711 C   0  0  0  0  0  0  0  0  0  0  0  0
   -4.0463    1.1446  -22.0353 C   0  0  0  0  0  0  0  0  0  0  0  0
   -5.0717    0.2546  -21.8514 C   0  0  0  0  0  0  0  0  0  0  0  0
   -5.3485   -0.2742  -20.5607 C   0  0  0  0  0  0  0  0  0  0  0  0
   -5.6493   -0.0843  -22.7048 H   0  0  0  0  0  0  0  0  0  0  0  0
   -3.8792    1.5999  -23.0123 H   0  0  0  0  0  0  0  0  0  0  0  0
   -2.2815    2.0384  -21.1546 H   0  0  0  0  0  0  0  0  0  0  0  0
   -2.5601    0.8600  -18.9753 H   0  0  0  0  0  0  0  0  0  0  0  0
   -4.1703   -0.0614  -17.3719 H   0  0  0  0  0  0  0  0  0  0  0  0
   -7.7917   -1.5921  -18.6268 H   0  0  0  0  0  0  0  0  0  0  0  0
   -7.5349   -0.8367  -22.1066 H   0  0  0  0  0  0  0  0  0  0  0  0
   -8.3471   -1.8677  -20.9247 H   0  0  0  0  0  0  0  0  0  0  0  0
   -6.0794   -4.7341  -24.7228 C   0  0  0  0  0  0  0  0  0  0  0  0
   -5.8943   -3.8745  -25.3576 H   0  0  0  0  0  0  0  0  0  0  0  0
   -7.4482   -5.4897  -21.7036 H   0  0  0  0  0  0  0  0  0  0  0  0
   -6.7111   -7.7640  -22.3925 H   0  0  0  0  0  0  0  0  0  0  0  0
   -5.5128   -8.0770  -24.5476 H   0  0  0  0  0  0  0  0  0  0  0  0
   -5.1623   -7.0834  -26.7886 H   0  0  0  0  0  0  0  0  0  0  0  0
   -4.4694   -6.1732  -28.8298 H   0  0  0  0  0  0  0  0  0  0  0  0
   -3.3998   -4.7629  -28.8000 H   0  0  0  0  0  0  0  0  0  0  0  0
   -2.0813   -6.7910  -29.2742 H   0  0  0  0  0  0  0  0  0  0  0  0
   -1.6046   -6.1609  -27.6897 H   0  0  0  0  0  0  0  0  0  0  0  0
   -2.6673   -7.5766  -27.7944 H   0  0  0  0  0  0  0  0  0  0  0  0
  1  2  1  0
  2  3  1  0
  3  4  2  0
  3  5  1  0
  5  6  1  0
  6  7  2  0
  7  8  1  0
  8  9  2  0
  9 10  1  0
 10 11  1  0
 11 12  1  0
 12 13  1  0
 13 14  2  0
 14 15  1  0
 15 16  2  0
 16 17  1  0
 17 18  2  0
 18 19  1  0
 17 20  1  0
 16 21  1  0
 15 22  1  0
 14 23  1  0
 12 24  1  0
 12 25  1  0
 11 26  1  0
 26 27  2  0
 26 28  1  0
 28 29  1  0
 29 30  2  0
 30 31  1  0
 31 32  2  0
 32 33  1  0
 33 34  2  0
 34 35  1  0
 35 36  2  0
 36 37  1  0
 37 38  2  0
 37 39  1  0
 36 40  1  0
 35 41  1  0
 34 42  1  0
 32 43  1  0
 30 44  1  0
 28 45  1  0
 28 46  1  0
 10 47  2  0
 47 48  1  0
  9 49  1  0
  8 50  1  0
  7 51  1  0
  5 52  1  0
  2 53  1  0
  2 54  1  0
  1 55  1  0
  1 56  1  0
  1 57  1  0
 47  6  1  0
 18 13  1  0
 38 29  1  0
 38 33  1  0
M  END
>  <cnnaffinities>  (50) 
[6.26283, 5.99042, 6.23734, 5.63771, 5.63279, 5.63692, 6.0097, 6.01006]

>  <score>  (50) 
6.26283

>  <index>  (50) 
52

>  <Smiles>  (50) 
C(C(C(=O)N(c1c(c(c(c(N(C(c2c(c(c(c(c2[H])[H])[H])[H])[H])([H])[H])C(=O)C(c2c(nc(c3c(c(c(c(c23)[H])[H])[H])[H])[H])[H])([H])[H])c1[H])[H])[H])[H])[H])([H])[H])([H])([H])[H]

>  <h>  (50) 
<NA>

>  <Training>  (50) 
True

>  <Success>  (50) 
True

>  <enamine_searched>  (50) 
False

>  <enamine_id>  (50) 
nan

$$$$

     RDKit          3D

 59 63  0  0  0  0  0  0  0  0999 V2000
  -13.9105   -0.6425  -24.1050 C   0  0  0  0  0  0  0  0  0  0  0  0
  -14.6920   -1.6748  -23.2736 C   0  0  0  0  0  0  0  0  0  0  0  0
  -13.7882   -2.7057  -22.8297 N   0  0  0  0  0  0  0  0  0  0  0  0
  -13.4058   -2.9566  -21.5547 C   0  0  0  0  0  0  0  0  0  0  0  0
  -13.8243   -2.3912  -20.5634 O   0  0  0  0  0  0  0  0  0  0  0  0
  -12.4021   -4.0958  -21.5515 C   0  0  0  0  0  0  0  0  0  0  0  0
  -11.2054   -3.8589  -22.3412 N   0  0  0  0  0  0  0  0  0  0  0  0
  -10.0714   -3.3463  -21.5995 C   0  0  0  0  0  0  0  0  0  0  0  0
   -8.8866   -2.8857  -22.4635 C   0  0  2  0  0  0  0  0  0  0  0  0
   -7.6940   -2.7562  -21.5001 C   0  0  0  0  0  0  0  0  0  0  0  0
   -7.0426   -3.6594  -21.0125 O   0  0  0  0  0  0  0  0  0  0  0  0
   -7.4618   -1.4228  -21.2396 N   0  0  0  0  0  0  0  0  0  0  0  0
   -6.5225   -1.0633  -20.2456 C   0  0  0  0  0  0  0  0  0  0  0  0
   -6.7129   -1.4502  -18.9418 C   0  0  0  0  0  0  0  0  0  0  0  0
   -5.7938   -1.2838  -17.9594 N   0  0  0  0  0  0  0  0  0  0  0  0
   -4.6654   -0.6901  -18.2783 C   0  0  0  0  0  0  0  0  0  0  0  0
   -4.3936   -0.1370  -19.5644 C   0  0  0  0  0  0  0  0  0  0  0  0
   -3.2572    0.6840  -19.8171 C   0  0  0  0  0  0  0  0  0  0  0  0
   -3.1768    1.4082  -20.9743 C   0  0  0  0  0  0  0  0  0  0  0  0
   -4.1250    1.2186  -22.0095 C   0  0  0  0  0  0  0  0  0  0  0  0
   -5.1826    0.3650  -21.8273 C   0  0  0  0  0  0  0  0  0  0  0  0
   -5.3741   -0.2790  -20.5734 C   0  0  0  0  0  0  0  0  0  0  0  0
   -5.8788    0.1882  -22.6418 H   0  0  0  0  0  0  0  0  0  0  0  0
   -4.0074    1.7324  -22.9589 H   0  0  0  0  0  0  0  0  0  0  0  0
   -2.3333    2.0674  -21.1565 H   0  0  0  0  0  0  0  0  0  0  0  0
   -2.5156    0.8077  -19.0334 H   0  0  0  0  0  0  0  0  0  0  0  0
   -3.9191   -0.5802  -17.4889 H   0  0  0  0  0  0  0  0  0  0  0  0
   -7.6434   -1.9328  -18.6441 H   0  0  0  0  0  0  0  0  0  0  0  0
   -8.4396   -0.5420  -21.8605 C   0  0  0  0  0  0  0  0  0  0  0  0
   -9.0187   -1.4171  -22.9877 C   0  0  2  0  0  0  0  0  0  0  0  0
  -10.4056   -0.9892  -23.4479 C   0  0  0  0  0  0  0  0  0  0  0  0
  -10.3889    0.0409  -23.8189 H   0  0  0  0  0  0  0  0  0  0  0  0
  -11.1428   -1.0427  -22.6376 H   0  0  0  0  0  0  0  0  0  0  0  0
  -10.7624   -1.6381  -24.2549 H   0  0  0  0  0  0  0  0  0  0  0  0
   -8.3328   -1.3469  -23.8430 H   0  0  0  0  0  0  0  0  0  0  0  0
   -7.9756    0.3764  -22.2337 H   0  0  0  0  0  0  0  0  0  0  0  0
   -9.2118   -0.2416  -21.1354 H   0  0  0  0  0  0  0  0  0  0  0  0
   -8.6431   -3.9175  -23.5401 C   0  0  0  0  0  0  0  0  0  0  0  0
   -7.3591   -4.0858  -24.0661 C   0  0  0  0  0  0  0  0  0  0  0  0
   -7.1196   -5.0835  -24.9940 C   0  0  0  0  0  0  0  0  0  0  0  0
   -5.5039   -5.3042  -25.6033 Cl  0  0  0  0  0  0  0  0  0  0  0  0
   -8.1418   -5.9196  -25.4474 C   0  0  0  0  0  0  0  0  0  0  0  0
   -9.4296   -5.7014  -24.9841 C   0  0  0  0  0  0  0  0  0  0  0  0
   -9.6859   -4.7023  -24.0433 C   0  0  0  0  0  0  0  0  0  0  0  0
  -11.0842   -4.4920  -23.5546 C   0  0  0  0  0  0  0  0  0  0  0  0
  -12.0685   -4.8549  -24.1893 O   0  0  0  0  0  0  0  0  0  0  0  0
  -10.2625   -6.3056  -25.3319 H   0  0  0  0  0  0  0  0  0  0  0  0
   -7.9172   -6.7186  -26.1509 H   0  0  0  0  0  0  0  0  0  0  0  0
   -6.5447   -3.4611  -23.7127 H   0  0  0  0  0  0  0  0  0  0  0  0
   -9.6912   -4.1138  -20.9165 H   0  0  0  0  0  0  0  0  0  0  0  0
  -10.4258   -2.5006  -21.0041 H   0  0  0  0  0  0  0  0  0  0  0  0
  -12.9317   -4.8848  -22.0782 H   0  0  0  0  0  0  0  0  0  0  0  0
  -12.1604   -4.3781  -20.5249 H   0  0  0  0  0  0  0  0  0  0  0  0
  -13.4522   -3.3507  -23.5342 H   0  0  0  0  0  0  0  0  0  0  0  0
  -15.1967   -1.2873  -22.3854 H   0  0  0  0  0  0  0  0  0  0  0  0
  -15.4649   -2.1390  -23.8907 H   0  0  0  0  0  0  0  0  0  0  0  0
  -14.5000   -0.2767  -24.9430 H   0  0  0  0  0  0  0  0  0  0  0  0
  -13.0293   -1.1191  -24.5510 H   0  0  0  0  0  0  0  0  0  0  0  0
  -13.5472    0.2212  -23.5362 H   0  0  0  0  0  0  0  0  0  0  0  0
  1  2  1  0
  2  3  1  0
  3  4  1  0
  4  5  2  0
  4  6  1  0
  6  7  1  0
  7  8  1  0
  9  8  1  1
  9 10  1  0
 10 11  2  0
 10 12  1  0
 12 13  1  0
 13 14  2  0
 14 15  1  0
 15 16  2  0
 16 17  1  0
 17 18  2  0
 18 19  1  0
 19 20  2  0
 20 21  1  0
 21 22  2  0
 21 23  1  0
 20 24  1  0
 19 25  1  0
 18 26  1  0
 16 27  1  0
 14 28  1  0
 12 29  1  0
 29 30  1  0
 30 31  1  0
 31 32  1  0
 31 33  1  0
 31 34  1  0
 30 35  1  6
 29 36  1  0
 29 37  1  0
  9 38  1  0
 38 39  2  0
 39 40  1  0
 40 41  1  0
 40 42  2  0
 42 43  1  0
 43 44  2  0
 44 45  1  0
 45 46  2  0
 43 47  1  0
 42 48  1  0
 39 49  1  0
  8 50  1  0
  8 51  1  0
  6 52  1  0
  6 53  1  0
  3 54  1  0
  2 55  1  0
  2 56  1  0
  1 57  1  0
  1 58  1  0
  1 59  1  0
 45  7  1  0
 30  9  1  0
 44 38  1  0
 22 13  1  0
 22 17  1  0
M  END
>  <cnnaffinities>  (51) 
[6.50358, 6.51646]

>  <score>  (51) 
6.50358

>  <index>  (51) 
53

>  <Smiles>  (51) 
C(C(N(C(=O)C(N1C([C@@]2(C(=O)N(c3c(nc(c4c(c(c(c(c34)[H])[H])[H])[H])[H])[H])C([C@@]2(C([H])([H])[H])[H])([H])[H])c2c(c(Cl)c(c(c2C1=O)[H])[H])[H])([H])[H])([H])[H])[H])([H])[H])([H])([H])[H]

>  <h>  (51) 
<NA>

>  <Training>  (51) 
True

>  <Success>  (51) 
True

>  <enamine_searched>  (51) 
False

>  <enamine_id>  (51) 
nan

$$$$

     RDKit          3D

 40 43  0  0  0  0  0  0  0  0999 V2000
  -10.2975   -2.5963  -22.7833 C   0  0  0  0  0  0  0  0  0  0  0  0
   -8.9404   -2.1879  -22.4796 N   0  0  0  0  0  0  0  0  0  0  0  0
   -7.7667   -2.6935  -22.9614 C   0  0  0  0  0  0  0  0  0  0  0  0
   -7.6534   -3.6036  -24.1177 C   0  0  0  0  0  0  0  0  0  0  0  0
   -7.8623   -5.0201  -23.6571 C   0  0  0  0  0  0  0  0  0  0  0  0
   -9.0169   -5.7070  -24.0077 C   0  0  0  0  0  0  0  0  0  0  0  0
   -9.1234   -7.0680  -23.7487 C   0  0  0  0  0  0  0  0  0  0  0  0
   -8.1109   -7.7112  -23.0388 C   0  0  0  0  0  0  0  0  0  0  0  0
   -7.0423   -6.9744  -22.5304 C   0  0  0  0  0  0  0  0  0  0  0  0
   -6.9067   -5.6285  -22.8403 C   0  0  0  0  0  0  0  0  0  0  0  0
   -6.0756   -5.0431  -22.4458 H   0  0  0  0  0  0  0  0  0  0  0  0
   -6.3173   -7.4609  -21.8818 H   0  0  0  0  0  0  0  0  0  0  0  0
   -8.1313   -8.7875  -22.8823 H   0  0  0  0  0  0  0  0  0  0  0  0
  -10.0028   -7.6004  -24.1019 H   0  0  0  0  0  0  0  0  0  0  0  0
   -9.8365   -5.1676  -24.4830 H   0  0  0  0  0  0  0  0  0  0  0  0
   -8.3665   -3.3293  -24.9062 H   0  0  0  0  0  0  0  0  0  0  0  0
   -6.6396   -3.4769  -24.5119 H   0  0  0  0  0  0  0  0  0  0  0  0
   -6.7379   -2.3176  -22.2637 N   0  0  0  0  0  0  0  0  0  0  0  0
   -7.2634   -1.5094  -21.3004 N   0  0  0  0  0  0  0  0  0  0  0  0
   -6.4887   -0.9978  -20.2556 C   0  0  0  0  0  0  0  0  0  0  0  0
   -6.8610   -1.1295  -18.9404 C   0  0  0  0  0  0  0  0  0  0  0  0
   -6.0575   -0.7915  -17.9050 N   0  0  0  0  0  0  0  0  0  0  0  0
   -4.8919   -0.2630  -18.2084 C   0  0  0  0  0  0  0  0  0  0  0  0
   -4.4517    0.0072  -19.5356 C   0  0  0  0  0  0  0  0  0  0  0  0
   -3.2812    0.7634  -19.7924 C   0  0  0  0  0  0  0  0  0  0  0  0
   -3.1523    1.4229  -20.9837 C   0  0  0  0  0  0  0  0  0  0  0  0
   -4.0407    1.1489  -22.0611 C   0  0  0  0  0  0  0  0  0  0  0  0
   -5.0667    0.2597  -21.8925 C   0  0  0  0  0  0  0  0  0  0  0  0
   -5.3204   -0.2797  -20.6014 C   0  0  0  0  0  0  0  0  0  0  0  0
   -5.6879   -0.0510  -22.7251 H   0  0  0  0  0  0  0  0  0  0  0  0
   -3.8764    1.6082  -23.0309 H   0  0  0  0  0  0  0  0  0  0  0  0
   -2.3165    2.1007  -21.1418 H   0  0  0  0  0  0  0  0  0  0  0  0
   -2.6055    0.9251  -18.9583 H   0  0  0  0  0  0  0  0  0  0  0  0
   -4.2693    0.1013  -17.3874 H   0  0  0  0  0  0  0  0  0  0  0  0
   -7.8275   -1.5616  -18.6908 H   0  0  0  0  0  0  0  0  0  0  0  0
   -8.6086   -1.2926  -21.4717 C   0  0  0  0  0  0  0  0  0  0  0  0
   -9.3059   -0.4848  -20.8970 O   0  0  0  0  0  0  0  0  0  0  0  0
  -10.5206   -3.5826  -22.3633 H   0  0  0  0  0  0  0  0  0  0  0  0
  -10.9840   -1.8691  -22.3499 H   0  0  0  0  0  0  0  0  0  0  0  0
  -10.4449   -2.6205  -23.8637 H   0  0  0  0  0  0  0  0  0  0  0  0
  1  2  1  0
  2  3  1  0
  3  4  1  0
  4  5  1  0
  5  6  2  0
  6  7  1  0
  7  8  2  0
  8  9  1  0
  9 10  2  0
 10 11  1  0
  9 12  1  0
  8 13  1  0
  7 14  1  0
  6 15  1  0
  4 16  1  0
  4 17  1  0
  3 18  2  0
 18 19  1  0
 19 20  1  0
 20 21  2  0
 21 22  1  0
 22 23  2  0
 23 24  1  0
 24 25  2  0
 25 26  1  0
 26 27  2  0
 27 28  1  0
 28 29  2  0
 28 30  1  0
 27 31  1  0
 26 32  1  0
 25 33  1  0
 23 34  1  0
 21 35  1  0
 19 36  1  0
 36 37  2  0
  1 38  1  0
  1 39  1  0
  1 40  1  0
 36  2  1  0
 10  5  1  0
 29 20  1  0
 29 24  1  0
M  END
>  <cnnaffinities>  (52) 
[5.43465, 5.4347, 5.48727, 5.48727, 5.44296, 5.44461]

>  <score>  (52) 
5.43465

>  <index>  (52) 
54

>  <Smiles>  (52) 
C(n1c(C(c2c(c(c(c(c2[H])[H])[H])[H])[H])([H])[H])nn(c2c(nc(c3c(c(c(c(c23)[H])[H])[H])[H])[H])[H])c1=O)([H])([H])[H]

>  <h>  (52) 
<NA>

>  <Training>  (52) 
True

>  <Success>  (52) 
True

>  <enamine_searched>  (52) 
False

>  <enamine_id>  (52) 
nan

$$$$

     RDKit          3D

 61 66  0  0  0  0  0  0  0  0999 V2000
   -7.0018   -5.4838  -25.0591 C   0  0  0  0  0  0  0  0  0  0  0  0
   -7.3366   -4.8120  -23.8754 O   0  0  0  0  0  0  0  0  0  0  0  0
   -7.9890   -3.5951  -24.1232 C   0  0  0  0  0  0  0  0  0  0  0  0
   -8.2624   -2.9455  -22.7799 C   0  0  1  0  0  0  0  0  0  0  0  0
   -6.9718   -2.6199  -22.0141 C   0  0  0  0  0  0  0  0  0  0  0  0
   -7.3657   -1.4760  -21.2180 N   0  0  0  0  0  0  0  0  0  0  0  0
   -6.5333   -0.9509  -20.2076 C   0  0  0  0  0  0  0  0  0  0  0  0
   -6.8301   -1.1391  -18.8822 C   0  0  0  0  0  0  0  0  0  0  0  0
   -5.9731   -0.8493  -17.8673 N   0  0  0  0  0  0  0  0  0  0  0  0
   -4.8050   -0.3474  -18.2001 C   0  0  0  0  0  0  0  0  0  0  0  0
   -4.4186   -0.0239  -19.5364 C   0  0  0  0  0  0  0  0  0  0  0  0
   -3.2519    0.7388  -19.8209 C   0  0  0  0  0  0  0  0  0  0  0  0
   -3.1442    1.4123  -21.0049 C   0  0  0  0  0  0  0  0  0  0  0  0
   -4.0527    1.1431  -22.0559 C   0  0  0  0  0  0  0  0  0  0  0  0
   -5.0603    0.2307  -21.8707 C   0  0  0  0  0  0  0  0  0  0  0  0
   -5.3379   -0.2647  -20.5708 C   0  0  0  0  0  0  0  0  0  0  0  0
   -5.7116   -0.0579  -22.6874 H   0  0  0  0  0  0  0  0  0  0  0  0
   -3.9149    1.6224  -23.0196 H   0  0  0  0  0  0  0  0  0  0  0  0
   -2.3032    2.0728  -21.1871 H   0  0  0  0  0  0  0  0  0  0  0  0
   -2.5283    0.8740  -19.0277 H   0  0  0  0  0  0  0  0  0  0  0  0
   -4.1176   -0.0962  -17.3905 H   0  0  0  0  0  0  0  0  0  0  0  0
   -7.8034   -1.5335  -18.5952 H   0  0  0  0  0  0  0  0  0  0  0  0
   -8.5510   -0.8786  -21.5866 C   0  0  0  0  0  0  0  0  0  0  0  0
   -9.0315    0.0844  -21.0262 O   0  0  0  0  0  0  0  0  0  0  0  0
   -9.0976   -1.6339  -22.8182 C   0  0  1  0  0  0  0  0  0  0  0  0
   -8.8146   -0.8187  -24.1055 C   0  0  0  0  0  0  0  0  0  0  0  0
   -9.6577    0.3591  -24.1807 N   0  0  0  0  0  0  0  0  0  0  0  0
   -9.0580    1.6019  -24.6455 C   0  0  0  0  0  0  0  0  0  0  0  0
   -8.2161    2.2674  -23.6046 C   0  0  0  0  0  0  0  0  0  0  0  0
   -6.8696    2.3430  -23.4680 C   0  0  0  0  0  0  0  0  0  0  0  0
   -6.6032    3.0534  -22.3152 N   0  0  0  0  0  4  0  0  0  0  0  0
   -7.7642    3.4064  -21.7615 C   0  0  0  0  0  0  0  0  0  0  0  0
   -8.7627    2.9404  -22.5265 N   0  0  0  0  0  0  0  0  0  0  0  0
   -9.7428    2.9103  -22.2547 H   0  0  0  0  0  0  0  0  0  0  0  0
   -7.8965    4.0319  -20.8988 H   0  0  0  0  0  0  0  0  0  0  0  0
   -5.6932    3.0894  -21.8645 H   0  0  0  0  0  0  0  0  0  0  0  0
   -6.0523    1.9437  -24.0514 H   0  0  0  0  0  0  0  0  0  0  0  0
   -9.8802    2.2498  -24.9633 H   0  0  0  0  0  0  0  0  0  0  0  0
   -8.4467    1.3959  -25.5326 H   0  0  0  0  0  0  0  0  0  0  0  0
  -11.0187    0.2313  -24.0983 C   0  0  0  0  0  0  0  0  0  0  0  0
  -11.7977    1.0896  -24.4917 O   0  0  0  0  0  0  0  0  0  0  0  0
  -11.4867   -1.0482  -23.4624 C   0  0  0  0  0  0  0  0  0  0  0  0
  -12.8323   -1.4049  -23.5486 C   0  0  0  0  0  0  0  0  0  0  0  0
  -13.3461   -2.4157  -22.7582 C   0  0  0  0  0  0  0  0  0  0  0  0
  -12.4908   -3.0323  -21.8441 C   0  0  0  0  0  0  0  0  0  0  0  0
  -13.1599   -4.0634  -20.6180 Cl  0  0  0  0  0  0  0  0  0  0  0  0
  -11.1278   -2.8019  -21.8635 C   0  0  0  0  0  0  0  0  0  0  0  0
  -10.5944   -1.8373  -22.7236 C   0  0  0  0  0  0  0  0  0  0  0  0
  -10.4891   -3.3931  -21.2148 H   0  0  0  0  0  0  0  0  0  0  0  0
  -14.3987   -2.6824  -22.7824 H   0  0  0  0  0  0  0  0  0  0  0  0
  -13.4799   -0.8343  -24.2037 H   0  0  0  0  0  0  0  0  0  0  0  0
   -8.9960   -1.4544  -24.9848 H   0  0  0  0  0  0  0  0  0  0  0  0
   -7.7661   -0.5082  -24.1276 H   0  0  0  0  0  0  0  0  0  0  0  0
   -6.1298   -2.3906  -22.6866 H   0  0  0  0  0  0  0  0  0  0  0  0
   -6.6507   -3.4502  -21.3754 H   0  0  0  0  0  0  0  0  0  0  0  0
   -8.8069   -3.6797  -22.1822 H   0  0  0  0  0  0  0  0  0  0  0  0
   -8.9354   -3.7533  -24.6710 H   0  0  0  0  0  0  0  0  0  0  0  0
   -7.3519   -2.9391  -24.7456 H   0  0  0  0  0  0  0  0  0  0  0  0
   -6.5357   -6.4301  -24.7768 H   0  0  0  0  0  0  0  0  0  0  0  0
   -7.8936   -5.6898  -25.6710 H   0  0  0  0  0  0  0  0  0  0  0  0
   -6.2932   -4.9007  -25.6679 H   0  0  0  0  0  0  0  0  0  0  0  0
  1  2  1  0
  2  3  1  0
  3  4  1  0
  4  5  1  0
  5  6  1  0
  6  7  1  0
  7  8  2  0
  8  9  1  0
  9 10  2  0
 10 11  1  0
 11 12  2  0
 12 13  1  0
 13 14  2  0
 14 15  1  0
 15 16  2  0
 15 17  1  0
 14 18  1  0
 13 19  1  0
 12 20  1  0
 10 21  1  0
  8 22  1  0
  6 23  1  0
 23 24  2  0
 23 25  1  0
 25 26  1  6
 26 27  1  0
 27 28  1  0
 28 29  1  0
 29 30  2  0
 30 31  1  0
 31 32  2  0
 32 33  1  0
 33 34  1  0
 32 35  1  0
 31 36  1  0
 30 37  1  0
 28 38  1  0
 28 39  1  0
 27 40  1  0
 40 41  2  0
 40 42  1  0
 42 43  2  0
 43 44  1  0
 44 45  2  0
 45 46  1  0
 45 47  1  0
 47 48  2  0
 47 49  1  0
 44 50  1  0
 43 51  1  0
 26 52  1  0
 26 53  1  0
  5 54  1  0
  5 55  1  0
  4 56  1  1
  3 57  1  0
  3 58  1  0
  1 59  1  0
  1 60  1  0
  1 61  1  0
 25  4  1  0
 33 29  1  0
 48 42  1  0
 16  7  1  0
 48 25  1  0
 16 11  1  0
M  CHG  1  31   1
M  END
>  <cnnaffinities>  (53) 
[6.52543, 6.60177]

>  <score>  (53) 
6.52543

>  <index>  (53) 
55

>  <Smiles>  (53) 
C(OC([C@]1(C(N(c2c(nc(c3c(c(c(c(c23)[H])[H])[H])[H])[H])[H])C(=O)[C@]21C(N(C(c1c([n+](c(n1[H])[H])[H])[H])([H])[H])C(=O)c1c(c(c(Cl)c(c21)[H])[H])[H])([H])[H])([H])[H])[H])([H])[H])([H])([H])[H]

>  <h>  (53) 
<NA>

>  <Training>  (53) 
True

>  <Success>  (53) 
True

>  <enamine_searched>  (53) 
False

>  <enamine_id>  (53) 
nan

$$$$

     RDKit          3D

 57 62  0  0  0  0  0  0  0  0999 V2000
   -7.9067   -3.5095  -24.1914 C   0  0  0  0  0  0  0  0  0  0  0  0
   -8.2319   -2.8157  -22.8712 C   0  0  1  0  0  0  0  0  0  0  0  0
   -6.9976   -2.5991  -21.9883 C   0  0  0  0  0  0  0  0  0  0  0  0
   -7.3891   -1.4955  -21.1392 N   0  0  0  0  0  0  0  0  0  0  0  0
   -6.5143   -0.9997  -20.1417 C   0  0  0  0  0  0  0  0  0  0  0  0
   -6.7917   -1.2002  -18.8154 C   0  0  0  0  0  0  0  0  0  0  0  0
   -5.9204   -0.9222  -17.8142 N   0  0  0  0  0  0  0  0  0  0  0  0
   -4.7646   -0.3920  -18.1461 C   0  0  0  0  0  0  0  0  0  0  0  0
   -4.3954   -0.0365  -19.4784 C   0  0  0  0  0  0  0  0  0  0  0  0
   -3.2460    0.7641  -19.7656 C   0  0  0  0  0  0  0  0  0  0  0  0
   -3.1468    1.4166  -20.9619 C   0  0  0  0  0  0  0  0  0  0  0  0
   -4.0545    1.1282  -22.0114 C   0  0  0  0  0  0  0  0  0  0  0  0
   -5.0739    0.2301  -21.8027 C   0  0  0  0  0  0  0  0  0  0  0  0
   -5.3231   -0.2981  -20.5055 C   0  0  0  0  0  0  0  0  0  0  0  0
   -5.7550    0.0114  -22.6174 H   0  0  0  0  0  0  0  0  0  0  0  0
   -3.9369    1.6165  -22.9754 H   0  0  0  0  0  0  0  0  0  0  0  0
   -2.3225    2.0983  -21.1481 H   0  0  0  0  0  0  0  0  0  0  0  0
   -2.5478    0.9635  -18.9581 H   0  0  0  0  0  0  0  0  0  0  0  0
   -4.0686   -0.1597  -17.3381 H   0  0  0  0  0  0  0  0  0  0  0  0
   -7.7539   -1.6178  -18.5281 H   0  0  0  0  0  0  0  0  0  0  0  0
   -8.4696   -0.7722  -21.6083 C   0  0  0  0  0  0  0  0  0  0  0  0
   -8.9360    0.1947  -21.0492 O   0  0  0  0  0  0  0  0  0  0  0  0
   -8.9417   -1.4240  -22.9405 C   0  0  1  0  0  0  0  0  0  0  0  0
   -8.4518   -0.5990  -24.1683 C   0  0  0  0  0  0  0  0  0  0  0  0
   -9.1999    0.6338  -24.3623 N   0  0  0  0  0  0  0  0  0  0  0  0
   -8.5193    1.8676  -24.7315 C   0  0  0  0  0  0  0  0  0  0  0  0
   -8.0954    2.5721  -23.5108 C   0  0  0  0  0  0  0  0  0  0  0  0
   -7.0342    2.1591  -22.8794 N   0  0  0  0  0  0  0  0  0  0  0  0
   -6.8324    3.0447  -21.8333 C   0  0  0  0  0  0  0  0  0  0  0  0
   -7.7906    4.0245  -21.7534 C   0  0  0  0  0  0  0  0  0  0  0  0
   -8.7149    3.7696  -22.8622 C   0  0  0  0  0  0  0  0  0  0  0  0
   -9.7873    4.3615  -23.2386 N   0  0  0  0  0  0  0  0  0  0  0  0
   -9.9649    5.1268  -22.5784 H   0  0  0  0  0  0  0  0  0  0  0  0
   -7.9456    4.8100  -21.0331 H   0  0  0  0  0  0  0  0  0  0  0  0
   -5.9641    2.8647  -21.2205 H   0  0  0  0  0  0  0  0  0  0  0  0
   -9.1976    2.4578  -25.3520 H   0  0  0  0  0  0  0  0  0  0  0  0
   -7.6126    1.6083  -25.3014 H   0  0  0  0  0  0  0  0  0  0  0  0
  -10.5665    0.6311  -24.3464 C   0  0  0  0  0  0  0  0  0  0  0  0
  -11.2301    1.5659  -24.7751 O   0  0  0  0  0  0  0  0  0  0  0  0
  -11.2011   -0.5937  -23.7667 C   0  0  0  0  0  0  0  0  0  0  0  0
  -12.5724   -0.7655  -23.9503 C   0  0  0  0  0  0  0  0  0  0  0  0
  -13.2342   -1.8071  -23.3314 C   0  0  0  0  0  0  0  0  0  0  0  0
  -12.5100   -2.6065  -22.4527 C   0  0  0  0  0  0  0  0  0  0  0  0
  -13.1627   -3.5561  -21.7644 F   0  0  0  0  0  0  0  0  0  0  0  0
  -11.1520   -2.4613  -22.2603 C   0  0  0  0  0  0  0  0  0  0  0  0
  -10.4550   -1.5052  -23.0085 C   0  0  0  0  0  0  0  0  0  0  0  0
  -10.6633   -3.0822  -21.5172 H   0  0  0  0  0  0  0  0  0  0  0  0
  -14.3030   -1.9542  -23.4377 H   0  0  0  0  0  0  0  0  0  0  0  0
  -13.0977   -0.0383  -24.5599 H   0  0  0  0  0  0  0  0  0  0  0  0
   -8.5623   -1.2187  -25.0678 H   0  0  0  0  0  0  0  0  0  0  0  0
   -7.3914   -0.3448  -24.0573 H   0  0  0  0  0  0  0  0  0  0  0  0
   -6.7582   -3.4800  -21.3810 H   0  0  0  0  0  0  0  0  0  0  0  0
   -6.1045   -2.3584  -22.5860 H   0  0  0  0  0  0  0  0  0  0  0  0
   -8.9050   -3.4701  -22.3117 H   0  0  0  0  0  0  0  0  0  0  0  0
   -7.1673   -2.9390  -24.7662 H   0  0  0  0  0  0  0  0  0  0  0  0
   -8.7998   -3.6353  -24.8138 H   0  0  0  0  0  0  0  0  0  0  0  0
   -7.4798   -4.5027  -24.0098 H   0  0  0  0  0  0  0  0  0  0  0  0
  1  2  1  0
  2  3  1  0
  3  4  1  0
  4  5  1  0
  5  6  2  0
  6  7  1  0
  7  8  2  0
  8  9  1  0
  9 10  2  0
 10 11  1  0
 11 12  2  0
 12 13  1  0
 13 14  2  0
 13 15  1  0
 12 16  1  0
 11 17  1  0
 10 18  1  0
  8 19  1  0
  6 20  1  0
  4 21  1  0
 21 22  2  0
 21 23  1  0
 23 24  1  6
 24 25  1  0
 25 26  1  0
 26 27  1  0
 27 28  2  0
 28 29  1  0
 29 30  2  0
 30 31  1  0
 31 32  2  0
 31 33  1  0
 30 34  1  0
 29 35  1  0
 26 36  1  0
 26 37  1  0
 25 38  1  0
 38 39  2  0
 38 40  1  0
 40 41  2  0
 41 42  1  0
 42 43  2  0
 43 44  1  0
 43 45  1  0
 45 46  2  0
 45 47  1  0
 42 48  1  0
 41 49  1  0
 24 50  1  0
 24 51  1  0
  3 52  1  0
  3 53  1  0
  2 54  1  1
  1 55  1  0
  1 56  1  0
  1 57  1  0
 23  2  1  0
 32 27  1  0
 46 40  1  0
 14  5  1  0
 46 23  1  0
 14  9  1  0
M  END
>  <cnnaffinities>  (54) 
[6.62202, 6.62638]

>  <score>  (54) 
6.62202

>  <index>  (54) 
56

>  <Smiles>  (54) 
C([C@]1(C(N(c2c(nc(c3c(c(c(c(c23)[H])[H])[H])[H])[H])[H])C(=O)[C@]21C(N(C(c1nc(c(c(n1)[H])[H])[H])([H])[H])C(=O)c1c(c(c(F)c(c21)[H])[H])[H])([H])[H])([H])[H])[H])([H])([H])[H]

>  <h>  (54) 
<NA>

>  <Training>  (54) 
True

>  <Success>  (54) 
True

>  <enamine_searched>  (54) 
False

>  <enamine_id>  (54) 
nan

$$$$

     RDKit          3D

 59 63  0  0  0  0  0  0  0  0999 V2000
  -14.5681   -1.4900  -23.4736 C   0  0  0  0  0  0  0  0  0  0  0  0
  -13.7117   -2.5517  -22.9954 N   0  0  0  0  0  0  0  0  0  0  0  0
  -13.5135   -2.8433  -21.6900 C   0  0  0  0  0  0  0  0  0  0  0  0
  -14.0888   -2.3255  -20.7441 O   0  0  0  0  0  0  0  0  0  0  0  0
  -12.5354   -4.0006  -21.5266 C   0  0  0  0  0  0  0  0  0  0  0  0
  -11.2594   -3.8601  -22.2136 N   0  0  0  0  0  0  0  0  0  0  0  0
  -10.1173   -3.3326  -21.4806 C   0  0  0  0  0  0  0  0  0  0  0  0
   -8.8948   -2.9857  -22.3626 C   0  0  2  0  0  0  0  0  0  0  0  0
   -7.6854   -2.8102  -21.4272 C   0  0  0  0  0  0  0  0  0  0  0  0
   -7.0132   -3.6841  -20.9141 O   0  0  0  0  0  0  0  0  0  0  0  0
   -7.4259   -1.4695  -21.2658 N   0  0  0  0  0  0  0  0  0  0  0  0
   -6.5396   -1.0382  -20.2498 C   0  0  0  0  0  0  0  0  0  0  0  0
   -6.8082   -1.2909  -18.9237 C   0  0  0  0  0  0  0  0  0  0  0  0
   -5.9411   -1.0313  -17.9160 N   0  0  0  0  0  0  0  0  0  0  0  0
   -4.7945   -0.4787  -18.2333 C   0  0  0  0  0  0  0  0  0  0  0  0
   -4.4492   -0.0539  -19.5484 C   0  0  0  0  0  0  0  0  0  0  0  0
   -3.2809    0.7152  -19.8205 C   0  0  0  0  0  0  0  0  0  0  0  0
   -3.1586    1.4019  -20.9916 C   0  0  0  0  0  0  0  0  0  0  0  0
   -4.0784    1.1652  -22.0478 C   0  0  0  0  0  0  0  0  0  0  0  0
   -5.1224    0.2856  -21.8725 C   0  0  0  0  0  0  0  0  0  0  0  0
   -5.3764   -0.2803  -20.5881 C   0  0  0  0  0  0  0  0  0  0  0  0
   -5.7539    0.0267  -22.7201 H   0  0  0  0  0  0  0  0  0  0  0  0
   -3.9392    1.6699  -22.9985 H   0  0  0  0  0  0  0  0  0  0  0  0
   -2.2798    2.0181  -21.1830 H   0  0  0  0  0  0  0  0  0  0  0  0
   -2.5277    0.8198  -19.0490 H   0  0  0  0  0  0  0  0  0  0  0  0
   -4.0838   -0.3222  -17.4209 H   0  0  0  0  0  0  0  0  0  0  0  0
   -7.7484   -1.7431  -18.6147 H   0  0  0  0  0  0  0  0  0  0  0  0
   -8.4056   -0.6228  -21.9208 C   0  0  0  0  0  0  0  0  0  0  0  0
   -9.0257   -1.5320  -23.0176 C   0  0  0  0  0  0  0  0  0  0  0  0
  -10.4627   -1.0945  -23.3328 C   0  0  0  0  0  0  0  0  0  0  0  0
  -11.1107   -1.1108  -22.4517 H   0  0  0  0  0  0  0  0  0  0  0  0
  -10.9026   -1.7420  -24.0976 H   0  0  0  0  0  0  0  0  0  0  0  0
  -10.4692   -0.0703  -23.7185 H   0  0  0  0  0  0  0  0  0  0  0  0
   -8.2115   -1.4344  -24.3185 C   0  0  0  0  0  0  0  0  0  0  0  0
   -8.6045   -2.1414  -25.0560 H   0  0  0  0  0  0  0  0  0  0  0  0
   -8.2930   -0.4304  -24.7465 H   0  0  0  0  0  0  0  0  0  0  0  0
   -7.1491   -1.6631  -24.1695 H   0  0  0  0  0  0  0  0  0  0  0  0
   -7.9354    0.2780  -22.3256 H   0  0  0  0  0  0  0  0  0  0  0  0
   -9.1619   -0.2909  -21.1933 H   0  0  0  0  0  0  0  0  0  0  0  0
   -8.6585   -4.1433  -23.3023 C   0  0  0  0  0  0  0  0  0  0  0  0
   -7.3657   -4.4812  -23.7268 C   0  0  0  0  0  0  0  0  0  0  0  0
   -7.1900   -5.4864  -24.6576 C   0  0  0  0  0  0  0  0  0  0  0  0
   -5.5809   -5.8686  -25.2070 Cl  0  0  0  0  0  0  0  0  0  0  0  0
   -8.2741   -6.2095  -25.1528 C   0  0  0  0  0  0  0  0  0  0  0  0
   -9.5519   -5.8878  -24.7306 C   0  0  0  0  0  0  0  0  0  0  0  0
   -9.7444   -4.8521  -23.8225 C   0  0  0  0  0  0  0  0  0  0  0  0
  -11.1292   -4.5156  -23.4043 C   0  0  0  0  0  0  0  0  0  0  0  0
  -12.1202   -4.8023  -24.0827 O   0  0  0  0  0  0  0  0  0  0  0  0
  -10.4257   -6.4281  -25.0852 H   0  0  0  0  0  0  0  0  0  0  0  0
   -8.1053   -7.0106  -25.8603 H   0  0  0  0  0  0  0  0  0  0  0  0
   -6.5026   -3.9751  -23.3105 H   0  0  0  0  0  0  0  0  0  0  0  0
  -10.4096   -2.4214  -20.9512 H   0  0  0  0  0  0  0  0  0  0  0  0
   -9.7902   -4.0522  -20.7287 H   0  0  0  0  0  0  0  0  0  0  0  0
  -12.4176   -4.1903  -20.4610 H   0  0  0  0  0  0  0  0  0  0  0  0
  -13.0325   -4.8407  -22.0190 H   0  0  0  0  0  0  0  0  0  0  0  0
  -13.2023   -3.1214  -23.6633 H   0  0  0  0  0  0  0  0  0  0  0  0
  -13.9998   -0.5692  -23.6441 H   0  0  0  0  0  0  0  0  0  0  0  0
  -15.0520   -1.7640  -24.4129 H   0  0  0  0  0  0  0  0  0  0  0  0
  -15.3413   -1.2991  -22.7318 H   0  0  0  0  0  0  0  0  0  0  0  0
  1  2  1  0
  2  3  1  0
  3  4  2  0
  3  5  1  0
  5  6  1  0
  6  7  1  0
  8  7  1  1
  8  9  1  0
  9 10  2  0
  9 11  1  0
 11 12  1  0
 12 13  2  0
 13 14  1  0
 14 15  2  0
 15 16  1  0
 16 17  2  0
 17 18  1  0
 18 19  2  0
 19 20  1  0
 20 21  2  0
 20 22  1  0
 19 23  1  0
 18 24  1  0
 17 25  1  0
 15 26  1  0
 13 27  1  0
 11 28  1  0
 28 29  1  0
 29 30  1  0
 30 31  1  0
 30 32  1  0
 30 33  1  0
 29 34  1  0
 34 35  1  0
 34 36  1  0
 34 37  1  0
 28 38  1  0
 28 39  1  0
  8 40  1  0
 40 41  2  0
 41 42  1  0
 42 43  1  0
 42 44  2  0
 44 45  1  0
 45 46  2  0
 46 47  1  0
 47 48  2  0
 45 49  1  0
 44 50  1  0
 41 51  1  0
  7 52  1  0
  7 53  1  0
  5 54  1  0
  5 55  1  0
  2 56  1  0
  1 57  1  0
  1 58  1  0
  1 59  1  0
 47  6  1  0
 29  8  1  0
 46 40  1  0
 21 12  1  0
 21 16  1  0
M  END
>  <cnnaffinities>  (55) 
[6.51706]

>  <score>  (55) 
6.51706

>  <index>  (55) 
57

>  <Smiles>  (55) 
C(N(C(=O)C(N1C([C@@]2(C(=O)N(c3c(nc(c4c(c(c(c(c34)[H])[H])[H])[H])[H])[H])C(C2(C([H])([H])[H])C([H])([H])[H])([H])[H])c2c(c(Cl)c(c(c2C1=O)[H])[H])[H])([H])[H])([H])[H])[H])([H])([H])[H]

>  <h>  (55) 
<NA>

>  <Training>  (55) 
True

>  <Success>  (55) 
True

>  <enamine_searched>  (55) 
False

>  <enamine_id>  (55) 
nan

$$$$

     RDKit          3D

 42 45  0  0  0  0  0  0  0  0999 V2000
   -7.2939   -5.4020  -21.7654 C   0  0  0  0  0  0  0  0  0  0  0  0
   -7.9641   -4.3343  -22.4956 N   0  0  0  0  0  0  0  0  0  0  0  0
   -9.2277   -3.7940  -22.0090 C   0  0  0  0  0  0  0  0  0  0  0  0
   -9.4088   -2.3004  -22.3254 C   0  0  1  0  0  0  0  0  0  0  0  0
   -8.6312   -1.3747  -21.3848 C   0  0  0  0  0  0  0  0  0  0  0  0
   -9.1551   -0.4417  -20.8033 O   0  0  0  0  0  0  0  0  0  0  0  0
   -7.2943   -1.6252  -21.2653 N   0  0  0  0  0  0  0  0  0  0  0  0
   -6.5142   -1.0559  -20.2496 C   0  0  0  0  0  0  0  0  0  0  0  0
   -6.8404   -1.2209  -18.9289 C   0  0  0  0  0  0  0  0  0  0  0  0
   -6.0101   -0.9096  -17.9056 N   0  0  0  0  0  0  0  0  0  0  0  0
   -4.8417   -0.4041  -18.2262 C   0  0  0  0  0  0  0  0  0  0  0  0
   -4.4503   -0.0523  -19.5512 C   0  0  0  0  0  0  0  0  0  0  0  0
   -3.2884    0.7191  -19.8198 C   0  0  0  0  0  0  0  0  0  0  0  0
   -3.1778    1.3900  -21.0054 C   0  0  0  0  0  0  0  0  0  0  0  0
   -4.0970    1.1485  -22.0600 C   0  0  0  0  0  0  0  0  0  0  0  0
   -5.1169    0.2452  -21.8862 C   0  0  0  0  0  0  0  0  0  0  0  0
   -5.3524   -0.3086  -20.6010 C   0  0  0  0  0  0  0  0  0  0  0  0
   -5.7579   -0.0535  -22.7148 H   0  0  0  0  0  0  0  0  0  0  0  0
   -3.9488    1.6243  -23.0263 H   0  0  0  0  0  0  0  0  0  0  0  0
   -2.3071    2.0072  -21.1986 H   0  0  0  0  0  0  0  0  0  0  0  0
   -2.5721    0.8607  -19.0169 H   0  0  0  0  0  0  0  0  0  0  0  0
   -4.1593   -0.1892  -17.4041 H   0  0  0  0  0  0  0  0  0  0  0  0
   -7.8179   -1.6078  -18.6468 H   0  0  0  0  0  0  0  0  0  0  0  0
   -6.8192   -2.2372  -21.9119 H   0  0  0  0  0  0  0  0  0  0  0  0
   -9.0319   -2.0198  -23.7552 C   0  0  0  0  0  0  0  0  0  0  0  0
   -9.5346   -0.8888  -24.4017 C   0  0  0  0  0  0  0  0  0  0  0  0
   -9.1136   -0.5913  -25.6881 C   0  0  0  0  0  0  0  0  0  0  0  0
   -9.7320    0.8162  -26.5010 Cl  0  0  0  0  0  0  0  0  0  0  0  0
   -8.1841   -1.3974  -26.3436 C   0  0  0  0  0  0  0  0  0  0  0  0
   -7.6810   -2.5130  -25.6994 C   0  0  0  0  0  0  0  0  0  0  0  0
   -8.1012   -2.8244  -24.4076 C   0  0  0  0  0  0  0  0  0  0  0  0
   -7.4727   -4.0147  -23.7314 C   0  0  0  0  0  0  0  0  0  0  0  0
   -6.5415   -4.6219  -24.2384 O   0  0  0  0  0  0  0  0  0  0  0  0
   -6.9473   -3.1678  -26.1582 H   0  0  0  0  0  0  0  0  0  0  0  0
   -7.8520   -1.1533  -27.3442 H   0  0  0  0  0  0  0  0  0  0  0  0
  -10.2270   -0.2309  -23.8885 H   0  0  0  0  0  0  0  0  0  0  0  0
  -10.4515   -2.0326  -22.1318 H   0  0  0  0  0  0  0  0  0  0  0  0
  -10.0737   -4.3562  -22.4328 H   0  0  0  0  0  0  0  0  0  0  0  0
   -9.2609   -3.9103  -20.9280 H   0  0  0  0  0  0  0  0  0  0  0  0
   -8.0312   -6.0182  -21.2426 H   0  0  0  0  0  0  0  0  0  0  0  0
   -6.7387   -6.0037  -22.4868 H   0  0  0  0  0  0  0  0  0  0  0  0
   -6.5660   -5.0270  -21.0369 H   0  0  0  0  0  0  0  0  0  0  0  0
  1  2  1  0
  2  3  1  0
  3  4  1  0
  4  5  1  0
  5  6  2  0
  5  7  1  0
  7  8  1  0
  8  9  2  0
  9 10  1  0
 10 11  2  0
 11 12  1  0
 12 13  2  0
 13 14  1  0
 14 15  2  0
 15 16  1  0
 16 17  2  0
 16 18  1  0
 15 19  1  0
 14 20  1  0
 13 21  1  0
 11 22  1  0
  9 23  1  0
  7 24  1  0
  4 25  1  0
 25 26  2  0
 26 27  1  0
 27 28  1  0
 27 29  2  0
 29 30  1  0
 30 31  2  0
 31 32  1  0
 32 33  2  0
 30 34  1  0
 29 35  1  0
 26 36  1  0
  4 37  1  6
  3 38  1  0
  3 39  1  0
  1 40  1  0
  1 41  1  0
  1 42  1  0
 32  2  1  0
 17  8  1  0
 31 25  1  0
 17 12  1  0
M  END
>  <cnnaffinities>  (56) 
[5.61247, 5.45573]

>  <score>  (56) 
5.61247

>  <index>  (56) 
58

>  <Smiles>  (56) 
C(N1C([C@@](C(=O)N(c2c(nc(c3c(c(c(c(c23)[H])[H])[H])[H])[H])[H])[H])(c2c(c(Cl)c(c(c2C1=O)[H])[H])[H])[H])([H])[H])([H])([H])[H]

>  <h>  (56) 
<NA>

>  <Training>  (56) 
True

>  <Success>  (56) 
True

>  <enamine_searched>  (56) 
False

>  <enamine_id>  (56) 
nan

$$$$

     RDKit          3D

 60 65  0  0  0  0  0  0  0  0999 V2000
   -7.2834    3.2838  -21.7495 C   0  0  0  0  0  0  0  0  0  0  0  0
   -8.1913    2.8430  -22.7939 N   0  0  0  0  0  0  0  0  0  0  0  0
   -7.6686    2.2161  -23.8809 C   0  0  0  0  0  0  0  0  0  0  0  0
   -6.4651    2.1171  -24.0615 O   0  0  0  0  0  0  0  0  0  0  0  0
   -8.6752    1.6302  -24.8790 C   0  0  0  0  0  0  0  0  0  0  0  0
   -9.3723    0.4854  -24.3143 N   0  0  0  0  0  0  0  0  0  0  0  0
   -8.6275   -0.7595  -24.1683 C   0  0  0  0  0  0  0  0  0  0  0  0
   -9.0443   -1.5464  -22.8948 C   0  0  2  0  0  0  0  0  0  0  0  0
   -8.5192   -0.8253  -21.6295 C   0  0  0  0  0  0  0  0  0  0  0  0
   -8.9571    0.1784  -21.1111 O   0  0  0  0  0  0  0  0  0  0  0  0
   -7.4040   -1.4958  -21.1798 N   0  0  0  0  0  0  0  0  0  0  0  0
   -6.5597   -0.9517  -20.1837 C   0  0  0  0  0  0  0  0  0  0  0  0
   -6.8414   -1.1552  -18.8543 C   0  0  0  0  0  0  0  0  0  0  0  0
   -5.9497   -0.9125  -17.8588 N   0  0  0  0  0  0  0  0  0  0  0  0
   -4.7809   -0.4187  -18.1964 C   0  0  0  0  0  0  0  0  0  0  0  0
   -4.4305   -0.0264  -19.5232 C   0  0  0  0  0  0  0  0  0  0  0  0
   -3.2541    0.7244  -19.8154 C   0  0  0  0  0  0  0  0  0  0  0  0
   -3.1460    1.4009  -20.9977 C   0  0  0  0  0  0  0  0  0  0  0  0
   -4.0900    1.1959  -22.0364 C   0  0  0  0  0  0  0  0  0  0  0  0
   -5.1329    0.3229  -21.8400 C   0  0  0  0  0  0  0  0  0  0  0  0
   -5.3743   -0.2385  -20.5511 C   0  0  0  0  0  0  0  0  0  0  0  0
   -5.7954    0.0726  -22.6670 H   0  0  0  0  0  0  0  0  0  0  0  0
   -3.9846    1.7072  -22.9910 H   0  0  0  0  0  0  0  0  0  0  0  0
   -2.2739    2.0196  -21.1933 H   0  0  0  0  0  0  0  0  0  0  0  0
   -2.4950    0.8257  -19.0484 H   0  0  0  0  0  0  0  0  0  0  0  0
   -4.0574   -0.2628  -17.3932 H   0  0  0  0  0  0  0  0  0  0  0  0
   -7.8090   -1.5565  -18.5477 H   0  0  0  0  0  0  0  0  0  0  0  0
   -7.0137   -2.6310  -21.9928 C   0  0  0  0  0  0  0  0  0  0  0  0
   -8.3032   -2.9212  -22.7741 C   0  0  2  0  0  0  0  0  0  0  0  0
   -8.1215   -3.8051  -24.0292 C   0  0  0  0  0  0  0  0  0  0  0  0
   -6.9153   -3.5070  -24.8807 C   0  0  0  0  0  0  0  0  0  0  0  0
   -5.6826   -3.8916  -24.5666 N   0  0  0  0  0  0  0  0  0  0  0  0
   -4.9064   -3.3994  -25.5311 N   0  0  0  0  0  0  0  0  0  0  0  0
   -5.6441   -2.7550  -26.3935 N   0  0  0  0  0  2  0  0  0  0  0  0
   -6.9195   -2.8189  -26.0151 N   0  0  0  0  0  0  0  0  0  0  0  0
   -8.0118   -4.8502  -23.7172 H   0  0  0  0  0  0  0  0  0  0  0  0
   -9.0187   -3.7425  -24.6513 H   0  0  0  0  0  0  0  0  0  0  0  0
   -8.9209   -3.5070  -22.0910 H   0  0  0  0  0  0  0  0  0  0  0  0
   -6.7074   -3.4788  -21.3679 H   0  0  0  0  0  0  0  0  0  0  0  0
   -6.1648   -2.3913  -22.6445 H   0  0  0  0  0  0  0  0  0  0  0  0
  -10.5595   -1.6362  -22.8843 C   0  0  0  0  0  0  0  0  0  0  0  0
  -11.2152   -2.5979  -22.1054 C   0  0  0  0  0  0  0  0  0  0  0  0
  -12.5786   -2.7760  -22.2456 C   0  0  0  0  0  0  0  0  0  0  0  0
  -13.3889   -3.9659  -21.2713 Cl  0  0  0  0  0  0  0  0  0  0  0  0
  -13.3172   -2.0376  -23.1671 C   0  0  0  0  0  0  0  0  0  0  0  0
  -12.7004   -1.0086  -23.8454 C   0  0  0  0  0  0  0  0  0  0  0  0
  -11.3409   -0.7606  -23.6563 C   0  0  0  0  0  0  0  0  0  0  0  0
  -10.7422    0.4755  -24.2666 C   0  0  0  0  0  0  0  0  0  0  0  0
  -11.4276    1.4020  -24.6786 O   0  0  0  0  0  0  0  0  0  0  0  0
  -13.2516   -0.3791  -24.5328 H   0  0  0  0  0  0  0  0  0  0  0  0
  -14.3744   -2.2378  -23.2982 H   0  0  0  0  0  0  0  0  0  0  0  0
  -10.6896   -3.1996  -21.3678 H   0  0  0  0  0  0  0  0  0  0  0  0
   -8.7831   -1.3992  -25.0509 H   0  0  0  0  0  0  0  0  0  0  0  0
   -7.5609   -0.5162  -24.1215 H   0  0  0  0  0  0  0  0  0  0  0  0
   -9.4437    2.3543  -25.1680 H   0  0  0  0  0  0  0  0  0  0  0  0
   -8.1129    1.3434  -25.7776 H   0  0  0  0  0  0  0  0  0  0  0  0
   -9.1517    2.6618  -22.5400 H   0  0  0  0  0  0  0  0  0  0  0  0
   -6.5716    4.0055  -22.1569 H   0  0  0  0  0  0  0  0  0  0  0  0
   -7.8536    3.7639  -20.9551 H   0  0  0  0  0  0  0  0  0  0  0  0
   -6.7127    2.4399  -21.3387 H   0  0  0  0  0  0  0  0  0  0  0  0
  1  2  1  0
  2  3  1  0
  3  4  2  0
  3  5  1  0
  5  6  1  0
  6  7  1  0
  8  7  1  6
  8  9  1  0
  9 10  2  0
  9 11  1  0
 11 12  1  0
 12 13  2  0
 13 14  1  0
 14 15  2  0
 15 16  1  0
 16 17  2  0
 17 18  1  0
 18 19  2  0
 19 20  1  0
 20 21  2  0
 20 22  1  0
 19 23  1  0
 18 24  1  0
 17 25  1  0
 15 26  1  0
 13 27  1  0
 11 28  1  0
 28 29  1  0
 29 30  1  0
 30 31  1  0
 31 32  1  0
 32 33  2  0
 33 34  1  0
 34 35  1  0
 30 36  1  0
 30 37  1  0
 29 38  1  1
 28 39  1  0
 28 40  1  0
  8 41  1  0
 41 42  2  0
 42 43  1  0
 43 44  1  0
 43 45  2  0
 45 46  1  0
 46 47  2  0
 47 48  1  0
 48 49  2  0
 46 50  1  0
 45 51  1  0
 42 52  1  0
  7 53  1  0
  7 54  1  0
  5 55  1  0
  5 56  1  0
  2 57  1  0
  1 58  1  0
  1 59  1  0
  1 60  1  0
 48  6  1  0
 29  8  1  0
 35 31  2  0
 47 41  1  0
 21 12  1  0
 21 16  1  0
M  CHG  1  34  -1
M  END
>  <cnnaffinities>  (57) 
[6.50859, 6.51832, 6.71113, 6.95056]

>  <score>  (57) 
6.50859

>  <index>  (57) 
59

>  <Smiles>  (57) 
C(N(C(=O)C(N1C([C@@]2(C(=O)N(c3c(nc(c4c(c(c(c(c34)[H])[H])[H])[H])[H])[H])C([C@@]2(C(c2nn[n-]n2)([H])[H])[H])([H])[H])c2c(c(Cl)c(c(c2C1=O)[H])[H])[H])([H])[H])([H])[H])[H])([H])([H])[H]

>  <h>  (57) 
<NA>

>  <Training>  (57) 
True

>  <Success>  (57) 
True

>  <enamine_searched>  (57) 
False

>  <enamine_id>  (57) 
nan

$$$$

     RDKit          3D

 62 67  0  0  0  0  0  0  0  0999 V2000
   -5.6484    1.6666  -25.5487 C   0  0  0  0  0  0  0  0  0  0  0  0
   -6.7365    2.6018  -26.0713 C   0  0  0  0  0  0  0  0  0  0  0  0
   -7.8663    1.9185  -26.6809 N   0  0  0  0  0  0  0  0  0  0  0  0
   -7.8567    1.6948  -28.0086 N   0  0  0  0  0  0  0  0  0  0  0  0
   -8.8828    0.8855  -28.2305 C   0  0  0  0  0  0  0  0  0  0  0  0
   -9.5451    0.5600  -27.0337 C   0  0  0  0  0  0  0  0  0  0  0  0
   -8.8858    1.2633  -26.0637 C   0  0  0  0  0  0  0  0  0  0  0  0
   -9.2653    1.3253  -24.6129 C   0  0  0  0  0  0  0  0  0  0  0  0
   -9.7855    0.0612  -24.1308 N   0  0  0  0  0  0  0  0  0  0  0  0
   -8.8901   -1.0730  -24.0569 C   0  0  0  0  0  0  0  0  0  0  0  0
   -9.1172   -1.8652  -22.7463 C   0  0  2  0  0  0  0  0  0  0  0  0
   -8.5643   -1.0387  -21.5526 C   0  0  0  0  0  0  0  0  0  0  0  0
   -9.0470   -0.0547  -21.0392 O   0  0  0  0  0  0  0  0  0  0  0  0
   -7.3561   -1.5837  -21.1781 N   0  0  0  0  0  0  0  0  0  0  0  0
   -6.5401   -1.0121  -20.1765 C   0  0  0  0  0  0  0  0  0  0  0  0
   -6.8295   -1.1756  -18.8448 C   0  0  0  0  0  0  0  0  0  0  0  0
   -5.9348   -0.9490  -17.8484 N   0  0  0  0  0  0  0  0  0  0  0  0
   -4.7599   -0.4644  -18.1912 C   0  0  0  0  0  0  0  0  0  0  0  0
   -4.4153   -0.0571  -19.5194 C   0  0  0  0  0  0  0  0  0  0  0  0
   -3.2510    0.7073  -19.8151 C   0  0  0  0  0  0  0  0  0  0  0  0
   -3.1498    1.3807  -21.0008 C   0  0  0  0  0  0  0  0  0  0  0  0
   -4.0881    1.1413  -22.0375 C   0  0  0  0  0  0  0  0  0  0  0  0
   -5.1255    0.2697  -21.8315 C   0  0  0  0  0  0  0  0  0  0  0  0
   -5.3569   -0.2904  -20.5446 C   0  0  0  0  0  0  0  0  0  0  0  0
   -5.7797   -0.0032  -22.6555 H   0  0  0  0  0  0  0  0  0  0  0  0
   -3.9628    1.6400  -22.9931 H   0  0  0  0  0  0  0  0  0  0  0  0
   -2.2799    1.9988  -21.1999 H   0  0  0  0  0  0  0  0  0  0  0  0
   -2.4851    0.8317  -19.0509 H   0  0  0  0  0  0  0  0  0  0  0  0
   -4.0289   -0.3318  -17.3897 H   0  0  0  0  0  0  0  0  0  0  0  0
   -7.7924   -1.5659  -18.5150 H   0  0  0  0  0  0  0  0  0  0  0  0
   -6.9277   -2.7126  -21.9755 C   0  0  0  0  0  0  0  0  0  0  0  0
   -8.2260   -3.1464  -22.6715 C   0  0  2  0  0  0  0  0  0  0  0  0
   -7.9903   -3.8975  -23.9789 C   0  0  0  0  0  0  0  0  0  0  0  0
   -8.9382   -4.1630  -24.4591 H   0  0  0  0  0  0  0  0  0  0  0  0
   -7.4143   -3.2928  -24.6893 H   0  0  0  0  0  0  0  0  0  0  0  0
   -7.4260   -4.8244  -23.8168 H   0  0  0  0  0  0  0  0  0  0  0  0
   -8.7270   -3.8271  -21.9778 H   0  0  0  0  0  0  0  0  0  0  0  0
   -6.1432   -2.4274  -22.6929 H   0  0  0  0  0  0  0  0  0  0  0  0
   -6.5064   -3.5018  -21.3397 H   0  0  0  0  0  0  0  0  0  0  0  0
  -10.6090   -2.1318  -22.6270 C   0  0  0  0  0  0  0  0  0  0  0  0
  -11.0894   -3.1003  -21.7396 C   0  0  0  0  0  0  0  0  0  0  0  0
  -12.4462   -3.3447  -21.6690 C   0  0  0  0  0  0  0  0  0  0  0  0
  -12.9093   -4.1987  -20.7447 F   0  0  0  0  0  0  0  0  0  0  0  0
  -13.3675   -2.7296  -22.5091 C   0  0  0  0  0  0  0  0  0  0  0  0
  -12.9007   -1.7448  -23.3562 C   0  0  0  0  0  0  0  0  0  0  0  0
  -11.5500   -1.3933  -23.3591 C   0  0  0  0  0  0  0  0  0  0  0  0
  -11.1355   -0.1707  -24.1196 C   0  0  0  0  0  0  0  0  0  0  0  0
  -11.9464    0.5686  -24.6649 O   0  0  0  0  0  0  0  0  0  0  0  0
  -13.5739   -1.1962  -24.0041 H   0  0  0  0  0  0  0  0  0  0  0  0
  -14.4177   -2.9985  -22.4547 H   0  0  0  0  0  0  0  0  0  0  0  0
  -10.4174   -3.6632  -21.0995 H   0  0  0  0  0  0  0  0  0  0  0  0
   -9.0684   -1.7349  -24.9206 H   0  0  0  0  0  0  0  0  0  0  0  0
   -7.8617   -0.7104  -24.1186 H   0  0  0  0  0  0  0  0  0  0  0  0
  -10.0721    2.0453  -24.4539 H   0  0  0  0  0  0  0  0  0  0  0  0
   -8.4108    1.6182  -23.9857 H   0  0  0  0  0  0  0  0  0  0  0  0
  -10.3598   -0.1093  -26.8115 H   0  0  0  0  0  0  0  0  0  0  0  0
   -9.0909    0.5615  -29.2412 H   0  0  0  0  0  0  0  0  0  0  0  0
   -6.3354    3.2489  -26.8524 H   0  0  0  0  0  0  0  0  0  0  0  0
   -7.1173    3.2439  -25.2729 H   0  0  0  0  0  0  0  0  0  0  0  0
   -4.8304    2.2571  -25.1241 H   0  0  0  0  0  0  0  0  0  0  0  0
   -5.2556    1.0520  -26.3618 H   0  0  0  0  0  0  0  0  0  0  0  0
   -6.0115    0.9968  -24.7603 H   0  0  0  0  0  0  0  0  0  0  0  0
  1  2  1  0
  2  3  1  0
  3  4  1  0
  4  5  2  0
  5  6  1  0
  6  7  2  0
  7  8  1  0
  8  9  1  0
  9 10  1  0
 11 10  1  6
 11 12  1  0
 12 13  2  0
 12 14  1  0
 14 15  1  0
 15 16  2  0
 16 17  1  0
 17 18  2  0
 18 19  1  0
 19 20  2  0
 20 21  1  0
 21 22  2  0
 22 23  1  0
 23 24  2  0
 23 25  1  0
 22 26  1  0
 21 27  1  0
 20 28  1  0
 18 29  1  0
 16 30  1  0
 14 31  1  0
 31 32  1  0
 32 33  1  0
 33 34  1  0
 33 35  1  0
 33 36  1  0
 32 37  1  1
 31 38  1  0
 31 39  1  0
 11 40  1  0
 40 41  2  0
 41 42  1  0
 42 43  1  0
 42 44  2  0
 44 45  1  0
 45 46  2  0
 46 47  1  0
 47 48  2  0
 45 49  1  0
 44 50  1  0
 41 51  1  0
 10 52  1  0
 10 53  1  0
  8 54  1  0
  8 55  1  0
  6 56  1  0
  5 57  1  0
  2 58  1  0
  2 59  1  0
  1 60  1  0
  1 61  1  0
  1 62  1  0
  7  3  1  0
 47  9  1  0
 32 11  1  0
 46 40  1  0
 24 15  1  0
 24 19  1  0
M  END
>  <cnnaffinities>  (58) 
[6.31241, 6.40535]

>  <score>  (58) 
6.31241

>  <index>  (58) 
60

>  <Smiles>  (58) 
C(C(n1nc(c(c1C(N1C([C@@]2(C(=O)N(c3c(nc(c4c(c(c(c(c34)[H])[H])[H])[H])[H])[H])C([C@@]2(C([H])([H])[H])[H])([H])[H])c2c(c(F)c(c(c2C1=O)[H])[H])[H])([H])[H])([H])[H])[H])[H])([H])[H])([H])([H])[H]

>  <h>  (58) 
<NA>

>  <Training>  (58) 
True

>  <Success>  (58) 
True

>  <enamine_searched>  (58) 
False

>  <enamine_id>  (58) 
nan

$$$$

     RDKit          3D

 44 47  0  0  0  0  0  0  0  0999 V2000
   -8.7653    0.4644  -21.0363 O   0  0  0  0  0  0  0  0  0  0  0  0
   -8.2564   -0.3005  -21.8359 C   0  0  0  0  0  0  0  0  0  0  0  0
   -7.4670   -1.5158  -21.3290 C   0  0  0  0  0  0  0  0  0  0  0  0
   -6.5154   -1.0624  -20.2496 C   0  0  0  0  0  0  0  0  0  0  0  0
   -6.8063   -1.2191  -18.9198 C   0  0  0  0  0  0  0  0  0  0  0  0
   -5.9645   -0.9073  -17.8965 N   0  0  0  0  0  0  0  0  0  0  0  0
   -4.8016   -0.3963  -18.2184 C   0  0  0  0  0  0  0  0  0  0  0  0
   -4.4235   -0.0685  -19.5439 C   0  0  0  0  0  0  0  0  0  0  0  0
   -3.2531    0.6906  -19.8068 C   0  0  0  0  0  0  0  0  0  0  0  0
   -3.1417    1.3889  -20.9762 C   0  0  0  0  0  0  0  0  0  0  0  0
   -4.0645    1.1569  -22.0277 C   0  0  0  0  0  0  0  0  0  0  0  0
   -5.0844    0.2525  -21.8585 C   0  0  0  0  0  0  0  0  0  0  0  0
   -5.3438   -0.3173  -20.5810 C   0  0  0  0  0  0  0  0  0  0  0  0
   -5.6790   -0.0565  -22.7137 H   0  0  0  0  0  0  0  0  0  0  0  0
   -3.9111    1.6342  -22.9945 H   0  0  0  0  0  0  0  0  0  0  0  0
   -2.2767    2.0145  -21.1641 H   0  0  0  0  0  0  0  0  0  0  0  0
   -2.5380    0.8080  -19.0041 H   0  0  0  0  0  0  0  0  0  0  0  0
   -4.1219   -0.1412  -17.4033 H   0  0  0  0  0  0  0  0  0  0  0  0
   -7.7822   -1.5981  -18.6170 H   0  0  0  0  0  0  0  0  0  0  0  0
   -6.9282   -2.0132  -22.1443 H   0  0  0  0  0  0  0  0  0  0  0  0
   -8.1856   -2.2459  -20.9292 H   0  0  0  0  0  0  0  0  0  0  0  0
   -8.3447   -0.0974  -23.1960 N   0  0  0  0  0  0  0  0  0  0  0  0
   -8.0385   -1.1237  -24.1855 C   0  0  0  0  0  0  0  0  0  0  0  0
   -8.8878   -0.9228  -25.4349 C   0  0  0  0  0  0  0  0  0  0  0  0
   -8.7274    0.4769  -26.0194 C   0  0  0  0  0  0  0  0  0  0  0  0
   -9.4638    0.6374  -27.3678 C   0  0  0  0  0  0  0  0  0  0  0  0
   -8.1509    1.0023  -28.0818 C   0  0  0  0  0  0  0  0  0  0  0  0
   -7.3844    0.7468  -26.7653 C   0  0  0  0  0  0  0  0  0  0  0  0
   -6.8134    1.6055  -26.3992 H   0  0  0  0  0  0  0  0  0  0  0  0
   -6.7263   -0.1304  -26.8066 H   0  0  0  0  0  0  0  0  0  0  0  0
   -7.8825    0.3199  -28.8918 H   0  0  0  0  0  0  0  0  0  0  0  0
   -8.1159    2.0292  -28.4521 H   0  0  0  0  0  0  0  0  0  0  0  0
   -9.8240   -0.3293  -27.7133 H   0  0  0  0  0  0  0  0  0  0  0  0
  -10.2740    1.3726  -27.3931 H   0  0  0  0  0  0  0  0  0  0  0  0
   -9.1111    1.4808  -24.9303 C   0  0  0  0  0  0  0  0  0  0  0  0
   -8.2804    1.2869  -23.6673 C   0  0  0  0  0  0  0  0  0  0  0  0
   -7.2275    1.5727  -23.8499 H   0  0  0  0  0  0  0  0  0  0  0  0
   -8.6465    1.9177  -22.8544 H   0  0  0  0  0  0  0  0  0  0  0  0
   -9.0019    2.5139  -25.2829 H   0  0  0  0  0  0  0  0  0  0  0  0
  -10.1731    1.3385  -24.6821 H   0  0  0  0  0  0  0  0  0  0  0  0
   -8.6309   -1.6843  -26.1815 H   0  0  0  0  0  0  0  0  0  0  0  0
   -9.9491   -1.0648  -25.1827 H   0  0  0  0  0  0  0  0  0  0  0  0
   -6.9644   -1.1132  -24.4510 H   0  0  0  0  0  0  0  0  0  0  0  0
   -8.2696   -2.1093  -23.7719 H   0  0  0  0  0  0  0  0  0  0  0  0
  1  2  2  0
  2  3  1  0
  3  4  1  0
  4  5  2  0
  5  6  1  0
  6  7  2  0
  7  8  1  0
  8  9  2  0
  9 10  1  0
 10 11  2  0
 11 12  1  0
 12 13  2  0
 12 14  1  0
 11 15  1  0
 10 16  1  0
  9 17  1  0
  7 18  1  0
  5 19  1  0
  3 20  1  0
  3 21  1  0
  2 22  1  0
 22 23  1  0
 23 24  1  0
 24 25  1  0
 25 26  1  0
 26 27  1  0
 27 28  1  0
 28 29  1  0
 28 30  1  0
 27 31  1  0
 27 32  1  0
 26 33  1  0
 26 34  1  0
 25 35  1  0
 35 36  1  0
 36 37  1  0
 36 38  1  0
 35 39  1  0
 35 40  1  0
 24 41  1  0
 24 42  1  0
 23 43  1  0
 23 44  1  0
 13  4  1  0
 36 22  1  0
 13  8  1  0
 28 25  1  0
M  END
>  <cnnaffinities>  (59) 
[4.74071, 4.84408, 4.844, 4.844, 4.84397]

>  <score>  (59) 
4.74071

>  <index>  (59) 
61

>  <Smiles>  (59) 
O=C(C(c1c(nc(c2c(c(c(c(c12)[H])[H])[H])[H])[H])[H])([H])[H])N1C(C(C2(C(C(C2([H])[H])([H])[H])([H])[H])C(C1([H])[H])([H])[H])([H])[H])([H])[H]

>  <h>  (59) 
<NA>

>  <Training>  (59) 
True

>  <Success>  (59) 
True

>  <enamine_searched>  (59) 
False

>  <enamine_id>  (59) 
nan

$$$$

     RDKit          3D

 44 47  0  0  0  0  0  0  0  0999 V2000
   -5.5645   -3.1347  -21.6022 O   0  0  0  0  0  0  0  0  0  0  0  0
   -6.7503   -2.8970  -21.7675 C   0  0  0  0  0  0  0  0  0  0  0  0
   -7.3779   -1.5824  -21.2943 C   0  0  0  0  0  0  0  0  0  0  0  0
   -6.5404   -0.9704  -20.2202 C   0  0  0  0  0  0  0  0  0  0  0  0
   -6.8247   -1.1578  -18.8936 C   0  0  0  0  0  0  0  0  0  0  0  0
   -5.9878   -0.8653  -17.8677 N   0  0  0  0  0  0  0  0  0  0  0  0
   -4.8199   -0.3525  -18.1899 C   0  0  0  0  0  0  0  0  0  0  0  0
   -4.4340   -0.0241  -19.5161 C   0  0  0  0  0  0  0  0  0  0  0  0
   -3.2612    0.7158  -19.7947 C   0  0  0  0  0  0  0  0  0  0  0  0
   -3.1479    1.3944  -20.9749 C   0  0  0  0  0  0  0  0  0  0  0  0
   -4.0627    1.1456  -22.0348 C   0  0  0  0  0  0  0  0  0  0  0  0
   -5.0852    0.2527  -21.8478 C   0  0  0  0  0  0  0  0  0  0  0  0
   -5.3560   -0.2644  -20.5504 C   0  0  0  0  0  0  0  0  0  0  0  0
   -5.6553   -0.1059  -22.6952 H   0  0  0  0  0  0  0  0  0  0  0  0
   -3.9063    1.6063  -23.0085 H   0  0  0  0  0  0  0  0  0  0  0  0
   -2.2831    2.0188  -21.1671 H   0  0  0  0  0  0  0  0  0  0  0  0
   -2.5452    0.8342  -18.9854 H   0  0  0  0  0  0  0  0  0  0  0  0
   -4.1386   -0.1141  -17.3725 H   0  0  0  0  0  0  0  0  0  0  0  0
   -7.7909   -1.5801  -18.6093 H   0  0  0  0  0  0  0  0  0  0  0  0
   -8.3782   -1.7917  -20.9036 H   0  0  0  0  0  0  0  0  0  0  0  0
   -7.4857   -0.9082  -22.1513 H   0  0  0  0  0  0  0  0  0  0  0  0
   -7.5939   -3.8088  -22.3431 N   0  0  0  0  0  0  0  0  0  0  0  0
   -7.2210   -5.2093  -22.1829 C   0  0  0  0  0  0  0  0  0  0  0  0
   -7.4953   -5.9834  -23.4525 C   0  0  0  0  0  0  0  0  0  0  0  0
   -8.9494   -5.8070  -23.8854 C   0  0  0  0  0  0  0  0  0  0  0  0
   -9.2302   -6.6626  -25.1097 C   0  0  0  0  0  0  0  0  0  0  0  0
  -10.6338   -6.8978  -25.5830 C   0  0  0  0  0  0  0  0  0  0  0  0
   -9.6958   -6.0827  -26.4198 C   0  0  0  0  0  0  0  0  0  0  0  0
   -9.8574   -5.0094  -26.4873 H   0  0  0  0  0  0  0  0  0  0  0  0
   -9.3059   -6.5415  -27.3234 H   0  0  0  0  0  0  0  0  0  0  0  0
  -10.8545   -7.8862  -25.9602 H   0  0  0  0  0  0  0  0  0  0  0  0
  -11.4560   -6.4085  -25.0671 H   0  0  0  0  0  0  0  0  0  0  0  0
   -8.5685   -7.5286  -25.1897 H   0  0  0  0  0  0  0  0  0  0  0  0
   -9.2565   -4.3126  -24.0656 C   0  0  0  0  0  0  0  0  0  0  0  0
   -8.9639   -3.5401  -22.7807 C   0  0  0  0  0  0  0  0  0  0  0  0
   -9.6877   -3.8329  -21.9978 H   0  0  0  0  0  0  0  0  0  0  0  0
   -9.0968   -2.4664  -22.9628 H   0  0  0  0  0  0  0  0  0  0  0  0
   -8.6433   -3.8989  -24.8798 H   0  0  0  0  0  0  0  0  0  0  0  0
  -10.3056   -4.1608  -24.3523 H   0  0  0  0  0  0  0  0  0  0  0  0
   -9.5765   -6.1647  -23.0514 H   0  0  0  0  0  0  0  0  0  0  0  0
   -7.2777   -7.0455  -23.2819 H   0  0  0  0  0  0  0  0  0  0  0  0
   -6.8263   -5.6373  -24.2514 H   0  0  0  0  0  0  0  0  0  0  0  0
   -6.1604   -5.2299  -21.9302 H   0  0  0  0  0  0  0  0  0  0  0  0
   -7.7798   -5.6458  -21.3378 H   0  0  0  0  0  0  0  0  0  0  0  0
  1  2  2  0
  2  3  1  0
  3  4  1  0
  4  5  2  0
  5  6  1  0
  6  7  2  0
  7  8  1  0
  8  9  2  0
  9 10  1  0
 10 11  2  0
 11 12  1  0
 12 13  2  0
 12 14  1  0
 11 15  1  0
 10 16  1  0
  9 17  1  0
  7 18  1  0
  5 19  1  0
  3 20  1  0
  3 21  1  0
  2 22  1  0
 22 23  1  0
 23 24  1  0
 24 25  1  0
 25 26  1  0
 26 27  1  0
 27 28  1  0
 28 29  1  0
 28 30  1  0
 27 31  1  0
 27 32  1  0
 26 33  1  0
 25 34  1  0
 34 35  1  0
 35 36  1  0
 35 37  1  0
 34 38  1  0
 34 39  1  0
 25 40  1  0
 24 41  1  0
 24 42  1  0
 23 43  1  0
 23 44  1  0
 13  4  1  0
 35 22  1  0
 13  8  1  0
 28 26  1  0
M  END
>  <cnnaffinities>  (60) 
[5.27809, 5.3152, 5.33808, 4.77976, 4.77966, 5.31874, 4.78516, 5.3363, 4.95445, 4.95617, 5.427, 4.73177, 4.73197]

>  <score>  (60) 
5.27809

>  <index>  (60) 
62

>  <Smiles>  (60) 
O=C(C(c1c(nc(c2c(c(c(c(c12)[H])[H])[H])[H])[H])[H])([H])[H])N1C(C(C(C2(C(C2([H])[H])([H])[H])[H])(C(C1([H])[H])([H])[H])[H])([H])[H])([H])[H]

>  <h>  (60) 
<NA>

>  <Training>  (60) 
True

>  <Success>  (60) 
True

>  <enamine_searched>  (60) 
False

>  <enamine_id>  (60) 
nan

$$$$

     RDKit          3D

 57 61  0  0  0  0  0  0  0  0999 V2000
   -7.2738    3.3472  -21.8385 C   0  0  0  0  0  0  0  0  0  0  0  0
   -8.1423    2.9105  -22.9200 N   0  0  0  0  0  0  0  0  0  0  0  0
   -7.5953    2.2341  -23.9647 C   0  0  0  0  0  0  0  0  0  0  0  0
   -6.3889    2.0828  -24.0842 O   0  0  0  0  0  0  0  0  0  0  0  0
   -8.5897    1.6628  -24.9831 C   0  0  0  0  0  0  0  0  0  0  0  0
   -9.2916    0.5211  -24.4227 N   0  0  0  0  0  0  0  0  0  0  0  0
   -8.5529   -0.7190  -24.2377 C   0  0  0  0  0  0  0  0  0  0  0  0
   -8.9899   -1.4767  -22.9557 C   0  0  2  0  0  0  0  0  0  0  0  0
   -8.4692   -0.7541  -21.6913 C   0  0  0  0  0  0  0  0  0  0  0  0
   -8.8687    0.2791  -21.1935 O   0  0  0  0  0  0  0  0  0  0  0  0
   -7.4097   -1.4762  -21.1922 N   0  0  0  0  0  0  0  0  0  0  0  0
   -6.5620   -0.9463  -20.1939 C   0  0  0  0  0  0  0  0  0  0  0  0
   -6.8407   -1.1506  -18.8672 C   0  0  0  0  0  0  0  0  0  0  0  0
   -5.9728   -0.8849  -17.8580 N   0  0  0  0  0  0  0  0  0  0  0  0
   -4.8007   -0.4001  -18.1997 C   0  0  0  0  0  0  0  0  0  0  0  0
   -4.4383   -0.0358  -19.5337 C   0  0  0  0  0  0  0  0  0  0  0  0
   -3.2609    0.7091  -19.8273 C   0  0  0  0  0  0  0  0  0  0  0  0
   -3.1523    1.4033  -21.0005 C   0  0  0  0  0  0  0  0  0  0  0  0
   -4.0891    1.1806  -22.0400 C   0  0  0  0  0  0  0  0  0  0  0  0
   -5.1202    0.2939  -21.8542 C   0  0  0  0  0  0  0  0  0  0  0  0
   -5.3775   -0.2436  -20.5621 C   0  0  0  0  0  0  0  0  0  0  0  0
   -5.7621    0.0197  -22.6852 H   0  0  0  0  0  0  0  0  0  0  0  0
   -3.9709    1.6740  -22.9960 H   0  0  0  0  0  0  0  0  0  0  0  0
   -2.2798    2.0229  -21.1938 H   0  0  0  0  0  0  0  0  0  0  0  0
   -2.5160    0.8240  -19.0485 H   0  0  0  0  0  0  0  0  0  0  0  0
   -4.0888   -0.2056  -17.3969 H   0  0  0  0  0  0  0  0  0  0  0  0
   -7.8103   -1.5398  -18.5675 H   0  0  0  0  0  0  0  0  0  0  0  0
   -7.0478   -2.6521  -21.9595 C   0  0  0  0  0  0  0  0  0  0  0  0
   -8.2896   -2.8652  -22.8356 C   0  0  2  0  0  0  0  0  0  0  0  0
   -7.9552   -3.5968  -24.1251 C   0  0  0  0  0  0  0  0  0  0  0  0
   -7.4331   -4.8556  -23.7439 O   0  0  0  0  0  0  0  0  0  0  0  0
   -7.2286   -5.3559  -24.5420 H   0  0  0  0  0  0  0  0  0  0  0  0
   -7.2091   -3.0178  -24.6943 H   0  0  0  0  0  0  0  0  0  0  0  0
   -8.8541   -3.6974  -24.7531 H   0  0  0  0  0  0  0  0  0  0  0  0
   -8.9568   -3.5215  -22.2737 H   0  0  0  0  0  0  0  0  0  0  0  0
   -6.8498   -3.5138  -21.3086 H   0  0  0  0  0  0  0  0  0  0  0  0
   -6.1408   -2.4857  -22.5648 H   0  0  0  0  0  0  0  0  0  0  0  0
  -10.5007   -1.5460  -22.9465 C   0  0  0  0  0  0  0  0  0  0  0  0
  -11.1649   -2.4438  -22.1005 C   0  0  0  0  0  0  0  0  0  0  0  0
  -12.5223   -2.6487  -22.2540 C   0  0  0  0  0  0  0  0  0  0  0  0
  -13.3321   -3.7946  -21.2214 Cl  0  0  0  0  0  0  0  0  0  0  0  0
  -13.2494   -1.9570  -23.2225 C   0  0  0  0  0  0  0  0  0  0  0  0
  -12.6274   -0.9509  -23.9341 C   0  0  0  0  0  0  0  0  0  0  0  0
  -11.2714   -0.6918  -23.7437 C   0  0  0  0  0  0  0  0  0  0  0  0
  -10.6600    0.5303  -24.3670 C   0  0  0  0  0  0  0  0  0  0  0  0
  -11.3358    1.4551  -24.7930 O   0  0  0  0  0  0  0  0  0  0  0  0
  -13.1873   -0.3558  -24.6447 H   0  0  0  0  0  0  0  0  0  0  0  0
  -14.3048   -2.1582  -23.3516 H   0  0  0  0  0  0  0  0  0  0  0  0
  -10.6462   -2.9906  -21.3201 H   0  0  0  0  0  0  0  0  0  0  0  0
   -7.4851   -0.4862  -24.1899 H   0  0  0  0  0  0  0  0  0  0  0  0
   -8.7252   -1.3662  -25.1078 H   0  0  0  0  0  0  0  0  0  0  0  0
   -8.0275    1.3729  -25.8780 H   0  0  0  0  0  0  0  0  0  0  0  0
   -9.3439    2.4006  -25.2770 H   0  0  0  0  0  0  0  0  0  0  0  0
   -9.1160    2.7516  -22.7038 H   0  0  0  0  0  0  0  0  0  0  0  0
   -6.5383    4.0577  -22.2257 H   0  0  0  0  0  0  0  0  0  0  0  0
   -7.8702    3.8474  -21.0733 H   0  0  0  0  0  0  0  0  0  0  0  0
   -6.7333    2.4987  -21.3924 H   0  0  0  0  0  0  0  0  0  0  0  0
  1  2  1  0
  2  3  1  0
  3  4  2  0
  3  5  1  0
  5  6  1  0
  6  7  1  0
  8  7  1  6
  8  9  1  0
  9 10  2  0
  9 11  1  0
 11 12  1  0
 12 13  2  0
 13 14  1  0
 14 15  2  0
 15 16  1  0
 16 17  2  0
 17 18  1  0
 18 19  2  0
 19 20  1  0
 20 21  2  0
 20 22  1  0
 19 23  1  0
 18 24  1  0
 17 25  1  0
 15 26  1  0
 13 27  1  0
 11 28  1  0
 28 29  1  0
 29 30  1  0
 30 31  1  0
 31 32  1  0
 30 33  1  0
 30 34  1  0
 29 35  1  1
 28 36  1  0
 28 37  1  0
  8 38  1  0
 38 39  2  0
 39 40  1  0
 40 41  1  0
 40 42  2  0
 42 43  1  0
 43 44  2  0
 44 45  1  0
 45 46  2  0
 43 47  1  0
 42 48  1  0
 39 49  1  0
  7 50  1  0
  7 51  1  0
  5 52  1  0
  5 53  1  0
  2 54  1  0
  1 55  1  0
  1 56  1  0
  1 57  1  0
 45  6  1  0
 29  8  1  0
 44 38  1  0
 21 12  1  0
 21 16  1  0
M  END
>  <cnnaffinities>  (61) 
[6.23339]

>  <score>  (61) 
6.23339

>  <index>  (61) 
63

>  <Smiles>  (61) 
C(N(C(=O)C(N1C([C@@]2(C(=O)N(c3c(nc(c4c(c(c(c(c34)[H])[H])[H])[H])[H])[H])C([C@@]2(C(O[H])([H])[H])[H])([H])[H])c2c(c(Cl)c(c(c2C1=O)[H])[H])[H])([H])[H])([H])[H])[H])([H])([H])[H]

>  <h>  (61) 
<NA>

>  <Training>  (61) 
True

>  <Success>  (61) 
True

>  <enamine_searched>  (61) 
False

>  <enamine_id>  (61) 
nan

$$$$

     RDKit          3D

 55 60  0  0  0  0  0  0  0  0999 V2000
   -7.9208   -3.6550  -24.0665 C   0  0  0  0  0  0  0  0  0  0  0  0
   -8.2898   -2.8602  -22.8227 C   0  0  1  0  0  0  0  0  0  0  0  0
   -7.0870   -2.6742  -21.8950 C   0  0  0  0  0  0  0  0  0  0  0  0
   -7.4073   -1.4615  -21.1886 N   0  0  0  0  0  0  0  0  0  0  0  0
   -6.5344   -0.9649  -20.1999 C   0  0  0  0  0  0  0  0  0  0  0  0
   -6.8359   -1.1211  -18.8794 C   0  0  0  0  0  0  0  0  0  0  0  0
   -5.9937   -0.8259  -17.8598 N   0  0  0  0  0  0  0  0  0  0  0  0
   -4.8274   -0.3191  -18.1855 C   0  0  0  0  0  0  0  0  0  0  0  0
   -4.4294   -0.0276  -19.5218 C   0  0  0  0  0  0  0  0  0  0  0  0
   -3.2611    0.7354  -19.7998 C   0  0  0  0  0  0  0  0  0  0  0  0
   -3.1479    1.4044  -20.9813 C   0  0  0  0  0  0  0  0  0  0  0  0
   -4.0457    1.1128  -22.0447 C   0  0  0  0  0  0  0  0  0  0  0  0
   -5.0656    0.2146  -21.8590 C   0  0  0  0  0  0  0  0  0  0  0  0
   -5.3365   -0.2934  -20.5608 C   0  0  0  0  0  0  0  0  0  0  0  0
   -5.6741   -0.0955  -22.7030 H   0  0  0  0  0  0  0  0  0  0  0  0
   -3.9009    1.5740  -23.0152 H   0  0  0  0  0  0  0  0  0  0  0  0
   -2.2949    2.0555  -21.1572 H   0  0  0  0  0  0  0  0  0  0  0  0
   -2.5482    0.8665  -18.9907 H   0  0  0  0  0  0  0  0  0  0  0  0
   -4.1639   -0.0095  -17.3756 H   0  0  0  0  0  0  0  0  0  0  0  0
   -7.8121   -1.5183  -18.6247 H   0  0  0  0  0  0  0  0  0  0  0  0
   -8.3746   -0.6802  -21.7820 C   0  0  0  0  0  0  0  0  0  0  0  0
   -8.7163    0.4052  -21.3711 O   0  0  0  0  0  0  0  0  0  0  0  0
   -8.8987   -1.4359  -23.0287 C   0  0  1  0  0  0  0  0  0  0  0  0
   -8.3716   -0.7874  -24.3402 C   0  0  0  0  0  0  0  0  0  0  0  0
   -9.0213    0.4760  -24.6403 N   0  0  0  0  0  0  0  0  0  0  0  0
   -8.2497    1.6529  -25.0071 C   0  0  0  0  0  0  0  0  0  0  0  0
   -8.0034    2.5395  -23.8211 C   0  0  0  0  0  0  0  0  0  0  0  0
   -6.8250    2.5420  -23.1360 N   0  0  0  0  0  0  0  0  0  0  0  0
   -7.0510    3.4052  -22.1660 C   0  0  0  0  0  0  0  0  0  0  0  0
   -8.2877    3.9156  -22.2871 N   0  0  0  0  0  0  0  0  0  0  0  0
   -8.9189    3.3562  -23.3422 N   0  0  0  0  0  0  0  0  0  0  0  0
   -8.8069    4.4769  -21.6276 H   0  0  0  0  0  0  0  0  0  0  0  0
   -6.3560    3.7064  -21.3961 H   0  0  0  0  0  0  0  0  0  0  0  0
   -8.8164    2.2008  -25.7651 H   0  0  0  0  0  0  0  0  0  0  0  0
   -7.2959    1.3371  -25.4392 H   0  0  0  0  0  0  0  0  0  0  0  0
  -10.3827    0.6087  -24.5823 C   0  0  0  0  0  0  0  0  0  0  0  0
  -10.9675    1.5848  -25.0296 O   0  0  0  0  0  0  0  0  0  0  0  0
  -11.1033   -0.5128  -23.9125 C   0  0  0  0  0  0  0  0  0  0  0  0
  -12.4814   -0.6148  -24.1032 C   0  0  0  0  0  0  0  0  0  0  0  0
  -13.2063   -1.5903  -23.4486 C   0  0  0  0  0  0  0  0  0  0  0  0
  -12.5385   -2.3444  -22.4853 C   0  0  0  0  0  0  0  0  0  0  0  0
  -13.2484   -3.2121  -21.7441 F   0  0  0  0  0  0  0  0  0  0  0  0
  -11.1793   -2.2457  -22.2651 C   0  0  0  0  0  0  0  0  0  0  0  0
  -10.4156   -1.4035  -23.0796 C   0  0  0  0  0  0  0  0  0  0  0  0
  -10.7292   -2.8328  -21.4719 H   0  0  0  0  0  0  0  0  0  0  0  0
  -14.2745   -1.7215  -23.5940 H   0  0  0  0  0  0  0  0  0  0  0  0
  -12.9694    0.1037  -24.7513 H   0  0  0  0  0  0  0  0  0  0  0  0
   -7.2893   -0.6241  -24.2782 H   0  0  0  0  0  0  0  0  0  0  0  0
   -8.5552   -1.4847  -25.1683 H   0  0  0  0  0  0  0  0  0  0  0  0
   -6.1385   -2.5961  -22.4525 H   0  0  0  0  0  0  0  0  0  0  0  0
   -6.9805   -3.4955  -21.1796 H   0  0  0  0  0  0  0  0  0  0  0  0
   -9.0269   -3.4381  -22.2621 H   0  0  0  0  0  0  0  0  0  0  0  0
   -7.1144   -3.1576  -24.6184 H   0  0  0  0  0  0  0  0  0  0  0  0
   -8.7753   -3.7857  -24.7386 H   0  0  0  0  0  0  0  0  0  0  0  0
   -7.5552   -4.6445  -23.7731 H   0  0  0  0  0  0  0  0  0  0  0  0
  1  2  1  0
  2  3  1  0
  3  4  1  0
  4  5  1  0
  5  6  2  0
  6  7  1  0
  7  8  2  0
  8  9  1  0
  9 10  2  0
 10 11  1  0
 11 12  2  0
 12 13  1  0
 13 14  2  0
 13 15  1  0
 12 16  1  0
 11 17  1  0
 10 18  1  0
  8 19  1  0
  6 20  1  0
  4 21  1  0
 21 22  2  0
 21 23  1  0
 23 24  1  6
 24 25  1  0
 25 26  1  0
 26 27  1  0
 27 28  1  0
 28 29  2  0
 29 30  1  0
 30 31  1  0
 30 32  1  0
 29 33  1  0
 26 34  1  0
 26 35  1  0
 25 36  1  0
 36 37  2  0
 36 38  1  0
 38 39  2  0
 39 40  1  0
 40 41  2  0
 41 42  1  0
 41 43  1  0
 43 44  2  0
 43 45  1  0
 40 46  1  0
 39 47  1  0
 24 48  1  0
 24 49  1  0
  3 50  1  0
  3 51  1  0
  2 52  1  1
  1 53  1  0
  1 54  1  0
  1 55  1  0
 23  2  1  0
 31 27  2  0
 44 38  1  0
 14  5  1  0
 44 23  1  0
 14  9  1  0
M  END
>  <cnnaffinities>  (62) 
[6.28484, 6.20811]

>  <score>  (62) 
6.28484

>  <index>  (62) 
64

>  <Smiles>  (62) 
C([C@]1(C(N(c2c(nc(c3c(c(c(c(c23)[H])[H])[H])[H])[H])[H])C(=O)[C@]21C(N(C(c1nc(n(n1)[H])[H])([H])[H])C(=O)c1c(c(c(F)c(c21)[H])[H])[H])([H])[H])([H])[H])[H])([H])([H])[H]

>  <h>  (62) 
<NA>

>  <Training>  (62) 
True

>  <Success>  (62) 
True

>  <enamine_searched>  (62) 
False

>  <enamine_id>  (62) 
nan

$$$$

     RDKit          3D

 55 60  0  0  0  0  0  0  0  0999 V2000
   -7.9086   -3.6112  -24.1175 C   0  0  0  0  0  0  0  0  0  0  0  0
   -8.2715   -2.8674  -22.8370 C   0  0  1  0  0  0  0  0  0  0  0  0
   -7.0479   -2.6523  -21.9362 C   0  0  0  0  0  0  0  0  0  0  0  0
   -7.4074   -1.4670  -21.1872 N   0  0  0  0  0  0  0  0  0  0  0  0
   -6.5513   -0.9463  -20.1878 C   0  0  0  0  0  0  0  0  0  0  0  0
   -6.8361   -1.1463  -18.8632 C   0  0  0  0  0  0  0  0  0  0  0  0
   -5.9759   -0.8694  -17.8491 N   0  0  0  0  0  0  0  0  0  0  0  0
   -4.8007   -0.3829  -18.1853 C   0  0  0  0  0  0  0  0  0  0  0  0
   -4.4246   -0.0397  -19.5190 C   0  0  0  0  0  0  0  0  0  0  0  0
   -3.2534    0.7157  -19.8061 C   0  0  0  0  0  0  0  0  0  0  0  0
   -3.1405    1.3913  -20.9887 C   0  0  0  0  0  0  0  0  0  0  0  0
   -4.0529    1.1329  -22.0410 C   0  0  0  0  0  0  0  0  0  0  0  0
   -5.0688    0.2318  -21.8565 C   0  0  0  0  0  0  0  0  0  0  0  0
   -5.3494   -0.2660  -20.5528 C   0  0  0  0  0  0  0  0  0  0  0  0
   -5.6913   -0.0704  -22.6938 H   0  0  0  0  0  0  0  0  0  0  0  0
   -3.9317    1.6160  -23.0066 H   0  0  0  0  0  0  0  0  0  0  0  0
   -2.2843    2.0303  -21.1737 H   0  0  0  0  0  0  0  0  0  0  0  0
   -2.5319    0.8519  -19.0096 H   0  0  0  0  0  0  0  0  0  0  0  0
   -4.1029   -0.1584  -17.3791 H   0  0  0  0  0  0  0  0  0  0  0  0
   -7.8140   -1.5306  -18.5732 H   0  0  0  0  0  0  0  0  0  0  0  0
   -8.4393   -0.7287  -21.7248 C   0  0  0  0  0  0  0  0  0  0  0  0
   -8.8350    0.3128  -21.2452 O   0  0  0  0  0  0  0  0  0  0  0  0
   -8.9503   -1.4643  -22.9913 C   0  0  1  0  0  0  0  0  0  0  0  0
   -8.4674   -0.7600  -24.2919 C   0  0  0  0  0  0  0  0  0  0  0  0
   -9.1781    0.4727  -24.5739 N   0  0  0  0  0  0  0  0  0  0  0  0
   -8.4575    1.6845  -24.9350 C   0  0  0  0  0  0  0  0  0  0  0  0
   -8.1605    2.5430  -23.7454 C   0  0  0  0  0  0  0  0  0  0  0  0
   -8.9304    3.4392  -23.0912 C   0  0  0  0  0  0  0  0  0  0  0  0
   -8.1994    3.9490  -22.0603 O   0  0  0  0  0  0  0  0  0  0  0  0
   -7.0252    3.2981  -22.1228 C   0  0  0  0  0  0  0  0  0  0  0  0
   -6.9327    2.4583  -23.1009 N   0  0  0  0  0  0  0  0  0  0  0  0
   -6.2825    3.5423  -21.3746 H   0  0  0  0  0  0  0  0  0  0  0  0
   -9.9432    3.7973  -23.1955 H   0  0  0  0  0  0  0  0  0  0  0  0
   -9.0668    2.2272  -25.6648 H   0  0  0  0  0  0  0  0  0  0  0  0
   -7.5066    1.4103  -25.4000 H   0  0  0  0  0  0  0  0  0  0  0  0
  -10.5345    0.5749  -24.4344 C   0  0  0  0  0  0  0  0  0  0  0  0
  -11.1517    1.5663  -24.8040 O   0  0  0  0  0  0  0  0  0  0  0  0
  -11.2018   -0.6097  -23.8119 C   0  0  0  0  0  0  0  0  0  0  0  0
  -12.5719   -0.7924  -23.9986 C   0  0  0  0  0  0  0  0  0  0  0  0
  -13.2363   -1.8042  -23.3320 C   0  0  0  0  0  0  0  0  0  0  0  0
  -12.5278   -2.5525  -22.3949 C   0  0  0  0  0  0  0  0  0  0  0  0
  -13.1878   -3.4691  -21.6677 F   0  0  0  0  0  0  0  0  0  0  0  0
  -11.1716   -2.3886  -22.1964 C   0  0  0  0  0  0  0  0  0  0  0  0
  -10.4667   -1.4969  -23.0147 C   0  0  0  0  0  0  0  0  0  0  0  0
  -10.6884   -2.9682  -21.4183 H   0  0  0  0  0  0  0  0  0  0  0  0
  -14.2969   -1.9757  -23.4646 H   0  0  0  0  0  0  0  0  0  0  0  0
  -13.1033   -0.1270  -24.6694 H   0  0  0  0  0  0  0  0  0  0  0  0
   -8.6202   -1.4480  -25.1331 H   0  0  0  0  0  0  0  0  0  0  0  0
   -7.3977   -0.5339  -24.2148 H   0  0  0  0  0  0  0  0  0  0  0  0
   -6.1281   -2.5074  -22.5289 H   0  0  0  0  0  0  0  0  0  0  0  0
   -6.8686   -3.5061  -21.2672 H   0  0  0  0  0  0  0  0  0  0  0  0
   -8.9687   -3.4914  -22.2725 H   0  0  0  0  0  0  0  0  0  0  0  0
   -8.7760   -3.7493  -24.7713 H   0  0  0  0  0  0  0  0  0  0  0  0
   -7.1403   -3.0702  -24.6829 H   0  0  0  0  0  0  0  0  0  0  0  0
   -7.5010   -4.5986  -23.8771 H   0  0  0  0  0  0  0  0  0  0  0  0
  1  2  1  0
  2  3  1  0
  3  4  1  0
  4  5  1  0
  5  6  2  0
  6  7  1  0
  7  8  2  0
  8  9  1  0
  9 10  2  0
 10 11  1  0
 11 12  2  0
 12 13  1  0
 13 14  2  0
 13 15  1  0
 12 16  1  0
 11 17  1  0
 10 18  1  0
  8 19  1  0
  6 20  1  0
  4 21  1  0
 21 22  2  0
 21 23  1  0
 23 24  1  6
 24 25  1  0
 25 26  1  0
 26 27  1  0
 27 28  2  0
 28 29  1  0
 29 30  1  0
 30 31  2  0
 30 32  1  0
 28 33  1  0
 26 34  1  0
 26 35  1  0
 25 36  1  0
 36 37  2  0
 36 38  1  0
 38 39  2  0
 39 40  1  0
 40 41  2  0
 41 42  1  0
 41 43  1  0
 43 44  2  0
 43 45  1  0
 40 46  1  0
 39 47  1  0
 24 48  1  0
 24 49  1  0
  3 50  1  0
  3 51  1  0
  2 52  1  1
  1 53  1  0
  1 54  1  0
  1 55  1  0
 23  2  1  0
 31 27  1  0
 44 38  1  0
 14  5  1  0
 44 23  1  0
 14  9  1  0
M  END
>  <cnnaffinities>  (63) 
[6.29457]

>  <score>  (63) 
6.29457

>  <index>  (63) 
65

>  <Smiles>  (63) 
C([C@]1(C(N(c2c(nc(c3c(c(c(c(c23)[H])[H])[H])[H])[H])[H])C(=O)[C@]21C(N(C(c1c(oc(n1)[H])[H])([H])[H])C(=O)c1c(c(c(F)c(c21)[H])[H])[H])([H])[H])([H])[H])[H])([H])([H])[H]

>  <h>  (63) 
<NA>

>  <Training>  (63) 
True

>  <Success>  (63) 
True

>  <enamine_searched>  (63) 
False

>  <enamine_id>  (63) 
nan

$$$$

     RDKit          3D

 44 47  0  0  0  0  0  0  0  0999 V2000
   -9.1308    0.6339  -26.1110 C   0  0  0  0  0  0  0  0  0  0  0  0
   -9.1322    0.7924  -24.5971 C   0  0  0  0  0  0  0  0  0  0  0  0
   -7.7849    0.7515  -23.8448 C   0  0  1  0  0  0  0  0  0  0  0  0
   -6.8417    1.8808  -24.1885 C   0  0  0  0  0  0  0  0  0  0  0  0
   -6.0264    2.0058  -25.3570 C   0  0  0  0  0  0  0  0  0  0  0  0
   -5.3917    3.2101  -25.4305 C   0  0  0  0  0  0  0  0  0  0  0  0
   -5.7361    4.1928  -24.0572 S   0  0  0  0  0  0  0  0  0  0  0  0
   -6.7405    2.9709  -23.3717 C   0  0  0  0  0  0  0  0  0  0  0  0
   -7.3183    3.0908  -21.9995 C   0  0  0  0  0  0  0  0  0  0  0  0
   -8.4806    2.1182  -21.8500 C   0  0  0  0  0  0  0  0  0  0  0  0
   -8.0930    0.8236  -22.4081 N   0  0  0  0  0  0  0  0  0  0  0  0
   -8.2882   -0.2517  -21.5672 C   0  0  0  0  0  0  0  0  0  0  0  0
   -9.1255   -0.1978  -20.6865 O   0  0  0  0  0  0  0  0  0  0  0  0
   -7.3414   -1.4437  -21.6190 C   0  0  0  0  0  0  0  0  0  0  0  0
   -6.3167   -1.2301  -20.5231 C   0  0  0  0  0  0  0  0  0  0  0  0
   -6.5170   -1.7242  -19.2609 C   0  0  0  0  0  0  0  0  0  0  0  0
   -5.6528   -1.5667  -18.2239 N   0  0  0  0  0  0  0  0  0  0  0  0
   -4.5771   -0.8505  -18.4418 C   0  0  0  0  0  0  0  0  0  0  0  0
   -4.3005   -0.1695  -19.6565 C   0  0  0  0  0  0  0  0  0  0  0  0
   -3.2283    0.7542  -19.7950 C   0  0  0  0  0  0  0  0  0  0  0  0
   -3.1175    1.5411  -20.9085 C   0  0  0  0  0  0  0  0  0  0  0  0
   -4.0148    1.3537  -21.9862 C   0  0  0  0  0  0  0  0  0  0  0  0
   -5.0207    0.4210  -21.8882 C   0  0  0  0  0  0  0  0  0  0  0  0
   -5.2237   -0.3345  -20.7106 C   0  0  0  0  0  0  0  0  0  0  0  0
   -5.7220    0.3395  -22.6997 H   0  0  0  0  0  0  0  0  0  0  0  0
   -3.9116    1.9416  -22.8951 H   0  0  0  0  0  0  0  0  0  0  0  0
   -2.3325    2.2928  -20.9686 H   0  0  0  0  0  0  0  0  0  0  0  0
   -2.5909    0.9086  -18.9271 H   0  0  0  0  0  0  0  0  0  0  0  0
   -3.8833   -0.7056  -17.6108 H   0  0  0  0  0  0  0  0  0  0  0  0
   -7.4327   -2.2780  -19.0415 H   0  0  0  0  0  0  0  0  0  0  0  0
   -6.8730   -1.5825  -22.5964 H   0  0  0  0  0  0  0  0  0  0  0  0
   -7.9377   -2.3347  -21.4040 H   0  0  0  0  0  0  0  0  0  0  0  0
   -9.4102    2.4819  -22.3100 H   0  0  0  0  0  0  0  0  0  0  0  0
   -8.6873    1.9445  -20.7938 H   0  0  0  0  0  0  0  0  0  0  0  0
   -7.6064    4.1172  -21.7542 H   0  0  0  0  0  0  0  0  0  0  0  0
   -6.5414    2.8114  -21.2724 H   0  0  0  0  0  0  0  0  0  0  0  0
   -4.7447    3.5882  -26.2098 H   0  0  0  0  0  0  0  0  0  0  0  0
   -5.9060    1.2279  -26.1066 H   0  0  0  0  0  0  0  0  0  0  0  0
   -7.2800   -0.2048  -24.0578 H   0  0  0  0  0  0  0  0  0  0  0  0
   -9.7680    0.0200  -24.1519 H   0  0  0  0  0  0  0  0  0  0  0  0
   -9.5946    1.7529  -24.3443 H   0  0  0  0  0  0  0  0  0  0  0  0
   -8.7571   -0.3436  -26.4386 H   0  0  0  0  0  0  0  0  0  0  0  0
  -10.1707    0.7197  -26.4472 H   0  0  0  0  0  0  0  0  0  0  0  0
   -8.5516    1.4185  -26.6109 H   0  0  0  0  0  0  0  0  0  0  0  0
  1  2  1  0
  2  3  1  0
  3  4  1  0
  4  5  1  0
  5  6  2  0
  6  7  1  0
  7  8  1  0
  8  9  1  0
  9 10  1  0
 10 11  1  0
 11 12  1  0
 12 13  2  0
 12 14  1  0
 14 15  1  0
 15 16  2  0
 16 17  1  0
 17 18  2  0
 18 19  1  0
 19 20  2  0
 20 21  1  0
 21 22  2  0
 22 23  1  0
 23 24  2  0
 23 25  1  0
 22 26  1  0
 21 27  1  0
 20 28  1  0
 18 29  1  0
 16 30  1  0
 14 31  1  0
 14 32  1  0
 10 33  1  0
 10 34  1  0
  9 35  1  0
  9 36  1  0
  6 37  1  0
  5 38  1  0
  3 39  1  1
  2 40  1  0
  2 41  1  0
  1 42  1  0
  1 43  1  0
  1 44  1  0
 11  3  1  0
 24 15  1  0
  8  4  2  0
 24 19  1  0
M  END
>  <cnnaffinities>  (64) 
[5.17413, 5.57582]

>  <score>  (64) 
5.17413

>  <index>  (64) 
66

>  <Smiles>  (64) 
C(C([C@]1(c2c(c(sc2C(C(N1C(=O)C(c1c(nc(c2c(c(c(c(c12)[H])[H])[H])[H])[H])[H])([H])[H])([H])[H])([H])[H])[H])[H])[H])([H])[H])([H])([H])[H]

>  <h>  (64) 
<NA>

>  <Training>  (64) 
True

>  <Success>  (64) 
True

>  <enamine_searched>  (64) 
False

>  <enamine_id>  (64) 
nan

$$$$

     RDKit          3D

 65 70  0  0  0  0  0  0  0  0999 V2000
   -8.7836    0.3217  -20.8399 O   0  0  0  0  0  0  0  0  0  0  0  0
   -8.3544   -0.3251  -21.7789 C   0  0  0  0  0  0  0  0  0  0  0  0
   -7.4725   -1.5268  -21.4454 C   0  0  0  0  0  0  0  0  0  0  0  0
   -6.5075   -1.1547  -20.3588 C   0  0  0  0  0  0  0  0  0  0  0  0
   -6.7249   -1.5176  -19.0558 C   0  0  0  0  0  0  0  0  0  0  0  0
   -5.8182   -1.3955  -18.0510 N   0  0  0  0  0  0  0  0  0  0  0  0
   -4.6888   -0.8010  -18.3556 C   0  0  0  0  0  0  0  0  0  0  0  0
   -4.4236   -0.1956  -19.6219 C   0  0  0  0  0  0  0  0  0  0  0  0
   -3.3013    0.6476  -19.8427 C   0  0  0  0  0  0  0  0  0  0  0  0
   -3.2108    1.4017  -20.9785 C   0  0  0  0  0  0  0  0  0  0  0  0
   -4.1414    1.2244  -22.0249 C   0  0  0  0  0  0  0  0  0  0  0  0
   -5.1773    0.3344  -21.8867 C   0  0  0  0  0  0  0  0  0  0  0  0
   -5.3718   -0.3535  -20.6562 C   0  0  0  0  0  0  0  0  0  0  0  0
   -5.8792    0.1971  -22.7046 H   0  0  0  0  0  0  0  0  0  0  0  0
   -4.0223    1.7750  -22.9522 H   0  0  0  0  0  0  0  0  0  0  0  0
   -2.3731    2.0732  -21.1397 H   0  0  0  0  0  0  0  0  0  0  0  0
   -2.5755    0.7669  -19.0482 H   0  0  0  0  0  0  0  0  0  0  0  0
   -3.9182   -0.7775  -17.5807 H   0  0  0  0  0  0  0  0  0  0  0  0
   -7.6832   -1.9501  -18.7653 H   0  0  0  0  0  0  0  0  0  0  0  0
   -8.1456   -2.3051  -21.0697 H   0  0  0  0  0  0  0  0  0  0  0  0
   -6.9312   -1.9096  -22.3145 H   0  0  0  0  0  0  0  0  0  0  0  0
   -8.5976   -0.0034  -23.1019 N   0  0  0  0  0  0  0  0  0  0  0  0
   -8.5332   -1.0324  -24.1445 C   0  0  0  0  0  0  0  0  0  0  0  0
   -9.4793   -2.1927  -23.8909 C   0  0  0  0  0  0  0  0  0  0  0  0
  -10.8365   -1.9504  -23.6867 C   0  0  0  0  0  0  0  0  0  0  0  0
  -11.7212   -3.0019  -23.4792 C   0  0  0  0  0  0  0  0  0  0  0  0
  -11.2679   -4.3179  -23.4504 C   0  0  0  0  0  0  0  0  0  0  0  0
   -9.9109   -4.5529  -23.6283 C   0  0  0  0  0  0  0  0  0  0  0  0
   -9.2648   -6.1714  -23.5434 Cl  0  0  0  0  0  0  0  0  0  0  0  0
   -9.0188   -3.5089  -23.8687 C   0  0  0  0  0  0  0  0  0  0  0  0
   -7.9717   -3.7508  -24.0408 H   0  0  0  0  0  0  0  0  0  0  0  0
  -11.9710   -5.1320  -23.2974 H   0  0  0  0  0  0  0  0  0  0  0  0
  -12.7764   -2.7910  -23.3339 H   0  0  0  0  0  0  0  0  0  0  0  0
  -11.2226   -0.9320  -23.6889 H   0  0  0  0  0  0  0  0  0  0  0  0
   -7.5105   -1.4119  -24.2614 H   0  0  0  0  0  0  0  0  0  0  0  0
   -8.7956   -0.5670  -25.0944 H   0  0  0  0  0  0  0  0  0  0  0  0
   -8.8454    1.4138  -23.4003 C   0  0  2  0  0  0  0  0  0  0  0  0
   -7.6544    2.3557  -23.0681 C   0  0  0  0  0  0  0  0  0  0  0  0
   -8.2858    3.7717  -23.0514 C   0  0  0  0  0  0  0  0  0  0  0  0
   -9.7569    3.4689  -23.3204 C   0  0  2  0  0  0  0  0  0  0  0  0
   -9.9930    2.1174  -22.6577 C   0  0  0  0  0  0  0  0  0  0  0  0
  -10.9745    1.7028  -22.9086 H   0  0  0  0  0  0  0  0  0  0  0  0
   -9.8450    2.0802  -21.5849 H   0  0  0  0  0  0  0  0  0  0  0  0
   -9.8185    3.1053  -24.8165 N   0  0  2  0  0  4  0  0  0  0  0  0
  -11.1592    3.2284  -25.4544 C   0  0  0  0  0  0  0  0  0  0  0  0
  -11.6171    4.6745  -25.5227 C   0  0  0  0  0  0  0  0  0  0  0  0
  -12.9200    4.9323  -26.2917 C   0  0  0  0  0  0  0  0  0  0  0  0
  -13.5637    5.4901  -25.1355 O   0  0  0  0  0  0  0  0  0  0  0  0
  -12.4076    5.2333  -24.3273 C   0  0  0  0  0  0  0  0  0  0  0  0
  -12.6225    4.4891  -23.5465 H   0  0  0  0  0  0  0  0  0  0  0  0
  -12.0184    6.1520  -23.8685 H   0  0  0  0  0  0  0  0  0  0  0  0
  -12.8710    5.6494  -27.1192 H   0  0  0  0  0  0  0  0  0  0  0  0
  -13.4247    4.0217  -26.6439 H   0  0  0  0  0  0  0  0  0  0  0  0
  -10.7654    5.2937  -25.8201 H   0  0  0  0  0  0  0  0  0  0  0  0
  -11.1178    2.8032  -26.4650 H   0  0  0  0  0  0  0  0  0  0  0  0
  -11.8903    2.6298  -24.8879 H   0  0  0  0  0  0  0  0  0  0  0  0
   -9.2678    1.7012  -24.8486 C   0  0  0  0  0  0  0  0  0  0  0  0
   -8.4442    1.6206  -25.5599 H   0  0  0  0  0  0  0  0  0  0  0  0
  -10.0787    1.0314  -25.1534 H   0  0  0  0  0  0  0  0  0  0  0  0
   -9.1836    3.7290  -25.3458 H   0  0  0  0  0  0  0  0  0  0  0  0
  -10.4538    4.2708  -23.0970 H   0  0  0  0  0  0  0  0  0  0  0  0
   -7.8892    4.4341  -23.8288 H   0  0  0  0  0  0  0  0  0  0  0  0
   -8.1423    4.2679  -22.0877 H   0  0  0  0  0  0  0  0  0  0  0  0
   -6.8356    2.2542  -23.7894 H   0  0  0  0  0  0  0  0  0  0  0  0
   -7.2790    2.1291  -22.0656 H   0  0  0  0  0  0  0  0  0  0  0  0
  1  2  2  0
  2  3  1  0
  3  4  1  0
  4  5  2  0
  5  6  1  0
  6  7  2  0
  7  8  1  0
  8  9  2  0
  9 10  1  0
 10 11  2  0
 11 12  1  0
 12 13  2  0
 12 14  1  0
 11 15  1  0
 10 16  1  0
  9 17  1  0
  7 18  1  0
  5 19  1  0
  3 20  1  0
  3 21  1  0
  2 22  1  0
 22 23  1  0
 23 24  1  0
 24 25  2  0
 25 26  1  0
 26 27  2  0
 27 28  1  0
 28 29  1  0
 28 30  2  0
 30 31  1  0
 27 32  1  0
 26 33  1  0
 25 34  1  0
 23 35  1  0
 23 36  1  0
 37 22  1  6
 37 38  1  0
 38 39  1  0
 39 40  1  0
 40 41  1  0
 41 42  1  0
 41 43  1  0
 40 44  1  0
 44 45  1  0
 45 46  1  0
 46 47  1  0
 47 48  1  0
 48 49  1  0
 49 50  1  0
 49 51  1  0
 47 52  1  0
 47 53  1  0
 46 54  1  0
 45 55  1  0
 45 56  1  0
 44 57  1  0
 57 58  1  0
 57 59  1  0
 44 60  1  6
 40 61  1  6
 39 62  1  0
 39 63  1  0
 38 64  1  0
 38 65  1  0
 13  4  1  0
 30 24  1  0
 41 37  1  0
 49 46  1  0
 13  8  1  0
 57 37  1  0
M  CHG  1  44   1
M  END
>  <cnnaffinities>  (65) 
[6.28462, 6.51889, 6.15244]

>  <score>  (65) 
6.28462

>  <index>  (65) 
68

>  <Smiles>  (65) 
O=C(C(c1c(nc(c2c(c(c(c(c12)[H])[H])[H])[H])[H])[H])([H])[H])N(C(c1c(c(c(c(Cl)c1[H])[H])[H])[H])([H])[H])[C@]12C(C([C@](C1([H])[H])([N@+](C(C1(C(OC1([H])[H])([H])[H])[H])([H])[H])(C2([H])[H])[H])[H])([H])[H])([H])[H]

>  <h>  (65) 
<NA>

>  <Training>  (65) 
True

>  <Success>  (65) 
True

>  <enamine_searched>  (65) 
False

>  <enamine_id>  (65) 
nan

$$$$

     RDKit          3D

 63 67  0  0  0  0  0  0  0  0999 V2000
  -10.6866   -6.0307  -28.2359 C   0  0  0  0  0  0  0  0  0  0  0  0
  -10.3468   -5.4401  -27.0936 C   0  0  0  0  0  0  0  0  0  0  0  0
  -10.0009   -3.9910  -27.0725 C   0  0  0  0  0  0  0  0  0  0  0  0
   -9.7962   -3.3672  -28.1055 O   0  0  0  0  0  0  0  0  0  0  0  0
   -9.9889   -3.4011  -25.8104 N   0  0  0  0  0  0  0  0  0  0  0  0
  -10.8559   -3.9500  -24.7581 C   0  0  0  0  0  0  0  0  0  0  0  0
  -11.4370   -2.8299  -23.9140 C   0  0  0  0  0  0  0  0  0  0  0  0
  -10.3112   -2.0207  -23.2929 C   0  0  0  0  0  0  0  0  0  0  0  0
   -9.2871   -1.5819  -24.3200 C   0  0  0  0  0  0  0  0  0  0  0  0
   -9.1431   -2.2965  -25.5298 C   0  0  0  0  0  0  0  0  0  0  0  0
   -8.1340   -1.9277  -26.4356 C   0  0  0  0  0  0  0  0  0  0  0  0
   -7.2852   -0.8713  -26.1569 C   0  0  0  0  0  0  0  0  0  0  0  0
   -7.4277   -0.1499  -24.9792 C   0  0  0  0  0  0  0  0  0  0  0  0
   -8.4167   -0.5207  -24.0792 C   0  0  0  0  0  0  0  0  0  0  0  0
   -8.5109    0.3493  -22.7995 N   0  0  1  0  0  4  0  0  0  0  0  0
   -9.6696    1.4248  -22.8721 C   0  0  0  0  0  0  0  0  0  0  0  0
   -9.4165    2.3411  -24.0348 C   0  0  0  0  0  0  0  0  0  0  0  0
  -10.0864    2.1634  -25.2470 C   0  0  0  0  0  0  0  0  0  0  0  0
   -9.8329    2.9993  -26.3289 C   0  0  0  0  0  0  0  0  0  0  0  0
   -8.9051    4.0304  -26.2156 C   0  0  0  0  0  0  0  0  0  0  0  0
   -8.2367    4.2004  -25.0089 C   0  0  0  0  0  0  0  0  0  0  0  0
   -7.0787    5.4942  -24.8486 Cl  0  0  0  0  0  0  0  0  0  0  0  0
   -8.4721    3.3640  -23.9264 C   0  0  0  0  0  0  0  0  0  0  0  0
   -7.9301    3.5190  -22.9962 H   0  0  0  0  0  0  0  0  0  0  0  0
   -8.6986    4.6983  -27.0459 H   0  0  0  0  0  0  0  0  0  0  0  0
  -10.3609    2.8504  -27.2681 H   0  0  0  0  0  0  0  0  0  0  0  0
  -10.7897    1.3375  -25.3287 H   0  0  0  0  0  0  0  0  0  0  0  0
   -9.7025    1.9582  -21.9207 H   0  0  0  0  0  0  0  0  0  0  0  0
  -10.6095    0.8842  -22.9940 H   0  0  0  0  0  0  0  0  0  0  0  0
   -8.4295   -0.3372  -21.5183 C   0  0  0  0  0  0  0  0  0  0  0  0
   -9.1470   -0.0001  -20.6119 O   0  0  0  0  0  0  0  0  0  0  0  0
   -7.4197   -1.4634  -21.3577 C   0  0  0  0  0  0  0  0  0  0  0  0
   -6.4485   -1.0922  -20.2764 C   0  0  0  0  0  0  0  0  0  0  0  0
   -6.7454   -1.3038  -18.9518 C   0  0  0  0  0  0  0  0  0  0  0  0
   -5.8902   -1.0594  -17.9288 N   0  0  0  0  0  0  0  0  0  0  0  0
   -4.7328   -0.5212  -18.2371 C   0  0  0  0  0  0  0  0  0  0  0  0
   -4.3767   -0.0819  -19.5499 C   0  0  0  0  0  0  0  0  0  0  0  0
   -3.2382    0.7340  -19.8121 C   0  0  0  0  0  0  0  0  0  0  0  0
   -3.1320    1.4251  -20.9846 C   0  0  0  0  0  0  0  0  0  0  0  0
   -4.0391    1.1745  -22.0450 C   0  0  0  0  0  0  0  0  0  0  0  0
   -5.0530    0.2573  -21.8746 C   0  0  0  0  0  0  0  0  0  0  0  0
   -5.2895   -0.3315  -20.5976 C   0  0  0  0  0  0  0  0  0  0  0  0
   -5.6626    0.0020  -22.7385 H   0  0  0  0  0  0  0  0  0  0  0  0
   -3.9074    1.6978  -22.9878 H   0  0  0  0  0  0  0  0  0  0  0  0
   -2.2766    2.0750  -21.1566 H   0  0  0  0  0  0  0  0  0  0  0  0
   -2.5069    0.8877  -19.0237 H   0  0  0  0  0  0  0  0  0  0  0  0
   -4.0448   -0.3545  -17.4088 H   0  0  0  0  0  0  0  0  0  0  0  0
   -7.7161   -1.6986  -18.6514 H   0  0  0  0  0  0  0  0  0  0  0  0
   -6.9338   -1.6872  -22.3089 H   0  0  0  0  0  0  0  0  0  0  0  0
   -7.9999   -2.3402  -21.0455 H   0  0  0  0  0  0  0  0  0  0  0  0
   -7.6408    0.9338  -22.8754 H   0  0  0  0  0  0  0  0  0  0  0  0
   -6.8086    0.7193  -24.7716 H   0  0  0  0  0  0  0  0  0  0  0  0
   -6.5203   -0.6016  -26.8817 H   0  0  0  0  0  0  0  0  0  0  0  0
   -8.0227   -2.4671  -27.3624 H   0  0  0  0  0  0  0  0  0  0  0  0
  -10.7181   -1.1653  -22.7470 H   0  0  0  0  0  0  0  0  0  0  0  0
   -9.8022   -2.6287  -22.5318 H   0  0  0  0  0  0  0  0  0  0  0  0
  -12.0605   -2.1872  -24.5398 H   0  0  0  0  0  0  0  0  0  0  0  0
  -12.0812   -3.2538  -23.1347 H   0  0  0  0  0  0  0  0  0  0  0  0
  -11.6613   -4.5094  -25.2406 H   0  0  0  0  0  0  0  0  0  0  0  0
  -10.3011   -4.6516  -24.1157 H   0  0  0  0  0  0  0  0  0  0  0  0
  -10.3180   -6.0010  -26.1637 H   0  0  0  0  0  0  0  0  0  0  0  0
  -10.6703   -5.4693  -29.1629 H   0  0  0  0  0  0  0  0  0  0  0  0
  -11.0245   -7.0592  -28.2563 H   0  0  0  0  0  0  0  0  0  0  0  0
  1  2  2  0
  2  3  1  0
  3  4  2  0
  3  5  1  0
  5  6  1  0
  6  7  1  0
  7  8  1  0
  8  9  1  0
  9 10  2  0
 10 11  1  0
 11 12  2  0
 12 13  1  0
 13 14  2  0
 14 15  1  0
 15 16  1  0
 16 17  1  0
 17 18  2  0
 18 19  1  0
 19 20  2  0
 20 21  1  0
 21 22  1  0
 21 23  2  0
 23 24  1  0
 20 25  1  0
 19 26  1  0
 18 27  1  0
 16 28  1  0
 16 29  1  0
 15 30  1  0
 30 31  2  0
 30 32  1  0
 32 33  1  0
 33 34  2  0
 34 35  1  0
 35 36  2  0
 36 37  1  0
 37 38  2  0
 38 39  1  0
 39 40  2  0
 40 41  1  0
 41 42  2  0
 41 43  1  0
 40 44  1  0
 39 45  1  0
 38 46  1  0
 36 47  1  0
 34 48  1  0
 32 49  1  0
 32 50  1  0
 15 51  1  6
 13 52  1  0
 12 53  1  0
 11 54  1  0
  8 55  1  0
  8 56  1  0
  7 57  1  0
  7 58  1  0
  6 59  1  0
  6 60  1  0
  2 61  1  0
  1 62  1  0
  1 63  1  0
 10  5  1  0
 23 17  1  0
 42 33  1  0
 14  9  1  0
 42 37  1  0
M  CHG  1  15   1
M  END
>  <cnnaffinities>  (66) 
[6.30447]

>  <score>  (66) 
6.30447

>  <index>  (66) 
69

>  <Smiles>  (66) 
C(=C(C(=O)N1C(C(C(c2c1c(c(c(c2[N@@+](C(c1c(c(c(c(Cl)c1[H])[H])[H])[H])([H])[H])(C(=O)C(c1c(nc(c2c(c(c(c(c12)[H])[H])[H])[H])[H])[H])([H])[H])[H])[H])[H])[H])([H])[H])([H])[H])([H])[H])[H])([H])[H]

>  <h>  (66) 
<NA>

>  <Training>  (66) 
True

>  <Success>  (66) 
True

>  <enamine_searched>  (66) 
False

>  <enamine_id>  (66) 
nan

$$$$

     RDKit          3D

 52 54  0  0  0  0  0  0  0  0999 V2000
   -2.6905   -3.3281  -25.4588 C   0  0  0  0  0  0  0  0  0  0  0  0
   -3.9569   -2.7946  -24.7695 C   0  0  0  0  0  0  0  0  0  0  0  0
   -4.5236   -1.6039  -25.5565 C   0  0  0  0  0  0  0  0  0  0  0  0
   -4.8429   -1.9004  -26.5618 H   0  0  0  0  0  0  0  0  0  0  0  0
   -3.7693   -0.8170  -25.6737 H   0  0  0  0  0  0  0  0  0  0  0  0
   -5.3877   -1.1534  -25.0509 H   0  0  0  0  0  0  0  0  0  0  0  0
   -5.0291   -3.8644  -24.5428 C   0  0  0  0  0  0  0  0  0  0  0  0
   -4.7723   -4.9669  -23.4858 C   0  0  0  0  0  0  0  0  0  0  0  0
   -3.7529   -5.9868  -24.0000 C   0  0  0  0  0  0  0  0  0  0  0  0
   -4.0514   -6.3814  -24.9780 H   0  0  0  0  0  0  0  0  0  0  0  0
   -3.6659   -6.8279  -23.3035 H   0  0  0  0  0  0  0  0  0  0  0  0
   -2.7507   -5.5619  -24.0960 H   0  0  0  0  0  0  0  0  0  0  0  0
   -4.2732   -4.4176  -22.1470 C   0  0  0  0  0  0  0  0  0  0  0  0
   -5.1861   -3.3485  -21.5623 C   0  0  0  0  0  0  0  0  0  0  0  0
   -6.5718   -3.7980  -21.6300 N   0  0  0  0  0  0  0  0  0  0  0  0
   -7.6587   -2.9759  -21.5342 C   0  0  0  0  0  0  0  0  0  0  0  0
   -8.7981   -3.3961  -21.6826 O   0  0  0  0  0  0  0  0  0  0  0  0
   -7.4427   -1.4628  -21.3567 C   0  0  0  0  0  0  0  0  0  0  0  0
   -6.4970   -0.9968  -20.2711 C   0  0  0  0  0  0  0  0  0  0  0  0
   -6.7420   -1.2796  -18.9466 C   0  0  0  0  0  0  0  0  0  0  0  0
   -5.8847   -1.0565  -17.9202 N   0  0  0  0  0  0  0  0  0  0  0  0
   -4.7275   -0.5088  -18.2243 C   0  0  0  0  0  0  0  0  0  0  0  0
   -4.3836   -0.0514  -19.5269 C   0  0  0  0  0  0  0  0  0  0  0  0
   -3.2104    0.7168  -19.7760 C   0  0  0  0  0  0  0  0  0  0  0  0
   -3.0648    1.4302  -20.9390 C   0  0  0  0  0  0  0  0  0  0  0  0
   -3.9917    1.2478  -21.9848 C   0  0  0  0  0  0  0  0  0  0  0  0
   -5.0407    0.3675  -21.8349 C   0  0  0  0  0  0  0  0  0  0  0  0
   -5.3193   -0.2370  -20.5752 C   0  0  0  0  0  0  0  0  0  0  0  0
   -5.6402    0.1089  -22.7037 H   0  0  0  0  0  0  0  0  0  0  0  0
   -3.8550    1.7809  -22.9206 H   0  0  0  0  0  0  0  0  0  0  0  0
   -2.1778    2.0406  -21.0974 H   0  0  0  0  0  0  0  0  0  0  0  0
   -2.4793    0.8207  -18.9840 H   0  0  0  0  0  0  0  0  0  0  0  0
   -4.0220   -0.3581  -17.4023 H   0  0  0  0  0  0  0  0  0  0  0  0
   -7.6792   -1.7431  -18.6438 H   0  0  0  0  0  0  0  0  0  0  0  0
   -8.4628   -1.0986  -21.1945 H   0  0  0  0  0  0  0  0  0  0  0  0
   -7.1119   -1.0711  -22.3276 H   0  0  0  0  0  0  0  0  0  0  0  0
   -6.7705   -5.2255  -21.8698 C   0  0  0  0  0  0  0  0  0  0  0  0
   -6.1175   -5.6880  -23.1854 C   0  0  0  0  0  0  0  0  0  0  0  0
   -6.8051   -5.5297  -24.0246 H   0  0  0  0  0  0  0  0  0  0  0  0
   -5.9503   -6.7710  -23.1225 H   0  0  0  0  0  0  0  0  0  0  0  0
   -6.3400   -5.7827  -21.0258 H   0  0  0  0  0  0  0  0  0  0  0  0
   -7.8435   -5.4089  -21.8786 H   0  0  0  0  0  0  0  0  0  0  0  0
   -4.9083   -3.1048  -20.5309 H   0  0  0  0  0  0  0  0  0  0  0  0
   -5.0602   -2.4289  -22.1362 H   0  0  0  0  0  0  0  0  0  0  0  0
   -4.2320   -5.2770  -21.4708 H   0  0  0  0  0  0  0  0  0  0  0  0
   -3.2592   -4.0230  -22.2430 H   0  0  0  0  0  0  0  0  0  0  0  0
   -5.9527   -3.3460  -24.2623 H   0  0  0  0  0  0  0  0  0  0  0  0
   -5.2426   -4.3646  -25.4986 H   0  0  0  0  0  0  0  0  0  0  0  0
   -3.7026   -2.4170  -23.7747 H   0  0  0  0  0  0  0  0  0  0  0  0
   -2.1519   -2.5244  -25.9718 H   0  0  0  0  0  0  0  0  0  0  0  0
   -1.9893   -3.7880  -24.7562 H   0  0  0  0  0  0  0  0  0  0  0  0
   -2.9406   -4.0775  -26.2180 H   0  0  0  0  0  0  0  0  0  0  0  0
  1  2  1  0
  2  3  1  0
  3  4  1  0
  3  5  1  0
  3  6  1  0
  2  7  1  0
  7  8  1  0
  8  9  1  0
  9 10  1  0
  9 11  1  0
  9 12  1  0
  8 13  1  0
 13 14  1  0
 14 15  1  0
 15 16  1  0
 16 17  2  0
 16 18  1  0
 18 19  1  0
 19 20  2  0
 20 21  1  0
 21 22  2  0
 22 23  1  0
 23 24  2  0
 24 25  1  0
 25 26  2  0
 26 27  1  0
 27 28  2  0
 27 29  1  0
 26 30  1  0
 25 31  1  0
 24 32  1  0
 22 33  1  0
 20 34  1  0
 18 35  1  0
 18 36  1  0
 15 37  1  0
 37 38  1  0
 38 39  1  0
 38 40  1  0
 37 41  1  0
 37 42  1  0
 14 43  1  0
 14 44  1  0
 13 45  1  0
 13 46  1  0
  7 47  1  0
  7 48  1  0
  2 49  1  0
  1 50  1  0
  1 51  1  0
  1 52  1  0
 38  8  1  0
 28 19  1  0
 28 23  1  0
M  END
>  <cnnaffinities>  (67) 
[5.34499, 4.81961, 4.93627, 5.0351, 4.93476, 5.07262, 5.0726, 5.07264, 5.07261, 5.20711, 4.83177, 4.83174, 4.88994, 4.90487, 5.34465]

>  <score>  (67) 
5.34499

>  <index>  (67) 
70

>  <Smiles>  (67) 
C(C(C([H])([H])[H])(C(C1(C([H])([H])[H])C(C(N(C(=O)C(c2c(nc(c3c(c(c(c(c23)[H])[H])[H])[H])[H])[H])([H])[H])C(C1([H])[H])([H])[H])([H])[H])([H])[H])([H])[H])[H])([H])([H])[H]

>  <h>  (67) 
<NA>

>  <Training>  (67) 
True

>  <Success>  (67) 
True

>  <enamine_searched>  (67) 
False

>  <enamine_id>  (67) 
nan

$$$$

     RDKit          3D

 50 54  0  0  0  0  0  0  0  0999 V2000
  -10.3784   -0.9835  -23.4428 C   0  0  0  0  0  0  0  0  0  0  0  0
   -8.9841   -1.4259  -23.0053 C   0  0  1  0  0  0  0  0  0  0  0  0
   -8.4071   -0.5486  -21.8787 C   0  0  0  0  0  0  0  0  0  0  0  0
   -7.4462   -1.4279  -21.2345 N   0  0  0  0  0  0  0  0  0  0  0  0
   -6.5116   -1.0553  -20.2388 C   0  0  0  0  0  0  0  0  0  0  0  0
   -6.7087   -1.4288  -18.9321 C   0  0  0  0  0  0  0  0  0  0  0  0
   -5.7964   -1.2534  -17.9428 N   0  0  0  0  0  0  0  0  0  0  0  0
   -4.6663   -0.6702  -18.2743 C   0  0  0  0  0  0  0  0  0  0  0  0
   -4.3843   -0.1226  -19.5644 C   0  0  0  0  0  0  0  0  0  0  0  0
   -3.2373    0.6925  -19.8164 C   0  0  0  0  0  0  0  0  0  0  0  0
   -3.1625    1.4096  -20.9744 C   0  0  0  0  0  0  0  0  0  0  0  0
   -4.1107    1.2085  -22.0065 C   0  0  0  0  0  0  0  0  0  0  0  0
   -5.1571    0.3489  -21.8336 C   0  0  0  0  0  0  0  0  0  0  0  0
   -5.3577   -0.2821  -20.5786 C   0  0  0  0  0  0  0  0  0  0  0  0
   -5.8626    0.2051  -22.6428 H   0  0  0  0  0  0  0  0  0  0  0  0
   -3.9985    1.7361  -22.9458 H   0  0  0  0  0  0  0  0  0  0  0  0
   -2.3117    2.0562  -21.1595 H   0  0  0  0  0  0  0  0  0  0  0  0
   -2.4826    0.8139  -19.0400 H   0  0  0  0  0  0  0  0  0  0  0  0
   -3.9178   -0.5818  -17.4859 H   0  0  0  0  0  0  0  0  0  0  0  0
   -7.6589   -1.8743  -18.6425 H   0  0  0  0  0  0  0  0  0  0  0  0
   -7.6803   -2.7615  -21.4900 C   0  0  0  0  0  0  0  0  0  0  0  0
   -7.0248   -3.6677  -21.0104 O   0  0  0  0  0  0  0  0  0  0  0  0
   -8.8729   -2.8894  -22.4571 C   0  0  1  0  0  0  0  0  0  0  0  0
  -10.1053   -3.3140  -21.6221 C   0  0  0  0  0  0  0  0  0  0  0  0
  -11.2385   -3.7422  -22.4404 N   0  0  0  0  0  0  0  0  0  0  0  0
  -12.5966   -3.6428  -21.9315 C   0  0  0  0  0  0  0  0  0  0  0  0
  -13.4453   -2.6676  -22.6467 C   0  0  0  0  0  0  0  0  0  0  0  0
  -14.1576   -1.9542  -23.2154 N   0  0  0  0  0  0  0  0  0  0  0  0
  -12.5677   -3.3923  -20.8691 H   0  0  0  0  0  0  0  0  0  0  0  0
  -13.0936   -4.6071  -22.0625 H   0  0  0  0  0  0  0  0  0  0  0  0
  -11.0692   -4.5835  -23.5131 C   0  0  0  0  0  0  0  0  0  0  0  0
  -12.0110   -5.1348  -24.0564 O   0  0  0  0  0  0  0  0  0  0  0  0
   -9.6661   -4.7645  -23.9780 C   0  0  0  0  0  0  0  0  0  0  0  0
   -9.4277   -5.7853  -24.8976 C   0  0  0  0  0  0  0  0  0  0  0  0
   -8.1579   -6.0095  -25.3909 C   0  0  0  0  0  0  0  0  0  0  0  0
   -7.1454   -5.1618  -24.9578 C   0  0  0  0  0  0  0  0  0  0  0  0
   -5.9120   -5.3407  -25.4553 F   0  0  0  0  0  0  0  0  0  0  0  0
   -7.3523   -4.1465  -24.0432 C   0  0  0  0  0  0  0  0  0  0  0  0
   -8.6305   -3.9451  -23.5149 C   0  0  0  0  0  0  0  0  0  0  0  0
   -6.5175   -3.5291  -23.7315 H   0  0  0  0  0  0  0  0  0  0  0  0
   -7.9281   -6.8052  -26.0948 H   0  0  0  0  0  0  0  0  0  0  0  0
  -10.2675   -6.4022  -25.2003 H   0  0  0  0  0  0  0  0  0  0  0  0
   -9.7765   -4.1115  -20.9439 H   0  0  0  0  0  0  0  0  0  0  0  0
  -10.4297   -2.4617  -21.0178 H   0  0  0  0  0  0  0  0  0  0  0  0
   -9.1928   -0.2402  -21.1711 H   0  0  0  0  0  0  0  0  0  0  0  0
   -7.9282    0.3605  -22.2526 H   0  0  0  0  0  0  0  0  0  0  0  0
   -8.3007   -1.3660  -23.8663 H   0  0  0  0  0  0  0  0  0  0  0  0
  -10.3487    0.0335  -23.8472 H   0  0  0  0  0  0  0  0  0  0  0  0
  -11.0781   -0.9912  -22.5987 H   0  0  0  0  0  0  0  0  0  0  0  0
  -10.7980   -1.6533  -24.2009 H   0  0  0  0  0  0  0  0  0  0  0  0
  1  2  1  0
  2  3  1  0
  3  4  1  0
  4  5  1  0
  5  6  2  0
  6  7  1  0
  7  8  2  0
  8  9  1  0
  9 10  2  0
 10 11  1  0
 11 12  2  0
 12 13  1  0
 13 14  2  0
 13 15  1  0
 12 16  1  0
 11 17  1  0
 10 18  1  0
  8 19  1  0
  6 20  1  0
  4 21  1  0
 21 22  2  0
 21 23  1  0
 23 24  1  1
 24 25  1  0
 25 26  1  0
 26 27  1  0
 27 28  3  0
 26 29  1  0
 26 30  1  0
 25 31  1  0
 31 32  2  0
 31 33  1  0
 33 34  2  0
 34 35  1  0
 35 36  2  0
 36 37  1  0
 36 38  1  0
 38 39  2  0
 38 40  1  0
 35 41  1  0
 34 42  1  0
 24 43  1  0
 24 44  1  0
  3 45  1  0
  3 46  1  0
  2 47  1  6
  1 48  1  0
  1 49  1  0
  1 50  1  0
 23  2  1  0
 39 33  1  0
 14  5  1  0
 39 23  1  0
 14  9  1  0
M  END
>  <cnnaffinities>  (68) 
[6.30903]

>  <score>  (68) 
6.30903

>  <index>  (68) 
71

>  <Smiles>  (68) 
C([C@]1(C(N(c2c(nc(c3c(c(c(c(c23)[H])[H])[H])[H])[H])[H])C(=O)[C@]21C(N(C(C#N)([H])[H])C(=O)c1c(c(c(F)c(c21)[H])[H])[H])([H])[H])([H])[H])[H])([H])([H])[H]

>  <h>  (68) 
<NA>

>  <Training>  (68) 
True

>  <Success>  (68) 
True

>  <enamine_searched>  (68) 
False

>  <enamine_id>  (68) 
nan

$$$$

     RDKit          3D

 41 44  0  0  0  0  0  0  0  0999 V2000
   -5.8262   -3.3781  -21.3170 O   0  0  0  0  0  0  0  0  0  0  0  0
   -6.6215   -2.7220  -21.9711 C   0  0  0  0  0  0  0  0  0  0  0  0
   -7.3875   -1.5681  -21.3116 C   0  0  0  0  0  0  0  0  0  0  0  0
   -6.5494   -0.9887  -20.2218 C   0  0  0  0  0  0  0  0  0  0  0  0
   -6.8267   -1.1725  -18.8939 C   0  0  0  0  0  0  0  0  0  0  0  0
   -5.9839   -0.8650  -17.8754 N   0  0  0  0  0  0  0  0  0  0  0  0
   -4.8252   -0.3410  -18.2099 C   0  0  0  0  0  0  0  0  0  0  0  0
   -4.4455   -0.0249  -19.5415 C   0  0  0  0  0  0  0  0  0  0  0  0
   -3.2754    0.7175  -19.8205 C   0  0  0  0  0  0  0  0  0  0  0  0
   -3.1603    1.3942  -21.0013 C   0  0  0  0  0  0  0  0  0  0  0  0
   -4.0770    1.1373  -22.0611 C   0  0  0  0  0  0  0  0  0  0  0  0
   -5.1018    0.2463  -21.8730 C   0  0  0  0  0  0  0  0  0  0  0  0
   -5.3677   -0.2793  -20.5721 C   0  0  0  0  0  0  0  0  0  0  0  0
   -5.6816   -0.0857  -22.7306 H   0  0  0  0  0  0  0  0  0  0  0  0
   -3.9255    1.6010  -23.0362 H   0  0  0  0  0  0  0  0  0  0  0  0
   -2.2999    2.0274  -21.1853 H   0  0  0  0  0  0  0  0  0  0  0  0
   -2.5620    0.8366  -19.0101 H   0  0  0  0  0  0  0  0  0  0  0  0
   -4.1411   -0.0808  -17.4015 H   0  0  0  0  0  0  0  0  0  0  0  0
   -7.7894   -1.6016  -18.6072 H   0  0  0  0  0  0  0  0  0  0  0  0
   -8.3336   -1.9506  -20.9102 H   0  0  0  0  0  0  0  0  0  0  0  0
   -7.6200   -0.7985  -22.0495 H   0  0  0  0  0  0  0  0  0  0  0  0
   -6.8438   -2.9896  -23.3019 N   0  0  0  0  0  0  0  0  0  0  0  0
   -5.7920   -3.7557  -23.9595 C   0  0  0  0  0  0  0  0  0  0  0  0
   -4.6801   -2.8734  -24.5306 C   0  0  0  0  0  0  0  0  0  0  0  0
   -5.1231   -2.0069  -25.7222 C   0  0  0  0  0  0  0  0  0  0  0  0
   -6.0471   -0.8707  -25.3539 C   0  0  0  0  0  0  0  0  0  0  0  0
   -5.7019    0.7605  -25.8284 S   0  0  0  0  0  0  0  0  0  0  0  0
   -7.1764    1.3414  -25.1582 C   0  0  0  0  0  0  0  0  0  0  0  0
   -7.8898    0.3316  -24.5867 C   0  0  0  0  0  0  0  0  0  0  0  0
   -7.2395   -0.9405  -24.6811 C   0  0  0  0  0  0  0  0  0  0  0  0
   -7.7802   -2.2451  -24.1356 C   0  0  0  0  0  0  0  0  0  0  0  0
   -8.7001   -2.0605  -23.5687 H   0  0  0  0  0  0  0  0  0  0  0  0
   -8.0612   -2.9003  -24.9706 H   0  0  0  0  0  0  0  0  0  0  0  0
   -8.8540    0.4917  -24.1102 H   0  0  0  0  0  0  0  0  0  0  0  0
   -7.4405    2.3893  -25.2300 H   0  0  0  0  0  0  0  0  0  0  0  0
   -5.6361   -2.6512  -26.4576 H   0  0  0  0  0  0  0  0  0  0  0  0
   -4.2405   -1.5945  -26.2225 H   0  0  0  0  0  0  0  0  0  0  0  0
   -3.8592   -3.5203  -24.8598 H   0  0  0  0  0  0  0  0  0  0  0  0
   -4.2726   -2.2325  -23.7327 H   0  0  0  0  0  0  0  0  0  0  0  0
   -6.2464   -4.3632  -24.7543 H   0  0  0  0  0  0  0  0  0  0  0  0
   -5.3743   -4.4200  -23.2001 H   0  0  0  0  0  0  0  0  0  0  0  0
  1  2  2  0
  2  3  1  0
  3  4  1  0
  4  5  2  0
  5  6  1  0
  6  7  2  0
  7  8  1  0
  8  9  2  0
  9 10  1  0
 10 11  2  0
 11 12  1  0
 12 13  2  0
 12 14  1  0
 11 15  1  0
 10 16  1  0
  9 17  1  0
  7 18  1  0
  5 19  1  0
  3 20  1  0
  3 21  1  0
  2 22  1  0
 22 23  1  0
 23 24  1  0
 24 25  1  0
 25 26  1  0
 26 27  1  0
 27 28  1  0
 28 29  2  0
 29 30  1  0
 30 31  1  0
 31 32  1  0
 31 33  1  0
 29 34  1  0
 28 35  1  0
 25 36  1  0
 25 37  1  0
 24 38  1  0
 24 39  1  0
 23 40  1  0
 23 41  1  0
 13  4  1  0
 31 22  1  0
 13  8  1  0
 30 26  2  0
M  END
>  <cnnaffinities>  (69) 
[5.41938, 5.61584, 5.21091, 5.52043, 4.93186]

>  <score>  (69) 
5.41938

>  <index>  (69) 
72

>  <Smiles>  (69) 
O=C(C(c1c(nc(c2c(c(c(c(c12)[H])[H])[H])[H])[H])[H])([H])[H])N1C(C(C(c2sc(c(c2C1([H])[H])[H])[H])([H])[H])([H])[H])([H])[H]

>  <h>  (69) 
<NA>

>  <Training>  (69) 
True

>  <Success>  (69) 
True

>  <enamine_searched>  (69) 
False

>  <enamine_id>  (69) 
nan

$$$$

     RDKit          3D

 50 53  0  0  0  0  0  0  0  0999 V2000
   -5.6030   -3.1371  -21.5788 O   0  0  0  0  0  0  0  0  0  0  0  0
   -6.7491   -2.8190  -21.8762 C   0  0  0  0  0  0  0  0  0  0  0  0
   -7.3906   -1.5494  -21.2992 C   0  0  0  0  0  0  0  0  0  0  0  0
   -6.5158   -0.9874  -20.2315 C   0  0  0  0  0  0  0  0  0  0  0  0
   -6.8284   -1.1430  -18.9093 C   0  0  0  0  0  0  0  0  0  0  0  0
   -6.0470   -0.7726  -17.8583 N   0  0  0  0  0  0  0  0  0  0  0  0
   -4.8896   -0.2302  -18.1680 C   0  0  0  0  0  0  0  0  0  0  0  0
   -4.4562    0.0223  -19.5053 C   0  0  0  0  0  0  0  0  0  0  0  0
   -3.2842    0.7894  -19.7680 C   0  0  0  0  0  0  0  0  0  0  0  0
   -3.1369    1.4184  -20.9735 C   0  0  0  0  0  0  0  0  0  0  0  0
   -4.0186    1.0961  -22.0416 C   0  0  0  0  0  0  0  0  0  0  0  0
   -5.0389    0.1947  -21.8714 C   0  0  0  0  0  0  0  0  0  0  0  0
   -5.3258   -0.2924  -20.5700 C   0  0  0  0  0  0  0  0  0  0  0  0
   -5.6602   -0.1194  -22.7071 H   0  0  0  0  0  0  0  0  0  0  0  0
   -3.8481    1.5239  -23.0201 H   0  0  0  0  0  0  0  0  0  0  0  0
   -2.3036    2.0999  -21.1417 H   0  0  0  0  0  0  0  0  0  0  0  0
   -2.5931    0.9512  -18.9406 H   0  0  0  0  0  0  0  0  0  0  0  0
   -4.2618    0.1501  -17.3530 H   0  0  0  0  0  0  0  0  0  0  0  0
   -7.7980   -1.5672  -18.6491 H   0  0  0  0  0  0  0  0  0  0  0  0
   -7.5486   -0.8183  -22.1032 H   0  0  0  0  0  0  0  0  0  0  0  0
   -8.3731   -1.8046  -20.8798 H   0  0  0  0  0  0  0  0  0  0  0  0
   -7.5159   -3.6048  -22.6916 N   0  0  0  0  0  0  0  0  0  0  0  0
   -8.6689   -3.1218  -23.4547 C   0  0  0  0  0  0  0  0  0  0  0  0
   -9.7461   -4.1946  -23.5547 C   0  0  0  0  0  0  0  0  0  0  0  0
   -9.1581   -5.4941  -24.0954 C   0  0  0  0  0  0  0  0  0  0  0  0
   -7.9823   -5.9420  -23.2316 C   0  0  0  0  0  0  0  0  0  0  0  0
   -6.9050   -4.8705  -23.1110 C   0  0  1  0  0  0  0  0  0  0  0  0
   -6.0417   -4.6956  -24.3775 C   0  0  0  0  0  0  0  0  0  0  0  0
   -5.2100   -5.9166  -24.6927 C   0  0  0  0  0  0  0  0  0  0  0  0
   -4.0536   -6.1859  -23.9540 C   0  0  0  0  0  0  0  0  0  0  0  0
   -3.2919   -7.3187  -24.2162 C   0  0  0  0  0  0  0  0  0  0  0  0
   -3.6790   -8.2056  -25.2169 C   0  0  0  0  0  0  0  0  0  0  0  0
   -4.8344   -7.9559  -25.9500 C   0  0  0  0  0  0  0  0  0  0  0  0
   -5.5939   -6.8206  -25.6849 C   0  0  0  0  0  0  0  0  0  0  0  0
   -6.5043   -6.6434  -26.2566 H   0  0  0  0  0  0  0  0  0  0  0  0
   -5.1462   -8.6421  -26.7328 H   0  0  0  0  0  0  0  0  0  0  0  0
   -3.0804   -9.0876  -25.4251 H   0  0  0  0  0  0  0  0  0  0  0  0
   -2.3906   -7.5131  -23.6396 H   0  0  0  0  0  0  0  0  0  0  0  0
   -3.7490   -5.4994  -23.1639 H   0  0  0  0  0  0  0  0  0  0  0  0
   -6.6892   -4.4414  -25.2253 H   0  0  0  0  0  0  0  0  0  0  0  0
   -5.3888   -3.8318  -24.2141 H   0  0  0  0  0  0  0  0  0  0  0  0
   -6.2350   -5.1566  -22.2945 H   0  0  0  0  0  0  0  0  0  0  0  0
   -8.3438   -6.1626  -22.2217 H   0  0  0  0  0  0  0  0  0  0  0  0
   -7.5260   -6.8636  -23.6110 H   0  0  0  0  0  0  0  0  0  0  0  0
   -9.9195   -6.2790  -24.1155 H   0  0  0  0  0  0  0  0  0  0  0  0
   -8.8257   -5.3501  -25.1323 H   0  0  0  0  0  0  0  0  0  0  0  0
  -10.1722   -4.3750  -22.5625 H   0  0  0  0  0  0  0  0  0  0  0  0
  -10.5679   -3.8301  -24.1830 H   0  0  0  0  0  0  0  0  0  0  0  0
   -9.0819   -2.2304  -22.9768 H   0  0  0  0  0  0  0  0  0  0  0  0
   -8.3643   -2.8164  -24.4691 H   0  0  0  0  0  0  0  0  0  0  0  0
  1  2  2  0
  2  3  1  0
  3  4  1  0
  4  5  2  0
  5  6  1  0
  6  7  2  0
  7  8  1  0
  8  9  2  0
  9 10  1  0
 10 11  2  0
 11 12  1  0
 12 13  2  0
 12 14  1  0
 11 15  1  0
 10 16  1  0
  9 17  1  0
  7 18  1  0
  5 19  1  0
  3 20  1  0
  3 21  1  0
  2 22  1  0
 22 23  1  0
 23 24  1  0
 24 25  1  0
 25 26  1  0
 26 27  1  0
 27 28  1  0
 28 29  1  0
 29 30  2  0
 30 31  1  0
 31 32  2  0
 32 33  1  0
 33 34  2  0
 34 35  1  0
 33 36  1  0
 32 37  1  0
 31 38  1  0
 30 39  1  0
 28 40  1  0
 28 41  1  0
 27 42  1  1
 26 43  1  0
 26 44  1  0
 25 45  1  0
 25 46  1  0
 24 47  1  0
 24 48  1  0
 23 49  1  0
 23 50  1  0
 13  4  1  0
 27 22  1  0
 34 29  1  0
 13  8  1  0
M  END
>  <cnnaffinities>  (70) 
[5.71066]

>  <score>  (70) 
5.71066

>  <index>  (70) 
73

>  <Smiles>  (70) 
O=C(C(c1c(nc(c2c(c(c(c(c12)[H])[H])[H])[H])[H])[H])([H])[H])N1C(C(C(C([C@]1(C(c1c(c(c(c(c1[H])[H])[H])[H])[H])([H])[H])[H])([H])[H])([H])[H])([H])[H])([H])[H]

>  <h>  (70) 
<NA>

>  <Training>  (70) 
True

>  <Success>  (70) 
True

>  <enamine_searched>  (70) 
False

>  <enamine_id>  (70) 
nan

$$$$

     RDKit          3D

 43 47  0  0  0  0  0  0  0  0999 V2000
   -9.2466   -0.4222  -20.9412 O   0  0  0  0  0  0  0  0  0  0  0  0
   -8.6413   -1.3629  -21.3999 C   0  0  0  0  0  0  0  0  0  0  0  0
   -9.1091   -2.4208  -22.1251 N   0  0  0  0  0  0  0  0  0  0  0  0
   -8.0579   -3.1830  -22.7611 C   0  0  1  0  0  0  0  0  0  0  0  0
   -8.1305   -4.7208  -22.7331 C   0  0  0  0  0  0  0  0  0  0  0  0
   -8.2421   -4.7488  -24.2867 C   0  0  2  0  0  0  0  0  0  0  0  0
   -7.1878   -5.5442  -24.9956 C   0  0  0  0  0  0  0  0  0  0  0  0
   -5.8314   -5.2936  -24.7483 C   0  0  0  0  0  0  0  0  0  0  0  0
   -4.8345   -6.0169  -25.3872 C   0  0  0  0  0  0  0  0  0  0  0  0
   -5.1760   -7.0168  -26.2896 C   0  0  0  0  0  0  0  0  0  0  0  0
   -6.5098   -7.2874  -26.5487 C   0  0  0  0  0  0  0  0  0  0  0  0
   -7.4972   -6.5540  -25.9050 C   0  0  0  0  0  0  0  0  0  0  0  0
   -9.1565   -6.9452  -26.2738 Cl  0  0  0  0  0  0  0  0  0  0  0  0
   -6.7965   -8.0661  -27.2454 H   0  0  0  0  0  0  0  0  0  0  0  0
   -4.4048   -7.5888  -26.7919 H   0  0  0  0  0  0  0  0  0  0  0  0
   -3.7910   -5.8032  -25.1809 H   0  0  0  0  0  0  0  0  0  0  0  0
   -5.5425   -4.5193  -24.0390 H   0  0  0  0  0  0  0  0  0  0  0  0
   -8.0466   -3.2045  -24.3034 C   0  0  0  0  0  0  0  0  0  0  0  0
   -8.8464   -2.6115  -24.7541 H   0  0  0  0  0  0  0  0  0  0  0  0
   -7.0836   -2.8802  -24.7029 H   0  0  0  0  0  0  0  0  0  0  0  0
   -9.2526   -5.0159  -24.5975 H   0  0  0  0  0  0  0  0  0  0  0  0
   -8.9720   -5.1228  -22.1678 H   0  0  0  0  0  0  0  0  0  0  0  0
   -7.2024   -5.1565  -22.3555 H   0  0  0  0  0  0  0  0  0  0  0  0
   -6.8181   -2.6085  -22.1133 C   0  0  0  0  0  0  0  0  0  0  0  0
   -5.6721   -2.9552  -22.2774 O   0  0  0  0  0  0  0  0  0  0  0  0
   -7.2629   -1.5840  -21.2813 N   0  0  0  0  0  0  0  0  0  0  0  0
   -6.4914   -1.0103  -20.2521 C   0  0  0  0  0  0  0  0  0  0  0  0
   -6.8590   -1.1228  -18.9386 C   0  0  0  0  0  0  0  0  0  0  0  0
   -6.0518   -0.7792  -17.9048 N   0  0  0  0  0  0  0  0  0  0  0  0
   -4.8830   -0.2624  -18.2091 C   0  0  0  0  0  0  0  0  0  0  0  0
   -4.4532   -0.0018  -19.5389 C   0  0  0  0  0  0  0  0  0  0  0  0
   -3.2856    0.7598  -19.8002 C   0  0  0  0  0  0  0  0  0  0  0  0
   -3.1583    1.4147  -20.9914 C   0  0  0  0  0  0  0  0  0  0  0  0
   -4.0553    1.1508  -22.0592 C   0  0  0  0  0  0  0  0  0  0  0  0
   -5.0886    0.2694  -21.8823 C   0  0  0  0  0  0  0  0  0  0  0  0
   -5.3291   -0.2797  -20.5960 C   0  0  0  0  0  0  0  0  0  0  0  0
   -5.7100   -0.0390  -22.7174 H   0  0  0  0  0  0  0  0  0  0  0  0
   -3.8822    1.5994  -23.0318 H   0  0  0  0  0  0  0  0  0  0  0  0
   -2.3181    2.0809  -21.1551 H   0  0  0  0  0  0  0  0  0  0  0  0
   -2.6080    0.9170  -18.9688 H   0  0  0  0  0  0  0  0  0  0  0  0
   -4.2560    0.0909  -17.3869 H   0  0  0  0  0  0  0  0  0  0  0  0
   -7.8243   -1.5520  -18.6747 H   0  0  0  0  0  0  0  0  0  0  0  0
  -10.0747   -2.4570  -22.3969 H   0  0  0  0  0  0  0  0  0  0  0  0
  1  2  2  0
  2  3  1  0
  4  3  1  6
  4  5  1  0
  5  6  1  0
  6  7  1  0
  7  8  2  0
  8  9  1  0
  9 10  2  0
 10 11  1  0
 11 12  2  0
 12 13  1  0
 11 14  1  0
 10 15  1  0
  9 16  1  0
  8 17  1  0
  6 18  1  0
 18 19  1  0
 18 20  1  0
  6 21  1  1
  5 22  1  0
  5 23  1  0
  4 24  1  0
 24 25  2  0
 24 26  1  0
 26 27  1  0
 27 28  2  0
 28 29  1  0
 29 30  2  0
 30 31  1  0
 31 32  2  0
 32 33  1  0
 33 34  2  0
 34 35  1  0
 35 36  2  0
 35 37  1  0
 34 38  1  0
 33 39  1  0
 32 40  1  0
 30 41  1  0
 28 42  1  0
  3 43  1  0
 26  2  1  0
 36 27  1  0
 18  4  1  0
 36 31  1  0
 12  7  1  0
M  END
>  <cnnaffinities>  (71) 
[5.77005]

>  <score>  (71) 
5.77005

>  <index>  (71) 
74

>  <Smiles>  (71) 
O=C1N([C@]2(C([C@](c3c(c(c(c(c3Cl)[H])[H])[H])[H])(C2([H])[H])[H])([H])[H])C(=O)N1c1c(nc(c2c(c(c(c(c12)[H])[H])[H])[H])[H])[H])[H]

>  <h>  (71) 
<NA>

>  <Training>  (71) 
True

>  <Success>  (71) 
True

>  <enamine_searched>  (71) 
False

>  <enamine_id>  (71) 
nan

$$$$

     RDKit          3D

 66 71  0  0  0  0  0  0  0  0999 V2000
   -7.3525    0.9112  -29.0946 C   0  0  0  0  0  0  0  0  0  0  0  0
   -7.7569    1.1355  -27.7192 N   0  0  0  0  0  0  0  0  0  0  0  0
   -6.9231    0.7797  -26.7096 C   0  0  0  0  0  0  0  0  0  0  0  0
   -5.8813    0.1677  -26.8914 O   0  0  0  0  0  0  0  0  0  0  0  0
   -7.3873    1.1742  -25.3023 C   0  0  0  0  0  0  0  0  0  0  0  0
   -8.3799    0.2570  -24.7724 N   0  0  0  0  0  0  0  0  0  0  0  0
   -7.9705   -1.0729  -24.3463 C   0  0  0  0  0  0  0  0  0  0  0  0
   -8.7745   -1.5427  -23.0919 C   0  0  2  0  0  0  0  0  0  0  0  0
   -8.3168   -0.7388  -21.8384 C   0  0  0  0  0  0  0  0  0  0  0  0
   -8.6835    0.3603  -21.4829 O   0  0  0  0  0  0  0  0  0  0  0  0
   -7.3853   -1.5113  -21.1624 N   0  0  0  0  0  0  0  0  0  0  0  0
   -6.4870   -1.0614  -20.1614 C   0  0  0  0  0  0  0  0  0  0  0  0
   -6.6039   -1.5274  -18.8748 C   0  0  0  0  0  0  0  0  0  0  0  0
   -5.6496   -1.3940  -17.9204 N   0  0  0  0  0  0  0  0  0  0  0  0
   -4.5493   -0.7633  -18.2531 C   0  0  0  0  0  0  0  0  0  0  0  0
   -4.3399   -0.1436  -19.5122 C   0  0  0  0  0  0  0  0  0  0  0  0
   -3.2070    0.6792  -19.7528 C   0  0  0  0  0  0  0  0  0  0  0  0
   -3.1370    1.4367  -20.8873 C   0  0  0  0  0  0  0  0  0  0  0  0
   -4.1284    1.3053  -21.8890 C   0  0  0  0  0  0  0  0  0  0  0  0
   -5.2154    0.4935  -21.6922 C   0  0  0  0  0  0  0  0  0  0  0  0
   -5.3504   -0.2538  -20.4903 C   0  0  0  0  0  0  0  0  0  0  0  0
   -6.0254    0.4747  -22.4136 H   0  0  0  0  0  0  0  0  0  0  0  0
   -4.0230    1.8563  -22.8173 H   0  0  0  0  0  0  0  0  0  0  0  0
   -2.3034    2.1150  -21.0406 H   0  0  0  0  0  0  0  0  0  0  0  0
   -2.4688    0.7664  -18.9620 H   0  0  0  0  0  0  0  0  0  0  0  0
   -3.7666   -0.6679  -17.4984 H   0  0  0  0  0  0  0  0  0  0  0  0
   -7.5243   -2.0170  -18.5559 H   0  0  0  0  0  0  0  0  0  0  0  0
   -7.1033   -2.7704  -21.8211 C   0  0  0  0  0  0  0  0  0  0  0  0
   -8.3708   -2.9701  -22.6436 C   0  0  2  0  0  0  0  0  0  0  0  0
   -8.2619   -4.0034  -23.7656 C   0  0  0  0  0  0  0  0  0  0  0  0
   -8.1582   -5.3748  -23.3062 N   0  0  0  0  0  0  0  0  0  0  0  0
   -6.9752   -5.8766  -22.8035 C   0  0  0  0  0  0  0  0  0  0  0  0
   -5.7158   -5.5479  -23.3553 C   0  0  0  0  0  0  0  0  0  0  0  0
   -4.5967   -6.1189  -22.9393 N   0  0  0  0  0  0  0  0  0  0  0  0
   -4.7051   -6.9954  -21.9390 C   0  0  0  0  0  0  0  0  0  0  0  0
   -5.9260   -7.2546  -21.3413 C   0  0  0  0  0  0  0  0  0  0  0  0
   -7.0662   -6.7164  -21.7742 N   0  0  0  0  0  0  0  0  0  0  0  0
   -5.9962   -7.9130  -20.4800 H   0  0  0  0  0  0  0  0  0  0  0  0
   -3.8017   -7.5055  -21.6226 H   0  0  0  0  0  0  0  0  0  0  0  0
   -5.6100   -4.8297  -24.1665 H   0  0  0  0  0  0  0  0  0  0  0  0
   -8.9416   -5.7080  -22.7586 H   0  0  0  0  0  0  0  0  0  0  0  0
   -7.3820   -3.7836  -24.3790 H   0  0  0  0  0  0  0  0  0  0  0  0
   -9.1389   -3.9259  -24.4199 H   0  0  0  0  0  0  0  0  0  0  0  0
   -9.1277   -3.3074  -21.9252 H   0  0  0  0  0  0  0  0  0  0  0  0
   -6.9270   -3.5606  -21.0866 H   0  0  0  0  0  0  0  0  0  0  0  0
   -6.2078   -2.7214  -22.4671 H   0  0  0  0  0  0  0  0  0  0  0  0
  -10.2484   -1.3757  -23.4171 C   0  0  0  0  0  0  0  0  0  0  0  0
  -11.2385   -2.2090  -22.8713 C   0  0  0  0  0  0  0  0  0  0  0  0
  -12.5727   -1.9863  -23.1579 C   0  0  0  0  0  0  0  0  0  0  0  0
  -13.7935   -2.9968  -22.4386 Cl  0  0  0  0  0  0  0  0  0  0  0  0
  -12.9824   -0.9448  -23.9832 C   0  0  0  0  0  0  0  0  0  0  0  0
  -12.0188   -0.1135  -24.5118 C   0  0  0  0  0  0  0  0  0  0  0  0
  -10.6672   -0.3450  -24.2762 C   0  0  0  0  0  0  0  0  0  0  0  0
   -9.6918    0.5397  -24.9916 C   0  0  0  0  0  0  0  0  0  0  0  0
  -10.0403    1.4673  -25.7256 O   0  0  0  0  0  0  0  0  0  0  0  0
  -12.2877    0.7467  -25.1104 H   0  0  0  0  0  0  0  0  0  0  0  0
  -14.0389   -0.7967  -24.1747 H   0  0  0  0  0  0  0  0  0  0  0  0
  -10.9941   -3.0299  -22.2086 H   0  0  0  0  0  0  0  0  0  0  0  0
   -8.1404   -1.7857  -25.1672 H   0  0  0  0  0  0  0  0  0  0  0  0
   -6.8914   -1.0546  -24.1572 H   0  0  0  0  0  0  0  0  0  0  0  0
   -6.5090    1.1793  -24.6488 H   0  0  0  0  0  0  0  0  0  0  0  0
   -7.8386    2.1711  -25.3006 H   0  0  0  0  0  0  0  0  0  0  0  0
   -8.6635    1.5335  -27.5027 H   0  0  0  0  0  0  0  0  0  0  0  0
   -6.3098    1.2211  -29.2237 H   0  0  0  0  0  0  0  0  0  0  0  0
   -7.4199   -0.1459  -29.3827 H   0  0  0  0  0  0  0  0  0  0  0  0
   -7.9885    1.5060  -29.7552 H   0  0  0  0  0  0  0  0  0  0  0  0
  1  2  1  0
  2  3  1  0
  3  4  2  0
  3  5  1  0
  5  6  1  0
  6  7  1  0
  8  7  1  6
  8  9  1  0
  9 10  2  0
  9 11  1  0
 11 12  1  0
 12 13  2  0
 13 14  1  0
 14 15  2  0
 15 16  1  0
 16 17  2  0
 17 18  1  0
 18 19  2  0
 19 20  1  0
 20 21  2  0
 20 22  1  0
 19 23  1  0
 18 24  1  0
 17 25  1  0
 15 26  1  0
 13 27  1  0
 11 28  1  0
 28 29  1  0
 29 30  1  0
 30 31  1  0
 31 32  1  0
 32 33  2  0
 33 34  1  0
 34 35  2  0
 35 36  1  0
 36 37  2  0
 36 38  1  0
 35 39  1  0
 33 40  1  0
 31 41  1  0
 30 42  1  0
 30 43  1  0
 29 44  1  1
 28 45  1  0
 28 46  1  0
  8 47  1  0
 47 48  2  0
 48 49  1  0
 49 50  1  0
 49 51  2  0
 51 52  1  0
 52 53  2  0
 53 54  1  0
 54 55  2  0
 52 56  1  0
 51 57  1  0
 48 58  1  0
  7 59  1  0
  7 60  1  0
  5 61  1  0
  5 62  1  0
  2 63  1  0
  1 64  1  0
  1 65  1  0
  1 66  1  0
 54  6  1  0
 29  8  1  0
 37 32  1  0
 53 47  1  0
 21 12  1  0
 21 16  1  0
M  END
>  <cnnaffinities>  (72) 
[7.01768, 7.00657]

>  <score>  (72) 
7.01768

>  <index>  (72) 
75

>  <Smiles>  (72) 
C(N(C(=O)C(N1C([C@@]2(C(=O)N(c3c(nc(c4c(c(c(c(c34)[H])[H])[H])[H])[H])[H])C([C@@]2(C(N(c2c(nc(c(n2)[H])[H])[H])[H])([H])[H])[H])([H])[H])c2c(c(Cl)c(c(c2C1=O)[H])[H])[H])([H])[H])([H])[H])[H])([H])([H])[H]

>  <h>  (72) 
<NA>

>  <Training>  (72) 
True

>  <Success>  (72) 
True

>  <enamine_searched>  (72) 
False

>  <enamine_id>  (72) 
nan

$$$$

     RDKit          3D

 66 71  0  0  0  0  0  0  0  0999 V2000
   -8.0116   -3.6143  -24.0568 C   0  0  0  0  0  0  0  0  0  0  0  0
   -8.3446   -2.7820  -22.8280 C   0  0  1  0  0  0  0  0  0  0  0  0
   -7.1670   -2.6344  -21.8690 C   0  0  0  0  0  0  0  0  0  0  0  0
   -7.4608   -1.3972  -21.1844 N   0  0  0  0  0  0  0  0  0  0  0  0
   -6.5634   -0.9325  -20.2037 C   0  0  0  0  0  0  0  0  0  0  0  0
   -6.8333   -1.1325  -18.8818 C   0  0  0  0  0  0  0  0  0  0  0  0
   -5.9637   -0.8699  -17.8776 N   0  0  0  0  0  0  0  0  0  0  0  0
   -4.7981   -0.3653  -18.2158 C   0  0  0  0  0  0  0  0  0  0  0  0
   -4.4281   -0.0423  -19.5531 C   0  0  0  0  0  0  0  0  0  0  0  0
   -3.2563    0.7093  -19.8293 C   0  0  0  0  0  0  0  0  0  0  0  0
   -3.1536    1.3914  -21.0078 C   0  0  0  0  0  0  0  0  0  0  0  0
   -4.0642    1.1264  -22.0626 C   0  0  0  0  0  0  0  0  0  0  0  0
   -5.0801    0.2237  -21.8802 C   0  0  0  0  0  0  0  0  0  0  0  0
   -5.3551   -0.2842  -20.5802 C   0  0  0  0  0  0  0  0  0  0  0  0
   -5.6636   -0.1188  -22.7282 H   0  0  0  0  0  0  0  0  0  0  0  0
   -3.9065    1.5958  -23.0301 H   0  0  0  0  0  0  0  0  0  0  0  0
   -2.3046    2.0394  -21.1800 H   0  0  0  0  0  0  0  0  0  0  0  0
   -2.5243    0.8015  -19.0359 H   0  0  0  0  0  0  0  0  0  0  0  0
   -4.1066   -0.0994  -17.4126 H   0  0  0  0  0  0  0  0  0  0  0  0
   -7.8103   -1.5205  -18.6073 H   0  0  0  0  0  0  0  0  0  0  0  0
   -8.3483   -0.5754  -21.8385 C   0  0  0  0  0  0  0  0  0  0  0  0
   -8.6296    0.5616  -21.4967 O   0  0  0  0  0  0  0  0  0  0  0  0
   -8.8801   -1.3366  -23.0723 C   0  0  1  0  0  0  0  0  0  0  0  0
   -8.3118   -0.7211  -24.3775 C   0  0  0  0  0  0  0  0  0  0  0  0
   -8.8900    0.5783  -24.6712 N   0  0  0  0  0  0  0  0  0  0  0  0
   -8.0250    1.6160  -25.2083 C   0  0  0  0  0  0  0  0  0  0  0  0
   -7.3148    2.3819  -24.1015 C   0  0  0  0  0  0  0  0  0  0  0  0
   -8.2505    3.2111  -23.2847 N   0  0  0  0  0  4  0  0  0  0  0  0
   -8.8450    4.3473  -24.0964 C   0  0  0  0  0  0  0  0  0  0  0  0
   -9.2056    5.5320  -23.2172 C   0  0  0  0  0  0  0  0  0  0  0  0
   -8.0927    6.0839  -22.5338 O   0  0  0  0  0  0  0  0  0  0  0  0
   -7.0709    5.1554  -22.2059 C   0  0  0  0  0  0  0  0  0  0  0  0
   -7.5850    3.7327  -22.0331 C   0  0  0  0  0  0  0  0  0  0  0  0
   -6.7701    3.0529  -21.7679 H   0  0  0  0  0  0  0  0  0  0  0  0
   -8.3051    3.6991  -21.2185 H   0  0  0  0  0  0  0  0  0  0  0  0
   -6.6258    5.4947  -21.2651 H   0  0  0  0  0  0  0  0  0  0  0  0
   -6.2844    5.1783  -22.9772 H   0  0  0  0  0  0  0  0  0  0  0  0
   -9.6138    6.3337  -23.8424 H   0  0  0  0  0  0  0  0  0  0  0  0
   -9.9867    5.2398  -22.4980 H   0  0  0  0  0  0  0  0  0  0  0  0
   -9.7299    3.9782  -24.6164 H   0  0  0  0  0  0  0  0  0  0  0  0
   -8.1078    4.6608  -24.8438 H   0  0  0  0  0  0  0  0  0  0  0  0
   -9.0173    2.5925  -22.9657 H   0  0  0  0  0  0  0  0  0  0  0  0
   -6.8310    1.6688  -23.4303 H   0  0  0  0  0  0  0  0  0  0  0  0
   -6.5316    3.0197  -24.5274 H   0  0  0  0  0  0  0  0  0  0  0  0
   -8.6396    2.2734  -25.8246 H   0  0  0  0  0  0  0  0  0  0  0  0
   -7.2824    1.1467  -25.8633 H   0  0  0  0  0  0  0  0  0  0  0  0
  -10.2362    0.7757  -24.6175 C   0  0  0  0  0  0  0  0  0  0  0  0
  -10.7813    1.7997  -25.0199 O   0  0  0  0  0  0  0  0  0  0  0  0
  -11.0233   -0.3303  -23.9917 C   0  0  0  0  0  0  0  0  0  0  0  0
  -12.3953   -0.3999  -24.2227 C   0  0  0  0  0  0  0  0  0  0  0  0
  -13.1628   -1.3645  -23.6008 C   0  0  0  0  0  0  0  0  0  0  0  0
  -12.5546   -2.1509  -22.6175 C   0  0  0  0  0  0  0  0  0  0  0  0
  -13.5236   -3.2519  -21.6677 Cl  0  0  0  0  0  0  0  0  0  0  0  0
  -11.1974   -2.0820  -22.3711 C   0  0  0  0  0  0  0  0  0  0  0  0
  -10.3887   -1.2533  -23.1558 C   0  0  0  0  0  0  0  0  0  0  0  0
  -10.7761   -2.6673  -21.5605 H   0  0  0  0  0  0  0  0  0  0  0  0
  -14.2273   -1.4593  -23.7927 H   0  0  0  0  0  0  0  0  0  0  0  0
  -12.8509    0.3255  -24.8798 H   0  0  0  0  0  0  0  0  0  0  0  0
   -7.2260   -0.6189  -24.3068 H   0  0  0  0  0  0  0  0  0  0  0  0
   -8.5053   -1.4077  -25.2135 H   0  0  0  0  0  0  0  0  0  0  0  0
   -7.1149   -3.4535  -21.1465 H   0  0  0  0  0  0  0  0  0  0  0  0
   -6.2026   -2.6041  -22.3993 H   0  0  0  0  0  0  0  0  0  0  0  0
   -9.1260   -3.3038  -22.2745 H   0  0  0  0  0  0  0  0  0  0  0  0
   -7.7079   -4.6188  -23.7487 H   0  0  0  0  0  0  0  0  0  0  0  0
   -8.8711   -3.7045  -24.7305 H   0  0  0  0  0  0  0  0  0  0  0  0
   -7.1778   -3.1728  -24.6143 H   0  0  0  0  0  0  0  0  0  0  0  0
  1  2  1  0
  2  3  1  0
  3  4  1  0
  4  5  1  0
  5  6  2  0
  6  7  1  0
  7  8  2  0
  8  9  1  0
  9 10  2  0
 10 11  1  0
 11 12  2  0
 12 13  1  0
 13 14  2  0
 13 15  1  0
 12 16  1  0
 11 17  1  0
 10 18  1  0
  8 19  1  0
  6 20  1  0
  4 21  1  0
 21 22  2  0
 21 23  1  0
 23 24  1  6
 24 25  1  0
 25 26  1  0
 26 27  1  0
 27 28  1  0
 28 29  1  0
 29 30  1  0
 30 31  1  0
 31 32  1  0
 32 33  1  0
 33 34  1  0
 33 35  1  0
 32 36  1  0
 32 37  1  0
 30 38  1  0
 30 39  1  0
 29 40  1  0
 29 41  1  0
 28 42  1  0
 27 43  1  0
 27 44  1  0
 26 45  1  0
 26 46  1  0
 25 47  1  0
 47 48  2  0
 47 49  1  0
 49 50  2  0
 50 51  1  0
 51 52  2  0
 52 53  1  0
 52 54  1  0
 54 55  2  0
 54 56  1  0
 51 57  1  0
 50 58  1  0
 24 59  1  0
 24 60  1  0
  3 61  1  0
  3 62  1  0
  2 63  1  1
  1 64  1  0
  1 65  1  0
  1 66  1  0
 23  2  1  0
 33 28  1  0
 55 49  1  0
 14  5  1  0
 55 23  1  0
 14  9  1  0
M  CHG  1  28   1
M  END
>  <cnnaffinities>  (73) 
[6.60958, 6.54254]

>  <score>  (73) 
6.60958

>  <index>  (73) 
76

>  <Smiles>  (73) 
C([C@]1(C(N(c2c(nc(c3c(c(c(c(c23)[H])[H])[H])[H])[H])[H])C(=O)[C@]21C(N(C(C([N+]1(C(C(OC(C1([H])[H])([H])[H])([H])[H])([H])[H])[H])([H])[H])([H])[H])C(=O)c1c(c(c(Cl)c(c21)[H])[H])[H])([H])[H])([H])[H])[H])([H])([H])[H]

>  <h>  (73) 
<NA>

>  <Training>  (73) 
True

>  <Success>  (73) 
True

>  <enamine_searched>  (73) 
False

>  <enamine_id>  (73) 
nan

$$$$

     RDKit          3D

 55 60  0  0  0  0  0  0  0  0999 V2000
   -7.9086   -3.6112  -24.1176 C   0  0  0  0  0  0  0  0  0  0  0  0
   -8.2715   -2.8674  -22.8370 C   0  0  1  0  0  0  0  0  0  0  0  0
   -7.0479   -2.6523  -21.9363 C   0  0  0  0  0  0  0  0  0  0  0  0
   -7.4074   -1.4670  -21.1872 N   0  0  0  0  0  0  0  0  0  0  0  0
   -6.5513   -0.9463  -20.1878 C   0  0  0  0  0  0  0  0  0  0  0  0
   -6.8361   -1.1463  -18.8632 C   0  0  0  0  0  0  0  0  0  0  0  0
   -5.9759   -0.8695  -17.8491 N   0  0  0  0  0  0  0  0  0  0  0  0
   -4.8006   -0.3830  -18.1853 C   0  0  0  0  0  0  0  0  0  0  0  0
   -4.4246   -0.0397  -19.5190 C   0  0  0  0  0  0  0  0  0  0  0  0
   -3.2534    0.7156  -19.8061 C   0  0  0  0  0  0  0  0  0  0  0  0
   -3.1405    1.3913  -20.9887 C   0  0  0  0  0  0  0  0  0  0  0  0
   -4.0529    1.1329  -22.0411 C   0  0  0  0  0  0  0  0  0  0  0  0
   -5.0689    0.2318  -21.8565 C   0  0  0  0  0  0  0  0  0  0  0  0
   -5.3494   -0.2660  -20.5528 C   0  0  0  0  0  0  0  0  0  0  0  0
   -5.6913   -0.0704  -22.6938 H   0  0  0  0  0  0  0  0  0  0  0  0
   -3.9317    1.6160  -23.0066 H   0  0  0  0  0  0  0  0  0  0  0  0
   -2.2843    2.0303  -21.1737 H   0  0  0  0  0  0  0  0  0  0  0  0
   -2.5318    0.8518  -19.0097 H   0  0  0  0  0  0  0  0  0  0  0  0
   -4.1028   -0.1586  -17.3791 H   0  0  0  0  0  0  0  0  0  0  0  0
   -7.8140   -1.5306  -18.5732 H   0  0  0  0  0  0  0  0  0  0  0  0
   -8.4393   -0.7287  -21.7248 C   0  0  0  0  0  0  0  0  0  0  0  0
   -8.8350    0.3128  -21.2451 O   0  0  0  0  0  0  0  0  0  0  0  0
   -8.9503   -1.4643  -22.9913 C   0  0  1  0  0  0  0  0  0  0  0  0
   -8.4674   -0.7600  -24.2918 C   0  0  0  0  0  0  0  0  0  0  0  0
   -9.1781    0.4727  -24.5739 N   0  0  0  0  0  0  0  0  0  0  0  0
   -8.4575    1.6845  -24.9350 C   0  0  0  0  0  0  0  0  0  0  0  0
   -8.1605    2.5430  -23.7454 C   0  0  0  0  0  0  0  0  0  0  0  0
   -8.9304    3.4392  -23.0912 C   0  0  0  0  0  0  0  0  0  0  0  0
   -8.1994    3.9490  -22.0603 O   0  0  0  0  0  0  0  0  0  0  0  0
   -7.0252    3.2981  -22.1228 C   0  0  0  0  0  0  0  0  0  0  0  0
   -6.9327    2.4583  -23.1009 N   0  0  0  0  0  0  0  0  0  0  0  0
   -6.2824    3.5423  -21.3747 H   0  0  0  0  0  0  0  0  0  0  0  0
   -9.9432    3.7974  -23.1955 H   0  0  0  0  0  0  0  0  0  0  0  0
   -9.0668    2.2272  -25.6648 H   0  0  0  0  0  0  0  0  0  0  0  0
   -7.5067    1.4103  -25.4000 H   0  0  0  0  0  0  0  0  0  0  0  0
  -10.5345    0.5749  -24.4344 C   0  0  0  0  0  0  0  0  0  0  0  0
  -11.1517    1.5663  -24.8039 O   0  0  0  0  0  0  0  0  0  0  0  0
  -11.2018   -0.6097  -23.8120 C   0  0  0  0  0  0  0  0  0  0  0  0
  -12.5719   -0.7925  -23.9987 C   0  0  0  0  0  0  0  0  0  0  0  0
  -13.2363   -1.8043  -23.3321 C   0  0  0  0  0  0  0  0  0  0  0  0
  -12.5278   -2.5525  -22.3950 C   0  0  0  0  0  0  0  0  0  0  0  0
  -13.1878   -3.4692  -21.6678 F   0  0  0  0  0  0  0  0  0  0  0  0
  -11.1716   -2.3886  -22.1965 C   0  0  0  0  0  0  0  0  0  0  0  0
  -10.4667   -1.4969  -23.0147 C   0  0  0  0  0  0  0  0  0  0  0  0
  -10.6884   -2.9682  -21.4184 H   0  0  0  0  0  0  0  0  0  0  0  0
  -14.2969   -1.9757  -23.4647 H   0  0  0  0  0  0  0  0  0  0  0  0
  -13.1033   -0.1270  -24.6694 H   0  0  0  0  0  0  0  0  0  0  0  0
   -8.6202   -1.4480  -25.1331 H   0  0  0  0  0  0  0  0  0  0  0  0
   -7.3977   -0.5338  -24.2148 H   0  0  0  0  0  0  0  0  0  0  0  0
   -6.1281   -2.5074  -22.5289 H   0  0  0  0  0  0  0  0  0  0  0  0
   -6.8686   -3.5061  -21.2672 H   0  0  0  0  0  0  0  0  0  0  0  0
   -8.9687   -3.4914  -22.2725 H   0  0  0  0  0  0  0  0  0  0  0  0
   -8.7760   -3.7493  -24.7713 H   0  0  0  0  0  0  0  0  0  0  0  0
   -7.1404   -3.0702  -24.6829 H   0  0  0  0  0  0  0  0  0  0  0  0
   -7.5010   -4.5986  -23.8771 H   0  0  0  0  0  0  0  0  0  0  0  0
  1  2  1  0
  2  3  1  0
  3  4  1  0
  4  5  1  0
  5  6  2  0
  6  7  1  0
  7  8  2  0
  8  9  1  0
  9 10  2  0
 10 11  1  0
 11 12  2  0
 12 13  1  0
 13 14  2  0
 13 15  1  0
 12 16  1  0
 11 17  1  0
 10 18  1  0
  8 19  1  0
  6 20  1  0
  4 21  1  0
 21 22  2  0
 21 23  1  0
 23 24  1  6
 24 25  1  0
 25 26  1  0
 26 27  1  0
 27 28  2  0
 28 29  1  0
 29 30  1  0
 30 31  2  0
 30 32  1  0
 28 33  1  0
 26 34  1  0
 26 35  1  0
 25 36  1  0
 36 37  2  0
 36 38  1  0
 38 39  2  0
 39 40  1  0
 40 41  2  0
 41 42  1  0
 41 43  1  0
 43 44  2  0
 43 45  1  0
 40 46  1  0
 39 47  1  0
 24 48  1  0
 24 49  1  0
  3 50  1  0
  3 51  1  0
  2 52  1  1
  1 53  1  0
  1 54  1  0
  1 55  1  0
 23  2  1  0
 31 27  1  0
 44 38  1  0
 14  5  1  0
 44 23  1  0
 14  9  1  0
M  END
>  <cnnaffinities>  (74) 
[6.29453]

>  <score>  (74) 
6.29453

>  <index>  (74) 
77

>  <Smiles>  (74) 
C([C@]1(C(N(c2c(nc(c3c(c(c(c(c23)[H])[H])[H])[H])[H])[H])C(=O)[C@]21C(N(C(c1c(oc(n1)[H])[H])([H])[H])C(=O)c1c(c(c(F)c(c21)[H])[H])[H])([H])[H])([H])[H])[H])([H])([H])[H]

>  <h>  (74) 
<NA>

>  <Training>  (74) 
True

>  <Success>  (74) 
True

>  <enamine_searched>  (74) 
False

>  <enamine_id>  (74) 
nan

$$$$

     RDKit          3D

 56 60  0  0  0  0  0  0  0  0999 V2000
  -14.6802   -1.4919  -23.3537 C   0  0  0  0  0  0  0  0  0  0  0  0
  -13.6163   -2.4138  -23.0173 N   0  0  0  0  0  0  0  0  0  0  0  0
  -13.4180   -2.8541  -21.7470 C   0  0  0  0  0  0  0  0  0  0  0  0
  -14.0045   -2.4113  -20.7687 O   0  0  0  0  0  0  0  0  0  0  0  0
  -12.4464   -4.0299  -21.6771 C   0  0  0  0  0  0  0  0  0  0  0  0
  -11.1966   -3.8602  -22.3980 N   0  0  0  0  0  0  0  0  0  0  0  0
  -10.0748   -3.3476  -21.6330 C   0  0  0  0  0  0  0  0  0  0  0  0
   -8.8742   -2.8862  -22.4847 C   0  0  2  0  0  0  0  0  0  0  0  0
   -7.6930   -2.7554  -21.5118 C   0  0  0  0  0  0  0  0  0  0  0  0
   -7.0329   -3.6612  -21.0396 O   0  0  0  0  0  0  0  0  0  0  0  0
   -7.4701   -1.4243  -21.2302 N   0  0  0  0  0  0  0  0  0  0  0  0
   -6.5139   -1.0829  -20.2491 C   0  0  0  0  0  0  0  0  0  0  0  0
   -6.6719   -1.5140  -18.9563 C   0  0  0  0  0  0  0  0  0  0  0  0
   -5.7270   -1.3998  -17.9911 N   0  0  0  0  0  0  0  0  0  0  0  0
   -4.6131   -0.7794  -18.3045 C   0  0  0  0  0  0  0  0  0  0  0  0
   -4.3770   -0.1688  -19.5694 C   0  0  0  0  0  0  0  0  0  0  0  0
   -3.2492    0.6631  -19.8122 C   0  0  0  0  0  0  0  0  0  0  0  0
   -3.1784    1.4132  -20.9557 C   0  0  0  0  0  0  0  0  0  0  0  0
   -4.1437    1.2420  -21.9761 C   0  0  0  0  0  0  0  0  0  0  0  0
   -5.2107    0.4061  -21.7932 C   0  0  0  0  0  0  0  0  0  0  0  0
   -5.3751   -0.2859  -20.5644 C   0  0  0  0  0  0  0  0  0  0  0  0
   -5.9316    0.2666  -22.5931 H   0  0  0  0  0  0  0  0  0  0  0  0
   -4.0351    1.7664  -22.9211 H   0  0  0  0  0  0  0  0  0  0  0  0
   -2.3419    2.0817  -21.1346 H   0  0  0  0  0  0  0  0  0  0  0  0
   -2.5110    0.7835  -19.0276 H   0  0  0  0  0  0  0  0  0  0  0  0
   -3.8392   -0.7003  -17.5369 H   0  0  0  0  0  0  0  0  0  0  0  0
   -7.5948   -2.0073  -18.6621 H   0  0  0  0  0  0  0  0  0  0  0  0
   -8.4472   -0.5480  -21.8547 C   0  0  0  0  0  0  0  0  0  0  0  0
   -8.9968   -1.4132  -23.0005 C   0  0  2  0  0  0  0  0  0  0  0  0
  -10.3640   -0.9547  -23.4873 C   0  0  0  0  0  0  0  0  0  0  0  0
  -11.1152   -1.0216  -22.6936 H   0  0  0  0  0  0  0  0  0  0  0  0
  -10.3116    0.0893  -23.8154 H   0  0  0  0  0  0  0  0  0  0  0  0
  -10.7110   -1.5580  -24.3324 H   0  0  0  0  0  0  0  0  0  0  0  0
   -8.2903   -1.3371  -23.8370 H   0  0  0  0  0  0  0  0  0  0  0  0
   -7.9974    0.3802  -22.2165 H   0  0  0  0  0  0  0  0  0  0  0  0
   -9.2376   -0.2688  -21.1428 H   0  0  0  0  0  0  0  0  0  0  0  0
   -8.6179   -3.9232  -23.5625 C   0  0  0  0  0  0  0  0  0  0  0  0
   -7.3384   -4.1052  -24.0950 C   0  0  0  0  0  0  0  0  0  0  0  0
   -7.0979   -5.1140  -25.0106 C   0  0  0  0  0  0  0  0  0  0  0  0
   -5.4816   -5.3504  -25.6082 Cl  0  0  0  0  0  0  0  0  0  0  0  0
   -8.1227   -5.9423  -25.4648 C   0  0  0  0  0  0  0  0  0  0  0  0
   -9.4098   -5.7094  -25.0132 C   0  0  0  0  0  0  0  0  0  0  0  0
   -9.6585   -4.7063  -24.0756 C   0  0  0  0  0  0  0  0  0  0  0  0
  -11.0595   -4.4839  -23.6098 C   0  0  0  0  0  0  0  0  0  0  0  0
  -12.0457   -4.8231  -24.2585 O   0  0  0  0  0  0  0  0  0  0  0  0
  -10.2466   -6.3022  -25.3746 H   0  0  0  0  0  0  0  0  0  0  0  0
   -7.9050   -6.7401  -26.1673 H   0  0  0  0  0  0  0  0  0  0  0  0
   -6.5255   -3.4726  -23.7643 H   0  0  0  0  0  0  0  0  0  0  0  0
   -9.7096   -4.1183  -20.9453 H   0  0  0  0  0  0  0  0  0  0  0  0
  -10.4418   -2.5066  -21.0349 H   0  0  0  0  0  0  0  0  0  0  0  0
  -12.9685   -4.8572  -22.1636 H   0  0  0  0  0  0  0  0  0  0  0  0
  -12.2690   -4.2841  -20.6308 H   0  0  0  0  0  0  0  0  0  0  0  0
  -13.1482   -2.9023  -23.7761 H   0  0  0  0  0  0  0  0  0  0  0  0
  -14.2764   -0.5145  -23.6502 H   0  0  0  0  0  0  0  0  0  0  0  0
  -15.3043   -1.8898  -24.1612 H   0  0  0  0  0  0  0  0  0  0  0  0
  -15.2866   -1.3548  -22.4555 H   0  0  0  0  0  0  0  0  0  0  0  0
  1  2  1  0
  2  3  1  0
  3  4  2  0
  3  5  1  0
  5  6  1  0
  6  7  1  0
  8  7  1  1
  8  9  1  0
  9 10  2  0
  9 11  1  0
 11 12  1  0
 12 13  2  0
 13 14  1  0
 14 15  2  0
 15 16  1  0
 16 17  2  0
 17 18  1  0
 18 19  2  0
 19 20  1  0
 20 21  2  0
 20 22  1  0
 19 23  1  0
 18 24  1  0
 17 25  1  0
 15 26  1  0
 13 27  1  0
 11 28  1  0
 28 29  1  0
 29 30  1  0
 30 31  1  0
 30 32  1  0
 30 33  1  0
 29 34  1  6
 28 35  1  0
 28 36  1  0
  8 37  1  0
 37 38  2  0
 38 39  1  0
 39 40  1  0
 39 41  2  0
 41 42  1  0
 42 43  2  0
 43 44  1  0
 44 45  2  0
 42 46  1  0
 41 47  1  0
 38 48  1  0
  7 49  1  0
  7 50  1  0
  5 51  1  0
  5 52  1  0
  2 53  1  0
  1 54  1  0
  1 55  1  0
  1 56  1  0
 44  6  1  0
 29  8  1  0
 43 37  1  0
 21 12  1  0
 21 16  1  0
M  END
>  <cnnaffinities>  (75) 
[6.4153]

>  <score>  (75) 
6.4153

>  <index>  (75) 
78

>  <Smiles>  (75) 
C(N(C(=O)C(N1C([C@@]2(C(=O)N(c3c(nc(c4c(c(c(c(c34)[H])[H])[H])[H])[H])[H])C([C@@]2(C([H])([H])[H])[H])([H])[H])c2c(c(Cl)c(c(c2C1=O)[H])[H])[H])([H])[H])([H])[H])[H])([H])([H])[H]

>  <h>  (75) 
<NA>

>  <Training>  (75) 
True

>  <Success>  (75) 
True

>  <enamine_searched>  (75) 
False

>  <enamine_id>  (75) 
nan

$$$$

     RDKit          3D

 45 49  0  0  0  0  0  0  0  0999 V2000
  -10.1277   -0.7115  -23.5255 C   0  0  0  0  0  0  0  0  0  0  0  0
   -9.1321   -1.3211  -22.6568 N   0  0  0  0  0  0  0  0  0  0  0  0
   -8.4286   -0.5795  -21.7411 C   0  0  0  0  0  0  0  0  0  0  0  0
   -8.5589    0.6021  -21.5116 O   0  0  0  0  0  0  0  0  0  0  0  0
   -7.5295   -1.4590  -21.1133 N   0  0  0  0  0  0  0  0  0  0  0  0
   -6.5228   -1.0958  -20.1703 C   0  0  0  0  0  0  0  0  0  0  0  0
   -6.5823   -1.6240  -18.9040 C   0  0  0  0  0  0  0  0  0  0  0  0
   -5.6000   -1.5099  -17.9807 N   0  0  0  0  0  0  0  0  0  0  0  0
   -4.5307   -0.8379  -18.3316 C   0  0  0  0  0  0  0  0  0  0  0  0
   -4.3815   -0.1610  -19.5664 C   0  0  0  0  0  0  0  0  0  0  0  0
   -3.2554    0.6709  -19.8041 C   0  0  0  0  0  0  0  0  0  0  0  0
   -3.2075    1.4728  -20.9093 C   0  0  0  0  0  0  0  0  0  0  0  0
   -4.2328    1.3850  -21.8799 C   0  0  0  0  0  0  0  0  0  0  0  0
   -5.3192    0.5667  -21.6845 C   0  0  0  0  0  0  0  0  0  0  0  0
   -5.4359   -0.2182  -20.5023 C   0  0  0  0  0  0  0  0  0  0  0  0
   -6.1334    0.5454  -22.4011 H   0  0  0  0  0  0  0  0  0  0  0  0
   -4.1552    1.9615  -22.7980 H   0  0  0  0  0  0  0  0  0  0  0  0
   -2.3664    2.1402  -21.0805 H   0  0  0  0  0  0  0  0  0  0  0  0
   -2.4821    0.7112  -19.0472 H   0  0  0  0  0  0  0  0  0  0  0  0
   -3.7141   -0.7696  -17.6166 H   0  0  0  0  0  0  0  0  0  0  0  0
   -7.4604   -2.1689  -18.5617 H   0  0  0  0  0  0  0  0  0  0  0  0
   -7.7628   -2.7760  -21.4936 C   0  0  0  0  0  0  0  0  0  0  0  0
   -7.1347   -3.7373  -21.1215 O   0  0  0  0  0  0  0  0  0  0  0  0
   -8.9035   -2.7371  -22.4921 C   0  0  0  0  0  0  0  0  0  0  0  0
   -8.6665   -3.6224  -23.7264 C   0  0  0  0  0  0  0  0  0  0  0  0
   -9.8825   -4.4107  -23.4229 N   0  0  0  0  0  0  0  0  0  0  0  0
  -11.1216   -4.3163  -24.5694 S   0  0  0  0  0  0  0  0  0  0  0  0
  -12.2879   -4.9544  -23.9910 O   0  0  0  0  0  0  0  0  0  0  0  0
  -11.2208   -2.9461  -25.0471 O   0  0  0  0  0  0  0  0  0  0  0  0
  -10.4608   -5.3186  -25.8672 C   0  0  0  0  0  0  0  0  0  0  0  0
  -10.1540   -6.7462  -25.5277 C   0  0  0  0  0  0  0  0  0  0  0  0
  -11.2994   -6.4317  -26.4284 C   0  0  0  0  0  0  0  0  0  0  0  0
  -12.3150   -6.5573  -26.0702 H   0  0  0  0  0  0  0  0  0  0  0  0
  -11.1622   -6.6208  -27.4873 H   0  0  0  0  0  0  0  0  0  0  0  0
  -10.3404   -7.0297  -24.4956 H   0  0  0  0  0  0  0  0  0  0  0  0
   -9.2632   -7.1626  -25.9784 H   0  0  0  0  0  0  0  0  0  0  0  0
   -9.8170   -4.7654  -26.5449 H   0  0  0  0  0  0  0  0  0  0  0  0
  -10.1266   -3.6294  -22.1711 C   0  0  0  0  0  0  0  0  0  0  0  0
  -11.0787   -3.0930  -22.1441 H   0  0  0  0  0  0  0  0  0  0  0  0
  -10.0033   -4.2322  -21.2685 H   0  0  0  0  0  0  0  0  0  0  0  0
   -8.6663   -3.0994  -24.6809 H   0  0  0  0  0  0  0  0  0  0  0  0
   -7.7775   -4.2468  -23.6216 H   0  0  0  0  0  0  0  0  0  0  0  0
   -9.9751    0.3663  -23.4675 H   0  0  0  0  0  0  0  0  0  0  0  0
  -10.0126   -1.0519  -24.5573 H   0  0  0  0  0  0  0  0  0  0  0  0
  -11.1516   -0.9395  -23.2038 H   0  0  0  0  0  0  0  0  0  0  0  0
  1  2  1  0
  2  3  1  0
  3  4  2  0
  3  5  1  0
  5  6  1  0
  6  7  2  0
  7  8  1  0
  8  9  2  0
  9 10  1  0
 10 11  2  0
 11 12  1  0
 12 13  2  0
 13 14  1  0
 14 15  2  0
 14 16  1  0
 13 17  1  0
 12 18  1  0
 11 19  1  0
  9 20  1  0
  7 21  1  0
  5 22  1  0
 22 23  2  0
 22 24  1  0
 24 25  1  0
 25 26  1  0
 26 27  1  0
 27 28  2  0
 27 29  2  0
 27 30  1  0
 30 31  1  0
 31 32  1  0
 32 33  1  0
 32 34  1  0
 31 35  1  0
 31 36  1  0
 30 37  1  0
 26 38  1  0
 38 39  1  0
 38 40  1  0
 25 41  1  0
 25 42  1  0
  1 43  1  0
  1 44  1  0
  1 45  1  0
 24  2  1  0
 32 30  1  0
 15  6  1  0
 38 24  1  0
 15 10  1  0
M  END
>  <cnnaffinities>  (76) 
[5.51522]

>  <score>  (76) 
5.51522

>  <index>  (76) 
79

>  <Smiles>  (76) 
C(N1C(=O)N(c2c(nc(c3c(c(c(c(c23)[H])[H])[H])[H])[H])[H])C(=O)C21C(N(S(=O)(=O)C1(C(C1([H])[H])([H])[H])[H])C2([H])[H])([H])[H])([H])([H])[H]

>  <h>  (76) 
<NA>

>  <Training>  (76) 
True

>  <Success>  (76) 
True

>  <enamine_searched>  (76) 
False

>  <enamine_id>  (76) 
nan

$$$$

     RDKit          3D

 60 65  0  0  0  0  0  0  0  0999 V2000
   -2.5239   -6.4946  -22.9855 C   0  0  0  0  0  0  0  0  0  0  0  0
   -3.8423   -6.0024  -22.5691 N   0  0  0  0  0  0  0  0  0  0  0  0
   -4.8592   -6.8842  -22.4062 C   0  0  0  0  0  0  0  0  0  0  0  0
   -4.7439   -8.0715  -22.5403 O   0  0  0  0  0  0  0  0  0  0  0  0
   -6.8175   -6.1898  -21.5244 C   0  0  0  0  0  0  0  0  0  0  0  0
   -7.4347   -5.3710  -22.7317 N   0  0  0  0  0  0  0  0  0  0  0  0
   -8.4184   -4.3108  -22.4827 C   0  0  0  0  0  0  0  0  0  0  0  0
   -8.0006   -2.9338  -23.0715 C   0  0  2  0  0  0  0  0  0  0  0  0
   -6.7814   -2.4250  -22.2783 C   0  0  0  0  0  0  0  0  0  0  0  0
   -5.6184   -2.7231  -22.4622 O   0  0  0  0  0  0  0  0  0  0  0  0
   -7.2447   -1.5948  -21.2717 N   0  0  0  0  0  0  0  0  0  0  0  0
   -6.3899   -1.2234  -20.2141 C   0  0  0  0  0  0  0  0  0  0  0  0
   -6.5307   -1.7343  -18.9474 C   0  0  0  0  0  0  0  0  0  0  0  0
   -5.6248   -1.5613  -17.9510 N   0  0  0  0  0  0  0  0  0  0  0  0
   -4.5569   -0.8497  -18.2334 C   0  0  0  0  0  0  0  0  0  0  0  0
   -4.3321   -0.2087  -19.4834 C   0  0  0  0  0  0  0  0  0  0  0  0
   -3.2049    0.6236  -19.7165 C   0  0  0  0  0  0  0  0  0  0  0  0
   -3.1659    1.4396  -20.8149 C   0  0  0  0  0  0  0  0  0  0  0  0
   -4.2006    1.4007  -21.7790 C   0  0  0  0  0  0  0  0  0  0  0  0
   -5.2476    0.5269  -21.6266 C   0  0  0  0  0  0  0  0  0  0  0  0
   -5.3236   -0.3118  -20.4777 C   0  0  0  0  0  0  0  0  0  0  0  0
   -6.0318    0.4648  -22.3709 H   0  0  0  0  0  0  0  0  0  0  0  0
   -4.1583    2.0547  -22.6455 H   0  0  0  0  0  0  0  0  0  0  0  0
   -2.3250    2.1089  -20.9668 H   0  0  0  0  0  0  0  0  0  0  0  0
   -2.4334    0.6710  -18.9578 H   0  0  0  0  0  0  0  0  0  0  0  0
   -3.8272   -0.7073  -17.4364 H   0  0  0  0  0  0  0  0  0  0  0  0
   -7.3980   -2.3396  -18.6866 H   0  0  0  0  0  0  0  0  0  0  0  0
   -8.6914   -1.4475  -21.2698 C   0  0  0  0  0  0  0  0  0  0  0  0
   -9.0543   -1.8360  -22.7177 C   0  0  2  0  0  0  0  0  0  0  0  0
  -10.5250   -2.1919  -22.9145 C   0  0  0  0  0  0  0  0  0  0  0  0
  -10.8293   -2.9942  -22.2324 H   0  0  0  0  0  0  0  0  0  0  0  0
  -11.1718   -1.3302  -22.7114 H   0  0  0  0  0  0  0  0  0  0  0  0
  -10.7169   -2.5305  -23.9387 H   0  0  0  0  0  0  0  0  0  0  0  0
   -8.8212   -0.9521  -23.3209 H   0  0  0  0  0  0  0  0  0  0  0  0
   -8.9752   -0.4211  -21.0159 H   0  0  0  0  0  0  0  0  0  0  0  0
   -9.1860   -2.1124  -20.5416 H   0  0  0  0  0  0  0  0  0  0  0  0
   -7.6476   -3.1619  -24.5300 C   0  0  0  0  0  0  0  0  0  0  0  0
   -7.6920   -2.1203  -25.4634 C   0  0  0  0  0  0  0  0  0  0  0  0
   -7.2310   -2.3301  -26.7518 C   0  0  0  0  0  0  0  0  0  0  0  0
   -7.2446   -1.0081  -27.8888 Cl  0  0  0  0  0  0  0  0  0  0  0  0
   -6.7271   -3.5621  -27.1649 C   0  0  0  0  0  0  0  0  0  0  0  0
   -6.7017   -4.6006  -26.2594 C   0  0  0  0  0  0  0  0  0  0  0  0
   -7.1481   -4.4119  -24.9441 C   0  0  0  0  0  0  0  0  0  0  0  0
   -7.0068   -5.5687  -24.0002 C   0  0  0  0  0  0  0  0  0  0  0  0
   -6.5174   -6.6257  -24.3814 O   0  0  0  0  0  0  0  0  0  0  0  0
   -6.3154   -5.5735  -26.5470 H   0  0  0  0  0  0  0  0  0  0  0  0
   -6.3456   -3.6895  -28.1722 H   0  0  0  0  0  0  0  0  0  0  0  0
   -8.0664   -1.1398  -25.1909 H   0  0  0  0  0  0  0  0  0  0  0  0
   -9.3818   -4.6041  -22.9264 H   0  0  0  0  0  0  0  0  0  0  0  0
   -8.5389   -4.2575  -21.3999 H   0  0  0  0  0  0  0  0  0  0  0  0
   -6.5519   -5.9164  -21.6841 C   0  0  0  0  0  0  0  0  0  0  0  0
   -5.9272   -5.1934  -20.5965 C   0  0  0  0  0  0  0  0  0  0  0  0
   -5.4433   -5.8638  -19.9298 H   0  0  0  0  0  0  0  0  0  0  0  0
   -6.6619   -4.5378  -20.2041 H   0  0  0  0  0  0  0  0  0  0  0  0
   -7.7401   -6.3917  -20.9517 H   0  0  0  0  0  0  0  0  0  0  0  0
   -7.1433   -7.2786  -21.7430 H   0  0  0  0  0  0  0  0  0  0  0  0
   -4.0002   -5.0048  -22.6438 H   0  0  0  0  0  0  0  0  0  0  0  0
   -2.2252   -7.3336  -22.3468 H   0  0  0  0  0  0  0  0  0  0  0  0
   -2.5427   -6.8467  -24.0247 H   0  0  0  0  0  0  0  0  0  0  0  0
   -1.7939   -5.6845  -22.8895 H   0  0  0  0  0  0  0  0  0  0  0  0
  1  2  1  0
  2  3  1  0
  3  4  2  0
  3  5  1  0
  5  6  1  0
  6  7  1  0
  8  7  1  1
  8  9  1  0
  9 10  2  0
  9 11  1  0
 11 12  1  0
 12 13  2  0
 13 14  1  0
 14 15  2  0
 15 16  1  0
 16 17  2  0
 17 18  1  0
 18 19  2  0
 19 20  1  0
 20 21  2  0
 20 22  1  0
 19 23  1  0
 18 24  1  0
 17 25  1  0
 15 26  1  0
 13 27  1  0
 11 28  1  0
 28 29  1  0
 29 30  1  0
 30 31  1  0
 30 32  1  0
 30 33  1  0
 29 34  1  6
 28 35  1  0
 28 36  1  0
  8 37  1  0
 37 38  2  0
 38 39  1  0
 39 40  1  0
 39 41  2  0
 41 42  1  0
 42 43  2  0
 43 44  1  0
 44 45  2  0
 42 46  1  0
 41 47  1  0
 38 48  1  0
  7 49  1  0
  7 50  1  0
  5 51  1  0
 51 52  1  0
 52 53  1  0
 52 54  1  0
 51 55  1  0
 51 56  1  0
  2 57  1  0
  1 58  1  0
  1 59  1  0
  1 60  1  0
 52  5  1  0
 44  6  1  0
 29  8  1  0
 43 37  1  0
 21 12  1  0
 21 16  1  0
M  END
>  <cnnaffinities>  (77) 
[6.00463]

>  <score>  (77) 
6.00463

>  <index>  (77) 
80

>  <Smiles>  (77) 
C(N(C(=O)C1(N2C([C@@]3(C(=O)N(c4c(nc(c5c(c(c(c(c45)[H])[H])[H])[H])[H])[H])C([C@@]3(C([H])([H])[H])[H])([H])[H])c3c(c(Cl)c(c(c3C2=O)[H])[H])[H])([H])[H])C(C1([H])[H])([H])[H])[H])([H])([H])[H]

>  <h>  (77) 
<NA>

>  <Training>  (77) 
True

>  <Success>  (77) 
True

>  <enamine_searched>  (77) 
False

>  <enamine_id>  (77) 
nan

$$$$

     RDKit          3D

 36 38  0  0  0  0  0  0  0  0999 V2000
   -8.6860   -3.6734  -21.4203 O   0  0  0  0  0  0  0  0  0  0  0  0
   -7.5957   -3.1324  -21.4684 C   0  0  0  0  0  0  0  0  0  0  0  0
   -7.4743   -1.5975  -21.3861 C   0  0  0  0  0  0  0  0  0  0  0  0
   -6.4971   -1.1204  -20.3348 C   0  0  0  0  0  0  0  0  0  0  0  0
   -6.6612   -1.5698  -19.0470 C   0  0  0  0  0  0  0  0  0  0  0  0
   -5.7422   -1.4790  -18.0617 N   0  0  0  0  0  0  0  0  0  0  0  0
   -4.6241   -0.8580  -18.3630 C   0  0  0  0  0  0  0  0  0  0  0  0
   -4.3900   -0.1832  -19.5881 C   0  0  0  0  0  0  0  0  0  0  0  0
   -3.2469    0.6367  -19.7810 C   0  0  0  0  0  0  0  0  0  0  0  0
   -3.1248    1.4265  -20.8915 C   0  0  0  0  0  0  0  0  0  0  0  0
   -4.0953    1.3381  -21.9136 C   0  0  0  0  0  0  0  0  0  0  0  0
   -5.1967    0.5243  -21.7693 C   0  0  0  0  0  0  0  0  0  0  0  0
   -5.3843   -0.2575  -20.5956 C   0  0  0  0  0  0  0  0  0  0  0  0
   -5.9166    0.4793  -22.5829 H   0  0  0  0  0  0  0  0  0  0  0  0
   -3.9477    1.8957  -22.8354 H   0  0  0  0  0  0  0  0  0  0  0  0
   -2.2517    2.0609  -21.0327 H   0  0  0  0  0  0  0  0  0  0  0  0
   -2.5202    0.6955  -18.9802 H   0  0  0  0  0  0  0  0  0  0  0  0
   -3.8468   -0.8335  -17.6043 H   0  0  0  0  0  0  0  0  0  0  0  0
   -7.5847   -2.0754  -18.7694 H   0  0  0  0  0  0  0  0  0  0  0  0
   -8.4941   -1.2826  -21.1405 H   0  0  0  0  0  0  0  0  0  0  0  0
   -7.2380   -1.1773  -22.3724 H   0  0  0  0  0  0  0  0  0  0  0  0
   -6.4330   -3.8803  -21.6032 N   0  0  0  0  0  0  0  0  0  0  0  0
   -5.2860   -3.3715  -22.3428 C   0  0  0  0  0  0  0  0  0  0  0  0
   -5.5044   -3.3059  -23.8327 C   0  0  0  0  0  0  0  0  0  0  0  0
   -6.3977   -3.9806  -24.5671 C   0  0  0  0  0  0  0  0  0  0  0  0
   -7.2091   -5.1540  -24.1924 C   0  0  0  0  0  0  0  0  0  0  0  0
   -7.2038   -5.8052  -23.0212 C   0  0  0  0  0  0  0  0  0  0  0  0
   -6.6138   -5.3253  -21.7213 C   0  0  0  0  0  0  0  0  0  0  0  0
   -5.6384   -5.7988  -21.5427 H   0  0  0  0  0  0  0  0  0  0  0  0
   -7.2564   -5.6640  -20.9089 H   0  0  0  0  0  0  0  0  0  0  0  0
   -7.6997   -6.7743  -22.9635 H   0  0  0  0  0  0  0  0  0  0  0  0
   -7.8440   -5.5497  -24.9832 H   0  0  0  0  0  0  0  0  0  0  0  0
   -6.5251   -3.6591  -25.6014 H   0  0  0  0  0  0  0  0  0  0  0  0
   -4.8619   -2.5915  -24.3449 H   0  0  0  0  0  0  0  0  0  0  0  0
   -5.0089   -2.3821  -21.9708 H   0  0  0  0  0  0  0  0  0  0  0  0
   -4.4269   -4.0122  -22.1004 H   0  0  0  0  0  0  0  0  0  0  0  0
  1  2  2  0
  2  3  1  0
  3  4  1  0
  4  5  2  0
  5  6  1  0
  6  7  2  0
  7  8  1  0
  8  9  2  0
  9 10  1  0
 10 11  2  0
 11 12  1  0
 12 13  2  0
 12 14  1  0
 11 15  1  0
 10 16  1  0
  9 17  1  0
  7 18  1  0
  5 19  1  0
  3 20  1  0
  3 21  1  0
  2 22  1  0
 22 23  1  0
 23 24  1  0
 24 25  2  0
 25 26  1  0
 26 27  2  0
 27 28  1  0
 28 29  1  0
 28 30  1  0
 27 31  1  0
 26 32  1  0
 25 33  1  0
 24 34  1  0
 23 35  1  0
 23 36  1  0
 13  4  1  0
 28 22  1  0
 13  8  1  0
M  END
>  <cnnaffinities>  (78) 
[4.79699, 4.80294, 5.1069, 5.10815]

>  <score>  (78) 
4.79699

>  <index>  (78) 
81

>  <Smiles>  (78) 
O=C(C(c1c(nc(c2c(c(c(c(c12)[H])[H])[H])[H])[H])[H])([H])[H])N1C(C(=C(C(=C(C1([H])[H])[H])[H])[H])[H])([H])[H]

>  <h>  (78) 
<NA>

>  <Training>  (78) 
True

>  <Success>  (78) 
True

>  <enamine_searched>  (78) 
False

>  <enamine_id>  (78) 
nan

$$$$

     RDKit          3D

 54 57  0  0  0  0  0  0  0  0999 V2000
   -6.0141   -4.4925  -24.7026 C   0  0  0  0  0  0  0  0  0  0  0  0
   -6.7531   -3.3095  -24.4995 O   0  0  0  0  0  0  0  0  0  0  0  0
   -8.0427   -3.4664  -24.0806 C   0  0  0  0  0  0  0  0  0  0  0  0
   -8.6173   -4.7116  -23.8268 C   0  0  0  0  0  0  0  0  0  0  0  0
   -9.9412   -4.7886  -23.4116 C   0  0  0  0  0  0  0  0  0  0  0  0
  -10.6924   -3.6439  -23.2022 C   0  0  0  0  0  0  0  0  0  0  0  0
  -10.1065   -2.4033  -23.4367 C   0  0  0  0  0  0  0  0  0  0  0  0
   -8.7923   -2.2998  -23.8831 C   0  0  0  0  0  0  0  0  0  0  0  0
   -8.1808   -0.9482  -24.1952 C   0  0  1  0  0  0  0  0  0  0  0  0
   -8.7802   -0.4800  -25.5256 C   0  0  0  0  0  0  0  0  0  0  0  0
   -8.4084    0.9563  -25.8715 C   0  0  1  0  0  0  0  0  0  0  0  0
   -9.0188    1.3857  -27.2024 C   0  0  0  0  0  0  0  0  0  0  0  0
   -8.7279    2.4120  -27.4497 H   0  0  0  0  0  0  0  0  0  0  0  0
   -8.6989    0.7301  -28.0198 H   0  0  0  0  0  0  0  0  0  0  0  0
  -10.1139    1.3512  -27.1540 H   0  0  0  0  0  0  0  0  0  0  0  0
   -8.8892    1.8444  -24.7267 C   0  0  0  0  0  0  0  0  0  0  0  0
   -8.2529    1.4428  -23.4094 C   0  0  0  0  0  0  0  0  0  0  0  0
   -8.4245    0.0156  -23.1198 N   0  0  0  0  0  0  0  0  0  0  0  0
   -8.3108   -0.3196  -21.7753 C   0  0  0  0  0  0  0  0  0  0  0  0
   -8.8593    0.3450  -20.9181 O   0  0  0  0  0  0  0  0  0  0  0  0
   -7.4467   -1.5170  -21.3504 C   0  0  0  0  0  0  0  0  0  0  0  0
   -6.5133   -1.0680  -20.2598 C   0  0  0  0  0  0  0  0  0  0  0  0
   -6.8144   -1.2209  -18.9325 C   0  0  0  0  0  0  0  0  0  0  0  0
   -5.9815   -0.9022  -17.9072 N   0  0  0  0  0  0  0  0  0  0  0  0
   -4.8209   -0.3751  -18.2215 C   0  0  0  0  0  0  0  0  0  0  0  0
   -4.4312   -0.0524  -19.5477 C   0  0  0  0  0  0  0  0  0  0  0  0
   -3.2683    0.7098  -19.8118 C   0  0  0  0  0  0  0  0  0  0  0  0
   -3.1518    1.3967  -20.9857 C   0  0  0  0  0  0  0  0  0  0  0  0
   -4.0701    1.1539  -22.0441 C   0  0  0  0  0  0  0  0  0  0  0  0
   -5.0914    0.2541  -21.8648 C   0  0  0  0  0  0  0  0  0  0  0  0
   -5.3475   -0.3141  -20.5851 C   0  0  0  0  0  0  0  0  0  0  0  0
   -5.6900   -0.0591  -22.7165 H   0  0  0  0  0  0  0  0  0  0  0  0
   -3.9075    1.6227  -23.0136 H   0  0  0  0  0  0  0  0  0  0  0  0
   -2.2889    2.0248  -21.1729 H   0  0  0  0  0  0  0  0  0  0  0  0
   -2.5598    0.8432  -18.9996 H   0  0  0  0  0  0  0  0  0  0  0  0
   -4.1525   -0.1075  -17.4028 H   0  0  0  0  0  0  0  0  0  0  0  0
   -7.7947   -1.6038  -18.6427 H   0  0  0  0  0  0  0  0  0  0  0  0
   -6.8799   -1.9289  -22.1920 H   0  0  0  0  0  0  0  0  0  0  0  0
   -8.1244   -2.3053  -20.9956 H   0  0  0  0  0  0  0  0  0  0  0  0
   -8.7033    1.9826  -22.5754 H   0  0  0  0  0  0  0  0  0  0  0  0
   -7.1794    1.7049  -23.4174 H   0  0  0  0  0  0  0  0  0  0  0  0
   -9.9830    1.7657  -24.6451 H   0  0  0  0  0  0  0  0  0  0  0  0
   -8.6521    2.8963  -24.9300 H   0  0  0  0  0  0  0  0  0  0  0  0
   -7.3090    1.0362  -25.9465 H   0  0  0  0  0  0  0  0  0  0  0  0
   -8.4540   -1.1731  -26.3123 H   0  0  0  0  0  0  0  0  0  0  0  0
   -9.8759   -0.5679  -25.4600 H   0  0  0  0  0  0  0  0  0  0  0  0
   -7.0988   -1.0722  -24.3331 H   0  0  0  0  0  0  0  0  0  0  0  0
  -10.6969   -1.5023  -23.2706 H   0  0  0  0  0  0  0  0  0  0  0  0
  -11.7235   -3.7142  -22.8682 H   0  0  0  0  0  0  0  0  0  0  0  0
  -10.3815   -5.7639  -23.2692 H   0  0  0  0  0  0  0  0  0  0  0  0
   -8.0511   -5.6264  -23.9461 H   0  0  0  0  0  0  0  0  0  0  0  0
   -5.8990   -5.0418  -23.7587 H   0  0  0  0  0  0  0  0  0  0  0  0
   -5.0328   -4.1930  -25.0743 H   0  0  0  0  0  0  0  0  0  0  0  0
   -6.5073   -5.1351  -25.4438 H   0  0  0  0  0  0  0  0  0  0  0  0
  1  2  1  0
  2  3  1  0
  3  4  2  0
  4  5  1  0
  5  6  2  0
  6  7  1  0
  7  8  2  0
  8  9  1  0
  9 10  1  0
 10 11  1  0
 11 12  1  0
 12 13  1  0
 12 14  1  0
 12 15  1  0
 11 16  1  0
 16 17  1  0
 17 18  1  0
 18 19  1  0
 19 20  2  0
 19 21  1  0
 21 22  1  0
 22 23  2  0
 23 24  1  0
 24 25  2  0
 25 26  1  0
 26 27  2  0
 27 28  1  0
 28 29  2  0
 29 30  1  0
 30 31  2  0
 30 32  1  0
 29 33  1  0
 28 34  1  0
 27 35  1  0
 25 36  1  0
 23 37  1  0
 21 38  1  0
 21 39  1  0
 17 40  1  0
 17 41  1  0
 16 42  1  0
 16 43  1  0
 11 44  1  6
 10 45  1  0
 10 46  1  0
  9 47  1  6
  7 48  1  0
  6 49  1  0
  5 50  1  0
  4 51  1  0
  1 52  1  0
  1 53  1  0
  1 54  1  0
  8  3  1  0
 18  9  1  0
 31 22  1  0
 31 26  1  0
M  END
>  <cnnaffinities>  (79) 
[5.89492, 5.83663]

>  <score>  (79) 
5.89492

>  <index>  (79) 
82

>  <Smiles>  (79) 
C(Oc1c(c(c(c(c1[C@]1(C([C@@](C([H])([H])[H])(C(C(N1C(=O)C(c1c(nc(c2c(c(c(c(c12)[H])[H])[H])[H])[H])[H])([H])[H])([H])[H])([H])[H])[H])([H])[H])[H])[H])[H])[H])[H])([H])([H])[H]

>  <h>  (79) 
<NA>

>  <Training>  (79) 
True

>  <Success>  (79) 
True

>  <enamine_searched>  (79) 
False

>  <enamine_id>  (79) 
nan

$$$$

     RDKit          3D

 46 50  0  0  0  0  0  0  0  0999 V2000
   -6.7966   -0.3953  -26.5226 N   0  0  0  0  0  0  0  0  0  0  0  0
   -8.0634    0.6317  -26.1284 S   0  0  0  0  0  0  0  0  0  0  0  0
   -7.4986    1.6320  -25.2350 O   0  0  0  0  0  0  0  0  0  0  0  0
   -8.7831    1.0239  -27.3326 O   0  0  0  0  0  0  0  0  0  0  0  0
   -9.1184   -0.4621  -25.2390 C   0  0  0  0  0  0  0  0  0  0  0  0
  -10.4929   -0.2691  -25.3231 C   0  0  0  0  0  0  0  0  0  0  0  0
  -11.3565   -1.1045  -24.6327 C   0  0  0  0  0  0  0  0  0  0  0  0
  -10.8170   -2.1003  -23.8173 C   0  0  0  0  0  0  0  0  0  0  0  0
   -9.4338   -2.1867  -23.6184 C   0  0  0  0  0  0  0  0  0  0  0  0
   -8.5855   -1.4287  -24.4076 C   0  0  0  0  0  0  0  0  0  0  0  0
   -7.5140   -1.5727  -24.3306 H   0  0  0  0  0  0  0  0  0  0  0  0
   -8.8516   -2.8717  -22.4077 C   0  0  1  0  0  0  0  0  0  0  0  0
   -9.8821   -3.8531  -21.8412 C   0  0  0  0  0  0  0  0  0  0  0  0
  -11.2679   -3.2438  -21.8531 C   0  0  0  0  0  0  0  0  0  0  0  0
  -11.6665   -2.9637  -23.1928 O   0  0  0  0  0  0  0  0  0  0  0  0
  -12.0047   -3.9395  -21.4346 H   0  0  0  0  0  0  0  0  0  0  0  0
  -11.2592   -2.3028  -21.2845 H   0  0  0  0  0  0  0  0  0  0  0  0
   -9.8618   -4.7564  -22.4594 H   0  0  0  0  0  0  0  0  0  0  0  0
   -9.6037   -4.1057  -20.8260 H   0  0  0  0  0  0  0  0  0  0  0  0
   -7.5688   -3.5095  -22.6521 N   0  0  0  0  0  0  0  0  0  0  0  0
   -6.5319   -3.0093  -21.9144 C   0  0  0  0  0  0  0  0  0  0  0  0
   -5.3649   -3.3252  -21.9225 O   0  0  0  0  0  0  0  0  0  0  0  0
   -7.0887   -2.0104  -21.0998 N   0  0  0  0  0  0  0  0  0  0  0  0
   -6.3169   -1.3914  -20.0841 C   0  0  0  0  0  0  0  0  0  0  0  0
   -6.4322   -1.8131  -18.7838 C   0  0  0  0  0  0  0  0  0  0  0  0
   -5.5361   -1.5173  -17.8131 N   0  0  0  0  0  0  0  0  0  0  0  0
   -4.5059   -0.7782  -18.1574 C   0  0  0  0  0  0  0  0  0  0  0  0
   -4.3329   -0.1911  -19.4391 C   0  0  0  0  0  0  0  0  0  0  0  0
   -3.2615    0.7010  -19.7214 C   0  0  0  0  0  0  0  0  0  0  0  0
   -3.2763    1.4516  -20.8627 C   0  0  0  0  0  0  0  0  0  0  0  0
   -4.2974    1.2679  -21.8251 C   0  0  0  0  0  0  0  0  0  0  0  0
   -5.2920    0.3440  -21.6137 C   0  0  0  0  0  0  0  0  0  0  0  0
   -5.3193   -0.4245  -20.4171 C   0  0  0  0  0  0  0  0  0  0  0  0
   -6.0950    0.2241  -22.3366 H   0  0  0  0  0  0  0  0  0  0  0  0
   -4.2782    1.8504  -22.7426 H   0  0  0  0  0  0  0  0  0  0  0  0
   -2.5091    2.2040  -21.0321 H   0  0  0  0  0  0  0  0  0  0  0  0
   -2.5292    0.8871  -18.9426 H   0  0  0  0  0  0  0  0  0  0  0  0
   -3.7523   -0.5956  -17.3929 H   0  0  0  0  0  0  0  0  0  0  0  0
   -7.2700   -2.4425  -18.4884 H   0  0  0  0  0  0  0  0  0  0  0  0
   -8.4352   -1.8015  -21.3685 C   0  0  0  0  0  0  0  0  0  0  0  0
   -9.1026   -0.8981  -20.9371 O   0  0  0  0  0  0  0  0  0  0  0  0
   -7.3719   -4.0579  -23.4743 H   0  0  0  0  0  0  0  0  0  0  0  0
  -12.4372   -0.9989  -24.6791 H   0  0  0  0  0  0  0  0  0  0  0  0
  -10.8435    0.5531  -25.9263 H   0  0  0  0  0  0  0  0  0  0  0  0
   -6.8867   -0.7045  -27.4868 H   0  0  0  0  0  0  0  0  0  0  0  0
   -5.9281    0.1102  -26.3752 H   0  0  0  0  0  0  0  0  0  0  0  0
  1  2  1  0
  2  3  2  0
  2  4  2  0
  2  5  1  0
  5  6  2  0
  6  7  1  0
  7  8  2  0
  8  9  1  0
  9 10  2  0
 10 11  1  0
  9 12  1  0
 12 13  1  0
 13 14  1  0
 14 15  1  0
 14 16  1  0
 14 17  1  0
 13 18  1  0
 13 19  1  0
 12 20  1  6
 20 21  1  0
 21 22  2  0
 21 23  1  0
 23 24  1  0
 24 25  2  0
 25 26  1  0
 26 27  2  0
 27 28  1  0
 28 29  2  0
 29 30  1  0
 30 31  2  0
 31 32  1  0
 32 33  2  0
 32 34  1  0
 31 35  1  0
 30 36  1  0
 29 37  1  0
 27 38  1  0
 25 39  1  0
 23 40  1  0
 40 41  2  0
 20 42  1  0
  7 43  1  0
  6 44  1  0
  1 45  1  0
  1 46  1  0
 10  5  1  0
 40 12  1  0
 15  8  1  0
 33 24  1  0
 33 28  1  0
M  END
>  <cnnaffinities>  (80) 
[5.27682, 5.21804]

>  <score>  (80) 
5.27682

>  <index>  (80) 
83

>  <Smiles>  (80) 
N(S(=O)(=O)c1c(c(c2c(c1[H])[C@@]1(C(C(O2)([H])[H])([H])[H])N(C(=O)N(c2c(nc(c3c(c(c(c(c23)[H])[H])[H])[H])[H])[H])C1=O)[H])[H])[H])([H])[H]

>  <h>  (80) 
<NA>

>  <Training>  (80) 
True

>  <Success>  (80) 
True

>  <enamine_searched>  (80) 
False

>  <enamine_id>  (80) 
nan

$$$$

     RDKit          3D

 63 68  0  0  0  0  0  0  0  0999 V2000
   -7.9372   -3.4791  -24.1880 C   0  0  0  0  0  0  0  0  0  0  0  0
   -8.2834   -2.8108  -22.8626 C   0  0  1  0  0  0  0  0  0  0  0  0
   -7.0514   -2.5995  -21.9735 C   0  0  0  0  0  0  0  0  0  0  0  0
   -7.4218   -1.4475  -21.1815 N   0  0  0  0  0  0  0  0  0  0  0  0
   -6.5596   -0.9383  -20.1907 C   0  0  0  0  0  0  0  0  0  0  0  0
   -6.8421   -1.1272  -18.8669 C   0  0  0  0  0  0  0  0  0  0  0  0
   -5.9766   -0.8538  -17.8621 N   0  0  0  0  0  0  0  0  0  0  0  0
   -4.8026   -0.3742  -18.2071 C   0  0  0  0  0  0  0  0  0  0  0  0
   -4.4262   -0.0431  -19.5445 C   0  0  0  0  0  0  0  0  0  0  0  0
   -3.2521    0.7065  -19.8392 C   0  0  0  0  0  0  0  0  0  0  0  0
   -3.1546    1.4017  -21.0126 C   0  0  0  0  0  0  0  0  0  0  0  0
   -4.0814    1.1532  -22.0556 C   0  0  0  0  0  0  0  0  0  0  0  0
   -5.1054    0.2614  -21.8629 C   0  0  0  0  0  0  0  0  0  0  0  0
   -5.3650   -0.2629  -20.5674 C   0  0  0  0  0  0  0  0  0  0  0  0
   -5.7459   -0.0034  -22.6943 H   0  0  0  0  0  0  0  0  0  0  0  0
   -3.9638    1.6407  -23.0178 H   0  0  0  0  0  0  0  0  0  0  0  0
   -2.2887    2.0285  -21.2027 H   0  0  0  0  0  0  0  0  0  0  0  0
   -2.5114    0.8211  -19.0565 H   0  0  0  0  0  0  0  0  0  0  0  0
   -4.1054   -0.1381  -17.4028 H   0  0  0  0  0  0  0  0  0  0  0  0
   -7.8117   -1.5168  -18.5758 H   0  0  0  0  0  0  0  0  0  0  0  0
   -8.4707   -0.7087  -21.6756 C   0  0  0  0  0  0  0  0  0  0  0  0
   -8.8488    0.3394  -21.1835 O   0  0  0  0  0  0  0  0  0  0  0  0
   -9.0139   -1.4284  -22.9308 C   0  0  1  0  0  0  0  0  0  0  0  0
   -8.6335   -0.6343  -24.2053 C   0  0  0  0  0  0  0  0  0  0  0  0
   -9.4064    0.5927  -24.3285 N   0  0  0  0  0  0  0  0  0  0  0  0
   -8.7286    1.7835  -24.8085 C   0  0  0  0  0  0  0  0  0  0  0  0
   -7.6833    2.2400  -23.7855 C   0  0  0  0  0  0  0  0  0  0  0  0
   -6.5026    1.9459  -23.8964 O   0  0  0  0  0  0  0  0  0  0  0  0
   -8.1717    2.9484  -22.7310 N   0  0  0  0  0  0  0  0  0  0  0  0
   -7.2991    3.3301  -21.6341 C   0  0  0  0  0  0  0  0  0  0  0  0
   -6.5922    4.6426  -21.8628 C   0  0  0  0  0  0  0  0  0  0  0  0
   -5.6608    4.5269  -22.8688 F   0  0  0  0  0  0  0  0  0  0  0  0
   -7.2856    5.9590  -21.7784 C   0  0  0  0  0  0  0  0  0  0  0  0
   -6.2254    5.5832  -20.7672 C   0  0  0  0  0  0  0  0  0  0  0  0
   -5.2649    6.0758  -20.8656 H   0  0  0  0  0  0  0  0  0  0  0  0
   -6.5279    5.3779  -19.7465 H   0  0  0  0  0  0  0  0  0  0  0  0
   -7.0071    6.7037  -22.5165 H   0  0  0  0  0  0  0  0  0  0  0  0
   -8.3229    5.9859  -21.4576 H   0  0  0  0  0  0  0  0  0  0  0  0
   -7.9152    3.3839  -20.7400 H   0  0  0  0  0  0  0  0  0  0  0  0
   -6.5508    2.5458  -21.4836 H   0  0  0  0  0  0  0  0  0  0  0  0
   -9.1677    2.9545  -22.5595 H   0  0  0  0  0  0  0  0  0  0  0  0
   -9.4879    2.5502  -24.9825 H   0  0  0  0  0  0  0  0  0  0  0  0
   -8.2228    1.5792  -25.7604 H   0  0  0  0  0  0  0  0  0  0  0  0
  -10.7738    0.5651  -24.2671 C   0  0  0  0  0  0  0  0  0  0  0  0
  -11.4809    1.4770  -24.6730 O   0  0  0  0  0  0  0  0  0  0  0  0
  -11.3379   -0.6849  -23.6542 C   0  0  0  0  0  0  0  0  0  0  0  0
  -12.6886   -0.9843  -23.8322 C   0  0  0  0  0  0  0  0  0  0  0  0
  -13.2623   -2.0483  -23.1612 C   0  0  0  0  0  0  0  0  0  0  0  0
  -12.4902   -2.7301  -22.2298 C   0  0  0  0  0  0  0  0  0  0  0  0
  -13.0711   -3.6837  -21.4835 F   0  0  0  0  0  0  0  0  0  0  0  0
  -11.1488   -2.4683  -22.0584 C   0  0  0  0  0  0  0  0  0  0  0  0
  -10.5244   -1.5323  -22.8889 C   0  0  0  0  0  0  0  0  0  0  0  0
  -10.6092   -3.0230  -21.3017 H   0  0  0  0  0  0  0  0  0  0  0  0
  -14.3111   -2.3015  -23.2645 H   0  0  0  0  0  0  0  0  0  0  0  0
  -13.2802   -0.3804  -24.5126 H   0  0  0  0  0  0  0  0  0  0  0  0
   -7.5736   -0.3724  -24.1827 H   0  0  0  0  0  0  0  0  0  0  0  0
   -8.8084   -1.2657  -25.0874 H   0  0  0  0  0  0  0  0  0  0  0  0
   -6.8499   -3.4713  -21.3350 H   0  0  0  0  0  0  0  0  0  0  0  0
   -6.1422   -2.4188  -22.5718 H   0  0  0  0  0  0  0  0  0  0  0  0
   -8.9434   -3.4906  -22.3183 H   0  0  0  0  0  0  0  0  0  0  0  0
   -7.2083   -2.8873  -24.7527 H   0  0  0  0  0  0  0  0  0  0  0  0
   -7.4879   -4.4603  -24.0068 H   0  0  0  0  0  0  0  0  0  0  0  0
   -8.8219   -3.6205  -24.8176 H   0  0  0  0  0  0  0  0  0  0  0  0
  1  2  1  0
  2  3  1  0
  3  4  1  0
  4  5  1  0
  5  6  2  0
  6  7  1  0
  7  8  2  0
  8  9  1  0
  9 10  2  0
 10 11  1  0
 11 12  2  0
 12 13  1  0
 13 14  2  0
 13 15  1  0
 12 16  1  0
 11 17  1  0
 10 18  1  0
  8 19  1  0
  6 20  1  0
  4 21  1  0
 21 22  2  0
 21 23  1  0
 23 24  1  6
 24 25  1  0
 25 26  1  0
 26 27  1  0
 27 28  2  0
 27 29  1  0
 29 30  1  0
 30 31  1  0
 31 32  1  0
 31 33  1  0
 33 34  1  0
 34 35  1  0
 34 36  1  0
 33 37  1  0
 33 38  1  0
 30 39  1  0
 30 40  1  0
 29 41  1  0
 26 42  1  0
 26 43  1  0
 25 44  1  0
 44 45  2  0
 44 46  1  0
 46 47  2  0
 47 48  1  0
 48 49  2  0
 49 50  1  0
 49 51  1  0
 51 52  2  0
 51 53  1  0
 48 54  1  0
 47 55  1  0
 24 56  1  0
 24 57  1  0
  3 58  1  0
  3 59  1  0
  2 60  1  1
  1 61  1  0
  1 62  1  0
  1 63  1  0
 23  2  1  0
 34 31  1  0
 52 46  1  0
 14  5  1  0
 52 23  1  0
 14  9  1  0
M  END
>  <cnnaffinities>  (81) 
[6.67615]

>  <score>  (81) 
6.67615

>  <index>  (81) 
84

>  <Smiles>  (81) 
C([C@]1(C(N(c2c(nc(c3c(c(c(c(c23)[H])[H])[H])[H])[H])[H])C(=O)[C@]21C(N(C(C(=O)N(C(C1(F)C(C1([H])[H])([H])[H])([H])[H])[H])([H])[H])C(=O)c1c(c(c(F)c(c21)[H])[H])[H])([H])[H])([H])[H])[H])([H])([H])[H]

>  <h>  (81) 
<NA>

>  <Training>  (81) 
True

>  <Success>  (81) 
True

>  <enamine_searched>  (81) 
False

>  <enamine_id>  (81) 
nan

$$$$

     RDKit          3D

 57 62  0  0  0  0  0  0  0  0999 V2000
   -9.2800   -8.5961  -23.3917 C   0  0  0  0  0  0  0  0  0  0  0  0
   -8.3735   -7.5712  -22.9234 N   0  0  0  0  0  0  0  0  0  0  0  0
   -7.4213   -7.1402  -23.7927 C   0  0  0  0  0  0  0  0  0  0  0  0
   -7.3738   -7.5117  -24.9527 O   0  0  0  0  0  0  0  0  0  0  0  0
   -6.4549   -6.0982  -23.2590 C   0  0  0  0  0  0  0  0  0  0  0  0
   -6.8138   -4.8207  -23.8293 N   0  0  0  0  0  0  0  0  0  0  0  0
   -8.0426   -4.2098  -23.3657 C   0  0  0  0  0  0  0  0  0  0  0  0
   -7.8633   -2.6899  -23.1958 C   0  0  2  0  0  0  0  0  0  0  0  0
   -6.8603   -2.4646  -22.0418 C   0  0  0  0  0  0  0  0  0  0  0  0
   -5.7986   -3.0141  -21.8504 O   0  0  0  0  0  0  0  0  0  0  0  0
   -7.3600   -1.4875  -21.2151 N   0  0  0  0  0  0  0  0  0  0  0  0
   -6.5454   -0.9659  -20.1968 C   0  0  0  0  0  0  0  0  0  0  0  0
   -6.8346   -1.1609  -18.8692 C   0  0  0  0  0  0  0  0  0  0  0  0
   -5.9624   -0.9044  -17.8683 N   0  0  0  0  0  0  0  0  0  0  0  0
   -4.7891   -0.4134  -18.2075 C   0  0  0  0  0  0  0  0  0  0  0  0
   -4.4398   -0.0181  -19.5333 C   0  0  0  0  0  0  0  0  0  0  0  0
   -3.2672    0.7372  -19.8189 C   0  0  0  0  0  0  0  0  0  0  0  0
   -3.1488    1.4103  -21.0012 C   0  0  0  0  0  0  0  0  0  0  0  0
   -4.0832    1.1857  -22.0482 C   0  0  0  0  0  0  0  0  0  0  0  0
   -5.1436    0.3353  -21.8583 C   0  0  0  0  0  0  0  0  0  0  0  0
   -5.3718   -0.2432  -20.5669 C   0  0  0  0  0  0  0  0  0  0  0  0
   -5.7873    0.0845  -22.7078 H   0  0  0  0  0  0  0  0  0  0  0  0
   -3.9331    1.6890  -22.9998 H   0  0  0  0  0  0  0  0  0  0  0  0
   -2.2678    2.0210  -21.1907 H   0  0  0  0  0  0  0  0  0  0  0  0
   -2.5199    0.8534  -19.0396 H   0  0  0  0  0  0  0  0  0  0  0  0
   -4.0698   -0.2637  -17.4019 H   0  0  0  0  0  0  0  0  0  0  0  0
   -7.7873   -1.5925  -18.5596 H   0  0  0  0  0  0  0  0  0  0  0  0
   -8.7149   -1.1012  -21.4936 C   0  0  0  0  0  0  0  0  0  0  0  0
   -9.1186   -1.9657  -22.6816 C   0  0  0  0  0  0  0  0  0  0  0  0
  -10.4695   -2.6326  -22.6068 C   0  0  0  0  0  0  0  0  0  0  0  0
  -10.2211   -1.5305  -23.6045 C   0  0  0  0  0  0  0  0  0  0  0  0
  -10.1289   -1.8176  -24.6494 H   0  0  0  0  0  0  0  0  0  0  0  0
  -10.6909   -0.5573  -23.4509 H   0  0  0  0  0  0  0  0  0  0  0  0
  -10.5606   -3.6553  -22.9639 H   0  0  0  0  0  0  0  0  0  0  0  0
  -11.0972   -2.4218  -21.7404 H   0  0  0  0  0  0  0  0  0  0  0  0
   -9.3473   -1.3267  -20.6439 H   0  0  0  0  0  0  0  0  0  0  0  0
   -8.7770   -0.0293  -21.7011 H   0  0  0  0  0  0  0  0  0  0  0  0
   -7.2868   -2.1423  -24.5048 C   0  0  0  0  0  0  0  0  0  0  0  0
   -7.4279   -0.7962  -24.8664 C   0  0  0  0  0  0  0  0  0  0  0  0
   -6.9038   -0.3408  -26.0666 C   0  0  0  0  0  0  0  0  0  0  0  0
   -7.0766    1.3396  -26.4953 Cl  0  0  0  0  0  0  0  0  0  0  0  0
   -6.2285   -1.1895  -26.9430 C   0  0  0  0  0  0  0  0  0  0  0  0
   -6.0260   -2.5000  -26.5613 C   0  0  0  0  0  0  0  0  0  0  0  0
   -6.5165   -2.9629  -25.3407 C   0  0  0  0  0  0  0  0  0  0  0  0
   -6.1171   -4.3387  -24.9020 C   0  0  0  0  0  0  0  0  0  0  0  0
   -5.2118   -4.9556  -25.4398 O   0  0  0  0  0  0  0  0  0  0  0  0
   -5.4682   -3.1844  -27.1927 H   0  0  0  0  0  0  0  0  0  0  0  0
   -5.8487   -0.8060  -27.8849 H   0  0  0  0  0  0  0  0  0  0  0  0
   -7.9622   -0.0996  -24.2270 H   0  0  0  0  0  0  0  0  0  0  0  0
   -8.2930   -4.6451  -22.3985 H   0  0  0  0  0  0  0  0  0  0  0  0
   -8.8688   -4.4238  -24.0556 H   0  0  0  0  0  0  0  0  0  0  0  0
   -5.4534   -6.3437  -23.6133 H   0  0  0  0  0  0  0  0  0  0  0  0
   -6.4617   -6.0452  -22.1592 H   0  0  0  0  0  0  0  0  0  0  0  0
   -8.4678   -7.1401  -22.0196 H   0  0  0  0  0  0  0  0  0  0  0  0
  -10.1684   -8.6929  -22.7763 H   0  0  0  0  0  0  0  0  0  0  0  0
   -9.5479   -8.3654  -24.4270 H   0  0  0  0  0  0  0  0  0  0  0  0
   -8.7876   -9.5646  -23.3486 H   0  0  0  0  0  0  0  0  0  0  0  0
  1  2  1  0
  2  3  1  0
  3  4  2  0
  3  5  1  0
  5  6  1  0
  6  7  1  0
  8  7  1  6
  8  9  1  0
  9 10  2  0
  9 11  1  0
 11 12  1  0
 12 13  2  0
 13 14  1  0
 14 15  2  0
 15 16  1  0
 16 17  2  0
 17 18  1  0
 18 19  2  0
 19 20  1  0
 20 21  2  0
 20 22  1  0
 19 23  1  0
 18 24  1  0
 17 25  1  0
 15 26  1  0
 13 27  1  0
 11 28  1  0
 28 29  1  0
 29 30  1  0
 30 31  1  0
 31 32  1  0
 31 33  1  0
 30 34  1  0
 30 35  1  0
 28 36  1  0
 28 37  1  0
  8 38  1  0
 38 39  2  0
 39 40  1  0
 40 41  1  0
 40 42  2  0
 42 43  1  0
 43 44  2  0
 44 45  1  0
 45 46  2  0
 43 47  1  0
 42 48  1  0
 39 49  1  0
  7 50  1  0
  7 51  1  0
  5 52  1  0
  5 53  1  0
  2 54  1  0
  1 55  1  0
  1 56  1  0
  1 57  1  0
 45  6  1  0
 29  8  1  0
 44 38  1  0
 21 12  1  0
 31 29  1  0
 21 16  1  0
M  END
>  <cnnaffinities>  (82) 
[6.2245]

>  <score>  (82) 
6.2245

>  <index>  (82) 
85

>  <Smiles>  (82) 
C(N(C(=O)C(N1C([C@@]2(C(=O)N(c3c(nc(c4c(c(c(c(c34)[H])[H])[H])[H])[H])[H])C(C32C(C3([H])[H])([H])[H])([H])[H])c2c(c(Cl)c(c(c2C1=O)[H])[H])[H])([H])[H])([H])[H])[H])([H])([H])[H]

>  <h>  (82) 
<NA>

>  <Training>  (82) 
True

>  <Success>  (82) 
True

>  <enamine_searched>  (82) 
False

>  <enamine_id>  (82) 
nan

$$$$

     RDKit          3D

 43 45  0  0  0  0  0  0  0  0999 V2000
   -8.0513    0.6755  -26.8019 C   0  0  0  0  0  0  0  0  0  0  0  0
   -9.2801    0.2954  -25.9728 C   0  0  1  0  0  0  0  0  0  0  0  0
   -9.1714   -1.0985  -25.3526 C   0  0  0  0  0  0  0  0  0  0  0  0
   -8.2105   -1.1355  -24.1642 C   0  0  0  0  0  0  0  0  0  0  0  0
   -8.5767   -0.1411  -23.1587 N   0  0  0  0  0  0  0  0  0  0  0  0
   -8.3898   -0.3287  -21.8064 C   0  0  0  0  0  0  0  0  0  0  0  0
   -8.9440    0.3754  -20.9753 O   0  0  0  0  0  0  0  0  0  0  0  0
   -7.4583   -1.4561  -21.3379 C   0  0  0  0  0  0  0  0  0  0  0  0
   -6.5099   -1.0099  -20.2551 C   0  0  0  0  0  0  0  0  0  0  0  0
   -6.8201   -1.1458  -18.9263 C   0  0  0  0  0  0  0  0  0  0  0  0
   -6.0301   -0.7773  -17.8776 N   0  0  0  0  0  0  0  0  0  0  0  0
   -4.8713   -0.2417  -18.1851 C   0  0  0  0  0  0  0  0  0  0  0  0
   -4.4432    0.0136  -19.5241 C   0  0  0  0  0  0  0  0  0  0  0  0
   -3.2733    0.7866  -19.7822 C   0  0  0  0  0  0  0  0  0  0  0  0
   -3.1328    1.4289  -20.9827 C   0  0  0  0  0  0  0  0  0  0  0  0
   -4.0234    1.1157  -22.0443 C   0  0  0  0  0  0  0  0  0  0  0  0
   -5.0414    0.2089  -21.8783 C   0  0  0  0  0  0  0  0  0  0  0  0
   -5.3210   -0.3013  -20.5855 C   0  0  0  0  0  0  0  0  0  0  0  0
   -5.6875   -0.0706  -22.7124 H   0  0  0  0  0  0  0  0  0  0  0  0
   -3.8647    1.5638  -23.0161 H   0  0  0  0  0  0  0  0  0  0  0  0
   -2.3059    2.1197  -21.1420 H   0  0  0  0  0  0  0  0  0  0  0  0
   -2.5689    0.9314  -18.9634 H   0  0  0  0  0  0  0  0  0  0  0  0
   -4.2432    0.1381  -17.3692 H   0  0  0  0  0  0  0  0  0  0  0  0
   -7.7978   -1.5430  -18.6603 H   0  0  0  0  0  0  0  0  0  0  0  0
   -6.8975   -1.8493  -22.1894 H   0  0  0  0  0  0  0  0  0  0  0  0
   -8.1174   -2.2501  -20.9601 H   0  0  0  0  0  0  0  0  0  0  0  0
   -8.7919    1.2458  -23.6014 C   0  0  1  0  0  0  0  0  0  0  0  0
   -7.4717    2.0142  -23.7148 C   0  0  0  0  0  0  0  0  0  0  0  0
   -7.6457    3.0024  -24.1539 H   0  0  0  0  0  0  0  0  0  0  0  0
   -6.7503    1.4838  -24.3444 H   0  0  0  0  0  0  0  0  0  0  0  0
   -7.0130    2.1456  -22.7282 H   0  0  0  0  0  0  0  0  0  0  0  0
   -9.6457    1.3004  -24.8734 C   0  0  0  0  0  0  0  0  0  0  0  0
  -10.6873    1.1219  -24.5841 H   0  0  0  0  0  0  0  0  0  0  0  0
   -9.6131    2.3244  -25.2708 H   0  0  0  0  0  0  0  0  0  0  0  0
   -9.3701    1.7138  -22.7994 H   0  0  0  0  0  0  0  0  0  0  0  0
   -7.1742   -0.9926  -24.5126 H   0  0  0  0  0  0  0  0  0  0  0  0
   -8.2608   -2.1280  -23.7079 H   0  0  0  0  0  0  0  0  0  0  0  0
   -8.8505   -1.8322  -26.1022 H   0  0  0  0  0  0  0  0  0  0  0  0
  -10.1599   -1.4217  -25.0100 H   0  0  0  0  0  0  0  0  0  0  0  0
  -10.1262    0.2829  -26.6711 H   0  0  0  0  0  0  0  0  0  0  0  0
   -7.1147    0.5760  -26.2460 H   0  0  0  0  0  0  0  0  0  0  0  0
   -8.1197    1.7102  -27.1548 H   0  0  0  0  0  0  0  0  0  0  0  0
   -7.9701    0.0293  -27.6834 H   0  0  0  0  0  0  0  0  0  0  0  0
  1  2  1  0
  2  3  1  0
  3  4  1  0
  4  5  1  0
  5  6  1  0
  6  7  2  0
  6  8  1  0
  8  9  1  0
  9 10  2  0
 10 11  1  0
 11 12  2  0
 12 13  1  0
 13 14  2  0
 14 15  1  0
 15 16  2  0
 16 17  1  0
 17 18  2  0
 17 19  1  0
 16 20  1  0
 15 21  1  0
 14 22  1  0
 12 23  1  0
 10 24  1  0
  8 25  1  0
  8 26  1  0
  5 27  1  0
 27 28  1  0
 28 29  1  0
 28 30  1  0
 28 31  1  0
 27 32  1  0
 32 33  1  0
 32 34  1  0
 27 35  1  1
  4 36  1  0
  4 37  1  0
  3 38  1  0
  3 39  1  0
  2 40  1  6
  1 41  1  0
  1 42  1  0
  1 43  1  0
 32  2  1  0
 18  9  1  0
 18 13  1  0
M  END
>  <cnnaffinities>  (83) 
[4.78482, 5.27414, 5.34075, 4.7573]

>  <score>  (83) 
4.78482

>  <index>  (83) 
86

>  <Smiles>  (83) 
C([C@]1(C(C(N(C(=O)C(c2c(nc(c3c(c(c(c(c23)[H])[H])[H])[H])[H])[H])([H])[H])[C@@](C([H])([H])[H])(C1([H])[H])[H])([H])[H])([H])[H])[H])([H])([H])[H]

>  <h>  (83) 
<NA>

>  <Training>  (83) 
True

>  <Success>  (83) 
True

>  <enamine_searched>  (83) 
False

>  <enamine_id>  (83) 
nan

$$$$

     RDKit          3D

 59 64  0  0  0  0  0  0  0  0999 V2000
   -7.9033   -3.6920  -24.0731 C   0  0  0  0  0  0  0  0  0  0  0  0
   -8.2677   -2.9034  -22.8237 C   0  0  1  0  0  0  0  0  0  0  0  0
   -7.0460   -2.6850  -21.9233 C   0  0  0  0  0  0  0  0  0  0  0  0
   -7.3977   -1.4873  -21.2002 N   0  0  0  0  0  0  0  0  0  0  0  0
   -6.5483   -0.9645  -20.2044 C   0  0  0  0  0  0  0  0  0  0  0  0
   -6.8396   -1.1316  -18.8804 C   0  0  0  0  0  0  0  0  0  0  0  0
   -5.9843   -0.8460  -17.8680 N   0  0  0  0  0  0  0  0  0  0  0  0
   -4.8175   -0.3453  -18.2019 C   0  0  0  0  0  0  0  0  0  0  0  0
   -4.4400   -0.0214  -19.5366 C   0  0  0  0  0  0  0  0  0  0  0  0
   -3.2668    0.7305  -19.8199 C   0  0  0  0  0  0  0  0  0  0  0  0
   -3.1584    1.4075  -21.0018 C   0  0  0  0  0  0  0  0  0  0  0  0
   -4.0757    1.1489  -22.0527 C   0  0  0  0  0  0  0  0  0  0  0  0
   -5.0861    0.2409  -21.8669 C   0  0  0  0  0  0  0  0  0  0  0  0
   -5.3609   -0.2709  -20.5682 C   0  0  0  0  0  0  0  0  0  0  0  0
   -5.6906   -0.0685  -22.7098 H   0  0  0  0  0  0  0  0  0  0  0  0
   -3.9217    1.6072  -23.0234 H   0  0  0  0  0  0  0  0  0  0  0  0
   -2.2994    2.0448  -21.1847 H   0  0  0  0  0  0  0  0  0  0  0  0
   -2.5493    0.8585  -19.0149 H   0  0  0  0  0  0  0  0  0  0  0  0
   -4.1292   -0.0831  -17.3986 H   0  0  0  0  0  0  0  0  0  0  0  0
   -7.8126   -1.5280  -18.6074 H   0  0  0  0  0  0  0  0  0  0  0  0
   -8.4411   -0.7673  -21.7337 C   0  0  0  0  0  0  0  0  0  0  0  0
   -8.8947    0.2396  -21.2298 O   0  0  0  0  0  0  0  0  0  0  0  0
   -8.9086   -1.4887  -23.0202 C   0  0  1  0  0  0  0  0  0  0  0  0
   -8.3590   -0.8244  -24.3117 C   0  0  0  0  0  0  0  0  0  0  0  0
   -9.0025    0.4403  -24.6123 N   0  0  0  0  0  0  0  0  0  0  0  0
   -8.2641    1.5244  -25.2439 C   0  0  0  0  0  0  0  0  0  0  0  0
   -8.1347    2.7118  -24.3346 C   0  0  0  0  0  0  0  0  0  0  0  0
   -7.5605    2.8290  -23.0822 C   0  0  0  0  0  0  0  0  0  0  0  0
   -7.7703    4.1725  -22.7222 C   0  0  0  0  0  0  0  0  0  0  0  0
   -8.4144    4.8376  -23.6739 N   0  0  0  0  0  0  0  0  0  0  0  0
   -8.6316    3.9372  -24.6425 N   0  0  0  0  0  0  0  0  0  0  0  0
   -9.3155    4.3581  -25.8545 C   0  0  0  0  0  0  0  0  0  0  0  0
  -10.2108    3.7547  -26.0273 H   0  0  0  0  0  0  0  0  0  0  0  0
   -8.6499    4.2948  -26.7232 H   0  0  0  0  0  0  0  0  0  0  0  0
   -9.5898    5.4011  -25.6973 H   0  0  0  0  0  0  0  0  0  0  0  0
   -7.4731    4.6908  -21.8186 H   0  0  0  0  0  0  0  0  0  0  0  0
   -7.0684    2.0596  -22.4988 H   0  0  0  0  0  0  0  0  0  0  0  0
   -8.7638    1.8079  -26.1777 H   0  0  0  0  0  0  0  0  0  0  0  0
   -7.2725    1.1513  -25.5190 H   0  0  0  0  0  0  0  0  0  0  0  0
  -10.3597    0.5786  -24.5571 C   0  0  0  0  0  0  0  0  0  0  0  0
  -10.9323    1.5576  -25.0276 O   0  0  0  0  0  0  0  0  0  0  0  0
  -11.1016   -0.5425  -23.8991 C   0  0  0  0  0  0  0  0  0  0  0  0
  -12.4798   -0.6502  -24.0921 C   0  0  0  0  0  0  0  0  0  0  0  0
  -13.2081   -1.6249  -23.4388 C   0  0  0  0  0  0  0  0  0  0  0  0
  -12.5407   -2.4130  -22.5054 C   0  0  0  0  0  0  0  0  0  0  0  0
  -13.2472   -3.2977  -21.7837 F   0  0  0  0  0  0  0  0  0  0  0  0
  -11.1808   -2.3211  -22.2903 C   0  0  0  0  0  0  0  0  0  0  0  0
  -10.4211   -1.4571  -23.0844 C   0  0  0  0  0  0  0  0  0  0  0  0
  -10.7237   -2.9349  -21.5207 H   0  0  0  0  0  0  0  0  0  0  0  0
  -14.2779   -1.7481  -23.5813 H   0  0  0  0  0  0  0  0  0  0  0  0
  -12.9715    0.0644  -24.7382 H   0  0  0  0  0  0  0  0  0  0  0  0
   -8.5153   -1.5193  -25.1479 H   0  0  0  0  0  0  0  0  0  0  0  0
   -7.2803   -0.6570  -24.2207 H   0  0  0  0  0  0  0  0  0  0  0  0
   -6.1169   -2.5680  -22.5081 H   0  0  0  0  0  0  0  0  0  0  0  0
   -6.8861   -3.5205  -21.2299 H   0  0  0  0  0  0  0  0  0  0  0  0
   -8.9798   -3.4933  -22.2406 H   0  0  0  0  0  0  0  0  0  0  0  0
   -8.7629   -3.8303  -24.7356 H   0  0  0  0  0  0  0  0  0  0  0  0
   -7.1095   -3.1875  -24.6373 H   0  0  0  0  0  0  0  0  0  0  0  0
   -7.5246   -4.6776  -23.7858 H   0  0  0  0  0  0  0  0  0  0  0  0
  1  2  1  0
  2  3  1  0
  3  4  1  0
  4  5  1  0
  5  6  2  0
  6  7  1  0
  7  8  2  0
  8  9  1  0
  9 10  2  0
 10 11  1  0
 11 12  2  0
 12 13  1  0
 13 14  2  0
 13 15  1  0
 12 16  1  0
 11 17  1  0
 10 18  1  0
  8 19  1  0
  6 20  1  0
  4 21  1  0
 21 22  2  0
 21 23  1  0
 23 24  1  6
 24 25  1  0
 25 26  1  0
 26 27  1  0
 27 28  2  0
 28 29  1  0
 29 30  2  0
 30 31  1  0
 31 32  1  0
 32 33  1  0
 32 34  1  0
 32 35  1  0
 29 36  1  0
 28 37  1  0
 26 38  1  0
 26 39  1  0
 25 40  1  0
 40 41  2  0
 40 42  1  0
 42 43  2  0
 43 44  1  0
 44 45  2  0
 45 46  1  0
 45 47  1  0
 47 48  2  0
 47 49  1  0
 44 50  1  0
 43 51  1  0
 24 52  1  0
 24 53  1  0
  3 54  1  0
  3 55  1  0
  2 56  1  1
  1 57  1  0
  1 58  1  0
  1 59  1  0
 23  2  1  0
 31 27  1  0
 48 42  1  0
 14  5  1  0
 48 23  1  0
 14  9  1  0
M  END
>  <cnnaffinities>  (84) 
[6.58686, 6.36766]

>  <score>  (84) 
6.58686

>  <index>  (84) 
87

>  <Smiles>  (84) 
C([C@]1(C(N(c2c(nc(c3c(c(c(c(c23)[H])[H])[H])[H])[H])[H])C(=O)[C@]21C(N(C(c1c(c(nn1C([H])([H])[H])[H])[H])([H])[H])C(=O)c1c(c(c(F)c(c21)[H])[H])[H])([H])[H])([H])[H])[H])([H])([H])[H]

>  <h>  (84) 
<NA>

>  <Training>  (84) 
True

>  <Success>  (84) 
True

>  <enamine_searched>  (84) 
False

>  <enamine_id>  (84) 
nan

$$$$

     RDKit          3D

 40 42  0  0  0  0  0  0  0  0999 V2000
   -8.8300   -3.2954  -21.5609 O   0  0  0  0  0  0  0  0  0  0  0  0
   -7.6915   -2.8687  -21.6676 C   0  0  0  0  0  0  0  0  0  0  0  0
   -7.4333   -1.3750  -21.4182 C   0  0  0  0  0  0  0  0  0  0  0  0
   -6.4546   -0.9909  -20.3236 C   0  0  0  0  0  0  0  0  0  0  0  0
   -6.7144   -1.2819  -18.9993 C   0  0  0  0  0  0  0  0  0  0  0  0
   -5.8515   -1.0913  -17.9709 N   0  0  0  0  0  0  0  0  0  0  0  0
   -4.6982   -0.5391  -18.2612 C   0  0  0  0  0  0  0  0  0  0  0  0
   -4.3511   -0.0508  -19.5512 C   0  0  0  0  0  0  0  0  0  0  0  0
   -3.1816    0.7308  -19.7689 C   0  0  0  0  0  0  0  0  0  0  0  0
   -3.0256    1.4523  -20.9202 C   0  0  0  0  0  0  0  0  0  0  0  0
   -3.9336    1.2705  -21.9893 C   0  0  0  0  0  0  0  0  0  0  0  0
   -4.9736    0.3760  -21.8693 C   0  0  0  0  0  0  0  0  0  0  0  0
   -5.2739   -0.2337  -20.6126 C   0  0  0  0  0  0  0  0  0  0  0  0
   -5.5257    0.0926  -22.7665 H   0  0  0  0  0  0  0  0  0  0  0  0
   -3.7885    1.8377  -22.9070 H   0  0  0  0  0  0  0  0  0  0  0  0
   -2.1464    2.0822  -21.0517 H   0  0  0  0  0  0  0  0  0  0  0  0
   -2.4620    0.8228  -18.9655 H   0  0  0  0  0  0  0  0  0  0  0  0
   -3.9897   -0.4277  -17.4360 H   0  0  0  0  0  0  0  0  0  0  0  0
   -7.6646   -1.7132  -18.6961 H   0  0  0  0  0  0  0  0  0  0  0  0
   -7.1349   -0.9191  -22.3695 H   0  0  0  0  0  0  0  0  0  0  0  0
   -8.4394   -1.0096  -21.1916 H   0  0  0  0  0  0  0  0  0  0  0  0
   -6.6736   -3.6885  -22.0988 N   0  0  0  0  0  0  0  0  0  0  0  0
   -7.1325   -4.9097  -22.7727 C   0  0  0  0  0  0  0  0  0  0  0  0
   -6.0423   -5.9630  -22.8629 C   0  0  0  0  0  0  0  0  0  0  0  0
   -4.7895   -5.3842  -23.5189 C   0  0  0  0  0  0  0  0  0  0  0  0
   -3.7145   -6.4457  -23.6502 C   0  0  0  0  0  0  0  0  0  0  0  0
   -3.4136   -6.9444  -22.4135 F   0  0  0  0  0  0  0  0  0  0  0  0
   -4.1703   -7.4821  -24.4146 F   0  0  0  0  0  0  0  0  0  0  0  0
   -2.7785   -6.0896  -24.1001 H   0  0  0  0  0  0  0  0  0  0  0  0
   -4.3241   -4.2024  -22.6748 C   0  0  0  0  0  0  0  0  0  0  0  0
   -5.4003   -3.1312  -22.5491 C   0  0  0  0  0  0  0  0  0  0  0  0
   -5.5208   -2.6136  -23.5148 H   0  0  0  0  0  0  0  0  0  0  0  0
   -5.0800   -2.3918  -21.8165 H   0  0  0  0  0  0  0  0  0  0  0  0
   -4.0830   -4.5737  -21.6782 H   0  0  0  0  0  0  0  0  0  0  0  0
   -3.4189   -3.7511  -23.0961 H   0  0  0  0  0  0  0  0  0  0  0  0
   -5.0167   -5.0507  -24.5419 H   0  0  0  0  0  0  0  0  0  0  0  0
   -6.3986   -6.8303  -23.4313 H   0  0  0  0  0  0  0  0  0  0  0  0
   -5.7816   -6.3082  -21.8554 H   0  0  0  0  0  0  0  0  0  0  0  0
   -7.4905   -4.6652  -23.7866 H   0  0  0  0  0  0  0  0  0  0  0  0
   -7.9927   -5.2815  -22.2136 H   0  0  0  0  0  0  0  0  0  0  0  0
  1  2  2  0
  2  3  1  0
  3  4  1  0
  4  5  2  0
  5  6  1  0
  6  7  2  0
  7  8  1  0
  8  9  2  0
  9 10  1  0
 10 11  2  0
 11 12  1  0
 12 13  2  0
 12 14  1  0
 11 15  1  0
 10 16  1  0
  9 17  1  0
  7 18  1  0
  5 19  1  0
  3 20  1  0
  3 21  1  0
  2 22  1  0
 22 23  1  0
 23 24  1  0
 24 25  1  0
 25 26  1  0
 26 27  1  0
 26 28  1  0
 26 29  1  0
 25 30  1  0
 30 31  1  0
 31 32  1  0
 31 33  1  0
 30 34  1  0
 30 35  1  0
 25 36  1  0
 24 37  1  0
 24 38  1  0
 23 39  1  0
 23 40  1  0
 13  4  1  0
 31 22  1  0
 13  8  1  0
M  END
>  <cnnaffinities>  (85) 
[5.29854, 5.37442, 5.34489, 4.64073]

>  <score>  (85) 
5.29854

>  <index>  (85) 
88

>  <Smiles>  (85) 
O=C(C(c1c(nc(c2c(c(c(c(c12)[H])[H])[H])[H])[H])[H])([H])[H])N1C(C(C(C(F)(F)[H])(C(C1([H])[H])([H])[H])[H])([H])[H])([H])[H]

>  <h>  (85) 
<NA>

>  <Training>  (85) 
True

>  <Success>  (85) 
True

>  <enamine_searched>  (85) 
False

>  <enamine_id>  (85) 
nan

$$$$

     RDKit          3D

 43 45  0  0  0  0  0  0  0  0999 V2000
   -6.2515    1.4943  -26.6441 C   0  0  0  0  0  0  0  0  0  0  0  0
   -7.4326    1.1152  -25.7457 C   0  0  0  0  0  0  0  0  0  0  0  0
   -8.7309    1.3490  -26.5339 C   0  0  0  0  0  0  0  0  0  0  0  0
   -9.6332    1.1114  -25.9634 H   0  0  0  0  0  0  0  0  0  0  0  0
   -8.7491    0.7386  -27.4442 H   0  0  0  0  0  0  0  0  0  0  0  0
   -8.8059    2.3997  -26.8378 H   0  0  0  0  0  0  0  0  0  0  0  0
   -7.2772   -0.3639  -25.3396 C   0  0  0  0  0  0  0  0  0  0  0  0
   -8.2470   -0.7881  -24.2404 C   0  0  0  0  0  0  0  0  0  0  0  0
   -8.1571    0.1194  -23.0986 N   0  0  0  0  0  0  0  0  0  0  0  0
   -8.2630   -0.2666  -21.7780 C   0  0  0  0  0  0  0  0  0  0  0  0
   -8.9075    0.3740  -20.9643 O   0  0  0  0  0  0  0  0  0  0  0  0
   -7.4440   -1.4827  -21.3292 C   0  0  0  0  0  0  0  0  0  0  0  0
   -6.4784   -1.0597  -20.2482 C   0  0  0  0  0  0  0  0  0  0  0  0
   -6.8022   -1.1680  -18.9211 C   0  0  0  0  0  0  0  0  0  0  0  0
   -6.0166   -0.7882  -17.8742 N   0  0  0  0  0  0  0  0  0  0  0  0
   -4.8607   -0.2464  -18.1832 C   0  0  0  0  0  0  0  0  0  0  0  0
   -4.4311    0.0019  -19.5205 C   0  0  0  0  0  0  0  0  0  0  0  0
   -3.2671    0.7814  -19.7825 C   0  0  0  0  0  0  0  0  0  0  0  0
   -3.1346    1.4264  -20.9801 C   0  0  0  0  0  0  0  0  0  0  0  0
   -4.0283    1.1138  -22.0381 C   0  0  0  0  0  0  0  0  0  0  0  0
   -5.0354    0.1984  -21.8682 C   0  0  0  0  0  0  0  0  0  0  0  0
   -5.3032   -0.3273  -20.5785 C   0  0  0  0  0  0  0  0  0  0  0  0
   -5.6739   -0.0885  -22.6983 H   0  0  0  0  0  0  0  0  0  0  0  0
   -3.8701    1.5607  -23.0129 H   0  0  0  0  0  0  0  0  0  0  0  0
   -2.3092    2.1166  -21.1392 H   0  0  0  0  0  0  0  0  0  0  0  0
   -2.5622    0.9281  -18.9641 H   0  0  0  0  0  0  0  0  0  0  0  0
   -4.2363    0.1359  -17.3667 H   0  0  0  0  0  0  0  0  0  0  0  0
   -7.7858   -1.5558  -18.6571 H   0  0  0  0  0  0  0  0  0  0  0  0
   -8.1502   -2.2275  -20.9423 H   0  0  0  0  0  0  0  0  0  0  0  0
   -6.9171   -1.9177  -22.1834 H   0  0  0  0  0  0  0  0  0  0  0  0
   -8.4036    1.5241  -23.4127 C   0  0  0  0  0  0  0  0  0  0  0  0
   -7.4063    1.9872  -24.4740 C   0  0  0  0  0  0  0  0  0  0  0  0
   -7.5808    3.0401  -24.7302 H   0  0  0  0  0  0  0  0  0  0  0  0
   -6.4003    1.9358  -24.0323 H   0  0  0  0  0  0  0  0  0  0  0  0
   -9.4437    1.6821  -23.7358 H   0  0  0  0  0  0  0  0  0  0  0  0
   -8.2784    2.0929  -22.4881 H   0  0  0  0  0  0  0  0  0  0  0  0
   -9.2742   -0.8004  -24.6376 H   0  0  0  0  0  0  0  0  0  0  0  0
   -8.0428   -1.8085  -23.9105 H   0  0  0  0  0  0  0  0  0  0  0  0
   -6.2506   -0.5198  -24.9822 H   0  0  0  0  0  0  0  0  0  0  0  0
   -7.3978   -1.0084  -26.2189 H   0  0  0  0  0  0  0  0  0  0  0  0
   -5.2976    1.3400  -26.1274 H   0  0  0  0  0  0  0  0  0  0  0  0
   -6.3036    2.5464  -26.9460 H   0  0  0  0  0  0  0  0  0  0  0  0
   -6.2415    0.8827  -27.5539 H   0  0  0  0  0  0  0  0  0  0  0  0
  1  2  1  0
  2  3  1  0
  3  4  1  0
  3  5  1  0
  3  6  1  0
  2  7  1  0
  7  8  1  0
  8  9  1  0
  9 10  1  0
 10 11  2  0
 10 12  1  0
 12 13  1  0
 13 14  2  0
 14 15  1  0
 15 16  2  0
 16 17  1  0
 17 18  2  0
 18 19  1  0
 19 20  2  0
 20 21  1  0
 21 22  2  0
 21 23  1  0
 20 24  1  0
 19 25  1  0
 18 26  1  0
 16 27  1  0
 14 28  1  0
 12 29  1  0
 12 30  1  0
  9 31  1  0
 31 32  1  0
 32 33  1  0
 32 34  1  0
 31 35  1  0
 31 36  1  0
  8 37  1  0
  8 38  1  0
  7 39  1  0
  7 40  1  0
  1 41  1  0
  1 42  1  0
  1 43  1  0
 32  2  1  0
 22 13  1  0
 22 17  1  0
M  END
>  <cnnaffinities>  (86) 
[4.70402, 4.70403, 4.70404, 4.70404, 4.64688, 4.71581, 4.71581, 4.71583, 5.07275]

>  <score>  (86) 
4.70402

>  <index>  (86) 
89

>  <Smiles>  (86) 
C(C1(C([H])([H])[H])C(C(N(C(=O)C(c2c(nc(c3c(c(c(c(c23)[H])[H])[H])[H])[H])[H])([H])[H])C(C1([H])[H])([H])[H])([H])[H])([H])[H])([H])([H])[H]

>  <h>  (86) 
<NA>

>  <Training>  (86) 
True

>  <Success>  (86) 
True

>  <enamine_searched>  (86) 
False

>  <enamine_id>  (86) 
nan

$$$$

     RDKit          3D

 64 68  0  0  0  0  0  0  0  0999 V2000
   -7.3579    3.1445  -21.6787 C   0  0  0  0  0  0  0  0  0  0  0  0
   -8.3694    2.6784  -22.6154 N   0  0  0  0  0  0  0  0  0  0  0  0
   -7.9909    2.0433  -23.7529 C   0  0  0  0  0  0  0  0  0  0  0  0
   -6.8127    1.8882  -24.0532 O   0  0  0  0  0  0  0  0  0  0  0  0
   -9.1276    1.5283  -24.6549 C   0  0  0  0  0  0  0  0  0  0  0  0
   -9.6914    0.2818  -24.1581 N   0  0  0  0  0  0  0  0  0  0  0  0
   -8.8349   -0.8899  -24.0563 C   0  0  0  0  0  0  0  0  0  0  0  0
   -9.1326   -1.7022  -22.7655 C   0  0  2  0  0  0  0  0  0  0  0  0
   -8.5794   -0.9382  -21.5335 C   0  0  0  0  0  0  0  0  0  0  0  0
   -9.0470    0.0331  -20.9770 O   0  0  0  0  0  0  0  0  0  0  0  0
   -7.3831   -1.5191  -21.1764 N   0  0  0  0  0  0  0  0  0  0  0  0
   -6.5450   -0.9836  -20.1754 C   0  0  0  0  0  0  0  0  0  0  0  0
   -6.8217   -1.1854  -18.8477 C   0  0  0  0  0  0  0  0  0  0  0  0
   -5.9256   -0.9481  -17.8606 N   0  0  0  0  0  0  0  0  0  0  0  0
   -4.7576   -0.4527  -18.2059 C   0  0  0  0  0  0  0  0  0  0  0  0
   -4.4166   -0.0369  -19.5297 C   0  0  0  0  0  0  0  0  0  0  0  0
   -3.2516    0.7359  -19.8293 C   0  0  0  0  0  0  0  0  0  0  0  0
   -3.1576    1.4061  -21.0192 C   0  0  0  0  0  0  0  0  0  0  0  0
   -4.1053    1.1757  -22.0501 C   0  0  0  0  0  0  0  0  0  0  0  0
   -5.1553    0.3156  -21.8330 C   0  0  0  0  0  0  0  0  0  0  0  0
   -5.3698   -0.2615  -20.5476 C   0  0  0  0  0  0  0  0  0  0  0  0
   -5.8490    0.1313  -22.6470 H   0  0  0  0  0  0  0  0  0  0  0  0
   -4.0121    1.7071  -22.9953 H   0  0  0  0  0  0  0  0  0  0  0  0
   -2.2858    2.0242  -21.2176 H   0  0  0  0  0  0  0  0  0  0  0  0
   -2.5003    0.8687  -19.0531 H   0  0  0  0  0  0  0  0  0  0  0  0
   -4.0339   -0.3166  -17.4005 H   0  0  0  0  0  0  0  0  0  0  0  0
   -7.7784   -1.5966  -18.5320 H   0  0  0  0  0  0  0  0  0  0  0  0
   -6.9743   -2.6247  -22.0107 C   0  0  0  0  0  0  0  0  0  0  0  0
   -8.2948   -3.0119  -22.6914 C   0  0  2  0  0  0  0  0  0  0  0  0
   -8.1376   -3.7939  -23.9904 C   0  0  0  0  0  0  0  0  0  0  0  0
   -7.4595   -5.4103  -23.6674 S   0  0  0  0  0  0  0  0  0  0  0  0
   -6.0841   -5.2794  -23.2073 O   0  0  0  0  0  0  0  0  0  0  0  0
   -8.4337   -6.1636  -22.8851 O   0  0  0  0  0  0  0  0  0  0  0  0
   -7.3447   -6.0099  -25.2113 N   0  0  0  0  0  0  0  0  0  0  0  0
   -8.5680   -6.4947  -25.8396 C   0  0  0  0  0  0  0  0  0  0  0  0
   -9.1648   -5.6386  -26.1674 H   0  0  0  0  0  0  0  0  0  0  0  0
   -8.2815   -7.0706  -26.7220 H   0  0  0  0  0  0  0  0  0  0  0  0
   -9.1801   -7.1113  -25.1719 H   0  0  0  0  0  0  0  0  0  0  0  0
   -6.5488   -6.6358  -25.2431 H   0  0  0  0  0  0  0  0  0  0  0  0
   -7.4530   -3.3099  -24.6928 H   0  0  0  0  0  0  0  0  0  0  0  0
   -9.1090   -3.9525  -24.4727 H   0  0  0  0  0  0  0  0  0  0  0  0
   -8.8127   -3.6803  -22.0016 H   0  0  0  0  0  0  0  0  0  0  0  0
   -6.5608   -3.4448  -21.4173 H   0  0  0  0  0  0  0  0  0  0  0  0
   -6.2008   -2.3281  -22.7355 H   0  0  0  0  0  0  0  0  0  0  0  0
  -10.6289   -1.9258  -22.6920 C   0  0  0  0  0  0  0  0  0  0  0  0
  -11.1696   -2.9289  -21.8740 C   0  0  0  0  0  0  0  0  0  0  0  0
  -12.5238   -3.1813  -21.9315 C   0  0  0  0  0  0  0  0  0  0  0  0
  -13.0530   -4.1177  -21.1294 F   0  0  0  0  0  0  0  0  0  0  0  0
  -13.3756   -2.5140  -22.8023 C   0  0  0  0  0  0  0  0  0  0  0  0
  -12.8606   -1.4708  -23.5471 C   0  0  0  0  0  0  0  0  0  0  0  0
  -11.5131   -1.1308  -23.4372 C   0  0  0  0  0  0  0  0  0  0  0  0
  -11.0526    0.1374  -24.0974 C   0  0  0  0  0  0  0  0  0  0  0  0
  -11.8344    0.9646  -24.5391 O   0  0  0  0  0  0  0  0  0  0  0  0
  -13.4933   -0.8776  -24.2008 H   0  0  0  0  0  0  0  0  0  0  0  0
  -14.4212   -2.7970  -22.8496 H   0  0  0  0  0  0  0  0  0  0  0  0
  -10.5716   -3.5127  -21.1836 H   0  0  0  0  0  0  0  0  0  0  0  0
   -7.8000   -0.5377  -24.0553 H   0  0  0  0  0  0  0  0  0  0  0  0
   -8.9895   -1.5257  -24.9421 H   0  0  0  0  0  0  0  0  0  0  0  0
   -9.9629    2.2357  -24.7063 H   0  0  0  0  0  0  0  0  0  0  0  0
   -8.7106    1.4140  -25.6667 H   0  0  0  0  0  0  0  0  0  0  0  0
   -9.3171    2.5575  -22.2859 H   0  0  0  0  0  0  0  0  0  0  0  0
   -6.6977    3.8695  -22.1623 H   0  0  0  0  0  0  0  0  0  0  0  0
   -6.7368    2.3137  -21.3196 H   0  0  0  0  0  0  0  0  0  0  0  0
   -7.8397    3.6257  -20.8269 H   0  0  0  0  0  0  0  0  0  0  0  0
  1  2  1  0
  2  3  1  0
  3  4  2  0
  3  5  1  0
  5  6  1  0
  6  7  1  0
  8  7  1  6
  8  9  1  0
  9 10  2  0
  9 11  1  0
 11 12  1  0
 12 13  2  0
 13 14  1  0
 14 15  2  0
 15 16  1  0
 16 17  2  0
 17 18  1  0
 18 19  2  0
 19 20  1  0
 20 21  2  0
 20 22  1  0
 19 23  1  0
 18 24  1  0
 17 25  1  0
 15 26  1  0
 13 27  1  0
 11 28  1  0
 28 29  1  0
 29 30  1  0
 30 31  1  0
 31 32  2  0
 31 33  2  0
 31 34  1  0
 34 35  1  0
 35 36  1  0
 35 37  1  0
 35 38  1  0
 34 39  1  0
 30 40  1  0
 30 41  1  0
 29 42  1  1
 28 43  1  0
 28 44  1  0
  8 45  1  0
 45 46  2  0
 46 47  1  0
 47 48  1  0
 47 49  2  0
 49 50  1  0
 50 51  2  0
 51 52  1  0
 52 53  2  0
 50 54  1  0
 49 55  1  0
 46 56  1  0
  7 57  1  0
  7 58  1  0
  5 59  1  0
  5 60  1  0
  2 61  1  0
  1 62  1  0
  1 63  1  0
  1 64  1  0
 52  6  1  0
 29  8  1  0
 51 45  1  0
 21 12  1  0
 21 16  1  0
M  END
>  <cnnaffinities>  (87) 
[6.7847]

>  <score>  (87) 
6.7847

>  <index>  (87) 
90

>  <Smiles>  (87) 
C(N(C(=O)C(N1C([C@@]2(C(=O)N(c3c(nc(c4c(c(c(c(c34)[H])[H])[H])[H])[H])[H])C([C@@]2(C(S(=O)(=O)N(C([H])([H])[H])[H])([H])[H])[H])([H])[H])c2c(c(F)c(c(c2C1=O)[H])[H])[H])([H])[H])([H])[H])[H])([H])([H])[H]

>  <h>  (87) 
<NA>

>  <Training>  (87) 
True

>  <Success>  (87) 
True

>  <enamine_searched>  (87) 
False

>  <enamine_id>  (87) 
nan

$$$$

     RDKit          3D

 66 71  0  0  0  0  0  0  0  0999 V2000
   -7.3447    0.9123  -29.1021 C   0  0  0  0  0  0  0  0  0  0  0  0
   -7.7544    1.1348  -27.7285 N   0  0  0  0  0  0  0  0  0  0  0  0
   -6.9244    0.7809  -26.7122 C   0  0  0  0  0  0  0  0  0  0  0  0
   -5.8828    0.1649  -26.8837 O   0  0  0  0  0  0  0  0  0  0  0  0
   -7.3890    1.1768  -25.3058 C   0  0  0  0  0  0  0  0  0  0  0  0
   -8.3800    0.2622  -24.7662 N   0  0  0  0  0  0  0  0  0  0  0  0
   -7.9716   -1.0704  -24.3480 C   0  0  0  0  0  0  0  0  0  0  0  0
   -8.7739   -1.5458  -23.0932 C   0  0  2  0  0  0  0  0  0  0  0  0
   -8.3129   -0.7344  -21.8424 C   0  0  0  0  0  0  0  0  0  0  0  0
   -8.6603    0.3750  -21.5091 O   0  0  0  0  0  0  0  0  0  0  0  0
   -7.3930   -1.5137  -21.1533 N   0  0  0  0  0  0  0  0  0  0  0  0
   -6.4870   -1.0560  -20.1569 C   0  0  0  0  0  0  0  0  0  0  0  0
   -6.6087   -1.5131  -18.8679 C   0  0  0  0  0  0  0  0  0  0  0  0
   -5.6525   -1.3817  -17.9147 N   0  0  0  0  0  0  0  0  0  0  0  0
   -4.5432   -0.7653  -18.2527 C   0  0  0  0  0  0  0  0  0  0  0  0
   -4.3365   -0.1443  -19.5127 C   0  0  0  0  0  0  0  0  0  0  0  0
   -3.2047    0.6800  -19.7524 C   0  0  0  0  0  0  0  0  0  0  0  0
   -3.1356    1.4326  -20.8917 C   0  0  0  0  0  0  0  0  0  0  0  0
   -4.1266    1.2997  -21.8924 C   0  0  0  0  0  0  0  0  0  0  0  0
   -5.2107    0.4854  -21.6989 C   0  0  0  0  0  0  0  0  0  0  0  0
   -5.3472   -0.2534  -20.4917 C   0  0  0  0  0  0  0  0  0  0  0  0
   -6.0216    0.4633  -22.4209 H   0  0  0  0  0  0  0  0  0  0  0  0
   -4.0185    1.8362  -22.8282 H   0  0  0  0  0  0  0  0  0  0  0  0
   -2.3036    2.1086  -21.0528 H   0  0  0  0  0  0  0  0  0  0  0  0
   -2.4718    0.7793  -18.9614 H   0  0  0  0  0  0  0  0  0  0  0  0
   -3.7597   -0.6801  -17.4972 H   0  0  0  0  0  0  0  0  0  0  0  0
   -7.5403   -1.9840  -18.5458 H   0  0  0  0  0  0  0  0  0  0  0  0
   -7.1038   -2.7714  -21.8170 C   0  0  0  0  0  0  0  0  0  0  0  0
   -8.3690   -2.9735  -22.6492 C   0  0  2  0  0  0  0  0  0  0  0  0
   -8.2559   -4.0039  -23.7767 C   0  0  0  0  0  0  0  0  0  0  0  0
   -8.1564   -5.3718  -23.3058 N   0  0  0  0  0  0  0  0  0  0  0  0
   -6.9721   -5.8717  -22.8038 C   0  0  0  0  0  0  0  0  0  0  0  0
   -5.7121   -5.5431  -23.3541 C   0  0  0  0  0  0  0  0  0  0  0  0
   -4.5958   -6.1165  -22.9338 N   0  0  0  0  0  0  0  0  0  0  0  0
   -4.7064   -6.9925  -21.9330 C   0  0  0  0  0  0  0  0  0  0  0  0
   -5.9281   -7.2504  -21.3379 C   0  0  0  0  0  0  0  0  0  0  0  0
   -7.0658   -6.7111  -21.7743 N   0  0  0  0  0  0  0  0  0  0  0  0
   -6.0056   -7.9051  -20.4744 H   0  0  0  0  0  0  0  0  0  0  0  0
   -3.7991   -7.4982  -21.6197 H   0  0  0  0  0  0  0  0  0  0  0  0
   -5.6057   -4.8213  -24.1645 H   0  0  0  0  0  0  0  0  0  0  0  0
   -8.9378   -5.6901  -22.7440 H   0  0  0  0  0  0  0  0  0  0  0  0
   -7.3757   -3.7852  -24.3926 H   0  0  0  0  0  0  0  0  0  0  0  0
   -9.1334   -3.9276  -24.4326 H   0  0  0  0  0  0  0  0  0  0  0  0
   -9.1309   -3.3195  -21.9376 H   0  0  0  0  0  0  0  0  0  0  0  0
   -6.9280   -3.5637  -21.0831 H   0  0  0  0  0  0  0  0  0  0  0  0
   -6.2044   -2.7128  -22.4595 H   0  0  0  0  0  0  0  0  0  0  0  0
  -10.2493   -1.3835  -23.4176 C   0  0  0  0  0  0  0  0  0  0  0  0
  -11.2427   -2.2127  -22.8676 C   0  0  0  0  0  0  0  0  0  0  0  0
  -12.5765   -1.9853  -23.1560 C   0  0  0  0  0  0  0  0  0  0  0  0
  -13.8022   -2.9822  -22.4234 Cl  0  0  0  0  0  0  0  0  0  0  0  0
  -12.9850   -0.9501  -23.9922 C   0  0  0  0  0  0  0  0  0  0  0  0
  -12.0153   -0.1259  -24.5230 C   0  0  0  0  0  0  0  0  0  0  0  0
  -10.6657   -0.3572  -24.2818 C   0  0  0  0  0  0  0  0  0  0  0  0
   -9.6935    0.5400  -24.9863 C   0  0  0  0  0  0  0  0  0  0  0  0
  -10.0478    1.4679  -25.7152 O   0  0  0  0  0  0  0  0  0  0  0  0
  -12.2773    0.7359  -25.1203 H   0  0  0  0  0  0  0  0  0  0  0  0
  -14.0419   -0.8059  -24.1884 H   0  0  0  0  0  0  0  0  0  0  0  0
  -11.0021   -3.0337  -22.2012 H   0  0  0  0  0  0  0  0  0  0  0  0
   -8.1486   -1.7787  -25.1710 H   0  0  0  0  0  0  0  0  0  0  0  0
   -6.8914   -1.0588  -24.1617 H   0  0  0  0  0  0  0  0  0  0  0  0
   -6.5072    1.1838  -24.6554 H   0  0  0  0  0  0  0  0  0  0  0  0
   -7.8367    2.1742  -25.3068 H   0  0  0  0  0  0  0  0  0  0  0  0
   -8.6599    1.5305  -27.5139 H   0  0  0  0  0  0  0  0  0  0  0  0
   -6.3037    1.2244  -29.2319 H   0  0  0  0  0  0  0  0  0  0  0  0
   -7.4125   -0.1432  -29.3908 H   0  0  0  0  0  0  0  0  0  0  0  0
   -7.9814    1.5067  -29.7607 H   0  0  0  0  0  0  0  0  0  0  0  0
  1  2  1  0
  2  3  1  0
  3  4  2  0
  3  5  1  0
  5  6  1  0
  6  7  1  0
  8  7  1  6
  8  9  1  0
  9 10  2  0
  9 11  1  0
 11 12  1  0
 12 13  2  0
 13 14  1  0
 14 15  2  0
 15 16  1  0
 16 17  2  0
 17 18  1  0
 18 19  2  0
 19 20  1  0
 20 21  2  0
 20 22  1  0
 19 23  1  0
 18 24  1  0
 17 25  1  0
 15 26  1  0
 13 27  1  0
 11 28  1  0
 28 29  1  0
 29 30  1  0
 30 31  1  0
 31 32  1  0
 32 33  2  0
 33 34  1  0
 34 35  2  0
 35 36  1  0
 36 37  2  0
 36 38  1  0
 35 39  1  0
 33 40  1  0
 31 41  1  0
 30 42  1  0
 30 43  1  0
 29 44  1  1
 28 45  1  0
 28 46  1  0
  8 47  1  0
 47 48  2  0
 48 49  1  0
 49 50  1  0
 49 51  2  0
 51 52  1  0
 52 53  2  0
 53 54  1  0
 54 55  2  0
 52 56  1  0
 51 57  1  0
 48 58  1  0
  7 59  1  0
  7 60  1  0
  5 61  1  0
  5 62  1  0
  2 63  1  0
  1 64  1  0
  1 65  1  0
  1 66  1  0
 54  6  1  0
 29  8  1  0
 37 32  1  0
 53 47  1  0
 21 12  1  0
 21 16  1  0
M  END
>  <cnnaffinities>  (88) 
[7.01213, 7.00659, 7.02797, 6.80802]

>  <score>  (88) 
7.01213

>  <index>  (88) 
91

>  <Smiles>  (88) 
C(N(C(=O)C(N1C([C@@]2(C(=O)N(c3c(nc(c4c(c(c(c(c34)[H])[H])[H])[H])[H])[H])C([C@@]2(C(N(c2c(nc(c(n2)[H])[H])[H])[H])([H])[H])[H])([H])[H])c2c(c(Cl)c(c(c2C1=O)[H])[H])[H])([H])[H])([H])[H])[H])([H])([H])[H]

>  <h>  (88) 
<NA>

>  <Training>  (88) 
True

>  <Success>  (88) 
True

>  <enamine_searched>  (88) 
False

>  <enamine_id>  (88) 
nan

$$$$

     RDKit          3D

 60 65  0  0  0  0  0  0  0  0999 V2000
   -6.7701   -3.4560  -26.1302 C   0  0  0  0  0  0  0  0  0  0  0  0
   -7.0006   -2.9235  -24.8512 O   0  0  0  0  0  0  0  0  0  0  0  0
   -7.9764   -3.6450  -24.1292 C   0  0  0  0  0  0  0  0  0  0  0  0
   -8.2615   -2.9454  -22.8048 C   0  0  1  0  0  0  0  0  0  0  0  0
   -6.9831   -2.6322  -22.0180 C   0  0  0  0  0  0  0  0  0  0  0  0
   -7.3597   -1.4686  -21.2420 N   0  0  0  0  0  0  0  0  0  0  0  0
   -6.5365   -0.9486  -20.2168 C   0  0  0  0  0  0  0  0  0  0  0  0
   -6.8331   -1.1505  -18.8911 C   0  0  0  0  0  0  0  0  0  0  0  0
   -5.9684   -0.8832  -17.8776 N   0  0  0  0  0  0  0  0  0  0  0  0
   -4.7964   -0.3812  -18.2026 C   0  0  0  0  0  0  0  0  0  0  0  0
   -4.4134   -0.0295  -19.5344 C   0  0  0  0  0  0  0  0  0  0  0  0
   -3.2492    0.7398  -19.8197 C   0  0  0  0  0  0  0  0  0  0  0  0
   -3.1380    1.4159  -21.0053 C   0  0  0  0  0  0  0  0  0  0  0  0
   -4.0509    1.1575  -22.0565 C   0  0  0  0  0  0  0  0  0  0  0  0
   -5.0562    0.2402  -21.8717 C   0  0  0  0  0  0  0  0  0  0  0  0
   -5.3341   -0.2658  -20.5724 C   0  0  0  0  0  0  0  0  0  0  0  0
   -5.6538   -0.1189  -22.7055 H   0  0  0  0  0  0  0  0  0  0  0  0
   -3.9166    1.6367  -23.0235 H   0  0  0  0  0  0  0  0  0  0  0  0
   -2.2874    2.0673  -21.1933 H   0  0  0  0  0  0  0  0  0  0  0  0
   -2.5237    0.8944  -19.0308 H   0  0  0  0  0  0  0  0  0  0  0  0
   -4.1029   -0.1722  -17.3858 H   0  0  0  0  0  0  0  0  0  0  0  0
   -7.8033   -1.5488  -18.5913 H   0  0  0  0  0  0  0  0  0  0  0  0
   -8.5545   -0.8849  -21.5953 C   0  0  0  0  0  0  0  0  0  0  0  0
   -9.0617    0.0358  -20.9905 O   0  0  0  0  0  0  0  0  0  0  0  0
   -9.1008   -1.6173  -22.8457 C   0  0  1  0  0  0  0  0  0  0  0  0
   -8.8401   -0.7916  -24.1369 C   0  0  0  0  0  0  0  0  0  0  0  0
   -9.7211    0.3593  -24.2469 N   0  0  0  0  0  0  0  0  0  0  0  0
   -9.1649    1.6201  -24.7389 C   0  0  0  0  0  0  0  0  0  0  0  0
   -8.3693    2.3794  -23.7060 C   0  0  0  0  0  0  0  0  0  0  0  0
   -8.8715    3.3088  -22.7663 C   0  0  0  0  0  0  0  0  0  0  0  0
   -7.9253    3.7687  -21.9482 N   0  0  0  0  0  0  0  0  0  0  0  0
   -6.8260    3.1365  -22.3522 N   0  0  0  0  0  0  0  0  0  0  0  0
   -7.0223    2.3055  -23.4056 C   0  0  0  0  0  0  0  0  0  0  0  0
   -6.1717    1.7732  -23.8230 H   0  0  0  0  0  0  0  0  0  0  0  0
   -5.9556    3.3025  -21.8724 H   0  0  0  0  0  0  0  0  0  0  0  0
   -9.8934    3.6471  -22.6582 H   0  0  0  0  0  0  0  0  0  0  0  0
   -8.5422    1.4241  -25.6256 H   0  0  0  0  0  0  0  0  0  0  0  0
  -10.0263    2.2074  -25.0694 H   0  0  0  0  0  0  0  0  0  0  0  0
  -11.0833    0.1959  -24.1639 C   0  0  0  0  0  0  0  0  0  0  0  0
  -11.8818    1.0187  -24.5845 O   0  0  0  0  0  0  0  0  0  0  0  0
  -11.5141   -1.0746  -23.4844 C   0  0  0  0  0  0  0  0  0  0  0  0
  -12.8496   -1.4709  -23.5575 C   0  0  0  0  0  0  0  0  0  0  0  0
  -13.3280   -2.4801  -22.7451 C   0  0  0  0  0  0  0  0  0  0  0  0
  -12.4619   -3.0498  -21.8137 C   0  0  0  0  0  0  0  0  0  0  0  0
  -13.1007   -4.0813  -20.5695 Cl  0  0  0  0  0  0  0  0  0  0  0  0
  -11.1097   -2.7666  -21.8295 C   0  0  0  0  0  0  0  0  0  0  0  0
  -10.5999   -1.8262  -22.7315 C   0  0  0  0  0  0  0  0  0  0  0  0
  -10.4565   -3.3005  -21.1469 H   0  0  0  0  0  0  0  0  0  0  0  0
  -14.3669   -2.7874  -22.7647 H   0  0  0  0  0  0  0  0  0  0  0  0
  -13.5180   -0.9379  -24.2234 H   0  0  0  0  0  0  0  0  0  0  0  0
   -8.9834   -1.4417  -25.0126 H   0  0  0  0  0  0  0  0  0  0  0  0
   -7.8084   -0.4399  -24.1345 H   0  0  0  0  0  0  0  0  0  0  0  0
   -6.1342   -2.4215  -22.6784 H   0  0  0  0  0  0  0  0  0  0  0  0
   -6.6854   -3.4630  -21.3642 H   0  0  0  0  0  0  0  0  0  0  0  0
   -8.8416   -3.6547  -22.2076 H   0  0  0  0  0  0  0  0  0  0  0  0
   -7.6098   -4.6712  -23.9498 H   0  0  0  0  0  0  0  0  0  0  0  0
   -8.9063   -3.7216  -24.7190 H   0  0  0  0  0  0  0  0  0  0  0  0
   -6.0077   -2.8359  -26.6088 H   0  0  0  0  0  0  0  0  0  0  0  0
   -6.4060   -4.4942  -26.0750 H   0  0  0  0  0  0  0  0  0  0  0  0
   -7.6817   -3.4379  -26.7498 H   0  0  0  0  0  0  0  0  0  0  0  0
  1  2  1  0
  2  3  1  0
  3  4  1  0
  4  5  1  0
  5  6  1  0
  6  7  1  0
  7  8  2  0
  8  9  1  0
  9 10  2  0
 10 11  1  0
 11 12  2  0
 12 13  1  0
 13 14  2  0
 14 15  1  0
 15 16  2  0
 15 17  1  0
 14 18  1  0
 13 19  1  0
 12 20  1  0
 10 21  1  0
  8 22  1  0
  6 23  1  0
 23 24  2  0
 23 25  1  0
 25 26  1  6
 26 27  1  0
 27 28  1  0
 28 29  1  0
 29 30  1  0
 30 31  2  0
 31 32  1  0
 32 33  1  0
 33 34  1  0
 32 35  1  0
 30 36  1  0
 28 37  1  0
 28 38  1  0
 27 39  1  0
 39 40  2  0
 39 41  1  0
 41 42  2  0
 42 43  1  0
 43 44  2  0
 44 45  1  0
 44 46  1  0
 46 47  2  0
 46 48  1  0
 43 49  1  0
 42 50  1  0
 26 51  1  0
 26 52  1  0
  5 53  1  0
  5 54  1  0
  4 55  1  1
  3 56  1  0
  3 57  1  0
  1 58  1  0
  1 59  1  0
  1 60  1  0
 25  4  1  0
 33 29  2  0
 47 41  1  0
 16  7  1  0
 47 25  1  0
 16 11  1  0
M  END
>  <cnnaffinities>  (89) 
[6.36725, 6.59284, 6.38225]

>  <score>  (89) 
6.36725

>  <index>  (89) 
92

>  <Smiles>  (89) 
C(OC([C@]1(C(N(c2c(nc(c3c(c(c(c(c23)[H])[H])[H])[H])[H])[H])C(=O)[C@]21C(N(C(c1c(nn(c1[H])[H])[H])([H])[H])C(=O)c1c(c(c(Cl)c(c21)[H])[H])[H])([H])[H])([H])[H])[H])([H])[H])([H])([H])[H]

>  <h>  (89) 
<NA>

>  <Training>  (89) 
True

>  <Success>  (89) 
True

>  <enamine_searched>  (89) 
False

>  <enamine_id>  (89) 
nan

$$$$

     RDKit          3D

 62 67  0  0  0  0  0  0  0  0999 V2000
  -10.4902    5.1902  -24.3827 C   0  0  0  0  0  0  0  0  0  0  0  0
  -10.1853    4.0319  -23.4331 C   0  0  0  0  0  0  0  0  0  0  0  0
   -8.8315    3.5094  -23.5860 N   0  0  0  0  0  0  0  0  0  0  0  0
   -7.8158    4.1292  -22.9537 N   0  0  0  0  0  0  0  0  0  0  0  0
   -6.7326    3.4353  -23.2811 C   0  0  0  0  0  0  0  0  0  0  0  0
   -7.0447    2.3778  -24.1504 C   0  0  0  0  0  0  0  0  0  0  0  0
   -8.4069    2.4528  -24.3321 C   0  0  0  0  0  0  0  0  0  0  0  0
   -9.2937    1.5810  -25.1581 C   0  0  0  0  0  0  0  0  0  0  0  0
   -9.7257    0.3891  -24.4378 N   0  0  0  0  0  0  0  0  0  0  0  0
   -8.7738   -0.7089  -24.3407 C   0  0  0  0  0  0  0  0  0  0  0  0
   -8.9371   -1.5347  -23.0373 C   0  0  2  0  0  0  0  0  0  0  0  0
   -8.3781   -0.7438  -21.8272 C   0  0  0  0  0  0  0  0  0  0  0  0
   -8.7073    0.3679  -21.4704 O   0  0  0  0  0  0  0  0  0  0  0  0
   -7.4015   -1.5031  -21.2254 N   0  0  0  0  0  0  0  0  0  0  0  0
   -6.5223   -1.0314  -20.2127 C   0  0  0  0  0  0  0  0  0  0  0  0
   -6.7336   -1.3748  -18.9042 C   0  0  0  0  0  0  0  0  0  0  0  0
   -5.8402   -1.1821  -17.9017 N   0  0  0  0  0  0  0  0  0  0  0  0
   -4.7114   -0.5903  -18.2143 C   0  0  0  0  0  0  0  0  0  0  0  0
   -4.4056   -0.0858  -19.5076 C   0  0  0  0  0  0  0  0  0  0  0  0
   -3.2551    0.7262  -19.7331 C   0  0  0  0  0  0  0  0  0  0  0  0
   -3.1226    1.4132  -20.9067 C   0  0  0  0  0  0  0  0  0  0  0  0
   -4.0298    1.1775  -21.9679 C   0  0  0  0  0  0  0  0  0  0  0  0
   -5.1038    0.3356  -21.8006 C   0  0  0  0  0  0  0  0  0  0  0  0
   -5.3515   -0.2718  -20.5378 C   0  0  0  0  0  0  0  0  0  0  0  0
   -5.7796    0.1254  -22.6210 H   0  0  0  0  0  0  0  0  0  0  0  0
   -3.8380    1.6365  -22.9341 H   0  0  0  0  0  0  0  0  0  0  0  0
   -2.2787    2.0823  -21.0580 H   0  0  0  0  0  0  0  0  0  0  0  0
   -2.5766    0.8938  -18.9018 H   0  0  0  0  0  0  0  0  0  0  0  0
   -3.9926   -0.4437  -17.4091 H   0  0  0  0  0  0  0  0  0  0  0  0
   -7.6779   -1.8349  -18.6181 H   0  0  0  0  0  0  0  0  0  0  0  0
   -7.3273   -2.8644  -21.6944 C   0  0  0  0  0  0  0  0  0  0  0  0
   -8.0770   -2.8525  -23.0408 C   0  0  2  0  0  0  0  0  0  0  0  0
   -7.0925   -3.0422  -24.2032 C   0  0  0  0  0  0  0  0  0  0  0  0
   -7.6067   -3.0966  -25.1657 H   0  0  0  0  0  0  0  0  0  0  0  0
   -6.3477   -2.2405  -24.2520 H   0  0  0  0  0  0  0  0  0  0  0  0
   -6.5534   -3.9876  -24.0745 H   0  0  0  0  0  0  0  0  0  0  0  0
   -8.7581   -3.7082  -23.0902 H   0  0  0  0  0  0  0  0  0  0  0  0
   -6.2769   -3.1569  -21.7905 H   0  0  0  0  0  0  0  0  0  0  0  0
   -7.7761   -3.5666  -20.9825 H   0  0  0  0  0  0  0  0  0  0  0  0
  -10.4271   -1.8132  -22.8486 C   0  0  0  0  0  0  0  0  0  0  0  0
  -10.8552   -2.8106  -21.9616 C   0  0  0  0  0  0  0  0  0  0  0  0
  -12.1947   -3.1531  -21.9180 C   0  0  0  0  0  0  0  0  0  0  0  0
  -12.5839   -4.1076  -21.0572 F   0  0  0  0  0  0  0  0  0  0  0  0
  -13.1526   -2.5532  -22.7321 C   0  0  0  0  0  0  0  0  0  0  0  0
  -12.7465   -1.4937  -23.5234 C   0  0  0  0  0  0  0  0  0  0  0  0
  -11.4092   -1.0922  -23.5431 C   0  0  0  0  0  0  0  0  0  0  0  0
  -11.0636    0.1585  -24.2841 C   0  0  0  0  0  0  0  0  0  0  0  0
  -11.9263    0.9204  -24.7003 O   0  0  0  0  0  0  0  0  0  0  0  0
  -13.4673   -0.9466  -24.1279 H   0  0  0  0  0  0  0  0  0  0  0  0
  -14.1905   -2.8786  -22.7022 H   0  0  0  0  0  0  0  0  0  0  0  0
  -10.1723   -3.3481  -21.3079 H   0  0  0  0  0  0  0  0  0  0  0  0
   -8.8836   -1.3722  -25.2126 H   0  0  0  0  0  0  0  0  0  0  0  0
   -7.7734   -0.2772  -24.3798 H   0  0  0  0  0  0  0  0  0  0  0  0
  -10.1884    2.1060  -25.5081 H   0  0  0  0  0  0  0  0  0  0  0  0
   -8.7271    1.2649  -26.0442 H   0  0  0  0  0  0  0  0  0  0  0  0
   -6.3841    1.6448  -24.5905 H   0  0  0  0  0  0  0  0  0  0  0  0
   -5.7595    3.7022  -22.8908 H   0  0  0  0  0  0  0  0  0  0  0  0
  -10.2866    4.3371  -22.3872 H   0  0  0  0  0  0  0  0  0  0  0  0
  -10.8892    3.2137  -23.6103 H   0  0  0  0  0  0  0  0  0  0  0  0
  -11.5021    5.5728  -24.1982 H   0  0  0  0  0  0  0  0  0  0  0  0
  -10.4643    4.8202  -25.4154 H   0  0  0  0  0  0  0  0  0  0  0  0
   -9.7562    5.9983  -24.2748 H   0  0  0  0  0  0  0  0  0  0  0  0
  1  2  1  0
  2  3  1  0
  3  4  1  0
  4  5  2  0
  5  6  1  0
  6  7  2  0
  7  8  1  0
  8  9  1  0
  9 10  1  0
 11 10  1  6
 11 12  1  0
 12 13  2  0
 12 14  1  0
 14 15  1  0
 15 16  2  0
 16 17  1  0
 17 18  2  0
 18 19  1  0
 19 20  2  0
 20 21  1  0
 21 22  2  0
 22 23  1  0
 23 24  2  0
 23 25  1  0
 22 26  1  0
 21 27  1  0
 20 28  1  0
 18 29  1  0
 16 30  1  0
 14 31  1  0
 31 32  1  0
 32 33  1  0
 33 34  1  0
 33 35  1  0
 33 36  1  0
 32 37  1  1
 31 38  1  0
 31 39  1  0
 11 40  1  0
 40 41  2  0
 41 42  1  0
 42 43  1  0
 42 44  2  0
 44 45  1  0
 45 46  2  0
 46 47  1  0
 47 48  2  0
 45 49  1  0
 44 50  1  0
 41 51  1  0
 10 52  1  0
 10 53  1  0
  8 54  1  0
  8 55  1  0
  6 56  1  0
  5 57  1  0
  2 58  1  0
  2 59  1  0
  1 60  1  0
  1 61  1  0
  1 62  1  0
  7  3  1  0
 47  9  1  0
 32 11  1  0
 46 40  1  0
 24 15  1  0
 24 19  1  0
M  END
>  <cnnaffinities>  (90) 
[6.41175, 6.31237]

>  <score>  (90) 
6.41175

>  <index>  (90) 
93

>  <Smiles>  (90) 
C(C(n1nc(c(c1C(N1C([C@@]2(C(=O)N(c3c(nc(c4c(c(c(c(c34)[H])[H])[H])[H])[H])[H])C([C@@]2(C([H])([H])[H])[H])([H])[H])c2c(c(F)c(c(c2C1=O)[H])[H])[H])([H])[H])([H])[H])[H])[H])([H])[H])([H])([H])[H]

>  <h>  (90) 
<NA>

>  <Training>  (90) 
True

>  <Success>  (90) 
True

>  <enamine_searched>  (90) 
False

>  <enamine_id>  (90) 
nan

$$$$

     RDKit          3D

 66 71  0  0  0  0  0  0  0  0999 V2000
   -7.2989    3.3465  -21.8143 C   0  0  0  0  0  0  0  0  0  0  0  0
   -8.1790    2.9167  -22.8892 N   0  0  0  0  0  0  0  0  0  0  0  0
   -7.6362    2.2353  -23.9346 C   0  0  0  0  0  0  0  0  0  0  0  0
   -6.4299    2.0749  -24.0547 O   0  0  0  0  0  0  0  0  0  0  0  0
   -8.6232    1.6520  -24.9517 C   0  0  0  0  0  0  0  0  0  0  0  0
   -9.3130    0.4993  -24.4015 N   0  0  0  0  0  0  0  0  0  0  0  0
   -8.5567   -0.7385  -24.2456 C   0  0  0  0  0  0  0  0  0  0  0  0
   -8.9865   -1.5149  -22.9728 C   0  0  2  0  0  0  0  0  0  0  0  0
   -8.4680   -0.7846  -21.7130 C   0  0  0  0  0  0  0  0  0  0  0  0
   -8.8904    0.2441  -21.2212 O   0  0  0  0  0  0  0  0  0  0  0  0
   -7.4004   -1.4943  -21.2159 N   0  0  0  0  0  0  0  0  0  0  0  0
   -6.5543   -0.9713  -20.2182 C   0  0  0  0  0  0  0  0  0  0  0  0
   -6.8559   -1.1323  -18.8960 C   0  0  0  0  0  0  0  0  0  0  0  0
   -5.9984   -0.8552  -17.8850 N   0  0  0  0  0  0  0  0  0  0  0  0
   -4.8256   -0.3669  -18.2164 C   0  0  0  0  0  0  0  0  0  0  0  0
   -4.4419   -0.0400  -19.5480 C   0  0  0  0  0  0  0  0  0  0  0  0
   -3.2647    0.7041  -19.8297 C   0  0  0  0  0  0  0  0  0  0  0  0
   -3.1607    1.3970  -21.0008 C   0  0  0  0  0  0  0  0  0  0  0  0
   -4.0876    1.1629  -22.0506 C   0  0  0  0  0  0  0  0  0  0  0  0
   -5.1205    0.2795  -21.8628 C   0  0  0  0  0  0  0  0  0  0  0  0
   -5.3721   -0.2682  -20.5775 C   0  0  0  0  0  0  0  0  0  0  0  0
   -5.7390   -0.0098  -22.7037 H   0  0  0  0  0  0  0  0  0  0  0  0
   -3.9617    1.6573  -23.0092 H   0  0  0  0  0  0  0  0  0  0  0  0
   -2.2957    2.0277  -21.1784 H   0  0  0  0  0  0  0  0  0  0  0  0
   -2.5342    0.8048  -19.0349 H   0  0  0  0  0  0  0  0  0  0  0  0
   -4.1390   -0.1135  -17.4074 H   0  0  0  0  0  0  0  0  0  0  0  0
   -7.8285   -1.5234  -18.6234 H   0  0  0  0  0  0  0  0  0  0  0  0
   -7.0350   -2.6616  -21.9843 C   0  0  0  0  0  0  0  0  0  0  0  0
   -8.2730   -2.8983  -22.8473 C   0  0  2  0  0  0  0  0  0  0  0  0
   -7.9167   -3.6382  -24.1274 C   0  0  0  0  0  0  0  0  0  0  0  0
   -9.0921   -3.9509  -24.9037 N   0  0  0  0  0  0  0  0  0  0  0  0
   -8.9966   -4.5895  -26.0961 C   0  0  0  0  0  0  0  0  0  0  0  0
  -10.1449   -4.9155  -26.8458 C   0  0  0  0  0  0  0  0  0  0  0  0
   -9.9315   -5.5316  -28.0560 C   0  0  0  0  0  0  0  0  0  0  0  0
   -8.7096   -5.8242  -28.5332 N   0  0  0  0  0  0  0  0  0  0  0  0
   -7.7084   -5.4902  -27.7340 C   0  0  0  0  0  0  0  0  0  0  0  0
   -7.7677   -4.8807  -26.5483 N   0  0  0  0  0  0  0  0  0  0  0  0
   -6.7068   -5.7357  -28.0918 H   0  0  0  0  0  0  0  0  0  0  0  0
  -10.7750   -5.8045  -28.6901 H   0  0  0  0  0  0  0  0  0  0  0  0
  -11.1462   -4.6987  -26.4805 H   0  0  0  0  0  0  0  0  0  0  0  0
  -10.0054   -3.7820  -24.5086 H   0  0  0  0  0  0  0  0  0  0  0  0
   -7.3864   -4.5676  -23.8851 H   0  0  0  0  0  0  0  0  0  0  0  0
   -7.2360   -3.0468  -24.7541 H   0  0  0  0  0  0  0  0  0  0  0  0
   -8.9424   -3.5508  -22.2775 H   0  0  0  0  0  0  0  0  0  0  0  0
   -6.8258   -3.5155  -21.3292 H   0  0  0  0  0  0  0  0  0  0  0  0
   -6.1364   -2.4970  -22.6015 H   0  0  0  0  0  0  0  0  0  0  0  0
  -10.5004   -1.5942  -22.9586 C   0  0  0  0  0  0  0  0  0  0  0  0
  -11.1627   -2.4897  -22.1117 C   0  0  0  0  0  0  0  0  0  0  0  0
  -12.5270   -2.6776  -22.2335 C   0  0  0  0  0  0  0  0  0  0  0  0
  -13.3263   -3.7790  -21.1489 Cl  0  0  0  0  0  0  0  0  0  0  0  0
  -13.2707   -1.9883  -23.1940 C   0  0  0  0  0  0  0  0  0  0  0  0
  -12.6520   -0.9646  -23.8911 C   0  0  0  0  0  0  0  0  0  0  0  0
  -11.2872   -0.7254  -23.7302 C   0  0  0  0  0  0  0  0  0  0  0  0
  -10.6826    0.4996  -24.3502 C   0  0  0  0  0  0  0  0  0  0  0  0
  -11.3625    1.4318  -24.7608 O   0  0  0  0  0  0  0  0  0  0  0  0
  -13.2229   -0.3225  -24.5565 H   0  0  0  0  0  0  0  0  0  0  0  0
  -14.3313   -2.1889  -23.3110 H   0  0  0  0  0  0  0  0  0  0  0  0
  -10.6293   -3.0411  -21.3457 H   0  0  0  0  0  0  0  0  0  0  0  0
   -8.7030   -1.3714  -25.1318 H   0  0  0  0  0  0  0  0  0  0  0  0
   -7.4906   -0.4979  -24.1931 H   0  0  0  0  0  0  0  0  0  0  0  0
   -8.0572    1.3643  -25.8455 H   0  0  0  0  0  0  0  0  0  0  0  0
   -9.3817    2.3853  -25.2432 H   0  0  0  0  0  0  0  0  0  0  0  0
   -9.1514    2.7583  -22.6626 H   0  0  0  0  0  0  0  0  0  0  0  0
   -7.8816    3.8351  -21.0334 H   0  0  0  0  0  0  0  0  0  0  0  0
   -6.5736    4.0674  -22.2005 H   0  0  0  0  0  0  0  0  0  0  0  0
   -6.7551    2.4915  -21.3880 H   0  0  0  0  0  0  0  0  0  0  0  0
  1  2  1  0
  2  3  1  0
  3  4  2  0
  3  5  1  0
  5  6  1  0
  6  7  1  0
  8  7  1  6
  8  9  1  0
  9 10  2  0
  9 11  1  0
 11 12  1  0
 12 13  2  0
 13 14  1  0
 14 15  2  0
 15 16  1  0
 16 17  2  0
 17 18  1  0
 18 19  2  0
 19 20  1  0
 20 21  2  0
 20 22  1  0
 19 23  1  0
 18 24  1  0
 17 25  1  0
 15 26  1  0
 13 27  1  0
 11 28  1  0
 28 29  1  0
 29 30  1  0
 30 31  1  0
 31 32  1  0
 32 33  2  0
 33 34  1  0
 34 35  2  0
 35 36  1  0
 36 37  2  0
 36 38  1  0
 34 39  1  0
 33 40  1  0
 31 41  1  0
 30 42  1  0
 30 43  1  0
 29 44  1  1
 28 45  1  0
 28 46  1  0
  8 47  1  0
 47 48  2  0
 48 49  1  0
 49 50  1  0
 49 51  2  0
 51 52  1  0
 52 53  2  0
 53 54  1  0
 54 55  2  0
 52 56  1  0
 51 57  1  0
 48 58  1  0
  7 59  1  0
  7 60  1  0
  5 61  1  0
  5 62  1  0
  2 63  1  0
  1 64  1  0
  1 65  1  0
  1 66  1  0
 54  6  1  0
 29  8  1  0
 37 32  1  0
 53 47  1  0
 21 12  1  0
 21 16  1  0
M  END
>  <cnnaffinities>  (91) 
[6.72942, 7.0582, 6.98263]

>  <score>  (91) 
6.72942

>  <index>  (91) 
95

>  <Smiles>  (91) 
C(N(C(=O)C(N1C([C@@]2(C(=O)N(c3c(nc(c4c(c(c(c(c34)[H])[H])[H])[H])[H])[H])C([C@@]2(C(N(c2c(c(nc(n2)[H])[H])[H])[H])([H])[H])[H])([H])[H])c2c(c(Cl)c(c(c2C1=O)[H])[H])[H])([H])[H])([H])[H])[H])([H])([H])[H]

>  <h>  (91) 
<NA>

>  <Training>  (91) 
True

>  <Success>  (91) 
True

>  <enamine_searched>  (91) 
False

>  <enamine_id>  (91) 
nan

$$$$

     RDKit          3D

 66 70  0  0  0  0  0  0  0  0999 V2000
   -7.3729    3.5565  -22.6989 C   0  0  0  0  0  0  0  0  0  0  0  0
   -8.3143    2.9841  -23.6450 N   0  0  0  0  0  0  0  0  0  0  0  0
   -7.8704    2.0473  -24.5281 C   0  0  0  0  0  0  0  0  0  0  0  0
   -6.6829    1.7891  -24.6739 O   0  0  0  0  0  0  0  0  0  0  0  0
   -8.9632    1.3349  -25.3387 C   0  0  0  0  0  0  0  0  0  0  0  0
   -9.5320    0.2114  -24.6084 N   0  0  0  0  0  0  0  0  0  0  0  0
   -8.7321   -1.0073  -24.4464 C   0  0  0  0  0  0  0  0  0  0  0  0
   -8.9400   -1.7005  -23.0365 C   0  0  2  0  0  0  0  0  0  0  0  0
   -8.2361   -0.7556  -22.0090 C   0  0  0  0  0  0  0  0  0  0  0  0
   -8.3858    0.4447  -21.9151 O   0  0  0  0  0  0  0  0  0  0  0  0
   -7.3708   -1.4913  -21.2488 N   0  0  0  0  0  0  0  0  0  0  0  0
   -6.5239   -0.9524  -20.2391 C   0  0  0  0  0  0  0  0  0  0  0  0
   -6.8072   -1.1568  -18.9147 C   0  0  0  0  0  0  0  0  0  0  0  0
   -5.9892   -0.8011  -17.8907 N   0  0  0  0  0  0  0  0  0  0  0  0
   -4.8450   -0.2478  -18.1979 C   0  0  0  0  0  0  0  0  0  0  0  0
   -4.4312    0.0337  -19.5362 C   0  0  0  0  0  0  0  0  0  0  0  0
   -3.2643    0.8155  -19.8084 C   0  0  0  0  0  0  0  0  0  0  0  0
   -3.1259    1.4600  -21.0066 C   0  0  0  0  0  0  0  0  0  0  0  0
   -4.0202    1.1648  -22.0710 C   0  0  0  0  0  0  0  0  0  0  0  0
   -5.0462    0.2748  -21.8861 C   0  0  0  0  0  0  0  0  0  0  0  0
   -5.3308   -0.2361  -20.5874 C   0  0  0  0  0  0  0  0  0  0  0  0
   -5.6671   -0.0266  -22.7292 H   0  0  0  0  0  0  0  0  0  0  0  0
   -3.8527    1.6013  -23.0570 H   0  0  0  0  0  0  0  0  0  0  0  0
   -2.2976    2.1312  -21.1732 H   0  0  0  0  0  0  0  0  0  0  0  0
   -2.5987    1.0415  -18.9790 H   0  0  0  0  0  0  0  0  0  0  0  0
   -4.2206    0.0891  -17.3750 H   0  0  0  0  0  0  0  0  0  0  0  0
   -7.7501   -1.6220  -18.6249 H   0  0  0  0  0  0  0  0  0  0  0  0
   -7.3786   -2.9068  -21.5157 C   0  0  0  0  0  0  0  0  0  0  0  0
   -8.1961   -3.0523  -22.8196 C   0  0  2  0  0  0  0  0  0  0  0  0
   -7.2579   -3.4349  -23.9680 C   0  0  0  0  0  0  0  0  0  0  0  0
   -6.2016   -2.5019  -24.0763 O   0  0  0  0  0  0  0  0  0  0  0  0
   -5.3045   -2.7209  -25.1557 C   0  0  0  0  0  0  0  0  0  0  0  0
   -5.6191   -1.8098  -26.3392 C   0  0  0  0  0  0  0  0  0  0  0  0
   -6.6051   -2.0141  -26.7667 H   0  0  0  0  0  0  0  0  0  0  0  0
   -5.5904   -0.7600  -26.0212 H   0  0  0  0  0  0  0  0  0  0  0  0
   -4.8681   -1.9452  -27.1283 H   0  0  0  0  0  0  0  0  0  0  0  0
   -3.9516   -2.3755  -24.5989 C   0  0  0  0  0  0  0  0  0  0  0  0
   -3.1700   -2.4617  -25.3639 H   0  0  0  0  0  0  0  0  0  0  0  0
   -3.6841   -2.9985  -23.7410 H   0  0  0  0  0  0  0  0  0  0  0  0
   -4.0309   -1.3351  -24.2544 H   0  0  0  0  0  0  0  0  0  0  0  0
   -5.3343   -3.7766  -25.4657 H   0  0  0  0  0  0  0  0  0  0  0  0
   -6.8257   -4.4272  -23.7817 H   0  0  0  0  0  0  0  0  0  0  0  0
   -7.8107   -3.4895  -24.9133 H   0  0  0  0  0  0  0  0  0  0  0  0
   -8.9284   -3.8640  -22.7223 H   0  0  0  0  0  0  0  0  0  0  0  0
   -7.8330   -3.4362  -20.6797 H   0  0  0  0  0  0  0  0  0  0  0  0
   -6.3460   -3.2740  -21.6060 H   0  0  0  0  0  0  0  0  0  0  0  0
  -10.4027   -1.8942  -22.8109 C   0  0  0  0  0  0  0  0  0  0  0  0
  -11.0981   -3.0442  -22.3262 C   0  0  0  0  0  0  0  0  0  0  0  0
  -12.5459   -2.5432  -22.2600 C   0  0  0  0  0  0  0  0  0  0  0  0
  -12.7155   -4.0199  -20.4028 Cl  0  0  0  0  0  0  0  0  0  0  0  0
  -12.5489   -2.5403  -22.2632 C   0  0  0  0  0  0  0  0  0  0  0  0
  -12.5299   -1.2039  -23.0805 C   0  0  0  0  0  0  0  0  0  0  0  0
  -11.2937   -0.8647  -23.2083 C   0  0  0  0  0  0  0  0  0  0  0  0
  -10.8322    0.3148  -24.1352 C   0  0  0  0  0  0  0  0  0  0  0  0
  -11.5637    1.2333  -24.4875 O   0  0  0  0  0  0  0  0  0  0  0  0
  -13.4839   -1.1346  -23.4969 H   0  0  0  0  0  0  0  0  0  0  0  0
  -13.6742   -2.5475  -22.5985 H   0  0  0  0  0  0  0  0  0  0  0  0
  -11.1924   -3.0571  -21.3696 H   0  0  0  0  0  0  0  0  0  0  0  0
   -8.9550   -1.7069  -25.2661 H   0  0  0  0  0  0  0  0  0  0  0  0
   -7.6923   -0.7482  -24.5366 H   0  0  0  0  0  0  0  0  0  0  0  0
   -9.7782    2.0262  -25.5684 H   0  0  0  0  0  0  0  0  0  0  0  0
   -8.5158    1.0316  -26.2910 H   0  0  0  0  0  0  0  0  0  0  0  0
   -9.2890    2.9564  -23.3807 H   0  0  0  0  0  0  0  0  0  0  0  0
   -6.6485    4.1770  -23.2308 H   0  0  0  0  0  0  0  0  0  0  0  0
   -6.8267    2.7691  -22.1642 H   0  0  0  0  0  0  0  0  0  0  0  0
   -7.9109    4.1811  -21.9854 H   0  0  0  0  0  0  0  0  0  0  0  0
  1  2  1  0
  2  3  1  0
  3  4  2  0
  3  5  1  0
  5  6  1  0
  6  7  1  0
  8  7  1  6
  8  9  1  0
  9 10  2  0
  9 11  1  0
 11 12  1  0
 12 13  2  0
 13 14  1  0
 14 15  2  0
 15 16  1  0
 16 17  2  0
 17 18  1  0
 18 19  2  0
 19 20  1  0
 20 21  2  0
 20 22  1  0
 19 23  1  0
 18 24  1  0
 17 25  1  0
 15 26  1  0
 13 27  1  0
 11 28  1  0
 28 29  1  0
 29 30  1  0
 30 31  1  0
 31 32  1  0
 32 33  1  0
 33 34  1  0
 33 35  1  0
 33 36  1  0
 32 37  1  0
 37 38  1  0
 37 39  1  0
 37 40  1  0
 32 41  1  0
 30 42  1  0
 30 43  1  0
 29 44  1  1
 28 45  1  0
 28 46  1  0
  8 47  1  0
 47 48  2  0
 48 49  1  0
 49 50  1  0
 49 51  2  0
 51 52  1  0
 52 53  2  0
 53 54  1  0
 54 55  2  0
 52 56  1  0
 51 57  1  0
 48 58  1  0
  7 59  1  0
  7 60  1  0
  5 61  1  0
  5 62  1  0
  2 63  1  0
  1 64  1  0
  1 65  1  0
  1 66  1  0
 54  6  1  0
 29  8  1  0
 53 47  1  0
 21 12  1  0
 21 16  1  0
M  END
>  <cnnaffinities>  (92) 
[6.21837]

>  <score>  (92) 
6.21837

>  <index>  (92) 
96

>  <Smiles>  (92) 
C(N(C(=O)C(N1C([C@@]2(C(=O)N(c3c(nc(c4c(c(c(c(c34)[H])[H])[H])[H])[H])[H])C([C@@]2(C(OC(C([H])([H])[H])(C([H])([H])[H])[H])([H])[H])[H])([H])[H])c2c(c(Cl)c(c(c2C1=O)[H])[H])[H])([H])[H])([H])[H])[H])([H])([H])[H]

>  <h>  (92) 
<NA>

>  <Training>  (92) 
True

>  <Success>  (92) 
True

>  <enamine_searched>  (92) 
False

>  <enamine_id>  (92) 
nan

$$$$

     RDKit          3D

 40 43  0  0  0  0  0  0  0  0999 V2000
  -12.5802   -3.7903  -21.2713 C   0  0  0  0  0  0  0  0  0  0  0  0
  -11.4812   -2.9077  -21.8629 C   0  0  2  0  0  0  0  0  0  0  0  0
  -11.9283   -2.3402  -23.2073 C   0  0  0  0  0  0  0  0  0  0  0  0
  -11.0274   -1.3486  -23.6420 O   0  0  0  0  0  0  0  0  0  0  0  0
   -9.7500   -1.8897  -23.8915 C   0  0  0  0  0  0  0  0  0  0  0  0
   -9.1165   -2.5441  -22.6451 C   0  0  1  0  0  0  0  0  0  0  0  0
  -10.1028   -3.5606  -22.0231 C   0  0  0  0  0  0  0  0  0  0  0  0
  -10.1376   -4.4657  -22.6500 H   0  0  0  0  0  0  0  0  0  0  0  0
   -9.6918   -3.8830  -21.0590 H   0  0  0  0  0  0  0  0  0  0  0  0
   -7.8273   -3.1370  -22.9784 N   0  0  0  0  0  0  0  0  0  0  0  0
   -6.8190   -2.7611  -22.1242 C   0  0  0  0  0  0  0  0  0  0  0  0
   -5.7091   -3.2221  -21.9998 O   0  0  0  0  0  0  0  0  0  0  0  0
   -7.3327   -1.7027  -21.3601 N   0  0  0  0  0  0  0  0  0  0  0  0
   -6.5579   -1.1166  -20.3226 C   0  0  0  0  0  0  0  0  0  0  0  0
   -6.8387   -1.3830  -19.0093 C   0  0  0  0  0  0  0  0  0  0  0  0
   -5.9680   -1.1750  -17.9922 N   0  0  0  0  0  0  0  0  0  0  0  0
   -4.8059   -0.6405  -18.3005 C   0  0  0  0  0  0  0  0  0  0  0  0
   -4.4710   -0.1400  -19.5922 C   0  0  0  0  0  0  0  0  0  0  0  0
   -3.3195    0.6653  -19.8297 C   0  0  0  0  0  0  0  0  0  0  0  0
   -3.2144    1.3806  -20.9892 C   0  0  0  0  0  0  0  0  0  0  0  0
   -4.1497    1.1929  -22.0311 C   0  0  0  0  0  0  0  0  0  0  0  0
   -5.2105    0.3428  -21.8708 C   0  0  0  0  0  0  0  0  0  0  0  0
   -5.4042   -0.3326  -20.6351 C   0  0  0  0  0  0  0  0  0  0  0  0
   -5.9532    0.2399  -22.6533 H   0  0  0  0  0  0  0  0  0  0  0  0
   -4.0178    1.7194  -22.9696 H   0  0  0  0  0  0  0  0  0  0  0  0
   -2.3634    2.0296  -21.1667 H   0  0  0  0  0  0  0  0  0  0  0  0
   -2.5872    0.8185  -19.0438 H   0  0  0  0  0  0  0  0  0  0  0  0
   -4.0908   -0.5600  -17.4835 H   0  0  0  0  0  0  0  0  0  0  0  0
   -7.8113   -1.7821  -18.7301 H   0  0  0  0  0  0  0  0  0  0  0  0
   -8.6815   -1.4908  -21.6004 C   0  0  0  0  0  0  0  0  0  0  0  0
   -9.3396   -0.6261  -21.0757 O   0  0  0  0  0  0  0  0  0  0  0  0
   -7.7578   -4.0382  -23.4310 H   0  0  0  0  0  0  0  0  0  0  0  0
   -9.1109   -1.0714  -24.2363 H   0  0  0  0  0  0  0  0  0  0  0  0
   -9.8108   -2.6390  -24.6993 H   0  0  0  0  0  0  0  0  0  0  0  0
  -12.9243   -1.8818  -23.1362 H   0  0  0  0  0  0  0  0  0  0  0  0
  -11.9885   -3.1418  -23.9675 H   0  0  0  0  0  0  0  0  0  0  0  0
  -11.2916   -2.0519  -21.2141 H   0  0  0  0  0  0  0  0  0  0  0  0
  -12.2275   -4.3912  -20.4280 H   0  0  0  0  0  0  0  0  0  0  0  0
  -12.9901   -4.4713  -22.0256 H   0  0  0  0  0  0  0  0  0  0  0  0
  -13.4124   -3.1750  -20.9073 H   0  0  0  0  0  0  0  0  0  0  0  0
  1  2  1  0
  2  3  1  0
  3  4  1  0
  4  5  1  0
  5  6  1  0
  6  7  1  0
  7  8  1  0
  7  9  1  0
  6 10  1  6
 10 11  1  0
 11 12  2  0
 11 13  1  0
 13 14  1  0
 14 15  2  0
 15 16  1  0
 16 17  2  0
 17 18  1  0
 18 19  2  0
 19 20  1  0
 20 21  2  0
 21 22  1  0
 22 23  2  0
 22 24  1  0
 21 25  1  0
 20 26  1  0
 19 27  1  0
 17 28  1  0
 15 29  1  0
 13 30  1  0
 30 31  2  0
 10 32  1  0
  5 33  1  0
  5 34  1  0
  3 35  1  0
  3 36  1  0
  2 37  1  1
  1 38  1  0
  1 39  1  0
  1 40  1  0
  7  2  1  0
 23 14  1  0
 30  6  1  0
 23 18  1  0
M  END
>  <cnnaffinities>  (93) 
[5.34259]

>  <score>  (93) 
5.34259

>  <index>  (93) 
97

>  <Smiles>  (93) 
C([C@@]1(C(OC([C@@]2(C1([H])[H])N(C(=O)N(c1c(nc(c3c(c(c(c(c13)[H])[H])[H])[H])[H])[H])C2=O)[H])([H])[H])([H])[H])[H])([H])([H])[H]

>  <h>  (93) 
<NA>

>  <Training>  (93) 
True

>  <Success>  (93) 
True

>  <enamine_searched>  (93) 
False

>  <enamine_id>  (93) 
nan

$$$$
