
     RDKit          3D

 66 71  0  0  0  0  0  0  0  0999 V2000
  -14.3929   -1.3300  -23.6948 C   0  0  0  0  0  0  0  0  0  0  0  0
  -13.5844   -2.4722  -23.2990 N   0  0  0  0  0  0  0  0  0  0  0  0
  -13.3206   -2.7260  -21.9919 C   0  0  0  0  0  0  0  0  0  0  0  0
  -13.8513   -2.1196  -21.0754 O   0  0  0  0  0  0  0  0  0  0  0  0
  -12.3672   -3.8963  -21.7009 C   0  0  0  0  0  0  0  0  0  0  0  0
  -11.0205   -3.8590  -22.2782 N   0  0  0  0  0  0  0  0  0  0  0  0
   -9.8340   -3.4489  -21.5401 C   0  0  0  0  0  0  0  0  0  0  0  0
   -8.6737   -2.8747  -22.4154 C   0  0  2  0  0  0  0  0  0  0  0  0
   -7.5097   -2.6449  -21.4474 C   0  0  0  0  0  0  0  0  0  0  0  0
   -6.8118   -3.4921  -20.9225 O   0  0  0  0  0  0  0  0  0  0  0  0
   -7.3961   -1.2915  -21.2103 N   0  0  0  0  0  0  0  0  0  0  0  0
   -6.5893   -0.8106  -20.1546 C   0  0  0  0  0  0  0  0  0  0  0  0
   -6.8837   -1.1044  -18.8485 C   0  0  0  0  0  0  0  0  0  0  0  0
   -6.2269   -0.5695  -17.7889 N   0  0  0  0  0  0  0  0  0  0  0  0
   -5.2226    0.2386  -18.0398 C   0  0  0  0  0  0  0  0  0  0  0  0
   -4.7639    0.5618  -19.3530 C   0  0  0  0  0  0  0  0  0  0  0  0
   -3.6350    1.3885  -19.6002 C   0  0  0  0  0  0  0  0  0  0  0  0
   -3.2309    1.6392  -20.8849 C   0  0  0  0  0  0  0  0  0  0  0  0
   -3.9240    1.0802  -21.9813 C   0  0  0  0  0  0  0  0  0  0  0  0
   -5.0171    0.2782  -21.7681 C   0  0  0  0  0  0  0  0  0  0  0  0
   -5.4644    0.0166  -20.4471 C   0  0  0  0  0  0  0  0  0  0  0  0
   -5.5407   -0.1811  -22.5984 H   0  0  0  0  0  0  0  0  0  0  0  0
   -3.5929    1.2845  -22.9955 H   0  0  0  0  0  0  0  0  0  0  0  0
   -2.3671    2.2707  -21.0739 H   0  0  0  0  0  0  0  0  0  0  0  0
   -3.0995    1.8069  -18.7532 H   0  0  0  0  0  0  0  0  0  0  0  0
   -4.7101    0.6652  -17.1777 H   0  0  0  0  0  0  0  0  0  0  0  0
   -7.6952   -1.7904  -18.6129 H   0  0  0  0  0  0  0  0  0  0  0  0
   -8.4003   -0.4810  -21.8888 C   0  0  0  0  0  0  0  0  0  0  0  0
   -8.8888   -1.4366  -22.9891 C   0  0  2  0  0  0  0  0  0  0  0  0
  -10.3125   -1.1820  -23.4829 C   0  0  0  0  0  0  0  0  0  0  0  0
  -10.4778    0.0494  -24.2170 N   0  0  0  0  0  0  0  0  0  0  0  0
  -11.0239    1.1629  -23.6670 C   0  0  0  0  0  0  0  0  0  0  0  0
  -11.0710    2.3719  -24.3954 C   0  0  0  0  0  0  0  0  0  0  0  0
  -11.5860    3.4615  -23.7352 C   0  0  0  0  0  0  0  0  0  0  0  0
  -12.0742    3.4066  -22.4845 N   0  0  0  0  0  0  0  0  0  0  0  0
  -12.0141    2.2159  -21.9114 C   0  0  0  0  0  0  0  0  0  0  0  0
  -11.5214    1.0828  -22.4244 N   0  0  0  0  0  0  0  0  0  0  0  0
  -12.4149    2.1419  -20.8988 H   0  0  0  0  0  0  0  0  0  0  0  0
  -11.6201    4.4412  -24.2140 H   0  0  0  0  0  0  0  0  0  0  0  0
  -10.7132    2.4283  -25.4201 H   0  0  0  0  0  0  0  0  0  0  0  0
  -10.0847    0.1216  -25.1429 H   0  0  0  0  0  0  0  0  0  0  0  0
  -10.6025   -2.0190  -24.1281 H   0  0  0  0  0  0  0  0  0  0  0  0
  -10.9852   -1.1166  -22.6252 H   0  0  0  0  0  0  0  0  0  0  0  0
   -8.1961   -1.3455  -23.8432 H   0  0  0  0  0  0  0  0  0  0  0  0
   -7.9536    0.4352  -22.2904 H   0  0  0  0  0  0  0  0  0  0  0  0
   -9.2046   -0.1764  -21.1972 H   0  0  0  0  0  0  0  0  0  0  0  0
   -8.3896   -3.9082  -23.4795 C   0  0  0  0  0  0  0  0  0  0  0  0
   -7.1039   -4.1178  -24.0045 C   0  0  0  0  0  0  0  0  0  0  0  0
   -6.8987   -5.1229  -24.9379 C   0  0  0  0  0  0  0  0  0  0  0  0
   -5.3061   -5.4003  -25.5898 Cl  0  0  0  0  0  0  0  0  0  0  0  0
   -7.9523   -5.9184  -25.3864 C   0  0  0  0  0  0  0  0  0  0  0  0
   -9.2311   -5.6580  -24.9180 C   0  0  0  0  0  0  0  0  0  0  0  0
   -9.4634   -4.6672  -23.9704 C   0  0  0  0  0  0  0  0  0  0  0  0
  -10.8728   -4.4218  -23.5014 C   0  0  0  0  0  0  0  0  0  0  0  0
  -11.8776   -4.6747  -24.1690 O   0  0  0  0  0  0  0  0  0  0  0  0
  -10.0907   -6.2164  -25.2693 H   0  0  0  0  0  0  0  0  0  0  0  0
   -7.7774   -6.7238  -26.0938 H   0  0  0  0  0  0  0  0  0  0  0  0
   -6.2549   -3.5237  -23.6801 H   0  0  0  0  0  0  0  0  0  0  0  0
  -10.1212   -2.6943  -20.8097 H   0  0  0  0  0  0  0  0  0  0  0  0
   -9.3958   -4.3250  -21.0519 H   0  0  0  0  0  0  0  0  0  0  0  0
  -12.3399   -4.0288  -20.6194 H   0  0  0  0  0  0  0  0  0  0  0  0
  -12.8703   -4.7645  -22.1335 H   0  0  0  0  0  0  0  0  0  0  0  0
  -13.1815   -3.0842  -23.9989 H   0  0  0  0  0  0  0  0  0  0  0  0
  -13.8253   -0.3909  -23.6139 H   0  0  0  0  0  0  0  0  0  0  0  0
  -15.2702   -1.2452  -23.0421 H   0  0  0  0  0  0  0  0  0  0  0  0
  -14.7066   -1.4780  -24.7355 H   0  0  0  0  0  0  0  0  0  0  0  0
  1  2  1  0
  2  3  1  0
  3  4  2  0
  3  5  1  0
  5  6  1  0
  6  7  1  0
  8  7  1  1
  8  9  1  0
  9 10  2  0
  9 11  1  0
 11 12  1  0
 12 13  2  0
 13 14  1  0
 14 15  2  0
 15 16  1  0
 16 17  2  0
 17 18  1  0
 18 19  2  0
 19 20  1  0
 20 21  2  0
 20 22  1  0
 19 23  1  0
 18 24  1  0
 17 25  1  0
 15 26  1  0
 13 27  1  0
 11 28  1  0
 28 29  1  0
 29 30  1  0
 30 31  1  0
 31 32  1  0
 32 33  2  0
 33 34  1  0
 34 35  2  0
 35 36  1  0
 36 37  2  0
 36 38  1  0
 34 39  1  0
 33 40  1  0
 31 41  1  0
 30 42  1  0
 30 43  1  0
 29 44  1  6
 28 45  1  0
 28 46  1  0
  8 47  1  0
 47 48  2  0
 48 49  1  0
 49 50  1  0
 49 51  2  0
 51 52  1  0
 52 53  2  0
 53 54  1  0
 54 55  2  0
 52 56  1  0
 51 57  1  0
 48 58  1  0
  7 59  1  0
  7 60  1  0
  5 61  1  0
  5 62  1  0
  2 63  1  0
  1 64  1  0
  1 65  1  0
  1 66  1  0
 54  6  1  0
 29  8  1  0
 37 32  1  0
 53 47  1  0
 21 12  1  0
 21 16  1  0
M  END
>  <cnnaffinities>  (1) 
[6.85882]

>  <score>  (1) 
6.85882

>  <index>  (1) 
0

>  <Smiles>  (1) 
C(N(C(=O)C(N1C([C@@]2(C(=O)N(c3c(nc(c4c(c(c(c(c34)[H])[H])[H])[H])[H])[H])C([C@@]2(C(N(c2c(c(nc(n2)[H])[H])[H])[H])([H])[H])[H])([H])[H])c2c(c(Cl)c(c(c2C1=O)[H])[H])[H])([H])[H])([H])[H])[H])([H])([H])[H]

>  <h>  (1) 
<NA>

>  <Training>  (1) 
True

>  <Success>  (1) 
True

>  <enamine_searched>  (1) 
False

>  <enamine_id>  (1) 
nan

$$$$

     RDKit          3D

 68 73  0  0  0  0  0  0  0  0999 V2000
   -7.4462    3.3763  -21.8356 C   0  0  0  0  0  0  0  0  0  0  0  0
   -8.4740    2.8931  -22.7504 N   0  0  0  0  0  0  0  0  0  0  0  0
   -8.0376    2.1491  -23.8107 C   0  0  0  0  0  0  0  0  0  0  0  0
   -6.8531    1.9347  -24.0150 O   0  0  0  0  0  0  0  0  0  0  0  0
   -9.0881    1.5601  -24.7535 C   0  0  0  0  0  0  0  0  0  0  0  0
   -9.6693    0.3703  -24.1687 N   0  0  0  0  0  0  0  0  0  0  0  0
   -8.8641   -0.8361  -24.0717 C   0  0  0  0  0  0  0  0  0  0  0  0
   -9.1520   -1.6161  -22.7657 C   0  0  2  0  0  0  0  0  0  0  0  0
   -8.6058   -0.8226  -21.5549 C   0  0  0  0  0  0  0  0  0  0  0  0
   -9.1039    0.1472  -21.0221 O   0  0  0  0  0  0  0  0  0  0  0  0
   -7.4112   -1.3921  -21.1816 N   0  0  0  0  0  0  0  0  0  0  0  0
   -6.6155   -0.8135  -20.1672 C   0  0  0  0  0  0  0  0  0  0  0  0
   -6.9347   -1.0394  -18.8527 C   0  0  0  0  0  0  0  0  0  0  0  0
   -6.2358   -0.5492  -17.8025 N   0  0  0  0  0  0  0  0  0  0  0  0
   -5.1944    0.2006  -18.0758 C   0  0  0  0  0  0  0  0  0  0  0  0
   -4.7584    0.5203  -19.3935 C   0  0  0  0  0  0  0  0  0  0  0  0
   -3.6354    1.3562  -19.6310 C   0  0  0  0  0  0  0  0  0  0  0  0
   -3.2503    1.6576  -20.9078 C   0  0  0  0  0  0  0  0  0  0  0  0
   -3.9721    1.1452  -22.0085 C   0  0  0  0  0  0  0  0  0  0  0  0
   -5.0690    0.3401  -21.8087 C   0  0  0  0  0  0  0  0  0  0  0  0
   -5.4852   -0.0006  -20.4900 C   0  0  0  0  0  0  0  0  0  0  0  0
   -5.6341   -0.0045  -22.6706 H   0  0  0  0  0  0  0  0  0  0  0  0
   -3.6627    1.3953  -23.0193 H   0  0  0  0  0  0  0  0  0  0  0  0
   -2.3928    2.3001  -21.0834 H   0  0  0  0  0  0  0  0  0  0  0  0
   -3.1051    1.7553  -18.7712 H   0  0  0  0  0  0  0  0  0  0  0  0
   -4.6302    0.5983  -17.2318 H   0  0  0  0  0  0  0  0  0  0  0  0
   -7.7996   -1.6538  -18.6138 H   0  0  0  0  0  0  0  0  0  0  0  0
   -7.0253   -2.5533  -21.9566 C   0  0  0  0  0  0  0  0  0  0  0  0
   -8.3219   -2.9342  -22.6907 C   0  0  2  0  0  0  0  0  0  0  0  0
   -8.0707   -3.6452  -24.0265 C   0  0  0  0  0  0  0  0  0  0  0  0
   -7.4587   -4.9362  -23.8473 N   0  0  0  0  0  0  0  0  0  0  0  0
   -7.1131   -5.7296  -24.9302 C   0  0  0  0  0  0  0  0  0  0  0  0
   -6.4724   -7.0027  -24.8952 C   0  0  0  0  0  0  0  0  0  0  0  0
   -6.2828   -7.4815  -26.1176 N   0  0  0  0  0  0  0  0  0  0  0  0
   -6.7951   -6.5666  -26.9427 N   0  0  0  0  0  0  0  0  0  0  0  0
   -6.7342   -6.7681  -28.3714 C   0  0  0  0  0  0  0  0  0  0  0  0
   -5.8791   -6.2462  -28.8170 H   0  0  0  0  0  0  0  0  0  0  0  0
   -6.6321   -7.8412  -28.5361 H   0  0  0  0  0  0  0  0  0  0  0  0
   -7.6573   -6.4091  -28.8355 H   0  0  0  0  0  0  0  0  0  0  0  0
   -7.3024   -5.4898  -26.2789 C   0  0  0  0  0  0  0  0  0  0  0  0
   -7.7619   -4.6697  -26.8258 H   0  0  0  0  0  0  0  0  0  0  0  0
   -6.1404   -7.6019  -24.0522 H   0  0  0  0  0  0  0  0  0  0  0  0
   -7.2145   -5.2671  -22.9300 H   0  0  0  0  0  0  0  0  0  0  0  0
   -9.0221   -3.7625  -24.5662 H   0  0  0  0  0  0  0  0  0  0  0  0
   -7.4270   -3.0123  -24.6605 H   0  0  0  0  0  0  0  0  0  0  0  0
   -8.8698   -3.6271  -22.0462 H   0  0  0  0  0  0  0  0  0  0  0  0
   -6.2126   -2.3141  -22.6622 H   0  0  0  0  0  0  0  0  0  0  0  0
   -6.6703   -3.3471  -21.2916 H   0  0  0  0  0  0  0  0  0  0  0  0
  -10.6549   -1.7705  -22.6560 C   0  0  0  0  0  0  0  0  0  0  0  0
  -11.2192   -2.7599  -21.8497 C   0  0  0  0  0  0  0  0  0  0  0  0
  -12.5905   -2.8108  -21.6821 C   0  0  0  0  0  0  0  0  0  0  0  0
  -13.2604   -3.9694  -20.5818 Cl  0  0  0  0  0  0  0  0  0  0  0  0
  -13.4579   -1.9323  -22.3274 C   0  0  0  0  0  0  0  0  0  0  0  0
  -12.9062   -0.9436  -23.1078 C   0  0  0  0  0  0  0  0  0  0  0  0
  -11.5269   -0.8428  -23.2411 C   0  0  0  0  0  0  0  0  0  0  0  0
  -11.0177    0.3462  -23.9790 C   0  0  0  0  0  0  0  0  0  0  0  0
  -11.7558    1.2447  -24.3647 O   0  0  0  0  0  0  0  0  0  0  0  0
  -13.5078   -0.1991  -23.6126 H   0  0  0  0  0  0  0  0  0  0  0  0
  -14.5296   -2.0140  -22.1877 H   0  0  0  0  0  0  0  0  0  0  0  0
  -10.6046   -3.4812  -21.3233 H   0  0  0  0  0  0  0  0  0  0  0  0
   -9.0850   -1.4925  -24.9234 H   0  0  0  0  0  0  0  0  0  0  0  0
   -7.8099   -0.5494  -24.1262 H   0  0  0  0  0  0  0  0  0  0  0  0
   -8.5770    1.3064  -25.6926 H   0  0  0  0  0  0  0  0  0  0  0  0
   -9.9223    2.2383  -24.9654 H   0  0  0  0  0  0  0  0  0  0  0  0
   -9.3984    2.7301  -22.3657 H   0  0  0  0  0  0  0  0  0  0  0  0
   -7.9202    3.9249  -21.0174 H   0  0  0  0  0  0  0  0  0  0  0  0
   -6.8560    2.5247  -21.4565 H   0  0  0  0  0  0  0  0  0  0  0  0
   -6.7841    4.0699  -22.3669 H   0  0  0  0  0  0  0  0  0  0  0  0
  1  2  1  0
  2  3  1  0
  3  4  2  0
  3  5  1  0
  5  6  1  0
  6  7  1  0
  8  7  1  6
  8  9  1  0
  9 10  2  0
  9 11  1  0
 11 12  1  0
 12 13  2  0
 13 14  1  0
 14 15  2  0
 15 16  1  0
 16 17  2  0
 17 18  1  0
 18 19  2  0
 19 20  1  0
 20 21  2  0
 20 22  1  0
 19 23  1  0
 18 24  1  0
 17 25  1  0
 15 26  1  0
 13 27  1  0
 11 28  1  0
 28 29  1  0
 29 30  1  0
 30 31  1  0
 31 32  1  0
 32 33  1  0
 33 34  2  0
 34 35  1  0
 35 36  1  0
 36 37  1  0
 36 38  1  0
 36 39  1  0
 35 40  1  0
 40 41  1  0
 33 42  1  0
 31 43  1  0
 30 44  1  0
 30 45  1  0
 29 46  1  1
 28 47  1  0
 28 48  1  0
  8 49  1  0
 49 50  2  0
 50 51  1  0
 51 52  1  0
 51 53  2  0
 53 54  1  0
 54 55  2  0
 55 56  1  0
 56 57  2  0
 54 58  1  0
 53 59  1  0
 50 60  1  0
  7 61  1  0
  7 62  1  0
  5 63  1  0
  5 64  1  0
  2 65  1  0
  1 66  1  0
  1 67  1  0
  1 68  1  0
 56  6  1  0
 29  8  1  0
 40 32  2  0
 55 49  1  0
 21 12  1  0
 21 16  1  0
M  END
>  <cnnaffinities>  (2) 
[7.03729, 7.15799]

>  <score>  (2) 
7.03729

>  <index>  (2) 
1

>  <Smiles>  (2) 
C(N(C(=O)C(N1C([C@@]2(C(=O)N(c3c(nc(c4c(c(c(c(c34)[H])[H])[H])[H])[H])[H])C([C@@]2(C(N(c2c(nn(C([H])([H])[H])c2[H])[H])[H])([H])[H])[H])([H])[H])c2c(c(Cl)c(c(c2C1=O)[H])[H])[H])([H])[H])([H])[H])[H])([H])([H])[H]

>  <h>  (2) 
<NA>

>  <Training>  (2) 
True

>  <Success>  (2) 
True

>  <enamine_searched>  (2) 
False

>  <enamine_id>  (2) 
nan

$$$$

     RDKit          3D

 60 65  0  0  0  0  0  0  0  0999 V2000
   -6.3285    1.0716  -30.6318 C   0  0  0  0  0  0  0  0  0  0  0  0
   -6.7035    1.2292  -29.1821 C   0  0  0  0  0  0  0  0  0  0  0  0
   -6.0626    0.4834  -28.1876 C   0  0  0  0  0  0  0  0  0  0  0  0
   -6.3570    0.5871  -26.8934 N   0  0  0  0  0  0  0  0  0  0  0  0
   -7.3275    1.4511  -26.5741 C   0  0  0  0  0  0  0  0  0  0  0  0
   -7.7398    1.5599  -25.1213 C   0  0  0  0  0  0  0  0  0  0  0  0
   -8.7069    0.5416  -24.6915 N   0  0  0  0  0  0  0  0  0  0  0  0
   -8.2504   -0.8126  -24.4222 C   0  0  0  0  0  0  0  0  0  0  0  0
   -8.8813   -1.3624  -23.1116 C   0  0  2  0  0  0  0  0  0  0  0  0
   -8.3065   -0.5538  -21.9254 C   0  0  0  0  0  0  0  0  0  0  0  0
   -8.5479    0.6031  -21.6661 O   0  0  0  0  0  0  0  0  0  0  0  0
   -7.4397   -1.3477  -21.2023 N   0  0  0  0  0  0  0  0  0  0  0  0
   -6.6064   -0.8001  -20.1781 C   0  0  0  0  0  0  0  0  0  0  0  0
   -6.8877   -1.0478  -18.8592 C   0  0  0  0  0  0  0  0  0  0  0  0
   -6.1890   -0.5477  -17.8068 N   0  0  0  0  0  0  0  0  0  0  0  0
   -5.1573    0.2198  -18.0656 C   0  0  0  0  0  0  0  0  0  0  0  0
   -4.7223    0.5324  -19.3860 C   0  0  0  0  0  0  0  0  0  0  0  0
   -3.5950    1.3657  -19.6310 C   0  0  0  0  0  0  0  0  0  0  0  0
   -3.2087    1.6452  -20.9137 C   0  0  0  0  0  0  0  0  0  0  0  0
   -3.9227    1.1057  -22.0062 C   0  0  0  0  0  0  0  0  0  0  0  0
   -5.0129    0.3005  -21.7942 C   0  0  0  0  0  0  0  0  0  0  0  0
   -5.4535    0.0023  -20.4754 C   0  0  0  0  0  0  0  0  0  0  0  0
   -5.5610   -0.1126  -22.6358 H   0  0  0  0  0  0  0  0  0  0  0  0
   -3.6096    1.3349  -23.0204 H   0  0  0  0  0  0  0  0  0  0  0  0
   -2.3510    2.2844  -21.1067 H   0  0  0  0  0  0  0  0  0  0  0  0
   -3.0516    1.7808  -18.7848 H   0  0  0  0  0  0  0  0  0  0  0  0
   -4.6006    0.6275  -17.2168 H   0  0  0  0  0  0  0  0  0  0  0  0
   -7.7422   -1.6682  -18.5951 H   0  0  0  0  0  0  0  0  0  0  0  0
   -7.2326   -2.6560  -21.7940 C   0  0  0  0  0  0  0  0  0  0  0  0
   -8.4006   -2.8140  -22.7897 C   0  0  2  0  0  0  0  0  0  0  0  0
   -8.0327   -3.6977  -23.9834 C   0  0  0  0  0  0  0  0  0  0  0  0
   -7.1578   -3.3175  -24.5226 H   0  0  0  0  0  0  0  0  0  0  0  0
   -8.8582   -3.7716  -24.6983 H   0  0  0  0  0  0  0  0  0  0  0  0
   -7.7927   -4.7128  -23.6505 H   0  0  0  0  0  0  0  0  0  0  0  0
   -9.2115   -3.3235  -22.2620 H   0  0  0  0  0  0  0  0  0  0  0  0
   -6.2615   -2.7255  -22.3081 H   0  0  0  0  0  0  0  0  0  0  0  0
   -7.2463   -3.4335  -21.0268 H   0  0  0  0  0  0  0  0  0  0  0  0
  -10.3939   -1.1398  -23.1711 C   0  0  0  0  0  0  0  0  0  0  0  0
  -11.2541   -1.7981  -22.2782 C   0  0  0  0  0  0  0  0  0  0  0  0
  -12.6197   -1.5797  -22.3419 C   0  0  0  0  0  0  0  0  0  0  0  0
  -13.4273   -2.2420  -21.4948 F   0  0  0  0  0  0  0  0  0  0  0  0
  -13.1931   -0.6882  -23.2392 C   0  0  0  0  0  0  0  0  0  0  0  0
  -12.3397    0.0289  -24.0566 C   0  0  0  0  0  0  0  0  0  0  0  0
  -10.9497   -0.1591  -24.0127 C   0  0  0  0  0  0  0  0  0  0  0  0
  -10.0573    0.7852  -24.7928 C   0  0  0  0  0  0  0  0  0  0  0  0
  -10.5115    1.7222  -25.4335 O   0  0  0  0  0  0  0  0  0  0  0  0
  -12.7656    0.7710  -24.7195 H   0  0  0  0  0  0  0  0  0  0  0  0
  -14.2734   -0.5483  -23.2526 H   0  0  0  0  0  0  0  0  0  0  0  0
  -10.8834   -2.4529  -21.4959 H   0  0  0  0  0  0  0  0  0  0  0  0
   -7.1603   -0.8067  -24.3465 H   0  0  0  0  0  0  0  0  0  0  0  0
   -8.4978   -1.4666  -25.2719 H   0  0  0  0  0  0  0  0  0  0  0  0
   -6.8471    1.4668  -24.4914 H   0  0  0  0  0  0  0  0  0  0  0  0
   -8.1664    2.5439  -24.9066 H   0  0  0  0  0  0  0  0  0  0  0  0
   -7.9607    2.1982  -27.5631 C   0  0  0  0  0  0  0  0  0  0  0  0
   -7.6611    2.0969  -28.8616 N   0  0  0  0  0  0  0  0  0  0  0  0
   -8.7488    2.8957  -27.2907 H   0  0  0  0  0  0  0  0  0  0  0  0
   -5.2859   -0.2262  -28.4622 H   0  0  0  0  0  0  0  0  0  0  0  0
   -6.4936    0.0471  -30.9802 H   0  0  0  0  0  0  0  0  0  0  0  0
   -6.9151    1.7438  -31.2593 H   0  0  0  0  0  0  0  0  0  0  0  0
   -5.2678    1.2846  -30.7986 H   0  0  0  0  0  0  0  0  0  0  0  0
  1  2  1  0
  2  3  2  0
  3  4  1  0
  4  5  2  0
  5  6  1  0
  6  7  1  0
  7  8  1  0
  9  8  1  6
  9 10  1  0
 10 11  2  0
 10 12  1  0
 12 13  1  0
 13 14  2  0
 14 15  1  0
 15 16  2  0
 16 17  1  0
 17 18  2  0
 18 19  1  0
 19 20  2  0
 20 21  1  0
 21 22  2  0
 21 23  1  0
 20 24  1  0
 19 25  1  0
 18 26  1  0
 16 27  1  0
 14 28  1  0
 12 29  1  0
 29 30  1  0
 30 31  1  0
 31 32  1  0
 31 33  1  0
 31 34  1  0
 30 35  1  1
 29 36  1  0
 29 37  1  0
  9 38  1  0
 38 39  2  0
 39 40  1  0
 40 41  1  0
 40 42  2  0
 42 43  1  0
 43 44  2  0
 44 45  1  0
 45 46  2  0
 43 47  1  0
 42 48  1  0
 39 49  1  0
  8 50  1  0
  8 51  1  0
  6 52  1  0
  6 53  1  0
  5 54  1  0
 54 55  2  0
 54 56  1  0
  3 57  1  0
  1 58  1  0
  1 59  1  0
  1 60  1  0
 55  2  1  0
 45  7  1  0
 30  9  1  0
 44 38  1  0
 22 13  1  0
 22 17  1  0
M  END
>  <cnnaffinities>  (3) 
[6.39354]

>  <score>  (3) 
6.39354

>  <index>  (3) 
2

>  <Smiles>  (3) 
C(c1c(nc(C(N2C([C@@]3(C(=O)N(c4c(nc(c5c(c(c(c(c45)[H])[H])[H])[H])[H])[H])C([C@@]3(C([H])([H])[H])[H])([H])[H])c3c(c(F)c(c(c3C2=O)[H])[H])[H])([H])[H])([H])[H])c(n1)[H])[H])([H])([H])[H]

>  <h>  (3) 
<NA>

>  <Training>  (3) 
True

>  <Success>  (3) 
True

>  <enamine_searched>  (3) 
False

>  <enamine_id>  (3) 
nan

$$$$

     RDKit          3D

 66 70  0  0  0  0  0  0  0  0999 V2000
   -7.5275    3.2628  -21.8115 C   0  0  0  0  0  0  0  0  0  0  0  0
   -8.5408    2.8144  -22.7485 N   0  0  0  0  0  0  0  0  0  0  0  0
   -8.0812    2.0864  -23.8055 C   0  0  0  0  0  0  0  0  0  0  0  0
   -6.8821    1.9129  -23.9841 O   0  0  0  0  0  0  0  0  0  0  0  0
   -9.0933    1.4751  -24.7655 C   0  0  0  0  0  0  0  0  0  0  0  0
   -9.6535    0.2617  -24.2171 N   0  0  0  0  0  0  0  0  0  0  0  0
   -8.8153   -0.9167  -24.0998 C   0  0  0  0  0  0  0  0  0  0  0  0
   -9.0937   -1.6997  -22.7949 C   0  0  2  0  0  0  0  0  0  0  0  0
   -8.5775   -0.8892  -21.5817 C   0  0  0  0  0  0  0  0  0  0  0  0
   -9.1084    0.0685  -21.0615 O   0  0  0  0  0  0  0  0  0  0  0  0
   -7.3730   -1.4266  -21.1915 N   0  0  0  0  0  0  0  0  0  0  0  0
   -6.5965   -0.8296  -20.1700 C   0  0  0  0  0  0  0  0  0  0  0  0
   -6.9205   -1.0492  -18.8552 C   0  0  0  0  0  0  0  0  0  0  0  0
   -6.2300   -0.5443  -17.8042 N   0  0  0  0  0  0  0  0  0  0  0  0
   -5.1895    0.2087  -18.0726 C   0  0  0  0  0  0  0  0  0  0  0  0
   -4.7461    0.5189  -19.3907 C   0  0  0  0  0  0  0  0  0  0  0  0
   -3.6255    1.3588  -19.6314 C   0  0  0  0  0  0  0  0  0  0  0  0
   -3.2394    1.6563  -20.9095 C   0  0  0  0  0  0  0  0  0  0  0  0
   -3.9573    1.1364  -22.0097 C   0  0  0  0  0  0  0  0  0  0  0  0
   -5.0526    0.3287  -21.8071 C   0  0  0  0  0  0  0  0  0  0  0  0
   -5.4684   -0.0106  -20.4877 C   0  0  0  0  0  0  0  0  0  0  0  0
   -5.6185   -0.0224  -22.6662 H   0  0  0  0  0  0  0  0  0  0  0  0
   -3.6522    1.3855  -23.0226 H   0  0  0  0  0  0  0  0  0  0  0  0
   -2.3840    2.3019  -21.0899 H   0  0  0  0  0  0  0  0  0  0  0  0
   -3.0933    1.7643  -18.7750 H   0  0  0  0  0  0  0  0  0  0  0  0
   -4.6258    0.6120  -17.2288 H   0  0  0  0  0  0  0  0  0  0  0  0
   -7.7835   -1.6652  -18.6113 H   0  0  0  0  0  0  0  0  0  0  0  0
   -6.9612   -2.5941  -21.9440 C   0  0  0  0  0  0  0  0  0  0  0  0
   -8.2334   -2.9970  -22.7139 C   0  0  2  0  0  0  0  0  0  0  0  0
   -7.9294   -3.6886  -24.0422 C   0  0  0  0  0  0  0  0  0  0  0  0
   -7.2228   -4.8889  -23.8004 O   0  0  0  0  0  0  0  0  0  0  0  0
   -7.0474   -5.7039  -24.9564 C   0  0  0  0  0  0  0  0  0  0  0  0
   -5.6721   -6.3486  -24.8791 C   0  0  0  0  0  0  0  0  0  0  0  0
   -5.4875   -6.9646  -25.7649 H   0  0  0  0  0  0  0  0  0  0  0  0
   -4.8811   -5.5973  -24.8212 H   0  0  0  0  0  0  0  0  0  0  0  0
   -5.6006   -6.9918  -23.9990 H   0  0  0  0  0  0  0  0  0  0  0  0
   -8.1487   -6.7542  -25.0462 C   0  0  0  0  0  0  0  0  0  0  0  0
   -8.1277   -7.4038  -24.1675 H   0  0  0  0  0  0  0  0  0  0  0  0
   -9.1422   -6.3015  -25.1099 H   0  0  0  0  0  0  0  0  0  0  0  0
   -8.0068   -7.3765  -25.9352 H   0  0  0  0  0  0  0  0  0  0  0  0
   -7.0836   -5.0691  -25.8555 H   0  0  0  0  0  0  0  0  0  0  0  0
   -8.8699   -3.8874  -24.5842 H   0  0  0  0  0  0  0  0  0  0  0  0
   -7.3142   -3.0239  -24.6728 H   0  0  0  0  0  0  0  0  0  0  0  0
   -8.7772   -3.7186  -22.1041 H   0  0  0  0  0  0  0  0  0  0  0  0
   -6.1356   -2.3578  -22.6297 H   0  0  0  0  0  0  0  0  0  0  0  0
   -6.6206   -3.3831  -21.2694 H   0  0  0  0  0  0  0  0  0  0  0  0
  -10.5960   -1.8880  -22.6896 C   0  0  0  0  0  0  0  0  0  0  0  0
  -11.1401   -2.8501  -21.8331 C   0  0  0  0  0  0  0  0  0  0  0  0
  -12.5143   -2.9339  -21.6778 C   0  0  0  0  0  0  0  0  0  0  0  0
  -13.1742   -4.0194  -20.4925 Cl  0  0  0  0  0  0  0  0  0  0  0  0
  -13.3978   -2.1287  -22.3988 C   0  0  0  0  0  0  0  0  0  0  0  0
  -12.8662   -1.1550  -23.2156 C   0  0  0  0  0  0  0  0  0  0  0  0
  -11.4868   -1.0095  -23.3232 C   0  0  0  0  0  0  0  0  0  0  0  0
  -11.0023    0.1923  -24.0556 C   0  0  0  0  0  0  0  0  0  0  0  0
  -11.7630    1.0690  -24.4555 O   0  0  0  0  0  0  0  0  0  0  0  0
  -13.4902   -0.4513  -23.7559 H   0  0  0  0  0  0  0  0  0  0  0  0
  -14.4695   -2.2568  -22.2811 H   0  0  0  0  0  0  0  0  0  0  0  0
  -10.4972   -3.5191  -21.2684 H   0  0  0  0  0  0  0  0  0  0  0  0
   -9.0163   -1.5802  -24.9468 H   0  0  0  0  0  0  0  0  0  0  0  0
   -7.7678   -0.6041  -24.1522 H   0  0  0  0  0  0  0  0  0  0  0  0
   -8.5263    1.2650  -25.6807 H   0  0  0  0  0  0  0  0  0  0  0  0
   -9.9335    2.1488  -24.9644 H   0  0  0  0  0  0  0  0  0  0  0  0
   -9.4664    2.6717  -22.3683 H   0  0  0  0  0  0  0  0  0  0  0  0
   -6.8568    3.9615  -22.3135 H   0  0  0  0  0  0  0  0  0  0  0  0
   -7.9883    3.7536  -20.9590 H   0  0  0  0  0  0  0  0  0  0  0  0
   -6.9345    2.4137  -21.4551 H   0  0  0  0  0  0  0  0  0  0  0  0
  1  2  1  0
  2  3  1  0
  3  4  2  0
  3  5  1  0
  5  6  1  0
  6  7  1  0
  8  7  1  6
  8  9  1  0
  9 10  2  0
  9 11  1  0
 11 12  1  0
 12 13  2  0
 13 14  1  0
 14 15  2  0
 15 16  1  0
 16 17  2  0
 17 18  1  0
 18 19  2  0
 19 20  1  0
 20 21  2  0
 20 22  1  0
 19 23  1  0
 18 24  1  0
 17 25  1  0
 15 26  1  0
 13 27  1  0
 11 28  1  0
 28 29  1  0
 29 30  1  0
 30 31  1  0
 31 32  1  0
 32 33  1  0
 33 34  1  0
 33 35  1  0
 33 36  1  0
 32 37  1  0
 37 38  1  0
 37 39  1  0
 37 40  1  0
 32 41  1  0
 30 42  1  0
 30 43  1  0
 29 44  1  1
 28 45  1  0
 28 46  1  0
  8 47  1  0
 47 48  2  0
 48 49  1  0
 49 50  1  0
 49 51  2  0
 51 52  1  0
 52 53  2  0
 53 54  1  0
 54 55  2  0
 52 56  1  0
 51 57  1  0
 48 58  1  0
  7 59  1  0
  7 60  1  0
  5 61  1  0
  5 62  1  0
  2 63  1  0
  1 64  1  0
  1 65  1  0
  1 66  1  0
 54  6  1  0
 29  8  1  0
 53 47  1  0
 21 12  1  0
 21 16  1  0
M  END
>  <cnnaffinities>  (4) 
[6.68567, 6.69954, 6.60503]

>  <score>  (4) 
6.68567

>  <index>  (4) 
3

>  <Smiles>  (4) 
C(N(C(=O)C(N1C([C@@]2(C(=O)N(c3c(nc(c4c(c(c(c(c34)[H])[H])[H])[H])[H])[H])C([C@@]2(C(OC(C([H])([H])[H])(C([H])([H])[H])[H])([H])[H])[H])([H])[H])c2c(c(Cl)c(c(c2C1=O)[H])[H])[H])([H])[H])([H])[H])[H])([H])([H])[H]

>  <h>  (4) 
<NA>

>  <Training>  (4) 
True

>  <Success>  (4) 
True

>  <enamine_searched>  (4) 
False

>  <enamine_id>  (4) 
nan

$$$$

     RDKit          3D

 59 64  0  0  0  0  0  0  0  0999 V2000
   -8.0738   -3.8372  -23.8609 C   0  0  0  0  0  0  0  0  0  0  0  0
   -8.4143   -2.8535  -22.7315 C   0  0  1  0  0  0  0  0  0  0  0  0
   -7.2629   -2.7044  -21.7149 C   0  0  0  0  0  0  0  0  0  0  0  0
   -7.4339   -1.3612  -21.1931 N   0  0  0  0  0  0  0  0  0  0  0  0
   -6.6137   -0.7995  -20.1788 C   0  0  0  0  0  0  0  0  0  0  0  0
   -6.9005   -1.0506  -18.8634 C   0  0  0  0  0  0  0  0  0  0  0  0
   -6.1973   -0.5569  -17.8135 N   0  0  0  0  0  0  0  0  0  0  0  0
   -5.1689    0.2095  -18.0852 C   0  0  0  0  0  0  0  0  0  0  0  0
   -4.7398    0.5323  -19.4036 C   0  0  0  0  0  0  0  0  0  0  0  0
   -3.6063    1.3578  -19.6440 C   0  0  0  0  0  0  0  0  0  0  0  0
   -3.2043    1.6371  -20.9199 C   0  0  0  0  0  0  0  0  0  0  0  0
   -3.9139    1.0946  -22.0209 C   0  0  0  0  0  0  0  0  0  0  0  0
   -5.0116    0.2977  -21.8141 C   0  0  0  0  0  0  0  0  0  0  0  0
   -5.4714    0.0089  -20.4952 C   0  0  0  0  0  0  0  0  0  0  0  0
   -5.5432   -0.1142  -22.6692 H   0  0  0  0  0  0  0  0  0  0  0  0
   -3.6043    1.3201  -23.0370 H   0  0  0  0  0  0  0  0  0  0  0  0
   -2.3484    2.2839  -21.0937 H   0  0  0  0  0  0  0  0  0  0  0  0
   -3.0805    1.7694  -18.7846 H   0  0  0  0  0  0  0  0  0  0  0  0
   -4.6226    0.6143  -17.2320 H   0  0  0  0  0  0  0  0  0  0  0  0
   -7.7476   -1.6816  -18.6015 H   0  0  0  0  0  0  0  0  0  0  0  0
   -8.2389   -0.5595  -21.9689 C   0  0  0  0  0  0  0  0  0  0  0  0
   -8.4314    0.6177  -21.7448 O   0  0  0  0  0  0  0  0  0  0  0  0
   -8.7912   -1.3946  -23.1496 C   0  0  1  0  0  0  0  0  0  0  0  0
   -8.0699   -0.9702  -24.4526 C   0  0  0  0  0  0  0  0  0  0  0  0
   -8.4422    0.3665  -24.8647 N   0  0  0  0  0  0  0  0  0  0  0  0
   -7.3913    1.3665  -25.0202 C   0  0  0  0  0  0  0  0  0  0  0  0
   -6.2983    0.9636  -25.9703 C   0  0  0  0  0  0  0  0  0  0  0  0
   -5.0486    0.7221  -25.6246 N   0  0  0  0  0  0  0  0  0  0  0  0
   -4.4133    0.3461  -26.7823 C   0  0  0  0  0  0  0  0  0  0  0  0
   -5.2931    0.3653  -27.8321 C   0  0  0  0  0  0  0  0  0  0  0  0
   -6.5008    0.7686  -27.3029 N   0  0  0  0  0  0  0  0  0  0  0  0
   -7.7499    0.9200  -28.0272 C   0  0  0  0  0  0  0  0  0  0  0  0
   -8.4612    0.1344  -27.7541 H   0  0  0  0  0  0  0  0  0  0  0  0
   -8.2038    1.8962  -27.8250 H   0  0  0  0  0  0  0  0  0  0  0  0
   -7.5236    0.8477  -29.0939 H   0  0  0  0  0  0  0  0  0  0  0  0
   -5.1957    0.1307  -28.8811 H   0  0  0  0  0  0  0  0  0  0  0  0
   -3.3646    0.0728  -26.7756 H   0  0  0  0  0  0  0  0  0  0  0  0
   -7.9011    2.2805  -25.3423 H   0  0  0  0  0  0  0  0  0  0  0  0
   -6.9118    1.5502  -24.0472 H   0  0  0  0  0  0  0  0  0  0  0  0
   -9.7595    0.7085  -24.9993 C   0  0  0  0  0  0  0  0  0  0  0  0
  -10.1343    1.6581  -25.6786 O   0  0  0  0  0  0  0  0  0  0  0  0
  -10.7314   -0.1431  -24.2272 C   0  0  0  0  0  0  0  0  0  0  0  0
  -12.0944    0.1406  -24.3337 C   0  0  0  0  0  0  0  0  0  0  0  0
  -13.0242   -0.5507  -23.5891 C   0  0  0  0  0  0  0  0  0  0  0  0
  -12.5619   -1.4558  -22.6416 C   0  0  0  0  0  0  0  0  0  0  0  0
  -13.4542   -2.0519  -21.8318 F   0  0  0  0  0  0  0  0  0  0  0  0
  -11.2193   -1.7312  -22.4815 C   0  0  0  0  0  0  0  0  0  0  0  0
  -10.2791   -1.1220  -23.3261 C   0  0  0  0  0  0  0  0  0  0  0  0
  -10.9353   -2.3904  -21.6677 H   0  0  0  0  0  0  0  0  0  0  0  0
  -14.0850   -0.3557  -23.6885 H   0  0  0  0  0  0  0  0  0  0  0  0
  -12.4201    0.9683  -24.9477 H   0  0  0  0  0  0  0  0  0  0  0  0
   -6.9869   -0.9708  -24.3014 H   0  0  0  0  0  0  0  0  0  0  0  0
   -8.3183   -1.6812  -25.2531 H   0  0  0  0  0  0  0  0  0  0  0  0
   -7.3112   -3.4371  -20.9018 H   0  0  0  0  0  0  0  0  0  0  0  0
   -6.2855   -2.8291  -22.2081 H   0  0  0  0  0  0  0  0  0  0  0  0
   -9.2812   -3.2428  -22.1930 H   0  0  0  0  0  0  0  0  0  0  0  0
   -7.9022   -4.8465  -23.4672 H   0  0  0  0  0  0  0  0  0  0  0  0
   -8.8752   -3.9035  -24.6065 H   0  0  0  0  0  0  0  0  0  0  0  0
   -7.1598   -3.5349  -24.3889 H   0  0  0  0  0  0  0  0  0  0  0  0
  1  2  1  0
  2  3  1  0
  3  4  1  0
  4  5  1  0
  5  6  2  0
  6  7  1  0
  7  8  2  0
  8  9  1  0
  9 10  2  0
 10 11  1  0
 11 12  2  0
 12 13  1  0
 13 14  2  0
 13 15  1  0
 12 16  1  0
 11 17  1  0
 10 18  1  0
  8 19  1  0
  6 20  1  0
  4 21  1  0
 21 22  2  0
 21 23  1  0
 23 24  1  6
 24 25  1  0
 25 26  1  0
 26 27  1  0
 27 28  2  0
 28 29  1  0
 29 30  2  0
 30 31  1  0
 31 32  1  0
 32 33  1  0
 32 34  1  0
 32 35  1  0
 30 36  1  0
 29 37  1  0
 26 38  1  0
 26 39  1  0
 25 40  1  0
 40 41  2  0
 40 42  1  0
 42 43  2  0
 43 44  1  0
 44 45  2  0
 45 46  1  0
 45 47  1  0
 47 48  2  0
 47 49  1  0
 44 50  1  0
 43 51  1  0
 24 52  1  0
 24 53  1  0
  3 54  1  0
  3 55  1  0
  2 56  1  1
  1 57  1  0
  1 58  1  0
  1 59  1  0
 23  2  1  0
 31 27  1  0
 48 42  1  0
 14  5  1  0
 48 23  1  0
 14  9  1  0
M  END
>  <cnnaffinities>  (5) 
[6.3527, 6.269, 5.92417, 6.56204, 6.57244]

>  <score>  (5) 
6.3527

>  <index>  (5) 
4

>  <Smiles>  (5) 
C([C@]1(C(N(c2c(nc(c3c(c(c(c(c23)[H])[H])[H])[H])[H])[H])C(=O)[C@]21C(N(C(c1nc(c(n1C([H])([H])[H])[H])[H])([H])[H])C(=O)c1c(c(c(F)c(c21)[H])[H])[H])([H])[H])([H])[H])[H])([H])([H])[H]

>  <h>  (5) 
<NA>

>  <Training>  (5) 
True

>  <Success>  (5) 
True

>  <enamine_searched>  (5) 
False

>  <enamine_id>  (5) 
nan

$$$$

     RDKit          3D

 58 61  0  0  0  0  0  0  0  0999 V2000
   -8.1552   -4.6238  -21.7071 C   0  0  0  0  0  0  0  0  0  0  0  0
   -7.1174   -3.8403  -21.4234 C   0  0  0  0  0  0  0  0  0  0  0  0
   -6.7942   -2.5009  -22.0061 C   0  0  0  0  0  0  0  0  0  0  0  0
   -7.3683   -1.3946  -21.2365 N   0  0  0  0  0  0  0  0  0  0  0  0
   -8.6007   -0.7910  -21.4628 C   0  0  0  0  0  0  0  0  0  0  0  0
   -9.0442    0.0226  -20.6769 O   0  0  0  0  0  0  0  0  0  0  0  0
   -9.3264   -1.0976  -22.7777 C   0  0  2  0  0  0  0  0  0  0  0  0
   -8.7305   -0.2275  -23.9000 C   0  0  0  0  0  0  0  0  0  0  0  0
   -9.0718    1.1742  -23.6642 N   0  0  0  0  0  0  0  0  0  0  0  0
   -8.0264    2.1823  -23.7221 C   0  0  0  0  0  0  0  0  0  0  0  0
   -7.5153    2.3323  -25.1527 C   0  0  0  0  0  0  0  0  0  0  0  0
   -6.4739    1.8166  -25.5269 O   0  0  0  0  0  0  0  0  0  0  0  0
   -8.3348    3.0250  -25.9875 N   0  0  0  0  0  0  0  0  0  0  0  0
   -7.9446    3.2083  -27.3723 C   0  0  0  0  0  0  0  0  0  0  0  0
   -6.9930    3.7476  -27.4230 H   0  0  0  0  0  0  0  0  0  0  0  0
   -7.8181    2.2394  -27.8679 H   0  0  0  0  0  0  0  0  0  0  0  0
   -8.7068    3.7834  -27.9042 H   0  0  0  0  0  0  0  0  0  0  0  0
   -9.2350    3.3517  -25.6651 H   0  0  0  0  0  0  0  0  0  0  0  0
   -7.1999    1.8878  -23.0612 H   0  0  0  0  0  0  0  0  0  0  0  0
   -8.4395    3.1318  -23.3673 H   0  0  0  0  0  0  0  0  0  0  0  0
  -10.3684    1.5661  -23.4548 C   0  0  0  0  0  0  0  0  0  0  0  0
  -10.7503    2.7135  -23.6439 O   0  0  0  0  0  0  0  0  0  0  0  0
  -11.2892    0.4859  -22.9779 C   0  0  0  0  0  0  0  0  0  0  0  0
  -12.6480    0.7817  -22.8568 C   0  0  0  0  0  0  0  0  0  0  0  0
  -13.5462   -0.2017  -22.4849 C   0  0  0  0  0  0  0  0  0  0  0  0
  -13.0622   -1.4725  -22.1737 C   0  0  0  0  0  0  0  0  0  0  0  0
  -14.1788   -2.6964  -21.6362 Cl  0  0  0  0  0  0  0  0  0  0  0  0
  -11.7074   -1.7662  -22.2652 C   0  0  0  0  0  0  0  0  0  0  0  0
  -10.8024   -0.7860  -22.6757 C   0  0  0  0  0  0  0  0  0  0  0  0
  -11.3526   -2.7612  -22.0078 H   0  0  0  0  0  0  0  0  0  0  0  0
  -14.6106    0.0094  -22.4298 H   0  0  0  0  0  0  0  0  0  0  0  0
  -12.9756    1.7954  -23.0654 H   0  0  0  0  0  0  0  0  0  0  0  0
   -9.1247   -0.5678  -24.8684 H   0  0  0  0  0  0  0  0  0  0  0  0
   -7.6393   -0.3146  -23.9519 H   0  0  0  0  0  0  0  0  0  0  0  0
   -9.2065   -2.1575  -23.0157 H   0  0  0  0  0  0  0  0  0  0  0  0
   -6.5960   -0.8500  -20.1788 C   0  0  0  0  0  0  0  0  0  0  0  0
   -6.8941   -1.1300  -18.8703 C   0  0  0  0  0  0  0  0  0  0  0  0
   -6.2084   -0.6274  -17.8154 N   0  0  0  0  0  0  0  0  0  0  0  0
   -5.1957    0.1681  -18.0747 C   0  0  0  0  0  0  0  0  0  0  0  0
   -4.7623    0.5079  -19.3891 C   0  0  0  0  0  0  0  0  0  0  0  0
   -3.6392    1.3432  -19.6271 C   0  0  0  0  0  0  0  0  0  0  0  0
   -3.2448    1.6358  -20.9032 C   0  0  0  0  0  0  0  0  0  0  0  0
   -3.9539    1.1176  -22.0085 C   0  0  0  0  0  0  0  0  0  0  0  0
   -5.0514    0.3159  -21.8074 C   0  0  0  0  0  0  0  0  0  0  0  0
   -5.4751   -0.0194  -20.4862 C   0  0  0  0  0  0  0  0  0  0  0  0
   -5.5889   -0.0633  -22.6735 H   0  0  0  0  0  0  0  0  0  0  0  0
   -3.6328    1.3586  -23.0178 H   0  0  0  0  0  0  0  0  0  0  0  0
   -2.3839    2.2737  -21.0762 H   0  0  0  0  0  0  0  0  0  0  0  0
   -3.1091    1.7454  -18.7691 H   0  0  0  0  0  0  0  0  0  0  0  0
   -4.6487    0.5808  -17.2263 H   0  0  0  0  0  0  0  0  0  0  0  0
   -7.7195   -1.8026  -18.6402 H   0  0  0  0  0  0  0  0  0  0  0  0
   -7.0565   -2.4131  -23.0650 H   0  0  0  0  0  0  0  0  0  0  0  0
   -5.7152   -2.4494  -21.8425 H   0  0  0  0  0  0  0  0  0  0  0  0
   -5.9700   -4.1692  -20.4291 C   0  0  0  0  0  0  0  0  0  0  0  0
   -5.0855   -3.2812  -20.4284 O   0  0  0  0  0  0  0  0  0  0  0  0
   -5.9565   -5.2351  -19.8010 O   0  0  0  0  0  1  0  0  0  0  0  0
   -8.9142   -4.2965  -22.4206 H   0  0  0  0  0  0  0  0  0  0  0  0
   -8.3044   -5.6223  -21.3020 H   0  0  0  0  0  0  0  0  0  0  0  0
  1  2  2  0
  2  3  1  0
  3  4  1  0
  4  5  1  0
  5  6  2  0
  5  7  1  0
  7  8  1  0
  8  9  1  0
  9 10  1  0
 10 11  1  0
 11 12  2  0
 11 13  1  0
 13 14  1  0
 14 15  1  0
 14 16  1  0
 14 17  1  0
 13 18  1  0
 10 19  1  0
 10 20  1  0
  9 21  1  0
 21 22  2  0
 21 23  1  0
 23 24  2  0
 24 25  1  0
 25 26  2  0
 26 27  1  0
 26 28  1  0
 28 29  2  0
 28 30  1  0
 25 31  1  0
 24 32  1  0
  8 33  1  0
  8 34  1  0
  7 35  1  6
  4 36  1  0
 36 37  2  0
 37 38  1  0
 38 39  2  0
 39 40  1  0
 40 41  2  0
 41 42  1  0
 42 43  2  0
 43 44  1  0
 44 45  2  0
 44 46  1  0
 43 47  1  0
 42 48  1  0
 41 49  1  0
 39 50  1  0
 37 51  1  0
  3 52  1  0
  3 53  1  0
  2 54  1  0
 54 55  2  0
 54 56  1  0
  1 57  1  0
  1 58  1  0
 29  7  1  0
 45 36  1  0
 29 23  1  0
 45 40  1  0
M  CHG  1  56  -1
M  END
>  <cnnaffinities>  (6) 
[6.06579]

>  <score>  (6) 
6.06579

>  <index>  (6) 
5

>  <Smiles>  (6) 
C(=C(C(N(C(=O)[C@@]1(C(N(C(C(=O)N(C([H])([H])[H])[H])([H])[H])C(=O)c2c(c(c(Cl)c(c12)[H])[H])[H])([H])[H])[H])c1c(nc(c2c(c(c(c(c12)[H])[H])[H])[H])[H])[H])([H])[H])C(=O)[O-])([H])[H]

>  <h>  (6) 
<NA>

>  <Training>  (6) 
True

>  <Success>  (6) 
True

>  <enamine_searched>  (6) 
False

>  <enamine_id>  (6) 
nan

$$$$

     RDKit          3D

 43 45  0  0  0  0  0  0  0  0999 V2000
   -8.2915   -5.9227  -27.5915 C   0  0  0  0  0  0  0  0  0  0  0  0
   -8.9338   -4.8576  -26.7144 C   0  0  0  0  0  0  0  0  0  0  0  0
   -7.9730   -4.1550  -25.7466 C   0  0  0  0  0  0  0  0  0  0  0  0
   -7.3673   -5.1158  -24.7226 C   0  0  0  0  0  0  0  0  0  0  0  0
   -6.5634   -4.4022  -23.6402 C   0  0  0  0  0  0  0  0  0  0  0  0
   -7.3118   -3.3159  -22.9956 N   0  0  0  0  0  0  0  0  0  0  0  0
   -6.7197   -2.7014  -21.9184 C   0  0  0  0  0  0  0  0  0  0  0  0
   -5.6548   -3.1073  -21.4779 O   0  0  0  0  0  0  0  0  0  0  0  0
   -7.4098   -1.4711  -21.2750 C   0  0  0  0  0  0  0  0  0  0  0  0
   -6.5783   -0.8330  -20.1829 C   0  0  0  0  0  0  0  0  0  0  0  0
   -6.8729   -1.0469  -18.8617 C   0  0  0  0  0  0  0  0  0  0  0  0
   -6.1910   -0.5410  -17.7977 N   0  0  0  0  0  0  0  0  0  0  0  0
   -5.1592    0.2227  -18.0639 C   0  0  0  0  0  0  0  0  0  0  0  0
   -4.7217    0.5309  -19.3806 C   0  0  0  0  0  0  0  0  0  0  0  0
   -3.5934    1.3587  -19.6215 C   0  0  0  0  0  0  0  0  0  0  0  0
   -3.1925    1.6350  -20.9005 C   0  0  0  0  0  0  0  0  0  0  0  0
   -3.9049    1.0916  -21.9930 C   0  0  0  0  0  0  0  0  0  0  0  0
   -5.0015    0.2898  -21.7864 C   0  0  0  0  0  0  0  0  0  0  0  0
   -5.4450   -0.0125  -20.4730 C   0  0  0  0  0  0  0  0  0  0  0  0
   -5.5332   -0.1236  -22.6375 H   0  0  0  0  0  0  0  0  0  0  0  0
   -3.5802    1.3159  -23.0049 H   0  0  0  0  0  0  0  0  0  0  0  0
   -2.3303    2.2720  -21.0876 H   0  0  0  0  0  0  0  0  0  0  0  0
   -3.0553    1.7742  -18.7709 H   0  0  0  0  0  0  0  0  0  0  0  0
   -4.6017    0.6288  -17.2161 H   0  0  0  0  0  0  0  0  0  0  0  0
   -7.7211   -1.6718  -18.5871 H   0  0  0  0  0  0  0  0  0  0  0  0
   -8.3709   -1.7897  -20.8449 H   0  0  0  0  0  0  0  0  0  0  0  0
   -7.6535   -0.7200  -22.0411 H   0  0  0  0  0  0  0  0  0  0  0  0
   -8.6454   -3.0531  -23.5200 C   0  0  0  0  0  0  0  0  0  0  0  0
   -8.6340   -2.9511  -25.0434 C   0  0  0  0  0  0  0  0  0  0  0  0
   -8.1118   -2.0337  -25.3272 H   0  0  0  0  0  0  0  0  0  0  0  0
   -9.6639   -2.8246  -25.3930 H   0  0  0  0  0  0  0  0  0  0  0  0
   -9.3373   -3.8467  -23.2112 H   0  0  0  0  0  0  0  0  0  0  0  0
   -9.0310   -2.1252  -23.0975 H   0  0  0  0  0  0  0  0  0  0  0  0
   -6.2444   -5.1243  -22.8829 H   0  0  0  0  0  0  0  0  0  0  0  0
   -5.6395   -4.0050  -24.0758 H   0  0  0  0  0  0  0  0  0  0  0  0
   -6.7106   -5.8310  -25.2286 H   0  0  0  0  0  0  0  0  0  0  0  0
   -8.1488   -5.7332  -24.2656 H   0  0  0  0  0  0  0  0  0  0  0  0
   -7.1470   -3.7641  -26.3520 H   0  0  0  0  0  0  0  0  0  0  0  0
   -9.4099   -4.1068  -27.3574 H   0  0  0  0  0  0  0  0  0  0  0  0
   -9.7315   -5.3208  -26.1301 H   0  0  0  0  0  0  0  0  0  0  0  0
   -7.4198   -5.5200  -28.1148 H   0  0  0  0  0  0  0  0  0  0  0  0
   -7.9591   -6.7854  -27.0070 H   0  0  0  0  0  0  0  0  0  0  0  0
   -8.9917   -6.2898  -28.3490 H   0  0  0  0  0  0  0  0  0  0  0  0
  1  2  1  0
  2  3  1  0
  3  4  1  0
  4  5  1  0
  5  6  1  0
  6  7  1  0
  7  8  2  0
  7  9  1  0
  9 10  1  0
 10 11  2  0
 11 12  1  0
 12 13  2  0
 13 14  1  0
 14 15  2  0
 15 16  1  0
 16 17  2  0
 17 18  1  0
 18 19  2  0
 18 20  1  0
 17 21  1  0
 16 22  1  0
 15 23  1  0
 13 24  1  0
 11 25  1  0
  9 26  1  0
  9 27  1  0
  6 28  1  0
 28 29  1  0
 29 30  1  0
 29 31  1  0
 28 32  1  0
 28 33  1  0
  5 34  1  0
  5 35  1  0
  4 36  1  0
  4 37  1  0
  3 38  1  0
  2 39  1  0
  2 40  1  0
  1 41  1  0
  1 42  1  0
  1 43  1  0
 29  3  1  0
 19 10  1  0
 19 14  1  0
M  END
>  <cnnaffinities>  (7) 
[4.85394, 5.30102, 4.62232, 4.62165, 4.91504]

>  <score>  (7) 
4.85394

>  <index>  (7) 
6

>  <Smiles>  (7) 
C(C(C1(C(C(N(C(=O)C(c2c(nc(c3c(c(c(c(c23)[H])[H])[H])[H])[H])[H])([H])[H])C(C1([H])[H])([H])[H])([H])[H])([H])[H])[H])([H])[H])([H])([H])[H]

>  <h>  (7) 
<NA>

>  <Training>  (7) 
True

>  <Success>  (7) 
True

>  <enamine_searched>  (7) 
False

>  <enamine_id>  (7) 
nan

$$$$

     RDKit          3D

 44 47  0  0  0  0  0  0  0  0999 V2000
   -9.6229   -5.6942  -28.0341 C   0  0  0  0  0  0  0  0  0  0  0  0
   -9.0545   -5.5821  -26.6188 C   0  0  0  0  0  0  0  0  0  0  0  0
   -8.4131   -3.9144  -26.4405 S   0  0  0  0  0  0  0  0  0  0  0  0
   -9.5794   -3.0346  -26.3782 O   0  0  0  0  0  0  0  0  0  0  0  0
   -7.3874   -3.7090  -27.4478 O   0  0  0  0  0  0  0  0  0  0  0  0
   -7.6227   -3.8784  -24.9457 N   0  0  0  0  0  0  0  0  0  0  0  0
   -8.4109   -3.8609  -23.6891 C   0  0  0  0  0  0  0  0  0  0  0  0
   -7.7878   -2.4963  -23.2982 C   0  0  0  0  0  0  0  0  0  0  0  0
   -7.0009   -2.5611  -24.6299 C   0  0  0  0  0  0  0  0  0  0  0  0
   -5.9227   -2.6597  -24.5089 H   0  0  0  0  0  0  0  0  0  0  0  0
   -7.2273   -1.7647  -25.3436 H   0  0  0  0  0  0  0  0  0  0  0  0
   -6.9184   -2.4797  -22.0526 C   0  0  0  0  0  0  0  0  0  0  0  0
   -6.0075   -3.2208  -21.7810 O   0  0  0  0  0  0  0  0  0  0  0  0
   -7.3576   -1.4031  -21.2767 N   0  0  0  0  0  0  0  0  0  0  0  0
   -6.5838   -0.8258  -20.2273 C   0  0  0  0  0  0  0  0  0  0  0  0
   -6.9249   -1.0610  -18.9242 C   0  0  0  0  0  0  0  0  0  0  0  0
   -6.2458   -0.5646  -17.8567 N   0  0  0  0  0  0  0  0  0  0  0  0
   -5.2045    0.1915  -18.1028 C   0  0  0  0  0  0  0  0  0  0  0  0
   -4.7431    0.5181  -19.4108 C   0  0  0  0  0  0  0  0  0  0  0  0
   -3.6123    1.3512  -19.6311 C   0  0  0  0  0  0  0  0  0  0  0  0
   -3.2087    1.6480  -20.9028 C   0  0  0  0  0  0  0  0  0  0  0  0
   -3.9151    1.1321  -22.0167 C   0  0  0  0  0  0  0  0  0  0  0  0
   -5.0130    0.3319  -21.8294 C   0  0  0  0  0  0  0  0  0  0  0  0
   -5.4513    0.0003  -20.5168 C   0  0  0  0  0  0  0  0  0  0  0  0
   -5.5615   -0.0434  -22.6877 H   0  0  0  0  0  0  0  0  0  0  0  0
   -3.5936    1.3787  -23.0256 H   0  0  0  0  0  0  0  0  0  0  0  0
   -2.3479    2.2920  -21.0760 H   0  0  0  0  0  0  0  0  0  0  0  0
   -3.0903    1.7534  -18.7647 H   0  0  0  0  0  0  0  0  0  0  0  0
   -4.6616    0.5922  -17.2440 H   0  0  0  0  0  0  0  0  0  0  0  0
   -7.7841   -1.6915  -18.7058 H   0  0  0  0  0  0  0  0  0  0  0  0
   -8.4372   -0.7314  -21.8821 C   0  0  0  0  0  0  0  0  0  0  0  0
   -9.0243    0.2253  -21.4300 O   0  0  0  0  0  0  0  0  0  0  0  0
   -8.6706   -1.3828  -23.0666 N   0  0  0  0  0  0  0  0  0  0  0  0
   -9.6817   -0.9471  -24.0022 C   0  0  0  0  0  0  0  0  0  0  0  0
  -10.3971   -1.7508  -24.1959 H   0  0  0  0  0  0  0  0  0  0  0  0
  -10.1939   -0.0992  -23.5468 H   0  0  0  0  0  0  0  0  0  0  0  0
   -9.2262   -0.6354  -24.9476 H   0  0  0  0  0  0  0  0  0  0  0  0
   -8.1080   -4.6759  -23.0298 H   0  0  0  0  0  0  0  0  0  0  0  0
   -9.4959   -3.8548  -23.8183 H   0  0  0  0  0  0  0  0  0  0  0  0
   -9.8306   -5.7154  -25.8599 H   0  0  0  0  0  0  0  0  0  0  0  0
   -8.2258   -6.2729  -26.4264 H   0  0  0  0  0  0  0  0  0  0  0  0
  -10.0776   -6.6737  -28.2194 H   0  0  0  0  0  0  0  0  0  0  0  0
   -8.8175   -5.5136  -28.7438 H   0  0  0  0  0  0  0  0  0  0  0  0
  -10.4079   -4.9468  -28.1960 H   0  0  0  0  0  0  0  0  0  0  0  0
  1  2  1  0
  2  3  1  0
  3  4  2  0
  3  5  2  0
  3  6  1  0
  6  7  1  0
  7  8  1  0
  8  9  1  0
  9 10  1  0
  9 11  1  0
  8 12  1  0
 12 13  2  0
 12 14  1  0
 14 15  1  0
 15 16  2  0
 16 17  1  0
 17 18  2  0
 18 19  1  0
 19 20  2  0
 20 21  1  0
 21 22  2  0
 22 23  1  0
 23 24  2  0
 23 25  1  0
 22 26  1  0
 21 27  1  0
 20 28  1  0
 18 29  1  0
 16 30  1  0
 14 31  1  0
 31 32  2  0
 31 33  1  0
 33 34  1  0
 34 35  1  0
 34 36  1  0
 34 37  1  0
  7 38  1  0
  7 39  1  0
  2 40  1  0
  2 41  1  0
  1 42  1  0
  1 43  1  0
  1 44  1  0
  9  6  1  0
 24 15  1  0
 33  8  1  0
 24 19  1  0
M  END
>  <cnnaffinities>  (8) 
[5.00161, 5.45554, 5.45541, 5.20862]

>  <score>  (8) 
5.00161

>  <index>  (8) 
7

>  <Smiles>  (8) 
C(C(S(=O)(=O)N1C(C2(C1([H])[H])C(=O)N(c1c(nc(c3c(c(c(c(c13)[H])[H])[H])[H])[H])[H])C(=O)N2C([H])([H])[H])([H])[H])([H])[H])([H])([H])[H]

>  <h>  (8) 
<NA>

>  <Training>  (8) 
True

>  <Success>  (8) 
True

>  <enamine_searched>  (8) 
False

>  <enamine_id>  (8) 
nan

$$$$

     RDKit          3D

 60 64  0  0  0  0  0  0  0  0999 V2000
  -14.9077   -2.0513  -24.0465 C   0  0  0  0  0  0  0  0  0  0  0  0
  -14.0143   -2.9981  -23.4286 N   0  0  0  0  0  0  0  0  0  0  0  0
  -13.2926   -2.6371  -22.3367 C   0  0  0  0  0  0  0  0  0  0  0  0
  -13.2730   -1.4961  -21.8946 O   0  0  0  0  0  0  0  0  0  0  0  0
  -12.4995   -3.7646  -21.6884 C   0  0  0  0  0  0  0  0  0  0  0  0
  -11.1399   -3.8332  -22.2175 N   0  0  0  0  0  0  0  0  0  0  0  0
  -10.0070   -3.2681  -21.4970 C   0  0  0  0  0  0  0  0  0  0  0  0
   -8.8080   -2.8337  -22.3893 C   0  0  2  0  0  0  0  0  0  0  0  0
   -7.6263   -2.6602  -21.4257 C   0  0  0  0  0  0  0  0  0  0  0  0
   -6.9949   -3.5358  -20.8679 O   0  0  0  0  0  0  0  0  0  0  0  0
   -7.4045   -1.3136  -21.2410 N   0  0  0  0  0  0  0  0  0  0  0  0
   -6.5944   -0.8555  -20.1795 C   0  0  0  0  0  0  0  0  0  0  0  0
   -6.9008   -1.1455  -18.8763 C   0  0  0  0  0  0  0  0  0  0  0  0
   -6.2523   -0.6064  -17.8124 N   0  0  0  0  0  0  0  0  0  0  0  0
   -5.2495    0.2031  -18.0615 C   0  0  0  0  0  0  0  0  0  0  0  0
   -4.7847    0.5272  -19.3712 C   0  0  0  0  0  0  0  0  0  0  0  0
   -3.6617    1.3622  -19.6109 C   0  0  0  0  0  0  0  0  0  0  0  0
   -3.2506    1.6177  -20.8917 C   0  0  0  0  0  0  0  0  0  0  0  0
   -3.9366    1.0594  -21.9942 C   0  0  0  0  0  0  0  0  0  0  0  0
   -5.0264    0.2523  -21.7885 C   0  0  0  0  0  0  0  0  0  0  0  0
   -5.4762   -0.0207  -20.4710 C   0  0  0  0  0  0  0  0  0  0  0  0
   -5.5505   -0.1981  -22.6250 H   0  0  0  0  0  0  0  0  0  0  0  0
   -3.5990    1.2712  -23.0051 H   0  0  0  0  0  0  0  0  0  0  0  0
   -2.3877    2.2520  -21.0730 H   0  0  0  0  0  0  0  0  0  0  0  0
   -3.1357    1.7827  -18.7578 H   0  0  0  0  0  0  0  0  0  0  0  0
   -4.7430    0.6378  -17.1990 H   0  0  0  0  0  0  0  0  0  0  0  0
   -7.7147   -1.8309  -18.6458 H   0  0  0  0  0  0  0  0  0  0  0  0
   -8.3979   -0.4622  -21.8808 C   0  0  0  0  0  0  0  0  0  0  0  0
   -8.9650   -1.3837  -22.9723 C   0  0  2  0  0  0  0  0  0  0  0  0
  -10.3861   -1.0445  -23.3933 C   0  0  0  0  0  0  0  0  0  0  0  0
  -10.4997    0.2213  -24.0031 O   0  0  0  0  0  0  0  0  0  0  0  0
  -11.8689    0.4398  -24.2778 C   0  0  0  0  0  0  0  0  0  0  0  0
  -12.4804    0.2894  -23.3737 H   0  0  0  0  0  0  0  0  0  0  0  0
  -12.2178   -0.2759  -25.0398 H   0  0  0  0  0  0  0  0  0  0  0  0
  -12.0069    1.4576  -24.6534 H   0  0  0  0  0  0  0  0  0  0  0  0
  -10.7390   -1.8173  -24.0921 H   0  0  0  0  0  0  0  0  0  0  0  0
  -11.0526   -1.0589  -22.5197 H   0  0  0  0  0  0  0  0  0  0  0  0
   -8.3071   -1.3217  -23.8484 H   0  0  0  0  0  0  0  0  0  0  0  0
   -9.1622   -0.1445  -21.1503 H   0  0  0  0  0  0  0  0  0  0  0  0
   -7.9299    0.4386  -22.2878 H   0  0  0  0  0  0  0  0  0  0  0  0
   -8.5555   -3.9043  -23.4282 C   0  0  0  0  0  0  0  0  0  0  0  0
   -7.2808   -4.1150  -23.9733 C   0  0  0  0  0  0  0  0  0  0  0  0
   -7.0930   -5.0995  -24.9304 C   0  0  0  0  0  0  0  0  0  0  0  0
   -5.5087   -5.3469  -25.6030 Cl  0  0  0  0  0  0  0  0  0  0  0  0
   -8.1425   -5.8976  -25.3845 C   0  0  0  0  0  0  0  0  0  0  0  0
   -9.4025   -5.6651  -24.8680 C   0  0  0  0  0  0  0  0  0  0  0  0
   -9.6141   -4.6856  -23.9022 C   0  0  0  0  0  0  0  0  0  0  0  0
  -11.0019   -4.4896  -23.3952 C   0  0  0  0  0  0  0  0  0  0  0  0
  -11.9944   -4.8709  -24.0155 O   0  0  0  0  0  0  0  0  0  0  0  0
  -10.2550   -6.2424  -25.2025 H   0  0  0  0  0  0  0  0  0  0  0  0
   -7.9662   -6.6865  -26.1127 H   0  0  0  0  0  0  0  0  0  0  0  0
   -6.4324   -3.5227  -23.6421 H   0  0  0  0  0  0  0  0  0  0  0  0
   -9.6265   -4.0001  -20.7863 H   0  0  0  0  0  0  0  0  0  0  0  0
  -10.3570   -2.4021  -20.9227 H   0  0  0  0  0  0  0  0  0  0  0  0
  -13.0240   -4.6927  -21.9142 H   0  0  0  0  0  0  0  0  0  0  0  0
  -12.4864   -3.6429  -20.6070 H   0  0  0  0  0  0  0  0  0  0  0  0
  -13.7050   -3.8119  -23.9404 H   0  0  0  0  0  0  0  0  0  0  0  0
  -15.3472   -1.4463  -23.2519 H   0  0  0  0  0  0  0  0  0  0  0  0
  -15.6896   -2.5863  -24.5912 H   0  0  0  0  0  0  0  0  0  0  0  0
  -14.3942   -1.3709  -24.7356 H   0  0  0  0  0  0  0  0  0  0  0  0
  1  2  1  0
  2  3  1  0
  3  4  2  0
  3  5  1  0
  5  6  1  0
  6  7  1  0
  8  7  1  1
  8  9  1  0
  9 10  2  0
  9 11  1  0
 11 12  1  0
 12 13  2  0
 13 14  1  0
 14 15  2  0
 15 16  1  0
 16 17  2  0
 17 18  1  0
 18 19  2  0
 19 20  1  0
 20 21  2  0
 20 22  1  0
 19 23  1  0
 18 24  1  0
 17 25  1  0
 15 26  1  0
 13 27  1  0
 11 28  1  0
 28 29  1  0
 29 30  1  0
 30 31  1  0
 31 32  1  0
 32 33  1  0
 32 34  1  0
 32 35  1  0
 30 36  1  0
 30 37  1  0
 29 38  1  6
 28 39  1  0
 28 40  1  0
  8 41  1  0
 41 42  2  0
 42 43  1  0
 43 44  1  0
 43 45  2  0
 45 46  1  0
 46 47  2  0
 47 48  1  0
 48 49  2  0
 46 50  1  0
 45 51  1  0
 42 52  1  0
  7 53  1  0
  7 54  1  0
  5 55  1  0
  5 56  1  0
  2 57  1  0
  1 58  1  0
  1 59  1  0
  1 60  1  0
 48  6  1  0
 29  8  1  0
 47 41  1  0
 21 12  1  0
 21 16  1  0
M  END
>  <cnnaffinities>  (9) 
[6.34719]

>  <score>  (9) 
6.34719

>  <index>  (9) 
8

>  <Smiles>  (9) 
C(N(C(=O)C(N1C([C@@]2(C(=O)N(c3c(nc(c4c(c(c(c(c34)[H])[H])[H])[H])[H])[H])C([C@@]2(C(OC([H])([H])[H])([H])[H])[H])([H])[H])c2c(c(Cl)c(c(c2C1=O)[H])[H])[H])([H])[H])([H])[H])[H])([H])([H])[H]

>  <h>  (9) 
<NA>

>  <Training>  (9) 
True

>  <Success>  (9) 
True

>  <enamine_searched>  (9) 
False

>  <enamine_id>  (9) 
nan

$$$$

     RDKit          3D

 41 43  0  0  0  0  0  0  0  0999 V2000
  -13.1788   -2.9270  -22.9033 C   0  0  0  0  0  0  0  0  0  0  0  0
  -11.9700   -2.0481  -23.2184 C   0  0  1  0  0  0  0  0  0  0  0  0
  -12.1561   -0.6590  -22.6447 C   0  0  0  0  0  0  0  0  0  0  0  0
  -11.3179    0.3564  -22.8334 C   0  0  0  0  0  0  0  0  0  0  0  0
  -10.0218    0.2185  -23.6031 C   0  0  0  0  0  0  0  0  0  0  0  0
   -9.0911   -0.7824  -23.0595 N   0  0  0  0  0  0  0  0  0  0  0  0
   -8.3786   -0.4056  -21.9310 C   0  0  0  0  0  0  0  0  0  0  0  0
   -8.4777    0.7171  -21.4717 O   0  0  0  0  0  0  0  0  0  0  0  0
   -7.4315   -1.4338  -21.2724 C   0  0  0  0  0  0  0  0  0  0  0  0
   -6.5791   -0.8288  -20.1804 C   0  0  0  0  0  0  0  0  0  0  0  0
   -6.8785   -1.0392  -18.8602 C   0  0  0  0  0  0  0  0  0  0  0  0
   -6.1947   -0.5349  -17.7969 N   0  0  0  0  0  0  0  0  0  0  0  0
   -5.1580    0.2220  -18.0638 C   0  0  0  0  0  0  0  0  0  0  0  0
   -4.7245    0.5354  -19.3801 C   0  0  0  0  0  0  0  0  0  0  0  0
   -3.5990    1.3664  -19.6211 C   0  0  0  0  0  0  0  0  0  0  0  0
   -3.2108    1.6587  -20.9006 C   0  0  0  0  0  0  0  0  0  0  0  0
   -3.9338    1.1304  -21.9932 C   0  0  0  0  0  0  0  0  0  0  0  0
   -5.0261    0.3230  -21.7868 C   0  0  0  0  0  0  0  0  0  0  0  0
   -5.4537    0.0012  -20.4719 C   0  0  0  0  0  0  0  0  0  0  0  0
   -5.5765   -0.0659  -22.6376 H   0  0  0  0  0  0  0  0  0  0  0  0
   -3.6220    1.3724  -23.0053 H   0  0  0  0  0  0  0  0  0  0  0  0
   -2.3530    2.3019  -21.0873 H   0  0  0  0  0  0  0  0  0  0  0  0
   -3.0577    1.7759  -18.7706 H   0  0  0  0  0  0  0  0  0  0  0  0
   -4.6013    0.6279  -17.2159 H   0  0  0  0  0  0  0  0  0  0  0  0
   -7.7298   -1.6605  -18.5853 H   0  0  0  0  0  0  0  0  0  0  0  0
   -6.7961   -1.8991  -22.0377 H   0  0  0  0  0  0  0  0  0  0  0  0
   -8.0414   -2.2446  -20.8449 H   0  0  0  0  0  0  0  0  0  0  0  0
   -9.3947   -2.1695  -23.3975 C   0  0  0  0  0  0  0  0  0  0  0  0
  -10.6666   -2.7292  -22.7527 C   0  0  0  0  0  0  0  0  0  0  0  0
  -10.5870   -2.6367  -21.6641 H   0  0  0  0  0  0  0  0  0  0  0  0
  -10.7248   -3.8071  -22.9657 H   0  0  0  0  0  0  0  0  0  0  0  0
   -8.5305   -2.7933  -23.1562 H   0  0  0  0  0  0  0  0  0  0  0  0
   -9.5104   -2.2204  -24.4855 H   0  0  0  0  0  0  0  0  0  0  0  0
  -10.2466   -0.0755  -24.6354 H   0  0  0  0  0  0  0  0  0  0  0  0
   -9.5082    1.1798  -23.6531 H   0  0  0  0  0  0  0  0  0  0  0  0
  -11.5319    1.3285  -22.3871 H   0  0  0  0  0  0  0  0  0  0  0  0
  -13.0296   -0.4945  -22.0123 H   0  0  0  0  0  0  0  0  0  0  0  0
  -11.9085   -1.9516  -24.3127 H   0  0  0  0  0  0  0  0  0  0  0  0
  -13.0971   -3.9088  -23.3856 H   0  0  0  0  0  0  0  0  0  0  0  0
  -13.2636   -3.0897  -21.8218 H   0  0  0  0  0  0  0  0  0  0  0  0
  -14.1063   -2.4566  -23.2509 H   0  0  0  0  0  0  0  0  0  0  0  0
  1  2  1  0
  2  3  1  0
  3  4  2  0
  4  5  1  0
  5  6  1  0
  6  7  1  0
  7  8  2  0
  7  9  1  0
  9 10  1  0
 10 11  2  0
 11 12  1  0
 12 13  2  0
 13 14  1  0
 14 15  2  0
 15 16  1  0
 16 17  2  0
 17 18  1  0
 18 19  2  0
 18 20  1  0
 17 21  1  0
 16 22  1  0
 15 23  1  0
 13 24  1  0
 11 25  1  0
  9 26  1  0
  9 27  1  0
  6 28  1  0
 28 29  1  0
 29 30  1  0
 29 31  1  0
 28 32  1  0
 28 33  1  0
  5 34  1  0
  5 35  1  0
  4 36  1  0
  3 37  1  0
  2 38  1  6
  1 39  1  0
  1 40  1  0
  1 41  1  0
 29  2  1  0
 19 10  1  0
 19 14  1  0
M  END
>  <cnnaffinities>  (10) 
[5.11813, 4.76561]

>  <score>  (10) 
5.11813

>  <index>  (10) 
9

>  <Smiles>  (10) 
C([C@]1(C(=C(C(N(C(=O)C(c2c(nc(c3c(c(c(c(c23)[H])[H])[H])[H])[H])[H])([H])[H])C(C1([H])[H])([H])[H])([H])[H])[H])[H])[H])([H])([H])[H]

>  <h>  (10) 
<NA>

>  <Training>  (10) 
True

>  <Success>  (10) 
True

>  <enamine_searched>  (10) 
False

>  <enamine_id>  (10) 
nan

$$$$

     RDKit          3D

 57 62  0  0  0  0  0  0  0  0999 V2000
  -10.4405   -1.1526  -23.2720 C   0  0  0  0  0  0  0  0  0  0  0  0
   -8.9973   -1.4919  -22.9234 C   0  0  1  0  0  0  0  0  0  0  0  0
   -8.3643   -0.5406  -21.8975 C   0  0  0  0  0  0  0  0  0  0  0  0
   -7.3679   -1.3739  -21.2369 N   0  0  0  0  0  0  0  0  0  0  0  0
   -6.5693   -0.8730  -20.1832 C   0  0  0  0  0  0  0  0  0  0  0  0
   -6.8952   -1.1107  -18.8717 C   0  0  0  0  0  0  0  0  0  0  0  0
   -6.2364   -0.5683  -17.8161 N   0  0  0  0  0  0  0  0  0  0  0  0
   -5.2138    0.2085  -18.0814 C   0  0  0  0  0  0  0  0  0  0  0  0
   -4.7560    0.5118  -19.3954 C   0  0  0  0  0  0  0  0  0  0  0  0
   -3.6324    1.3426  -19.6312 C   0  0  0  0  0  0  0  0  0  0  0  0
   -3.2264    1.6075  -20.9089 C   0  0  0  0  0  0  0  0  0  0  0  0
   -3.9248    1.0625  -22.0103 C   0  0  0  0  0  0  0  0  0  0  0  0
   -5.0172    0.2564  -21.8095 C   0  0  0  0  0  0  0  0  0  0  0  0
   -5.4564   -0.0348  -20.4911 C   0  0  0  0  0  0  0  0  0  0  0  0
   -5.5469   -0.1703  -22.6560 H   0  0  0  0  0  0  0  0  0  0  0  0
   -3.5960    1.2906  -23.0195 H   0  0  0  0  0  0  0  0  0  0  0  0
   -2.3695    2.2498  -21.0870 H   0  0  0  0  0  0  0  0  0  0  0  0
   -3.1172    1.7635  -18.7718 H   0  0  0  0  0  0  0  0  0  0  0  0
   -4.6826    0.6405  -17.2326 H   0  0  0  0  0  0  0  0  0  0  0  0
   -7.7359   -1.7548  -18.6215 H   0  0  0  0  0  0  0  0  0  0  0  0
   -7.6123   -2.7248  -21.3704 C   0  0  0  0  0  0  0  0  0  0  0  0
   -6.9750   -3.5992  -20.8123 O   0  0  0  0  0  0  0  0  0  0  0  0
   -8.8062   -2.9238  -22.3125 C   0  0  1  0  0  0  0  0  0  0  0  0
  -10.0081   -3.3780  -21.4564 C   0  0  0  0  0  0  0  0  0  0  0  0
  -11.1295   -3.8739  -22.2339 N   0  0  0  0  0  0  0  0  0  0  0  0
  -12.4765   -3.9218  -21.6690 C   0  0  0  0  0  0  0  0  0  0  0  0
  -13.3597   -2.7906  -22.0816 C   0  0  0  0  0  0  0  0  0  0  0  0
  -13.9179   -1.7525  -21.4248 C   0  0  0  0  0  0  0  0  0  0  0  0
  -14.6592   -1.0381  -22.3542 N   0  0  0  0  0  4  0  0  0  0  0  0
  -14.5700   -1.6656  -23.5373 C   0  0  0  0  0  0  0  0  0  0  0  0
  -13.7999   -2.7489  -23.3954 N   0  0  0  0  0  0  0  0  0  0  0  0
  -13.5116   -3.4535  -24.0849 H   0  0  0  0  0  0  0  0  0  0  0  0
  -15.0514   -1.3653  -24.4518 H   0  0  0  0  0  0  0  0  0  0  0  0
  -15.1001   -0.1380  -22.1836 H   0  0  0  0  0  0  0  0  0  0  0  0
  -13.8775   -1.4763  -20.3760 H   0  0  0  0  0  0  0  0  0  0  0  0
  -12.9516   -4.7977  -22.1199 H   0  0  0  0  0  0  0  0  0  0  0  0
  -12.4256   -4.0633  -20.5866 H   0  0  0  0  0  0  0  0  0  0  0  0
  -10.9849   -4.4880  -23.4325 C   0  0  0  0  0  0  0  0  0  0  0  0
  -11.9781   -4.7798  -24.0969 O   0  0  0  0  0  0  0  0  0  0  0  0
   -9.5850   -4.7347  -23.8864 C   0  0  0  0  0  0  0  0  0  0  0  0
   -9.3271   -5.7208  -24.8375 C   0  0  0  0  0  0  0  0  0  0  0  0
   -8.0617   -5.8687  -25.3771 C   0  0  0  0  0  0  0  0  0  0  0  0
   -7.0604   -5.0156  -24.9251 C   0  0  0  0  0  0  0  0  0  0  0  0
   -5.8371   -5.1222  -25.4658 F   0  0  0  0  0  0  0  0  0  0  0  0
   -7.2645   -4.0863  -23.9243 C   0  0  0  0  0  0  0  0  0  0  0  0
   -8.5393   -3.9647  -23.3677 C   0  0  0  0  0  0  0  0  0  0  0  0
   -6.4371   -3.4830  -23.5622 H   0  0  0  0  0  0  0  0  0  0  0  0
   -7.8320   -6.6199  -26.1292 H   0  0  0  0  0  0  0  0  0  0  0  0
  -10.1420   -6.3603  -25.1561 H   0  0  0  0  0  0  0  0  0  0  0  0
   -9.6717   -4.1608  -20.7754 H   0  0  0  0  0  0  0  0  0  0  0  0
  -10.3453   -2.5062  -20.8899 H   0  0  0  0  0  0  0  0  0  0  0  0
   -7.8938    0.3315  -22.3636 H   0  0  0  0  0  0  0  0  0  0  0  0
   -9.1103   -0.1663  -21.1765 H   0  0  0  0  0  0  0  0  0  0  0  0
   -8.3854   -1.4660  -23.8389 H   0  0  0  0  0  0  0  0  0  0  0  0
  -11.0586   -1.1398  -22.3676 H   0  0  0  0  0  0  0  0  0  0  0  0
  -10.8449   -1.9234  -23.9327 H   0  0  0  0  0  0  0  0  0  0  0  0
  -10.5246   -0.1825  -23.7662 H   0  0  0  0  0  0  0  0  0  0  0  0
  1  2  1  0
  2  3  1  0
  3  4  1  0
  4  5  1  0
  5  6  2  0
  6  7  1  0
  7  8  2  0
  8  9  1  0
  9 10  2  0
 10 11  1  0
 11 12  2  0
 12 13  1  0
 13 14  2  0
 13 15  1  0
 12 16  1  0
 11 17  1  0
 10 18  1  0
  8 19  1  0
  6 20  1  0
  4 21  1  0
 21 22  2  0
 21 23  1  0
 23 24  1  1
 24 25  1  0
 25 26  1  0
 26 27  1  0
 27 28  2  0
 28 29  1  0
 29 30  2  0
 30 31  1  0
 31 32  1  0
 30 33  1  0
 29 34  1  0
 28 35  1  0
 26 36  1  0
 26 37  1  0
 25 38  1  0
 38 39  2  0
 38 40  1  0
 40 41  2  0
 41 42  1  0
 42 43  2  0
 43 44  1  0
 43 45  1  0
 45 46  2  0
 45 47  1  0
 42 48  1  0
 41 49  1  0
 24 50  1  0
 24 51  1  0
  3 52  1  0
  3 53  1  0
  2 54  1  6
  1 55  1  0
  1 56  1  0
  1 57  1  0
 23  2  1  0
 31 27  1  0
 46 40  1  0
 14  5  1  0
 46 23  1  0
 14  9  1  0
M  CHG  1  29   1
M  END
>  <cnnaffinities>  (11) 
[6.60622, 6.47419]

>  <score>  (11) 
6.60622

>  <index>  (11) 
10

>  <Smiles>  (11) 
C([C@]1(C(N(c2c(nc(c3c(c(c(c(c23)[H])[H])[H])[H])[H])[H])C(=O)[C@]21C(N(C(c1c([n+](c(n1[H])[H])[H])[H])([H])[H])C(=O)c1c(c(c(F)c(c21)[H])[H])[H])([H])[H])([H])[H])[H])([H])([H])[H]

>  <h>  (11) 
<NA>

>  <Training>  (11) 
True

>  <Success>  (11) 
True

>  <enamine_searched>  (11) 
False

>  <enamine_id>  (11) 
nan

$$$$

     RDKit          3D

 48 52  0  0  0  0  0  0  0  0999 V2000
   -9.7916   -0.9364  -23.8778 C   0  0  0  0  0  0  0  0  0  0  0  0
   -8.7448   -1.3911  -22.9891 N   0  0  0  0  0  0  0  0  0  0  0  0
   -8.4990   -0.7711  -21.7954 C   0  0  0  0  0  0  0  0  0  0  0  0
   -9.1176    0.1362  -21.2859 O   0  0  0  0  0  0  0  0  0  0  0  0
   -7.3569   -1.4031  -21.2645 N   0  0  0  0  0  0  0  0  0  0  0  0
   -6.5820   -0.8266  -20.2232 C   0  0  0  0  0  0  0  0  0  0  0  0
   -6.9295   -1.0603  -18.9206 C   0  0  0  0  0  0  0  0  0  0  0  0
   -6.2524   -0.5679  -17.8523 N   0  0  0  0  0  0  0  0  0  0  0  0
   -5.2100    0.1878  -18.1050 C   0  0  0  0  0  0  0  0  0  0  0  0
   -4.7475    0.5147  -19.4154 C   0  0  0  0  0  0  0  0  0  0  0  0
   -3.6168    1.3506  -19.6306 C   0  0  0  0  0  0  0  0  0  0  0  0
   -3.2145    1.6527  -20.9039 C   0  0  0  0  0  0  0  0  0  0  0  0
   -3.9199    1.1422  -22.0197 C   0  0  0  0  0  0  0  0  0  0  0  0
   -5.0171    0.3387  -21.8365 C   0  0  0  0  0  0  0  0  0  0  0  0
   -5.4538    0.0007  -20.5214 C   0  0  0  0  0  0  0  0  0  0  0  0
   -5.5652   -0.0315  -22.6974 H   0  0  0  0  0  0  0  0  0  0  0  0
   -3.5980    1.3965  -23.0278 H   0  0  0  0  0  0  0  0  0  0  0  0
   -2.3543    2.2973  -21.0713 H   0  0  0  0  0  0  0  0  0  0  0  0
   -3.0963    1.7481  -18.7614 H   0  0  0  0  0  0  0  0  0  0  0  0
   -4.6663    0.5868  -17.2478 H   0  0  0  0  0  0  0  0  0  0  0  0
   -7.7900   -1.6933  -18.7165 H   0  0  0  0  0  0  0  0  0  0  0  0
   -6.8977   -2.4325  -22.0882 C   0  0  0  0  0  0  0  0  0  0  0  0
   -5.9346   -3.1332  -21.8857 O   0  0  0  0  0  0  0  0  0  0  0  0
   -7.8285   -2.4657  -23.2815 C   0  0  0  0  0  0  0  0  0  0  0  0
   -7.1115   -2.4875  -24.6560 C   0  0  0  0  0  0  0  0  0  0  0  0
   -7.6484   -3.8408  -24.9075 N   0  0  0  0  0  0  0  0  0  0  0  0
   -8.4335   -4.0209  -26.3775 S   0  0  0  0  0  0  0  0  0  0  0  0
   -9.7453   -3.3870  -26.2948 O   0  0  0  0  0  0  0  0  0  0  0  0
   -7.5180   -3.6083  -27.4189 O   0  0  0  0  0  0  0  0  0  0  0  0
   -8.6230   -5.7689  -26.4496 C   0  0  0  0  0  0  0  0  0  0  0  0
   -9.5760   -6.3809  -25.6468 C   0  0  0  0  0  0  0  0  0  0  0  0
   -9.8465   -7.7222  -25.8580 C   0  0  0  0  0  0  0  0  0  0  0  0
   -9.1881   -8.4056  -26.8723 C   0  0  0  0  0  0  0  0  0  0  0  0
   -8.1848   -7.7943  -27.6178 C   0  0  0  0  0  0  0  0  0  0  0  0
   -7.8621   -6.4685  -27.3787 C   0  0  0  0  0  0  0  0  0  0  0  0
   -7.0461   -5.9535  -27.8701 H   0  0  0  0  0  0  0  0  0  0  0  0
   -7.6523   -8.3788  -28.3598 H   0  0  0  0  0  0  0  0  0  0  0  0
   -9.4307   -9.4413  -27.0810 H   0  0  0  0  0  0  0  0  0  0  0  0
  -10.5597   -8.2333  -25.2259 H   0  0  0  0  0  0  0  0  0  0  0  0
  -10.1342   -5.8201  -24.8955 H   0  0  0  0  0  0  0  0  0  0  0  0
   -8.4110   -3.8568  -23.6435 C   0  0  0  0  0  0  0  0  0  0  0  0
   -8.0865   -4.6778  -23.0038 H   0  0  0  0  0  0  0  0  0  0  0  0
   -9.4974   -3.8776  -23.7598 H   0  0  0  0  0  0  0  0  0  0  0  0
   -7.4570   -1.7280  -25.3636 H   0  0  0  0  0  0  0  0  0  0  0  0
   -6.0204   -2.5010  -24.6219 H   0  0  0  0  0  0  0  0  0  0  0  0
  -10.7683   -1.1139  -23.4218 H   0  0  0  0  0  0  0  0  0  0  0  0
   -9.7221   -1.4751  -24.8233 H   0  0  0  0  0  0  0  0  0  0  0  0
   -9.6744    0.1336  -24.0626 H   0  0  0  0  0  0  0  0  0  0  0  0
  1  2  1  0
  2  3  1  0
  3  4  2  0
  3  5  1  0
  5  6  1  0
  6  7  2  0
  7  8  1  0
  8  9  2  0
  9 10  1  0
 10 11  2  0
 11 12  1  0
 12 13  2  0
 13 14  1  0
 14 15  2  0
 14 16  1  0
 13 17  1  0
 12 18  1  0
 11 19  1  0
  9 20  1  0
  7 21  1  0
  5 22  1  0
 22 23  2  0
 22 24  1  0
 24 25  1  0
 25 26  1  0
 26 27  1  0
 27 28  2  0
 27 29  2  0
 27 30  1  0
 30 31  2  0
 31 32  1  0
 32 33  2  0
 33 34  1  0
 34 35  2  0
 35 36  1  0
 34 37  1  0
 33 38  1  0
 32 39  1  0
 31 40  1  0
 26 41  1  0
 41 42  1  0
 41 43  1  0
 25 44  1  0
 25 45  1  0
  1 46  1  0
  1 47  1  0
  1 48  1  0
 24  2  1  0
 35 30  1  0
 15  6  1  0
 41 24  1  0
 15 10  1  0
M  END
>  <cnnaffinities>  (12) 
[5.07377]

>  <score>  (12) 
5.07377

>  <index>  (12) 
11

>  <Smiles>  (12) 
C(N1C(=O)N(c2c(nc(c3c(c(c(c(c23)[H])[H])[H])[H])[H])[H])C(=O)C21C(N(S(=O)(=O)c1c(c(c(c(c1[H])[H])[H])[H])[H])C2([H])[H])([H])[H])([H])([H])[H]

>  <h>  (12) 
<NA>

>  <Training>  (12) 
True

>  <Success>  (12) 
True

>  <enamine_searched>  (12) 
False

>  <enamine_id>  (12) 
nan

$$$$

     RDKit          3D

 76 82  0  0  0  0  0  0  0  0999 V2000
  -13.3740   -0.1446  -23.4481 O   0  0  0  0  0  0  0  0  0  0  0  0
  -12.3177   -0.7382  -23.2811 C   0  0  0  0  0  0  0  0  0  0  0  0
  -12.1958   -1.9914  -22.5419 C   0  0  0  0  0  0  0  0  0  0  0  0
  -13.3286   -2.5794  -21.9125 C   0  0  0  0  0  0  0  0  0  0  0  0
  -12.9183   -3.9574  -20.8381 C   0  0  0  0  0  0  0  0  0  0  0  0
  -12.8583   -3.9100  -21.1807 C   0  0  0  0  0  0  0  0  0  0  0  0
  -12.6605   -5.2633  -19.0393 Cl  0  0  0  0  0  0  0  0  0  0  0  0
  -10.9719   -3.6945  -21.4687 C   0  0  0  0  0  0  0  0  0  0  0  0
  -10.8801   -2.6079  -22.2407 C   0  0  0  0  0  0  0  0  0  0  0  0
   -9.5686   -1.9064  -22.6959 C   0  0  1  0  0  0  0  0  0  0  0  0
   -9.9647   -1.0568  -23.9386 C   0  0  0  0  0  0  0  0  0  0  0  0
  -11.1212   -0.2121  -23.7103 N   0  0  0  0  0  0  0  0  0  0  0  0
  -11.1394    1.1879  -24.0857 C   0  0  0  0  0  0  0  0  0  0  0  0
  -11.2659    2.1177  -22.8694 C   0  0  0  0  0  0  0  0  0  0  0  0
  -12.0555    3.3315  -23.2206 N   0  0  0  0  0  4  0  0  0  0  0  0
  -12.5353    4.0667  -22.0019 C   0  0  0  0  0  0  0  0  0  0  0  0
  -13.3245    5.3065  -22.4007 C   0  0  0  0  0  0  0  0  0  0  0  0
  -12.5890    6.1570  -23.2601 O   0  0  0  0  0  0  0  0  0  0  0  0
  -12.2198    5.4749  -24.4424 C   0  0  0  0  0  0  0  0  0  0  0  0
  -11.3269    4.2810  -24.1431 C   0  0  0  0  0  0  0  0  0  0  0  0
  -10.4079    4.6138  -23.6511 H   0  0  0  0  0  0  0  0  0  0  0  0
  -11.0551    3.7623  -25.0642 H   0  0  0  0  0  0  0  0  0  0  0  0
  -13.1252    5.1149  -24.9594 H   0  0  0  0  0  0  0  0  0  0  0  0
  -11.7142    6.1956  -25.0910 H   0  0  0  0  0  0  0  0  0  0  0  0
  -14.2550    4.9908  -22.8972 H   0  0  0  0  0  0  0  0  0  0  0  0
  -13.5892    5.8941  -21.5192 H   0  0  0  0  0  0  0  0  0  0  0  0
  -13.1576    3.3875  -21.4093 H   0  0  0  0  0  0  0  0  0  0  0  0
  -11.6650    4.3438  -21.4016 H   0  0  0  0  0  0  0  0  0  0  0  0
  -12.9087    2.9873  -23.7074 H   0  0  0  0  0  0  0  0  0  0  0  0
  -11.7981    1.6099  -22.0649 H   0  0  0  0  0  0  0  0  0  0  0  0
  -10.2881    2.4071  -22.4652 H   0  0  0  0  0  0  0  0  0  0  0  0
  -12.0167    1.3464  -24.7225 H   0  0  0  0  0  0  0  0  0  0  0  0
  -10.2403    1.4206  -24.6656 H   0  0  0  0  0  0  0  0  0  0  0  0
  -10.1837   -1.7596  -24.7564 H   0  0  0  0  0  0  0  0  0  0  0  0
   -9.1375   -0.4197  -24.2309 H   0  0  0  0  0  0  0  0  0  0  0  0
   -9.0101   -0.9621  -21.5986 C   0  0  0  0  0  0  0  0  0  0  0  0
   -9.5896   -0.0290  -21.0780 O   0  0  0  0  0  0  0  0  0  0  0  0
   -7.7198   -1.3273  -21.3044 N   0  0  0  0  0  0  0  0  0  0  0  0
   -7.0071   -0.7303  -20.2361 C   0  0  0  0  0  0  0  0  0  0  0  0
   -7.4300   -0.8767  -18.9405 C   0  0  0  0  0  0  0  0  0  0  0  0
   -6.7383   -0.4336  -17.8612 N   0  0  0  0  0  0  0  0  0  0  0  0
   -5.6097    0.1958  -18.0818 C   0  0  0  0  0  0  0  0  0  0  0  0
   -5.0747    0.4471  -19.3772 C   0  0  0  0  0  0  0  0  0  0  0  0
   -3.8656    1.1627  -19.5726 C   0  0  0  0  0  0  0  0  0  0  0  0
   -3.4042    1.4100  -20.8366 C   0  0  0  0  0  0  0  0  0  0  0  0
   -4.1268    0.9567  -21.9630 C   0  0  0  0  0  0  0  0  0  0  0  0
   -5.2960    0.2552  -21.7999 C   0  0  0  0  0  0  0  0  0  0  0  0
   -5.7941   -0.0202  -20.4979 C   0  0  0  0  0  0  0  0  0  0  0  0
   -5.8621   -0.0803  -22.6638 H   0  0  0  0  0  0  0  0  0  0  0  0
   -3.7565    1.1727  -22.9619 H   0  0  0  0  0  0  0  0  0  0  0  0
   -2.4824    1.9667  -20.9862 H   0  0  0  0  0  0  0  0  0  0  0  0
   -3.3287    1.5160  -18.6973 H   0  0  0  0  0  0  0  0  0  0  0  0
   -5.0567    0.5449  -17.2094 H   0  0  0  0  0  0  0  0  0  0  0  0
   -8.3664   -1.3841  -18.7179 H   0  0  0  0  0  0  0  0  0  0  0  0
   -7.3761   -2.6446  -21.7943 C   0  0  0  0  0  0  0  0  0  0  0  0
   -8.3508   -2.8673  -22.9647 C   0  0  2  0  0  0  0  0  0  0  0  0
   -7.6473   -2.6528  -24.3252 C   0  0  0  0  0  0  0  0  0  0  0  0
   -6.5383   -3.5704  -24.5228 N   0  0  0  0  0  0  0  0  0  0  0  0
   -6.7373   -4.8252  -25.0315 C   0  0  0  0  0  0  0  0  0  0  0  0
   -5.6240   -5.4618  -25.4491 N   0  0  0  0  0  0  0  0  0  0  0  0
   -5.8068   -6.6857  -25.9191 C   0  0  0  0  0  0  0  0  0  0  0  0
   -7.0541   -7.3000  -25.9855 C   0  0  0  0  0  0  0  0  0  0  0  0
   -8.1236   -6.5447  -25.5366 C   0  0  0  0  0  0  0  0  0  0  0  0
   -7.9862   -5.3095  -25.0559 N   0  0  0  0  0  0  0  0  0  0  0  0
   -9.1412   -6.9347  -25.5556 H   0  0  0  0  0  0  0  0  0  0  0  0
   -7.1866   -8.3055  -26.3653 H   0  0  0  0  0  0  0  0  0  0  0  0
   -4.9072   -7.1995  -26.2599 H   0  0  0  0  0  0  0  0  0  0  0  0
   -5.6585   -3.1763  -24.8215 H   0  0  0  0  0  0  0  0  0  0  0  0
   -8.3793   -2.8130  -25.1237 H   0  0  0  0  0  0  0  0  0  0  0  0
   -7.2557   -1.6331  -24.4061 H   0  0  0  0  0  0  0  0  0  0  0  0
   -8.6571   -3.9151  -23.0083 H   0  0  0  0  0  0  0  0  0  0  0  0
   -6.3254   -2.6753  -22.0983 H   0  0  0  0  0  0  0  0  0  0  0  0
   -7.5132   -3.4037  -21.0095 H   0  0  0  0  0  0  0  0  0  0  0  0
  -10.2063   -4.4090  -21.2019 H   0  0  0  0  0  0  0  0  0  0  0  0
  -12.9689   -3.2719  -19.9977 H   0  0  0  0  0  0  0  0  0  0  0  0
  -14.2102   -2.7545  -22.5055 H   0  0  0  0  0  0  0  0  0  0  0  0
  1  2  2  0
  2  3  1  0
  3  4  2  0
  4  5  1  0
  5  6  2  0
  6  7  1  0
  6  8  1  0
  8  9  2  0
  9 10  1  0
 10 11  1  6
 11 12  1  0
 12 13  1  0
 13 14  1  0
 14 15  1  0
 15 16  1  0
 16 17  1  0
 17 18  1  0
 18 19  1  0
 19 20  1  0
 20 21  1  0
 20 22  1  0
 19 23  1  0
 19 24  1  0
 17 25  1  0
 17 26  1  0
 16 27  1  0
 16 28  1  0
 15 29  1  0
 14 30  1  0
 14 31  1  0
 13 32  1  0
 13 33  1  0
 11 34  1  0
 11 35  1  0
 10 36  1  0
 36 37  2  0
 36 38  1  0
 38 39  1  0
 39 40  2  0
 40 41  1  0
 41 42  2  0
 42 43  1  0
 43 44  2  0
 44 45  1  0
 45 46  2  0
 46 47  1  0
 47 48  2  0
 47 49  1  0
 46 50  1  0
 45 51  1  0
 44 52  1  0
 42 53  1  0
 40 54  1  0
 38 55  1  0
 55 56  1  0
 56 57  1  0
 57 58  1  0
 58 59  1  0
 59 60  2  0
 60 61  1  0
 61 62  2  0
 62 63  1  0
 63 64  2  0
 63 65  1  0
 62 66  1  0
 61 67  1  0
 58 68  1  0
 57 69  1  0
 57 70  1  0
 56 71  1  6
 55 72  1  0
 55 73  1  0
  8 74  1  0
  5 75  1  0
  4 76  1  0
 12  2  1  0
 20 15  1  0
 48 39  1  0
 64 59  1  0
  9  3  1  0
 56 10  1  0
 48 43  1  0
M  CHG  1  15   1
M  END
>  <cnnaffinities>  (13) 
[7.55462]

>  <score>  (13) 
7.55462

>  <index>  (13) 
12

>  <Smiles>  (13) 
O=C1c2c(c(c(Cl)c(c2[C@@]2(C(N1C(C([N+]1(C(C(OC(C1([H])[H])([H])[H])([H])[H])([H])[H])[H])([H])[H])([H])[H])([H])[H])C(=O)N(c1c(nc(c3c(c(c(c(c13)[H])[H])[H])[H])[H])[H])C([C@@]2(C(N(c1nc(c(c(n1)[H])[H])[H])[H])([H])[H])[H])([H])[H])[H])[H])[H]

>  <h>  (13) 
<NA>

>  <Training>  (13) 
True

>  <Success>  (13) 
True

>  <enamine_searched>  (13) 
False

>  <enamine_id>  (13) 
nan

$$$$

     RDKit          3D

 69 74  0  0  0  0  0  0  0  0999 V2000
   -5.0561   -4.0319  -19.3878 C   0  0  0  0  0  0  0  0  0  0  0  0
   -6.1972   -4.7496  -19.9222 N   0  0  0  0  0  0  0  0  0  0  0  0
   -6.0004   -5.7071  -20.8725 C   0  0  0  0  0  0  0  0  0  0  0  0
   -4.8813   -6.1221  -21.1305 O   0  0  0  0  0  0  0  0  0  0  0  0
   -7.2416   -6.2143  -21.6222 C   0  0  0  0  0  0  0  0  0  0  0  0
   -7.5905   -5.3164  -22.7067 N   0  0  0  0  0  0  0  0  0  0  0  0
   -8.5014   -4.2146  -22.4970 C   0  0  0  0  0  0  0  0  0  0  0  0
   -7.9231   -2.8642  -23.0015 C   0  0  2  0  0  0  0  0  0  0  0  0
   -6.7902   -2.3729  -22.0758 C   0  0  0  0  0  0  0  0  0  0  0  0
   -5.6349   -2.7534  -22.0544 O   0  0  0  0  0  0  0  0  0  0  0  0
   -7.3049   -1.4215  -21.2263 N   0  0  0  0  0  0  0  0  0  0  0  0
   -6.5587   -0.8429  -20.1880 C   0  0  0  0  0  0  0  0  0  0  0  0
   -6.9198   -1.0533  -18.8797 C   0  0  0  0  0  0  0  0  0  0  0  0
   -6.2446   -0.5564  -17.8177 N   0  0  0  0  0  0  0  0  0  0  0  0
   -5.1938    0.1897  -18.0729 C   0  0  0  0  0  0  0  0  0  0  0  0
   -4.7338    0.5015  -19.3851 C   0  0  0  0  0  0  0  0  0  0  0  0
   -3.6090    1.3367  -19.6080 C   0  0  0  0  0  0  0  0  0  0  0  0
   -3.2170    1.6507  -20.8797 C   0  0  0  0  0  0  0  0  0  0  0  0
   -3.9295    1.1529  -21.9931 C   0  0  0  0  0  0  0  0  0  0  0  0
   -5.0194    0.3409  -21.8069 C   0  0  0  0  0  0  0  0  0  0  0  0
   -5.4359   -0.0159  -20.4910 C   0  0  0  0  0  0  0  0  0  0  0  0
   -5.5667   -0.0378  -22.6648 H   0  0  0  0  0  0  0  0  0  0  0  0
   -3.6143    1.4192  -22.9983 H   0  0  0  0  0  0  0  0  0  0  0  0
   -2.3611    2.2987  -21.0443 H   0  0  0  0  0  0  0  0  0  0  0  0
   -3.0860    1.7324  -18.7426 H   0  0  0  0  0  0  0  0  0  0  0  0
   -4.6473    0.5875  -17.2202 H   0  0  0  0  0  0  0  0  0  0  0  0
   -7.7919   -1.6649  -18.6527 H   0  0  0  0  0  0  0  0  0  0  0  0
   -8.7232   -1.2024  -21.3941 C   0  0  0  0  0  0  0  0  0  0  0  0
   -8.9587   -1.7446  -22.8056 C   0  0  2  0  0  0  0  0  0  0  0  0
  -10.3944   -2.1472  -23.0349 C   0  0  0  0  0  0  0  0  0  0  0  0
  -11.1996   -0.9601  -23.1253 N   0  0  0  0  0  0  0  0  0  0  0  0
  -12.5423   -1.1038  -23.1731 C   0  0  0  0  0  0  0  0  0  0  0  0
  -13.4101   -0.0120  -22.9937 C   0  0  0  0  0  0  0  0  0  0  0  0
  -14.7395   -0.3394  -22.9396 C   0  0  0  0  0  0  0  0  0  0  0  0
  -15.2061   -1.5813  -23.1320 N   0  0  0  0  0  0  0  0  0  0  0  0
  -14.3125   -2.5101  -23.4339 C   0  0  0  0  0  0  0  0  0  0  0  0
  -14.8104   -3.8636  -23.8695 C   0  0  0  0  0  0  0  0  0  0  0  0
  -14.4444   -4.0680  -24.8830 H   0  0  0  0  0  0  0  0  0  0  0  0
  -14.4282   -4.6433  -23.2010 H   0  0  0  0  0  0  0  0  0  0  0  0
  -15.9017   -3.8801  -23.8853 H   0  0  0  0  0  0  0  0  0  0  0  0
  -12.9875   -2.3410  -23.4169 N   0  0  0  0  0  0  0  0  0  0  0  0
  -15.4978    0.4158  -22.7473 H   0  0  0  0  0  0  0  0  0  0  0  0
  -13.0574    1.0128  -22.8821 H   0  0  0  0  0  0  0  0  0  0  0  0
  -10.8250   -0.0897  -22.7801 H   0  0  0  0  0  0  0  0  0  0  0  0
  -10.5205   -2.7356  -23.9517 H   0  0  0  0  0  0  0  0  0  0  0  0
  -10.7422   -2.7896  -22.2079 H   0  0  0  0  0  0  0  0  0  0  0  0
   -8.7086   -0.9356  -23.4914 H   0  0  0  0  0  0  0  0  0  0  0  0
   -9.3180   -1.7586  -20.6550 H   0  0  0  0  0  0  0  0  0  0  0  0
   -8.9633   -0.1386  -21.2941 H   0  0  0  0  0  0  0  0  0  0  0  0
   -7.4340   -3.0603  -24.4165 C   0  0  0  0  0  0  0  0  0  0  0  0
   -7.3289   -1.9881  -25.3127 C   0  0  0  0  0  0  0  0  0  0  0  0
   -6.8164   -2.1891  -26.5796 C   0  0  0  0  0  0  0  0  0  0  0  0
   -6.6683   -0.8249  -27.6515 Cl  0  0  0  0  0  0  0  0  0  0  0  0
   -6.4067   -3.4504  -27.0105 C   0  0  0  0  0  0  0  0  0  0  0  0
   -6.4969   -4.5083  -26.1282 C   0  0  0  0  0  0  0  0  0  0  0  0
   -6.9903   -4.3180  -24.8401 C   0  0  0  0  0  0  0  0  0  0  0  0
   -6.9494   -5.4895  -23.9057 C   0  0  0  0  0  0  0  0  0  0  0  0
   -6.3597   -6.5186  -24.1919 O   0  0  0  0  0  0  0  0  0  0  0  0
   -6.1738   -5.5069  -26.4005 H   0  0  0  0  0  0  0  0  0  0  0  0
   -6.0114   -3.5862  -28.0106 H   0  0  0  0  0  0  0  0  0  0  0  0
   -7.6283   -0.9835  -25.0388 H   0  0  0  0  0  0  0  0  0  0  0  0
   -9.4361   -4.4117  -23.0386 H   0  0  0  0  0  0  0  0  0  0  0  0
   -8.7429   -4.1418  -21.4324 H   0  0  0  0  0  0  0  0  0  0  0  0
   -6.9855   -7.1710  -22.0772 H   0  0  0  0  0  0  0  0  0  0  0  0
   -8.1040   -6.3555  -20.9611 H   0  0  0  0  0  0  0  0  0  0  0  0
   -7.0768   -4.2496  -19.9078 H   0  0  0  0  0  0  0  0  0  0  0  0
   -4.2855   -4.7734  -19.2366 H   0  0  0  0  0  0  0  0  0  0  0  0
   -5.3194   -3.5559  -18.4399 H   0  0  0  0  0  0  0  0  0  0  0  0
   -4.6931   -3.2679  -20.0840 H   0  0  0  0  0  0  0  0  0  0  0  0
  1  2  1  0
  2  3  1  0
  3  4  2  0
  3  5  1  0
  5  6  1  0
  6  7  1  0
  8  7  1  1
  8  9  1  0
  9 10  2  0
  9 11  1  0
 11 12  1  0
 12 13  2  0
 13 14  1  0
 14 15  2  0
 15 16  1  0
 16 17  2  0
 17 18  1  0
 18 19  2  0
 19 20  1  0
 20 21  2  0
 20 22  1  0
 19 23  1  0
 18 24  1  0
 17 25  1  0
 15 26  1  0
 13 27  1  0
 11 28  1  0
 28 29  1  0
 29 30  1  0
 30 31  1  0
 31 32  1  0
 32 33  2  0
 33 34  1  0
 34 35  2  0
 35 36  1  0
 36 37  1  0
 37 38  1  0
 37 39  1  0
 37 40  1  0
 36 41  2  0
 34 42  1  0
 33 43  1  0
 31 44  1  0
 30 45  1  0
 30 46  1  0
 29 47  1  6
 28 48  1  0
 28 49  1  0
  8 50  1  0
 50 51  2  0
 51 52  1  0
 52 53  1  0
 52 54  2  0
 54 55  1  0
 55 56  2  0
 56 57  1  0
 57 58  2  0
 55 59  1  0
 54 60  1  0
 51 61  1  0
  7 62  1  0
  7 63  1  0
  5 64  1  0
  5 65  1  0
  2 66  1  0
  1 67  1  0
  1 68  1  0
  1 69  1  0
 57  6  1  0
 29  8  1  0
 41 32  1  0
 56 50  1  0
 21 12  1  0
 21 16  1  0
M  END
>  <cnnaffinities>  (14) 
[6.74447]

>  <score>  (14) 
6.74447

>  <index>  (14) 
13

>  <Smiles>  (14) 
C(N(C(=O)C(N1C([C@@]2(C(=O)N(c3c(nc(c4c(c(c(c(c34)[H])[H])[H])[H])[H])[H])C([C@@]2(C(N(c2c(c(nc(C([H])([H])[H])n2)[H])[H])[H])([H])[H])[H])([H])[H])c2c(c(Cl)c(c(c2C1=O)[H])[H])[H])([H])[H])([H])[H])[H])([H])([H])[H]

>  <h>  (14) 
<NA>

>  <Training>  (14) 
True

>  <Success>  (14) 
True

>  <enamine_searched>  (14) 
False

>  <enamine_id>  (14) 
nan

$$$$

     RDKit          3D

 73 78  0  0  0  0  0  0  0  0999 V2000
   -7.9427   -3.7512  -24.0046 C   0  0  0  0  0  0  0  0  0  0  0  0
   -8.2979   -2.8755  -22.7987 C   0  0  1  0  0  0  0  0  0  0  0  0
   -7.1006   -2.6545  -21.8488 C   0  0  0  0  0  0  0  0  0  0  0  0
   -7.4063   -1.3938  -21.1984 N   0  0  0  0  0  0  0  0  0  0  0  0
   -6.6042   -0.8134  -20.1752 C   0  0  0  0  0  0  0  0  0  0  0  0
   -6.9016   -1.0497  -18.8584 C   0  0  0  0  0  0  0  0  0  0  0  0
   -6.2001   -0.5509  -17.8087 N   0  0  0  0  0  0  0  0  0  0  0  0
   -5.1692    0.2135  -18.0777 C   0  0  0  0  0  0  0  0  0  0  0  0
   -4.7374    0.5393  -19.3962 C   0  0  0  0  0  0  0  0  0  0  0  0
   -3.6103    1.3734  -19.6401 C   0  0  0  0  0  0  0  0  0  0  0  0
   -3.2195    1.6617  -20.9198 C   0  0  0  0  0  0  0  0  0  0  0  0
   -3.9353    1.1285  -22.0147 C   0  0  0  0  0  0  0  0  0  0  0  0
   -5.0296    0.3229  -21.8028 C   0  0  0  0  0  0  0  0  0  0  0  0
   -5.4704    0.0078  -20.4859 C   0  0  0  0  0  0  0  0  0  0  0  0
   -5.5642   -0.0865  -22.6538 H   0  0  0  0  0  0  0  0  0  0  0  0
   -3.6341    1.3757  -23.0296 H   0  0  0  0  0  0  0  0  0  0  0  0
   -2.3663    2.3096  -21.0995 H   0  0  0  0  0  0  0  0  0  0  0  0
   -3.0787    1.7825  -18.7850 H   0  0  0  0  0  0  0  0  0  0  0  0
   -4.6178    0.6189  -17.2276 H   0  0  0  0  0  0  0  0  0  0  0  0
   -7.7528   -1.6747  -18.5980 H   0  0  0  0  0  0  0  0  0  0  0  0
   -8.3903   -0.6654  -21.8324 C   0  0  0  0  0  0  0  0  0  0  0  0
   -8.8022    0.4049  -21.4382 O   0  0  0  0  0  0  0  0  0  0  0  0
   -8.8400   -1.4419  -23.1003 C   0  0  1  0  0  0  0  0  0  0  0  0
   -8.1531   -0.8419  -24.3595 C   0  0  0  0  0  0  0  0  0  0  0  0
   -8.5972    0.5087  -24.6284 N   0  0  0  0  0  0  0  0  0  0  0  0
   -7.6373    1.5722  -24.8907 C   0  0  0  0  0  0  0  0  0  0  0  0
   -7.5120    2.5190  -23.6951 C   0  0  0  0  0  0  0  0  0  0  0  0
   -6.4216    3.5568  -23.8585 N   0  0  0  0  0  4  0  0  0  0  0  0
   -6.7548    4.6777  -24.8356 C   0  0  0  0  0  0  0  0  0  0  0  0
   -7.7594    5.6770  -24.2569 C   0  0  0  0  0  0  0  0  0  0  0  0
   -7.3580    6.1562  -22.9348 N   0  0  0  0  0  0  0  0  0  0  0  0
   -6.5507    7.6000  -22.8284 S   0  0  0  0  0  0  0  0  0  0  0  0
   -6.0370    7.6833  -21.4749 O   0  0  0  0  0  0  0  0  0  0  0  0
   -7.4118    8.6228  -23.3937 O   0  0  0  0  0  0  0  0  0  0  0  0
   -5.1464    7.5261  -23.9310 C   0  0  0  0  0  0  0  0  0  0  0  0
   -5.5128    7.5010  -24.9619 H   0  0  0  0  0  0  0  0  0  0  0  0
   -4.5140    6.6696  -23.6907 H   0  0  0  0  0  0  0  0  0  0  0  0
   -4.6071    8.4633  -23.7601 H   0  0  0  0  0  0  0  0  0  0  0  0
   -7.0463    5.0939  -21.9739 C   0  0  0  0  0  0  0  0  0  0  0  0
   -5.9871    4.1522  -22.5335 C   0  0  0  0  0  0  0  0  0  0  0  0
   -5.0609    4.7054  -22.7079 H   0  0  0  0  0  0  0  0  0  0  0  0
   -5.7759    3.3327  -21.8411 H   0  0  0  0  0  0  0  0  0  0  0  0
   -7.9781    4.5491  -21.7884 H   0  0  0  0  0  0  0  0  0  0  0  0
   -6.7238    5.5563  -21.0423 H   0  0  0  0  0  0  0  0  0  0  0  0
   -8.7374    5.2020  -24.1359 H   0  0  0  0  0  0  0  0  0  0  0  0
   -7.8924    6.5372  -24.9165 H   0  0  0  0  0  0  0  0  0  0  0  0
   -7.1490    4.2439  -25.7533 H   0  0  0  0  0  0  0  0  0  0  0  0
   -5.8192    5.1866  -25.0785 H   0  0  0  0  0  0  0  0  0  0  0  0
   -5.5898    3.0566  -24.2246 H   0  0  0  0  0  0  0  0  0  0  0  0
   -7.2840    1.9439  -22.7931 H   0  0  0  0  0  0  0  0  0  0  0  0
   -8.4698    3.0204  -23.5423 H   0  0  0  0  0  0  0  0  0  0  0  0
   -6.6636    1.1115  -25.0945 H   0  0  0  0  0  0  0  0  0  0  0  0
   -7.9551    2.1138  -25.7856 H   0  0  0  0  0  0  0  0  0  0  0  0
   -9.9313    0.7956  -24.6761 C   0  0  0  0  0  0  0  0  0  0  0  0
  -10.3667    1.8303  -25.1688 O   0  0  0  0  0  0  0  0  0  0  0  0
  -10.8492   -0.2283  -24.0546 C   0  0  0  0  0  0  0  0  0  0  0  0
  -12.2268   -0.0513  -24.1951 C   0  0  0  0  0  0  0  0  0  0  0  0
  -13.1167   -0.9011  -23.5688 C   0  0  0  0  0  0  0  0  0  0  0  0
  -12.6120   -1.9187  -22.7617 C   0  0  0  0  0  0  0  0  0  0  0  0
  -13.7274   -2.9504  -21.9133 Cl  0  0  0  0  0  0  0  0  0  0  0  0
  -11.2508   -2.1131  -22.6072 C   0  0  0  0  0  0  0  0  0  0  0  0
  -10.3419   -1.2928  -23.2891 C   0  0  0  0  0  0  0  0  0  0  0  0
  -10.9189   -2.8905  -21.9270 H   0  0  0  0  0  0  0  0  0  0  0  0
  -14.1885   -0.7719  -23.6733 H   0  0  0  0  0  0  0  0  0  0  0  0
  -12.5800    0.7865  -24.7845 H   0  0  0  0  0  0  0  0  0  0  0  0
   -8.3787   -1.4907  -25.2210 H   0  0  0  0  0  0  0  0  0  0  0  0
   -7.0674   -0.8214  -24.2127 H   0  0  0  0  0  0  0  0  0  0  0  0
   -6.1522   -2.6064  -22.4094 H   0  0  0  0  0  0  0  0  0  0  0  0
   -6.9987   -3.4540  -21.1068 H   0  0  0  0  0  0  0  0  0  0  0  0
   -9.0728   -3.3847  -22.2190 H   0  0  0  0  0  0  0  0  0  0  0  0
   -7.0892   -3.3407  -24.5582 H   0  0  0  0  0  0  0  0  0  0  0  0
   -7.6636   -4.7619  -23.6865 H   0  0  0  0  0  0  0  0  0  0  0  0
   -8.7803   -3.8416  -24.7050 H   0  0  0  0  0  0  0  0  0  0  0  0
  1  2  1  0
  2  3  1  0
  3  4  1  0
  4  5  1  0
  5  6  2  0
  6  7  1  0
  7  8  2  0
  8  9  1  0
  9 10  2  0
 10 11  1  0
 11 12  2  0
 12 13  1  0
 13 14  2  0
 13 15  1  0
 12 16  1  0
 11 17  1  0
 10 18  1  0
  8 19  1  0
  6 20  1  0
  4 21  1  0
 21 22  2  0
 21 23  1  0
 23 24  1  6
 24 25  1  0
 25 26  1  0
 26 27  1  0
 27 28  1  0
 28 29  1  0
 29 30  1  0
 30 31  1  0
 31 32  1  0
 32 33  2  0
 32 34  2  0
 32 35  1  0
 35 36  1  0
 35 37  1  0
 35 38  1  0
 31 39  1  0
 39 40  1  0
 40 41  1  0
 40 42  1  0
 39 43  1  0
 39 44  1  0
 30 45  1  0
 30 46  1  0
 29 47  1  0
 29 48  1  0
 28 49  1  0
 27 50  1  0
 27 51  1  0
 26 52  1  0
 26 53  1  0
 25 54  1  0
 54 55  2  0
 54 56  1  0
 56 57  2  0
 57 58  1  0
 58 59  2  0
 59 60  1  0
 59 61  1  0
 61 62  2  0
 61 63  1  0
 58 64  1  0
 57 65  1  0
 24 66  1  0
 24 67  1  0
  3 68  1  0
  3 69  1  0
  2 70  1  1
  1 71  1  0
  1 72  1  0
  1 73  1  0
 23  2  1  0
 40 28  1  0
 62 56  1  0
 14  5  1  0
 62 23  1  0
 14  9  1  0
M  CHG  1  28   1
M  END
>  <cnnaffinities>  (15) 
[6.99715, 6.86894]

>  <score>  (15) 
6.99715

>  <index>  (15) 
14

>  <Smiles>  (15) 
C([C@]1(C(N(c2c(nc(c3c(c(c(c(c23)[H])[H])[H])[H])[H])[H])C(=O)[C@]21C(N(C(C([N+]1(C(C(N(S(=O)(=O)C([H])([H])[H])C(C1([H])[H])([H])[H])([H])[H])([H])[H])[H])([H])[H])([H])[H])C(=O)c1c(c(c(Cl)c(c21)[H])[H])[H])([H])[H])([H])[H])[H])([H])([H])[H]

>  <h>  (15) 
<NA>

>  <Training>  (15) 
True

>  <Success>  (15) 
True

>  <enamine_searched>  (15) 
False

>  <enamine_id>  (15) 
nan

$$$$

     RDKit          3D

 63 68  0  0  0  0  0  0  0  0999 V2000
   -7.4027    3.3711  -21.8401 C   0  0  0  0  0  0  0  0  0  0  0  0
   -8.3794    2.8974  -22.8113 N   0  0  0  0  0  0  0  0  0  0  0  0
   -7.8785    2.1724  -23.8580 C   0  0  0  0  0  0  0  0  0  0  0  0
   -6.6798    1.9907  -24.0177 O   0  0  0  0  0  0  0  0  0  0  0  0
   -8.8940    1.5827  -24.8365 C   0  0  0  0  0  0  0  0  0  0  0  0
   -9.5184    0.4064  -24.2696 N   0  0  0  0  0  0  0  0  0  0  0  0
   -8.7388   -0.8126  -24.1376 C   0  0  0  0  0  0  0  0  0  0  0  0
   -9.0782   -1.5689  -22.8297 C   0  0  2  0  0  0  0  0  0  0  0  0
   -8.5504   -0.7818  -21.6101 C   0  0  0  0  0  0  0  0  0  0  0  0
   -9.0396    0.2062  -21.0968 O   0  0  0  0  0  0  0  0  0  0  0  0
   -7.3881   -1.3826  -21.1887 N   0  0  0  0  0  0  0  0  0  0  0  0
   -6.5994   -0.8128  -20.1674 C   0  0  0  0  0  0  0  0  0  0  0  0
   -6.9252   -1.0412  -18.8570 C   0  0  0  0  0  0  0  0  0  0  0  0
   -6.2337   -0.5477  -17.8030 N   0  0  0  0  0  0  0  0  0  0  0  0
   -5.1916    0.2042  -18.0723 C   0  0  0  0  0  0  0  0  0  0  0  0
   -4.7499    0.5244  -19.3888 C   0  0  0  0  0  0  0  0  0  0  0  0
   -3.6268    1.3595  -19.6310 C   0  0  0  0  0  0  0  0  0  0  0  0
   -3.2458    1.6585  -20.9101 C   0  0  0  0  0  0  0  0  0  0  0  0
   -3.9668    1.1474  -22.0115 C   0  0  0  0  0  0  0  0  0  0  0  0
   -5.0587    0.3378  -21.8075 C   0  0  0  0  0  0  0  0  0  0  0  0
   -5.4713    0.0007  -20.4859 C   0  0  0  0  0  0  0  0  0  0  0  0
   -5.6251   -0.0182  -22.6640 H   0  0  0  0  0  0  0  0  0  0  0  0
   -3.6662    1.4022  -23.0238 H   0  0  0  0  0  0  0  0  0  0  0  0
   -2.3870    2.2983  -21.0863 H   0  0  0  0  0  0  0  0  0  0  0  0
   -3.0944    1.7608  -18.7741 H   0  0  0  0  0  0  0  0  0  0  0  0
   -4.6312    0.6023  -17.2263 H   0  0  0  0  0  0  0  0  0  0  0  0
   -7.7921   -1.6563  -18.6265 H   0  0  0  0  0  0  0  0  0  0  0  0
   -7.0096   -2.5627  -21.9285 C   0  0  0  0  0  0  0  0  0  0  0  0
   -8.2815   -2.8996  -22.7172 C   0  0  2  0  0  0  0  0  0  0  0  0
   -7.9603   -3.6150  -24.0375 C   0  0  0  0  0  0  0  0  0  0  0  0
   -7.3789   -4.9289  -23.8322 N   0  0  0  0  0  0  0  0  0  0  0  0
   -8.0531   -6.0805  -23.6394 C   0  0  0  0  0  0  0  0  0  0  0  0
   -7.1242   -7.0540  -23.3683 C   0  0  0  0  0  0  0  0  0  0  0  0
   -5.8886   -6.3846  -23.4498 C   0  0  0  0  0  0  0  0  0  0  0  0
   -6.0529   -5.0911  -23.7138 N   0  0  0  0  0  0  0  0  0  0  0  0
   -4.8891   -6.7937  -23.3483 H   0  0  0  0  0  0  0  0  0  0  0  0
   -7.3184   -8.0857  -23.1201 H   0  0  0  0  0  0  0  0  0  0  0  0
   -9.1281   -6.1269  -23.7392 H   0  0  0  0  0  0  0  0  0  0  0  0
   -7.2393   -3.0394  -24.6250 H   0  0  0  0  0  0  0  0  0  0  0  0
   -8.8668   -3.7553  -24.6328 H   0  0  0  0  0  0  0  0  0  0  0  0
   -8.8780   -3.5864  -22.1144 H   0  0  0  0  0  0  0  0  0  0  0  0
   -6.1588   -2.3784  -22.6049 H   0  0  0  0  0  0  0  0  0  0  0  0
   -6.7172   -3.3646  -21.2446 H   0  0  0  0  0  0  0  0  0  0  0  0
  -10.5858   -1.6900  -22.7469 C   0  0  0  0  0  0  0  0  0  0  0  0
  -11.1825   -2.6444  -21.9207 C   0  0  0  0  0  0  0  0  0  0  0  0
  -12.5590   -2.6885  -21.7998 C   0  0  0  0  0  0  0  0  0  0  0  0
  -13.2626   -3.8459  -20.7155 Cl  0  0  0  0  0  0  0  0  0  0  0  0
  -13.3974   -1.8142  -22.4892 C   0  0  0  0  0  0  0  0  0  0  0  0
  -12.8120   -0.8489  -23.2773 C   0  0  0  0  0  0  0  0  0  0  0  0
  -11.4269   -0.7647  -23.3765 C   0  0  0  0  0  0  0  0  0  0  0  0
  -10.8734    0.4074  -24.1140 C   0  0  0  0  0  0  0  0  0  0  0  0
  -11.5818    1.3170  -24.5209 O   0  0  0  0  0  0  0  0  0  0  0  0
  -13.3983   -0.1144  -23.8145 H   0  0  0  0  0  0  0  0  0  0  0  0
  -14.4744   -1.8788  -22.3759 H   0  0  0  0  0  0  0  0  0  0  0  0
  -10.5885   -3.3428  -21.3430 H   0  0  0  0  0  0  0  0  0  0  0  0
   -8.9506   -1.4766  -24.9847 H   0  0  0  0  0  0  0  0  0  0  0  0
   -7.6739   -0.5555  -24.1706 H   0  0  0  0  0  0  0  0  0  0  0  0
   -9.7003    2.2837  -25.0841 H   0  0  0  0  0  0  0  0  0  0  0  0
   -8.3426    1.3178  -25.7467 H   0  0  0  0  0  0  0  0  0  0  0  0
   -9.3157    2.7253  -22.4616 H   0  0  0  0  0  0  0  0  0  0  0  0
   -6.7818    2.5295  -21.4917 H   0  0  0  0  0  0  0  0  0  0  0  0
   -7.9229    3.8430  -21.0031 H   0  0  0  0  0  0  0  0  0  0  0  0
   -6.7528    4.1246  -22.2974 H   0  0  0  0  0  0  0  0  0  0  0  0
  1  2  1  0
  2  3  1  0
  3  4  2  0
  3  5  1  0
  5  6  1  0
  6  7  1  0
  8  7  1  6
  8  9  1  0
  9 10  2  0
  9 11  1  0
 11 12  1  0
 12 13  2  0
 13 14  1  0
 14 15  2  0
 15 16  1  0
 16 17  2  0
 17 18  1  0
 18 19  2  0
 19 20  1  0
 20 21  2  0
 20 22  1  0
 19 23  1  0
 18 24  1  0
 17 25  1  0
 15 26  1  0
 13 27  1  0
 11 28  1  0
 28 29  1  0
 29 30  1  0
 30 31  1  0
 31 32  1  0
 32 33  2  0
 33 34  1  0
 34 35  2  0
 34 36  1  0
 33 37  1  0
 32 38  1  0
 30 39  1  0
 30 40  1  0
 29 41  1  1
 28 42  1  0
 28 43  1  0
  8 44  1  0
 44 45  2  0
 45 46  1  0
 46 47  1  0
 46 48  2  0
 48 49  1  0
 49 50  2  0
 50 51  1  0
 51 52  2  0
 49 53  1  0
 48 54  1  0
 45 55  1  0
  7 56  1  0
  7 57  1  0
  5 58  1  0
  5 59  1  0
  2 60  1  0
  1 61  1  0
  1 62  1  0
  1 63  1  0
 51  6  1  0
 29  8  1  0
 35 31  1  0
 50 44  1  0
 21 12  1  0
 21 16  1  0
M  END
>  <cnnaffinities>  (16) 
[6.85981]

>  <score>  (16) 
6.85981

>  <index>  (16) 
15

>  <Smiles>  (16) 
C(N(C(=O)C(N1C([C@@]2(C(=O)N(c3c(nc(c4c(c(c(c(c34)[H])[H])[H])[H])[H])[H])C([C@@]2(C(n2c(c(c(n2)[H])[H])[H])([H])[H])[H])([H])[H])c2c(c(Cl)c(c(c2C1=O)[H])[H])[H])([H])[H])([H])[H])[H])([H])([H])[H]

>  <h>  (16) 
<NA>

>  <Training>  (16) 
True

>  <Success>  (16) 
True

>  <enamine_searched>  (16) 
False

>  <enamine_id>  (16) 
nan

$$$$

     RDKit          3D

 61 66  0  0  0  0  0  0  0  0999 V2000
   -7.3754    3.3997  -21.8068 C   0  0  0  0  0  0  0  0  0  0  0  0
   -8.2353    2.9382  -22.8838 N   0  0  0  0  0  0  0  0  0  0  0  0
   -7.6617    2.2450  -23.8956 C   0  0  0  0  0  0  0  0  0  0  0  0
   -6.4473    2.1312  -24.0054 O   0  0  0  0  0  0  0  0  0  0  0  0
   -8.6153    1.6234  -24.9253 C   0  0  0  0  0  0  0  0  0  0  0  0
   -9.3445    0.4682  -24.4313 N   0  0  0  0  0  0  0  0  0  0  0  0
   -8.6345   -0.7878  -24.2585 C   0  0  0  0  0  0  0  0  0  0  0  0
   -9.0352   -1.4968  -22.9372 C   0  0  2  0  0  0  0  0  0  0  0  0
   -8.4864   -0.7073  -21.7203 C   0  0  0  0  0  0  0  0  0  0  0  0
   -8.9130    0.3363  -21.2652 O   0  0  0  0  0  0  0  0  0  0  0  0
   -7.4003   -1.3818  -21.2058 N   0  0  0  0  0  0  0  0  0  0  0  0
   -6.6038   -0.8100  -20.1763 C   0  0  0  0  0  0  0  0  0  0  0  0
   -6.9098   -1.0420  -18.8587 C   0  0  0  0  0  0  0  0  0  0  0  0
   -6.2081   -0.5483  -17.8091 N   0  0  0  0  0  0  0  0  0  0  0  0
   -5.1699    0.2095  -18.0759 C   0  0  0  0  0  0  0  0  0  0  0  0
   -4.7319    0.5311  -19.3924 C   0  0  0  0  0  0  0  0  0  0  0  0
   -3.6044    1.3647  -19.6370 C   0  0  0  0  0  0  0  0  0  0  0  0
   -3.2174    1.6527  -20.9187 C   0  0  0  0  0  0  0  0  0  0  0  0
   -3.9368    1.1235  -22.0108 C   0  0  0  0  0  0  0  0  0  0  0  0
   -5.0319    0.3174  -21.8001 C   0  0  0  0  0  0  0  0  0  0  0  0
   -5.4649    0.0035  -20.4822 C   0  0  0  0  0  0  0  0  0  0  0  0
   -5.5882   -0.0693  -22.6481 H   0  0  0  0  0  0  0  0  0  0  0  0
   -3.6444    1.3667  -23.0277 H   0  0  0  0  0  0  0  0  0  0  0  0
   -2.3627    2.3018  -21.0988 H   0  0  0  0  0  0  0  0  0  0  0  0
   -3.0750    1.7755  -18.7822 H   0  0  0  0  0  0  0  0  0  0  0  0
   -4.6223    0.6133  -17.2253 H   0  0  0  0  0  0  0  0  0  0  0  0
   -7.7608   -1.6688  -18.6025 H   0  0  0  0  0  0  0  0  0  0  0  0
   -7.0708   -2.6039  -21.9084 C   0  0  0  0  0  0  0  0  0  0  0  0
   -8.3150   -2.8721  -22.7772 C   0  0  2  0  0  0  0  0  0  0  0  0
   -7.9520   -3.6261  -24.0747 C   0  0  0  0  0  0  0  0  0  0  0  0
   -7.4246   -4.9562  -23.7897 N   0  0  0  0  0  0  0  0  0  0  0  0
   -8.1939   -5.9978  -23.5587 N   0  0  0  0  0  0  0  0  0  0  0  0
   -7.2952   -6.9334  -23.2977 C   0  0  0  0  0  0  0  0  0  0  0  0
   -6.0309   -6.4688  -23.3710 N   0  0  0  0  0  0  0  0  0  0  0  0
   -6.1378   -5.2080  -23.6889 N   0  0  0  0  0  0  0  0  0  0  0  0
   -7.5590   -7.9514  -23.0354 H   0  0  0  0  0  0  0  0  0  0  0  0
   -8.8287   -3.7831  -24.7090 H   0  0  0  0  0  0  0  0  0  0  0  0
   -7.1647   -3.1124  -24.6354 H   0  0  0  0  0  0  0  0  0  0  0  0
   -8.9881   -3.5283  -22.2204 H   0  0  0  0  0  0  0  0  0  0  0  0
   -6.8693   -3.4233  -21.2090 H   0  0  0  0  0  0  0  0  0  0  0  0
   -6.1660   -2.4824  -22.5281 H   0  0  0  0  0  0  0  0  0  0  0  0
  -10.5527   -1.5308  -22.8656 C   0  0  0  0  0  0  0  0  0  0  0  0
  -11.1946   -2.3985  -21.9732 C   0  0  0  0  0  0  0  0  0  0  0  0
  -12.5755   -2.4108  -21.8894 C   0  0  0  0  0  0  0  0  0  0  0  0
  -13.3567   -3.4910  -20.7710 Cl  0  0  0  0  0  0  0  0  0  0  0  0
  -13.3592   -1.5511  -22.6565 C   0  0  0  0  0  0  0  0  0  0  0  0
  -12.7310   -0.6404  -23.4812 C   0  0  0  0  0  0  0  0  0  0  0  0
  -11.3387   -0.6021  -23.5628 C   0  0  0  0  0  0  0  0  0  0  0  0
  -10.7095    0.5277  -24.3235 C   0  0  0  0  0  0  0  0  0  0  0  0
  -11.3703    1.4519  -24.7732 O   0  0  0  0  0  0  0  0  0  0  0  0
  -13.2908    0.0852  -24.0608 H   0  0  0  0  0  0  0  0  0  0  0  0
  -14.4389   -1.5811  -22.5679 H   0  0  0  0  0  0  0  0  0  0  0  0
  -10.6286   -3.0380  -21.3078 H   0  0  0  0  0  0  0  0  0  0  0  0
   -7.5667   -0.5484  -24.2374 H   0  0  0  0  0  0  0  0  0  0  0  0
   -8.8346   -1.4632  -25.1076 H   0  0  0  0  0  0  0  0  0  0  0  0
   -7.9797    1.3518  -25.7755 H   0  0  0  0  0  0  0  0  0  0  0  0
   -9.3815    2.3315  -25.2567 H   0  0  0  0  0  0  0  0  0  0  0  0
   -9.2352    2.8745  -22.7422 H   0  0  0  0  0  0  0  0  0  0  0  0
   -6.6775    4.1666  -22.1669 H   0  0  0  0  0  0  0  0  0  0  0  0
   -8.0035    3.8406  -21.0319 H   0  0  0  0  0  0  0  0  0  0  0  0
   -6.7833    2.5566  -21.4119 H   0  0  0  0  0  0  0  0  0  0  0  0
  1  2  1  0
  2  3  1  0
  3  4  2  0
  3  5  1  0
  5  6  1  0
  6  7  1  0
  8  7  1  6
  8  9  1  0
  9 10  2  0
  9 11  1  0
 11 12  1  0
 12 13  2  0
 13 14  1  0
 14 15  2  0
 15 16  1  0
 16 17  2  0
 17 18  1  0
 18 19  2  0
 19 20  1  0
 20 21  2  0
 20 22  1  0
 19 23  1  0
 18 24  1  0
 17 25  1  0
 15 26  1  0
 13 27  1  0
 11 28  1  0
 28 29  1  0
 29 30  1  0
 30 31  1  0
 31 32  1  0
 32 33  2  0
 33 34  1  0
 34 35  2  0
 33 36  1  0
 30 37  1  0
 30 38  1  0
 29 39  1  1
 28 40  1  0
 28 41  1  0
  8 42  1  0
 42 43  2  0
 43 44  1  0
 44 45  1  0
 44 46  2  0
 46 47  1  0
 47 48  2  0
 48 49  1  0
 49 50  2  0
 47 51  1  0
 46 52  1  0
 43 53  1  0
  7 54  1  0
  7 55  1  0
  5 56  1  0
  5 57  1  0
  2 58  1  0
  1 59  1  0
  1 60  1  0
  1 61  1  0
 49  6  1  0
 29  8  1  0
 35 31  1  0
 48 42  1  0
 21 12  1  0
 21 16  1  0
M  END
>  <cnnaffinities>  (17) 
[6.61873, 6.72984, 6.16849]

>  <score>  (17) 
6.61873

>  <index>  (17) 
16

>  <Smiles>  (17) 
C(N(C(=O)C(N1C([C@@]2(C(=O)N(c3c(nc(c4c(c(c(c(c34)[H])[H])[H])[H])[H])[H])C([C@@]2(C(n2nc(nn2)[H])([H])[H])[H])([H])[H])c2c(c(Cl)c(c(c2C1=O)[H])[H])[H])([H])[H])([H])[H])[H])([H])([H])[H]

>  <h>  (17) 
<NA>

>  <Training>  (17) 
True

>  <Success>  (17) 
True

>  <enamine_searched>  (17) 
False

>  <enamine_id>  (17) 
nan

$$$$

     RDKit          3D

 38 41  0  0  0  0  0  0  0  0999 V2000
   -9.1356   -5.0292  -25.6398 C   0  0  0  0  0  0  0  0  0  0  0  0
   -9.3006   -4.2283  -24.3443 C   0  0  2  0  0  0  0  0  0  0  0  0
  -10.3187   -3.0697  -24.3964 C   0  0  0  0  0  0  0  0  0  0  0  0
  -10.4174   -2.3680  -23.0238 C   0  0  0  0  0  0  0  0  0  0  0  0
   -9.0861   -2.0900  -22.4755 C   0  0  0  0  0  0  0  0  0  0  0  0
   -8.6951   -1.1415  -21.4676 C   0  0  0  0  0  0  0  0  0  0  0  0
   -9.3138   -0.2251  -20.9714 O   0  0  0  0  0  1  0  0  0  0  0  0
   -7.3371   -1.4610  -21.2004 N   0  0  0  0  0  0  0  0  0  0  0  0
   -6.5634   -0.8492  -20.1787 C   0  0  0  0  0  0  0  0  0  0  0  0
   -6.8952   -1.0564  -18.8627 C   0  0  0  0  0  0  0  0  0  0  0  0
   -6.2076   -0.5475  -17.8127 N   0  0  0  0  0  0  0  0  0  0  0  0
   -5.1693    0.2086  -18.0812 C   0  0  0  0  0  0  0  0  0  0  0  0
   -4.7326    0.5288  -19.3980 C   0  0  0  0  0  0  0  0  0  0  0  0
   -3.6070    1.3642  -19.6282 C   0  0  0  0  0  0  0  0  0  0  0  0
   -3.2239    1.6688  -20.9058 C   0  0  0  0  0  0  0  0  0  0  0  0
   -3.9536    1.1616  -22.0048 C   0  0  0  0  0  0  0  0  0  0  0  0
   -5.0469    0.3548  -21.8080 C   0  0  0  0  0  0  0  0  0  0  0  0
   -5.4533    0.0009  -20.4898 C   0  0  0  0  0  0  0  0  0  0  0  0
   -5.6029   -0.0232  -22.6603 H   0  0  0  0  0  0  0  0  0  0  0  0
   -3.6471    1.4148  -23.0154 H   0  0  0  0  0  0  0  0  0  0  0  0
   -2.3669    2.3126  -21.0834 H   0  0  0  0  0  0  0  0  0  0  0  0
   -3.0761    1.7585  -18.7667 H   0  0  0  0  0  0  0  0  0  0  0  0
   -4.6214    0.6112  -17.2312 H   0  0  0  0  0  0  0  0  0  0  0  0
   -7.7538   -1.6738  -18.6083 H   0  0  0  0  0  0  0  0  0  0  0  0
   -6.8772   -2.4325  -22.0972 C   0  0  0  0  0  0  0  0  0  0  0  0
   -5.7458   -2.8563  -22.2179 O   0  0  0  0  0  0  0  0  0  0  0  0
   -7.9873   -2.7889  -22.8425 N   0  0  0  0  0  0  0  0  0  0  0  0
   -7.9136   -3.6826  -23.9879 C   0  0  0  0  0  0  0  0  0  0  0  0
   -7.2269   -4.4909  -23.7164 H   0  0  0  0  0  0  0  0  0  0  0  0
   -7.4986   -3.1457  -24.8588 H   0  0  0  0  0  0  0  0  0  0  0  0
  -10.9562   -1.4181  -23.0856 H   0  0  0  0  0  0  0  0  0  0  0  0
  -10.9996   -2.9854  -22.3191 H   0  0  0  0  0  0  0  0  0  0  0  0
  -10.0064   -2.3326  -25.1523 H   0  0  0  0  0  0  0  0  0  0  0  0
  -11.3160   -3.4236  -24.6884 H   0  0  0  0  0  0  0  0  0  0  0  0
   -9.6263   -4.9139  -23.5472 H   0  0  0  0  0  0  0  0  0  0  0  0
   -9.9574   -5.7256  -25.8165 H   0  0  0  0  0  0  0  0  0  0  0  0
   -8.2099   -5.6166  -25.6159 H   0  0  0  0  0  0  0  0  0  0  0  0
   -9.0599   -4.3722  -26.5119 H   0  0  0  0  0  0  0  0  0  0  0  0
  1  2  1  0
  2  3  1  0
  3  4  1  0
  4  5  1  0
  5  6  2  0
  6  7  1  0
  6  8  1  0
  8  9  1  0
  9 10  2  0
 10 11  1  0
 11 12  2  0
 12 13  1  0
 13 14  2  0
 14 15  1  0
 15 16  2  0
 16 17  1  0
 17 18  2  0
 17 19  1  0
 16 20  1  0
 15 21  1  0
 14 22  1  0
 12 23  1  0
 10 24  1  0
  8 25  1  0
 25 26  2  0
 25 27  1  0
 27 28  1  0
 28 29  1  0
 28 30  1  0
  4 31  1  0
  4 32  1  0
  3 33  1  0
  3 34  1  0
  2 35  1  1
  1 36  1  0
  1 37  1  0
  1 38  1  0
 28  2  1  0
 27  5  1  0
 18  9  1  0
 18 13  1  0
M  CHG  1   7  -1
M  END
>  <cnnaffinities>  (18) 
[4.87226, 5.11299]

>  <score>  (18) 
4.87226

>  <index>  (18) 
17

>  <Smiles>  (18) 
C([C@@]1(C(C(c2c([O-])n(c3c(nc(c4c(c(c(c(c34)[H])[H])[H])[H])[H])[H])c(=O)n2C1([H])[H])([H])[H])([H])[H])[H])([H])([H])[H]

>  <h>  (18) 
<NA>

>  <Training>  (18) 
True

>  <Success>  (18) 
True

>  <enamine_searched>  (18) 
False

>  <enamine_id>  (18) 
nan

$$$$

     RDKit          3D

 56 61  0  0  0  0  0  0  0  0999 V2000
  -10.4364   -1.1309  -23.2644 C   0  0  0  0  0  0  0  0  0  0  0  0
   -8.9937   -1.4796  -22.9272 C   0  0  1  0  0  0  0  0  0  0  0  0
   -8.3609   -0.5312  -21.8985 C   0  0  0  0  0  0  0  0  0  0  0  0
   -7.3660   -1.3657  -21.2388 N   0  0  0  0  0  0  0  0  0  0  0  0
   -6.5696   -0.8707  -20.1827 C   0  0  0  0  0  0  0  0  0  0  0  0
   -6.8952   -1.1131  -18.8723 C   0  0  0  0  0  0  0  0  0  0  0  0
   -6.2383   -0.5716  -17.8156 N   0  0  0  0  0  0  0  0  0  0  0  0
   -5.2165    0.2071  -18.0802 C   0  0  0  0  0  0  0  0  0  0  0  0
   -4.7582    0.5104  -19.3945 C   0  0  0  0  0  0  0  0  0  0  0  0
   -3.6329    1.3407  -19.6304 C   0  0  0  0  0  0  0  0  0  0  0  0
   -3.2284    1.6043  -20.9079 C   0  0  0  0  0  0  0  0  0  0  0  0
   -3.9253    1.0618  -22.0098 C   0  0  0  0  0  0  0  0  0  0  0  0
   -5.0193    0.2562  -21.8100 C   0  0  0  0  0  0  0  0  0  0  0  0
   -5.4570   -0.0336  -20.4902 C   0  0  0  0  0  0  0  0  0  0  0  0
   -5.5489   -0.1698  -22.6559 H   0  0  0  0  0  0  0  0  0  0  0  0
   -3.5976    1.2903  -23.0197 H   0  0  0  0  0  0  0  0  0  0  0  0
   -2.3706    2.2474  -21.0856 H   0  0  0  0  0  0  0  0  0  0  0  0
   -3.1185    1.7607  -18.7703 H   0  0  0  0  0  0  0  0  0  0  0  0
   -4.6871    0.6402  -17.2310 H   0  0  0  0  0  0  0  0  0  0  0  0
   -7.7344   -1.7609  -18.6248 H   0  0  0  0  0  0  0  0  0  0  0  0
   -7.6089   -2.7170  -21.3704 C   0  0  0  0  0  0  0  0  0  0  0  0
   -6.9738   -3.5897  -20.8162 O   0  0  0  0  0  0  0  0  0  0  0  0
   -8.8031   -2.9101  -22.3118 C   0  0  1  0  0  0  0  0  0  0  0  0
  -10.0070   -3.3515  -21.4516 C   0  0  0  0  0  0  0  0  0  0  0  0
  -11.1269   -3.8536  -22.2258 N   0  0  0  0  0  0  0  0  0  0  0  0
  -12.4900   -3.8459  -21.7015 C   0  0  0  0  0  0  0  0  0  0  0  0
  -13.3544   -2.7483  -22.2455 C   0  0  0  0  0  0  0  0  0  0  0  0
  -13.9862   -2.7766  -23.5136 C   0  0  0  0  0  0  0  0  0  0  0  0
  -14.6936   -1.6017  -23.5610 C   0  0  0  0  0  0  0  0  0  0  0  0
  -14.4540   -0.9613  -22.3956 N   0  0  0  0  0  0  0  0  0  0  0  0
  -13.6531   -1.6514  -21.5694 N   0  0  0  0  0  0  0  0  0  0  0  0
  -14.8611   -0.1022  -22.0523 H   0  0  0  0  0  0  0  0  0  0  0  0
  -15.3127   -1.1645  -24.3276 H   0  0  0  0  0  0  0  0  0  0  0  0
  -13.9083   -3.5701  -24.2498 H   0  0  0  0  0  0  0  0  0  0  0  0
  -12.9571   -4.7588  -22.0828 H   0  0  0  0  0  0  0  0  0  0  0  0
  -12.4762   -3.8566  -20.6079 H   0  0  0  0  0  0  0  0  0  0  0  0
  -10.9777   -4.5289  -23.4002 C   0  0  0  0  0  0  0  0  0  0  0  0
  -11.9567   -4.9156  -24.0229 O   0  0  0  0  0  0  0  0  0  0  0  0
   -9.5789   -4.7447  -23.8609 C   0  0  0  0  0  0  0  0  0  0  0  0
   -9.3328   -5.7338  -24.8072 C   0  0  0  0  0  0  0  0  0  0  0  0
   -8.0742   -5.8847  -25.3585 C   0  0  0  0  0  0  0  0  0  0  0  0
   -7.0718   -5.0277  -24.9169 C   0  0  0  0  0  0  0  0  0  0  0  0
   -5.8505   -5.1486  -25.4586 F   0  0  0  0  0  0  0  0  0  0  0  0
   -7.2659   -4.0913  -23.9201 C   0  0  0  0  0  0  0  0  0  0  0  0
   -8.5386   -3.9628  -23.3556 C   0  0  0  0  0  0  0  0  0  0  0  0
   -6.4339   -3.4937  -23.5626 H   0  0  0  0  0  0  0  0  0  0  0  0
   -7.8570   -6.6441  -26.1039 H   0  0  0  0  0  0  0  0  0  0  0  0
  -10.1647   -6.3596  -25.1111 H   0  0  0  0  0  0  0  0  0  0  0  0
   -9.6731   -4.1179  -20.7499 H   0  0  0  0  0  0  0  0  0  0  0  0
  -10.3578   -2.4747  -20.9002 H   0  0  0  0  0  0  0  0  0  0  0  0
   -9.1100   -0.1621  -21.1778 H   0  0  0  0  0  0  0  0  0  0  0  0
   -7.8900    0.3450  -22.3555 H   0  0  0  0  0  0  0  0  0  0  0  0
   -8.3823   -1.4562  -23.8426 H   0  0  0  0  0  0  0  0  0  0  0  0
  -10.8716   -1.9133  -23.8909 H   0  0  0  0  0  0  0  0  0  0  0  0
  -11.0345   -1.0803  -22.3495 H   0  0  0  0  0  0  0  0  0  0  0  0
  -10.5163   -0.1730  -23.7825 H   0  0  0  0  0  0  0  0  0  0  0  0
  1  2  1  0
  2  3  1  0
  3  4  1  0
  4  5  1  0
  5  6  2  0
  6  7  1  0
  7  8  2  0
  8  9  1  0
  9 10  2  0
 10 11  1  0
 11 12  2  0
 12 13  1  0
 13 14  2  0
 13 15  1  0
 12 16  1  0
 11 17  1  0
 10 18  1  0
  8 19  1  0
  6 20  1  0
  4 21  1  0
 21 22  2  0
 21 23  1  0
 23 24  1  1
 24 25  1  0
 25 26  1  0
 26 27  1  0
 27 28  1  0
 28 29  2  0
 29 30  1  0
 30 31  1  0
 30 32  1  0
 29 33  1  0
 28 34  1  0
 26 35  1  0
 26 36  1  0
 25 37  1  0
 37 38  2  0
 37 39  1  0
 39 40  2  0
 40 41  1  0
 41 42  2  0
 42 43  1  0
 42 44  1  0
 44 45  2  0
 44 46  1  0
 41 47  1  0
 40 48  1  0
 24 49  1  0
 24 50  1  0
  3 51  1  0
  3 52  1  0
  2 53  1  6
  1 54  1  0
  1 55  1  0
  1 56  1  0
 23  2  1  0
 31 27  2  0
 45 39  1  0
 14  5  1  0
 45 23  1  0
 14  9  1  0
M  END
>  <cnnaffinities>  (19) 
[6.48501]

>  <score>  (19) 
6.48501

>  <index>  (19) 
18

>  <Smiles>  (19) 
C([C@]1(C(N(c2c(nc(c3c(c(c(c(c23)[H])[H])[H])[H])[H])[H])C(=O)[C@]21C(N(C(c1c(c(n(n1)[H])[H])[H])([H])[H])C(=O)c1c(c(c(F)c(c21)[H])[H])[H])([H])[H])([H])[H])[H])([H])([H])[H]

>  <h>  (19) 
<NA>

>  <Training>  (19) 
True

>  <Success>  (19) 
True

>  <enamine_searched>  (19) 
False

>  <enamine_id>  (19) 
nan

$$$$

     RDKit          3D

 42 45  0  0  0  0  0  0  0  0999 V2000
   -9.1449   -0.0624  -20.7246 O   0  0  0  0  0  0  0  0  0  0  0  0
   -8.6547   -0.9063  -21.4497 C   0  0  0  0  0  0  0  0  0  0  0  0
   -9.3670   -1.5026  -22.6766 C   0  0  1  0  0  0  0  0  0  0  0  0
  -10.4384   -0.5581  -23.1883 C   0  0  0  0  0  0  0  0  0  0  0  0
  -10.1005    0.7535  -23.5124 C   0  0  0  0  0  0  0  0  0  0  0  0
  -11.0715    1.6270  -23.9678 C   0  0  0  0  0  0  0  0  0  0  0  0
  -12.4001    1.2407  -24.0807 C   0  0  0  0  0  0  0  0  0  0  0  0
  -13.5497    2.5026  -24.3724 Cl  0  0  0  0  0  0  0  0  0  0  0  0
  -12.7281   -0.0984  -23.8601 C   0  0  0  0  0  0  0  0  0  0  0  0
  -14.3307   -0.6906  -24.1123 Cl  0  0  0  0  0  0  0  0  0  0  0  0
  -11.7484   -0.9850  -23.4042 C   0  0  0  0  0  0  0  0  0  0  0  0
  -12.0462   -2.0119  -23.1873 H   0  0  0  0  0  0  0  0  0  0  0  0
  -10.8333    2.6528  -24.2060 H   0  0  0  0  0  0  0  0  0  0  0  0
   -9.0888    1.1203  -23.3397 H   0  0  0  0  0  0  0  0  0  0  0  0
   -8.3344   -1.7870  -23.7755 C   0  0  0  0  0  0  0  0  0  0  0  0
   -7.2412   -2.7559  -23.3373 C   0  0  2  0  0  0  0  0  0  0  0  0
   -7.5387   -4.1072  -23.6567 O   0  0  0  0  0  0  0  0  0  0  0  0
   -8.3966   -4.3205  -23.2670 H   0  0  0  0  0  0  0  0  0  0  0  0
   -6.9345   -2.6361  -21.8347 C   0  0  0  0  0  0  0  0  0  0  0  0
   -7.3748   -1.3761  -21.2534 N   0  0  0  0  0  0  0  0  0  0  0  0
   -6.6079   -0.8074  -20.1917 C   0  0  0  0  0  0  0  0  0  0  0  0
   -6.9101   -1.0514  -18.8764 C   0  0  0  0  0  0  0  0  0  0  0  0
   -6.2038   -0.5596  -17.8261 N   0  0  0  0  0  0  0  0  0  0  0  0
   -5.1696    0.2047  -18.0807 C   0  0  0  0  0  0  0  0  0  0  0  0
   -4.7283    0.5261  -19.3955 C   0  0  0  0  0  0  0  0  0  0  0  0
   -3.6004    1.3566  -19.6367 C   0  0  0  0  0  0  0  0  0  0  0  0
   -3.2135    1.6409  -20.9177 C   0  0  0  0  0  0  0  0  0  0  0  0
   -3.9332    1.1055  -22.0107 C   0  0  0  0  0  0  0  0  0  0  0  0
   -5.0241    0.3017  -21.7995 C   0  0  0  0  0  0  0  0  0  0  0  0
   -5.4560   -0.0035  -20.4838 C   0  0  0  0  0  0  0  0  0  0  0  0
   -5.5876   -0.0959  -22.6365 H   0  0  0  0  0  0  0  0  0  0  0  0
   -3.6279    1.3476  -23.0242 H   0  0  0  0  0  0  0  0  0  0  0  0
   -2.3603    2.2875  -21.1053 H   0  0  0  0  0  0  0  0  0  0  0  0
   -3.0684    1.7698  -18.7834 H   0  0  0  0  0  0  0  0  0  0  0  0
   -4.6244    0.6123  -17.2268 H   0  0  0  0  0  0  0  0  0  0  0  0
   -7.7580   -1.6720  -18.5959 H   0  0  0  0  0  0  0  0  0  0  0  0
   -7.3939   -3.5096  -21.3359 H   0  0  0  0  0  0  0  0  0  0  0  0
   -5.8595   -2.6951  -21.6661 H   0  0  0  0  0  0  0  0  0  0  0  0
   -6.3405   -2.5463  -23.9202 H   0  0  0  0  0  0  0  0  0  0  0  0
   -7.8963   -0.8295  -24.0863 H   0  0  0  0  0  0  0  0  0  0  0  0
   -8.8250   -2.2064  -24.6596 H   0  0  0  0  0  0  0  0  0  0  0  0
   -9.8473   -2.4448  -22.3758 H   0  0  0  0  0  0  0  0  0  0  0  0
  1  2  2  0
  2  3  1  0
  3  4  1  0
  4  5  2  0
  5  6  1  0
  6  7  2  0
  7  8  1  0
  7  9  1  0
  9 10  1  0
  9 11  2  0
 11 12  1  0
  6 13  1  0
  5 14  1  0
  3 15  1  0
 15 16  1  0
 16 17  1  0
 17 18  1  0
 16 19  1  0
 19 20  1  0
 20 21  1  0
 21 22  2  0
 22 23  1  0
 23 24  2  0
 24 25  1  0
 25 26  2  0
 26 27  1  0
 27 28  2  0
 28 29  1  0
 29 30  2  0
 29 31  1  0
 28 32  1  0
 27 33  1  0
 26 34  1  0
 24 35  1  0
 22 36  1  0
 19 37  1  0
 19 38  1  0
 16 39  1  6
 15 40  1  0
 15 41  1  0
  3 42  1  1
 20  2  1  0
 30 21  1  0
 11  4  1  0
 30 25  1  0
M  END
>  <cnnaffinities>  (20) 
[5.80394]

>  <score>  (20) 
5.80394

>  <index>  (20) 
19

>  <Smiles>  (20) 
O=C1[C@@](c2c(c(c(Cl)c(Cl)c2[H])[H])[H])(C([C@](O[H])(C(N1c1c(nc(c2c(c(c(c(c12)[H])[H])[H])[H])[H])[H])([H])[H])[H])([H])[H])[H]

>  <h>  (20) 
<NA>

>  <Training>  (20) 
True

>  <Success>  (20) 
True

>  <enamine_searched>  (20) 
False

>  <enamine_id>  (20) 
nan

$$$$

     RDKit          3D

 66 71  0  0  0  0  0  0  0  0999 V2000
   -7.3601    3.3668  -21.8581 C   0  0  0  0  0  0  0  0  0  0  0  0
   -8.3101    2.9160  -22.8646 N   0  0  0  0  0  0  0  0  0  0  0  0
   -7.7868    2.1887  -23.8948 C   0  0  0  0  0  0  0  0  0  0  0  0
   -6.5862    2.0036  -24.0271 O   0  0  0  0  0  0  0  0  0  0  0  0
   -8.7814    1.5949  -24.8884 C   0  0  0  0  0  0  0  0  0  0  0  0
   -9.4444    0.4447  -24.3085 N   0  0  0  0  0  0  0  0  0  0  0  0
   -8.6942   -0.7904  -24.1551 C   0  0  0  0  0  0  0  0  0  0  0  0
   -9.0685   -1.5387  -22.8515 C   0  0  2  0  0  0  0  0  0  0  0  0
   -8.5388   -0.7621  -21.6227 C   0  0  0  0  0  0  0  0  0  0  0  0
   -9.0133    0.2401  -21.1180 O   0  0  0  0  0  0  0  0  0  0  0  0
   -7.3987   -1.3879  -21.1815 N   0  0  0  0  0  0  0  0  0  0  0  0
   -6.6022   -0.8162  -20.1650 C   0  0  0  0  0  0  0  0  0  0  0  0
   -6.9287   -1.0370  -18.8530 C   0  0  0  0  0  0  0  0  0  0  0  0
   -6.2355   -0.5446  -17.8002 N   0  0  0  0  0  0  0  0  0  0  0  0
   -5.1916    0.2038  -18.0717 C   0  0  0  0  0  0  0  0  0  0  0  0
   -4.7498    0.5221  -19.3889 C   0  0  0  0  0  0  0  0  0  0  0  0
   -3.6247    1.3550  -19.6307 C   0  0  0  0  0  0  0  0  0  0  0  0
   -3.2399    1.6502  -20.9094 C   0  0  0  0  0  0  0  0  0  0  0  0
   -3.9603    1.1368  -22.0101 C   0  0  0  0  0  0  0  0  0  0  0  0
   -5.0543    0.3294  -21.8052 C   0  0  0  0  0  0  0  0  0  0  0  0
   -5.4728   -0.0037  -20.4853 C   0  0  0  0  0  0  0  0  0  0  0  0
   -5.6192   -0.0259  -22.6626 H   0  0  0  0  0  0  0  0  0  0  0  0
   -3.6603    1.3910  -23.0219 H   0  0  0  0  0  0  0  0  0  0  0  0
   -2.3799    2.2875  -21.0847 H   0  0  0  0  0  0  0  0  0  0  0  0
   -3.0936    1.7578  -18.7726 H   0  0  0  0  0  0  0  0  0  0  0  0
   -4.6312    0.6025  -17.2257 H   0  0  0  0  0  0  0  0  0  0  0  0
   -7.7968   -1.6489  -18.6224 H   0  0  0  0  0  0  0  0  0  0  0  0
   -7.0298   -2.5683  -21.9308 C   0  0  0  0  0  0  0  0  0  0  0  0
   -8.2976   -2.8982  -22.7321 C   0  0  2  0  0  0  0  0  0  0  0  0
   -7.9783   -3.6513  -24.0432 C   0  0  0  0  0  0  0  0  0  0  0  0
   -7.3566   -5.0221  -23.8596 C   0  0  0  0  0  0  0  0  0  0  0  0
   -5.9741   -5.2357  -23.7838 C   0  0  0  0  0  0  0  0  0  0  0  0
   -5.4584   -6.5034  -23.5195 C   0  0  0  0  0  0  0  0  0  0  0  0
   -6.3036   -7.5934  -23.3485 C   0  0  0  0  0  0  0  0  0  0  0  0
   -7.6703   -7.4105  -23.5049 C   0  0  0  0  0  0  0  0  0  0  0  0
   -8.1828   -6.1436  -23.7689 C   0  0  0  0  0  0  0  0  0  0  0  0
   -9.2598   -6.0485  -23.9043 H   0  0  0  0  0  0  0  0  0  0  0  0
   -8.3612   -8.2481  -23.4305 H   0  0  0  0  0  0  0  0  0  0  0  0
   -5.8973   -8.5715  -23.1011 H   0  0  0  0  0  0  0  0  0  0  0  0
   -4.3858   -6.6548  -23.4520 H   0  0  0  0  0  0  0  0  0  0  0  0
   -5.2809   -4.4109  -23.9403 H   0  0  0  0  0  0  0  0  0  0  0  0
   -8.9106   -3.7745  -24.6071 H   0  0  0  0  0  0  0  0  0  0  0  0
   -7.3103   -3.0330  -24.6543 H   0  0  0  0  0  0  0  0  0  0  0  0
   -8.9155   -3.5584  -22.1185 H   0  0  0  0  0  0  0  0  0  0  0  0
   -6.7469   -3.3820  -21.2549 H   0  0  0  0  0  0  0  0  0  0  0  0
   -6.1781   -2.3804  -22.6052 H   0  0  0  0  0  0  0  0  0  0  0  0
  -10.5806   -1.6189  -22.7888 C   0  0  0  0  0  0  0  0  0  0  0  0
  -11.2059   -2.5538  -21.9639 C   0  0  0  0  0  0  0  0  0  0  0  0
  -12.5838   -2.5776  -21.8664 C   0  0  0  0  0  0  0  0  0  0  0  0
  -13.3199   -3.7193  -20.7896 Cl  0  0  0  0  0  0  0  0  0  0  0  0
  -13.3948   -1.6965  -22.5793 C   0  0  0  0  0  0  0  0  0  0  0  0
  -12.7815   -0.7465  -23.3660 C   0  0  0  0  0  0  0  0  0  0  0  0
  -11.3935   -0.6817  -23.4394 C   0  0  0  0  0  0  0  0  0  0  0  0
  -10.8014    0.4762  -24.1721 C   0  0  0  0  0  0  0  0  0  0  0  0
  -11.4850    1.4003  -24.5910 O   0  0  0  0  0  0  0  0  0  0  0  0
  -13.3463   -0.0110  -23.9249 H   0  0  0  0  0  0  0  0  0  0  0  0
  -14.4745   -1.7409  -22.4872 H   0  0  0  0  0  0  0  0  0  0  0  0
  -10.6324   -3.2554  -21.3702 H   0  0  0  0  0  0  0  0  0  0  0  0
   -7.6258   -0.5490  -24.1663 H   0  0  0  0  0  0  0  0  0  0  0  0
   -8.9055   -1.4585  -25.0011 H   0  0  0  0  0  0  0  0  0  0  0  0
   -8.2172    1.2970  -25.7794 H   0  0  0  0  0  0  0  0  0  0  0  0
   -9.5659    2.3054  -25.1730 H   0  0  0  0  0  0  0  0  0  0  0  0
   -9.2615    2.7422  -22.5577 H   0  0  0  0  0  0  0  0  0  0  0  0
   -7.9012    3.8187  -21.0251 H   0  0  0  0  0  0  0  0  0  0  0  0
   -6.6957    4.1257  -22.2849 H   0  0  0  0  0  0  0  0  0  0  0  0
   -6.7507    2.5135  -21.5207 H   0  0  0  0  0  0  0  0  0  0  0  0
  1  2  1  0
  2  3  1  0
  3  4  2  0
  3  5  1  0
  5  6  1  0
  6  7  1  0
  8  7  1  6
  8  9  1  0
  9 10  2  0
  9 11  1  0
 11 12  1  0
 12 13  2  0
 13 14  1  0
 14 15  2  0
 15 16  1  0
 16 17  2  0
 17 18  1  0
 18 19  2  0
 19 20  1  0
 20 21  2  0
 20 22  1  0
 19 23  1  0
 18 24  1  0
 17 25  1  0
 15 26  1  0
 13 27  1  0
 11 28  1  0
 28 29  1  0
 29 30  1  0
 30 31  1  0
 31 32  2  0
 32 33  1  0
 33 34  2  0
 34 35  1  0
 35 36  2  0
 36 37  1  0
 35 38  1  0
 34 39  1  0
 33 40  1  0
 32 41  1  0
 30 42  1  0
 30 43  1  0
 29 44  1  1
 28 45  1  0
 28 46  1  0
  8 47  1  0
 47 48  2  0
 48 49  1  0
 49 50  1  0
 49 51  2  0
 51 52  1  0
 52 53  2  0
 53 54  1  0
 54 55  2  0
 52 56  1  0
 51 57  1  0
 48 58  1  0
  7 59  1  0
  7 60  1  0
  5 61  1  0
  5 62  1  0
  2 63  1  0
  1 64  1  0
  1 65  1  0
  1 66  1  0
 54  6  1  0
 29  8  1  0
 36 31  1  0
 53 47  1  0
 21 12  1  0
 21 16  1  0
M  END
>  <cnnaffinities>  (21) 
[6.91004, 6.88499]

>  <score>  (21) 
6.91004

>  <index>  (21) 
20

>  <Smiles>  (21) 
C(N(C(=O)C(N1C([C@@]2(C(=O)N(c3c(nc(c4c(c(c(c(c34)[H])[H])[H])[H])[H])[H])C([C@@]2(C(c2c(c(c(c(c2[H])[H])[H])[H])[H])([H])[H])[H])([H])[H])c2c(c(Cl)c(c(c2C1=O)[H])[H])[H])([H])[H])([H])[H])[H])([H])([H])[H]

>  <h>  (21) 
<NA>

>  <Training>  (21) 
True

>  <Success>  (21) 
True

>  <enamine_searched>  (21) 
False

>  <enamine_id>  (21) 
nan

$$$$

     RDKit          3D

 63 68  0  0  0  0  0  0  0  0999 V2000
   -8.1630   -3.7834  -23.9153 C   0  0  0  0  0  0  0  0  0  0  0  0
   -8.3457   -3.0320  -22.5997 C   0  0  1  0  0  0  0  0  0  0  0  0
   -7.0279   -2.4510  -22.0462 C   0  0  0  0  0  0  0  0  0  0  0  0
   -7.4761   -1.3533  -21.2128 N   0  0  0  0  0  0  0  0  0  0  0  0
   -6.6821   -0.7859  -20.1747 C   0  0  0  0  0  0  0  0  0  0  0  0
   -6.9942   -1.0113  -18.8547 C   0  0  0  0  0  0  0  0  0  0  0  0
   -6.2823   -0.5243  -17.8087 N   0  0  0  0  0  0  0  0  0  0  0  0
   -5.2328    0.2168  -18.0760 C   0  0  0  0  0  0  0  0  0  0  0  0
   -4.7820    0.5203  -19.3913 C   0  0  0  0  0  0  0  0  0  0  0  0
   -3.6463    1.3418  -19.6370 C   0  0  0  0  0  0  0  0  0  0  0  0
   -3.2541    1.6302  -20.9160 C   0  0  0  0  0  0  0  0  0  0  0  0
   -3.9851    1.1148  -22.0074 C   0  0  0  0  0  0  0  0  0  0  0  0
   -5.0818    0.3074  -21.7960 C   0  0  0  0  0  0  0  0  0  0  0  0
   -5.5155   -0.0109  -20.4810 C   0  0  0  0  0  0  0  0  0  0  0  0
   -5.6765   -0.0173  -22.6434 H   0  0  0  0  0  0  0  0  0  0  0  0
   -3.6997    1.3837  -23.0202 H   0  0  0  0  0  0  0  0  0  0  0  0
   -2.4049    2.2857  -21.0964 H   0  0  0  0  0  0  0  0  0  0  0  0
   -3.1212    1.7619  -18.7843 H   0  0  0  0  0  0  0  0  0  0  0  0
   -4.6760    0.6206  -17.2280 H   0  0  0  0  0  0  0  0  0  0  0  0
   -7.8487   -1.6312  -18.5901 H   0  0  0  0  0  0  0  0  0  0  0  0
   -8.7637   -0.9448  -21.4955 C   0  0  0  0  0  0  0  0  0  0  0  0
   -9.3361   -0.0199  -20.9511 O   0  0  0  0  0  0  0  0  0  0  0  0
   -9.3534   -1.8422  -22.6246 C   0  0  1  0  0  0  0  0  0  0  0  0
   -9.3124   -1.0965  -23.9913 C   0  0  0  0  0  0  0  0  0  0  0  0
  -10.2675   -0.0076  -24.1001 N   0  0  0  0  0  0  0  0  0  0  0  0
   -9.8464    1.2025  -24.7957 C   0  0  0  0  0  0  0  0  0  0  0  0
   -8.6072    1.7651  -24.0939 C   0  0  0  0  0  0  0  0  0  0  0  0
   -7.4868    1.6941  -24.5723 O   0  0  0  0  0  0  0  0  0  0  0  0
   -8.9020    2.2632  -22.8669 N   0  0  0  0  0  0  0  0  0  0  0  0
   -7.9200    2.5373  -21.8357 C   0  0  0  0  0  0  0  0  0  0  0  0
   -7.4324    3.9681  -21.8540 C   0  0  0  0  0  0  0  0  0  0  0  0
   -6.1283    4.3114  -21.2058 C   0  0  0  0  0  0  0  0  0  0  0  0
   -6.2254    4.2723  -22.7043 C   0  0  0  0  0  0  0  0  0  0  0  0
   -5.7527    3.4268  -23.2089 H   0  0  0  0  0  0  0  0  0  0  0  0
   -6.1841    5.2046  -23.2588 H   0  0  0  0  0  0  0  0  0  0  0  0
   -5.5690    3.4985  -20.7529 H   0  0  0  0  0  0  0  0  0  0  0  0
   -6.0000    5.2826  -20.7379 H   0  0  0  0  0  0  0  0  0  0  0  0
   -8.2333    4.7051  -21.8026 H   0  0  0  0  0  0  0  0  0  0  0  0
   -8.4114    2.2615  -20.9013 H   0  0  0  0  0  0  0  0  0  0  0  0
   -7.0741    1.8538  -21.9659 H   0  0  0  0  0  0  0  0  0  0  0  0
   -9.8614    2.1853  -22.5612 H   0  0  0  0  0  0  0  0  0  0  0  0
  -10.6878    1.8952  -24.7213 H   0  0  0  0  0  0  0  0  0  0  0  0
   -9.6222    1.0136  -25.8521 H   0  0  0  0  0  0  0  0  0  0  0  0
  -11.5065   -0.0527  -23.5393 C   0  0  0  0  0  0  0  0  0  0  0  0
  -12.3085    0.8686  -23.6543 O   0  0  0  0  0  0  0  0  0  0  0  0
  -11.8285   -1.2928  -22.7623 C   0  0  0  0  0  0  0  0  0  0  0  0
  -13.1689   -1.5009  -22.4353 C   0  0  0  0  0  0  0  0  0  0  0  0
  -13.5390   -2.5656  -21.6446 C   0  0  0  0  0  0  0  0  0  0  0  0
  -12.5321   -3.4129  -21.2118 C   0  0  0  0  0  0  0  0  0  0  0  0
  -12.8731   -4.3233  -20.2887 F   0  0  0  0  0  0  0  0  0  0  0  0
  -11.2111   -3.2980  -21.6027 C   0  0  0  0  0  0  0  0  0  0  0  0
  -10.8168   -2.1848  -22.3570 C   0  0  0  0  0  0  0  0  0  0  0  0
  -10.5094   -4.0327  -21.2199 H   0  0  0  0  0  0  0  0  0  0  0  0
  -14.5579   -2.7388  -21.3186 H   0  0  0  0  0  0  0  0  0  0  0  0
  -13.9017   -0.7860  -22.7885 H   0  0  0  0  0  0  0  0  0  0  0  0
   -8.3205   -0.6680  -24.1427 H   0  0  0  0  0  0  0  0  0  0  0  0
   -9.5022   -1.8122  -24.8004 H   0  0  0  0  0  0  0  0  0  0  0  0
   -6.3637   -2.1040  -22.8544 H   0  0  0  0  0  0  0  0  0  0  0  0
   -6.4647   -3.1829  -21.4558 H   0  0  0  0  0  0  0  0  0  0  0  0
   -8.7087   -3.7297  -21.8392 H   0  0  0  0  0  0  0  0  0  0  0  0
   -7.7048   -3.1357  -24.6739 H   0  0  0  0  0  0  0  0  0  0  0  0
   -7.5092   -4.6536  -23.7922 H   0  0  0  0  0  0  0  0  0  0  0  0
   -9.1260   -4.1311  -24.3067 H   0  0  0  0  0  0  0  0  0  0  0  0
  1  2  1  0
  2  3  1  0
  3  4  1  0
  4  5  1  0
  5  6  2  0
  6  7  1  0
  7  8  2  0
  8  9  1  0
  9 10  2  0
 10 11  1  0
 11 12  2  0
 12 13  1  0
 13 14  2  0
 13 15  1  0
 12 16  1  0
 11 17  1  0
 10 18  1  0
  8 19  1  0
  6 20  1  0
  4 21  1  0
 21 22  2  0
 21 23  1  0
 23 24  1  6
 24 25  1  0
 25 26  1  0
 26 27  1  0
 27 28  2  0
 27 29  1  0
 29 30  1  0
 30 31  1  0
 31 32  1  0
 32 33  1  0
 33 34  1  0
 33 35  1  0
 32 36  1  0
 32 37  1  0
 31 38  1  0
 30 39  1  0
 30 40  1  0
 29 41  1  0
 26 42  1  0
 26 43  1  0
 25 44  1  0
 44 45  2  0
 44 46  1  0
 46 47  2  0
 47 48  1  0
 48 49  2  0
 49 50  1  0
 49 51  1  0
 51 52  2  0
 51 53  1  0
 48 54  1  0
 47 55  1  0
 24 56  1  0
 24 57  1  0
  3 58  1  0
  3 59  1  0
  2 60  1  1
  1 61  1  0
  1 62  1  0
  1 63  1  0
 23  2  1  0
 33 31  1  0
 52 46  1  0
 14  5  1  0
 52 23  1  0
 14  9  1  0
M  END
>  <cnnaffinities>  (22) 
[6.79597]

>  <score>  (22) 
6.79597

>  <index>  (22) 
21

>  <Smiles>  (22) 
C([C@]1(C(N(c2c(nc(c3c(c(c(c(c23)[H])[H])[H])[H])[H])[H])C(=O)[C@]21C(N(C(C(=O)N(C(C1(C(C1([H])[H])([H])[H])[H])([H])[H])[H])([H])[H])C(=O)c1c(c(c(F)c(c21)[H])[H])[H])([H])[H])([H])[H])[H])([H])([H])[H]

>  <h>  (22) 
<NA>

>  <Training>  (22) 
True

>  <Success>  (22) 
True

>  <enamine_searched>  (22) 
False

>  <enamine_id>  (22) 
nan

$$$$

     RDKit          3D

 68 73  0  0  0  0  0  0  0  0999 V2000
  -14.3575   -1.3144  -23.6454 C   0  0  0  0  0  0  0  0  0  0  0  0
  -13.7381   -2.5435  -23.1954 N   0  0  0  0  0  0  0  0  0  0  0  0
  -13.4414   -2.6770  -21.8805 C   0  0  0  0  0  0  0  0  0  0  0  0
  -13.8739   -1.9361  -21.0097 O   0  0  0  0  0  0  0  0  0  0  0  0
  -12.5585   -3.8744  -21.5610 C   0  0  0  0  0  0  0  0  0  0  0  0
  -11.2345   -3.8291  -22.1649 N   0  0  0  0  0  0  0  0  0  0  0  0
  -10.1060   -3.2879  -21.4173 C   0  0  0  0  0  0  0  0  0  0  0  0
   -8.8809   -2.8923  -22.2857 C   0  0  2  0  0  0  0  0  0  0  0  0
   -7.6747   -2.7082  -21.3514 C   0  0  0  0  0  0  0  0  0  0  0  0
   -7.0411   -3.5866  -20.8021 O   0  0  0  0  0  0  0  0  0  0  0  0
   -7.4015   -1.3594  -21.2283 N   0  0  0  0  0  0  0  0  0  0  0  0
   -6.5864   -0.8632  -20.1839 C   0  0  0  0  0  0  0  0  0  0  0  0
   -6.9006   -1.1027  -18.8692 C   0  0  0  0  0  0  0  0  0  0  0  0
   -6.2320   -0.5694  -17.8144 N   0  0  0  0  0  0  0  0  0  0  0  0
   -5.2072    0.2050  -18.0797 C   0  0  0  0  0  0  0  0  0  0  0  0
   -4.7574    0.5086  -19.3969 C   0  0  0  0  0  0  0  0  0  0  0  0
   -3.6327    1.3392  -19.6328 C   0  0  0  0  0  0  0  0  0  0  0  0
   -3.2275    1.6066  -20.9111 C   0  0  0  0  0  0  0  0  0  0  0  0
   -3.9254    1.0604  -22.0116 C   0  0  0  0  0  0  0  0  0  0  0  0
   -5.0193    0.2551  -21.8109 C   0  0  0  0  0  0  0  0  0  0  0  0
   -5.4639   -0.0343  -20.4926 C   0  0  0  0  0  0  0  0  0  0  0  0
   -5.5467   -0.1688  -22.6600 H   0  0  0  0  0  0  0  0  0  0  0  0
   -3.5969    1.2886  -23.0213 H   0  0  0  0  0  0  0  0  0  0  0  0
   -2.3698    2.2477  -21.0900 H   0  0  0  0  0  0  0  0  0  0  0  0
   -3.1148    1.7599  -18.7751 H   0  0  0  0  0  0  0  0  0  0  0  0
   -4.6681    0.6386  -17.2343 H   0  0  0  0  0  0  0  0  0  0  0  0
   -7.7402   -1.7467  -18.6165 H   0  0  0  0  0  0  0  0  0  0  0  0
   -8.3674   -0.5118  -21.9177 C   0  0  0  0  0  0  0  0  0  0  0  0
   -9.0038   -1.4736  -22.9301 C   0  0  2  0  0  0  0  0  0  0  0  0
  -10.4417   -1.1334  -23.3545 C   0  0  0  0  0  0  0  0  0  0  0  0
  -10.5882    0.0272  -24.2017 N   0  0  0  0  0  0  0  0  0  0  0  0
  -10.6146    1.2989  -23.6253 C   0  0  0  0  0  0  0  0  0  0  0  0
  -11.4546    1.6082  -22.5469 C   0  0  0  0  0  0  0  0  0  0  0  0
  -11.5447    2.9211  -22.0941 C   0  0  0  0  0  0  0  0  0  0  0  0
  -10.7916    3.9357  -22.6800 C   0  0  0  0  0  0  0  0  0  0  0  0
   -9.9207    3.6166  -23.7138 C   0  0  0  0  0  0  0  0  0  0  0  0
   -9.8421    2.3181  -24.1877 C   0  0  0  0  0  0  0  0  0  0  0  0
   -9.1713    2.0722  -25.0055 H   0  0  0  0  0  0  0  0  0  0  0  0
   -9.2874    4.3814  -24.1526 H   0  0  0  0  0  0  0  0  0  0  0  0
  -10.8575    4.9556  -22.3071 H   0  0  0  0  0  0  0  0  0  0  0  0
  -12.1807    3.1551  -21.2401 H   0  0  0  0  0  0  0  0  0  0  0  0
  -12.0634    0.8350  -22.0803 H   0  0  0  0  0  0  0  0  0  0  0  0
   -9.9873   -0.0186  -25.0137 H   0  0  0  0  0  0  0  0  0  0  0  0
  -11.0491   -0.9891  -22.4564 H   0  0  0  0  0  0  0  0  0  0  0  0
  -10.8495   -1.9927  -23.8970 H   0  0  0  0  0  0  0  0  0  0  0  0
   -8.3634   -1.4838  -23.8272 H   0  0  0  0  0  0  0  0  0  0  0  0
   -7.8680    0.3395  -22.3909 H   0  0  0  0  0  0  0  0  0  0  0  0
   -9.1076   -0.1129  -21.2067 H   0  0  0  0  0  0  0  0  0  0  0  0
   -8.6428   -3.9645  -23.3203 C   0  0  0  0  0  0  0  0  0  0  0  0
   -7.3720   -4.1527  -23.8663 C   0  0  0  0  0  0  0  0  0  0  0  0
   -7.1775   -5.1194  -24.8350 C   0  0  0  0  0  0  0  0  0  0  0  0
   -5.6159   -5.2735  -25.5694 Cl  0  0  0  0  0  0  0  0  0  0  0  0
   -8.2118   -5.9441  -25.2719 C   0  0  0  0  0  0  0  0  0  0  0  0
   -9.4722   -5.7443  -24.7421 C   0  0  0  0  0  0  0  0  0  0  0  0
   -9.7017   -4.7288  -23.8146 C   0  0  0  0  0  0  0  0  0  0  0  0
  -11.0964   -4.4480  -23.3648 C   0  0  0  0  0  0  0  0  0  0  0  0
  -12.0828   -4.7331  -24.0397 O   0  0  0  0  0  0  0  0  0  0  0  0
  -10.2937   -6.3899  -25.0284 H   0  0  0  0  0  0  0  0  0  0  0  0
   -8.0271   -6.7164  -26.0137 H   0  0  0  0  0  0  0  0  0  0  0  0
   -6.5357   -3.5535  -23.5234 H   0  0  0  0  0  0  0  0  0  0  0  0
   -9.7940   -4.0412  -20.6951 H   0  0  0  0  0  0  0  0  0  0  0  0
  -10.4364   -2.3961  -20.8705 H   0  0  0  0  0  0  0  0  0  0  0  0
  -12.4973   -3.9806  -20.4815 H   0  0  0  0  0  0  0  0  0  0  0  0
  -13.0611   -4.7491  -21.9781 H   0  0  0  0  0  0  0  0  0  0  0  0
  -13.4120   -3.2623  -23.8385 H   0  0  0  0  0  0  0  0  0  0  0  0
  -13.6510   -0.4683  -23.5976 H   0  0  0  0  0  0  0  0  0  0  0  0
  -15.2226   -1.0872  -23.0129 H   0  0  0  0  0  0  0  0  0  0  0  0
  -14.6859   -1.4277  -24.6792 H   0  0  0  0  0  0  0  0  0  0  0  0
  1  2  1  0
  2  3  1  0
  3  4  2  0
  3  5  1  0
  5  6  1  0
  6  7  1  0
  8  7  1  1
  8  9  1  0
  9 10  2  0
  9 11  1  0
 11 12  1  0
 12 13  2  0
 13 14  1  0
 14 15  2  0
 15 16  1  0
 16 17  2  0
 17 18  1  0
 18 19  2  0
 19 20  1  0
 20 21  2  0
 20 22  1  0
 19 23  1  0
 18 24  1  0
 17 25  1  0
 15 26  1  0
 13 27  1  0
 11 28  1  0
 28 29  1  0
 29 30  1  0
 30 31  1  0
 31 32  1  0
 32 33  2  0
 33 34  1  0
 34 35  2  0
 35 36  1  0
 36 37  2  0
 37 38  1  0
 36 39  1  0
 35 40  1  0
 34 41  1  0
 33 42  1  0
 31 43  1  0
 30 44  1  0
 30 45  1  0
 29 46  1  6
 28 47  1  0
 28 48  1  0
  8 49  1  0
 49 50  2  0
 50 51  1  0
 51 52  1  0
 51 53  2  0
 53 54  1  0
 54 55  2  0
 55 56  1  0
 56 57  2  0
 54 58  1  0
 53 59  1  0
 50 60  1  0
  7 61  1  0
  7 62  1  0
  5 63  1  0
  5 64  1  0
  2 65  1  0
  1 66  1  0
  1 67  1  0
  1 68  1  0
 56  6  1  0
 29  8  1  0
 37 32  1  0
 55 49  1  0
 21 12  1  0
 21 16  1  0
M  END
>  <cnnaffinities>  (23) 
[6.71146, 6.98529]

>  <score>  (23) 
6.71146

>  <index>  (23) 
23

>  <Smiles>  (23) 
C(N(C(=O)C(N1C([C@@]2(C(=O)N(c3c(nc(c4c(c(c(c(c34)[H])[H])[H])[H])[H])[H])C([C@@]2(C(N(c2c(c(c(c(c2[H])[H])[H])[H])[H])[H])([H])[H])[H])([H])[H])c2c(c(Cl)c(c(c2C1=O)[H])[H])[H])([H])[H])([H])[H])[H])([H])([H])[H]

>  <h>  (23) 
<NA>

>  <Training>  (23) 
True

>  <Success>  (23) 
True

>  <enamine_searched>  (23) 
False

>  <enamine_id>  (23) 
nan

$$$$

     RDKit          3D

 65 70  0  0  0  0  0  0  0  0999 V2000
   -4.9627   -7.3257  -23.7356 O   0  0  0  0  0  0  0  0  0  0  0  0
   -6.0413   -7.2719  -24.3074 C   0  0  0  0  0  0  0  0  0  0  0  0
   -7.2434   -6.6057  -23.6550 C   0  0  0  0  0  0  0  0  0  0  0  0
   -7.1205   -5.1186  -23.8192 N   0  0  1  0  0  4  0  0  0  0  0  0
   -7.2977   -4.7306  -25.3117 C   0  0  0  0  0  0  0  0  0  0  0  0
   -7.2352   -3.2481  -25.5234 C   0  0  0  0  0  0  0  0  0  0  0  0
   -6.8740   -2.7581  -26.7759 C   0  0  0  0  0  0  0  0  0  0  0  0
   -6.8106   -1.3983  -27.0373 C   0  0  0  0  0  0  0  0  0  0  0  0
   -7.1163   -0.5125  -26.0097 C   0  0  0  0  0  0  0  0  0  0  0  0
   -7.0285    1.2031  -26.3035 Cl  0  0  0  0  0  0  0  0  0  0  0  0
   -7.4876   -0.9740  -24.7562 C   0  0  0  0  0  0  0  0  0  0  0  0
   -7.5584   -2.3506  -24.5056 C   0  0  0  0  0  0  0  0  0  0  0  0
   -7.9420   -2.8215  -23.1148 C   0  0  2  0  0  0  0  0  0  0  0  0
   -9.1884   -2.1106  -22.5603 C   0  0  0  0  0  0  0  0  0  0  0  0
   -8.7243   -1.1582  -21.4512 C   0  0  0  0  0  0  0  0  0  0  0  0
   -7.3199   -1.4892  -21.2421 N   0  0  0  0  0  0  0  0  0  0  0  0
   -6.5534   -0.8893  -20.1999 C   0  0  0  0  0  0  0  0  0  0  0  0
   -6.8962   -1.0641  -18.8794 C   0  0  0  0  0  0  0  0  0  0  0  0
   -6.2203   -0.5373  -17.8256 N   0  0  0  0  0  0  0  0  0  0  0  0
   -5.1782    0.2125  -18.0897 C   0  0  0  0  0  0  0  0  0  0  0  0
   -4.7341    0.5188  -19.4052 C   0  0  0  0  0  0  0  0  0  0  0  0
   -3.6129    1.3612  -19.6351 C   0  0  0  0  0  0  0  0  0  0  0  0
   -3.2258    1.6668  -20.9090 C   0  0  0  0  0  0  0  0  0  0  0  0
   -3.9501    1.1543  -22.0095 C   0  0  0  0  0  0  0  0  0  0  0  0
   -5.0342    0.3358  -21.8172 C   0  0  0  0  0  0  0  0  0  0  0  0
   -5.4458   -0.0264  -20.5030 C   0  0  0  0  0  0  0  0  0  0  0  0
   -5.5848   -0.0412  -22.6780 H   0  0  0  0  0  0  0  0  0  0  0  0
   -3.6410    1.4089  -23.0184 H   0  0  0  0  0  0  0  0  0  0  0  0
   -2.3700    2.3131  -21.0854 H   0  0  0  0  0  0  0  0  0  0  0  0
   -3.0849    1.7616  -18.7718 H   0  0  0  0  0  0  0  0  0  0  0  0
   -4.6292    0.6162  -17.2370 H   0  0  0  0  0  0  0  0  0  0  0  0
   -7.7507   -1.6802  -18.6011 H   0  0  0  0  0  0  0  0  0  0  0  0
   -6.8352   -2.4396  -22.1205 C   0  0  0  0  0  0  0  0  0  0  0  0
   -5.7318   -2.9538  -22.1287 O   0  0  0  0  0  0  0  0  0  0  0  0
   -8.8653   -0.0942  -21.6983 H   0  0  0  0  0  0  0  0  0  0  0  0
   -9.2914   -1.3671  -20.5500 H   0  0  0  0  0  0  0  0  0  0  0  0
   -9.7600   -1.6022  -23.3410 H   0  0  0  0  0  0  0  0  0  0  0  0
   -9.8551   -2.8599  -22.1236 H   0  0  0  0  0  0  0  0  0  0  0  0
   -8.1485   -4.3452  -23.0304 C   0  0  0  0  0  0  0  0  0  0  0  0
   -9.1396   -4.5920  -23.4218 H   0  0  0  0  0  0  0  0  0  0  0  0
   -8.1069   -4.6350  -21.9788 H   0  0  0  0  0  0  0  0  0  0  0  0
   -7.7188   -0.2485  -23.9774 H   0  0  0  0  0  0  0  0  0  0  0  0
   -6.5240   -1.0174  -28.0128 H   0  0  0  0  0  0  0  0  0  0  0  0
   -6.6290   -3.4597  -27.5687 H   0  0  0  0  0  0  0  0  0  0  0  0
   -8.2590   -5.1390  -25.6429 H   0  0  0  0  0  0  0  0  0  0  0  0
   -6.5239   -5.2154  -25.9001 H   0  0  0  0  0  0  0  0  0  0  0  0
   -6.1724   -4.8069  -23.4968 H   0  0  0  0  0  0  0  0  0  0  0  0
   -7.2355   -6.8701  -22.5981 H   0  0  0  0  0  0  0  0  0  0  0  0
   -8.1913   -6.9505  -24.0931 H   0  0  0  0  0  0  0  0  0  0  0  0
   -6.2353   -7.7392  -25.5730 N   0  0  0  0  0  0  0  0  0  0  0  0
   -5.1428   -8.4091  -26.2580 C   0  0  0  0  0  0  0  0  0  0  0  0
   -4.1769   -7.3741  -26.8068 C   0  0  1  0  0  0  0  0  0  0  0  0
   -3.0934   -7.9009  -27.7849 C   0  0  0  0  0  0  0  0  0  0  0  0
   -3.7160   -7.0551  -28.9195 C   0  0  1  0  0  0  0  0  0  0  0  0
   -4.2383   -7.8180  -29.9553 F   0  0  0  0  0  0  0  0  0  0  0  0
   -4.7871   -6.5149  -27.9515 C   0  0  0  0  0  0  0  0  0  0  0  0
   -5.8041   -6.8100  -28.2465 H   0  0  0  0  0  0  0  0  0  0  0  0
   -4.8067   -5.4317  -27.7752 H   0  0  0  0  0  0  0  0  0  0  0  0
   -3.0666   -6.3057  -29.3844 H   0  0  0  0  0  0  0  0  0  0  0  0
   -2.0659   -7.6418  -27.5039 H   0  0  0  0  0  0  0  0  0  0  0  0
   -3.1152   -8.9817  -27.9784 H   0  0  0  0  0  0  0  0  0  0  0  0
   -3.7899   -6.8058  -25.9496 H   0  0  0  0  0  0  0  0  0  0  0  0
   -5.5638   -8.9973  -27.0833 H   0  0  0  0  0  0  0  0  0  0  0  0
   -4.6191   -9.0737  -25.5564 H   0  0  0  0  0  0  0  0  0  0  0  0
   -7.1829   -7.9020  -25.8826 H   0  0  0  0  0  0  0  0  0  0  0  0
  1  2  2  0
  2  3  1  0
  3  4  1  0
  4  5  1  0
  5  6  1  0
  6  7  2  0
  7  8  1  0
  8  9  2  0
  9 10  1  0
  9 11  1  0
 11 12  2  0
 12 13  1  0
 13 14  1  1
 14 15  1  0
 15 16  1  0
 16 17  1  0
 17 18  2  0
 18 19  1  0
 19 20  2  0
 20 21  1  0
 21 22  2  0
 22 23  1  0
 23 24  2  0
 24 25  1  0
 25 26  2  0
 25 27  1  0
 24 28  1  0
 23 29  1  0
 22 30  1  0
 20 31  1  0
 18 32  1  0
 16 33  1  0
 33 34  2  0
 15 35  1  0
 15 36  1  0
 14 37  1  0
 14 38  1  0
 13 39  1  0
 39 40  1  0
 39 41  1  0
 11 42  1  0
  8 43  1  0
  7 44  1  0
  5 45  1  0
  5 46  1  0
  4 47  1  1
  3 48  1  0
  3 49  1  0
  2 50  1  0
 50 51  1  0
 51 52  1  0
 52 53  1  0
 53 54  1  0
 54 55  1  0
 54 56  1  0
 56 57  1  0
 56 58  1  0
 54 59  1  6
 53 60  1  0
 53 61  1  0
 52 62  1  1
 51 63  1  0
 51 64  1  0
 50 65  1  0
 39  4  1  0
 56 52  1  0
 12  6  1  0
 33 13  1  0
 26 17  1  0
 26 21  1  0
M  CHG  1   4   1
M  END
>  <cnnaffinities>  (24) 
[5.85192, 6.21815, 6.03396, 6.02639]

>  <score>  (24) 
5.85192

>  <index>  (24) 
24

>  <Smiles>  (24) 
O=C(C([N@+]1(C(c2c(c(c(Cl)c(c2[C@@]2(C(C(N(c3c(nc(c4c(c(c(c(c34)[H])[H])[H])[H])[H])[H])C2=O)([H])[H])([H])[H])C1([H])[H])[H])[H])[H])([H])[H])[H])([H])[H])N(C([C@]1(C([C@@](F)(C1([H])[H])[H])([H])[H])[H])([H])[H])[H]

>  <h>  (24) 
<NA>

>  <Training>  (24) 
True

>  <Success>  (24) 
True

>  <enamine_searched>  (24) 
False

>  <enamine_id>  (24) 
nan

$$$$

     RDKit          3D

 70 75  0  0  0  0  0  0  0  0999 V2000
   -7.7519   -6.3222  -24.3125 O   0  0  0  0  0  0  0  0  0  0  0  0
   -7.7689   -5.9274  -23.1592 C   0  0  0  0  0  0  0  0  0  0  0  0
   -8.9033   -5.0608  -22.6293 C   0  0  0  0  0  0  0  0  0  0  0  0
   -8.6427   -3.6433  -22.9671 N   0  0  1  0  0  4  0  0  0  0  0  0
   -8.3715   -3.4734  -24.4609 C   0  0  0  0  0  0  0  0  0  0  0  0
   -8.0876   -2.0437  -24.8024 C   0  0  0  0  0  0  0  0  0  0  0  0
   -7.2995   -1.7350  -25.9117 C   0  0  0  0  0  0  0  0  0  0  0  0
   -7.0039   -0.4185  -26.2335 C   0  0  0  0  0  0  0  0  0  0  0  0
   -7.4998    0.5978  -25.4236 C   0  0  0  0  0  0  0  0  0  0  0  0
   -7.1356    2.2553  -25.8160 Cl  0  0  0  0  0  0  0  0  0  0  0  0
   -8.2832    0.3093  -24.3151 C   0  0  0  0  0  0  0  0  0  0  0  0
   -8.5966   -1.0188  -24.0088 C   0  0  0  0  0  0  0  0  0  0  0  0
   -9.4111   -1.2924  -22.7616 C   0  0  2  0  0  0  0  0  0  0  0  0
   -8.6740   -0.8102  -21.5169 C   0  0  0  0  0  0  0  0  0  0  0  0
   -9.1503    0.0179  -20.7653 O   0  0  0  0  0  0  0  0  0  0  0  0
   -7.4492   -1.4151  -21.2656 N   0  0  0  0  0  0  0  0  0  0  0  0
   -6.6328   -0.8957  -20.2254 C   0  0  0  0  0  0  0  0  0  0  0  0
   -6.9676   -1.1148  -18.9162 C   0  0  0  0  0  0  0  0  0  0  0  0
   -6.2790   -0.6201  -17.8559 N   0  0  0  0  0  0  0  0  0  0  0  0
   -5.2376    0.1350  -18.1124 C   0  0  0  0  0  0  0  0  0  0  0  0
   -4.7840    0.4508  -19.4232 C   0  0  0  0  0  0  0  0  0  0  0  0
   -3.6674    1.2975  -19.6430 C   0  0  0  0  0  0  0  0  0  0  0  0
   -3.2787    1.6120  -20.9162 C   0  0  0  0  0  0  0  0  0  0  0  0
   -3.9878    1.0901  -22.0264 C   0  0  0  0  0  0  0  0  0  0  0  0
   -5.0679    0.2631  -21.8384 C   0  0  0  0  0  0  0  0  0  0  0  0
   -5.4919   -0.0791  -20.5253 C   0  0  0  0  0  0  0  0  0  0  0  0
   -5.6212   -0.1085  -22.6986 H   0  0  0  0  0  0  0  0  0  0  0  0
   -3.6808    1.3614  -23.0345 H   0  0  0  0  0  0  0  0  0  0  0  0
   -2.4337    2.2757  -21.0853 H   0  0  0  0  0  0  0  0  0  0  0  0
   -3.1564    1.7037  -18.7730 H   0  0  0  0  0  0  0  0  0  0  0  0
   -4.6982    0.5534  -17.2617 H   0  0  0  0  0  0  0  0  0  0  0  0
   -7.8329   -1.7298  -18.6725 H   0  0  0  0  0  0  0  0  0  0  0  0
   -6.9605   -1.8258  -22.0462 H   0  0  0  0  0  0  0  0  0  0  0  0
   -9.7903   -2.7638  -22.5714 C   0  0  0  0  0  0  0  0  0  0  0  0
  -10.0518   -2.9433  -21.5244 H   0  0  0  0  0  0  0  0  0  0  0  0
  -10.6531   -3.0413  -23.1886 H   0  0  0  0  0  0  0  0  0  0  0  0
  -10.3245   -0.6950  -22.7747 H   0  0  0  0  0  0  0  0  0  0  0  0
   -8.6643    1.1097  -23.6874 H   0  0  0  0  0  0  0  0  0  0  0  0
   -6.3972   -0.1756  -27.0990 H   0  0  0  0  0  0  0  0  0  0  0  0
   -6.9167   -2.5457  -26.5285 H   0  0  0  0  0  0  0  0  0  0  0  0
   -9.2521   -3.8475  -24.9933 H   0  0  0  0  0  0  0  0  0  0  0  0
   -7.5433   -4.1170  -24.7343 H   0  0  0  0  0  0  0  0  0  0  0  0
   -7.8031   -3.3961  -22.4107 H   0  0  0  0  0  0  0  0  0  0  0  0
   -9.8342   -5.3806  -23.1054 H   0  0  0  0  0  0  0  0  0  0  0  0
   -8.9985   -5.1505  -21.5442 H   0  0  0  0  0  0  0  0  0  0  0  0
   -6.7647   -6.1538  -22.2653 N   0  0  0  0  0  0  0  0  0  0  0  0
   -5.5707   -6.8331  -22.5574 C   0  0  0  0  0  0  0  0  0  0  0  0
   -4.8500   -7.3559  -21.4907 C   0  0  0  0  0  0  0  0  0  0  0  0
   -3.6787   -8.0340  -21.7431 C   0  0  0  0  0  0  0  0  0  0  0  0
   -3.1771   -8.1626  -23.0313 C   0  0  0  0  0  0  0  0  0  0  0  0
   -1.9575   -8.8480  -23.2277 N   0  0  0  0  0  0  0  0  0  0  0  0
   -0.9637   -8.8287  -22.1575 C   0  0  0  0  0  0  0  0  0  0  0  0
    0.3908   -9.1813  -22.7372 C   0  0  0  0  0  0  0  0  0  0  0  0
    0.3187  -10.4532  -23.3372 O   0  0  0  0  0  0  0  0  0  0  0  0
   -0.5494  -10.4649  -24.4440 C   0  0  0  0  0  0  0  0  0  0  0  0
   -1.8794   -9.7417  -24.2655 C   0  0  0  0  0  0  0  0  0  0  0  0
   -2.7968   -9.9495  -25.0403 O   0  0  0  0  0  0  0  0  0  0  0  0
   -0.7783  -11.5120  -24.6481 H   0  0  0  0  0  0  0  0  0  0  0  0
   -0.0706  -10.0321  -25.3363 H   0  0  0  0  0  0  0  0  0  0  0  0
    1.1555   -9.2122  -21.9549 H   0  0  0  0  0  0  0  0  0  0  0  0
    0.6850   -8.4197  -23.4711 H   0  0  0  0  0  0  0  0  0  0  0  0
   -0.9396   -7.8213  -21.7352 H   0  0  0  0  0  0  0  0  0  0  0  0
   -1.2307   -9.5433  -21.3629 H   0  0  0  0  0  0  0  0  0  0  0  0
   -3.8849   -7.6125  -24.0966 C   0  0  0  0  0  0  0  0  0  0  0  0
   -5.0877   -6.9718  -23.8619 C   0  0  0  0  0  0  0  0  0  0  0  0
   -5.6687   -6.5964  -24.6926 H   0  0  0  0  0  0  0  0  0  0  0  0
   -3.5223   -7.7138  -25.1142 H   0  0  0  0  0  0  0  0  0  0  0  0
   -3.1589   -8.5186  -20.9218 H   0  0  0  0  0  0  0  0  0  0  0  0
   -5.1934   -7.2201  -20.4688 H   0  0  0  0  0  0  0  0  0  0  0  0
   -6.8572   -5.7932  -21.3258 H   0  0  0  0  0  0  0  0  0  0  0  0
  1  2  2  0
  2  3  1  0
  3  4  1  0
  4  5  1  0
  5  6  1  0
  6  7  2  0
  7  8  1  0
  8  9  2  0
  9 10  1  0
  9 11  1  0
 11 12  2  0
 12 13  1  0
 13 14  1  0
 14 15  2  0
 14 16  1  0
 16 17  1  0
 17 18  2  0
 18 19  1  0
 19 20  2  0
 20 21  1  0
 21 22  2  0
 22 23  1  0
 23 24  2  0
 24 25  1  0
 25 26  2  0
 25 27  1  0
 24 28  1  0
 23 29  1  0
 22 30  1  0
 20 31  1  0
 18 32  1  0
 16 33  1  0
 13 34  1  0
 34 35  1  0
 34 36  1  0
 13 37  1  6
 11 38  1  0
  8 39  1  0
  7 40  1  0
  5 41  1  0
  5 42  1  0
  4 43  1  1
  3 44  1  0
  3 45  1  0
  2 46  1  0
 46 47  1  0
 47 48  2  0
 48 49  1  0
 49 50  2  0
 50 51  1  0
 51 52  1  0
 52 53  1  0
 53 54  1  0
 54 55  1  0
 55 56  1  0
 56 57  2  0
 55 58  1  0
 55 59  1  0
 53 60  1  0
 53 61  1  0
 52 62  1  0
 52 63  1  0
 50 64  1  0
 64 65  2  0
 65 66  1  0
 64 67  1  0
 49 68  1  0
 48 69  1  0
 46 70  1  0
 34  4  1  0
 65 47  1  0
 12  6  1  0
 26 17  1  0
 56 51  1  0
 26 21  1  0
M  CHG  1   4   1
M  END
>  <cnnaffinities>  (25) 
[6.36186, 5.82662]

>  <score>  (25) 
6.36186

>  <index>  (25) 
25

>  <Smiles>  (25) 
O=C(C([N@+]1(C(c2c(c(c(Cl)c(c2[C@](C(=O)N(c2c(nc(c3c(c(c(c(c23)[H])[H])[H])[H])[H])[H])[H])(C1([H])[H])[H])[H])[H])[H])([H])[H])[H])([H])[H])N(c1c(c(c(N2C(C(OC(C2=O)([H])[H])([H])[H])([H])[H])c(c1[H])[H])[H])[H])[H]

>  <h>  (25) 
<NA>

>  <Training>  (25) 
True

>  <Success>  (25) 
True

>  <enamine_searched>  (25) 
False

>  <enamine_id>  (25) 
nan

$$$$

     RDKit          3D

 55 60  0  0  0  0  0  0  0  0999 V2000
  -10.4399   -1.0808  -23.2884 C   0  0  0  0  0  0  0  0  0  0  0  0
   -8.9989   -1.4379  -22.9376 C   0  0  1  0  0  0  0  0  0  0  0  0
   -8.3668   -0.5043  -21.8929 C   0  0  0  0  0  0  0  0  0  0  0  0
   -7.3749   -1.3540  -21.2486 N   0  0  0  0  0  0  0  0  0  0  0  0
   -6.5743   -0.8715  -20.1893 C   0  0  0  0  0  0  0  0  0  0  0  0
   -6.8963   -1.1267  -18.8816 C   0  0  0  0  0  0  0  0  0  0  0  0
   -6.2449   -0.5853  -17.8215 N   0  0  0  0  0  0  0  0  0  0  0  0
   -5.2301    0.2065  -18.0776 C   0  0  0  0  0  0  0  0  0  0  0  0
   -4.7669    0.5156  -19.3889 C   0  0  0  0  0  0  0  0  0  0  0  0
   -3.6403    1.3453  -19.6226 C   0  0  0  0  0  0  0  0  0  0  0  0
   -3.2333    1.6091  -20.9022 C   0  0  0  0  0  0  0  0  0  0  0  0
   -3.9283    1.0623  -22.0059 C   0  0  0  0  0  0  0  0  0  0  0  0
   -5.0205    0.2559  -21.8064 C   0  0  0  0  0  0  0  0  0  0  0  0
   -5.4613   -0.0312  -20.4875 C   0  0  0  0  0  0  0  0  0  0  0  0
   -5.5504   -0.1812  -22.6482 H   0  0  0  0  0  0  0  0  0  0  0  0
   -3.5993    1.2857  -23.0171 H   0  0  0  0  0  0  0  0  0  0  0  0
   -2.3741    2.2484  -21.0822 H   0  0  0  0  0  0  0  0  0  0  0  0
   -3.1208    1.7661  -18.7660 H   0  0  0  0  0  0  0  0  0  0  0  0
   -4.7099    0.6400  -17.2232 H   0  0  0  0  0  0  0  0  0  0  0  0
   -7.7301   -1.7840  -18.6408 H   0  0  0  0  0  0  0  0  0  0  0  0
   -7.6332   -2.7019  -21.3926 C   0  0  0  0  0  0  0  0  0  0  0  0
   -6.9981   -3.5846  -20.8501 O   0  0  0  0  0  0  0  0  0  0  0  0
   -8.8214   -2.8813  -22.3410 C   0  0  1  0  0  0  0  0  0  0  0  0
  -10.0344   -3.3071  -21.4765 C   0  0  0  0  0  0  0  0  0  0  0  0
  -11.1544   -3.7981  -22.2545 N   0  0  0  0  0  0  0  0  0  0  0  0
  -12.5234   -3.7862  -21.7552 C   0  0  0  0  0  0  0  0  0  0  0  0
  -13.3807   -2.6960  -22.3229 C   0  0  0  0  0  0  0  0  0  0  0  0
  -14.0671   -2.6621  -23.5486 C   0  0  0  0  0  0  0  0  0  0  0  0
  -14.7732   -1.5399  -23.6222 N   0  0  0  0  0  0  0  0  0  0  0  0
  -14.4963   -0.9518  -22.4798 N   0  0  0  0  0  0  0  0  0  0  0  0
  -13.6739   -1.5838  -21.6617 N   0  0  0  0  0  0  0  0  0  0  0  0
  -14.9524   -0.0928  -22.2011 H   0  0  0  0  0  0  0  0  0  0  0  0
  -14.0801   -3.4023  -24.3335 H   0  0  0  0  0  0  0  0  0  0  0  0
  -12.5281   -3.7803  -20.6645 H   0  0  0  0  0  0  0  0  0  0  0  0
  -12.9710   -4.7131  -22.1125 H   0  0  0  0  0  0  0  0  0  0  0  0
  -10.9935   -4.4771  -23.4235 C   0  0  0  0  0  0  0  0  0  0  0  0
  -11.9767   -4.8522  -24.0519 O   0  0  0  0  0  0  0  0  0  0  0  0
   -9.5954   -4.7232  -23.8739 C   0  0  0  0  0  0  0  0  0  0  0  0
   -9.3613   -5.7039  -24.8362 C   0  0  0  0  0  0  0  0  0  0  0  0
   -8.0955   -5.8879  -25.3612 C   0  0  0  0  0  0  0  0  0  0  0  0
   -7.0744   -5.0469  -24.9280 C   0  0  0  0  0  0  0  0  0  0  0  0
   -5.8442   -5.2018  -25.4448 F   0  0  0  0  0  0  0  0  0  0  0  0
   -7.2736   -4.0934  -23.9469 C   0  0  0  0  0  0  0  0  0  0  0  0
   -8.5491   -3.9345  -23.3904 C   0  0  0  0  0  0  0  0  0  0  0  0
   -6.4291   -3.5210  -23.5807 H   0  0  0  0  0  0  0  0  0  0  0  0
   -7.8899   -6.6700  -26.0847 H   0  0  0  0  0  0  0  0  0  0  0  0
  -10.1984   -6.3221  -25.1480 H   0  0  0  0  0  0  0  0  0  0  0  0
  -10.3416   -2.4232  -20.9073 H   0  0  0  0  0  0  0  0  0  0  0  0
   -9.7149   -4.0782  -20.7733 H   0  0  0  0  0  0  0  0  0  0  0  0
   -9.1149   -0.1380  -21.1696 H   0  0  0  0  0  0  0  0  0  0  0  0
   -7.9039    0.3840  -22.3352 H   0  0  0  0  0  0  0  0  0  0  0  0
   -8.3824   -1.4028  -23.8478 H   0  0  0  0  0  0  0  0  0  0  0  0
  -10.5211   -0.1240  -23.8110 H   0  0  0  0  0  0  0  0  0  0  0  0
  -10.8775   -1.8624  -23.9183 H   0  0  0  0  0  0  0  0  0  0  0  0
  -11.0480   -1.0196  -22.3803 H   0  0  0  0  0  0  0  0  0  0  0  0
  1  2  1  0
  2  3  1  0
  3  4  1  0
  4  5  1  0
  5  6  2  0
  6  7  1  0
  7  8  2  0
  8  9  1  0
  9 10  2  0
 10 11  1  0
 11 12  2  0
 12 13  1  0
 13 14  2  0
 13 15  1  0
 12 16  1  0
 11 17  1  0
 10 18  1  0
  8 19  1  0
  6 20  1  0
  4 21  1  0
 21 22  2  0
 21 23  1  0
 23 24  1  1
 24 25  1  0
 25 26  1  0
 26 27  1  0
 27 28  1  0
 28 29  2  0
 29 30  1  0
 30 31  1  0
 30 32  1  0
 28 33  1  0
 26 34  1  0
 26 35  1  0
 25 36  1  0
 36 37  2  0
 36 38  1  0
 38 39  2  0
 39 40  1  0
 40 41  2  0
 41 42  1  0
 41 43  1  0
 43 44  2  0
 43 45  1  0
 40 46  1  0
 39 47  1  0
 24 48  1  0
 24 49  1  0
  3 50  1  0
  3 51  1  0
  2 52  1  6
  1 53  1  0
  1 54  1  0
  1 55  1  0
 23  2  1  0
 31 27  2  0
 44 38  1  0
 14  5  1  0
 44 23  1  0
 14  9  1  0
M  END
>  <cnnaffinities>  (26) 
[6.62468]

>  <score>  (26) 
6.62468

>  <index>  (26) 
26

>  <Smiles>  (26) 
C([C@]1(C(N(c2c(nc(c3c(c(c(c(c23)[H])[H])[H])[H])[H])[H])C(=O)[C@]21C(N(C(c1c(nn(n1)[H])[H])([H])[H])C(=O)c1c(c(c(F)c(c21)[H])[H])[H])([H])[H])([H])[H])[H])([H])([H])[H]

>  <h>  (26) 
<NA>

>  <Training>  (26) 
True

>  <Success>  (26) 
True

>  <enamine_searched>  (26) 
False

>  <enamine_id>  (26) 
nan

$$$$

     RDKit          3D

 58 62  0  0  0  0  0  0  0  0999 V2000
  -15.0448   -3.3798  -23.3683 C   0  0  0  0  0  0  0  0  0  0  0  0
  -13.7832   -2.6437  -23.1691 N   0  0  0  0  0  4  0  0  0  0  0  0
  -13.3123   -2.6618  -21.7568 C   0  0  0  0  0  0  0  0  0  0  0  0
  -12.4534   -3.8906  -21.4927 C   0  0  0  0  0  0  0  0  0  0  0  0
  -11.1563   -3.8104  -22.1685 N   0  0  0  0  0  0  0  0  0  0  0  0
  -10.0190   -3.2203  -21.4758 C   0  0  0  0  0  0  0  0  0  0  0  0
   -8.8139   -2.8266  -22.3702 C   0  0  2  0  0  0  0  0  0  0  0  0
   -7.6273   -2.6655  -21.4087 C   0  0  0  0  0  0  0  0  0  0  0  0
   -6.9976   -3.5460  -20.8587 O   0  0  0  0  0  0  0  0  0  0  0  0
   -7.3811   -1.3218  -21.2379 N   0  0  0  0  0  0  0  0  0  0  0  0
   -6.5730   -0.8627  -20.1749 C   0  0  0  0  0  0  0  0  0  0  0  0
   -6.8870   -1.1408  -18.8721 C   0  0  0  0  0  0  0  0  0  0  0  0
   -6.2387   -0.5977  -17.8093 N   0  0  0  0  0  0  0  0  0  0  0  0
   -5.2350    0.2108  -18.0575 C   0  0  0  0  0  0  0  0  0  0  0  0
   -4.7681    0.5338  -19.3670 C   0  0  0  0  0  0  0  0  0  0  0  0
   -3.6475    1.3748  -19.6108 C   0  0  0  0  0  0  0  0  0  0  0  0
   -3.2396    1.6317  -20.8916 C   0  0  0  0  0  0  0  0  0  0  0  0
   -3.9245    1.0657  -21.9933 C   0  0  0  0  0  0  0  0  0  0  0  0
   -5.0084    0.2513  -21.7827 C   0  0  0  0  0  0  0  0  0  0  0  0
   -5.4574   -0.0226  -20.4663 C   0  0  0  0  0  0  0  0  0  0  0  0
   -5.5338   -0.2065  -22.6147 H   0  0  0  0  0  0  0  0  0  0  0  0
   -3.5905    1.2748  -23.0062 H   0  0  0  0  0  0  0  0  0  0  0  0
   -2.3778    2.2687  -21.0774 H   0  0  0  0  0  0  0  0  0  0  0  0
   -3.1209    1.7999  -18.7578 H   0  0  0  0  0  0  0  0  0  0  0  0
   -4.7287    0.6455  -17.1929 H   0  0  0  0  0  0  0  0  0  0  0  0
   -7.7050   -1.8200  -18.6356 H   0  0  0  0  0  0  0  0  0  0  0  0
   -8.3665   -0.4680  -21.8826 C   0  0  0  0  0  0  0  0  0  0  0  0
   -8.9522   -1.3831  -22.9652 C   0  0  2  0  0  0  0  0  0  0  0  0
  -10.3365   -0.9658  -23.4551 C   0  0  0  0  0  0  0  0  0  0  0  0
  -11.0595   -0.9009  -22.6339 H   0  0  0  0  0  0  0  0  0  0  0  0
  -10.7228   -1.6786  -24.1930 H   0  0  0  0  0  0  0  0  0  0  0  0
  -10.3016    0.0246  -23.9194 H   0  0  0  0  0  0  0  0  0  0  0  0
   -8.2606   -1.3652  -23.8155 H   0  0  0  0  0  0  0  0  0  0  0  0
   -7.8932    0.4281  -22.2923 H   0  0  0  0  0  0  0  0  0  0  0  0
   -9.1280   -0.1332  -21.1597 H   0  0  0  0  0  0  0  0  0  0  0  0
   -8.5777   -3.8968  -23.4108 C   0  0  0  0  0  0  0  0  0  0  0  0
   -7.3089   -4.1706  -23.9451 C   0  0  0  0  0  0  0  0  0  0  0  0
   -7.1801   -5.1785  -24.8820 C   0  0  0  0  0  0  0  0  0  0  0  0
   -5.9680   -5.4390  -25.3990 F   0  0  0  0  0  0  0  0  0  0  0  0
   -8.2567   -5.9374  -25.3251 C   0  0  0  0  0  0  0  0  0  0  0  0
   -9.5099   -5.6245  -24.8373 C   0  0  0  0  0  0  0  0  0  0  0  0
   -9.6783   -4.6090  -23.9023 C   0  0  0  0  0  0  0  0  0  0  0  0
  -11.0596   -4.2979  -23.4253 C   0  0  0  0  0  0  0  0  0  0  0  0
  -12.0632   -4.4649  -24.1241 O   0  0  0  0  0  0  0  0  0  0  0  0
  -10.3841   -6.1798  -25.1520 H   0  0  0  0  0  0  0  0  0  0  0  0
   -8.1086   -6.7549  -26.0234 H   0  0  0  0  0  0  0  0  0  0  0  0
   -6.4164   -3.6379  -23.6295 H   0  0  0  0  0  0  0  0  0  0  0  0
  -10.3396   -2.3221  -20.9360 H   0  0  0  0  0  0  0  0  0  0  0  0
   -9.6564   -3.9227  -20.7306 H   0  0  0  0  0  0  0  0  0  0  0  0
  -13.0213   -4.7331  -21.8921 H   0  0  0  0  0  0  0  0  0  0  0  0
  -12.3192   -4.0769  -20.4253 H   0  0  0  0  0  0  0  0  0  0  0  0
  -12.7181   -1.7618  -21.5788 H   0  0  0  0  0  0  0  0  0  0  0  0
  -14.1728   -2.6666  -21.0806 H   0  0  0  0  0  0  0  0  0  0  0  0
  -13.9083   -1.6563  -23.4506 H   0  0  0  0  0  0  0  0  0  0  0  0
  -13.0705   -3.1012  -23.7739 H   0  0  0  0  0  0  0  0  0  0  0  0
  -15.4690   -3.1784  -24.3497 H   0  0  0  0  0  0  0  0  0  0  0  0
  -15.7645   -3.0796  -22.6129 H   0  0  0  0  0  0  0  0  0  0  0  0
  -14.8999   -4.4585  -23.2742 H   0  0  0  0  0  0  0  0  0  0  0  0
  1  2  1  0
  2  3  1  0
  3  4  1  0
  4  5  1  0
  5  6  1  0
  7  6  1  1
  7  8  1  0
  8  9  2  0
  8 10  1  0
 10 11  1  0
 11 12  2  0
 12 13  1  0
 13 14  2  0
 14 15  1  0
 15 16  2  0
 16 17  1  0
 17 18  2  0
 18 19  1  0
 19 20  2  0
 19 21  1  0
 18 22  1  0
 17 23  1  0
 16 24  1  0
 14 25  1  0
 12 26  1  0
 10 27  1  0
 27 28  1  0
 28 29  1  0
 29 30  1  0
 29 31  1  0
 29 32  1  0
 28 33  1  6
 27 34  1  0
 27 35  1  0
  7 36  1  0
 36 37  2  0
 37 38  1  0
 38 39  1  0
 38 40  2  0
 40 41  1  0
 41 42  2  0
 42 43  1  0
 43 44  2  0
 41 45  1  0
 40 46  1  0
 37 47  1  0
  6 48  1  0
  6 49  1  0
  4 50  1  0
  4 51  1  0
  3 52  1  0
  3 53  1  0
  2 54  1  0
  2 55  1  0
  1 56  1  0
  1 57  1  0
  1 58  1  0
 43  5  1  0
 28  7  1  0
 42 36  1  0
 20 11  1  0
 20 15  1  0
M  CHG  1   2   1
M  END
>  <cnnaffinities>  (27) 
[6.3446]

>  <score>  (27) 
6.3446

>  <index>  (27) 
27

>  <Smiles>  (27) 
C([N+](C(C(N1C([C@@]2(C(=O)N(c3c(nc(c4c(c(c(c(c34)[H])[H])[H])[H])[H])[H])C([C@@]2(C([H])([H])[H])[H])([H])[H])c2c(c(F)c(c(c2C1=O)[H])[H])[H])([H])[H])([H])[H])([H])[H])([H])[H])([H])([H])[H]

>  <h>  (27) 
<NA>

>  <Training>  (27) 
True

>  <Success>  (27) 
True

>  <enamine_searched>  (27) 
False

>  <enamine_id>  (27) 
nan

$$$$

     RDKit          3D

 64 68  0  0  0  0  0  0  0  0999 V2000
   -7.4825    3.2257  -21.9374 C   0  0  0  0  0  0  0  0  0  0  0  0
   -8.5877    2.6889  -22.7171 N   0  0  0  0  0  0  0  0  0  0  0  0
   -8.2902    1.9181  -23.7987 C   0  0  0  0  0  0  0  0  0  0  0  0
   -7.1316    1.6664  -24.1011 O   0  0  0  0  0  0  0  0  0  0  0  0
   -9.4446    1.3553  -24.6408 C   0  0  0  0  0  0  0  0  0  0  0  0
   -9.9511    0.1327  -24.0462 N   0  0  0  0  0  0  0  0  0  0  0  0
   -9.0976   -1.0475  -23.9910 C   0  0  0  0  0  0  0  0  0  0  0  0
   -9.2621   -1.8056  -22.6453 C   0  0  2  0  0  0  0  0  0  0  0  0
   -8.6898   -0.9189  -21.5025 C   0  0  0  0  0  0  0  0  0  0  0  0
   -9.2150    0.0462  -20.9841 O   0  0  0  0  0  0  0  0  0  0  0  0
   -7.4336   -1.3882  -21.1770 N   0  0  0  0  0  0  0  0  0  0  0  0
   -6.6500   -0.7993  -20.1568 C   0  0  0  0  0  0  0  0  0  0  0  0
   -6.9543   -1.0363  -18.8399 C   0  0  0  0  0  0  0  0  0  0  0  0
   -6.2450   -0.5511  -17.7940 N   0  0  0  0  0  0  0  0  0  0  0  0
   -5.2014    0.1971  -18.0694 C   0  0  0  0  0  0  0  0  0  0  0  0
   -4.7683    0.5137  -19.3881 C   0  0  0  0  0  0  0  0  0  0  0  0
   -3.6447    1.3471  -19.6298 C   0  0  0  0  0  0  0  0  0  0  0  0
   -3.2638    1.6475  -20.9121 C   0  0  0  0  0  0  0  0  0  0  0  0
   -3.9997    1.1403  -22.0065 C   0  0  0  0  0  0  0  0  0  0  0  0
   -5.1030    0.3471  -21.7993 C   0  0  0  0  0  0  0  0  0  0  0  0
   -5.5102    0.0026  -20.4787 C   0  0  0  0  0  0  0  0  0  0  0  0
   -5.6933    0.0175  -22.6509 H   0  0  0  0  0  0  0  0  0  0  0  0
   -3.6989    1.3926  -23.0209 H   0  0  0  0  0  0  0  0  0  0  0  0
   -2.4061    2.2888  -21.0925 H   0  0  0  0  0  0  0  0  0  0  0  0
   -3.1100    1.7485  -18.7745 H   0  0  0  0  0  0  0  0  0  0  0  0
   -4.6396    0.5964  -17.2255 H   0  0  0  0  0  0  0  0  0  0  0  0
   -7.8110   -1.6597  -18.5899 H   0  0  0  0  0  0  0  0  0  0  0  0
   -7.0022   -2.5305  -21.9500 C   0  0  0  0  0  0  0  0  0  0  0  0
   -8.3241   -3.0471  -22.5437 C   0  0  2  0  0  0  0  0  0  0  0  0
   -8.1181   -3.8265  -23.8343 C   0  0  0  0  0  0  0  0  0  0  0  0
   -7.0069   -5.2022  -23.5935 S   0  0  0  0  0  0  0  0  0  0  0  0
   -5.6300   -4.7065  -23.5783 O   0  0  0  0  0  0  0  0  0  0  0  0
   -7.4822   -6.0404  -22.5022 O   0  0  0  0  0  0  0  0  0  0  0  0
   -7.3143   -6.0421  -24.9869 N   0  0  0  0  0  0  0  0  0  0  0  0
   -6.6592   -5.6357  -26.2207 C   0  0  0  0  0  0  0  0  0  0  0  0
   -7.1413   -4.7385  -26.6216 H   0  0  0  0  0  0  0  0  0  0  0  0
   -6.8023   -6.4376  -26.9458 H   0  0  0  0  0  0  0  0  0  0  0  0
   -5.5911   -5.4356  -26.0883 H   0  0  0  0  0  0  0  0  0  0  0  0
   -7.3486   -7.0325  -24.7841 H   0  0  0  0  0  0  0  0  0  0  0  0
   -7.6577   -3.2023  -24.6089 H   0  0  0  0  0  0  0  0  0  0  0  0
   -9.0627   -4.2367  -24.2050 H   0  0  0  0  0  0  0  0  0  0  0  0
   -8.7455   -3.7301  -21.8016 H   0  0  0  0  0  0  0  0  0  0  0  0
   -6.5092   -3.2803  -21.3250 H   0  0  0  0  0  0  0  0  0  0  0  0
   -6.2820   -2.2356  -22.7262 H   0  0  0  0  0  0  0  0  0  0  0  0
  -10.7569   -2.0579  -22.4644 C   0  0  0  0  0  0  0  0  0  0  0  0
  -11.2616   -3.1106  -21.6876 C   0  0  0  0  0  0  0  0  0  0  0  0
  -12.6133   -3.1519  -21.3767 C   0  0  0  0  0  0  0  0  0  0  0  0
  -13.2183   -4.2315  -20.1647 Cl  0  0  0  0  0  0  0  0  0  0  0  0
  -13.5280   -2.2587  -21.9228 C   0  0  0  0  0  0  0  0  0  0  0  0
  -13.0577   -1.2530  -22.7304 C   0  0  0  0  0  0  0  0  0  0  0  0
  -11.6906   -1.1328  -22.9636 C   0  0  0  0  0  0  0  0  0  0  0  0
  -11.2754    0.0747  -23.7310 C   0  0  0  0  0  0  0  0  0  0  0  0
  -12.0767    0.9476  -24.0463 O   0  0  0  0  0  0  0  0  0  0  0  0
  -13.7222   -0.5129  -23.1654 H   0  0  0  0  0  0  0  0  0  0  0  0
  -14.5765   -2.3400  -21.6639 H   0  0  0  0  0  0  0  0  0  0  0  0
  -10.6120   -3.8674  -21.2616 H   0  0  0  0  0  0  0  0  0  0  0  0
   -8.0653   -0.7100  -24.1202 H   0  0  0  0  0  0  0  0  0  0  0  0
   -9.3536   -1.7172  -24.8243 H   0  0  0  0  0  0  0  0  0  0  0  0
  -10.2936    2.0435  -24.7064 H   0  0  0  0  0  0  0  0  0  0  0  0
   -9.0729    1.1764  -25.6643 H   0  0  0  0  0  0  0  0  0  0  0  0
   -9.4826    2.5796  -22.2561 H   0  0  0  0  0  0  0  0  0  0  0  0
   -6.7777    3.7401  -22.5974 H   0  0  0  0  0  0  0  0  0  0  0  0
   -7.8666    3.9376  -21.2063 H   0  0  0  0  0  0  0  0  0  0  0  0
   -6.9382    2.4224  -21.4270 H   0  0  0  0  0  0  0  0  0  0  0  0
  1  2  1  0
  2  3  1  0
  3  4  2  0
  3  5  1  0
  5  6  1  0
  6  7  1  0
  8  7  1  6
  8  9  1  0
  9 10  2  0
  9 11  1  0
 11 12  1  0
 12 13  2  0
 13 14  1  0
 14 15  2  0
 15 16  1  0
 16 17  2  0
 17 18  1  0
 18 19  2  0
 19 20  1  0
 20 21  2  0
 20 22  1  0
 19 23  1  0
 18 24  1  0
 17 25  1  0
 15 26  1  0
 13 27  1  0
 11 28  1  0
 28 29  1  0
 29 30  1  0
 30 31  1  0
 31 32  2  0
 31 33  2  0
 31 34  1  0
 34 35  1  0
 35 36  1  0
 35 37  1  0
 35 38  1  0
 34 39  1  0
 30 40  1  0
 30 41  1  0
 29 42  1  1
 28 43  1  0
 28 44  1  0
  8 45  1  0
 45 46  2  0
 46 47  1  0
 47 48  1  0
 47 49  2  0
 49 50  1  0
 50 51  2  0
 51 52  1  0
 52 53  2  0
 50 54  1  0
 49 55  1  0
 46 56  1  0
  7 57  1  0
  7 58  1  0
  5 59  1  0
  5 60  1  0
  2 61  1  0
  1 62  1  0
  1 63  1  0
  1 64  1  0
 52  6  1  0
 29  8  1  0
 51 45  1  0
 21 12  1  0
 21 16  1  0
M  END
>  <cnnaffinities>  (28) 
[6.94658, 6.62708]

>  <score>  (28) 
6.94658

>  <index>  (28) 
28

>  <Smiles>  (28) 
C(N(C(=O)C(N1C([C@@]2(C(=O)N(c3c(nc(c4c(c(c(c(c34)[H])[H])[H])[H])[H])[H])C([C@@]2(C(S(=O)(=O)N(C([H])([H])[H])[H])([H])[H])[H])([H])[H])c2c(c(Cl)c(c(c2C1=O)[H])[H])[H])([H])[H])([H])[H])[H])([H])([H])[H]

>  <h>  (28) 
<NA>

>  <Training>  (28) 
True

>  <Success>  (28) 
True

>  <enamine_searched>  (28) 
False

>  <enamine_id>  (28) 
nan

$$$$

     RDKit          3D

 55 60  0  0  0  0  0  0  0  0999 V2000
  -10.4399   -1.0808  -23.2884 C   0  0  0  0  0  0  0  0  0  0  0  0
   -8.9989   -1.4379  -22.9376 C   0  0  1  0  0  0  0  0  0  0  0  0
   -8.3668   -0.5043  -21.8929 C   0  0  0  0  0  0  0  0  0  0  0  0
   -7.3748   -1.3540  -21.2486 N   0  0  0  0  0  0  0  0  0  0  0  0
   -6.5743   -0.8715  -20.1893 C   0  0  0  0  0  0  0  0  0  0  0  0
   -6.8963   -1.1267  -18.8816 C   0  0  0  0  0  0  0  0  0  0  0  0
   -6.2449   -0.5853  -17.8215 N   0  0  0  0  0  0  0  0  0  0  0  0
   -5.2301    0.2065  -18.0776 C   0  0  0  0  0  0  0  0  0  0  0  0
   -4.7669    0.5156  -19.3889 C   0  0  0  0  0  0  0  0  0  0  0  0
   -3.6403    1.3453  -19.6226 C   0  0  0  0  0  0  0  0  0  0  0  0
   -3.2333    1.6091  -20.9022 C   0  0  0  0  0  0  0  0  0  0  0  0
   -3.9283    1.0623  -22.0059 C   0  0  0  0  0  0  0  0  0  0  0  0
   -5.0205    0.2559  -21.8064 C   0  0  0  0  0  0  0  0  0  0  0  0
   -5.4613   -0.0312  -20.4875 C   0  0  0  0  0  0  0  0  0  0  0  0
   -5.5504   -0.1812  -22.6482 H   0  0  0  0  0  0  0  0  0  0  0  0
   -3.5993    1.2857  -23.0171 H   0  0  0  0  0  0  0  0  0  0  0  0
   -2.3741    2.2484  -21.0822 H   0  0  0  0  0  0  0  0  0  0  0  0
   -3.1208    1.7660  -18.7660 H   0  0  0  0  0  0  0  0  0  0  0  0
   -4.7100    0.6400  -17.2233 H   0  0  0  0  0  0  0  0  0  0  0  0
   -7.7301   -1.7841  -18.6408 H   0  0  0  0  0  0  0  0  0  0  0  0
   -7.6332   -2.7019  -21.3926 C   0  0  0  0  0  0  0  0  0  0  0  0
   -6.9981   -3.5846  -20.8501 O   0  0  0  0  0  0  0  0  0  0  0  0
   -8.8214   -2.8813  -22.3409 C   0  0  1  0  0  0  0  0  0  0  0  0
  -10.0344   -3.3071  -21.4765 C   0  0  0  0  0  0  0  0  0  0  0  0
  -11.1544   -3.7980  -22.2546 N   0  0  0  0  0  0  0  0  0  0  0  0
  -12.5234   -3.7862  -21.7553 C   0  0  0  0  0  0  0  0  0  0  0  0
  -13.3807   -2.6960  -22.3229 C   0  0  0  0  0  0  0  0  0  0  0  0
  -14.0671   -2.6621  -23.5486 C   0  0  0  0  0  0  0  0  0  0  0  0
  -14.7733   -1.5399  -23.6222 N   0  0  0  0  0  0  0  0  0  0  0  0
  -14.4964   -0.9518  -22.4798 N   0  0  0  0  0  0  0  0  0  0  0  0
  -13.6739   -1.5838  -21.6617 N   0  0  0  0  0  0  0  0  0  0  0  0
  -14.9524   -0.0928  -22.2011 H   0  0  0  0  0  0  0  0  0  0  0  0
  -14.0801   -3.4024  -24.3335 H   0  0  0  0  0  0  0  0  0  0  0  0
  -12.5281   -3.7804  -20.6646 H   0  0  0  0  0  0  0  0  0  0  0  0
  -12.9710   -4.7130  -22.1126 H   0  0  0  0  0  0  0  0  0  0  0  0
  -10.9935   -4.4770  -23.4236 C   0  0  0  0  0  0  0  0  0  0  0  0
  -11.9767   -4.8520  -24.0520 O   0  0  0  0  0  0  0  0  0  0  0  0
   -9.5954   -4.7231  -23.8739 C   0  0  0  0  0  0  0  0  0  0  0  0
   -9.3613   -5.7039  -24.8362 C   0  0  0  0  0  0  0  0  0  0  0  0
   -8.0955   -5.8879  -25.3612 C   0  0  0  0  0  0  0  0  0  0  0  0
   -7.0745   -5.0468  -24.9280 C   0  0  0  0  0  0  0  0  0  0  0  0
   -5.8442   -5.2018  -25.4448 F   0  0  0  0  0  0  0  0  0  0  0  0
   -7.2736   -4.0934  -23.9468 C   0  0  0  0  0  0  0  0  0  0  0  0
   -8.5491   -3.9344  -23.3904 C   0  0  0  0  0  0  0  0  0  0  0  0
   -6.4291   -3.5210  -23.5806 H   0  0  0  0  0  0  0  0  0  0  0  0
   -7.8899   -6.6700  -26.0847 H   0  0  0  0  0  0  0  0  0  0  0  0
  -10.1984   -6.3221  -25.1480 H   0  0  0  0  0  0  0  0  0  0  0  0
  -10.3416   -2.4232  -20.9073 H   0  0  0  0  0  0  0  0  0  0  0  0
   -9.7148   -4.0782  -20.7733 H   0  0  0  0  0  0  0  0  0  0  0  0
   -9.1149   -0.1380  -21.1696 H   0  0  0  0  0  0  0  0  0  0  0  0
   -7.9039    0.3840  -22.3352 H   0  0  0  0  0  0  0  0  0  0  0  0
   -8.3824   -1.4028  -23.8478 H   0  0  0  0  0  0  0  0  0  0  0  0
  -10.5212   -0.1241  -23.8110 H   0  0  0  0  0  0  0  0  0  0  0  0
  -10.8775   -1.8624  -23.9182 H   0  0  0  0  0  0  0  0  0  0  0  0
  -11.0480   -1.0197  -22.3803 H   0  0  0  0  0  0  0  0  0  0  0  0
  1  2  1  0
  2  3  1  0
  3  4  1  0
  4  5  1  0
  5  6  2  0
  6  7  1  0
  7  8  2  0
  8  9  1  0
  9 10  2  0
 10 11  1  0
 11 12  2  0
 12 13  1  0
 13 14  2  0
 13 15  1  0
 12 16  1  0
 11 17  1  0
 10 18  1  0
  8 19  1  0
  6 20  1  0
  4 21  1  0
 21 22  2  0
 21 23  1  0
 23 24  1  1
 24 25  1  0
 25 26  1  0
 26 27  1  0
 27 28  1  0
 28 29  2  0
 29 30  1  0
 30 31  1  0
 30 32  1  0
 28 33  1  0
 26 34  1  0
 26 35  1  0
 25 36  1  0
 36 37  2  0
 36 38  1  0
 38 39  2  0
 39 40  1  0
 40 41  2  0
 41 42  1  0
 41 43  1  0
 43 44  2  0
 43 45  1  0
 40 46  1  0
 39 47  1  0
 24 48  1  0
 24 49  1  0
  3 50  1  0
  3 51  1  0
  2 52  1  6
  1 53  1  0
  1 54  1  0
  1 55  1  0
 23  2  1  0
 31 27  2  0
 44 38  1  0
 14  5  1  0
 44 23  1  0
 14  9  1  0
M  END
>  <cnnaffinities>  (29) 
[6.62478]

>  <score>  (29) 
6.62478

>  <index>  (29) 
29

>  <Smiles>  (29) 
C([C@]1(C(N(c2c(nc(c3c(c(c(c(c23)[H])[H])[H])[H])[H])[H])C(=O)[C@]21C(N(C(c1c(nn(n1)[H])[H])([H])[H])C(=O)c1c(c(c(F)c(c21)[H])[H])[H])([H])[H])([H])[H])[H])([H])([H])[H]

>  <h>  (29) 
<NA>

>  <Training>  (29) 
True

>  <Success>  (29) 
True

>  <enamine_searched>  (29) 
False

>  <enamine_id>  (29) 
nan

$$$$

     RDKit          3D

 58 63  0  0  0  0  0  0  0  0999 V2000
   -8.1808   -4.1404  -23.8239 C   0  0  0  0  0  0  0  0  0  0  0  0
   -8.4144   -3.1379  -22.6988 C   0  0  1  0  0  0  0  0  0  0  0  0
   -7.1350   -2.3515  -22.3710 C   0  0  0  0  0  0  0  0  0  0  0  0
   -7.6338   -1.2701  -21.5519 N   0  0  0  0  0  0  0  0  0  0  0  0
   -6.9473   -0.7794  -20.4246 C   0  0  0  0  0  0  0  0  0  0  0  0
   -7.4149   -0.9850  -19.1477 C   0  0  0  0  0  0  0  0  0  0  0  0
   -6.7666   -0.5651  -18.0366 N   0  0  0  0  0  0  0  0  0  0  0  0
   -5.6453    0.0946  -18.1999 C   0  0  0  0  0  0  0  0  0  0  0  0
   -5.0652    0.3909  -19.4671 C   0  0  0  0  0  0  0  0  0  0  0  0
   -3.8876    1.1713  -19.6159 C   0  0  0  0  0  0  0  0  0  0  0  0
   -3.4085    1.4717  -20.8610 C   0  0  0  0  0  0  0  0  0  0  0  0
   -4.0559    0.9818  -22.0185 C   0  0  0  0  0  0  0  0  0  0  0  0
   -5.1647    0.1809  -21.8972 C   0  0  0  0  0  0  0  0  0  0  0  0
   -5.7196   -0.0876  -20.6189 C   0  0  0  0  0  0  0  0  0  0  0  0
   -5.6459   -0.2071  -22.7898 H   0  0  0  0  0  0  0  0  0  0  0  0
   -3.7126    1.2736  -23.0065 H   0  0  0  0  0  0  0  0  0  0  0  0
   -2.5291    2.0982  -20.9686 H   0  0  0  0  0  0  0  0  0  0  0  0
   -3.4006    1.5407  -18.7180 H   0  0  0  0  0  0  0  0  0  0  0  0
   -5.1332    0.4314  -17.2992 H   0  0  0  0  0  0  0  0  0  0  0  0
   -8.3415   -1.5279  -18.9733 H   0  0  0  0  0  0  0  0  0  0  0  0
   -8.9704   -1.0233  -21.7688 C   0  0  0  0  0  0  0  0  0  0  0  0
   -9.6138   -0.1888  -21.1680 O   0  0  0  0  0  0  0  0  0  0  0  0
   -9.4850   -2.0029  -22.8642 C   0  0  1  0  0  0  0  0  0  0  0  0
   -9.3829   -1.3670  -24.2779 C   0  0  0  0  0  0  0  0  0  0  0  0
  -10.4049   -0.3659  -24.5415 N   0  0  0  0  0  0  0  0  0  0  0  0
  -10.0030    0.7627  -25.3761 C   0  0  0  0  0  0  0  0  0  0  0  0
   -8.9083    1.5707  -24.7027 C   0  0  0  0  0  0  0  0  0  0  0  0
   -7.7791    1.9660  -25.3601 C   0  0  0  0  0  0  0  0  0  0  0  0
   -6.6021    2.3130  -24.5992 C   0  0  0  0  0  0  0  0  0  0  0  0
   -5.4619    2.4599  -25.0128 O   0  0  0  0  0  0  0  0  0  0  0  0
   -6.8912    2.4459  -23.2330 N   0  0  0  0  0  0  0  0  0  0  0  0
   -8.1142    2.2068  -22.6881 C   0  0  0  0  0  0  0  0  0  0  0  0
   -9.1389    1.8173  -23.3765 N   0  0  0  0  0  0  0  0  0  0  0  0
   -8.1943    2.3121  -21.6130 H   0  0  0  0  0  0  0  0  0  0  0  0
   -6.0979    2.6576  -22.6425 H   0  0  0  0  0  0  0  0  0  0  0  0
   -7.7077    1.9491  -26.4385 H   0  0  0  0  0  0  0  0  0  0  0  0
  -10.8869    1.3831  -25.5046 H   0  0  0  0  0  0  0  0  0  0  0  0
   -9.6750    0.4092  -26.3647 H   0  0  0  0  0  0  0  0  0  0  0  0
  -11.7003   -0.4568  -24.1060 C   0  0  0  0  0  0  0  0  0  0  0  0
  -12.5820    0.2867  -24.5140 O   0  0  0  0  0  0  0  0  0  0  0  0
  -11.9744   -1.5189  -23.0823 C   0  0  0  0  0  0  0  0  0  0  0  0
  -13.2923   -1.6659  -22.6436 C   0  0  0  0  0  0  0  0  0  0  0  0
  -13.6200   -2.6226  -21.7095 C   0  0  0  0  0  0  0  0  0  0  0  0
  -12.5940   -3.4025  -21.1977 C   0  0  0  0  0  0  0  0  0  0  0  0
  -12.8966   -4.2632  -20.2129 F   0  0  0  0  0  0  0  0  0  0  0  0
  -11.2823   -3.2834  -21.6158 C   0  0  0  0  0  0  0  0  0  0  0  0
  -10.9384   -2.3209  -22.5689 C   0  0  0  0  0  0  0  0  0  0  0  0
  -10.5378   -3.9029  -21.1312 H   0  0  0  0  0  0  0  0  0  0  0  0
  -14.6356   -2.7843  -21.3694 H   0  0  0  0  0  0  0  0  0  0  0  0
  -14.0397   -0.9915  -23.0493 H   0  0  0  0  0  0  0  0  0  0  0  0
   -9.4290   -2.1718  -25.0269 H   0  0  0  0  0  0  0  0  0  0  0  0
   -8.4186   -0.8609  -24.3833 H   0  0  0  0  0  0  0  0  0  0  0  0
   -6.3801   -2.9253  -21.8289 H   0  0  0  0  0  0  0  0  0  0  0  0
   -6.6806   -1.9772  -23.3042 H   0  0  0  0  0  0  0  0  0  0  0  0
   -8.6682   -3.6879  -21.7865 H   0  0  0  0  0  0  0  0  0  0  0  0
   -9.0788   -4.7145  -24.0770 H   0  0  0  0  0  0  0  0  0  0  0  0
   -7.8286   -3.6412  -24.7343 H   0  0  0  0  0  0  0  0  0  0  0  0
   -7.3934   -4.8481  -23.5318 H   0  0  0  0  0  0  0  0  0  0  0  0
  1  2  1  0
  2  3  1  0
  3  4  1  0
  4  5  1  0
  5  6  2  0
  6  7  1  0
  7  8  2  0
  8  9  1  0
  9 10  2  0
 10 11  1  0
 11 12  2  0
 12 13  1  0
 13 14  2  0
 13 15  1  0
 12 16  1  0
 11 17  1  0
 10 18  1  0
  8 19  1  0
  6 20  1  0
  4 21  1  0
 21 22  2  0
 21 23  1  0
 23 24  1  6
 24 25  1  0
 25 26  1  0
 26 27  1  0
 27 28  2  0
 28 29  1  0
 29 30  2  0
 29 31  1  0
 31 32  1  0
 32 33  2  0
 32 34  1  0
 31 35  1  0
 28 36  1  0
 26 37  1  0
 26 38  1  0
 25 39  1  0
 39 40  2  0
 39 41  1  0
 41 42  2  0
 42 43  1  0
 43 44  2  0
 44 45  1  0
 44 46  1  0
 46 47  2  0
 46 48  1  0
 43 49  1  0
 42 50  1  0
 24 51  1  0
 24 52  1  0
  3 53  1  0
  3 54  1  0
  2 55  1  1
  1 56  1  0
  1 57  1  0
  1 58  1  0
 23  2  1  0
 33 27  1  0
 47 41  1  0
 14  5  1  0
 47 23  1  0
 14  9  1  0
M  END
>  <cnnaffinities>  (30) 
[6.8129]

>  <score>  (30) 
6.8129

>  <index>  (30) 
30

>  <Smiles>  (30) 
C([C@]1(C(N(c2c(nc(c3c(c(c(c(c23)[H])[H])[H])[H])[H])[H])C(=O)[C@]21C(N(C(c1c(c(=O)n(c(n1)[H])[H])[H])([H])[H])C(=O)c1c(c(c(F)c(c21)[H])[H])[H])([H])[H])([H])[H])[H])([H])([H])[H]

>  <h>  (30) 
<NA>

>  <Training>  (30) 
True

>  <Success>  (30) 
True

>  <enamine_searched>  (30) 
False

>  <enamine_id>  (30) 
nan

$$$$

     RDKit          3D

 66 71  0  0  0  0  0  0  0  0999 V2000
  -14.3929   -1.3300  -23.6947 C   0  0  0  0  0  0  0  0  0  0  0  0
  -13.5844   -2.4723  -23.2990 N   0  0  0  0  0  0  0  0  0  0  0  0
  -13.3206   -2.7261  -21.9918 C   0  0  0  0  0  0  0  0  0  0  0  0
  -13.8513   -2.1195  -21.0753 O   0  0  0  0  0  0  0  0  0  0  0  0
  -12.3672   -3.8964  -21.7008 C   0  0  0  0  0  0  0  0  0  0  0  0
  -11.0205   -3.8592  -22.2781 N   0  0  0  0  0  0  0  0  0  0  0  0
   -9.8340   -3.4490  -21.5401 C   0  0  0  0  0  0  0  0  0  0  0  0
   -8.6737   -2.8747  -22.4154 C   0  0  2  0  0  0  0  0  0  0  0  0
   -7.5098   -2.6449  -21.4475 C   0  0  0  0  0  0  0  0  0  0  0  0
   -6.8117   -3.4922  -20.9225 O   0  0  0  0  0  0  0  0  0  0  0  0
   -7.3961   -1.2915  -21.2103 N   0  0  0  0  0  0  0  0  0  0  0  0
   -6.5893   -0.8106  -20.1546 C   0  0  0  0  0  0  0  0  0  0  0  0
   -6.8837   -1.1044  -18.8485 C   0  0  0  0  0  0  0  0  0  0  0  0
   -6.2269   -0.5695  -17.7889 N   0  0  0  0  0  0  0  0  0  0  0  0
   -5.2226    0.2386  -18.0398 C   0  0  0  0  0  0  0  0  0  0  0  0
   -4.7639    0.5618  -19.3530 C   0  0  0  0  0  0  0  0  0  0  0  0
   -3.6350    1.3885  -19.6002 C   0  0  0  0  0  0  0  0  0  0  0  0
   -3.2308    1.6392  -20.8849 C   0  0  0  0  0  0  0  0  0  0  0  0
   -3.9240    1.0802  -21.9813 C   0  0  0  0  0  0  0  0  0  0  0  0
   -5.0171    0.2783  -21.7680 C   0  0  0  0  0  0  0  0  0  0  0  0
   -5.4644    0.0166  -20.4471 C   0  0  0  0  0  0  0  0  0  0  0  0
   -5.5407   -0.1811  -22.5984 H   0  0  0  0  0  0  0  0  0  0  0  0
   -3.5929    1.2845  -22.9955 H   0  0  0  0  0  0  0  0  0  0  0  0
   -2.3670    2.2707  -21.0739 H   0  0  0  0  0  0  0  0  0  0  0  0
   -3.0994    1.8069  -18.7532 H   0  0  0  0  0  0  0  0  0  0  0  0
   -4.7101    0.6652  -17.1777 H   0  0  0  0  0  0  0  0  0  0  0  0
   -7.6952   -1.7904  -18.6129 H   0  0  0  0  0  0  0  0  0  0  0  0
   -8.4003   -0.4810  -21.8888 C   0  0  0  0  0  0  0  0  0  0  0  0
   -8.8888   -1.4366  -22.9891 C   0  0  2  0  0  0  0  0  0  0  0  0
  -10.3125   -1.1820  -23.4828 C   0  0  0  0  0  0  0  0  0  0  0  0
  -10.4778    0.0494  -24.2170 N   0  0  0  0  0  0  0  0  0  0  0  0
  -11.0239    1.1630  -23.6670 C   0  0  0  0  0  0  0  0  0  0  0  0
  -11.0710    2.3719  -24.3953 C   0  0  0  0  0  0  0  0  0  0  0  0
  -11.5860    3.4615  -23.7352 C   0  0  0  0  0  0  0  0  0  0  0  0
  -12.0742    3.4066  -22.4844 N   0  0  0  0  0  0  0  0  0  0  0  0
  -12.0141    2.2159  -21.9115 C   0  0  0  0  0  0  0  0  0  0  0  0
  -11.5214    1.0828  -22.4244 N   0  0  0  0  0  0  0  0  0  0  0  0
  -12.4149    2.1419  -20.8988 H   0  0  0  0  0  0  0  0  0  0  0  0
  -11.6201    4.4412  -24.2140 H   0  0  0  0  0  0  0  0  0  0  0  0
  -10.7133    2.4283  -25.4201 H   0  0  0  0  0  0  0  0  0  0  0  0
  -10.0848    0.1216  -25.1428 H   0  0  0  0  0  0  0  0  0  0  0  0
  -10.6025   -2.0190  -24.1281 H   0  0  0  0  0  0  0  0  0  0  0  0
  -10.9852   -1.1167  -22.6252 H   0  0  0  0  0  0  0  0  0  0  0  0
   -8.1961   -1.3456  -23.8432 H   0  0  0  0  0  0  0  0  0  0  0  0
   -7.9536    0.4352  -22.2905 H   0  0  0  0  0  0  0  0  0  0  0  0
   -9.2046   -0.1765  -21.1972 H   0  0  0  0  0  0  0  0  0  0  0  0
   -8.3896   -3.9082  -23.4795 C   0  0  0  0  0  0  0  0  0  0  0  0
   -7.1039   -4.1178  -24.0045 C   0  0  0  0  0  0  0  0  0  0  0  0
   -6.8986   -5.1230  -24.9379 C   0  0  0  0  0  0  0  0  0  0  0  0
   -5.3061   -5.4003  -25.5899 Cl  0  0  0  0  0  0  0  0  0  0  0  0
   -7.9522   -5.9184  -25.3864 C   0  0  0  0  0  0  0  0  0  0  0  0
   -9.2310   -5.6580  -24.9180 C   0  0  0  0  0  0  0  0  0  0  0  0
   -9.4634   -4.6673  -23.9703 C   0  0  0  0  0  0  0  0  0  0  0  0
  -10.8729   -4.4220  -23.5013 C   0  0  0  0  0  0  0  0  0  0  0  0
  -11.8776   -4.6748  -24.1689 O   0  0  0  0  0  0  0  0  0  0  0  0
  -10.0906   -6.2164  -25.2694 H   0  0  0  0  0  0  0  0  0  0  0  0
   -7.7774   -6.7238  -26.0939 H   0  0  0  0  0  0  0  0  0  0  0  0
   -6.2549   -3.5237  -23.6802 H   0  0  0  0  0  0  0  0  0  0  0  0
  -10.1214   -2.6943  -20.8098 H   0  0  0  0  0  0  0  0  0  0  0  0
   -9.3958   -4.3250  -21.0519 H   0  0  0  0  0  0  0  0  0  0  0  0
  -12.3400   -4.0288  -20.6193 H   0  0  0  0  0  0  0  0  0  0  0  0
  -12.8703   -4.7646  -22.1335 H   0  0  0  0  0  0  0  0  0  0  0  0
  -13.1815   -3.0843  -23.9988 H   0  0  0  0  0  0  0  0  0  0  0  0
  -13.8253   -0.3909  -23.6138 H   0  0  0  0  0  0  0  0  0  0  0  0
  -15.2702   -1.2452  -23.0421 H   0  0  0  0  0  0  0  0  0  0  0  0
  -14.7065   -1.4781  -24.7355 H   0  0  0  0  0  0  0  0  0  0  0  0
  1  2  1  0
  2  3  1  0
  3  4  2  0
  3  5  1  0
  5  6  1  0
  6  7  1  0
  8  7  1  1
  8  9  1  0
  9 10  2  0
  9 11  1  0
 11 12  1  0
 12 13  2  0
 13 14  1  0
 14 15  2  0
 15 16  1  0
 16 17  2  0
 17 18  1  0
 18 19  2  0
 19 20  1  0
 20 21  2  0
 20 22  1  0
 19 23  1  0
 18 24  1  0
 17 25  1  0
 15 26  1  0
 13 27  1  0
 11 28  1  0
 28 29  1  0
 29 30  1  0
 30 31  1  0
 31 32  1  0
 32 33  2  0
 33 34  1  0
 34 35  2  0
 35 36  1  0
 36 37  2  0
 36 38  1  0
 34 39  1  0
 33 40  1  0
 31 41  1  0
 30 42  1  0
 30 43  1  0
 29 44  1  6
 28 45  1  0
 28 46  1  0
  8 47  1  0
 47 48  2  0
 48 49  1  0
 49 50  1  0
 49 51  2  0
 51 52  1  0
 52 53  2  0
 53 54  1  0
 54 55  2  0
 52 56  1  0
 51 57  1  0
 48 58  1  0
  7 59  1  0
  7 60  1  0
  5 61  1  0
  5 62  1  0
  2 63  1  0
  1 64  1  0
  1 65  1  0
  1 66  1  0
 54  6  1  0
 29  8  1  0
 37 32  1  0
 53 47  1  0
 21 12  1  0
 21 16  1  0
M  END
>  <cnnaffinities>  (31) 
[6.85879]

>  <score>  (31) 
6.85879

>  <index>  (31) 
31

>  <Smiles>  (31) 
C(N(C(=O)C(N1C([C@@]2(C(=O)N(c3c(nc(c4c(c(c(c(c34)[H])[H])[H])[H])[H])[H])C([C@@]2(C(N(c2c(c(nc(n2)[H])[H])[H])[H])([H])[H])[H])([H])[H])c2c(c(Cl)c(c(c2C1=O)[H])[H])[H])([H])[H])([H])[H])[H])([H])([H])[H]

>  <h>  (31) 
<NA>

>  <Training>  (31) 
True

>  <Success>  (31) 
True

>  <enamine_searched>  (31) 
False

>  <enamine_id>  (31) 
nan

$$$$

     RDKit          3D

 57 62  0  0  0  0  0  0  0  0999 V2000
  -10.1762   -0.7513  -23.6096 C   0  0  0  0  0  0  0  0  0  0  0  0
   -8.8679   -1.2627  -23.0222 C   0  0  1  0  0  0  0  0  0  0  0  0
   -8.3345   -0.3723  -21.8960 C   0  0  0  0  0  0  0  0  0  0  0  0
   -7.3832   -1.2399  -21.2222 N   0  0  0  0  0  0  0  0  0  0  0  0
   -6.5644   -0.7910  -20.1613 C   0  0  0  0  0  0  0  0  0  0  0  0
   -6.8756   -1.0901  -18.8579 C   0  0  0  0  0  0  0  0  0  0  0  0
   -6.2300   -0.5700  -17.7833 N   0  0  0  0  0  0  0  0  0  0  0  0
   -5.2300    0.2451  -18.0164 C   0  0  0  0  0  0  0  0  0  0  0  0
   -4.7727    0.5970  -19.3170 C   0  0  0  0  0  0  0  0  0  0  0  0
   -3.6619    1.4564  -19.5096 C   0  0  0  0  0  0  0  0  0  0  0  0
   -3.2112    1.7307  -20.7705 C   0  0  0  0  0  0  0  0  0  0  0  0
   -3.8629    1.1742  -21.8942 C   0  0  0  0  0  0  0  0  0  0  0  0
   -4.9608    0.3635  -21.7346 C   0  0  0  0  0  0  0  0  0  0  0  0
   -5.4440    0.0572  -20.4343 C   0  0  0  0  0  0  0  0  0  0  0  0
   -5.4609   -0.0586  -22.6006 H   0  0  0  0  0  0  0  0  0  0  0  0
   -3.4917    1.3922  -22.8909 H   0  0  0  0  0  0  0  0  0  0  0  0
   -2.3516    2.3787  -20.9178 H   0  0  0  0  0  0  0  0  0  0  0  0
   -3.1888    1.8861  -18.6316 H   0  0  0  0  0  0  0  0  0  0  0  0
   -4.7092    0.6607  -17.1531 H   0  0  0  0  0  0  0  0  0  0  0  0
   -7.6986   -1.7635  -18.6264 H   0  0  0  0  0  0  0  0  0  0  0  0
   -7.6595   -2.5778  -21.4213 C   0  0  0  0  0  0  0  0  0  0  0  0
   -7.0427   -3.4859  -20.9074 O   0  0  0  0  0  0  0  0  0  0  0  0
   -8.8545   -2.6954  -22.3934 C   0  0  1  0  0  0  0  0  0  0  0  0
  -10.0943   -3.0184  -21.5265 C   0  0  0  0  0  0  0  0  0  0  0  0
  -11.2349   -3.5378  -22.2671 N   0  0  0  0  0  0  0  0  0  0  0  0
  -12.5716   -3.4971  -21.6573 C   0  0  0  0  0  0  0  0  0  0  0  0
  -13.5651   -2.8539  -22.5704 C   0  0  0  0  0  0  0  0  0  0  0  0
  -14.4290   -3.4654  -23.3603 N   0  0  0  0  0  0  0  0  0  0  0  0
  -13.5507   -1.5155  -22.7797 N   0  0  0  0  0  0  0  0  0  0  0  0
  -14.3584   -1.2917  -23.7773 N   0  0  0  0  0  0  0  0  0  0  0  0
  -14.8454   -2.4617  -24.1242 N   0  0  0  0  0  0  0  0  0  0  0  0
  -15.3950   -2.7082  -25.4382 C   0  0  0  0  0  0  0  0  0  0  0  0
  -16.4013   -3.1062  -25.3467 H   0  0  0  0  0  0  0  0  0  0  0  0
  -15.3787   -1.7739  -25.9987 H   0  0  0  0  0  0  0  0  0  0  0  0
  -14.7460   -3.4191  -25.9428 H   0  0  0  0  0  0  0  0  0  0  0  0
  -12.5152   -2.9139  -20.7348 H   0  0  0  0  0  0  0  0  0  0  0  0
  -12.9096   -4.5004  -21.4077 H   0  0  0  0  0  0  0  0  0  0  0  0
  -11.0799   -4.3998  -23.3160 C   0  0  0  0  0  0  0  0  0  0  0  0
  -12.0311   -4.9761  -23.8222 O   0  0  0  0  0  0  0  0  0  0  0  0
   -9.6957   -4.6025  -23.8197 C   0  0  0  0  0  0  0  0  0  0  0  0
   -9.4943   -5.6109  -24.7592 C   0  0  0  0  0  0  0  0  0  0  0  0
   -8.2462   -5.8479  -25.2937 C   0  0  0  0  0  0  0  0  0  0  0  0
   -7.1990   -5.0432  -24.8659 C   0  0  0  0  0  0  0  0  0  0  0  0
   -5.9752   -5.2781  -25.3657 F   0  0  0  0  0  0  0  0  0  0  0  0
   -7.3688   -4.0310  -23.9424 C   0  0  0  0  0  0  0  0  0  0  0  0
   -8.6379   -3.8005  -23.3947 C   0  0  0  0  0  0  0  0  0  0  0  0
   -6.4981   -3.4717  -23.6195 H   0  0  0  0  0  0  0  0  0  0  0  0
   -8.0646   -6.6491  -26.0029 H   0  0  0  0  0  0  0  0  0  0  0  0
  -10.3385   -6.2264  -25.0381 H   0  0  0  0  0  0  0  0  0  0  0  0
  -10.4194   -2.1092  -21.0099 H   0  0  0  0  0  0  0  0  0  0  0  0
   -9.7671   -3.7435  -20.7732 H   0  0  0  0  0  0  0  0  0  0  0  0
   -9.1558   -0.0779  -21.2198 H   0  0  0  0  0  0  0  0  0  0  0  0
   -7.8535    0.5414  -22.2562 H   0  0  0  0  0  0  0  0  0  0  0  0
   -8.1099   -1.3004  -23.8184 H   0  0  0  0  0  0  0  0  0  0  0  0
  -10.9612   -0.6721  -22.8499 H   0  0  0  0  0  0  0  0  0  0  0  0
  -10.0275    0.2496  -24.0318 H   0  0  0  0  0  0  0  0  0  0  0  0
  -10.5458   -1.4035  -24.4072 H   0  0  0  0  0  0  0  0  0  0  0  0
  1  2  1  0
  2  3  1  0
  3  4  1  0
  4  5  1  0
  5  6  2  0
  6  7  1  0
  7  8  2  0
  8  9  1  0
  9 10  2  0
 10 11  1  0
 11 12  2  0
 12 13  1  0
 13 14  2  0
 13 15  1  0
 12 16  1  0
 11 17  1  0
 10 18  1  0
  8 19  1  0
  6 20  1  0
  4 21  1  0
 21 22  2  0
 21 23  1  0
 23 24  1  1
 24 25  1  0
 25 26  1  0
 26 27  1  0
 27 28  2  0
 28 29  1  0
 29 30  2  0
 30 31  1  0
 31 32  1  0
 32 33  1  0
 32 34  1  0
 32 35  1  0
 26 36  1  0
 26 37  1  0
 25 38  1  0
 38 39  2  0
 38 40  1  0
 40 41  2  0
 41 42  1  0
 42 43  2  0
 43 44  1  0
 43 45  1  0
 45 46  2  0
 45 47  1  0
 42 48  1  0
 41 49  1  0
 24 50  1  0
 24 51  1  0
  3 52  1  0
  3 53  1  0
  2 54  1  6
  1 55  1  0
  1 56  1  0
  1 57  1  0
 23  2  1  0
 31 27  1  0
 46 40  1  0
 14  5  1  0
 46 23  1  0
 14  9  1  0
M  END
>  <cnnaffinities>  (32) 
[6.68393]

>  <score>  (32) 
6.68393

>  <index>  (32) 
32

>  <Smiles>  (32) 
C([C@]1(C(N(c2c(nc(c3c(c(c(c(c23)[H])[H])[H])[H])[H])[H])C(=O)[C@]21C(N(C(c1nnnn1C([H])([H])[H])([H])[H])C(=O)c1c(c(c(F)c(c21)[H])[H])[H])([H])[H])([H])[H])[H])([H])([H])[H]

>  <h>  (32) 
<NA>

>  <Training>  (32) 
True

>  <Success>  (32) 
True

>  <enamine_searched>  (32) 
False

>  <enamine_id>  (32) 
nan

$$$$

     RDKit          3D

 66 70  0  0  0  0  0  0  0  0999 V2000
   -7.5276    3.2628  -21.8116 C   0  0  0  0  0  0  0  0  0  0  0  0
   -8.5408    2.8144  -22.7485 N   0  0  0  0  0  0  0  0  0  0  0  0
   -8.0812    2.0864  -23.8055 C   0  0  0  0  0  0  0  0  0  0  0  0
   -6.8821    1.9129  -23.9841 O   0  0  0  0  0  0  0  0  0  0  0  0
   -9.0933    1.4751  -24.7655 C   0  0  0  0  0  0  0  0  0  0  0  0
   -9.6534    0.2617  -24.2171 N   0  0  0  0  0  0  0  0  0  0  0  0
   -8.8153   -0.9167  -24.0998 C   0  0  0  0  0  0  0  0  0  0  0  0
   -9.0937   -1.6997  -22.7949 C   0  0  2  0  0  0  0  0  0  0  0  0
   -8.5775   -0.8892  -21.5817 C   0  0  0  0  0  0  0  0  0  0  0  0
   -9.1084    0.0685  -21.0615 O   0  0  0  0  0  0  0  0  0  0  0  0
   -7.3730   -1.4266  -21.1915 N   0  0  0  0  0  0  0  0  0  0  0  0
   -6.5965   -0.8296  -20.1700 C   0  0  0  0  0  0  0  0  0  0  0  0
   -6.9205   -1.0492  -18.8552 C   0  0  0  0  0  0  0  0  0  0  0  0
   -6.2300   -0.5443  -17.8042 N   0  0  0  0  0  0  0  0  0  0  0  0
   -5.1895    0.2087  -18.0726 C   0  0  0  0  0  0  0  0  0  0  0  0
   -4.7462    0.5189  -19.3907 C   0  0  0  0  0  0  0  0  0  0  0  0
   -3.6255    1.3588  -19.6314 C   0  0  0  0  0  0  0  0  0  0  0  0
   -3.2394    1.6563  -20.9095 C   0  0  0  0  0  0  0  0  0  0  0  0
   -3.9573    1.1364  -22.0097 C   0  0  0  0  0  0  0  0  0  0  0  0
   -5.0526    0.3287  -21.8071 C   0  0  0  0  0  0  0  0  0  0  0  0
   -5.4684   -0.0106  -20.4877 C   0  0  0  0  0  0  0  0  0  0  0  0
   -5.6185   -0.0224  -22.6662 H   0  0  0  0  0  0  0  0  0  0  0  0
   -3.6522    1.3855  -23.0226 H   0  0  0  0  0  0  0  0  0  0  0  0
   -2.3840    2.3019  -21.0899 H   0  0  0  0  0  0  0  0  0  0  0  0
   -3.0933    1.7643  -18.7750 H   0  0  0  0  0  0  0  0  0  0  0  0
   -4.6258    0.6120  -17.2288 H   0  0  0  0  0  0  0  0  0  0  0  0
   -7.7835   -1.6652  -18.6113 H   0  0  0  0  0  0  0  0  0  0  0  0
   -6.9612   -2.5941  -21.9440 C   0  0  0  0  0  0  0  0  0  0  0  0
   -8.2334   -2.9970  -22.7139 C   0  0  2  0  0  0  0  0  0  0  0  0
   -7.9294   -3.6886  -24.0422 C   0  0  0  0  0  0  0  0  0  0  0  0
   -7.2228   -4.8889  -23.8005 O   0  0  0  0  0  0  0  0  0  0  0  0
   -7.0474   -5.7039  -24.9564 C   0  0  0  0  0  0  0  0  0  0  0  0
   -5.6721   -6.3486  -24.8791 C   0  0  0  0  0  0  0  0  0  0  0  0
   -5.4875   -6.9646  -25.7649 H   0  0  0  0  0  0  0  0  0  0  0  0
   -4.8811   -5.5973  -24.8212 H   0  0  0  0  0  0  0  0  0  0  0  0
   -5.6006   -6.9918  -23.9990 H   0  0  0  0  0  0  0  0  0  0  0  0
   -8.1487   -6.7542  -25.0462 C   0  0  0  0  0  0  0  0  0  0  0  0
   -8.1277   -7.4038  -24.1675 H   0  0  0  0  0  0  0  0  0  0  0  0
   -9.1422   -6.3015  -25.1099 H   0  0  0  0  0  0  0  0  0  0  0  0
   -8.0068   -7.3765  -25.9352 H   0  0  0  0  0  0  0  0  0  0  0  0
   -7.0836   -5.0691  -25.8555 H   0  0  0  0  0  0  0  0  0  0  0  0
   -8.8699   -3.8874  -24.5842 H   0  0  0  0  0  0  0  0  0  0  0  0
   -7.3142   -3.0239  -24.6728 H   0  0  0  0  0  0  0  0  0  0  0  0
   -8.7772   -3.7186  -22.1041 H   0  0  0  0  0  0  0  0  0  0  0  0
   -6.1356   -2.3578  -22.6297 H   0  0  0  0  0  0  0  0  0  0  0  0
   -6.6206   -3.3831  -21.2693 H   0  0  0  0  0  0  0  0  0  0  0  0
  -10.5960   -1.8880  -22.6896 C   0  0  0  0  0  0  0  0  0  0  0  0
  -11.1401   -2.8501  -21.8331 C   0  0  0  0  0  0  0  0  0  0  0  0
  -12.5143   -2.9339  -21.6778 C   0  0  0  0  0  0  0  0  0  0  0  0
  -13.1742   -4.0194  -20.4925 Cl  0  0  0  0  0  0  0  0  0  0  0  0
  -13.3977   -2.1287  -22.3988 C   0  0  0  0  0  0  0  0  0  0  0  0
  -12.8662   -1.1550  -23.2156 C   0  0  0  0  0  0  0  0  0  0  0  0
  -11.4868   -1.0095  -23.3232 C   0  0  0  0  0  0  0  0  0  0  0  0
  -11.0023    0.1923  -24.0556 C   0  0  0  0  0  0  0  0  0  0  0  0
  -11.7630    1.0689  -24.4555 O   0  0  0  0  0  0  0  0  0  0  0  0
  -13.4902   -0.4513  -23.7559 H   0  0  0  0  0  0  0  0  0  0  0  0
  -14.4695   -2.2568  -22.2811 H   0  0  0  0  0  0  0  0  0  0  0  0
  -10.4972   -3.5191  -21.2684 H   0  0  0  0  0  0  0  0  0  0  0  0
   -9.0163   -1.5802  -24.9468 H   0  0  0  0  0  0  0  0  0  0  0  0
   -7.7678   -0.6041  -24.1522 H   0  0  0  0  0  0  0  0  0  0  0  0
   -8.5263    1.2650  -25.6806 H   0  0  0  0  0  0  0  0  0  0  0  0
   -9.9335    2.1488  -24.9644 H   0  0  0  0  0  0  0  0  0  0  0  0
   -9.4664    2.6717  -22.3683 H   0  0  0  0  0  0  0  0  0  0  0  0
   -6.8568    3.9614  -22.3135 H   0  0  0  0  0  0  0  0  0  0  0  0
   -7.9883    3.7536  -20.9590 H   0  0  0  0  0  0  0  0  0  0  0  0
   -6.9345    2.4137  -21.4551 H   0  0  0  0  0  0  0  0  0  0  0  0
  1  2  1  0
  2  3  1  0
  3  4  2  0
  3  5  1  0
  5  6  1  0
  6  7  1  0
  8  7  1  6
  8  9  1  0
  9 10  2  0
  9 11  1  0
 11 12  1  0
 12 13  2  0
 13 14  1  0
 14 15  2  0
 15 16  1  0
 16 17  2  0
 17 18  1  0
 18 19  2  0
 19 20  1  0
 20 21  2  0
 20 22  1  0
 19 23  1  0
 18 24  1  0
 17 25  1  0
 15 26  1  0
 13 27  1  0
 11 28  1  0
 28 29  1  0
 29 30  1  0
 30 31  1  0
 31 32  1  0
 32 33  1  0
 33 34  1  0
 33 35  1  0
 33 36  1  0
 32 37  1  0
 37 38  1  0
 37 39  1  0
 37 40  1  0
 32 41  1  0
 30 42  1  0
 30 43  1  0
 29 44  1  1
 28 45  1  0
 28 46  1  0
  8 47  1  0
 47 48  2  0
 48 49  1  0
 49 50  1  0
 49 51  2  0
 51 52  1  0
 52 53  2  0
 53 54  1  0
 54 55  2  0
 52 56  1  0
 51 57  1  0
 48 58  1  0
  7 59  1  0
  7 60  1  0
  5 61  1  0
  5 62  1  0
  2 63  1  0
  1 64  1  0
  1 65  1  0
  1 66  1  0
 54  6  1  0
 29  8  1  0
 53 47  1  0
 21 12  1  0
 21 16  1  0
M  END
>  <cnnaffinities>  (33) 
[6.68565, 6.69958, 6.60504]

>  <score>  (33) 
6.68565

>  <index>  (33) 
34

>  <Smiles>  (33) 
C(N(C(=O)C(N1C([C@@]2(C(=O)N(c3c(nc(c4c(c(c(c(c34)[H])[H])[H])[H])[H])[H])C([C@@]2(C(OC(C([H])([H])[H])(C([H])([H])[H])[H])([H])[H])[H])([H])[H])c2c(c(Cl)c(c(c2C1=O)[H])[H])[H])([H])[H])([H])[H])[H])([H])([H])[H]

>  <h>  (33) 
<NA>

>  <Training>  (33) 
True

>  <Success>  (33) 
True

>  <enamine_searched>  (33) 
False

>  <enamine_id>  (33) 
nan

$$$$

     RDKit          3D

 40 42  0  0  0  0  0  0  0  0999 V2000
   -9.0937   -1.8494  -22.7605 O   0  0  0  0  0  0  0  0  0  0  0  0
   -8.1986   -1.0824  -22.4202 C   0  0  0  0  0  0  0  0  0  0  0  0
   -6.8407   -1.5942  -21.9573 C   0  0  0  0  0  0  0  0  0  0  0  0
   -6.3137   -0.8951  -20.7132 C   0  0  0  0  0  0  0  0  0  0  0  0
   -7.0075   -0.9973  -19.5315 C   0  0  0  0  0  0  0  0  0  0  0  0
   -6.6388   -0.4312  -18.3532 N   0  0  0  0  0  0  0  0  0  0  0  0
   -5.5476    0.2980  -18.3514 C   0  0  0  0  0  0  0  0  0  0  0  0
   -4.7344    0.5204  -19.4978 C   0  0  0  0  0  0  0  0  0  0  0  0
   -3.6064    1.3856  -19.4740 C   0  0  0  0  0  0  0  0  0  0  0  0
   -2.8803    1.6217  -20.6101 C   0  0  0  0  0  0  0  0  0  0  0  0
   -3.2498    1.0058  -21.8245 C   0  0  0  0  0  0  0  0  0  0  0  0
   -4.3374    0.1630  -21.8723 C   0  0  0  0  0  0  0  0  0  0  0  0
   -5.1151   -0.1060  -20.7144 C   0  0  0  0  0  0  0  0  0  0  0  0
   -4.6401   -0.2390  -22.8374 H   0  0  0  0  0  0  0  0  0  0  0  0
   -2.6946    1.2245  -22.7334 H   0  0  0  0  0  0  0  0  0  0  0  0
   -2.0318    2.2999  -20.5937 H   0  0  0  0  0  0  0  0  0  0  0  0
   -3.3591    1.8849  -18.5390 H   0  0  0  0  0  0  0  0  0  0  0  0
   -5.2681    0.7634  -17.4043 H   0  0  0  0  0  0  0  0  0  0  0  0
   -7.9219   -1.5935  -19.4864 H   0  0  0  0  0  0  0  0  0  0  0  0
   -6.1212   -1.5186  -22.7766 H   0  0  0  0  0  0  0  0  0  0  0  0
   -7.0057   -2.6595  -21.7685 H   0  0  0  0  0  0  0  0  0  0  0  0
   -8.2768    0.2791  -22.3936 N   0  0  0  0  0  0  0  0  0  0  0  0
   -9.4820    1.0506  -22.0106 C   0  0  0  0  0  0  0  0  0  0  0  0
   -9.5105    0.8913  -21.8400 C   0  0  0  0  0  0  0  0  0  0  0  0
   -9.0930    2.8738  -23.6825 C   0  0  0  0  0  0  0  0  0  0  0  0
   -8.5345    5.5428  -22.9891 C   0  0  0  0  0  0  0  0  0  0  0  0
   -8.1037    5.1232  -21.8178 F   0  0  0  0  0  0  0  0  0  0  0  0
   -7.5731    6.1658  -23.6374 F   0  0  0  0  0  0  0  0  0  0  0  0
   -9.6035    6.3014  -22.8527 F   0  0  0  0  0  0  0  0  0  0  0  0
   -7.8504    2.4140  -23.6617 C   0  0  0  0  0  0  0  0  0  0  0  0
   -7.3019    1.1138  -23.1443 C   0  0  0  0  0  0  0  0  0  0  0  0
   -6.9057    0.5459  -23.9907 H   0  0  0  0  0  0  0  0  0  0  0  0
   -6.4540    1.3335  -22.4887 H   0  0  0  0  0  0  0  0  0  0  0  0
   -7.0710    3.0685  -24.0486 H   0  0  0  0  0  0  0  0  0  0  0  0
   -9.9450    2.2442  -23.5404 H   0  0  0  0  0  0  0  0  0  0  0  0
   -9.2245    3.9410  -23.8873 H   0  0  0  0  0  0  0  0  0  0  0  0
   -8.8152    1.8909  -21.4104 H   0  0  0  0  0  0  0  0  0  0  0  0
  -10.4220    1.7923  -21.7957 H   0  0  0  0  0  0  0  0  0  0  0  0
  -10.1840    0.5723  -22.8864 H   0  0  0  0  0  0  0  0  0  0  0  0
   -9.9512    0.0050  -20.6318 H   0  0  0  0  0  0  0  0  0  0  0  0
  1  2  2  0
  2  3  1  0
  3  4  1  0
  4  5  2  0
  5  6  1  0
  6  7  2  0
  7  8  1  0
  8  9  2  0
  9 10  1  0
 10 11  2  0
 11 12  1  0
 12 13  2  0
 12 14  1  0
 11 15  1  0
 10 16  1  0
  9 17  1  0
  7 18  1  0
  5 19  1  0
  3 20  1  0
  3 21  1  0
  2 22  1  0
 22 23  1  0
 23 24  1  0
 24 25  1  0
 25 26  1  0
 26 27  1  0
 26 28  1  0
 26 29  1  0
 25 30  1  0
 30 31  1  0
 31 32  1  0
 31 33  1  0
 30 34  1  0
 30 35  1  0
 25 36  1  0
 24 37  1  0
 24 38  1  0
 23 39  1  0
 23 40  1  0
 13  4  1  0
 31 22  1  0
 13  8  1  0
M  END
>  <cnnaffinities>  (34) 
[4.7544, 4.82783]

>  <score>  (34) 
4.7544

>  <index>  (34) 
35

>  <Smiles>  (34) 
O=C(C(c1c(nc(c2c(c(c(c(c12)[H])[H])[H])[H])[H])[H])([H])[H])N1C(C(C(C(F)(F)F)(C(C1([H])[H])([H])[H])[H])([H])[H])([H])[H]

>  <h>  (34) 
<NA>

>  <Training>  (34) 
True

>  <Success>  (34) 
True

>  <enamine_searched>  (34) 
False

>  <enamine_id>  (34) 
nan

$$$$

     RDKit          3D

 47 50  0  0  0  0  0  0  0  0999 V2000
   -8.6847    0.6156  -21.3600 O   0  0  0  0  0  0  0  0  0  0  0  0
   -8.3366   -0.3833  -21.9600 C   0  0  0  0  0  0  0  0  0  0  0  0
   -7.4338   -1.4325  -21.2721 C   0  0  0  0  0  0  0  0  0  0  0  0
   -6.5775   -0.8320  -20.1793 C   0  0  0  0  0  0  0  0  0  0  0  0
   -6.8792   -1.0391  -18.8591 C   0  0  0  0  0  0  0  0  0  0  0  0
   -6.1956   -0.5341  -17.7954 N   0  0  0  0  0  0  0  0  0  0  0  0
   -5.1587    0.2223  -18.0635 C   0  0  0  0  0  0  0  0  0  0  0  0
   -4.7243    0.5334  -19.3803 C   0  0  0  0  0  0  0  0  0  0  0  0
   -3.5986    1.3640  -19.6214 C   0  0  0  0  0  0  0  0  0  0  0  0
   -3.2077    1.6559  -20.9003 C   0  0  0  0  0  0  0  0  0  0  0  0
   -3.9301    1.1263  -21.9933 C   0  0  0  0  0  0  0  0  0  0  0  0
   -5.0226    0.3201  -21.7872 C   0  0  0  0  0  0  0  0  0  0  0  0
   -5.4527   -0.0019  -20.4723 C   0  0  0  0  0  0  0  0  0  0  0  0
   -5.5663   -0.0723  -22.6426 H   0  0  0  0  0  0  0  0  0  0  0  0
   -3.6176    1.3661  -23.0048 H   0  0  0  0  0  0  0  0  0  0  0  0
   -2.3504    2.2987  -21.0864 H   0  0  0  0  0  0  0  0  0  0  0  0
   -3.0606    1.7739  -18.7696 H   0  0  0  0  0  0  0  0  0  0  0  0
   -4.6033    0.6273  -17.2146 H   0  0  0  0  0  0  0  0  0  0  0  0
   -7.7299   -1.6595  -18.5837 H   0  0  0  0  0  0  0  0  0  0  0  0
   -8.0865   -2.1986  -20.8317 H   0  0  0  0  0  0  0  0  0  0  0  0
   -6.8082   -1.9518  -22.0110 H   0  0  0  0  0  0  0  0  0  0  0  0
   -8.6804   -0.6047  -23.2870 N   0  0  0  0  0  0  0  0  0  0  0  0
   -9.1593    0.5338  -24.0696 C   0  0  0  0  0  0  0  0  0  0  0  0
  -10.6770    0.5438  -24.2202 C   0  0  0  0  0  0  0  0  0  0  0  0
  -11.1727   -0.7911  -24.7681 C   0  0  0  0  0  0  0  0  0  0  0  0
  -10.6204   -1.9444  -23.9332 C   0  0  0  0  0  0  0  0  0  0  0  0
   -9.0818   -1.9140  -23.8220 C   0  0  1  0  0  0  0  0  0  0  0  0
   -8.3315   -2.2537  -25.1134 C   0  0  0  0  0  0  0  0  0  0  0  0
   -6.9745   -1.9275  -25.2102 C   0  0  0  0  0  0  0  0  0  0  0  0
   -6.2259   -2.2417  -26.3378 C   0  0  0  0  0  0  0  0  0  0  0  0
   -6.8154   -2.9050  -27.4071 C   0  0  0  0  0  0  0  0  0  0  0  0
   -8.1567   -3.2571  -27.3199 C   0  0  0  0  0  0  0  0  0  0  0  0
   -8.9047   -2.9409  -26.1869 C   0  0  0  0  0  0  0  0  0  0  0  0
   -9.9453   -3.2481  -26.1588 H   0  0  0  0  0  0  0  0  0  0  0  0
   -8.6288   -3.7904  -28.1402 H   0  0  0  0  0  0  0  0  0  0  0  0
   -6.2337   -3.1499  -28.2922 H   0  0  0  0  0  0  0  0  0  0  0  0
   -5.1766   -1.9653  -26.3812 H   0  0  0  0  0  0  0  0  0  0  0  0
   -6.4801   -1.4145  -24.3908 H   0  0  0  0  0  0  0  0  0  0  0  0
   -8.7909   -2.6567  -23.0734 H   0  0  0  0  0  0  0  0  0  0  0  0
  -10.9596   -2.9119  -24.3147 H   0  0  0  0  0  0  0  0  0  0  0  0
  -11.0258   -1.8736  -22.9176 H   0  0  0  0  0  0  0  0  0  0  0  0
  -10.8499   -0.9078  -25.8096 H   0  0  0  0  0  0  0  0  0  0  0  0
  -12.2681   -0.8145  -24.7747 H   0  0  0  0  0  0  0  0  0  0  0  0
  -10.9880    1.3661  -24.8771 H   0  0  0  0  0  0  0  0  0  0  0  0
  -11.1160    0.7402  -23.2373 H   0  0  0  0  0  0  0  0  0  0  0  0
   -8.8055    1.4509  -23.5990 H   0  0  0  0  0  0  0  0  0  0  0  0
   -8.7005    0.4721  -25.0634 H   0  0  0  0  0  0  0  0  0  0  0  0
  1  2  2  0
  2  3  1  0
  3  4  1  0
  4  5  2  0
  5  6  1  0
  6  7  2  0
  7  8  1  0
  8  9  2  0
  9 10  1  0
 10 11  2  0
 11 12  1  0
 12 13  2  0
 12 14  1  0
 11 15  1  0
 10 16  1  0
  9 17  1  0
  7 18  1  0
  5 19  1  0
  3 20  1  0
  3 21  1  0
  2 22  1  0
 22 23  1  0
 23 24  1  0
 24 25  1  0
 25 26  1  0
 26 27  1  0
 27 28  1  0
 28 29  2  0
 29 30  1  0
 30 31  2  0
 31 32  1  0
 32 33  2  0
 33 34  1  0
 32 35  1  0
 31 36  1  0
 30 37  1  0
 29 38  1  0
 27 39  1  1
 26 40  1  0
 26 41  1  0
 25 42  1  0
 25 43  1  0
 24 44  1  0
 24 45  1  0
 23 46  1  0
 23 47  1  0
 13  4  1  0
 27 22  1  0
 33 28  1  0
 13  8  1  0
M  END
>  <cnnaffinities>  (35) 
[5.18059, 5.18061, 5.49315, 5.48845]

>  <score>  (35) 
5.18059

>  <index>  (35) 
36

>  <Smiles>  (35) 
O=C(C(c1c(nc(c2c(c(c(c(c12)[H])[H])[H])[H])[H])[H])([H])[H])N1C(C(C(C([C@]1(c1c(c(c(c(c1[H])[H])[H])[H])[H])[H])([H])[H])([H])[H])([H])[H])([H])[H]

>  <h>  (35) 
<NA>

>  <Training>  (35) 
True

>  <Success>  (35) 
True

>  <enamine_searched>  (35) 
False

>  <enamine_id>  (35) 
nan

$$$$

     RDKit          3D

 56 60  0  0  0  0  0  0  0  0999 V2000
  -14.4985   -1.5584  -23.7159 C   0  0  0  0  0  0  0  0  0  0  0  0
  -13.7902   -2.7213  -23.2365 N   0  0  0  0  0  0  0  0  0  0  0  0
  -13.3925   -2.7555  -21.9436 C   0  0  0  0  0  0  0  0  0  0  0  0
  -13.7412   -1.9306  -21.1166 O   0  0  0  0  0  0  0  0  0  0  0  0
  -12.4865   -3.9258  -21.6099 C   0  0  0  0  0  0  0  0  0  0  0  0
  -11.1692   -3.8361  -22.2208 N   0  0  0  0  0  0  0  0  0  0  0  0
  -10.0416   -3.3461  -21.4435 C   0  0  0  0  0  0  0  0  0  0  0  0
   -8.8350   -2.9116  -22.3057 C   0  0  2  0  0  0  0  0  0  0  0  0
   -7.6357   -2.7250  -21.3655 C   0  0  0  0  0  0  0  0  0  0  0  0
   -7.0035   -3.5998  -20.8132 O   0  0  0  0  0  0  0  0  0  0  0  0
   -7.3778   -1.3744  -21.2377 N   0  0  0  0  0  0  0  0  0  0  0  0
   -6.5750   -0.8743  -20.1849 C   0  0  0  0  0  0  0  0  0  0  0  0
   -6.8974   -1.1113  -18.8711 C   0  0  0  0  0  0  0  0  0  0  0  0
   -6.2369   -0.5713  -17.8154 N   0  0  0  0  0  0  0  0  0  0  0  0
   -5.2133    0.2060  -18.0816 C   0  0  0  0  0  0  0  0  0  0  0  0
   -4.7583    0.5076  -19.3973 C   0  0  0  0  0  0  0  0  0  0  0  0
   -3.6335    1.3394  -19.6296 C   0  0  0  0  0  0  0  0  0  0  0  0
   -3.2279    1.6048  -20.9107 C   0  0  0  0  0  0  0  0  0  0  0  0
   -3.9260    1.0607  -22.0104 C   0  0  0  0  0  0  0  0  0  0  0  0
   -5.0196    0.2545  -21.8118 C   0  0  0  0  0  0  0  0  0  0  0  0
   -5.4593   -0.0369  -20.4913 C   0  0  0  0  0  0  0  0  0  0  0  0
   -5.5490   -0.1701  -22.6579 H   0  0  0  0  0  0  0  0  0  0  0  0
   -3.5971    1.2890  -23.0208 H   0  0  0  0  0  0  0  0  0  0  0  0
   -2.3700    2.2465  -21.0875 H   0  0  0  0  0  0  0  0  0  0  0  0
   -3.1171    1.7595  -18.7728 H   0  0  0  0  0  0  0  0  0  0  0  0
   -4.6813    0.6370  -17.2343 H   0  0  0  0  0  0  0  0  0  0  0  0
   -7.7391   -1.7558  -18.6226 H   0  0  0  0  0  0  0  0  0  0  0  0
   -8.3697   -0.5351  -21.8974 C   0  0  0  0  0  0  0  0  0  0  0  0
   -9.0131   -1.4802  -22.9209 C   0  0  2  0  0  0  0  0  0  0  0  0
  -10.4529   -1.1233  -23.2662 C   0  0  0  0  0  0  0  0  0  0  0  0
  -10.8757   -1.8898  -23.9220 H   0  0  0  0  0  0  0  0  0  0  0  0
  -10.5283   -0.1558  -23.7681 H   0  0  0  0  0  0  0  0  0  0  0  0
  -11.0667   -1.0925  -22.3586 H   0  0  0  0  0  0  0  0  0  0  0  0
   -8.4042   -1.4628  -23.8377 H   0  0  0  0  0  0  0  0  0  0  0  0
   -9.1135   -0.1629  -21.1729 H   0  0  0  0  0  0  0  0  0  0  0  0
   -7.8943    0.3349  -22.3635 H   0  0  0  0  0  0  0  0  0  0  0  0
   -8.5771   -3.9567  -23.3589 C   0  0  0  0  0  0  0  0  0  0  0  0
   -7.3033   -4.1045  -23.9148 C   0  0  0  0  0  0  0  0  0  0  0  0
   -7.0769   -5.0362  -24.9149 C   0  0  0  0  0  0  0  0  0  0  0  0
   -8.1083   -5.8696  -25.3510 C   0  0  0  0  0  0  0  0  0  0  0  0
   -9.3797   -5.7147  -24.8239 C   0  0  0  0  0  0  0  0  0  0  0  0
   -9.6250   -4.7237  -23.8724 C   0  0  0  0  0  0  0  0  0  0  0  0
  -11.0200   -4.4820  -23.4045 C   0  0  0  0  0  0  0  0  0  0  0  0
  -12.0093   -4.8107  -24.0591 O   0  0  0  0  0  0  0  0  0  0  0  0
  -10.1962   -6.3613  -25.1309 H   0  0  0  0  0  0  0  0  0  0  0  0
   -7.9155   -6.6359  -26.1004 H   0  0  0  0  0  0  0  0  0  0  0  0
   -6.0889   -5.1287  -25.3541 H   0  0  0  0  0  0  0  0  0  0  0  0
   -6.4797   -3.5019  -23.5398 H   0  0  0  0  0  0  0  0  0  0  0  0
  -10.3612   -2.4672  -20.8729 H   0  0  0  0  0  0  0  0  0  0  0  0
   -9.7333   -4.1379  -20.7577 H   0  0  0  0  0  0  0  0  0  0  0  0
  -12.4229   -4.0641  -20.5306 H   0  0  0  0  0  0  0  0  0  0  0  0
  -12.9801   -4.7832  -22.0638 H   0  0  0  0  0  0  0  0  0  0  0  0
  -13.4355   -3.4339  -23.8631 H   0  0  0  0  0  0  0  0  0  0  0  0
  -13.8543   -0.6718  -23.7168 H   0  0  0  0  0  0  0  0  0  0  0  0
  -15.3496   -1.3536  -23.0649 H   0  0  0  0  0  0  0  0  0  0  0  0
  -14.8516   -1.7400  -24.7299 H   0  0  0  0  0  0  0  0  0  0  0  0
  1  2  1  0
  2  3  1  0
  3  4  2  0
  3  5  1  0
  5  6  1  0
  6  7  1  0
  8  7  1  1
  8  9  1  0
  9 10  2  0
  9 11  1  0
 11 12  1  0
 12 13  2  0
 13 14  1  0
 14 15  2  0
 15 16  1  0
 16 17  2  0
 17 18  1  0
 18 19  2  0
 19 20  1  0
 20 21  2  0
 20 22  1  0
 19 23  1  0
 18 24  1  0
 17 25  1  0
 15 26  1  0
 13 27  1  0
 11 28  1  0
 28 29  1  0
 29 30  1  0
 30 31  1  0
 30 32  1  0
 30 33  1  0
 29 34  1  6
 28 35  1  0
 28 36  1  0
  8 37  1  0
 37 38  2  0
 38 39  1  0
 39 40  2  0
 40 41  1  0
 41 42  2  0
 42 43  1  0
 43 44  2  0
 41 45  1  0
 40 46  1  0
 39 47  1  0
 38 48  1  0
  7 49  1  0
  7 50  1  0
  5 51  1  0
  5 52  1  0
  2 53  1  0
  1 54  1  0
  1 55  1  0
  1 56  1  0
 43  6  1  0
 29  8  1  0
 42 37  1  0
 21 12  1  0
 21 16  1  0
M  END
>  <cnnaffinities>  (36) 
[6.23811]

>  <score>  (36) 
6.23811

>  <index>  (36) 
37

>  <Smiles>  (36) 
C(N(C(=O)C(N1C([C@@]2(C(=O)N(c3c(nc(c4c(c(c(c(c34)[H])[H])[H])[H])[H])[H])C([C@@]2(C([H])([H])[H])[H])([H])[H])c2c(c(c(c(c2C1=O)[H])[H])[H])[H])([H])[H])([H])[H])[H])([H])([H])[H]

>  <h>  (36) 
<NA>

>  <Training>  (36) 
True

>  <Success>  (36) 
True

>  <enamine_searched>  (36) 
False

>  <enamine_id>  (36) 
nan

$$$$

     RDKit          3D

 46 48  0  0  0  0  0  0  0  0999 V2000
   -8.1590   -4.6948  -26.5424 C   0  0  0  0  0  0  0  0  0  0  0  0
   -8.6551   -4.9601  -25.1186 C   0  0  1  0  0  0  0  0  0  0  0  0
   -7.5928   -5.5253  -24.1813 C   0  0  0  0  0  0  0  0  0  0  0  0
   -6.6212   -4.5199  -23.5554 C   0  0  1  0  0  0  0  0  0  0  0  0
   -5.4314   -4.1615  -24.4544 C   0  0  0  0  0  0  0  0  0  0  0  0
   -4.6477   -3.7074  -23.8543 H   0  0  0  0  0  0  0  0  0  0  0  0
   -5.6775   -3.4344  -25.2295 H   0  0  0  0  0  0  0  0  0  0  0  0
   -5.0170   -5.0558  -24.9393 H   0  0  0  0  0  0  0  0  0  0  0  0
   -7.3264   -3.3399  -23.0127 N   0  0  0  0  0  0  0  0  0  0  0  0
   -6.7213   -2.7062  -21.9378 C   0  0  0  0  0  0  0  0  0  0  0  0
   -5.6725   -3.1227  -21.4713 O   0  0  0  0  0  0  0  0  0  0  0  0
   -7.4056   -1.4724  -21.2817 C   0  0  0  0  0  0  0  0  0  0  0  0
   -6.5772   -0.8358  -20.1850 C   0  0  0  0  0  0  0  0  0  0  0  0
   -6.8730   -1.0479  -18.8639 C   0  0  0  0  0  0  0  0  0  0  0  0
   -6.1920   -0.5414  -17.7986 N   0  0  0  0  0  0  0  0  0  0  0  0
   -5.1600    0.2222  -18.0649 C   0  0  0  0  0  0  0  0  0  0  0  0
   -4.7222    0.5295  -19.3805 C   0  0  0  0  0  0  0  0  0  0  0  0
   -3.5944    1.3568  -19.6226 C   0  0  0  0  0  0  0  0  0  0  0  0
   -3.1928    1.6338  -20.9013 C   0  0  0  0  0  0  0  0  0  0  0  0
   -3.9047    1.0913  -21.9939 C   0  0  0  0  0  0  0  0  0  0  0  0
   -5.0002    0.2890  -21.7867 C   0  0  0  0  0  0  0  0  0  0  0  0
   -5.4450   -0.0145  -20.4737 C   0  0  0  0  0  0  0  0  0  0  0  0
   -5.5350   -0.1230  -22.6374 H   0  0  0  0  0  0  0  0  0  0  0  0
   -3.5810    1.3171  -23.0057 H   0  0  0  0  0  0  0  0  0  0  0  0
   -2.3311    2.2721  -21.0869 H   0  0  0  0  0  0  0  0  0  0  0  0
   -3.0597    1.7722  -18.7706 H   0  0  0  0  0  0  0  0  0  0  0  0
   -4.6047    0.6281  -17.2154 H   0  0  0  0  0  0  0  0  0  0  0  0
   -7.7208   -1.6715  -18.5856 H   0  0  0  0  0  0  0  0  0  0  0  0
   -7.6713   -0.7155  -22.0326 H   0  0  0  0  0  0  0  0  0  0  0  0
   -8.3584   -1.8083  -20.8485 H   0  0  0  0  0  0  0  0  0  0  0  0
   -8.4092   -2.7202  -23.7924 C   0  0  1  0  0  0  0  0  0  0  0  0
   -7.9391   -1.6601  -24.8001 C   0  0  0  0  0  0  0  0  0  0  0  0
   -7.4434   -2.0881  -25.6756 H   0  0  0  0  0  0  0  0  0  0  0  0
   -8.7981   -1.0854  -25.1698 H   0  0  0  0  0  0  0  0  0  0  0  0
   -7.2435   -0.9493  -24.3435 H   0  0  0  0  0  0  0  0  0  0  0  0
   -9.3288   -3.7776  -24.4234 C   0  0  0  0  0  0  0  0  0  0  0  0
   -9.9787   -4.1705  -23.6346 H   0  0  0  0  0  0  0  0  0  0  0  0
   -9.9927   -3.2757  -25.1335 H   0  0  0  0  0  0  0  0  0  0  0  0
   -9.0306   -2.1953  -23.0613 H   0  0  0  0  0  0  0  0  0  0  0  0
   -6.1941   -5.0151  -22.6813 H   0  0  0  0  0  0  0  0  0  0  0  0
   -8.0925   -6.0545  -23.3652 H   0  0  0  0  0  0  0  0  0  0  0  0
   -7.0116   -6.2855  -24.7135 H   0  0  0  0  0  0  0  0  0  0  0  0
   -9.4283   -5.7364  -25.2231 H   0  0  0  0  0  0  0  0  0  0  0  0
   -7.9239   -5.6401  -27.0471 H   0  0  0  0  0  0  0  0  0  0  0  0
   -8.9305   -4.1942  -27.1385 H   0  0  0  0  0  0  0  0  0  0  0  0
   -7.2558   -4.0807  -26.5812 H   0  0  0  0  0  0  0  0  0  0  0  0
  1  2  1  0
  2  3  1  0
  3  4  1  0
  4  5  1  0
  5  6  1  0
  5  7  1  0
  5  8  1  0
  4  9  1  0
  9 10  1  0
 10 11  2  0
 10 12  1  0
 12 13  1  0
 13 14  2  0
 14 15  1  0
 15 16  2  0
 16 17  1  0
 17 18  2  0
 18 19  1  0
 19 20  2  0
 20 21  1  0
 21 22  2  0
 21 23  1  0
 20 24  1  0
 19 25  1  0
 18 26  1  0
 16 27  1  0
 14 28  1  0
 12 29  1  0
 12 30  1  0
  9 31  1  0
 31 32  1  0
 32 33  1  0
 32 34  1  0
 32 35  1  0
 31 36  1  0
 36 37  1  0
 36 38  1  0
 31 39  1  1
  4 40  1  1
  3 41  1  0
  3 42  1  0
  2 43  1  6
  1 44  1  0
  1 45  1  0
  1 46  1  0
 36  2  1  0
 22 13  1  0
 22 17  1  0
M  END
>  <cnnaffinities>  (37) 
[5.05316]

>  <score>  (37) 
5.05316

>  <index>  (37) 
38

>  <Smiles>  (37) 
C([C@]1(C([C@@](C([H])([H])[H])(N(C(=O)C(c2c(nc(c3c(c(c(c(c23)[H])[H])[H])[H])[H])[H])([H])[H])[C@@](C([H])([H])[H])(C1([H])[H])[H])[H])([H])[H])[H])([H])([H])[H]

>  <h>  (37) 
<NA>

>  <Training>  (37) 
True

>  <Success>  (37) 
True

>  <enamine_searched>  (37) 
False

>  <enamine_id>  (37) 
nan

$$$$

     RDKit          3D

 40 44  0  0  0  0  0  0  0  0999 V2000
   -7.2319    0.9543  -25.6021 C   0  0  0  0  0  0  0  0  0  0  0  0
   -6.5004   -0.3687  -25.4067 C   0  0  0  0  0  0  0  0  0  0  0  0
   -5.2985   -0.4685  -25.5814 O   0  0  0  0  0  0  0  0  0  0  0  0
   -7.2553   -1.4520  -25.0434 N   0  0  0  0  0  0  0  0  0  0  0  0
   -6.6458   -2.7648  -24.7205 C   0  0  0  0  0  0  0  0  0  0  0  0
   -7.8232   -3.4991  -24.0345 C   0  0  2  0  0  0  0  0  0  0  0  0
   -8.9949   -2.9685  -24.8670 C   0  0  0  0  0  0  0  0  0  0  0  0
   -8.6588   -1.5014  -24.5571 C   0  0  1  0  0  0  0  0  0  0  0  0
   -8.5977   -1.5852  -23.0820 C   0  0  0  0  0  0  0  0  0  0  0  0
   -8.1599   -0.6185  -22.1221 C   0  0  0  0  0  0  0  0  0  0  0  0
   -8.3101    0.5815  -22.0791 O   0  0  0  0  0  1  0  0  0  0  0  0
   -7.4066   -1.4000  -21.1895 N   0  0  0  0  0  0  0  0  0  0  0  0
   -6.5881   -0.8212  -20.1743 C   0  0  0  0  0  0  0  0  0  0  0  0
   -6.8834   -1.0546  -18.8569 C   0  0  0  0  0  0  0  0  0  0  0  0
   -6.1924   -0.5410  -17.8063 N   0  0  0  0  0  0  0  0  0  0  0  0
   -5.1616    0.2234  -18.0689 C   0  0  0  0  0  0  0  0  0  0  0  0
   -4.7226    0.5336  -19.3882 C   0  0  0  0  0  0  0  0  0  0  0  0
   -3.5895    1.3597  -19.6291 C   0  0  0  0  0  0  0  0  0  0  0  0
   -3.1896    1.6258  -20.9093 C   0  0  0  0  0  0  0  0  0  0  0  0
   -3.8930    1.0751  -22.0039 C   0  0  0  0  0  0  0  0  0  0  0  0
   -4.9853    0.2729  -21.7956 C   0  0  0  0  0  0  0  0  0  0  0  0
   -5.4443   -0.0075  -20.4798 C   0  0  0  0  0  0  0  0  0  0  0  0
   -5.5106   -0.1540  -22.6456 H   0  0  0  0  0  0  0  0  0  0  0  0
   -3.5715    1.2857  -23.0202 H   0  0  0  0  0  0  0  0  0  0  0  0
   -2.3287    2.2613  -21.0998 H   0  0  0  0  0  0  0  0  0  0  0  0
   -3.0537    1.7768  -18.7791 H   0  0  0  0  0  0  0  0  0  0  0  0
   -4.6064    0.6253  -17.2175 H   0  0  0  0  0  0  0  0  0  0  0  0
   -7.7368   -1.6752  -18.5988 H   0  0  0  0  0  0  0  0  0  0  0  0
   -7.2467   -2.7318  -21.6326 C   0  0  0  0  0  0  0  0  0  0  0  0
   -6.5174   -3.5749  -21.1653 O   0  0  0  0  0  0  0  0  0  0  0  0
   -8.0967   -2.8216  -22.7425 N   0  0  0  0  0  0  0  0  0  0  0  0
   -9.2951   -0.7201  -24.9734 H   0  0  0  0  0  0  0  0  0  0  0  0
   -9.9607   -3.2814  -24.4787 H   0  0  0  0  0  0  0  0  0  0  0  0
   -8.9156   -3.2081  -25.9299 H   0  0  0  0  0  0  0  0  0  0  0  0
   -7.7301   -4.5734  -23.9233 H   0  0  0  0  0  0  0  0  0  0  0  0
   -5.7864   -2.6788  -24.0515 H   0  0  0  0  0  0  0  0  0  0  0  0
   -6.3242   -3.2732  -25.6336 H   0  0  0  0  0  0  0  0  0  0  0  0
   -6.4988    1.6969  -25.9132 H   0  0  0  0  0  0  0  0  0  0  0  0
   -7.7136    1.2974  -24.6826 H   0  0  0  0  0  0  0  0  0  0  0  0
   -7.9968    0.8941  -26.3819 H   0  0  0  0  0  0  0  0  0  0  0  0
  1  2  1  0
  2  3  2  0
  2  4  1  0
  4  5  1  0
  5  6  1  0
  6  7  1  0
  7  8  1  0
  8  9  1  0
  9 10  2  0
 10 11  1  0
 10 12  1  0
 12 13  1  0
 13 14  2  0
 14 15  1  0
 15 16  2  0
 16 17  1  0
 17 18  2  0
 18 19  1  0
 19 20  2  0
 20 21  1  0
 21 22  2  0
 21 23  1  0
 20 24  1  0
 19 25  1  0
 18 26  1  0
 16 27  1  0
 14 28  1  0
 12 29  1  0
 29 30  2  0
 29 31  1  0
  8 32  1  1
  7 33  1  0
  7 34  1  0
  6 35  1  1
  5 36  1  0
  5 37  1  0
  1 38  1  0
  1 39  1  0
  1 40  1  0
  8  4  1  0
 31  9  1  0
 31  6  1  0
 22 13  1  0
 22 17  1  0
M  CHG  1  11  -1
M  END
>  <cnnaffinities>  (38) 
[5.2037, 5.16407, 5.22502, 4.99828]

>  <score>  (38) 
5.2037

>  <index>  (38) 
39

>  <Smiles>  (38) 
C(C(=O)N1C([C@@]2(C([C@]1(c1c([O-])n(c3c(nc(c4c(c(c(c(c34)[H])[H])[H])[H])[H])[H])c(=O)n21)[H])([H])[H])[H])([H])[H])([H])([H])[H]

>  <h>  (38) 
<NA>

>  <Training>  (38) 
True

>  <Success>  (38) 
True

>  <enamine_searched>  (38) 
False

>  <enamine_id>  (38) 
nan

$$$$

     RDKit          3D

 40 42  0  0  0  0  0  0  0  0999 V2000
   -6.4969    1.4267  -26.8582 C   0  0  0  0  0  0  0  0  0  0  0  0
   -7.5009    1.0190  -25.7824 C   0  0  0  0  0  0  0  0  0  0  0  0
   -7.3101   -0.4350  -25.3653 C   0  0  0  0  0  0  0  0  0  0  0  0
   -8.2780   -0.8313  -24.2609 C   0  0  0  0  0  0  0  0  0  0  0  0
   -8.1749    0.0874  -23.1319 N   0  0  0  0  0  0  0  0  0  0  0  0
   -8.3756   -0.3123  -21.8070 C   0  0  0  0  0  0  0  0  0  0  0  0
   -9.1751    0.2286  -21.0752 O   0  0  0  0  0  0  0  0  0  0  0  0
   -7.4431   -1.4117  -21.2714 C   0  0  0  0  0  0  0  0  0  0  0  0
   -6.5705   -0.8348  -20.1745 C   0  0  0  0  0  0  0  0  0  0  0  0
   -6.8772   -1.0407  -18.8544 C   0  0  0  0  0  0  0  0  0  0  0  0
   -6.1926   -0.5338  -17.7934 N   0  0  0  0  0  0  0  0  0  0  0  0
   -5.1568    0.2231  -18.0639 C   0  0  0  0  0  0  0  0  0  0  0  0
   -4.7230    0.5348  -19.3802 C   0  0  0  0  0  0  0  0  0  0  0  0
   -3.6019    1.3691  -19.6225 C   0  0  0  0  0  0  0  0  0  0  0  0
   -3.2123    1.6632  -20.9011 C   0  0  0  0  0  0  0  0  0  0  0  0
   -3.9319    1.1288  -21.9945 C   0  0  0  0  0  0  0  0  0  0  0  0
   -5.0190    0.3162  -21.7854 C   0  0  0  0  0  0  0  0  0  0  0  0
   -5.4494   -0.0026  -20.4709 C   0  0  0  0  0  0  0  0  0  0  0  0
   -5.5532   -0.0867  -22.6387 H   0  0  0  0  0  0  0  0  0  0  0  0
   -3.6163    1.3669  -23.0064 H   0  0  0  0  0  0  0  0  0  0  0  0
   -2.3584    2.3102  -21.0849 H   0  0  0  0  0  0  0  0  0  0  0  0
   -3.0656    1.7806  -18.7706 H   0  0  0  0  0  0  0  0  0  0  0  0
   -4.6029    0.6282  -17.2149 H   0  0  0  0  0  0  0  0  0  0  0  0
   -7.7290   -1.6608  -18.5809 H   0  0  0  0  0  0  0  0  0  0  0  0
   -8.0699   -2.2034  -20.8442 H   0  0  0  0  0  0  0  0  0  0  0  0
   -6.8340   -1.8483  -22.0730 H   0  0  0  0  0  0  0  0  0  0  0  0
   -8.3908    1.4915  -23.4641 C   0  0  0  0  0  0  0  0  0  0  0  0
   -7.4153    1.9212  -24.5561 C   0  0  0  0  0  0  0  0  0  0  0  0
   -7.6020    2.9617  -24.8414 H   0  0  0  0  0  0  0  0  0  0  0  0
   -6.3938    1.8968  -24.1548 H   0  0  0  0  0  0  0  0  0  0  0  0
   -9.4241    1.6920  -23.7873 H   0  0  0  0  0  0  0  0  0  0  0  0
   -8.2317    2.0722  -22.5556 H   0  0  0  0  0  0  0  0  0  0  0  0
   -8.0797   -1.8417  -23.9072 H   0  0  0  0  0  0  0  0  0  0  0  0
   -9.3010   -0.8426  -24.6775 H   0  0  0  0  0  0  0  0  0  0  0  0
   -7.4337   -1.0952  -26.2312 H   0  0  0  0  0  0  0  0  0  0  0  0
   -6.2848   -0.5782  -25.0068 H   0  0  0  0  0  0  0  0  0  0  0  0
   -8.5118    1.1205  -26.2009 H   0  0  0  0  0  0  0  0  0  0  0  0
   -5.4703    1.3392  -26.4823 H   0  0  0  0  0  0  0  0  0  0  0  0
   -6.5759    0.7869  -27.7448 H   0  0  0  0  0  0  0  0  0  0  0  0
   -6.6430    2.4657  -27.1750 H   0  0  0  0  0  0  0  0  0  0  0  0
  1  2  1  0
  2  3  1  0
  3  4  1  0
  4  5  1  0
  5  6  1  0
  6  7  2  0
  6  8  1  0
  8  9  1  0
  9 10  2  0
 10 11  1  0
 11 12  2  0
 12 13  1  0
 13 14  2  0
 14 15  1  0
 15 16  2  0
 16 17  1  0
 17 18  2  0
 17 19  1  0
 16 20  1  0
 15 21  1  0
 14 22  1  0
 12 23  1  0
 10 24  1  0
  8 25  1  0
  8 26  1  0
  5 27  1  0
 27 28  1  0
 28 29  1  0
 28 30  1  0
 27 31  1  0
 27 32  1  0
  4 33  1  0
  4 34  1  0
  3 35  1  0
  3 36  1  0
  2 37  1  0
  1 38  1  0
  1 39  1  0
  1 40  1  0
 28  2  1  0
 18  9  1  0
 18 13  1  0
M  END
>  <cnnaffinities>  (39) 
[4.64866, 4.64867, 4.37274, 4.60798, 4.637, 4.63708, 4.69248, 4.97246]

>  <score>  (39) 
4.64866

>  <index>  (39) 
40

>  <Smiles>  (39) 
C(C1(C(C(N(C(=O)C(c2c(nc(c3c(c(c(c(c23)[H])[H])[H])[H])[H])[H])([H])[H])C(C1([H])[H])([H])[H])([H])[H])([H])[H])[H])([H])([H])[H]

>  <h>  (39) 
<NA>

>  <Training>  (39) 
True

>  <Success>  (39) 
True

>  <enamine_searched>  (39) 
False

>  <enamine_id>  (39) 
nan

$$$$

     RDKit          3D

 67 71  0  0  0  0  0  0  0  0999 V2000
   -7.5975    3.0249  -21.9942 C   0  0  0  0  0  0  0  0  0  0  0  0
   -8.7455    2.5079  -22.7259 N   0  0  0  0  0  0  0  0  0  0  0  0
   -8.5025    1.7117  -23.8045 C   0  0  0  0  0  0  0  0  0  0  0  0
   -7.3611    1.4332  -24.1486 O   0  0  0  0  0  0  0  0  0  0  0  0
   -9.7031    1.1358  -24.5700 C   0  0  0  0  0  0  0  0  0  0  0  0
  -10.1455   -0.0965  -23.9491 N   0  0  0  0  0  0  0  0  0  0  0  0
   -9.2414   -1.2389  -23.9138 C   0  0  0  0  0  0  0  0  0  0  0  0
   -9.3019   -1.9687  -22.5424 C   0  0  2  0  0  0  0  0  0  0  0  0
   -8.7115   -1.0213  -21.4596 C   0  0  0  0  0  0  0  0  0  0  0  0
   -9.2446   -0.0429  -20.9681 O   0  0  0  0  0  0  0  0  0  0  0  0
   -7.4224   -1.4280  -21.1759 N   0  0  0  0  0  0  0  0  0  0  0  0
   -6.6444   -0.8220  -20.1570 C   0  0  0  0  0  0  0  0  0  0  0  0
   -6.9533   -1.0422  -18.8348 C   0  0  0  0  0  0  0  0  0  0  0  0
   -6.2457   -0.5463  -17.7911 N   0  0  0  0  0  0  0  0  0  0  0  0
   -5.2023    0.1972  -18.0712 C   0  0  0  0  0  0  0  0  0  0  0  0
   -4.7673    0.5030  -19.3913 C   0  0  0  0  0  0  0  0  0  0  0  0
   -3.6466    1.3399  -19.6347 C   0  0  0  0  0  0  0  0  0  0  0  0
   -3.2694    1.6402  -20.9151 C   0  0  0  0  0  0  0  0  0  0  0  0
   -4.0038    1.1338  -22.0107 C   0  0  0  0  0  0  0  0  0  0  0  0
   -5.1064    0.3340  -21.8021 C   0  0  0  0  0  0  0  0  0  0  0  0
   -5.5073   -0.0159  -20.4810 C   0  0  0  0  0  0  0  0  0  0  0  0
   -5.7051    0.0208  -22.6540 H   0  0  0  0  0  0  0  0  0  0  0  0
   -3.7065    1.3877  -23.0244 H   0  0  0  0  0  0  0  0  0  0  0  0
   -2.4138    2.2860  -21.0974 H   0  0  0  0  0  0  0  0  0  0  0  0
   -3.1139    1.7449  -18.7787 H   0  0  0  0  0  0  0  0  0  0  0  0
   -4.6389    0.6032  -17.2309 H   0  0  0  0  0  0  0  0  0  0  0  0
   -7.8114   -1.6608  -18.5807 H   0  0  0  0  0  0  0  0  0  0  0  0
   -6.9762   -2.5593  -21.9638 C   0  0  0  0  0  0  0  0  0  0  0  0
   -8.3032   -3.1637  -22.4584 C   0  0  2  0  0  0  0  0  0  0  0  0
   -8.1730   -3.9604  -23.7515 C   0  0  0  0  0  0  0  0  0  0  0  0
   -7.0748   -5.3619  -23.5871 S   0  0  0  0  0  0  0  0  0  0  0  0
   -5.7040   -4.8683  -23.6165 O   0  0  0  0  0  0  0  0  0  0  0  0
   -7.5427   -6.1839  -22.4789 O   0  0  0  0  0  0  0  0  0  0  0  0
   -7.3361   -6.1961  -24.9968 N   0  0  0  0  0  0  0  0  0  0  0  0
   -8.6020   -6.8929  -25.1655 C   0  0  0  0  0  0  0  0  0  0  0  0
   -9.4419   -6.2402  -25.4413 H   0  0  0  0  0  0  0  0  0  0  0  0
   -8.4850   -7.6325  -25.9611 H   0  0  0  0  0  0  0  0  0  0  0  0
   -8.8531   -7.4235  -24.2481 H   0  0  0  0  0  0  0  0  0  0  0  0
   -6.7260   -5.6533  -26.1983 C   0  0  0  0  0  0  0  0  0  0  0  0
   -7.2860   -4.8162  -26.6375 H   0  0  0  0  0  0  0  0  0  0  0  0
   -6.6605   -6.4505  -26.9415 H   0  0  0  0  0  0  0  0  0  0  0  0
   -5.7163   -5.3209  -25.9582 H   0  0  0  0  0  0  0  0  0  0  0  0
   -9.1591   -4.3282  -24.0545 H   0  0  0  0  0  0  0  0  0  0  0  0
   -7.7549   -3.3346  -24.5478 H   0  0  0  0  0  0  0  0  0  0  0  0
   -8.6386   -3.8344  -21.6612 H   0  0  0  0  0  0  0  0  0  0  0  0
   -6.3366   -2.2380  -22.7987 H   0  0  0  0  0  0  0  0  0  0  0  0
   -6.3931   -3.2674  -21.3680 H   0  0  0  0  0  0  0  0  0  0  0  0
  -10.7740   -2.2904  -22.2986 C   0  0  0  0  0  0  0  0  0  0  0  0
  -11.2098   -3.4102  -21.5777 C   0  0  0  0  0  0  0  0  0  0  0  0
  -12.5356   -3.4838  -21.1847 C   0  0  0  0  0  0  0  0  0  0  0  0
  -12.9034   -4.3658  -20.2447 F   0  0  0  0  0  0  0  0  0  0  0  0
  -13.5141   -2.6077  -21.6227 C   0  0  0  0  0  0  0  0  0  0  0  0
  -13.1165   -1.5687  -22.4290 C   0  0  0  0  0  0  0  0  0  0  0  0
  -11.7656   -1.3873  -22.7217 C   0  0  0  0  0  0  0  0  0  0  0  0
  -11.4268   -0.1613  -23.4925 C   0  0  0  0  0  0  0  0  0  0  0  0
  -12.2573    0.7179  -23.7014 O   0  0  0  0  0  0  0  0  0  0  0  0
  -13.8316   -0.8596  -22.8313 H   0  0  0  0  0  0  0  0  0  0  0  0
  -14.5364   -2.7334  -21.2859 H   0  0  0  0  0  0  0  0  0  0  0  0
  -10.5335   -4.1709  -21.2067 H   0  0  0  0  0  0  0  0  0  0  0  0
   -9.5028   -1.9415  -24.7185 H   0  0  0  0  0  0  0  0  0  0  0  0
   -8.2344   -0.8562  -24.1015 H   0  0  0  0  0  0  0  0  0  0  0  0
   -9.4144    0.9556  -25.6166 H   0  0  0  0  0  0  0  0  0  0  0  0
  -10.5634    1.8094  -24.5711 H   0  0  0  0  0  0  0  0  0  0  0  0
   -9.6088    2.3710  -22.2164 H   0  0  0  0  0  0  0  0  0  0  0  0
   -7.9106    3.7556  -21.2510 H   0  0  0  0  0  0  0  0  0  0  0  0
   -7.0419    2.2214  -21.4982 H   0  0  0  0  0  0  0  0  0  0  0  0
   -6.9245    3.5322  -22.6853 H   0  0  0  0  0  0  0  0  0  0  0  0
  1  2  1  0
  2  3  1  0
  3  4  2  0
  3  5  1  0
  5  6  1  0
  6  7  1  0
  8  7  1  6
  8  9  1  0
  9 10  2  0
  9 11  1  0
 11 12  1  0
 12 13  2  0
 13 14  1  0
 14 15  2  0
 15 16  1  0
 16 17  2  0
 17 18  1  0
 18 19  2  0
 19 20  1  0
 20 21  2  0
 20 22  1  0
 19 23  1  0
 18 24  1  0
 17 25  1  0
 15 26  1  0
 13 27  1  0
 11 28  1  0
 28 29  1  0
 29 30  1  0
 30 31  1  0
 31 32  2  0
 31 33  2  0
 31 34  1  0
 34 35  1  0
 35 36  1  0
 35 37  1  0
 35 38  1  0
 34 39  1  0
 39 40  1  0
 39 41  1  0
 39 42  1  0
 30 43  1  0
 30 44  1  0
 29 45  1  1
 28 46  1  0
 28 47  1  0
  8 48  1  0
 48 49  2  0
 49 50  1  0
 50 51  1  0
 50 52  2  0
 52 53  1  0
 53 54  2  0
 54 55  1  0
 55 56  2  0
 53 57  1  0
 52 58  1  0
 49 59  1  0
  7 60  1  0
  7 61  1  0
  5 62  1  0
  5 63  1  0
  2 64  1  0
  1 65  1  0
  1 66  1  0
  1 67  1  0
 55  6  1  0
 29  8  1  0
 54 48  1  0
 21 12  1  0
 21 16  1  0
M  END
>  <cnnaffinities>  (40) 
[7.07525]

>  <score>  (40) 
7.07525

>  <index>  (40) 
41

>  <Smiles>  (40) 
C(N(C(=O)C(N1C([C@@]2(C(=O)N(c3c(nc(c4c(c(c(c(c34)[H])[H])[H])[H])[H])[H])C([C@@]2(C(S(=O)(=O)N(C([H])([H])[H])C([H])([H])[H])([H])[H])[H])([H])[H])c2c(c(F)c(c(c2C1=O)[H])[H])[H])([H])[H])([H])[H])[H])([H])([H])[H]

>  <h>  (40) 
<NA>

>  <Training>  (40) 
True

>  <Success>  (40) 
True

>  <enamine_searched>  (40) 
False

>  <enamine_id>  (40) 
nan

$$$$

     RDKit          3D

 67 72  0  0  0  0  0  0  0  0999 V2000
   -8.5410    0.5049  -29.6391 C   0  0  0  0  0  0  0  0  0  0  0  0
   -8.3434   -0.6068  -28.7323 N   0  0  0  0  0  0  0  0  0  0  0  0
   -7.6009   -0.4771  -27.6049 C   0  0  0  0  0  0  0  0  0  0  0  0
   -7.1351    0.5895  -27.2292 O   0  0  0  0  0  0  0  0  0  0  0  0
   -7.3360   -1.7960  -26.8506 C   0  0  0  0  0  0  0  0  0  0  0  0
   -8.1748   -1.9324  -25.6590 N   0  0  0  0  0  0  0  0  0  0  0  0
   -7.8187   -1.1983  -24.4524 C   0  0  0  0  0  0  0  0  0  0  0  0
   -8.6521   -1.6278  -23.2168 C   0  0  2  0  0  0  0  0  0  0  0  0
   -8.2286   -0.7034  -22.0573 C   0  0  0  0  0  0  0  0  0  0  0  0
   -8.5297    0.4570  -21.8778 O   0  0  0  0  0  0  0  0  0  0  0  0
   -7.3651   -1.4098  -21.2326 N   0  0  0  0  0  0  0  0  0  0  0  0
   -6.6108   -0.8041  -20.1931 C   0  0  0  0  0  0  0  0  0  0  0  0
   -6.9212   -1.0654  -18.8822 C   0  0  0  0  0  0  0  0  0  0  0  0
   -6.2579   -0.5553  -17.8143 N   0  0  0  0  0  0  0  0  0  0  0  0
   -5.2316    0.2240  -18.0600 C   0  0  0  0  0  0  0  0  0  0  0  0
   -4.7685    0.5435  -19.3688 C   0  0  0  0  0  0  0  0  0  0  0  0
   -3.6272    1.3627  -19.5832 C   0  0  0  0  0  0  0  0  0  0  0  0
   -3.1880    1.6213  -20.8528 C   0  0  0  0  0  0  0  0  0  0  0  0
   -3.8676    1.0782  -21.9657 C   0  0  0  0  0  0  0  0  0  0  0  0
   -4.9789    0.2939  -21.7838 C   0  0  0  0  0  0  0  0  0  0  0  0
   -5.4664    0.0128  -20.4765 C   0  0  0  0  0  0  0  0  0  0  0  0
   -5.4908   -0.1236  -22.6448 H   0  0  0  0  0  0  0  0  0  0  0  0
   -3.5153    1.2906  -22.9708 H   0  0  0  0  0  0  0  0  0  0  0  0
   -2.3202    2.2539  -21.0180 H   0  0  0  0  0  0  0  0  0  0  0  0
   -3.1212    1.7832  -18.7179 H   0  0  0  0  0  0  0  0  0  0  0  0
   -4.7055    0.6372  -17.1993 H   0  0  0  0  0  0  0  0  0  0  0  0
   -7.7594   -1.7215  -18.6504 H   0  0  0  0  0  0  0  0  0  0  0  0
   -7.1351   -2.7814  -21.6514 C   0  0  0  0  0  0  0  0  0  0  0  0
   -8.3294   -3.0165  -22.5765 C   0  0  2  0  0  0  0  0  0  0  0  0
   -8.2446   -4.2104  -23.5174 C   0  0  0  0  0  0  0  0  0  0  0  0
   -7.0031   -4.2922  -24.2350 N   0  0  0  0  0  0  0  0  0  0  0  0
   -5.9630   -5.0783  -23.8506 C   0  0  0  0  0  0  0  0  0  0  0  0
   -6.1372   -6.2341  -22.5484 S   0  0  0  0  0  0  0  0  0  0  0  0
   -4.5360   -6.7788  -22.8834 C   0  0  0  0  0  0  0  0  0  0  0  0
   -3.9230   -6.1540  -23.8329 N   0  0  0  0  0  0  0  0  0  0  0  0
   -4.7235   -5.1894  -24.4152 C   0  0  0  0  0  0  0  0  0  0  0  0
   -4.1705   -4.3822  -25.5583 C   0  0  0  0  0  0  0  0  0  0  0  0
   -4.2407   -3.2953  -25.3984 H   0  0  0  0  0  0  0  0  0  0  0  0
   -4.7005   -4.6009  -26.4955 H   0  0  0  0  0  0  0  0  0  0  0  0
   -3.1147   -4.6390  -25.6994 H   0  0  0  0  0  0  0  0  0  0  0  0
   -4.1287   -7.6051  -22.3172 H   0  0  0  0  0  0  0  0  0  0  0  0
   -6.8704   -3.6318  -24.9851 H   0  0  0  0  0  0  0  0  0  0  0  0
   -9.0693   -4.1733  -24.2363 H   0  0  0  0  0  0  0  0  0  0  0  0
   -8.3728   -5.1262  -22.9385 H   0  0  0  0  0  0  0  0  0  0  0  0
   -9.1927   -3.2027  -21.9233 H   0  0  0  0  0  0  0  0  0  0  0  0
   -7.1273   -3.4475  -20.7819 H   0  0  0  0  0  0  0  0  0  0  0  0
   -6.1720   -2.8999  -22.1755 H   0  0  0  0  0  0  0  0  0  0  0  0
  -10.1210   -1.5709  -23.6011 C   0  0  0  0  0  0  0  0  0  0  0  0
  -11.1128   -1.4287  -22.6223 C   0  0  0  0  0  0  0  0  0  0  0  0
  -12.4524   -1.5116  -22.9809 C   0  0  0  0  0  0  0  0  0  0  0  0
  -13.7192   -1.5027  -21.7877 Cl  0  0  0  0  0  0  0  0  0  0  0  0
  -12.8390   -1.6580  -24.3115 C   0  0  0  0  0  0  0  0  0  0  0  0
  -11.8654   -1.8392  -25.2715 C   0  0  0  0  0  0  0  0  0  0  0  0
  -10.5133   -1.8473  -24.9161 C   0  0  0  0  0  0  0  0  0  0  0  0
   -9.4872   -2.2395  -25.9360 C   0  0  0  0  0  0  0  0  0  0  0  0
   -9.7901   -2.7868  -26.9881 O   0  0  0  0  0  0  0  0  0  0  0  0
  -12.1602   -2.0076  -26.3002 H   0  0  0  0  0  0  0  0  0  0  0  0
  -13.8939   -1.7315  -24.5633 H   0  0  0  0  0  0  0  0  0  0  0  0
  -10.8205   -1.3064  -21.5864 H   0  0  0  0  0  0  0  0  0  0  0  0
   -6.7478   -1.3424  -24.2486 H   0  0  0  0  0  0  0  0  0  0  0  0
   -7.9894   -0.1205  -24.5978 H   0  0  0  0  0  0  0  0  0  0  0  0
   -7.5600   -2.6498  -27.5004 H   0  0  0  0  0  0  0  0  0  0  0  0
   -6.2758   -1.8009  -26.5697 H   0  0  0  0  0  0  0  0  0  0  0  0
   -8.9012   -1.4380  -28.8409 H   0  0  0  0  0  0  0  0  0  0  0  0
   -9.1129    0.1550  -30.5018 H   0  0  0  0  0  0  0  0  0  0  0  0
   -7.5756    0.8841  -29.9882 H   0  0  0  0  0  0  0  0  0  0  0  0
   -9.0709    1.3353  -29.1607 H   0  0  0  0  0  0  0  0  0  0  0  0
  1  2  1  0
  2  3  1  0
  3  4  2  0
  3  5  1  0
  5  6  1  0
  6  7  1  0
  8  7  1  6
  8  9  1  0
  9 10  2  0
  9 11  1  0
 11 12  1  0
 12 13  2  0
 13 14  1  0
 14 15  2  0
 15 16  1  0
 16 17  2  0
 17 18  1  0
 18 19  2  0
 19 20  1  0
 20 21  2  0
 20 22  1  0
 19 23  1  0
 18 24  1  0
 17 25  1  0
 15 26  1  0
 13 27  1  0
 11 28  1  0
 28 29  1  0
 29 30  1  0
 30 31  1  0
 31 32  1  0
 32 33  1  0
 33 34  1  0
 34 35  2  0
 35 36  1  0
 36 37  1  0
 37 38  1  0
 37 39  1  0
 37 40  1  0
 34 41  1  0
 31 42  1  0
 30 43  1  0
 30 44  1  0
 29 45  1  1
 28 46  1  0
 28 47  1  0
  8 48  1  0
 48 49  2  0
 49 50  1  0
 50 51  1  0
 50 52  2  0
 52 53  1  0
 53 54  2  0
 54 55  1  0
 55 56  2  0
 53 57  1  0
 52 58  1  0
 49 59  1  0
  7 60  1  0
  7 61  1  0
  5 62  1  0
  5 63  1  0
  2 64  1  0
  1 65  1  0
  1 66  1  0
  1 67  1  0
 55  6  1  0
 29  8  1  0
 36 32  2  0
 54 48  1  0
 21 12  1  0
 21 16  1  0
M  END
>  <cnnaffinities>  (41) 
[6.59124, 6.80511, 6.91832]

>  <score>  (41) 
6.59124

>  <index>  (41) 
43

>  <Smiles>  (41) 
C(N(C(=O)C(N1C([C@@]2(C(=O)N(c3c(nc(c4c(c(c(c(c34)[H])[H])[H])[H])[H])[H])C([C@@]2(C(N(c2sc(nc2C([H])([H])[H])[H])[H])([H])[H])[H])([H])[H])c2c(c(Cl)c(c(c2C1=O)[H])[H])[H])([H])[H])([H])[H])[H])([H])([H])[H]

>  <h>  (41) 
<NA>

>  <Training>  (41) 
True

>  <Success>  (41) 
True

>  <enamine_searched>  (41) 
False

>  <enamine_id>  (41) 
nan

$$$$

     RDKit          3D

 60 64  0  0  0  0  0  0  0  0999 V2000
  -14.9077   -2.0523  -24.0458 C   0  0  0  0  0  0  0  0  0  0  0  0
  -14.0146   -2.9989  -23.4279 N   0  0  0  0  0  0  0  0  0  0  0  0
  -13.2926   -2.6377  -22.3358 C   0  0  0  0  0  0  0  0  0  0  0  0
  -13.2732   -1.4963  -21.8942 O   0  0  0  0  0  0  0  0  0  0  0  0
  -12.4993   -3.7650  -21.6879 C   0  0  0  0  0  0  0  0  0  0  0  0
  -11.1399   -3.8336  -22.2174 N   0  0  0  0  0  0  0  0  0  0  0  0
  -10.0070   -3.2685  -21.4969 C   0  0  0  0  0  0  0  0  0  0  0  0
   -8.8080   -2.8342  -22.3890 C   0  0  2  0  0  0  0  0  0  0  0  0
   -7.6264   -2.6602  -21.4256 C   0  0  0  0  0  0  0  0  0  0  0  0
   -6.9946   -3.5360  -20.8675 O   0  0  0  0  0  0  0  0  0  0  0  0
   -7.4045   -1.3138  -21.2409 N   0  0  0  0  0  0  0  0  0  0  0  0
   -6.5944   -0.8555  -20.1796 C   0  0  0  0  0  0  0  0  0  0  0  0
   -6.9008   -1.1454  -18.8763 C   0  0  0  0  0  0  0  0  0  0  0  0
   -6.2524   -0.6064  -17.8124 N   0  0  0  0  0  0  0  0  0  0  0  0
   -5.2493    0.2031  -18.0615 C   0  0  0  0  0  0  0  0  0  0  0  0
   -4.7846    0.5272  -19.3713 C   0  0  0  0  0  0  0  0  0  0  0  0
   -3.6616    1.3621  -19.6107 C   0  0  0  0  0  0  0  0  0  0  0  0
   -3.2504    1.6178  -20.8920 C   0  0  0  0  0  0  0  0  0  0  0  0
   -3.9367    1.0593  -21.9942 C   0  0  0  0  0  0  0  0  0  0  0  0
   -5.0263    0.2524  -21.7886 C   0  0  0  0  0  0  0  0  0  0  0  0
   -5.4761   -0.0207  -20.4710 C   0  0  0  0  0  0  0  0  0  0  0  0
   -5.5506   -0.1980  -22.6250 H   0  0  0  0  0  0  0  0  0  0  0  0
   -3.5990    1.2712  -23.0052 H   0  0  0  0  0  0  0  0  0  0  0  0
   -2.3877    2.2520  -21.0731 H   0  0  0  0  0  0  0  0  0  0  0  0
   -3.1356    1.7826  -18.7579 H   0  0  0  0  0  0  0  0  0  0  0  0
   -4.7428    0.6379  -17.1991 H   0  0  0  0  0  0  0  0  0  0  0  0
   -7.7148   -1.8307  -18.6457 H   0  0  0  0  0  0  0  0  0  0  0  0
   -8.3979   -0.4625  -21.8809 C   0  0  0  0  0  0  0  0  0  0  0  0
   -8.9652   -1.3842  -22.9721 C   0  0  2  0  0  0  0  0  0  0  0  0
  -10.3863   -1.0449  -23.3930 C   0  0  0  0  0  0  0  0  0  0  0  0
  -10.4998    0.2208  -24.0029 O   0  0  0  0  0  0  0  0  0  0  0  0
  -11.8689    0.4395  -24.2778 C   0  0  0  0  0  0  0  0  0  0  0  0
  -12.4805    0.2894  -23.3736 H   0  0  0  0  0  0  0  0  0  0  0  0
  -12.2178   -0.2763  -25.0397 H   0  0  0  0  0  0  0  0  0  0  0  0
  -12.0067    1.4571  -24.6536 H   0  0  0  0  0  0  0  0  0  0  0  0
  -10.7393   -1.8178  -24.0916 H   0  0  0  0  0  0  0  0  0  0  0  0
  -11.0527   -1.0590  -22.5193 H   0  0  0  0  0  0  0  0  0  0  0  0
   -8.3074   -1.3222  -23.8481 H   0  0  0  0  0  0  0  0  0  0  0  0
   -9.1620   -0.1445  -21.1504 H   0  0  0  0  0  0  0  0  0  0  0  0
   -7.9299    0.4383  -22.2880 H   0  0  0  0  0  0  0  0  0  0  0  0
   -8.5554   -3.9046  -23.4280 C   0  0  0  0  0  0  0  0  0  0  0  0
   -7.2806   -4.1150  -23.9734 C   0  0  0  0  0  0  0  0  0  0  0  0
   -7.0928   -5.0994  -24.9304 C   0  0  0  0  0  0  0  0  0  0  0  0
   -5.5085   -5.3462  -25.6031 Cl  0  0  0  0  0  0  0  0  0  0  0  0
   -8.1423   -5.8974  -25.3846 C   0  0  0  0  0  0  0  0  0  0  0  0
   -9.4024   -5.6653  -24.8678 C   0  0  0  0  0  0  0  0  0  0  0  0
   -9.6139   -4.6860  -23.9019 C   0  0  0  0  0  0  0  0  0  0  0  0
  -11.0018   -4.4900  -23.3953 C   0  0  0  0  0  0  0  0  0  0  0  0
  -11.9942   -4.8712  -24.0154 O   0  0  0  0  0  0  0  0  0  0  0  0
  -10.2547   -6.2427  -25.2025 H   0  0  0  0  0  0  0  0  0  0  0  0
   -7.9659   -6.6863  -26.1126 H   0  0  0  0  0  0  0  0  0  0  0  0
   -6.4325   -3.5225  -23.6419 H   0  0  0  0  0  0  0  0  0  0  0  0
   -9.6265   -4.0002  -20.7862 H   0  0  0  0  0  0  0  0  0  0  0  0
  -10.3566   -2.4027  -20.9222 H   0  0  0  0  0  0  0  0  0  0  0  0
  -13.0241   -4.6934  -21.9141 H   0  0  0  0  0  0  0  0  0  0  0  0
  -12.4862   -3.6435  -20.6069 H   0  0  0  0  0  0  0  0  0  0  0  0
  -13.7053   -3.8126  -23.9400 H   0  0  0  0  0  0  0  0  0  0  0  0
  -15.3479   -1.4474  -23.2517 H   0  0  0  0  0  0  0  0  0  0  0  0
  -15.6894   -2.5868  -24.5912 H   0  0  0  0  0  0  0  0  0  0  0  0
  -14.3943   -1.3711  -24.7344 H   0  0  0  0  0  0  0  0  0  0  0  0
  1  2  1  0
  2  3  1  0
  3  4  2  0
  3  5  1  0
  5  6  1  0
  6  7  1  0
  8  7  1  1
  8  9  1  0
  9 10  2  0
  9 11  1  0
 11 12  1  0
 12 13  2  0
 13 14  1  0
 14 15  2  0
 15 16  1  0
 16 17  2  0
 17 18  1  0
 18 19  2  0
 19 20  1  0
 20 21  2  0
 20 22  1  0
 19 23  1  0
 18 24  1  0
 17 25  1  0
 15 26  1  0
 13 27  1  0
 11 28  1  0
 28 29  1  0
 29 30  1  0
 30 31  1  0
 31 32  1  0
 32 33  1  0
 32 34  1  0
 32 35  1  0
 30 36  1  0
 30 37  1  0
 29 38  1  6
 28 39  1  0
 28 40  1  0
  8 41  1  0
 41 42  2  0
 42 43  1  0
 43 44  1  0
 43 45  2  0
 45 46  1  0
 46 47  2  0
 47 48  1  0
 48 49  2  0
 46 50  1  0
 45 51  1  0
 42 52  1  0
  7 53  1  0
  7 54  1  0
  5 55  1  0
  5 56  1  0
  2 57  1  0
  1 58  1  0
  1 59  1  0
  1 60  1  0
 48  6  1  0
 29  8  1  0
 47 41  1  0
 21 12  1  0
 21 16  1  0
M  END
>  <cnnaffinities>  (42) 
[6.34702]

>  <score>  (42) 
6.34702

>  <index>  (42) 
44

>  <Smiles>  (42) 
C(N(C(=O)C(N1C([C@@]2(C(=O)N(c3c(nc(c4c(c(c(c(c34)[H])[H])[H])[H])[H])[H])C([C@@]2(C(OC([H])([H])[H])([H])[H])[H])([H])[H])c2c(c(Cl)c(c(c2C1=O)[H])[H])[H])([H])[H])([H])[H])[H])([H])([H])[H]

>  <h>  (42) 
<NA>

>  <Training>  (42) 
True

>  <Success>  (42) 
True

>  <enamine_searched>  (42) 
False

>  <enamine_id>  (42) 
nan

$$$$

     RDKit          3D

 66 71  0  0  0  0  0  0  0  0999 V2000
   -7.3601    3.3668  -21.8581 C   0  0  0  0  0  0  0  0  0  0  0  0
   -8.3101    2.9160  -22.8646 N   0  0  0  0  0  0  0  0  0  0  0  0
   -7.7868    2.1887  -23.8948 C   0  0  0  0  0  0  0  0  0  0  0  0
   -6.5862    2.0036  -24.0271 O   0  0  0  0  0  0  0  0  0  0  0  0
   -8.7814    1.5949  -24.8884 C   0  0  0  0  0  0  0  0  0  0  0  0
   -9.4444    0.4447  -24.3085 N   0  0  0  0  0  0  0  0  0  0  0  0
   -8.6942   -0.7904  -24.1551 C   0  0  0  0  0  0  0  0  0  0  0  0
   -9.0684   -1.5387  -22.8515 C   0  0  2  0  0  0  0  0  0  0  0  0
   -8.5388   -0.7621  -21.6227 C   0  0  0  0  0  0  0  0  0  0  0  0
   -9.0133    0.2401  -21.1180 O   0  0  0  0  0  0  0  0  0  0  0  0
   -7.3987   -1.3879  -21.1815 N   0  0  0  0  0  0  0  0  0  0  0  0
   -6.6022   -0.8162  -20.1650 C   0  0  0  0  0  0  0  0  0  0  0  0
   -6.9287   -1.0370  -18.8530 C   0  0  0  0  0  0  0  0  0  0  0  0
   -6.2355   -0.5446  -17.8002 N   0  0  0  0  0  0  0  0  0  0  0  0
   -5.1916    0.2038  -18.0717 C   0  0  0  0  0  0  0  0  0  0  0  0
   -4.7498    0.5221  -19.3889 C   0  0  0  0  0  0  0  0  0  0  0  0
   -3.6247    1.3550  -19.6306 C   0  0  0  0  0  0  0  0  0  0  0  0
   -3.2400    1.6502  -20.9094 C   0  0  0  0  0  0  0  0  0  0  0  0
   -3.9603    1.1368  -22.0100 C   0  0  0  0  0  0  0  0  0  0  0  0
   -5.0543    0.3294  -21.8052 C   0  0  0  0  0  0  0  0  0  0  0  0
   -5.4728   -0.0037  -20.4853 C   0  0  0  0  0  0  0  0  0  0  0  0
   -5.6192   -0.0259  -22.6626 H   0  0  0  0  0  0  0  0  0  0  0  0
   -3.6603    1.3911  -23.0219 H   0  0  0  0  0  0  0  0  0  0  0  0
   -2.3799    2.2875  -21.0847 H   0  0  0  0  0  0  0  0  0  0  0  0
   -3.0937    1.7578  -18.7726 H   0  0  0  0  0  0  0  0  0  0  0  0
   -4.6312    0.6025  -17.2257 H   0  0  0  0  0  0  0  0  0  0  0  0
   -7.7968   -1.6489  -18.6224 H   0  0  0  0  0  0  0  0  0  0  0  0
   -7.0298   -2.5683  -21.9308 C   0  0  0  0  0  0  0  0  0  0  0  0
   -8.2976   -2.8982  -22.7321 C   0  0  2  0  0  0  0  0  0  0  0  0
   -7.9783   -3.6513  -24.0432 C   0  0  0  0  0  0  0  0  0  0  0  0
   -7.3566   -5.0220  -23.8596 C   0  0  0  0  0  0  0  0  0  0  0  0
   -5.9741   -5.2357  -23.7838 C   0  0  0  0  0  0  0  0  0  0  0  0
   -5.4583   -6.5034  -23.5195 C   0  0  0  0  0  0  0  0  0  0  0  0
   -6.3036   -7.5934  -23.3485 C   0  0  0  0  0  0  0  0  0  0  0  0
   -7.6703   -7.4105  -23.5049 C   0  0  0  0  0  0  0  0  0  0  0  0
   -8.1828   -6.1436  -23.7690 C   0  0  0  0  0  0  0  0  0  0  0  0
   -9.2598   -6.0485  -23.9043 H   0  0  0  0  0  0  0  0  0  0  0  0
   -8.3611   -8.2481  -23.4306 H   0  0  0  0  0  0  0  0  0  0  0  0
   -5.8972   -8.5715  -23.1011 H   0  0  0  0  0  0  0  0  0  0  0  0
   -4.3858   -6.6548  -23.4520 H   0  0  0  0  0  0  0  0  0  0  0  0
   -5.2809   -4.4109  -23.9403 H   0  0  0  0  0  0  0  0  0  0  0  0
   -8.9106   -3.7745  -24.6071 H   0  0  0  0  0  0  0  0  0  0  0  0
   -7.3103   -3.0330  -24.6543 H   0  0  0  0  0  0  0  0  0  0  0  0
   -8.9155   -3.5584  -22.1185 H   0  0  0  0  0  0  0  0  0  0  0  0
   -6.7469   -3.3820  -21.2549 H   0  0  0  0  0  0  0  0  0  0  0  0
   -6.1781   -2.3804  -22.6052 H   0  0  0  0  0  0  0  0  0  0  0  0
  -10.5806   -1.6189  -22.7888 C   0  0  0  0  0  0  0  0  0  0  0  0
  -11.2059   -2.5538  -21.9639 C   0  0  0  0  0  0  0  0  0  0  0  0
  -12.5838   -2.5776  -21.8665 C   0  0  0  0  0  0  0  0  0  0  0  0
  -13.3199   -3.7193  -20.7896 Cl  0  0  0  0  0  0  0  0  0  0  0  0
  -13.3948   -1.6965  -22.5793 C   0  0  0  0  0  0  0  0  0  0  0  0
  -12.7815   -0.7465  -23.3660 C   0  0  0  0  0  0  0  0  0  0  0  0
  -11.3935   -0.6817  -23.4393 C   0  0  0  0  0  0  0  0  0  0  0  0
  -10.8013    0.4762  -24.1720 C   0  0  0  0  0  0  0  0  0  0  0  0
  -11.4850    1.4003  -24.5910 O   0  0  0  0  0  0  0  0  0  0  0  0
  -13.3463   -0.0110  -23.9249 H   0  0  0  0  0  0  0  0  0  0  0  0
  -14.4745   -1.7409  -22.4872 H   0  0  0  0  0  0  0  0  0  0  0  0
  -10.6324   -3.2555  -21.3702 H   0  0  0  0  0  0  0  0  0  0  0  0
   -7.6258   -0.5490  -24.1663 H   0  0  0  0  0  0  0  0  0  0  0  0
   -8.9055   -1.4585  -25.0011 H   0  0  0  0  0  0  0  0  0  0  0  0
   -8.2173    1.2970  -25.7794 H   0  0  0  0  0  0  0  0  0  0  0  0
   -9.5659    2.3054  -25.1730 H   0  0  0  0  0  0  0  0  0  0  0  0
   -9.2615    2.7422  -22.5577 H   0  0  0  0  0  0  0  0  0  0  0  0
   -7.9012    3.8187  -21.0251 H   0  0  0  0  0  0  0  0  0  0  0  0
   -6.6957    4.1257  -22.2850 H   0  0  0  0  0  0  0  0  0  0  0  0
   -6.7507    2.5135  -21.5208 H   0  0  0  0  0  0  0  0  0  0  0  0
  1  2  1  0
  2  3  1  0
  3  4  2  0
  3  5  1  0
  5  6  1  0
  6  7  1  0
  8  7  1  6
  8  9  1  0
  9 10  2  0
  9 11  1  0
 11 12  1  0
 12 13  2  0
 13 14  1  0
 14 15  2  0
 15 16  1  0
 16 17  2  0
 17 18  1  0
 18 19  2  0
 19 20  1  0
 20 21  2  0
 20 22  1  0
 19 23  1  0
 18 24  1  0
 17 25  1  0
 15 26  1  0
 13 27  1  0
 11 28  1  0
 28 29  1  0
 29 30  1  0
 30 31  1  0
 31 32  2  0
 32 33  1  0
 33 34  2  0
 34 35  1  0
 35 36  2  0
 36 37  1  0
 35 38  1  0
 34 39  1  0
 33 40  1  0
 32 41  1  0
 30 42  1  0
 30 43  1  0
 29 44  1  1
 28 45  1  0
 28 46  1  0
  8 47  1  0
 47 48  2  0
 48 49  1  0
 49 50  1  0
 49 51  2  0
 51 52  1  0
 52 53  2  0
 53 54  1  0
 54 55  2  0
 52 56  1  0
 51 57  1  0
 48 58  1  0
  7 59  1  0
  7 60  1  0
  5 61  1  0
  5 62  1  0
  2 63  1  0
  1 64  1  0
  1 65  1  0
  1 66  1  0
 54  6  1  0
 29  8  1  0
 36 31  1  0
 53 47  1  0
 21 12  1  0
 21 16  1  0
M  END
>  <cnnaffinities>  (43) 
[6.90999, 6.88504]

>  <score>  (43) 
6.90999

>  <index>  (43) 
45

>  <Smiles>  (43) 
C(N(C(=O)C(N1C([C@@]2(C(=O)N(c3c(nc(c4c(c(c(c(c34)[H])[H])[H])[H])[H])[H])C([C@@]2(C(c2c(c(c(c(c2[H])[H])[H])[H])[H])([H])[H])[H])([H])[H])c2c(c(Cl)c(c(c2C1=O)[H])[H])[H])([H])[H])([H])[H])[H])([H])([H])[H]

>  <h>  (43) 
<NA>

>  <Training>  (43) 
True

>  <Success>  (43) 
True

>  <enamine_searched>  (43) 
False

>  <enamine_id>  (43) 
nan

$$$$

     RDKit          3D

 50 54  0  0  0  0  0  0  0  0999 V2000
  -10.4393   -1.1475  -23.2702 C   0  0  0  0  0  0  0  0  0  0  0  0
   -8.9942   -1.4863  -22.9291 C   0  0  1  0  0  0  0  0  0  0  0  0
   -8.3620   -0.5378  -21.9030 C   0  0  0  0  0  0  0  0  0  0  0  0
   -7.3698   -1.3653  -21.2356 N   0  0  0  0  0  0  0  0  0  0  0  0
   -6.5737   -0.8655  -20.1832 C   0  0  0  0  0  0  0  0  0  0  0  0
   -6.8980   -1.1057  -18.8718 C   0  0  0  0  0  0  0  0  0  0  0  0
   -6.2361   -0.5689  -17.8161 N   0  0  0  0  0  0  0  0  0  0  0  0
   -5.2108    0.2067  -18.0786 C   0  0  0  0  0  0  0  0  0  0  0  0
   -4.7563    0.5096  -19.3956 C   0  0  0  0  0  0  0  0  0  0  0  0
   -3.6319    1.3387  -19.6318 C   0  0  0  0  0  0  0  0  0  0  0  0
   -3.2262    1.6053  -20.9099 C   0  0  0  0  0  0  0  0  0  0  0  0
   -3.9234    1.0617  -22.0118 C   0  0  0  0  0  0  0  0  0  0  0  0
   -5.0178    0.2568  -21.8116 C   0  0  0  0  0  0  0  0  0  0  0  0
   -5.4583   -0.0330  -20.4919 C   0  0  0  0  0  0  0  0  0  0  0  0
   -5.5482   -0.1660  -22.6601 H   0  0  0  0  0  0  0  0  0  0  0  0
   -3.5962    1.2919  -23.0211 H   0  0  0  0  0  0  0  0  0  0  0  0
   -2.3696    2.2465  -21.0877 H   0  0  0  0  0  0  0  0  0  0  0  0
   -3.1170    1.7597  -18.7729 H   0  0  0  0  0  0  0  0  0  0  0  0
   -4.6759    0.6436  -17.2321 H   0  0  0  0  0  0  0  0  0  0  0  0
   -7.7346   -1.7537  -18.6212 H   0  0  0  0  0  0  0  0  0  0  0  0
   -7.6060   -2.7143  -21.3725 C   0  0  0  0  0  0  0  0  0  0  0  0
   -6.9604   -3.5864  -20.8192 O   0  0  0  0  0  0  0  0  0  0  0  0
   -8.8038   -2.9101  -22.3100 C   0  0  1  0  0  0  0  0  0  0  0  0
  -10.0061   -3.3451  -21.4529 C   0  0  0  0  0  0  0  0  0  0  0  0
  -11.1462   -3.7608  -22.2433 N   0  0  0  0  0  0  0  0  0  0  0  0
  -12.5072   -3.5969  -21.7780 C   0  0  0  0  0  0  0  0  0  0  0  0
  -13.3708   -2.7484  -22.6230 C   0  0  0  0  0  0  0  0  0  0  0  0
  -14.1239   -2.1325  -23.2478 N   0  0  0  0  0  0  0  0  0  0  0  0
  -12.5087   -3.1914  -20.7668 H   0  0  0  0  0  0  0  0  0  0  0  0
  -12.9990   -4.5715  -21.7748 H   0  0  0  0  0  0  0  0  0  0  0  0
  -11.0165   -4.4896  -23.3903 C   0  0  0  0  0  0  0  0  0  0  0  0
  -12.0153   -4.8457  -23.9977 O   0  0  0  0  0  0  0  0  0  0  0  0
   -9.6148   -4.7424  -23.8499 C   0  0  0  0  0  0  0  0  0  0  0  0
   -9.3674   -5.7518  -24.7789 C   0  0  0  0  0  0  0  0  0  0  0  0
   -8.1094   -5.9208  -25.3209 C   0  0  0  0  0  0  0  0  0  0  0  0
   -7.1054   -5.0701  -24.8829 C   0  0  0  0  0  0  0  0  0  0  0  0
   -5.8958   -5.1839  -25.4430 F   0  0  0  0  0  0  0  0  0  0  0  0
   -7.2930   -4.1123  -23.9100 C   0  0  0  0  0  0  0  0  0  0  0  0
   -8.5625   -3.9617  -23.3582 C   0  0  0  0  0  0  0  0  0  0  0  0
   -6.4598   -3.5107  -23.5629 H   0  0  0  0  0  0  0  0  0  0  0  0
   -7.8867   -6.6930  -26.0501 H   0  0  0  0  0  0  0  0  0  0  0  0
  -10.1820   -6.4046  -25.0625 H   0  0  0  0  0  0  0  0  0  0  0  0
   -9.6864   -4.1455  -20.7857 H   0  0  0  0  0  0  0  0  0  0  0  0
  -10.3112   -2.4875  -20.8553 H   0  0  0  0  0  0  0  0  0  0  0  0
   -9.1160   -0.1787  -21.1863 H   0  0  0  0  0  0  0  0  0  0  0  0
   -7.8940    0.3359  -22.3660 H   0  0  0  0  0  0  0  0  0  0  0  0
   -8.3870   -1.4659  -23.8455 H   0  0  0  0  0  0  0  0  0  0  0  0
  -10.5241   -0.1725  -23.7510 H   0  0  0  0  0  0  0  0  0  0  0  0
  -11.0366   -1.1381  -22.3537 H   0  0  0  0  0  0  0  0  0  0  0  0
  -10.8647   -1.9131  -23.9257 H   0  0  0  0  0  0  0  0  0  0  0  0
  1  2  1  0
  2  3  1  0
  3  4  1  0
  4  5  1  0
  5  6  2  0
  6  7  1  0
  7  8  2  0
  8  9  1  0
  9 10  2  0
 10 11  1  0
 11 12  2  0
 12 13  1  0
 13 14  2  0
 13 15  1  0
 12 16  1  0
 11 17  1  0
 10 18  1  0
  8 19  1  0
  6 20  1  0
  4 21  1  0
 21 22  2  0
 21 23  1  0
 23 24  1  1
 24 25  1  0
 25 26  1  0
 26 27  1  0
 27 28  3  0
 26 29  1  0
 26 30  1  0
 25 31  1  0
 31 32  2  0
 31 33  1  0
 33 34  2  0
 34 35  1  0
 35 36  2  0
 36 37  1  0
 36 38  1  0
 38 39  2  0
 38 40  1  0
 35 41  1  0
 34 42  1  0
 24 43  1  0
 24 44  1  0
  3 45  1  0
  3 46  1  0
  2 47  1  6
  1 48  1  0
  1 49  1  0
  1 50  1  0
 23  2  1  0
 39 33  1  0
 14  5  1  0
 39 23  1  0
 14  9  1  0
M  END
>  <cnnaffinities>  (44) 
[6.29733]

>  <score>  (44) 
6.29733

>  <index>  (44) 
46

>  <Smiles>  (44) 
C([C@]1(C(N(c2c(nc(c3c(c(c(c(c23)[H])[H])[H])[H])[H])[H])C(=O)[C@]21C(N(C(C#N)([H])[H])C(=O)c1c(c(c(F)c(c21)[H])[H])[H])([H])[H])([H])[H])[H])([H])([H])[H]

>  <h>  (44) 
<NA>

>  <Training>  (44) 
True

>  <Success>  (44) 
True

>  <enamine_searched>  (44) 
False

>  <enamine_id>  (44) 
nan

$$$$

     RDKit          3D

 58 63  0  0  0  0  0  0  0  0999 V2000
   -8.5037    0.7134  -21.4023 O   0  0  0  0  0  0  0  0  0  0  0  0
   -8.4545   -0.4141  -21.8501 C   0  0  0  0  0  0  0  0  0  0  0  0
   -7.4445   -1.4288  -21.2620 C   0  0  0  0  0  0  0  0  0  0  0  0
   -6.5778   -0.8306  -20.1787 C   0  0  0  0  0  0  0  0  0  0  0  0
   -6.8773   -1.0389  -18.8594 C   0  0  0  0  0  0  0  0  0  0  0  0
   -6.1935   -0.5354  -17.7953 N   0  0  0  0  0  0  0  0  0  0  0  0
   -5.1575    0.2219  -18.0633 C   0  0  0  0  0  0  0  0  0  0  0  0
   -4.7250    0.5359  -19.3799 C   0  0  0  0  0  0  0  0  0  0  0  0
   -3.6000    1.3691  -19.6215 C   0  0  0  0  0  0  0  0  0  0  0  0
   -3.2137    1.6627  -20.9002 C   0  0  0  0  0  0  0  0  0  0  0  0
   -3.9364    1.1350  -21.9930 C   0  0  0  0  0  0  0  0  0  0  0  0
   -5.0269    0.3268  -21.7867 C   0  0  0  0  0  0  0  0  0  0  0  0
   -5.4545    0.0017  -20.4713 C   0  0  0  0  0  0  0  0  0  0  0  0
   -5.5766   -0.0604  -22.6403 H   0  0  0  0  0  0  0  0  0  0  0  0
   -3.6237    1.3791  -23.0047 H   0  0  0  0  0  0  0  0  0  0  0  0
   -2.3567    2.3074  -21.0862 H   0  0  0  0  0  0  0  0  0  0  0  0
   -3.0592    1.7779  -18.7702 H   0  0  0  0  0  0  0  0  0  0  0  0
   -4.6004    0.6291  -17.2157 H   0  0  0  0  0  0  0  0  0  0  0  0
   -7.7311   -1.6596  -18.5863 H   0  0  0  0  0  0  0  0  0  0  0  0
   -6.8292   -1.8587  -22.0637 H   0  0  0  0  0  0  0  0  0  0  0  0
   -8.0185   -2.2626  -20.8342 H   0  0  0  0  0  0  0  0  0  0  0  0
   -9.3028   -0.8277  -22.8743 N   0  0  0  0  0  0  0  0  0  0  0  0
   -9.2699   -2.1312  -23.5271 C   0  0  0  0  0  0  0  0  0  0  0  0
   -8.5425   -2.1603  -24.8620 C   0  0  0  0  0  0  0  0  0  0  0  0
   -7.4414   -1.3430  -25.1028 C   0  0  0  0  0  0  0  0  0  0  0  0
   -6.7664   -1.4065  -26.3154 C   0  0  0  0  0  0  0  0  0  0  0  0
   -7.1734   -2.2820  -27.3140 C   0  0  0  0  0  0  0  0  0  0  0  0
   -8.2687   -3.0998  -27.0689 C   0  0  0  0  0  0  0  0  0  0  0  0
   -8.7945   -4.2090  -28.3076 Cl  0  0  0  0  0  0  0  0  0  0  0  0
   -8.9506   -3.0505  -25.8569 C   0  0  0  0  0  0  0  0  0  0  0  0
   -9.7950   -3.7150  -25.6959 H   0  0  0  0  0  0  0  0  0  0  0  0
   -6.6493   -2.3314  -28.2638 H   0  0  0  0  0  0  0  0  0  0  0  0
   -5.9098   -0.7619  -26.4848 H   0  0  0  0  0  0  0  0  0  0  0  0
   -7.0945   -0.6503  -24.3388 H   0  0  0  0  0  0  0  0  0  0  0  0
  -10.3026   -2.4527  -23.6854 H   0  0  0  0  0  0  0  0  0  0  0  0
   -8.8310   -2.8625  -22.8428 H   0  0  0  0  0  0  0  0  0  0  0  0
  -10.2378    0.1516  -23.3981 C   0  0  2  0  0  0  0  0  0  0  0  0
  -11.3914    0.6114  -22.4852 C   0  0  0  0  0  0  0  0  0  0  0  0
  -12.0733    1.5924  -23.4112 N   0  0  1  0  0  4  0  0  0  0  0  0
  -12.2532    2.9518  -22.8862 C   0  0  0  0  0  0  0  0  0  0  0  0
  -13.5241    3.2845  -22.1767 C   0  0  0  0  0  0  0  0  0  0  0  0
  -13.2595    3.8362  -23.5493 C   0  0  0  0  0  0  0  0  0  0  0  0
  -13.0462    4.8957  -23.6421 H   0  0  0  0  0  0  0  0  0  0  0  0
  -13.8101    3.3984  -24.3768 H   0  0  0  0  0  0  0  0  0  0  0  0
  -13.4787    3.9714  -21.3397 H   0  0  0  0  0  0  0  0  0  0  0  0
  -14.2410    2.4750  -22.0833 H   0  0  0  0  0  0  0  0  0  0  0  0
  -11.3462    3.4139  -22.5207 H   0  0  0  0  0  0  0  0  0  0  0  0
  -11.1657    1.4903  -24.6092 C   0  0  2  0  0  0  0  0  0  0  0  0
  -11.0163   -0.0311  -24.7265 C   0  0  0  0  0  0  0  0  0  0  0  0
  -10.4047   -0.3291  -25.5720 H   0  0  0  0  0  0  0  0  0  0  0  0
  -11.9474   -0.6091  -24.6706 H   0  0  0  0  0  0  0  0  0  0  0  0
   -9.7715    1.5159  -23.9697 C   0  0  0  0  0  0  0  0  0  0  0  0
   -8.9698    1.4216  -24.6979 H   0  0  0  0  0  0  0  0  0  0  0  0
   -9.5640    2.2925  -23.2283 H   0  0  0  0  0  0  0  0  0  0  0  0
  -11.4536    2.1260  -25.4401 H   0  0  0  0  0  0  0  0  0  0  0  0
  -13.0170    1.2481  -23.6593 H   0  0  0  0  0  0  0  0  0  0  0  0
  -11.0358    1.1519  -21.6150 H   0  0  0  0  0  0  0  0  0  0  0  0
  -12.0836   -0.1824  -22.1996 H   0  0  0  0  0  0  0  0  0  0  0  0
  1  2  2  0
  2  3  1  0
  3  4  1  0
  4  5  2  0
  5  6  1  0
  6  7  2  0
  7  8  1  0
  8  9  2  0
  9 10  1  0
 10 11  2  0
 11 12  1  0
 12 13  2  0
 12 14  1  0
 11 15  1  0
 10 16  1  0
  9 17  1  0
  7 18  1  0
  5 19  1  0
  3 20  1  0
  3 21  1  0
  2 22  1  0
 22 23  1  0
 23 24  1  0
 24 25  2  0
 25 26  1  0
 26 27  2  0
 27 28  1  0
 28 29  1  0
 28 30  2  0
 30 31  1  0
 27 32  1  0
 26 33  1  0
 25 34  1  0
 23 35  1  0
 23 36  1  0
 37 22  1  1
 37 38  1  0
 38 39  1  0
 39 40  1  0
 40 41  1  0
 41 42  1  0
 42 43  1  0
 42 44  1  0
 41 45  1  0
 41 46  1  0
 40 47  1  0
 39 48  1  0
 48 49  1  0
 49 50  1  0
 49 51  1  0
 48 52  1  0
 52 53  1  0
 52 54  1  0
 48 55  1  6
 39 56  1  6
 38 57  1  0
 38 58  1  0
 13  4  1  0
 30 24  1  0
 49 37  1  0
 13  8  1  0
 52 37  1  0
 42 40  1  0
M  CHG  1  39   1
M  END
>  <cnnaffinities>  (45) 
[6.00316, 6.14471, 5.87124]

>  <score>  (45) 
6.00316

>  <index>  (45) 
47

>  <Smiles>  (45) 
O=C(C(c1c(nc(c2c(c(c(c(c12)[H])[H])[H])[H])[H])[H])([H])[H])N(C(c1c(c(c(c(Cl)c1[H])[H])[H])[H])([H])[H])[C@]12C([N@@+](C3(C(C3([H])[H])([H])[H])[H])([C@](C1([H])[H])(C2([H])[H])[H])[H])([H])[H]

>  <h>  (45) 
<NA>

>  <Training>  (45) 
True

>  <Success>  (45) 
True

>  <enamine_searched>  (45) 
False

>  <enamine_id>  (45) 
nan

$$$$

     RDKit          3D

 46 48  0  0  0  0  0  0  0  0999 V2000
  -13.2493   -3.7604  -22.7436 C   0  0  0  0  0  0  0  0  0  0  0  0
  -13.2917   -2.7326  -23.8853 C   0  0  0  0  0  0  0  0  0  0  0  0
  -14.6654   -2.0504  -23.9271 C   0  0  0  0  0  0  0  0  0  0  0  0
  -15.4485   -2.8003  -24.0882 H   0  0  0  0  0  0  0  0  0  0  0  0
  -14.8886   -1.5372  -22.9822 H   0  0  0  0  0  0  0  0  0  0  0  0
  -14.7346   -1.3105  -24.7347 H   0  0  0  0  0  0  0  0  0  0  0  0
  -12.1312   -1.7002  -23.8878 C   0  0  0  0  0  0  0  0  0  0  0  0
  -10.7418   -2.3720  -24.0647 C   0  0  0  0  0  0  0  0  0  0  0  0
   -9.8559   -2.3398  -22.8074 C   0  0  0  0  0  0  0  0  0  0  0  0
   -9.6648   -0.9662  -22.3594 N   0  0  0  0  0  0  0  0  0  0  0  0
   -8.5395   -0.4531  -21.7796 C   0  0  0  0  0  0  0  0  0  0  0  0
   -8.3943    0.7525  -21.6381 O   0  0  0  0  0  0  0  0  0  0  0  0
   -7.4686   -1.4326  -21.2622 C   0  0  0  0  0  0  0  0  0  0  0  0
   -6.5951   -0.8283  -20.1837 C   0  0  0  0  0  0  0  0  0  0  0  0
   -6.8926   -1.0411  -18.8599 C   0  0  0  0  0  0  0  0  0  0  0  0
   -6.2073   -0.5358  -17.8002 N   0  0  0  0  0  0  0  0  0  0  0  0
   -5.1706    0.2212  -18.0695 C   0  0  0  0  0  0  0  0  0  0  0  0
   -4.7345    0.5308  -19.3874 C   0  0  0  0  0  0  0  0  0  0  0  0
   -3.6083    1.3599  -19.6202 C   0  0  0  0  0  0  0  0  0  0  0  0
   -3.2162    1.6518  -20.8994 C   0  0  0  0  0  0  0  0  0  0  0  0
   -3.9407    1.1293  -21.9953 C   0  0  0  0  0  0  0  0  0  0  0  0
   -5.0393    0.3286  -21.7914 C   0  0  0  0  0  0  0  0  0  0  0  0
   -5.4672    0.0023  -20.4764 C   0  0  0  0  0  0  0  0  0  0  0  0
   -5.6029   -0.0447  -22.6402 H   0  0  0  0  0  0  0  0  0  0  0  0
   -3.6268    1.3738  -23.0056 H   0  0  0  0  0  0  0  0  0  0  0  0
   -2.3614    2.2974  -21.0754 H   0  0  0  0  0  0  0  0  0  0  0  0
   -3.0810    1.7614  -18.7580 H   0  0  0  0  0  0  0  0  0  0  0  0
   -4.6171    0.6249  -17.2212 H   0  0  0  0  0  0  0  0  0  0  0  0
   -7.7388   -1.6709  -18.5829 H   0  0  0  0  0  0  0  0  0  0  0  0
   -7.9722   -2.3191  -20.8550 H   0  0  0  0  0  0  0  0  0  0  0  0
   -6.8613   -1.7854  -22.1089 H   0  0  0  0  0  0  0  0  0  0  0  0
  -10.7713   -0.0343  -22.5638 C   0  0  0  0  0  0  0  0  0  0  0  0
  -12.1004   -0.7869  -22.6498 C   0  0  0  0  0  0  0  0  0  0  0  0
  -12.2478   -1.4527  -21.7912 H   0  0  0  0  0  0  0  0  0  0  0  0
  -12.9261   -0.0639  -22.6707 H   0  0  0  0  0  0  0  0  0  0  0  0
  -10.7148    0.6903  -21.7446 H   0  0  0  0  0  0  0  0  0  0  0  0
  -10.5990    0.5272  -23.4964 H   0  0  0  0  0  0  0  0  0  0  0  0
  -10.2958   -2.9583  -22.0069 H   0  0  0  0  0  0  0  0  0  0  0  0
   -8.8771   -2.7686  -23.0496 H   0  0  0  0  0  0  0  0  0  0  0  0
  -10.8677   -3.4170  -24.3839 H   0  0  0  0  0  0  0  0  0  0  0  0
  -10.2039   -1.8404  -24.8634 H   0  0  0  0  0  0  0  0  0  0  0  0
  -12.3069   -1.0710  -24.7777 H   0  0  0  0  0  0  0  0  0  0  0  0
  -13.1741   -3.2967  -24.8242 H   0  0  0  0  0  0  0  0  0  0  0  0
  -13.4700   -3.3007  -21.7706 H   0  0  0  0  0  0  0  0  0  0  0  0
  -14.0097   -4.5352  -22.9103 H   0  0  0  0  0  0  0  0  0  0  0  0
  -12.2791   -4.2691  -22.6651 H   0  0  0  0  0  0  0  0  0  0  0  0
  1  2  1  0
  2  3  1  0
  3  4  1  0
  3  5  1  0
  3  6  1  0
  2  7  1  0
  7  8  1  0
  8  9  1  0
  9 10  1  0
 10 11  1  0
 11 12  2  0
 11 13  1  0
 13 14  1  0
 14 15  2  0
 15 16  1  0
 16 17  2  0
 17 18  1  0
 18 19  2  0
 19 20  1  0
 20 21  2  0
 21 22  1  0
 22 23  2  0
 22 24  1  0
 21 25  1  0
 20 26  1  0
 19 27  1  0
 17 28  1  0
 15 29  1  0
 13 30  1  0
 13 31  1  0
 10 32  1  0
 32 33  1  0
 33 34  1  0
 33 35  1  0
 32 36  1  0
 32 37  1  0
  9 38  1  0
  9 39  1  0
  8 40  1  0
  8 41  1  0
  7 42  1  0
  2 43  1  0
  1 44  1  0
  1 45  1  0
  1 46  1  0
 33  7  1  0
 23 14  1  0
 23 18  1  0
M  END
>  <cnnaffinities>  (46) 
[5.04205, 5.04129, 5.04097]

>  <score>  (46) 
5.04205

>  <index>  (46) 
48

>  <Smiles>  (46) 
C(C(C([H])([H])[H])(C1(C(C(N(C(=O)C(c2c(nc(c3c(c(c(c(c23)[H])[H])[H])[H])[H])[H])([H])[H])C(C1([H])[H])([H])[H])([H])[H])([H])[H])[H])[H])([H])([H])[H]

>  <h>  (46) 
<NA>

>  <Training>  (46) 
True

>  <Success>  (46) 
True

>  <enamine_searched>  (46) 
False

>  <enamine_id>  (46) 
nan

$$$$

     RDKit          3D

 67 72  0  0  0  0  0  0  0  0999 V2000
   -7.5411    3.2553  -21.7315 C   0  0  0  0  0  0  0  0  0  0  0  0
   -8.5170    2.8273  -22.7149 N   0  0  0  0  0  0  0  0  0  0  0  0
   -8.0140    2.1359  -23.7604 C   0  0  0  0  0  0  0  0  0  0  0  0
   -6.8084    2.0231  -23.9335 O   0  0  0  0  0  0  0  0  0  0  0  0
   -9.0056    1.5127  -24.7395 C   0  0  0  0  0  0  0  0  0  0  0  0
   -9.6240    0.2981  -24.2420 N   0  0  0  0  0  0  0  0  0  0  0  0
   -8.8204   -0.9074  -24.1466 C   0  0  0  0  0  0  0  0  0  0  0  0
   -9.0983   -1.6806  -22.8304 C   0  0  2  0  0  0  0  0  0  0  0  0
   -8.5672   -0.8629  -21.6201 C   0  0  0  0  0  0  0  0  0  0  0  0
   -9.0830    0.1114  -21.1128 O   0  0  0  0  0  0  0  0  0  0  0  0
   -7.3810   -1.4211  -21.2020 N   0  0  0  0  0  0  0  0  0  0  0  0
   -6.6014   -0.8222  -20.1748 C   0  0  0  0  0  0  0  0  0  0  0  0
   -6.9112   -1.0462  -18.8552 C   0  0  0  0  0  0  0  0  0  0  0  0
   -6.2107   -0.5473  -17.8085 N   0  0  0  0  0  0  0  0  0  0  0  0
   -5.1726    0.2091  -18.0770 C   0  0  0  0  0  0  0  0  0  0  0  0
   -4.7336    0.5278  -19.3949 C   0  0  0  0  0  0  0  0  0  0  0  0
   -3.6102    1.3672  -19.6377 C   0  0  0  0  0  0  0  0  0  0  0  0
   -3.2275    1.6650  -20.9178 C   0  0  0  0  0  0  0  0  0  0  0  0
   -3.9514    1.1396  -22.0104 C   0  0  0  0  0  0  0  0  0  0  0  0
   -5.0416    0.3260  -21.8013 C   0  0  0  0  0  0  0  0  0  0  0  0
   -5.4655   -0.0033  -20.4844 C   0  0  0  0  0  0  0  0  0  0  0  0
   -5.6053   -0.0429  -22.6523 H   0  0  0  0  0  0  0  0  0  0  0  0
   -3.6578    1.3881  -23.0253 H   0  0  0  0  0  0  0  0  0  0  0  0
   -2.3771    2.3173  -21.0989 H   0  0  0  0  0  0  0  0  0  0  0  0
   -3.0793    1.7748  -18.7815 H   0  0  0  0  0  0  0  0  0  0  0  0
   -4.6229    0.6133  -17.2271 H   0  0  0  0  0  0  0  0  0  0  0  0
   -7.7605   -1.6732  -18.5963 H   0  0  0  0  0  0  0  0  0  0  0  0
   -6.9834   -2.6058  -21.9393 C   0  0  0  0  0  0  0  0  0  0  0  0
   -8.2488   -2.9946  -22.7397 C   0  0  2  0  0  0  0  0  0  0  0  0
   -7.9246   -3.6979  -24.0769 C   0  0  0  0  0  0  0  0  0  0  0  0
   -7.2726   -4.9698  -23.8614 N   0  0  0  0  0  0  0  0  0  0  0  0
   -6.8492   -5.8098  -24.8735 C   0  0  0  0  0  0  0  0  0  0  0  0
   -6.2281   -7.0217  -24.7727 C   0  0  0  0  0  0  0  0  0  0  0  0
   -5.8976   -7.6453  -25.9631 N   0  0  0  0  0  0  0  0  0  0  0  0
   -6.2671   -6.9414  -26.9825 C   0  0  0  0  0  0  0  0  0  0  0  0
   -6.0927   -7.3603  -28.4104 C   0  0  0  0  0  0  0  0  0  0  0  0
   -5.9226   -6.4962  -29.0568 H   0  0  0  0  0  0  0  0  0  0  0  0
   -6.9879   -7.8860  -28.7658 H   0  0  0  0  0  0  0  0  0  0  0  0
   -5.2494   -8.0514  -28.4746 H   0  0  0  0  0  0  0  0  0  0  0  0
   -7.0455   -5.4169  -26.5683 S   0  0  0  0  0  0  0  0  0  0  0  0
   -5.9846   -7.5295  -23.8449 H   0  0  0  0  0  0  0  0  0  0  0  0
   -7.1281   -5.3107  -22.9264 H   0  0  0  0  0  0  0  0  0  0  0  0
   -8.8497   -3.8514  -24.6525 H   0  0  0  0  0  0  0  0  0  0  0  0
   -7.2662   -3.0565  -24.6827 H   0  0  0  0  0  0  0  0  0  0  0  0
   -8.8261   -3.7003  -22.1346 H   0  0  0  0  0  0  0  0  0  0  0  0
   -6.1356   -2.3860  -22.6074 H   0  0  0  0  0  0  0  0  0  0  0  0
   -6.6581   -3.3879  -21.2422 H   0  0  0  0  0  0  0  0  0  0  0  0
  -10.6068   -1.8350  -22.7036 C   0  0  0  0  0  0  0  0  0  0  0  0
  -11.1489   -2.7853  -21.8313 C   0  0  0  0  0  0  0  0  0  0  0  0
  -12.5202   -2.8799  -21.6792 C   0  0  0  0  0  0  0  0  0  0  0  0
  -13.2038   -4.0084  -20.5517 Cl  0  0  0  0  0  0  0  0  0  0  0  0
  -13.3937   -2.0548  -22.3837 C   0  0  0  0  0  0  0  0  0  0  0  0
  -12.8692   -1.0726  -23.1959 C   0  0  0  0  0  0  0  0  0  0  0  0
  -11.4879   -0.9387  -23.3283 C   0  0  0  0  0  0  0  0  0  0  0  0
  -10.9811    0.2533  -24.0807 C   0  0  0  0  0  0  0  0  0  0  0  0
  -11.7330    1.1283  -24.4873 O   0  0  0  0  0  0  0  0  0  0  0  0
  -13.5006   -0.3645  -23.7224 H   0  0  0  0  0  0  0  0  0  0  0  0
  -14.4621   -2.1768  -22.2546 H   0  0  0  0  0  0  0  0  0  0  0  0
  -10.5084   -3.4274  -21.2383 H   0  0  0  0  0  0  0  0  0  0  0  0
   -7.7746   -0.5920  -24.1797 H   0  0  0  0  0  0  0  0  0  0  0  0
   -9.0281   -1.5696  -25.0032 H   0  0  0  0  0  0  0  0  0  0  0  0
   -9.8332    2.1874  -24.9700 H   0  0  0  0  0  0  0  0  0  0  0  0
   -8.4215    1.3148  -25.6460 H   0  0  0  0  0  0  0  0  0  0  0  0
   -9.4933    2.7172  -22.4663 H   0  0  0  0  0  0  0  0  0  0  0  0
   -6.8769    4.0120  -22.1576 H   0  0  0  0  0  0  0  0  0  0  0  0
   -8.0569    3.6918  -20.8824 H   0  0  0  0  0  0  0  0  0  0  0  0
   -6.9220    2.3921  -21.4432 H   0  0  0  0  0  0  0  0  0  0  0  0
  1  2  1  0
  2  3  1  0
  3  4  2  0
  3  5  1  0
  5  6  1  0
  6  7  1  0
  8  7  1  6
  8  9  1  0
  9 10  2  0
  9 11  1  0
 11 12  1  0
 12 13  2  0
 13 14  1  0
 14 15  2  0
 15 16  1  0
 16 17  2  0
 17 18  1  0
 18 19  2  0
 19 20  1  0
 20 21  2  0
 20 22  1  0
 19 23  1  0
 18 24  1  0
 17 25  1  0
 15 26  1  0
 13 27  1  0
 11 28  1  0
 28 29  1  0
 29 30  1  0
 30 31  1  0
 31 32  1  0
 32 33  2  0
 33 34  1  0
 34 35  2  0
 35 36  1  0
 36 37  1  0
 36 38  1  0
 36 39  1  0
 35 40  1  0
 33 41  1  0
 31 42  1  0
 30 43  1  0
 30 44  1  0
 29 45  1  1
 28 46  1  0
 28 47  1  0
  8 48  1  0
 48 49  2  0
 49 50  1  0
 50 51  1  0
 50 52  2  0
 52 53  1  0
 53 54  2  0
 54 55  1  0
 55 56  2  0
 53 57  1  0
 52 58  1  0
 49 59  1  0
  7 60  1  0
  7 61  1  0
  5 62  1  0
  5 63  1  0
  2 64  1  0
  1 65  1  0
  1 66  1  0
  1 67  1  0
 55  6  1  0
 29  8  1  0
 40 32  1  0
 54 48  1  0
 21 12  1  0
 21 16  1  0
M  END
>  <cnnaffinities>  (47) 
[6.95269]

>  <score>  (47) 
6.95269

>  <index>  (47) 
49

>  <Smiles>  (47) 
C(N(C(=O)C(N1C([C@@]2(C(=O)N(c3c(nc(c4c(c(c(c(c34)[H])[H])[H])[H])[H])[H])C([C@@]2(C(N(c2c(nc(C([H])([H])[H])s2)[H])[H])([H])[H])[H])([H])[H])c2c(c(Cl)c(c(c2C1=O)[H])[H])[H])([H])[H])([H])[H])[H])([H])([H])[H]

>  <h>  (47) 
<NA>

>  <Training>  (47) 
True

>  <Success>  (47) 
True

>  <enamine_searched>  (47) 
False

>  <enamine_id>  (47) 
nan

$$$$

     RDKit          3D

 66 70  0  0  0  0  0  0  0  0999 V2000
   -7.4439    3.3512  -21.8188 C   0  0  0  0  0  0  0  0  0  0  0  0
   -8.3571    2.8840  -22.8456 N   0  0  0  0  0  0  0  0  0  0  0  0
   -7.8404    2.1584  -23.8641 C   0  0  0  0  0  0  0  0  0  0  0  0
   -6.6313    2.0146  -24.0118 O   0  0  0  0  0  0  0  0  0  0  0  0
   -8.8456    1.5408  -24.8451 C   0  0  0  0  0  0  0  0  0  0  0  0
   -9.5424    0.3803  -24.3187 N   0  0  0  0  0  0  0  0  0  0  0  0
   -8.8107   -0.8652  -24.1763 C   0  0  0  0  0  0  0  0  0  0  0  0
   -9.1303   -1.5707  -22.8325 C   0  0  2  0  0  0  0  0  0  0  0  0
   -8.5437   -0.7505  -21.6499 C   0  0  0  0  0  0  0  0  0  0  0  0
   -8.9811    0.2781  -21.1804 O   0  0  0  0  0  0  0  0  0  0  0  0
   -7.4058   -1.3841  -21.1998 N   0  0  0  0  0  0  0  0  0  0  0  0
   -6.6078   -0.8079  -20.1726 C   0  0  0  0  0  0  0  0  0  0  0  0
   -6.9114   -1.0392  -18.8553 C   0  0  0  0  0  0  0  0  0  0  0  0
   -6.2061   -0.5461  -17.8064 N   0  0  0  0  0  0  0  0  0  0  0  0
   -5.1690    0.2095  -18.0762 C   0  0  0  0  0  0  0  0  0  0  0  0
   -4.7305    0.5293  -19.3920 C   0  0  0  0  0  0  0  0  0  0  0  0
   -3.6025    1.3608  -19.6402 C   0  0  0  0  0  0  0  0  0  0  0  0
   -3.2152    1.6492  -20.9193 C   0  0  0  0  0  0  0  0  0  0  0  0
   -3.9386    1.1198  -22.0133 C   0  0  0  0  0  0  0  0  0  0  0  0
   -5.0328    0.3148  -21.7989 C   0  0  0  0  0  0  0  0  0  0  0  0
   -5.4661    0.0011  -20.4836 C   0  0  0  0  0  0  0  0  0  0  0  0
   -5.5923   -0.0687  -22.6476 H   0  0  0  0  0  0  0  0  0  0  0  0
   -3.6431    1.3602  -23.0285 H   0  0  0  0  0  0  0  0  0  0  0  0
   -2.3606    2.2949  -21.1021 H   0  0  0  0  0  0  0  0  0  0  0  0
   -3.0718    1.7712  -18.7842 H   0  0  0  0  0  0  0  0  0  0  0  0
   -4.6198    0.6138  -17.2250 H   0  0  0  0  0  0  0  0  0  0  0  0
   -7.7598   -1.6671  -18.5945 H   0  0  0  0  0  0  0  0  0  0  0  0
   -7.0780   -2.6079  -21.9087 C   0  0  0  0  0  0  0  0  0  0  0  0
   -8.3683   -2.9287  -22.6964 C   0  0  2  0  0  0  0  0  0  0  0  0
   -8.0852   -3.6766  -23.9995 C   0  0  0  0  0  0  0  0  0  0  0  0
   -7.4690   -4.9186  -23.7049 O   0  0  0  0  0  0  0  0  0  0  0  0
   -7.3037   -5.7627  -24.8493 C   0  0  0  0  0  0  0  0  0  0  0  0
   -8.4383   -6.7866  -24.9225 C   0  0  0  0  0  0  0  0  0  0  0  0
   -8.4354   -7.4115  -24.0237 H   0  0  0  0  0  0  0  0  0  0  0  0
   -8.3149   -7.4375  -25.7972 H   0  0  0  0  0  0  0  0  0  0  0  0
   -9.4154   -6.2955  -25.0001 H   0  0  0  0  0  0  0  0  0  0  0  0
   -5.9403   -6.4426  -24.7573 C   0  0  0  0  0  0  0  0  0  0  0  0
   -5.8876   -7.0666  -23.8596 H   0  0  0  0  0  0  0  0  0  0  0  0
   -5.7719   -7.0808  -25.6337 H   0  0  0  0  0  0  0  0  0  0  0  0
   -5.1412   -5.6970  -24.7135 H   0  0  0  0  0  0  0  0  0  0  0  0
   -7.3288   -5.1337  -25.7572 H   0  0  0  0  0  0  0  0  0  0  0  0
   -9.0195   -3.8336  -24.5639 H   0  0  0  0  0  0  0  0  0  0  0  0
   -7.4133   -3.0839  -24.6445 H   0  0  0  0  0  0  0  0  0  0  0  0
   -8.9782   -3.5941  -22.0833 H   0  0  0  0  0  0  0  0  0  0  0  0
   -6.8047   -3.3995  -21.2027 H   0  0  0  0  0  0  0  0  0  0  0  0
   -6.2178   -2.4620  -22.5807 H   0  0  0  0  0  0  0  0  0  0  0  0
  -10.6436   -1.6342  -22.7023 C   0  0  0  0  0  0  0  0  0  0  0  0
  -11.2344   -2.5361  -21.8139 C   0  0  0  0  0  0  0  0  0  0  0  0
  -12.6058   -2.5534  -21.6640 C   0  0  0  0  0  0  0  0  0  0  0  0
  -13.1561   -3.4068  -20.7859 F   0  0  0  0  0  0  0  0  0  0  0  0
  -13.4437   -1.6911  -22.3612 C   0  0  0  0  0  0  0  0  0  0  0  0
  -12.8627   -0.7628  -23.2010 C   0  0  0  0  0  0  0  0  0  0  0  0
  -11.4758   -0.7084  -23.3515 C   0  0  0  0  0  0  0  0  0  0  0  0
  -10.9004    0.4244  -24.1479 C   0  0  0  0  0  0  0  0  0  0  0  0
  -11.5964    1.3320  -24.5779 O   0  0  0  0  0  0  0  0  0  0  0  0
  -13.4567   -0.0360  -23.7443 H   0  0  0  0  0  0  0  0  0  0  0  0
  -14.5149   -1.7427  -22.2055 H   0  0  0  0  0  0  0  0  0  0  0  0
  -10.6358   -3.2025  -21.2060 H   0  0  0  0  0  0  0  0  0  0  0  0
   -9.0500   -1.5489  -25.0074 H   0  0  0  0  0  0  0  0  0  0  0  0
   -7.7479   -0.6116  -24.2175 H   0  0  0  0  0  0  0  0  0  0  0  0
   -8.2541    1.2739  -25.7277 H   0  0  0  0  0  0  0  0  0  0  0  0
   -9.6308    2.2443  -25.1382 H   0  0  0  0  0  0  0  0  0  0  0  0
   -9.3531    2.8458  -22.6659 H   0  0  0  0  0  0  0  0  0  0  0  0
   -8.0222    3.8304  -21.0296 H   0  0  0  0  0  0  0  0  0  0  0  0
   -6.8538    2.5049  -21.4281 H   0  0  0  0  0  0  0  0  0  0  0  0
   -6.7451    4.0917  -22.2265 H   0  0  0  0  0  0  0  0  0  0  0  0
  1  2  1  0
  2  3  1  0
  3  4  2  0
  3  5  1  0
  5  6  1  0
  6  7  1  0
  8  7  1  6
  8  9  1  0
  9 10  2  0
  9 11  1  0
 11 12  1  0
 12 13  2  0
 13 14  1  0
 14 15  2  0
 15 16  1  0
 16 17  2  0
 17 18  1  0
 18 19  2  0
 19 20  1  0
 20 21  2  0
 20 22  1  0
 19 23  1  0
 18 24  1  0
 17 25  1  0
 15 26  1  0
 13 27  1  0
 11 28  1  0
 28 29  1  0
 29 30  1  0
 30 31  1  0
 31 32  1  0
 32 33  1  0
 33 34  1  0
 33 35  1  0
 33 36  1  0
 32 37  1  0
 37 38  1  0
 37 39  1  0
 37 40  1  0
 32 41  1  0
 30 42  1  0
 30 43  1  0
 29 44  1  1
 28 45  1  0
 28 46  1  0
  8 47  1  0
 47 48  2  0
 48 49  1  0
 49 50  1  0
 49 51  2  0
 51 52  1  0
 52 53  2  0
 53 54  1  0
 54 55  2  0
 52 56  1  0
 51 57  1  0
 48 58  1  0
  7 59  1  0
  7 60  1  0
  5 61  1  0
  5 62  1  0
  2 63  1  0
  1 64  1  0
  1 65  1  0
  1 66  1  0
 54  6  1  0
 29  8  1  0
 53 47  1  0
 21 12  1  0
 21 16  1  0
M  END
>  <cnnaffinities>  (48) 
[6.56591, 6.78442, 6.55239, 6.4967]

>  <score>  (48) 
6.56591

>  <index>  (48) 
50

>  <Smiles>  (48) 
C(N(C(=O)C(N1C([C@@]2(C(=O)N(c3c(nc(c4c(c(c(c(c34)[H])[H])[H])[H])[H])[H])C([C@@]2(C(OC(C([H])([H])[H])(C([H])([H])[H])[H])([H])[H])[H])([H])[H])c2c(c(F)c(c(c2C1=O)[H])[H])[H])([H])[H])([H])[H])[H])([H])([H])[H]

>  <h>  (48) 
<NA>

>  <Training>  (48) 
True

>  <Success>  (48) 
True

>  <enamine_searched>  (48) 
False

>  <enamine_id>  (48) 
nan

$$$$

     RDKit          3D

 50 52  0  0  0  0  0  0  0  0999 V2000
   -9.4327   -1.1883  -26.2973 C   0  0  0  0  0  0  0  0  0  0  0  0
   -9.0477   -0.3462  -25.3402 C   0  0  0  0  0  0  0  0  0  0  0  0
   -9.6278   -0.4433  -23.9483 C   0  0  0  0  0  0  0  0  0  0  0  0
   -8.7712   -1.2397  -23.0709 N   0  0  0  0  0  0  0  0  0  0  0  0
   -8.0191   -0.5534  -22.1356 C   0  0  0  0  0  0  0  0  0  0  0  0
   -7.9847    0.6664  -22.0777 O   0  0  0  0  0  0  0  0  0  0  0  0
   -7.3133   -1.3672  -21.2750 N   0  0  0  0  0  0  0  0  0  0  0  0
   -6.5745   -0.8046  -20.2183 C   0  0  0  0  0  0  0  0  0  0  0  0
   -6.9151   -1.0523  -18.9148 C   0  0  0  0  0  0  0  0  0  0  0  0
   -6.2556   -0.5500  -17.8428 N   0  0  0  0  0  0  0  0  0  0  0  0
   -5.2187    0.2182  -18.0893 C   0  0  0  0  0  0  0  0  0  0  0  0
   -4.7524    0.5397  -19.3958 C   0  0  0  0  0  0  0  0  0  0  0  0
   -3.6120    1.3531  -19.6250 C   0  0  0  0  0  0  0  0  0  0  0  0
   -3.1826    1.6112  -20.8992 C   0  0  0  0  0  0  0  0  0  0  0  0
   -3.8715    1.0753  -22.0088 C   0  0  0  0  0  0  0  0  0  0  0  0
   -4.9801    0.2969  -21.8167 C   0  0  0  0  0  0  0  0  0  0  0  0
   -5.4512    0.0166  -20.5030 C   0  0  0  0  0  0  0  0  0  0  0  0
   -5.5254   -0.0966  -22.6677 H   0  0  0  0  0  0  0  0  0  0  0  0
   -3.5279    1.2959  -23.0173 H   0  0  0  0  0  0  0  0  0  0  0  0
   -2.3027    2.2239  -21.0613 H   0  0  0  0  0  0  0  0  0  0  0  0
   -3.0930    1.7639  -18.7642 H   0  0  0  0  0  0  0  0  0  0  0  0
   -4.6853    0.6169  -17.2265 H   0  0  0  0  0  0  0  0  0  0  0  0
   -7.7761   -1.6824  -18.6946 H   0  0  0  0  0  0  0  0  0  0  0  0
   -7.6512   -2.3139  -21.1471 H   0  0  0  0  0  0  0  0  0  0  0  0
   -8.4435   -2.5636  -23.4907 C   0  0  0  0  0  0  0  0  0  0  0  0
   -9.4575   -3.4973  -23.6874 C   0  0  0  0  0  0  0  0  0  0  0  0
   -9.1489   -4.7837  -24.1142 C   0  0  0  0  0  0  0  0  0  0  0  0
   -7.8365   -5.1516  -24.3902 C   0  0  0  0  0  0  0  0  0  0  0  0
   -6.8439   -4.1896  -24.2554 C   0  0  0  0  0  0  0  0  0  0  0  0
   -5.1984   -4.6120  -24.6415 Cl  0  0  0  0  0  0  0  0  0  0  0  0
   -7.1298   -2.9024  -23.8243 C   0  0  0  0  0  0  0  0  0  0  0  0
   -6.3370   -2.1634  -23.7680 H   0  0  0  0  0  0  0  0  0  0  0  0
   -7.5955   -6.1540  -24.7349 H   0  0  0  0  0  0  0  0  0  0  0  0
   -9.9472   -5.5076  -24.2520 H   0  0  0  0  0  0  0  0  0  0  0  0
  -10.4903   -3.2164  -23.5016 H   0  0  0  0  0  0  0  0  0  0  0  0
   -9.7394    0.5267  -23.4657 H   0  0  0  0  0  0  0  0  0  0  0  0
  -10.6184   -0.9166  -23.9887 H   0  0  0  0  0  0  0  0  0  0  0  0
   -7.8461    0.5082  -25.6608 C   0  0  0  0  0  0  0  0  0  0  0  0
   -7.1927    0.2678  -26.6665 O   0  0  0  0  0  0  0  0  0  0  0  0
   -7.5171    1.5308  -24.8250 N   0  0  0  0  0  0  0  0  0  0  0  0
   -6.1905    2.1183  -24.9691 C   0  0  0  0  0  0  0  0  0  0  0  0
   -6.0265    3.2021  -23.9164 C   0  0  0  0  0  0  0  0  0  0  0  0
   -6.7261    4.0282  -24.0989 H   0  0  0  0  0  0  0  0  0  0  0  0
   -6.2139    2.7710  -22.9200 H   0  0  0  0  0  0  0  0  0  0  0  0
   -5.0150    3.6183  -23.9156 H   0  0  0  0  0  0  0  0  0  0  0  0
   -6.0747    2.5077  -25.9905 H   0  0  0  0  0  0  0  0  0  0  0  0
   -5.4146    1.3410  -24.8409 H   0  0  0  0  0  0  0  0  0  0  0  0
   -7.9250    1.5987  -23.8895 H   0  0  0  0  0  0  0  0  0  0  0  0
   -8.9463   -1.1976  -27.2700 H   0  0  0  0  0  0  0  0  0  0  0  0
  -10.2502   -1.8834  -26.1167 H   0  0  0  0  0  0  0  0  0  0  0  0
  1  2  2  0
  2  3  1  0
  3  4  1  0
  4  5  1  0
  5  6  2  0
  5  7  1  0
  7  8  1  0
  8  9  2  0
  9 10  1  0
 10 11  2  0
 11 12  1  0
 12 13  2  0
 13 14  1  0
 14 15  2  0
 15 16  1  0
 16 17  2  0
 16 18  1  0
 15 19  1  0
 14 20  1  0
 13 21  1  0
 11 22  1  0
  9 23  1  0
  7 24  1  0
  4 25  1  0
 25 26  2  0
 26 27  1  0
 27 28  2  0
 28 29  1  0
 29 30  1  0
 29 31  2  0
 31 32  1  0
 28 33  1  0
 27 34  1  0
 26 35  1  0
  3 36  1  0
  3 37  1  0
  2 38  1  0
 38 39  2  0
 38 40  1  0
 40 41  1  0
 41 42  1  0
 42 43  1  0
 42 44  1  0
 42 45  1  0
 41 46  1  0
 41 47  1  0
 40 48  1  0
  1 49  1  0
  1 50  1  0
 17  8  1  0
 31 25  1  0
 17 12  1  0
M  END
>  <cnnaffinities>  (49) 
[5.6015, 5.89144]

>  <score>  (49) 
5.6015

>  <index>  (49) 
51

>  <Smiles>  (49) 
C(=C(C(N(C(=O)N(c1c(nc(c2c(c(c(c(c12)[H])[H])[H])[H])[H])[H])[H])c1c(c(c(c(Cl)c1[H])[H])[H])[H])([H])[H])C(=O)N(C(C([H])([H])[H])([H])[H])[H])([H])[H]

>  <h>  (49) 
<NA>

>  <Training>  (49) 
True

>  <Success>  (49) 
True

>  <enamine_searched>  (49) 
False

>  <enamine_id>  (49) 
nan

$$$$

     RDKit          3D

 57 60  0  0  0  0  0  0  0  0999 V2000
   -2.7774   -4.2473  -29.8328 C   0  0  0  0  0  0  0  0  0  0  0  0
   -2.7451   -3.2907  -28.6418 C   0  0  0  0  0  0  0  0  0  0  0  0
   -3.8757   -3.5838  -27.6572 C   0  0  0  0  0  0  0  0  0  0  0  0
   -4.9621   -3.0459  -27.7694 O   0  0  0  0  0  0  0  0  0  0  0  0
   -3.6310   -4.5087  -26.6601 N   0  0  0  0  0  0  0  0  0  0  0  0
   -4.5002   -4.7709  -25.5660 C   0  0  0  0  0  0  0  0  0  0  0  0
   -4.5871   -6.0658  -25.0415 C   0  0  0  0  0  0  0  0  0  0  0  0
   -5.4499   -6.3205  -23.9805 C   0  0  0  0  0  0  0  0  0  0  0  0
   -6.2022   -5.3061  -23.3944 C   0  0  0  0  0  0  0  0  0  0  0  0
   -6.0734   -4.0040  -23.8814 C   0  0  0  0  0  0  0  0  0  0  0  0
   -6.8366   -2.9232  -23.3071 N   0  0  0  0  0  0  0  0  0  0  0  0
   -7.8254   -2.2408  -24.1362 C   0  0  0  0  0  0  0  0  0  0  0  0
   -9.2597   -2.5007  -23.7242 C   0  0  0  0  0  0  0  0  0  0  0  0
  -10.1233   -1.4565  -23.3923 C   0  0  0  0  0  0  0  0  0  0  0  0
  -11.4303   -1.7112  -22.9857 C   0  0  0  0  0  0  0  0  0  0  0  0
  -11.8930   -3.0210  -22.9200 C   0  0  0  0  0  0  0  0  0  0  0  0
  -11.0428   -4.0657  -23.2675 C   0  0  0  0  0  0  0  0  0  0  0  0
   -9.7363   -3.8101  -23.6687 C   0  0  0  0  0  0  0  0  0  0  0  0
   -9.0789   -4.6336  -23.9424 H   0  0  0  0  0  0  0  0  0  0  0  0
  -11.4037   -5.0864  -23.2318 H   0  0  0  0  0  0  0  0  0  0  0  0
  -12.9118   -3.2264  -22.6048 H   0  0  0  0  0  0  0  0  0  0  0  0
  -12.0854   -0.8864  -22.7201 H   0  0  0  0  0  0  0  0  0  0  0  0
   -9.7724   -0.4273  -23.4439 H   0  0  0  0  0  0  0  0  0  0  0  0
   -7.6273   -1.1621  -24.1577 H   0  0  0  0  0  0  0  0  0  0  0  0
   -7.6686   -2.6016  -25.1555 H   0  0  0  0  0  0  0  0  0  0  0  0
   -6.6599   -2.6543  -21.9540 C   0  0  0  0  0  0  0  0  0  0  0  0
   -5.9116   -3.3354  -21.2812 O   0  0  0  0  0  0  0  0  0  0  0  0
   -7.3912   -1.4616  -21.2896 C   0  0  0  0  0  0  0  0  0  0  0  0
   -6.5747   -0.8298  -20.1803 C   0  0  0  0  0  0  0  0  0  0  0  0
   -6.8730   -1.0467  -18.8594 C   0  0  0  0  0  0  0  0  0  0  0  0
   -6.1909   -0.5392  -17.7946 N   0  0  0  0  0  0  0  0  0  0  0  0
   -5.1582    0.2232  -18.0634 C   0  0  0  0  0  0  0  0  0  0  0  0
   -4.7206    0.5344  -19.3776 C   0  0  0  0  0  0  0  0  0  0  0  0
   -3.5936    1.3588  -19.6216 C   0  0  0  0  0  0  0  0  0  0  0  0
   -3.1938    1.6373  -20.9004 C   0  0  0  0  0  0  0  0  0  0  0  0
   -3.9083    1.0972  -21.9933 C   0  0  0  0  0  0  0  0  0  0  0  0
   -5.0037    0.2969  -21.7846 C   0  0  0  0  0  0  0  0  0  0  0  0
   -5.4462   -0.0065  -20.4725 C   0  0  0  0  0  0  0  0  0  0  0  0
   -5.5358   -0.1100  -22.6408 H   0  0  0  0  0  0  0  0  0  0  0  0
   -3.5884    1.3233  -23.0062 H   0  0  0  0  0  0  0  0  0  0  0  0
   -2.3321    2.2747  -21.0884 H   0  0  0  0  0  0  0  0  0  0  0  0
   -3.0554    1.7731  -18.7706 H   0  0  0  0  0  0  0  0  0  0  0  0
   -4.6016    0.6294  -17.2151 H   0  0  0  0  0  0  0  0  0  0  0  0
   -7.7221   -1.6725  -18.5864 H   0  0  0  0  0  0  0  0  0  0  0  0
   -7.6862   -0.6971  -22.0165 H   0  0  0  0  0  0  0  0  0  0  0  0
   -8.3237   -1.8496  -20.8585 H   0  0  0  0  0  0  0  0  0  0  0  0
   -5.2449   -3.7469  -24.9758 C   0  0  0  0  0  0  0  0  0  0  0  0
   -5.1602   -2.7365  -25.3548 H   0  0  0  0  0  0  0  0  0  0  0  0
   -6.8660   -5.5214  -22.5586 H   0  0  0  0  0  0  0  0  0  0  0  0
   -5.5219   -7.3276  -23.5812 H   0  0  0  0  0  0  0  0  0  0  0  0
   -4.0094   -6.8839  -25.4685 H   0  0  0  0  0  0  0  0  0  0  0  0
   -2.8187   -5.1011  -26.7474 H   0  0  0  0  0  0  0  0  0  0  0  0
   -1.7605   -3.3113  -28.1571 H   0  0  0  0  0  0  0  0  0  0  0  0
   -2.9096   -2.2710  -28.9996 H   0  0  0  0  0  0  0  0  0  0  0  0
   -2.6271   -5.2784  -29.5007 H   0  0  0  0  0  0  0  0  0  0  0  0
   -1.9923   -4.0076  -30.5592 H   0  0  0  0  0  0  0  0  0  0  0  0
   -3.7387   -4.1973  -30.3552 H   0  0  0  0  0  0  0  0  0  0  0  0
  1  2  1  0
  2  3  1  0
  3  4  2  0
  3  5  1  0
  5  6  1  0
  6  7  2  0
  7  8  1  0
  8  9  2  0
  9 10  1  0
 10 11  1  0
 11 12  1  0
 12 13  1  0
 13 14  2  0
 14 15  1  0
 15 16  2  0
 16 17  1  0
 17 18  2  0
 18 19  1  0
 17 20  1  0
 16 21  1  0
 15 22  1  0
 14 23  1  0
 12 24  1  0
 12 25  1  0
 11 26  1  0
 26 27  2  0
 26 28  1  0
 28 29  1  0
 29 30  2  0
 30 31  1  0
 31 32  2  0
 32 33  1  0
 33 34  2  0
 34 35  1  0
 35 36  2  0
 36 37  1  0
 37 38  2  0
 37 39  1  0
 36 40  1  0
 35 41  1  0
 34 42  1  0
 32 43  1  0
 30 44  1  0
 28 45  1  0
 28 46  1  0
 10 47  2  0
 47 48  1  0
  9 49  1  0
  8 50  1  0
  7 51  1  0
  5 52  1  0
  2 53  1  0
  2 54  1  0
  1 55  1  0
  1 56  1  0
  1 57  1  0
 47  6  1  0
 18 13  1  0
 38 29  1  0
 38 33  1  0
M  END
>  <cnnaffinities>  (50) 
[5.91526, 5.99682, 6.17155, 5.81593, 5.85252, 5.98287]

>  <score>  (50) 
5.91526

>  <index>  (50) 
52

>  <Smiles>  (50) 
C(C(C(=O)N(c1c(c(c(c(N(C(c2c(c(c(c(c2[H])[H])[H])[H])[H])([H])[H])C(=O)C(c2c(nc(c3c(c(c(c(c23)[H])[H])[H])[H])[H])[H])([H])[H])c1[H])[H])[H])[H])[H])([H])[H])([H])([H])[H]

>  <h>  (50) 
<NA>

>  <Training>  (50) 
True

>  <Success>  (50) 
True

>  <enamine_searched>  (50) 
False

>  <enamine_id>  (50) 
nan

$$$$

     RDKit          3D

 59 63  0  0  0  0  0  0  0  0999 V2000
  -13.9695   -1.1033  -24.4992 C   0  0  0  0  0  0  0  0  0  0  0  0
  -14.8596   -2.1469  -23.8343 C   0  0  0  0  0  0  0  0  0  0  0  0
  -14.0783   -3.1586  -23.1664 N   0  0  0  0  0  0  0  0  0  0  0  0
  -13.3674   -2.8009  -22.0638 C   0  0  0  0  0  0  0  0  0  0  0  0
  -13.4797   -1.7207  -21.5110 O   0  0  0  0  0  0  0  0  0  0  0  0
  -12.4575   -3.9175  -21.6041 C   0  0  0  0  0  0  0  0  0  0  0  0
  -11.1395   -3.8740  -22.2079 N   0  0  0  0  0  0  0  0  0  0  0  0
  -10.0151   -3.3835  -21.4406 C   0  0  0  0  0  0  0  0  0  0  0  0
   -8.8182   -2.9354  -22.2993 C   0  0  2  0  0  0  0  0  0  0  0  0
   -7.6215   -2.7344  -21.3579 C   0  0  0  0  0  0  0  0  0  0  0  0
   -6.9820   -3.6027  -20.7971 O   0  0  0  0  0  0  0  0  0  0  0  0
   -7.3766   -1.3823  -21.2315 N   0  0  0  0  0  0  0  0  0  0  0  0
   -6.5748   -0.8719  -20.1833 C   0  0  0  0  0  0  0  0  0  0  0  0
   -6.8982   -1.1026  -18.8692 C   0  0  0  0  0  0  0  0  0  0  0  0
   -6.2330   -0.5647  -17.8161 N   0  0  0  0  0  0  0  0  0  0  0  0
   -5.2054    0.2070  -18.0814 C   0  0  0  0  0  0  0  0  0  0  0  0
   -4.7532    0.5095  -19.3981 C   0  0  0  0  0  0  0  0  0  0  0  0
   -3.6281    1.3396  -19.6327 C   0  0  0  0  0  0  0  0  0  0  0  0
   -3.2229    1.6074  -20.9123 C   0  0  0  0  0  0  0  0  0  0  0  0
   -3.9236    1.0633  -22.0112 C   0  0  0  0  0  0  0  0  0  0  0  0
   -5.0182    0.2582  -21.8113 C   0  0  0  0  0  0  0  0  0  0  0  0
   -5.4583   -0.0351  -20.4918 C   0  0  0  0  0  0  0  0  0  0  0  0
   -5.5497   -0.1649  -22.6582 H   0  0  0  0  0  0  0  0  0  0  0  0
   -3.5952    1.2912  -23.0212 H   0  0  0  0  0  0  0  0  0  0  0  0
   -2.3647    2.2479  -21.0905 H   0  0  0  0  0  0  0  0  0  0  0  0
   -3.1102    1.7590  -18.7757 H   0  0  0  0  0  0  0  0  0  0  0  0
   -4.6674    0.6363  -17.2349 H   0  0  0  0  0  0  0  0  0  0  0  0
   -7.7407   -1.7419  -18.6129 H   0  0  0  0  0  0  0  0  0  0  0  0
   -8.3728   -0.5560  -21.8980 C   0  0  0  0  0  0  0  0  0  0  0  0
   -9.0160   -1.5095  -22.9138 C   0  0  2  0  0  0  0  0  0  0  0  0
  -10.4605   -1.1572  -23.2479 C   0  0  0  0  0  0  0  0  0  0  0  0
  -10.5381   -0.1982  -23.7659 H   0  0  0  0  0  0  0  0  0  0  0  0
  -11.0670   -1.1073  -22.3362 H   0  0  0  0  0  0  0  0  0  0  0  0
  -10.9014   -1.9294  -23.8876 H   0  0  0  0  0  0  0  0  0  0  0  0
   -8.4169   -1.4921  -23.8360 H   0  0  0  0  0  0  0  0  0  0  0  0
   -7.9052    0.3093  -22.3780 H   0  0  0  0  0  0  0  0  0  0  0  0
   -9.1179   -0.1796  -21.1784 H   0  0  0  0  0  0  0  0  0  0  0  0
   -8.5575   -3.9759  -23.3542 C   0  0  0  0  0  0  0  0  0  0  0  0
   -7.2843   -4.0945  -23.9104 C   0  0  0  0  0  0  0  0  0  0  0  0
   -7.0595   -5.0207  -24.9095 C   0  0  0  0  0  0  0  0  0  0  0  0
   -5.4885   -5.1028  -25.6353 Cl  0  0  0  0  0  0  0  0  0  0  0  0
   -8.0699   -5.8624  -25.3674 C   0  0  0  0  0  0  0  0  0  0  0  0
   -9.3359   -5.7275  -24.8270 C   0  0  0  0  0  0  0  0  0  0  0  0
   -9.5981   -4.7591  -23.8593 C   0  0  0  0  0  0  0  0  0  0  0  0
  -10.9959   -4.5418  -23.3781 C   0  0  0  0  0  0  0  0  0  0  0  0
  -11.9931   -4.9151  -23.9966 O   0  0  0  0  0  0  0  0  0  0  0  0
  -10.1370   -6.3820  -25.1468 H   0  0  0  0  0  0  0  0  0  0  0  0
   -7.8527   -6.6005  -26.1338 H   0  0  0  0  0  0  0  0  0  0  0  0
   -6.4760   -3.4683  -23.5493 H   0  0  0  0  0  0  0  0  0  0  0  0
   -9.6976   -4.1775  -20.7689 H   0  0  0  0  0  0  0  0  0  0  0  0
  -10.3495   -2.5160  -20.8672 H   0  0  0  0  0  0  0  0  0  0  0  0
  -12.9672   -4.8046  -21.9694 H   0  0  0  0  0  0  0  0  0  0  0  0
  -12.4052   -3.9546  -20.5186 H   0  0  0  0  0  0  0  0  0  0  0  0
  -13.6890   -3.9062  -23.7291 H   0  0  0  0  0  0  0  0  0  0  0  0
  -15.4732   -1.6667  -23.0697 H   0  0  0  0  0  0  0  0  0  0  0  0
  -15.5221   -2.6491  -24.5462 H   0  0  0  0  0  0  0  0  0  0  0  0
  -14.5533   -0.3415  -25.0166 H   0  0  0  0  0  0  0  0  0  0  0  0
  -13.2797   -1.5631  -25.2191 H   0  0  0  0  0  0  0  0  0  0  0  0
  -13.3853   -0.6044  -23.7191 H   0  0  0  0  0  0  0  0  0  0  0  0
  1  2  1  0
  2  3  1  0
  3  4  1  0
  4  5  2  0
  4  6  1  0
  6  7  1  0
  7  8  1  0
  9  8  1  1
  9 10  1  0
 10 11  2  0
 10 12  1  0
 12 13  1  0
 13 14  2  0
 14 15  1  0
 15 16  2  0
 16 17  1  0
 17 18  2  0
 18 19  1  0
 19 20  2  0
 20 21  1  0
 21 22  2  0
 21 23  1  0
 20 24  1  0
 19 25  1  0
 18 26  1  0
 16 27  1  0
 14 28  1  0
 12 29  1  0
 29 30  1  0
 30 31  1  0
 31 32  1  0
 31 33  1  0
 31 34  1  0
 30 35  1  6
 29 36  1  0
 29 37  1  0
  9 38  1  0
 38 39  2  0
 39 40  1  0
 40 41  1  0
 40 42  2  0
 42 43  1  0
 43 44  2  0
 44 45  1  0
 45 46  2  0
 43 47  1  0
 42 48  1  0
 39 49  1  0
  8 50  1  0
  8 51  1  0
  6 52  1  0
  6 53  1  0
  3 54  1  0
  2 55  1  0
  2 56  1  0
  1 57  1  0
  1 58  1  0
  1 59  1  0
 45  7  1  0
 30  9  1  0
 44 38  1  0
 22 13  1  0
 22 17  1  0
M  END
>  <cnnaffinities>  (51) 
[6.38507, 6.49019]

>  <score>  (51) 
6.38507

>  <index>  (51) 
53

>  <Smiles>  (51) 
C(C(N(C(=O)C(N1C([C@@]2(C(=O)N(c3c(nc(c4c(c(c(c(c34)[H])[H])[H])[H])[H])[H])C([C@@]2(C([H])([H])[H])[H])([H])[H])c2c(c(Cl)c(c(c2C1=O)[H])[H])[H])([H])[H])([H])[H])[H])([H])[H])([H])([H])[H]

>  <h>  (51) 
<NA>

>  <Training>  (51) 
True

>  <Success>  (51) 
True

>  <enamine_searched>  (51) 
False

>  <enamine_id>  (51) 
nan

$$$$

     RDKit          3D

 40 43  0  0  0  0  0  0  0  0999 V2000
   -9.4252   -3.8822  -22.7470 C   0  0  0  0  0  0  0  0  0  0  0  0
   -8.6591   -2.7125  -22.3612 N   0  0  0  0  0  0  0  0  0  0  0  0
   -8.6967   -1.4588  -22.9032 C   0  0  0  0  0  0  0  0  0  0  0  0
   -9.5701   -1.0719  -24.0455 C   0  0  0  0  0  0  0  0  0  0  0  0
  -10.9938   -0.8416  -23.5840 C   0  0  0  0  0  0  0  0  0  0  0  0
  -11.2940    0.2932  -22.8352 C   0  0  0  0  0  0  0  0  0  0  0  0
  -12.5905    0.5175  -22.3875 C   0  0  0  0  0  0  0  0  0  0  0  0
  -13.5968   -0.4024  -22.6668 C   0  0  0  0  0  0  0  0  0  0  0  0
  -13.3005   -1.5489  -23.3950 C   0  0  0  0  0  0  0  0  0  0  0  0
  -12.0025   -1.7641  -23.8481 C   0  0  0  0  0  0  0  0  0  0  0  0
  -11.7657   -2.6641  -24.4110 H   0  0  0  0  0  0  0  0  0  0  0  0
  -14.0805   -2.2727  -23.6134 H   0  0  0  0  0  0  0  0  0  0  0  0
  -14.6101   -0.2279  -22.3165 H   0  0  0  0  0  0  0  0  0  0  0  0
  -12.8137    1.4097  -21.8102 H   0  0  0  0  0  0  0  0  0  0  0  0
  -10.5007    1.0020  -22.6120 H   0  0  0  0  0  0  0  0  0  0  0  0
   -9.1373   -0.1590  -24.4697 H   0  0  0  0  0  0  0  0  0  0  0  0
   -9.5434   -1.8376  -24.8295 H   0  0  0  0  0  0  0  0  0  0  0  0
   -7.9635   -0.6116  -22.2403 N   0  0  0  0  0  0  0  0  0  0  0  0
   -7.4288   -1.3303  -21.2127 N   0  0  0  0  0  0  0  0  0  0  0  0
   -6.6127   -0.7914  -20.1921 C   0  0  0  0  0  0  0  0  0  0  0  0
   -6.9027   -1.0471  -18.8717 C   0  0  0  0  0  0  0  0  0  0  0  0
   -6.2084   -0.5429  -17.8282 N   0  0  0  0  0  0  0  0  0  0  0  0
   -5.1719    0.2182  -18.0881 C   0  0  0  0  0  0  0  0  0  0  0  0
   -4.7322    0.5243  -19.4033 C   0  0  0  0  0  0  0  0  0  0  0  0
   -3.5981    1.3502  -19.6271 C   0  0  0  0  0  0  0  0  0  0  0  0
   -3.1846    1.6197  -20.9043 C   0  0  0  0  0  0  0  0  0  0  0  0
   -3.8807    1.0620  -22.0001 C   0  0  0  0  0  0  0  0  0  0  0  0
   -4.9807    0.2601  -21.8092 C   0  0  0  0  0  0  0  0  0  0  0  0
   -5.4571   -0.0073  -20.4980 C   0  0  0  0  0  0  0  0  0  0  0  0
   -5.5302   -0.1541  -22.6462 H   0  0  0  0  0  0  0  0  0  0  0  0
   -3.5529    1.2834  -23.0116 H   0  0  0  0  0  0  0  0  0  0  0  0
   -2.3237    2.2617  -21.0866 H   0  0  0  0  0  0  0  0  0  0  0  0
   -3.0759    1.7671  -18.7693 H   0  0  0  0  0  0  0  0  0  0  0  0
   -4.6213    0.6173  -17.2337 H   0  0  0  0  0  0  0  0  0  0  0  0
   -7.7381   -1.6809  -18.5886 H   0  0  0  0  0  0  0  0  0  0  0  0
   -7.7482   -2.6673  -21.3032 C   0  0  0  0  0  0  0  0  0  0  0  0
   -7.2737   -3.5622  -20.6477 O   0  0  0  0  0  0  0  0  0  0  0  0
   -9.4762   -3.9972  -23.8348 H   0  0  0  0  0  0  0  0  0  0  0  0
  -10.4447   -3.8708  -22.3466 H   0  0  0  0  0  0  0  0  0  0  0  0
   -8.9159   -4.7523  -22.3425 H   0  0  0  0  0  0  0  0  0  0  0  0
  1  2  1  0
  2  3  1  0
  3  4  1  0
  4  5  1  0
  5  6  2  0
  6  7  1  0
  7  8  2  0
  8  9  1  0
  9 10  2  0
 10 11  1  0
  9 12  1  0
  8 13  1  0
  7 14  1  0
  6 15  1  0
  4 16  1  0
  4 17  1  0
  3 18  2  0
 18 19  1  0
 19 20  1  0
 20 21  2  0
 21 22  1  0
 22 23  2  0
 23 24  1  0
 24 25  2  0
 25 26  1  0
 26 27  2  0
 27 28  1  0
 28 29  2  0
 28 30  1  0
 27 31  1  0
 26 32  1  0
 25 33  1  0
 23 34  1  0
 21 35  1  0
 19 36  1  0
 36 37  2  0
  1 38  1  0
  1 39  1  0
  1 40  1  0
 36  2  1  0
 10  5  1  0
 29 20  1  0
 29 24  1  0
M  END
>  <cnnaffinities>  (52) 
[5.45992, 5.45583]

>  <score>  (52) 
5.45992

>  <index>  (52) 
54

>  <Smiles>  (52) 
C(n1c(C(c2c(c(c(c(c2[H])[H])[H])[H])[H])([H])[H])nn(c2c(nc(c3c(c(c(c(c23)[H])[H])[H])[H])[H])[H])c1=O)([H])([H])[H]

>  <h>  (52) 
<NA>

>  <Training>  (52) 
True

>  <Success>  (52) 
True

>  <enamine_searched>  (52) 
False

>  <enamine_id>  (52) 
nan

$$$$

     RDKit          3D

 61 66  0  0  0  0  0  0  0  0999 V2000
   -7.0052   -5.4646  -25.0561 C   0  0  0  0  0  0  0  0  0  0  0  0
   -7.3325   -4.8048  -23.8566 O   0  0  0  0  0  0  0  0  0  0  0  0
   -7.9845   -3.5795  -24.0878 C   0  0  0  0  0  0  0  0  0  0  0  0
   -8.2918   -2.9173  -22.7434 C   0  0  1  0  0  0  0  0  0  0  0  0
   -7.0132   -2.5609  -21.9580 C   0  0  0  0  0  0  0  0  0  0  0  0
   -7.3914   -1.3780  -21.2071 N   0  0  0  0  0  0  0  0  0  0  0  0
   -6.6047   -0.8088  -20.1771 C   0  0  0  0  0  0  0  0  0  0  0  0
   -6.9195   -1.0448  -18.8611 C   0  0  0  0  0  0  0  0  0  0  0  0
   -6.2213   -0.5490  -17.8112 N   0  0  0  0  0  0  0  0  0  0  0  0
   -5.1871    0.2125  -18.0813 C   0  0  0  0  0  0  0  0  0  0  0  0
   -4.7526    0.5380  -19.3989 C   0  0  0  0  0  0  0  0  0  0  0  0
   -3.6288    1.3740  -19.6368 C   0  0  0  0  0  0  0  0  0  0  0  0
   -3.2401    1.6689  -20.9162 C   0  0  0  0  0  0  0  0  0  0  0  0
   -3.9471    1.1353  -22.0152 C   0  0  0  0  0  0  0  0  0  0  0  0
   -5.0293    0.3094  -21.8088 C   0  0  0  0  0  0  0  0  0  0  0  0
   -5.4698    0.0017  -20.4905 C   0  0  0  0  0  0  0  0  0  0  0  0
   -5.5813   -0.0716  -22.6627 H   0  0  0  0  0  0  0  0  0  0  0  0
   -3.6262    1.3849  -23.0250 H   0  0  0  0  0  0  0  0  0  0  0  0
   -2.3796    2.3087  -21.0938 H   0  0  0  0  0  0  0  0  0  0  0  0
   -3.0924    1.7668  -18.7793 H   0  0  0  0  0  0  0  0  0  0  0  0
   -4.6251    0.6108  -17.2361 H   0  0  0  0  0  0  0  0  0  0  0  0
   -7.7776   -1.6663  -18.6119 H   0  0  0  0  0  0  0  0  0  0  0  0
   -8.5886   -0.8174  -21.5816 C   0  0  0  0  0  0  0  0  0  0  0  0
   -9.1001    0.1411  -21.0343 O   0  0  0  0  0  0  0  0  0  0  0  0
   -9.1362   -1.6091  -22.7924 C   0  0  1  0  0  0  0  0  0  0  0  0
   -8.8753   -0.8374  -24.1031 C   0  0  0  0  0  0  0  0  0  0  0  0
   -9.6971    0.3478  -24.2157 N   0  0  0  0  0  0  0  0  0  0  0  0
   -9.0571    1.5735  -24.6526 C   0  0  0  0  0  0  0  0  0  0  0  0
   -8.2740    2.2775  -23.5705 C   0  0  0  0  0  0  0  0  0  0  0  0
   -6.9288    2.3810  -23.3942 C   0  0  0  0  0  0  0  0  0  0  0  0
   -6.7098    3.1259  -22.2552 N   0  0  0  0  0  4  0  0  0  0  0  0
   -7.8828    3.4936  -21.7469 C   0  0  0  0  0  0  0  0  0  0  0  0
   -8.8501    2.9842  -22.5261 N   0  0  0  0  0  0  0  0  0  0  0  0
   -9.8251    2.9320  -22.2583 H   0  0  0  0  0  0  0  0  0  0  0  0
   -8.0259    4.1284  -20.8845 H   0  0  0  0  0  0  0  0  0  0  0  0
   -5.8027    3.1815  -21.8021 H   0  0  0  0  0  0  0  0  0  0  0  0
   -6.0668    2.0141  -23.9429 H   0  0  0  0  0  0  0  0  0  0  0  0
   -9.8722    2.1958  -25.0329 H   0  0  0  0  0  0  0  0  0  0  0  0
   -8.3878    1.3296  -25.4902 H   0  0  0  0  0  0  0  0  0  0  0  0
  -11.0440    0.3140  -24.0067 C   0  0  0  0  0  0  0  0  0  0  0  0
  -11.8077    1.2026  -24.3734 O   0  0  0  0  0  0  0  0  0  0  0  0
  -11.5284   -0.8886  -23.2674 C   0  0  0  0  0  0  0  0  0  0  0  0
  -12.9060   -1.0268  -23.1231 C   0  0  0  0  0  0  0  0  0  0  0  0
  -13.4148   -2.0198  -22.3128 C   0  0  0  0  0  0  0  0  0  0  0  0
  -12.5250   -2.8556  -21.6381 C   0  0  0  0  0  0  0  0  0  0  0  0
  -13.1738   -3.9968  -20.4979 Cl  0  0  0  0  0  0  0  0  0  0  0  0
  -11.1562   -2.7638  -21.8139 C   0  0  0  0  0  0  0  0  0  0  0  0
  -10.6340   -1.7854  -22.6646 C   0  0  0  0  0  0  0  0  0  0  0  0
  -10.4991   -3.4324  -21.2668 H   0  0  0  0  0  0  0  0  0  0  0  0
  -14.4795   -2.1453  -22.1574 H   0  0  0  0  0  0  0  0  0  0  0  0
  -13.5396   -0.3102  -23.6349 H   0  0  0  0  0  0  0  0  0  0  0  0
   -9.0721   -1.5148  -24.9436 H   0  0  0  0  0  0  0  0  0  0  0  0
   -7.8332   -0.5123  -24.1483 H   0  0  0  0  0  0  0  0  0  0  0  0
   -6.1716   -2.3517  -22.6331 H   0  0  0  0  0  0  0  0  0  0  0  0
   -6.6997   -3.3618  -21.2803 H   0  0  0  0  0  0  0  0  0  0  0  0
   -8.8483   -3.6519  -22.1617 H   0  0  0  0  0  0  0  0  0  0  0  0
   -8.9137   -3.7502  -24.6618 H   0  0  0  0  0  0  0  0  0  0  0  0
   -7.3363   -2.9177  -24.6921 H   0  0  0  0  0  0  0  0  0  0  0  0
   -6.5400   -6.4168  -24.7896 H   0  0  0  0  0  0  0  0  0  0  0  0
   -7.8967   -5.6709  -25.6727 H   0  0  0  0  0  0  0  0  0  0  0  0
   -6.2921   -4.8842  -25.6657 H   0  0  0  0  0  0  0  0  0  0  0  0
  1  2  1  0
  2  3  1  0
  3  4  1  0
  4  5  1  0
  5  6  1  0
  6  7  1  0
  7  8  2  0
  8  9  1  0
  9 10  2  0
 10 11  1  0
 11 12  2  0
 12 13  1  0
 13 14  2  0
 14 15  1  0
 15 16  2  0
 15 17  1  0
 14 18  1  0
 13 19  1  0
 12 20  1  0
 10 21  1  0
  8 22  1  0
  6 23  1  0
 23 24  2  0
 23 25  1  0
 25 26  1  6
 26 27  1  0
 27 28  1  0
 28 29  1  0
 29 30  2  0
 30 31  1  0
 31 32  2  0
 32 33  1  0
 33 34  1  0
 32 35  1  0
 31 36  1  0
 30 37  1  0
 28 38  1  0
 28 39  1  0
 27 40  1  0
 40 41  2  0
 40 42  1  0
 42 43  2  0
 43 44  1  0
 44 45  2  0
 45 46  1  0
 45 47  1  0
 47 48  2  0
 47 49  1  0
 44 50  1  0
 43 51  1  0
 26 52  1  0
 26 53  1  0
  5 54  1  0
  5 55  1  0
  4 56  1  1
  3 57  1  0
  3 58  1  0
  1 59  1  0
  1 60  1  0
  1 61  1  0
 25  4  1  0
 33 29  1  0
 48 42  1  0
 16  7  1  0
 48 25  1  0
 16 11  1  0
M  CHG  1  31   1
M  END
>  <cnnaffinities>  (53) 
[6.7389, 6.54514, 6.73232]

>  <score>  (53) 
6.7389

>  <index>  (53) 
55

>  <Smiles>  (53) 
C(OC([C@]1(C(N(c2c(nc(c3c(c(c(c(c23)[H])[H])[H])[H])[H])[H])C(=O)[C@]21C(N(C(c1c([n+](c(n1[H])[H])[H])[H])([H])[H])C(=O)c1c(c(c(Cl)c(c21)[H])[H])[H])([H])[H])([H])[H])[H])([H])[H])([H])([H])[H]

>  <h>  (53) 
<NA>

>  <Training>  (53) 
True

>  <Success>  (53) 
True

>  <enamine_searched>  (53) 
False

>  <enamine_id>  (53) 
nan

$$$$

     RDKit          3D

 57 62  0  0  0  0  0  0  0  0999 V2000
  -10.3635   -0.8882  -23.3935 C   0  0  0  0  0  0  0  0  0  0  0  0
   -8.9690   -1.3374  -22.9691 C   0  0  1  0  0  0  0  0  0  0  0  0
   -8.3599   -0.4440  -21.8751 C   0  0  0  0  0  0  0  0  0  0  0  0
   -7.3909   -1.3165  -21.2360 N   0  0  0  0  0  0  0  0  0  0  0  0
   -6.5794   -0.8637  -20.1725 C   0  0  0  0  0  0  0  0  0  0  0  0
   -6.8906   -1.1461  -18.8674 C   0  0  0  0  0  0  0  0  0  0  0  0
   -6.2431   -0.6008  -17.8063 N   0  0  0  0  0  0  0  0  0  0  0  0
   -5.2387    0.2068  -18.0533 C   0  0  0  0  0  0  0  0  0  0  0  0
   -4.7713    0.5288  -19.3628 C   0  0  0  0  0  0  0  0  0  0  0  0
   -3.6503    1.3688  -19.6057 C   0  0  0  0  0  0  0  0  0  0  0  0
   -3.2412    1.6257  -20.8851 C   0  0  0  0  0  0  0  0  0  0  0  0
   -3.9260    1.0652  -21.9868 C   0  0  0  0  0  0  0  0  0  0  0  0
   -5.0140    0.2525  -21.7780 C   0  0  0  0  0  0  0  0  0  0  0  0
   -5.4608   -0.0248  -20.4607 C   0  0  0  0  0  0  0  0  0  0  0  0
   -5.5383   -0.1988  -22.6129 H   0  0  0  0  0  0  0  0  0  0  0  0
   -3.5934    1.2763  -22.9990 H   0  0  0  0  0  0  0  0  0  0  0  0
   -2.3783    2.2619  -21.0704 H   0  0  0  0  0  0  0  0  0  0  0  0
   -3.1224    1.7921  -18.7548 H   0  0  0  0  0  0  0  0  0  0  0  0
   -4.7341    0.6429  -17.1901 H   0  0  0  0  0  0  0  0  0  0  0  0
   -7.7090   -1.8247  -18.6329 H   0  0  0  0  0  0  0  0  0  0  0  0
   -7.6704   -2.6515  -21.4116 C   0  0  0  0  0  0  0  0  0  0  0  0
   -7.0771   -3.5499  -20.8437 O   0  0  0  0  0  0  0  0  0  0  0  0
   -8.8463   -2.7974  -22.3966 C   0  0  1  0  0  0  0  0  0  0  0  0
  -10.0737   -3.2148  -21.5411 C   0  0  0  0  0  0  0  0  0  0  0  0
  -11.1788   -3.8023  -22.2852 N   0  0  0  0  0  0  0  0  0  0  0  0
  -12.5626   -3.7902  -21.7776 C   0  0  0  0  0  0  0  0  0  0  0  0
  -13.4205   -2.8059  -22.5123 C   0  0  0  0  0  0  0  0  0  0  0  0
  -13.3915   -1.5642  -22.0471 N   0  0  0  0  0  0  0  0  0  0  0  0
  -13.9936   -0.6518  -22.8093 C   0  0  0  0  0  0  0  0  0  0  0  0
  -14.5777   -0.9627  -24.0219 C   0  0  0  0  0  0  0  0  0  0  0  0
  -14.6881   -2.3163  -24.3175 C   0  0  0  0  0  0  0  0  0  0  0  0
  -14.1301   -3.2495  -23.5582 N   0  0  0  0  0  0  0  0  0  0  0  0
  -15.2211   -2.6979  -25.1811 H   0  0  0  0  0  0  0  0  0  0  0  0
  -14.8712   -0.1624  -24.6777 H   0  0  0  0  0  0  0  0  0  0  0  0
  -13.9685    0.3697  -22.4460 H   0  0  0  0  0  0  0  0  0  0  0  0
  -12.5711   -3.5387  -20.7162 H   0  0  0  0  0  0  0  0  0  0  0  0
  -13.0152   -4.7614  -21.9570 H   0  0  0  0  0  0  0  0  0  0  0  0
  -10.9809   -4.5595  -23.4002 C   0  0  0  0  0  0  0  0  0  0  0  0
  -11.9293   -5.0833  -23.9613 O   0  0  0  0  0  0  0  0  0  0  0  0
   -9.5853   -4.6971  -23.9040 C   0  0  0  0  0  0  0  0  0  0  0  0
   -9.3372   -5.6875  -24.8556 C   0  0  0  0  0  0  0  0  0  0  0  0
   -8.0701   -5.8919  -25.3600 C   0  0  0  0  0  0  0  0  0  0  0  0
   -7.0598   -5.0626  -24.8892 C   0  0  0  0  0  0  0  0  0  0  0  0
   -5.8251   -5.2428  -25.3829 F   0  0  0  0  0  0  0  0  0  0  0  0
   -7.2712   -4.0739  -23.9455 C   0  0  0  0  0  0  0  0  0  0  0  0
   -8.5605   -3.8723  -23.4289 C   0  0  0  0  0  0  0  0  0  0  0  0
   -6.4209   -3.4816  -23.6248 H   0  0  0  0  0  0  0  0  0  0  0  0
   -7.8572   -6.6654  -26.0946 H   0  0  0  0  0  0  0  0  0  0  0  0
  -10.1700   -6.2991  -25.1854 H   0  0  0  0  0  0  0  0  0  0  0  0
   -9.7083   -3.9300  -20.8018 H   0  0  0  0  0  0  0  0  0  0  0  0
  -10.4355   -2.3270  -21.0096 H   0  0  0  0  0  0  0  0  0  0  0  0
   -9.1174   -0.1090  -21.1446 H   0  0  0  0  0  0  0  0  0  0  0  0
   -7.8656    0.4471  -22.2733 H   0  0  0  0  0  0  0  0  0  0  0  0
   -8.2971   -1.3063  -23.8380 H   0  0  0  0  0  0  0  0  0  0  0  0
  -11.0269   -0.7784  -22.5286 H   0  0  0  0  0  0  0  0  0  0  0  0
  -10.3249    0.0827  -23.9011 H   0  0  0  0  0  0  0  0  0  0  0  0
  -10.8198   -1.6190  -24.0691 H   0  0  0  0  0  0  0  0  0  0  0  0
  1  2  1  0
  2  3  1  0
  3  4  1  0
  4  5  1  0
  5  6  2  0
  6  7  1  0
  7  8  2  0
  8  9  1  0
  9 10  2  0
 10 11  1  0
 11 12  2  0
 12 13  1  0
 13 14  2  0
 13 15  1  0
 12 16  1  0
 11 17  1  0
 10 18  1  0
  8 19  1  0
  6 20  1  0
  4 21  1  0
 21 22  2  0
 21 23  1  0
 23 24  1  1
 24 25  1  0
 25 26  1  0
 26 27  1  0
 27 28  2  0
 28 29  1  0
 29 30  2  0
 30 31  1  0
 31 32  2  0
 31 33  1  0
 30 34  1  0
 29 35  1  0
 26 36  1  0
 26 37  1  0
 25 38  1  0
 38 39  2  0
 38 40  1  0
 40 41  2  0
 41 42  1  0
 42 43  2  0
 43 44  1  0
 43 45  1  0
 45 46  2  0
 45 47  1  0
 42 48  1  0
 41 49  1  0
 24 50  1  0
 24 51  1  0
  3 52  1  0
  3 53  1  0
  2 54  1  6
  1 55  1  0
  1 56  1  0
  1 57  1  0
 23  2  1  0
 32 27  1  0
 46 40  1  0
 14  5  1  0
 46 23  1  0
 14  9  1  0
M  END
>  <cnnaffinities>  (54) 
[6.53381, 6.54203]

>  <score>  (54) 
6.53381

>  <index>  (54) 
56

>  <Smiles>  (54) 
C([C@]1(C(N(c2c(nc(c3c(c(c(c(c23)[H])[H])[H])[H])[H])[H])C(=O)[C@]21C(N(C(c1nc(c(c(n1)[H])[H])[H])([H])[H])C(=O)c1c(c(c(F)c(c21)[H])[H])[H])([H])[H])([H])[H])[H])([H])([H])[H]

>  <h>  (54) 
<NA>

>  <Training>  (54) 
True

>  <Success>  (54) 
True

>  <enamine_searched>  (54) 
False

>  <enamine_id>  (54) 
nan

$$$$

     RDKit          3D

 59 63  0  0  0  0  0  0  0  0999 V2000
  -14.4850   -1.2910  -23.4629 C   0  0  0  0  0  0  0  0  0  0  0  0
  -13.8023   -2.5109  -23.0824 N   0  0  0  0  0  0  0  0  0  0  0  0
  -13.4705   -2.6952  -21.7785 C   0  0  0  0  0  0  0  0  0  0  0  0
  -13.9291   -2.0327  -20.8626 O   0  0  0  0  0  0  0  0  0  0  0  0
  -12.5457   -3.8795  -21.5360 C   0  0  0  0  0  0  0  0  0  0  0  0
  -11.2336   -3.7896  -22.1634 N   0  0  0  0  0  0  0  0  0  0  0  0
  -10.0885   -3.3011  -21.4045 C   0  0  0  0  0  0  0  0  0  0  0  0
   -8.8524   -2.9551  -22.2813 C   0  0  2  0  0  0  0  0  0  0  0  0
   -7.6423   -2.7435  -21.3472 C   0  0  0  0  0  0  0  0  0  0  0  0
   -6.9969   -3.6097  -20.7953 O   0  0  0  0  0  0  0  0  0  0  0  0
   -7.3794   -1.3906  -21.2381 N   0  0  0  0  0  0  0  0  0  0  0  0
   -6.5822   -0.8672  -20.1871 C   0  0  0  0  0  0  0  0  0  0  0  0
   -6.9025   -1.1007  -18.8718 C   0  0  0  0  0  0  0  0  0  0  0  0
   -6.2375   -0.5644  -17.8164 N   0  0  0  0  0  0  0  0  0  0  0  0
   -5.2095    0.2064  -18.0803 C   0  0  0  0  0  0  0  0  0  0  0  0
   -4.7567    0.5097  -19.3961 C   0  0  0  0  0  0  0  0  0  0  0  0
   -3.6306    1.3388  -19.6309 C   0  0  0  0  0  0  0  0  0  0  0  0
   -3.2235    1.6080  -20.9084 C   0  0  0  0  0  0  0  0  0  0  0  0
   -3.9223    1.0664  -22.0104 C   0  0  0  0  0  0  0  0  0  0  0  0
   -5.0188    0.2639  -21.8105 C   0  0  0  0  0  0  0  0  0  0  0  0
   -5.4614   -0.0329  -20.4924 C   0  0  0  0  0  0  0  0  0  0  0  0
   -5.5516   -0.1480  -22.6624 H   0  0  0  0  0  0  0  0  0  0  0  0
   -3.5925    1.2954  -23.0196 H   0  0  0  0  0  0  0  0  0  0  0  0
   -2.3634    2.2473  -21.0854 H   0  0  0  0  0  0  0  0  0  0  0  0
   -3.1131    1.7575  -18.7730 H   0  0  0  0  0  0  0  0  0  0  0  0
   -4.6703    0.6383  -17.2357 H   0  0  0  0  0  0  0  0  0  0  0  0
   -7.7422   -1.7463  -18.6212 H   0  0  0  0  0  0  0  0  0  0  0  0
   -8.3789   -0.5802  -21.9143 C   0  0  0  0  0  0  0  0  0  0  0  0
   -9.0011   -1.5283  -22.9704 C   0  0  0  0  0  0  0  0  0  0  0  0
  -10.4542   -1.1328  -23.2578 C   0  0  0  0  0  0  0  0  0  0  0  0
  -11.0511   -1.0930  -22.3411 H   0  0  0  0  0  0  0  0  0  0  0  0
  -10.9153   -1.8619  -23.9331 H   0  0  0  0  0  0  0  0  0  0  0  0
  -10.4970   -0.1440  -23.7252 H   0  0  0  0  0  0  0  0  0  0  0  0
   -8.2260   -1.4582  -24.2965 C   0  0  0  0  0  0  0  0  0  0  0  0
   -8.6449   -2.1811  -25.0058 H   0  0  0  0  0  0  0  0  0  0  0  0
   -8.3189   -0.4586  -24.7333 H   0  0  0  0  0  0  0  0  0  0  0  0
   -7.1606   -1.6880  -24.1714 H   0  0  0  0  0  0  0  0  0  0  0  0
   -7.9235    0.3115  -22.3593 H   0  0  0  0  0  0  0  0  0  0  0  0
   -9.1430   -0.2428  -21.1949 H   0  0  0  0  0  0  0  0  0  0  0  0
   -8.6190   -4.1120  -23.2306 C   0  0  0  0  0  0  0  0  0  0  0  0
   -7.3319   -4.4610  -23.6577 C   0  0  0  0  0  0  0  0  0  0  0  0
   -7.1655   -5.4544  -24.6055 C   0  0  0  0  0  0  0  0  0  0  0  0
   -5.5723   -5.7920  -25.2079 Cl  0  0  0  0  0  0  0  0  0  0  0  0
   -8.2468   -6.1686  -25.1155 C   0  0  0  0  0  0  0  0  0  0  0  0
   -9.5161   -5.8415  -24.6756 C   0  0  0  0  0  0  0  0  0  0  0  0
   -9.7093   -4.7998  -23.7688 C   0  0  0  0  0  0  0  0  0  0  0  0
  -11.0978   -4.4372  -23.3539 C   0  0  0  0  0  0  0  0  0  0  0  0
  -12.0858   -4.7061  -24.0341 O   0  0  0  0  0  0  0  0  0  0  0  0
  -10.3759   -6.4130  -25.0054 H   0  0  0  0  0  0  0  0  0  0  0  0
   -8.0907   -6.9477  -25.8551 H   0  0  0  0  0  0  0  0  0  0  0  0
   -6.4664   -3.9421  -23.2616 H   0  0  0  0  0  0  0  0  0  0  0  0
  -10.3817   -2.4040  -20.8478 H   0  0  0  0  0  0  0  0  0  0  0  0
   -9.7859   -4.0582  -20.6828 H   0  0  0  0  0  0  0  0  0  0  0  0
  -12.4744   -4.0280  -20.4604 H   0  0  0  0  0  0  0  0  0  0  0  0
  -13.0429   -4.7409  -21.9908 H   0  0  0  0  0  0  0  0  0  0  0  0
  -13.5182   -3.2118  -23.7607 H   0  0  0  0  0  0  0  0  0  0  0  0
  -13.8030   -0.4255  -23.4458 H   0  0  0  0  0  0  0  0  0  0  0  0
  -14.8897   -1.3886  -24.4735 H   0  0  0  0  0  0  0  0  0  0  0  0
  -15.3006   -1.1000  -22.7578 H   0  0  0  0  0  0  0  0  0  0  0  0
  1  2  1  0
  2  3  1  0
  3  4  2  0
  3  5  1  0
  5  6  1  0
  6  7  1  0
  8  7  1  1
  8  9  1  0
  9 10  2  0
  9 11  1  0
 11 12  1  0
 12 13  2  0
 13 14  1  0
 14 15  2  0
 15 16  1  0
 16 17  2  0
 17 18  1  0
 18 19  2  0
 19 20  1  0
 20 21  2  0
 20 22  1  0
 19 23  1  0
 18 24  1  0
 17 25  1  0
 15 26  1  0
 13 27  1  0
 11 28  1  0
 28 29  1  0
 29 30  1  0
 30 31  1  0
 30 32  1  0
 30 33  1  0
 29 34  1  0
 34 35  1  0
 34 36  1  0
 34 37  1  0
 28 38  1  0
 28 39  1  0
  8 40  1  0
 40 41  2  0
 41 42  1  0
 42 43  1  0
 42 44  2  0
 44 45  1  0
 45 46  2  0
 46 47  1  0
 47 48  2  0
 45 49  1  0
 44 50  1  0
 41 51  1  0
  7 52  1  0
  7 53  1  0
  5 54  1  0
  5 55  1  0
  2 56  1  0
  1 57  1  0
  1 58  1  0
  1 59  1  0
 47  6  1  0
 29  8  1  0
 46 40  1  0
 21 12  1  0
 21 16  1  0
M  END
>  <cnnaffinities>  (55) 
[6.48603]

>  <score>  (55) 
6.48603

>  <index>  (55) 
57

>  <Smiles>  (55) 
C(N(C(=O)C(N1C([C@@]2(C(=O)N(c3c(nc(c4c(c(c(c(c34)[H])[H])[H])[H])[H])[H])C(C2(C([H])([H])[H])C([H])([H])[H])([H])[H])c2c(c(Cl)c(c(c2C1=O)[H])[H])[H])([H])[H])([H])[H])[H])([H])([H])[H]

>  <h>  (55) 
<NA>

>  <Training>  (55) 
True

>  <Success>  (55) 
True

>  <enamine_searched>  (55) 
False

>  <enamine_id>  (55) 
nan

$$$$

     RDKit          3D

 42 45  0  0  0  0  0  0  0  0999 V2000
   -7.2348   -5.3340  -21.6913 C   0  0  0  0  0  0  0  0  0  0  0  0
   -8.0052   -4.3477  -22.4269 N   0  0  0  0  0  0  0  0  0  0  0  0
   -9.2663   -3.7897  -21.9526 C   0  0  0  0  0  0  0  0  0  0  0  0
   -9.4221   -2.2931  -22.2591 C   0  0  1  0  0  0  0  0  0  0  0  0
   -8.6750   -1.2807  -21.3854 C   0  0  0  0  0  0  0  0  0  0  0  0
   -9.2592   -0.3216  -20.9129 O   0  0  0  0  0  0  0  0  0  0  0  0
   -7.3244   -1.4815  -21.2116 N   0  0  0  0  0  0  0  0  0  0  0  0
   -6.5793   -0.8554  -20.1852 C   0  0  0  0  0  0  0  0  0  0  0  0
   -6.9147   -1.0563  -18.8658 C   0  0  0  0  0  0  0  0  0  0  0  0
   -6.2301   -0.5475  -17.8094 N   0  0  0  0  0  0  0  0  0  0  0  0
   -5.1892    0.2028  -18.0805 C   0  0  0  0  0  0  0  0  0  0  0  0
   -4.7367    0.5007  -19.3986 C   0  0  0  0  0  0  0  0  0  0  0  0
   -3.6199    1.3419  -19.6345 C   0  0  0  0  0  0  0  0  0  0  0  0
   -3.2344    1.6375  -20.9134 C   0  0  0  0  0  0  0  0  0  0  0  0
   -3.9488    1.1158  -22.0160 C   0  0  0  0  0  0  0  0  0  0  0  0
   -5.0371    0.2991  -21.8170 C   0  0  0  0  0  0  0  0  0  0  0  0
   -5.4482   -0.0357  -20.4968 C   0  0  0  0  0  0  0  0  0  0  0  0
   -5.6010   -0.0646  -22.6749 H   0  0  0  0  0  0  0  0  0  0  0  0
   -3.6380    1.3719  -23.0259 H   0  0  0  0  0  0  0  0  0  0  0  0
   -2.3791    2.2837  -21.0918 H   0  0  0  0  0  0  0  0  0  0  0  0
   -3.0974    1.7527  -18.7753 H   0  0  0  0  0  0  0  0  0  0  0  0
   -4.6364    0.6232  -17.2394 H   0  0  0  0  0  0  0  0  0  0  0  0
   -7.7728   -1.6825  -18.6269 H   0  0  0  0  0  0  0  0  0  0  0  0
   -6.8215   -2.0287  -21.8984 H   0  0  0  0  0  0  0  0  0  0  0  0
   -9.0462   -2.0456  -23.6901 C   0  0  0  0  0  0  0  0  0  0  0  0
   -9.5325   -0.9142  -24.3403 C   0  0  0  0  0  0  0  0  0  0  0  0
   -9.1029   -0.6349  -25.6285 C   0  0  0  0  0  0  0  0  0  0  0  0
   -9.6997    0.7872  -26.4380 Cl  0  0  0  0  0  0  0  0  0  0  0  0
   -8.1710   -1.4454  -26.2747 C   0  0  0  0  0  0  0  0  0  0  0  0
   -7.6786   -2.5574  -25.6205 C   0  0  0  0  0  0  0  0  0  0  0  0
   -8.1208   -2.8548  -24.3360 C   0  0  0  0  0  0  0  0  0  0  0  0
   -7.4997   -4.0257  -23.6563 C   0  0  0  0  0  0  0  0  0  0  0  0
   -6.5497   -4.6243  -24.1434 O   0  0  0  0  0  0  0  0  0  0  0  0
   -6.9303   -3.2066  -26.0616 H   0  0  0  0  0  0  0  0  0  0  0  0
   -7.8129   -1.1817  -27.2614 H   0  0  0  0  0  0  0  0  0  0  0  0
  -10.2347   -0.2589  -23.8374 H   0  0  0  0  0  0  0  0  0  0  0  0
  -10.4655   -2.0107  -22.0902 H   0  0  0  0  0  0  0  0  0  0  0  0
  -10.0955   -4.2825  -22.4781 H   0  0  0  0  0  0  0  0  0  0  0  0
   -9.3800   -3.9726  -20.8819 H   0  0  0  0  0  0  0  0  0  0  0  0
   -7.8198   -5.8525  -20.9364 H   0  0  0  0  0  0  0  0  0  0  0  0
   -6.8700   -6.0789  -22.4025 H   0  0  0  0  0  0  0  0  0  0  0  0
   -6.3600   -4.8882  -21.2074 H   0  0  0  0  0  0  0  0  0  0  0  0
  1  2  1  0
  2  3  1  0
  3  4  1  0
  4  5  1  0
  5  6  2  0
  5  7  1  0
  7  8  1  0
  8  9  2  0
  9 10  1  0
 10 11  2  0
 11 12  1  0
 12 13  2  0
 13 14  1  0
 14 15  2  0
 15 16  1  0
 16 17  2  0
 16 18  1  0
 15 19  1  0
 14 20  1  0
 13 21  1  0
 11 22  1  0
  9 23  1  0
  7 24  1  0
  4 25  1  0
 25 26  2  0
 26 27  1  0
 27 28  1  0
 27 29  2  0
 29 30  1  0
 30 31  2  0
 31 32  1  0
 32 33  2  0
 30 34  1  0
 29 35  1  0
 26 36  1  0
  4 37  1  6
  3 38  1  0
  3 39  1  0
  1 40  1  0
  1 41  1  0
  1 42  1  0
 32  2  1  0
 17  8  1  0
 31 25  1  0
 17 12  1  0
M  END
>  <cnnaffinities>  (56) 
[5.0783, 5.63499]

>  <score>  (56) 
5.0783

>  <index>  (56) 
58

>  <Smiles>  (56) 
C(N1C([C@@](C(=O)N(c2c(nc(c3c(c(c(c(c23)[H])[H])[H])[H])[H])[H])[H])(c2c(c(Cl)c(c(c2C1=O)[H])[H])[H])[H])([H])[H])([H])([H])[H]

>  <h>  (56) 
<NA>

>  <Training>  (56) 
True

>  <Success>  (56) 
True

>  <enamine_searched>  (56) 
False

>  <enamine_id>  (56) 
nan

$$$$

     RDKit          3D

 60 65  0  0  0  0  0  0  0  0999 V2000
  -15.0293   -2.9141  -24.3460 C   0  0  0  0  0  0  0  0  0  0  0  0
  -14.2752   -3.4441  -23.2334 N   0  0  0  0  0  0  0  0  0  0  0  0
  -13.5730   -2.6811  -22.3554 C   0  0  0  0  0  0  0  0  0  0  0  0
  -13.7065   -1.4816  -22.1990 O   0  0  0  0  0  0  0  0  0  0  0  0
  -12.5830   -3.4849  -21.5163 C   0  0  0  0  0  0  0  0  0  0  0  0
  -11.2655   -3.5714  -22.1500 N   0  0  0  0  0  0  0  0  0  0  0  0
  -10.0816   -3.1107  -21.4293 C   0  0  0  0  0  0  0  0  0  0  0  0
   -8.8729   -2.7752  -22.3271 C   0  0  2  0  0  0  0  0  0  0  0  0
   -7.6667   -2.6458  -21.3900 C   0  0  0  0  0  0  0  0  0  0  0  0
   -7.0631   -3.5516  -20.8458 O   0  0  0  0  0  0  0  0  0  0  0  0
   -7.3630   -1.3117  -21.2333 N   0  0  0  0  0  0  0  0  0  0  0  0
   -6.5524   -0.8561  -20.1711 C   0  0  0  0  0  0  0  0  0  0  0  0
   -6.8702   -1.1273  -18.8651 C   0  0  0  0  0  0  0  0  0  0  0  0
   -6.2227   -0.5830  -17.8033 N   0  0  0  0  0  0  0  0  0  0  0  0
   -5.2138    0.2194  -18.0530 C   0  0  0  0  0  0  0  0  0  0  0  0
   -4.7467    0.5386  -19.3639 C   0  0  0  0  0  0  0  0  0  0  0  0
   -3.6231    1.3737  -19.6058 C   0  0  0  0  0  0  0  0  0  0  0  0
   -3.2165    1.6312  -20.8874 C   0  0  0  0  0  0  0  0  0  0  0  0
   -3.9084    1.0765  -21.9871 C   0  0  0  0  0  0  0  0  0  0  0  0
   -4.9973    0.2679  -21.7800 C   0  0  0  0  0  0  0  0  0  0  0  0
   -5.4380   -0.0133  -20.4614 C   0  0  0  0  0  0  0  0  0  0  0  0
   -5.5281   -0.1787  -22.6142 H   0  0  0  0  0  0  0  0  0  0  0  0
   -3.5786    1.2890  -22.9990 H   0  0  0  0  0  0  0  0  0  0  0  0
   -2.3538    2.2647  -21.0709 H   0  0  0  0  0  0  0  0  0  0  0  0
   -3.0953    1.7939  -18.7543 H   0  0  0  0  0  0  0  0  0  0  0  0
   -4.7030    0.6539  -17.1926 H   0  0  0  0  0  0  0  0  0  0  0  0
   -7.6967   -1.7962  -18.6296 H   0  0  0  0  0  0  0  0  0  0  0  0
   -8.3233   -0.4282  -21.8738 C   0  0  0  0  0  0  0  0  0  0  0  0
   -8.9778   -1.3227  -22.9329 C   0  0  2  0  0  0  0  0  0  0  0  0
  -10.3693   -0.7933  -23.3126 C   0  0  0  0  0  0  0  0  0  0  0  0
  -10.9121   -1.4714  -24.5299 C   0  0  0  0  0  0  0  0  0  0  0  0
  -10.1727   -2.2230  -25.3354 N   0  0  0  0  0  0  0  0  0  0  0  0
  -11.0339   -2.7271  -26.2131 N   0  0  0  0  0  0  0  0  0  0  0  0
  -12.2238   -2.2766  -25.9706 N   0  0  0  0  0  2  0  0  0  0  0  0
  -12.1748   -1.4484  -24.9278 N   0  0  0  0  0  0  0  0  0  0  0  0
  -10.3351    0.2860  -23.5016 H   0  0  0  0  0  0  0  0  0  0  0  0
  -11.0877   -0.9358  -22.5003 H   0  0  0  0  0  0  0  0  0  0  0  0
   -8.3442   -1.3332  -23.8262 H   0  0  0  0  0  0  0  0  0  0  0  0
   -7.8262    0.4510  -22.2978 H   0  0  0  0  0  0  0  0  0  0  0  0
   -9.0614   -0.0618  -21.1404 H   0  0  0  0  0  0  0  0  0  0  0  0
   -8.6845   -3.9156  -23.3082 C   0  0  0  0  0  0  0  0  0  0  0  0
   -7.4292   -4.1768  -23.8758 C   0  0  0  0  0  0  0  0  0  0  0  0
   -7.2705   -5.1948  -24.7974 C   0  0  0  0  0  0  0  0  0  0  0  0
   -5.7038   -5.4893  -25.4874 Cl  0  0  0  0  0  0  0  0  0  0  0  0
   -8.3450   -5.9843  -25.1941 C   0  0  0  0  0  0  0  0  0  0  0  0
   -9.5869   -5.7194  -24.6450 C   0  0  0  0  0  0  0  0  0  0  0  0
   -9.7605   -4.7141  -23.6948 C   0  0  0  0  0  0  0  0  0  0  0  0
  -11.1360   -4.4372  -23.1975 C   0  0  0  0  0  0  0  0  0  0  0  0
  -12.1099   -4.9465  -23.7560 O   0  0  0  0  0  0  0  0  0  0  0  0
  -10.4567   -6.2830  -24.9580 H   0  0  0  0  0  0  0  0  0  0  0  0
   -8.2104   -6.7867  -25.9138 H   0  0  0  0  0  0  0  0  0  0  0  0
   -6.5695   -3.5919  -23.5727 H   0  0  0  0  0  0  0  0  0  0  0  0
  -10.3185   -2.2103  -20.8522 H   0  0  0  0  0  0  0  0  0  0  0  0
   -9.7500   -3.8768  -20.7268 H   0  0  0  0  0  0  0  0  0  0  0  0
  -12.5144   -3.0040  -20.5456 H   0  0  0  0  0  0  0  0  0  0  0  0
  -12.9828   -4.4803  -21.3446 H   0  0  0  0  0  0  0  0  0  0  0  0
  -13.8179   -4.3193  -23.4416 H   0  0  0  0  0  0  0  0  0  0  0  0
  -14.4647   -2.9858  -25.2926 H   0  0  0  0  0  0  0  0  0  0  0  0
  -15.9679   -3.4660  -24.4263 H   0  0  0  0  0  0  0  0  0  0  0  0
  -15.2375   -1.8633  -24.1530 H   0  0  0  0  0  0  0  0  0  0  0  0
  1  2  1  0
  2  3  1  0
  3  4  2  0
  3  5  1  0
  5  6  1  0
  6  7  1  0
  8  7  1  1
  8  9  1  0
  9 10  2  0
  9 11  1  0
 11 12  1  0
 12 13  2  0
 13 14  1  0
 14 15  2  0
 15 16  1  0
 16 17  2  0
 17 18  1  0
 18 19  2  0
 19 20  1  0
 20 21  2  0
 20 22  1  0
 19 23  1  0
 18 24  1  0
 17 25  1  0
 15 26  1  0
 13 27  1  0
 11 28  1  0
 28 29  1  0
 29 30  1  0
 30 31  1  0
 31 32  1  0
 32 33  2  0
 33 34  1  0
 34 35  1  0
 30 36  1  0
 30 37  1  0
 29 38  1  6
 28 39  1  0
 28 40  1  0
  8 41  1  0
 41 42  2  0
 42 43  1  0
 43 44  1  0
 43 45  2  0
 45 46  1  0
 46 47  2  0
 47 48  1  0
 48 49  2  0
 46 50  1  0
 45 51  1  0
 42 52  1  0
  7 53  1  0
  7 54  1  0
  5 55  1  0
  5 56  1  0
  2 57  1  0
  1 58  1  0
  1 59  1  0
  1 60  1  0
 48  6  1  0
 29  8  1  0
 35 31  2  0
 47 41  1  0
 21 12  1  0
 21 16  1  0
M  CHG  1  34  -1
M  END
>  <cnnaffinities>  (57) 
[6.17348]

>  <score>  (57) 
6.17348

>  <index>  (57) 
59

>  <Smiles>  (57) 
C(N(C(=O)C(N1C([C@@]2(C(=O)N(c3c(nc(c4c(c(c(c(c34)[H])[H])[H])[H])[H])[H])C([C@@]2(C(c2nn[n-]n2)([H])[H])[H])([H])[H])c2c(c(Cl)c(c(c2C1=O)[H])[H])[H])([H])[H])([H])[H])[H])([H])([H])[H]

>  <h>  (57) 
<NA>

>  <Training>  (57) 
True

>  <Success>  (57) 
True

>  <enamine_searched>  (57) 
False

>  <enamine_id>  (57) 
nan

$$$$

     RDKit          3D

 62 67  0  0  0  0  0  0  0  0999 V2000
  -11.5886    2.5018  -21.8404 C   0  0  0  0  0  0  0  0  0  0  0  0
  -10.7393    3.3533  -22.7871 C   0  0  0  0  0  0  0  0  0  0  0  0
   -9.3585    2.9233  -23.0042 N   0  0  0  0  0  0  0  0  0  0  0  0
   -7.1232    2.9812  -22.9672 N   0  0  0  0  0  0  0  0  0  0  0  0
   -8.2233    3.4656  -22.4475 C   0  0  0  0  0  0  0  0  0  0  0  0
   -7.5566    2.1048  -23.9267 C   0  0  0  0  0  0  0  0  0  0  0  0
   -8.9250    2.0530  -23.9854 C   0  0  0  0  0  0  0  0  0  0  0  0
   -9.8408    1.2615  -24.8602 C   0  0  0  0  0  0  0  0  0  0  0  0
  -10.2497    0.0144  -24.2267 N   0  0  0  0  0  0  0  0  0  0  0  0
   -9.2539   -1.0265  -24.0494 C   0  0  0  0  0  0  0  0  0  0  0  0
   -9.3816   -1.7750  -22.7018 C   0  0  2  0  0  0  0  0  0  0  0  0
   -8.8278   -0.8911  -21.5394 C   0  0  0  0  0  0  0  0  0  0  0  0
   -9.4010    0.0184  -20.9820 O   0  0  0  0  0  0  0  0  0  0  0  0
   -7.5399   -1.3012  -21.2493 N   0  0  0  0  0  0  0  0  0  0  0  0
   -6.7644   -0.7531  -20.1933 C   0  0  0  0  0  0  0  0  0  0  0  0
   -7.0977   -0.9842  -18.8801 C   0  0  0  0  0  0  0  0  0  0  0  0
   -6.3773   -0.5437  -17.8164 N   0  0  0  0  0  0  0  0  0  0  0  0
   -5.3049    0.1700  -18.0600 C   0  0  0  0  0  0  0  0  0  0  0  0
   -4.8516    0.5017  -19.3669 C   0  0  0  0  0  0  0  0  0  0  0  0
   -3.7024    1.3105  -19.5822 C   0  0  0  0  0  0  0  0  0  0  0  0
   -3.2801    1.5902  -20.8526 C   0  0  0  0  0  0  0  0  0  0  0  0
   -3.9715    1.0525  -21.9632 C   0  0  0  0  0  0  0  0  0  0  0  0
   -5.0782    0.2588  -21.7773 C   0  0  0  0  0  0  0  0  0  0  0  0
   -5.5738   -0.0047  -20.4724 C   0  0  0  0  0  0  0  0  0  0  0  0
   -5.5760   -0.1735  -22.6399 H   0  0  0  0  0  0  0  0  0  0  0  0
   -3.6221    1.2601  -22.9716 H   0  0  0  0  0  0  0  0  0  0  0  0
   -2.4130    2.2252  -21.0206 H   0  0  0  0  0  0  0  0  0  0  0  0
   -3.1691    1.6901  -18.7134 H   0  0  0  0  0  0  0  0  0  0  0  0
   -4.7272    0.5232  -17.2032 H   0  0  0  0  0  0  0  0  0  0  0  0
   -7.9827   -1.5661  -18.6368 H   0  0  0  0  0  0  0  0  0  0  0  0
   -7.0903   -2.4076  -22.0705 C   0  0  0  0  0  0  0  0  0  0  0  0
   -8.3908   -2.9807  -22.6549 C   0  0  2  0  0  0  0  0  0  0  0  0
   -8.1508   -3.7137  -23.9720 C   0  0  0  0  0  0  0  0  0  0  0  0
   -7.6348   -3.0618  -24.6885 H   0  0  0  0  0  0  0  0  0  0  0  0
   -9.0860   -4.0473  -24.4366 H   0  0  0  0  0  0  0  0  0  0  0  0
   -7.5136   -4.5899  -23.8181 H   0  0  0  0  0  0  0  0  0  0  0  0
   -8.7786   -3.6931  -21.9225 H   0  0  0  0  0  0  0  0  0  0  0  0
   -6.5388   -3.1355  -21.4679 H   0  0  0  0  0  0  0  0  0  0  0  0
   -6.4301   -2.0857  -22.8897 H   0  0  0  0  0  0  0  0  0  0  0  0
  -10.8550   -2.1249  -22.5237 C   0  0  0  0  0  0  0  0  0  0  0  0
  -11.2545   -3.1934  -21.7165 C   0  0  0  0  0  0  0  0  0  0  0  0
  -12.5834   -3.3334  -21.3742 C   0  0  0  0  0  0  0  0  0  0  0  0
  -12.9164   -4.2747  -20.4813 F   0  0  0  0  0  0  0  0  0  0  0  0
  -13.5944   -2.5149  -21.8556 C   0  0  0  0  0  0  0  0  0  0  0  0
  -13.2260   -1.5133  -22.7283 C   0  0  0  0  0  0  0  0  0  0  0  0
  -11.8816   -1.3262  -23.0619 C   0  0  0  0  0  0  0  0  0  0  0  0
  -11.5723   -0.1962  -23.9885 C   0  0  0  0  0  0  0  0  0  0  0  0
  -12.4518    0.5314  -24.4382 O   0  0  0  0  0  0  0  0  0  0  0  0
  -13.9581   -0.8315  -23.1497 H   0  0  0  0  0  0  0  0  0  0  0  0
  -14.6169   -2.6720  -21.5289 H   0  0  0  0  0  0  0  0  0  0  0  0
  -10.5545   -3.9080  -21.2999 H   0  0  0  0  0  0  0  0  0  0  0  0
   -8.2673   -0.5641  -24.1229 H   0  0  0  0  0  0  0  0  0  0  0  0
   -9.3530   -1.7612  -24.8563 H   0  0  0  0  0  0  0  0  0  0  0  0
  -10.7708    1.7918  -25.0952 H   0  0  0  0  0  0  0  0  0  0  0  0
   -9.3428    1.0346  -25.8117 H   0  0  0  0  0  0  0  0  0  0  0  0
   -6.8572    1.5480  -24.5248 H   0  0  0  0  0  0  0  0  0  0  0  0
   -8.2488    4.1935  -21.6457 H   0  0  0  0  0  0  0  0  0  0  0  0
  -11.2462    3.3897  -23.7649 H   0  0  0  0  0  0  0  0  0  0  0  0
  -10.6854    4.3790  -22.4049 H   0  0  0  0  0  0  0  0  0  0  0  0
  -11.1310    2.3111  -20.8681 H   0  0  0  0  0  0  0  0  0  0  0  0
  -12.5096    3.0633  -21.6617 H   0  0  0  0  0  0  0  0  0  0  0  0
  -11.8479    1.5367  -22.2778 H   0  0  0  0  0  0  0  0  0  0  0  0
  1  2  1  0
  2  3  1  0
  3  4  1  0
  4  5  2  0
  5  6  1  0
  6  7  2  0
  7  8  1  0
  8  9  1  0
  9 10  1  0
 11 10  1  6
 11 12  1  0
 12 13  2  0
 12 14  1  0
 14 15  1  0
 15 16  2  0
 16 17  1  0
 17 18  2  0
 18 19  1  0
 19 20  2  0
 20 21  1  0
 21 22  2  0
 22 23  1  0
 23 24  2  0
 23 25  1  0
 22 26  1  0
 21 27  1  0
 20 28  1  0
 18 29  1  0
 16 30  1  0
 14 31  1  0
 31 32  1  0
 32 33  1  0
 33 34  1  0
 33 35  1  0
 33 36  1  0
 32 37  1  1
 31 38  1  0
 31 39  1  0
 11 40  1  0
 40 41  2  0
 41 42  1  0
 42 43  1  0
 42 44  2  0
 44 45  1  0
 45 46  2  0
 46 47  1  0
 47 48  2  0
 45 49  1  0
 44 50  1  0
 41 51  1  0
 10 52  1  0
 10 53  1  0
  8 54  1  0
  8 55  1  0
  6 56  1  0
  5 57  1  0
  2 58  1  0
  2 59  1  0
  1 60  1  0
  1 61  1  0
  1 62  1  0
  7  3  1  0
 47  9  1  0
 32 11  1  0
 46 40  1  0
 24 15  1  0
 24 19  1  0
M  END
>  <cnnaffinities>  (58) 
[6.90698]

>  <score>  (58) 
6.90698

>  <index>  (58) 
60

>  <Smiles>  (58) 
C(C(n1nc(c(c1C(N1C([C@@]2(C(=O)N(c3c(nc(c4c(c(c(c(c34)[H])[H])[H])[H])[H])[H])C([C@@]2(C([H])([H])[H])[H])([H])[H])c2c(c(F)c(c(c2C1=O)[H])[H])[H])([H])[H])([H])[H])[H])[H])([H])[H])([H])([H])[H]

>  <h>  (58) 
<NA>

>  <Training>  (58) 
True

>  <Success>  (58) 
True

>  <enamine_searched>  (58) 
False

>  <enamine_id>  (58) 
nan

$$$$

     RDKit          3D

 44 47  0  0  0  0  0  0  0  0999 V2000
   -9.1600    0.2443  -21.0762 O   0  0  0  0  0  0  0  0  0  0  0  0
   -8.3730   -0.3144  -21.8117 C   0  0  0  0  0  0  0  0  0  0  0  0
   -7.4424   -1.4120  -21.2705 C   0  0  0  0  0  0  0  0  0  0  0  0
   -6.5707   -0.8351  -20.1733 C   0  0  0  0  0  0  0  0  0  0  0  0
   -6.8773   -1.0410  -18.8538 C   0  0  0  0  0  0  0  0  0  0  0  0
   -6.1924   -0.5339  -17.7926 N   0  0  0  0  0  0  0  0  0  0  0  0
   -5.1565    0.2230  -18.0636 C   0  0  0  0  0  0  0  0  0  0  0  0
   -4.7223    0.5348  -19.3798 C   0  0  0  0  0  0  0  0  0  0  0  0
   -3.6011    1.3694  -19.6224 C   0  0  0  0  0  0  0  0  0  0  0  0
   -3.2122    1.6630  -20.9011 C   0  0  0  0  0  0  0  0  0  0  0  0
   -3.9321    1.1288  -21.9940 C   0  0  0  0  0  0  0  0  0  0  0  0
   -5.0196    0.3165  -21.7851 C   0  0  0  0  0  0  0  0  0  0  0  0
   -5.4491   -0.0029  -20.4701 C   0  0  0  0  0  0  0  0  0  0  0  0
   -5.5538   -0.0867  -22.6382 H   0  0  0  0  0  0  0  0  0  0  0  0
   -3.6158    1.3670  -23.0057 H   0  0  0  0  0  0  0  0  0  0  0  0
   -2.3584    2.3097  -21.0853 H   0  0  0  0  0  0  0  0  0  0  0  0
   -3.0646    1.7808  -18.7708 H   0  0  0  0  0  0  0  0  0  0  0  0
   -4.6022    0.6286  -17.2149 H   0  0  0  0  0  0  0  0  0  0  0  0
   -7.7296   -1.6610  -18.5814 H   0  0  0  0  0  0  0  0  0  0  0  0
   -8.0717   -2.2023  -20.8444 H   0  0  0  0  0  0  0  0  0  0  0  0
   -6.8318   -1.8521  -22.0685 H   0  0  0  0  0  0  0  0  0  0  0  0
   -8.1959    0.0594  -23.1444 N   0  0  0  0  0  0  0  0  0  0  0  0
   -8.3977    1.4596  -23.5015 C   0  0  0  0  0  0  0  0  0  0  0  0
   -7.3916    1.8626  -24.5791 C   0  0  0  0  0  0  0  0  0  0  0  0
   -7.4468    0.9343  -25.7881 C   0  0  0  0  0  0  0  0  0  0  0  0
   -6.4903    1.3370  -26.9354 C   0  0  0  0  0  0  0  0  0  0  0  0
   -7.6903    1.5933  -27.8746 C   0  0  0  0  0  0  0  0  0  0  0  0
   -8.6532    1.1928  -26.7348 C   0  0  0  0  0  0  0  0  0  0  0  0
   -9.2659    0.3098  -26.9369 H   0  0  0  0  0  0  0  0  0  0  0  0
   -9.3266    1.9864  -26.3989 H   0  0  0  0  0  0  0  0  0  0  0  0
   -7.7900    2.6267  -28.2179 H   0  0  0  0  0  0  0  0  0  0  0  0
   -7.7292    0.9467  -28.7556 H   0  0  0  0  0  0  0  0  0  0  0  0
   -5.8740    2.2142  -26.7209 H   0  0  0  0  0  0  0  0  0  0  0  0
   -5.8141    0.5395  -27.2556 H   0  0  0  0  0  0  0  0  0  0  0  0
   -7.2941   -0.5168  -25.3456 C   0  0  0  0  0  0  0  0  0  0  0  0
   -8.2935   -0.8802  -24.2559 C   0  0  0  0  0  0  0  0  0  0  0  0
   -9.3120   -0.8850  -24.6871 H   0  0  0  0  0  0  0  0  0  0  0  0
   -8.1179   -1.8881  -23.8816 H   0  0  0  0  0  0  0  0  0  0  0  0
   -6.2752   -0.6828  -24.9743 H   0  0  0  0  0  0  0  0  0  0  0  0
   -7.4222   -1.1787  -26.2085 H   0  0  0  0  0  0  0  0  0  0  0  0
   -6.3772    1.8571  -24.1556 H   0  0  0  0  0  0  0  0  0  0  0  0
   -7.5778    2.8918  -24.9010 H   0  0  0  0  0  0  0  0  0  0  0  0
   -8.2535    2.0564  -22.6001 H   0  0  0  0  0  0  0  0  0  0  0  0
   -9.4255    1.6590  -23.8456 H   0  0  0  0  0  0  0  0  0  0  0  0
  1  2  2  0
  2  3  1  0
  3  4  1  0
  4  5  2  0
  5  6  1  0
  6  7  2  0
  7  8  1  0
  8  9  2  0
  9 10  1  0
 10 11  2  0
 11 12  1  0
 12 13  2  0
 12 14  1  0
 11 15  1  0
 10 16  1  0
  9 17  1  0
  7 18  1  0
  5 19  1  0
  3 20  1  0
  3 21  1  0
  2 22  1  0
 22 23  1  0
 23 24  1  0
 24 25  1  0
 25 26  1  0
 26 27  1  0
 27 28  1  0
 28 29  1  0
 28 30  1  0
 27 31  1  0
 27 32  1  0
 26 33  1  0
 26 34  1  0
 25 35  1  0
 35 36  1  0
 36 37  1  0
 36 38  1  0
 35 39  1  0
 35 40  1  0
 24 41  1  0
 24 42  1  0
 23 43  1  0
 23 44  1  0
 13  4  1  0
 36 22  1  0
 13  8  1  0
 28 25  1  0
M  END
>  <cnnaffinities>  (59) 
[4.92871, 4.92872, 4.92872, 4.92868, 4.97316, 4.71717, 4.57061, 4.57029, 4.57005, 5.01421, 4.96399, 4.9605, 4.96039]

>  <score>  (59) 
4.92871

>  <index>  (59) 
61

>  <Smiles>  (59) 
O=C(C(c1c(nc(c2c(c(c(c(c12)[H])[H])[H])[H])[H])[H])([H])[H])N1C(C(C2(C(C(C2([H])[H])([H])[H])([H])[H])C(C1([H])[H])([H])[H])([H])[H])([H])[H]

>  <h>  (59) 
<NA>

>  <Training>  (59) 
True

>  <Success>  (59) 
True

>  <enamine_searched>  (59) 
False

>  <enamine_id>  (59) 
nan

$$$$

     RDKit          3D

 44 47  0  0  0  0  0  0  0  0999 V2000
   -8.3863    0.7465  -21.6437 O   0  0  0  0  0  0  0  0  0  0  0  0
   -8.5203   -0.4571  -21.8016 C   0  0  0  0  0  0  0  0  0  0  0  0
   -7.4607   -1.4392  -21.2638 C   0  0  0  0  0  0  0  0  0  0  0  0
   -6.5908   -0.8282  -20.1822 C   0  0  0  0  0  0  0  0  0  0  0  0
   -6.8863   -1.0404  -18.8620 C   0  0  0  0  0  0  0  0  0  0  0  0
   -6.2023   -0.5345  -17.7997 N   0  0  0  0  0  0  0  0  0  0  0  0
   -5.1651    0.2224  -18.0693 C   0  0  0  0  0  0  0  0  0  0  0  0
   -4.7309    0.5323  -19.3852 C   0  0  0  0  0  0  0  0  0  0  0  0
   -3.6035    1.3630  -19.6208 C   0  0  0  0  0  0  0  0  0  0  0  0
   -3.2147    1.6545  -20.8999 C   0  0  0  0  0  0  0  0  0  0  0  0
   -3.9387    1.1317  -21.9928 C   0  0  0  0  0  0  0  0  0  0  0  0
   -5.0345    0.3297  -21.7910 C   0  0  0  0  0  0  0  0  0  0  0  0
   -5.4623    0.0024  -20.4747 C   0  0  0  0  0  0  0  0  0  0  0  0
   -5.5972   -0.0458  -22.6389 H   0  0  0  0  0  0  0  0  0  0  0  0
   -3.6262    1.3771  -23.0058 H   0  0  0  0  0  0  0  0  0  0  0  0
   -2.3585    2.3009  -21.0781 H   0  0  0  0  0  0  0  0  0  0  0  0
   -3.0734    1.7654  -18.7612 H   0  0  0  0  0  0  0  0  0  0  0  0
   -4.6121    0.6254  -17.2189 H   0  0  0  0  0  0  0  0  0  0  0  0
   -7.7351   -1.6676  -18.5826 H   0  0  0  0  0  0  0  0  0  0  0  0
   -7.9692   -2.3214  -20.8503 H   0  0  0  0  0  0  0  0  0  0  0  0
   -6.8452   -1.8015  -22.1008 H   0  0  0  0  0  0  0  0  0  0  0  0
   -9.6336   -0.9598  -22.4215 N   0  0  0  0  0  0  0  0  0  0  0  0
   -9.8244   -2.3273  -22.8725 C   0  0  0  0  0  0  0  0  0  0  0  0
  -10.6136   -2.3470  -24.1900 C   0  0  0  0  0  0  0  0  0  0  0  0
  -11.9564   -1.5582  -24.1334 C   0  0  0  0  0  0  0  0  0  0  0  0
  -13.1430   -2.4839  -24.4478 C   0  0  0  0  0  0  0  0  0  0  0  0
  -13.5161   -3.6219  -23.5307 C   0  0  0  0  0  0  0  0  0  0  0  0
  -14.4614   -2.4577  -23.7209 C   0  0  0  0  0  0  0  0  0  0  0  0
  -14.6078   -1.7432  -22.9085 H   0  0  0  0  0  0  0  0  0  0  0  0
  -15.3666   -2.6242  -24.3068 H   0  0  0  0  0  0  0  0  0  0  0  0
  -12.9762   -3.7144  -22.5867 H   0  0  0  0  0  0  0  0  0  0  0  0
  -13.7701   -4.5892  -23.9671 H   0  0  0  0  0  0  0  0  0  0  0  0
  -13.2146   -2.7043  -25.5190 H   0  0  0  0  0  0  0  0  0  0  0  0
  -12.0596   -0.7730  -22.8164 C   0  0  0  0  0  0  0  0  0  0  0  0
  -10.7477   -0.0284  -22.5806 C   0  0  0  0  0  0  0  0  0  0  0  0
  -10.5488    0.6502  -23.4171 H   0  0  0  0  0  0  0  0  0  0  0  0
  -10.7370    0.6089  -21.6934 H   0  0  0  0  0  0  0  0  0  0  0  0
  -12.8889   -0.0578  -22.8794 H   0  0  0  0  0  0  0  0  0  0  0  0
  -12.2992   -1.4717  -22.0028 H   0  0  0  0  0  0  0  0  0  0  0  0
  -11.9305   -0.8117  -24.9386 H   0  0  0  0  0  0  0  0  0  0  0  0
  -10.8152   -3.3912  -24.4632 H   0  0  0  0  0  0  0  0  0  0  0  0
   -9.9802   -1.9133  -24.9749 H   0  0  0  0  0  0  0  0  0  0  0  0
  -10.3448   -2.9273  -22.1080 H   0  0  0  0  0  0  0  0  0  0  0  0
   -8.8457   -2.7853  -23.0353 H   0  0  0  0  0  0  0  0  0  0  0  0
  1  2  2  0
  2  3  1  0
  3  4  1  0
  4  5  2  0
  5  6  1  0
  6  7  2  0
  7  8  1  0
  8  9  2  0
  9 10  1  0
 10 11  2  0
 11 12  1  0
 12 13  2  0
 12 14  1  0
 11 15  1  0
 10 16  1  0
  9 17  1  0
  7 18  1  0
  5 19  1  0
  3 20  1  0
  3 21  1  0
  2 22  1  0
 22 23  1  0
 23 24  1  0
 24 25  1  0
 25 26  1  0
 26 27  1  0
 27 28  1  0
 28 29  1  0
 28 30  1  0
 27 31  1  0
 27 32  1  0
 26 33  1  0
 25 34  1  0
 34 35  1  0
 35 36  1  0
 35 37  1  0
 34 38  1  0
 34 39  1  0
 25 40  1  0
 24 41  1  0
 24 42  1  0
 23 43  1  0
 23 44  1  0
 13  4  1  0
 35 22  1  0
 13  8  1  0
 28 26  1  0
M  END
>  <cnnaffinities>  (60) 
[5.36796, 5.42893, 5.4796, 4.85466, 5.54694, 4.79569, 4.80409, 4.82526, 4.46067, 4.46094]

>  <score>  (60) 
5.36796

>  <index>  (60) 
62

>  <Smiles>  (60) 
O=C(C(c1c(nc(c2c(c(c(c(c12)[H])[H])[H])[H])[H])[H])([H])[H])N1C(C(C(C2(C(C2([H])[H])([H])[H])[H])(C(C1([H])[H])([H])[H])[H])([H])[H])([H])[H]

>  <h>  (60) 
<NA>

>  <Training>  (60) 
True

>  <Success>  (60) 
True

>  <enamine_searched>  (60) 
False

>  <enamine_id>  (60) 
nan

$$$$

     RDKit          3D

 57 61  0  0  0  0  0  0  0  0999 V2000
  -14.9184   -0.4771  -22.7626 C   0  0  0  0  0  0  0  0  0  0  0  0
  -13.9766   -1.3858  -22.1514 N   0  0  0  0  0  0  0  0  0  0  0  0
  -13.1421   -2.1704  -22.8840 C   0  0  0  0  0  0  0  0  0  0  0  0
  -12.9889   -2.0318  -24.0876 O   0  0  0  0  0  0  0  0  0  0  0  0
  -12.4744   -3.2425  -22.0209 C   0  0  0  0  0  0  0  0  0  0  0  0
  -11.1374   -3.5518  -22.4244 N   0  0  0  0  0  0  0  0  0  0  0  0
  -10.0379   -3.0806  -21.6064 C   0  0  0  0  0  0  0  0  0  0  0  0
   -8.8176   -2.6884  -22.4548 C   0  0  2  0  0  0  0  0  0  0  0  0
   -7.6461   -2.5868  -21.4483 C   0  0  0  0  0  0  0  0  0  0  0  0
   -7.0574   -3.5044  -20.9124 O   0  0  0  0  0  0  0  0  0  0  0  0
   -7.3545   -1.2558  -21.2322 N   0  0  0  0  0  0  0  0  0  0  0  0
   -6.5492   -0.8190  -20.1494 C   0  0  0  0  0  0  0  0  0  0  0  0
   -6.8533   -1.1254  -18.8452 C   0  0  0  0  0  0  0  0  0  0  0  0
   -6.2136   -0.5923  -17.7687 N   0  0  0  0  0  0  0  0  0  0  0  0
   -5.2263    0.2389  -18.0093 C   0  0  0  0  0  0  0  0  0  0  0  0
   -4.7589    0.5811  -19.3116 C   0  0  0  0  0  0  0  0  0  0  0  0
   -3.6536    1.4447  -19.5229 C   0  0  0  0  0  0  0  0  0  0  0  0
   -3.2137    1.7028  -20.7916 C   0  0  0  0  0  0  0  0  0  0  0  0
   -3.8656    1.1306  -21.9071 C   0  0  0  0  0  0  0  0  0  0  0  0
   -4.9529    0.3138  -21.7305 C   0  0  0  0  0  0  0  0  0  0  0  0
   -5.4305    0.0307  -20.4242 C   0  0  0  0  0  0  0  0  0  0  0  0
   -5.4559   -0.1295  -22.5848 H   0  0  0  0  0  0  0  0  0  0  0  0
   -3.5013    1.3397  -22.9072 H   0  0  0  0  0  0  0  0  0  0  0  0
   -2.3593    2.3523  -20.9488 H   0  0  0  0  0  0  0  0  0  0  0  0
   -3.1701    1.8787  -18.6511 H   0  0  0  0  0  0  0  0  0  0  0  0
   -4.7217    0.6764  -17.1482 H   0  0  0  0  0  0  0  0  0  0  0  0
   -7.6572   -1.8232  -18.6119 H   0  0  0  0  0  0  0  0  0  0  0  0
   -8.2983   -0.3609  -21.8813 C   0  0  0  0  0  0  0  0  0  0  0  0
   -8.8771   -1.2134  -23.0110 C   0  0  2  0  0  0  0  0  0  0  0  0
  -10.1955   -0.6092  -23.4783 C   0  0  0  0  0  0  0  0  0  0  0  0
  -11.0212   -0.3550  -22.3533 O   0  0  0  0  0  0  0  0  0  0  0  0
  -11.6650    0.3235  -22.5900 H   0  0  0  0  0  0  0  0  0  0  0  0
  -10.7230   -1.2659  -24.1735 H   0  0  0  0  0  0  0  0  0  0  0  0
   -9.9833    0.3408  -23.9884 H   0  0  0  0  0  0  0  0  0  0  0  0
   -8.1879   -1.1925  -23.8633 H   0  0  0  0  0  0  0  0  0  0  0  0
   -7.8051    0.5521  -22.2337 H   0  0  0  0  0  0  0  0  0  0  0  0
   -9.1014   -0.0740  -21.1879 H   0  0  0  0  0  0  0  0  0  0  0  0
   -8.5775   -3.7742  -23.4912 C   0  0  0  0  0  0  0  0  0  0  0  0
   -7.2859   -3.9725  -23.9946 C   0  0  0  0  0  0  0  0  0  0  0  0
   -7.0280   -4.9803  -24.9068 C   0  0  0  0  0  0  0  0  0  0  0  0
   -5.3884   -5.2917  -25.4094 Cl  0  0  0  0  0  0  0  0  0  0  0  0
   -8.0545   -5.7923  -25.3879 C   0  0  0  0  0  0  0  0  0  0  0  0
   -9.3379   -5.5893  -24.9160 C   0  0  0  0  0  0  0  0  0  0  0  0
   -9.6038   -4.6038  -23.9637 C   0  0  0  0  0  0  0  0  0  0  0  0
  -10.9973   -4.4307  -23.4608 C   0  0  0  0  0  0  0  0  0  0  0  0
  -11.9647   -5.0049  -23.9356 O   0  0  0  0  0  0  0  0  0  0  0  0
  -10.1584   -6.2155  -25.2533 H   0  0  0  0  0  0  0  0  0  0  0  0
   -7.8398   -6.5620  -26.1234 H   0  0  0  0  0  0  0  0  0  0  0  0
   -6.4672   -3.3597  -23.6365 H   0  0  0  0  0  0  0  0  0  0  0  0
   -9.7162   -3.8526  -20.8930 H   0  0  0  0  0  0  0  0  0  0  0  0
  -10.3775   -2.1937  -21.0630 H   0  0  0  0  0  0  0  0  0  0  0  0
  -13.0897   -4.1450  -22.0986 H   0  0  0  0  0  0  0  0  0  0  0  0
  -12.4411   -2.9006  -20.9854 H   0  0  0  0  0  0  0  0  0  0  0  0
  -13.9732   -1.4962  -21.1558 H   0  0  0  0  0  0  0  0  0  0  0  0
  -15.8760   -0.5365  -22.2408 H   0  0  0  0  0  0  0  0  0  0  0  0
  -14.5772    0.5627  -22.7547 H   0  0  0  0  0  0  0  0  0  0  0  0
  -15.0316   -0.8022  -23.7940 H   0  0  0  0  0  0  0  0  0  0  0  0
  1  2  1  0
  2  3  1  0
  3  4  2  0
  3  5  1  0
  5  6  1  0
  6  7  1  0
  8  7  1  1
  8  9  1  0
  9 10  2  0
  9 11  1  0
 11 12  1  0
 12 13  2  0
 13 14  1  0
 14 15  2  0
 15 16  1  0
 16 17  2  0
 17 18  1  0
 18 19  2  0
 19 20  1  0
 20 21  2  0
 20 22  1  0
 19 23  1  0
 18 24  1  0
 17 25  1  0
 15 26  1  0
 13 27  1  0
 11 28  1  0
 28 29  1  0
 29 30  1  0
 30 31  1  0
 31 32  1  0
 30 33  1  0
 30 34  1  0
 29 35  1  6
 28 36  1  0
 28 37  1  0
  8 38  1  0
 38 39  2  0
 39 40  1  0
 40 41  1  0
 40 42  2  0
 42 43  1  0
 43 44  2  0
 44 45  1  0
 45 46  2  0
 43 47  1  0
 42 48  1  0
 39 49  1  0
  7 50  1  0
  7 51  1  0
  5 52  1  0
  5 53  1  0
  2 54  1  0
  1 55  1  0
  1 56  1  0
  1 57  1  0
 45  6  1  0
 29  8  1  0
 44 38  1  0
 21 12  1  0
 21 16  1  0
M  END
>  <cnnaffinities>  (61) 
[5.98612]

>  <score>  (61) 
5.98612

>  <index>  (61) 
63

>  <Smiles>  (61) 
C(N(C(=O)C(N1C([C@@]2(C(=O)N(c3c(nc(c4c(c(c(c(c34)[H])[H])[H])[H])[H])[H])C([C@@]2(C(O[H])([H])[H])[H])([H])[H])c2c(c(Cl)c(c(c2C1=O)[H])[H])[H])([H])[H])([H])[H])[H])([H])([H])[H]

>  <h>  (61) 
<NA>

>  <Training>  (61) 
True

>  <Success>  (61) 
True

>  <enamine_searched>  (61) 
False

>  <enamine_id>  (61) 
nan

$$$$

     RDKit          3D

 55 60  0  0  0  0  0  0  0  0999 V2000
  -10.4429   -1.1024  -23.2674 C   0  0  0  0  0  0  0  0  0  0  0  0
   -8.9984   -1.4601  -22.9317 C   0  0  1  0  0  0  0  0  0  0  0  0
   -8.3655   -0.5173  -21.8967 C   0  0  0  0  0  0  0  0  0  0  0  0
   -7.3753   -1.3573  -21.2377 N   0  0  0  0  0  0  0  0  0  0  0  0
   -6.5751   -0.8675  -20.1823 C   0  0  0  0  0  0  0  0  0  0  0  0
   -6.8978   -1.1143  -18.8721 C   0  0  0  0  0  0  0  0  0  0  0  0
   -6.2403   -0.5742  -17.8154 N   0  0  0  0  0  0  0  0  0  0  0  0
   -5.2191    0.2061  -18.0810 C   0  0  0  0  0  0  0  0  0  0  0  0
   -4.7603    0.5090  -19.3951 C   0  0  0  0  0  0  0  0  0  0  0  0
   -3.6364    1.3384  -19.6291 C   0  0  0  0  0  0  0  0  0  0  0  0
   -3.2289    1.6037  -20.9085 C   0  0  0  0  0  0  0  0  0  0  0  0
   -3.9271    1.0590  -22.0104 C   0  0  0  0  0  0  0  0  0  0  0  0
   -5.0196    0.2548  -21.8107 C   0  0  0  0  0  0  0  0  0  0  0  0
   -5.4601   -0.0346  -20.4912 C   0  0  0  0  0  0  0  0  0  0  0  0
   -5.5500   -0.1711  -22.6577 H   0  0  0  0  0  0  0  0  0  0  0  0
   -3.5976    1.2887  -23.0199 H   0  0  0  0  0  0  0  0  0  0  0  0
   -2.3724    2.2454  -21.0848 H   0  0  0  0  0  0  0  0  0  0  0  0
   -3.1222    1.7592  -18.7700 H   0  0  0  0  0  0  0  0  0  0  0  0
   -4.6908    0.6401  -17.2321 H   0  0  0  0  0  0  0  0  0  0  0  0
   -7.7350   -1.7650  -18.6250 H   0  0  0  0  0  0  0  0  0  0  0  0
   -7.6234   -2.7055  -21.3712 C   0  0  0  0  0  0  0  0  0  0  0  0
   -6.9918   -3.5817  -20.8139 O   0  0  0  0  0  0  0  0  0  0  0  0
   -8.8113   -2.8944  -22.3197 C   0  0  1  0  0  0  0  0  0  0  0  0
  -10.0246   -3.3271  -21.4685 C   0  0  0  0  0  0  0  0  0  0  0  0
  -11.1434   -3.7968  -22.2691 N   0  0  0  0  0  0  0  0  0  0  0  0
  -12.5107   -3.7089  -21.7783 C   0  0  0  0  0  0  0  0  0  0  0  0
  -13.3624   -2.6811  -22.4651 C   0  0  0  0  0  0  0  0  0  0  0  0
  -13.7427   -1.5028  -21.8990 N   0  0  0  0  0  0  0  0  0  0  0  0
  -14.5850   -1.0122  -22.7889 C   0  0  0  0  0  0  0  0  0  0  0  0
  -14.6669   -1.8308  -23.8456 N   0  0  0  0  0  0  0  0  0  0  0  0
  -13.8928   -2.9182  -23.6534 N   0  0  0  0  0  0  0  0  0  0  0  0
  -15.2580   -1.7702  -24.6623 H   0  0  0  0  0  0  0  0  0  0  0  0
  -15.1601   -0.1047  -22.7010 H   0  0  0  0  0  0  0  0  0  0  0  0
  -12.9907   -4.6640  -22.0111 H   0  0  0  0  0  0  0  0  0  0  0  0
  -12.5025   -3.5515  -20.7002 H   0  0  0  0  0  0  0  0  0  0  0  0
  -10.9746   -4.5707  -23.3745 C   0  0  0  0  0  0  0  0  0  0  0  0
  -11.9441   -5.0403  -23.9526 O   0  0  0  0  0  0  0  0  0  0  0  0
   -9.5760   -4.7594  -23.8398 C   0  0  0  0  0  0  0  0  0  0  0  0
   -9.3317   -5.7503  -24.7861 C   0  0  0  0  0  0  0  0  0  0  0  0
   -8.0761   -5.8972  -25.3390 C   0  0  0  0  0  0  0  0  0  0  0  0
   -7.0719   -5.0368  -24.9091 C   0  0  0  0  0  0  0  0  0  0  0  0
   -5.8517   -5.1630  -25.4531 F   0  0  0  0  0  0  0  0  0  0  0  0
   -7.2698   -4.0926  -23.9191 C   0  0  0  0  0  0  0  0  0  0  0  0
   -8.5413   -3.9564  -23.3556 C   0  0  0  0  0  0  0  0  0  0  0  0
   -6.4318   -3.4976  -23.5714 H   0  0  0  0  0  0  0  0  0  0  0  0
   -7.8622   -6.6574  -26.0837 H   0  0  0  0  0  0  0  0  0  0  0  0
  -10.1679   -6.3760  -25.0790 H   0  0  0  0  0  0  0  0  0  0  0  0
  -10.3706   -2.4512  -20.9136 H   0  0  0  0  0  0  0  0  0  0  0  0
   -9.7098   -4.1062  -20.7686 H   0  0  0  0  0  0  0  0  0  0  0  0
   -9.1136   -0.1483  -21.1747 H   0  0  0  0  0  0  0  0  0  0  0  0
   -7.8912    0.3593  -22.3493 H   0  0  0  0  0  0  0  0  0  0  0  0
   -8.3862   -1.4328  -23.8458 H   0  0  0  0  0  0  0  0  0  0  0  0
  -10.5200   -0.1400  -23.7785 H   0  0  0  0  0  0  0  0  0  0  0  0
  -11.0416   -1.0517  -22.3512 H   0  0  0  0  0  0  0  0  0  0  0  0
  -10.8876   -1.8770  -23.8980 H   0  0  0  0  0  0  0  0  0  0  0  0
  1  2  1  0
  2  3  1  0
  3  4  1  0
  4  5  1  0
  5  6  2  0
  6  7  1  0
  7  8  2  0
  8  9  1  0
  9 10  2  0
 10 11  1  0
 11 12  2  0
 12 13  1  0
 13 14  2  0
 13 15  1  0
 12 16  1  0
 11 17  1  0
 10 18  1  0
  8 19  1  0
  6 20  1  0
  4 21  1  0
 21 22  2  0
 21 23  1  0
 23 24  1  1
 24 25  1  0
 25 26  1  0
 26 27  1  0
 27 28  1  0
 28 29  2  0
 29 30  1  0
 30 31  1  0
 30 32  1  0
 29 33  1  0
 26 34  1  0
 26 35  1  0
 25 36  1  0
 36 37  2  0
 36 38  1  0
 38 39  2  0
 39 40  1  0
 40 41  2  0
 41 42  1  0
 41 43  1  0
 43 44  2  0
 43 45  1  0
 40 46  1  0
 39 47  1  0
 24 48  1  0
 24 49  1  0
  3 50  1  0
  3 51  1  0
  2 52  1  6
  1 53  1  0
  1 54  1  0
  1 55  1  0
 23  2  1  0
 31 27  2  0
 44 38  1  0
 14  5  1  0
 44 23  1  0
 14  9  1  0
M  END
>  <cnnaffinities>  (62) 
[6.43359]

>  <score>  (62) 
6.43359

>  <index>  (62) 
64

>  <Smiles>  (62) 
C([C@]1(C(N(c2c(nc(c3c(c(c(c(c23)[H])[H])[H])[H])[H])[H])C(=O)[C@]21C(N(C(c1nc(n(n1)[H])[H])([H])[H])C(=O)c1c(c(c(F)c(c21)[H])[H])[H])([H])[H])([H])[H])[H])([H])([H])[H]

>  <h>  (62) 
<NA>

>  <Training>  (62) 
True

>  <Success>  (62) 
True

>  <enamine_searched>  (62) 
False

>  <enamine_id>  (62) 
nan

$$$$

     RDKit          3D

 55 60  0  0  0  0  0  0  0  0999 V2000
  -10.4569   -1.1672  -23.2641 C   0  0  0  0  0  0  0  0  0  0  0  0
   -9.0073   -1.4999  -22.9256 C   0  0  1  0  0  0  0  0  0  0  0  0
   -8.3756   -0.5437  -21.9009 C   0  0  0  0  0  0  0  0  0  0  0  0
   -7.3731   -1.3673  -21.2376 N   0  0  0  0  0  0  0  0  0  0  0  0
   -6.5750   -0.8646  -20.1843 C   0  0  0  0  0  0  0  0  0  0  0  0
   -6.8967   -1.1071  -18.8722 C   0  0  0  0  0  0  0  0  0  0  0  0
   -6.2355   -0.5699  -17.8155 N   0  0  0  0  0  0  0  0  0  0  0  0
   -5.2121    0.2072  -18.0788 C   0  0  0  0  0  0  0  0  0  0  0  0
   -4.7568    0.5117  -19.3942 C   0  0  0  0  0  0  0  0  0  0  0  0
   -3.6311    1.3404  -19.6304 C   0  0  0  0  0  0  0  0  0  0  0  0
   -3.2266    1.6050  -20.9085 C   0  0  0  0  0  0  0  0  0  0  0  0
   -3.9245    1.0623  -22.0100 C   0  0  0  0  0  0  0  0  0  0  0  0
   -5.0196    0.2580  -21.8098 C   0  0  0  0  0  0  0  0  0  0  0  0
   -5.4589   -0.0307  -20.4903 C   0  0  0  0  0  0  0  0  0  0  0  0
   -5.5484   -0.1667  -22.6572 H   0  0  0  0  0  0  0  0  0  0  0  0
   -3.5967    1.2909  -23.0190 H   0  0  0  0  0  0  0  0  0  0  0  0
   -2.3694    2.2468  -21.0872 H   0  0  0  0  0  0  0  0  0  0  0  0
   -3.1141    1.7608  -18.7727 H   0  0  0  0  0  0  0  0  0  0  0  0
   -4.6797    0.6415  -17.2312 H   0  0  0  0  0  0  0  0  0  0  0  0
   -7.7352   -1.7550  -18.6259 H   0  0  0  0  0  0  0  0  0  0  0  0
   -7.6005   -2.7199  -21.3747 C   0  0  0  0  0  0  0  0  0  0  0  0
   -6.9617   -3.5894  -20.8175 O   0  0  0  0  0  0  0  0  0  0  0  0
   -8.7906   -2.9269  -22.3138 C   0  0  1  0  0  0  0  0  0  0  0  0
   -9.9824   -3.3879  -21.4462 C   0  0  0  0  0  0  0  0  0  0  0  0
  -11.0979   -3.8844  -22.2253 N   0  0  0  0  0  0  0  0  0  0  0  0
  -12.4636   -3.8474  -21.7231 C   0  0  0  0  0  0  0  0  0  0  0  0
  -13.3102   -2.7494  -22.2818 C   0  0  0  0  0  0  0  0  0  0  0  0
  -13.9787   -2.8174  -23.4593 C   0  0  0  0  0  0  0  0  0  0  0  0
  -14.7189   -1.6861  -23.6052 O   0  0  0  0  0  0  0  0  0  0  0  0
  -14.4686   -0.9872  -22.4841 C   0  0  0  0  0  0  0  0  0  0  0  0
  -13.6421   -1.5510  -21.6671 N   0  0  0  0  0  0  0  0  0  0  0  0
  -15.0005   -0.0528  -22.3483 H   0  0  0  0  0  0  0  0  0  0  0  0
  -14.0075   -3.5392  -24.2535 H   0  0  0  0  0  0  0  0  0  0  0  0
  -12.4630   -3.8600  -20.6316 H   0  0  0  0  0  0  0  0  0  0  0  0
  -12.9442   -4.7535  -22.1033 H   0  0  0  0  0  0  0  0  0  0  0  0
  -10.9419   -4.5504  -23.4017 C   0  0  0  0  0  0  0  0  0  0  0  0
  -11.9216   -4.9288  -24.0284 O   0  0  0  0  0  0  0  0  0  0  0  0
   -9.5411   -4.7639  -23.8633 C   0  0  0  0  0  0  0  0  0  0  0  0
   -9.2831   -5.7405  -24.8232 C   0  0  0  0  0  0  0  0  0  0  0  0
   -8.0226   -5.8817  -25.3731 C   0  0  0  0  0  0  0  0  0  0  0  0
   -7.0279   -5.0226  -24.9189 C   0  0  0  0  0  0  0  0  0  0  0  0
   -5.8053   -5.1246  -25.4600 F   0  0  0  0  0  0  0  0  0  0  0  0
   -7.2340   -4.0871  -23.9235 C   0  0  0  0  0  0  0  0  0  0  0  0
   -8.5085   -3.9692  -23.3632 C   0  0  0  0  0  0  0  0  0  0  0  0
   -6.4093   -3.4796  -23.5612 H   0  0  0  0  0  0  0  0  0  0  0  0
   -7.7922   -6.6404  -26.1181 H   0  0  0  0  0  0  0  0  0  0  0  0
  -10.0976   -6.3807  -25.1375 H   0  0  0  0  0  0  0  0  0  0  0  0
  -10.3261   -2.5230  -20.8740 H   0  0  0  0  0  0  0  0  0  0  0  0
   -9.6445   -4.1636  -20.7602 H   0  0  0  0  0  0  0  0  0  0  0  0
   -9.1250   -0.1783  -21.1791 H   0  0  0  0  0  0  0  0  0  0  0  0
   -7.9115    0.3299  -22.3704 H   0  0  0  0  0  0  0  0  0  0  0  0
   -8.4057   -1.4672  -23.8467 H   0  0  0  0  0  0  0  0  0  0  0  0
  -10.5407   -0.2099  -23.7845 H   0  0  0  0  0  0  0  0  0  0  0  0
  -10.8886   -1.9502  -23.8959 H   0  0  0  0  0  0  0  0  0  0  0  0
  -11.0626   -1.1210  -22.3530 H   0  0  0  0  0  0  0  0  0  0  0  0
  1  2  1  0
  2  3  1  0
  3  4  1  0
  4  5  1  0
  5  6  2  0
  6  7  1  0
  7  8  2  0
  8  9  1  0
  9 10  2  0
 10 11  1  0
 11 12  2  0
 12 13  1  0
 13 14  2  0
 13 15  1  0
 12 16  1  0
 11 17  1  0
 10 18  1  0
  8 19  1  0
  6 20  1  0
  4 21  1  0
 21 22  2  0
 21 23  1  0
 23 24  1  1
 24 25  1  0
 25 26  1  0
 26 27  1  0
 27 28  2  0
 28 29  1  0
 29 30  1  0
 30 31  2  0
 30 32  1  0
 28 33  1  0
 26 34  1  0
 26 35  1  0
 25 36  1  0
 36 37  2  0
 36 38  1  0
 38 39  2  0
 39 40  1  0
 40 41  2  0
 41 42  1  0
 41 43  1  0
 43 44  2  0
 43 45  1  0
 40 46  1  0
 39 47  1  0
 24 48  1  0
 24 49  1  0
  3 50  1  0
  3 51  1  0
  2 52  1  6
  1 53  1  0
  1 54  1  0
  1 55  1  0
 23  2  1  0
 31 27  1  0
 44 38  1  0
 14  5  1  0
 44 23  1  0
 14  9  1  0
M  END
>  <cnnaffinities>  (63) 
[6.4392]

>  <score>  (63) 
6.4392

>  <index>  (63) 
65

>  <Smiles>  (63) 
C([C@]1(C(N(c2c(nc(c3c(c(c(c(c23)[H])[H])[H])[H])[H])[H])C(=O)[C@]21C(N(C(c1c(oc(n1)[H])[H])([H])[H])C(=O)c1c(c(c(F)c(c21)[H])[H])[H])([H])[H])([H])[H])[H])([H])([H])[H]

>  <h>  (63) 
<NA>

>  <Training>  (63) 
True

>  <Success>  (63) 
True

>  <enamine_searched>  (63) 
False

>  <enamine_id>  (63) 
nan

$$$$

     RDKit          3D

 44 47  0  0  0  0  0  0  0  0999 V2000
   -9.8083    1.4204  -24.4213 C   0  0  0  0  0  0  0  0  0  0  0  0
  -10.9440    0.5073  -23.9876 C   0  0  0  0  0  0  0  0  0  0  0  0
  -10.7784   -0.1617  -22.6112 C   0  0  1  0  0  0  0  0  0  0  0  0
  -11.9949   -0.9938  -22.3194 C   0  0  0  0  0  0  0  0  0  0  0  0
  -13.3269   -0.4862  -22.1933 C   0  0  0  0  0  0  0  0  0  0  0  0
  -14.2174   -1.4603  -21.8726 C   0  0  0  0  0  0  0  0  0  0  0  0
  -13.4759   -3.0122  -21.7964 S   0  0  0  0  0  0  0  0  0  0  0  0
  -11.9223   -2.3416  -22.1450 C   0  0  0  0  0  0  0  0  0  0  0  0
  -10.6716   -3.1681  -22.2738 C   0  0  0  0  0  0  0  0  0  0  0  0
   -9.6391   -2.3182  -23.0140 C   0  0  0  0  0  0  0  0  0  0  0  0
   -9.5687   -0.9716  -22.4572 N   0  0  0  0  0  0  0  0  0  0  0  0
   -8.5218   -0.4289  -21.7549 C   0  0  0  0  0  0  0  0  0  0  0  0
   -8.4587    0.7598  -21.4916 O   0  0  0  0  0  0  0  0  0  0  0  0
   -7.4582   -1.4136  -21.2601 C   0  0  0  0  0  0  0  0  0  0  0  0
   -6.5928   -0.8331  -20.1816 C   0  0  0  0  0  0  0  0  0  0  0  0
   -6.9030   -1.0493  -18.8636 C   0  0  0  0  0  0  0  0  0  0  0  0
   -6.2278   -0.5421  -17.7981 N   0  0  0  0  0  0  0  0  0  0  0  0
   -5.1911    0.2149  -18.0671 C   0  0  0  0  0  0  0  0  0  0  0  0
   -4.7525    0.5260  -19.3825 C   0  0  0  0  0  0  0  0  0  0  0  0
   -3.6239    1.3538  -19.6173 C   0  0  0  0  0  0  0  0  0  0  0  0
   -3.2306    1.6450  -20.8949 C   0  0  0  0  0  0  0  0  0  0  0  0
   -3.9499    1.1258  -21.9950 C   0  0  0  0  0  0  0  0  0  0  0  0
   -5.0517    0.3277  -21.7943 C   0  0  0  0  0  0  0  0  0  0  0  0
   -5.4756   -0.0001  -20.4774 C   0  0  0  0  0  0  0  0  0  0  0  0
   -5.6141   -0.0413  -22.6465 H   0  0  0  0  0  0  0  0  0  0  0  0
   -3.6299    1.3655  -23.0061 H   0  0  0  0  0  0  0  0  0  0  0  0
   -2.3695    2.2852  -21.0744 H   0  0  0  0  0  0  0  0  0  0  0  0
   -3.0930    1.7571  -18.7581 H   0  0  0  0  0  0  0  0  0  0  0  0
   -4.6317    0.6278  -17.2248 H   0  0  0  0  0  0  0  0  0  0  0  0
   -7.7541   -1.6779  -18.6016 H   0  0  0  0  0  0  0  0  0  0  0  0
   -7.9939   -2.2868  -20.8658 H   0  0  0  0  0  0  0  0  0  0  0  0
   -6.8741   -1.7614  -22.1222 H   0  0  0  0  0  0  0  0  0  0  0  0
   -8.6476   -2.7795  -23.0604 H   0  0  0  0  0  0  0  0  0  0  0  0
   -9.9901   -2.2167  -24.0460 H   0  0  0  0  0  0  0  0  0  0  0  0
  -10.3012   -3.4702  -21.2865 H   0  0  0  0  0  0  0  0  0  0  0  0
  -10.8710   -4.1007  -22.8148 H   0  0  0  0  0  0  0  0  0  0  0  0
  -15.2636   -1.3283  -21.6476 H   0  0  0  0  0  0  0  0  0  0  0  0
  -13.6102    0.5537  -22.3494 H   0  0  0  0  0  0  0  0  0  0  0  0
  -10.6808    0.6480  -21.8757 H   0  0  0  0  0  0  0  0  0  0  0  0
  -11.8740    1.0818  -23.9058 H   0  0  0  0  0  0  0  0  0  0  0  0
  -11.1467   -0.2544  -24.7497 H   0  0  0  0  0  0  0  0  0  0  0  0
   -8.8687    0.8746  -24.5481 H   0  0  0  0  0  0  0  0  0  0  0  0
  -10.0425    1.9051  -25.3761 H   0  0  0  0  0  0  0  0  0  0  0  0
   -9.6448    2.2064  -23.6790 H   0  0  0  0  0  0  0  0  0  0  0  0
  1  2  1  0
  2  3  1  0
  3  4  1  0
  4  5  1  0
  5  6  2  0
  6  7  1  0
  7  8  1  0
  8  9  1  0
  9 10  1  0
 10 11  1  0
 11 12  1  0
 12 13  2  0
 12 14  1  0
 14 15  1  0
 15 16  2  0
 16 17  1  0
 17 18  2  0
 18 19  1  0
 19 20  2  0
 20 21  1  0
 21 22  2  0
 22 23  1  0
 23 24  2  0
 23 25  1  0
 22 26  1  0
 21 27  1  0
 20 28  1  0
 18 29  1  0
 16 30  1  0
 14 31  1  0
 14 32  1  0
 10 33  1  0
 10 34  1  0
  9 35  1  0
  9 36  1  0
  6 37  1  0
  5 38  1  0
  3 39  1  1
  2 40  1  0
  2 41  1  0
  1 42  1  0
  1 43  1  0
  1 44  1  0
 11  3  1  0
 24 15  1  0
  8  4  2  0
 24 19  1  0
M  END
>  <cnnaffinities>  (64) 
[5.31743]

>  <score>  (64) 
5.31743

>  <index>  (64) 
66

>  <Smiles>  (64) 
C(C([C@]1(c2c(c(sc2C(C(N1C(=O)C(c1c(nc(c2c(c(c(c(c12)[H])[H])[H])[H])[H])[H])([H])[H])([H])[H])([H])[H])[H])[H])[H])([H])[H])([H])([H])[H]

>  <h>  (64) 
<NA>

>  <Training>  (64) 
True

>  <Success>  (64) 
True

>  <enamine_searched>  (64) 
False

>  <enamine_id>  (64) 
nan

$$$$

     RDKit          3D

 58 63  0  0  0  0  0  0  0  0999 V2000
   -5.7375    4.0760  -22.3491 C   0  0  0  0  0  0  0  0  0  0  0  0
   -6.8155    3.5215  -23.2275 C   0  0  0  0  0  0  0  0  0  0  0  0
   -6.7577    2.3956  -24.0989 C   0  0  0  0  0  0  0  0  0  0  0  0
   -8.0173    2.2937  -24.5963 C   0  0  0  0  0  0  0  0  0  0  0  0
   -8.6953    1.2986  -25.4973 C   0  0  0  0  0  0  0  0  0  0  0  0
   -9.3992    0.2756  -24.7467 N   0  0  0  0  0  0  0  0  0  0  0  0
   -8.7574   -0.9987  -24.4647 C   0  0  0  0  0  0  0  0  0  0  0  0
   -8.9776   -1.4738  -23.0064 C   0  0  2  0  0  0  0  0  0  0  0  0
   -8.2424   -0.5620  -21.9963 C   0  0  0  0  0  0  0  0  0  0  0  0
   -8.3777    0.6317  -21.8517 O   0  0  0  0  0  0  0  0  0  0  0  0
   -7.3854   -1.3430  -21.2478 N   0  0  0  0  0  0  0  0  0  0  0  0
   -6.6008   -0.8034  -20.2008 C   0  0  0  0  0  0  0  0  0  0  0  0
   -6.9027   -1.0660  -18.8890 C   0  0  0  0  0  0  0  0  0  0  0  0
   -6.2249   -0.5624  -17.8270 N   0  0  0  0  0  0  0  0  0  0  0  0
   -5.1958    0.2095  -18.0895 C   0  0  0  0  0  0  0  0  0  0  0  0
   -4.7483    0.5315  -19.4025 C   0  0  0  0  0  0  0  0  0  0  0  0
   -3.6145    1.3536  -19.6293 C   0  0  0  0  0  0  0  0  0  0  0  0
   -3.1892    1.6189  -20.9031 C   0  0  0  0  0  0  0  0  0  0  0  0
   -3.8833    1.0792  -22.0093 C   0  0  0  0  0  0  0  0  0  0  0  0
   -4.9891    0.2906  -21.8194 C   0  0  0  0  0  0  0  0  0  0  0  0
   -5.4600    0.0044  -20.5055 C   0  0  0  0  0  0  0  0  0  0  0  0
   -5.5142   -0.1252  -22.6748 H   0  0  0  0  0  0  0  0  0  0  0  0
   -3.5353    1.3052  -23.0155 H   0  0  0  0  0  0  0  0  0  0  0  0
   -2.3218    2.2517  -21.0689 H   0  0  0  0  0  0  0  0  0  0  0  0
   -3.0993    1.7647  -18.7659 H   0  0  0  0  0  0  0  0  0  0  0  0
   -4.6509    0.6202  -17.2398 H   0  0  0  0  0  0  0  0  0  0  0  0
   -7.7580   -1.6949  -18.6395 H   0  0  0  0  0  0  0  0  0  0  0  0
   -7.6407   -2.7594  -21.3771 C   0  0  0  0  0  0  0  0  0  0  0  0
   -8.3668   -2.8895  -22.7323 C   0  0  2  0  0  0  0  0  0  0  0  0
   -7.4526   -3.4590  -23.8215 C   0  0  0  0  0  0  0  0  0  0  0  0
   -7.1051   -4.4549  -23.5280 H   0  0  0  0  0  0  0  0  0  0  0  0
   -6.5739   -2.8327  -24.0061 H   0  0  0  0  0  0  0  0  0  0  0  0
   -7.9965   -3.5788  -24.7631 H   0  0  0  0  0  0  0  0  0  0  0  0
   -9.1757   -3.6192  -22.6519 H   0  0  0  0  0  0  0  0  0  0  0  0
   -8.2723   -3.1282  -20.5575 H   0  0  0  0  0  0  0  0  0  0  0  0
   -6.6940   -3.3086  -21.3432 H   0  0  0  0  0  0  0  0  0  0  0  0
  -10.4775   -1.4013  -22.7625 C   0  0  0  0  0  0  0  0  0  0  0  0
  -11.1319   -2.3226  -21.9436 C   0  0  0  0  0  0  0  0  0  0  0  0
  -12.5038   -2.2505  -21.7893 C   0  0  0  0  0  0  0  0  0  0  0  0
  -13.1030   -3.2139  -21.0703 F   0  0  0  0  0  0  0  0  0  0  0  0
  -13.2699   -1.2151  -22.3237 C   0  0  0  0  0  0  0  0  0  0  0  0
  -12.6159   -0.2754  -23.0972 C   0  0  0  0  0  0  0  0  0  0  0  0
  -11.2455   -0.3778  -23.3403 C   0  0  0  0  0  0  0  0  0  0  0  0
  -10.6506    0.5959  -24.2994 C   0  0  0  0  0  0  0  0  0  0  0  0
  -11.2657    1.5732  -24.7019 O   0  0  0  0  0  0  0  0  0  0  0  0
  -13.1313    0.5647  -23.5528 H   0  0  0  0  0  0  0  0  0  0  0  0
  -14.3413   -1.1638  -22.1439 H   0  0  0  0  0  0  0  0  0  0  0  0
  -10.6013   -3.1151  -21.4302 H   0  0  0  0  0  0  0  0  0  0  0  0
   -7.6909   -0.8940  -24.6689 H   0  0  0  0  0  0  0  0  0  0  0  0
   -9.1620   -1.7717  -25.1328 H   0  0  0  0  0  0  0  0  0  0  0  0
   -9.4371    1.7994  -26.1257 H   0  0  0  0  0  0  0  0  0  0  0  0
   -7.9485    0.8081  -26.1259 H   0  0  0  0  0  0  0  0  0  0  0  0
   -8.7661    3.2902  -24.1071 O   0  0  0  0  0  0  0  0  0  0  0  0
   -8.0133    4.0609  -23.2521 N   0  0  0  0  0  0  0  0  0  0  0  0
   -5.9075    1.7584  -24.2925 H   0  0  0  0  0  0  0  0  0  0  0  0
   -5.6833    3.5074  -21.4124 H   0  0  0  0  0  0  0  0  0  0  0  0
   -4.7646    3.9766  -22.8406 H   0  0  0  0  0  0  0  0  0  0  0  0
   -5.9157    5.1278  -22.1096 H   0  0  0  0  0  0  0  0  0  0  0  0
  1  2  1  0
  2  3  1  0
  3  4  2  0
  4  5  1  0
  5  6  1  0
  6  7  1  0
  8  7  1  6
  8  9  1  0
  9 10  2  0
  9 11  1  0
 11 12  1  0
 12 13  2  0
 13 14  1  0
 14 15  2  0
 15 16  1  0
 16 17  2  0
 17 18  1  0
 18 19  2  0
 19 20  1  0
 20 21  2  0
 20 22  1  0
 19 23  1  0
 18 24  1  0
 17 25  1  0
 15 26  1  0
 13 27  1  0
 11 28  1  0
 28 29  1  0
 29 30  1  0
 30 31  1  0
 30 32  1  0
 30 33  1  0
 29 34  1  1
 28 35  1  0
 28 36  1  0
  8 37  1  0
 37 38  2  0
 38 39  1  0
 39 40  1  0
 39 41  2  0
 41 42  1  0
 42 43  2  0
 43 44  1  0
 44 45  2  0
 42 46  1  0
 41 47  1  0
 38 48  1  0
  7 49  1  0
  7 50  1  0
  5 51  1  0
  5 52  1  0
  4 53  1  0
 53 54  1  0
  3 55  1  0
  1 56  1  0
  1 57  1  0
  1 58  1  0
 54  2  2  0
 44  6  1  0
 29  8  1  0
 43 37  1  0
 21 12  1  0
 21 16  1  0
M  END
>  <cnnaffinities>  (65) 
[6.36353, 6.27836]

>  <score>  (65) 
6.36353

>  <index>  (65) 
67

>  <Smiles>  (65) 
C(c1c(c(C(N2C([C@@]3(C(=O)N(c4c(nc(c5c(c(c(c(c45)[H])[H])[H])[H])[H])[H])C([C@@]3(C([H])([H])[H])[H])([H])[H])c3c(c(F)c(c(c3C2=O)[H])[H])[H])([H])[H])([H])[H])on1)[H])([H])([H])[H]

>  <h>  (65) 
<NA>

>  <Training>  (65) 
True

>  <Success>  (65) 
True

>  <enamine_searched>  (65) 
False

>  <enamine_id>  (65) 
nan

$$$$

     RDKit          3D

 65 70  0  0  0  0  0  0  0  0999 V2000
   -5.6354   -3.2150  -21.3103 O   0  0  0  0  0  0  0  0  0  0  0  0
   -6.6070   -2.7482  -21.8814 C   0  0  0  0  0  0  0  0  0  0  0  0
   -7.3300   -1.5274  -21.3019 C   0  0  0  0  0  0  0  0  0  0  0  0
   -6.5597   -0.8606  -20.2031 C   0  0  0  0  0  0  0  0  0  0  0  0
   -6.8911   -1.0714  -18.8906 C   0  0  0  0  0  0  0  0  0  0  0  0
   -6.2348   -0.5522  -17.8173 N   0  0  0  0  0  0  0  0  0  0  0  0
   -5.1968    0.2070  -18.0748 C   0  0  0  0  0  0  0  0  0  0  0  0
   -4.7284    0.5025  -19.3847 C   0  0  0  0  0  0  0  0  0  0  0  0
   -3.6035    1.3369  -19.6118 C   0  0  0  0  0  0  0  0  0  0  0  0
   -3.1913    1.6159  -20.8877 C   0  0  0  0  0  0  0  0  0  0  0  0
   -3.8885    1.0779  -21.9923 C   0  0  0  0  0  0  0  0  0  0  0  0
   -4.9819    0.2697  -21.7976 C   0  0  0  0  0  0  0  0  0  0  0  0
   -5.4304   -0.0425  -20.4854 C   0  0  0  0  0  0  0  0  0  0  0  0
   -5.5185   -0.1251  -22.6553 H   0  0  0  0  0  0  0  0  0  0  0  0
   -3.5653    1.3175  -23.0018 H   0  0  0  0  0  0  0  0  0  0  0  0
   -2.3346    2.2614  -21.0607 H   0  0  0  0  0  0  0  0  0  0  0  0
   -3.0921    1.7615  -18.7510 H   0  0  0  0  0  0  0  0  0  0  0  0
   -4.6652    0.6332  -17.2219 H   0  0  0  0  0  0  0  0  0  0  0  0
   -7.7464   -1.7003  -18.6485 H   0  0  0  0  0  0  0  0  0  0  0  0
   -8.2946   -1.8869  -20.9179 H   0  0  0  0  0  0  0  0  0  0  0  0
   -7.5640   -0.8202  -22.1029 H   0  0  0  0  0  0  0  0  0  0  0  0
   -7.1491   -3.2939  -23.0401 N   0  0  0  0  0  0  0  0  0  0  0  0
   -7.8536   -2.4785  -24.0275 C   0  0  0  0  0  0  0  0  0  0  0  0
   -9.3149   -2.1802  -23.7329 C   0  0  0  0  0  0  0  0  0  0  0  0
   -9.9194   -1.0616  -24.3167 C   0  0  0  0  0  0  0  0  0  0  0  0
  -11.2511   -0.7560  -24.0499 C   0  0  0  0  0  0  0  0  0  0  0  0
  -12.0083   -1.5609  -23.2054 C   0  0  0  0  0  0  0  0  0  0  0  0
  -11.4060   -2.6754  -22.6373 C   0  0  0  0  0  0  0  0  0  0  0  0
  -12.3387   -3.7008  -21.5793 Cl  0  0  0  0  0  0  0  0  0  0  0  0
  -10.0769   -2.9914  -22.8895 C   0  0  0  0  0  0  0  0  0  0  0  0
   -9.6434   -3.8574  -22.4037 H   0  0  0  0  0  0  0  0  0  0  0  0
  -13.0449   -1.3311  -22.9835 H   0  0  0  0  0  0  0  0  0  0  0  0
  -11.7047    0.1247  -24.4983 H   0  0  0  0  0  0  0  0  0  0  0  0
   -9.3450   -0.4167  -24.9779 H   0  0  0  0  0  0  0  0  0  0  0  0
   -7.7742   -2.9721  -24.9988 H   0  0  0  0  0  0  0  0  0  0  0  0
   -7.3129   -1.5306  -24.1532 H   0  0  0  0  0  0  0  0  0  0  0  0
   -6.8224   -4.6827  -23.3745 C   0  0  2  0  0  0  0  0  0  0  0  0
   -7.7347   -5.3517  -24.4250 C   0  0  0  0  0  0  0  0  0  0  0  0
   -7.4919   -6.8659  -24.2126 C   0  0  0  0  0  0  0  0  0  0  0  0
   -6.4803   -6.8784  -23.0703 C   0  0  2  0  0  0  0  0  0  0  0  0
   -6.9024   -5.6909  -22.2160 C   0  0  0  0  0  0  0  0  0  0  0  0
   -6.2123   -5.4469  -21.4063 H   0  0  0  0  0  0  0  0  0  0  0  0
   -7.9205   -5.7686  -21.8151 H   0  0  0  0  0  0  0  0  0  0  0  0
   -5.1411   -6.4110  -23.6909 N   0  0  2  0  0  4  0  0  0  0  0  0
   -3.9410   -6.7686  -22.8585 C   0  0  0  0  0  0  0  0  0  0  0  0
   -3.0947   -7.9442  -23.3650 C   0  0  0  0  0  0  0  0  0  0  0  0
   -3.7911   -9.0509  -24.1646 C   0  0  0  0  0  0  0  0  0  0  0  0
   -3.5082   -8.3653  -25.3967 O   0  0  0  0  0  0  0  0  0  0  0  0
   -2.4342   -7.6734  -24.7256 C   0  0  0  0  0  0  0  0  0  0  0  0
   -2.3941   -6.6256  -25.0363 H   0  0  0  0  0  0  0  0  0  0  0  0
   -1.4522   -8.1719  -24.8434 H   0  0  0  0  0  0  0  0  0  0  0  0
   -3.2075   -9.9830  -24.0682 H   0  0  0  0  0  0  0  0  0  0  0  0
   -4.8616   -9.2469  -24.0400 H   0  0  0  0  0  0  0  0  0  0  0  0
   -2.4595   -8.2961  -22.5497 H   0  0  0  0  0  0  0  0  0  0  0  0
   -3.2784   -5.8990  -22.8186 H   0  0  0  0  0  0  0  0  0  0  0  0
   -4.2762   -6.9464  -21.8320 H   0  0  0  0  0  0  0  0  0  0  0  0
   -5.3835   -4.9075  -23.8773 C   0  0  0  0  0  0  0  0  0  0  0  0
   -4.7005   -4.3391  -23.2573 H   0  0  0  0  0  0  0  0  0  0  0  0
   -5.2371   -4.6427  -24.9268 H   0  0  0  0  0  0  0  0  0  0  0  0
   -5.0155   -6.8521  -24.6158 H   0  0  0  0  0  0  0  0  0  0  0  0
   -6.3368   -7.8271  -22.5551 H   0  0  0  0  0  0  0  0  0  0  0  0
   -8.4140   -7.3900  -23.9502 H   0  0  0  0  0  0  0  0  0  0  0  0
   -7.0609   -7.3566  -25.0931 H   0  0  0  0  0  0  0  0  0  0  0  0
   -7.4687   -5.0406  -25.4394 H   0  0  0  0  0  0  0  0  0  0  0  0
   -8.7780   -5.0771  -24.2416 H   0  0  0  0  0  0  0  0  0  0  0  0
  1  2  2  0
  2  3  1  0
  3  4  1  0
  4  5  2  0
  5  6  1  0
  6  7  2  0
  7  8  1  0
  8  9  2  0
  9 10  1  0
 10 11  2  0
 11 12  1  0
 12 13  2  0
 12 14  1  0
 11 15  1  0
 10 16  1  0
  9 17  1  0
  7 18  1  0
  5 19  1  0
  3 20  1  0
  3 21  1  0
  2 22  1  0
 22 23  1  0
 23 24  1  0
 24 25  2  0
 25 26  1  0
 26 27  2  0
 27 28  1  0
 28 29  1  0
 28 30  2  0
 30 31  1  0
 27 32  1  0
 26 33  1  0
 25 34  1  0
 23 35  1  0
 23 36  1  0
 37 22  1  1
 37 38  1  0
 38 39  1  0
 39 40  1  0
 40 41  1  0
 41 42  1  0
 41 43  1  0
 40 44  1  0
 44 45  1  0
 45 46  1  0
 46 47  1  0
 47 48  1  0
 48 49  1  0
 49 50  1  0
 49 51  1  0
 47 52  1  0
 47 53  1  0
 46 54  1  0
 45 55  1  0
 45 56  1  0
 44 57  1  0
 57 58  1  0
 57 59  1  0
 44 60  1  6
 40 61  1  1
 39 62  1  0
 39 63  1  0
 38 64  1  0
 38 65  1  0
 13  4  1  0
 30 24  1  0
 41 37  1  0
 49 46  1  0
 13  8  1  0
 57 37  1  0
M  CHG  1  44   1
M  END
>  <cnnaffinities>  (66) 
[6.11348, 6.24392, 5.97853]

>  <score>  (66) 
6.11348

>  <index>  (66) 
68

>  <Smiles>  (66) 
O=C(C(c1c(nc(c2c(c(c(c(c12)[H])[H])[H])[H])[H])[H])([H])[H])N(C(c1c(c(c(c(Cl)c1[H])[H])[H])[H])([H])[H])[C@]12C(C([C@](C1([H])[H])([N@+](C(C1(C(OC1([H])[H])([H])[H])[H])([H])[H])(C2([H])[H])[H])[H])([H])[H])([H])[H]

>  <h>  (66) 
<NA>

>  <Training>  (66) 
True

>  <Success>  (66) 
True

>  <enamine_searched>  (66) 
False

>  <enamine_id>  (66) 
nan

$$$$

     RDKit          3D

 63 67  0  0  0  0  0  0  0  0999 V2000
   -3.5490    2.9985  -26.2715 C   0  0  0  0  0  0  0  0  0  0  0  0
   -4.3740    1.9841  -26.0460 C   0  0  0  0  0  0  0  0  0  0  0  0
   -4.9240    1.1573  -27.1579 C   0  0  0  0  0  0  0  0  0  0  0  0
   -4.7747    1.4401  -28.3277 O   0  0  0  0  0  0  0  0  0  0  0  0
   -5.7142    0.0704  -26.7610 N   0  0  0  0  0  0  0  0  0  0  0  0
   -7.0094   -0.0113  -27.4202 C   0  0  0  0  0  0  0  0  0  0  0  0
   -7.6779   -1.3466  -27.1534 C   0  0  0  0  0  0  0  0  0  0  0  0
   -7.6966   -1.6410  -25.6499 C   0  0  0  0  0  0  0  0  0  0  0  0
   -6.2903   -1.5978  -25.0803 C   0  0  0  0  0  0  0  0  0  0  0  0
   -5.3310   -0.7922  -25.7229 C   0  0  0  0  0  0  0  0  0  0  0  0
   -3.9748   -0.8848  -25.3859 C   0  0  0  0  0  0  0  0  0  0  0  0
   -3.5825   -1.5878  -24.2660 C   0  0  0  0  0  0  0  0  0  0  0  0
   -4.5512   -2.2235  -23.4964 C   0  0  0  0  0  0  0  0  0  0  0  0
   -5.8584   -2.2821  -23.9442 C   0  0  0  0  0  0  0  0  0  0  0  0
   -6.8767   -3.1507  -23.0660 N   0  0  1  0  0  4  0  0  0  0  0  0
   -6.7011   -4.6666  -23.3023 C   0  0  0  0  0  0  0  0  0  0  0  0
   -7.0422   -5.0562  -24.7135 C   0  0  0  0  0  0  0  0  0  0  0  0
   -8.3540   -5.3859  -25.0699 C   0  0  0  0  0  0  0  0  0  0  0  0
   -8.6610   -5.7093  -26.3865 C   0  0  0  0  0  0  0  0  0  0  0  0
   -7.6701   -5.7259  -27.3638 C   0  0  0  0  0  0  0  0  0  0  0  0
   -6.3635   -5.4266  -26.9979 C   0  0  0  0  0  0  0  0  0  0  0  0
   -5.1087   -5.4618  -28.2085 Cl  0  0  0  0  0  0  0  0  0  0  0  0
   -6.0407   -5.1014  -25.6875 C   0  0  0  0  0  0  0  0  0  0  0  0
   -5.0120   -4.8689  -25.4227 H   0  0  0  0  0  0  0  0  0  0  0  0
   -7.8987   -5.9708  -28.3964 H   0  0  0  0  0  0  0  0  0  0  0  0
   -9.6811   -5.9566  -26.6581 H   0  0  0  0  0  0  0  0  0  0  0  0
   -9.1407   -5.3788  -24.3151 H   0  0  0  0  0  0  0  0  0  0  0  0
   -7.3271   -5.2016  -22.5848 H   0  0  0  0  0  0  0  0  0  0  0  0
   -5.6621   -4.8962  -23.0648 H   0  0  0  0  0  0  0  0  0  0  0  0
   -6.7952   -2.8465  -21.6376 C   0  0  0  0  0  0  0  0  0  0  0  0
   -6.2374   -3.6130  -20.8897 O   0  0  0  0  0  0  0  0  0  0  0  0
   -7.3985   -1.5002  -21.2171 C   0  0  0  0  0  0  0  0  0  0  0  0
   -6.5854   -0.8167  -20.1442 C   0  0  0  0  0  0  0  0  0  0  0  0
   -6.8845   -1.0300  -18.8244 C   0  0  0  0  0  0  0  0  0  0  0  0
   -6.2030   -0.5155  -17.7668 N   0  0  0  0  0  0  0  0  0  0  0  0
   -5.1681    0.2399  -18.0441 C   0  0  0  0  0  0  0  0  0  0  0  0
   -4.7360    0.5495  -19.3619 C   0  0  0  0  0  0  0  0  0  0  0  0
   -3.5995    1.3599  -19.6102 C   0  0  0  0  0  0  0  0  0  0  0  0
   -3.2047    1.6361  -20.8898 C   0  0  0  0  0  0  0  0  0  0  0  0
   -3.9424    1.1248  -21.9813 C   0  0  0  0  0  0  0  0  0  0  0  0
   -5.0527    0.3438  -21.7636 C   0  0  0  0  0  0  0  0  0  0  0  0
   -5.4710    0.0194  -20.4480 C   0  0  0  0  0  0  0  0  0  0  0  0
   -5.6029   -0.0524  -22.6093 H   0  0  0  0  0  0  0  0  0  0  0  0
   -3.6284    1.3544  -22.9992 H   0  0  0  0  0  0  0  0  0  0  0  0
   -2.3305    2.2553  -21.0710 H   0  0  0  0  0  0  0  0  0  0  0  0
   -3.0586    1.7564  -18.7543 H   0  0  0  0  0  0  0  0  0  0  0  0
   -4.6023    0.6454  -17.2034 H   0  0  0  0  0  0  0  0  0  0  0  0
   -7.7383   -1.6562  -18.5646 H   0  0  0  0  0  0  0  0  0  0  0  0
   -8.4112   -1.6904  -20.8256 H   0  0  0  0  0  0  0  0  0  0  0  0
   -7.5114   -0.8775  -22.1101 H   0  0  0  0  0  0  0  0  0  0  0  0
   -7.7969   -2.8386  -23.4318 H   0  0  0  0  0  0  0  0  0  0  0  0
   -4.3463   -2.5387  -22.4831 H   0  0  0  0  0  0  0  0  0  0  0  0
   -2.5358   -1.5822  -23.9838 H   0  0  0  0  0  0  0  0  0  0  0  0
   -3.2420   -0.3722  -25.9957 H   0  0  0  0  0  0  0  0  0  0  0  0
   -8.1571   -2.6207  -25.4688 H   0  0  0  0  0  0  0  0  0  0  0  0
   -8.3120   -0.8934  -25.1226 H   0  0  0  0  0  0  0  0  0  0  0  0
   -7.1488   -2.1510  -27.6811 H   0  0  0  0  0  0  0  0  0  0  0  0
   -8.6957   -1.3095  -27.5559 H   0  0  0  0  0  0  0  0  0  0  0  0
   -6.8223    0.1725  -28.4825 H   0  0  0  0  0  0  0  0  0  0  0  0
   -7.6584    0.8057  -27.0649 H   0  0  0  0  0  0  0  0  0  0  0  0
   -4.7172    1.7139  -25.0491 H   0  0  0  0  0  0  0  0  0  0  0  0
   -3.2080    3.6529  -25.4719 H   0  0  0  0  0  0  0  0  0  0  0  0
   -3.2117    3.2051  -27.2838 H   0  0  0  0  0  0  0  0  0  0  0  0
  1  2  2  0
  2  3  1  0
  3  4  2  0
  3  5  1  0
  5  6  1  0
  6  7  1  0
  7  8  1  0
  8  9  1  0
  9 10  2  0
 10 11  1  0
 11 12  2  0
 12 13  1  0
 13 14  2  0
 14 15  1  0
 15 16  1  0
 16 17  1  0
 17 18  2  0
 18 19  1  0
 19 20  2  0
 20 21  1  0
 21 22  1  0
 21 23  2  0
 23 24  1  0
 20 25  1  0
 19 26  1  0
 18 27  1  0
 16 28  1  0
 16 29  1  0
 15 30  1  0
 30 31  2  0
 30 32  1  0
 32 33  1  0
 33 34  2  0
 34 35  1  0
 35 36  2  0
 36 37  1  0
 37 38  2  0
 38 39  1  0
 39 40  2  0
 40 41  1  0
 41 42  2  0
 41 43  1  0
 40 44  1  0
 39 45  1  0
 38 46  1  0
 36 47  1  0
 34 48  1  0
 32 49  1  0
 32 50  1  0
 15 51  1  6
 13 52  1  0
 12 53  1  0
 11 54  1  0
  8 55  1  0
  8 56  1  0
  7 57  1  0
  7 58  1  0
  6 59  1  0
  6 60  1  0
  2 61  1  0
  1 62  1  0
  1 63  1  0
 10  5  1  0
 23 17  1  0
 42 33  1  0
 14  9  1  0
 42 37  1  0
M  CHG  1  15   1
M  END
>  <cnnaffinities>  (67) 
[6.11584, 6.21249]

>  <score>  (67) 
6.11584

>  <index>  (67) 
69

>  <Smiles>  (67) 
C(=C(C(=O)N1C(C(C(c2c1c(c(c(c2[N@@+](C(c1c(c(c(c(Cl)c1[H])[H])[H])[H])([H])[H])(C(=O)C(c1c(nc(c2c(c(c(c(c12)[H])[H])[H])[H])[H])[H])([H])[H])[H])[H])[H])[H])([H])[H])([H])[H])([H])[H])[H])([H])[H]

>  <h>  (67) 
<NA>

>  <Training>  (67) 
True

>  <Success>  (67) 
True

>  <enamine_searched>  (67) 
False

>  <enamine_id>  (67) 
nan

$$$$

     RDKit          3D

 52 54  0  0  0  0  0  0  0  0999 V2000
  -14.7775   -3.8004  -23.6503 C   0  0  0  0  0  0  0  0  0  0  0  0
  -14.0275   -3.0245  -22.5543 C   0  0  0  0  0  0  0  0  0  0  0  0
  -14.3551   -3.5008  -21.1246 C   0  0  0  0  0  0  0  0  0  0  0  0
  -15.3691   -3.2314  -20.8128 H   0  0  0  0  0  0  0  0  0  0  0  0
  -14.2553   -4.5852  -20.9986 H   0  0  0  0  0  0  0  0  0  0  0  0
  -13.6791   -3.0398  -20.3926 H   0  0  0  0  0  0  0  0  0  0  0  0
  -12.5209   -3.1371  -22.8432 C   0  0  0  0  0  0  0  0  0  0  0  0
  -11.9288   -1.9859  -23.7055 C   0  0  0  0  0  0  0  0  0  0  0  0
  -12.7578   -1.6213  -24.9369 C   0  0  0  0  0  0  0  0  0  0  0  0
  -12.7940   -2.4059  -25.7005 H   0  0  0  0  0  0  0  0  0  0  0  0
  -13.7815   -1.3411  -24.6570 H   0  0  0  0  0  0  0  0  0  0  0  0
  -12.2876   -0.7342  -25.3760 H   0  0  0  0  0  0  0  0  0  0  0  0
  -11.8793   -0.7053  -22.8302 C   0  0  0  0  0  0  0  0  0  0  0  0
  -10.5581    0.0452  -22.8983 C   0  0  0  0  0  0  0  0  0  0  0  0
   -9.4605   -0.8555  -22.5560 N   0  0  0  0  0  0  0  0  0  0  0  0
   -8.5155   -0.4157  -21.6824 C   0  0  0  0  0  0  0  0  0  0  0  0
   -8.5153    0.7220  -21.2450 O   0  0  0  0  0  0  0  0  0  0  0  0
   -7.4606   -1.4430  -21.2434 C   0  0  0  0  0  0  0  0  0  0  0  0
   -6.6053   -0.8692  -20.1635 C   0  0  0  0  0  0  0  0  0  0  0  0
   -6.9413   -1.0681  -18.8514 C   0  0  0  0  0  0  0  0  0  0  0  0
   -6.2779   -0.5519  -17.7841 N   0  0  0  0  0  0  0  0  0  0  0  0
   -5.2400    0.2078  -18.0534 C   0  0  0  0  0  0  0  0  0  0  0  0
   -4.7931    0.5183  -19.3671 C   0  0  0  0  0  0  0  0  0  0  0  0
   -3.6615    1.3433  -19.6069 C   0  0  0  0  0  0  0  0  0  0  0  0
   -3.2634    1.6236  -20.8888 C   0  0  0  0  0  0  0  0  0  0  0  0
   -3.9882    1.1114  -21.9868 C   0  0  0  0  0  0  0  0  0  0  0  0
   -5.0939    0.3193  -21.7834 C   0  0  0  0  0  0  0  0  0  0  0  0
   -5.5063   -0.0143  -20.4638 C   0  0  0  0  0  0  0  0  0  0  0  0
   -5.6616   -0.0430  -22.6347 H   0  0  0  0  0  0  0  0  0  0  0  0
   -3.6665    1.3442  -22.9994 H   0  0  0  0  0  0  0  0  0  0  0  0
   -2.3894    2.2436  -21.0677 H   0  0  0  0  0  0  0  0  0  0  0  0
   -3.1261    1.7444  -18.7519 H   0  0  0  0  0  0  0  0  0  0  0  0
   -4.6957    0.6175  -17.2008 H   0  0  0  0  0  0  0  0  0  0  0  0
   -7.8088   -1.6813  -18.6077 H   0  0  0  0  0  0  0  0  0  0  0  0
   -7.9671   -2.3443  -20.8676 H   0  0  0  0  0  0  0  0  0  0  0  0
   -6.8571   -1.7554  -22.1062 H   0  0  0  0  0  0  0  0  0  0  0  0
   -9.5355   -2.2481  -22.9906 C   0  0  0  0  0  0  0  0  0  0  0  0
  -10.5020   -2.3619  -24.1558 C   0  0  0  0  0  0  0  0  0  0  0  0
  -10.4898   -3.3754  -24.5779 H   0  0  0  0  0  0  0  0  0  0  0  0
  -10.1647   -1.6846  -24.9507 H   0  0  0  0  0  0  0  0  0  0  0  0
   -8.5396   -2.5984  -23.2765 H   0  0  0  0  0  0  0  0  0  0  0  0
   -9.8866   -2.8964  -22.1751 H   0  0  0  0  0  0  0  0  0  0  0  0
  -10.5497    0.8775  -22.1948 H   0  0  0  0  0  0  0  0  0  0  0  0
  -10.4061    0.4788  -23.8933 H   0  0  0  0  0  0  0  0  0  0  0  0
  -12.7042   -0.0281  -23.0801 H   0  0  0  0  0  0  0  0  0  0  0  0
  -12.0412   -1.0071  -21.8039 H   0  0  0  0  0  0  0  0  0  0  0  0
  -12.3167   -4.1089  -23.3184 H   0  0  0  0  0  0  0  0  0  0  0  0
  -11.9755   -3.1649  -21.8884 H   0  0  0  0  0  0  0  0  0  0  0  0
  -14.3229   -1.9623  -22.5854 H   0  0  0  0  0  0  0  0  0  0  0  0
  -14.4360   -3.5336  -24.6613 H   0  0  0  0  0  0  0  0  0  0  0  0
  -15.8608   -3.6685  -23.5907 H   0  0  0  0  0  0  0  0  0  0  0  0
  -14.5536   -4.8688  -23.5422 H   0  0  0  0  0  0  0  0  0  0  0  0
  1  2  1  0
  2  3  1  0
  3  4  1  0
  3  5  1  0
  3  6  1  0
  2  7  1  0
  7  8  1  0
  8  9  1  0
  9 10  1  0
  9 11  1  0
  9 12  1  0
  8 13  1  0
 13 14  1  0
 14 15  1  0
 15 16  1  0
 16 17  2  0
 16 18  1  0
 18 19  1  0
 19 20  2  0
 20 21  1  0
 21 22  2  0
 22 23  1  0
 23 24  2  0
 24 25  1  0
 25 26  2  0
 26 27  1  0
 27 28  2  0
 27 29  1  0
 26 30  1  0
 25 31  1  0
 24 32  1  0
 22 33  1  0
 20 34  1  0
 18 35  1  0
 18 36  1  0
 15 37  1  0
 37 38  1  0
 38 39  1  0
 38 40  1  0
 37 41  1  0
 37 42  1  0
 14 43  1  0
 14 44  1  0
 13 45  1  0
 13 46  1  0
  7 47  1  0
  7 48  1  0
  2 49  1  0
  1 50  1  0
  1 51  1  0
  1 52  1  0
 38  8  1  0
 28 19  1  0
 28 23  1  0
M  END
>  <cnnaffinities>  (68) 
[6.08535]

>  <score>  (68) 
6.08535

>  <index>  (68) 
70

>  <Smiles>  (68) 
C(C(C([H])([H])[H])(C(C1(C([H])([H])[H])C(C(N(C(=O)C(c2c(nc(c3c(c(c(c(c23)[H])[H])[H])[H])[H])[H])([H])[H])C(C1([H])[H])([H])[H])([H])[H])([H])[H])([H])[H])[H])([H])([H])[H]

>  <h>  (68) 
<NA>

>  <Training>  (68) 
True

>  <Success>  (68) 
True

>  <enamine_searched>  (68) 
False

>  <enamine_id>  (68) 
nan

$$$$

     RDKit          3D

 50 54  0  0  0  0  0  0  0  0999 V2000
  -10.4396   -1.1481  -23.2698 C   0  0  0  0  0  0  0  0  0  0  0  0
   -8.9944   -1.4869  -22.9289 C   0  0  1  0  0  0  0  0  0  0  0  0
   -8.3620   -0.5382  -21.9030 C   0  0  0  0  0  0  0  0  0  0  0  0
   -7.3698   -1.3655  -21.2354 N   0  0  0  0  0  0  0  0  0  0  0  0
   -6.5737   -0.8655  -20.1832 C   0  0  0  0  0  0  0  0  0  0  0  0
   -6.8980   -1.1055  -18.8717 C   0  0  0  0  0  0  0  0  0  0  0  0
   -6.2359   -0.5688  -17.8161 N   0  0  0  0  0  0  0  0  0  0  0  0
   -5.2106    0.2067  -18.0786 C   0  0  0  0  0  0  0  0  0  0  0  0
   -4.7562    0.5096  -19.3956 C   0  0  0  0  0  0  0  0  0  0  0  0
   -3.6318    1.3387  -19.6318 C   0  0  0  0  0  0  0  0  0  0  0  0
   -3.2261    1.6054  -20.9099 C   0  0  0  0  0  0  0  0  0  0  0  0
   -3.9233    1.0618  -22.0118 C   0  0  0  0  0  0  0  0  0  0  0  0
   -5.0178    0.2569  -21.8116 C   0  0  0  0  0  0  0  0  0  0  0  0
   -5.4583   -0.0330  -20.4919 C   0  0  0  0  0  0  0  0  0  0  0  0
   -5.5482   -0.1659  -22.6601 H   0  0  0  0  0  0  0  0  0  0  0  0
   -3.5961    1.2919  -23.0212 H   0  0  0  0  0  0  0  0  0  0  0  0
   -2.3694    2.2466  -21.0878 H   0  0  0  0  0  0  0  0  0  0  0  0
   -3.1168    1.7598  -18.7729 H   0  0  0  0  0  0  0  0  0  0  0  0
   -4.6756    0.6436  -17.2321 H   0  0  0  0  0  0  0  0  0  0  0  0
   -7.7346   -1.7534  -18.6210 H   0  0  0  0  0  0  0  0  0  0  0  0
   -7.6060   -2.7146  -21.3721 C   0  0  0  0  0  0  0  0  0  0  0  0
   -6.9601   -3.5863  -20.8188 O   0  0  0  0  0  0  0  0  0  0  0  0
   -8.8038   -2.9106  -22.3096 C   0  0  1  0  0  0  0  0  0  0  0  0
  -10.0059   -3.3457  -21.4526 C   0  0  0  0  0  0  0  0  0  0  0  0
  -11.1459   -3.7623  -22.2425 N   0  0  0  0  0  0  0  0  0  0  0  0
  -12.5068   -3.5977  -21.7771 C   0  0  0  0  0  0  0  0  0  0  0  0
  -13.3707   -2.7496  -22.6222 C   0  0  0  0  0  0  0  0  0  0  0  0
  -14.1239   -2.1341  -23.2473 N   0  0  0  0  0  0  0  0  0  0  0  0
  -12.5082   -3.1921  -20.7660 H   0  0  0  0  0  0  0  0  0  0  0  0
  -12.9991   -4.5721  -21.7735 H   0  0  0  0  0  0  0  0  0  0  0  0
  -11.0164   -4.4902  -23.3900 C   0  0  0  0  0  0  0  0  0  0  0  0
  -12.0152   -4.8460  -23.9974 O   0  0  0  0  0  0  0  0  0  0  0  0
   -9.6145   -4.7430  -23.8495 C   0  0  0  0  0  0  0  0  0  0  0  0
   -9.3671   -5.7521  -24.7788 C   0  0  0  0  0  0  0  0  0  0  0  0
   -8.1090   -5.9208  -25.3208 C   0  0  0  0  0  0  0  0  0  0  0  0
   -7.1051   -5.0701  -24.8827 C   0  0  0  0  0  0  0  0  0  0  0  0
   -5.8957   -5.1833  -25.4433 F   0  0  0  0  0  0  0  0  0  0  0  0
   -7.2928   -4.1124  -23.9098 C   0  0  0  0  0  0  0  0  0  0  0  0
   -8.5624   -3.9621  -23.3579 C   0  0  0  0  0  0  0  0  0  0  0  0
   -6.4599   -3.5103  -23.5630 H   0  0  0  0  0  0  0  0  0  0  0  0
   -7.8862   -6.6925  -26.0505 H   0  0  0  0  0  0  0  0  0  0  0  0
  -10.1814   -6.4053  -25.0623 H   0  0  0  0  0  0  0  0  0  0  0  0
   -9.6858   -4.1458  -20.7854 H   0  0  0  0  0  0  0  0  0  0  0  0
  -10.3113   -2.4883  -20.8549 H   0  0  0  0  0  0  0  0  0  0  0  0
   -9.1160   -0.1790  -21.1864 H   0  0  0  0  0  0  0  0  0  0  0  0
   -7.8941    0.3352  -22.3665 H   0  0  0  0  0  0  0  0  0  0  0  0
   -8.3875   -1.4666  -23.8454 H   0  0  0  0  0  0  0  0  0  0  0  0
  -10.5242   -0.1731  -23.7506 H   0  0  0  0  0  0  0  0  0  0  0  0
  -11.0369   -1.1384  -22.3534 H   0  0  0  0  0  0  0  0  0  0  0  0
  -10.8653   -1.9136  -23.9253 H   0  0  0  0  0  0  0  0  0  0  0  0
  1  2  1  0
  2  3  1  0
  3  4  1  0
  4  5  1  0
  5  6  2  0
  6  7  1  0
  7  8  2  0
  8  9  1  0
  9 10  2  0
 10 11  1  0
 11 12  2  0
 12 13  1  0
 13 14  2  0
 13 15  1  0
 12 16  1  0
 11 17  1  0
 10 18  1  0
  8 19  1  0
  6 20  1  0
  4 21  1  0
 21 22  2  0
 21 23  1  0
 23 24  1  1
 24 25  1  0
 25 26  1  0
 26 27  1  0
 27 28  3  0
 26 29  1  0
 26 30  1  0
 25 31  1  0
 31 32  2  0
 31 33  1  0
 33 34  2  0
 34 35  1  0
 35 36  2  0
 36 37  1  0
 36 38  1  0
 38 39  2  0
 38 40  1  0
 35 41  1  0
 34 42  1  0
 24 43  1  0
 24 44  1  0
  3 45  1  0
  3 46  1  0
  2 47  1  6
  1 48  1  0
  1 49  1  0
  1 50  1  0
 23  2  1  0
 39 33  1  0
 14  5  1  0
 39 23  1  0
 14  9  1  0
M  END
>  <cnnaffinities>  (69) 
[6.29676]

>  <score>  (69) 
6.29676

>  <index>  (69) 
71

>  <Smiles>  (69) 
C([C@]1(C(N(c2c(nc(c3c(c(c(c(c23)[H])[H])[H])[H])[H])[H])C(=O)[C@]21C(N(C(C#N)([H])[H])C(=O)c1c(c(c(F)c(c21)[H])[H])[H])([H])[H])([H])[H])[H])([H])([H])[H]

>  <h>  (69) 
<NA>

>  <Training>  (69) 
True

>  <Success>  (69) 
True

>  <enamine_searched>  (69) 
False

>  <enamine_id>  (69) 
nan

$$$$

     RDKit          3D

 41 44  0  0  0  0  0  0  0  0999 V2000
   -5.9672   -3.3687  -21.2331 O   0  0  0  0  0  0  0  0  0  0  0  0
   -6.6729   -2.6673  -21.9343 C   0  0  0  0  0  0  0  0  0  0  0  0
   -7.3975   -1.4581  -21.2825 C   0  0  0  0  0  0  0  0  0  0  0  0
   -6.5779   -0.8284  -20.1752 C   0  0  0  0  0  0  0  0  0  0  0  0
   -6.8724   -1.0464  -18.8521 C   0  0  0  0  0  0  0  0  0  0  0  0
   -6.1888   -0.5389  -17.7896 N   0  0  0  0  0  0  0  0  0  0  0  0
   -5.1565    0.2244  -18.0609 C   0  0  0  0  0  0  0  0  0  0  0  0
   -4.7203    0.5341  -19.3807 C   0  0  0  0  0  0  0  0  0  0  0  0
   -3.5916    1.3620  -19.6219 C   0  0  0  0  0  0  0  0  0  0  0  0
   -3.1956    1.6381  -20.9024 C   0  0  0  0  0  0  0  0  0  0  0  0
   -3.9122    1.0961  -21.9963 C   0  0  0  0  0  0  0  0  0  0  0  0
   -5.0096    0.2940  -21.7929 C   0  0  0  0  0  0  0  0  0  0  0  0
   -5.4457   -0.0069  -20.4712 C   0  0  0  0  0  0  0  0  0  0  0  0
   -5.5439   -0.1048  -22.6566 H   0  0  0  0  0  0  0  0  0  0  0  0
   -3.5903    1.3237  -23.0088 H   0  0  0  0  0  0  0  0  0  0  0  0
   -2.3344    2.2745  -21.0903 H   0  0  0  0  0  0  0  0  0  0  0  0
   -3.0512    1.7759  -18.7734 H   0  0  0  0  0  0  0  0  0  0  0  0
   -4.5981    0.6304  -17.2158 H   0  0  0  0  0  0  0  0  0  0  0  0
   -7.7231   -1.6728  -18.5866 H   0  0  0  0  0  0  0  0  0  0  0  0
   -8.3296   -1.8441  -20.8482 H   0  0  0  0  0  0  0  0  0  0  0  0
   -7.6811   -0.6955  -22.0161 H   0  0  0  0  0  0  0  0  0  0  0  0
   -6.8349   -2.9512  -23.2802 N   0  0  0  0  0  0  0  0  0  0  0  0
   -5.7775   -3.7096  -23.9511 C   0  0  0  0  0  0  0  0  0  0  0  0
   -4.6690   -2.8520  -24.5667 C   0  0  0  0  0  0  0  0  0  0  0  0
   -5.1235   -2.0219  -25.7768 C   0  0  0  0  0  0  0  0  0  0  0  0
   -6.0550   -0.8886  -25.4209 C   0  0  0  0  0  0  0  0  0  0  0  0
   -5.7199    0.7494  -25.8836 S   0  0  0  0  0  0  0  0  0  0  0  0
   -7.1857    1.3125  -25.1774 C   0  0  0  0  0  0  0  0  0  0  0  0
   -7.8877    0.2956  -24.6018 C   0  0  0  0  0  0  0  0  0  0  0  0
   -7.2327   -0.9660  -24.7230 C   0  0  0  0  0  0  0  0  0  0  0  0
   -7.7683   -2.2497  -24.1440 C   0  0  0  0  0  0  0  0  0  0  0  0
   -8.6937   -2.0532  -23.5971 H   0  0  0  0  0  0  0  0  0  0  0  0
   -8.0529   -2.9253  -24.9587 H   0  0  0  0  0  0  0  0  0  0  0  0
   -8.8455    0.4234  -24.0984 H   0  0  0  0  0  0  0  0  0  0  0  0
   -7.4643    2.3552  -25.2107 H   0  0  0  0  0  0  0  0  0  0  0  0
   -5.6283   -2.6875  -26.4932 H   0  0  0  0  0  0  0  0  0  0  0  0
   -4.2483   -1.6275  -26.3015 H   0  0  0  0  0  0  0  0  0  0  0  0
   -3.8362   -3.4991  -24.8764 H   0  0  0  0  0  0  0  0  0  0  0  0
   -4.2678   -2.1820  -23.7990 H   0  0  0  0  0  0  0  0  0  0  0  0
   -6.2412   -4.2977  -24.7490 H   0  0  0  0  0  0  0  0  0  0  0  0
   -5.3613   -4.4154  -23.2336 H   0  0  0  0  0  0  0  0  0  0  0  0
  1  2  2  0
  2  3  1  0
  3  4  1  0
  4  5  2  0
  5  6  1  0
  6  7  2  0
  7  8  1  0
  8  9  2  0
  9 10  1  0
 10 11  2  0
 11 12  1  0
 12 13  2  0
 12 14  1  0
 11 15  1  0
 10 16  1  0
  9 17  1  0
  7 18  1  0
  5 19  1  0
  3 20  1  0
  3 21  1  0
  2 22  1  0
 22 23  1  0
 23 24  1  0
 24 25  1  0
 25 26  1  0
 26 27  1  0
 27 28  1  0
 28 29  2  0
 29 30  1  0
 30 31  1  0
 31 32  1  0
 31 33  1  0
 29 34  1  0
 28 35  1  0
 25 36  1  0
 25 37  1  0
 24 38  1  0
 24 39  1  0
 23 40  1  0
 23 41  1  0
 13  4  1  0
 31 22  1  0
 13  8  1  0
 30 26  2  0
M  END
>  <cnnaffinities>  (70) 
[5.02186, 4.84738, 5.19924]

>  <score>  (70) 
5.02186

>  <index>  (70) 
72

>  <Smiles>  (70) 
O=C(C(c1c(nc(c2c(c(c(c(c12)[H])[H])[H])[H])[H])[H])([H])[H])N1C(C(C(c2sc(c(c2C1([H])[H])[H])[H])([H])[H])([H])[H])([H])[H]

>  <h>  (70) 
<NA>

>  <Training>  (70) 
True

>  <Success>  (70) 
True

>  <enamine_searched>  (70) 
False

>  <enamine_id>  (70) 
nan

$$$$

     RDKit          3D

 50 53  0  0  0  0  0  0  0  0999 V2000
   -5.6879   -3.1643  -21.4355 O   0  0  0  0  0  0  0  0  0  0  0  0
   -6.6976   -2.7032  -21.9398 C   0  0  0  0  0  0  0  0  0  0  0  0
   -7.4080   -1.4868  -21.2729 C   0  0  0  0  0  0  0  0  0  0  0  0
   -6.5778   -0.8375  -20.1842 C   0  0  0  0  0  0  0  0  0  0  0  0
   -6.8732   -1.0485  -18.8629 C   0  0  0  0  0  0  0  0  0  0  0  0
   -6.1925   -0.5410  -17.7980 N   0  0  0  0  0  0  0  0  0  0  0  0
   -5.1601    0.2228  -18.0641 C   0  0  0  0  0  0  0  0  0  0  0  0
   -4.7225    0.5284  -19.3800 C   0  0  0  0  0  0  0  0  0  0  0  0
   -3.5945    1.3547  -19.6225 C   0  0  0  0  0  0  0  0  0  0  0  0
   -3.1906    1.6328  -20.9009 C   0  0  0  0  0  0  0  0  0  0  0  0
   -3.9032    1.0909  -21.9935 C   0  0  0  0  0  0  0  0  0  0  0  0
   -4.9997    0.2895  -21.7851 C   0  0  0  0  0  0  0  0  0  0  0  0
   -5.4459   -0.0163  -20.4732 C   0  0  0  0  0  0  0  0  0  0  0  0
   -5.5386   -0.1081  -22.6406 H   0  0  0  0  0  0  0  0  0  0  0  0
   -3.5823    1.3160  -23.0056 H   0  0  0  0  0  0  0  0  0  0  0  0
   -2.3296    2.2706  -21.0861 H   0  0  0  0  0  0  0  0  0  0  0  0
   -3.0606    1.7703  -18.7704 H   0  0  0  0  0  0  0  0  0  0  0  0
   -4.6060    0.6279  -17.2138 H   0  0  0  0  0  0  0  0  0  0  0  0
   -7.7189   -1.6717  -18.5819 H   0  0  0  0  0  0  0  0  0  0  0  0
   -7.6920   -0.7386  -22.0285 H   0  0  0  0  0  0  0  0  0  0  0  0
   -8.3518   -1.8285  -20.8253 H   0  0  0  0  0  0  0  0  0  0  0  0
   -7.1988   -3.2130  -23.1271 N   0  0  0  0  0  0  0  0  0  0  0  0
   -8.5687   -2.9636  -23.5700 C   0  0  0  0  0  0  0  0  0  0  0  0
   -9.1350   -4.1298  -24.3675 C   0  0  0  0  0  0  0  0  0  0  0  0
   -8.2262   -4.4817  -25.5310 C   0  0  0  0  0  0  0  0  0  0  0  0
   -6.8585   -4.8717  -24.9812 C   0  0  0  0  0  0  0  0  0  0  0  0
   -6.2159   -3.8508  -24.0275 C   0  0  1  0  0  0  0  0  0  0  0  0
   -5.3022   -2.8306  -24.7644 C   0  0  0  0  0  0  0  0  0  0  0  0
   -5.9414   -2.0356  -25.8772 C   0  0  0  0  0  0  0  0  0  0  0  0
   -6.6590   -0.8697  -25.6041 C   0  0  0  0  0  0  0  0  0  0  0  0
   -7.2831   -0.1472  -26.6160 C   0  0  0  0  0  0  0  0  0  0  0  0
   -7.1893   -0.5766  -27.9347 C   0  0  0  0  0  0  0  0  0  0  0  0
   -6.4735   -1.7336  -28.2263 C   0  0  0  0  0  0  0  0  0  0  0  0
   -5.8534   -2.4516  -27.2078 C   0  0  0  0  0  0  0  0  0  0  0  0
   -5.2976   -3.3552  -27.4503 H   0  0  0  0  0  0  0  0  0  0  0  0
   -6.3850   -2.0739  -29.2530 H   0  0  0  0  0  0  0  0  0  0  0  0
   -7.6638   -0.0103  -28.7298 H   0  0  0  0  0  0  0  0  0  0  0  0
   -7.8315    0.7578  -26.3737 H   0  0  0  0  0  0  0  0  0  0  0  0
   -6.7409   -0.5201  -24.5791 H   0  0  0  0  0  0  0  0  0  0  0  0
   -4.4470   -3.3831  -25.1759 H   0  0  0  0  0  0  0  0  0  0  0  0
   -4.8811   -2.1582  -24.0083 H   0  0  0  0  0  0  0  0  0  0  0  0
   -5.5471   -4.3963  -23.3572 H   0  0  0  0  0  0  0  0  0  0  0  0
   -6.1676   -5.0763  -25.8062 H   0  0  0  0  0  0  0  0  0  0  0  0
   -6.9646   -5.8216  -24.4489 H   0  0  0  0  0  0  0  0  0  0  0  0
   -8.1425   -3.6298  -26.2151 H   0  0  0  0  0  0  0  0  0  0  0  0
   -8.6495   -5.3107  -26.1128 H   0  0  0  0  0  0  0  0  0  0  0  0
  -10.1372   -3.8708  -24.7186 H   0  0  0  0  0  0  0  0  0  0  0  0
   -9.2518   -4.9981  -23.7129 H   0  0  0  0  0  0  0  0  0  0  0  0
   -9.1846   -2.7947  -22.6867 H   0  0  0  0  0  0  0  0  0  0  0  0
   -8.6399   -2.0571  -24.1857 H   0  0  0  0  0  0  0  0  0  0  0  0
  1  2  2  0
  2  3  1  0
  3  4  1  0
  4  5  2  0
  5  6  1  0
  6  7  2  0
  7  8  1  0
  8  9  2  0
  9 10  1  0
 10 11  2  0
 11 12  1  0
 12 13  2  0
 12 14  1  0
 11 15  1  0
 10 16  1  0
  9 17  1  0
  7 18  1  0
  5 19  1  0
  3 20  1  0
  3 21  1  0
  2 22  1  0
 22 23  1  0
 23 24  1  0
 24 25  1  0
 25 26  1  0
 26 27  1  0
 27 28  1  0
 28 29  1  0
 29 30  2  0
 30 31  1  0
 31 32  2  0
 32 33  1  0
 33 34  2  0
 34 35  1  0
 33 36  1  0
 32 37  1  0
 31 38  1  0
 30 39  1  0
 28 40  1  0
 28 41  1  0
 27 42  1  1
 26 43  1  0
 26 44  1  0
 25 45  1  0
 25 46  1  0
 24 47  1  0
 24 48  1  0
 23 49  1  0
 23 50  1  0
 13  4  1  0
 27 22  1  0
 34 29  1  0
 13  8  1  0
M  END
>  <cnnaffinities>  (71) 
[5.07265, 5.07265, 5.34497, 5.34494]

>  <score>  (71) 
5.07265

>  <index>  (71) 
73

>  <Smiles>  (71) 
O=C(C(c1c(nc(c2c(c(c(c(c12)[H])[H])[H])[H])[H])[H])([H])[H])N1C(C(C(C([C@]1(C(c1c(c(c(c(c1[H])[H])[H])[H])[H])([H])[H])[H])([H])[H])([H])[H])([H])[H])([H])[H]

>  <h>  (71) 
<NA>

>  <Training>  (71) 
True

>  <Success>  (71) 
True

>  <enamine_searched>  (71) 
False

>  <enamine_id>  (71) 
nan

$$$$

     RDKit          3D

 43 47  0  0  0  0  0  0  0  0999 V2000
   -9.4304   -0.4553  -20.9869 O   0  0  0  0  0  0  0  0  0  0  0  0
   -8.7458   -1.3653  -21.3791 C   0  0  0  0  0  0  0  0  0  0  0  0
   -9.1358   -2.4511  -22.1160 N   0  0  0  0  0  0  0  0  0  0  0  0
   -8.0387   -3.1462  -22.7412 C   0  0  1  0  0  0  0  0  0  0  0  0
   -8.1045   -4.6884  -22.7163 C   0  0  0  0  0  0  0  0  0  0  0  0
   -8.2242   -4.7225  -24.2742 C   0  0  2  0  0  0  0  0  0  0  0  0
   -7.1762   -5.5223  -24.9852 C   0  0  0  0  0  0  0  0  0  0  0  0
   -5.8198   -5.2769  -24.7405 C   0  0  0  0  0  0  0  0  0  0  0  0
   -4.8299   -6.0101  -25.3841 C   0  0  0  0  0  0  0  0  0  0  0  0
   -5.1804   -7.0120  -26.2879 C   0  0  0  0  0  0  0  0  0  0  0  0
   -6.5201   -7.2754  -26.5426 C   0  0  0  0  0  0  0  0  0  0  0  0
   -7.4983   -6.5333  -25.8915 C   0  0  0  0  0  0  0  0  0  0  0  0
   -9.1682   -6.9138  -26.2473 Cl  0  0  0  0  0  0  0  0  0  0  0  0
   -6.8251   -8.0470  -27.2434 H   0  0  0  0  0  0  0  0  0  0  0  0
   -4.4111   -7.5866  -26.7967 H   0  0  0  0  0  0  0  0  0  0  0  0
   -3.7844   -5.7957  -25.1829 H   0  0  0  0  0  0  0  0  0  0  0  0
   -5.5494   -4.4928  -24.0306 H   0  0  0  0  0  0  0  0  0  0  0  0
   -8.0349   -3.1704  -24.2987 C   0  0  0  0  0  0  0  0  0  0  0  0
   -8.8569   -2.6040  -24.7512 H   0  0  0  0  0  0  0  0  0  0  0  0
   -7.0979   -2.8280  -24.7569 H   0  0  0  0  0  0  0  0  0  0  0  0
   -9.2254   -5.0196  -24.6005 H   0  0  0  0  0  0  0  0  0  0  0  0
   -8.9688   -5.0618  -22.1610 H   0  0  0  0  0  0  0  0  0  0  0  0
   -7.1942   -5.1501  -22.3158 H   0  0  0  0  0  0  0  0  0  0  0  0
   -6.8397   -2.5170  -22.0504 C   0  0  0  0  0  0  0  0  0  0  0  0
   -5.6783   -2.8137  -22.2188 O   0  0  0  0  0  0  0  0  0  0  0  0
   -7.3408   -1.5162  -21.2057 N   0  0  0  0  0  0  0  0  0  0  0  0
   -6.5847   -0.8585  -20.1862 C   0  0  0  0  0  0  0  0  0  0  0  0
   -6.9096   -1.0596  -18.8664 C   0  0  0  0  0  0  0  0  0  0  0  0
   -6.2166   -0.5431  -17.8226 N   0  0  0  0  0  0  0  0  0  0  0  0
   -5.1795    0.2084  -18.0949 C   0  0  0  0  0  0  0  0  0  0  0  0
   -4.7467    0.5245  -19.4103 C   0  0  0  0  0  0  0  0  0  0  0  0
   -3.6171    1.3573  -19.6370 C   0  0  0  0  0  0  0  0  0  0  0  0
   -3.2268    1.6595  -20.9109 C   0  0  0  0  0  0  0  0  0  0  0  0
   -3.9565    1.1447  -22.0066 C   0  0  0  0  0  0  0  0  0  0  0  0
   -5.0502    0.3370  -21.8128 C   0  0  0  0  0  0  0  0  0  0  0  0
   -5.4700   -0.0115  -20.4985 C   0  0  0  0  0  0  0  0  0  0  0  0
   -5.5985   -0.0502  -22.6655 H   0  0  0  0  0  0  0  0  0  0  0  0
   -3.6464    1.3955  -23.0154 H   0  0  0  0  0  0  0  0  0  0  0  0
   -2.3685    2.3036  -21.0900 H   0  0  0  0  0  0  0  0  0  0  0  0
   -3.0850    1.7548  -18.7774 H   0  0  0  0  0  0  0  0  0  0  0  0
   -4.6280    0.6106  -17.2462 H   0  0  0  0  0  0  0  0  0  0  0  0
   -7.7563   -1.6854  -18.5966 H   0  0  0  0  0  0  0  0  0  0  0  0
  -10.1002   -2.6062  -22.3649 H   0  0  0  0  0  0  0  0  0  0  0  0
  1  2  2  0
  2  3  1  0
  4  3  1  6
  4  5  1  0
  5  6  1  0
  6  7  1  0
  7  8  2  0
  8  9  1  0
  9 10  2  0
 10 11  1  0
 11 12  2  0
 12 13  1  0
 11 14  1  0
 10 15  1  0
  9 16  1  0
  8 17  1  0
  6 18  1  0
 18 19  1  0
 18 20  1  0
  6 21  1  1
  5 22  1  0
  5 23  1  0
  4 24  1  0
 24 25  2  0
 24 26  1  0
 26 27  1  0
 27 28  2  0
 28 29  1  0
 29 30  2  0
 30 31  1  0
 31 32  2  0
 32 33  1  0
 33 34  2  0
 34 35  1  0
 35 36  2  0
 35 37  1  0
 34 38  1  0
 33 39  1  0
 32 40  1  0
 30 41  1  0
 28 42  1  0
  3 43  1  0
 26  2  1  0
 36 27  1  0
 18  4  1  0
 36 31  1  0
 12  7  1  0
M  END
>  <cnnaffinities>  (72) 
[5.68947]

>  <score>  (72) 
5.68947

>  <index>  (72) 
74

>  <Smiles>  (72) 
O=C1N([C@]2(C([C@](c3c(c(c(c(c3Cl)[H])[H])[H])[H])(C2([H])[H])[H])([H])[H])C(=O)N1c1c(nc(c2c(c(c(c(c12)[H])[H])[H])[H])[H])[H])[H]

>  <h>  (72) 
<NA>

>  <Training>  (72) 
True

>  <Success>  (72) 
True

>  <enamine_searched>  (72) 
False

>  <enamine_id>  (72) 
nan

$$$$

     RDKit          3D

 66 71  0  0  0  0  0  0  0  0999 V2000
   -7.5162    3.3111  -21.8942 C   0  0  0  0  0  0  0  0  0  0  0  0
   -8.6321    2.8146  -22.6857 N   0  0  0  0  0  0  0  0  0  0  0  0
   -8.3130    2.0177  -23.7443 C   0  0  0  0  0  0  0  0  0  0  0  0
   -7.1540    1.7366  -24.0000 O   0  0  0  0  0  0  0  0  0  0  0  0
   -9.4397    1.4525  -24.6015 C   0  0  0  0  0  0  0  0  0  0  0  0
   -9.9465    0.2387  -24.0040 N   0  0  0  0  0  0  0  0  0  0  0  0
   -9.1077   -0.9521  -23.9829 C   0  0  0  0  0  0  0  0  0  0  0  0
   -9.2757   -1.7393  -22.6542 C   0  0  2  0  0  0  0  0  0  0  0  0
   -8.6717   -0.8995  -21.4999 C   0  0  0  0  0  0  0  0  0  0  0  0
   -9.1707    0.0734  -20.9685 O   0  0  0  0  0  0  0  0  0  0  0  0
   -7.4285   -1.4096  -21.1888 N   0  0  0  0  0  0  0  0  0  0  0  0
   -6.6303   -0.8258  -20.1736 C   0  0  0  0  0  0  0  0  0  0  0  0
   -6.9447   -1.0444  -18.8529 C   0  0  0  0  0  0  0  0  0  0  0  0
   -6.2395   -0.5542  -17.8056 N   0  0  0  0  0  0  0  0  0  0  0  0
   -5.1981    0.1931  -18.0817 C   0  0  0  0  0  0  0  0  0  0  0  0
   -4.7676    0.5118  -19.4004 C   0  0  0  0  0  0  0  0  0  0  0  0
   -3.6445    1.3489  -19.6356 C   0  0  0  0  0  0  0  0  0  0  0  0
   -3.2604    1.6500  -20.9126 C   0  0  0  0  0  0  0  0  0  0  0  0
   -3.9866    1.1410  -22.0114 C   0  0  0  0  0  0  0  0  0  0  0  0
   -5.0884    0.3392  -21.8120 C   0  0  0  0  0  0  0  0  0  0  0  0
   -5.5009   -0.0070  -20.4944 C   0  0  0  0  0  0  0  0  0  0  0  0
   -5.6624    0.0075  -22.6718 H   0  0  0  0  0  0  0  0  0  0  0  0
   -3.6749    1.3885  -23.0221 H   0  0  0  0  0  0  0  0  0  0  0  0
   -2.3994    2.2908  -21.0884 H   0  0  0  0  0  0  0  0  0  0  0  0
   -3.1128    1.7462  -18.7748 H   0  0  0  0  0  0  0  0  0  0  0  0
   -4.6326    0.5932  -17.2396 H   0  0  0  0  0  0  0  0  0  0  0  0
   -7.8057   -1.6602  -18.6039 H   0  0  0  0  0  0  0  0  0  0  0  0
   -7.0450   -2.5612  -21.9859 C   0  0  0  0  0  0  0  0  0  0  0  0
   -8.3822   -3.0152  -22.6011 C   0  0  2  0  0  0  0  0  0  0  0  0
   -8.2394   -3.7505  -23.9334 C   0  0  0  0  0  0  0  0  0  0  0  0
   -7.5659   -5.0155  -23.7804 N   0  0  0  0  0  0  0  0  0  0  0  0
   -7.1743   -5.7666  -24.8526 C   0  0  0  0  0  0  0  0  0  0  0  0
   -7.6705   -5.5512  -26.1595 C   0  0  0  0  0  0  0  0  0  0  0  0
   -7.3751   -6.3631  -27.1613 N   0  0  0  0  0  0  0  0  0  0  0  0
   -6.5613   -7.3897  -26.8949 C   0  0  0  0  0  0  0  0  0  0  0  0
   -6.0186   -7.5564  -25.6276 C   0  0  0  0  0  0  0  0  0  0  0  0
   -6.3145   -6.7598  -24.6022 N   0  0  0  0  0  0  0  0  0  0  0  0
   -5.3328   -8.3766  -25.4167 H   0  0  0  0  0  0  0  0  0  0  0  0
   -6.3435   -8.0780  -27.7097 H   0  0  0  0  0  0  0  0  0  0  0  0
   -8.3190   -4.7086  -26.3934 H   0  0  0  0  0  0  0  0  0  0  0  0
   -7.1722   -5.3120  -22.9012 H   0  0  0  0  0  0  0  0  0  0  0  0
   -9.2398   -3.9138  -24.3649 H   0  0  0  0  0  0  0  0  0  0  0  0
   -7.6757   -3.1234  -24.6465 H   0  0  0  0  0  0  0  0  0  0  0  0
   -8.8295   -3.7098  -21.8828 H   0  0  0  0  0  0  0  0  0  0  0  0
   -6.3124   -2.2880  -22.7628 H   0  0  0  0  0  0  0  0  0  0  0  0
   -6.5891   -3.3315  -21.3534 H   0  0  0  0  0  0  0  0  0  0  0  0
  -10.7725   -1.9602  -22.4709 C   0  0  0  0  0  0  0  0  0  0  0  0
  -11.2803   -3.0205  -21.7132 C   0  0  0  0  0  0  0  0  0  0  0  0
  -12.6277   -3.0603  -21.4009 C   0  0  0  0  0  0  0  0  0  0  0  0
  -13.2113   -4.2062  -20.2473 Cl  0  0  0  0  0  0  0  0  0  0  0  0
  -13.5428   -2.1414  -21.9029 C   0  0  0  0  0  0  0  0  0  0  0  0
  -13.0635   -1.1200  -22.6876 C   0  0  0  0  0  0  0  0  0  0  0  0
  -11.7006   -1.0200  -22.9467 C   0  0  0  0  0  0  0  0  0  0  0  0
  -11.2709    0.1887  -23.6976 C   0  0  0  0  0  0  0  0  0  0  0  0
  -12.0636    1.0759  -24.0025 O   0  0  0  0  0  0  0  0  0  0  0  0
  -13.7069   -0.3475  -23.0929 H   0  0  0  0  0  0  0  0  0  0  0  0
  -14.5898   -2.2142  -21.6366 H   0  0  0  0  0  0  0  0  0  0  0  0
  -10.6424   -3.8008  -21.3156 H   0  0  0  0  0  0  0  0  0  0  0  0
   -9.3802   -1.6093  -24.8225 H   0  0  0  0  0  0  0  0  0  0  0  0
   -8.0706   -0.6281  -24.1121 H   0  0  0  0  0  0  0  0  0  0  0  0
   -9.0460    1.2382  -25.6019 H   0  0  0  0  0  0  0  0  0  0  0  0
  -10.2897    2.1283  -24.7036 H   0  0  0  0  0  0  0  0  0  0  0  0
   -9.5239    2.6971  -22.2267 H   0  0  0  0  0  0  0  0  0  0  0  0
   -7.8668    3.9791  -21.1046 H   0  0  0  0  0  0  0  0  0  0  0  0
   -6.8488    3.8872  -22.5385 H   0  0  0  0  0  0  0  0  0  0  0  0
   -6.9485    2.4643  -21.4873 H   0  0  0  0  0  0  0  0  0  0  0  0
  1  2  1  0
  2  3  1  0
  3  4  2  0
  3  5  1  0
  5  6  1  0
  6  7  1  0
  8  7  1  6
  8  9  1  0
  9 10  2  0
  9 11  1  0
 11 12  1  0
 12 13  2  0
 13 14  1  0
 14 15  2  0
 15 16  1  0
 16 17  2  0
 17 18  1  0
 18 19  2  0
 19 20  1  0
 20 21  2  0
 20 22  1  0
 19 23  1  0
 18 24  1  0
 17 25  1  0
 15 26  1  0
 13 27  1  0
 11 28  1  0
 28 29  1  0
 29 30  1  0
 30 31  1  0
 31 32  1  0
 32 33  2  0
 33 34  1  0
 34 35  2  0
 35 36  1  0
 36 37  2  0
 36 38  1  0
 35 39  1  0
 33 40  1  0
 31 41  1  0
 30 42  1  0
 30 43  1  0
 29 44  1  1
 28 45  1  0
 28 46  1  0
  8 47  1  0
 47 48  2  0
 48 49  1  0
 49 50  1  0
 49 51  2  0
 51 52  1  0
 52 53  2  0
 53 54  1  0
 54 55  2  0
 52 56  1  0
 51 57  1  0
 48 58  1  0
  7 59  1  0
  7 60  1  0
  5 61  1  0
  5 62  1  0
  2 63  1  0
  1 64  1  0
  1 65  1  0
  1 66  1  0
 54  6  1  0
 29  8  1  0
 37 32  1  0
 53 47  1  0
 21 12  1  0
 21 16  1  0
M  END
>  <cnnaffinities>  (73) 
[7.0449, 6.81621, 5.9571]

>  <score>  (73) 
7.0449

>  <index>  (73) 
75

>  <Smiles>  (73) 
C(N(C(=O)C(N1C([C@@]2(C(=O)N(c3c(nc(c4c(c(c(c(c34)[H])[H])[H])[H])[H])[H])C([C@@]2(C(N(c2c(nc(c(n2)[H])[H])[H])[H])([H])[H])[H])([H])[H])c2c(c(Cl)c(c(c2C1=O)[H])[H])[H])([H])[H])([H])[H])[H])([H])([H])[H]

>  <h>  (73) 
<NA>

>  <Training>  (73) 
True

>  <Success>  (73) 
True

>  <enamine_searched>  (73) 
False

>  <enamine_id>  (73) 
nan

$$$$

     RDKit          3D

 66 71  0  0  0  0  0  0  0  0999 V2000
   -8.1958   -3.4703  -24.1008 C   0  0  0  0  0  0  0  0  0  0  0  0
   -8.4654   -2.7341  -22.7818 C   0  0  1  0  0  0  0  0  0  0  0  0
   -7.1833   -2.5237  -21.9483 C   0  0  0  0  0  0  0  0  0  0  0  0
   -7.4547   -1.3164  -21.1901 N   0  0  0  0  0  0  0  0  0  0  0  0
   -6.6157   -0.7951  -20.1668 C   0  0  0  0  0  0  0  0  0  0  0  0
   -6.9146   -1.0383  -18.8500 C   0  0  0  0  0  0  0  0  0  0  0  0
   -6.2053   -0.5536  -17.8025 N   0  0  0  0  0  0  0  0  0  0  0  0
   -5.1722    0.2092  -18.0758 C   0  0  0  0  0  0  0  0  0  0  0  0
   -4.7421    0.5389  -19.3941 C   0  0  0  0  0  0  0  0  0  0  0  0
   -3.6230    1.3826  -19.6393 C   0  0  0  0  0  0  0  0  0  0  0  0
   -3.2407    1.6775  -20.9220 C   0  0  0  0  0  0  0  0  0  0  0  0
   -3.9488    1.1368  -22.0147 C   0  0  0  0  0  0  0  0  0  0  0  0
   -5.0332    0.3141  -21.8036 C   0  0  0  0  0  0  0  0  0  0  0  0
   -5.4731    0.0072  -20.4831 C   0  0  0  0  0  0  0  0  0  0  0  0
   -5.5631   -0.0975  -22.6564 H   0  0  0  0  0  0  0  0  0  0  0  0
   -3.6429    1.3836  -23.0283 H   0  0  0  0  0  0  0  0  0  0  0  0
   -2.3959    2.3407  -21.1023 H   0  0  0  0  0  0  0  0  0  0  0  0
   -3.0935    1.7939  -18.7853 H   0  0  0  0  0  0  0  0  0  0  0  0
   -4.6191    0.6128  -17.2273 H   0  0  0  0  0  0  0  0  0  0  0  0
   -7.7710   -1.6601  -18.5964 H   0  0  0  0  0  0  0  0  0  0  0  0
   -8.5324   -0.5951  -21.6470 C   0  0  0  0  0  0  0  0  0  0  0  0
   -8.9191    0.4502  -21.1570 O   0  0  0  0  0  0  0  0  0  0  0  0
   -9.1317   -1.3230  -22.8754 C   0  0  1  0  0  0  0  0  0  0  0  0
   -8.7109   -0.5868  -24.1688 C   0  0  0  0  0  0  0  0  0  0  0  0
   -9.3136    0.7279  -24.2629 N   0  0  0  0  0  0  0  0  0  0  0  0
   -8.5164    1.7881  -24.8533 C   0  0  0  0  0  0  0  0  0  0  0  0
   -7.5544    2.4200  -23.8561 C   0  0  0  0  0  0  0  0  0  0  0  0
   -8.2761    3.2277  -22.8184 N   0  0  0  0  0  4  0  0  0  0  0  0
   -7.4845    3.3281  -21.5566 C   0  0  0  0  0  0  0  0  0  0  0  0
   -6.3303    4.3100  -21.6208 C   0  0  0  0  0  0  0  0  0  0  0  0
   -6.7999    5.5999  -21.9471 O   0  0  0  0  0  0  0  0  0  0  0  0
   -7.4357    5.5913  -23.2069 C   0  0  0  0  0  0  0  0  0  0  0  0
   -8.6404    4.6453  -23.2437 C   0  0  0  0  0  0  0  0  0  0  0  0
   -9.4023    5.0053  -22.5473 H   0  0  0  0  0  0  0  0  0  0  0  0
   -9.0626    4.6138  -24.2499 H   0  0  0  0  0  0  0  0  0  0  0  0
   -6.7106    5.3065  -23.9838 H   0  0  0  0  0  0  0  0  0  0  0  0
   -7.7611    6.6179  -23.3913 H   0  0  0  0  0  0  0  0  0  0  0  0
   -5.8649    4.3882  -20.6343 H   0  0  0  0  0  0  0  0  0  0  0  0
   -5.5699    3.9704  -22.3444 H   0  0  0  0  0  0  0  0  0  0  0  0
   -7.1364    2.3214  -21.3087 H   0  0  0  0  0  0  0  0  0  0  0  0
   -8.1655    3.6751  -20.7760 H   0  0  0  0  0  0  0  0  0  0  0  0
   -9.1392    2.7078  -22.5627 H   0  0  0  0  0  0  0  0  0  0  0  0
   -6.9886    1.6456  -23.3236 H   0  0  0  0  0  0  0  0  0  0  0  0
   -6.8351    3.0567  -24.3748 H   0  0  0  0  0  0  0  0  0  0  0  0
   -7.9353    1.3809  -25.6878 H   0  0  0  0  0  0  0  0  0  0  0  0
   -9.2138    2.5328  -25.2349 H   0  0  0  0  0  0  0  0  0  0  0  0
  -10.6626    0.8877  -24.0993 C   0  0  0  0  0  0  0  0  0  0  0  0
  -11.2667    1.8887  -24.4630 O   0  0  0  0  0  0  0  0  0  0  0  0
  -11.3656   -0.2386  -23.3943 C   0  0  0  0  0  0  0  0  0  0  0  0
  -12.7554   -0.1751  -23.2945 C   0  0  0  0  0  0  0  0  0  0  0  0
  -13.4469   -1.1238  -22.5666 C   0  0  0  0  0  0  0  0  0  0  0  0
  -12.7320   -2.1309  -21.9201 C   0  0  0  0  0  0  0  0  0  0  0  0
  -13.5820   -3.2548  -20.8974 Cl  0  0  0  0  0  0  0  0  0  0  0  0
  -11.3535   -2.2120  -22.0150 C   0  0  0  0  0  0  0  0  0  0  0  0
  -10.6491   -1.2886  -22.7974 C   0  0  0  0  0  0  0  0  0  0  0  0
  -10.8409   -2.9642  -21.4260 H   0  0  0  0  0  0  0  0  0  0  0  0
  -14.5232   -1.0707  -22.4548 H   0  0  0  0  0  0  0  0  0  0  0  0
  -13.2590    0.6532  -23.7829 H   0  0  0  0  0  0  0  0  0  0  0  0
   -7.6239   -0.4607  -24.1818 H   0  0  0  0  0  0  0  0  0  0  0  0
   -9.0061   -1.2054  -25.0319 H   0  0  0  0  0  0  0  0  0  0  0  0
   -6.9774   -3.3641  -21.2748 H   0  0  0  0  0  0  0  0  0  0  0  0
   -6.3034   -2.4009  -22.5995 H   0  0  0  0  0  0  0  0  0  0  0  0
   -9.1429   -3.3491  -22.1844 H   0  0  0  0  0  0  0  0  0  0  0  0
   -9.1019   -3.5774  -24.7092 H   0  0  0  0  0  0  0  0  0  0  0  0
   -7.4488   -2.9410  -24.7062 H   0  0  0  0  0  0  0  0  0  0  0  0
   -7.8029   -4.4765  -23.9142 H   0  0  0  0  0  0  0  0  0  0  0  0
  1  2  1  0
  2  3  1  0
  3  4  1  0
  4  5  1  0
  5  6  2  0
  6  7  1  0
  7  8  2  0
  8  9  1  0
  9 10  2  0
 10 11  1  0
 11 12  2  0
 12 13  1  0
 13 14  2  0
 13 15  1  0
 12 16  1  0
 11 17  1  0
 10 18  1  0
  8 19  1  0
  6 20  1  0
  4 21  1  0
 21 22  2  0
 21 23  1  0
 23 24  1  6
 24 25  1  0
 25 26  1  0
 26 27  1  0
 27 28  1  0
 28 29  1  0
 29 30  1  0
 30 31  1  0
 31 32  1  0
 32 33  1  0
 33 34  1  0
 33 35  1  0
 32 36  1  0
 32 37  1  0
 30 38  1  0
 30 39  1  0
 29 40  1  0
 29 41  1  0
 28 42  1  0
 27 43  1  0
 27 44  1  0
 26 45  1  0
 26 46  1  0
 25 47  1  0
 47 48  2  0
 47 49  1  0
 49 50  2  0
 50 51  1  0
 51 52  2  0
 52 53  1  0
 52 54  1  0
 54 55  2  0
 54 56  1  0
 51 57  1  0
 50 58  1  0
 24 59  1  0
 24 60  1  0
  3 61  1  0
  3 62  1  0
  2 63  1  1
  1 64  1  0
  1 65  1  0
  1 66  1  0
 23  2  1  0
 33 28  1  0
 55 49  1  0
 14  5  1  0
 55 23  1  0
 14  9  1  0
M  CHG  1  28   1
M  END
>  <cnnaffinities>  (74) 
[6.47165, 6.85796]

>  <score>  (74) 
6.47165

>  <index>  (74) 
76

>  <Smiles>  (74) 
C([C@]1(C(N(c2c(nc(c3c(c(c(c(c23)[H])[H])[H])[H])[H])[H])C(=O)[C@]21C(N(C(C([N+]1(C(C(OC(C1([H])[H])([H])[H])([H])[H])([H])[H])[H])([H])[H])([H])[H])C(=O)c1c(c(c(Cl)c(c21)[H])[H])[H])([H])[H])([H])[H])[H])([H])([H])[H]

>  <h>  (74) 
<NA>

>  <Training>  (74) 
True

>  <Success>  (74) 
True

>  <enamine_searched>  (74) 
False

>  <enamine_id>  (74) 
nan

$$$$

     RDKit          3D

 55 60  0  0  0  0  0  0  0  0999 V2000
  -10.4570   -1.1674  -23.2640 C   0  0  0  0  0  0  0  0  0  0  0  0
   -9.0074   -1.5000  -22.9256 C   0  0  1  0  0  0  0  0  0  0  0  0
   -8.3756   -0.5438  -21.9009 C   0  0  0  0  0  0  0  0  0  0  0  0
   -7.3731   -1.3674  -21.2376 N   0  0  0  0  0  0  0  0  0  0  0  0
   -6.5750   -0.8646  -20.1842 C   0  0  0  0  0  0  0  0  0  0  0  0
   -6.8967   -1.1071  -18.8722 C   0  0  0  0  0  0  0  0  0  0  0  0
   -6.2354   -0.5699  -17.8155 N   0  0  0  0  0  0  0  0  0  0  0  0
   -5.2121    0.2072  -18.0788 C   0  0  0  0  0  0  0  0  0  0  0  0
   -4.7567    0.5116  -19.3943 C   0  0  0  0  0  0  0  0  0  0  0  0
   -3.6311    1.3404  -19.6304 C   0  0  0  0  0  0  0  0  0  0  0  0
   -3.2266    1.6050  -20.9086 C   0  0  0  0  0  0  0  0  0  0  0  0
   -3.9245    1.0623  -22.0100 C   0  0  0  0  0  0  0  0  0  0  0  0
   -5.0196    0.2580  -21.8098 C   0  0  0  0  0  0  0  0  0  0  0  0
   -5.4589   -0.0307  -20.4903 C   0  0  0  0  0  0  0  0  0  0  0  0
   -5.5484   -0.1667  -22.6572 H   0  0  0  0  0  0  0  0  0  0  0  0
   -3.5967    1.2909  -23.0190 H   0  0  0  0  0  0  0  0  0  0  0  0
   -2.3694    2.2468  -21.0872 H   0  0  0  0  0  0  0  0  0  0  0  0
   -3.1141    1.7608  -18.7727 H   0  0  0  0  0  0  0  0  0  0  0  0
   -4.6796    0.6415  -17.2312 H   0  0  0  0  0  0  0  0  0  0  0  0
   -7.7352   -1.7549  -18.6258 H   0  0  0  0  0  0  0  0  0  0  0  0
   -7.6005   -2.7200  -21.3746 C   0  0  0  0  0  0  0  0  0  0  0  0
   -6.9617   -3.5893  -20.8174 O   0  0  0  0  0  0  0  0  0  0  0  0
   -8.7906   -2.9270  -22.3137 C   0  0  1  0  0  0  0  0  0  0  0  0
   -9.9824   -3.3880  -21.4461 C   0  0  0  0  0  0  0  0  0  0  0  0
  -11.0979   -3.8846  -22.2252 N   0  0  0  0  0  0  0  0  0  0  0  0
  -12.4636   -3.8475  -21.7230 C   0  0  0  0  0  0  0  0  0  0  0  0
  -13.3101   -2.7496  -22.2816 C   0  0  0  0  0  0  0  0  0  0  0  0
  -13.9787   -2.8177  -23.4591 C   0  0  0  0  0  0  0  0  0  0  0  0
  -14.7188   -1.6863  -23.6051 O   0  0  0  0  0  0  0  0  0  0  0  0
  -14.4685   -0.9873  -22.4840 C   0  0  0  0  0  0  0  0  0  0  0  0
  -13.6421   -1.5512  -21.6670 N   0  0  0  0  0  0  0  0  0  0  0  0
  -15.0004   -0.0530  -22.3483 H   0  0  0  0  0  0  0  0  0  0  0  0
  -14.0073   -3.5394  -24.2533 H   0  0  0  0  0  0  0  0  0  0  0  0
  -12.4629   -3.8601  -20.6314 H   0  0  0  0  0  0  0  0  0  0  0  0
  -12.9442   -4.7536  -22.1031 H   0  0  0  0  0  0  0  0  0  0  0  0
  -10.9418   -4.5505  -23.4016 C   0  0  0  0  0  0  0  0  0  0  0  0
  -11.9215   -4.9289  -24.0283 O   0  0  0  0  0  0  0  0  0  0  0  0
   -9.5410   -4.7640  -23.8633 C   0  0  0  0  0  0  0  0  0  0  0  0
   -9.2831   -5.7405  -24.8232 C   0  0  0  0  0  0  0  0  0  0  0  0
   -8.0226   -5.8818  -25.3731 C   0  0  0  0  0  0  0  0  0  0  0  0
   -7.0278   -5.0226  -24.9188 C   0  0  0  0  0  0  0  0  0  0  0  0
   -5.8053   -5.1244  -25.4600 F   0  0  0  0  0  0  0  0  0  0  0  0
   -7.2339   -4.0871  -23.9235 C   0  0  0  0  0  0  0  0  0  0  0  0
   -8.5085   -3.9692  -23.3632 C   0  0  0  0  0  0  0  0  0  0  0  0
   -6.4093   -3.4795  -23.5612 H   0  0  0  0  0  0  0  0  0  0  0  0
   -7.7921   -6.6403  -26.1182 H   0  0  0  0  0  0  0  0  0  0  0  0
  -10.0975   -6.3808  -25.1374 H   0  0  0  0  0  0  0  0  0  0  0  0
  -10.3262   -2.5232  -20.8739 H   0  0  0  0  0  0  0  0  0  0  0  0
   -9.6444   -4.1636  -20.7602 H   0  0  0  0  0  0  0  0  0  0  0  0
   -9.1250   -0.1784  -21.1792 H   0  0  0  0  0  0  0  0  0  0  0  0
   -7.9114    0.3297  -22.3705 H   0  0  0  0  0  0  0  0  0  0  0  0
   -8.4057   -1.4673  -23.8467 H   0  0  0  0  0  0  0  0  0  0  0  0
  -10.5408   -0.2101  -23.7844 H   0  0  0  0  0  0  0  0  0  0  0  0
  -10.8887   -1.9503  -23.8958 H   0  0  0  0  0  0  0  0  0  0  0  0
  -11.0627   -1.1211  -22.3529 H   0  0  0  0  0  0  0  0  0  0  0  0
  1  2  1  0
  2  3  1  0
  3  4  1  0
  4  5  1  0
  5  6  2  0
  6  7  1  0
  7  8  2  0
  8  9  1  0
  9 10  2  0
 10 11  1  0
 11 12  2  0
 12 13  1  0
 13 14  2  0
 13 15  1  0
 12 16  1  0
 11 17  1  0
 10 18  1  0
  8 19  1  0
  6 20  1  0
  4 21  1  0
 21 22  2  0
 21 23  1  0
 23 24  1  1
 24 25  1  0
 25 26  1  0
 26 27  1  0
 27 28  2  0
 28 29  1  0
 29 30  1  0
 30 31  2  0
 30 32  1  0
 28 33  1  0
 26 34  1  0
 26 35  1  0
 25 36  1  0
 36 37  2  0
 36 38  1  0
 38 39  2  0
 39 40  1  0
 40 41  2  0
 41 42  1  0
 41 43  1  0
 43 44  2  0
 43 45  1  0
 40 46  1  0
 39 47  1  0
 24 48  1  0
 24 49  1  0
  3 50  1  0
  3 51  1  0
  2 52  1  6
  1 53  1  0
  1 54  1  0
  1 55  1  0
 23  2  1  0
 31 27  1  0
 44 38  1  0
 14  5  1  0
 44 23  1  0
 14  9  1  0
M  END
>  <cnnaffinities>  (75) 
[6.43912]

>  <score>  (75) 
6.43912

>  <index>  (75) 
77

>  <Smiles>  (75) 
C([C@]1(C(N(c2c(nc(c3c(c(c(c(c23)[H])[H])[H])[H])[H])[H])C(=O)[C@]21C(N(C(c1c(oc(n1)[H])[H])([H])[H])C(=O)c1c(c(c(F)c(c21)[H])[H])[H])([H])[H])([H])[H])[H])([H])([H])[H]

>  <h>  (75) 
<NA>

>  <Training>  (75) 
True

>  <Success>  (75) 
True

>  <enamine_searched>  (75) 
False

>  <enamine_id>  (75) 
nan

$$$$

     RDKit          3D

 56 60  0  0  0  0  0  0  0  0999 V2000
  -14.4821   -1.5997  -23.7486 C   0  0  0  0  0  0  0  0  0  0  0  0
  -13.7650   -2.7548  -23.2593 N   0  0  0  0  0  0  0  0  0  0  0  0
  -13.3595   -2.7605  -21.9694 C   0  0  0  0  0  0  0  0  0  0  0  0
  -13.7088   -1.9269  -21.1532 O   0  0  0  0  0  0  0  0  0  0  0  0
  -12.4569   -3.9346  -21.6324 C   0  0  0  0  0  0  0  0  0  0  0  0
  -11.1389   -3.8459  -22.2389 N   0  0  0  0  0  0  0  0  0  0  0  0
  -10.0126   -3.3694  -21.4531 C   0  0  0  0  0  0  0  0  0  0  0  0
   -8.8099   -2.9223  -22.3103 C   0  0  2  0  0  0  0  0  0  0  0  0
   -7.6151   -2.7286  -21.3659 C   0  0  0  0  0  0  0  0  0  0  0  0
   -6.9788   -3.5989  -20.8088 O   0  0  0  0  0  0  0  0  0  0  0  0
   -7.3704   -1.3772  -21.2351 N   0  0  0  0  0  0  0  0  0  0  0  0
   -6.5711   -0.8749  -20.1828 C   0  0  0  0  0  0  0  0  0  0  0  0
   -6.8970   -1.1108  -18.8707 C   0  0  0  0  0  0  0  0  0  0  0  0
   -6.2374   -0.5695  -17.8157 N   0  0  0  0  0  0  0  0  0  0  0  0
   -5.2129    0.2056  -18.0817 C   0  0  0  0  0  0  0  0  0  0  0  0
   -4.7568    0.5077  -19.3970 C   0  0  0  0  0  0  0  0  0  0  0  0
   -3.6326    1.3389  -19.6314 C   0  0  0  0  0  0  0  0  0  0  0  0
   -3.2273    1.6047  -20.9106 C   0  0  0  0  0  0  0  0  0  0  0  0
   -3.9256    1.0609  -22.0112 C   0  0  0  0  0  0  0  0  0  0  0  0
   -5.0186    0.2545  -21.8118 C   0  0  0  0  0  0  0  0  0  0  0  0
   -5.4572   -0.0376  -20.4915 C   0  0  0  0  0  0  0  0  0  0  0  0
   -5.5489   -0.1687  -22.6590 H   0  0  0  0  0  0  0  0  0  0  0  0
   -3.5968    1.2905  -23.0208 H   0  0  0  0  0  0  0  0  0  0  0  0
   -2.3696    2.2468  -21.0874 H   0  0  0  0  0  0  0  0  0  0  0  0
   -3.1180    1.7590  -18.7728 H   0  0  0  0  0  0  0  0  0  0  0  0
   -4.6803    0.6389  -17.2348 H   0  0  0  0  0  0  0  0  0  0  0  0
   -7.7382   -1.7548  -18.6200 H   0  0  0  0  0  0  0  0  0  0  0  0
   -8.3658   -0.5449  -21.8964 C   0  0  0  0  0  0  0  0  0  0  0  0
   -8.9995   -1.4926  -22.9239 C   0  0  2  0  0  0  0  0  0  0  0  0
  -10.4433   -1.1464  -23.2707 C   0  0  0  0  0  0  0  0  0  0  0  0
  -11.0583   -1.1217  -22.3634 H   0  0  0  0  0  0  0  0  0  0  0  0
  -10.5240   -0.1785  -23.7713 H   0  0  0  0  0  0  0  0  0  0  0  0
  -10.8584   -1.9164  -23.9280 H   0  0  0  0  0  0  0  0  0  0  0  0
   -8.3903   -1.4678  -23.8408 H   0  0  0  0  0  0  0  0  0  0  0  0
   -7.8957    0.3283  -22.3606 H   0  0  0  0  0  0  0  0  0  0  0  0
   -9.1153   -0.1802  -21.1747 H   0  0  0  0  0  0  0  0  0  0  0  0
   -8.5473   -3.9597  -23.3681 C   0  0  0  0  0  0  0  0  0  0  0  0
   -7.2690   -4.0871  -23.9137 C   0  0  0  0  0  0  0  0  0  0  0  0
   -7.0418   -5.0168  -24.9097 C   0  0  0  0  0  0  0  0  0  0  0  0
   -5.4662   -5.1121  -25.6293 Cl  0  0  0  0  0  0  0  0  0  0  0  0
   -8.0519   -5.8637  -25.3623 C   0  0  0  0  0  0  0  0  0  0  0  0
   -9.3233   -5.7148  -24.8375 C   0  0  0  0  0  0  0  0  0  0  0  0
   -9.5899   -4.7290  -23.8894 C   0  0  0  0  0  0  0  0  0  0  0  0
  -10.9878   -4.4961  -23.4199 C   0  0  0  0  0  0  0  0  0  0  0  0
  -11.9794   -4.8273  -24.0701 O   0  0  0  0  0  0  0  0  0  0  0  0
  -10.1294   -6.3667  -25.1527 H   0  0  0  0  0  0  0  0  0  0  0  0
   -7.8358   -6.6163  -26.1146 H   0  0  0  0  0  0  0  0  0  0  0  0
   -6.4543   -3.4709  -23.5480 H   0  0  0  0  0  0  0  0  0  0  0  0
   -9.6964   -4.1743  -20.7890 H   0  0  0  0  0  0  0  0  0  0  0  0
  -10.3345   -2.5010  -20.8686 H   0  0  0  0  0  0  0  0  0  0  0  0
  -12.9478   -4.7852  -22.1030 H   0  0  0  0  0  0  0  0  0  0  0  0
  -12.4005   -4.0780  -20.5553 H   0  0  0  0  0  0  0  0  0  0  0  0
  -13.4120   -3.4796  -23.8840 H   0  0  0  0  0  0  0  0  0  0  0  0
  -13.8459   -0.7033  -23.7411 H   0  0  0  0  0  0  0  0  0  0  0  0
  -14.8255   -1.7847  -24.7667 H   0  0  0  0  0  0  0  0  0  0  0  0
  -15.3414   -1.4062  -23.1002 H   0  0  0  0  0  0  0  0  0  0  0  0
  1  2  1  0
  2  3  1  0
  3  4  2  0
  3  5  1  0
  5  6  1  0
  6  7  1  0
  8  7  1  1
  8  9  1  0
  9 10  2  0
  9 11  1  0
 11 12  1  0
 12 13  2  0
 13 14  1  0
 14 15  2  0
 15 16  1  0
 16 17  2  0
 17 18  1  0
 18 19  2  0
 19 20  1  0
 20 21  2  0
 20 22  1  0
 19 23  1  0
 18 24  1  0
 17 25  1  0
 15 26  1  0
 13 27  1  0
 11 28  1  0
 28 29  1  0
 29 30  1  0
 30 31  1  0
 30 32  1  0
 30 33  1  0
 29 34  1  6
 28 35  1  0
 28 36  1  0
  8 37  1  0
 37 38  2  0
 38 39  1  0
 39 40  1  0
 39 41  2  0
 41 42  1  0
 42 43  2  0
 43 44  1  0
 44 45  2  0
 42 46  1  0
 41 47  1  0
 38 48  1  0
  7 49  1  0
  7 50  1  0
  5 51  1  0
  5 52  1  0
  2 53  1  0
  1 54  1  0
  1 55  1  0
  1 56  1  0
 44  6  1  0
 29  8  1  0
 43 37  1  0
 21 12  1  0
 21 16  1  0
M  END
>  <cnnaffinities>  (76) 
[6.37273, 6.55253]

>  <score>  (76) 
6.37273

>  <index>  (76) 
78

>  <Smiles>  (76) 
C(N(C(=O)C(N1C([C@@]2(C(=O)N(c3c(nc(c4c(c(c(c(c34)[H])[H])[H])[H])[H])[H])C([C@@]2(C([H])([H])[H])[H])([H])[H])c2c(c(Cl)c(c(c2C1=O)[H])[H])[H])([H])[H])([H])[H])[H])([H])([H])[H]

>  <h>  (76) 
<NA>

>  <Training>  (76) 
True

>  <Success>  (76) 
True

>  <enamine_searched>  (76) 
False

>  <enamine_id>  (76) 
nan

$$$$

     RDKit          3D

 45 49  0  0  0  0  0  0  0  0999 V2000
   -7.6547   -4.1059  -23.8032 C   0  0  0  0  0  0  0  0  0  0  0  0
   -7.7876   -2.9382  -22.9431 N   0  0  0  0  0  0  0  0  0  0  0  0
   -6.7769   -2.5648  -22.0913 C   0  0  0  0  0  0  0  0  0  0  0  0
   -5.6464   -2.9965  -22.0348 O   0  0  0  0  0  0  0  0  0  0  0  0
   -7.3019   -1.5566  -21.2661 N   0  0  0  0  0  0  0  0  0  0  0  0
   -6.5852   -0.9145  -20.2293 C   0  0  0  0  0  0  0  0  0  0  0  0
   -6.9615   -1.0940  -18.9218 C   0  0  0  0  0  0  0  0  0  0  0  0
   -6.3042   -0.5708  -17.8581 N   0  0  0  0  0  0  0  0  0  0  0  0
   -5.2565    0.1729  -18.1171 C   0  0  0  0  0  0  0  0  0  0  0  0
   -4.7917    0.4670  -19.4290 C   0  0  0  0  0  0  0  0  0  0  0  0
   -3.6730    1.3098  -19.6373 C   0  0  0  0  0  0  0  0  0  0  0  0
   -3.2768    1.6227  -20.9068 C   0  0  0  0  0  0  0  0  0  0  0  0
   -3.9824    1.1205  -22.0237 C   0  0  0  0  0  0  0  0  0  0  0  0
   -5.0685    0.2986  -21.8499 C   0  0  0  0  0  0  0  0  0  0  0  0
   -5.4812   -0.0671  -20.5353 C   0  0  0  0  0  0  0  0  0  0  0  0
   -5.6188   -0.0649  -22.7144 H   0  0  0  0  0  0  0  0  0  0  0  0
   -3.6673    1.3984  -23.0259 H   0  0  0  0  0  0  0  0  0  0  0  0
   -2.4249    2.2763  -21.0650 H   0  0  0  0  0  0  0  0  0  0  0  0
   -3.1692    1.7079  -18.7612 H   0  0  0  0  0  0  0  0  0  0  0  0
   -4.7156    0.5937  -17.2691 H   0  0  0  0  0  0  0  0  0  0  0  0
   -7.8344   -1.6979  -18.6897 H   0  0  0  0  0  0  0  0  0  0  0  0
   -8.6486   -1.3440  -21.4973 C   0  0  0  0  0  0  0  0  0  0  0  0
   -9.3151   -0.4613  -21.0084 O   0  0  0  0  0  0  0  0  0  0  0  0
   -9.0596   -2.3962  -22.5007 C   0  0  0  0  0  0  0  0  0  0  0  0
  -10.1143   -1.8716  -23.4772 C   0  0  0  0  0  0  0  0  0  0  0  0
  -11.1386   -2.7643  -22.8527 N   0  0  0  0  0  0  0  0  0  0  0  0
  -11.9606   -3.7287  -23.9558 S   0  0  0  0  0  0  0  0  0  0  0  0
  -12.1632   -2.8784  -25.1184 O   0  0  0  0  0  0  0  0  0  0  0  0
  -11.2304   -4.9829  -24.0457 O   0  0  0  0  0  0  0  0  0  0  0  0
  -13.5598   -4.0777  -23.2508 C   0  0  0  0  0  0  0  0  0  0  0  0
  -14.3035   -3.0290  -22.4922 C   0  0  0  0  0  0  0  0  0  0  0  0
  -13.8435   -4.2562  -21.7879 C   0  0  0  0  0  0  0  0  0  0  0  0
  -14.5752   -5.0195  -21.5683 H   0  0  0  0  0  0  0  0  0  0  0  0
  -13.0442   -4.1610  -21.0626 H   0  0  0  0  0  0  0  0  0  0  0  0
  -15.3488   -2.9118  -22.7350 H   0  0  0  0  0  0  0  0  0  0  0  0
  -13.7551   -2.1221  -22.2760 H   0  0  0  0  0  0  0  0  0  0  0  0
  -14.1287   -4.7237  -23.9097 H   0  0  0  0  0  0  0  0  0  0  0  0
  -10.1070   -3.4083  -22.0078 C   0  0  0  0  0  0  0  0  0  0  0  0
   -9.8859   -4.4399  -22.2787 H   0  0  0  0  0  0  0  0  0  0  0  0
  -10.3273   -3.3452  -20.9534 H   0  0  0  0  0  0  0  0  0  0  0  0
  -10.3663   -0.8201  -23.3480 H   0  0  0  0  0  0  0  0  0  0  0  0
   -9.9199   -2.0862  -24.5255 H   0  0  0  0  0  0  0  0  0  0  0  0
   -8.6271   -4.3807  -24.2200 H   0  0  0  0  0  0  0  0  0  0  0  0
   -6.9731   -3.8929  -24.6302 H   0  0  0  0  0  0  0  0  0  0  0  0
   -7.2581   -4.9622  -23.2456 H   0  0  0  0  0  0  0  0  0  0  0  0
  1  2  1  0
  2  3  1  0
  3  4  2  0
  3  5  1  0
  5  6  1  0
  6  7  2  0
  7  8  1  0
  8  9  2  0
  9 10  1  0
 10 11  2  0
 11 12  1  0
 12 13  2  0
 13 14  1  0
 14 15  2  0
 14 16  1  0
 13 17  1  0
 12 18  1  0
 11 19  1  0
  9 20  1  0
  7 21  1  0
  5 22  1  0
 22 23  2  0
 22 24  1  0
 24 25  1  0
 25 26  1  0
 26 27  1  0
 27 28  2  0
 27 29  2  0
 27 30  1  0
 30 31  1  0
 31 32  1  0
 32 33  1  0
 32 34  1  0
 31 35  1  0
 31 36  1  0
 30 37  1  0
 26 38  1  0
 38 39  1  0
 38 40  1  0
 25 41  1  0
 25 42  1  0
  1 43  1  0
  1 44  1  0
  1 45  1  0
 24  2  1  0
 32 30  1  0
 15  6  1  0
 38 24  1  0
 15 10  1  0
M  END
>  <cnnaffinities>  (77) 
[5.99609, 5.89179, 5.89042, 5.454, 5.23105, 5.35215]

>  <score>  (77) 
5.99609

>  <index>  (77) 
79

>  <Smiles>  (77) 
C(N1C(=O)N(c2c(nc(c3c(c(c(c(c23)[H])[H])[H])[H])[H])[H])C(=O)C21C(N(S(=O)(=O)C1(C(C1([H])[H])([H])[H])[H])C2([H])[H])([H])[H])([H])([H])[H]

>  <h>  (77) 
<NA>

>  <Training>  (77) 
True

>  <Success>  (77) 
True

>  <enamine_searched>  (77) 
False

>  <enamine_id>  (77) 
nan

$$$$

     RDKit          3D

 60 65  0  0  0  0  0  0  0  0999 V2000
   -6.8110    3.5016  -23.4250 C   0  0  0  0  0  0  0  0  0  0  0  0
   -7.5577    2.6813  -24.3592 N   0  0  0  0  0  0  0  0  0  0  0  0
   -6.9643    1.6064  -24.9170 C   0  0  0  0  0  0  0  0  0  0  0  0
   -5.7617    1.3858  -24.8302 O   0  0  0  0  0  0  0  0  0  0  0  0
   -7.8971    0.7111  -25.7272 C   0  0  0  0  0  0  0  0  0  0  0  0
   -8.9207    0.0184  -24.9918 N   0  0  0  0  0  0  0  0  0  0  0  0
   -8.5958   -1.2819  -24.4198 C   0  0  0  0  0  0  0  0  0  0  0  0
   -9.1091   -1.4323  -22.9606 C   0  0  2  0  0  0  0  0  0  0  0  0
   -8.2789   -0.5010  -22.0352 C   0  0  0  0  0  0  0  0  0  0  0  0
   -8.2840    0.7138  -22.0254 O   0  0  0  0  0  0  0  0  0  0  0  0
   -7.4916   -1.2745  -21.2107 N   0  0  0  0  0  0  0  0  0  0  0  0
   -6.6576   -0.7492  -20.1930 C   0  0  0  0  0  0  0  0  0  0  0  0
   -6.9251   -1.0443  -18.8779 C   0  0  0  0  0  0  0  0  0  0  0  0
   -6.2238   -0.5666  -17.8213 N   0  0  0  0  0  0  0  0  0  0  0  0
   -5.1981    0.2077  -18.0842 C   0  0  0  0  0  0  0  0  0  0  0  0
   -4.7676    0.5395  -19.4001 C   0  0  0  0  0  0  0  0  0  0  0  0
   -3.6280    1.3566  -19.6299 C   0  0  0  0  0  0  0  0  0  0  0  0
   -3.2164    1.6342  -20.9041 C   0  0  0  0  0  0  0  0  0  0  0  0
   -3.9210    1.1032  -22.0097 C   0  0  0  0  0  0  0  0  0  0  0  0
   -5.0248    0.3119  -21.8136 C   0  0  0  0  0  0  0  0  0  0  0  0
   -5.4979    0.0319  -20.5006 C   0  0  0  0  0  0  0  0  0  0  0  0
   -5.5457   -0.0996  -22.6722 H   0  0  0  0  0  0  0  0  0  0  0  0
   -3.6081    1.3371  -23.0230 H   0  0  0  0  0  0  0  0  0  0  0  0
   -2.3487    2.2652  -21.0741 H   0  0  0  0  0  0  0  0  0  0  0  0
   -3.1043    1.7563  -18.7652 H   0  0  0  0  0  0  0  0  0  0  0  0
   -4.6414    0.6047  -17.2341 H   0  0  0  0  0  0  0  0  0  0  0  0
   -7.7715   -1.6845  -18.6282 H   0  0  0  0  0  0  0  0  0  0  0  0
   -7.5417   -2.6877  -21.5006 C   0  0  0  0  0  0  0  0  0  0  0  0
   -8.7964   -2.8309  -22.3718 C   0  0  2  0  0  0  0  0  0  0  0  0
   -8.7254   -3.9897  -23.3589 C   0  0  0  0  0  0  0  0  0  0  0  0
   -7.8844   -3.8796  -24.0546 H   0  0  0  0  0  0  0  0  0  0  0  0
   -9.6431   -4.0548  -23.9538 H   0  0  0  0  0  0  0  0  0  0  0  0
   -8.5927   -4.9354  -22.8240 H   0  0  0  0  0  0  0  0  0  0  0  0
   -9.5980   -3.0349  -21.6655 H   0  0  0  0  0  0  0  0  0  0  0  0
   -7.6347   -3.2623  -20.5735 H   0  0  0  0  0  0  0  0  0  0  0  0
   -6.6252   -3.0277  -22.0054 H   0  0  0  0  0  0  0  0  0  0  0  0
  -10.5925   -1.0709  -22.9581 C   0  0  0  0  0  0  0  0  0  0  0  0
  -11.5692   -1.7395  -22.2029 C   0  0  0  0  0  0  0  0  0  0  0  0
  -12.8941   -1.3423  -22.2495 C   0  0  0  0  0  0  0  0  0  0  0  0
  -14.0601   -2.2153  -21.2932 Cl  0  0  0  0  0  0  0  0  0  0  0  0
  -13.3074   -0.2578  -23.0131 C   0  0  0  0  0  0  0  0  0  0  0  0
  -12.3514    0.4193  -23.7432 C   0  0  0  0  0  0  0  0  0  0  0  0
  -11.0219   -0.0089  -23.7652 C   0  0  0  0  0  0  0  0  0  0  0  0
  -10.0922    0.6728  -24.7137 C   0  0  0  0  0  0  0  0  0  0  0  0
  -10.3696    1.7483  -25.2355 O   0  0  0  0  0  0  0  0  0  0  0  0
  -12.6168    1.2871  -24.3329 H   0  0  0  0  0  0  0  0  0  0  0  0
  -14.3555    0.0170  -23.0443 H   0  0  0  0  0  0  0  0  0  0  0  0
  -11.3320   -2.5657  -21.5435 H   0  0  0  0  0  0  0  0  0  0  0  0
   -7.5103   -1.3833  -24.4425 H   0  0  0  0  0  0  0  0  0  0  0  0
   -9.0378   -2.0744  -25.0373 H   0  0  0  0  0  0  0  0  0  0  0  0
   -7.2159   -0.0116  -26.8573 C   0  0  0  0  0  0  0  0  0  0  0  0
   -8.1532    1.1191  -27.1537 C   0  0  0  0  0  0  0  0  0  0  0  0
   -9.1340    0.8705  -27.5451 H   0  0  0  0  0  0  0  0  0  0  0  0
   -7.7539    2.0709  -27.4915 H   0  0  0  0  0  0  0  0  0  0  0  0
   -7.5537   -1.0216  -27.0783 H   0  0  0  0  0  0  0  0  0  0  0  0
   -6.1481    0.1692  -26.9559 H   0  0  0  0  0  0  0  0  0  0  0  0
   -8.5681    2.7469  -24.4105 H   0  0  0  0  0  0  0  0  0  0  0  0
   -6.4425    2.8981  -22.5817 H   0  0  0  0  0  0  0  0  0  0  0  0
   -5.9438    3.9473  -23.9237 H   0  0  0  0  0  0  0  0  0  0  0  0
   -7.4624    4.2968  -23.0567 H   0  0  0  0  0  0  0  0  0  0  0  0
  1  2  1  0
  2  3  1  0
  3  4  2  0
  3  5  1  0
  5  6  1  0
  6  7  1  0
  8  7  1  6
  8  9  1  0
  9 10  2  0
  9 11  1  0
 11 12  1  0
 12 13  2  0
 13 14  1  0
 14 15  2  0
 15 16  1  0
 16 17  2  0
 17 18  1  0
 18 19  2  0
 19 20  1  0
 20 21  2  0
 20 22  1  0
 19 23  1  0
 18 24  1  0
 17 25  1  0
 15 26  1  0
 13 27  1  0
 11 28  1  0
 28 29  1  0
 29 30  1  0
 30 31  1  0
 30 32  1  0
 30 33  1  0
 29 34  1  1
 28 35  1  0
 28 36  1  0
  8 37  1  0
 37 38  2  0
 38 39  1  0
 39 40  1  0
 39 41  2  0
 41 42  1  0
 42 43  2  0
 43 44  1  0
 44 45  2  0
 42 46  1  0
 41 47  1  0
 38 48  1  0
  7 49  1  0
  7 50  1  0
  5 51  1  0
 51 52  1  0
 52 53  1  0
 52 54  1  0
 51 55  1  0
 51 56  1  0
  2 57  1  0
  1 58  1  0
  1 59  1  0
  1 60  1  0
 52  5  1  0
 44  6  1  0
 29  8  1  0
 43 37  1  0
 21 12  1  0
 21 16  1  0
M  END
>  <cnnaffinities>  (78) 
[6.45963]

>  <score>  (78) 
6.45963

>  <index>  (78) 
80

>  <Smiles>  (78) 
C(N(C(=O)C1(N2C([C@@]3(C(=O)N(c4c(nc(c5c(c(c(c(c45)[H])[H])[H])[H])[H])[H])C([C@@]3(C([H])([H])[H])[H])([H])[H])c3c(c(Cl)c(c(c3C2=O)[H])[H])[H])([H])[H])C(C1([H])[H])([H])[H])[H])([H])([H])[H]

>  <h>  (78) 
<NA>

>  <Training>  (78) 
True

>  <Success>  (78) 
True

>  <enamine_searched>  (78) 
False

>  <enamine_id>  (78) 
nan

$$$$

     RDKit          3D

 36 38  0  0  0  0  0  0  0  0999 V2000
   -8.5033    0.7112  -21.4638 O   0  0  0  0  0  0  0  0  0  0  0  0
   -8.3856   -0.4022  -21.9330 C   0  0  0  0  0  0  0  0  0  0  0  0
   -7.4386   -1.4333  -21.2750 C   0  0  0  0  0  0  0  0  0  0  0  0
   -6.5819   -0.8283  -20.1832 C   0  0  0  0  0  0  0  0  0  0  0  0
   -6.8794   -1.0392  -18.8612 C   0  0  0  0  0  0  0  0  0  0  0  0
   -6.1953   -0.5351  -17.7979 N   0  0  0  0  0  0  0  0  0  0  0  0
   -5.1582    0.2223  -18.0639 C   0  0  0  0  0  0  0  0  0  0  0  0
   -4.7253    0.5348  -19.3810 C   0  0  0  0  0  0  0  0  0  0  0  0
   -3.5994    1.3658  -19.6208 C   0  0  0  0  0  0  0  0  0  0  0  0
   -3.2102    1.6586  -20.9009 C   0  0  0  0  0  0  0  0  0  0  0  0
   -3.9337    1.1302  -21.9934 C   0  0  0  0  0  0  0  0  0  0  0  0
   -5.0273    0.3231  -21.7870 C   0  0  0  0  0  0  0  0  0  0  0  0
   -5.4551    0.0013  -20.4722 C   0  0  0  0  0  0  0  0  0  0  0  0
   -5.5764   -0.0669  -22.6375 H   0  0  0  0  0  0  0  0  0  0  0  0
   -3.6222    1.3714  -23.0050 H   0  0  0  0  0  0  0  0  0  0  0  0
   -2.3531    2.3014  -21.0871 H   0  0  0  0  0  0  0  0  0  0  0  0
   -3.0588    1.7753  -18.7704 H   0  0  0  0  0  0  0  0  0  0  0  0
   -4.6022    0.6274  -17.2158 H   0  0  0  0  0  0  0  0  0  0  0  0
   -7.7291   -1.6599  -18.5848 H   0  0  0  0  0  0  0  0  0  0  0  0
   -8.0412   -2.2452  -20.8442 H   0  0  0  0  0  0  0  0  0  0  0  0
   -6.8026   -1.8992  -22.0402 H   0  0  0  0  0  0  0  0  0  0  0  0
   -9.0622   -0.7717  -23.0888 N   0  0  0  0  0  0  0  0  0  0  0  0
   -9.3677   -2.1606  -23.4048 C   0  0  0  0  0  0  0  0  0  0  0  0
  -10.4466   -2.7813  -22.5526 C   0  0  0  0  0  0  0  0  0  0  0  0
  -11.5706   -2.1757  -22.1598 C   0  0  0  0  0  0  0  0  0  0  0  0
  -12.0205   -0.7910  -22.4190 C   0  0  0  0  0  0  0  0  0  0  0  0
  -11.3800    0.2163  -23.0208 C   0  0  0  0  0  0  0  0  0  0  0  0
  -10.0066    0.1962  -23.6426 C   0  0  0  0  0  0  0  0  0  0  0  0
   -9.5581    1.1919  -23.5958 H   0  0  0  0  0  0  0  0  0  0  0  0
  -10.1140   -0.0404  -24.7080 H   0  0  0  0  0  0  0  0  0  0  0  0
  -11.8926    1.1797  -23.0812 H   0  0  0  0  0  0  0  0  0  0  0  0
  -13.0193   -0.5787  -22.0400 H   0  0  0  0  0  0  0  0  0  0  0  0
  -12.2757   -2.7633  -21.5749 H   0  0  0  0  0  0  0  0  0  0  0  0
  -10.2825   -3.8157  -22.2467 H   0  0  0  0  0  0  0  0  0  0  0  0
   -9.6845   -2.1767  -24.4541 H   0  0  0  0  0  0  0  0  0  0  0  0
   -8.4499   -2.7535  -23.3599 H   0  0  0  0  0  0  0  0  0  0  0  0
  1  2  2  0
  2  3  1  0
  3  4  1  0
  4  5  2  0
  5  6  1  0
  6  7  2  0
  7  8  1  0
  8  9  2  0
  9 10  1  0
 10 11  2  0
 11 12  1  0
 12 13  2  0
 12 14  1  0
 11 15  1  0
 10 16  1  0
  9 17  1  0
  7 18  1  0
  5 19  1  0
  3 20  1  0
  3 21  1  0
  2 22  1  0
 22 23  1  0
 23 24  1  0
 24 25  2  0
 25 26  1  0
 26 27  2  0
 27 28  1  0
 28 29  1  0
 28 30  1  0
 27 31  1  0
 26 32  1  0
 25 33  1  0
 24 34  1  0
 23 35  1  0
 23 36  1  0
 13  4  1  0
 28 22  1  0
 13  8  1  0
M  END
>  <cnnaffinities>  (79) 
[4.6889, 4.6889, 4.82605, 4.82611, 5.02207, 4.80537, 5.02262]

>  <score>  (79) 
4.6889

>  <index>  (79) 
81

>  <Smiles>  (79) 
O=C(C(c1c(nc(c2c(c(c(c(c12)[H])[H])[H])[H])[H])[H])([H])[H])N1C(C(=C(C(=C(C1([H])[H])[H])[H])[H])[H])([H])[H]

>  <h>  (79) 
<NA>

>  <Training>  (79) 
True

>  <Success>  (79) 
True

>  <enamine_searched>  (79) 
False

>  <enamine_id>  (79) 
nan

$$$$

     RDKit          3D

 54 57  0  0  0  0  0  0  0  0999 V2000
  -10.6468    0.3604  -25.3592 C   0  0  0  0  0  0  0  0  0  0  0  0
   -9.7793   -0.6055  -24.8359 O   0  0  0  0  0  0  0  0  0  0  0  0
   -8.4696   -0.5251  -25.1884 C   0  0  0  0  0  0  0  0  0  0  0  0
   -7.9455    0.5012  -25.9762 C   0  0  0  0  0  0  0  0  0  0  0  0
   -6.5788    0.5335  -26.2405 C   0  0  0  0  0  0  0  0  0  0  0  0
   -5.7562   -0.4578  -25.7250 C   0  0  0  0  0  0  0  0  0  0  0  0
   -6.2993   -1.4806  -24.9448 C   0  0  0  0  0  0  0  0  0  0  0  0
   -7.6575   -1.5519  -24.6736 C   0  0  0  0  0  0  0  0  0  0  0  0
   -8.3021   -2.6648  -23.8352 C   0  0  1  0  0  0  0  0  0  0  0  0
   -9.1468   -3.6459  -24.6857 C   0  0  0  0  0  0  0  0  0  0  0  0
   -8.4065   -4.8555  -25.2720 C   0  0  1  0  0  0  0  0  0  0  0  0
   -7.5048   -4.5297  -26.4673 C   0  0  0  0  0  0  0  0  0  0  0  0
   -6.6809   -3.8635  -26.1916 H   0  0  0  0  0  0  0  0  0  0  0  0
   -7.0710   -5.4460  -26.8860 H   0  0  0  0  0  0  0  0  0  0  0  0
   -8.0764   -4.0362  -27.2618 H   0  0  0  0  0  0  0  0  0  0  0  0
   -7.6710   -5.5492  -24.1230 C   0  0  0  0  0  0  0  0  0  0  0  0
   -6.7116   -4.6069  -23.4061 C   0  0  0  0  0  0  0  0  0  0  0  0
   -7.3573   -3.3686  -22.9595 N   0  0  0  0  0  0  0  0  0  0  0  0
   -6.7415   -2.7503  -21.8881 C   0  0  0  0  0  0  0  0  0  0  0  0
   -5.7215   -3.2103  -21.4003 O   0  0  0  0  0  0  0  0  0  0  0  0
   -7.3950   -1.4853  -21.2892 C   0  0  0  0  0  0  0  0  0  0  0  0
   -6.5729   -0.8498  -20.1938 C   0  0  0  0  0  0  0  0  0  0  0  0
   -6.8770   -1.0598  -18.8722 C   0  0  0  0  0  0  0  0  0  0  0  0
   -6.2012   -0.5452  -17.8079 N   0  0  0  0  0  0  0  0  0  0  0  0
   -5.1670    0.2147  -18.0715 C   0  0  0  0  0  0  0  0  0  0  0  0
   -4.7238    0.5215  -19.3879 C   0  0  0  0  0  0  0  0  0  0  0  0
   -3.5988    1.3519  -19.6231 C   0  0  0  0  0  0  0  0  0  0  0  0
   -3.1984    1.6269  -20.9015 C   0  0  0  0  0  0  0  0  0  0  0  0
   -3.9073    1.0862  -21.9983 C   0  0  0  0  0  0  0  0  0  0  0  0
   -5.0020    0.2812  -21.7961 C   0  0  0  0  0  0  0  0  0  0  0  0
   -5.4417   -0.0244  -20.4801 C   0  0  0  0  0  0  0  0  0  0  0  0
   -5.5421   -0.1221  -22.6498 H   0  0  0  0  0  0  0  0  0  0  0  0
   -3.5867    1.3188  -23.0098 H   0  0  0  0  0  0  0  0  0  0  0  0
   -2.3418    2.2677  -21.0823 H   0  0  0  0  0  0  0  0  0  0  0  0
   -3.0745    1.7664  -18.7647 H   0  0  0  0  0  0  0  0  0  0  0  0
   -4.6196    0.6266  -17.2209 H   0  0  0  0  0  0  0  0  0  0  0  0
   -7.7290   -1.6800  -18.5966 H   0  0  0  0  0  0  0  0  0  0  0  0
   -7.6105   -0.7648  -22.0885 H   0  0  0  0  0  0  0  0  0  0  0  0
   -8.3699   -1.7849  -20.8801 H   0  0  0  0  0  0  0  0  0  0  0  0
   -6.3189   -5.0797  -22.5053 H   0  0  0  0  0  0  0  0  0  0  0  0
   -5.8419   -4.3925  -24.0484 H   0  0  0  0  0  0  0  0  0  0  0  0
   -8.4114   -5.9159  -23.4000 H   0  0  0  0  0  0  0  0  0  0  0  0
   -7.1080   -6.4180  -24.4961 H   0  0  0  0  0  0  0  0  0  0  0  0
   -9.1799   -5.5494  -25.6324 H   0  0  0  0  0  0  0  0  0  0  0  0
   -9.6238   -3.0701  -25.4868 H   0  0  0  0  0  0  0  0  0  0  0  0
   -9.9457   -4.0275  -24.0353 H   0  0  0  0  0  0  0  0  0  0  0  0
   -9.0268   -2.1649  -23.1815 H   0  0  0  0  0  0  0  0  0  0  0  0
   -5.6474   -2.2589  -24.5519 H   0  0  0  0  0  0  0  0  0  0  0  0
   -4.6902   -0.4553  -25.9247 H   0  0  0  0  0  0  0  0  0  0  0  0
   -6.1626    1.3398  -26.8427 H   0  0  0  0  0  0  0  0  0  0  0  0
   -8.5883    1.2797  -26.3720 H   0  0  0  0  0  0  0  0  0  0  0  0
  -11.6449    0.0511  -25.0415 H   0  0  0  0  0  0  0  0  0  0  0  0
  -10.5784    0.3912  -26.4558 H   0  0  0  0  0  0  0  0  0  0  0  0
  -10.4212    1.3607  -24.9650 H   0  0  0  0  0  0  0  0  0  0  0  0
  1  2  1  0
  2  3  1  0
  3  4  2  0
  4  5  1  0
  5  6  2  0
  6  7  1  0
  7  8  2  0
  8  9  1  0
  9 10  1  0
 10 11  1  0
 11 12  1  0
 12 13  1  0
 12 14  1  0
 12 15  1  0
 11 16  1  0
 16 17  1  0
 17 18  1  0
 18 19  1  0
 19 20  2  0
 19 21  1  0
 21 22  1  0
 22 23  2  0
 23 24  1  0
 24 25  2  0
 25 26  1  0
 26 27  2  0
 27 28  1  0
 28 29  2  0
 29 30  1  0
 30 31  2  0
 30 32  1  0
 29 33  1  0
 28 34  1  0
 27 35  1  0
 25 36  1  0
 23 37  1  0
 21 38  1  0
 21 39  1  0
 17 40  1  0
 17 41  1  0
 16 42  1  0
 16 43  1  0
 11 44  1  6
 10 45  1  0
 10 46  1  0
  9 47  1  1
  7 48  1  0
  6 49  1  0
  5 50  1  0
  4 51  1  0
  1 52  1  0
  1 53  1  0
  1 54  1  0
  8  3  1  0
 18  9  1  0
 31 22  1  0
 31 26  1  0
M  END
>  <cnnaffinities>  (80) 
[5.34732]

>  <score>  (80) 
5.34732

>  <index>  (80) 
82

>  <Smiles>  (80) 
C(Oc1c(c(c(c(c1[C@]1(C([C@@](C([H])([H])[H])(C(C(N1C(=O)C(c1c(nc(c2c(c(c(c(c12)[H])[H])[H])[H])[H])[H])([H])[H])([H])[H])([H])[H])[H])([H])[H])[H])[H])[H])[H])[H])([H])([H])[H]

>  <h>  (80) 
<NA>

>  <Training>  (80) 
True

>  <Success>  (80) 
True

>  <enamine_searched>  (80) 
False

>  <enamine_id>  (80) 
nan

$$$$

     RDKit          3D

 46 50  0  0  0  0  0  0  0  0999 V2000
   -7.8407    1.1634  -27.0161 N   0  0  0  0  0  0  0  0  0  0  0  0
   -8.3971    1.6246  -25.5108 S   0  0  0  0  0  0  0  0  0  0  0  0
   -7.2007    1.8372  -24.7091 O   0  0  0  0  0  0  0  0  0  0  0  0
   -9.4074    2.6622  -25.6799 O   0  0  0  0  0  0  0  0  0  0  0  0
   -9.1964    0.1541  -24.9565 C   0  0  0  0  0  0  0  0  0  0  0  0
  -10.3067   -0.3099  -25.6507 C   0  0  0  0  0  0  0  0  0  0  0  0
  -10.8870   -1.5160  -25.2906 C   0  0  0  0  0  0  0  0  0  0  0  0
  -10.4001   -2.2171  -24.1827 C   0  0  0  0  0  0  0  0  0  0  0  0
   -9.3163   -1.7192  -23.4465 C   0  0  0  0  0  0  0  0  0  0  0  0
   -8.6982   -0.5506  -23.8769 C   0  0  0  0  0  0  0  0  0  0  0  0
   -7.8319   -0.1815  -23.3464 H   0  0  0  0  0  0  0  0  0  0  0  0
   -8.8602   -2.4230  -22.1781 C   0  0  1  0  0  0  0  0  0  0  0  0
  -10.0564   -3.2280  -21.6493 C   0  0  0  0  0  0  0  0  0  0  0  0
  -10.6276   -4.1143  -22.7416 C   0  0  0  0  0  0  0  0  0  0  0  0
  -11.0497   -3.3694  -23.8773 O   0  0  0  0  0  0  0  0  0  0  0  0
  -11.5322   -4.6215  -22.3970 H   0  0  0  0  0  0  0  0  0  0  0  0
   -9.9052   -4.8794  -23.0599 H   0  0  0  0  0  0  0  0  0  0  0  0
   -9.7457   -3.8343  -20.8006 H   0  0  0  0  0  0  0  0  0  0  0  0
  -10.8306   -2.5247  -21.3310 H   0  0  0  0  0  0  0  0  0  0  0  0
   -7.6795   -3.2615  -22.3556 N   0  0  0  0  0  0  0  0  0  0  0  0
   -6.5843   -2.8697  -21.6208 C   0  0  0  0  0  0  0  0  0  0  0  0
   -5.4833   -3.3653  -21.6037 O   0  0  0  0  0  0  0  0  0  0  0  0
   -7.0248   -1.7629  -20.8550 N   0  0  0  0  0  0  0  0  0  0  0  0
   -6.2914   -1.0037  -19.8969 C   0  0  0  0  0  0  0  0  0  0  0  0
   -6.7175   -1.0158  -18.5931 C   0  0  0  0  0  0  0  0  0  0  0  0
   -6.1042   -0.3645  -17.5791 N   0  0  0  0  0  0  0  0  0  0  0  0
   -5.0660    0.3724  -17.8856 C   0  0  0  0  0  0  0  0  0  0  0  0
   -4.5773    0.5593  -19.2043 C   0  0  0  0  0  0  0  0  0  0  0  0
   -3.5005    1.4459  -19.4656 C   0  0  0  0  0  0  0  0  0  0  0  0
   -3.1430    1.7221  -20.7545 C   0  0  0  0  0  0  0  0  0  0  0  0
   -3.8372    1.1196  -21.8306 C   0  0  0  0  0  0  0  0  0  0  0  0
   -4.8503    0.2193  -21.5953 C   0  0  0  0  0  0  0  0  0  0  0  0
   -5.2333   -0.1064  -20.2645 C   0  0  0  0  0  0  0  0  0  0  0  0
   -5.3765   -0.2320  -22.4335 H   0  0  0  0  0  0  0  0  0  0  0  0
   -3.5698    1.3833  -22.8517 H   0  0  0  0  0  0  0  0  0  0  0  0
   -2.3413    2.4271  -20.9569 H   0  0  0  0  0  0  0  0  0  0  0  0
   -3.0075    1.9144  -18.6162 H   0  0  0  0  0  0  0  0  0  0  0  0
   -4.5821    0.8929  -17.0643 H   0  0  0  0  0  0  0  0  0  0  0  0
   -7.6130   -1.5689  -18.3223 H   0  0  0  0  0  0  0  0  0  0  0  0
   -8.3375   -1.4166  -21.1525 C   0  0  0  0  0  0  0  0  0  0  0  0
   -8.8867   -0.4253  -20.7309 O   0  0  0  0  0  0  0  0  0  0  0  0
   -7.5667   -3.8484  -23.1691 H   0  0  0  0  0  0  0  0  0  0  0  0
  -11.7340   -1.9407  -25.8251 H   0  0  0  0  0  0  0  0  0  0  0  0
  -10.6989    0.3053  -26.4515 H   0  0  0  0  0  0  0  0  0  0  0  0
   -6.8987    1.5252  -27.1382 H   0  0  0  0  0  0  0  0  0  0  0  0
   -8.4761    1.4456  -27.7617 H   0  0  0  0  0  0  0  0  0  0  0  0
  1  2  1  0
  2  3  2  0
  2  4  2  0
  2  5  1  0
  5  6  2  0
  6  7  1  0
  7  8  2  0
  8  9  1  0
  9 10  2  0
 10 11  1  0
  9 12  1  0
 12 13  1  0
 13 14  1  0
 14 15  1  0
 14 16  1  0
 14 17  1  0
 13 18  1  0
 13 19  1  0
 12 20  1  6
 20 21  1  0
 21 22  2  0
 21 23  1  0
 23 24  1  0
 24 25  2  0
 25 26  1  0
 26 27  2  0
 27 28  1  0
 28 29  2  0
 29 30  1  0
 30 31  2  0
 31 32  1  0
 32 33  2  0
 32 34  1  0
 31 35  1  0
 30 36  1  0
 29 37  1  0
 27 38  1  0
 25 39  1  0
 23 40  1  0
 40 41  2  0
 20 42  1  0
  7 43  1  0
  6 44  1  0
  1 45  1  0
  1 46  1  0
 10  5  1  0
 40 12  1  0
 15  8  1  0
 33 24  1  0
 33 28  1  0
M  END
>  <cnnaffinities>  (81) 
[5.13996, 5.12929, 5.01248, 5.4969, 5.49106]

>  <score>  (81) 
5.13996

>  <index>  (81) 
83

>  <Smiles>  (81) 
N(S(=O)(=O)c1c(c(c2c(c1[H])[C@@]1(C(C(O2)([H])[H])([H])[H])N(C(=O)N(c2c(nc(c3c(c(c(c(c23)[H])[H])[H])[H])[H])[H])C1=O)[H])[H])[H])([H])[H]

>  <h>  (81) 
<NA>

>  <Training>  (81) 
True

>  <Success>  (81) 
True

>  <enamine_searched>  (81) 
False

>  <enamine_id>  (81) 
nan

$$$$

     RDKit          3D

 63 68  0  0  0  0  0  0  0  0999 V2000
  -10.1699   -2.9774  -22.1267 C   0  0  0  0  0  0  0  0  0  0  0  0
   -9.0845   -2.0430  -22.6792 C   0  0  1  0  0  0  0  0  0  0  0  0
   -8.6362   -1.0272  -21.6086 C   0  0  0  0  0  0  0  0  0  0  0  0
   -7.3389   -1.5003  -21.1876 N   0  0  0  0  0  0  0  0  0  0  0  0
   -6.5783   -0.8720  -20.1772 C   0  0  0  0  0  0  0  0  0  0  0  0
   -6.9331   -1.0478  -18.8666 C   0  0  0  0  0  0  0  0  0  0  0  0
   -6.2652   -0.5202  -17.8133 N   0  0  0  0  0  0  0  0  0  0  0  0
   -5.2171    0.2206  -18.0857 C   0  0  0  0  0  0  0  0  0  0  0  0
   -4.7610    0.5079  -19.4039 C   0  0  0  0  0  0  0  0  0  0  0  0
   -3.6343    1.3397  -19.6277 C   0  0  0  0  0  0  0  0  0  0  0  0
   -3.2410    1.6447  -20.8998 C   0  0  0  0  0  0  0  0  0  0  0  0
   -3.9561    1.1300  -22.0083 C   0  0  0  0  0  0  0  0  0  0  0  0
   -5.0414    0.3078  -21.8241 C   0  0  0  0  0  0  0  0  0  0  0  0
   -5.4639   -0.0356  -20.5029 C   0  0  0  0  0  0  0  0  0  0  0  0
   -5.5809   -0.0772  -22.6924 H   0  0  0  0  0  0  0  0  0  0  0  0
   -3.6390    1.3963  -23.0123 H   0  0  0  0  0  0  0  0  0  0  0  0
   -2.3868    2.2945  -21.0688 H   0  0  0  0  0  0  0  0  0  0  0  0
   -3.1126    1.7384  -18.7609 H   0  0  0  0  0  0  0  0  0  0  0  0
   -4.6683    0.6391  -17.2412 H   0  0  0  0  0  0  0  0  0  0  0  0
   -7.7962   -1.6677  -18.6256 H   0  0  0  0  0  0  0  0  0  0  0  0
   -6.8082   -2.5025  -21.9605 C   0  0  0  0  0  0  0  0  0  0  0  0
   -5.7568   -3.0626  -21.7239 O   0  0  0  0  0  0  0  0  0  0  0  0
   -7.7726   -2.7511  -23.1405 C   0  0  1  0  0  0  0  0  0  0  0  0
   -7.9305   -4.2722  -23.3471 C   0  0  0  0  0  0  0  0  0  0  0  0
   -6.6758   -4.8383  -23.8367 N   0  0  0  0  0  0  0  0  0  0  0  0
   -6.2709   -6.1514  -23.3481 C   0  0  0  0  0  0  0  0  0  0  0  0
   -7.0741   -7.2334  -24.0915 C   0  0  0  0  0  0  0  0  0  0  0  0
   -7.9698   -7.8769  -23.5817 O   0  0  0  0  0  0  0  0  0  0  0  0
   -6.6917   -7.3394  -25.3922 N   0  0  0  0  0  0  0  0  0  0  0  0
   -7.6133   -7.8224  -26.3797 C   0  0  0  0  0  0  0  0  0  0  0  0
   -8.5667   -6.7886  -26.8977 C   0  0  0  0  0  0  0  0  0  0  0  0
   -9.4397   -6.3315  -25.9378 F   0  0  0  0  0  0  0  0  0  0  0  0
   -8.1636   -5.7977  -27.9290 C   0  0  0  0  0  0  0  0  0  0  0  0
   -9.0804   -6.9539  -28.2815 C   0  0  0  0  0  0  0  0  0  0  0  0
  -10.1168   -6.7047  -28.4685 H   0  0  0  0  0  0  0  0  0  0  0  0
   -8.6770   -7.7747  -28.8663 H   0  0  0  0  0  0  0  0  0  0  0  0
   -8.6672   -4.8407  -27.8772 H   0  0  0  0  0  0  0  0  0  0  0  0
   -7.1334   -5.7758  -28.2739 H   0  0  0  0  0  0  0  0  0  0  0  0
   -7.0295   -8.1792  -27.2277 H   0  0  0  0  0  0  0  0  0  0  0  0
   -8.1832   -8.6447  -25.9522 H   0  0  0  0  0  0  0  0  0  0  0  0
   -6.0152   -6.6457  -25.7083 H   0  0  0  0  0  0  0  0  0  0  0  0
   -5.1913   -6.2687  -23.5059 H   0  0  0  0  0  0  0  0  0  0  0  0
   -6.4774   -6.2084  -22.2766 H   0  0  0  0  0  0  0  0  0  0  0  0
   -6.0869   -4.3367  -24.9568 C   0  0  0  0  0  0  0  0  0  0  0  0
   -5.2853   -4.9903  -25.6324 O   0  0  0  0  0  0  0  0  0  0  0  0
   -6.4374   -2.9340  -25.3091 C   0  0  0  0  0  0  0  0  0  0  0  0
   -5.9413   -2.4156  -26.5061 C   0  0  0  0  0  0  0  0  0  0  0  0
   -6.1553   -1.0954  -26.8351 C   0  0  0  0  0  0  0  0  0  0  0  0
   -6.8676   -0.3079  -25.9409 C   0  0  0  0  0  0  0  0  0  0  0  0
   -7.0749    0.9831  -26.2544 F   0  0  0  0  0  0  0  0  0  0  0  0
   -7.3805   -0.8041  -24.7570 C   0  0  0  0  0  0  0  0  0  0  0  0
   -7.2002   -2.1534  -24.4302 C   0  0  0  0  0  0  0  0  0  0  0  0
   -7.9354   -0.1201  -24.1256 H   0  0  0  0  0  0  0  0  0  0  0  0
   -5.7732   -0.6707  -27.7534 H   0  0  0  0  0  0  0  0  0  0  0  0
   -5.3834   -3.0786  -27.1603 H   0  0  0  0  0  0  0  0  0  0  0  0
   -8.7537   -4.4688  -24.0571 H   0  0  0  0  0  0  0  0  0  0  0  0
   -8.1673   -4.7680  -22.4029 H   0  0  0  0  0  0  0  0  0  0  0  0
   -8.5788   -0.0016  -21.9978 H   0  0  0  0  0  0  0  0  0  0  0  0
   -9.3254   -1.0041  -20.7646 H   0  0  0  0  0  0  0  0  0  0  0  0
   -9.5270   -1.5248  -23.5370 H   0  0  0  0  0  0  0  0  0  0  0  0
  -11.0380   -2.3935  -21.8048 H   0  0  0  0  0  0  0  0  0  0  0  0
  -10.5153   -3.6819  -22.8897 H   0  0  0  0  0  0  0  0  0  0  0  0
   -9.8138   -3.5533  -21.2650 H   0  0  0  0  0  0  0  0  0  0  0  0
  1  2  1  0
  2  3  1  0
  3  4  1  0
  4  5  1  0
  5  6  2  0
  6  7  1  0
  7  8  2  0
  8  9  1  0
  9 10  2  0
 10 11  1  0
 11 12  2  0
 12 13  1  0
 13 14  2  0
 13 15  1  0
 12 16  1  0
 11 17  1  0
 10 18  1  0
  8 19  1  0
  6 20  1  0
  4 21  1  0
 21 22  2  0
 21 23  1  0
 23 24  1  6
 24 25  1  0
 25 26  1  0
 26 27  1  0
 27 28  2  0
 27 29  1  0
 29 30  1  0
 30 31  1  0
 31 32  1  0
 31 33  1  0
 33 34  1  0
 34 35  1  0
 34 36  1  0
 33 37  1  0
 33 38  1  0
 30 39  1  0
 30 40  1  0
 29 41  1  0
 26 42  1  0
 26 43  1  0
 25 44  1  0
 44 45  2  0
 44 46  1  0
 46 47  2  0
 47 48  1  0
 48 49  2  0
 49 50  1  0
 49 51  1  0
 51 52  2  0
 51 53  1  0
 48 54  1  0
 47 55  1  0
 24 56  1  0
 24 57  1  0
  3 58  1  0
  3 59  1  0
  2 60  1  6
  1 61  1  0
  1 62  1  0
  1 63  1  0
 23  2  1  0
 34 31  1  0
 52 46  1  0
 14  5  1  0
 52 23  1  0
 14  9  1  0
M  END
>  <cnnaffinities>  (82) 
[6.07834, 6.82421]

>  <score>  (82) 
6.07834

>  <index>  (82) 
84

>  <Smiles>  (82) 
C([C@]1(C(N(c2c(nc(c3c(c(c(c(c23)[H])[H])[H])[H])[H])[H])C(=O)[C@]21C(N(C(C(=O)N(C(C1(F)C(C1([H])[H])([H])[H])([H])[H])[H])([H])[H])C(=O)c1c(c(c(F)c(c21)[H])[H])[H])([H])[H])([H])[H])[H])([H])([H])[H]

>  <h>  (82) 
<NA>

>  <Training>  (82) 
True

>  <Success>  (82) 
True

>  <enamine_searched>  (82) 
False

>  <enamine_id>  (82) 
nan

$$$$

     RDKit          3D

 57 62  0  0  0  0  0  0  0  0999 V2000
   -9.1964    1.0835  -29.3192 C   0  0  0  0  0  0  0  0  0  0  0  0
   -9.1289    1.3896  -27.9040 N   0  0  0  0  0  0  0  0  0  0  0  0
   -8.2688    0.6847  -27.1234 C   0  0  0  0  0  0  0  0  0  0  0  0
   -7.5366   -0.1925  -27.5565 O   0  0  0  0  0  0  0  0  0  0  0  0
   -8.2862    1.0748  -25.6460 C   0  0  0  0  0  0  0  0  0  0  0  0
   -9.1352    0.1980  -24.8755 N   0  0  0  0  0  0  0  0  0  0  0  0
   -8.6516   -1.1210  -24.5209 C   0  0  0  0  0  0  0  0  0  0  0  0
   -8.9631   -1.4882  -23.0501 C   0  0  2  0  0  0  0  0  0  0  0  0
   -8.1694   -0.5731  -22.0880 C   0  0  0  0  0  0  0  0  0  0  0  0
   -8.1949    0.6354  -22.0696 O   0  0  0  0  0  0  0  0  0  0  0  0
   -7.4152   -1.3541  -21.2310 N   0  0  0  0  0  0  0  0  0  0  0  0
   -6.6064   -0.8118  -20.2021 C   0  0  0  0  0  0  0  0  0  0  0  0
   -6.9072   -1.0661  -18.8863 C   0  0  0  0  0  0  0  0  0  0  0  0
   -6.2252   -0.5636  -17.8286 N   0  0  0  0  0  0  0  0  0  0  0  0
   -5.1937    0.2035  -18.0896 C   0  0  0  0  0  0  0  0  0  0  0  0
   -4.7446    0.5145  -19.4041 C   0  0  0  0  0  0  0  0  0  0  0  0
   -3.6125    1.3438  -19.6233 C   0  0  0  0  0  0  0  0  0  0  0  0
   -3.1860    1.6151  -20.8941 C   0  0  0  0  0  0  0  0  0  0  0  0
   -3.8658    1.0617  -22.0017 C   0  0  0  0  0  0  0  0  0  0  0  0
   -4.9626    0.2579  -21.8156 C   0  0  0  0  0  0  0  0  0  0  0  0
   -5.4507   -0.0170  -20.5048 C   0  0  0  0  0  0  0  0  0  0  0  0
   -5.4757   -0.1594  -22.6758 H   0  0  0  0  0  0  0  0  0  0  0  0
   -3.5226    1.2853  -23.0081 H   0  0  0  0  0  0  0  0  0  0  0  0
   -2.3278    2.2607  -21.0614 H   0  0  0  0  0  0  0  0  0  0  0  0
   -3.1055    1.7620  -18.7583 H   0  0  0  0  0  0  0  0  0  0  0  0
   -4.6483    0.6128  -17.2392 H   0  0  0  0  0  0  0  0  0  0  0  0
   -7.7656   -1.6878  -18.6350 H   0  0  0  0  0  0  0  0  0  0  0  0
   -7.6383   -2.7723  -21.3792 C   0  0  0  0  0  0  0  0  0  0  0  0
   -8.4794   -2.8919  -22.6442 C   0  0  0  0  0  0  0  0  0  0  0  0
   -9.3392   -4.1094  -22.8283 C   0  0  0  0  0  0  0  0  0  0  0  0
   -8.0900   -3.9480  -23.6439 C   0  0  0  0  0  0  0  0  0  0  0  0
   -7.2305   -4.5748  -23.4140 H   0  0  0  0  0  0  0  0  0  0  0  0
   -8.1795   -3.7138  -24.7007 H   0  0  0  0  0  0  0  0  0  0  0  0
   -9.3648   -4.8451  -22.0222 H   0  0  0  0  0  0  0  0  0  0  0  0
  -10.2975   -3.9661  -23.3219 H   0  0  0  0  0  0  0  0  0  0  0  0
   -6.6798   -3.2959  -21.4669 H   0  0  0  0  0  0  0  0  0  0  0  0
   -8.1749   -3.1770  -20.5156 H   0  0  0  0  0  0  0  0  0  0  0  0
  -10.4642   -1.2514  -22.9023 C   0  0  0  0  0  0  0  0  0  0  0  0
  -11.2362   -2.0194  -22.0386 C   0  0  0  0  0  0  0  0  0  0  0  0
  -12.6022   -1.8317  -21.9585 C   0  0  0  0  0  0  0  0  0  0  0  0
  -13.5110   -2.9116  -20.9312 Cl  0  0  0  0  0  0  0  0  0  0  0  0
  -13.2472   -0.7904  -22.6199 C   0  0  0  0  0  0  0  0  0  0  0  0
  -12.4728    0.0310  -23.4145 C   0  0  0  0  0  0  0  0  0  0  0  0
  -11.1213   -0.2267  -23.5976 C   0  0  0  0  0  0  0  0  0  0  0  0
  -10.4010    0.6071  -24.5944 C   0  0  0  0  0  0  0  0  0  0  0  0
  -10.8902    1.6143  -25.1016 O   0  0  0  0  0  0  0  0  0  0  0  0
  -12.8736    0.9023  -23.9150 H   0  0  0  0  0  0  0  0  0  0  0  0
  -14.3043   -0.6144  -22.4595 H   0  0  0  0  0  0  0  0  0  0  0  0
  -10.7708   -2.7520  -21.3921 H   0  0  0  0  0  0  0  0  0  0  0  0
   -7.5769   -1.1495  -24.6985 H   0  0  0  0  0  0  0  0  0  0  0  0
   -9.1323   -1.8613  -25.1702 H   0  0  0  0  0  0  0  0  0  0  0  0
   -8.6683    2.0907  -25.5188 H   0  0  0  0  0  0  0  0  0  0  0  0
   -7.2586    1.0060  -25.2657 H   0  0  0  0  0  0  0  0  0  0  0  0
   -9.8820    1.9024  -27.4636 H   0  0  0  0  0  0  0  0  0  0  0  0
   -9.4784    0.0366  -29.4813 H   0  0  0  0  0  0  0  0  0  0  0  0
   -9.9221    1.7412  -29.8053 H   0  0  0  0  0  0  0  0  0  0  0  0
   -8.2171    1.2351  -29.7812 H   0  0  0  0  0  0  0  0  0  0  0  0
  1  2  1  0
  2  3  1  0
  3  4  2  0
  3  5  1  0
  5  6  1  0
  6  7  1  0
  8  7  1  6
  8  9  1  0
  9 10  2  0
  9 11  1  0
 11 12  1  0
 12 13  2  0
 13 14  1  0
 14 15  2  0
 15 16  1  0
 16 17  2  0
 17 18  1  0
 18 19  2  0
 19 20  1  0
 20 21  2  0
 20 22  1  0
 19 23  1  0
 18 24  1  0
 17 25  1  0
 15 26  1  0
 13 27  1  0
 11 28  1  0
 28 29  1  0
 29 30  1  0
 30 31  1  0
 31 32  1  0
 31 33  1  0
 30 34  1  0
 30 35  1  0
 28 36  1  0
 28 37  1  0
  8 38  1  0
 38 39  2  0
 39 40  1  0
 40 41  1  0
 40 42  2  0
 42 43  1  0
 43 44  2  0
 44 45  1  0
 45 46  2  0
 43 47  1  0
 42 48  1  0
 39 49  1  0
  7 50  1  0
  7 51  1  0
  5 52  1  0
  5 53  1  0
  2 54  1  0
  1 55  1  0
  1 56  1  0
  1 57  1  0
 45  6  1  0
 29  8  1  0
 44 38  1  0
 21 12  1  0
 31 29  1  0
 21 16  1  0
M  END
>  <cnnaffinities>  (83) 
[5.92431]

>  <score>  (83) 
5.92431

>  <index>  (83) 
85

>  <Smiles>  (83) 
C(N(C(=O)C(N1C([C@@]2(C(=O)N(c3c(nc(c4c(c(c(c(c34)[H])[H])[H])[H])[H])[H])C(C32C(C3([H])[H])([H])[H])([H])[H])c2c(c(Cl)c(c(c2C1=O)[H])[H])[H])([H])[H])([H])[H])[H])([H])([H])[H]

>  <h>  (83) 
<NA>

>  <Training>  (83) 
True

>  <Success>  (83) 
True

>  <enamine_searched>  (83) 
False

>  <enamine_id>  (83) 
nan

$$$$

     RDKit          3D

 43 45  0  0  0  0  0  0  0  0999 V2000
  -13.0152   -1.8127  -24.0443 C   0  0  0  0  0  0  0  0  0  0  0  0
  -11.6653   -1.2325  -24.4782 C   0  0  1  0  0  0  0  0  0  0  0  0
  -11.3516    0.1058  -23.8092 C   0  0  0  0  0  0  0  0  0  0  0  0
  -10.8578   -0.0678  -22.3822 C   0  0  0  0  0  0  0  0  0  0  0  0
   -9.6976   -0.9487  -22.3025 N   0  0  0  0  0  0  0  0  0  0  0  0
   -8.5191   -0.4482  -21.7835 C   0  0  0  0  0  0  0  0  0  0  0  0
   -8.3212    0.7498  -21.7022 O   0  0  0  0  0  0  0  0  0  0  0  0
   -7.4549   -1.4403  -21.2558 C   0  0  0  0  0  0  0  0  0  0  0  0
   -6.5781   -0.8325  -20.1809 C   0  0  0  0  0  0  0  0  0  0  0  0
   -6.8752   -1.0410  -18.8602 C   0  0  0  0  0  0  0  0  0  0  0  0
   -6.1952   -0.5333  -17.7978 N   0  0  0  0  0  0  0  0  0  0  0  0
   -5.1580    0.2231  -18.0652 C   0  0  0  0  0  0  0  0  0  0  0  0
   -4.7242    0.5349  -19.3805 C   0  0  0  0  0  0  0  0  0  0  0  0
   -3.5986    1.3659  -19.6194 C   0  0  0  0  0  0  0  0  0  0  0  0
   -3.2096    1.6615  -20.8979 C   0  0  0  0  0  0  0  0  0  0  0  0
   -3.9338    1.1356  -21.9914 C   0  0  0  0  0  0  0  0  0  0  0  0
   -5.0258    0.3283  -21.7859 C   0  0  0  0  0  0  0  0  0  0  0  0
   -5.4539    0.0010  -20.4735 C   0  0  0  0  0  0  0  0  0  0  0  0
   -5.5880   -0.0458  -22.6355 H   0  0  0  0  0  0  0  0  0  0  0  0
   -3.6251    1.3817  -23.0036 H   0  0  0  0  0  0  0  0  0  0  0  0
   -2.3527    2.3058  -21.0825 H   0  0  0  0  0  0  0  0  0  0  0  0
   -3.0598    1.7735  -18.7663 H   0  0  0  0  0  0  0  0  0  0  0  0
   -4.6035    0.6270  -17.2153 H   0  0  0  0  0  0  0  0  0  0  0  0
   -7.7264   -1.6595  -18.5826 H   0  0  0  0  0  0  0  0  0  0  0  0
   -7.9529   -2.3333  -20.8504 H   0  0  0  0  0  0  0  0  0  0  0  0
   -6.8402   -1.7848  -22.0974 H   0  0  0  0  0  0  0  0  0  0  0  0
   -9.8758   -2.2802  -22.8785 C   0  0  1  0  0  0  0  0  0  0  0  0
  -10.6346   -3.2222  -21.9440 C   0  0  0  0  0  0  0  0  0  0  0  0
  -10.7961   -4.1975  -22.4153 H   0  0  0  0  0  0  0  0  0  0  0  0
  -10.0524   -3.3928  -21.0324 H   0  0  0  0  0  0  0  0  0  0  0  0
  -11.6105   -2.8255  -21.6530 H   0  0  0  0  0  0  0  0  0  0  0  0
  -10.4796   -2.1869  -24.2942 C   0  0  0  0  0  0  0  0  0  0  0  0
   -9.6803   -1.8847  -24.9798 H   0  0  0  0  0  0  0  0  0  0  0  0
  -10.7756   -3.1926  -24.6092 H   0  0  0  0  0  0  0  0  0  0  0  0
   -8.8749   -2.6981  -23.0096 H   0  0  0  0  0  0  0  0  0  0  0  0
  -11.6825   -0.4864  -21.7979 H   0  0  0  0  0  0  0  0  0  0  0  0
  -10.5857    0.8916  -21.9441 H   0  0  0  0  0  0  0  0  0  0  0  0
  -12.2463    0.7401  -23.8162 H   0  0  0  0  0  0  0  0  0  0  0  0
  -10.5788    0.6393  -24.3666 H   0  0  0  0  0  0  0  0  0  0  0  0
  -11.7507   -1.0463  -25.5558 H   0  0  0  0  0  0  0  0  0  0  0  0
  -13.1218   -1.8947  -22.9587 H   0  0  0  0  0  0  0  0  0  0  0  0
  -13.8378   -1.1802  -24.3994 H   0  0  0  0  0  0  0  0  0  0  0  0
  -13.1673   -2.8144  -24.4607 H   0  0  0  0  0  0  0  0  0  0  0  0
  1  2  1  0
  2  3  1  0
  3  4  1  0
  4  5  1  0
  5  6  1  0
  6  7  2  0
  6  8  1  0
  8  9  1  0
  9 10  2  0
 10 11  1  0
 11 12  2  0
 12 13  1  0
 13 14  2  0
 14 15  1  0
 15 16  2  0
 16 17  1  0
 17 18  2  0
 17 19  1  0
 16 20  1  0
 15 21  1  0
 14 22  1  0
 12 23  1  0
 10 24  1  0
  8 25  1  0
  8 26  1  0
  5 27  1  0
 27 28  1  0
 28 29  1  0
 28 30  1  0
 28 31  1  0
 27 32  1  0
 32 33  1  0
 32 34  1  0
 27 35  1  6
  4 36  1  0
  4 37  1  0
  3 38  1  0
  3 39  1  0
  2 40  1  6
  1 41  1  0
  1 42  1  0
  1 43  1  0
 32  2  1  0
 18  9  1  0
 18 13  1  0
M  END
>  <cnnaffinities>  (84) 
[5.1553, 4.88108, 4.76402, 4.73998, 4.69878]

>  <score>  (84) 
5.1553

>  <index>  (84) 
86

>  <Smiles>  (84) 
C([C@]1(C(C(N(C(=O)C(c2c(nc(c3c(c(c(c(c23)[H])[H])[H])[H])[H])[H])([H])[H])[C@@](C([H])([H])[H])(C1([H])[H])[H])([H])[H])([H])[H])[H])([H])([H])[H]

>  <h>  (84) 
<NA>

>  <Training>  (84) 
True

>  <Success>  (84) 
True

>  <enamine_searched>  (84) 
False

>  <enamine_id>  (84) 
nan

$$$$

     RDKit          3D

 59 64  0  0  0  0  0  0  0  0999 V2000
   -7.9454   -3.6836  -24.0248 C   0  0  0  0  0  0  0  0  0  0  0  0
   -8.3348   -2.8447  -22.7990 C   0  0  1  0  0  0  0  0  0  0  0  0
   -7.1516   -2.6500  -21.8267 C   0  0  0  0  0  0  0  0  0  0  0  0
   -7.4261   -1.3743  -21.1919 N   0  0  0  0  0  0  0  0  0  0  0  0
   -6.6098   -0.8044  -20.1743 C   0  0  0  0  0  0  0  0  0  0  0  0
   -6.9028   -1.0468  -18.8581 C   0  0  0  0  0  0  0  0  0  0  0  0
   -6.1979   -0.5529  -17.8088 N   0  0  0  0  0  0  0  0  0  0  0  0
   -5.1668    0.2096  -18.0803 C   0  0  0  0  0  0  0  0  0  0  0  0
   -4.7368    0.5320  -19.3990 C   0  0  0  0  0  0  0  0  0  0  0  0
   -3.6057    1.3616  -19.6380 C   0  0  0  0  0  0  0  0  0  0  0  0
   -3.2129    1.6482  -20.9156 C   0  0  0  0  0  0  0  0  0  0  0  0
   -3.9283    1.1147  -22.0119 C   0  0  0  0  0  0  0  0  0  0  0  0
   -5.0242    0.3121  -21.8095 C   0  0  0  0  0  0  0  0  0  0  0  0
   -5.4699    0.0076  -20.4889 C   0  0  0  0  0  0  0  0  0  0  0  0
   -5.5644   -0.0905  -22.6627 H   0  0  0  0  0  0  0  0  0  0  0  0
   -3.6118    1.3554  -23.0238 H   0  0  0  0  0  0  0  0  0  0  0  0
   -2.3582    2.2967  -21.0951 H   0  0  0  0  0  0  0  0  0  0  0  0
   -3.0761    1.7693  -18.7798 H   0  0  0  0  0  0  0  0  0  0  0  0
   -4.6179    0.6148  -17.2283 H   0  0  0  0  0  0  0  0  0  0  0  0
   -7.7501   -1.6755  -18.5923 H   0  0  0  0  0  0  0  0  0  0  0  0
   -8.3538   -0.6084  -21.8597 C   0  0  0  0  0  0  0  0  0  0  0  0
   -8.6503    0.5279  -21.5361 O   0  0  0  0  0  0  0  0  0  0  0  0
   -8.8989   -1.4068  -23.0659 C   0  0  1  0  0  0  0  0  0  0  0  0
   -8.3314   -0.8030  -24.3757 C   0  0  0  0  0  0  0  0  0  0  0  0
   -8.8772    0.5108  -24.6465 N   0  0  0  0  0  0  0  0  0  0  0  0
   -7.9555    1.6183  -24.8520 C   0  0  0  0  0  0  0  0  0  0  0  0
   -6.9980    1.4099  -25.9854 C   0  0  0  0  0  0  0  0  0  0  0  0
   -5.6377    1.1701  -25.9812 C   0  0  0  0  0  0  0  0  0  0  0  0
   -5.3013    0.9749  -27.3347 C   0  0  0  0  0  0  0  0  0  0  0  0
   -6.3667    1.0942  -28.1165 N   0  0  0  0  0  0  0  0  0  0  0  0
   -7.3852    1.3659  -27.2859 N   0  0  0  0  0  0  0  0  0  0  0  0
   -8.7219    1.5344  -27.8170 C   0  0  0  0  0  0  0  0  0  0  0  0
   -9.1876    2.4382  -27.4065 H   0  0  0  0  0  0  0  0  0  0  0  0
   -8.6197    1.6235  -28.9020 H   0  0  0  0  0  0  0  0  0  0  0  0
   -9.3500    0.6696  -27.5720 H   0  0  0  0  0  0  0  0  0  0  0  0
   -4.3436    0.7351  -27.7862 H   0  0  0  0  0  0  0  0  0  0  0  0
   -5.0125    1.1170  -25.0982 H   0  0  0  0  0  0  0  0  0  0  0  0
   -8.5758    2.5080  -24.9967 H   0  0  0  0  0  0  0  0  0  0  0  0
   -7.3657    1.7567  -23.9336 H   0  0  0  0  0  0  0  0  0  0  0  0
  -10.2237    0.7209  -24.6494 C   0  0  0  0  0  0  0  0  0  0  0  0
  -10.7460    1.6886  -25.1958 O   0  0  0  0  0  0  0  0  0  0  0  0
  -11.0339   -0.3024  -23.9107 C   0  0  0  0  0  0  0  0  0  0  0  0
  -12.4244   -0.1860  -23.9555 C   0  0  0  0  0  0  0  0  0  0  0  0
  -13.2186   -0.9970  -23.1705 C   0  0  0  0  0  0  0  0  0  0  0  0
  -12.5931   -1.9025  -22.3221 C   0  0  0  0  0  0  0  0  0  0  0  0
  -13.3545   -2.6546  -21.5098 F   0  0  0  0  0  0  0  0  0  0  0  0
  -11.2211   -2.0508  -22.2701 C   0  0  0  0  0  0  0  0  0  0  0  0
  -10.4143   -1.2825  -23.1176 C   0  0  0  0  0  0  0  0  0  0  0  0
  -10.8130   -2.7392  -21.5387 H   0  0  0  0  0  0  0  0  0  0  0  0
  -14.3004   -0.9240  -23.1667 H   0  0  0  0  0  0  0  0  0  0  0  0
  -12.8487    0.5773  -24.5978 H   0  0  0  0  0  0  0  0  0  0  0  0
   -7.2471   -0.7024  -24.2876 H   0  0  0  0  0  0  0  0  0  0  0  0
   -8.5635   -1.4732  -25.2169 H   0  0  0  0  0  0  0  0  0  0  0  0
   -6.1936   -2.6355  -22.3715 H   0  0  0  0  0  0  0  0  0  0  0  0
   -7.0840   -3.4443  -21.0746 H   0  0  0  0  0  0  0  0  0  0  0  0
   -9.1197   -3.3809  -22.2595 H   0  0  0  0  0  0  0  0  0  0  0  0
   -8.7749   -3.7885  -24.7337 H   0  0  0  0  0  0  0  0  0  0  0  0
   -7.1034   -3.2335  -24.5662 H   0  0  0  0  0  0  0  0  0  0  0  0
   -7.6345   -4.6920  -23.7263 H   0  0  0  0  0  0  0  0  0  0  0  0
  1  2  1  0
  2  3  1  0
  3  4  1  0
  4  5  1  0
  5  6  2  0
  6  7  1  0
  7  8  2  0
  8  9  1  0
  9 10  2  0
 10 11  1  0
 11 12  2  0
 12 13  1  0
 13 14  2  0
 13 15  1  0
 12 16  1  0
 11 17  1  0
 10 18  1  0
  8 19  1  0
  6 20  1  0
  4 21  1  0
 21 22  2  0
 21 23  1  0
 23 24  1  6
 24 25  1  0
 25 26  1  0
 26 27  1  0
 27 28  2  0
 28 29  1  0
 29 30  2  0
 30 31  1  0
 31 32  1  0
 32 33  1  0
 32 34  1  0
 32 35  1  0
 29 36  1  0
 28 37  1  0
 26 38  1  0
 26 39  1  0
 25 40  1  0
 40 41  2  0
 40 42  1  0
 42 43  2  0
 43 44  1  0
 44 45  2  0
 45 46  1  0
 45 47  1  0
 47 48  2  0
 47 49  1  0
 44 50  1  0
 43 51  1  0
 24 52  1  0
 24 53  1  0
  3 54  1  0
  3 55  1  0
  2 56  1  1
  1 57  1  0
  1 58  1  0
  1 59  1  0
 23  2  1  0
 31 27  1  0
 48 42  1  0
 14  5  1  0
 48 23  1  0
 14  9  1  0
M  END
>  <cnnaffinities>  (85) 
[6.4175, 6.64161, 6.80413]

>  <score>  (85) 
6.4175

>  <index>  (85) 
87

>  <Smiles>  (85) 
C([C@]1(C(N(c2c(nc(c3c(c(c(c(c23)[H])[H])[H])[H])[H])[H])C(=O)[C@]21C(N(C(c1c(c(nn1C([H])([H])[H])[H])[H])([H])[H])C(=O)c1c(c(c(F)c(c21)[H])[H])[H])([H])[H])([H])[H])[H])([H])([H])[H]

>  <h>  (85) 
<NA>

>  <Training>  (85) 
True

>  <Success>  (85) 
True

>  <enamine_searched>  (85) 
False

>  <enamine_id>  (85) 
nan

$$$$

     RDKit          3D

 40 42  0  0  0  0  0  0  0  0999 V2000
   -9.1788    0.2255  -21.0740 O   0  0  0  0  0  0  0  0  0  0  0  0
   -8.3769   -0.3107  -21.8061 C   0  0  0  0  0  0  0  0  0  0  0  0
   -7.4440   -1.4101  -21.2727 C   0  0  0  0  0  0  0  0  0  0  0  0
   -6.5707   -0.8347  -20.1749 C   0  0  0  0  0  0  0  0  0  0  0  0
   -6.8770   -1.0405  -18.8552 C   0  0  0  0  0  0  0  0  0  0  0  0
   -6.1928   -0.5339  -17.7938 N   0  0  0  0  0  0  0  0  0  0  0  0
   -5.1570    0.2232  -18.0645 C   0  0  0  0  0  0  0  0  0  0  0  0
   -4.7231    0.5348  -19.3805 C   0  0  0  0  0  0  0  0  0  0  0  0
   -3.6022    1.3689  -19.6235 C   0  0  0  0  0  0  0  0  0  0  0  0
   -3.2130    1.6627  -20.9017 C   0  0  0  0  0  0  0  0  0  0  0  0
   -3.9317    1.1294  -21.9954 C   0  0  0  0  0  0  0  0  0  0  0  0
   -5.0192    0.3169  -21.7862 C   0  0  0  0  0  0  0  0  0  0  0  0
   -5.4498   -0.0024  -20.4718 C   0  0  0  0  0  0  0  0  0  0  0  0
   -5.5535   -0.0862  -22.6398 H   0  0  0  0  0  0  0  0  0  0  0  0
   -3.6160    1.3670  -23.0080 H   0  0  0  0  0  0  0  0  0  0  0  0
   -2.3586    2.3105  -21.0843 H   0  0  0  0  0  0  0  0  0  0  0  0
   -3.0666    1.7802  -18.7708 H   0  0  0  0  0  0  0  0  0  0  0  0
   -4.6033    0.6280  -17.2150 H   0  0  0  0  0  0  0  0  0  0  0  0
   -7.7287   -1.6607  -18.5804 H   0  0  0  0  0  0  0  0  0  0  0  0
   -6.8356   -1.8455  -22.0751 H   0  0  0  0  0  0  0  0  0  0  0  0
   -8.0693   -2.2026  -20.8448 H   0  0  0  0  0  0  0  0  0  0  0  0
   -8.1729    0.0968  -23.1295 N   0  0  0  0  0  0  0  0  0  0  0  0
   -8.2698   -0.8156  -24.2629 C   0  0  0  0  0  0  0  0  0  0  0  0
   -7.2922   -0.4221  -25.3617 C   0  0  0  0  0  0  0  0  0  0  0  0
   -7.4916    1.0401  -25.7572 C   0  0  0  0  0  0  0  0  0  0  0  0
   -6.5118    1.4796  -26.8287 C   0  0  0  0  0  0  0  0  0  0  0  0
   -6.6495    0.7118  -27.9502 F   0  0  0  0  0  0  0  0  0  0  0  0
   -5.2276    1.3153  -26.3879 F   0  0  0  0  0  0  0  0  0  0  0  0
   -6.6291    2.5315  -27.1286 H   0  0  0  0  0  0  0  0  0  0  0  0
   -7.4046    1.9416  -24.5287 C   0  0  0  0  0  0  0  0  0  0  0  0
   -8.3898    1.5013  -23.4513 C   0  0  0  0  0  0  0  0  0  0  0  0
   -9.4205    1.7032  -23.7803 H   0  0  0  0  0  0  0  0  0  0  0  0
   -8.2400    2.0748  -22.5379 H   0  0  0  0  0  0  0  0  0  0  0  0
   -7.5943    2.9813  -24.8129 H   0  0  0  0  0  0  0  0  0  0  0  0
   -6.3850    1.9147  -24.1269 H   0  0  0  0  0  0  0  0  0  0  0  0
   -8.4833    1.1498  -26.2145 H   0  0  0  0  0  0  0  0  0  0  0  0
   -6.2701   -0.5635  -24.9982 H   0  0  0  0  0  0  0  0  0  0  0  0
   -7.4154   -1.0718  -26.2341 H   0  0  0  0  0  0  0  0  0  0  0  0
   -9.2899   -0.8241  -24.6859 H   0  0  0  0  0  0  0  0  0  0  0  0
   -8.0776   -1.8272  -23.9103 H   0  0  0  0  0  0  0  0  0  0  0  0
  1  2  2  0
  2  3  1  0
  3  4  1  0
  4  5  2  0
  5  6  1  0
  6  7  2  0
  7  8  1  0
  8  9  2  0
  9 10  1  0
 10 11  2  0
 11 12  1  0
 12 13  2  0
 12 14  1  0
 11 15  1  0
 10 16  1  0
  9 17  1  0
  7 18  1  0
  5 19  1  0
  3 20  1  0
  3 21  1  0
  2 22  1  0
 22 23  1  0
 23 24  1  0
 24 25  1  0
 25 26  1  0
 26 27  1  0
 26 28  1  0
 26 29  1  0
 25 30  1  0
 30 31  1  0
 31 32  1  0
 31 33  1  0
 30 34  1  0
 30 35  1  0
 25 36  1  0
 24 37  1  0
 24 38  1  0
 23 39  1  0
 23 40  1  0
 13  4  1  0
 31 22  1  0
 13  8  1  0
M  END
>  <cnnaffinities>  (86) 
[4.78091, 4.80043, 4.79977, 4.38793, 4.38794, 4.66251, 4.66255, 4.72925, 4.7292, 4.42103, 4.42134, 4.75121, 4.33351, 4.33349, 4.82482, 4.82479, 4.6703, 4.86387, 4.68235, 4.6988, 4.69877]

>  <score>  (86) 
4.78091

>  <index>  (86) 
88

>  <Smiles>  (86) 
O=C(C(c1c(nc(c2c(c(c(c(c12)[H])[H])[H])[H])[H])[H])([H])[H])N1C(C(C(C(F)(F)[H])(C(C1([H])[H])([H])[H])[H])([H])[H])([H])[H]

>  <h>  (86) 
<NA>

>  <Training>  (86) 
True

>  <Success>  (86) 
True

>  <enamine_searched>  (86) 
False

>  <enamine_id>  (86) 
nan

$$$$

     RDKit          3D

 43 45  0  0  0  0  0  0  0  0999 V2000
   -6.6985    0.2996  -26.9331 C   0  0  0  0  0  0  0  0  0  0  0  0
   -8.0233    0.5102  -26.1875 C   0  0  0  0  0  0  0  0  0  0  0  0
   -9.0574    1.0567  -27.1809 C   0  0  0  0  0  0  0  0  0  0  0  0
  -10.0111    1.2815  -26.6896 H   0  0  0  0  0  0  0  0  0  0  0  0
   -8.7031    1.9829  -27.6485 H   0  0  0  0  0  0  0  0  0  0  0  0
   -9.2573    0.3401  -27.9859 H   0  0  0  0  0  0  0  0  0  0  0  0
   -7.8073    1.5157  -25.0350 C   0  0  0  0  0  0  0  0  0  0  0  0
   -8.6334    1.1985  -23.7903 C   0  0  0  0  0  0  0  0  0  0  0  0
   -8.2713   -0.1195  -23.2690 N   0  0  0  0  0  0  0  0  0  0  0  0
   -8.3349   -0.3286  -21.9063 C   0  0  0  0  0  0  0  0  0  0  0  0
   -9.0500    0.3423  -21.1840 O   0  0  0  0  0  0  0  0  0  0  0  0
   -7.4285   -1.4117  -21.2832 C   0  0  0  0  0  0  0  0  0  0  0  0
   -6.5708   -0.8313  -20.1763 C   0  0  0  0  0  0  0  0  0  0  0  0
   -6.8779   -1.0395  -18.8568 C   0  0  0  0  0  0  0  0  0  0  0  0
   -6.1932   -0.5340  -17.7932 N   0  0  0  0  0  0  0  0  0  0  0  0
   -5.1570    0.2225  -18.0625 C   0  0  0  0  0  0  0  0  0  0  0  0
   -4.7202    0.5339  -19.3784 C   0  0  0  0  0  0  0  0  0  0  0  0
   -3.5987    1.3683  -19.6208 C   0  0  0  0  0  0  0  0  0  0  0  0
   -3.2094    1.6603  -20.8996 C   0  0  0  0  0  0  0  0  0  0  0  0
   -3.9285    1.1271  -21.9933 C   0  0  0  0  0  0  0  0  0  0  0  0
   -5.0161    0.3156  -21.7864 C   0  0  0  0  0  0  0  0  0  0  0  0
   -5.4446   -0.0045  -20.4702 C   0  0  0  0  0  0  0  0  0  0  0  0
   -5.5568   -0.0797  -22.6425 H   0  0  0  0  0  0  0  0  0  0  0  0
   -3.6140    1.3659  -23.0047 H   0  0  0  0  0  0  0  0  0  0  0  0
   -2.3540    2.3051  -21.0858 H   0  0  0  0  0  0  0  0  0  0  0  0
   -3.0610    1.7795  -18.7694 H   0  0  0  0  0  0  0  0  0  0  0  0
   -4.6015    0.6289  -17.2144 H   0  0  0  0  0  0  0  0  0  0  0  0
   -7.7304   -1.6609  -18.5851 H   0  0  0  0  0  0  0  0  0  0  0  0
   -8.0914   -2.1683  -20.8454 H   0  0  0  0  0  0  0  0  0  0  0  0
   -6.8072   -1.9200  -22.0300 H   0  0  0  0  0  0  0  0  0  0  0  0
   -7.9668   -1.1681  -24.2367 C   0  0  0  0  0  0  0  0  0  0  0  0
   -8.5344   -0.8268  -25.6163 C   0  0  0  0  0  0  0  0  0  0  0  0
   -9.6293   -0.8195  -25.5577 H   0  0  0  0  0  0  0  0  0  0  0  0
   -8.2886   -1.6331  -26.3128 H   0  0  0  0  0  0  0  0  0  0  0  0
   -6.8836   -1.3437  -24.3081 H   0  0  0  0  0  0  0  0  0  0  0  0
   -8.4147   -2.1044  -23.8928 H   0  0  0  0  0  0  0  0  0  0  0  0
   -9.7069    1.2608  -24.0103 H   0  0  0  0  0  0  0  0  0  0  0  0
   -8.4390    1.9328  -23.0090 H   0  0  0  0  0  0  0  0  0  0  0  0
   -6.7507    1.5344  -24.7420 H   0  0  0  0  0  0  0  0  0  0  0  0
   -8.0314    2.5286  -25.3846 H   0  0  0  0  0  0  0  0  0  0  0  0
   -5.9333   -0.1391  -26.2830 H   0  0  0  0  0  0  0  0  0  0  0  0
   -6.8286   -0.3720  -27.7897 H   0  0  0  0  0  0  0  0  0  0  0  0
   -6.3046    1.2484  -27.3165 H   0  0  0  0  0  0  0  0  0  0  0  0
  1  2  1  0
  2  3  1  0
  3  4  1  0
  3  5  1  0
  3  6  1  0
  2  7  1  0
  7  8  1  0
  8  9  1  0
  9 10  1  0
 10 11  2  0
 10 12  1  0
 12 13  1  0
 13 14  2  0
 14 15  1  0
 15 16  2  0
 16 17  1  0
 17 18  2  0
 18 19  1  0
 19 20  2  0
 20 21  1  0
 21 22  2  0
 21 23  1  0
 20 24  1  0
 19 25  1  0
 18 26  1  0
 16 27  1  0
 14 28  1  0
 12 29  1  0
 12 30  1  0
  9 31  1  0
 31 32  1  0
 32 33  1  0
 32 34  1  0
 31 35  1  0
 31 36  1  0
  8 37  1  0
  8 38  1  0
  7 39  1  0
  7 40  1  0
  1 41  1  0
  1 42  1  0
  1 43  1  0
 32  2  1  0
 22 13  1  0
 22 17  1  0
M  END
>  <cnnaffinities>  (87) 
[4.43637, 4.43636, 4.43638, 4.88488, 4.88488, 4.88482, 4.88484, 4.83154, 4.83154, 4.83159]

>  <score>  (87) 
4.43637

>  <index>  (87) 
89

>  <Smiles>  (87) 
C(C1(C([H])([H])[H])C(C(N(C(=O)C(c2c(nc(c3c(c(c(c(c23)[H])[H])[H])[H])[H])[H])([H])[H])C(C1([H])[H])([H])[H])([H])[H])([H])[H])([H])([H])[H]

>  <h>  (87) 
<NA>

>  <Training>  (87) 
True

>  <Success>  (87) 
True

>  <enamine_searched>  (87) 
False

>  <enamine_id>  (87) 
nan

$$$$

     RDKit          3D

 64 68  0  0  0  0  0  0  0  0999 V2000
   -7.4707    3.3255  -21.8483 C   0  0  0  0  0  0  0  0  0  0  0  0
   -8.5163    2.8477  -22.7404 N   0  0  0  0  0  0  0  0  0  0  0  0
   -8.0963    2.1022  -23.8067 C   0  0  0  0  0  0  0  0  0  0  0  0
   -6.9118    1.8926  -24.0258 O   0  0  0  0  0  0  0  0  0  0  0  0
   -9.1588    1.5145  -24.7316 C   0  0  0  0  0  0  0  0  0  0  0  0
   -9.7305    0.3265  -24.1370 N   0  0  0  0  0  0  0  0  0  0  0  0
   -8.9167   -0.8710  -24.0595 C   0  0  0  0  0  0  0  0  0  0  0  0
   -9.1643   -1.6481  -22.7496 C   0  0  2  0  0  0  0  0  0  0  0  0
   -8.6146   -0.8514  -21.5449 C   0  0  0  0  0  0  0  0  0  0  0  0
   -9.1240    0.1080  -21.0001 O   0  0  0  0  0  0  0  0  0  0  0  0
   -7.4031   -1.3980  -21.1877 N   0  0  0  0  0  0  0  0  0  0  0  0
   -6.6116   -0.8195  -20.1670 C   0  0  0  0  0  0  0  0  0  0  0  0
   -6.9311   -1.0415  -18.8514 C   0  0  0  0  0  0  0  0  0  0  0  0
   -6.2331   -0.5480  -17.7999 N   0  0  0  0  0  0  0  0  0  0  0  0
   -5.1914    0.2022  -18.0728 C   0  0  0  0  0  0  0  0  0  0  0  0
   -4.7539    0.5194  -19.3905 C   0  0  0  0  0  0  0  0  0  0  0  0
   -3.6313    1.3557  -19.6295 C   0  0  0  0  0  0  0  0  0  0  0  0
   -3.2450    1.6534  -20.9072 C   0  0  0  0  0  0  0  0  0  0  0  0
   -3.9647    1.1372  -22.0070 C   0  0  0  0  0  0  0  0  0  0  0  0
   -5.0631    0.3335  -21.8055 C   0  0  0  0  0  0  0  0  0  0  0  0
   -5.4806   -0.0049  -20.4871 C   0  0  0  0  0  0  0  0  0  0  0  0
   -5.6295   -0.0122  -22.6663 H   0  0  0  0  0  0  0  0  0  0  0  0
   -3.6539    1.3832  -23.0181 H   0  0  0  0  0  0  0  0  0  0  0  0
   -2.3889    2.2967  -21.0844 H   0  0  0  0  0  0  0  0  0  0  0  0
   -3.1019    1.7585  -18.7705 H   0  0  0  0  0  0  0  0  0  0  0  0
   -4.6284    0.6025  -17.2285 H   0  0  0  0  0  0  0  0  0  0  0  0
   -7.7939   -1.6572  -18.6098 H   0  0  0  0  0  0  0  0  0  0  0  0
   -7.0016   -2.5485  -21.9669 C   0  0  0  0  0  0  0  0  0  0  0  0
   -8.2952   -2.9390  -22.7159 C   0  0  2  0  0  0  0  0  0  0  0  0
   -8.0297   -3.6228  -24.0635 C   0  0  0  0  0  0  0  0  0  0  0  0
   -7.1612   -5.1607  -23.7808 S   0  0  0  0  0  0  0  0  0  0  0  0
   -5.7394   -4.9064  -23.5900 O   0  0  0  0  0  0  0  0  0  0  0  0
   -7.8851   -5.8826  -22.7379 O   0  0  0  0  0  0  0  0  0  0  0  0
   -7.2452   -5.9223  -25.2631 N   0  0  0  0  0  0  0  0  0  0  0  0
   -8.5057   -6.4035  -25.8258 C   0  0  0  0  0  0  0  0  0  0  0  0
   -9.1116   -5.5632  -26.1753 H   0  0  0  0  0  0  0  0  0  0  0  0
   -8.2612   -6.9896  -26.7171 H   0  0  0  0  0  0  0  0  0  0  0  0
   -9.0958   -7.0266  -25.1423 H   0  0  0  0  0  0  0  0  0  0  0  0
   -6.5208   -6.6313  -25.2481 H   0  0  0  0  0  0  0  0  0  0  0  0
   -7.4008   -3.0249  -24.7266 H   0  0  0  0  0  0  0  0  0  0  0  0
   -8.9668   -3.8380  -24.5917 H   0  0  0  0  0  0  0  0  0  0  0  0
   -8.8113   -3.6877  -22.1139 H   0  0  0  0  0  0  0  0  0  0  0  0
   -6.6515   -3.3478  -21.3090 H   0  0  0  0  0  0  0  0  0  0  0  0
   -6.1725   -2.2982  -22.6477 H   0  0  0  0  0  0  0  0  0  0  0  0
  -10.6645   -1.8317  -22.6126 C   0  0  0  0  0  0  0  0  0  0  0  0
  -11.2039   -2.8433  -21.8163 C   0  0  0  0  0  0  0  0  0  0  0  0
  -12.5712   -2.9046  -21.6308 C   0  0  0  0  0  0  0  0  0  0  0  0
  -13.0662   -3.8537  -20.8231 F   0  0  0  0  0  0  0  0  0  0  0  0
  -13.4659   -2.0239  -22.2252 C   0  0  0  0  0  0  0  0  0  0  0  0
  -12.9371   -1.0222  -23.0061 C   0  0  0  0  0  0  0  0  0  0  0  0
  -11.5601   -0.9073  -23.1723 C   0  0  0  0  0  0  0  0  0  0  0  0
  -11.0784    0.2863  -23.9265 C   0  0  0  0  0  0  0  0  0  0  0  0
  -11.8321    1.1697  -24.3072 O   0  0  0  0  0  0  0  0  0  0  0  0
  -13.5585   -0.2828  -23.4940 H   0  0  0  0  0  0  0  0  0  0  0  0
  -14.5317   -2.1221  -22.0527 H   0  0  0  0  0  0  0  0  0  0  0  0
  -10.5824   -3.5779  -21.3170 H   0  0  0  0  0  0  0  0  0  0  0  0
   -7.8636   -0.5831  -24.1401 H   0  0  0  0  0  0  0  0  0  0  0  0
   -9.1580   -1.5359  -24.8983 H   0  0  0  0  0  0  0  0  0  0  0  0
   -9.9925    2.1943  -24.9364 H   0  0  0  0  0  0  0  0  0  0  0  0
   -8.6562    1.2522  -25.6727 H   0  0  0  0  0  0  0  0  0  0  0  0
   -9.4322    2.6865  -22.3400 H   0  0  0  0  0  0  0  0  0  0  0  0
   -6.8147    4.0120  -22.3923 H   0  0  0  0  0  0  0  0  0  0  0  0
   -6.8821    2.4693  -21.4846 H   0  0  0  0  0  0  0  0  0  0  0  0
   -7.9090    3.8848  -21.0184 H   0  0  0  0  0  0  0  0  0  0  0  0
  1  2  1  0
  2  3  1  0
  3  4  2  0
  3  5  1  0
  5  6  1  0
  6  7  1  0
  8  7  1  6
  8  9  1  0
  9 10  2  0
  9 11  1  0
 11 12  1  0
 12 13  2  0
 13 14  1  0
 14 15  2  0
 15 16  1  0
 16 17  2  0
 17 18  1  0
 18 19  2  0
 19 20  1  0
 20 21  2  0
 20 22  1  0
 19 23  1  0
 18 24  1  0
 17 25  1  0
 15 26  1  0
 13 27  1  0
 11 28  1  0
 28 29  1  0
 29 30  1  0
 30 31  1  0
 31 32  2  0
 31 33  2  0
 31 34  1  0
 34 35  1  0
 35 36  1  0
 35 37  1  0
 35 38  1  0
 34 39  1  0
 30 40  1  0
 30 41  1  0
 29 42  1  1
 28 43  1  0
 28 44  1  0
  8 45  1  0
 45 46  2  0
 46 47  1  0
 47 48  1  0
 47 49  2  0
 49 50  1  0
 50 51  2  0
 51 52  1  0
 52 53  2  0
 50 54  1  0
 49 55  1  0
 46 56  1  0
  7 57  1  0
  7 58  1  0
  5 59  1  0
  5 60  1  0
  2 61  1  0
  1 62  1  0
  1 63  1  0
  1 64  1  0
 52  6  1  0
 29  8  1  0
 51 45  1  0
 21 12  1  0
 21 16  1  0
M  END
>  <cnnaffinities>  (88) 
[6.60047, 6.84827]

>  <score>  (88) 
6.60047

>  <index>  (88) 
90

>  <Smiles>  (88) 
C(N(C(=O)C(N1C([C@@]2(C(=O)N(c3c(nc(c4c(c(c(c(c34)[H])[H])[H])[H])[H])[H])C([C@@]2(C(S(=O)(=O)N(C([H])([H])[H])[H])([H])[H])[H])([H])[H])c2c(c(F)c(c(c2C1=O)[H])[H])[H])([H])[H])([H])[H])[H])([H])([H])[H]

>  <h>  (88) 
<NA>

>  <Training>  (88) 
True

>  <Success>  (88) 
True

>  <enamine_searched>  (88) 
False

>  <enamine_id>  (88) 
nan

$$$$

     RDKit          3D

 66 71  0  0  0  0  0  0  0  0999 V2000
   -7.5162    3.3110  -21.8941 C   0  0  0  0  0  0  0  0  0  0  0  0
   -8.6322    2.8146  -22.6857 N   0  0  0  0  0  0  0  0  0  0  0  0
   -8.3131    2.0178  -23.7443 C   0  0  0  0  0  0  0  0  0  0  0  0
   -7.1541    1.7367  -23.9999 O   0  0  0  0  0  0  0  0  0  0  0  0
   -9.4397    1.4525  -24.6014 C   0  0  0  0  0  0  0  0  0  0  0  0
   -9.9465    0.2387  -24.0040 N   0  0  0  0  0  0  0  0  0  0  0  0
   -9.1077   -0.9521  -23.9829 C   0  0  0  0  0  0  0  0  0  0  0  0
   -9.2757   -1.7393  -22.6542 C   0  0  2  0  0  0  0  0  0  0  0  0
   -8.6717   -0.8995  -21.4999 C   0  0  0  0  0  0  0  0  0  0  0  0
   -9.1707    0.0734  -20.9685 O   0  0  0  0  0  0  0  0  0  0  0  0
   -7.4285   -1.4096  -21.1888 N   0  0  0  0  0  0  0  0  0  0  0  0
   -6.6303   -0.8258  -20.1736 C   0  0  0  0  0  0  0  0  0  0  0  0
   -6.9447   -1.0444  -18.8529 C   0  0  0  0  0  0  0  0  0  0  0  0
   -6.2394   -0.5542  -17.8056 N   0  0  0  0  0  0  0  0  0  0  0  0
   -5.1980    0.1931  -18.0817 C   0  0  0  0  0  0  0  0  0  0  0  0
   -4.7676    0.5118  -19.4004 C   0  0  0  0  0  0  0  0  0  0  0  0
   -3.6445    1.3489  -19.6356 C   0  0  0  0  0  0  0  0  0  0  0  0
   -3.2604    1.6500  -20.9126 C   0  0  0  0  0  0  0  0  0  0  0  0
   -3.9866    1.1410  -22.0114 C   0  0  0  0  0  0  0  0  0  0  0  0
   -5.0884    0.3392  -21.8120 C   0  0  0  0  0  0  0  0  0  0  0  0
   -5.5009   -0.0070  -20.4944 C   0  0  0  0  0  0  0  0  0  0  0  0
   -5.6624    0.0075  -22.6718 H   0  0  0  0  0  0  0  0  0  0  0  0
   -3.6749    1.3885  -23.0221 H   0  0  0  0  0  0  0  0  0  0  0  0
   -2.3994    2.2908  -21.0884 H   0  0  0  0  0  0  0  0  0  0  0  0
   -3.1128    1.7462  -18.7749 H   0  0  0  0  0  0  0  0  0  0  0  0
   -4.6326    0.5932  -17.2396 H   0  0  0  0  0  0  0  0  0  0  0  0
   -7.8057   -1.6602  -18.6039 H   0  0  0  0  0  0  0  0  0  0  0  0
   -7.0450   -2.5612  -21.9859 C   0  0  0  0  0  0  0  0  0  0  0  0
   -8.3822   -3.0152  -22.6010 C   0  0  2  0  0  0  0  0  0  0  0  0
   -8.2394   -3.7505  -23.9334 C   0  0  0  0  0  0  0  0  0  0  0  0
   -7.5659   -5.0155  -23.7804 N   0  0  0  0  0  0  0  0  0  0  0  0
   -7.1743   -5.7666  -24.8526 C   0  0  0  0  0  0  0  0  0  0  0  0
   -7.6705   -5.5513  -26.1596 C   0  0  0  0  0  0  0  0  0  0  0  0
   -7.3751   -6.3632  -27.1614 N   0  0  0  0  0  0  0  0  0  0  0  0
   -6.5613   -7.3897  -26.8949 C   0  0  0  0  0  0  0  0  0  0  0  0
   -6.0186   -7.5565  -25.6276 C   0  0  0  0  0  0  0  0  0  0  0  0
   -6.3146   -6.7598  -24.6022 N   0  0  0  0  0  0  0  0  0  0  0  0
   -5.3328   -8.3766  -25.4166 H   0  0  0  0  0  0  0  0  0  0  0  0
   -6.3436   -8.0780  -27.7097 H   0  0  0  0  0  0  0  0  0  0  0  0
   -8.3189   -4.7086  -26.3934 H   0  0  0  0  0  0  0  0  0  0  0  0
   -7.1722   -5.3121  -22.9012 H   0  0  0  0  0  0  0  0  0  0  0  0
   -9.2398   -3.9138  -24.3649 H   0  0  0  0  0  0  0  0  0  0  0  0
   -7.6757   -3.1234  -24.6465 H   0  0  0  0  0  0  0  0  0  0  0  0
   -8.8295   -3.7098  -21.8828 H   0  0  0  0  0  0  0  0  0  0  0  0
   -6.3123   -2.2880  -22.7628 H   0  0  0  0  0  0  0  0  0  0  0  0
   -6.5891   -3.3315  -21.3533 H   0  0  0  0  0  0  0  0  0  0  0  0
  -10.7725   -1.9602  -22.4709 C   0  0  0  0  0  0  0  0  0  0  0  0
  -11.2802   -3.0205  -21.7132 C   0  0  0  0  0  0  0  0  0  0  0  0
  -12.6277   -3.0603  -21.4008 C   0  0  0  0  0  0  0  0  0  0  0  0
  -13.2113   -4.2062  -20.2473 Cl  0  0  0  0  0  0  0  0  0  0  0  0
  -13.5428   -2.1414  -21.9029 C   0  0  0  0  0  0  0  0  0  0  0  0
  -13.0635   -1.1200  -22.6876 C   0  0  0  0  0  0  0  0  0  0  0  0
  -11.7006   -1.0200  -22.9467 C   0  0  0  0  0  0  0  0  0  0  0  0
  -11.2709    0.1887  -23.6976 C   0  0  0  0  0  0  0  0  0  0  0  0
  -12.0636    1.0759  -24.0025 O   0  0  0  0  0  0  0  0  0  0  0  0
  -13.7069   -0.3475  -23.0929 H   0  0  0  0  0  0  0  0  0  0  0  0
  -14.5898   -2.2143  -21.6366 H   0  0  0  0  0  0  0  0  0  0  0  0
  -10.6423   -3.8008  -21.3155 H   0  0  0  0  0  0  0  0  0  0  0  0
   -9.3803   -1.6093  -24.8224 H   0  0  0  0  0  0  0  0  0  0  0  0
   -8.0706   -0.6280  -24.1121 H   0  0  0  0  0  0  0  0  0  0  0  0
   -9.0459    1.2382  -25.6018 H   0  0  0  0  0  0  0  0  0  0  0  0
  -10.2897    2.1283  -24.7036 H   0  0  0  0  0  0  0  0  0  0  0  0
   -9.5239    2.6971  -22.2267 H   0  0  0  0  0  0  0  0  0  0  0  0
   -7.8669    3.9790  -21.1045 H   0  0  0  0  0  0  0  0  0  0  0  0
   -6.8489    3.8872  -22.5384 H   0  0  0  0  0  0  0  0  0  0  0  0
   -6.9486    2.4642  -21.4873 H   0  0  0  0  0  0  0  0  0  0  0  0
  1  2  1  0
  2  3  1  0
  3  4  2  0
  3  5  1  0
  5  6  1  0
  6  7  1  0
  8  7  1  6
  8  9  1  0
  9 10  2  0
  9 11  1  0
 11 12  1  0
 12 13  2  0
 13 14  1  0
 14 15  2  0
 15 16  1  0
 16 17  2  0
 17 18  1  0
 18 19  2  0
 19 20  1  0
 20 21  2  0
 20 22  1  0
 19 23  1  0
 18 24  1  0
 17 25  1  0
 15 26  1  0
 13 27  1  0
 11 28  1  0
 28 29  1  0
 29 30  1  0
 30 31  1  0
 31 32  1  0
 32 33  2  0
 33 34  1  0
 34 35  2  0
 35 36  1  0
 36 37  2  0
 36 38  1  0
 35 39  1  0
 33 40  1  0
 31 41  1  0
 30 42  1  0
 30 43  1  0
 29 44  1  1
 28 45  1  0
 28 46  1  0
  8 47  1  0
 47 48  2  0
 48 49  1  0
 49 50  1  0
 49 51  2  0
 51 52  1  0
 52 53  2  0
 53 54  1  0
 54 55  2  0
 52 56  1  0
 51 57  1  0
 48 58  1  0
  7 59  1  0
  7 60  1  0
  5 61  1  0
  5 62  1  0
  2 63  1  0
  1 64  1  0
  1 65  1  0
  1 66  1  0
 54  6  1  0
 29  8  1  0
 37 32  1  0
 53 47  1  0
 21 12  1  0
 21 16  1  0
M  END
>  <cnnaffinities>  (89) 
[7.04485, 6.81618, 5.9571]

>  <score>  (89) 
7.04485

>  <index>  (89) 
91

>  <Smiles>  (89) 
C(N(C(=O)C(N1C([C@@]2(C(=O)N(c3c(nc(c4c(c(c(c(c34)[H])[H])[H])[H])[H])[H])C([C@@]2(C(N(c2c(nc(c(n2)[H])[H])[H])[H])([H])[H])[H])([H])[H])c2c(c(Cl)c(c(c2C1=O)[H])[H])[H])([H])[H])([H])[H])[H])([H])([H])[H]

>  <h>  (89) 
<NA>

>  <Training>  (89) 
True

>  <Success>  (89) 
True

>  <enamine_searched>  (89) 
False

>  <enamine_id>  (89) 
nan

$$$$

     RDKit          3D

 60 65  0  0  0  0  0  0  0  0999 V2000
   -6.7819   -3.4347  -26.0898 C   0  0  0  0  0  0  0  0  0  0  0  0
   -7.0204   -2.8848  -24.8186 O   0  0  0  0  0  0  0  0  0  0  0  0
   -7.9953   -3.5918  -24.0813 C   0  0  0  0  0  0  0  0  0  0  0  0
   -8.3001   -2.8811  -22.7644 C   0  0  1  0  0  0  0  0  0  0  0  0
   -7.0293   -2.5439  -21.9713 C   0  0  0  0  0  0  0  0  0  0  0  0
   -7.3869   -1.3451  -21.2374 N   0  0  0  0  0  0  0  0  0  0  0  0
   -6.6038   -0.8022  -20.1902 C   0  0  0  0  0  0  0  0  0  0  0  0
   -6.9332   -1.0332  -18.8774 C   0  0  0  0  0  0  0  0  0  0  0  0
   -6.2383   -0.5458  -17.8204 N   0  0  0  0  0  0  0  0  0  0  0  0
   -5.1969    0.2090  -18.0815 C   0  0  0  0  0  0  0  0  0  0  0  0
   -4.7489    0.5333  -19.3962 C   0  0  0  0  0  0  0  0  0  0  0  0
   -3.6306    1.3746  -19.6321 C   0  0  0  0  0  0  0  0  0  0  0  0
   -3.2361    1.6596  -20.9103 C   0  0  0  0  0  0  0  0  0  0  0  0
   -3.9249    1.1075  -22.0124 C   0  0  0  0  0  0  0  0  0  0  0  0
   -4.9998    0.2738  -21.8068 C   0  0  0  0  0  0  0  0  0  0  0  0
   -5.4542   -0.0115  -20.4919 C   0  0  0  0  0  0  0  0  0  0  0  0
   -5.5157   -0.1628  -22.6576 H   0  0  0  0  0  0  0  0  0  0  0  0
   -3.5938    1.3480  -23.0182 H   0  0  0  0  0  0  0  0  0  0  0  0
   -2.3797    2.3007  -21.0875 H   0  0  0  0  0  0  0  0  0  0  0  0
   -3.1056    1.7848  -18.7735 H   0  0  0  0  0  0  0  0  0  0  0  0
   -4.6431    0.6084  -17.2317 H   0  0  0  0  0  0  0  0  0  0  0  0
   -7.7987   -1.6474  -18.6405 H   0  0  0  0  0  0  0  0  0  0  0  0
   -8.6090   -0.8076  -21.5745 C   0  0  0  0  0  0  0  0  0  0  0  0
   -9.1518    0.1001  -20.9771 O   0  0  0  0  0  0  0  0  0  0  0  0
   -9.1499   -1.5727  -22.8076 C   0  0  1  0  0  0  0  0  0  0  0  0
   -8.8958   -0.7889  -24.1196 C   0  0  0  0  0  0  0  0  0  0  0  0
   -9.7452    0.3817  -24.2363 N   0  0  0  0  0  0  0  0  0  0  0  0
   -9.1549    1.6134  -24.7480 C   0  0  0  0  0  0  0  0  0  0  0  0
   -8.3491    2.3789  -23.7244 C   0  0  0  0  0  0  0  0  0  0  0  0
   -8.8711    3.2947  -22.7778 C   0  0  0  0  0  0  0  0  0  0  0  0
   -7.9361    3.7679  -21.9560 N   0  0  0  0  0  0  0  0  0  0  0  0
   -6.8131    3.1768  -22.3760 N   0  0  0  0  0  0  0  0  0  0  0  0
   -7.0013    2.3443  -23.4239 C   0  0  0  0  0  0  0  0  0  0  0  0
   -6.1473    1.8055  -23.8168 H   0  0  0  0  0  0  0  0  0  0  0  0
   -5.9262    3.3460  -21.9208 H   0  0  0  0  0  0  0  0  0  0  0  0
   -9.8993    3.6347  -22.6624 H   0  0  0  0  0  0  0  0  0  0  0  0
   -8.5469    1.3543  -25.6217 H   0  0  0  0  0  0  0  0  0  0  0  0
   -9.9866    2.2271  -25.1087 H   0  0  0  0  0  0  0  0  0  0  0  0
  -11.0946    0.3184  -24.0217 C   0  0  0  0  0  0  0  0  0  0  0  0
  -11.8672    1.1803  -24.4197 O   0  0  0  0  0  0  0  0  0  0  0  0
  -11.5625   -0.8651  -23.2344 C   0  0  0  0  0  0  0  0  0  0  0  0
  -12.9351   -0.9999  -23.0290 C   0  0  0  0  0  0  0  0  0  0  0  0
  -13.4277   -1.9952  -22.2135 C   0  0  0  0  0  0  0  0  0  0  0  0
  -12.5166   -2.8462  -21.5952 C   0  0  0  0  0  0  0  0  0  0  0  0
  -13.1173   -4.0437  -20.4992 Cl  0  0  0  0  0  0  0  0  0  0  0  0
  -11.1559   -2.7380  -21.8002 C   0  0  0  0  0  0  0  0  0  0  0  0
  -10.6488   -1.7570  -22.6567 C   0  0  0  0  0  0  0  0  0  0  0  0
  -10.4995   -3.4032  -21.2522 H   0  0  0  0  0  0  0  0  0  0  0  0
  -14.4887   -2.1024  -22.0191 H   0  0  0  0  0  0  0  0  0  0  0  0
  -13.5929   -0.2847  -23.5066 H   0  0  0  0  0  0  0  0  0  0  0  0
   -9.0718   -1.4767  -24.9565 H   0  0  0  0  0  0  0  0  0  0  0  0
   -7.8542   -0.4659  -24.1728 H   0  0  0  0  0  0  0  0  0  0  0  0
   -6.1776   -2.3724  -22.6393 H   0  0  0  0  0  0  0  0  0  0  0  0
   -6.7662   -3.3523  -21.2799 H   0  0  0  0  0  0  0  0  0  0  0  0
   -8.8758   -3.6007  -22.1795 H   0  0  0  0  0  0  0  0  0  0  0  0
   -7.6268   -4.6053  -23.8615 H   0  0  0  0  0  0  0  0  0  0  0  0
   -8.9201   -3.6995  -24.6722 H   0  0  0  0  0  0  0  0  0  0  0  0
   -6.0174   -2.8242  -26.5770 H   0  0  0  0  0  0  0  0  0  0  0  0
   -6.4139   -4.4692  -26.0215 H   0  0  0  0  0  0  0  0  0  0  0  0
   -7.6897   -3.4241  -26.7124 H   0  0  0  0  0  0  0  0  0  0  0  0
  1  2  1  0
  2  3  1  0
  3  4  1  0
  4  5  1  0
  5  6  1  0
  6  7  1  0
  7  8  2  0
  8  9  1  0
  9 10  2  0
 10 11  1  0
 11 12  2  0
 12 13  1  0
 13 14  2  0
 14 15  1  0
 15 16  2  0
 15 17  1  0
 14 18  1  0
 13 19  1  0
 12 20  1  0
 10 21  1  0
  8 22  1  0
  6 23  1  0
 23 24  2  0
 23 25  1  0
 25 26  1  6
 26 27  1  0
 27 28  1  0
 28 29  1  0
 29 30  1  0
 30 31  2  0
 31 32  1  0
 32 33  1  0
 33 34  1  0
 32 35  1  0
 30 36  1  0
 28 37  1  0
 28 38  1  0
 27 39  1  0
 39 40  2  0
 39 41  1  0
 41 42  2  0
 42 43  1  0
 43 44  2  0
 44 45  1  0
 44 46  1  0
 46 47  2  0
 46 48  1  0
 43 49  1  0
 42 50  1  0
 26 51  1  0
 26 52  1  0
  5 53  1  0
  5 54  1  0
  4 55  1  1
  3 56  1  0
  3 57  1  0
  1 58  1  0
  1 59  1  0
  1 60  1  0
 25  4  1  0
 33 29  2  0
 47 41  1  0
 16  7  1  0
 47 25  1  0
 16 11  1  0
M  END
>  <cnnaffinities>  (90) 
[6.68786, 6.41531]

>  <score>  (90) 
6.68786

>  <index>  (90) 
92

>  <Smiles>  (90) 
C(OC([C@]1(C(N(c2c(nc(c3c(c(c(c(c23)[H])[H])[H])[H])[H])[H])C(=O)[C@]21C(N(C(c1c(nn(c1[H])[H])[H])([H])[H])C(=O)c1c(c(c(Cl)c(c21)[H])[H])[H])([H])[H])([H])[H])[H])([H])[H])([H])([H])[H]

>  <h>  (90) 
<NA>

>  <Training>  (90) 
True

>  <Success>  (90) 
True

>  <enamine_searched>  (90) 
False

>  <enamine_id>  (90) 
nan

$$$$

     RDKit          3D

 62 67  0  0  0  0  0  0  0  0999 V2000
  -11.5901    2.5021  -21.8432 C   0  0  0  0  0  0  0  0  0  0  0  0
  -10.7439    3.3517  -22.7892 C   0  0  0  0  0  0  0  0  0  0  0  0
   -9.3607    2.9233  -23.0051 N   0  0  0  0  0  0  0  0  0  0  0  0
   -7.1248    2.9840  -22.9644 N   0  0  0  0  0  0  0  0  0  0  0  0
   -8.2274    3.4602  -22.4422 C   0  0  0  0  0  0  0  0  0  0  0  0
   -7.5563    2.1092  -23.9273 C   0  0  0  0  0  0  0  0  0  0  0  0
   -8.9247    2.0577  -23.9903 C   0  0  0  0  0  0  0  0  0  0  0  0
   -9.8388    1.2597  -24.8652 C   0  0  0  0  0  0  0  0  0  0  0  0
  -10.2491    0.0146  -24.2283 N   0  0  0  0  0  0  0  0  0  0  0  0
   -9.2552   -1.0277  -24.0516 C   0  0  0  0  0  0  0  0  0  0  0  0
   -9.3836   -1.7747  -22.7031 C   0  0  2  0  0  0  0  0  0  0  0  0
   -8.8293   -0.8927  -21.5401 C   0  0  0  0  0  0  0  0  0  0  0  0
   -9.4021    0.0178  -20.9823 O   0  0  0  0  0  0  0  0  0  0  0  0
   -7.5409   -1.3010  -21.2504 N   0  0  0  0  0  0  0  0  0  0  0  0
   -6.7660   -0.7517  -20.1941 C   0  0  0  0  0  0  0  0  0  0  0  0
   -7.1004   -0.9827  -18.8808 C   0  0  0  0  0  0  0  0  0  0  0  0
   -6.3803   -0.5429  -17.8167 N   0  0  0  0  0  0  0  0  0  0  0  0
   -5.3069    0.1699  -18.0601 C   0  0  0  0  0  0  0  0  0  0  0  0
   -4.8518    0.5007  -19.3670 C   0  0  0  0  0  0  0  0  0  0  0  0
   -3.7027    1.3084  -19.5816 C   0  0  0  0  0  0  0  0  0  0  0  0
   -3.2798    1.5891  -20.8520 C   0  0  0  0  0  0  0  0  0  0  0  0
   -3.9704    1.0509  -21.9627 C   0  0  0  0  0  0  0  0  0  0  0  0
   -5.0785    0.2602  -21.7778 C   0  0  0  0  0  0  0  0  0  0  0  0
   -5.5737   -0.0049  -20.4729 C   0  0  0  0  0  0  0  0  0  0  0  0
   -5.5772   -0.1726  -22.6401 H   0  0  0  0  0  0  0  0  0  0  0  0
   -3.6211    1.2590  -22.9708 H   0  0  0  0  0  0  0  0  0  0  0  0
   -2.4127    2.2232  -21.0195 H   0  0  0  0  0  0  0  0  0  0  0  0
   -3.1716    1.6903  -18.7129 H   0  0  0  0  0  0  0  0  0  0  0  0
   -4.7301    0.5221  -17.2029 H   0  0  0  0  0  0  0  0  0  0  0  0
   -7.9858   -1.5657  -18.6390 H   0  0  0  0  0  0  0  0  0  0  0  0
   -7.0915   -2.4080  -22.0716 C   0  0  0  0  0  0  0  0  0  0  0  0
   -8.3933   -2.9806  -22.6551 C   0  0  2  0  0  0  0  0  0  0  0  0
   -8.1516   -3.7155  -23.9708 C   0  0  0  0  0  0  0  0  0  0  0  0
   -7.6355   -3.0641  -24.6879 H   0  0  0  0  0  0  0  0  0  0  0  0
   -9.0866   -4.0491  -24.4350 H   0  0  0  0  0  0  0  0  0  0  0  0
   -7.5146   -4.5922  -23.8162 H   0  0  0  0  0  0  0  0  0  0  0  0
   -8.7780   -3.6935  -21.9212 H   0  0  0  0  0  0  0  0  0  0  0  0
   -6.5377   -3.1359  -21.4693 H   0  0  0  0  0  0  0  0  0  0  0  0
   -6.4307   -2.0839  -22.8902 H   0  0  0  0  0  0  0  0  0  0  0  0
  -10.8556   -2.1243  -22.5233 C   0  0  0  0  0  0  0  0  0  0  0  0
  -11.2553   -3.1934  -21.7152 C   0  0  0  0  0  0  0  0  0  0  0  0
  -12.5850   -3.3325  -21.3733 C   0  0  0  0  0  0  0  0  0  0  0  0
  -12.9195   -4.2727  -20.4787 F   0  0  0  0  0  0  0  0  0  0  0  0
  -13.5946   -2.5129  -21.8576 C   0  0  0  0  0  0  0  0  0  0  0  0
  -13.2244   -1.5114  -22.7298 C   0  0  0  0  0  0  0  0  0  0  0  0
  -11.8804   -1.3253  -23.0640 C   0  0  0  0  0  0  0  0  0  0  0  0
  -11.5706   -0.1955  -23.9883 C   0  0  0  0  0  0  0  0  0  0  0  0
  -12.4531    0.5303  -24.4415 O   0  0  0  0  0  0  0  0  0  0  0  0
  -13.9584   -0.8325  -23.1523 H   0  0  0  0  0  0  0  0  0  0  0  0
  -14.6179   -2.6691  -21.5296 H   0  0  0  0  0  0  0  0  0  0  0  0
  -10.5542   -3.9066  -21.2958 H   0  0  0  0  0  0  0  0  0  0  0  0
   -8.2681   -0.5665  -24.1225 H   0  0  0  0  0  0  0  0  0  0  0  0
   -9.3533   -1.7619  -24.8596 H   0  0  0  0  0  0  0  0  0  0  0  0
  -10.7681    1.7905  -25.1000 H   0  0  0  0  0  0  0  0  0  0  0  0
   -9.3392    1.0325  -25.8169 H   0  0  0  0  0  0  0  0  0  0  0  0
   -6.8531    1.5520  -24.5243 H   0  0  0  0  0  0  0  0  0  0  0  0
   -8.2601    4.2025  -21.6553 H   0  0  0  0  0  0  0  0  0  0  0  0
  -11.2489    3.3959  -23.7666 H   0  0  0  0  0  0  0  0  0  0  0  0
  -10.6824    4.3752  -22.4061 H   0  0  0  0  0  0  0  0  0  0  0  0
  -11.1296    2.3135  -20.8740 H   0  0  0  0  0  0  0  0  0  0  0  0
  -12.5077    3.0648  -21.6624 H   0  0  0  0  0  0  0  0  0  0  0  0
  -11.8462    1.5369  -22.2788 H   0  0  0  0  0  0  0  0  0  0  0  0
  1  2  1  0
  2  3  1  0
  3  4  1  0
  4  5  2  0
  5  6  1  0
  6  7  2  0
  7  8  1  0
  8  9  1  0
  9 10  1  0
 11 10  1  6
 11 12  1  0
 12 13  2  0
 12 14  1  0
 14 15  1  0
 15 16  2  0
 16 17  1  0
 17 18  2  0
 18 19  1  0
 19 20  2  0
 20 21  1  0
 21 22  2  0
 22 23  1  0
 23 24  2  0
 23 25  1  0
 22 26  1  0
 21 27  1  0
 20 28  1  0
 18 29  1  0
 16 30  1  0
 14 31  1  0
 31 32  1  0
 32 33  1  0
 33 34  1  0
 33 35  1  0
 33 36  1  0
 32 37  1  1
 31 38  1  0
 31 39  1  0
 11 40  1  0
 40 41  2  0
 41 42  1  0
 42 43  1  0
 42 44  2  0
 44 45  1  0
 45 46  2  0
 46 47  1  0
 47 48  2  0
 45 49  1  0
 44 50  1  0
 41 51  1  0
 10 52  1  0
 10 53  1  0
  8 54  1  0
  8 55  1  0
  6 56  1  0
  5 57  1  0
  2 58  1  0
  2 59  1  0
  1 60  1  0
  1 61  1  0
  1 62  1  0
  7  3  1  0
 47  9  1  0
 32 11  1  0
 46 40  1  0
 24 15  1  0
 24 19  1  0
M  END
>  <cnnaffinities>  (91) 
[6.90972]

>  <score>  (91) 
6.90972

>  <index>  (91) 
93

>  <Smiles>  (91) 
C(C(n1nc(c(c1C(N1C([C@@]2(C(=O)N(c3c(nc(c4c(c(c(c(c34)[H])[H])[H])[H])[H])[H])C([C@@]2(C([H])([H])[H])[H])([H])[H])c2c(c(F)c(c(c2C1=O)[H])[H])[H])([H])[H])([H])[H])[H])[H])([H])[H])([H])([H])[H]

>  <h>  (91) 
<NA>

>  <Training>  (91) 
True

>  <Success>  (91) 
True

>  <enamine_searched>  (91) 
False

>  <enamine_id>  (91) 
nan

$$$$

     RDKit          3D

 66 71  0  0  0  0  0  0  0  0999 V2000
  -14.3906   -1.3187  -23.6959 C   0  0  0  0  0  0  0  0  0  0  0  0
  -13.5797   -2.4626  -23.3027 N   0  0  0  0  0  0  0  0  0  0  0  0
  -13.3132   -2.7093  -21.9927 C   0  0  0  0  0  0  0  0  0  0  0  0
  -13.8618   -2.1135  -21.0784 O   0  0  0  0  0  0  0  0  0  0  0  0
  -12.3663   -3.8884  -21.7004 C   0  0  0  0  0  0  0  0  0  0  0  0
  -11.0212   -3.8517  -22.2806 N   0  0  0  0  0  0  0  0  0  0  0  0
   -9.8377   -3.4436  -21.5409 C   0  0  0  0  0  0  0  0  0  0  0  0
   -8.6774   -2.8740  -22.4152 C   0  0  2  0  0  0  0  0  0  0  0  0
   -7.5111   -2.6430  -21.4487 C   0  0  0  0  0  0  0  0  0  0  0  0
   -6.8120   -3.4913  -20.9272 O   0  0  0  0  0  0  0  0  0  0  0  0
   -7.3976   -1.2897  -21.2090 N   0  0  0  0  0  0  0  0  0  0  0  0
   -6.5904   -0.8081  -20.1520 C   0  0  0  0  0  0  0  0  0  0  0  0
   -6.8836   -1.1026  -18.8476 C   0  0  0  0  0  0  0  0  0  0  0  0
   -6.2254   -0.5691  -17.7870 N   0  0  0  0  0  0  0  0  0  0  0  0
   -5.2226    0.2395  -18.0384 C   0  0  0  0  0  0  0  0  0  0  0  0
   -4.7642    0.5644  -19.3502 C   0  0  0  0  0  0  0  0  0  0  0  0
   -3.6350    1.3902  -19.5984 C   0  0  0  0  0  0  0  0  0  0  0  0
   -3.2302    1.6414  -20.8818 C   0  0  0  0  0  0  0  0  0  0  0  0
   -3.9234    1.0809  -21.9792 C   0  0  0  0  0  0  0  0  0  0  0  0
   -5.0158    0.2803  -21.7657 C   0  0  0  0  0  0  0  0  0  0  0  0
   -5.4656    0.0185  -20.4465 C   0  0  0  0  0  0  0  0  0  0  0  0
   -5.5389   -0.1795  -22.5977 H   0  0  0  0  0  0  0  0  0  0  0  0
   -3.5905    1.2847  -22.9933 H   0  0  0  0  0  0  0  0  0  0  0  0
   -2.3665    2.2730  -21.0719 H   0  0  0  0  0  0  0  0  0  0  0  0
   -3.0996    1.8112  -18.7510 H   0  0  0  0  0  0  0  0  0  0  0  0
   -4.7088    0.6665  -17.1758 H   0  0  0  0  0  0  0  0  0  0  0  0
   -7.6936   -1.7901  -18.6108 H   0  0  0  0  0  0  0  0  0  0  0  0
   -8.4007   -0.4799  -21.8894 C   0  0  0  0  0  0  0  0  0  0  0  0
   -8.8909   -1.4350  -22.9902 C   0  0  2  0  0  0  0  0  0  0  0  0
  -10.3117   -1.1754  -23.4925 C   0  0  0  0  0  0  0  0  0  0  0  0
  -10.4710    0.0603  -24.2212 N   0  0  0  0  0  0  0  0  0  0  0  0
  -11.0209    1.1733  -23.6716 C   0  0  0  0  0  0  0  0  0  0  0  0
  -11.0702    2.3824  -24.3992 C   0  0  0  0  0  0  0  0  0  0  0  0
  -11.5888    3.4678  -23.7383 C   0  0  0  0  0  0  0  0  0  0  0  0
  -12.0782    3.4089  -22.4875 N   0  0  0  0  0  0  0  0  0  0  0  0
  -12.0161    2.2169  -21.9167 C   0  0  0  0  0  0  0  0  0  0  0  0
  -11.5207    1.0871  -22.4298 N   0  0  0  0  0  0  0  0  0  0  0  0
  -12.4198    2.1459  -20.9044 H   0  0  0  0  0  0  0  0  0  0  0  0
  -11.6236    4.4469  -24.2190 H   0  0  0  0  0  0  0  0  0  0  0  0
  -10.7103    2.4375  -25.4240 H   0  0  0  0  0  0  0  0  0  0  0  0
  -10.0786    0.1288  -25.1452 H   0  0  0  0  0  0  0  0  0  0  0  0
  -10.5989   -2.0144  -24.1380 H   0  0  0  0  0  0  0  0  0  0  0  0
  -10.9848   -1.1150  -22.6373 H   0  0  0  0  0  0  0  0  0  0  0  0
   -8.1961   -1.3435  -23.8413 H   0  0  0  0  0  0  0  0  0  0  0  0
   -7.9555    0.4382  -22.2890 H   0  0  0  0  0  0  0  0  0  0  0  0
   -9.2075   -0.1760  -21.2021 H   0  0  0  0  0  0  0  0  0  0  0  0
   -8.3926   -3.9093  -23.4798 C   0  0  0  0  0  0  0  0  0  0  0  0
   -7.1084   -4.1200  -24.0082 C   0  0  0  0  0  0  0  0  0  0  0  0
   -6.9047   -5.1290  -24.9373 C   0  0  0  0  0  0  0  0  0  0  0  0
   -5.3121   -5.4116  -25.5833 Cl  0  0  0  0  0  0  0  0  0  0  0  0
   -7.9613   -5.9187  -25.3879 C   0  0  0  0  0  0  0  0  0  0  0  0
   -9.2396   -5.6558  -24.9213 C   0  0  0  0  0  0  0  0  0  0  0  0
   -9.4691   -4.6606  -23.9768 C   0  0  0  0  0  0  0  0  0  0  0  0
  -10.8787   -4.4207  -23.5038 C   0  0  0  0  0  0  0  0  0  0  0  0
  -11.8780   -4.6734  -24.1670 O   0  0  0  0  0  0  0  0  0  0  0  0
  -10.0960   -6.2172  -25.2763 H   0  0  0  0  0  0  0  0  0  0  0  0
   -7.7831   -6.7203  -26.0982 H   0  0  0  0  0  0  0  0  0  0  0  0
   -6.2591   -3.5257  -23.6840 H   0  0  0  0  0  0  0  0  0  0  0  0
  -10.1275   -2.6874  -20.8162 H   0  0  0  0  0  0  0  0  0  0  0  0
   -9.3989   -4.3129  -21.0435 H   0  0  0  0  0  0  0  0  0  0  0  0
  -12.3471   -4.0168  -20.6159 H   0  0  0  0  0  0  0  0  0  0  0  0
  -12.8735   -4.7569  -22.1353 H   0  0  0  0  0  0  0  0  0  0  0  0
  -13.1828   -3.0791  -24.0019 H   0  0  0  0  0  0  0  0  0  0  0  0
  -13.8167   -0.3804  -23.6169 H   0  0  0  0  0  0  0  0  0  0  0  0
  -15.2680   -1.2430  -23.0402 H   0  0  0  0  0  0  0  0  0  0  0  0
  -14.7094   -1.4692  -24.7361 H   0  0  0  0  0  0  0  0  0  0  0  0
  1  2  1  0
  2  3  1  0
  3  4  2  0
  3  5  1  0
  5  6  1  0
  6  7  1  0
  8  7  1  1
  8  9  1  0
  9 10  2  0
  9 11  1  0
 11 12  1  0
 12 13  2  0
 13 14  1  0
 14 15  2  0
 15 16  1  0
 16 17  2  0
 17 18  1  0
 18 19  2  0
 19 20  1  0
 20 21  2  0
 20 22  1  0
 19 23  1  0
 18 24  1  0
 17 25  1  0
 15 26  1  0
 13 27  1  0
 11 28  1  0
 28 29  1  0
 29 30  1  0
 30 31  1  0
 31 32  1  0
 32 33  2  0
 33 34  1  0
 34 35  2  0
 35 36  1  0
 36 37  2  0
 36 38  1  0
 34 39  1  0
 33 40  1  0
 31 41  1  0
 30 42  1  0
 30 43  1  0
 29 44  1  6
 28 45  1  0
 28 46  1  0
  8 47  1  0
 47 48  2  0
 48 49  1  0
 49 50  1  0
 49 51  2  0
 51 52  1  0
 52 53  2  0
 53 54  1  0
 54 55  2  0
 52 56  1  0
 51 57  1  0
 48 58  1  0
  7 59  1  0
  7 60  1  0
  5 61  1  0
  5 62  1  0
  2 63  1  0
  1 64  1  0
  1 65  1  0
  1 66  1  0
 54  6  1  0
 29  8  1  0
 37 32  1  0
 53 47  1  0
 21 12  1  0
 21 16  1  0
M  END
>  <cnnaffinities>  (92) 
[6.85952]

>  <score>  (92) 
6.85952

>  <index>  (92) 
95

>  <Smiles>  (92) 
C(N(C(=O)C(N1C([C@@]2(C(=O)N(c3c(nc(c4c(c(c(c(c34)[H])[H])[H])[H])[H])[H])C([C@@]2(C(N(c2c(c(nc(n2)[H])[H])[H])[H])([H])[H])[H])([H])[H])c2c(c(Cl)c(c(c2C1=O)[H])[H])[H])([H])[H])([H])[H])[H])([H])([H])[H]

>  <h>  (92) 
<NA>

>  <Training>  (92) 
True

>  <Success>  (92) 
True

>  <enamine_searched>  (92) 
False

>  <enamine_id>  (92) 
nan

$$$$

     RDKit          3D

 66 70  0  0  0  0  0  0  0  0999 V2000
   -7.5275    3.2628  -21.8115 C   0  0  0  0  0  0  0  0  0  0  0  0
   -8.5408    2.8144  -22.7485 N   0  0  0  0  0  0  0  0  0  0  0  0
   -8.0812    2.0864  -23.8055 C   0  0  0  0  0  0  0  0  0  0  0  0
   -6.8821    1.9129  -23.9841 O   0  0  0  0  0  0  0  0  0  0  0  0
   -9.0933    1.4751  -24.7655 C   0  0  0  0  0  0  0  0  0  0  0  0
   -9.6534    0.2617  -24.2171 N   0  0  0  0  0  0  0  0  0  0  0  0
   -8.8152   -0.9167  -24.0998 C   0  0  0  0  0  0  0  0  0  0  0  0
   -9.0937   -1.6997  -22.7949 C   0  0  2  0  0  0  0  0  0  0  0  0
   -8.5775   -0.8892  -21.5817 C   0  0  0  0  0  0  0  0  0  0  0  0
   -9.1084    0.0685  -21.0615 O   0  0  0  0  0  0  0  0  0  0  0  0
   -7.3730   -1.4266  -21.1915 N   0  0  0  0  0  0  0  0  0  0  0  0
   -6.5965   -0.8296  -20.1700 C   0  0  0  0  0  0  0  0  0  0  0  0
   -6.9205   -1.0492  -18.8552 C   0  0  0  0  0  0  0  0  0  0  0  0
   -6.2300   -0.5443  -17.8042 N   0  0  0  0  0  0  0  0  0  0  0  0
   -5.1895    0.2087  -18.0725 C   0  0  0  0  0  0  0  0  0  0  0  0
   -4.7462    0.5189  -19.3907 C   0  0  0  0  0  0  0  0  0  0  0  0
   -3.6255    1.3588  -19.6314 C   0  0  0  0  0  0  0  0  0  0  0  0
   -3.2394    1.6563  -20.9095 C   0  0  0  0  0  0  0  0  0  0  0  0
   -3.9573    1.1364  -22.0097 C   0  0  0  0  0  0  0  0  0  0  0  0
   -5.0526    0.3287  -21.8071 C   0  0  0  0  0  0  0  0  0  0  0  0
   -5.4684   -0.0106  -20.4877 C   0  0  0  0  0  0  0  0  0  0  0  0
   -5.6185   -0.0224  -22.6662 H   0  0  0  0  0  0  0  0  0  0  0  0
   -3.6522    1.3855  -23.0226 H   0  0  0  0  0  0  0  0  0  0  0  0
   -2.3840    2.3019  -21.0899 H   0  0  0  0  0  0  0  0  0  0  0  0
   -3.0933    1.7643  -18.7750 H   0  0  0  0  0  0  0  0  0  0  0  0
   -4.6258    0.6120  -17.2288 H   0  0  0  0  0  0  0  0  0  0  0  0
   -7.7835   -1.6652  -18.6113 H   0  0  0  0  0  0  0  0  0  0  0  0
   -6.9612   -2.5941  -21.9440 C   0  0  0  0  0  0  0  0  0  0  0  0
   -8.2334   -2.9970  -22.7139 C   0  0  2  0  0  0  0  0  0  0  0  0
   -7.9294   -3.6886  -24.0422 C   0  0  0  0  0  0  0  0  0  0  0  0
   -7.2228   -4.8889  -23.8004 O   0  0  0  0  0  0  0  0  0  0  0  0
   -7.0474   -5.7039  -24.9564 C   0  0  0  0  0  0  0  0  0  0  0  0
   -5.6721   -6.3486  -24.8791 C   0  0  0  0  0  0  0  0  0  0  0  0
   -5.4875   -6.9646  -25.7649 H   0  0  0  0  0  0  0  0  0  0  0  0
   -4.8811   -5.5973  -24.8212 H   0  0  0  0  0  0  0  0  0  0  0  0
   -5.6006   -6.9918  -23.9990 H   0  0  0  0  0  0  0  0  0  0  0  0
   -8.1487   -6.7541  -25.0462 C   0  0  0  0  0  0  0  0  0  0  0  0
   -8.1277   -7.4038  -24.1675 H   0  0  0  0  0  0  0  0  0  0  0  0
   -9.1422   -6.3015  -25.1099 H   0  0  0  0  0  0  0  0  0  0  0  0
   -8.0068   -7.3764  -25.9352 H   0  0  0  0  0  0  0  0  0  0  0  0
   -7.0836   -5.0691  -25.8555 H   0  0  0  0  0  0  0  0  0  0  0  0
   -8.8699   -3.8874  -24.5841 H   0  0  0  0  0  0  0  0  0  0  0  0
   -7.3142   -3.0239  -24.6728 H   0  0  0  0  0  0  0  0  0  0  0  0
   -8.7772   -3.7186  -22.1041 H   0  0  0  0  0  0  0  0  0  0  0  0
   -6.1356   -2.3578  -22.6297 H   0  0  0  0  0  0  0  0  0  0  0  0
   -6.6206   -3.3831  -21.2694 H   0  0  0  0  0  0  0  0  0  0  0  0
  -10.5960   -1.8880  -22.6896 C   0  0  0  0  0  0  0  0  0  0  0  0
  -11.1401   -2.8501  -21.8331 C   0  0  0  0  0  0  0  0  0  0  0  0
  -12.5143   -2.9339  -21.6778 C   0  0  0  0  0  0  0  0  0  0  0  0
  -13.1742   -4.0194  -20.4925 Cl  0  0  0  0  0  0  0  0  0  0  0  0
  -13.3978   -2.1287  -22.3988 C   0  0  0  0  0  0  0  0  0  0  0  0
  -12.8662   -1.1550  -23.2156 C   0  0  0  0  0  0  0  0  0  0  0  0
  -11.4868   -1.0095  -23.3232 C   0  0  0  0  0  0  0  0  0  0  0  0
  -11.0023    0.1923  -24.0556 C   0  0  0  0  0  0  0  0  0  0  0  0
  -11.7630    1.0689  -24.4555 O   0  0  0  0  0  0  0  0  0  0  0  0
  -13.4902   -0.4513  -23.7559 H   0  0  0  0  0  0  0  0  0  0  0  0
  -14.4695   -2.2568  -22.2811 H   0  0  0  0  0  0  0  0  0  0  0  0
  -10.4972   -3.5191  -21.2684 H   0  0  0  0  0  0  0  0  0  0  0  0
   -9.0163   -1.5802  -24.9468 H   0  0  0  0  0  0  0  0  0  0  0  0
   -7.7678   -0.6041  -24.1522 H   0  0  0  0  0  0  0  0  0  0  0  0
   -8.5263    1.2650  -25.6807 H   0  0  0  0  0  0  0  0  0  0  0  0
   -9.9335    2.1488  -24.9645 H   0  0  0  0  0  0  0  0  0  0  0  0
   -9.4663    2.6717  -22.3683 H   0  0  0  0  0  0  0  0  0  0  0  0
   -6.8568    3.9615  -22.3135 H   0  0  0  0  0  0  0  0  0  0  0  0
   -7.9883    3.7537  -20.9590 H   0  0  0  0  0  0  0  0  0  0  0  0
   -6.9345    2.4137  -21.4550 H   0  0  0  0  0  0  0  0  0  0  0  0
  1  2  1  0
  2  3  1  0
  3  4  2  0
  3  5  1  0
  5  6  1  0
  6  7  1  0
  8  7  1  6
  8  9  1  0
  9 10  2  0
  9 11  1  0
 11 12  1  0
 12 13  2  0
 13 14  1  0
 14 15  2  0
 15 16  1  0
 16 17  2  0
 17 18  1  0
 18 19  2  0
 19 20  1  0
 20 21  2  0
 20 22  1  0
 19 23  1  0
 18 24  1  0
 17 25  1  0
 15 26  1  0
 13 27  1  0
 11 28  1  0
 28 29  1  0
 29 30  1  0
 30 31  1  0
 31 32  1  0
 32 33  1  0
 33 34  1  0
 33 35  1  0
 33 36  1  0
 32 37  1  0
 37 38  1  0
 37 39  1  0
 37 40  1  0
 32 41  1  0
 30 42  1  0
 30 43  1  0
 29 44  1  1
 28 45  1  0
 28 46  1  0
  8 47  1  0
 47 48  2  0
 48 49  1  0
 49 50  1  0
 49 51  2  0
 51 52  1  0
 52 53  2  0
 53 54  1  0
 54 55  2  0
 52 56  1  0
 51 57  1  0
 48 58  1  0
  7 59  1  0
  7 60  1  0
  5 61  1  0
  5 62  1  0
  2 63  1  0
  1 64  1  0
  1 65  1  0
  1 66  1  0
 54  6  1  0
 29  8  1  0
 53 47  1  0
 21 12  1  0
 21 16  1  0
M  END
>  <cnnaffinities>  (93) 
[6.68567, 6.69959, 6.60502]

>  <score>  (93) 
6.68567

>  <index>  (93) 
96

>  <Smiles>  (93) 
C(N(C(=O)C(N1C([C@@]2(C(=O)N(c3c(nc(c4c(c(c(c(c34)[H])[H])[H])[H])[H])[H])C([C@@]2(C(OC(C([H])([H])[H])(C([H])([H])[H])[H])([H])[H])[H])([H])[H])c2c(c(Cl)c(c(c2C1=O)[H])[H])[H])([H])[H])([H])[H])[H])([H])([H])[H]

>  <h>  (93) 
<NA>

>  <Training>  (93) 
True

>  <Success>  (93) 
True

>  <enamine_searched>  (93) 
False

>  <enamine_id>  (93) 
nan

$$$$

     RDKit          3D

 40 43  0  0  0  0  0  0  0  0999 V2000
  -12.5575   -1.4493  -23.7775 C   0  0  0  0  0  0  0  0  0  0  0  0
  -11.1654   -0.8775  -23.5451 C   0  0  2  0  0  0  0  0  0  0  0  0
  -10.7060   -0.0512  -24.7406 C   0  0  0  0  0  0  0  0  0  0  0  0
   -9.4105    0.4699  -24.5572 O   0  0  0  0  0  0  0  0  0  0  0  0
   -8.4556   -0.5557  -24.4621 C   0  0  0  0  0  0  0  0  0  0  0  0
   -8.7007   -1.4533  -23.2354 C   0  0  1  0  0  0  0  0  0  0  0  0
  -10.1451   -1.9771  -23.2675 C   0  0  0  0  0  0  0  0  0  0  0  0
  -10.3614   -2.4732  -22.3158 H   0  0  0  0  0  0  0  0  0  0  0  0
  -10.2153   -2.7534  -24.0442 H   0  0  0  0  0  0  0  0  0  0  0  0
   -7.7346   -2.5221  -23.1555 N   0  0  0  0  0  0  0  0  0  0  0  0
   -6.9420   -2.5245  -22.0378 C   0  0  0  0  0  0  0  0  0  0  0  0
   -6.0440   -3.2829  -21.7542 O   0  0  0  0  0  0  0  0  0  0  0  0
   -7.3754   -1.4195  -21.2644 N   0  0  0  0  0  0  0  0  0  0  0  0
   -6.5891   -0.8425  -20.2048 C   0  0  0  0  0  0  0  0  0  0  0  0
   -6.8933   -1.0551  -18.8814 C   0  0  0  0  0  0  0  0  0  0  0  0
   -6.1987   -0.5437  -17.8243 N   0  0  0  0  0  0  0  0  0  0  0  0
   -5.1602    0.2198  -18.0695 C   0  0  0  0  0  0  0  0  0  0  0  0
   -4.7244    0.5320  -19.3899 C   0  0  0  0  0  0  0  0  0  0  0  0
   -3.5960    1.3663  -19.6282 C   0  0  0  0  0  0  0  0  0  0  0  0
   -3.2100    1.6500  -20.9124 C   0  0  0  0  0  0  0  0  0  0  0  0
   -3.9293    1.1171  -22.0032 C   0  0  0  0  0  0  0  0  0  0  0  0
   -5.0209    0.3122  -21.7942 C   0  0  0  0  0  0  0  0  0  0  0  0
   -5.4523   -0.0056  -20.4792 C   0  0  0  0  0  0  0  0  0  0  0  0
   -5.5700   -0.0912  -22.6378 H   0  0  0  0  0  0  0  0  0  0  0  0
   -3.6207    1.3476  -23.0179 H   0  0  0  0  0  0  0  0  0  0  0  0
   -2.3531    2.2888  -21.1044 H   0  0  0  0  0  0  0  0  0  0  0  0
   -3.0508    1.7796  -18.7823 H   0  0  0  0  0  0  0  0  0  0  0  0
   -4.6022    0.6271  -17.2186 H   0  0  0  0  0  0  0  0  0  0  0  0
   -7.7412   -1.6768  -18.6081 H   0  0  0  0  0  0  0  0  0  0  0  0
   -8.3866   -0.7057  -21.9372 C   0  0  0  0  0  0  0  0  0  0  0  0
   -8.8819    0.3156  -21.5376 O   0  0  0  0  0  0  0  0  0  0  0  0
   -7.6166   -3.2124  -23.8772 H   0  0  0  0  0  0  0  0  0  0  0  0
   -7.4703   -0.0869  -24.3804 H   0  0  0  0  0  0  0  0  0  0  0  0
   -8.4646   -1.1636  -25.3826 H   0  0  0  0  0  0  0  0  0  0  0  0
  -10.7233   -0.6578  -25.6622 H   0  0  0  0  0  0  0  0  0  0  0  0
  -11.3706    0.8051  -24.8924 H   0  0  0  0  0  0  0  0  0  0  0  0
  -11.1944   -0.2081  -22.6799 H   0  0  0  0  0  0  0  0  0  0  0  0
  -12.8897   -2.0301  -22.9119 H   0  0  0  0  0  0  0  0  0  0  0  0
  -13.2886   -0.6523  -23.9468 H   0  0  0  0  0  0  0  0  0  0  0  0
  -12.5725   -2.1111  -24.6509 H   0  0  0  0  0  0  0  0  0  0  0  0
  1  2  1  0
  2  3  1  0
  3  4  1  0
  4  5  1  0
  5  6  1  0
  6  7  1  0
  7  8  1  0
  7  9  1  0
  6 10  1  6
 10 11  1  0
 11 12  2  0
 11 13  1  0
 13 14  1  0
 14 15  2  0
 15 16  1  0
 16 17  2  0
 17 18  1  0
 18 19  2  0
 19 20  1  0
 20 21  2  0
 21 22  1  0
 22 23  2  0
 22 24  1  0
 21 25  1  0
 20 26  1  0
 19 27  1  0
 17 28  1  0
 15 29  1  0
 13 30  1  0
 30 31  2  0
 10 32  1  0
  5 33  1  0
  5 34  1  0
  3 35  1  0
  3 36  1  0
  2 37  1  1
  1 38  1  0
  1 39  1  0
  1 40  1  0
  7  2  1  0
 23 14  1  0
 30  6  1  0
 23 18  1  0
M  END
>  <cnnaffinities>  (94) 
[5.13388, 5.52399, 5.22967, 4.8368]

>  <score>  (94) 
5.13388

>  <index>  (94) 
97

>  <Smiles>  (94) 
C([C@@]1(C(OC([C@@]2(C1([H])[H])N(C(=O)N(c1c(nc(c3c(c(c(c(c13)[H])[H])[H])[H])[H])[H])C2=O)[H])([H])[H])([H])[H])[H])([H])([H])[H]

>  <h>  (94) 
<NA>

>  <Training>  (94) 
True

>  <Success>  (94) 
True

>  <enamine_searched>  (94) 
False

>  <enamine_id>  (94) 
nan

$$$$
