
     RDKit          3D

 66 71  0  0  0  0  0  0  0  0999 V2000
   -7.8383   -6.0307  -26.6972 C   0  0  0  0  0  0  0  0  0  0  0  0
   -8.0245   -4.6132  -26.9520 N   0  0  0  0  0  0  0  0  0  0  0  0
   -7.1005   -3.7073  -26.5608 C   0  0  0  0  0  0  0  0  0  0  0  0
   -6.0572   -4.0232  -25.9958 O   0  0  0  0  0  0  0  0  0  0  0  0
   -7.4520   -2.2386  -26.8089 C   0  0  0  0  0  0  0  0  0  0  0  0
   -8.3552   -1.7242  -25.7875 N   0  0  0  0  0  0  0  0  0  0  0  0
   -7.8282   -1.2406  -24.5139 C   0  0  0  0  0  0  0  0  0  0  0  0
   -8.7281   -1.5413  -23.2751 C   0  0  2  0  0  0  0  0  0  0  0  0
   -8.2708   -0.5669  -22.1661 C   0  0  0  0  0  0  0  0  0  0  0  0
   -8.4744    0.6280  -22.1333 O   0  0  0  0  0  0  0  0  0  0  0  0
   -7.5037   -1.2622  -21.2475 N   0  0  0  0  0  0  0  0  0  0  0  0
   -6.7287   -0.6769  -20.2160 C   0  0  0  0  0  0  0  0  0  0  0  0
   -6.9308   -1.0867  -18.9204 C   0  0  0  0  0  0  0  0  0  0  0  0
   -6.2105   -0.6709  -17.8516 N   0  0  0  0  0  0  0  0  0  0  0  0
   -5.2265    0.1645  -18.0804 C   0  0  0  0  0  0  0  0  0  0  0  0
   -4.8951    0.6655  -19.3707 C   0  0  0  0  0  0  0  0  0  0  0  0
   -3.8151    1.5697  -19.5580 C   0  0  0  0  0  0  0  0  0  0  0  0
   -3.5279    2.0617  -20.8005 C   0  0  0  0  0  0  0  0  0  0  0  0
   -4.2963    1.6580  -21.9167 C   0  0  0  0  0  0  0  0  0  0  0  0
   -5.3303    0.7699  -21.7632 C   0  0  0  0  0  0  0  0  0  0  0  0
   -5.6699    0.2556  -20.4795 C   0  0  0  0  0  0  0  0  0  0  0  0
   -5.9231    0.4898  -22.6273 H   0  0  0  0  0  0  0  0  0  0  0  0
   -4.0786    2.0687  -22.8981 H   0  0  0  0  0  0  0  0  0  0  0  0
   -2.7373    2.7951  -20.9310 H   0  0  0  0  0  0  0  0  0  0  0  0
   -3.2264    1.8557  -18.6906 H   0  0  0  0  0  0  0  0  0  0  0  0
   -4.6460    0.4965  -17.2192 H   0  0  0  0  0  0  0  0  0  0  0  0
   -7.7463   -1.7740  -18.7019 H   0  0  0  0  0  0  0  0  0  0  0  0
   -7.3912   -2.6804  -21.5362 C   0  0  0  0  0  0  0  0  0  0  0  0
   -8.4802   -2.9144  -22.5837 C   0  0  2  0  0  0  0  0  0  0  0  0
   -8.1923   -4.0872  -23.5155 C   0  0  0  0  0  0  0  0  0  0  0  0
   -8.1277   -5.3458  -22.8017 N   0  0  0  0  0  0  0  0  0  0  0  0
   -6.9927   -5.9106  -22.3090 C   0  0  0  0  0  0  0  0  0  0  0  0
   -5.7240   -5.7024  -22.8764 C   0  0  0  0  0  0  0  0  0  0  0  0
   -4.6697   -6.3512  -22.2656 C   0  0  0  0  0  0  0  0  0  0  0  0
   -4.8209   -7.1148  -21.1789 N   0  0  0  0  0  0  0  0  0  0  0  0
   -6.0627   -7.2379  -20.7373 C   0  0  0  0  0  0  0  0  0  0  0  0
   -7.1648   -6.7040  -21.2406 N   0  0  0  0  0  0  0  0  0  0  0  0
   -6.1929   -7.8606  -19.8535 H   0  0  0  0  0  0  0  0  0  0  0  0
   -3.6491   -6.2656  -22.6430 H   0  0  0  0  0  0  0  0  0  0  0  0
   -5.6026   -5.0871  -23.7627 H   0  0  0  0  0  0  0  0  0  0  0  0
   -8.9200   -5.5149  -22.1981 H   0  0  0  0  0  0  0  0  0  0  0  0
   -9.0056   -4.1415  -24.2493 H   0  0  0  0  0  0  0  0  0  0  0  0
   -7.2539   -3.9177  -24.0449 H   0  0  0  0  0  0  0  0  0  0  0  0
   -9.4137   -3.1428  -22.0482 H   0  0  0  0  0  0  0  0  0  0  0  0
   -7.5515   -3.2682  -20.6292 H   0  0  0  0  0  0  0  0  0  0  0  0
   -6.3827   -2.9224  -21.9071 H   0  0  0  0  0  0  0  0  0  0  0  0
  -10.1866   -1.3664  -23.6493 C   0  0  0  0  0  0  0  0  0  0  0  0
  -11.1564   -1.2951  -22.6385 C   0  0  0  0  0  0  0  0  0  0  0  0
  -12.4961   -1.1782  -22.9644 C   0  0  0  0  0  0  0  0  0  0  0  0
  -13.7375   -1.1918  -21.7440 Cl  0  0  0  0  0  0  0  0  0  0  0  0
  -12.9061   -1.1083  -24.2959 C   0  0  0  0  0  0  0  0  0  0  0  0
  -11.9582   -1.2081  -25.2965 C   0  0  0  0  0  0  0  0  0  0  0  0
  -10.6168   -1.3998  -24.9773 C   0  0  0  0  0  0  0  0  0  0  0  0
   -9.6857   -1.8180  -26.0640 C   0  0  0  0  0  0  0  0  0  0  0  0
  -10.0970   -2.2795  -27.1257 O   0  0  0  0  0  0  0  0  0  0  0  0
  -12.2359   -1.1685  -26.3466 H   0  0  0  0  0  0  0  0  0  0  0  0
  -13.9654   -1.0547  -24.5161 H   0  0  0  0  0  0  0  0  0  0  0  0
  -10.8462   -1.3414  -21.6019 H   0  0  0  0  0  0  0  0  0  0  0  0
   -7.6999   -0.1499  -24.5622 H   0  0  0  0  0  0  0  0  0  0  0  0
   -6.8422   -1.7059  -24.3840 H   0  0  0  0  0  0  0  0  0  0  0  0
   -6.5268   -1.6605  -26.8262 H   0  0  0  0  0  0  0  0  0  0  0  0
   -7.9685   -2.1379  -27.7643 H   0  0  0  0  0  0  0  0  0  0  0  0
   -8.8963   -4.2785  -27.3322 H   0  0  0  0  0  0  0  0  0  0  0  0
   -7.5816   -6.1940  -25.6413 H   0  0  0  0  0  0  0  0  0  0  0  0
   -8.7676   -6.5590  -26.9212 H   0  0  0  0  0  0  0  0  0  0  0  0
   -7.0443   -6.4492  -27.3264 H   0  0  0  0  0  0  0  0  0  0  0  0
  1  2  1  0
  2  3  1  0
  3  4  2  0
  3  5  1  0
  5  6  1  0
  6  7  1  0
  8  7  1  6
  8  9  1  0
  9 10  2  0
  9 11  1  0
 11 12  1  0
 12 13  2  0
 13 14  1  0
 14 15  2  0
 15 16  1  0
 16 17  2  0
 17 18  1  0
 18 19  2  0
 19 20  1  0
 20 21  2  0
 20 22  1  0
 19 23  1  0
 18 24  1  0
 17 25  1  0
 15 26  1  0
 13 27  1  0
 11 28  1  0
 28 29  1  0
 29 30  1  0
 30 31  1  0
 31 32  1  0
 32 33  2  0
 33 34  1  0
 34 35  2  0
 35 36  1  0
 36 37  2  0
 36 38  1  0
 34 39  1  0
 33 40  1  0
 31 41  1  0
 30 42  1  0
 30 43  1  0
 29 44  1  1
 28 45  1  0
 28 46  1  0
  8 47  1  0
 47 48  2  0
 48 49  1  0
 49 50  1  0
 49 51  2  0
 51 52  1  0
 52 53  2  0
 53 54  1  0
 54 55  2  0
 52 56  1  0
 51 57  1  0
 48 58  1  0
  7 59  1  0
  7 60  1  0
  5 61  1  0
  5 62  1  0
  2 63  1  0
  1 64  1  0
  1 65  1  0
  1 66  1  0
 54  6  1  0
 29  8  1  0
 37 32  1  0
 53 47  1  0
 21 12  1  0
 21 16  1  0
M  END
>  <cnnaffinities>  (1) 
[6.12641, 6.4326]

>  <score>  (1) 
6.12641

>  <index>  (1) 
0

>  <Smiles>  (1) 
C(N(C(=O)C(N1C([C@@]2(C(=O)N(c3c(nc(c4c(c(c(c(c34)[H])[H])[H])[H])[H])[H])C([C@@]2(C(N(c2c(c(nc(n2)[H])[H])[H])[H])([H])[H])[H])([H])[H])c2c(c(Cl)c(c(c2C1=O)[H])[H])[H])([H])[H])([H])[H])[H])([H])([H])[H]

>  <h>  (1) 
<NA>

>  <Training>  (1) 
True

>  <Success>  (1) 
True

>  <enamine_searched>  (1) 
False

>  <enamine_id>  (1) 
nan

$$$$

     RDKit          3D

 68 73  0  0  0  0  0  0  0  0999 V2000
   -7.3371    3.3469  -22.0482 C   0  0  0  0  0  0  0  0  0  0  0  0
   -8.2084    2.7252  -23.0251 N   0  0  0  0  0  0  0  0  0  0  0  0
   -7.6638    2.1812  -24.1432 C   0  0  0  0  0  0  0  0  0  0  0  0
   -6.4742    2.2698  -24.4054 O   0  0  0  0  0  0  0  0  0  0  0  0
   -8.6566    1.4644  -25.0665 C   0  0  0  0  0  0  0  0  0  0  0  0
   -9.3413    0.3706  -24.3963 N   0  0  0  0  0  0  0  0  0  0  0  0
   -8.5944   -0.8561  -24.1601 C   0  0  0  0  0  0  0  0  0  0  0  0
   -9.0389   -1.5837  -22.8586 C   0  0  2  0  0  0  0  0  0  0  0  0
   -8.5487   -0.7902  -21.6218 C   0  0  0  0  0  0  0  0  0  0  0  0
   -9.0473    0.2061  -21.1379 O   0  0  0  0  0  0  0  0  0  0  0  0
   -7.4068   -1.3898  -21.1464 N   0  0  0  0  0  0  0  0  0  0  0  0
   -6.6402   -0.7977  -20.1125 C   0  0  0  0  0  0  0  0  0  0  0  0
   -6.9093   -1.0997  -18.8033 C   0  0  0  0  0  0  0  0  0  0  0  0
   -6.2089   -0.6209  -17.7478 N   0  0  0  0  0  0  0  0  0  0  0  0
   -5.2111    0.1910  -17.9998 C   0  0  0  0  0  0  0  0  0  0  0  0
   -4.8410    0.6119  -19.3086 C   0  0  0  0  0  0  0  0  0  0  0  0
   -3.7964    1.5485  -19.5333 C   0  0  0  0  0  0  0  0  0  0  0  0
   -3.5237    1.9992  -20.7961 C   0  0  0  0  0  0  0  0  0  0  0  0
   -4.2742    1.5287  -21.8981 C   0  0  0  0  0  0  0  0  0  0  0  0
   -5.2690    0.5978  -21.7092 C   0  0  0  0  0  0  0  0  0  0  0  0
   -5.5864    0.1194  -20.4071 C   0  0  0  0  0  0  0  0  0  0  0  0
   -5.8417    0.2485  -22.5637 H   0  0  0  0  0  0  0  0  0  0  0  0
   -4.0715    1.9044  -22.8979 H   0  0  0  0  0  0  0  0  0  0  0  0
   -2.7296    2.7232  -20.9595 H   0  0  0  0  0  0  0  0  0  0  0  0
   -3.2485    1.9252  -18.6727 H   0  0  0  0  0  0  0  0  0  0  0  0
   -4.6524    0.5751  -17.1445 H   0  0  0  0  0  0  0  0  0  0  0  0
   -7.7288   -1.7708  -18.5584 H   0  0  0  0  0  0  0  0  0  0  0  0
   -6.9914   -2.5568  -21.8925 C   0  0  0  0  0  0  0  0  0  0  0  0
   -8.2620   -2.9291  -22.6762 C   0  0  2  0  0  0  0  0  0  0  0  0
   -7.9799   -3.6990  -23.9668 C   0  0  0  0  0  0  0  0  0  0  0  0
   -7.4610   -5.0361  -23.7482 N   0  0  0  0  0  0  0  0  0  0  0  0
   -6.9286   -5.7068  -24.8532 C   0  0  0  0  0  0  0  0  0  0  0  0
   -7.1040   -5.4059  -26.2340 C   0  0  0  0  0  0  0  0  0  0  0  0
   -6.4576   -6.2737  -27.0047 N   0  0  0  0  0  0  0  0  0  0  0  0
   -5.8563   -7.1216  -26.1664 N   0  0  0  0  0  0  0  0  0  0  0  0
   -5.0487   -8.1680  -26.7547 C   0  0  0  0  0  0  0  0  0  0  0  0
   -4.3826   -8.6303  -26.0285 H   0  0  0  0  0  0  0  0  0  0  0  0
   -5.6739   -8.9520  -27.1868 H   0  0  0  0  0  0  0  0  0  0  0  0
   -4.4539   -7.7172  -27.5498 H   0  0  0  0  0  0  0  0  0  0  0  0
   -6.1457   -6.8514  -24.8621 C   0  0  0  0  0  0  0  0  0  0  0  0
   -5.8249   -7.4969  -24.0549 H   0  0  0  0  0  0  0  0  0  0  0  0
   -7.6887   -4.6214  -26.7109 H   0  0  0  0  0  0  0  0  0  0  0  0
   -7.0721   -5.2734  -22.8451 H   0  0  0  0  0  0  0  0  0  0  0  0
   -7.2832   -3.1242  -24.6062 H   0  0  0  0  0  0  0  0  0  0  0  0
   -8.9157   -3.8100  -24.5305 H   0  0  0  0  0  0  0  0  0  0  0  0
   -8.8609   -3.5851  -22.0372 H   0  0  0  0  0  0  0  0  0  0  0  0
   -6.1470   -2.3285  -22.5654 H   0  0  0  0  0  0  0  0  0  0  0  0
   -6.6637   -3.3484  -21.2105 H   0  0  0  0  0  0  0  0  0  0  0  0
  -10.5549   -1.6689  -22.8559 C   0  0  0  0  0  0  0  0  0  0  0  0
  -11.2208   -2.5792  -22.0232 C   0  0  0  0  0  0  0  0  0  0  0  0
  -12.6039   -2.5915  -21.9689 C   0  0  0  0  0  0  0  0  0  0  0  0
  -13.4057   -3.7275  -20.9200 Cl  0  0  0  0  0  0  0  0  0  0  0  0
  -13.3733   -1.7011  -22.7168 C   0  0  0  0  0  0  0  0  0  0  0  0
  -12.7248   -0.7769  -23.5091 C   0  0  0  0  0  0  0  0  0  0  0  0
  -11.3320   -0.7427  -23.5700 C   0  0  0  0  0  0  0  0  0  0  0  0
  -10.7124    0.3637  -24.3734 C   0  0  0  0  0  0  0  0  0  0  0  0
  -11.3894    1.2137  -24.9330 O   0  0  0  0  0  0  0  0  0  0  0  0
  -13.2762   -0.0437  -24.0864 H   0  0  0  0  0  0  0  0  0  0  0  0
  -14.4560   -1.7314  -22.6574 H   0  0  0  0  0  0  0  0  0  0  0  0
  -10.6787   -3.2699  -21.3857 H   0  0  0  0  0  0  0  0  0  0  0  0
   -8.7197   -1.5337  -25.0184 H   0  0  0  0  0  0  0  0  0  0  0  0
   -7.5345   -0.5937  -24.0935 H   0  0  0  0  0  0  0  0  0  0  0  0
   -8.1073    1.1144  -25.9464 H   0  0  0  0  0  0  0  0  0  0  0  0
   -9.4403    2.1520  -25.4027 H   0  0  0  0  0  0  0  0  0  0  0  0
   -9.0822    2.3402  -22.6937 H   0  0  0  0  0  0  0  0  0  0  0  0
   -6.8459    2.5943  -21.4197 H   0  0  0  0  0  0  0  0  0  0  0  0
   -7.9085    4.0406  -21.4278 H   0  0  0  0  0  0  0  0  0  0  0  0
   -6.5512    3.8932  -22.5740 H   0  0  0  0  0  0  0  0  0  0  0  0
  1  2  1  0
  2  3  1  0
  3  4  2  0
  3  5  1  0
  5  6  1  0
  6  7  1  0
  8  7  1  6
  8  9  1  0
  9 10  2  0
  9 11  1  0
 11 12  1  0
 12 13  2  0
 13 14  1  0
 14 15  2  0
 15 16  1  0
 16 17  2  0
 17 18  1  0
 18 19  2  0
 19 20  1  0
 20 21  2  0
 20 22  1  0
 19 23  1  0
 18 24  1  0
 17 25  1  0
 15 26  1  0
 13 27  1  0
 11 28  1  0
 28 29  1  0
 29 30  1  0
 30 31  1  0
 31 32  1  0
 32 33  1  0
 33 34  2  0
 34 35  1  0
 35 36  1  0
 36 37  1  0
 36 38  1  0
 36 39  1  0
 35 40  1  0
 40 41  1  0
 33 42  1  0
 31 43  1  0
 30 44  1  0
 30 45  1  0
 29 46  1  1
 28 47  1  0
 28 48  1  0
  8 49  1  0
 49 50  2  0
 50 51  1  0
 51 52  1  0
 51 53  2  0
 53 54  1  0
 54 55  2  0
 55 56  1  0
 56 57  2  0
 54 58  1  0
 53 59  1  0
 50 60  1  0
  7 61  1  0
  7 62  1  0
  5 63  1  0
  5 64  1  0
  2 65  1  0
  1 66  1  0
  1 67  1  0
  1 68  1  0
 56  6  1  0
 29  8  1  0
 40 32  2  0
 55 49  1  0
 21 12  1  0
 21 16  1  0
M  END
>  <cnnaffinities>  (2) 
[6.48491, 6.42695, 6.48868]

>  <score>  (2) 
6.48491

>  <index>  (2) 
1

>  <Smiles>  (2) 
C(N(C(=O)C(N1C([C@@]2(C(=O)N(c3c(nc(c4c(c(c(c(c34)[H])[H])[H])[H])[H])[H])C([C@@]2(C(N(c2c(nn(C([H])([H])[H])c2[H])[H])[H])([H])[H])[H])([H])[H])c2c(c(Cl)c(c(c2C1=O)[H])[H])[H])([H])[H])([H])[H])[H])([H])([H])[H]

>  <h>  (2) 
<NA>

>  <Training>  (2) 
True

>  <Success>  (2) 
True

>  <enamine_searched>  (2) 
False

>  <enamine_id>  (2) 
nan

$$$$

     RDKit          3D

 60 65  0  0  0  0  0  0  0  0999 V2000
   -5.9970   -7.5398  -26.6563 C   0  0  0  0  0  0  0  0  0  0  0  0
   -6.4992   -6.1258  -26.7162 C   0  0  0  0  0  0  0  0  0  0  0  0
   -5.6677   -5.0649  -26.3590 C   0  0  0  0  0  0  0  0  0  0  0  0
   -6.0692   -3.8002  -26.3736 N   0  0  0  0  0  0  0  0  0  0  0  0
   -7.3105   -3.5652  -26.7943 C   0  0  0  0  0  0  0  0  0  0  0  0
   -7.7365   -2.1291  -26.8461 C   0  0  0  0  0  0  0  0  0  0  0  0
   -8.5632   -1.7956  -25.6980 N   0  0  0  0  0  0  0  0  0  0  0  0
   -7.9258   -1.2913  -24.4818 C   0  0  0  0  0  0  0  0  0  0  0  0
   -8.7378   -1.5823  -23.1894 C   0  0  2  0  0  0  0  0  0  0  0  0
   -8.1670   -0.6469  -22.1114 C   0  0  0  0  0  0  0  0  0  0  0  0
   -8.2894    0.5615  -22.0748 O   0  0  0  0  0  0  0  0  0  0  0  0
   -7.4456   -1.3877  -21.2003 N   0  0  0  0  0  0  0  0  0  0  0  0
   -6.6647   -0.7890  -20.1841 C   0  0  0  0  0  0  0  0  0  0  0  0
   -6.9194   -1.0991  -18.8710 C   0  0  0  0  0  0  0  0  0  0  0  0
   -6.2305   -0.6126  -17.8125 N   0  0  0  0  0  0  0  0  0  0  0  0
   -5.2159    0.1762  -18.0748 C   0  0  0  0  0  0  0  0  0  0  0  0
   -4.8363    0.5752  -19.3886 C   0  0  0  0  0  0  0  0  0  0  0  0
   -3.7264    1.4374  -19.6023 C   0  0  0  0  0  0  0  0  0  0  0  0
   -3.4451    1.9018  -20.8551 C   0  0  0  0  0  0  0  0  0  0  0  0
   -4.2299    1.4911  -21.9552 C   0  0  0  0  0  0  0  0  0  0  0  0
   -5.2339    0.5703  -21.7924 C   0  0  0  0  0  0  0  0  0  0  0  0
   -5.5906    0.1100  -20.4883 C   0  0  0  0  0  0  0  0  0  0  0  0
   -5.7819    0.2297  -22.6647 H   0  0  0  0  0  0  0  0  0  0  0  0
   -4.0300    1.9105  -22.9353 H   0  0  0  0  0  0  0  0  0  0  0  0
   -2.6505    2.6264  -21.0048 H   0  0  0  0  0  0  0  0  0  0  0  0
   -3.1244    1.7241  -18.7425 H   0  0  0  0  0  0  0  0  0  0  0  0
   -4.6482    0.5580  -17.2264 H   0  0  0  0  0  0  0  0  0  0  0  0
   -7.7470   -1.7650  -18.6362 H   0  0  0  0  0  0  0  0  0  0  0  0
   -7.3934   -2.8083  -21.5075 C   0  0  0  0  0  0  0  0  0  0  0  0
   -8.5244   -2.9944  -22.5285 C   0  0  2  0  0  0  0  0  0  0  0  0
   -8.3017   -4.1446  -23.4956 C   0  0  0  0  0  0  0  0  0  0  0  0
   -9.1122   -4.1814  -24.2313 H   0  0  0  0  0  0  0  0  0  0  0  0
   -8.2690   -5.0946  -22.9539 H   0  0  0  0  0  0  0  0  0  0  0  0
   -7.3564   -4.0177  -24.0324 H   0  0  0  0  0  0  0  0  0  0  0  0
   -9.4400   -3.1888  -21.9486 H   0  0  0  0  0  0  0  0  0  0  0  0
   -6.4105   -3.0856  -21.9173 H   0  0  0  0  0  0  0  0  0  0  0  0
   -7.5545   -3.4042  -20.6035 H   0  0  0  0  0  0  0  0  0  0  0  0
  -10.2031   -1.3066  -23.4752 C   0  0  0  0  0  0  0  0  0  0  0  0
  -11.0698   -1.0105  -22.4243 C   0  0  0  0  0  0  0  0  0  0  0  0
  -12.4178   -0.8422  -22.6777 C   0  0  0  0  0  0  0  0  0  0  0  0
  -13.2494   -0.5876  -21.6621 F   0  0  0  0  0  0  0  0  0  0  0  0
  -12.9653   -0.9527  -23.9493 C   0  0  0  0  0  0  0  0  0  0  0  0
  -12.1168   -1.2761  -24.9852 C   0  0  0  0  0  0  0  0  0  0  0  0
  -10.7548   -1.4492  -24.7496 C   0  0  0  0  0  0  0  0  0  0  0  0
   -9.9137   -1.8368  -25.9042 C   0  0  0  0  0  0  0  0  0  0  0  0
  -10.4045   -2.1688  -26.9772 O   0  0  0  0  0  0  0  0  0  0  0  0
  -12.4707   -1.4149  -26.0013 H   0  0  0  0  0  0  0  0  0  0  0  0
  -14.0260   -0.8001  -24.1096 H   0  0  0  0  0  0  0  0  0  0  0  0
  -10.6769   -0.9182  -21.4213 H   0  0  0  0  0  0  0  0  0  0  0  0
   -6.9172   -1.7250  -24.3996 H   0  0  0  0  0  0  0  0  0  0  0  0
   -7.8040   -0.1982  -24.5629 H   0  0  0  0  0  0  0  0  0  0  0  0
   -8.3299   -1.9232  -27.7426 H   0  0  0  0  0  0  0  0  0  0  0  0
   -6.8413   -1.5024  -26.8411 H   0  0  0  0  0  0  0  0  0  0  0  0
   -8.1566   -4.6181  -27.1356 C   0  0  0  0  0  0  0  0  0  0  0  0
   -7.7506   -5.8893  -27.1102 N   0  0  0  0  0  0  0  0  0  0  0  0
   -9.1858   -4.4324  -27.4370 H   0  0  0  0  0  0  0  0  0  0  0  0
   -4.6372   -5.2444  -26.0706 H   0  0  0  0  0  0  0  0  0  0  0  0
   -5.1625   -7.6755  -27.3557 H   0  0  0  0  0  0  0  0  0  0  0  0
   -5.6085   -7.7533  -25.6505 H   0  0  0  0  0  0  0  0  0  0  0  0
   -6.8045   -8.2342  -26.9119 H   0  0  0  0  0  0  0  0  0  0  0  0
  1  2  1  0
  2  3  2  0
  3  4  1  0
  4  5  2  0
  5  6  1  0
  6  7  1  0
  7  8  1  0
  9  8  1  6
  9 10  1  0
 10 11  2  0
 10 12  1  0
 12 13  1  0
 13 14  2  0
 14 15  1  0
 15 16  2  0
 16 17  1  0
 17 18  2  0
 18 19  1  0
 19 20  2  0
 20 21  1  0
 21 22  2  0
 21 23  1  0
 20 24  1  0
 19 25  1  0
 18 26  1  0
 16 27  1  0
 14 28  1  0
 12 29  1  0
 29 30  1  0
 30 31  1  0
 31 32  1  0
 31 33  1  0
 31 34  1  0
 30 35  1  1
 29 36  1  0
 29 37  1  0
  9 38  1  0
 38 39  2  0
 39 40  1  0
 40 41  1  0
 40 42  2  0
 42 43  1  0
 43 44  2  0
 44 45  1  0
 45 46  2  0
 43 47  1  0
 42 48  1  0
 39 49  1  0
  8 50  1  0
  8 51  1  0
  6 52  1  0
  6 53  1  0
  5 54  1  0
 54 55  2  0
 54 56  1  0
  3 57  1  0
  1 58  1  0
  1 59  1  0
  1 60  1  0
 55  2  1  0
 45  7  1  0
 30  9  1  0
 44 38  1  0
 22 13  1  0
 22 17  1  0
M  END
>  <cnnaffinities>  (3) 
[6.09123]

>  <score>  (3) 
6.09123

>  <index>  (3) 
2

>  <Smiles>  (3) 
C(c1c(nc(C(N2C([C@@]3(C(=O)N(c4c(nc(c5c(c(c(c(c45)[H])[H])[H])[H])[H])[H])C([C@@]3(C([H])([H])[H])[H])([H])[H])c3c(c(F)c(c(c3C2=O)[H])[H])[H])([H])[H])([H])[H])c(n1)[H])[H])([H])([H])[H]

>  <h>  (3) 
<NA>

>  <Training>  (3) 
True

>  <Success>  (3) 
True

>  <enamine_searched>  (3) 
False

>  <enamine_id>  (3) 
nan

$$$$

     RDKit          3D

 66 70  0  0  0  0  0  0  0  0999 V2000
   -7.6394    3.0590  -21.9702 C   0  0  0  0  0  0  0  0  0  0  0  0
   -8.8056    2.5856  -22.6982 N   0  0  0  0  0  0  0  0  0  0  0  0
   -8.5314    1.7686  -23.7588 C   0  0  0  0  0  0  0  0  0  0  0  0
   -7.3785    1.5055  -24.0863 O   0  0  0  0  0  0  0  0  0  0  0  0
   -9.6987    1.1712  -24.5366 C   0  0  0  0  0  0  0  0  0  0  0  0
  -10.1313   -0.0506  -23.8919 N   0  0  0  0  0  0  0  0  0  0  0  0
   -9.2358   -1.2001  -23.8857 C   0  0  0  0  0  0  0  0  0  0  0  0
   -9.3013   -1.9438  -22.5268 C   0  0  2  0  0  0  0  0  0  0  0  0
   -8.7072   -1.0084  -21.4396 C   0  0  0  0  0  0  0  0  0  0  0  0
   -9.2405   -0.0291  -20.9502 O   0  0  0  0  0  0  0  0  0  0  0  0
   -7.4230   -1.4301  -21.1574 N   0  0  0  0  0  0  0  0  0  0  0  0
   -6.6425   -0.8168  -20.1465 C   0  0  0  0  0  0  0  0  0  0  0  0
   -6.9343   -1.0619  -18.8252 C   0  0  0  0  0  0  0  0  0  0  0  0
   -6.2228   -0.5784  -17.7809 N   0  0  0  0  0  0  0  0  0  0  0  0
   -5.1959    0.1899  -18.0575 C   0  0  0  0  0  0  0  0  0  0  0  0
   -4.7977    0.5464  -19.3782 C   0  0  0  0  0  0  0  0  0  0  0  0
   -3.7004    1.4162  -19.6191 C   0  0  0  0  0  0  0  0  0  0  0  0
   -3.4288    1.8567  -20.8853 C   0  0  0  0  0  0  0  0  0  0  0  0
   -4.2220    1.4315  -21.9717 C   0  0  0  0  0  0  0  0  0  0  0  0
   -5.2337    0.5136  -21.7783 C   0  0  0  0  0  0  0  0  0  0  0  0
   -5.5580    0.0588  -20.4681 C   0  0  0  0  0  0  0  0  0  0  0  0
   -5.8160    0.1879  -22.6339 H   0  0  0  0  0  0  0  0  0  0  0  0
   -4.0462    1.8471  -22.9591 H   0  0  0  0  0  0  0  0  0  0  0  0
   -2.6046    2.5434  -21.0579 H   0  0  0  0  0  0  0  0  0  0  0  0
   -3.1058    1.7399  -18.7695 H   0  0  0  0  0  0  0  0  0  0  0  0
   -4.6208    0.5732  -17.2145 H   0  0  0  0  0  0  0  0  0  0  0  0
   -7.7827   -1.6951  -18.5797 H   0  0  0  0  0  0  0  0  0  0  0  0
   -6.9899   -2.5574  -21.9651 C   0  0  0  0  0  0  0  0  0  0  0  0
   -8.3222   -3.1459  -22.4546 C   0  0  2  0  0  0  0  0  0  0  0  0
   -8.2008   -3.9848  -23.7270 C   0  0  0  0  0  0  0  0  0  0  0  0
   -7.4539   -5.1538  -23.4804 O   0  0  0  0  0  0  0  0  0  0  0  0
   -6.1665   -5.2223  -24.0847 C   0  0  0  0  0  0  0  0  0  0  0  0
   -5.3405   -6.1395  -23.2007 C   0  0  0  0  0  0  0  0  0  0  0  0
   -4.3070   -6.2202  -23.5573 H   0  0  0  0  0  0  0  0  0  0  0  0
   -5.7925   -7.1365  -23.1908 H   0  0  0  0  0  0  0  0  0  0  0  0
   -5.3311   -5.7536  -22.1774 H   0  0  0  0  0  0  0  0  0  0  0  0
   -6.2574   -5.7354  -25.5202 C   0  0  0  0  0  0  0  0  0  0  0  0
   -6.8569   -5.0704  -26.1532 H   0  0  0  0  0  0  0  0  0  0  0  0
   -6.7179   -6.7301  -25.5376 H   0  0  0  0  0  0  0  0  0  0  0  0
   -5.2535   -5.8071  -25.9570 H   0  0  0  0  0  0  0  0  0  0  0  0
   -5.7099   -4.2166  -24.0951 H   0  0  0  0  0  0  0  0  0  0  0  0
   -9.2026   -4.2871  -24.0613 H   0  0  0  0  0  0  0  0  0  0  0  0
   -7.7475   -3.3814  -24.5340 H   0  0  0  0  0  0  0  0  0  0  0  0
   -8.6625   -3.8076  -21.6546 H   0  0  0  0  0  0  0  0  0  0  0  0
   -6.3677   -2.2284  -22.8138 H   0  0  0  0  0  0  0  0  0  0  0  0
   -6.4105   -3.2732  -21.3706 H   0  0  0  0  0  0  0  0  0  0  0  0
  -10.7699   -2.2716  -22.2947 C   0  0  0  0  0  0  0  0  0  0  0  0
  -11.1941   -3.4122  -21.6070 C   0  0  0  0  0  0  0  0  0  0  0  0
  -12.5263   -3.5696  -21.2651 C   0  0  0  0  0  0  0  0  0  0  0  0
  -12.9755   -4.8940  -20.2312 Cl  0  0  0  0  0  0  0  0  0  0  0  0
  -13.5058   -2.6649  -21.6599 C   0  0  0  0  0  0  0  0  0  0  0  0
  -13.1105   -1.5715  -22.3999 C   0  0  0  0  0  0  0  0  0  0  0  0
  -11.7666   -1.3753  -22.7084 C   0  0  0  0  0  0  0  0  0  0  0  0
  -11.4265   -0.1374  -23.4721 C   0  0  0  0  0  0  0  0  0  0  0  0
  -12.2544    0.7340  -23.6978 O   0  0  0  0  0  0  0  0  0  0  0  0
  -13.8197   -0.8274  -22.7423 H   0  0  0  0  0  0  0  0  0  0  0  0
  -14.5412   -2.8125  -21.3771 H   0  0  0  0  0  0  0  0  0  0  0  0
  -10.5046   -4.1790  -21.2851 H   0  0  0  0  0  0  0  0  0  0  0  0
   -9.5208   -1.8966  -24.6862 H   0  0  0  0  0  0  0  0  0  0  0  0
   -8.2200   -0.8446  -24.0868 H   0  0  0  0  0  0  0  0  0  0  0  0
   -9.3429    0.9416  -25.5465 H   0  0  0  0  0  0  0  0  0  0  0  0
  -10.5663    1.8349  -24.6105 H   0  0  0  0  0  0  0  0  0  0  0  0
   -9.6425    2.4421  -22.1394 H   0  0  0  0  0  0  0  0  0  0  0  0
   -7.1273    2.2188  -21.4791 H   0  0  0  0  0  0  0  0  0  0  0  0
   -7.9209    3.8165  -21.2378 H   0  0  0  0  0  0  0  0  0  0  0  0
   -6.9597    3.5284  -22.6869 H   0  0  0  0  0  0  0  0  0  0  0  0
  1  2  1  0
  2  3  1  0
  3  4  2  0
  3  5  1  0
  5  6  1  0
  6  7  1  0
  8  7  1  6
  8  9  1  0
  9 10  2  0
  9 11  1  0
 11 12  1  0
 12 13  2  0
 13 14  1  0
 14 15  2  0
 15 16  1  0
 16 17  2  0
 17 18  1  0
 18 19  2  0
 19 20  1  0
 20 21  2  0
 20 22  1  0
 19 23  1  0
 18 24  1  0
 17 25  1  0
 15 26  1  0
 13 27  1  0
 11 28  1  0
 28 29  1  0
 29 30  1  0
 30 31  1  0
 31 32  1  0
 32 33  1  0
 33 34  1  0
 33 35  1  0
 33 36  1  0
 32 37  1  0
 37 38  1  0
 37 39  1  0
 37 40  1  0
 32 41  1  0
 30 42  1  0
 30 43  1  0
 29 44  1  1
 28 45  1  0
 28 46  1  0
  8 47  1  0
 47 48  2  0
 48 49  1  0
 49 50  1  0
 49 51  2  0
 51 52  1  0
 52 53  2  0
 53 54  1  0
 54 55  2  0
 52 56  1  0
 51 57  1  0
 48 58  1  0
  7 59  1  0
  7 60  1  0
  5 61  1  0
  5 62  1  0
  2 63  1  0
  1 64  1  0
  1 65  1  0
  1 66  1  0
 54  6  1  0
 29  8  1  0
 53 47  1  0
 21 12  1  0
 21 16  1  0
M  END
>  <cnnaffinities>  (4) 
[6.60589, 5.88981]

>  <score>  (4) 
6.60589

>  <index>  (4) 
3

>  <Smiles>  (4) 
C(N(C(=O)C(N1C([C@@]2(C(=O)N(c3c(nc(c4c(c(c(c(c34)[H])[H])[H])[H])[H])[H])C([C@@]2(C(OC(C([H])([H])[H])(C([H])([H])[H])[H])([H])[H])[H])([H])[H])c2c(c(Cl)c(c(c2C1=O)[H])[H])[H])([H])[H])([H])[H])[H])([H])([H])[H]

>  <h>  (4) 
<NA>

>  <Training>  (4) 
True

>  <Success>  (4) 
True

>  <enamine_searched>  (4) 
False

>  <enamine_id>  (4) 
nan

$$$$

     RDKit          3D

 59 64  0  0  0  0  0  0  0  0999 V2000
   -8.2743   -4.1370  -23.4974 C   0  0  0  0  0  0  0  0  0  0  0  0
   -8.5153   -2.9914  -22.5294 C   0  0  1  0  0  0  0  0  0  0  0  0
   -7.3794   -2.8000  -21.5152 C   0  0  0  0  0  0  0  0  0  0  0  0
   -7.4469   -1.3827  -21.1999 N   0  0  0  0  0  0  0  0  0  0  0  0
   -6.6645   -0.7858  -20.1841 C   0  0  0  0  0  0  0  0  0  0  0  0
   -6.9193   -1.0983  -18.8722 C   0  0  0  0  0  0  0  0  0  0  0  0
   -6.2302   -0.6109  -17.8142 N   0  0  0  0  0  0  0  0  0  0  0  0
   -5.2154    0.1758  -18.0763 C   0  0  0  0  0  0  0  0  0  0  0  0
   -4.8336    0.5742  -19.3879 C   0  0  0  0  0  0  0  0  0  0  0  0
   -3.7253    1.4386  -19.6038 C   0  0  0  0  0  0  0  0  0  0  0  0
   -3.4440    1.8993  -20.8561 C   0  0  0  0  0  0  0  0  0  0  0  0
   -4.2268    1.4896  -21.9578 C   0  0  0  0  0  0  0  0  0  0  0  0
   -5.2317    0.5700  -21.7935 C   0  0  0  0  0  0  0  0  0  0  0  0
   -5.5905    0.1129  -20.4885 C   0  0  0  0  0  0  0  0  0  0  0  0
   -5.7803    0.2288  -22.6660 H   0  0  0  0  0  0  0  0  0  0  0  0
   -4.0253    1.9081  -22.9404 H   0  0  0  0  0  0  0  0  0  0  0  0
   -2.6483    2.6256  -21.0073 H   0  0  0  0  0  0  0  0  0  0  0  0
   -3.1215    1.7220  -18.7418 H   0  0  0  0  0  0  0  0  0  0  0  0
   -4.6488    0.5571  -17.2266 H   0  0  0  0  0  0  0  0  0  0  0  0
   -7.7467   -1.7643  -18.6370 H   0  0  0  0  0  0  0  0  0  0  0  0
   -8.1701   -0.6424  -22.1115 C   0  0  0  0  0  0  0  0  0  0  0  0
   -8.2930    0.5652  -22.0740 O   0  0  0  0  0  0  0  0  0  0  0  0
   -8.7396   -1.5808  -23.1904 C   0  0  1  0  0  0  0  0  0  0  0  0
   -7.9407   -1.2907  -24.4880 C   0  0  0  0  0  0  0  0  0  0  0  0
   -8.5659   -1.8513  -25.6898 N   0  0  0  0  0  0  0  0  0  0  0  0
   -7.7068   -2.0651  -26.8414 C   0  0  0  0  0  0  0  0  0  0  0  0
   -6.9383   -3.3338  -26.6869 C   0  0  0  0  0  0  0  0  0  0  0  0
   -5.7226   -3.3920  -26.1901 N   0  0  0  0  0  0  0  0  0  0  0  0
   -5.3809   -4.7207  -26.2367 C   0  0  0  0  0  0  0  0  0  0  0  0
   -6.4210   -5.4593  -26.7214 C   0  0  0  0  0  0  0  0  0  0  0  0
   -7.4322   -4.5660  -27.0110 N   0  0  0  0  0  0  0  0  0  0  0  0
   -8.7756   -4.8854  -27.4731 C   0  0  0  0  0  0  0  0  0  0  0  0
   -9.0295   -4.2831  -28.3520 H   0  0  0  0  0  0  0  0  0  0  0  0
   -9.5160   -4.7089  -26.6834 H   0  0  0  0  0  0  0  0  0  0  0  0
   -8.8133   -5.9431  -27.7541 H   0  0  0  0  0  0  0  0  0  0  0  0
   -6.5304   -6.5204  -26.8882 H   0  0  0  0  0  0  0  0  0  0  0  0
   -4.3954   -5.0607  -25.9430 H   0  0  0  0  0  0  0  0  0  0  0  0
   -8.3422   -2.0757  -27.7283 H   0  0  0  0  0  0  0  0  0  0  0  0
   -7.0016   -1.2334  -26.9228 H   0  0  0  0  0  0  0  0  0  0  0  0
   -9.9116   -1.7826  -25.9226 C   0  0  0  0  0  0  0  0  0  0  0  0
  -10.4119   -2.0056  -27.0211 O   0  0  0  0  0  0  0  0  0  0  0  0
  -10.7547   -1.4348  -24.7529 C   0  0  0  0  0  0  0  0  0  0  0  0
  -12.1194   -1.2711  -24.9796 C   0  0  0  0  0  0  0  0  0  0  0  0
  -12.9736   -0.9738  -23.9399 C   0  0  0  0  0  0  0  0  0  0  0  0
  -12.4244   -0.8698  -22.6682 C   0  0  0  0  0  0  0  0  0  0  0  0
  -13.2578   -0.6298  -21.6510 F   0  0  0  0  0  0  0  0  0  0  0  0
  -11.0744   -1.0318  -22.4173 C   0  0  0  0  0  0  0  0  0  0  0  0
  -10.2062   -1.3118  -23.4738 C   0  0  0  0  0  0  0  0  0  0  0  0
  -10.6837   -0.9479  -21.4123 H   0  0  0  0  0  0  0  0  0  0  0  0
  -14.0387   -0.8312  -24.0934 H   0  0  0  0  0  0  0  0  0  0  0  0
  -12.4793   -1.4000  -25.9942 H   0  0  0  0  0  0  0  0  0  0  0  0
   -6.9172   -1.6817  -24.4053 H   0  0  0  0  0  0  0  0  0  0  0  0
   -7.8620   -0.1961  -24.5932 H   0  0  0  0  0  0  0  0  0  0  0  0
   -6.3965   -3.0683  -21.9353 H   0  0  0  0  0  0  0  0  0  0  0  0
   -7.5262   -3.4030  -20.6135 H   0  0  0  0  0  0  0  0  0  0  0  0
   -9.4288   -3.1911  -21.9468 H   0  0  0  0  0  0  0  0  0  0  0  0
   -7.3335   -3.9779  -24.0342 H   0  0  0  0  0  0  0  0  0  0  0  0
   -8.2133   -5.0857  -22.9560 H   0  0  0  0  0  0  0  0  0  0  0  0
   -9.0909   -4.1950  -24.2231 H   0  0  0  0  0  0  0  0  0  0  0  0
  1  2  1  0
  2  3  1  0
  3  4  1  0
  4  5  1  0
  5  6  2  0
  6  7  1  0
  7  8  2  0
  8  9  1  0
  9 10  2  0
 10 11  1  0
 11 12  2  0
 12 13  1  0
 13 14  2  0
 13 15  1  0
 12 16  1  0
 11 17  1  0
 10 18  1  0
  8 19  1  0
  6 20  1  0
  4 21  1  0
 21 22  2  0
 21 23  1  0
 23 24  1  6
 24 25  1  0
 25 26  1  0
 26 27  1  0
 27 28  2  0
 28 29  1  0
 29 30  2  0
 30 31  1  0
 31 32  1  0
 32 33  1  0
 32 34  1  0
 32 35  1  0
 30 36  1  0
 29 37  1  0
 26 38  1  0
 26 39  1  0
 25 40  1  0
 40 41  2  0
 40 42  1  0
 42 43  2  0
 43 44  1  0
 44 45  2  0
 45 46  1  0
 45 47  1  0
 47 48  2  0
 47 49  1  0
 44 50  1  0
 43 51  1  0
 24 52  1  0
 24 53  1  0
  3 54  1  0
  3 55  1  0
  2 56  1  1
  1 57  1  0
  1 58  1  0
  1 59  1  0
 23  2  1  0
 31 27  1  0
 48 42  1  0
 14  5  1  0
 48 23  1  0
 14  9  1  0
M  END
>  <cnnaffinities>  (5) 
[5.90051]

>  <score>  (5) 
5.90051

>  <index>  (5) 
4

>  <Smiles>  (5) 
C([C@]1(C(N(c2c(nc(c3c(c(c(c(c23)[H])[H])[H])[H])[H])[H])C(=O)[C@]21C(N(C(c1nc(c(n1C([H])([H])[H])[H])[H])([H])[H])C(=O)c1c(c(c(F)c(c21)[H])[H])[H])([H])[H])([H])[H])[H])([H])([H])[H]

>  <h>  (5) 
<NA>

>  <Training>  (5) 
True

>  <Success>  (5) 
True

>  <enamine_searched>  (5) 
False

>  <enamine_id>  (5) 
nan

$$$$

     RDKit          3D

 58 61  0  0  0  0  0  0  0  0999 V2000
   -5.7470   -4.0744  -20.3193 C   0  0  0  0  0  0  0  0  0  0  0  0
   -6.2597   -3.3293  -21.2920 C   0  0  0  0  0  0  0  0  0  0  0  0
   -7.6564   -2.8012  -21.3251 C   0  0  0  0  0  0  0  0  0  0  0  0
   -7.5805   -1.3532  -21.1065 N   0  0  0  0  0  0  0  0  0  0  0  0
   -8.3874   -0.4042  -21.7572 C   0  0  0  0  0  0  0  0  0  0  0  0
   -8.7979    0.5625  -21.1482 O   0  0  0  0  0  0  0  0  0  0  0  0
   -8.6430   -0.6017  -23.2446 C   0  0  2  0  0  0  0  0  0  0  0  0
   -8.4702    0.7469  -23.9597 C   0  0  0  0  0  0  0  0  0  0  0  0
   -8.7169    0.5777  -25.3808 N   0  0  0  0  0  0  0  0  0  0  0  0
   -7.8017    1.1271  -26.3658 C   0  0  0  0  0  0  0  0  0  0  0  0
   -6.8053    0.0997  -26.9289 C   0  0  0  0  0  0  0  0  0  0  0  0
   -6.9001   -0.3650  -28.0537 O   0  0  0  0  0  0  0  0  0  0  0  0
   -5.7760   -0.2260  -26.0888 N   0  0  0  0  0  0  0  0  0  0  0  0
   -4.8321   -1.2661  -26.4684 C   0  0  0  0  0  0  0  0  0  0  0  0
   -5.3407   -2.2251  -26.6333 H   0  0  0  0  0  0  0  0  0  0  0  0
   -4.2984   -0.9912  -27.3850 H   0  0  0  0  0  0  0  0  0  0  0  0
   -4.1046   -1.3891  -25.6602 H   0  0  0  0  0  0  0  0  0  0  0  0
   -5.7566    0.0864  -25.1280 H   0  0  0  0  0  0  0  0  0  0  0  0
   -8.3897    1.4893  -27.2074 H   0  0  0  0  0  0  0  0  0  0  0  0
   -7.2607    1.9667  -25.9100 H   0  0  0  0  0  0  0  0  0  0  0  0
   -9.8421   -0.0656  -25.8417 C   0  0  0  0  0  0  0  0  0  0  0  0
  -10.2320    0.0371  -26.9936 O   0  0  0  0  0  0  0  0  0  0  0  0
  -10.5503   -0.9193  -24.8410 C   0  0  0  0  0  0  0  0  0  0  0  0
  -11.7631   -1.4875  -25.2271 C   0  0  0  0  0  0  0  0  0  0  0  0
  -12.4580   -2.3051  -24.3537 C   0  0  0  0  0  0  0  0  0  0  0  0
  -11.9173   -2.5441  -23.0936 C   0  0  0  0  0  0  0  0  0  0  0  0
  -12.7715   -3.5747  -21.9843 Cl  0  0  0  0  0  0  0  0  0  0  0  0
  -10.7080   -1.9898  -22.6993 C   0  0  0  0  0  0  0  0  0  0  0  0
  -10.0076   -1.1667  -23.5777 C   0  0  0  0  0  0  0  0  0  0  0  0
  -10.3163   -2.2049  -21.7114 H   0  0  0  0  0  0  0  0  0  0  0  0
  -13.4034   -2.7573  -24.6305 H   0  0  0  0  0  0  0  0  0  0  0  0
  -12.1313   -1.2778  -26.2262 H   0  0  0  0  0  0  0  0  0  0  0  0
   -9.1520    1.4818  -23.5119 H   0  0  0  0  0  0  0  0  0  0  0  0
   -7.4481    1.1177  -23.8236 H   0  0  0  0  0  0  0  0  0  0  0  0
   -7.8680   -1.2785  -23.6262 H   0  0  0  0  0  0  0  0  0  0  0  0
   -6.7357   -0.8441  -20.0962 C   0  0  0  0  0  0  0  0  0  0  0  0
   -6.9464   -1.1685  -18.7781 C   0  0  0  0  0  0  0  0  0  0  0  0
   -6.1990   -0.7076  -17.7454 N   0  0  0  0  0  0  0  0  0  0  0  0
   -5.2480    0.1462  -18.0313 C   0  0  0  0  0  0  0  0  0  0  0  0
   -4.9369    0.5839  -19.3515 C   0  0  0  0  0  0  0  0  0  0  0  0
   -3.9470    1.5727  -19.5927 C   0  0  0  0  0  0  0  0  0  0  0  0
   -3.7052    2.0115  -20.8630 C   0  0  0  0  0  0  0  0  0  0  0  0
   -4.3855    1.4307  -21.9605 C   0  0  0  0  0  0  0  0  0  0  0  0
   -5.2851    0.4045  -21.7636 C   0  0  0  0  0  0  0  0  0  0  0  0
   -5.6629    0.0429  -20.4334 C   0  0  0  0  0  0  0  0  0  0  0  0
   -5.6556   -0.1932  -22.6047 H   0  0  0  0  0  0  0  0  0  0  0  0
   -4.1696    1.7964  -22.9623 H   0  0  0  0  0  0  0  0  0  0  0  0
   -2.9699    2.7935  -21.0403 H   0  0  0  0  0  0  0  0  0  0  0  0
   -3.4089    1.9800  -18.7383 H   0  0  0  0  0  0  0  0  0  0  0  0
   -4.6499    0.5308  -17.2031 H   0  0  0  0  0  0  0  0  0  0  0  0
   -7.7712   -1.8240  -18.5116 H   0  0  0  0  0  0  0  0  0  0  0  0
   -8.2657   -3.2824  -20.5441 H   0  0  0  0  0  0  0  0  0  0  0  0
   -8.1292   -2.9753  -22.2941 H   0  0  0  0  0  0  0  0  0  0  0  0
   -5.3384   -2.6752  -22.3262 C   0  0  0  0  0  0  0  0  0  0  0  0
   -4.1251   -2.8224  -22.0945 O   0  0  0  0  0  0  0  0  0  0  0  0
   -5.8500   -2.1215  -23.3306 O   0  0  0  0  0  1  0  0  0  0  0  0
   -6.3688   -4.4531  -19.5098 H   0  0  0  0  0  0  0  0  0  0  0  0
   -4.6878   -4.2848  -20.2872 H   0  0  0  0  0  0  0  0  0  0  0  0
  1  2  2  0
  2  3  1  0
  3  4  1  0
  4  5  1  0
  5  6  2  0
  5  7  1  0
  7  8  1  0
  8  9  1  0
  9 10  1  0
 10 11  1  0
 11 12  2  0
 11 13  1  0
 13 14  1  0
 14 15  1  0
 14 16  1  0
 14 17  1  0
 13 18  1  0
 10 19  1  0
 10 20  1  0
  9 21  1  0
 21 22  2  0
 21 23  1  0
 23 24  2  0
 24 25  1  0
 25 26  2  0
 26 27  1  0
 26 28  1  0
 28 29  2  0
 28 30  1  0
 25 31  1  0
 24 32  1  0
  8 33  1  0
  8 34  1  0
  7 35  1  6
  4 36  1  0
 36 37  2  0
 37 38  1  0
 38 39  2  0
 39 40  1  0
 40 41  2  0
 41 42  1  0
 42 43  2  0
 43 44  1  0
 44 45  2  0
 44 46  1  0
 43 47  1  0
 42 48  1  0
 41 49  1  0
 39 50  1  0
 37 51  1  0
  3 52  1  0
  3 53  1  0
  2 54  1  0
 54 55  2  0
 54 56  1  0
  1 57  1  0
  1 58  1  0
 29  7  1  0
 45 36  1  0
 29 23  1  0
 45 40  1  0
M  CHG  1  56  -1
M  END
>  <cnnaffinities>  (6) 
[6.0003, 5.81347]

>  <score>  (6) 
6.0003

>  <index>  (6) 
5

>  <Smiles>  (6) 
C(=C(C(N(C(=O)[C@@]1(C(N(C(C(=O)N(C([H])([H])[H])[H])([H])[H])C(=O)c2c(c(c(Cl)c(c12)[H])[H])[H])([H])[H])[H])c1c(nc(c2c(c(c(c(c12)[H])[H])[H])[H])[H])[H])([H])[H])C(=O)[O-])([H])[H]

>  <h>  (6) 
<NA>

>  <Training>  (6) 
True

>  <Success>  (6) 
True

>  <enamine_searched>  (6) 
False

>  <enamine_id>  (6) 
nan

$$$$

     RDKit          3D

 43 45  0  0  0  0  0  0  0  0999 V2000
  -14.4806   -2.7017  -22.6900 C   0  0  0  0  0  0  0  0  0  0  0  0
  -13.0358   -3.0859  -23.0115 C   0  0  0  0  0  0  0  0  0  0  0  0
  -12.1867   -1.9588  -23.6232 C   0  0  0  0  0  0  0  0  0  0  0  0
  -12.0490   -0.7799  -22.6452 C   0  0  0  0  0  0  0  0  0  0  0  0
  -10.7207   -0.0470  -22.7465 C   0  0  0  0  0  0  0  0  0  0  0  0
   -9.6266   -0.9566  -22.4349 N   0  0  0  0  0  0  0  0  0  0  0  0
   -8.5611   -0.4270  -21.7586 C   0  0  0  0  0  0  0  0  0  0  0  0
   -8.4686    0.7674  -21.5331 O   0  0  0  0  0  0  0  0  0  0  0  0
   -7.4937   -1.4041  -21.2575 C   0  0  0  0  0  0  0  0  0  0  0  0
   -6.6454   -0.7999  -20.1698 C   0  0  0  0  0  0  0  0  0  0  0  0
   -6.9177   -1.0630  -18.8529 C   0  0  0  0  0  0  0  0  0  0  0  0
   -6.2148   -0.5928  -17.7866 N   0  0  0  0  0  0  0  0  0  0  0  0
   -5.2107    0.2103  -18.0516 C   0  0  0  0  0  0  0  0  0  0  0  0
   -4.8246    0.5894  -19.3668 C   0  0  0  0  0  0  0  0  0  0  0  0
   -3.6925    1.4140  -19.6070 C   0  0  0  0  0  0  0  0  0  0  0  0
   -3.4086    1.8555  -20.8701 C   0  0  0  0  0  0  0  0  0  0  0  0
   -4.2174    1.4500  -21.9556 C   0  0  0  0  0  0  0  0  0  0  0  0
   -5.2204    0.5263  -21.7717 C   0  0  0  0  0  0  0  0  0  0  0  0
   -5.5672    0.0897  -20.4612 C   0  0  0  0  0  0  0  0  0  0  0  0
   -5.7736    0.1461  -22.6237 H   0  0  0  0  0  0  0  0  0  0  0  0
   -4.0390    1.8702  -22.9476 H   0  0  0  0  0  0  0  0  0  0  0  0
   -2.5635    2.5219  -21.0453 H   0  0  0  0  0  0  0  0  0  0  0  0
   -3.0893    1.7100  -18.7523 H   0  0  0  0  0  0  0  0  0  0  0  0
   -4.6304    0.5880  -17.2048 H   0  0  0  0  0  0  0  0  0  0  0  0
   -7.7551   -1.7089  -18.5827 H   0  0  0  0  0  0  0  0  0  0  0  0
   -6.8847   -1.7375  -22.1107 H   0  0  0  0  0  0  0  0  0  0  0  0
   -8.0068   -2.2950  -20.8747 H   0  0  0  0  0  0  0  0  0  0  0  0
   -9.7519   -2.3431  -22.8813 C   0  0  0  0  0  0  0  0  0  0  0  0
  -10.7796   -2.4481  -24.0106 C   0  0  0  0  0  0  0  0  0  0  0  0
  -10.4105   -1.8375  -24.8395 H   0  0  0  0  0  0  0  0  0  0  0  0
  -10.8252   -3.4804  -24.3750 H   0  0  0  0  0  0  0  0  0  0  0  0
   -8.7819   -2.6859  -23.2566 H   0  0  0  0  0  0  0  0  0  0  0  0
  -10.0231   -3.0058  -22.0469 H   0  0  0  0  0  0  0  0  0  0  0  0
  -10.5716    0.3797  -23.7439 H   0  0  0  0  0  0  0  0  0  0  0  0
  -10.6439    0.7799  -22.0405 H   0  0  0  0  0  0  0  0  0  0  0  0
  -12.8836   -0.0723  -22.7013 H   0  0  0  0  0  0  0  0  0  0  0  0
  -12.0783   -1.2251  -21.6535 H   0  0  0  0  0  0  0  0  0  0  0  0
  -12.6910   -1.6355  -24.5437 H   0  0  0  0  0  0  0  0  0  0  0  0
  -12.5378   -3.4369  -22.0977 H   0  0  0  0  0  0  0  0  0  0  0  0
  -13.0405   -3.9390  -23.7011 H   0  0  0  0  0  0  0  0  0  0  0  0
  -15.0408   -3.5668  -22.3213 H   0  0  0  0  0  0  0  0  0  0  0  0
  -14.5431   -1.9253  -21.9196 H   0  0  0  0  0  0  0  0  0  0  0  0
  -15.0002   -2.3257  -23.5790 H   0  0  0  0  0  0  0  0  0  0  0  0
  1  2  1  0
  2  3  1  0
  3  4  1  0
  4  5  1  0
  5  6  1  0
  6  7  1  0
  7  8  2  0
  7  9  1  0
  9 10  1  0
 10 11  2  0
 11 12  1  0
 12 13  2  0
 13 14  1  0
 14 15  2  0
 15 16  1  0
 16 17  2  0
 17 18  1  0
 18 19  2  0
 18 20  1  0
 17 21  1  0
 16 22  1  0
 15 23  1  0
 13 24  1  0
 11 25  1  0
  9 26  1  0
  9 27  1  0
  6 28  1  0
 28 29  1  0
 29 30  1  0
 29 31  1  0
 28 32  1  0
 28 33  1  0
  5 34  1  0
  5 35  1  0
  4 36  1  0
  4 37  1  0
  3 38  1  0
  2 39  1  0
  2 40  1  0
  1 41  1  0
  1 42  1  0
  1 43  1  0
 29  3  1  0
 19 10  1  0
 19 14  1  0
M  END
>  <cnnaffinities>  (7) 
[4.46379, 4.55355, 4.56035, 4.56018, 4.72135, 4.72139, 4.5765]

>  <score>  (7) 
4.46379

>  <index>  (7) 
6

>  <Smiles>  (7) 
C(C(C1(C(C(N(C(=O)C(c2c(nc(c3c(c(c(c(c23)[H])[H])[H])[H])[H])[H])([H])[H])C(C1([H])[H])([H])[H])([H])[H])([H])[H])[H])([H])[H])([H])([H])[H]

>  <h>  (7) 
<NA>

>  <Training>  (7) 
True

>  <Success>  (7) 
True

>  <enamine_searched>  (7) 
False

>  <enamine_id>  (7) 
nan

$$$$

     RDKit          3D

 44 47  0  0  0  0  0  0  0  0999 V2000
  -13.9816   -0.8745  -23.5803 C   0  0  0  0  0  0  0  0  0  0  0  0
  -13.4125   -1.1030  -24.9713 C   0  0  0  0  0  0  0  0  0  0  0  0
  -11.8761   -2.0338  -24.9962 S   0  0  0  0  0  0  0  0  0  0  0  0
  -12.0948   -3.2760  -24.2629 O   0  0  0  0  0  0  0  0  0  0  0  0
  -11.4090   -2.0862  -26.3674 O   0  0  0  0  0  0  0  0  0  0  0  0
  -10.7921   -1.0247  -24.1673 N   0  0  0  0  0  0  0  0  0  0  0  0
   -9.3432   -1.3865  -24.2732 C   0  0  0  0  0  0  0  0  0  0  0  0
   -9.2423   -1.4890  -22.7366 C   0  0  0  0  0  0  0  0  0  0  0  0
  -10.7270   -1.0647  -22.6860 C   0  0  0  0  0  0  0  0  0  0  0  0
  -11.3915   -1.7811  -22.1989 H   0  0  0  0  0  0  0  0  0  0  0  0
  -10.8496   -0.0589  -22.2786 H   0  0  0  0  0  0  0  0  0  0  0  0
   -8.2936   -0.5266  -22.0537 C   0  0  0  0  0  0  0  0  0  0  0  0
   -8.2274    0.6694  -22.2150 O   0  0  0  0  0  0  0  0  0  0  0  0
   -7.5179   -1.2874  -21.1789 N   0  0  0  0  0  0  0  0  0  0  0  0
   -6.6729   -0.7738  -20.1659 C   0  0  0  0  0  0  0  0  0  0  0  0
   -6.9225   -1.0995  -18.8551 C   0  0  0  0  0  0  0  0  0  0  0  0
   -6.2210   -0.6184  -17.8035 N   0  0  0  0  0  0  0  0  0  0  0  0
   -5.2136    0.1737  -18.0775 C   0  0  0  0  0  0  0  0  0  0  0  0
   -4.8221    0.5442  -19.3937 C   0  0  0  0  0  0  0  0  0  0  0  0
   -3.7151    1.3982  -19.6153 C   0  0  0  0  0  0  0  0  0  0  0  0
   -3.4332    1.8478  -20.8724 C   0  0  0  0  0  0  0  0  0  0  0  0
   -4.2185    1.4285  -21.9695 C   0  0  0  0  0  0  0  0  0  0  0  0
   -5.2169    0.5043  -21.8001 C   0  0  0  0  0  0  0  0  0  0  0  0
   -5.5812    0.0836  -20.4883 C   0  0  0  0  0  0  0  0  0  0  0  0
   -5.7320    0.1141  -22.6732 H   0  0  0  0  0  0  0  0  0  0  0  0
   -4.0109    1.8273  -22.9579 H   0  0  0  0  0  0  0  0  0  0  0  0
   -2.6161    2.5428  -21.0329 H   0  0  0  0  0  0  0  0  0  0  0  0
   -3.1279    1.6989  -18.7540 H   0  0  0  0  0  0  0  0  0  0  0  0
   -4.6517    0.5737  -17.2340 H   0  0  0  0  0  0  0  0  0  0  0  0
   -7.7413   -1.7725  -18.6131 H   0  0  0  0  0  0  0  0  0  0  0  0
   -7.8800   -2.6421  -21.2233 C   0  0  0  0  0  0  0  0  0  0  0  0
   -7.3965   -3.5212  -20.5412 O   0  0  0  0  0  0  0  0  0  0  0  0
   -8.8537   -2.7599  -22.1741 N   0  0  0  0  0  0  0  0  0  0  0  0
   -9.5224   -4.0147  -22.4314 C   0  0  0  0  0  0  0  0  0  0  0  0
   -9.6571   -4.1705  -23.5042 H   0  0  0  0  0  0  0  0  0  0  0  0
  -10.4973   -4.0721  -21.9260 H   0  0  0  0  0  0  0  0  0  0  0  0
   -8.8643   -4.7978  -22.0537 H   0  0  0  0  0  0  0  0  0  0  0  0
   -8.7704   -0.5657  -24.7091 H   0  0  0  0  0  0  0  0  0  0  0  0
   -9.1471   -2.3246  -24.7980 H   0  0  0  0  0  0  0  0  0  0  0  0
  -14.0871   -1.7216  -25.5726 H   0  0  0  0  0  0  0  0  0  0  0  0
  -13.2222   -0.1705  -25.5094 H   0  0  0  0  0  0  0  0  0  0  0  0
  -14.0583   -1.8224  -23.0434 H   0  0  0  0  0  0  0  0  0  0  0  0
  -13.3725   -0.1779  -22.9945 H   0  0  0  0  0  0  0  0  0  0  0  0
  -14.9831   -0.4447  -23.6651 H   0  0  0  0  0  0  0  0  0  0  0  0
  1  2  1  0
  2  3  1  0
  3  4  2  0
  3  5  2  0
  3  6  1  0
  6  7  1  0
  7  8  1  0
  8  9  1  0
  9 10  1  0
  9 11  1  0
  8 12  1  0
 12 13  2  0
 12 14  1  0
 14 15  1  0
 15 16  2  0
 16 17  1  0
 17 18  2  0
 18 19  1  0
 19 20  2  0
 20 21  1  0
 21 22  2  0
 22 23  1  0
 23 24  2  0
 23 25  1  0
 22 26  1  0
 21 27  1  0
 20 28  1  0
 18 29  1  0
 16 30  1  0
 14 31  1  0
 31 32  2  0
 31 33  1  0
 33 34  1  0
 34 35  1  0
 34 36  1  0
 34 37  1  0
  7 38  1  0
  7 39  1  0
  2 40  1  0
  2 41  1  0
  1 42  1  0
  1 43  1  0
  1 44  1  0
  9  6  1  0
 24 15  1  0
 33  8  1  0
 24 19  1  0
M  END
>  <cnnaffinities>  (8) 
[4.99153, 4.86577, 4.86589]

>  <score>  (8) 
4.99153

>  <index>  (8) 
7

>  <Smiles>  (8) 
C(C(S(=O)(=O)N1C(C2(C1([H])[H])C(=O)N(c1c(nc(c3c(c(c(c(c13)[H])[H])[H])[H])[H])[H])C(=O)N2C([H])([H])[H])([H])[H])([H])[H])([H])([H])[H]

>  <h>  (8) 
<NA>

>  <Training>  (8) 
True

>  <Success>  (8) 
True

>  <enamine_searched>  (8) 
False

>  <enamine_id>  (8) 
nan

$$$$

     RDKit          3D

 60 64  0  0  0  0  0  0  0  0999 V2000
   -7.3952    3.4042  -21.8473 C   0  0  0  0  0  0  0  0  0  0  0  0
   -8.2792    2.9558  -22.9028 N   0  0  0  0  0  0  0  0  0  0  0  0
   -7.7242    2.2232  -23.9045 C   0  0  0  0  0  0  0  0  0  0  0  0
   -6.5155    2.0804  -24.0116 O   0  0  0  0  0  0  0  0  0  0  0  0
   -8.6835    1.6002  -24.9099 C   0  0  0  0  0  0  0  0  0  0  0  0
   -9.3868    0.4585  -24.3719 N   0  0  0  0  0  0  0  0  0  0  0  0
   -8.6623   -0.7875  -24.1968 C   0  0  0  0  0  0  0  0  0  0  0  0
   -9.0501   -1.4999  -22.8846 C   0  0  2  0  0  0  0  0  0  0  0  0
   -8.5087   -0.7247  -21.6642 C   0  0  0  0  0  0  0  0  0  0  0  0
   -8.9454    0.2998  -21.1811 O   0  0  0  0  0  0  0  0  0  0  0  0
   -7.4077   -1.3855  -21.1792 N   0  0  0  0  0  0  0  0  0  0  0  0
   -6.6229   -0.8001  -20.1551 C   0  0  0  0  0  0  0  0  0  0  0  0
   -6.9260   -1.0568  -18.8422 C   0  0  0  0  0  0  0  0  0  0  0  0
   -6.2149   -0.5838  -17.7894 N   0  0  0  0  0  0  0  0  0  0  0  0
   -5.2007    0.2062  -18.0565 C   0  0  0  0  0  0  0  0  0  0  0  0
   -4.7987    0.5801  -19.3740 C   0  0  0  0  0  0  0  0  0  0  0  0
   -3.6682    1.4052  -19.6234 C   0  0  0  0  0  0  0  0  0  0  0  0
   -3.3681    1.8190  -20.8952 C   0  0  0  0  0  0  0  0  0  0  0  0
   -4.1742    1.4049  -21.9829 C   0  0  0  0  0  0  0  0  0  0  0  0
   -5.1691    0.4759  -21.7866 C   0  0  0  0  0  0  0  0  0  0  0  0
   -5.5319    0.0660  -20.4698 C   0  0  0  0  0  0  0  0  0  0  0  0
   -5.7063    0.0724  -22.6410 H   0  0  0  0  0  0  0  0  0  0  0  0
   -3.9841    1.7858  -22.9860 H   0  0  0  0  0  0  0  0  0  0  0  0
   -2.5077    2.4629  -21.0720 H   0  0  0  0  0  0  0  0  0  0  0  0
   -3.0787    1.7292  -18.7704 H   0  0  0  0  0  0  0  0  0  0  0  0
   -4.6217    0.5796  -17.2088 H   0  0  0  0  0  0  0  0  0  0  0  0
   -7.7887   -1.6760  -18.5999 H   0  0  0  0  0  0  0  0  0  0  0  0
   -7.0694   -2.5888  -21.9063 C   0  0  0  0  0  0  0  0  0  0  0  0
   -8.3257   -2.8720  -22.7390 C   0  0  2  0  0  0  0  0  0  0  0  0
   -7.9640   -3.6361  -24.0054 C   0  0  0  0  0  0  0  0  0  0  0  0
   -9.1270   -3.9278  -24.7344 O   0  0  0  0  0  0  0  0  0  0  0  0
   -8.8363   -4.5640  -25.9546 C   0  0  0  0  0  0  0  0  0  0  0  0
   -8.2334   -3.9254  -26.6216 H   0  0  0  0  0  0  0  0  0  0  0  0
   -8.3009   -5.5169  -25.8086 H   0  0  0  0  0  0  0  0  0  0  0  0
   -9.7877   -4.7648  -26.4399 H   0  0  0  0  0  0  0  0  0  0  0  0
   -7.2628   -3.0403  -24.6155 H   0  0  0  0  0  0  0  0  0  0  0  0
   -7.4412   -4.5728  -23.7409 H   0  0  0  0  0  0  0  0  0  0  0  0
   -9.0014   -3.5098  -22.1721 H   0  0  0  0  0  0  0  0  0  0  0  0
   -6.2071   -2.4290  -22.5723 H   0  0  0  0  0  0  0  0  0  0  0  0
   -6.8214   -3.4080  -21.2233 H   0  0  0  0  0  0  0  0  0  0  0  0
  -10.5648   -1.5506  -22.8282 C   0  0  0  0  0  0  0  0  0  0  0  0
  -11.2058   -2.4447  -21.9662 C   0  0  0  0  0  0  0  0  0  0  0  0
  -12.5857   -2.4547  -21.8788 C   0  0  0  0  0  0  0  0  0  0  0  0
  -13.3470   -3.5674  -20.7752 Cl  0  0  0  0  0  0  0  0  0  0  0  0
  -13.3775   -1.5821  -22.6290 C   0  0  0  0  0  0  0  0  0  0  0  0
  -12.7522   -0.6602  -23.4451 C   0  0  0  0  0  0  0  0  0  0  0  0
  -11.3612   -0.6253  -23.5197 C   0  0  0  0  0  0  0  0  0  0  0  0
  -10.7519    0.4977  -24.2940 C   0  0  0  0  0  0  0  0  0  0  0  0
  -11.4249    1.3924  -24.7867 O   0  0  0  0  0  0  0  0  0  0  0  0
  -13.3087    0.0735  -24.0223 H   0  0  0  0  0  0  0  0  0  0  0  0
  -14.4569   -1.6225  -22.5353 H   0  0  0  0  0  0  0  0  0  0  0  0
  -10.6336   -3.1217  -21.3406 H   0  0  0  0  0  0  0  0  0  0  0  0
   -8.8897   -1.4666  -25.0263 H   0  0  0  0  0  0  0  0  0  0  0  0
   -7.5931   -0.5583  -24.2036 H   0  0  0  0  0  0  0  0  0  0  0  0
   -9.4584    2.3106  -25.2045 H   0  0  0  0  0  0  0  0  0  0  0  0
   -8.0711    1.3093  -25.7691 H   0  0  0  0  0  0  0  0  0  0  0  0
   -9.2394    2.7868  -22.6560 H   0  0  0  0  0  0  0  0  0  0  0  0
   -6.6842    4.1291  -22.2377 H   0  0  0  0  0  0  0  0  0  0  0  0
   -6.8195    2.5632  -21.4556 H   0  0  0  0  0  0  0  0  0  0  0  0
   -7.9635    3.8582  -21.0383 H   0  0  0  0  0  0  0  0  0  0  0  0
  1  2  1  0
  2  3  1  0
  3  4  2  0
  3  5  1  0
  5  6  1  0
  6  7  1  0
  8  7  1  6
  8  9  1  0
  9 10  2  0
  9 11  1  0
 11 12  1  0
 12 13  2  0
 13 14  1  0
 14 15  2  0
 15 16  1  0
 16 17  2  0
 17 18  1  0
 18 19  2  0
 19 20  1  0
 20 21  2  0
 20 22  1  0
 19 23  1  0
 18 24  1  0
 17 25  1  0
 15 26  1  0
 13 27  1  0
 11 28  1  0
 28 29  1  0
 29 30  1  0
 30 31  1  0
 31 32  1  0
 32 33  1  0
 32 34  1  0
 32 35  1  0
 30 36  1  0
 30 37  1  0
 29 38  1  1
 28 39  1  0
 28 40  1  0
  8 41  1  0
 41 42  2  0
 42 43  1  0
 43 44  1  0
 43 45  2  0
 45 46  1  0
 46 47  2  0
 47 48  1  0
 48 49  2  0
 46 50  1  0
 45 51  1  0
 42 52  1  0
  7 53  1  0
  7 54  1  0
  5 55  1  0
  5 56  1  0
  2 57  1  0
  1 58  1  0
  1 59  1  0
  1 60  1  0
 48  6  1  0
 29  8  1  0
 47 41  1  0
 21 12  1  0
 21 16  1  0
M  END
>  <cnnaffinities>  (9) 
[5.696, 5.91728, 5.68842, 5.79335, 5.92834]

>  <score>  (9) 
5.696

>  <index>  (9) 
8

>  <Smiles>  (9) 
C(N(C(=O)C(N1C([C@@]2(C(=O)N(c3c(nc(c4c(c(c(c(c34)[H])[H])[H])[H])[H])[H])C([C@@]2(C(OC([H])([H])[H])([H])[H])[H])([H])[H])c2c(c(Cl)c(c(c2C1=O)[H])[H])[H])([H])[H])([H])[H])[H])([H])([H])[H]

>  <h>  (9) 
<NA>

>  <Training>  (9) 
True

>  <Success>  (9) 
True

>  <enamine_searched>  (9) 
False

>  <enamine_id>  (9) 
nan

$$$$

     RDKit          3D

 41 43  0  0  0  0  0  0  0  0999 V2000
  -13.1800   -2.9345  -22.8916 C   0  0  0  0  0  0  0  0  0  0  0  0
  -11.9722   -2.0508  -23.2125 C   0  0  1  0  0  0  0  0  0  0  0  0
  -12.1582   -0.6650  -22.6341 C   0  0  0  0  0  0  0  0  0  0  0  0
  -11.3095    0.3417  -22.8167 C   0  0  0  0  0  0  0  0  0  0  0  0
   -9.9999    0.2058  -23.5658 C   0  0  0  0  0  0  0  0  0  0  0  0
   -9.0908   -0.7840  -23.0018 N   0  0  0  0  0  0  0  0  0  0  0  0
   -8.3800   -0.3875  -21.8934 C   0  0  0  0  0  0  0  0  0  0  0  0
   -8.4732    0.7417  -21.4346 O   0  0  0  0  0  0  0  0  0  0  0  0
   -7.4335   -1.4150  -21.2755 C   0  0  0  0  0  0  0  0  0  0  0  0
   -6.6047   -0.8190  -20.1748 C   0  0  0  0  0  0  0  0  0  0  0  0
   -6.9037   -1.0551  -18.8570 C   0  0  0  0  0  0  0  0  0  0  0  0
   -6.2126   -0.5748  -17.7895 N   0  0  0  0  0  0  0  0  0  0  0  0
   -5.1928    0.2101  -18.0519 C   0  0  0  0  0  0  0  0  0  0  0  0
   -4.7976    0.5862  -19.3669 C   0  0  0  0  0  0  0  0  0  0  0  0
   -3.6715    1.4181  -19.6031 C   0  0  0  0  0  0  0  0  0  0  0  0
   -3.3640    1.8220  -20.8777 C   0  0  0  0  0  0  0  0  0  0  0  0
   -4.1745    1.4182  -21.9662 C   0  0  0  0  0  0  0  0  0  0  0  0
   -5.1611    0.4790  -21.7739 C   0  0  0  0  0  0  0  0  0  0  0  0
   -5.5299    0.0745  -20.4600 C   0  0  0  0  0  0  0  0  0  0  0  0
   -5.6934    0.0623  -22.6241 H   0  0  0  0  0  0  0  0  0  0  0  0
   -3.9549    1.7821  -22.9698 H   0  0  0  0  0  0  0  0  0  0  0  0
   -2.5033    2.4626  -21.0570 H   0  0  0  0  0  0  0  0  0  0  0  0
   -3.0710    1.7169  -18.7468 H   0  0  0  0  0  0  0  0  0  0  0  0
   -4.6277    0.5971  -17.2034 H   0  0  0  0  0  0  0  0  0  0  0  0
   -7.7549   -1.6834  -18.5948 H   0  0  0  0  0  0  0  0  0  0  0  0
   -6.8135   -1.8748  -22.0601 H   0  0  0  0  0  0  0  0  0  0  0  0
   -8.0650   -2.2159  -20.8748 H   0  0  0  0  0  0  0  0  0  0  0  0
   -9.3793   -2.1642  -23.3636 C   0  0  0  0  0  0  0  0  0  0  0  0
  -10.6652   -2.7241  -22.7418 C   0  0  0  0  0  0  0  0  0  0  0  0
  -10.6096   -2.6627  -21.6453 H   0  0  0  0  0  0  0  0  0  0  0  0
  -10.7251   -3.7859  -23.0047 H   0  0  0  0  0  0  0  0  0  0  0  0
   -8.5174   -2.7929  -23.1219 H   0  0  0  0  0  0  0  0  0  0  0  0
   -9.4724   -2.1935  -24.4583 H   0  0  0  0  0  0  0  0  0  0  0  0
  -10.1786   -0.1084  -24.6035 H   0  0  0  0  0  0  0  0  0  0  0  0
   -9.4702    1.1609  -23.5689 H   0  0  0  0  0  0  0  0  0  0  0  0
  -11.5370    1.3276  -22.4108 H   0  0  0  0  0  0  0  0  0  0  0  0
  -13.0640   -0.4899  -22.0486 H   0  0  0  0  0  0  0  0  0  0  0  0
  -11.9005   -1.9520  -24.3098 H   0  0  0  0  0  0  0  0  0  0  0  0
  -13.0978   -3.9175  -23.3662 H   0  0  0  0  0  0  0  0  0  0  0  0
  -13.2649   -3.0948  -21.8111 H   0  0  0  0  0  0  0  0  0  0  0  0
  -14.1129   -2.4754  -23.2346 H   0  0  0  0  0  0  0  0  0  0  0  0
  1  2  1  0
  2  3  1  0
  3  4  2  0
  4  5  1  0
  5  6  1  0
  6  7  1  0
  7  8  2  0
  7  9  1  0
  9 10  1  0
 10 11  2  0
 11 12  1  0
 12 13  2  0
 13 14  1  0
 14 15  2  0
 15 16  1  0
 16 17  2  0
 17 18  1  0
 18 19  2  0
 18 20  1  0
 17 21  1  0
 16 22  1  0
 15 23  1  0
 13 24  1  0
 11 25  1  0
  9 26  1  0
  9 27  1  0
  6 28  1  0
 28 29  1  0
 29 30  1  0
 29 31  1  0
 28 32  1  0
 28 33  1  0
  5 34  1  0
  5 35  1  0
  4 36  1  0
  3 37  1  0
  2 38  1  6
  1 39  1  0
  1 40  1  0
  1 41  1  0
 29  2  1  0
 19 10  1  0
 19 14  1  0
M  END
>  <cnnaffinities>  (10) 
[4.50817]

>  <score>  (10) 
4.50817

>  <index>  (10) 
9

>  <Smiles>  (10) 
C([C@]1(C(=C(C(N(C(=O)C(c2c(nc(c3c(c(c(c(c23)[H])[H])[H])[H])[H])[H])([H])[H])C(C1([H])[H])([H])[H])([H])[H])[H])[H])[H])([H])([H])[H]

>  <h>  (10) 
<NA>

>  <Training>  (10) 
True

>  <Success>  (10) 
True

>  <enamine_searched>  (10) 
False

>  <enamine_id>  (10) 
nan

$$$$

     RDKit          3D

 57 62  0  0  0  0  0  0  0  0999 V2000
   -8.2927   -4.1366  -23.4869 C   0  0  0  0  0  0  0  0  0  0  0  0
   -8.5201   -2.9877  -22.5211 C   0  0  1  0  0  0  0  0  0  0  0  0
   -7.3891   -2.8003  -21.5018 C   0  0  0  0  0  0  0  0  0  0  0  0
   -7.4462   -1.3813  -21.1939 N   0  0  0  0  0  0  0  0  0  0  0  0
   -6.6618   -0.7852  -20.1792 C   0  0  0  0  0  0  0  0  0  0  0  0
   -6.9156   -1.0953  -18.8671 C   0  0  0  0  0  0  0  0  0  0  0  0
   -6.2264   -0.6072  -17.8093 N   0  0  0  0  0  0  0  0  0  0  0  0
   -5.2144    0.1854  -18.0718 C   0  0  0  0  0  0  0  0  0  0  0  0
   -4.8308    0.5764  -19.3852 C   0  0  0  0  0  0  0  0  0  0  0  0
   -3.7227    1.4385  -19.6021 C   0  0  0  0  0  0  0  0  0  0  0  0
   -3.4411    1.8984  -20.8557 C   0  0  0  0  0  0  0  0  0  0  0  0
   -4.2278    1.4861  -21.9541 C   0  0  0  0  0  0  0  0  0  0  0  0
   -5.2276    0.5635  -21.7904 C   0  0  0  0  0  0  0  0  0  0  0  0
   -5.5867    0.1109  -20.4850 C   0  0  0  0  0  0  0  0  0  0  0  0
   -5.7763    0.2209  -22.6625 H   0  0  0  0  0  0  0  0  0  0  0  0
   -4.0249    1.9015  -22.9353 H   0  0  0  0  0  0  0  0  0  0  0  0
   -2.6470    2.6230  -21.0079 H   0  0  0  0  0  0  0  0  0  0  0  0
   -3.1209    1.7300  -18.7440 H   0  0  0  0  0  0  0  0  0  0  0  0
   -4.6436    0.5655  -17.2241 H   0  0  0  0  0  0  0  0  0  0  0  0
   -7.7435   -1.7609  -18.6311 H   0  0  0  0  0  0  0  0  0  0  0  0
   -8.1738   -0.6420  -22.1018 C   0  0  0  0  0  0  0  0  0  0  0  0
   -8.3003    0.5651  -22.0634 O   0  0  0  0  0  0  0  0  0  0  0  0
   -8.7375   -1.5784  -23.1817 C   0  0  1  0  0  0  0  0  0  0  0  0
   -7.9238   -1.2837  -24.4723 C   0  0  0  0  0  0  0  0  0  0  0  0
   -8.5387   -1.8093  -25.6868 N   0  0  0  0  0  0  0  0  0  0  0  0
   -7.6974   -2.1796  -26.8174 C   0  0  0  0  0  0  0  0  0  0  0  0
   -7.3972   -3.6430  -26.8496 C   0  0  0  0  0  0  0  0  0  0  0  0
   -6.2466   -4.3130  -26.6019 C   0  0  0  0  0  0  0  0  0  0  0  0
   -6.5087   -5.6561  -26.7855 N   0  0  0  0  0  4  0  0  0  0  0  0
   -7.7930   -5.7889  -27.1475 C   0  0  0  0  0  0  0  0  0  0  0  0
   -8.3650   -4.5762  -27.1843 N   0  0  0  0  0  0  0  0  0  0  0  0
   -9.3273   -4.3355  -27.4351 H   0  0  0  0  0  0  0  0  0  0  0  0
   -8.2741   -6.7193  -27.3818 H   0  0  0  0  0  0  0  0  0  0  0  0
   -5.8295   -6.4029  -26.6819 H   0  0  0  0  0  0  0  0  0  0  0  0
   -5.2721   -3.9436  -26.3023 H   0  0  0  0  0  0  0  0  0  0  0  0
   -6.7785   -1.5860  -26.7936 H   0  0  0  0  0  0  0  0  0  0  0  0
   -8.2455   -1.9107  -27.7272 H   0  0  0  0  0  0  0  0  0  0  0  0
   -9.8859   -1.9015  -25.8807 C   0  0  0  0  0  0  0  0  0  0  0  0
  -10.3607   -2.3424  -26.9248 O   0  0  0  0  0  0  0  0  0  0  0  0
  -10.7428   -1.4662  -24.7493 C   0  0  0  0  0  0  0  0  0  0  0  0
  -12.1051   -1.2832  -24.9883 C   0  0  0  0  0  0  0  0  0  0  0  0
  -12.9646   -0.9549  -23.9603 C   0  0  0  0  0  0  0  0  0  0  0  0
  -12.4213   -0.8453  -22.6858 C   0  0  0  0  0  0  0  0  0  0  0  0
  -13.2557   -0.5965  -21.6718 F   0  0  0  0  0  0  0  0  0  0  0  0
  -11.0740   -1.0135  -22.4242 C   0  0  0  0  0  0  0  0  0  0  0  0
  -10.2019   -1.3105  -23.4709 C   0  0  0  0  0  0  0  0  0  0  0  0
  -10.6885   -0.9294  -21.4166 H   0  0  0  0  0  0  0  0  0  0  0  0
  -14.0285   -0.8037  -24.1233 H   0  0  0  0  0  0  0  0  0  0  0  0
  -12.4700   -1.4172  -25.9999 H   0  0  0  0  0  0  0  0  0  0  0  0
   -7.8280   -0.1921  -24.5623 H   0  0  0  0  0  0  0  0  0  0  0  0
   -6.9043   -1.6833  -24.3732 H   0  0  0  0  0  0  0  0  0  0  0  0
   -7.5514   -3.3965  -20.5983 H   0  0  0  0  0  0  0  0  0  0  0  0
   -6.4048   -3.0790  -21.9088 H   0  0  0  0  0  0  0  0  0  0  0  0
   -9.4343   -3.1891  -21.9407 H   0  0  0  0  0  0  0  0  0  0  0  0
   -8.2172   -5.0824  -22.9428 H   0  0  0  0  0  0  0  0  0  0  0  0
   -7.3656   -3.9843  -24.0505 H   0  0  0  0  0  0  0  0  0  0  0  0
   -9.1257   -4.2006  -24.1929 H   0  0  0  0  0  0  0  0  0  0  0  0
  1  2  1  0
  2  3  1  0
  3  4  1  0
  4  5  1  0
  5  6  2  0
  6  7  1  0
  7  8  2  0
  8  9  1  0
  9 10  2  0
 10 11  1  0
 11 12  2  0
 12 13  1  0
 13 14  2  0
 13 15  1  0
 12 16  1  0
 11 17  1  0
 10 18  1  0
  8 19  1  0
  6 20  1  0
  4 21  1  0
 21 22  2  0
 21 23  1  0
 23 24  1  6
 24 25  1  0
 25 26  1  0
 26 27  1  0
 27 28  2  0
 28 29  1  0
 29 30  2  0
 30 31  1  0
 31 32  1  0
 30 33  1  0
 29 34  1  0
 28 35  1  0
 26 36  1  0
 26 37  1  0
 25 38  1  0
 38 39  2  0
 38 40  1  0
 40 41  2  0
 41 42  1  0
 42 43  2  0
 43 44  1  0
 43 45  1  0
 45 46  2  0
 45 47  1  0
 42 48  1  0
 41 49  1  0
 24 50  1  0
 24 51  1  0
  3 52  1  0
  3 53  1  0
  2 54  1  1
  1 55  1  0
  1 56  1  0
  1 57  1  0
 23  2  1  0
 31 27  1  0
 46 40  1  0
 14  5  1  0
 46 23  1  0
 14  9  1  0
M  CHG  1  29   1
M  END
>  <cnnaffinities>  (11) 
[5.85642]

>  <score>  (11) 
5.85642

>  <index>  (11) 
10

>  <Smiles>  (11) 
C([C@]1(C(N(c2c(nc(c3c(c(c(c(c23)[H])[H])[H])[H])[H])[H])C(=O)[C@]21C(N(C(c1c([n+](c(n1[H])[H])[H])[H])([H])[H])C(=O)c1c(c(c(F)c(c21)[H])[H])[H])([H])[H])([H])[H])[H])([H])([H])[H]

>  <h>  (11) 
<NA>

>  <Training>  (11) 
True

>  <Success>  (11) 
True

>  <enamine_searched>  (11) 
False

>  <enamine_id>  (11) 
nan

$$$$

     RDKit          3D

 48 52  0  0  0  0  0  0  0  0999 V2000
   -9.3995   -4.0296  -22.4667 C   0  0  0  0  0  0  0  0  0  0  0  0
   -8.7959   -2.7598  -22.1414 N   0  0  0  0  0  0  0  0  0  0  0  0
   -7.8384   -2.6414  -21.1788 C   0  0  0  0  0  0  0  0  0  0  0  0
   -7.3584   -3.5201  -20.4936 O   0  0  0  0  0  0  0  0  0  0  0  0
   -7.4936   -1.2814  -21.1249 N   0  0  0  0  0  0  0  0  0  0  0  0
   -6.6468   -0.7640  -20.1249 C   0  0  0  0  0  0  0  0  0  0  0  0
   -6.8921   -1.0997  -18.8186 C   0  0  0  0  0  0  0  0  0  0  0  0
   -6.1870   -0.6227  -17.7715 N   0  0  0  0  0  0  0  0  0  0  0  0
   -5.1867    0.1805  -18.0416 C   0  0  0  0  0  0  0  0  0  0  0  0
   -4.8099    0.5742  -19.3566 C   0  0  0  0  0  0  0  0  0  0  0  0
   -3.7270    1.4633  -19.5854 C   0  0  0  0  0  0  0  0  0  0  0  0
   -3.4763    1.9371  -20.8426 C   0  0  0  0  0  0  0  0  0  0  0  0
   -4.2509    1.4936  -21.9402 C   0  0  0  0  0  0  0  0  0  0  0  0
   -5.2564    0.5783  -21.7565 C   0  0  0  0  0  0  0  0  0  0  0  0
   -5.5770    0.1180  -20.4461 C   0  0  0  0  0  0  0  0  0  0  0  0
   -5.8197    0.2172  -22.6111 H   0  0  0  0  0  0  0  0  0  0  0  0
   -4.0264    1.8429  -22.9455 H   0  0  0  0  0  0  0  0  0  0  0  0
   -2.6743    2.6515  -21.0148 H   0  0  0  0  0  0  0  0  0  0  0  0
   -3.1304    1.7713  -18.7314 H   0  0  0  0  0  0  0  0  0  0  0  0
   -4.6212    0.5666  -17.1948 H   0  0  0  0  0  0  0  0  0  0  0  0
   -7.6972   -1.7902  -18.5843 H   0  0  0  0  0  0  0  0  0  0  0  0
   -8.2705   -0.5178  -21.9903 C   0  0  0  0  0  0  0  0  0  0  0  0
   -8.2284    0.6827  -22.1335 O   0  0  0  0  0  0  0  0  0  0  0  0
   -9.1674   -1.4914  -22.7068 C   0  0  0  0  0  0  0  0  0  0  0  0
  -10.6489   -1.0812  -22.7258 C   0  0  0  0  0  0  0  0  0  0  0  0
  -10.5938   -1.0046  -24.2129 N   0  0  0  0  0  0  0  0  0  0  0  0
  -11.6580   -2.0012  -25.0495 S   0  0  0  0  0  0  0  0  0  0  0  0
  -11.4870   -3.3629  -24.5685 O   0  0  0  0  0  0  0  0  0  0  0  0
  -12.9596   -1.3603  -25.0106 O   0  0  0  0  0  0  0  0  0  0  0  0
  -11.0076   -1.8885  -26.7001 C   0  0  0  0  0  0  0  0  0  0  0  0
  -10.0565   -2.7761  -27.1990 C   0  0  0  0  0  0  0  0  0  0  0  0
   -9.7666   -2.7589  -28.5614 C   0  0  0  0  0  0  0  0  0  0  0  0
  -10.4254   -1.8581  -29.3986 C   0  0  0  0  0  0  0  0  0  0  0  0
  -11.3040   -0.9210  -28.8636 C   0  0  0  0  0  0  0  0  0  0  0  0
  -11.5275   -0.8821  -27.4937 C   0  0  0  0  0  0  0  0  0  0  0  0
  -12.1090   -0.1114  -27.0034 H   0  0  0  0  0  0  0  0  0  0  0  0
  -11.7991   -0.2211  -29.5228 H   0  0  0  0  0  0  0  0  0  0  0  0
  -10.2862   -1.8993  -30.4747 H   0  0  0  0  0  0  0  0  0  0  0  0
   -9.0409   -3.4656  -28.9570 H   0  0  0  0  0  0  0  0  0  0  0  0
   -9.5352   -3.4687  -26.5456 H   0  0  0  0  0  0  0  0  0  0  0  0
   -9.1629   -1.3732  -24.2329 C   0  0  0  0  0  0  0  0  0  0  0  0
   -8.9050   -2.3052  -24.7414 H   0  0  0  0  0  0  0  0  0  0  0  0
   -8.5447   -0.5572  -24.6055 H   0  0  0  0  0  0  0  0  0  0  0  0
  -11.3396   -1.8169  -22.3080 H   0  0  0  0  0  0  0  0  0  0  0  0
  -10.8080   -0.0963  -22.2831 H   0  0  0  0  0  0  0  0  0  0  0  0
  -10.4217   -4.0941  -22.0834 H   0  0  0  0  0  0  0  0  0  0  0  0
   -9.4375   -4.1989  -23.5442 H   0  0  0  0  0  0  0  0  0  0  0  0
   -8.7732   -4.7814  -21.9905 H   0  0  0  0  0  0  0  0  0  0  0  0
  1  2  1  0
  2  3  1  0
  3  4  2  0
  3  5  1  0
  5  6  1  0
  6  7  2  0
  7  8  1  0
  8  9  2  0
  9 10  1  0
 10 11  2  0
 11 12  1  0
 12 13  2  0
 13 14  1  0
 14 15  2  0
 14 16  1  0
 13 17  1  0
 12 18  1  0
 11 19  1  0
  9 20  1  0
  7 21  1  0
  5 22  1  0
 22 23  2  0
 22 24  1  0
 24 25  1  0
 25 26  1  0
 26 27  1  0
 27 28  2  0
 27 29  2  0
 27 30  1  0
 30 31  2  0
 31 32  1  0
 32 33  2  0
 33 34  1  0
 34 35  2  0
 35 36  1  0
 34 37  1  0
 33 38  1  0
 32 39  1  0
 31 40  1  0
 26 41  1  0
 41 42  1  0
 41 43  1  0
 25 44  1  0
 25 45  1  0
  1 46  1  0
  1 47  1  0
  1 48  1  0
 24  2  1  0
 35 30  1  0
 15  6  1  0
 41 24  1  0
 15 10  1  0
M  END
>  <cnnaffinities>  (12) 
[5.24354, 5.22755, 4.84153, 4.68622, 5.23938, 5.45591]

>  <score>  (12) 
5.24354

>  <index>  (12) 
11

>  <Smiles>  (12) 
C(N1C(=O)N(c2c(nc(c3c(c(c(c(c23)[H])[H])[H])[H])[H])[H])C(=O)C21C(N(S(=O)(=O)c1c(c(c(c(c1[H])[H])[H])[H])[H])C2([H])[H])([H])[H])([H])([H])[H]

>  <h>  (12) 
<NA>

>  <Training>  (12) 
True

>  <Success>  (12) 
True

>  <enamine_searched>  (12) 
False

>  <enamine_id>  (12) 
nan

$$$$

     RDKit          3D

 76 82  0  0  0  0  0  0  0  0999 V2000
  -12.9230   -0.2663  -23.1832 O   0  0  0  0  0  0  0  0  0  0  0  0
  -11.9580   -1.0248  -23.1346 C   0  0  0  0  0  0  0  0  0  0  0  0
  -11.9736   -2.2635  -22.3166 C   0  0  0  0  0  0  0  0  0  0  0  0
  -13.2138   -2.7013  -21.8580 C   0  0  0  0  0  0  0  0  0  0  0  0
  -13.3076   -3.8272  -21.0677 C   0  0  0  0  0  0  0  0  0  0  0  0
  -12.1252   -4.4662  -20.7239 C   0  0  0  0  0  0  0  0  0  0  0  0
  -12.1960   -5.7161  -19.5063 Cl  0  0  0  0  0  0  0  0  0  0  0  0
  -10.8820   -4.0519  -21.2023 C   0  0  0  0  0  0  0  0  0  0  0  0
  -10.7699   -2.9138  -21.9934 C   0  0  0  0  0  0  0  0  0  0  0  0
   -9.4262   -2.3053  -22.4070 C   0  0  1  0  0  0  0  0  0  0  0  0
   -9.6845   -1.7061  -23.8181 C   0  0  0  0  0  0  0  0  0  0  0  0
  -10.8151   -0.7944  -23.8377 N   0  0  0  0  0  0  0  0  0  0  0  0
  -10.8477    0.3467  -24.7358 C   0  0  0  0  0  0  0  0  0  0  0  0
  -10.5871    1.6438  -23.9789 C   0  0  0  0  0  0  0  0  0  0  0  0
   -9.1324    1.8017  -23.6731 N   0  0  0  0  0  4  0  0  0  0  0  0
   -8.9613    2.6748  -22.4541 C   0  0  0  0  0  0  0  0  0  0  0  0
   -7.5496    3.2186  -22.2869 C   0  0  0  0  0  0  0  0  0  0  0  0
   -7.0018    3.7494  -23.4758 O   0  0  0  0  0  0  0  0  0  0  0  0
   -6.9788    2.7739  -24.4995 C   0  0  0  0  0  0  0  0  0  0  0  0
   -8.3877    2.3439  -24.8747 C   0  0  0  0  0  0  0  0  0  0  0  0
   -8.9377    3.2201  -25.2342 H   0  0  0  0  0  0  0  0  0  0  0  0
   -8.3560    1.5957  -25.6750 H   0  0  0  0  0  0  0  0  0  0  0  0
   -6.3907    1.8917  -24.1927 H   0  0  0  0  0  0  0  0  0  0  0  0
   -6.4944    3.2495  -25.3573 H   0  0  0  0  0  0  0  0  0  0  0  0
   -6.9090    2.4441  -21.8522 H   0  0  0  0  0  0  0  0  0  0  0  0
   -7.5870    4.0420  -21.5731 H   0  0  0  0  0  0  0  0  0  0  0  0
   -9.6703    3.5063  -22.5373 H   0  0  0  0  0  0  0  0  0  0  0  0
   -9.2439    2.0702  -21.5849 H   0  0  0  0  0  0  0  0  0  0  0  0
   -8.7683    0.8581  -23.4375 H   0  0  0  0  0  0  0  0  0  0  0  0
  -11.1441    1.6440  -23.0376 H   0  0  0  0  0  0  0  0  0  0  0  0
  -10.9190    2.5129  -24.5578 H   0  0  0  0  0  0  0  0  0  0  0  0
  -11.8274    0.3756  -25.2139 H   0  0  0  0  0  0  0  0  0  0  0  0
  -10.0893    0.2067  -25.5102 H   0  0  0  0  0  0  0  0  0  0  0  0
   -8.8029   -1.1616  -24.1704 H   0  0  0  0  0  0  0  0  0  0  0  0
   -9.8678   -2.5375  -24.5129 H   0  0  0  0  0  0  0  0  0  0  0  0
   -8.9630   -1.1630  -21.4422 C   0  0  0  0  0  0  0  0  0  0  0  0
   -9.6381   -0.2449  -21.0275 O   0  0  0  0  0  0  0  0  0  0  0  0
   -7.6079   -1.2923  -21.2174 N   0  0  0  0  0  0  0  0  0  0  0  0
   -6.8744   -0.6791  -20.1654 C   0  0  0  0  0  0  0  0  0  0  0  0
   -7.1085   -1.0134  -18.8534 C   0  0  0  0  0  0  0  0  0  0  0  0
   -6.3439   -0.6077  -17.8087 N   0  0  0  0  0  0  0  0  0  0  0  0
   -5.3216    0.1731  -18.0652 C   0  0  0  0  0  0  0  0  0  0  0  0
   -4.9750    0.6201  -19.3723 C   0  0  0  0  0  0  0  0  0  0  0  0
   -3.8964    1.5171  -19.6036 C   0  0  0  0  0  0  0  0  0  0  0  0
   -3.6200    1.9637  -20.8682 C   0  0  0  0  0  0  0  0  0  0  0  0
   -4.3786    1.4986  -21.9650 C   0  0  0  0  0  0  0  0  0  0  0  0
   -5.3908    0.5871  -21.7680 C   0  0  0  0  0  0  0  0  0  0  0  0
   -5.7553    0.1636  -20.4616 C   0  0  0  0  0  0  0  0  0  0  0  0
   -5.9823    0.2399  -22.6104 H   0  0  0  0  0  0  0  0  0  0  0  0
   -4.1696    1.8818  -22.9618 H   0  0  0  0  0  0  0  0  0  0  0  0
   -2.8321    2.6938  -21.0300 H   0  0  0  0  0  0  0  0  0  0  0  0
   -3.3116    1.8558  -18.7521 H   0  0  0  0  0  0  0  0  0  0  0  0
   -4.7081    0.4872  -17.2181 H   0  0  0  0  0  0  0  0  0  0  0  0
   -7.9406   -1.6641  -18.5960 H   0  0  0  0  0  0  0  0  0  0  0  0
   -6.9926   -2.3342  -22.0024 C   0  0  0  0  0  0  0  0  0  0  0  0
   -8.1675   -3.2429  -22.3901 C   0  0  2  0  0  0  0  0  0  0  0  0
   -7.8385   -3.9994  -23.6863 C   0  0  0  0  0  0  0  0  0  0  0  0
   -6.6199   -4.7972  -23.5924 N   0  0  0  0  0  0  0  0  0  0  0  0
   -6.6806   -6.1223  -23.2663 C   0  0  0  0  0  0  0  0  0  0  0  0
   -5.6117   -6.8841  -23.5771 N   0  0  0  0  0  0  0  0  0  0  0  0
   -5.6808   -8.1548  -23.2057 C   0  0  0  0  0  0  0  0  0  0  0  0
   -6.7718   -8.6952  -22.5296 C   0  0  0  0  0  0  0  0  0  0  0  0
   -7.8119   -7.8205  -22.2745 C   0  0  0  0  0  0  0  0  0  0  0  0
   -7.7878   -6.5437  -22.6352 N   0  0  0  0  0  0  0  0  0  0  0  0
   -8.7180   -8.1357  -21.7626 H   0  0  0  0  0  0  0  0  0  0  0  0
   -6.8277   -9.7374  -22.2503 H   0  0  0  0  0  0  0  0  0  0  0  0
   -4.8305   -8.7868  -23.4657 H   0  0  0  0  0  0  0  0  0  0  0  0
   -5.8577   -4.5636  -24.2122 H   0  0  0  0  0  0  0  0  0  0  0  0
   -7.6954   -3.2765  -24.4971 H   0  0  0  0  0  0  0  0  0  0  0  0
   -8.6717   -4.6610  -23.9358 H   0  0  0  0  0  0  0  0  0  0  0  0
   -8.2967   -3.9796  -21.5925 H   0  0  0  0  0  0  0  0  0  0  0  0
   -6.2218   -2.8330  -21.4093 H   0  0  0  0  0  0  0  0  0  0  0  0
   -6.5045   -1.9367  -22.9053 H   0  0  0  0  0  0  0  0  0  0  0  0
   -9.9948   -4.4897  -20.7646 H   0  0  0  0  0  0  0  0  0  0  0  0
  -14.2523   -4.1838  -20.6733 H   0  0  0  0  0  0  0  0  0  0  0  0
  -14.0855   -2.1017  -22.0977 H   0  0  0  0  0  0  0  0  0  0  0  0
  1  2  2  0
  2  3  1  0
  3  4  2  0
  4  5  1  0
  5  6  2  0
  6  7  1  0
  6  8  1  0
  8  9  2  0
  9 10  1  0
 10 11  1  6
 11 12  1  0
 12 13  1  0
 13 14  1  0
 14 15  1  0
 15 16  1  0
 16 17  1  0
 17 18  1  0
 18 19  1  0
 19 20  1  0
 20 21  1  0
 20 22  1  0
 19 23  1  0
 19 24  1  0
 17 25  1  0
 17 26  1  0
 16 27  1  0
 16 28  1  0
 15 29  1  0
 14 30  1  0
 14 31  1  0
 13 32  1  0
 13 33  1  0
 11 34  1  0
 11 35  1  0
 10 36  1  0
 36 37  2  0
 36 38  1  0
 38 39  1  0
 39 40  2  0
 40 41  1  0
 41 42  2  0
 42 43  1  0
 43 44  2  0
 44 45  1  0
 45 46  2  0
 46 47  1  0
 47 48  2  0
 47 49  1  0
 46 50  1  0
 45 51  1  0
 44 52  1  0
 42 53  1  0
 40 54  1  0
 38 55  1  0
 55 56  1  0
 56 57  1  0
 57 58  1  0
 58 59  1  0
 59 60  2  0
 60 61  1  0
 61 62  2  0
 62 63  1  0
 63 64  2  0
 63 65  1  0
 62 66  1  0
 61 67  1  0
 58 68  1  0
 57 69  1  0
 57 70  1  0
 56 71  1  1
 55 72  1  0
 55 73  1  0
  8 74  1  0
  5 75  1  0
  4 76  1  0
 12  2  1  0
 20 15  1  0
 48 39  1  0
 64 59  1  0
  9  3  1  0
 56 10  1  0
 48 43  1  0
M  CHG  1  15   1
M  END
>  <cnnaffinities>  (13) 
[6.80181, 6.68084]

>  <score>  (13) 
6.80181

>  <index>  (13) 
12

>  <Smiles>  (13) 
O=C1c2c(c(c(Cl)c(c2[C@@]2(C(N1C(C([N+]1(C(C(OC(C1([H])[H])([H])[H])([H])[H])([H])[H])[H])([H])[H])([H])[H])([H])[H])C(=O)N(c1c(nc(c3c(c(c(c(c13)[H])[H])[H])[H])[H])[H])C([C@@]2(C(N(c1nc(c(c(n1)[H])[H])[H])[H])([H])[H])[H])([H])[H])[H])[H])[H]

>  <h>  (13) 
<NA>

>  <Training>  (13) 
True

>  <Success>  (13) 
True

>  <enamine_searched>  (13) 
False

>  <enamine_id>  (13) 
nan

$$$$

     RDKit          3D

 69 74  0  0  0  0  0  0  0  0999 V2000
   -7.3720    3.4022  -21.9058 C   0  0  0  0  0  0  0  0  0  0  0  0
   -8.2894    2.9006  -22.9096 N   0  0  0  0  0  0  0  0  0  0  0  0
   -7.7644    2.1891  -23.9429 C   0  0  0  0  0  0  0  0  0  0  0  0
   -6.5600    2.0324  -24.0773 O   0  0  0  0  0  0  0  0  0  0  0  0
   -8.7459    1.5687  -24.9334 C   0  0  0  0  0  0  0  0  0  0  0  0
   -9.4067    0.4241  -24.3371 N   0  0  0  0  0  0  0  0  0  0  0  0
   -8.6615   -0.8165  -24.1680 C   0  0  0  0  0  0  0  0  0  0  0  0
   -9.0580   -1.5489  -22.8589 C   0  0  2  0  0  0  0  0  0  0  0  0
   -8.5459   -0.7522  -21.6370 C   0  0  0  0  0  0  0  0  0  0  0  0
   -9.0185    0.2568  -21.1544 O   0  0  0  0  0  0  0  0  0  0  0  0
   -7.4138   -1.3755  -21.1721 N   0  0  0  0  0  0  0  0  0  0  0  0
   -6.6331   -0.7912  -20.1505 C   0  0  0  0  0  0  0  0  0  0  0  0
   -6.9334   -1.0547  -18.8400 C   0  0  0  0  0  0  0  0  0  0  0  0
   -6.2352   -0.5729  -17.7867 N   0  0  0  0  0  0  0  0  0  0  0  0
   -5.1915    0.1780  -18.0516 C   0  0  0  0  0  0  0  0  0  0  0  0
   -4.7915    0.5588  -19.3661 C   0  0  0  0  0  0  0  0  0  0  0  0
   -3.7035    1.4414  -19.6058 C   0  0  0  0  0  0  0  0  0  0  0  0
   -3.4365    1.8837  -20.8708 C   0  0  0  0  0  0  0  0  0  0  0  0
   -4.2462    1.4868  -21.9574 C   0  0  0  0  0  0  0  0  0  0  0  0
   -5.2377    0.5509  -21.7666 C   0  0  0  0  0  0  0  0  0  0  0  0
   -5.5583    0.0943  -20.4582 C   0  0  0  0  0  0  0  0  0  0  0  0
   -5.8251    0.2207  -22.6172 H   0  0  0  0  0  0  0  0  0  0  0  0
   -4.0890    1.9164  -22.9437 H   0  0  0  0  0  0  0  0  0  0  0  0
   -2.6204    2.5837  -21.0392 H   0  0  0  0  0  0  0  0  0  0  0  0
   -3.0957    1.7488  -18.7589 H   0  0  0  0  0  0  0  0  0  0  0  0
   -4.6307    0.5619  -17.2010 H   0  0  0  0  0  0  0  0  0  0  0  0
   -7.7865   -1.6880  -18.6087 H   0  0  0  0  0  0  0  0  0  0  0  0
   -7.0209   -2.5521  -21.9129 C   0  0  0  0  0  0  0  0  0  0  0  0
   -8.2943   -2.9012  -22.6989 C   0  0  2  0  0  0  0  0  0  0  0  0
   -8.0215   -3.6811  -24.0013 C   0  0  0  0  0  0  0  0  0  0  0  0
   -7.4938   -5.0211  -23.7965 N   0  0  0  0  0  0  0  0  0  0  0  0
   -6.1818   -5.2881  -23.5075 C   0  0  0  0  0  0  0  0  0  0  0  0
   -5.0889   -4.5160  -23.9501 C   0  0  0  0  0  0  0  0  0  0  0  0
   -3.8432   -4.9507  -23.5407 C   0  0  0  0  0  0  0  0  0  0  0  0
   -3.6481   -6.0099  -22.7493 N   0  0  0  0  0  0  0  0  0  0  0  0
   -4.7489   -6.6833  -22.4055 C   0  0  0  0  0  0  0  0  0  0  0  0
   -4.5984   -7.8659  -21.4927 C   0  0  0  0  0  0  0  0  0  0  0  0
   -3.5974   -8.2973  -21.5814 H   0  0  0  0  0  0  0  0  0  0  0  0
   -5.3861   -8.5915  -21.7145 H   0  0  0  0  0  0  0  0  0  0  0  0
   -4.7442   -7.5442  -20.4580 H   0  0  0  0  0  0  0  0  0  0  0  0
   -5.9956   -6.3837  -22.7628 N   0  0  0  0  0  0  0  0  0  0  0  0
   -2.9450   -4.4177  -23.8678 H   0  0  0  0  0  0  0  0  0  0  0  0
   -5.1931   -3.6363  -24.5798 H   0  0  0  0  0  0  0  0  0  0  0  0
   -8.0882   -5.6597  -23.2828 H   0  0  0  0  0  0  0  0  0  0  0  0
   -7.3059   -3.1304  -24.6243 H   0  0  0  0  0  0  0  0  0  0  0  0
   -8.9530   -3.7640  -24.5778 H   0  0  0  0  0  0  0  0  0  0  0  0
   -8.8978   -3.5417  -22.0449 H   0  0  0  0  0  0  0  0  0  0  0  0
   -6.1715   -2.3410  -22.5816 H   0  0  0  0  0  0  0  0  0  0  0  0
   -6.7081   -3.3459  -21.2289 H   0  0  0  0  0  0  0  0  0  0  0  0
  -10.5692   -1.6342  -22.8103 C   0  0  0  0  0  0  0  0  0  0  0  0
  -11.2066   -2.5620  -21.9804 C   0  0  0  0  0  0  0  0  0  0  0  0
  -12.5856   -2.5869  -21.8927 C   0  0  0  0  0  0  0  0  0  0  0  0
  -13.3339   -3.7423  -20.8288 Cl  0  0  0  0  0  0  0  0  0  0  0  0
  -13.3826   -1.7022  -22.6181 C   0  0  0  0  0  0  0  0  0  0  0  0
  -12.7600   -0.7583  -23.4077 C   0  0  0  0  0  0  0  0  0  0  0  0
  -11.3704   -0.7011  -23.4826 C   0  0  0  0  0  0  0  0  0  0  0  0
  -10.7715    0.4353  -24.2509 C   0  0  0  0  0  0  0  0  0  0  0  0
  -11.4601    1.3202  -24.7435 O   0  0  0  0  0  0  0  0  0  0  0  0
  -13.3248   -0.0253  -23.9721 H   0  0  0  0  0  0  0  0  0  0  0  0
  -14.4629   -1.7436  -22.5414 H   0  0  0  0  0  0  0  0  0  0  0  0
  -10.6471   -3.2632  -21.3729 H   0  0  0  0  0  0  0  0  0  0  0  0
   -7.5911   -0.5833  -24.1657 H   0  0  0  0  0  0  0  0  0  0  0  0
   -8.8606   -1.4820  -25.0195 H   0  0  0  0  0  0  0  0  0  0  0  0
   -8.1970    1.2697  -25.8341 H   0  0  0  0  0  0  0  0  0  0  0  0
   -9.5291    2.2725  -25.2277 H   0  0  0  0  0  0  0  0  0  0  0  0
   -9.2280    2.6774  -22.6034 H   0  0  0  0  0  0  0  0  0  0  0  0
   -6.6618    4.0960  -22.3620 H   0  0  0  0  0  0  0  0  0  0  0  0
   -7.9201    3.9440  -21.1360 H   0  0  0  0  0  0  0  0  0  0  0  0
   -6.8164    2.5676  -21.4623 H   0  0  0  0  0  0  0  0  0  0  0  0
  1  2  1  0
  2  3  1  0
  3  4  2  0
  3  5  1  0
  5  6  1  0
  6  7  1  0
  8  7  1  6
  8  9  1  0
  9 10  2  0
  9 11  1  0
 11 12  1  0
 12 13  2  0
 13 14  1  0
 14 15  2  0
 15 16  1  0
 16 17  2  0
 17 18  1  0
 18 19  2  0
 19 20  1  0
 20 21  2  0
 20 22  1  0
 19 23  1  0
 18 24  1  0
 17 25  1  0
 15 26  1  0
 13 27  1  0
 11 28  1  0
 28 29  1  0
 29 30  1  0
 30 31  1  0
 31 32  1  0
 32 33  2  0
 33 34  1  0
 34 35  2  0
 35 36  1  0
 36 37  1  0
 37 38  1  0
 37 39  1  0
 37 40  1  0
 36 41  2  0
 34 42  1  0
 33 43  1  0
 31 44  1  0
 30 45  1  0
 30 46  1  0
 29 47  1  1
 28 48  1  0
 28 49  1  0
  8 50  1  0
 50 51  2  0
 51 52  1  0
 52 53  1  0
 52 54  2  0
 54 55  1  0
 55 56  2  0
 56 57  1  0
 57 58  2  0
 55 59  1  0
 54 60  1  0
 51 61  1  0
  7 62  1  0
  7 63  1  0
  5 64  1  0
  5 65  1  0
  2 66  1  0
  1 67  1  0
  1 68  1  0
  1 69  1  0
 57  6  1  0
 29  8  1  0
 41 32  1  0
 56 50  1  0
 21 12  1  0
 21 16  1  0
M  END
>  <cnnaffinities>  (14) 
[6.2001, 6.57907]

>  <score>  (14) 
6.2001

>  <index>  (14) 
13

>  <Smiles>  (14) 
C(N(C(=O)C(N1C([C@@]2(C(=O)N(c3c(nc(c4c(c(c(c(c34)[H])[H])[H])[H])[H])[H])C([C@@]2(C(N(c2c(c(nc(C([H])([H])[H])n2)[H])[H])[H])([H])[H])[H])([H])[H])c2c(c(Cl)c(c(c2C1=O)[H])[H])[H])([H])[H])([H])[H])[H])([H])([H])[H]

>  <h>  (14) 
<NA>

>  <Training>  (14) 
True

>  <Success>  (14) 
True

>  <enamine_searched>  (14) 
False

>  <enamine_id>  (14) 
nan

$$$$

     RDKit          3D

 73 78  0  0  0  0  0  0  0  0999 V2000
   -7.9756   -3.7339  -23.9757 C   0  0  0  0  0  0  0  0  0  0  0  0
   -8.3043   -2.8582  -22.7688 C   0  0  1  0  0  0  0  0  0  0  0  0
   -7.0936   -2.6507  -21.8444 C   0  0  0  0  0  0  0  0  0  0  0  0
   -7.4034   -1.4045  -21.1726 N   0  0  0  0  0  0  0  0  0  0  0  0
   -6.6166   -0.8114  -20.1579 C   0  0  0  0  0  0  0  0  0  0  0  0
   -6.9155   -1.0699  -18.8469 C   0  0  0  0  0  0  0  0  0  0  0  0
   -6.2163   -0.5806  -17.7948 N   0  0  0  0  0  0  0  0  0  0  0  0
   -5.2053    0.2103  -18.0646 C   0  0  0  0  0  0  0  0  0  0  0  0
   -4.8071    0.5816  -19.3828 C   0  0  0  0  0  0  0  0  0  0  0  0
   -3.6955    1.4325  -19.6190 C   0  0  0  0  0  0  0  0  0  0  0  0
   -3.3914    1.8546  -20.8843 C   0  0  0  0  0  0  0  0  0  0  0  0
   -4.1762    1.4259  -21.9778 C   0  0  0  0  0  0  0  0  0  0  0  0
   -5.1920    0.5194  -21.7887 C   0  0  0  0  0  0  0  0  0  0  0  0
   -5.5541    0.0881  -20.4765 C   0  0  0  0  0  0  0  0  0  0  0  0
   -5.7140    0.1168  -22.6524 H   0  0  0  0  0  0  0  0  0  0  0  0
   -4.0129    1.8695  -22.9597 H   0  0  0  0  0  0  0  0  0  0  0  0
   -2.5460    2.5158  -21.0512 H   0  0  0  0  0  0  0  0  0  0  0  0
   -3.1060    1.7493  -18.7647 H   0  0  0  0  0  0  0  0  0  0  0  0
   -4.6250    0.5811  -17.2186 H   0  0  0  0  0  0  0  0  0  0  0  0
   -7.7702   -1.7021  -18.6134 H   0  0  0  0  0  0  0  0  0  0  0  0
   -8.3904   -0.6692  -21.7846 C   0  0  0  0  0  0  0  0  0  0  0  0
   -8.7974    0.3969  -21.3620 O   0  0  0  0  0  0  0  0  0  0  0  0
   -8.8298   -1.4204  -23.0620 C   0  0  1  0  0  0  0  0  0  0  0  0
   -8.1326   -0.8283  -24.3153 C   0  0  0  0  0  0  0  0  0  0  0  0
   -8.5942    0.5077  -24.6174 N   0  0  0  0  0  0  0  0  0  0  0  0
   -7.6618    1.5814  -24.8914 C   0  0  0  0  0  0  0  0  0  0  0  0
   -7.5482    2.5128  -23.6860 C   0  0  0  0  0  0  0  0  0  0  0  0
   -6.4600    3.5338  -23.8457 N   0  0  0  0  0  4  0  0  0  0  0  0
   -6.7780    4.6472  -24.8278 C   0  0  0  0  0  0  0  0  0  0  0  0
   -7.7571    5.6730  -24.2473 C   0  0  0  0  0  0  0  0  0  0  0  0
   -7.3249    6.1772  -22.9450 N   0  0  0  0  0  0  0  0  0  0  0  0
   -6.5583    7.6503  -22.8411 S   0  0  0  0  0  0  0  0  0  0  0  0
   -6.0805    7.8138  -21.4798 O   0  0  0  0  0  0  0  0  0  0  0  0
   -7.4300    8.6389  -23.4415 O   0  0  0  0  0  0  0  0  0  0  0  0
   -5.1297    7.5273  -23.9137 C   0  0  0  0  0  0  0  0  0  0  0  0
   -5.4632    7.4765  -24.9521 H   0  0  0  0  0  0  0  0  0  0  0  0
   -4.5074    6.6652  -23.6728 H   0  0  0  0  0  0  0  0  0  0  0  0
   -4.5545    8.4445  -23.7692 H   0  0  0  0  0  0  0  0  0  0  0  0
   -7.0391    5.1210  -21.9786 C   0  0  0  0  0  0  0  0  0  0  0  0
   -6.0200    4.1307  -22.5291 C   0  0  0  0  0  0  0  0  0  0  0  0
   -5.0607    4.6246  -22.6958 H   0  0  0  0  0  0  0  0  0  0  0  0
   -5.8560    3.3290  -21.8102 H   0  0  0  0  0  0  0  0  0  0  0  0
   -7.9865    4.6070  -21.7798 H   0  0  0  0  0  0  0  0  0  0  0  0
   -6.6954    5.5717  -21.0480 H   0  0  0  0  0  0  0  0  0  0  0  0
   -8.7319    5.2004  -24.0939 H   0  0  0  0  0  0  0  0  0  0  0  0
   -7.9117    6.5095  -24.9305 H   0  0  0  0  0  0  0  0  0  0  0  0
   -7.1746    4.2198  -25.7489 H   0  0  0  0  0  0  0  0  0  0  0  0
   -5.8318    5.1235  -25.0865 H   0  0  0  0  0  0  0  0  0  0  0  0
   -5.6383    3.0253  -24.2209 H   0  0  0  0  0  0  0  0  0  0  0  0
   -7.3430    1.9371  -22.7799 H   0  0  0  0  0  0  0  0  0  0  0  0
   -8.5081    3.0070  -23.5314 H   0  0  0  0  0  0  0  0  0  0  0  0
   -6.6879    1.1368  -25.1213 H   0  0  0  0  0  0  0  0  0  0  0  0
   -8.0095    2.1214  -25.7769 H   0  0  0  0  0  0  0  0  0  0  0  0
   -9.9267    0.7899  -24.6740 C   0  0  0  0  0  0  0  0  0  0  0  0
  -10.3634    1.8142  -25.1877 O   0  0  0  0  0  0  0  0  0  0  0  0
  -10.8305   -0.2207  -24.0390 C   0  0  0  0  0  0  0  0  0  0  0  0
  -12.2003   -0.0430  -24.2014 C   0  0  0  0  0  0  0  0  0  0  0  0
  -13.0941   -0.8866  -23.5780 C   0  0  0  0  0  0  0  0  0  0  0  0
  -12.5866   -1.9073  -22.7760 C   0  0  0  0  0  0  0  0  0  0  0  0
  -13.6891   -2.9506  -21.9354 Cl  0  0  0  0  0  0  0  0  0  0  0  0
  -11.2298   -2.1089  -22.6141 C   0  0  0  0  0  0  0  0  0  0  0  0
  -10.3208   -1.2758  -23.2693 C   0  0  0  0  0  0  0  0  0  0  0  0
  -10.8987   -2.9089  -21.9611 H   0  0  0  0  0  0  0  0  0  0  0  0
  -14.1642   -0.7508  -23.6822 H   0  0  0  0  0  0  0  0  0  0  0  0
  -12.5284    0.7856  -24.8168 H   0  0  0  0  0  0  0  0  0  0  0  0
   -8.3531   -1.4914  -25.1621 H   0  0  0  0  0  0  0  0  0  0  0  0
   -7.0448   -0.8102  -24.1810 H   0  0  0  0  0  0  0  0  0  0  0  0
   -6.1624   -2.5875  -22.4302 H   0  0  0  0  0  0  0  0  0  0  0  0
   -6.9773   -3.4635  -21.1205 H   0  0  0  0  0  0  0  0  0  0  0  0
   -9.0724   -3.3620  -22.1763 H   0  0  0  0  0  0  0  0  0  0  0  0
   -7.1330   -3.3173  -24.5412 H   0  0  0  0  0  0  0  0  0  0  0  0
   -7.6869   -4.7400  -23.6537 H   0  0  0  0  0  0  0  0  0  0  0  0
   -8.8258   -3.8290  -24.6598 H   0  0  0  0  0  0  0  0  0  0  0  0
  1  2  1  0
  2  3  1  0
  3  4  1  0
  4  5  1  0
  5  6  2  0
  6  7  1  0
  7  8  2  0
  8  9  1  0
  9 10  2  0
 10 11  1  0
 11 12  2  0
 12 13  1  0
 13 14  2  0
 13 15  1  0
 12 16  1  0
 11 17  1  0
 10 18  1  0
  8 19  1  0
  6 20  1  0
  4 21  1  0
 21 22  2  0
 21 23  1  0
 23 24  1  6
 24 25  1  0
 25 26  1  0
 26 27  1  0
 27 28  1  0
 28 29  1  0
 29 30  1  0
 30 31  1  0
 31 32  1  0
 32 33  2  0
 32 34  2  0
 32 35  1  0
 35 36  1  0
 35 37  1  0
 35 38  1  0
 31 39  1  0
 39 40  1  0
 40 41  1  0
 40 42  1  0
 39 43  1  0
 39 44  1  0
 30 45  1  0
 30 46  1  0
 29 47  1  0
 29 48  1  0
 28 49  1  0
 27 50  1  0
 27 51  1  0
 26 52  1  0
 26 53  1  0
 25 54  1  0
 54 55  2  0
 54 56  1  0
 56 57  2  0
 57 58  1  0
 58 59  2  0
 59 60  1  0
 59 61  1  0
 61 62  2  0
 61 63  1  0
 58 64  1  0
 57 65  1  0
 24 66  1  0
 24 67  1  0
  3 68  1  0
  3 69  1  0
  2 70  1  1
  1 71  1  0
  1 72  1  0
  1 73  1  0
 23  2  1  0
 40 28  1  0
 62 56  1  0
 14  5  1  0
 62 23  1  0
 14  9  1  0
M  CHG  1  28   1
M  END
>  <cnnaffinities>  (15) 
[6.41744, 5.78007, 5.89497, 5.71738]

>  <score>  (15) 
6.41744

>  <index>  (15) 
14

>  <Smiles>  (15) 
C([C@]1(C(N(c2c(nc(c3c(c(c(c(c23)[H])[H])[H])[H])[H])[H])C(=O)[C@]21C(N(C(C([N+]1(C(C(N(S(=O)(=O)C([H])([H])[H])C(C1([H])[H])([H])[H])([H])[H])([H])[H])[H])([H])[H])([H])[H])C(=O)c1c(c(c(Cl)c(c21)[H])[H])[H])([H])[H])([H])[H])[H])([H])([H])[H]

>  <h>  (15) 
<NA>

>  <Training>  (15) 
True

>  <Success>  (15) 
True

>  <enamine_searched>  (15) 
False

>  <enamine_id>  (15) 
nan

$$$$

     RDKit          3D

 63 68  0  0  0  0  0  0  0  0999 V2000
   -7.4946    3.3000  -21.9702 C   0  0  0  0  0  0  0  0  0  0  0  0
   -8.5883    2.7479  -22.7568 N   0  0  0  0  0  0  0  0  0  0  0  0
   -8.2857    1.9667  -23.8311 C   0  0  0  0  0  0  0  0  0  0  0  0
   -7.1279    1.7343  -24.1476 O   0  0  0  0  0  0  0  0  0  0  0  0
   -9.4402    1.3735  -24.6528 C   0  0  0  0  0  0  0  0  0  0  0  0
   -9.9390    0.1572  -24.0367 N   0  0  0  0  0  0  0  0  0  0  0  0
   -9.0781   -1.0172  -23.9856 C   0  0  0  0  0  0  0  0  0  0  0  0
   -9.2435   -1.7845  -22.6455 C   0  0  2  0  0  0  0  0  0  0  0  0
   -8.6802   -0.8921  -21.5042 C   0  0  0  0  0  0  0  0  0  0  0  0
   -9.1964    0.0895  -21.0114 O   0  0  0  0  0  0  0  0  0  0  0  0
   -7.4373   -1.3744  -21.1530 N   0  0  0  0  0  0  0  0  0  0  0  0
   -6.6590   -0.7758  -20.1363 C   0  0  0  0  0  0  0  0  0  0  0  0
   -6.9413   -1.0491  -18.8199 C   0  0  0  0  0  0  0  0  0  0  0  0
   -6.2218   -0.5799  -17.7745 N   0  0  0  0  0  0  0  0  0  0  0  0
   -5.1843    0.1765  -18.0449 C   0  0  0  0  0  0  0  0  0  0  0  0
   -4.7935    0.5573  -19.3622 C   0  0  0  0  0  0  0  0  0  0  0  0
   -3.7107    1.4475  -19.6014 C   0  0  0  0  0  0  0  0  0  0  0  0
   -3.4554    1.9030  -20.8669 C   0  0  0  0  0  0  0  0  0  0  0  0
   -4.2554    1.4845  -21.9522 C   0  0  0  0  0  0  0  0  0  0  0  0
   -5.2700    0.5719  -21.7563 C   0  0  0  0  0  0  0  0  0  0  0  0
   -5.5696    0.0952  -20.4492 C   0  0  0  0  0  0  0  0  0  0  0  0
   -5.8877    0.2777  -22.5976 H   0  0  0  0  0  0  0  0  0  0  0  0
   -4.0753    1.8772  -22.9500 H   0  0  0  0  0  0  0  0  0  0  0  0
   -2.6505    2.6120  -21.0406 H   0  0  0  0  0  0  0  0  0  0  0  0
   -3.1183    1.7761  -18.7525 H   0  0  0  0  0  0  0  0  0  0  0  0
   -4.6167    0.5639  -17.1992 H   0  0  0  0  0  0  0  0  0  0  0  0
   -7.7793   -1.6969  -18.5736 H   0  0  0  0  0  0  0  0  0  0  0  0
   -6.9966   -2.5114  -21.9266 C   0  0  0  0  0  0  0  0  0  0  0  0
   -8.3027   -3.0233  -22.5472 C   0  0  2  0  0  0  0  0  0  0  0  0
   -8.0485   -3.8014  -23.8425 C   0  0  0  0  0  0  0  0  0  0  0  0
   -7.2374   -4.9906  -23.6215 N   0  0  0  0  0  0  0  0  0  0  0  0
   -5.9100   -5.1665  -23.8361 C   0  0  0  0  0  0  0  0  0  0  0  0
   -5.6071   -6.4607  -23.4778 C   0  0  0  0  0  0  0  0  0  0  0  0
   -6.8379   -6.9836  -23.0305 C   0  0  0  0  0  0  0  0  0  0  0  0
   -7.8078   -6.0822  -23.1035 N   0  0  0  0  0  0  0  0  0  0  0  0
   -7.0795   -7.9763  -22.6682 H   0  0  0  0  0  0  0  0  0  0  0  0
   -4.6531   -6.9741  -23.5610 H   0  0  0  0  0  0  0  0  0  0  0  0
   -5.2824   -4.3640  -24.2090 H   0  0  0  0  0  0  0  0  0  0  0  0
   -7.5147   -3.1680  -24.5569 H   0  0  0  0  0  0  0  0  0  0  0  0
   -8.9995   -4.1092  -24.2877 H   0  0  0  0  0  0  0  0  0  0  0  0
   -8.7451   -3.7131  -21.8253 H   0  0  0  0  0  0  0  0  0  0  0  0
   -6.5161   -3.2628  -21.2940 H   0  0  0  0  0  0  0  0  0  0  0  0
   -6.2615   -2.2170  -22.6936 H   0  0  0  0  0  0  0  0  0  0  0  0
  -10.7332   -2.0510  -22.4599 C   0  0  0  0  0  0  0  0  0  0  0  0
  -11.2259   -3.1364  -21.7202 C   0  0  0  0  0  0  0  0  0  0  0  0
  -12.5827   -3.2573  -21.4611 C   0  0  0  0  0  0  0  0  0  0  0  0
  -13.1456   -4.5756  -20.4631 Cl  0  0  0  0  0  0  0  0  0  0  0  0
  -13.5045   -2.3319  -21.9478 C   0  0  0  0  0  0  0  0  0  0  0  0
  -13.0354   -1.2739  -22.6974 C   0  0  0  0  0  0  0  0  0  0  0  0
  -11.6740   -1.1285  -22.9477 C   0  0  0  0  0  0  0  0  0  0  0  0
  -11.2660    0.0832  -23.7247 C   0  0  0  0  0  0  0  0  0  0  0  0
  -12.0719    0.9477  -24.0489 O   0  0  0  0  0  0  0  0  0  0  0  0
  -13.7047   -0.5233  -23.1046 H   0  0  0  0  0  0  0  0  0  0  0  0
  -14.5608   -2.4383  -21.7313 H   0  0  0  0  0  0  0  0  0  0  0  0
  -10.5702   -3.8838  -21.2883 H   0  0  0  0  0  0  0  0  0  0  0  0
   -8.0459   -0.6738  -24.1020 H   0  0  0  0  0  0  0  0  0  0  0  0
   -9.3215   -1.6867  -24.8231 H   0  0  0  0  0  0  0  0  0  0  0  0
  -10.2930    2.0539  -24.7329 H   0  0  0  0  0  0  0  0  0  0  0  0
   -9.0685    1.1780  -25.6727 H   0  0  0  0  0  0  0  0  0  0  0  0
   -9.4811    2.6266  -22.2948 H   0  0  0  0  0  0  0  0  0  0  0  0
   -7.8842    4.0515  -21.2822 H   0  0  0  0  0  0  0  0  0  0  0  0
   -6.7472    3.7576  -22.6265 H   0  0  0  0  0  0  0  0  0  0  0  0
   -6.9922    2.5158  -21.3938 H   0  0  0  0  0  0  0  0  0  0  0  0
  1  2  1  0
  2  3  1  0
  3  4  2  0
  3  5  1  0
  5  6  1  0
  6  7  1  0
  8  7  1  6
  8  9  1  0
  9 10  2  0
  9 11  1  0
 11 12  1  0
 12 13  2  0
 13 14  1  0
 14 15  2  0
 15 16  1  0
 16 17  2  0
 17 18  1  0
 18 19  2  0
 19 20  1  0
 20 21  2  0
 20 22  1  0
 19 23  1  0
 18 24  1  0
 17 25  1  0
 15 26  1  0
 13 27  1  0
 11 28  1  0
 28 29  1  0
 29 30  1  0
 30 31  1  0
 31 32  1  0
 32 33  2  0
 33 34  1  0
 34 35  2  0
 34 36  1  0
 33 37  1  0
 32 38  1  0
 30 39  1  0
 30 40  1  0
 29 41  1  1
 28 42  1  0
 28 43  1  0
  8 44  1  0
 44 45  2  0
 45 46  1  0
 46 47  1  0
 46 48  2  0
 48 49  1  0
 49 50  2  0
 50 51  1  0
 51 52  2  0
 49 53  1  0
 48 54  1  0
 45 55  1  0
  7 56  1  0
  7 57  1  0
  5 58  1  0
  5 59  1  0
  2 60  1  0
  1 61  1  0
  1 62  1  0
  1 63  1  0
 51  6  1  0
 29  8  1  0
 35 31  1  0
 50 44  1  0
 21 12  1  0
 21 16  1  0
M  END
>  <cnnaffinities>  (16) 
[6.40059]

>  <score>  (16) 
6.40059

>  <index>  (16) 
15

>  <Smiles>  (16) 
C(N(C(=O)C(N1C([C@@]2(C(=O)N(c3c(nc(c4c(c(c(c(c34)[H])[H])[H])[H])[H])[H])C([C@@]2(C(n2c(c(c(n2)[H])[H])[H])([H])[H])[H])([H])[H])c2c(c(Cl)c(c(c2C1=O)[H])[H])[H])([H])[H])([H])[H])[H])([H])([H])[H]

>  <h>  (16) 
<NA>

>  <Training>  (16) 
True

>  <Success>  (16) 
True

>  <enamine_searched>  (16) 
False

>  <enamine_id>  (16) 
nan

$$$$

     RDKit          3D

 61 66  0  0  0  0  0  0  0  0999 V2000
   -7.3354    3.4312  -21.9123 C   0  0  0  0  0  0  0  0  0  0  0  0
   -8.2207    2.9477  -22.9552 N   0  0  0  0  0  0  0  0  0  0  0  0
   -7.6709    2.2297  -23.9722 C   0  0  0  0  0  0  0  0  0  0  0  0
   -6.4665    2.0508  -24.0709 O   0  0  0  0  0  0  0  0  0  0  0  0
   -8.6432    1.6282  -24.9850 C   0  0  0  0  0  0  0  0  0  0  0  0
   -9.3296    0.4927  -24.3988 N   0  0  0  0  0  0  0  0  0  0  0  0
   -8.6010   -0.7541  -24.2127 C   0  0  0  0  0  0  0  0  0  0  0  0
   -9.0092   -1.4713  -22.9028 C   0  0  2  0  0  0  0  0  0  0  0  0
   -8.4981   -0.6852  -21.6742 C   0  0  0  0  0  0  0  0  0  0  0  0
   -8.9306    0.3533  -21.2175 O   0  0  0  0  0  0  0  0  0  0  0  0
   -7.4247   -1.3630  -21.1505 N   0  0  0  0  0  0  0  0  0  0  0  0
   -6.6315   -0.7846  -20.1366 C   0  0  0  0  0  0  0  0  0  0  0  0
   -6.9271   -1.0501  -18.8267 C   0  0  0  0  0  0  0  0  0  0  0  0
   -6.2278   -0.5669  -17.7747 N   0  0  0  0  0  0  0  0  0  0  0  0
   -5.1866    0.1847  -18.0443 C   0  0  0  0  0  0  0  0  0  0  0  0
   -4.7869    0.5602  -19.3611 C   0  0  0  0  0  0  0  0  0  0  0  0
   -3.7006    1.4425  -19.6042 C   0  0  0  0  0  0  0  0  0  0  0  0
   -3.4419    1.8902  -20.8690 C   0  0  0  0  0  0  0  0  0  0  0  0
   -4.2467    1.4843  -21.9575 C   0  0  0  0  0  0  0  0  0  0  0  0
   -5.2395    0.5487  -21.7617 C   0  0  0  0  0  0  0  0  0  0  0  0
   -5.5561    0.0953  -20.4513 C   0  0  0  0  0  0  0  0  0  0  0  0
   -5.8160    0.2045  -22.6137 H   0  0  0  0  0  0  0  0  0  0  0  0
   -4.0880    1.9113  -22.9424 H   0  0  0  0  0  0  0  0  0  0  0  0
   -2.6243    2.5860  -21.0406 H   0  0  0  0  0  0  0  0  0  0  0  0
   -3.0942    1.7569  -18.7595 H   0  0  0  0  0  0  0  0  0  0  0  0
   -4.6248    0.5696  -17.1945 H   0  0  0  0  0  0  0  0  0  0  0  0
   -7.7777   -1.6874  -18.5998 H   0  0  0  0  0  0  0  0  0  0  0  0
   -7.0446   -2.5555  -21.8644 C   0  0  0  0  0  0  0  0  0  0  0  0
   -8.2624   -2.8366  -22.7569 C   0  0  2  0  0  0  0  0  0  0  0  0
   -7.8122   -3.5398  -24.0467 C   0  0  0  0  0  0  0  0  0  0  0  0
   -7.1788   -4.8155  -23.7425 N   0  0  0  0  0  0  0  0  0  0  0  0
   -7.8441   -5.8814  -23.3443 N   0  0  0  0  0  0  0  0  0  0  0  0
   -6.8722   -6.7729  -23.2115 C   0  0  0  0  0  0  0  0  0  0  0  0
   -5.6607   -6.2490  -23.4959 N   0  0  0  0  0  0  0  0  0  0  0  0
   -5.8807   -5.0057  -23.8277 N   0  0  0  0  0  0  0  0  0  0  0  0
   -7.0468   -7.8045  -22.9287 H   0  0  0  0  0  0  0  0  0  0  0  0
   -8.6475   -3.7239  -24.7271 H   0  0  0  0  0  0  0  0  0  0  0  0
   -7.0565   -2.9473  -24.5687 H   0  0  0  0  0  0  0  0  0  0  0  0
   -8.9221   -3.5366  -22.2375 H   0  0  0  0  0  0  0  0  0  0  0  0
   -6.8392   -3.3804  -21.1782 H   0  0  0  0  0  0  0  0  0  0  0  0
   -6.1246   -2.3968  -22.4510 H   0  0  0  0  0  0  0  0  0  0  0  0
  -10.5245   -1.5258  -22.8516 C   0  0  0  0  0  0  0  0  0  0  0  0
  -11.1767   -2.4158  -21.9920 C   0  0  0  0  0  0  0  0  0  0  0  0
  -12.5579   -2.4202  -21.9075 C   0  0  0  0  0  0  0  0  0  0  0  0
  -13.3356   -3.5305  -20.8170 Cl  0  0  0  0  0  0  0  0  0  0  0  0
  -13.3412   -1.5449  -22.6588 C   0  0  0  0  0  0  0  0  0  0  0  0
  -12.7028   -0.6327  -23.4715 C   0  0  0  0  0  0  0  0  0  0  0  0
  -11.3122   -0.5964  -23.5449 C   0  0  0  0  0  0  0  0  0  0  0  0
  -10.6961    0.5177  -24.3337 C   0  0  0  0  0  0  0  0  0  0  0  0
  -11.3686    1.3957  -24.8545 O   0  0  0  0  0  0  0  0  0  0  0  0
  -13.2589    0.0910  -24.0547 H   0  0  0  0  0  0  0  0  0  0  0  0
  -14.4230   -1.5651  -22.5830 H   0  0  0  0  0  0  0  0  0  0  0  0
  -10.6230   -3.1030  -21.3628 H   0  0  0  0  0  0  0  0  0  0  0  0
   -7.5272   -0.5390  -24.2060 H   0  0  0  0  0  0  0  0  0  0  0  0
   -8.8069   -1.4342  -25.0510 H   0  0  0  0  0  0  0  0  0  0  0  0
   -8.0861    1.3177  -25.8761 H   0  0  0  0  0  0  0  0  0  0  0  0
   -9.4059    2.3477  -25.2946 H   0  0  0  0  0  0  0  0  0  0  0  0
   -9.1738    2.7440  -22.6915 H   0  0  0  0  0  0  0  0  0  0  0  0
   -6.6163    4.1402  -22.3295 H   0  0  0  0  0  0  0  0  0  0  0  0
   -7.9142    3.9475  -21.1468 H   0  0  0  0  0  0  0  0  0  0  0  0
   -6.7856    2.5926  -21.4689 H   0  0  0  0  0  0  0  0  0  0  0  0
  1  2  1  0
  2  3  1  0
  3  4  2  0
  3  5  1  0
  5  6  1  0
  6  7  1  0
  8  7  1  6
  8  9  1  0
  9 10  2  0
  9 11  1  0
 11 12  1  0
 12 13  2  0
 13 14  1  0
 14 15  2  0
 15 16  1  0
 16 17  2  0
 17 18  1  0
 18 19  2  0
 19 20  1  0
 20 21  2  0
 20 22  1  0
 19 23  1  0
 18 24  1  0
 17 25  1  0
 15 26  1  0
 13 27  1  0
 11 28  1  0
 28 29  1  0
 29 30  1  0
 30 31  1  0
 31 32  1  0
 32 33  2  0
 33 34  1  0
 34 35  2  0
 33 36  1  0
 30 37  1  0
 30 38  1  0
 29 39  1  1
 28 40  1  0
 28 41  1  0
  8 42  1  0
 42 43  2  0
 43 44  1  0
 44 45  1  0
 44 46  2  0
 46 47  1  0
 47 48  2  0
 48 49  1  0
 49 50  2  0
 47 51  1  0
 46 52  1  0
 43 53  1  0
  7 54  1  0
  7 55  1  0
  5 56  1  0
  5 57  1  0
  2 58  1  0
  1 59  1  0
  1 60  1  0
  1 61  1  0
 49  6  1  0
 29  8  1  0
 35 31  1  0
 48 42  1  0
 21 12  1  0
 21 16  1  0
M  END
>  <cnnaffinities>  (17) 
[5.982, 6.04355]

>  <score>  (17) 
5.982

>  <index>  (17) 
16

>  <Smiles>  (17) 
C(N(C(=O)C(N1C([C@@]2(C(=O)N(c3c(nc(c4c(c(c(c(c34)[H])[H])[H])[H])[H])[H])C([C@@]2(C(n2nc(nn2)[H])([H])[H])[H])([H])[H])c2c(c(Cl)c(c(c2C1=O)[H])[H])[H])([H])[H])([H])[H])[H])([H])([H])[H]

>  <h>  (17) 
<NA>

>  <Training>  (17) 
True

>  <Success>  (17) 
True

>  <enamine_searched>  (17) 
False

>  <enamine_id>  (17) 
nan

$$$$

     RDKit          3D

 38 41  0  0  0  0  0  0  0  0999 V2000
   -9.1111   -4.9614  -25.5961 C   0  0  0  0  0  0  0  0  0  0  0  0
   -9.2125   -4.0965  -24.3452 C   0  0  2  0  0  0  0  0  0  0  0  0
  -10.2441   -2.9652  -24.4305 C   0  0  0  0  0  0  0  0  0  0  0  0
  -10.3796   -2.2876  -23.0577 C   0  0  0  0  0  0  0  0  0  0  0  0
   -9.0522   -1.9541  -22.5236 C   0  0  0  0  0  0  0  0  0  0  0  0
   -8.6758   -1.0284  -21.4918 C   0  0  0  0  0  0  0  0  0  0  0  0
   -9.2795   -0.1059  -20.9838 O   0  0  0  0  0  1  0  0  0  0  0  0
   -7.3404   -1.3940  -21.1893 N   0  0  0  0  0  0  0  0  0  0  0  0
   -6.5793   -0.8077  -20.1646 C   0  0  0  0  0  0  0  0  0  0  0  0
   -6.8998   -1.0713  -18.8605 C   0  0  0  0  0  0  0  0  0  0  0  0
   -6.2129   -0.5805  -17.8037 N   0  0  0  0  0  0  0  0  0  0  0  0
   -5.1805    0.1827  -18.0635 C   0  0  0  0  0  0  0  0  0  0  0  0
   -4.7639    0.5467  -19.3759 C   0  0  0  0  0  0  0  0  0  0  0  0
   -3.6766    1.4274  -19.6024 C   0  0  0  0  0  0  0  0  0  0  0  0
   -3.4110    1.8810  -20.8615 C   0  0  0  0  0  0  0  0  0  0  0  0
   -4.2081    1.4754  -21.9558 C   0  0  0  0  0  0  0  0  0  0  0  0
   -5.2193    0.5630  -21.7808 C   0  0  0  0  0  0  0  0  0  0  0  0
   -5.5179    0.0860  -20.4730 C   0  0  0  0  0  0  0  0  0  0  0  0
   -5.7888    0.2187  -22.6404 H   0  0  0  0  0  0  0  0  0  0  0  0
   -4.0135    1.8899  -22.9376 H   0  0  0  0  0  0  0  0  0  0  0  0
   -2.5960    2.5794  -21.0281 H   0  0  0  0  0  0  0  0  0  0  0  0
   -3.0854    1.7456  -18.7508 H   0  0  0  0  0  0  0  0  0  0  0  0
   -4.6237    0.5673  -17.2081 H   0  0  0  0  0  0  0  0  0  0  0  0
   -7.7488   -1.7119  -18.6390 H   0  0  0  0  0  0  0  0  0  0  0  0
   -6.8711   -2.4041  -22.0280 C   0  0  0  0  0  0  0  0  0  0  0  0
   -5.7592   -2.8797  -22.0718 O   0  0  0  0  0  0  0  0  0  0  0  0
   -7.9550   -2.7002  -22.8295 N   0  0  0  0  0  0  0  0  0  0  0  0
   -7.8315   -3.5494  -23.9983 C   0  0  0  0  0  0  0  0  0  0  0  0
   -7.1360   -4.3550  -23.7433 H   0  0  0  0  0  0  0  0  0  0  0  0
   -7.3795   -2.9860  -24.8298 H   0  0  0  0  0  0  0  0  0  0  0  0
  -10.9933   -1.3810  -23.0937 H   0  0  0  0  0  0  0  0  0  0  0  0
  -10.8878   -2.9889  -22.3732 H   0  0  0  0  0  0  0  0  0  0  0  0
   -9.9248   -2.2219  -25.1759 H   0  0  0  0  0  0  0  0  0  0  0  0
  -11.2179   -3.3673  -24.7398 H   0  0  0  0  0  0  0  0  0  0  0  0
   -9.4919   -4.7149  -23.4855 H   0  0  0  0  0  0  0  0  0  0  0  0
   -9.9548   -5.6451  -25.6961 H   0  0  0  0  0  0  0  0  0  0  0  0
   -8.2301   -5.6064  -25.5082 H   0  0  0  0  0  0  0  0  0  0  0  0
   -9.0437   -4.3423  -26.5051 H   0  0  0  0  0  0  0  0  0  0  0  0
  1  2  1  0
  2  3  1  0
  3  4  1  0
  4  5  1  0
  5  6  2  0
  6  7  1  0
  6  8  1  0
  8  9  1  0
  9 10  2  0
 10 11  1  0
 11 12  2  0
 12 13  1  0
 13 14  2  0
 14 15  1  0
 15 16  2  0
 16 17  1  0
 17 18  2  0
 17 19  1  0
 16 20  1  0
 15 21  1  0
 14 22  1  0
 12 23  1  0
 10 24  1  0
  8 25  1  0
 25 26  2  0
 25 27  1  0
 27 28  1  0
 28 29  1  0
 28 30  1  0
  4 31  1  0
  4 32  1  0
  3 33  1  0
  3 34  1  0
  2 35  1  1
  1 36  1  0
  1 37  1  0
  1 38  1  0
 28  2  1  0
 27  5  1  0
 18  9  1  0
 18 13  1  0
M  CHG  1   7  -1
M  END
>  <cnnaffinities>  (18) 
[4.46408, 4.43168, 4.58704]

>  <score>  (18) 
4.46408

>  <index>  (18) 
17

>  <Smiles>  (18) 
C([C@@]1(C(C(c2c([O-])n(c3c(nc(c4c(c(c(c(c34)[H])[H])[H])[H])[H])[H])c(=O)n2C1([H])[H])([H])[H])([H])[H])[H])([H])([H])[H]

>  <h>  (18) 
<NA>

>  <Training>  (18) 
True

>  <Success>  (18) 
True

>  <enamine_searched>  (18) 
False

>  <enamine_id>  (18) 
nan

$$$$

     RDKit          3D

 56 61  0  0  0  0  0  0  0  0999 V2000
   -7.9196   -3.5586  -24.0834 C   0  0  0  0  0  0  0  0  0  0  0  0
   -8.2842   -2.8362  -22.7898 C   0  0  1  0  0  0  0  0  0  0  0  0
   -7.0542   -2.5790  -21.9070 C   0  0  0  0  0  0  0  0  0  0  0  0
   -7.4018   -1.3798  -21.1749 N   0  0  0  0  0  0  0  0  0  0  0  0
   -6.6101   -0.8173  -20.1452 C   0  0  0  0  0  0  0  0  0  0  0  0
   -6.9203   -1.0656  -18.8333 C   0  0  0  0  0  0  0  0  0  0  0  0
   -6.2264   -0.5723  -17.7811 N   0  0  0  0  0  0  0  0  0  0  0  0
   -5.1943    0.1924  -18.0433 C   0  0  0  0  0  0  0  0  0  0  0  0
   -4.7805    0.5537  -19.3586 C   0  0  0  0  0  0  0  0  0  0  0  0
   -3.6989    1.4426  -19.6019 C   0  0  0  0  0  0  0  0  0  0  0  0
   -3.4218    1.8685  -20.8696 C   0  0  0  0  0  0  0  0  0  0  0  0
   -4.2076    1.4318  -21.9588 C   0  0  0  0  0  0  0  0  0  0  0  0
   -5.1775    0.4734  -21.7592 C   0  0  0  0  0  0  0  0  0  0  0  0
   -5.5264    0.0554  -20.4482 C   0  0  0  0  0  0  0  0  0  0  0  0
   -5.7225    0.0851  -22.6139 H   0  0  0  0  0  0  0  0  0  0  0  0
   -4.0283    1.8433  -22.9458 H   0  0  0  0  0  0  0  0  0  0  0  0
   -2.5999    2.5570  -21.0448 H   0  0  0  0  0  0  0  0  0  0  0  0
   -3.0986    1.7678  -18.7573 H   0  0  0  0  0  0  0  0  0  0  0  0
   -4.6331    0.5787  -17.1918 H   0  0  0  0  0  0  0  0  0  0  0  0
   -7.7812   -1.6862  -18.6009 H   0  0  0  0  0  0  0  0  0  0  0  0
   -8.4771   -0.6870  -21.6855 C   0  0  0  0  0  0  0  0  0  0  0  0
   -8.9201    0.3349  -21.2069 O   0  0  0  0  0  0  0  0  0  0  0  0
   -8.9930   -1.4518  -22.9297 C   0  0  1  0  0  0  0  0  0  0  0  0
   -8.5450   -0.7509  -24.2370 C   0  0  0  0  0  0  0  0  0  0  0  0
   -9.2654    0.4834  -24.4871 N   0  0  0  0  0  0  0  0  0  0  0  0
   -8.5489    1.6983  -24.8512 C   0  0  0  0  0  0  0  0  0  0  0  0
   -8.1713    2.5379  -23.6575 C   0  0  0  0  0  0  0  0  0  0  0  0
   -8.8912    3.5417  -22.9734 C   0  0  0  0  0  0  0  0  0  0  0  0
   -8.0304    3.9991  -22.0063 C   0  0  0  0  0  0  0  0  0  0  0  0
   -6.8982    3.2769  -22.1303 N   0  0  0  0  0  0  0  0  0  0  0  0
   -6.9565    2.3901  -23.1354 N   0  0  0  0  0  0  0  0  0  0  0  0
   -6.0732    3.2881  -21.5475 H   0  0  0  0  0  0  0  0  0  0  0  0
   -8.1626    4.8231  -21.3211 H   0  0  0  0  0  0  0  0  0  0  0  0
   -9.9053    3.8741  -23.1365 H   0  0  0  0  0  0  0  0  0  0  0  0
   -7.6306    1.4145  -25.3809 H   0  0  0  0  0  0  0  0  0  0  0  0
   -9.1927    2.2653  -25.5317 H   0  0  0  0  0  0  0  0  0  0  0  0
  -10.6299    0.5655  -24.3695 C   0  0  0  0  0  0  0  0  0  0  0  0
  -11.2711    1.4969  -24.8352 O   0  0  0  0  0  0  0  0  0  0  0  0
  -11.2781   -0.5424  -23.6076 C   0  0  0  0  0  0  0  0  0  0  0  0
  -12.6712   -0.5530  -23.5465 C   0  0  0  0  0  0  0  0  0  0  0  0
  -13.3326   -1.4610  -22.7511 C   0  0  0  0  0  0  0  0  0  0  0  0
  -12.5581   -2.3403  -22.0052 C   0  0  0  0  0  0  0  0  0  0  0  0
  -13.1830   -3.2072  -21.1958 F   0  0  0  0  0  0  0  0  0  0  0  0
  -11.1801   -2.3603  -22.0562 C   0  0  0  0  0  0  0  0  0  0  0  0
  -10.5090   -1.4786  -22.9048 C   0  0  0  0  0  0  0  0  0  0  0  0
  -10.6487   -3.0580  -21.4212 H   0  0  0  0  0  0  0  0  0  0  0  0
  -14.4137   -1.4815  -22.6785 H   0  0  0  0  0  0  0  0  0  0  0  0
  -13.2061    0.1877  -24.1259 H   0  0  0  0  0  0  0  0  0  0  0  0
   -7.4711   -0.5286  -24.1963 H   0  0  0  0  0  0  0  0  0  0  0  0
   -8.7120   -1.4479  -25.0689 H   0  0  0  0  0  0  0  0  0  0  0  0
   -6.8652   -3.4114  -21.2218 H   0  0  0  0  0  0  0  0  0  0  0  0
   -6.1461   -2.4430  -22.5166 H   0  0  0  0  0  0  0  0  0  0  0  0
   -8.9589   -3.4868  -22.2288 H   0  0  0  0  0  0  0  0  0  0  0  0
   -8.7940   -3.7019  -24.7261 H   0  0  0  0  0  0  0  0  0  0  0  0
   -7.1681   -2.9959  -24.6498 H   0  0  0  0  0  0  0  0  0  0  0  0
   -7.4967   -4.5406  -23.8566 H   0  0  0  0  0  0  0  0  0  0  0  0
  1  2  1  0
  2  3  1  0
  3  4  1  0
  4  5  1  0
  5  6  2  0
  6  7  1  0
  7  8  2  0
  8  9  1  0
  9 10  2  0
 10 11  1  0
 11 12  2  0
 12 13  1  0
 13 14  2  0
 13 15  1  0
 12 16  1  0
 11 17  1  0
 10 18  1  0
  8 19  1  0
  6 20  1  0
  4 21  1  0
 21 22  2  0
 21 23  1  0
 23 24  1  6
 24 25  1  0
 25 26  1  0
 26 27  1  0
 27 28  1  0
 28 29  2  0
 29 30  1  0
 30 31  1  0
 30 32  1  0
 29 33  1  0
 28 34  1  0
 26 35  1  0
 26 36  1  0
 25 37  1  0
 37 38  2  0
 37 39  1  0
 39 40  2  0
 40 41  1  0
 41 42  2  0
 42 43  1  0
 42 44  1  0
 44 45  2  0
 44 46  1  0
 41 47  1  0
 40 48  1  0
 24 49  1  0
 24 50  1  0
  3 51  1  0
  3 52  1  0
  2 53  1  1
  1 54  1  0
  1 55  1  0
  1 56  1  0
 23  2  1  0
 31 27  2  0
 45 39  1  0
 14  5  1  0
 45 23  1  0
 14  9  1  0
M  END
>  <cnnaffinities>  (19) 
[5.73266]

>  <score>  (19) 
5.73266

>  <index>  (19) 
18

>  <Smiles>  (19) 
C([C@]1(C(N(c2c(nc(c3c(c(c(c(c23)[H])[H])[H])[H])[H])[H])C(=O)[C@]21C(N(C(c1c(c(n(n1)[H])[H])[H])([H])[H])C(=O)c1c(c(c(F)c(c21)[H])[H])[H])([H])[H])([H])[H])[H])([H])([H])[H]

>  <h>  (19) 
<NA>

>  <Training>  (19) 
True

>  <Success>  (19) 
True

>  <enamine_searched>  (19) 
False

>  <enamine_id>  (19) 
nan

$$$$

     RDKit          3D

 42 45  0  0  0  0  0  0  0  0999 V2000
   -8.4349    0.6095  -21.4933 O   0  0  0  0  0  0  0  0  0  0  0  0
   -8.3046   -0.5429  -21.8600 C   0  0  0  0  0  0  0  0  0  0  0  0
   -9.1624   -1.1448  -22.9756 C   0  0  1  0  0  0  0  0  0  0  0  0
   -9.3508   -0.1712  -24.1253 C   0  0  0  0  0  0  0  0  0  0  0  0
  -10.6292    0.1601  -24.5745 C   0  0  0  0  0  0  0  0  0  0  0  0
  -10.8053    1.0025  -25.6662 C   0  0  0  0  0  0  0  0  0  0  0  0
   -9.6989    1.5273  -26.3281 C   0  0  0  0  0  0  0  0  0  0  0  0
   -9.9595    2.5908  -27.6685 Cl  0  0  0  0  0  0  0  0  0  0  0  0
   -8.4138    1.1929  -25.8977 C   0  0  0  0  0  0  0  0  0  0  0  0
   -7.0072    1.8214  -26.6927 Cl  0  0  0  0  0  0  0  0  0  0  0  0
   -8.2499    0.3420  -24.8092 C   0  0  0  0  0  0  0  0  0  0  0  0
   -7.2359    0.0875  -24.5054 H   0  0  0  0  0  0  0  0  0  0  0  0
  -11.8009    1.2679  -26.0105 H   0  0  0  0  0  0  0  0  0  0  0  0
  -11.5032   -0.2483  -24.0707 H   0  0  0  0  0  0  0  0  0  0  0  0
   -8.6717   -2.5020  -23.4837 C   0  0  0  0  0  0  0  0  0  0  0  0
   -8.2267   -3.4178  -22.3521 C   0  0  2  0  0  0  0  0  0  0  0  0
   -9.2816   -3.7704  -21.4820 O   0  0  0  0  0  0  0  0  0  0  0  0
   -9.5134   -2.9930  -20.9556 H   0  0  0  0  0  0  0  0  0  0  0  0
   -7.0756   -2.7432  -21.6283 C   0  0  0  0  0  0  0  0  0  0  0  0
   -7.4252   -1.3894  -21.2109 N   0  0  0  0  0  0  0  0  0  0  0  0
   -6.6482   -0.8014  -20.1772 C   0  0  0  0  0  0  0  0  0  0  0  0
   -6.9300   -1.0901  -18.8638 C   0  0  0  0  0  0  0  0  0  0  0  0
   -6.2245   -0.6145  -17.8073 N   0  0  0  0  0  0  0  0  0  0  0  0
   -5.2262    0.1938  -18.0725 C   0  0  0  0  0  0  0  0  0  0  0  0
   -4.8369    0.5856  -19.3894 C   0  0  0  0  0  0  0  0  0  0  0  0
   -3.7042    1.4082  -19.6281 C   0  0  0  0  0  0  0  0  0  0  0  0
   -3.4046    1.8477  -20.8884 C   0  0  0  0  0  0  0  0  0  0  0  0
   -4.2094    1.4456  -21.9846 C   0  0  0  0  0  0  0  0  0  0  0  0
   -5.1901    0.4986  -21.7993 C   0  0  0  0  0  0  0  0  0  0  0  0
   -5.5671    0.0816  -20.4873 C   0  0  0  0  0  0  0  0  0  0  0  0
   -5.6977    0.0657  -22.6600 H   0  0  0  0  0  0  0  0  0  0  0  0
   -4.0113    1.8477  -22.9748 H   0  0  0  0  0  0  0  0  0  0  0  0
   -2.5490    2.4987  -21.0590 H   0  0  0  0  0  0  0  0  0  0  0  0
   -3.1023    1.6945  -18.7690 H   0  0  0  0  0  0  0  0  0  0  0  0
   -4.6457    0.5676  -17.2267 H   0  0  0  0  0  0  0  0  0  0  0  0
   -7.7800   -1.7250  -18.6105 H   0  0  0  0  0  0  0  0  0  0  0  0
   -6.1933   -2.7256  -22.2842 H   0  0  0  0  0  0  0  0  0  0  0  0
   -6.8155   -3.3033  -20.7258 H   0  0  0  0  0  0  0  0  0  0  0  0
   -7.8843   -4.3691  -22.7749 H   0  0  0  0  0  0  0  0  0  0  0  0
   -9.4784   -2.9749  -24.0496 H   0  0  0  0  0  0  0  0  0  0  0  0
   -7.8372   -2.3607  -24.1815 H   0  0  0  0  0  0  0  0  0  0  0  0
  -10.1334   -1.2957  -22.4875 H   0  0  0  0  0  0  0  0  0  0  0  0
  1  2  2  0
  2  3  1  0
  3  4  1  0
  4  5  2  0
  5  6  1  0
  6  7  2  0
  7  8  1  0
  7  9  1  0
  9 10  1  0
  9 11  2  0
 11 12  1  0
  6 13  1  0
  5 14  1  0
  3 15  1  0
 15 16  1  0
 16 17  1  0
 17 18  1  0
 16 19  1  0
 19 20  1  0
 20 21  1  0
 21 22  2  0
 22 23  1  0
 23 24  2  0
 24 25  1  0
 25 26  2  0
 26 27  1  0
 27 28  2  0
 28 29  1  0
 29 30  2  0
 29 31  1  0
 28 32  1  0
 27 33  1  0
 26 34  1  0
 24 35  1  0
 22 36  1  0
 19 37  1  0
 19 38  1  0
 16 39  1  6
 15 40  1  0
 15 41  1  0
  3 42  1  1
 20  2  1  0
 30 21  1  0
 11  4  1  0
 30 25  1  0
M  END
>  <cnnaffinities>  (20) 
[5.06374, 5.46185]

>  <score>  (20) 
5.06374

>  <index>  (20) 
19

>  <Smiles>  (20) 
O=C1[C@@](c2c(c(c(Cl)c(Cl)c2[H])[H])[H])(C([C@](O[H])(C(N1c1c(nc(c2c(c(c(c(c12)[H])[H])[H])[H])[H])[H])([H])[H])[H])([H])[H])[H]

>  <h>  (20) 
<NA>

>  <Training>  (20) 
True

>  <Success>  (20) 
True

>  <enamine_searched>  (20) 
False

>  <enamine_id>  (20) 
nan

$$$$

     RDKit          3D

 66 71  0  0  0  0  0  0  0  0999 V2000
   -6.9134    3.5386  -23.1492 C   0  0  0  0  0  0  0  0  0  0  0  0
   -7.8644    2.9497  -24.0714 N   0  0  0  0  0  0  0  0  0  0  0  0
   -7.4960    1.8566  -24.7823 C   0  0  0  0  0  0  0  0  0  0  0  0
   -6.3537    1.4064  -24.7714 O   0  0  0  0  0  0  0  0  0  0  0  0
   -8.6291    1.2044  -25.5794 C   0  0  0  0  0  0  0  0  0  0  0  0
   -9.3640    0.2827  -24.7321 N   0  0  0  0  0  0  0  0  0  0  0  0
   -8.7922   -1.0201  -24.4617 C   0  0  0  0  0  0  0  0  0  0  0  0
   -8.9740   -1.4886  -22.9975 C   0  0  2  0  0  0  0  0  0  0  0  0
   -8.2233   -0.5479  -22.0272 C   0  0  0  0  0  0  0  0  0  0  0  0
   -8.2921    0.6650  -21.9979 O   0  0  0  0  0  0  0  0  0  0  0  0
   -7.4518   -1.3100  -21.1784 N   0  0  0  0  0  0  0  0  0  0  0  0
   -6.6499   -0.7675  -20.1528 C   0  0  0  0  0  0  0  0  0  0  0  0
   -6.8846   -1.0996  -18.8424 C   0  0  0  0  0  0  0  0  0  0  0  0
   -6.1749   -0.6287  -17.7908 N   0  0  0  0  0  0  0  0  0  0  0  0
   -5.1765    0.1826  -18.0495 C   0  0  0  0  0  0  0  0  0  0  0  0
   -4.7999    0.5802  -19.3643 C   0  0  0  0  0  0  0  0  0  0  0  0
   -3.7194    1.4775  -19.5940 C   0  0  0  0  0  0  0  0  0  0  0  0
   -3.4766    1.9628  -20.8498 C   0  0  0  0  0  0  0  0  0  0  0  0
   -4.2634    1.5263  -21.9421 C   0  0  0  0  0  0  0  0  0  0  0  0
   -5.2571    0.5993  -21.7565 C   0  0  0  0  0  0  0  0  0  0  0  0
   -5.5720    0.1207  -20.4535 C   0  0  0  0  0  0  0  0  0  0  0  0
   -5.8369    0.2720  -22.6123 H   0  0  0  0  0  0  0  0  0  0  0  0
   -4.1071    1.9301  -22.9403 H   0  0  0  0  0  0  0  0  0  0  0  0
   -2.6832    2.6856  -21.0163 H   0  0  0  0  0  0  0  0  0  0  0  0
   -3.1260    1.8015  -18.7418 H   0  0  0  0  0  0  0  0  0  0  0  0
   -4.6119    0.5717  -17.2009 H   0  0  0  0  0  0  0  0  0  0  0  0
   -7.7005   -1.7764  -18.5955 H   0  0  0  0  0  0  0  0  0  0  0  0
   -7.7087   -2.7311  -21.3023 C   0  0  0  0  0  0  0  0  0  0  0  0
   -8.3167   -2.8776  -22.7149 C   0  0  2  0  0  0  0  0  0  0  0  0
   -7.2614   -3.3693  -23.7419 C   0  0  0  0  0  0  0  0  0  0  0  0
   -7.8159   -3.8854  -25.0598 C   0  0  0  0  0  0  0  0  0  0  0  0
   -7.3953   -3.4619  -26.3241 C   0  0  0  0  0  0  0  0  0  0  0  0
   -7.8108   -4.1435  -27.4686 C   0  0  0  0  0  0  0  0  0  0  0  0
   -8.6474   -5.2530  -27.3708 C   0  0  0  0  0  0  0  0  0  0  0  0
   -9.1595   -5.6150  -26.1233 C   0  0  0  0  0  0  0  0  0  0  0  0
   -8.7791   -4.8885  -25.0026 C   0  0  0  0  0  0  0  0  0  0  0  0
   -9.2190   -5.0704  -24.0332 H   0  0  0  0  0  0  0  0  0  0  0  0
   -9.8463   -6.4549  -26.0060 H   0  0  0  0  0  0  0  0  0  0  0  0
   -8.8995   -5.8049  -28.2743 H   0  0  0  0  0  0  0  0  0  0  0  0
   -7.4653   -3.8208  -28.4467 H   0  0  0  0  0  0  0  0  0  0  0  0
   -6.7808   -2.5672  -26.4160 H   0  0  0  0  0  0  0  0  0  0  0  0
   -6.7187   -4.2043  -23.2781 H   0  0  0  0  0  0  0  0  0  0  0  0
   -6.5098   -2.5959  -23.9229 H   0  0  0  0  0  0  0  0  0  0  0  0
   -9.0923   -3.6421  -22.6949 H   0  0  0  0  0  0  0  0  0  0  0  0
   -6.7686   -3.2713  -21.1688 H   0  0  0  0  0  0  0  0  0  0  0  0
   -8.4092   -3.0747  -20.5281 H   0  0  0  0  0  0  0  0  0  0  0  0
  -10.4813   -1.4166  -22.7392 C   0  0  0  0  0  0  0  0  0  0  0  0
  -11.1806   -2.3789  -21.9959 C   0  0  0  0  0  0  0  0  0  0  0  0
  -12.5495   -2.2700  -21.8156 C   0  0  0  0  0  0  0  0  0  0  0  0
  -13.4043   -3.5205  -20.9503 Cl  0  0  0  0  0  0  0  0  0  0  0  0
  -13.2584   -1.1788  -22.3160 C   0  0  0  0  0  0  0  0  0  0  0  0
  -12.5722   -0.2056  -23.0238 C   0  0  0  0  0  0  0  0  0  0  0  0
  -11.2027   -0.3311  -23.2689 C   0  0  0  0  0  0  0  0  0  0  0  0
  -10.5571    0.6636  -24.2018 C   0  0  0  0  0  0  0  0  0  0  0  0
  -11.0671    1.7461  -24.4671 O   0  0  0  0  0  0  0  0  0  0  0  0
  -13.1025    0.6512  -23.4328 H   0  0  0  0  0  0  0  0  0  0  0  0
  -14.3341   -1.1167  -22.1730 H   0  0  0  0  0  0  0  0  0  0  0  0
  -10.6829   -3.2403  -21.5678 H   0  0  0  0  0  0  0  0  0  0  0  0
   -7.7354   -0.9727  -24.7085 H   0  0  0  0  0  0  0  0  0  0  0  0
   -9.2746   -1.7586  -25.1097 H   0  0  0  0  0  0  0  0  0  0  0  0
   -9.3307    1.9450  -25.9697 H   0  0  0  0  0  0  0  0  0  0  0  0
   -8.2012    0.6632  -26.4276 H   0  0  0  0  0  0  0  0  0  0  0  0
   -8.8478    3.0546  -23.8595 H   0  0  0  0  0  0  0  0  0  0  0  0
   -7.3693    4.4027  -22.6618 H   0  0  0  0  0  0  0  0  0  0  0  0
   -6.0203    3.8591  -23.6949 H   0  0  0  0  0  0  0  0  0  0  0  0
   -6.6004    2.8157  -22.3847 H   0  0  0  0  0  0  0  0  0  0  0  0
  1  2  1  0
  2  3  1  0
  3  4  2  0
  3  5  1  0
  5  6  1  0
  6  7  1  0
  8  7  1  6
  8  9  1  0
  9 10  2  0
  9 11  1  0
 11 12  1  0
 12 13  2  0
 13 14  1  0
 14 15  2  0
 15 16  1  0
 16 17  2  0
 17 18  1  0
 18 19  2  0
 19 20  1  0
 20 21  2  0
 20 22  1  0
 19 23  1  0
 18 24  1  0
 17 25  1  0
 15 26  1  0
 13 27  1  0
 11 28  1  0
 28 29  1  0
 29 30  1  0
 30 31  1  0
 31 32  2  0
 32 33  1  0
 33 34  2  0
 34 35  1  0
 35 36  2  0
 36 37  1  0
 35 38  1  0
 34 39  1  0
 33 40  1  0
 32 41  1  0
 30 42  1  0
 30 43  1  0
 29 44  1  1
 28 45  1  0
 28 46  1  0
  8 47  1  0
 47 48  2  0
 48 49  1  0
 49 50  1  0
 49 51  2  0
 51 52  1  0
 52 53  2  0
 53 54  1  0
 54 55  2  0
 52 56  1  0
 51 57  1  0
 48 58  1  0
  7 59  1  0
  7 60  1  0
  5 61  1  0
  5 62  1  0
  2 63  1  0
  1 64  1  0
  1 65  1  0
  1 66  1  0
 54  6  1  0
 29  8  1  0
 36 31  1  0
 53 47  1  0
 21 12  1  0
 21 16  1  0
M  END
>  <cnnaffinities>  (21) 
[5.80143, 6.58441]

>  <score>  (21) 
5.80143

>  <index>  (21) 
20

>  <Smiles>  (21) 
C(N(C(=O)C(N1C([C@@]2(C(=O)N(c3c(nc(c4c(c(c(c(c34)[H])[H])[H])[H])[H])[H])C([C@@]2(C(c2c(c(c(c(c2[H])[H])[H])[H])[H])([H])[H])[H])([H])[H])c2c(c(Cl)c(c(c2C1=O)[H])[H])[H])([H])[H])([H])[H])[H])([H])([H])[H]

>  <h>  (21) 
<NA>

>  <Training>  (21) 
True

>  <Success>  (21) 
True

>  <enamine_searched>  (21) 
False

>  <enamine_id>  (21) 
nan

$$$$

     RDKit          3D

 63 68  0  0  0  0  0  0  0  0999 V2000
   -8.3375   -4.1723  -23.4562 C   0  0  0  0  0  0  0  0  0  0  0  0
   -8.5459   -2.9971  -22.5188 C   0  0  1  0  0  0  0  0  0  0  0  0
   -7.4073   -2.7980  -21.5109 C   0  0  0  0  0  0  0  0  0  0  0  0
   -7.4604   -1.3743  -21.2229 N   0  0  0  0  0  0  0  0  0  0  0  0
   -6.6779   -0.7797  -20.2026 C   0  0  0  0  0  0  0  0  0  0  0  0
   -6.9296   -1.1003  -18.8911 C   0  0  0  0  0  0  0  0  0  0  0  0
   -6.2358   -0.6252  -17.8301 N   0  0  0  0  0  0  0  0  0  0  0  0
   -5.2215    0.1651  -18.0830 C   0  0  0  0  0  0  0  0  0  0  0  0
   -4.8321    0.5622  -19.3914 C   0  0  0  0  0  0  0  0  0  0  0  0
   -3.7471    1.4574  -19.5912 C   0  0  0  0  0  0  0  0  0  0  0  0
   -3.4888    1.9553  -20.8366 C   0  0  0  0  0  0  0  0  0  0  0  0
   -4.2608    1.5346  -21.9433 C   0  0  0  0  0  0  0  0  0  0  0  0
   -5.2738    0.6249  -21.7844 C   0  0  0  0  0  0  0  0  0  0  0  0
   -5.6010    0.1218  -20.4924 C   0  0  0  0  0  0  0  0  0  0  0  0
   -5.8280    0.2860  -22.6526 H   0  0  0  0  0  0  0  0  0  0  0  0
   -4.0438    1.9280  -22.9318 H   0  0  0  0  0  0  0  0  0  0  0  0
   -2.6807    2.6654  -20.9885 H   0  0  0  0  0  0  0  0  0  0  0  0
   -3.1539    1.7545  -18.7287 H   0  0  0  0  0  0  0  0  0  0  0  0
   -4.6610    0.5478  -17.2301 H   0  0  0  0  0  0  0  0  0  0  0  0
   -7.7449   -1.7802  -18.6499 H   0  0  0  0  0  0  0  0  0  0  0  0
   -8.1955   -0.6508  -22.1404 C   0  0  0  0  0  0  0  0  0  0  0  0
   -8.3259    0.5576  -22.1225 O   0  0  0  0  0  0  0  0  0  0  0  0
   -8.7646   -1.6019  -23.2060 C   0  0  1  0  0  0  0  0  0  0  0  0
   -7.9484   -1.3319  -24.5015 C   0  0  0  0  0  0  0  0  0  0  0  0
   -8.5746   -1.8465  -25.7172 N   0  0  0  0  0  0  0  0  0  0  0  0
   -7.7547   -2.1989  -26.8690 C   0  0  0  0  0  0  0  0  0  0  0  0
   -7.7061   -3.7216  -27.0069 C   0  0  0  0  0  0  0  0  0  0  0  0
   -6.8811   -4.4057  -26.4195 O   0  0  0  0  0  0  0  0  0  0  0  0
   -8.6670   -4.2480  -27.8158 N   0  0  0  0  0  0  0  0  0  0  0  0
   -8.7663   -5.6905  -27.9083 C   0  0  0  0  0  0  0  0  0  0  0  0
   -9.1311   -6.3425  -26.5896 C   0  0  0  0  0  0  0  0  0  0  0  0
   -9.3953   -7.8151  -26.5925 C   0  0  0  0  0  0  0  0  0  0  0  0
   -8.2131   -7.2731  -25.8501 C   0  0  0  0  0  0  0  0  0  0  0  0
   -8.2414   -7.2320  -24.7641 H   0  0  0  0  0  0  0  0  0  0  0  0
   -7.2347   -7.4763  -26.2734 H   0  0  0  0  0  0  0  0  0  0  0  0
   -9.1989   -8.3593  -27.5128 H   0  0  0  0  0  0  0  0  0  0  0  0
  -10.2464   -8.1923  -26.0434 H   0  0  0  0  0  0  0  0  0  0  0  0
   -9.7838   -5.7425  -25.9502 H   0  0  0  0  0  0  0  0  0  0  0  0
   -9.5322   -5.9103  -28.6638 H   0  0  0  0  0  0  0  0  0  0  0  0
   -7.8132   -6.0989  -28.2733 H   0  0  0  0  0  0  0  0  0  0  0  0
   -9.5122   -3.6958  -27.9316 H   0  0  0  0  0  0  0  0  0  0  0  0
   -6.7467   -1.8081  -26.7275 H   0  0  0  0  0  0  0  0  0  0  0  0
   -8.1806   -1.7489  -27.7738 H   0  0  0  0  0  0  0  0  0  0  0  0
   -9.9165   -1.7984  -25.9358 C   0  0  0  0  0  0  0  0  0  0  0  0
  -10.4005   -2.0604  -27.0408 O   0  0  0  0  0  0  0  0  0  0  0  0
  -10.7673   -1.4379  -24.7734 C   0  0  0  0  0  0  0  0  0  0  0  0
  -12.1295   -1.2490  -25.0000 C   0  0  0  0  0  0  0  0  0  0  0  0
  -12.9850   -0.9508  -23.9622 C   0  0  0  0  0  0  0  0  0  0  0  0
  -12.4511   -0.8691  -22.6849 C   0  0  0  0  0  0  0  0  0  0  0  0
  -13.2977   -0.6234  -21.6784 F   0  0  0  0  0  0  0  0  0  0  0  0
  -11.1039   -1.0472  -22.4297 C   0  0  0  0  0  0  0  0  0  0  0  0
  -10.2305   -1.3304  -23.4866 C   0  0  0  0  0  0  0  0  0  0  0  0
  -10.7332   -0.9586  -21.4170 H   0  0  0  0  0  0  0  0  0  0  0  0
  -14.0468   -0.7935  -24.1157 H   0  0  0  0  0  0  0  0  0  0  0  0
  -12.5103   -1.3496  -26.0083 H   0  0  0  0  0  0  0  0  0  0  0  0
   -7.8300   -0.2419  -24.5900 H   0  0  0  0  0  0  0  0  0  0  0  0
   -6.9460   -1.7712  -24.4082 H   0  0  0  0  0  0  0  0  0  0  0  0
   -7.5558   -3.3861  -20.5985 H   0  0  0  0  0  0  0  0  0  0  0  0
   -6.4283   -3.0877  -21.9226 H   0  0  0  0  0  0  0  0  0  0  0  0
   -9.4563   -3.1726  -21.9268 H   0  0  0  0  0  0  0  0  0  0  0  0
   -9.1754   -4.2468  -24.1569 H   0  0  0  0  0  0  0  0  0  0  0  0
   -8.2728   -5.1214  -22.9086 H   0  0  0  0  0  0  0  0  0  0  0  0
   -7.4246   -4.0534  -24.0480 H   0  0  0  0  0  0  0  0  0  0  0  0
  1  2  1  0
  2  3  1  0
  3  4  1  0
  4  5  1  0
  5  6  2  0
  6  7  1  0
  7  8  2  0
  8  9  1  0
  9 10  2  0
 10 11  1  0
 11 12  2  0
 12 13  1  0
 13 14  2  0
 13 15  1  0
 12 16  1  0
 11 17  1  0
 10 18  1  0
  8 19  1  0
  6 20  1  0
  4 21  1  0
 21 22  2  0
 21 23  1  0
 23 24  1  6
 24 25  1  0
 25 26  1  0
 26 27  1  0
 27 28  2  0
 27 29  1  0
 29 30  1  0
 30 31  1  0
 31 32  1  0
 32 33  1  0
 33 34  1  0
 33 35  1  0
 32 36  1  0
 32 37  1  0
 31 38  1  0
 30 39  1  0
 30 40  1  0
 29 41  1  0
 26 42  1  0
 26 43  1  0
 25 44  1  0
 44 45  2  0
 44 46  1  0
 46 47  2  0
 47 48  1  0
 48 49  2  0
 49 50  1  0
 49 51  1  0
 51 52  2  0
 51 53  1  0
 48 54  1  0
 47 55  1  0
 24 56  1  0
 24 57  1  0
  3 58  1  0
  3 59  1  0
  2 60  1  1
  1 61  1  0
  1 62  1  0
  1 63  1  0
 23  2  1  0
 33 31  1  0
 52 46  1  0
 14  5  1  0
 52 23  1  0
 14  9  1  0
M  END
>  <cnnaffinities>  (22) 
[5.71033, 6.51838]

>  <score>  (22) 
5.71033

>  <index>  (22) 
21

>  <Smiles>  (22) 
C([C@]1(C(N(c2c(nc(c3c(c(c(c(c23)[H])[H])[H])[H])[H])[H])C(=O)[C@]21C(N(C(C(=O)N(C(C1(C(C1([H])[H])([H])[H])[H])([H])[H])[H])([H])[H])C(=O)c1c(c(c(F)c(c21)[H])[H])[H])([H])[H])([H])[H])[H])([H])([H])[H]

>  <h>  (22) 
<NA>

>  <Training>  (22) 
True

>  <Success>  (22) 
True

>  <enamine_searched>  (22) 
False

>  <enamine_id>  (22) 
nan

$$$$

     RDKit          3D

 68 73  0  0  0  0  0  0  0  0999 V2000
   -7.5691    3.1453  -22.0203 C   0  0  0  0  0  0  0  0  0  0  0  0
   -8.7074    2.5978  -22.7484 N   0  0  0  0  0  0  0  0  0  0  0  0
   -8.4549    1.7944  -23.8237 C   0  0  0  0  0  0  0  0  0  0  0  0
   -7.3151    1.5385  -24.1833 O   0  0  0  0  0  0  0  0  0  0  0  0
   -9.6416    1.1903  -24.5836 C   0  0  0  0  0  0  0  0  0  0  0  0
  -10.0936   -0.0224  -23.9304 N   0  0  0  0  0  0  0  0  0  0  0  0
   -9.2175   -1.1850  -23.9100 C   0  0  0  0  0  0  0  0  0  0  0  0
   -9.3034   -1.9250  -22.5481 C   0  0  2  0  0  0  0  0  0  0  0  0
   -8.7172   -0.9859  -21.4585 C   0  0  0  0  0  0  0  0  0  0  0  0
   -9.2463   -0.0028  -20.9743 O   0  0  0  0  0  0  0  0  0  0  0  0
   -7.4406   -1.4155  -21.1549 N   0  0  0  0  0  0  0  0  0  0  0  0
   -6.6604   -0.8021  -20.1428 C   0  0  0  0  0  0  0  0  0  0  0  0
   -6.9458   -1.0570  -18.8225 C   0  0  0  0  0  0  0  0  0  0  0  0
   -6.2313   -0.5765  -17.7777 N   0  0  0  0  0  0  0  0  0  0  0  0
   -5.1858    0.1680  -18.0525 C   0  0  0  0  0  0  0  0  0  0  0  0
   -4.7942    0.5414  -19.3696 C   0  0  0  0  0  0  0  0  0  0  0  0
   -3.7125    1.4324  -19.6054 C   0  0  0  0  0  0  0  0  0  0  0  0
   -3.4520    1.8843  -20.8716 C   0  0  0  0  0  0  0  0  0  0  0  0
   -4.2549    1.4678  -21.9553 C   0  0  0  0  0  0  0  0  0  0  0  0
   -5.2641    0.5498  -21.7636 C   0  0  0  0  0  0  0  0  0  0  0  0
   -5.5700    0.0725  -20.4586 C   0  0  0  0  0  0  0  0  0  0  0  0
   -5.8737    0.2487  -22.6095 H   0  0  0  0  0  0  0  0  0  0  0  0
   -4.0636    1.8600  -22.9510 H   0  0  0  0  0  0  0  0  0  0  0  0
   -2.6461    2.5900  -21.0447 H   0  0  0  0  0  0  0  0  0  0  0  0
   -3.1185    1.7588  -18.7560 H   0  0  0  0  0  0  0  0  0  0  0  0
   -4.6219    0.5656  -17.2088 H   0  0  0  0  0  0  0  0  0  0  0  0
   -7.7869   -1.6986  -18.5681 H   0  0  0  0  0  0  0  0  0  0  0  0
   -6.9946   -2.5314  -21.9648 C   0  0  0  0  0  0  0  0  0  0  0  0
   -8.3219   -3.1264  -22.4531 C   0  0  2  0  0  0  0  0  0  0  0  0
   -8.1999   -3.9832  -23.7265 C   0  0  0  0  0  0  0  0  0  0  0  0
   -7.5451   -5.2720  -23.5635 N   0  0  0  0  0  0  0  0  0  0  0  0
   -6.1637   -5.4060  -23.3950 C   0  0  0  0  0  0  0  0  0  0  0  0
   -5.6860   -6.4853  -22.6343 C   0  0  0  0  0  0  0  0  0  0  0  0
   -4.3268   -6.6801  -22.4439 C   0  0  0  0  0  0  0  0  0  0  0  0
   -3.4005   -5.8131  -23.0134 C   0  0  0  0  0  0  0  0  0  0  0  0
   -3.8606   -4.7565  -23.7894 C   0  0  0  0  0  0  0  0  0  0  0  0
   -5.2227   -4.5487  -23.9891 C   0  0  0  0  0  0  0  0  0  0  0  0
   -5.5385   -3.7213  -24.6215 H   0  0  0  0  0  0  0  0  0  0  0  0
   -3.1480   -4.0804  -24.2548 H   0  0  0  0  0  0  0  0  0  0  0  0
   -2.3373   -5.9659  -22.8605 H   0  0  0  0  0  0  0  0  0  0  0  0
   -3.9973   -7.5286  -21.8497 H   0  0  0  0  0  0  0  0  0  0  0  0
   -6.4032   -7.1802  -22.1981 H   0  0  0  0  0  0  0  0  0  0  0  0
   -8.0619   -5.9076  -22.9698 H   0  0  0  0  0  0  0  0  0  0  0  0
   -9.2109   -4.1757  -24.1091 H   0  0  0  0  0  0  0  0  0  0  0  0
   -7.6652   -3.4164  -24.5004 H   0  0  0  0  0  0  0  0  0  0  0  0
   -8.6709   -3.7616  -21.6307 H   0  0  0  0  0  0  0  0  0  0  0  0
   -6.3662   -2.1956  -22.8060 H   0  0  0  0  0  0  0  0  0  0  0  0
   -6.3940   -3.2392  -21.3856 H   0  0  0  0  0  0  0  0  0  0  0  0
  -10.7744   -2.2410  -22.3174 C   0  0  0  0  0  0  0  0  0  0  0  0
  -11.2254   -3.3840  -21.6412 C   0  0  0  0  0  0  0  0  0  0  0  0
  -12.5649   -3.5221  -21.3076 C   0  0  0  0  0  0  0  0  0  0  0  0
  -13.0717   -4.8627  -20.3083 Cl  0  0  0  0  0  0  0  0  0  0  0  0
  -13.5179   -2.5843  -21.7002 C   0  0  0  0  0  0  0  0  0  0  0  0
  -13.0926   -1.4834  -22.4152 C   0  0  0  0  0  0  0  0  0  0  0  0
  -11.7444   -1.3102  -22.7190 C   0  0  0  0  0  0  0  0  0  0  0  0
  -11.3835   -0.0773  -23.4856 C   0  0  0  0  0  0  0  0  0  0  0  0
  -12.1956    0.8141  -23.6941 O   0  0  0  0  0  0  0  0  0  0  0  0
  -13.7918   -0.7321  -22.7646 H   0  0  0  0  0  0  0  0  0  0  0  0
  -14.5640   -2.7227  -21.4464 H   0  0  0  0  0  0  0  0  0  0  0  0
  -10.5431   -4.1561  -21.3125 H   0  0  0  0  0  0  0  0  0  0  0  0
   -9.4942   -1.8663  -24.7267 H   0  0  0  0  0  0  0  0  0  0  0  0
   -8.1992   -0.8298  -24.0900 H   0  0  0  0  0  0  0  0  0  0  0  0
   -9.3228    0.9774  -25.6173 H   0  0  0  0  0  0  0  0  0  0  0  0
  -10.5019    1.8630  -24.6201 H   0  0  0  0  0  0  0  0  0  0  0  0
   -9.5621    2.4537  -22.2259 H   0  0  0  0  0  0  0  0  0  0  0  0
   -7.8912    3.9536  -21.3624 H   0  0  0  0  0  0  0  0  0  0  0  0
   -6.8305    3.5277  -22.7332 H   0  0  0  0  0  0  0  0  0  0  0  0
   -7.0880    2.3732  -21.4104 H   0  0  0  0  0  0  0  0  0  0  0  0
  1  2  1  0
  2  3  1  0
  3  4  2  0
  3  5  1  0
  5  6  1  0
  6  7  1  0
  8  7  1  6
  8  9  1  0
  9 10  2  0
  9 11  1  0
 11 12  1  0
 12 13  2  0
 13 14  1  0
 14 15  2  0
 15 16  1  0
 16 17  2  0
 17 18  1  0
 18 19  2  0
 19 20  1  0
 20 21  2  0
 20 22  1  0
 19 23  1  0
 18 24  1  0
 17 25  1  0
 15 26  1  0
 13 27  1  0
 11 28  1  0
 28 29  1  0
 29 30  1  0
 30 31  1  0
 31 32  1  0
 32 33  2  0
 33 34  1  0
 34 35  2  0
 35 36  1  0
 36 37  2  0
 37 38  1  0
 36 39  1  0
 35 40  1  0
 34 41  1  0
 33 42  1  0
 31 43  1  0
 30 44  1  0
 30 45  1  0
 29 46  1  1
 28 47  1  0
 28 48  1  0
  8 49  1  0
 49 50  2  0
 50 51  1  0
 51 52  1  0
 51 53  2  0
 53 54  1  0
 54 55  2  0
 55 56  1  0
 56 57  2  0
 54 58  1  0
 53 59  1  0
 50 60  1  0
  7 61  1  0
  7 62  1  0
  5 63  1  0
  5 64  1  0
  2 65  1  0
  1 66  1  0
  1 67  1  0
  1 68  1  0
 56  6  1  0
 29  8  1  0
 37 32  1  0
 55 49  1  0
 21 12  1  0
 21 16  1  0
M  END
>  <cnnaffinities>  (23) 
[6.93072]

>  <score>  (23) 
6.93072

>  <index>  (23) 
23

>  <Smiles>  (23) 
C(N(C(=O)C(N1C([C@@]2(C(=O)N(c3c(nc(c4c(c(c(c(c34)[H])[H])[H])[H])[H])[H])C([C@@]2(C(N(c2c(c(c(c(c2[H])[H])[H])[H])[H])[H])([H])[H])[H])([H])[H])c2c(c(Cl)c(c(c2C1=O)[H])[H])[H])([H])[H])([H])[H])[H])([H])([H])[H]

>  <h>  (23) 
<NA>

>  <Training>  (23) 
True

>  <Success>  (23) 
True

>  <enamine_searched>  (23) 
False

>  <enamine_id>  (23) 
nan

$$$$

     RDKit          3D

 65 70  0  0  0  0  0  0  0  0999 V2000
   -4.7794   -7.1730  -23.6104 O   0  0  0  0  0  0  0  0  0  0  0  0
   -5.8318   -7.0359  -24.2117 C   0  0  0  0  0  0  0  0  0  0  0  0
   -7.0806   -6.4206  -23.5657 C   0  0  0  0  0  0  0  0  0  0  0  0
   -7.1566   -4.9642  -23.8084 N   0  0  1  0  0  4  0  0  0  0  0  0
   -7.2901   -4.6401  -25.2753 C   0  0  0  0  0  0  0  0  0  0  0  0
   -7.2417   -3.1642  -25.5223 C   0  0  0  0  0  0  0  0  0  0  0  0
   -6.8706   -2.6754  -26.7717 C   0  0  0  0  0  0  0  0  0  0  0  0
   -6.8133   -1.3130  -27.0157 C   0  0  0  0  0  0  0  0  0  0  0  0
   -7.1185   -0.4362  -25.9808 C   0  0  0  0  0  0  0  0  0  0  0  0
   -7.0089    1.2790  -26.2674 Cl  0  0  0  0  0  0  0  0  0  0  0  0
   -7.5131   -0.9054  -24.7375 C   0  0  0  0  0  0  0  0  0  0  0  0
   -7.6156   -2.2835  -24.5121 C   0  0  0  0  0  0  0  0  0  0  0  0
   -8.0667   -2.8005  -23.1576 C   0  0  2  0  0  0  0  0  0  0  0  0
   -9.2486   -2.0321  -22.5598 C   0  0  0  0  0  0  0  0  0  0  0  0
   -8.6676   -1.1370  -21.4613 C   0  0  0  0  0  0  0  0  0  0  0  0
   -7.2865   -1.5522  -21.3159 N   0  0  0  0  0  0  0  0  0  0  0  0
   -6.5137   -0.9704  -20.2790 C   0  0  0  0  0  0  0  0  0  0  0  0
   -6.8791   -1.1898  -18.9752 C   0  0  0  0  0  0  0  0  0  0  0  0
   -6.2425   -0.6797  -17.8958 N   0  0  0  0  0  0  0  0  0  0  0  0
   -5.2382    0.1368  -18.1210 C   0  0  0  0  0  0  0  0  0  0  0  0
   -4.8128    0.5266  -19.4230 C   0  0  0  0  0  0  0  0  0  0  0  0
   -3.7748    1.4779  -19.6096 C   0  0  0  0  0  0  0  0  0  0  0  0
   -3.5414    2.0110  -20.8505 C   0  0  0  0  0  0  0  0  0  0  0  0
   -4.3024    1.5785  -21.9607 C   0  0  0  0  0  0  0  0  0  0  0  0
   -5.2499    0.5952  -21.8219 C   0  0  0  0  0  0  0  0  0  0  0  0
   -5.5129    0.0222  -20.5437 C   0  0  0  0  0  0  0  0  0  0  0  0
   -5.8269    0.2721  -22.6845 H   0  0  0  0  0  0  0  0  0  0  0  0
   -4.1305    2.0244  -22.9374 H   0  0  0  0  0  0  0  0  0  0  0  0
   -2.7761    2.7704  -20.9871 H   0  0  0  0  0  0  0  0  0  0  0  0
   -3.2035    1.7995  -18.7428 H   0  0  0  0  0  0  0  0  0  0  0  0
   -4.7232    0.5505  -17.2536 H   0  0  0  0  0  0  0  0  0  0  0  0
   -7.7392   -1.8223  -18.7543 H   0  0  0  0  0  0  0  0  0  0  0  0
   -6.9245   -2.5646  -22.1629 C   0  0  0  0  0  0  0  0  0  0  0  0
   -5.9073   -3.2386  -22.1382 O   0  0  0  0  0  0  0  0  0  0  0  0
   -8.7274   -0.0676  -21.6948 H   0  0  0  0  0  0  0  0  0  0  0  0
   -9.1898   -1.3000  -20.5272 H   0  0  0  0  0  0  0  0  0  0  0  0
   -9.7853   -1.4580  -23.3173 H   0  0  0  0  0  0  0  0  0  0  0  0
   -9.9710   -2.7362  -22.1291 H   0  0  0  0  0  0  0  0  0  0  0  0
   -8.3149   -4.3132  -23.1353 C   0  0  0  0  0  0  0  0  0  0  0  0
   -9.2515   -4.5876  -23.6401 H   0  0  0  0  0  0  0  0  0  0  0  0
   -8.3815   -4.6506  -22.0962 H   0  0  0  0  0  0  0  0  0  0  0  0
   -7.7503   -0.1866  -23.9589 H   0  0  0  0  0  0  0  0  0  0  0  0
   -6.5300   -0.9265  -27.9873 H   0  0  0  0  0  0  0  0  0  0  0  0
   -6.6287   -3.3756  -27.5700 H   0  0  0  0  0  0  0  0  0  0  0  0
   -8.2533   -5.0497  -25.6147 H   0  0  0  0  0  0  0  0  0  0  0  0
   -6.5021   -5.1375  -25.8335 H   0  0  0  0  0  0  0  0  0  0  0  0
   -6.3045   -4.5083  -23.4004 H   0  0  0  0  0  0  0  0  0  0  0  0
   -7.0288   -6.6202  -22.4952 H   0  0  0  0  0  0  0  0  0  0  0  0
   -7.9897   -6.8974  -23.9583 H   0  0  0  0  0  0  0  0  0  0  0  0
   -5.9898   -7.3688  -25.5333 N   0  0  0  0  0  0  0  0  0  0  0  0
   -4.9791   -8.1058  -26.2704 C   0  0  0  0  0  0  0  0  0  0  0  0
   -3.9899   -7.1797  -26.9521 C   0  0  1  0  0  0  0  0  0  0  0  0
   -3.0091   -7.8841  -27.9230 C   0  0  0  0  0  0  0  0  0  0  0  0
   -3.5542   -7.0169  -29.0797 C   0  0  1  0  0  0  0  0  0  0  0  0
   -4.1495   -7.7504  -30.0984 F   0  0  0  0  0  0  0  0  0  0  0  0
   -4.5783   -6.3622  -28.1328 C   0  0  0  0  0  0  0  0  0  0  0  0
   -5.5960   -6.6625  -28.4049 H   0  0  0  0  0  0  0  0  0  0  0  0
   -4.5718   -5.2668  -28.0325 H   0  0  0  0  0  0  0  0  0  0  0  0
   -2.8291   -6.3452  -29.5494 H   0  0  0  0  0  0  0  0  0  0  0  0
   -1.9429   -7.7782  -27.6855 H   0  0  0  0  0  0  0  0  0  0  0  0
   -3.2198   -8.9497  -28.0666 H   0  0  0  0  0  0  0  0  0  0  0  0
   -3.4943   -6.5692  -26.1933 H   0  0  0  0  0  0  0  0  0  0  0  0
   -5.4725   -8.7114  -27.0418 H   0  0  0  0  0  0  0  0  0  0  0  0
   -4.4505   -8.7946  -25.6050 H   0  0  0  0  0  0  0  0  0  0  0  0
   -6.9088   -7.3375  -25.9436 H   0  0  0  0  0  0  0  0  0  0  0  0
  1  2  2  0
  2  3  1  0
  3  4  1  0
  4  5  1  0
  5  6  1  0
  6  7  2  0
  7  8  1  0
  8  9  2  0
  9 10  1  0
  9 11  1  0
 11 12  2  0
 12 13  1  0
 13 14  1  1
 14 15  1  0
 15 16  1  0
 16 17  1  0
 17 18  2  0
 18 19  1  0
 19 20  2  0
 20 21  1  0
 21 22  2  0
 22 23  1  0
 23 24  2  0
 24 25  1  0
 25 26  2  0
 25 27  1  0
 24 28  1  0
 23 29  1  0
 22 30  1  0
 20 31  1  0
 18 32  1  0
 16 33  1  0
 33 34  2  0
 15 35  1  0
 15 36  1  0
 14 37  1  0
 14 38  1  0
 13 39  1  0
 39 40  1  0
 39 41  1  0
 11 42  1  0
  8 43  1  0
  7 44  1  0
  5 45  1  0
  5 46  1  0
  4 47  1  1
  3 48  1  0
  3 49  1  0
  2 50  1  0
 50 51  1  0
 51 52  1  0
 52 53  1  0
 53 54  1  0
 54 55  1  0
 54 56  1  0
 56 57  1  0
 56 58  1  0
 54 59  1  6
 53 60  1  0
 53 61  1  0
 52 62  1  1
 51 63  1  0
 51 64  1  0
 50 65  1  0
 39  4  1  0
 56 52  1  0
 12  6  1  0
 33 13  1  0
 26 17  1  0
 26 21  1  0
M  CHG  1   4   1
M  END
>  <cnnaffinities>  (24) 
[5.93885, 5.8147]

>  <score>  (24) 
5.93885

>  <index>  (24) 
24

>  <Smiles>  (24) 
O=C(C([N@+]1(C(c2c(c(c(Cl)c(c2[C@@]2(C(C(N(c3c(nc(c4c(c(c(c(c34)[H])[H])[H])[H])[H])[H])C2=O)([H])[H])([H])[H])C1([H])[H])[H])[H])[H])([H])[H])[H])([H])[H])N(C([C@]1(C([C@@](F)(C1([H])[H])[H])([H])[H])[H])([H])[H])[H]

>  <h>  (24) 
<NA>

>  <Training>  (24) 
True

>  <Success>  (24) 
True

>  <enamine_searched>  (24) 
False

>  <enamine_id>  (24) 
nan

$$$$

     RDKit          3D

 70 75  0  0  0  0  0  0  0  0999 V2000
   -5.5926   -7.3982  -25.7072 O   0  0  0  0  0  0  0  0  0  0  0  0
   -5.5800   -7.0181  -24.5491 C   0  0  0  0  0  0  0  0  0  0  0  0
   -6.7987   -6.3749  -23.8723 C   0  0  0  0  0  0  0  0  0  0  0  0
   -6.8024   -4.8775  -23.9569 N   0  0  1  0  0  4  0  0  0  0  0  0
   -6.7656   -4.5036  -25.4316 C   0  0  0  0  0  0  0  0  0  0  0  0
   -6.7829   -3.0170  -25.6349 C   0  0  0  0  0  0  0  0  0  0  0  0
   -6.2875   -2.4727  -26.8196 C   0  0  0  0  0  0  0  0  0  0  0  0
   -6.3044   -1.1034  -27.0372 C   0  0  0  0  0  0  0  0  0  0  0  0
   -6.8201   -0.2735  -26.0483 C   0  0  0  0  0  0  0  0  0  0  0  0
   -6.8408    1.4473  -26.2989 Cl  0  0  0  0  0  0  0  0  0  0  0  0
   -7.3102   -0.7994  -24.8638 C   0  0  0  0  0  0  0  0  0  0  0  0
   -7.3046   -2.1787  -24.6532 C   0  0  0  0  0  0  0  0  0  0  0  0
   -7.8150   -2.7046  -23.3272 C   0  0  2  0  0  0  0  0  0  0  0  0
   -6.8173   -2.3704  -22.2197 C   0  0  0  0  0  0  0  0  0  0  0  0
   -5.7228   -2.9068  -22.2012 O   0  0  0  0  0  0  0  0  0  0  0  0
   -7.2822   -1.4725  -21.2780 N   0  0  0  0  0  0  0  0  0  0  0  0
   -6.5554   -0.8634  -20.2216 C   0  0  0  0  0  0  0  0  0  0  0  0
   -6.9057   -1.0805  -18.9092 C   0  0  0  0  0  0  0  0  0  0  0  0
   -6.2225   -0.5954  -17.8402 N   0  0  0  0  0  0  0  0  0  0  0  0
   -5.1995    0.1897  -18.0783 C   0  0  0  0  0  0  0  0  0  0  0  0
   -4.7888    0.5669  -19.3870 C   0  0  0  0  0  0  0  0  0  0  0  0
   -3.6732    1.4152  -19.6131 C   0  0  0  0  0  0  0  0  0  0  0  0
   -3.3744    1.8471  -20.8754 C   0  0  0  0  0  0  0  0  0  0  0  0
   -4.1729    1.4470  -21.9752 C   0  0  0  0  0  0  0  0  0  0  0  0
   -5.1635    0.5112  -21.8036 C   0  0  0  0  0  0  0  0  0  0  0  0
   -5.4992    0.0571  -20.4967 C   0  0  0  0  0  0  0  0  0  0  0  0
   -5.7028    0.1136  -22.6593 H   0  0  0  0  0  0  0  0  0  0  0  0
   -3.9481    1.8173  -22.9725 H   0  0  0  0  0  0  0  0  0  0  0  0
   -2.5145    2.4915  -21.0486 H   0  0  0  0  0  0  0  0  0  0  0  0
   -3.0856    1.7214  -18.7516 H   0  0  0  0  0  0  0  0  0  0  0  0
   -4.6415    0.5745  -17.2204 H   0  0  0  0  0  0  0  0  0  0  0  0
   -7.7654   -1.7026  -18.6510 H   0  0  0  0  0  0  0  0  0  0  0  0
   -8.2872   -1.3978  -21.2061 H   0  0  0  0  0  0  0  0  0  0  0  0
   -8.0110   -4.2217  -23.3182 C   0  0  0  0  0  0  0  0  0  0  0  0
   -8.9093   -4.4941  -23.8784 H   0  0  0  0  0  0  0  0  0  0  0  0
   -8.1187   -4.5679  -22.2869 H   0  0  0  0  0  0  0  0  0  0  0  0
   -8.7511   -2.1985  -23.0808 H   0  0  0  0  0  0  0  0  0  0  0  0
   -7.6896   -0.1329  -24.0956 H   0  0  0  0  0  0  0  0  0  0  0  0
   -5.9225   -0.6800  -27.9593 H   0  0  0  0  0  0  0  0  0  0  0  0
   -5.8810   -3.1338  -27.5837 H   0  0  0  0  0  0  0  0  0  0  0  0
   -7.6384   -4.9788  -25.8979 H   0  0  0  0  0  0  0  0  0  0  0  0
   -5.8900   -4.9599  -25.8932 H   0  0  0  0  0  0  0  0  0  0  0  0
   -5.9794   -4.4523  -23.4667 H   0  0  0  0  0  0  0  0  0  0  0  0
   -7.6576   -6.7822  -24.4164 H   0  0  0  0  0  0  0  0  0  0  0  0
   -6.8524   -6.7147  -22.8348 H   0  0  0  0  0  0  0  0  0  0  0  0
   -4.4769   -7.1340  -23.7490 N   0  0  0  0  0  0  0  0  0  0  0  0
   -3.2715   -7.7492  -24.1678 C   0  0  0  0  0  0  0  0  0  0  0  0
   -2.0514   -7.1102  -23.9509 C   0  0  0  0  0  0  0  0  0  0  0  0
   -0.8769   -7.7108  -24.3814 C   0  0  0  0  0  0  0  0  0  0  0  0
   -0.9093   -8.9485  -25.0240 C   0  0  0  0  0  0  0  0  0  0  0  0
    0.3057   -9.5485  -25.4706 N   0  0  0  0  0  0  0  0  0  0  0  0
    1.3183   -9.8685  -24.4706 C   0  0  0  0  0  0  0  0  0  0  0  0
    2.6374  -10.2261  -25.1337 C   0  0  0  0  0  0  0  0  0  0  0  0
    2.4079  -11.1806  -26.1413 O   0  0  0  0  0  0  0  0  0  0  0  0
    1.6825  -10.6195  -27.2001 C   0  0  0  0  0  0  0  0  0  0  0  0
    0.3883   -9.9380  -26.7828 C   0  0  0  0  0  0  0  0  0  0  0  0
   -0.4842   -9.7106  -27.6026 O   0  0  0  0  0  0  0  0  0  0  0  0
    2.2782   -9.8663  -27.7380 H   0  0  0  0  0  0  0  0  0  0  0  0
    1.4290  -11.4201  -27.8940 H   0  0  0  0  0  0  0  0  0  0  0  0
    3.1343   -9.3385  -25.5531 H   0  0  0  0  0  0  0  0  0  0  0  0
    3.3210  -10.6841  -24.4131 H   0  0  0  0  0  0  0  0  0  0  0  0
    1.4532   -9.0133  -23.8025 H   0  0  0  0  0  0  0  0  0  0  0  0
    0.9717  -10.7158  -23.8681 H   0  0  0  0  0  0  0  0  0  0  0  0
   -2.1305   -9.5998  -25.2043 C   0  0  0  0  0  0  0  0  0  0  0  0
   -3.3060   -8.9990  -24.7838 C   0  0  0  0  0  0  0  0  0  0  0  0
   -4.2665   -9.4710  -24.9562 H   0  0  0  0  0  0  0  0  0  0  0  0
   -2.1677  -10.5677  -25.6976 H   0  0  0  0  0  0  0  0  0  0  0  0
    0.0747   -7.2030  -24.2445 H   0  0  0  0  0  0  0  0  0  0  0  0
   -2.0234   -6.1363  -23.4669 H   0  0  0  0  0  0  0  0  0  0  0  0
   -4.4577   -6.5760  -22.9098 H   0  0  0  0  0  0  0  0  0  0  0  0
  1  2  2  0
  2  3  1  0
  3  4  1  0
  4  5  1  0
  5  6  1  0
  6  7  2  0
  7  8  1  0
  8  9  2  0
  9 10  1  0
  9 11  1  0
 11 12  2  0
 12 13  1  0
 13 14  1  0
 14 15  2  0
 14 16  1  0
 16 17  1  0
 17 18  2  0
 18 19  1  0
 19 20  2  0
 20 21  1  0
 21 22  2  0
 22 23  1  0
 23 24  2  0
 24 25  1  0
 25 26  2  0
 25 27  1  0
 24 28  1  0
 23 29  1  0
 22 30  1  0
 20 31  1  0
 18 32  1  0
 16 33  1  0
 13 34  1  0
 34 35  1  0
 34 36  1  0
 13 37  1  1
 11 38  1  0
  8 39  1  0
  7 40  1  0
  5 41  1  0
  5 42  1  0
  4 43  1  1
  3 44  1  0
  3 45  1  0
  2 46  1  0
 46 47  1  0
 47 48  2  0
 48 49  1  0
 49 50  2  0
 50 51  1  0
 51 52  1  0
 52 53  1  0
 53 54  1  0
 54 55  1  0
 55 56  1  0
 56 57  2  0
 55 58  1  0
 55 59  1  0
 53 60  1  0
 53 61  1  0
 52 62  1  0
 52 63  1  0
 50 64  1  0
 64 65  2  0
 65 66  1  0
 64 67  1  0
 49 68  1  0
 48 69  1  0
 46 70  1  0
 34  4  1  0
 65 47  1  0
 12  6  1  0
 26 17  1  0
 56 51  1  0
 26 21  1  0
M  CHG  1   4   1
M  END
>  <cnnaffinities>  (25) 
[5.76692]

>  <score>  (25) 
5.76692

>  <index>  (25) 
25

>  <Smiles>  (25) 
O=C(C([N@+]1(C(c2c(c(c(Cl)c(c2[C@](C(=O)N(c2c(nc(c3c(c(c(c(c23)[H])[H])[H])[H])[H])[H])[H])(C1([H])[H])[H])[H])[H])[H])([H])[H])[H])([H])[H])N(c1c(c(c(N2C(C(OC(C2=O)([H])[H])([H])[H])([H])[H])c(c1[H])[H])[H])[H])[H]

>  <h>  (25) 
<NA>

>  <Training>  (25) 
True

>  <Success>  (25) 
True

>  <enamine_searched>  (25) 
False

>  <enamine_id>  (25) 
nan

$$$$

     RDKit          3D

 55 60  0  0  0  0  0  0  0  0999 V2000
   -8.3102   -4.1402  -23.4886 C   0  0  0  0  0  0  0  0  0  0  0  0
   -8.5392   -2.9893  -22.5226 C   0  0  1  0  0  0  0  0  0  0  0  0
   -7.4018   -2.8048  -21.5079 C   0  0  0  0  0  0  0  0  0  0  0  0
   -7.4478   -1.3855  -21.2002 N   0  0  0  0  0  0  0  0  0  0  0  0
   -6.6627   -0.7903  -20.1834 C   0  0  0  0  0  0  0  0  0  0  0  0
   -6.9164   -1.0983  -18.8701 C   0  0  0  0  0  0  0  0  0  0  0  0
   -6.2260   -0.6110  -17.8113 N   0  0  0  0  0  0  0  0  0  0  0  0
   -5.2167    0.1859  -18.0714 C   0  0  0  0  0  0  0  0  0  0  0  0
   -4.8313    0.5744  -19.3862 C   0  0  0  0  0  0  0  0  0  0  0  0
   -3.7177    1.4292  -19.6034 C   0  0  0  0  0  0  0  0  0  0  0  0
   -3.4317    1.8883  -20.8585 C   0  0  0  0  0  0  0  0  0  0  0  0
   -4.2181    1.4731  -21.9578 C   0  0  0  0  0  0  0  0  0  0  0  0
   -5.2207    0.5524  -21.7932 C   0  0  0  0  0  0  0  0  0  0  0  0
   -5.5849    0.1050  -20.4868 C   0  0  0  0  0  0  0  0  0  0  0  0
   -5.7674    0.2057  -22.6663 H   0  0  0  0  0  0  0  0  0  0  0  0
   -4.0161    1.8898  -22.9398 H   0  0  0  0  0  0  0  0  0  0  0  0
   -2.6340    2.6093  -21.0122 H   0  0  0  0  0  0  0  0  0  0  0  0
   -3.1160    1.7219  -18.7465 H   0  0  0  0  0  0  0  0  0  0  0  0
   -4.6403    0.5609  -17.2239 H   0  0  0  0  0  0  0  0  0  0  0  0
   -7.7481   -1.7587  -18.6305 H   0  0  0  0  0  0  0  0  0  0  0  0
   -8.1727   -0.6458  -22.1081 C   0  0  0  0  0  0  0  0  0  0  0  0
   -8.2914    0.5646  -22.0699 O   0  0  0  0  0  0  0  0  0  0  0  0
   -8.7556   -1.5793  -23.1809 C   0  0  1  0  0  0  0  0  0  0  0  0
   -7.9612   -1.3001  -24.4829 C   0  0  0  0  0  0  0  0  0  0  0  0
   -8.5948   -1.8518  -25.6757 N   0  0  0  0  0  0  0  0  0  0  0  0
   -7.7823   -2.2854  -26.8045 C   0  0  0  0  0  0  0  0  0  0  0  0
   -7.7241   -3.7835  -26.9218 C   0  0  0  0  0  0  0  0  0  0  0  0
   -6.6484   -4.6659  -26.7441 C   0  0  0  0  0  0  0  0  0  0  0  0
   -7.0607   -5.9088  -26.9992 N   0  0  0  0  0  0  0  0  0  0  0  0
   -8.3315   -5.7381  -27.3053 N   0  0  0  0  0  0  0  0  0  0  0  0
   -8.7915   -4.4991  -27.2800 N   0  0  0  0  0  0  0  0  0  0  0  0
   -8.9152   -6.5097  -27.6054 H   0  0  0  0  0  0  0  0  0  0  0  0
   -5.6349   -4.4390  -26.4242 H   0  0  0  0  0  0  0  0  0  0  0  0
   -6.7877   -1.8269  -26.7350 H   0  0  0  0  0  0  0  0  0  0  0  0
   -8.2634   -1.9022  -27.7095 H   0  0  0  0  0  0  0  0  0  0  0  0
   -9.9382   -1.7283  -25.9136 C   0  0  0  0  0  0  0  0  0  0  0  0
  -10.4310   -1.9157  -27.0196 O   0  0  0  0  0  0  0  0  0  0  0  0
  -10.7708   -1.3848  -24.7358 C   0  0  0  0  0  0  0  0  0  0  0  0
  -12.1352   -1.2117  -24.9581 C   0  0  0  0  0  0  0  0  0  0  0  0
  -12.9908   -0.9159  -23.9199 C   0  0  0  0  0  0  0  0  0  0  0  0
  -12.4328   -0.8341  -22.6501 C   0  0  0  0  0  0  0  0  0  0  0  0
  -13.2627   -0.6051  -21.6296 F   0  0  0  0  0  0  0  0  0  0  0  0
  -11.0834   -1.0104  -22.3985 C   0  0  0  0  0  0  0  0  0  0  0  0
  -10.2187   -1.2915  -23.4568 C   0  0  0  0  0  0  0  0  0  0  0  0
  -10.6905   -0.9418  -21.3920 H   0  0  0  0  0  0  0  0  0  0  0  0
  -14.0557   -0.7574  -24.0739 H   0  0  0  0  0  0  0  0  0  0  0  0
  -12.4961   -1.3308  -25.9716 H   0  0  0  0  0  0  0  0  0  0  0  0
   -6.9430   -1.6990  -24.3976 H   0  0  0  0  0  0  0  0  0  0  0  0
   -7.8666   -0.2091  -24.5903 H   0  0  0  0  0  0  0  0  0  0  0  0
   -7.5596   -3.3988  -20.6024 H   0  0  0  0  0  0  0  0  0  0  0  0
   -6.4209   -3.0884  -21.9199 H   0  0  0  0  0  0  0  0  0  0  0  0
   -9.4524   -3.1902  -21.9421 H   0  0  0  0  0  0  0  0  0  0  0  0
   -8.2453   -5.0861  -22.9438 H   0  0  0  0  0  0  0  0  0  0  0  0
   -9.1267   -4.2019  -24.2133 H   0  0  0  0  0  0  0  0  0  0  0  0
   -7.3738   -3.9934  -24.0355 H   0  0  0  0  0  0  0  0  0  0  0  0
  1  2  1  0
  2  3  1  0
  3  4  1  0
  4  5  1  0
  5  6  2  0
  6  7  1  0
  7  8  2  0
  8  9  1  0
  9 10  2  0
 10 11  1  0
 11 12  2  0
 12 13  1  0
 13 14  2  0
 13 15  1  0
 12 16  1  0
 11 17  1  0
 10 18  1  0
  8 19  1  0
  6 20  1  0
  4 21  1  0
 21 22  2  0
 21 23  1  0
 23 24  1  6
 24 25  1  0
 25 26  1  0
 26 27  1  0
 27 28  1  0
 28 29  2  0
 29 30  1  0
 30 31  1  0
 30 32  1  0
 28 33  1  0
 26 34  1  0
 26 35  1  0
 25 36  1  0
 36 37  2  0
 36 38  1  0
 38 39  2  0
 39 40  1  0
 40 41  2  0
 41 42  1  0
 41 43  1  0
 43 44  2  0
 43 45  1  0
 40 46  1  0
 39 47  1  0
 24 48  1  0
 24 49  1  0
  3 50  1  0
  3 51  1  0
  2 52  1  1
  1 53  1  0
  1 54  1  0
  1 55  1  0
 23  2  1  0
 31 27  2  0
 44 38  1  0
 14  5  1  0
 44 23  1  0
 14  9  1  0
M  END
>  <cnnaffinities>  (26) 
[5.86982, 5.80339]

>  <score>  (26) 
5.86982

>  <index>  (26) 
26

>  <Smiles>  (26) 
C([C@]1(C(N(c2c(nc(c3c(c(c(c(c23)[H])[H])[H])[H])[H])[H])C(=O)[C@]21C(N(C(c1c(nn(n1)[H])[H])([H])[H])C(=O)c1c(c(c(F)c(c21)[H])[H])[H])([H])[H])([H])[H])[H])([H])([H])[H]

>  <h>  (26) 
<NA>

>  <Training>  (26) 
True

>  <Success>  (26) 
True

>  <enamine_searched>  (26) 
False

>  <enamine_id>  (26) 
nan

$$$$

     RDKit          3D

 58 62  0  0  0  0  0  0  0  0999 V2000
  -15.0131   -3.3057  -23.3206 C   0  0  0  0  0  0  0  0  0  0  0  0
  -13.7294   -2.6114  -23.1158 N   0  0  0  0  0  4  0  0  0  0  0  0
  -13.2243   -2.7309  -21.7192 C   0  0  0  0  0  0  0  0  0  0  0  0
  -12.3243   -3.9623  -21.6035 C   0  0  0  0  0  0  0  0  0  0  0  0
  -11.0311   -3.7672  -22.2692 N   0  0  0  0  0  0  0  0  0  0  0  0
   -9.9398   -3.1988  -21.4949 C   0  0  0  0  0  0  0  0  0  0  0  0
   -8.7383   -2.7027  -22.3363 C   0  0  2  0  0  0  0  0  0  0  0  0
   -7.6016   -2.5227  -21.3328 C   0  0  0  0  0  0  0  0  0  0  0  0
   -7.0024   -3.4086  -20.7493 O   0  0  0  0  0  0  0  0  0  0  0  0
   -7.3741   -1.1772  -21.1467 N   0  0  0  0  0  0  0  0  0  0  0  0
   -6.5628   -0.7216  -20.0917 C   0  0  0  0  0  0  0  0  0  0  0  0
   -6.7508   -1.1502  -18.8025 C   0  0  0  0  0  0  0  0  0  0  0  0
   -6.0503   -0.6832  -17.7404 N   0  0  0  0  0  0  0  0  0  0  0  0
   -5.1258    0.2179  -17.9736 C   0  0  0  0  0  0  0  0  0  0  0  0
   -4.8132    0.7260  -19.2701 C   0  0  0  0  0  0  0  0  0  0  0  0
   -3.7841    1.6802  -19.4967 C   0  0  0  0  0  0  0  0  0  0  0  0
   -3.5415    2.1507  -20.7584 C   0  0  0  0  0  0  0  0  0  0  0  0
   -4.2980    1.6855  -21.8597 C   0  0  0  0  0  0  0  0  0  0  0  0
   -5.2701    0.7375  -21.6703 C   0  0  0  0  0  0  0  0  0  0  0  0
   -5.5625    0.2549  -20.3665 C   0  0  0  0  0  0  0  0  0  0  0  0
   -5.8260    0.3494  -22.5166 H   0  0  0  0  0  0  0  0  0  0  0  0
   -4.1126    2.0793  -22.8578 H   0  0  0  0  0  0  0  0  0  0  0  0
   -2.7708    2.9004  -20.9261 H   0  0  0  0  0  0  0  0  0  0  0  0
   -3.2031    2.0319  -18.6452 H   0  0  0  0  0  0  0  0  0  0  0  0
   -4.5848    0.6007  -17.1080 H   0  0  0  0  0  0  0  0  0  0  0  0
   -7.5039   -1.9028  -18.5836 H   0  0  0  0  0  0  0  0  0  0  0  0
   -8.4060   -0.3517  -21.7599 C   0  0  0  0  0  0  0  0  0  0  0  0
   -8.9356   -1.2402  -22.8872 C   0  0  2  0  0  0  0  0  0  0  0  0
  -10.3172   -0.7997  -23.3650 C   0  0  0  0  0  0  0  0  0  0  0  0
  -11.0450   -0.8006  -22.5477 H   0  0  0  0  0  0  0  0  0  0  0  0
  -10.7068   -1.4411  -24.1627 H   0  0  0  0  0  0  0  0  0  0  0  0
  -10.2674    0.2280  -23.7430 H   0  0  0  0  0  0  0  0  0  0  0  0
   -8.2477   -1.1534  -23.7348 H   0  0  0  0  0  0  0  0  0  0  0  0
   -8.0043    0.6003  -22.1148 H   0  0  0  0  0  0  0  0  0  0  0  0
   -9.2020   -0.1161  -21.0367 H   0  0  0  0  0  0  0  0  0  0  0  0
   -8.4320   -3.7209  -23.4124 C   0  0  0  0  0  0  0  0  0  0  0  0
   -7.1391   -4.1160  -23.7851 C   0  0  0  0  0  0  0  0  0  0  0  0
   -6.9770   -4.8991  -24.9150 C   0  0  0  0  0  0  0  0  0  0  0  0
   -5.7368   -5.2762  -25.2655 F   0  0  0  0  0  0  0  0  0  0  0  0
   -8.0439   -5.3170  -25.6979 C   0  0  0  0  0  0  0  0  0  0  0  0
   -9.3208   -5.0446  -25.2383 C   0  0  0  0  0  0  0  0  0  0  0  0
   -9.5253   -4.2509  -24.1062 C   0  0  0  0  0  0  0  0  0  0  0  0
  -10.9169   -4.0418  -23.5883 C   0  0  0  0  0  0  0  0  0  0  0  0
  -11.9142   -4.1046  -24.3159 O   0  0  0  0  0  0  0  0  0  0  0  0
  -10.1550   -5.5111  -25.7225 H   0  0  0  0  0  0  0  0  0  0  0  0
   -7.8479   -5.8941  -26.5983 H   0  0  0  0  0  0  0  0  0  0  0  0
   -6.2813   -3.8804  -23.1650 H   0  0  0  0  0  0  0  0  0  0  0  0
  -10.3028   -2.3436  -20.9148 H   0  0  0  0  0  0  0  0  0  0  0  0
   -9.5633   -3.9369  -20.7803 H   0  0  0  0  0  0  0  0  0  0  0  0
  -12.8576   -4.7860  -22.0820 H   0  0  0  0  0  0  0  0  0  0  0  0
  -12.1519   -4.2677  -20.5691 H   0  0  0  0  0  0  0  0  0  0  0  0
  -12.6349   -1.8423  -21.4816 H   0  0  0  0  0  0  0  0  0  0  0  0
  -14.0716   -2.7823  -21.0223 H   0  0  0  0  0  0  0  0  0  0  0  0
  -13.8255   -1.6188  -23.3769 H   0  0  0  0  0  0  0  0  0  0  0  0
  -13.0407   -3.0632  -23.7633 H   0  0  0  0  0  0  0  0  0  0  0  0
  -15.4222   -3.0946  -24.3097 H   0  0  0  0  0  0  0  0  0  0  0  0
  -15.7355   -2.9976  -22.5662 H   0  0  0  0  0  0  0  0  0  0  0  0
  -14.8879   -4.3884  -23.2286 H   0  0  0  0  0  0  0  0  0  0  0  0
  1  2  1  0
  2  3  1  0
  3  4  1  0
  4  5  1  0
  5  6  1  0
  7  6  1  1
  7  8  1  0
  8  9  2  0
  8 10  1  0
 10 11  1  0
 11 12  2  0
 12 13  1  0
 13 14  2  0
 14 15  1  0
 15 16  2  0
 16 17  1  0
 17 18  2  0
 18 19  1  0
 19 20  2  0
 19 21  1  0
 18 22  1  0
 17 23  1  0
 16 24  1  0
 14 25  1  0
 12 26  1  0
 10 27  1  0
 27 28  1  0
 28 29  1  0
 29 30  1  0
 29 31  1  0
 29 32  1  0
 28 33  1  6
 27 34  1  0
 27 35  1  0
  7 36  1  0
 36 37  2  0
 37 38  1  0
 38 39  1  0
 38 40  2  0
 40 41  1  0
 41 42  2  0
 42 43  1  0
 43 44  2  0
 41 45  1  0
 40 46  1  0
 37 47  1  0
  6 48  1  0
  6 49  1  0
  4 50  1  0
  4 51  1  0
  3 52  1  0
  3 53  1  0
  2 54  1  0
  2 55  1  0
  1 56  1  0
  1 57  1  0
  1 58  1  0
 43  5  1  0
 28  7  1  0
 42 36  1  0
 20 11  1  0
 20 15  1  0
M  CHG  1   2   1
M  END
>  <cnnaffinities>  (27) 
[5.91304, 5.89359]

>  <score>  (27) 
5.91304

>  <index>  (27) 
27

>  <Smiles>  (27) 
C([N+](C(C(N1C([C@@]2(C(=O)N(c3c(nc(c4c(c(c(c(c34)[H])[H])[H])[H])[H])[H])C([C@@]2(C([H])([H])[H])[H])([H])[H])c2c(c(F)c(c(c2C1=O)[H])[H])[H])([H])[H])([H])[H])([H])[H])([H])[H])([H])([H])[H]

>  <h>  (27) 
<NA>

>  <Training>  (27) 
True

>  <Success>  (27) 
True

>  <enamine_searched>  (27) 
False

>  <enamine_id>  (27) 
nan

$$$$

     RDKit          3D

 64 68  0  0  0  0  0  0  0  0999 V2000
   -7.5763    3.2135  -21.9297 C   0  0  0  0  0  0  0  0  0  0  0  0
   -8.6968    2.7242  -22.7142 N   0  0  0  0  0  0  0  0  0  0  0  0
   -8.3688    1.9310  -23.7762 C   0  0  0  0  0  0  0  0  0  0  0  0
   -7.2011    1.6971  -24.0594 O   0  0  0  0  0  0  0  0  0  0  0  0
   -9.4926    1.3289  -24.6113 C   0  0  0  0  0  0  0  0  0  0  0  0
   -9.9697    0.1110  -23.9866 N   0  0  0  0  0  0  0  0  0  0  0  0
   -9.1084   -1.0668  -23.9584 C   0  0  0  0  0  0  0  0  0  0  0  0
   -9.2566   -1.8325  -22.6168 C   0  0  2  0  0  0  0  0  0  0  0  0
   -8.6804   -0.9543  -21.4797 C   0  0  0  0  0  0  0  0  0  0  0  0
   -9.2060    0.0124  -20.9656 O   0  0  0  0  0  0  0  0  0  0  0  0
   -7.4204   -1.4220  -21.1654 N   0  0  0  0  0  0  0  0  0  0  0  0
   -6.6409   -0.8144  -20.1521 C   0  0  0  0  0  0  0  0  0  0  0  0
   -6.9345   -1.0639  -18.8342 C   0  0  0  0  0  0  0  0  0  0  0  0
   -6.2252   -0.5822  -17.7872 N   0  0  0  0  0  0  0  0  0  0  0  0
   -5.2015    0.1921  -18.0584 C   0  0  0  0  0  0  0  0  0  0  0  0
   -4.8003    0.5510  -19.3779 C   0  0  0  0  0  0  0  0  0  0  0  0
   -3.7000    1.4177  -19.6186 C   0  0  0  0  0  0  0  0  0  0  0  0
   -3.4232    1.8556  -20.8834 C   0  0  0  0  0  0  0  0  0  0  0  0
   -4.2146    1.4298  -21.9731 C   0  0  0  0  0  0  0  0  0  0  0  0
   -5.2272    0.5143  -21.7814 C   0  0  0  0  0  0  0  0  0  0  0  0
   -5.5574    0.0629  -20.4715 C   0  0  0  0  0  0  0  0  0  0  0  0
   -5.8071    0.1822  -22.6384 H   0  0  0  0  0  0  0  0  0  0  0  0
   -4.0314    1.8363  -22.9640 H   0  0  0  0  0  0  0  0  0  0  0  0
   -2.5972    2.5414  -21.0557 H   0  0  0  0  0  0  0  0  0  0  0  0
   -3.1084    1.7420  -18.7663 H   0  0  0  0  0  0  0  0  0  0  0  0
   -4.6242    0.5692  -17.2132 H   0  0  0  0  0  0  0  0  0  0  0  0
   -7.7838   -1.6971  -18.5914 H   0  0  0  0  0  0  0  0  0  0  0  0
   -6.9959   -2.5622  -21.9498 C   0  0  0  0  0  0  0  0  0  0  0  0
   -8.3235   -3.0760  -22.5344 C   0  0  2  0  0  0  0  0  0  0  0  0
   -8.1457   -3.8717  -23.8241 C   0  0  0  0  0  0  0  0  0  0  0  0
   -7.1474   -5.3283  -23.5572 S   0  0  0  0  0  0  0  0  0  0  0  0
   -5.7607   -4.9133  -23.3638 O   0  0  0  0  0  0  0  0  0  0  0  0
   -7.7710   -6.1870  -22.5589 O   0  0  0  0  0  0  0  0  0  0  0  0
   -7.3803   -6.1123  -25.0115 N   0  0  0  0  0  0  0  0  0  0  0  0
   -6.6842   -5.6248  -26.1985 C   0  0  0  0  0  0  0  0  0  0  0  0
   -7.1679   -4.7175  -26.5795 H   0  0  0  0  0  0  0  0  0  0  0  0
   -6.7783   -6.3848  -26.9770 H   0  0  0  0  0  0  0  0  0  0  0  0
   -5.6231   -5.4254  -26.0139 H   0  0  0  0  0  0  0  0  0  0  0  0
   -7.3117   -7.1136  -24.8558 H   0  0  0  0  0  0  0  0  0  0  0  0
   -7.6368   -3.2823  -24.5923 H   0  0  0  0  0  0  0  0  0  0  0  0
   -9.1013   -4.2109  -24.2317 H   0  0  0  0  0  0  0  0  0  0  0  0
   -8.7401   -3.7660  -21.7980 H   0  0  0  0  0  0  0  0  0  0  0  0
   -6.5095   -3.3188  -21.3286 H   0  0  0  0  0  0  0  0  0  0  0  0
   -6.2897   -2.2746  -22.7444 H   0  0  0  0  0  0  0  0  0  0  0  0
  -10.7416   -2.0961  -22.4221 C   0  0  0  0  0  0  0  0  0  0  0  0
  -11.2169   -3.1792  -21.6805 C   0  0  0  0  0  0  0  0  0  0  0  0
  -12.5657   -3.2963  -21.3979 C   0  0  0  0  0  0  0  0  0  0  0  0
  -13.0816   -4.5960  -20.3686 Cl  0  0  0  0  0  0  0  0  0  0  0  0
  -13.5087   -2.3888  -21.8700 C   0  0  0  0  0  0  0  0  0  0  0  0
  -13.0554   -1.3350  -22.6324 C   0  0  0  0  0  0  0  0  0  0  0  0
  -11.6957   -1.1806  -22.8916 C   0  0  0  0  0  0  0  0  0  0  0  0
  -11.2924    0.0355  -23.6601 C   0  0  0  0  0  0  0  0  0  0  0  0
  -12.0966    0.9080  -23.9642 O   0  0  0  0  0  0  0  0  0  0  0  0
  -13.7306   -0.5871  -23.0304 H   0  0  0  0  0  0  0  0  0  0  0  0
  -14.5587   -2.4978  -21.6246 H   0  0  0  0  0  0  0  0  0  0  0  0
  -10.5594   -3.9359  -21.2723 H   0  0  0  0  0  0  0  0  0  0  0  0
   -8.0721   -0.7444  -24.1096 H   0  0  0  0  0  0  0  0  0  0  0  0
   -9.3763   -1.7440  -24.7824 H   0  0  0  0  0  0  0  0  0  0  0  0
  -10.3551    1.9908  -24.7463 H   0  0  0  0  0  0  0  0  0  0  0  0
   -9.0833    1.0905  -25.5983 H   0  0  0  0  0  0  0  0  0  0  0  0
   -9.5612    2.5863  -22.2015 H   0  0  0  0  0  0  0  0  0  0  0  0
   -6.8742    3.7081  -22.6043 H   0  0  0  0  0  0  0  0  0  0  0  0
   -7.9138    3.9618  -21.2063 H   0  0  0  0  0  0  0  0  0  0  0  0
   -7.0562    2.3707  -21.4411 H   0  0  0  0  0  0  0  0  0  0  0  0
  1  2  1  0
  2  3  1  0
  3  4  2  0
  3  5  1  0
  5  6  1  0
  6  7  1  0
  8  7  1  6
  8  9  1  0
  9 10  2  0
  9 11  1  0
 11 12  1  0
 12 13  2  0
 13 14  1  0
 14 15  2  0
 15 16  1  0
 16 17  2  0
 17 18  1  0
 18 19  2  0
 19 20  1  0
 20 21  2  0
 20 22  1  0
 19 23  1  0
 18 24  1  0
 17 25  1  0
 15 26  1  0
 13 27  1  0
 11 28  1  0
 28 29  1  0
 29 30  1  0
 30 31  1  0
 31 32  2  0
 31 33  2  0
 31 34  1  0
 34 35  1  0
 35 36  1  0
 35 37  1  0
 35 38  1  0
 34 39  1  0
 30 40  1  0
 30 41  1  0
 29 42  1  1
 28 43  1  0
 28 44  1  0
  8 45  1  0
 45 46  2  0
 46 47  1  0
 47 48  1  0
 47 49  2  0
 49 50  1  0
 50 51  2  0
 51 52  1  0
 52 53  2  0
 50 54  1  0
 49 55  1  0
 46 56  1  0
  7 57  1  0
  7 58  1  0
  5 59  1  0
  5 60  1  0
  2 61  1  0
  1 62  1  0
  1 63  1  0
  1 64  1  0
 52  6  1  0
 29  8  1  0
 51 45  1  0
 21 12  1  0
 21 16  1  0
M  END
>  <cnnaffinities>  (28) 
[6.4248, 6.49022, 6.08754]

>  <score>  (28) 
6.4248

>  <index>  (28) 
28

>  <Smiles>  (28) 
C(N(C(=O)C(N1C([C@@]2(C(=O)N(c3c(nc(c4c(c(c(c(c34)[H])[H])[H])[H])[H])[H])C([C@@]2(C(S(=O)(=O)N(C([H])([H])[H])[H])([H])[H])[H])([H])[H])c2c(c(Cl)c(c(c2C1=O)[H])[H])[H])([H])[H])([H])[H])[H])([H])([H])[H]

>  <h>  (28) 
<NA>

>  <Training>  (28) 
True

>  <Success>  (28) 
True

>  <enamine_searched>  (28) 
False

>  <enamine_id>  (28) 
nan

$$$$

     RDKit          3D

 55 60  0  0  0  0  0  0  0  0999 V2000
   -8.3102   -4.1402  -23.4886 C   0  0  0  0  0  0  0  0  0  0  0  0
   -8.5392   -2.9893  -22.5226 C   0  0  1  0  0  0  0  0  0  0  0  0
   -7.4018   -2.8048  -21.5079 C   0  0  0  0  0  0  0  0  0  0  0  0
   -7.4478   -1.3855  -21.2002 N   0  0  0  0  0  0  0  0  0  0  0  0
   -6.6627   -0.7903  -20.1834 C   0  0  0  0  0  0  0  0  0  0  0  0
   -6.9164   -1.0983  -18.8701 C   0  0  0  0  0  0  0  0  0  0  0  0
   -6.2260   -0.6110  -17.8113 N   0  0  0  0  0  0  0  0  0  0  0  0
   -5.2167    0.1859  -18.0714 C   0  0  0  0  0  0  0  0  0  0  0  0
   -4.8313    0.5744  -19.3862 C   0  0  0  0  0  0  0  0  0  0  0  0
   -3.7177    1.4292  -19.6034 C   0  0  0  0  0  0  0  0  0  0  0  0
   -3.4317    1.8883  -20.8585 C   0  0  0  0  0  0  0  0  0  0  0  0
   -4.2181    1.4731  -21.9578 C   0  0  0  0  0  0  0  0  0  0  0  0
   -5.2207    0.5524  -21.7932 C   0  0  0  0  0  0  0  0  0  0  0  0
   -5.5849    0.1050  -20.4868 C   0  0  0  0  0  0  0  0  0  0  0  0
   -5.7674    0.2057  -22.6663 H   0  0  0  0  0  0  0  0  0  0  0  0
   -4.0161    1.8898  -22.9398 H   0  0  0  0  0  0  0  0  0  0  0  0
   -2.6340    2.6093  -21.0122 H   0  0  0  0  0  0  0  0  0  0  0  0
   -3.1160    1.7219  -18.7465 H   0  0  0  0  0  0  0  0  0  0  0  0
   -4.6403    0.5609  -17.2239 H   0  0  0  0  0  0  0  0  0  0  0  0
   -7.7481   -1.7587  -18.6305 H   0  0  0  0  0  0  0  0  0  0  0  0
   -8.1727   -0.6458  -22.1081 C   0  0  0  0  0  0  0  0  0  0  0  0
   -8.2914    0.5646  -22.0699 O   0  0  0  0  0  0  0  0  0  0  0  0
   -8.7556   -1.5793  -23.1809 C   0  0  1  0  0  0  0  0  0  0  0  0
   -7.9612   -1.3001  -24.4829 C   0  0  0  0  0  0  0  0  0  0  0  0
   -8.5948   -1.8518  -25.6757 N   0  0  0  0  0  0  0  0  0  0  0  0
   -7.7823   -2.2854  -26.8045 C   0  0  0  0  0  0  0  0  0  0  0  0
   -7.7241   -3.7835  -26.9217 C   0  0  0  0  0  0  0  0  0  0  0  0
   -6.6484   -4.6659  -26.7441 C   0  0  0  0  0  0  0  0  0  0  0  0
   -7.0607   -5.9088  -26.9992 N   0  0  0  0  0  0  0  0  0  0  0  0
   -8.3315   -5.7381  -27.3053 N   0  0  0  0  0  0  0  0  0  0  0  0
   -8.7915   -4.4991  -27.2800 N   0  0  0  0  0  0  0  0  0  0  0  0
   -8.9152   -6.5097  -27.6054 H   0  0  0  0  0  0  0  0  0  0  0  0
   -5.6349   -4.4390  -26.4242 H   0  0  0  0  0  0  0  0  0  0  0  0
   -6.7877   -1.8269  -26.7350 H   0  0  0  0  0  0  0  0  0  0  0  0
   -8.2634   -1.9022  -27.7095 H   0  0  0  0  0  0  0  0  0  0  0  0
   -9.9382   -1.7283  -25.9136 C   0  0  0  0  0  0  0  0  0  0  0  0
  -10.4310   -1.9157  -27.0196 O   0  0  0  0  0  0  0  0  0  0  0  0
  -10.7709   -1.3848  -24.7358 C   0  0  0  0  0  0  0  0  0  0  0  0
  -12.1352   -1.2117  -24.9581 C   0  0  0  0  0  0  0  0  0  0  0  0
  -12.9908   -0.9159  -23.9199 C   0  0  0  0  0  0  0  0  0  0  0  0
  -12.4328   -0.8341  -22.6501 C   0  0  0  0  0  0  0  0  0  0  0  0
  -13.2627   -0.6051  -21.6296 F   0  0  0  0  0  0  0  0  0  0  0  0
  -11.0834   -1.0104  -22.3985 C   0  0  0  0  0  0  0  0  0  0  0  0
  -10.2187   -1.2915  -23.4568 C   0  0  0  0  0  0  0  0  0  0  0  0
  -10.6905   -0.9418  -21.3920 H   0  0  0  0  0  0  0  0  0  0  0  0
  -14.0557   -0.7574  -24.0739 H   0  0  0  0  0  0  0  0  0  0  0  0
  -12.4961   -1.3308  -25.9716 H   0  0  0  0  0  0  0  0  0  0  0  0
   -6.9430   -1.6990  -24.3976 H   0  0  0  0  0  0  0  0  0  0  0  0
   -7.8666   -0.2091  -24.5903 H   0  0  0  0  0  0  0  0  0  0  0  0
   -7.5597   -3.3988  -20.6024 H   0  0  0  0  0  0  0  0  0  0  0  0
   -6.4209   -3.0884  -21.9199 H   0  0  0  0  0  0  0  0  0  0  0  0
   -9.4524   -3.1902  -21.9421 H   0  0  0  0  0  0  0  0  0  0  0  0
   -8.2453   -5.0860  -22.9438 H   0  0  0  0  0  0  0  0  0  0  0  0
   -9.1267   -4.2019  -24.2133 H   0  0  0  0  0  0  0  0  0  0  0  0
   -7.3738   -3.9934  -24.0355 H   0  0  0  0  0  0  0  0  0  0  0  0
  1  2  1  0
  2  3  1  0
  3  4  1  0
  4  5  1  0
  5  6  2  0
  6  7  1  0
  7  8  2  0
  8  9  1  0
  9 10  2  0
 10 11  1  0
 11 12  2  0
 12 13  1  0
 13 14  2  0
 13 15  1  0
 12 16  1  0
 11 17  1  0
 10 18  1  0
  8 19  1  0
  6 20  1  0
  4 21  1  0
 21 22  2  0
 21 23  1  0
 23 24  1  6
 24 25  1  0
 25 26  1  0
 26 27  1  0
 27 28  1  0
 28 29  2  0
 29 30  1  0
 30 31  1  0
 30 32  1  0
 28 33  1  0
 26 34  1  0
 26 35  1  0
 25 36  1  0
 36 37  2  0
 36 38  1  0
 38 39  2  0
 39 40  1  0
 40 41  2  0
 41 42  1  0
 41 43  1  0
 43 44  2  0
 43 45  1  0
 40 46  1  0
 39 47  1  0
 24 48  1  0
 24 49  1  0
  3 50  1  0
  3 51  1  0
  2 52  1  1
  1 53  1  0
  1 54  1  0
  1 55  1  0
 23  2  1  0
 31 27  2  0
 44 38  1  0
 14  5  1  0
 44 23  1  0
 14  9  1  0
M  END
>  <cnnaffinities>  (29) 
[5.86982, 5.80335]

>  <score>  (29) 
5.86982

>  <index>  (29) 
29

>  <Smiles>  (29) 
C([C@]1(C(N(c2c(nc(c3c(c(c(c(c23)[H])[H])[H])[H])[H])[H])C(=O)[C@]21C(N(C(c1c(nn(n1)[H])[H])([H])[H])C(=O)c1c(c(c(F)c(c21)[H])[H])[H])([H])[H])([H])[H])[H])([H])([H])[H]

>  <h>  (29) 
<NA>

>  <Training>  (29) 
True

>  <Success>  (29) 
True

>  <enamine_searched>  (29) 
False

>  <enamine_id>  (29) 
nan

$$$$

     RDKit          3D

 58 63  0  0  0  0  0  0  0  0999 V2000
   -8.2795   -4.1310  -23.5128 C   0  0  0  0  0  0  0  0  0  0  0  0
   -8.5144   -2.9904  -22.5360 C   0  0  1  0  0  0  0  0  0  0  0  0
   -7.3871   -2.8076  -21.5084 C   0  0  0  0  0  0  0  0  0  0  0  0
   -7.4381   -1.3898  -21.1957 N   0  0  0  0  0  0  0  0  0  0  0  0
   -6.6530   -0.7935  -20.1797 C   0  0  0  0  0  0  0  0  0  0  0  0
   -6.9137   -1.0926  -18.8660 C   0  0  0  0  0  0  0  0  0  0  0  0
   -6.2218   -0.6046  -17.8090 N   0  0  0  0  0  0  0  0  0  0  0  0
   -5.2120    0.1915  -18.0713 C   0  0  0  0  0  0  0  0  0  0  0  0
   -4.8213    0.5720  -19.3869 C   0  0  0  0  0  0  0  0  0  0  0  0
   -3.7053    1.4216  -19.6071 C   0  0  0  0  0  0  0  0  0  0  0  0
   -3.4130    1.8694  -20.8649 C   0  0  0  0  0  0  0  0  0  0  0  0
   -4.2017    1.4541  -21.9625 C   0  0  0  0  0  0  0  0  0  0  0  0
   -5.2022    0.5314  -21.7931 C   0  0  0  0  0  0  0  0  0  0  0  0
   -5.5726    0.0967  -20.4855 C   0  0  0  0  0  0  0  0  0  0  0  0
   -5.7268    0.1542  -22.6671 H   0  0  0  0  0  0  0  0  0  0  0  0
   -3.9878    1.8506  -22.9501 H   0  0  0  0  0  0  0  0  0  0  0  0
   -2.5916    2.5617  -21.0255 H   0  0  0  0  0  0  0  0  0  0  0  0
   -3.1060    1.7188  -18.7511 H   0  0  0  0  0  0  0  0  0  0  0  0
   -4.6384    0.5691  -17.2233 H   0  0  0  0  0  0  0  0  0  0  0  0
   -7.7507   -1.7468  -18.6262 H   0  0  0  0  0  0  0  0  0  0  0  0
   -8.1570   -0.6440  -22.1048 C   0  0  0  0  0  0  0  0  0  0  0  0
   -8.2726    0.5625  -22.0581 O   0  0  0  0  0  0  0  0  0  0  0  0
   -8.7304   -1.5765  -23.1875 C   0  0  1  0  0  0  0  0  0  0  0  0
   -7.9303   -1.2875  -24.4820 C   0  0  0  0  0  0  0  0  0  0  0  0
   -8.5605   -1.8067  -25.6921 N   0  0  0  0  0  0  0  0  0  0  0  0
   -7.7215   -2.1502  -26.8275 C   0  0  0  0  0  0  0  0  0  0  0  0
   -7.3185   -3.5974  -26.7828 C   0  0  0  0  0  0  0  0  0  0  0  0
   -8.1768   -4.5952  -27.1369 C   0  0  0  0  0  0  0  0  0  0  0  0
   -7.7597   -5.9755  -27.0972 C   0  0  0  0  0  0  0  0  0  0  0  0
   -8.4260   -6.9550  -27.3659 O   0  0  0  0  0  0  0  0  0  0  0  0
   -6.4153   -6.1152  -26.6998 N   0  0  0  0  0  0  0  0  0  0  0  0
   -5.6357   -5.0551  -26.3470 C   0  0  0  0  0  0  0  0  0  0  0  0
   -6.0350   -3.8294  -26.3396 N   0  0  0  0  0  0  0  0  0  0  0  0
   -4.6058   -5.2820  -26.0710 H   0  0  0  0  0  0  0  0  0  0  0  0
   -6.0597   -7.0620  -26.6634 H   0  0  0  0  0  0  0  0  0  0  0  0
   -9.1847   -4.3927  -27.4733 H   0  0  0  0  0  0  0  0  0  0  0  0
   -8.3010   -1.9302  -27.7299 H   0  0  0  0  0  0  0  0  0  0  0  0
   -6.8221   -1.5324  -26.8054 H   0  0  0  0  0  0  0  0  0  0  0  0
   -9.9100   -1.8272  -25.9026 C   0  0  0  0  0  0  0  0  0  0  0  0
  -10.4061   -2.1442  -26.9759 O   0  0  0  0  0  0  0  0  0  0  0  0
  -10.7486   -1.4467  -24.7409 C   0  0  0  0  0  0  0  0  0  0  0  0
  -12.1137   -1.2829  -24.9684 C   0  0  0  0  0  0  0  0  0  0  0  0
  -12.9611   -0.9602  -23.9314 C   0  0  0  0  0  0  0  0  0  0  0  0
  -12.4006   -0.8412  -22.6658 C   0  0  0  0  0  0  0  0  0  0  0  0
  -13.2325   -0.5845  -21.6533 F   0  0  0  0  0  0  0  0  0  0  0  0
  -11.0513   -1.0040  -22.4112 C   0  0  0  0  0  0  0  0  0  0  0  0
  -10.1932   -1.3023  -23.4681 C   0  0  0  0  0  0  0  0  0  0  0  0
  -10.6509   -0.9152  -21.4088 H   0  0  0  0  0  0  0  0  0  0  0  0
  -14.0281   -0.8106  -24.0717 H   0  0  0  0  0  0  0  0  0  0  0  0
  -12.4760   -1.4289  -25.9791 H   0  0  0  0  0  0  0  0  0  0  0  0
   -7.8158   -0.1971  -24.5648 H   0  0  0  0  0  0  0  0  0  0  0  0
   -6.9200   -1.7091  -24.4028 H   0  0  0  0  0  0  0  0  0  0  0  0
   -7.5520   -3.4049  -20.6062 H   0  0  0  0  0  0  0  0  0  0  0  0
   -6.4025   -3.0861  -21.9150 H   0  0  0  0  0  0  0  0  0  0  0  0
   -9.4328   -3.1969  -21.9646 H   0  0  0  0  0  0  0  0  0  0  0  0
   -8.2318   -5.0873  -22.9840 H   0  0  0  0  0  0  0  0  0  0  0  0
   -9.0928   -4.1732  -24.2456 H   0  0  0  0  0  0  0  0  0  0  0  0
   -7.3377   -3.9886  -24.0527 H   0  0  0  0  0  0  0  0  0  0  0  0
  1  2  1  0
  2  3  1  0
  3  4  1  0
  4  5  1  0
  5  6  2  0
  6  7  1  0
  7  8  2  0
  8  9  1  0
  9 10  2  0
 10 11  1  0
 11 12  2  0
 12 13  1  0
 13 14  2  0
 13 15  1  0
 12 16  1  0
 11 17  1  0
 10 18  1  0
  8 19  1  0
  6 20  1  0
  4 21  1  0
 21 22  2  0
 21 23  1  0
 23 24  1  6
 24 25  1  0
 25 26  1  0
 26 27  1  0
 27 28  2  0
 28 29  1  0
 29 30  2  0
 29 31  1  0
 31 32  1  0
 32 33  2  0
 32 34  1  0
 31 35  1  0
 28 36  1  0
 26 37  1  0
 26 38  1  0
 25 39  1  0
 39 40  2  0
 39 41  1  0
 41 42  2  0
 42 43  1  0
 43 44  2  0
 44 45  1  0
 44 46  1  0
 46 47  2  0
 46 48  1  0
 43 49  1  0
 42 50  1  0
 24 51  1  0
 24 52  1  0
  3 53  1  0
  3 54  1  0
  2 55  1  1
  1 56  1  0
  1 57  1  0
  1 58  1  0
 23  2  1  0
 33 27  1  0
 47 41  1  0
 14  5  1  0
 47 23  1  0
 14  9  1  0
M  END
>  <cnnaffinities>  (30) 
[5.96339, 5.9723, 5.95225]

>  <score>  (30) 
5.96339

>  <index>  (30) 
30

>  <Smiles>  (30) 
C([C@]1(C(N(c2c(nc(c3c(c(c(c(c23)[H])[H])[H])[H])[H])[H])C(=O)[C@]21C(N(C(c1c(c(=O)n(c(n1)[H])[H])[H])([H])[H])C(=O)c1c(c(c(F)c(c21)[H])[H])[H])([H])[H])([H])[H])[H])([H])([H])[H]

>  <h>  (30) 
<NA>

>  <Training>  (30) 
True

>  <Success>  (30) 
True

>  <enamine_searched>  (30) 
False

>  <enamine_id>  (30) 
nan

$$$$

     RDKit          3D

 66 71  0  0  0  0  0  0  0  0999 V2000
   -7.8383   -6.0306  -26.6971 C   0  0  0  0  0  0  0  0  0  0  0  0
   -8.0246   -4.6131  -26.9521 N   0  0  0  0  0  0  0  0  0  0  0  0
   -7.1003   -3.7073  -26.5606 C   0  0  0  0  0  0  0  0  0  0  0  0
   -6.0573   -4.0232  -25.9960 O   0  0  0  0  0  0  0  0  0  0  0  0
   -7.4519   -2.2386  -26.8089 C   0  0  0  0  0  0  0  0  0  0  0  0
   -8.3552   -1.7242  -25.7875 N   0  0  0  0  0  0  0  0  0  0  0  0
   -7.8281   -1.2406  -24.5139 C   0  0  0  0  0  0  0  0  0  0  0  0
   -8.7281   -1.5413  -23.2750 C   0  0  2  0  0  0  0  0  0  0  0  0
   -8.2708   -0.5664  -22.1660 C   0  0  0  0  0  0  0  0  0  0  0  0
   -8.4745    0.6276  -22.1332 O   0  0  0  0  0  0  0  0  0  0  0  0
   -7.5038   -1.2622  -21.2475 N   0  0  0  0  0  0  0  0  0  0  0  0
   -6.7287   -0.6769  -20.2160 C   0  0  0  0  0  0  0  0  0  0  0  0
   -6.9308   -1.0866  -18.9204 C   0  0  0  0  0  0  0  0  0  0  0  0
   -6.2105   -0.6709  -17.8517 N   0  0  0  0  0  0  0  0  0  0  0  0
   -5.2265    0.1645  -18.0804 C   0  0  0  0  0  0  0  0  0  0  0  0
   -4.8952    0.6656  -19.3707 C   0  0  0  0  0  0  0  0  0  0  0  0
   -3.8151    1.5697  -19.5579 C   0  0  0  0  0  0  0  0  0  0  0  0
   -3.5278    2.0618  -20.8005 C   0  0  0  0  0  0  0  0  0  0  0  0
   -4.2963    1.6580  -21.9167 C   0  0  0  0  0  0  0  0  0  0  0  0
   -5.3303    0.7699  -21.7632 C   0  0  0  0  0  0  0  0  0  0  0  0
   -5.6700    0.2557  -20.4795 C   0  0  0  0  0  0  0  0  0  0  0  0
   -5.9231    0.4898  -22.6273 H   0  0  0  0  0  0  0  0  0  0  0  0
   -4.0786    2.0688  -22.8981 H   0  0  0  0  0  0  0  0  0  0  0  0
   -2.7373    2.7950  -20.9310 H   0  0  0  0  0  0  0  0  0  0  0  0
   -3.2265    1.8557  -18.6906 H   0  0  0  0  0  0  0  0  0  0  0  0
   -4.6460    0.4965  -17.2192 H   0  0  0  0  0  0  0  0  0  0  0  0
   -7.7463   -1.7740  -18.7019 H   0  0  0  0  0  0  0  0  0  0  0  0
   -7.3912   -2.6804  -21.5362 C   0  0  0  0  0  0  0  0  0  0  0  0
   -8.4801   -2.9145  -22.5837 C   0  0  2  0  0  0  0  0  0  0  0  0
   -8.1924   -4.0873  -23.5155 C   0  0  0  0  0  0  0  0  0  0  0  0
   -8.1277   -5.3459  -22.8017 N   0  0  0  0  0  0  0  0  0  0  0  0
   -6.9927   -5.9106  -22.3090 C   0  0  0  0  0  0  0  0  0  0  0  0
   -5.7240   -5.7024  -22.8764 C   0  0  0  0  0  0  0  0  0  0  0  0
   -4.6697   -6.3511  -22.2656 C   0  0  0  0  0  0  0  0  0  0  0  0
   -4.8209   -7.1147  -21.1791 N   0  0  0  0  0  0  0  0  0  0  0  0
   -6.0627   -7.2378  -20.7373 C   0  0  0  0  0  0  0  0  0  0  0  0
   -7.1648   -6.7039  -21.2407 N   0  0  0  0  0  0  0  0  0  0  0  0
   -6.1927   -7.8606  -19.8537 H   0  0  0  0  0  0  0  0  0  0  0  0
   -3.6491   -6.2656  -22.6430 H   0  0  0  0  0  0  0  0  0  0  0  0
   -5.6026   -5.0873  -23.7625 H   0  0  0  0  0  0  0  0  0  0  0  0
   -8.9200   -5.5150  -22.1981 H   0  0  0  0  0  0  0  0  0  0  0  0
   -9.0056   -4.1415  -24.2494 H   0  0  0  0  0  0  0  0  0  0  0  0
   -7.2540   -3.9178  -24.0448 H   0  0  0  0  0  0  0  0  0  0  0  0
   -9.4137   -3.1428  -22.0481 H   0  0  0  0  0  0  0  0  0  0  0  0
   -7.5514   -3.2682  -20.6292 H   0  0  0  0  0  0  0  0  0  0  0  0
   -6.3828   -2.9224  -21.9071 H   0  0  0  0  0  0  0  0  0  0  0  0
  -10.1866   -1.3665  -23.6493 C   0  0  0  0  0  0  0  0  0  0  0  0
  -11.1564   -1.2951  -22.6386 C   0  0  0  0  0  0  0  0  0  0  0  0
  -12.4962   -1.1783  -22.9645 C   0  0  0  0  0  0  0  0  0  0  0  0
  -13.7374   -1.1918  -21.7439 Cl  0  0  0  0  0  0  0  0  0  0  0  0
  -12.9061   -1.1084  -24.2958 C   0  0  0  0  0  0  0  0  0  0  0  0
  -11.9582   -1.2082  -25.2965 C   0  0  0  0  0  0  0  0  0  0  0  0
  -10.6168   -1.3997  -24.9772 C   0  0  0  0  0  0  0  0  0  0  0  0
   -9.6858   -1.8181  -26.0643 C   0  0  0  0  0  0  0  0  0  0  0  0
  -10.0970   -2.2793  -27.1254 O   0  0  0  0  0  0  0  0  0  0  0  0
  -12.2359   -1.1687  -26.3466 H   0  0  0  0  0  0  0  0  0  0  0  0
  -13.9652   -1.0545  -24.5163 H   0  0  0  0  0  0  0  0  0  0  0  0
  -10.8461   -1.3413  -21.6021 H   0  0  0  0  0  0  0  0  0  0  0  0
   -7.6999   -0.1499  -24.5624 H   0  0  0  0  0  0  0  0  0  0  0  0
   -6.8421   -1.7059  -24.3840 H   0  0  0  0  0  0  0  0  0  0  0  0
   -6.5268   -1.6605  -26.8261 H   0  0  0  0  0  0  0  0  0  0  0  0
   -7.9684   -2.1378  -27.7643 H   0  0  0  0  0  0  0  0  0  0  0  0
   -8.8962   -4.2785  -27.3322 H   0  0  0  0  0  0  0  0  0  0  0  0
   -7.5816   -6.1940  -25.6413 H   0  0  0  0  0  0  0  0  0  0  0  0
   -8.7676   -6.5590  -26.9212 H   0  0  0  0  0  0  0  0  0  0  0  0
   -7.0443   -6.4491  -27.3265 H   0  0  0  0  0  0  0  0  0  0  0  0
  1  2  1  0
  2  3  1  0
  3  4  2  0
  3  5  1  0
  5  6  1  0
  6  7  1  0
  8  7  1  6
  8  9  1  0
  9 10  2  0
  9 11  1  0
 11 12  1  0
 12 13  2  0
 13 14  1  0
 14 15  2  0
 15 16  1  0
 16 17  2  0
 17 18  1  0
 18 19  2  0
 19 20  1  0
 20 21  2  0
 20 22  1  0
 19 23  1  0
 18 24  1  0
 17 25  1  0
 15 26  1  0
 13 27  1  0
 11 28  1  0
 28 29  1  0
 29 30  1  0
 30 31  1  0
 31 32  1  0
 32 33  2  0
 33 34  1  0
 34 35  2  0
 35 36  1  0
 36 37  2  0
 36 38  1  0
 34 39  1  0
 33 40  1  0
 31 41  1  0
 30 42  1  0
 30 43  1  0
 29 44  1  1
 28 45  1  0
 28 46  1  0
  8 47  1  0
 47 48  2  0
 48 49  1  0
 49 50  1  0
 49 51  2  0
 51 52  1  0
 52 53  2  0
 53 54  1  0
 54 55  2  0
 52 56  1  0
 51 57  1  0
 48 58  1  0
  7 59  1  0
  7 60  1  0
  5 61  1  0
  5 62  1  0
  2 63  1  0
  1 64  1  0
  1 65  1  0
  1 66  1  0
 54  6  1  0
 29  8  1  0
 37 32  1  0
 53 47  1  0
 21 12  1  0
 21 16  1  0
M  END
>  <cnnaffinities>  (31) 
[6.12647, 6.43257]

>  <score>  (31) 
6.12647

>  <index>  (31) 
31

>  <Smiles>  (31) 
C(N(C(=O)C(N1C([C@@]2(C(=O)N(c3c(nc(c4c(c(c(c(c34)[H])[H])[H])[H])[H])[H])C([C@@]2(C(N(c2c(c(nc(n2)[H])[H])[H])[H])([H])[H])[H])([H])[H])c2c(c(Cl)c(c(c2C1=O)[H])[H])[H])([H])[H])([H])[H])[H])([H])([H])[H]

>  <h>  (31) 
<NA>

>  <Training>  (31) 
True

>  <Success>  (31) 
True

>  <enamine_searched>  (31) 
False

>  <enamine_id>  (31) 
nan

$$$$

     RDKit          3D

 57 62  0  0  0  0  0  0  0  0999 V2000
   -8.0636   -4.0270  -23.7510 C   0  0  0  0  0  0  0  0  0  0  0  0
   -8.2774   -3.1601  -22.5122 C   0  0  1  0  0  0  0  0  0  0  0  0
   -7.0123   -2.4005  -22.0715 C   0  0  0  0  0  0  0  0  0  0  0  0
   -7.5411   -1.3249  -21.2571 N   0  0  0  0  0  0  0  0  0  0  0  0
   -6.8156   -0.7402  -20.1837 C   0  0  0  0  0  0  0  0  0  0  0  0
   -7.0790   -1.0881  -18.8796 C   0  0  0  0  0  0  0  0  0  0  0  0
   -6.3185   -0.7123  -17.8196 N   0  0  0  0  0  0  0  0  0  0  0  0
   -5.2950    0.0765  -18.0464 C   0  0  0  0  0  0  0  0  0  0  0  0
   -4.9436    0.5623  -19.3382 C   0  0  0  0  0  0  0  0  0  0  0  0
   -3.8797    1.4829  -19.5423 C   0  0  0  0  0  0  0  0  0  0  0  0
   -3.6082    1.9591  -20.7948 C   0  0  0  0  0  0  0  0  0  0  0  0
   -4.3491    1.5071  -21.9082 C   0  0  0  0  0  0  0  0  0  0  0  0
   -5.3861    0.6209  -21.7349 C   0  0  0  0  0  0  0  0  0  0  0  0
   -5.7157    0.1380  -20.4447 C   0  0  0  0  0  0  0  0  0  0  0  0
   -6.0041    0.3467  -22.5869 H   0  0  0  0  0  0  0  0  0  0  0  0
   -4.1302    1.8853  -22.9042 H   0  0  0  0  0  0  0  0  0  0  0  0
   -2.8268    2.6992  -20.9437 H   0  0  0  0  0  0  0  0  0  0  0  0
   -3.3104    1.8209  -18.6791 H   0  0  0  0  0  0  0  0  0  0  0  0
   -4.6790    0.3656  -17.1908 H   0  0  0  0  0  0  0  0  0  0  0  0
   -7.9263   -1.7293  -18.6454 H   0  0  0  0  0  0  0  0  0  0  0  0
   -8.8612   -1.0353  -21.5392 C   0  0  0  0  0  0  0  0  0  0  0  0
   -9.4896   -0.1400  -21.0204 O   0  0  0  0  0  0  0  0  0  0  0  0
   -9.3686   -2.0440  -22.6263 C   0  0  1  0  0  0  0  0  0  0  0  0
   -9.3143   -1.4124  -24.0421 C   0  0  0  0  0  0  0  0  0  0  0  0
  -10.3822   -0.4639  -24.3152 N   0  0  0  0  0  0  0  0  0  0  0  0
  -10.0116    0.7228  -25.0684 C   0  0  0  0  0  0  0  0  0  0  0  0
   -9.1974    1.6067  -24.1689 C   0  0  0  0  0  0  0  0  0  0  0  0
   -7.8916    1.7604  -24.1936 N   0  0  0  0  0  0  0  0  0  0  0  0
   -7.5852    2.4613  -23.0812 N   0  0  0  0  0  0  0  0  0  0  0  0
   -8.6373    2.7169  -22.3878 N   0  0  0  0  0  0  0  0  0  0  0  0
   -9.6718    2.1861  -23.0490 N   0  0  0  0  0  0  0  0  0  0  0  0
  -11.0196    2.3791  -22.5414 C   0  0  0  0  0  0  0  0  0  0  0  0
  -11.1991    1.6945  -21.7043 H   0  0  0  0  0  0  0  0  0  0  0  0
  -11.7194    2.1909  -23.3590 H   0  0  0  0  0  0  0  0  0  0  0  0
  -11.1166    3.4163  -22.2011 H   0  0  0  0  0  0  0  0  0  0  0  0
  -10.9293    1.1798  -25.4485 H   0  0  0  0  0  0  0  0  0  0  0  0
   -9.4027    0.4243  -25.9253 H   0  0  0  0  0  0  0  0  0  0  0  0
  -11.6575   -0.6047  -23.8651 C   0  0  0  0  0  0  0  0  0  0  0  0
  -12.5813    0.1163  -24.2386 O   0  0  0  0  0  0  0  0  0  0  0  0
  -11.8753   -1.6909  -22.8705 C   0  0  0  0  0  0  0  0  0  0  0  0
  -13.1883   -1.9023  -22.4517 C   0  0  0  0  0  0  0  0  0  0  0  0
  -13.4996   -2.9963  -21.6704 C   0  0  0  0  0  0  0  0  0  0  0  0
  -12.4555   -3.8058  -21.2427 C   0  0  0  0  0  0  0  0  0  0  0  0
  -12.7255   -4.8389  -20.4239 F   0  0  0  0  0  0  0  0  0  0  0  0
  -11.1380   -3.5608  -21.5757 C   0  0  0  0  0  0  0  0  0  0  0  0
  -10.8104   -2.4681  -22.3844 C   0  0  0  0  0  0  0  0  0  0  0  0
  -10.3879   -4.1861  -21.1076 H   0  0  0  0  0  0  0  0  0  0  0  0
  -14.5163   -3.2356  -21.3888 H   0  0  0  0  0  0  0  0  0  0  0  0
  -13.9352   -1.1731  -22.7495 H   0  0  0  0  0  0  0  0  0  0  0  0
   -8.3602   -0.8897  -24.1664 H   0  0  0  0  0  0  0  0  0  0  0  0
   -9.3726   -2.2236  -24.7755 H   0  0  0  0  0  0  0  0  0  0  0  0
   -6.4758   -2.0086  -22.9504 H   0  0  0  0  0  0  0  0  0  0  0  0
   -6.3075   -3.0055  -21.4939 H   0  0  0  0  0  0  0  0  0  0  0  0
   -8.5407   -3.8121  -21.6727 H   0  0  0  0  0  0  0  0  0  0  0  0
   -7.3851   -4.8605  -23.5486 H   0  0  0  0  0  0  0  0  0  0  0  0
   -9.0066   -4.4436  -24.1202 H   0  0  0  0  0  0  0  0  0  0  0  0
   -7.6250   -3.4415  -24.5666 H   0  0  0  0  0  0  0  0  0  0  0  0
  1  2  1  0
  2  3  1  0
  3  4  1  0
  4  5  1  0
  5  6  2  0
  6  7  1  0
  7  8  2  0
  8  9  1  0
  9 10  2  0
 10 11  1  0
 11 12  2  0
 12 13  1  0
 13 14  2  0
 13 15  1  0
 12 16  1  0
 11 17  1  0
 10 18  1  0
  8 19  1  0
  6 20  1  0
  4 21  1  0
 21 22  2  0
 21 23  1  0
 23 24  1  6
 24 25  1  0
 25 26  1  0
 26 27  1  0
 27 28  2  0
 28 29  1  0
 29 30  2  0
 30 31  1  0
 31 32  1  0
 32 33  1  0
 32 34  1  0
 32 35  1  0
 26 36  1  0
 26 37  1  0
 25 38  1  0
 38 39  2  0
 38 40  1  0
 40 41  2  0
 41 42  1  0
 42 43  2  0
 43 44  1  0
 43 45  1  0
 45 46  2  0
 45 47  1  0
 42 48  1  0
 41 49  1  0
 24 50  1  0
 24 51  1  0
  3 52  1  0
  3 53  1  0
  2 54  1  1
  1 55  1  0
  1 56  1  0
  1 57  1  0
 23  2  1  0
 31 27  1  0
 46 40  1  0
 14  5  1  0
 46 23  1  0
 14  9  1  0
M  END
>  <cnnaffinities>  (32) 
[6.45707, 5.83796, 5.70285]

>  <score>  (32) 
6.45707

>  <index>  (32) 
32

>  <Smiles>  (32) 
C([C@]1(C(N(c2c(nc(c3c(c(c(c(c23)[H])[H])[H])[H])[H])[H])C(=O)[C@]21C(N(C(c1nnnn1C([H])([H])[H])([H])[H])C(=O)c1c(c(c(F)c(c21)[H])[H])[H])([H])[H])([H])[H])[H])([H])([H])[H]

>  <h>  (32) 
<NA>

>  <Training>  (32) 
True

>  <Success>  (32) 
True

>  <enamine_searched>  (32) 
False

>  <enamine_id>  (32) 
nan

$$$$

     RDKit          3D

 66 70  0  0  0  0  0  0  0  0999 V2000
   -7.6393    3.0591  -21.9703 C   0  0  0  0  0  0  0  0  0  0  0  0
   -8.8055    2.5856  -22.6983 N   0  0  0  0  0  0  0  0  0  0  0  0
   -8.5315    1.7686  -23.7589 C   0  0  0  0  0  0  0  0  0  0  0  0
   -7.3785    1.5055  -24.0865 O   0  0  0  0  0  0  0  0  0  0  0  0
   -9.6987    1.1712  -24.5367 C   0  0  0  0  0  0  0  0  0  0  0  0
  -10.1313   -0.0506  -23.8920 N   0  0  0  0  0  0  0  0  0  0  0  0
   -9.2358   -1.2001  -23.8857 C   0  0  0  0  0  0  0  0  0  0  0  0
   -9.3013   -1.9438  -22.5269 C   0  0  2  0  0  0  0  0  0  0  0  0
   -8.7072   -1.0084  -21.4396 C   0  0  0  0  0  0  0  0  0  0  0  0
   -9.2405   -0.0290  -20.9502 O   0  0  0  0  0  0  0  0  0  0  0  0
   -7.4231   -1.4301  -21.1574 N   0  0  0  0  0  0  0  0  0  0  0  0
   -6.6425   -0.8168  -20.1465 C   0  0  0  0  0  0  0  0  0  0  0  0
   -6.9343   -1.0619  -18.8252 C   0  0  0  0  0  0  0  0  0  0  0  0
   -6.2228   -0.5784  -17.7809 N   0  0  0  0  0  0  0  0  0  0  0  0
   -5.1958    0.1898  -18.0576 C   0  0  0  0  0  0  0  0  0  0  0  0
   -4.7976    0.5463  -19.3782 C   0  0  0  0  0  0  0  0  0  0  0  0
   -3.7004    1.4163  -19.6191 C   0  0  0  0  0  0  0  0  0  0  0  0
   -3.4289    1.8568  -20.8853 C   0  0  0  0  0  0  0  0  0  0  0  0
   -4.2221    1.4316  -21.9717 C   0  0  0  0  0  0  0  0  0  0  0  0
   -5.2337    0.5136  -21.7783 C   0  0  0  0  0  0  0  0  0  0  0  0
   -5.5581    0.0589  -20.4681 C   0  0  0  0  0  0  0  0  0  0  0  0
   -5.8161    0.1880  -22.6339 H   0  0  0  0  0  0  0  0  0  0  0  0
   -4.0463    1.8472  -22.9591 H   0  0  0  0  0  0  0  0  0  0  0  0
   -2.6047    2.5435  -21.0579 H   0  0  0  0  0  0  0  0  0  0  0  0
   -3.1058    1.7399  -18.7695 H   0  0  0  0  0  0  0  0  0  0  0  0
   -4.6208    0.5732  -17.2145 H   0  0  0  0  0  0  0  0  0  0  0  0
   -7.7827   -1.6951  -18.5797 H   0  0  0  0  0  0  0  0  0  0  0  0
   -6.9899   -2.5574  -21.9651 C   0  0  0  0  0  0  0  0  0  0  0  0
   -8.3222   -3.1458  -22.4546 C   0  0  2  0  0  0  0  0  0  0  0  0
   -8.2008   -3.9848  -23.7270 C   0  0  0  0  0  0  0  0  0  0  0  0
   -7.4539   -5.1538  -23.4804 O   0  0  0  0  0  0  0  0  0  0  0  0
   -6.1665   -5.2223  -24.0847 C   0  0  0  0  0  0  0  0  0  0  0  0
   -5.3405   -6.1395  -23.2007 C   0  0  0  0  0  0  0  0  0  0  0  0
   -4.3070   -6.2202  -23.5573 H   0  0  0  0  0  0  0  0  0  0  0  0
   -5.7925   -7.1365  -23.1908 H   0  0  0  0  0  0  0  0  0  0  0  0
   -5.3311   -5.7536  -22.1774 H   0  0  0  0  0  0  0  0  0  0  0  0
   -6.2574   -5.7353  -25.5202 C   0  0  0  0  0  0  0  0  0  0  0  0
   -6.8569   -5.0704  -26.1532 H   0  0  0  0  0  0  0  0  0  0  0  0
   -6.7179   -6.7301  -25.5376 H   0  0  0  0  0  0  0  0  0  0  0  0
   -5.2536   -5.8072  -25.9570 H   0  0  0  0  0  0  0  0  0  0  0  0
   -5.7100   -4.2166  -24.0950 H   0  0  0  0  0  0  0  0  0  0  0  0
   -9.2027   -4.2871  -24.0613 H   0  0  0  0  0  0  0  0  0  0  0  0
   -7.7475   -3.3814  -24.5340 H   0  0  0  0  0  0  0  0  0  0  0  0
   -8.6625   -3.8076  -21.6546 H   0  0  0  0  0  0  0  0  0  0  0  0
   -6.3677   -2.2283  -22.8138 H   0  0  0  0  0  0  0  0  0  0  0  0
   -6.4104   -3.2731  -21.3706 H   0  0  0  0  0  0  0  0  0  0  0  0
  -10.7699   -2.2716  -22.2947 C   0  0  0  0  0  0  0  0  0  0  0  0
  -11.1941   -3.4122  -21.6070 C   0  0  0  0  0  0  0  0  0  0  0  0
  -12.5263   -3.5697  -21.2651 C   0  0  0  0  0  0  0  0  0  0  0  0
  -12.9756   -4.8941  -20.2313 Cl  0  0  0  0  0  0  0  0  0  0  0  0
  -13.5058   -2.6650  -21.6600 C   0  0  0  0  0  0  0  0  0  0  0  0
  -13.1105   -1.5714  -22.3998 C   0  0  0  0  0  0  0  0  0  0  0  0
  -11.7666   -1.3752  -22.7083 C   0  0  0  0  0  0  0  0  0  0  0  0
  -11.4265   -0.1374  -23.4721 C   0  0  0  0  0  0  0  0  0  0  0  0
  -12.2544    0.7340  -23.6978 O   0  0  0  0  0  0  0  0  0  0  0  0
  -13.8198   -0.8274  -22.7423 H   0  0  0  0  0  0  0  0  0  0  0  0
  -14.5412   -2.8125  -21.3772 H   0  0  0  0  0  0  0  0  0  0  0  0
  -10.5046   -4.1790  -21.2852 H   0  0  0  0  0  0  0  0  0  0  0  0
   -9.5208   -1.8967  -24.6863 H   0  0  0  0  0  0  0  0  0  0  0  0
   -8.2201   -0.8446  -24.0868 H   0  0  0  0  0  0  0  0  0  0  0  0
   -9.3430    0.9416  -25.5466 H   0  0  0  0  0  0  0  0  0  0  0  0
  -10.5663    1.8349  -24.6105 H   0  0  0  0  0  0  0  0  0  0  0  0
   -9.6424    2.4420  -22.1395 H   0  0  0  0  0  0  0  0  0  0  0  0
   -7.1272    2.2190  -21.4791 H   0  0  0  0  0  0  0  0  0  0  0  0
   -7.9207    3.8167  -21.2380 H   0  0  0  0  0  0  0  0  0  0  0  0
   -6.9595    3.5283  -22.6871 H   0  0  0  0  0  0  0  0  0  0  0  0
  1  2  1  0
  2  3  1  0
  3  4  2  0
  3  5  1  0
  5  6  1  0
  6  7  1  0
  8  7  1  6
  8  9  1  0
  9 10  2  0
  9 11  1  0
 11 12  1  0
 12 13  2  0
 13 14  1  0
 14 15  2  0
 15 16  1  0
 16 17  2  0
 17 18  1  0
 18 19  2  0
 19 20  1  0
 20 21  2  0
 20 22  1  0
 19 23  1  0
 18 24  1  0
 17 25  1  0
 15 26  1  0
 13 27  1  0
 11 28  1  0
 28 29  1  0
 29 30  1  0
 30 31  1  0
 31 32  1  0
 32 33  1  0
 33 34  1  0
 33 35  1  0
 33 36  1  0
 32 37  1  0
 37 38  1  0
 37 39  1  0
 37 40  1  0
 32 41  1  0
 30 42  1  0
 30 43  1  0
 29 44  1  1
 28 45  1  0
 28 46  1  0
  8 47  1  0
 47 48  2  0
 48 49  1  0
 49 50  1  0
 49 51  2  0
 51 52  1  0
 52 53  2  0
 53 54  1  0
 54 55  2  0
 52 56  1  0
 51 57  1  0
 48 58  1  0
  7 59  1  0
  7 60  1  0
  5 61  1  0
  5 62  1  0
  2 63  1  0
  1 64  1  0
  1 65  1  0
  1 66  1  0
 54  6  1  0
 29  8  1  0
 53 47  1  0
 21 12  1  0
 21 16  1  0
M  END
>  <cnnaffinities>  (33) 
[6.60588, 5.8897]

>  <score>  (33) 
6.60588

>  <index>  (33) 
34

>  <Smiles>  (33) 
C(N(C(=O)C(N1C([C@@]2(C(=O)N(c3c(nc(c4c(c(c(c(c34)[H])[H])[H])[H])[H])[H])C([C@@]2(C(OC(C([H])([H])[H])(C([H])([H])[H])[H])([H])[H])[H])([H])[H])c2c(c(Cl)c(c(c2C1=O)[H])[H])[H])([H])[H])([H])[H])[H])([H])([H])[H]

>  <h>  (33) 
<NA>

>  <Training>  (33) 
True

>  <Success>  (33) 
True

>  <enamine_searched>  (33) 
False

>  <enamine_id>  (33) 
nan

$$$$

     RDKit          3D

 40 42  0  0  0  0  0  0  0  0999 V2000
   -9.1982   -1.8744  -22.5417 O   0  0  0  0  0  0  0  0  0  0  0  0
   -8.3330   -1.0334  -22.3159 C   0  0  0  0  0  0  0  0  0  0  0  0
   -6.9572   -1.4778  -21.8097 C   0  0  0  0  0  0  0  0  0  0  0  0
   -6.4333   -0.7484  -20.5807 C   0  0  0  0  0  0  0  0  0  0  0  0
   -6.9669   -1.0241  -19.3428 C   0  0  0  0  0  0  0  0  0  0  0  0
   -6.4733   -0.5759  -18.1627 N   0  0  0  0  0  0  0  0  0  0  0  0
   -5.4432    0.2345  -18.2166 C   0  0  0  0  0  0  0  0  0  0  0  0
   -4.8575    0.6992  -19.4259 C   0  0  0  0  0  0  0  0  0  0  0  0
   -3.8429    1.6923  -19.4401 C   0  0  0  0  0  0  0  0  0  0  0  0
   -3.3864    2.2089  -20.6228 C   0  0  0  0  0  0  0  0  0  0  0  0
   -3.8675    1.6935  -21.8428 C   0  0  0  0  0  0  0  0  0  0  0  0
   -4.7606    0.6476  -21.8491 C   0  0  0  0  0  0  0  0  0  0  0  0
   -5.3499    0.1796  -20.6462 C   0  0  0  0  0  0  0  0  0  0  0  0
   -5.0019    0.1865  -22.8005 H   0  0  0  0  0  0  0  0  0  0  0  0
   -3.5022    2.0984  -22.7812 H   0  0  0  0  0  0  0  0  0  0  0  0
   -2.6670    3.0239  -20.6335 H   0  0  0  0  0  0  0  0  0  0  0  0
   -3.4694    2.0662  -18.4890 H   0  0  0  0  0  0  0  0  0  0  0  0
   -5.0305    0.5797  -17.2672 H   0  0  0  0  0  0  0  0  0  0  0  0
   -7.8428   -1.6693  -19.2582 H   0  0  0  0  0  0  0  0  0  0  0  0
   -7.0968   -2.5386  -21.5687 H   0  0  0  0  0  0  0  0  0  0  0  0
   -6.2215   -1.4310  -22.6212 H   0  0  0  0  0  0  0  0  0  0  0  0
   -8.4907    0.3269  -22.4328 N   0  0  0  0  0  0  0  0  0  0  0  0
   -7.5591    1.2244  -23.1760 C   0  0  0  0  0  0  0  0  0  0  0  0
   -8.1694    2.4810  -23.7328 C   0  0  0  0  0  0  0  0  0  0  0  0
   -9.4330    2.8835  -23.6584 C   0  0  0  0  0  0  0  0  0  0  0  0
   -8.4220    5.3788  -22.8694 C   0  0  0  0  0  0  0  0  0  0  0  0
   -7.7565    4.8813  -21.8446 F   0  0  0  0  0  0  0  0  0  0  0  0
   -9.1511    6.4077  -22.4911 F   0  0  0  0  0  0  0  0  0  0  0  0
   -7.5892    5.7208  -23.8404 F   0  0  0  0  0  0  0  0  0  0  0  0
   -9.6876    1.0720  -21.9675 C   0  0  0  0  0  0  0  0  0  0  0  0
   -9.6971    0.9150  -21.7836 C   0  0  0  0  0  0  0  0  0  0  0  0
  -10.4414    0.5249  -22.7500 H   0  0  0  0  0  0  0  0  0  0  0  0
   -9.8807    0.0530  -20.4618 H   0  0  0  0  0  0  0  0  0  0  0  0
  -10.6216    1.8017  -21.6968 H   0  0  0  0  0  0  0  0  0  0  0  0
   -8.9881    1.9351  -21.4694 H   0  0  0  0  0  0  0  0  0  0  0  0
   -9.6544    3.9559  -23.6886 H   0  0  0  0  0  0  0  0  0  0  0  0
   -7.4109    3.1391  -24.1478 H   0  0  0  0  0  0  0  0  0  0  0  0
  -10.2410    2.1868  -23.6120 H   0  0  0  0  0  0  0  0  0  0  0  0
   -7.0568    0.6661  -23.9712 H   0  0  0  0  0  0  0  0  0  0  0  0
   -6.7862    1.5625  -22.4749 H   0  0  0  0  0  0  0  0  0  0  0  0
  1  2  2  0
  2  3  1  0
  3  4  1  0
  4  5  2  0
  5  6  1  0
  6  7  2  0
  7  8  1  0
  8  9  2  0
  9 10  1  0
 10 11  2  0
 11 12  1  0
 12 13  2  0
 12 14  1  0
 11 15  1  0
 10 16  1  0
  9 17  1  0
  7 18  1  0
  5 19  1  0
  3 20  1  0
  3 21  1  0
  2 22  1  0
 22 23  1  0
 23 24  1  0
 24 25  1  0
 25 26  1  0
 26 27  1  0
 26 28  1  0
 26 29  1  0
 25 30  1  0
 30 31  1  0
 31 32  1  0
 31 33  1  0
 30 34  1  0
 30 35  1  0
 25 36  1  0
 24 37  1  0
 24 38  1  0
 23 39  1  0
 23 40  1  0
 13  4  1  0
 31 22  1  0
 13  8  1  0
M  END
>  <cnnaffinities>  (34) 
[4.47386]

>  <score>  (34) 
4.47386

>  <index>  (34) 
35

>  <Smiles>  (34) 
O=C(C(c1c(nc(c2c(c(c(c(c12)[H])[H])[H])[H])[H])[H])([H])[H])N1C(C(C(C(F)(F)F)(C(C1([H])[H])([H])[H])[H])([H])[H])([H])[H]

>  <h>  (34) 
<NA>

>  <Training>  (34) 
True

>  <Success>  (34) 
True

>  <enamine_searched>  (34) 
False

>  <enamine_id>  (34) 
nan

$$$$

     RDKit          3D

 47 50  0  0  0  0  0  0  0  0999 V2000
   -8.7589    0.5831  -21.2726 O   0  0  0  0  0  0  0  0  0  0  0  0
   -8.4654   -0.4293  -21.8908 C   0  0  0  0  0  0  0  0  0  0  0  0
   -7.4553   -1.4124  -21.2962 C   0  0  0  0  0  0  0  0  0  0  0  0
   -6.6388   -0.7955  -20.1961 C   0  0  0  0  0  0  0  0  0  0  0  0
   -6.9217   -1.0467  -18.8779 C   0  0  0  0  0  0  0  0  0  0  0  0
   -6.2205   -0.5832  -17.8083 N   0  0  0  0  0  0  0  0  0  0  0  0
   -5.2092    0.2101  -18.0686 C   0  0  0  0  0  0  0  0  0  0  0  0
   -4.8164    0.5947  -19.3832 C   0  0  0  0  0  0  0  0  0  0  0  0
   -3.6831    1.4133  -19.6138 C   0  0  0  0  0  0  0  0  0  0  0  0
   -3.3793    1.8397  -20.8787 C   0  0  0  0  0  0  0  0  0  0  0  0
   -4.1926    1.4377  -21.9743 C   0  0  0  0  0  0  0  0  0  0  0  0
   -5.1842    0.5052  -21.7923 C   0  0  0  0  0  0  0  0  0  0  0  0
   -5.5527    0.0898  -20.4829 C   0  0  0  0  0  0  0  0  0  0  0  0
   -5.7133    0.1019  -22.6594 H   0  0  0  0  0  0  0  0  0  0  0  0
   -3.9885    1.8369  -22.9639 H   0  0  0  0  0  0  0  0  0  0  0  0
   -2.5308    2.4953  -21.0570 H   0  0  0  0  0  0  0  0  0  0  0  0
   -3.0823    1.7079  -18.7556 H   0  0  0  0  0  0  0  0  0  0  0  0
   -4.6339    0.5836  -17.2175 H   0  0  0  0  0  0  0  0  0  0  0  0
   -7.7641   -1.6869  -18.6200 H   0  0  0  0  0  0  0  0  0  0  0  0
   -6.8107   -1.8287  -22.0757 H   0  0  0  0  0  0  0  0  0  0  0  0
   -8.0418   -2.2527  -20.8967 H   0  0  0  0  0  0  0  0  0  0  0  0
   -9.0758   -0.7547  -23.0810 N   0  0  0  0  0  0  0  0  0  0  0  0
  -10.0634    0.2313  -23.5154 C   0  0  0  0  0  0  0  0  0  0  0  0
  -11.0468   -0.3017  -24.5400 C   0  0  0  0  0  0  0  0  0  0  0  0
  -10.3140   -0.9930  -25.6848 C   0  0  0  0  0  0  0  0  0  0  0  0
   -9.5151   -2.1563  -25.0984 C   0  0  0  0  0  0  0  0  0  0  0  0
   -8.5069   -1.7310  -24.0182 C   0  0  1  0  0  0  0  0  0  0  0  0
   -7.1754   -1.2918  -24.6355 C   0  0  0  0  0  0  0  0  0  0  0  0
   -6.9618   -0.0027  -25.1226 C   0  0  0  0  0  0  0  0  0  0  0  0
   -5.7465    0.3403  -25.7102 C   0  0  0  0  0  0  0  0  0  0  0  0
   -4.7236   -0.6009  -25.8125 C   0  0  0  0  0  0  0  0  0  0  0  0
   -4.9314   -1.8954  -25.3446 C   0  0  0  0  0  0  0  0  0  0  0  0
   -6.1527   -2.2344  -24.7713 C   0  0  0  0  0  0  0  0  0  0  0  0
   -6.3108   -3.2536  -24.4181 H   0  0  0  0  0  0  0  0  0  0  0  0
   -4.1439   -2.6418  -25.4228 H   0  0  0  0  0  0  0  0  0  0  0  0
   -3.7691   -0.3318  -26.2571 H   0  0  0  0  0  0  0  0  0  0  0  0
   -5.6017    1.3479  -26.0946 H   0  0  0  0  0  0  0  0  0  0  0  0
   -7.7437    0.7526  -25.0576 H   0  0  0  0  0  0  0  0  0  0  0  0
   -8.2873   -2.6363  -23.4351 H   0  0  0  0  0  0  0  0  0  0  0  0
  -10.2229   -2.8575  -24.6427 H   0  0  0  0  0  0  0  0  0  0  0  0
   -8.9652   -2.7099  -25.8689 H   0  0  0  0  0  0  0  0  0  0  0  0
   -9.6492   -0.2926  -26.2076 H   0  0  0  0  0  0  0  0  0  0  0  0
  -11.0239   -1.3622  -26.4329 H   0  0  0  0  0  0  0  0  0  0  0  0
  -11.6799    0.5293  -24.8771 H   0  0  0  0  0  0  0  0  0  0  0  0
  -11.7160   -1.0271  -24.0626 H   0  0  0  0  0  0  0  0  0  0  0  0
  -10.5811    0.5562  -22.6108 H   0  0  0  0  0  0  0  0  0  0  0  0
   -9.5470    1.1166  -23.9118 H   0  0  0  0  0  0  0  0  0  0  0  0
  1  2  2  0
  2  3  1  0
  3  4  1  0
  4  5  2  0
  5  6  1  0
  6  7  2  0
  7  8  1  0
  8  9  2  0
  9 10  1  0
 10 11  2  0
 11 12  1  0
 12 13  2  0
 12 14  1  0
 11 15  1  0
 10 16  1  0
  9 17  1  0
  7 18  1  0
  5 19  1  0
  3 20  1  0
  3 21  1  0
  2 22  1  0
 22 23  1  0
 23 24  1  0
 24 25  1  0
 25 26  1  0
 26 27  1  0
 27 28  1  0
 28 29  2  0
 29 30  1  0
 30 31  2  0
 31 32  1  0
 32 33  2  0
 33 34  1  0
 32 35  1  0
 31 36  1  0
 30 37  1  0
 29 38  1  0
 27 39  1  1
 26 40  1  0
 26 41  1  0
 25 42  1  0
 25 43  1  0
 24 44  1  0
 24 45  1  0
 23 46  1  0
 23 47  1  0
 13  4  1  0
 27 22  1  0
 33 28  1  0
 13  8  1  0
M  END
>  <cnnaffinities>  (35) 
[4.86312, 4.86302]

>  <score>  (35) 
4.86312

>  <index>  (35) 
36

>  <Smiles>  (35) 
O=C(C(c1c(nc(c2c(c(c(c(c12)[H])[H])[H])[H])[H])[H])([H])[H])N1C(C(C(C([C@]1(c1c(c(c(c(c1[H])[H])[H])[H])[H])[H])([H])[H])([H])[H])([H])[H])([H])[H]

>  <h>  (35) 
<NA>

>  <Training>  (35) 
True

>  <Success>  (35) 
True

>  <enamine_searched>  (35) 
False

>  <enamine_id>  (35) 
nan

$$$$

     RDKit          3D

 56 60  0  0  0  0  0  0  0  0999 V2000
   -7.9837   -5.9997  -26.9853 C   0  0  0  0  0  0  0  0  0  0  0  0
   -8.2890   -4.5909  -27.0905 N   0  0  0  0  0  0  0  0  0  0  0  0
   -7.3497   -3.6780  -26.7488 C   0  0  0  0  0  0  0  0  0  0  0  0
   -6.2279   -3.9996  -26.3849 O   0  0  0  0  0  0  0  0  0  0  0  0
   -7.7986   -2.2183  -26.7947 C   0  0  0  0  0  0  0  0  0  0  0  0
   -8.6323   -1.8580  -25.6653 N   0  0  0  0  0  0  0  0  0  0  0  0
   -7.9820   -1.3097  -24.4854 C   0  0  0  0  0  0  0  0  0  0  0  0
   -8.7390   -1.5708  -23.1731 C   0  0  2  0  0  0  0  0  0  0  0  0
   -8.1322   -0.6383  -22.1064 C   0  0  0  0  0  0  0  0  0  0  0  0
   -8.2251    0.5711  -22.0547 O   0  0  0  0  0  0  0  0  0  0  0  0
   -7.4268   -1.3859  -21.1942 N   0  0  0  0  0  0  0  0  0  0  0  0
   -6.6469   -0.7893  -20.1756 C   0  0  0  0  0  0  0  0  0  0  0  0
   -6.9142   -1.0859  -18.8603 C   0  0  0  0  0  0  0  0  0  0  0  0
   -6.2101   -0.6078  -17.8043 N   0  0  0  0  0  0  0  0  0  0  0  0
   -5.2123    0.2026  -18.0676 C   0  0  0  0  0  0  0  0  0  0  0  0
   -4.8196    0.5794  -19.3865 C   0  0  0  0  0  0  0  0  0  0  0  0
   -3.6846    1.4046  -19.6158 C   0  0  0  0  0  0  0  0  0  0  0  0
   -3.3812    1.8406  -20.8745 C   0  0  0  0  0  0  0  0  0  0  0  0
   -4.1679    1.4200  -21.9749 C   0  0  0  0  0  0  0  0  0  0  0  0
   -5.1691    0.4963  -21.7967 C   0  0  0  0  0  0  0  0  0  0  0  0
   -5.5571    0.0883  -20.4853 C   0  0  0  0  0  0  0  0  0  0  0  0
   -5.6553    0.0663  -22.6668 H   0  0  0  0  0  0  0  0  0  0  0  0
   -3.9681    1.8198  -22.9687 H   0  0  0  0  0  0  0  0  0  0  0  0
   -2.5239    2.4920  -21.0496 H   0  0  0  0  0  0  0  0  0  0  0  0
   -3.0867    1.6995  -18.7587 H   0  0  0  0  0  0  0  0  0  0  0  0
   -4.6340    0.5793  -17.2186 H   0  0  0  0  0  0  0  0  0  0  0  0
   -7.7620   -1.7269  -18.6128 H   0  0  0  0  0  0  0  0  0  0  0  0
   -7.4055   -2.8045  -21.4923 C   0  0  0  0  0  0  0  0  0  0  0  0
   -8.5352   -2.9787  -22.5173 C   0  0  2  0  0  0  0  0  0  0  0  0
   -8.3066   -4.1317  -23.4823 C   0  0  0  0  0  0  0  0  0  0  0  0
   -8.2604   -5.0863  -22.9520 H   0  0  0  0  0  0  0  0  0  0  0  0
   -9.1176   -4.1925  -24.2147 H   0  0  0  0  0  0  0  0  0  0  0  0
   -7.3630   -4.0181  -24.0264 H   0  0  0  0  0  0  0  0  0  0  0  0
   -9.4607   -3.1699  -21.9554 H   0  0  0  0  0  0  0  0  0  0  0  0
   -6.4308   -3.0982  -21.9077 H   0  0  0  0  0  0  0  0  0  0  0  0
   -7.5733   -3.3894  -20.5830 H   0  0  0  0  0  0  0  0  0  0  0  0
  -10.1989   -1.2752  -23.4312 C   0  0  0  0  0  0  0  0  0  0  0  0
  -11.0179   -0.9458  -22.3554 C   0  0  0  0  0  0  0  0  0  0  0  0
  -12.3755   -0.7322  -22.5368 C   0  0  0  0  0  0  0  0  0  0  0  0
  -12.9509   -0.8782  -23.8023 C   0  0  0  0  0  0  0  0  0  0  0  0
  -12.1592   -1.2411  -24.8780 C   0  0  0  0  0  0  0  0  0  0  0  0
  -10.7909   -1.4277  -24.6877 C   0  0  0  0  0  0  0  0  0  0  0  0
   -9.9824   -1.8633  -25.8558 C   0  0  0  0  0  0  0  0  0  0  0  0
  -10.4944   -2.2272  -26.9099 O   0  0  0  0  0  0  0  0  0  0  0  0
  -12.5645   -1.3963  -25.8760 H   0  0  0  0  0  0  0  0  0  0  0  0
  -14.0195   -0.7228  -23.9255 H   0  0  0  0  0  0  0  0  0  0  0  0
  -12.9982   -0.4610  -21.6895 H   0  0  0  0  0  0  0  0  0  0  0  0
  -10.5553   -0.8772  -21.3754 H   0  0  0  0  0  0  0  0  0  0  0  0
   -7.8776   -0.2218  -24.5775 H   0  0  0  0  0  0  0  0  0  0  0  0
   -6.9830   -1.7474  -24.4453 H   0  0  0  0  0  0  0  0  0  0  0  0
   -6.8977   -1.6024  -26.7975 H   0  0  0  0  0  0  0  0  0  0  0  0
   -8.3947   -2.0498  -27.6928 H   0  0  0  0  0  0  0  0  0  0  0  0
   -9.2064   -4.2911  -27.3750 H   0  0  0  0  0  0  0  0  0  0  0  0
   -8.8552   -6.6006  -27.2454 H   0  0  0  0  0  0  0  0  0  0  0  0
   -7.1561   -6.2660  -27.6425 H   0  0  0  0  0  0  0  0  0  0  0  0
   -7.6704   -6.2408  -25.9679 H   0  0  0  0  0  0  0  0  0  0  0  0
  1  2  1  0
  2  3  1  0
  3  4  2  0
  3  5  1  0
  5  6  1  0
  6  7  1  0
  8  7  1  6
  8  9  1  0
  9 10  2  0
  9 11  1  0
 11 12  1  0
 12 13  2  0
 13 14  1  0
 14 15  2  0
 15 16  1  0
 16 17  2  0
 17 18  1  0
 18 19  2  0
 19 20  1  0
 20 21  2  0
 20 22  1  0
 19 23  1  0
 18 24  1  0
 17 25  1  0
 15 26  1  0
 13 27  1  0
 11 28  1  0
 28 29  1  0
 29 30  1  0
 30 31  1  0
 30 32  1  0
 30 33  1  0
 29 34  1  1
 28 35  1  0
 28 36  1  0
  8 37  1  0
 37 38  2  0
 38 39  1  0
 39 40  2  0
 40 41  1  0
 41 42  2  0
 42 43  1  0
 43 44  2  0
 41 45  1  0
 40 46  1  0
 39 47  1  0
 38 48  1  0
  7 49  1  0
  7 50  1  0
  5 51  1  0
  5 52  1  0
  2 53  1  0
  1 54  1  0
  1 55  1  0
  1 56  1  0
 43  6  1  0
 29  8  1  0
 42 37  1  0
 21 12  1  0
 21 16  1  0
M  END
>  <cnnaffinities>  (36) 
[5.50433, 5.51925, 5.77911]

>  <score>  (36) 
5.50433

>  <index>  (36) 
37

>  <Smiles>  (36) 
C(N(C(=O)C(N1C([C@@]2(C(=O)N(c3c(nc(c4c(c(c(c(c34)[H])[H])[H])[H])[H])[H])C([C@@]2(C([H])([H])[H])[H])([H])[H])c2c(c(c(c(c2C1=O)[H])[H])[H])[H])([H])[H])([H])[H])[H])([H])([H])[H]

>  <h>  (36) 
<NA>

>  <Training>  (36) 
True

>  <Success>  (36) 
True

>  <enamine_searched>  (36) 
False

>  <enamine_id>  (36) 
nan

$$$$

     RDKit          3D

 46 48  0  0  0  0  0  0  0  0999 V2000
   -8.1364   -4.6672  -26.5130 C   0  0  0  0  0  0  0  0  0  0  0  0
   -8.6358   -4.9378  -25.0907 C   0  0  1  0  0  0  0  0  0  0  0  0
   -7.5619   -5.5034  -24.1564 C   0  0  0  0  0  0  0  0  0  0  0  0
   -6.5929   -4.4900  -23.5438 C   0  0  1  0  0  0  0  0  0  0  0  0
   -5.4165   -4.1164  -24.4450 C   0  0  0  0  0  0  0  0  0  0  0  0
   -4.6198   -3.6670  -23.8469 H   0  0  0  0  0  0  0  0  0  0  0  0
   -5.6874   -3.3990  -25.2232 H   0  0  0  0  0  0  0  0  0  0  0  0
   -5.0321   -5.0261  -24.9204 H   0  0  0  0  0  0  0  0  0  0  0  0
   -7.2986   -3.3202  -22.9992 N   0  0  0  0  0  0  0  0  0  0  0  0
   -6.6885   -2.7195  -21.9150 C   0  0  0  0  0  0  0  0  0  0  0  0
   -5.6515   -3.1483  -21.4378 O   0  0  0  0  0  0  0  0  0  0  0  0
   -7.3935   -1.5078  -21.2822 C   0  0  0  0  0  0  0  0  0  0  0  0
   -6.6070   -0.8454  -20.1868 C   0  0  0  0  0  0  0  0  0  0  0  0
   -6.8952   -1.0970  -18.8703 C   0  0  0  0  0  0  0  0  0  0  0  0
   -6.2098   -0.6115  -17.7996 N   0  0  0  0  0  0  0  0  0  0  0  0
   -5.2057    0.1934  -18.0575 C   0  0  0  0  0  0  0  0  0  0  0  0
   -4.7975    0.5591  -19.3725 C   0  0  0  0  0  0  0  0  0  0  0  0
   -3.6806    1.4044  -19.6081 C   0  0  0  0  0  0  0  0  0  0  0  0
   -3.3954    1.8491  -20.8701 C   0  0  0  0  0  0  0  0  0  0  0  0
   -4.1881    1.4208  -21.9624 C   0  0  0  0  0  0  0  0  0  0  0  0
   -5.1824    0.4884  -21.7773 C   0  0  0  0  0  0  0  0  0  0  0  0
   -5.5306    0.0492  -20.4712 C   0  0  0  0  0  0  0  0  0  0  0  0
   -5.7112    0.0834  -22.6361 H   0  0  0  0  0  0  0  0  0  0  0  0
   -4.0224    1.8569  -22.9466 H   0  0  0  0  0  0  0  0  0  0  0  0
   -2.5600    2.5249  -21.0469 H   0  0  0  0  0  0  0  0  0  0  0  0
   -3.0807    1.7153  -18.7545 H   0  0  0  0  0  0  0  0  0  0  0  0
   -4.6448    0.5821  -17.2048 H   0  0  0  0  0  0  0  0  0  0  0  0
   -7.7430   -1.7331  -18.6182 H   0  0  0  0  0  0  0  0  0  0  0  0
   -7.6272   -0.7895  -22.0743 H   0  0  0  0  0  0  0  0  0  0  0  0
   -8.3527   -1.8657  -20.8821 H   0  0  0  0  0  0  0  0  0  0  0  0
   -8.3981   -2.7009  -23.7644 C   0  0  1  0  0  0  0  0  0  0  0  0
   -7.9325   -1.6658  -24.7917 C   0  0  0  0  0  0  0  0  0  0  0  0
   -7.4469   -2.1294  -25.6534 H   0  0  0  0  0  0  0  0  0  0  0  0
   -8.8032   -1.1130  -25.1647 H   0  0  0  0  0  0  0  0  0  0  0  0
   -7.2245   -0.9514  -24.3616 H   0  0  0  0  0  0  0  0  0  0  0  0
   -9.3242   -3.7572  -24.3932 C   0  0  0  0  0  0  0  0  0  0  0  0
   -9.9597   -4.1577  -23.5967 H   0  0  0  0  0  0  0  0  0  0  0  0
  -10.0060   -3.2485  -25.0908 H   0  0  0  0  0  0  0  0  0  0  0  0
   -9.0175   -2.1681  -23.0339 H   0  0  0  0  0  0  0  0  0  0  0  0
   -6.1585   -4.9799  -22.6696 H   0  0  0  0  0  0  0  0  0  0  0  0
   -8.0439   -6.0129  -23.3175 H   0  0  0  0  0  0  0  0  0  0  0  0
   -6.9689   -6.2698  -24.6745 H   0  0  0  0  0  0  0  0  0  0  0  0
   -9.4049   -5.7149  -25.2011 H   0  0  0  0  0  0  0  0  0  0  0  0
   -7.8969   -5.6117  -27.0155 H   0  0  0  0  0  0  0  0  0  0  0  0
   -8.9075   -4.1683  -27.1111 H   0  0  0  0  0  0  0  0  0  0  0  0
   -7.2322   -4.0549  -26.5531 H   0  0  0  0  0  0  0  0  0  0  0  0
  1  2  1  0
  2  3  1  0
  3  4  1  0
  4  5  1  0
  5  6  1  0
  5  7  1  0
  5  8  1  0
  4  9  1  0
  9 10  1  0
 10 11  2  0
 10 12  1  0
 12 13  1  0
 13 14  2  0
 14 15  1  0
 15 16  2  0
 16 17  1  0
 17 18  2  0
 18 19  1  0
 19 20  2  0
 20 21  1  0
 21 22  2  0
 21 23  1  0
 20 24  1  0
 19 25  1  0
 18 26  1  0
 16 27  1  0
 14 28  1  0
 12 29  1  0
 12 30  1  0
  9 31  1  0
 31 32  1  0
 32 33  1  0
 32 34  1  0
 32 35  1  0
 31 36  1  0
 36 37  1  0
 36 38  1  0
 31 39  1  1
  4 40  1  1
  3 41  1  0
  3 42  1  0
  2 43  1  6
  1 44  1  0
  1 45  1  0
  1 46  1  0
 36  2  1  0
 22 13  1  0
 22 17  1  0
M  END
>  <cnnaffinities>  (37) 
[4.8403, 4.91063]

>  <score>  (37) 
4.8403

>  <index>  (37) 
38

>  <Smiles>  (37) 
C([C@]1(C([C@@](C([H])([H])[H])(N(C(=O)C(c2c(nc(c3c(c(c(c(c23)[H])[H])[H])[H])[H])[H])([H])[H])[C@@](C([H])([H])[H])(C1([H])[H])[H])[H])([H])[H])[H])([H])([H])[H]

>  <h>  (37) 
<NA>

>  <Training>  (37) 
True

>  <Success>  (37) 
True

>  <enamine_searched>  (37) 
False

>  <enamine_id>  (37) 
nan

$$$$

     RDKit          3D

 40 44  0  0  0  0  0  0  0  0999 V2000
  -10.6068   -0.6393  -25.9962 C   0  0  0  0  0  0  0  0  0  0  0  0
  -10.5939   -2.1014  -25.6094 C   0  0  0  0  0  0  0  0  0  0  0  0
  -10.5957   -3.0081  -26.4246 O   0  0  0  0  0  0  0  0  0  0  0  0
  -10.5696   -2.3652  -24.2761 N   0  0  0  0  0  0  0  0  0  0  0  0
  -10.3459   -3.7365  -23.7859 C   0  0  0  0  0  0  0  0  0  0  0  0
  -10.0194   -3.4653  -22.3083 C   0  0  2  0  0  0  0  0  0  0  0  0
  -11.0089   -2.3170  -22.0077 C   0  0  0  0  0  0  0  0  0  0  0  0
  -10.4274   -1.4368  -23.1485 C   0  0  1  0  0  0  0  0  0  0  0  0
   -9.0207   -1.4355  -22.7165 C   0  0  0  0  0  0  0  0  0  0  0  0
   -8.1737   -0.5155  -22.0343 C   0  0  0  0  0  0  0  0  0  0  0  0
   -8.0954    0.6925  -22.0488 O   0  0  0  0  0  1  0  0  0  0  0  0
   -7.3778   -1.3599  -21.1921 N   0  0  0  0  0  0  0  0  0  0  0  0
   -6.5859   -0.8319  -20.1506 C   0  0  0  0  0  0  0  0  0  0  0  0
   -6.8879   -1.0952  -18.8342 C   0  0  0  0  0  0  0  0  0  0  0  0
   -6.1986   -0.5897  -17.7806 N   0  0  0  0  0  0  0  0  0  0  0  0
   -5.1898    0.2049  -18.0520 C   0  0  0  0  0  0  0  0  0  0  0  0
   -4.7857    0.5667  -19.3719 C   0  0  0  0  0  0  0  0  0  0  0  0
   -3.6630    1.4051  -19.6090 C   0  0  0  0  0  0  0  0  0  0  0  0
   -3.3735    1.8397  -20.8737 C   0  0  0  0  0  0  0  0  0  0  0  0
   -4.1758    1.4291  -21.9675 C   0  0  0  0  0  0  0  0  0  0  0  0
   -5.1433    0.4657  -21.7797 C   0  0  0  0  0  0  0  0  0  0  0  0
   -5.5081    0.0516  -20.4653 C   0  0  0  0  0  0  0  0  0  0  0  0
   -5.6309    0.0238  -22.6423 H   0  0  0  0  0  0  0  0  0  0  0  0
   -3.9857    1.8226  -22.9610 H   0  0  0  0  0  0  0  0  0  0  0  0
   -2.5105    2.4785  -21.0571 H   0  0  0  0  0  0  0  0  0  0  0  0
   -3.0671    1.7066  -18.7537 H   0  0  0  0  0  0  0  0  0  0  0  0
   -4.6301    0.6012  -17.2029 H   0  0  0  0  0  0  0  0  0  0  0  0
   -7.7406   -1.7231  -18.5803 H   0  0  0  0  0  0  0  0  0  0  0  0
   -7.8042   -2.7010  -21.2483 C   0  0  0  0  0  0  0  0  0  0  0  0
   -7.4295   -3.6159  -20.5512 O   0  0  0  0  0  0  0  0  0  0  0  0
   -8.7374   -2.7180  -22.2749 N   0  0  0  0  0  0  0  0  0  0  0  0
  -10.8576   -0.4558  -23.3436 H   0  0  0  0  0  0  0  0  0  0  0  0
  -10.8116   -1.8864  -21.0282 H   0  0  0  0  0  0  0  0  0  0  0  0
  -12.0637   -2.5667  -22.1384 H   0  0  0  0  0  0  0  0  0  0  0  0
   -9.9708   -4.3035  -21.6275 H   0  0  0  0  0  0  0  0  0  0  0  0
   -9.5384   -4.2034  -24.3524 H   0  0  0  0  0  0  0  0  0  0  0  0
  -11.2520   -4.3403  -23.9168 H   0  0  0  0  0  0  0  0  0  0  0  0
  -11.4889   -0.1267  -25.6015 H   0  0  0  0  0  0  0  0  0  0  0  0
   -9.7297   -0.1276  -25.5910 H   0  0  0  0  0  0  0  0  0  0  0  0
  -10.5936   -0.5876  -27.0820 H   0  0  0  0  0  0  0  0  0  0  0  0
  1  2  1  0
  2  3  2  0
  2  4  1  0
  4  5  1  0
  5  6  1  0
  6  7  1  0
  7  8  1  0
  8  9  1  0
  9 10  2  0
 10 11  1  0
 10 12  1  0
 12 13  1  0
 13 14  2  0
 14 15  1  0
 15 16  2  0
 16 17  1  0
 17 18  2  0
 18 19  1  0
 19 20  2  0
 20 21  1  0
 21 22  2  0
 21 23  1  0
 20 24  1  0
 19 25  1  0
 18 26  1  0
 16 27  1  0
 14 28  1  0
 12 29  1  0
 29 30  2  0
 29 31  1  0
  8 32  1  6
  7 33  1  0
  7 34  1  0
  6 35  1  1
  5 36  1  0
  5 37  1  0
  1 38  1  0
  1 39  1  0
  1 40  1  0
  8  4  1  0
 31  9  1  0
 31  6  1  0
 22 13  1  0
 22 17  1  0
M  CHG  1  11  -1
M  END
>  <cnnaffinities>  (38) 
[4.9441, 4.98751, 5.00118, 5.06303]

>  <score>  (38) 
4.9441

>  <index>  (38) 
39

>  <Smiles>  (38) 
C(C(=O)N1C([C@@]2(C([C@]1(c1c([O-])n(c3c(nc(c4c(c(c(c(c34)[H])[H])[H])[H])[H])[H])c(=O)n21)[H])([H])[H])[H])([H])[H])([H])([H])[H]

>  <h>  (38) 
<NA>

>  <Training>  (38) 
True

>  <Success>  (38) 
True

>  <enamine_searched>  (38) 
False

>  <enamine_id>  (38) 
nan

$$$$

     RDKit          3D

 40 42  0  0  0  0  0  0  0  0999 V2000
  -12.8795   -1.7663  -25.2540 C   0  0  0  0  0  0  0  0  0  0  0  0
  -11.9790   -1.7098  -24.0241 C   0  0  0  0  0  0  0  0  0  0  0  0
  -10.6513   -2.4583  -24.1906 C   0  0  0  0  0  0  0  0  0  0  0  0
   -9.7760   -2.3445  -22.9324 C   0  0  0  0  0  0  0  0  0  0  0  0
   -9.5525   -0.9381  -22.5743 N   0  0  0  0  0  0  0  0  0  0  0  0
   -8.5566   -0.4760  -21.7343 C   0  0  0  0  0  0  0  0  0  0  0  0
   -8.5695    0.6775  -21.3310 O   0  0  0  0  0  0  0  0  0  0  0  0
   -7.4619   -1.4426  -21.2726 C   0  0  0  0  0  0  0  0  0  0  0  0
   -6.6327   -0.8259  -20.1858 C   0  0  0  0  0  0  0  0  0  0  0  0
   -6.9252   -1.0887  -18.8746 C   0  0  0  0  0  0  0  0  0  0  0  0
   -6.2463   -0.6023  -17.8053 N   0  0  0  0  0  0  0  0  0  0  0  0
   -5.2251    0.1791  -18.0589 C   0  0  0  0  0  0  0  0  0  0  0  0
   -4.8235    0.5668  -19.3689 C   0  0  0  0  0  0  0  0  0  0  0  0
   -3.7367    1.4509  -19.5952 C   0  0  0  0  0  0  0  0  0  0  0  0
   -3.4959    1.9498  -20.8447 C   0  0  0  0  0  0  0  0  0  0  0  0
   -4.3015    1.5439  -21.9357 C   0  0  0  0  0  0  0  0  0  0  0  0
   -5.3150    0.6349  -21.7583 C   0  0  0  0  0  0  0  0  0  0  0  0
   -5.5935    0.1095  -20.4648 C   0  0  0  0  0  0  0  0  0  0  0  0
   -5.9162    0.3319  -22.6096 H   0  0  0  0  0  0  0  0  0  0  0  0
   -4.1178    1.9689  -22.9187 H   0  0  0  0  0  0  0  0  0  0  0  0
   -2.7018    2.6715  -21.0090 H   0  0  0  0  0  0  0  0  0  0  0  0
   -3.1296    1.7634  -18.7451 H   0  0  0  0  0  0  0  0  0  0  0  0
   -4.6654    0.5558  -17.2003 H   0  0  0  0  0  0  0  0  0  0  0  0
   -7.7538   -1.7532  -18.6285 H   0  0  0  0  0  0  0  0  0  0  0  0
   -6.8350   -1.7447  -22.1204 H   0  0  0  0  0  0  0  0  0  0  0  0
   -7.9596   -2.3424  -20.8854 H   0  0  0  0  0  0  0  0  0  0  0  0
  -10.8271   -0.2524  -22.3747 C   0  0  0  0  0  0  0  0  0  0  0  0
  -11.6728   -0.2673  -23.6240 C   0  0  0  0  0  0  0  0  0  0  0  0
  -12.6008    0.2958  -23.4469 H   0  0  0  0  0  0  0  0  0  0  0  0
  -11.1198    0.2434  -24.4240 H   0  0  0  0  0  0  0  0  0  0  0  0
  -11.3594   -0.8257  -21.5964 H   0  0  0  0  0  0  0  0  0  0  0  0
  -10.6224    0.7630  -22.0359 H   0  0  0  0  0  0  0  0  0  0  0  0
   -8.8293   -2.8586  -23.1077 H   0  0  0  0  0  0  0  0  0  0  0  0
  -10.2856   -2.8642  -22.0987 H   0  0  0  0  0  0  0  0  0  0  0  0
  -10.1005   -2.0489  -25.0496 H   0  0  0  0  0  0  0  0  0  0  0  0
  -10.8450   -3.5171  -24.4152 H   0  0  0  0  0  0  0  0  0  0  0  0
  -12.5272   -2.1887  -23.1935 H   0  0  0  0  0  0  0  0  0  0  0  0
  -12.4082   -1.2777  -26.1150 H   0  0  0  0  0  0  0  0  0  0  0  0
  -13.8253   -1.2485  -25.0557 H   0  0  0  0  0  0  0  0  0  0  0  0
  -13.1086   -2.8004  -25.5311 H   0  0  0  0  0  0  0  0  0  0  0  0
  1  2  1  0
  2  3  1  0
  3  4  1  0
  4  5  1  0
  5  6  1  0
  6  7  2  0
  6  8  1  0
  8  9  1  0
  9 10  2  0
 10 11  1  0
 11 12  2  0
 12 13  1  0
 13 14  2  0
 14 15  1  0
 15 16  2  0
 16 17  1  0
 17 18  2  0
 17 19  1  0
 16 20  1  0
 15 21  1  0
 14 22  1  0
 12 23  1  0
 10 24  1  0
  8 25  1  0
  8 26  1  0
  5 27  1  0
 27 28  1  0
 28 29  1  0
 28 30  1  0
 27 31  1  0
 27 32  1  0
  4 33  1  0
  4 34  1  0
  3 35  1  0
  3 36  1  0
  2 37  1  0
  1 38  1  0
  1 39  1  0
  1 40  1  0
 28  2  1  0
 18  9  1  0
 18 13  1  0
M  END
>  <cnnaffinities>  (39) 
[4.66972, 4.7108, 4.71095]

>  <score>  (39) 
4.66972

>  <index>  (39) 
40

>  <Smiles>  (39) 
C(C1(C(C(N(C(=O)C(c2c(nc(c3c(c(c(c(c23)[H])[H])[H])[H])[H])[H])([H])[H])C(C1([H])[H])([H])[H])([H])[H])([H])[H])[H])([H])([H])[H]

>  <h>  (39) 
<NA>

>  <Training>  (39) 
True

>  <Success>  (39) 
True

>  <enamine_searched>  (39) 
False

>  <enamine_id>  (39) 
nan

$$$$

     RDKit          3D

 67 71  0  0  0  0  0  0  0  0999 V2000
   -7.6730    2.9893  -21.9718 C   0  0  0  0  0  0  0  0  0  0  0  0
   -8.8343    2.5186  -22.7106 N   0  0  0  0  0  0  0  0  0  0  0  0
   -8.5629    1.7169  -23.7809 C   0  0  0  0  0  0  0  0  0  0  0  0
   -7.4131    1.4680  -24.1273 O   0  0  0  0  0  0  0  0  0  0  0  0
   -9.7413    1.1145  -24.5404 C   0  0  0  0  0  0  0  0  0  0  0  0
  -10.1551   -0.1074  -23.8859 N   0  0  0  0  0  0  0  0  0  0  0  0
   -9.2431   -1.2442  -23.8795 C   0  0  0  0  0  0  0  0  0  0  0  0
   -9.2888   -1.9850  -22.5161 C   0  0  2  0  0  0  0  0  0  0  0  0
   -8.6962   -1.0396  -21.4402 C   0  0  0  0  0  0  0  0  0  0  0  0
   -9.2324   -0.0615  -20.9599 O   0  0  0  0  0  0  0  0  0  0  0  0
   -7.4095   -1.4544  -21.1552 N   0  0  0  0  0  0  0  0  0  0  0  0
   -6.6367   -0.8307  -20.1452 C   0  0  0  0  0  0  0  0  0  0  0  0
   -6.9342   -1.0662  -18.8250 C   0  0  0  0  0  0  0  0  0  0  0  0
   -6.2260   -0.5768  -17.7813 N   0  0  0  0  0  0  0  0  0  0  0  0
   -5.1988    0.1909  -18.0579 C   0  0  0  0  0  0  0  0  0  0  0  0
   -4.7987    0.5422  -19.3792 C   0  0  0  0  0  0  0  0  0  0  0  0
   -3.7027    1.4131  -19.6213 C   0  0  0  0  0  0  0  0  0  0  0  0
   -3.4283    1.8508  -20.8880 C   0  0  0  0  0  0  0  0  0  0  0  0
   -4.2228    1.4245  -21.9739 C   0  0  0  0  0  0  0  0  0  0  0  0
   -5.2283    0.5013  -21.7800 C   0  0  0  0  0  0  0  0  0  0  0  0
   -5.5564    0.0485  -20.4692 C   0  0  0  0  0  0  0  0  0  0  0  0
   -5.8089    0.1721  -22.6367 H   0  0  0  0  0  0  0  0  0  0  0  0
   -4.0447    1.8369  -22.9633 H   0  0  0  0  0  0  0  0  0  0  0  0
   -2.6045    2.5382  -21.0612 H   0  0  0  0  0  0  0  0  0  0  0  0
   -3.1076    1.7377  -18.7714 H   0  0  0  0  0  0  0  0  0  0  0  0
   -4.6228    0.5764  -17.2151 H   0  0  0  0  0  0  0  0  0  0  0  0
   -7.7836   -1.6971  -18.5770 H   0  0  0  0  0  0  0  0  0  0  0  0
   -6.9627   -2.5755  -21.9590 C   0  0  0  0  0  0  0  0  0  0  0  0
   -8.2918   -3.1791  -22.4480 C   0  0  2  0  0  0  0  0  0  0  0  0
   -8.1861   -3.9816  -23.7443 C   0  0  0  0  0  0  0  0  0  0  0  0
   -7.2080   -5.4720  -23.5555 S   0  0  0  0  0  0  0  0  0  0  0  0
   -5.8147   -5.0847  -23.4098 O   0  0  0  0  0  0  0  0  0  0  0  0
   -7.8201   -6.3124  -22.5378 O   0  0  0  0  0  0  0  0  0  0  0  0
   -7.3889   -6.2269  -25.0297 N   0  0  0  0  0  0  0  0  0  0  0  0
   -8.5977   -6.9918  -25.3128 C   0  0  0  0  0  0  0  0  0  0  0  0
   -9.4927   -6.3739  -25.4979 H   0  0  0  0  0  0  0  0  0  0  0  0
   -8.4167   -7.5818  -26.2154 H   0  0  0  0  0  0  0  0  0  0  0  0
   -8.7878   -7.6834  -24.4892 H   0  0  0  0  0  0  0  0  0  0  0  0
   -6.7271   -5.6246  -26.1796 C   0  0  0  0  0  0  0  0  0  0  0  0
   -7.2785   -4.7770  -26.6189 H   0  0  0  0  0  0  0  0  0  0  0  0
   -6.6247   -6.3916  -26.9536 H   0  0  0  0  0  0  0  0  0  0  0  0
   -5.7287   -5.2991  -25.8803 H   0  0  0  0  0  0  0  0  0  0  0  0
   -9.1816   -4.2766  -24.0920 H   0  0  0  0  0  0  0  0  0  0  0  0
   -7.7085   -3.3888  -24.5316 H   0  0  0  0  0  0  0  0  0  0  0  0
   -8.6253   -3.8599  -21.6588 H   0  0  0  0  0  0  0  0  0  0  0  0
   -6.3409   -2.2473  -22.8064 H   0  0  0  0  0  0  0  0  0  0  0  0
   -6.3823   -3.2928  -21.3731 H   0  0  0  0  0  0  0  0  0  0  0  0
  -10.7537   -2.3253  -22.2688 C   0  0  0  0  0  0  0  0  0  0  0  0
  -11.1654   -3.4727  -21.5854 C   0  0  0  0  0  0  0  0  0  0  0  0
  -12.4978   -3.6369  -21.2572 C   0  0  0  0  0  0  0  0  0  0  0  0
  -12.8523   -4.6943  -20.5087 F   0  0  0  0  0  0  0  0  0  0  0  0
  -13.4899   -2.7419  -21.6287 C   0  0  0  0  0  0  0  0  0  0  0  0
  -13.1024   -1.6387  -22.3558 C   0  0  0  0  0  0  0  0  0  0  0  0
  -11.7613   -1.4336  -22.6698 C   0  0  0  0  0  0  0  0  0  0  0  0
  -11.4335   -0.1914  -23.4240 C   0  0  0  0  0  0  0  0  0  0  0  0
  -12.2642    0.6928  -23.6123 O   0  0  0  0  0  0  0  0  0  0  0  0
  -13.8153   -0.8952  -22.6911 H   0  0  0  0  0  0  0  0  0  0  0  0
  -14.5184   -2.9107  -21.3353 H   0  0  0  0  0  0  0  0  0  0  0  0
  -10.4706   -4.2283  -21.2485 H   0  0  0  0  0  0  0  0  0  0  0  0
   -9.5213   -1.9402  -24.6821 H   0  0  0  0  0  0  0  0  0  0  0  0
   -8.2335   -0.8731  -24.0846 H   0  0  0  0  0  0  0  0  0  0  0  0
   -9.4110    0.8884  -25.5606 H   0  0  0  0  0  0  0  0  0  0  0  0
  -10.6153    1.7727  -24.5872 H   0  0  0  0  0  0  0  0  0  0  0  0
   -9.6739    2.3660  -22.1605 H   0  0  0  0  0  0  0  0  0  0  0  0
   -7.9644    3.7010  -21.1982 H   0  0  0  0  0  0  0  0  0  0  0  0
   -7.1449    2.1371  -21.5205 H   0  0  0  0  0  0  0  0  0  0  0  0
   -7.0058    3.5129  -22.6619 H   0  0  0  0  0  0  0  0  0  0  0  0
  1  2  1  0
  2  3  1  0
  3  4  2  0
  3  5  1  0
  5  6  1  0
  6  7  1  0
  8  7  1  6
  8  9  1  0
  9 10  2  0
  9 11  1  0
 11 12  1  0
 12 13  2  0
 13 14  1  0
 14 15  2  0
 15 16  1  0
 16 17  2  0
 17 18  1  0
 18 19  2  0
 19 20  1  0
 20 21  2  0
 20 22  1  0
 19 23  1  0
 18 24  1  0
 17 25  1  0
 15 26  1  0
 13 27  1  0
 11 28  1  0
 28 29  1  0
 29 30  1  0
 30 31  1  0
 31 32  2  0
 31 33  2  0
 31 34  1  0
 34 35  1  0
 35 36  1  0
 35 37  1  0
 35 38  1  0
 34 39  1  0
 39 40  1  0
 39 41  1  0
 39 42  1  0
 30 43  1  0
 30 44  1  0
 29 45  1  1
 28 46  1  0
 28 47  1  0
  8 48  1  0
 48 49  2  0
 49 50  1  0
 50 51  1  0
 50 52  2  0
 52 53  1  0
 53 54  2  0
 54 55  1  0
 55 56  2  0
 53 57  1  0
 52 58  1  0
 49 59  1  0
  7 60  1  0
  7 61  1  0
  5 62  1  0
  5 63  1  0
  2 64  1  0
  1 65  1  0
  1 66  1  0
  1 67  1  0
 55  6  1  0
 29  8  1  0
 54 48  1  0
 21 12  1  0
 21 16  1  0
M  END
>  <cnnaffinities>  (40) 
[6.66215, 6.80708]

>  <score>  (40) 
6.66215

>  <index>  (40) 
41

>  <Smiles>  (40) 
C(N(C(=O)C(N1C([C@@]2(C(=O)N(c3c(nc(c4c(c(c(c(c34)[H])[H])[H])[H])[H])[H])C([C@@]2(C(S(=O)(=O)N(C([H])([H])[H])C([H])([H])[H])([H])[H])[H])([H])[H])c2c(c(F)c(c(c2C1=O)[H])[H])[H])([H])[H])([H])[H])[H])([H])([H])[H]

>  <h>  (40) 
<NA>

>  <Training>  (40) 
True

>  <Success>  (40) 
True

>  <enamine_searched>  (40) 
False

>  <enamine_id>  (40) 
nan

$$$$

     RDKit          3D

 67 72  0  0  0  0  0  0  0  0999 V2000
   -7.5572    3.1798  -21.9914 C   0  0  0  0  0  0  0  0  0  0  0  0
   -8.6865    2.6527  -22.7437 N   0  0  0  0  0  0  0  0  0  0  0  0
   -8.3941    1.8838  -23.8319 C   0  0  0  0  0  0  0  0  0  0  0  0
   -7.2414    1.6531  -24.1635 O   0  0  0  0  0  0  0  0  0  0  0  0
   -9.5468    1.2781  -24.6348 C   0  0  0  0  0  0  0  0  0  0  0  0
   -9.9887    0.0485  -24.0063 N   0  0  0  0  0  0  0  0  0  0  0  0
   -9.0867   -1.0943  -23.9763 C   0  0  0  0  0  0  0  0  0  0  0  0
   -9.2191   -1.8840  -22.6452 C   0  0  2  0  0  0  0  0  0  0  0  0
   -8.6672   -1.0013  -21.4989 C   0  0  0  0  0  0  0  0  0  0  0  0
   -9.2084   -0.0376  -20.9916 O   0  0  0  0  0  0  0  0  0  0  0  0
   -7.4058   -1.4506  -21.1718 N   0  0  0  0  0  0  0  0  0  0  0  0
   -6.6397   -0.8247  -20.1568 C   0  0  0  0  0  0  0  0  0  0  0  0
   -6.9393   -1.0667  -18.8384 C   0  0  0  0  0  0  0  0  0  0  0  0
   -6.2369   -0.5753  -17.7898 N   0  0  0  0  0  0  0  0  0  0  0  0
   -5.1944    0.1722  -18.0614 C   0  0  0  0  0  0  0  0  0  0  0  0
   -4.7945    0.5396  -19.3780 C   0  0  0  0  0  0  0  0  0  0  0  0
   -3.7140    1.4314  -19.6120 C   0  0  0  0  0  0  0  0  0  0  0  0
   -3.4406    1.8708  -20.8786 C   0  0  0  0  0  0  0  0  0  0  0  0
   -4.2415    1.4550  -21.9658 C   0  0  0  0  0  0  0  0  0  0  0  0
   -5.2442    0.5298  -21.7763 C   0  0  0  0  0  0  0  0  0  0  0  0
   -5.5614    0.0627  -20.4704 C   0  0  0  0  0  0  0  0  0  0  0  0
   -5.8472    0.2242  -22.6265 H   0  0  0  0  0  0  0  0  0  0  0  0
   -4.0540    1.8572  -22.9594 H   0  0  0  0  0  0  0  0  0  0  0  0
   -2.6348    2.5787  -21.0487 H   0  0  0  0  0  0  0  0  0  0  0  0
   -3.1209    1.7562  -18.7599 H   0  0  0  0  0  0  0  0  0  0  0  0
   -4.6346    0.5724  -17.2149 H   0  0  0  0  0  0  0  0  0  0  0  0
   -7.7856   -1.7020  -18.5894 H   0  0  0  0  0  0  0  0  0  0  0  0
   -6.9499   -2.5701  -21.9740 C   0  0  0  0  0  0  0  0  0  0  0  0
   -8.2550   -3.1022  -22.5943 C   0  0  2  0  0  0  0  0  0  0  0  0
   -8.0746   -3.8312  -23.9288 C   0  0  0  0  0  0  0  0  0  0  0  0
   -7.3763   -5.0768  -23.7473 N   0  0  0  0  0  0  0  0  0  0  0  0
   -6.9265   -5.8292  -24.8007 C   0  0  0  0  0  0  0  0  0  0  0  0
   -7.4275   -5.5107  -26.4343 S   0  0  0  0  0  0  0  0  0  0  0  0
   -6.4208   -6.8314  -26.9507 C   0  0  0  0  0  0  0  0  0  0  0  0
   -5.7925   -7.4466  -26.0064 N   0  0  0  0  0  0  0  0  0  0  0  0
   -6.0887   -6.9085  -24.7697 C   0  0  0  0  0  0  0  0  0  0  0  0
   -5.5380   -7.5610  -23.5383 C   0  0  0  0  0  0  0  0  0  0  0  0
   -5.0127   -8.4763  -23.8260 H   0  0  0  0  0  0  0  0  0  0  0  0
   -6.3436   -7.8309  -22.8434 H   0  0  0  0  0  0  0  0  0  0  0  0
   -4.8337   -6.9143  -22.9996 H   0  0  0  0  0  0  0  0  0  0  0  0
   -6.3569   -7.1049  -27.9977 H   0  0  0  0  0  0  0  0  0  0  0  0
   -6.9857   -5.2759  -22.8397 H   0  0  0  0  0  0  0  0  0  0  0  0
   -7.5157   -3.1932  -24.6323 H   0  0  0  0  0  0  0  0  0  0  0  0
   -9.0635   -4.0199  -24.3693 H   0  0  0  0  0  0  0  0  0  0  0  0
   -8.6620   -3.8210  -21.8762 H   0  0  0  0  0  0  0  0  0  0  0  0
   -6.4498   -3.3151  -21.3461 H   0  0  0  0  0  0  0  0  0  0  0  0
   -6.2296   -2.2475  -22.7432 H   0  0  0  0  0  0  0  0  0  0  0  0
  -10.6954   -2.1986  -22.4521 C   0  0  0  0  0  0  0  0  0  0  0  0
  -11.1381   -3.2865  -21.6878 C   0  0  0  0  0  0  0  0  0  0  0  0
  -12.4862   -3.4526  -21.4132 C   0  0  0  0  0  0  0  0  0  0  0  0
  -12.9861   -4.7386  -20.3474 Cl  0  0  0  0  0  0  0  0  0  0  0  0
  -13.4537   -2.5910  -21.9262 C   0  0  0  0  0  0  0  0  0  0  0  0
  -13.0293   -1.5304  -22.6983 C   0  0  0  0  0  0  0  0  0  0  0  0
  -11.6744   -1.3218  -22.9449 C   0  0  0  0  0  0  0  0  0  0  0  0
  -11.3130   -0.0880  -23.7093 C   0  0  0  0  0  0  0  0  0  0  0  0
  -12.1558    0.7428  -24.0346 O   0  0  0  0  0  0  0  0  0  0  0  0
  -13.7323   -0.8208  -23.1192 H   0  0  0  0  0  0  0  0  0  0  0  0
  -14.5055   -2.7426  -21.7053 H   0  0  0  0  0  0  0  0  0  0  0  0
  -10.4511   -3.9968  -21.2428 H   0  0  0  0  0  0  0  0  0  0  0  0
   -8.0653   -0.7219  -24.0965 H   0  0  0  0  0  0  0  0  0  0  0  0
   -9.3079   -1.7603  -24.8232 H   0  0  0  0  0  0  0  0  0  0  0  0
  -10.4129    1.9398  -24.6900 H   0  0  0  0  0  0  0  0  0  0  0  0
   -9.1990    1.0869  -25.6636 H   0  0  0  0  0  0  0  0  0  0  0  0
   -9.5454    2.4871  -22.2386 H   0  0  0  0  0  0  0  0  0  0  0  0
   -7.8917    3.9458  -21.2893 H   0  0  0  0  0  0  0  0  0  0  0  0
   -6.8392    3.6223  -22.6887 H   0  0  0  0  0  0  0  0  0  0  0  0
   -7.0632    2.3808  -21.4266 H   0  0  0  0  0  0  0  0  0  0  0  0
  1  2  1  0
  2  3  1  0
  3  4  2  0
  3  5  1  0
  5  6  1  0
  6  7  1  0
  8  7  1  6
  8  9  1  0
  9 10  2  0
  9 11  1  0
 11 12  1  0
 12 13  2  0
 13 14  1  0
 14 15  2  0
 15 16  1  0
 16 17  2  0
 17 18  1  0
 18 19  2  0
 19 20  1  0
 20 21  2  0
 20 22  1  0
 19 23  1  0
 18 24  1  0
 17 25  1  0
 15 26  1  0
 13 27  1  0
 11 28  1  0
 28 29  1  0
 29 30  1  0
 30 31  1  0
 31 32  1  0
 32 33  1  0
 33 34  1  0
 34 35  2  0
 35 36  1  0
 36 37  1  0
 37 38  1  0
 37 39  1  0
 37 40  1  0
 34 41  1  0
 31 42  1  0
 30 43  1  0
 30 44  1  0
 29 45  1  1
 28 46  1  0
 28 47  1  0
  8 48  1  0
 48 49  2  0
 49 50  1  0
 50 51  1  0
 50 52  2  0
 52 53  1  0
 53 54  2  0
 54 55  1  0
 55 56  2  0
 53 57  1  0
 52 58  1  0
 49 59  1  0
  7 60  1  0
  7 61  1  0
  5 62  1  0
  5 63  1  0
  2 64  1  0
  1 65  1  0
  1 66  1  0
  1 67  1  0
 55  6  1  0
 29  8  1  0
 36 32  2  0
 54 48  1  0
 21 12  1  0
 21 16  1  0
M  END
>  <cnnaffinities>  (41) 
[6.92252]

>  <score>  (41) 
6.92252

>  <index>  (41) 
43

>  <Smiles>  (41) 
C(N(C(=O)C(N1C([C@@]2(C(=O)N(c3c(nc(c4c(c(c(c(c34)[H])[H])[H])[H])[H])[H])C([C@@]2(C(N(c2sc(nc2C([H])([H])[H])[H])[H])([H])[H])[H])([H])[H])c2c(c(Cl)c(c(c2C1=O)[H])[H])[H])([H])[H])([H])[H])[H])([H])([H])[H]

>  <h>  (41) 
<NA>

>  <Training>  (41) 
True

>  <Success>  (41) 
True

>  <enamine_searched>  (41) 
False

>  <enamine_id>  (41) 
nan

$$$$

     RDKit          3D

 60 64  0  0  0  0  0  0  0  0999 V2000
   -7.3952    3.4042  -21.8473 C   0  0  0  0  0  0  0  0  0  0  0  0
   -8.2792    2.9558  -22.9028 N   0  0  0  0  0  0  0  0  0  0  0  0
   -7.7242    2.2232  -23.9045 C   0  0  0  0  0  0  0  0  0  0  0  0
   -6.5155    2.0804  -24.0116 O   0  0  0  0  0  0  0  0  0  0  0  0
   -8.6835    1.6002  -24.9099 C   0  0  0  0  0  0  0  0  0  0  0  0
   -9.3868    0.4585  -24.3719 N   0  0  0  0  0  0  0  0  0  0  0  0
   -8.6623   -0.7875  -24.1968 C   0  0  0  0  0  0  0  0  0  0  0  0
   -9.0501   -1.4999  -22.8846 C   0  0  2  0  0  0  0  0  0  0  0  0
   -8.5087   -0.7247  -21.6642 C   0  0  0  0  0  0  0  0  0  0  0  0
   -8.9454    0.2998  -21.1811 O   0  0  0  0  0  0  0  0  0  0  0  0
   -7.4077   -1.3855  -21.1792 N   0  0  0  0  0  0  0  0  0  0  0  0
   -6.6229   -0.8001  -20.1551 C   0  0  0  0  0  0  0  0  0  0  0  0
   -6.9260   -1.0568  -18.8422 C   0  0  0  0  0  0  0  0  0  0  0  0
   -6.2149   -0.5838  -17.7894 N   0  0  0  0  0  0  0  0  0  0  0  0
   -5.2007    0.2062  -18.0565 C   0  0  0  0  0  0  0  0  0  0  0  0
   -4.7987    0.5801  -19.3740 C   0  0  0  0  0  0  0  0  0  0  0  0
   -3.6682    1.4052  -19.6234 C   0  0  0  0  0  0  0  0  0  0  0  0
   -3.3681    1.8190  -20.8952 C   0  0  0  0  0  0  0  0  0  0  0  0
   -4.1742    1.4049  -21.9829 C   0  0  0  0  0  0  0  0  0  0  0  0
   -5.1691    0.4759  -21.7866 C   0  0  0  0  0  0  0  0  0  0  0  0
   -5.5319    0.0660  -20.4698 C   0  0  0  0  0  0  0  0  0  0  0  0
   -5.7063    0.0723  -22.6410 H   0  0  0  0  0  0  0  0  0  0  0  0
   -3.9841    1.7858  -22.9860 H   0  0  0  0  0  0  0  0  0  0  0  0
   -2.5077    2.4629  -21.0720 H   0  0  0  0  0  0  0  0  0  0  0  0
   -3.0787    1.7292  -18.7704 H   0  0  0  0  0  0  0  0  0  0  0  0
   -4.6217    0.5796  -17.2089 H   0  0  0  0  0  0  0  0  0  0  0  0
   -7.7887   -1.6760  -18.5999 H   0  0  0  0  0  0  0  0  0  0  0  0
   -7.0694   -2.5888  -21.9063 C   0  0  0  0  0  0  0  0  0  0  0  0
   -8.3257   -2.8720  -22.7390 C   0  0  2  0  0  0  0  0  0  0  0  0
   -7.9640   -3.6361  -24.0054 C   0  0  0  0  0  0  0  0  0  0  0  0
   -9.1270   -3.9278  -24.7344 O   0  0  0  0  0  0  0  0  0  0  0  0
   -8.8363   -4.5640  -25.9546 C   0  0  0  0  0  0  0  0  0  0  0  0
   -8.2334   -3.9254  -26.6216 H   0  0  0  0  0  0  0  0  0  0  0  0
   -8.3009   -5.5169  -25.8086 H   0  0  0  0  0  0  0  0  0  0  0  0
   -9.7877   -4.7648  -26.4399 H   0  0  0  0  0  0  0  0  0  0  0  0
   -7.2628   -3.0403  -24.6155 H   0  0  0  0  0  0  0  0  0  0  0  0
   -7.4412   -4.5728  -23.7409 H   0  0  0  0  0  0  0  0  0  0  0  0
   -9.0014   -3.5098  -22.1721 H   0  0  0  0  0  0  0  0  0  0  0  0
   -6.2071   -2.4290  -22.5723 H   0  0  0  0  0  0  0  0  0  0  0  0
   -6.8214   -3.4080  -21.2233 H   0  0  0  0  0  0  0  0  0  0  0  0
  -10.5648   -1.5506  -22.8282 C   0  0  0  0  0  0  0  0  0  0  0  0
  -11.2058   -2.4447  -21.9662 C   0  0  0  0  0  0  0  0  0  0  0  0
  -12.5857   -2.4547  -21.8788 C   0  0  0  0  0  0  0  0  0  0  0  0
  -13.3470   -3.5674  -20.7752 Cl  0  0  0  0  0  0  0  0  0  0  0  0
  -13.3775   -1.5821  -22.6290 C   0  0  0  0  0  0  0  0  0  0  0  0
  -12.7522   -0.6602  -23.4451 C   0  0  0  0  0  0  0  0  0  0  0  0
  -11.3612   -0.6253  -23.5197 C   0  0  0  0  0  0  0  0  0  0  0  0
  -10.7519    0.4977  -24.2940 C   0  0  0  0  0  0  0  0  0  0  0  0
  -11.4249    1.3924  -24.7867 O   0  0  0  0  0  0  0  0  0  0  0  0
  -13.3087    0.0735  -24.0223 H   0  0  0  0  0  0  0  0  0  0  0  0
  -14.4569   -1.6225  -22.5353 H   0  0  0  0  0  0  0  0  0  0  0  0
  -10.6336   -3.1217  -21.3406 H   0  0  0  0  0  0  0  0  0  0  0  0
   -8.8897   -1.4666  -25.0263 H   0  0  0  0  0  0  0  0  0  0  0  0
   -7.5931   -0.5583  -24.2036 H   0  0  0  0  0  0  0  0  0  0  0  0
   -9.4584    2.3106  -25.2045 H   0  0  0  0  0  0  0  0  0  0  0  0
   -8.0711    1.3093  -25.7691 H   0  0  0  0  0  0  0  0  0  0  0  0
   -9.2394    2.7868  -22.6560 H   0  0  0  0  0  0  0  0  0  0  0  0
   -6.6842    4.1291  -22.2377 H   0  0  0  0  0  0  0  0  0  0  0  0
   -6.8195    2.5632  -21.4556 H   0  0  0  0  0  0  0  0  0  0  0  0
   -7.9635    3.8582  -21.0383 H   0  0  0  0  0  0  0  0  0  0  0  0
  1  2  1  0
  2  3  1  0
  3  4  2  0
  3  5  1  0
  5  6  1  0
  6  7  1  0
  8  7  1  6
  8  9  1  0
  9 10  2  0
  9 11  1  0
 11 12  1  0
 12 13  2  0
 13 14  1  0
 14 15  2  0
 15 16  1  0
 16 17  2  0
 17 18  1  0
 18 19  2  0
 19 20  1  0
 20 21  2  0
 20 22  1  0
 19 23  1  0
 18 24  1  0
 17 25  1  0
 15 26  1  0
 13 27  1  0
 11 28  1  0
 28 29  1  0
 29 30  1  0
 30 31  1  0
 31 32  1  0
 32 33  1  0
 32 34  1  0
 32 35  1  0
 30 36  1  0
 30 37  1  0
 29 38  1  1
 28 39  1  0
 28 40  1  0
  8 41  1  0
 41 42  2  0
 42 43  1  0
 43 44  1  0
 43 45  2  0
 45 46  1  0
 46 47  2  0
 47 48  1  0
 48 49  2  0
 46 50  1  0
 45 51  1  0
 42 52  1  0
  7 53  1  0
  7 54  1  0
  5 55  1  0
  5 56  1  0
  2 57  1  0
  1 58  1  0
  1 59  1  0
  1 60  1  0
 48  6  1  0
 29  8  1  0
 47 41  1  0
 21 12  1  0
 21 16  1  0
M  END
>  <cnnaffinities>  (42) 
[5.696, 5.91731, 5.68841, 5.79334, 5.92834]

>  <score>  (42) 
5.696

>  <index>  (42) 
44

>  <Smiles>  (42) 
C(N(C(=O)C(N1C([C@@]2(C(=O)N(c3c(nc(c4c(c(c(c(c34)[H])[H])[H])[H])[H])[H])C([C@@]2(C(OC([H])([H])[H])([H])[H])[H])([H])[H])c2c(c(Cl)c(c(c2C1=O)[H])[H])[H])([H])[H])([H])[H])[H])([H])([H])[H]

>  <h>  (42) 
<NA>

>  <Training>  (42) 
True

>  <Success>  (42) 
True

>  <enamine_searched>  (42) 
False

>  <enamine_id>  (42) 
nan

$$$$

     RDKit          3D

 66 71  0  0  0  0  0  0  0  0999 V2000
   -6.9134    3.5386  -23.1491 C   0  0  0  0  0  0  0  0  0  0  0  0
   -7.8644    2.9497  -24.0713 N   0  0  0  0  0  0  0  0  0  0  0  0
   -7.4960    1.8566  -24.7823 C   0  0  0  0  0  0  0  0  0  0  0  0
   -6.3537    1.4064  -24.7715 O   0  0  0  0  0  0  0  0  0  0  0  0
   -8.6291    1.2045  -25.5794 C   0  0  0  0  0  0  0  0  0  0  0  0
   -9.3641    0.2827  -24.7322 N   0  0  0  0  0  0  0  0  0  0  0  0
   -8.7922   -1.0201  -24.4617 C   0  0  0  0  0  0  0  0  0  0  0  0
   -8.9740   -1.4886  -22.9975 C   0  0  2  0  0  0  0  0  0  0  0  0
   -8.2233   -0.5479  -22.0272 C   0  0  0  0  0  0  0  0  0  0  0  0
   -8.2922    0.6650  -21.9979 O   0  0  0  0  0  0  0  0  0  0  0  0
   -7.4518   -1.3099  -21.1784 N   0  0  0  0  0  0  0  0  0  0  0  0
   -6.6499   -0.7675  -20.1528 C   0  0  0  0  0  0  0  0  0  0  0  0
   -6.8846   -1.0997  -18.8424 C   0  0  0  0  0  0  0  0  0  0  0  0
   -6.1749   -0.6288  -17.7908 N   0  0  0  0  0  0  0  0  0  0  0  0
   -5.1765    0.1825  -18.0495 C   0  0  0  0  0  0  0  0  0  0  0  0
   -4.7999    0.5802  -19.3642 C   0  0  0  0  0  0  0  0  0  0  0  0
   -3.7194    1.4775  -19.5940 C   0  0  0  0  0  0  0  0  0  0  0  0
   -3.4767    1.9628  -20.8498 C   0  0  0  0  0  0  0  0  0  0  0  0
   -4.2634    1.5264  -21.9421 C   0  0  0  0  0  0  0  0  0  0  0  0
   -5.2571    0.5994  -21.7565 C   0  0  0  0  0  0  0  0  0  0  0  0
   -5.5720    0.1207  -20.4535 C   0  0  0  0  0  0  0  0  0  0  0  0
   -5.8370    0.2721  -22.6123 H   0  0  0  0  0  0  0  0  0  0  0  0
   -4.1071    1.9301  -22.9402 H   0  0  0  0  0  0  0  0  0  0  0  0
   -2.6833    2.6857  -21.0162 H   0  0  0  0  0  0  0  0  0  0  0  0
   -3.1260    1.8015  -18.7418 H   0  0  0  0  0  0  0  0  0  0  0  0
   -4.6119    0.5717  -17.2009 H   0  0  0  0  0  0  0  0  0  0  0  0
   -7.7005   -1.7764  -18.5955 H   0  0  0  0  0  0  0  0  0  0  0  0
   -7.7088   -2.7311  -21.3023 C   0  0  0  0  0  0  0  0  0  0  0  0
   -8.3167   -2.8776  -22.7149 C   0  0  2  0  0  0  0  0  0  0  0  0
   -7.2614   -3.3692  -23.7419 C   0  0  0  0  0  0  0  0  0  0  0  0
   -7.8158   -3.8854  -25.0599 C   0  0  0  0  0  0  0  0  0  0  0  0
   -7.3952   -3.4619  -26.3241 C   0  0  0  0  0  0  0  0  0  0  0  0
   -7.8106   -4.1435  -27.4686 C   0  0  0  0  0  0  0  0  0  0  0  0
   -8.6473   -5.2530  -27.3708 C   0  0  0  0  0  0  0  0  0  0  0  0
   -9.1594   -5.6150  -26.1234 C   0  0  0  0  0  0  0  0  0  0  0  0
   -8.7790   -4.8885  -25.0026 C   0  0  0  0  0  0  0  0  0  0  0  0
   -9.2188   -5.0704  -24.0332 H   0  0  0  0  0  0  0  0  0  0  0  0
   -9.8463   -6.4549  -26.0062 H   0  0  0  0  0  0  0  0  0  0  0  0
   -8.8993   -5.8049  -28.2743 H   0  0  0  0  0  0  0  0  0  0  0  0
   -7.4651   -3.8208  -28.4467 H   0  0  0  0  0  0  0  0  0  0  0  0
   -6.7807   -2.5671  -26.4160 H   0  0  0  0  0  0  0  0  0  0  0  0
   -6.7186   -4.2042  -23.2781 H   0  0  0  0  0  0  0  0  0  0  0  0
   -6.5098   -2.5958  -23.9230 H   0  0  0  0  0  0  0  0  0  0  0  0
   -9.0923   -3.6421  -22.6949 H   0  0  0  0  0  0  0  0  0  0  0  0
   -6.7687   -3.2713  -21.1687 H   0  0  0  0  0  0  0  0  0  0  0  0
   -8.4093   -3.0747  -20.5281 H   0  0  0  0  0  0  0  0  0  0  0  0
  -10.4813   -1.4166  -22.7393 C   0  0  0  0  0  0  0  0  0  0  0  0
  -11.1806   -2.3790  -21.9960 C   0  0  0  0  0  0  0  0  0  0  0  0
  -12.5495   -2.2700  -21.8157 C   0  0  0  0  0  0  0  0  0  0  0  0
  -13.4044   -3.5206  -20.9504 Cl  0  0  0  0  0  0  0  0  0  0  0  0
  -13.2584   -1.1789  -22.3161 C   0  0  0  0  0  0  0  0  0  0  0  0
  -12.5722   -0.2056  -23.0238 C   0  0  0  0  0  0  0  0  0  0  0  0
  -11.2028   -0.3311  -23.2690 C   0  0  0  0  0  0  0  0  0  0  0  0
  -10.5571    0.6636  -24.2018 C   0  0  0  0  0  0  0  0  0  0  0  0
  -11.0670    1.7462  -24.4670 O   0  0  0  0  0  0  0  0  0  0  0  0
  -13.1025    0.6512  -23.4329 H   0  0  0  0  0  0  0  0  0  0  0  0
  -14.3341   -1.1167  -22.1731 H   0  0  0  0  0  0  0  0  0  0  0  0
  -10.6829   -3.2403  -21.5680 H   0  0  0  0  0  0  0  0  0  0  0  0
   -7.7354   -0.9726  -24.7085 H   0  0  0  0  0  0  0  0  0  0  0  0
   -9.2746   -1.7585  -25.1098 H   0  0  0  0  0  0  0  0  0  0  0  0
   -9.3307    1.9450  -25.9697 H   0  0  0  0  0  0  0  0  0  0  0  0
   -8.2012    0.6632  -26.4276 H   0  0  0  0  0  0  0  0  0  0  0  0
   -8.8478    3.0546  -23.8595 H   0  0  0  0  0  0  0  0  0  0  0  0
   -7.3694    4.4027  -22.6618 H   0  0  0  0  0  0  0  0  0  0  0  0
   -6.0203    3.8590  -23.6949 H   0  0  0  0  0  0  0  0  0  0  0  0
   -6.6004    2.8158  -22.3846 H   0  0  0  0  0  0  0  0  0  0  0  0
  1  2  1  0
  2  3  1  0
  3  4  2  0
  3  5  1  0
  5  6  1  0
  6  7  1  0
  8  7  1  6
  8  9  1  0
  9 10  2  0
  9 11  1  0
 11 12  1  0
 12 13  2  0
 13 14  1  0
 14 15  2  0
 15 16  1  0
 16 17  2  0
 17 18  1  0
 18 19  2  0
 19 20  1  0
 20 21  2  0
 20 22  1  0
 19 23  1  0
 18 24  1  0
 17 25  1  0
 15 26  1  0
 13 27  1  0
 11 28  1  0
 28 29  1  0
 29 30  1  0
 30 31  1  0
 31 32  2  0
 32 33  1  0
 33 34  2  0
 34 35  1  0
 35 36  2  0
 36 37  1  0
 35 38  1  0
 34 39  1  0
 33 40  1  0
 32 41  1  0
 30 42  1  0
 30 43  1  0
 29 44  1  1
 28 45  1  0
 28 46  1  0
  8 47  1  0
 47 48  2  0
 48 49  1  0
 49 50  1  0
 49 51  2  0
 51 52  1  0
 52 53  2  0
 53 54  1  0
 54 55  2  0
 52 56  1  0
 51 57  1  0
 48 58  1  0
  7 59  1  0
  7 60  1  0
  5 61  1  0
  5 62  1  0
  2 63  1  0
  1 64  1  0
  1 65  1  0
  1 66  1  0
 54  6  1  0
 29  8  1  0
 36 31  1  0
 53 47  1  0
 21 12  1  0
 21 16  1  0
M  END
>  <cnnaffinities>  (43) 
[5.80154, 6.58434]

>  <score>  (43) 
5.80154

>  <index>  (43) 
45

>  <Smiles>  (43) 
C(N(C(=O)C(N1C([C@@]2(C(=O)N(c3c(nc(c4c(c(c(c(c34)[H])[H])[H])[H])[H])[H])C([C@@]2(C(c2c(c(c(c(c2[H])[H])[H])[H])[H])([H])[H])[H])([H])[H])c2c(c(Cl)c(c(c2C1=O)[H])[H])[H])([H])[H])([H])[H])[H])([H])([H])[H]

>  <h>  (43) 
<NA>

>  <Training>  (43) 
True

>  <Success>  (43) 
True

>  <enamine_searched>  (43) 
False

>  <enamine_id>  (43) 
nan

$$$$

     RDKit          3D

 50 54  0  0  0  0  0  0  0  0999 V2000
   -8.3536   -4.1603  -23.4473 C   0  0  0  0  0  0  0  0  0  0  0  0
   -8.5502   -2.9955  -22.4934 C   0  0  1  0  0  0  0  0  0  0  0  0
   -7.4036   -2.8085  -21.4930 C   0  0  0  0  0  0  0  0  0  0  0  0
   -7.4531   -1.3847  -21.1971 N   0  0  0  0  0  0  0  0  0  0  0  0
   -6.6707   -0.7850  -20.1836 C   0  0  0  0  0  0  0  0  0  0  0  0
   -6.9204   -1.1041  -18.8716 C   0  0  0  0  0  0  0  0  0  0  0  0
   -6.2338   -0.6192  -17.8112 N   0  0  0  0  0  0  0  0  0  0  0  0
   -5.2186    0.1709  -18.0764 C   0  0  0  0  0  0  0  0  0  0  0  0
   -4.8402    0.5735  -19.3912 C   0  0  0  0  0  0  0  0  0  0  0  0
   -3.7423    1.4490  -19.5946 C   0  0  0  0  0  0  0  0  0  0  0  0
   -3.4814    1.9449  -20.8427 C   0  0  0  0  0  0  0  0  0  0  0  0
   -4.2575    1.5215  -21.9464 C   0  0  0  0  0  0  0  0  0  0  0  0
   -5.2703    0.6119  -21.7886 C   0  0  0  0  0  0  0  0  0  0  0  0
   -5.6026    0.1199  -20.4903 C   0  0  0  0  0  0  0  0  0  0  0  0
   -5.8420    0.3053  -22.6577 H   0  0  0  0  0  0  0  0  0  0  0  0
   -4.0615    1.9540  -22.9250 H   0  0  0  0  0  0  0  0  0  0  0  0
   -2.7129    2.6961  -20.9859 H   0  0  0  0  0  0  0  0  0  0  0  0
   -3.1432    1.7357  -18.7354 H   0  0  0  0  0  0  0  0  0  0  0  0
   -4.6518    0.5491  -17.2246 H   0  0  0  0  0  0  0  0  0  0  0  0
   -7.7392   -1.7827  -18.6358 H   0  0  0  0  0  0  0  0  0  0  0  0
   -8.1842   -0.6504  -22.1078 C   0  0  0  0  0  0  0  0  0  0  0  0
   -8.3100    0.5575  -22.0810 O   0  0  0  0  0  0  0  0  0  0  0  0
   -8.7532   -1.5953  -23.1745 C   0  0  1  0  0  0  0  0  0  0  0  0
   -7.9348   -1.3336  -24.4689 C   0  0  0  0  0  0  0  0  0  0  0  0
   -8.5519   -1.9407  -25.6469 N   0  0  0  0  0  0  0  0  0  0  0  0
   -7.7673   -2.4226  -26.7707 C   0  0  0  0  0  0  0  0  0  0  0  0
   -7.9146   -3.8807  -26.9289 C   0  0  0  0  0  0  0  0  0  0  0  0
   -8.0839   -5.0184  -27.0453 N   0  0  0  0  0  0  0  0  0  0  0  0
   -8.1587   -1.9561  -27.6792 H   0  0  0  0  0  0  0  0  0  0  0  0
   -6.7139   -2.1592  -26.6503 H   0  0  0  0  0  0  0  0  0  0  0  0
   -9.8901   -1.7754  -25.9154 C   0  0  0  0  0  0  0  0  0  0  0  0
  -10.3606   -1.9408  -27.0337 O   0  0  0  0  0  0  0  0  0  0  0  0
  -10.7409   -1.3973  -24.7610 C   0  0  0  0  0  0  0  0  0  0  0  0
  -12.0973   -1.1970  -25.0079 C   0  0  0  0  0  0  0  0  0  0  0  0
  -12.9659   -0.8943  -23.9813 C   0  0  0  0  0  0  0  0  0  0  0  0
  -12.4371   -0.8266  -22.6976 C   0  0  0  0  0  0  0  0  0  0  0  0
  -13.2765   -0.5863  -21.6841 F   0  0  0  0  0  0  0  0  0  0  0  0
  -11.0934   -1.0176  -22.4296 C   0  0  0  0  0  0  0  0  0  0  0  0
  -10.2115   -1.3051  -23.4731 C   0  0  0  0  0  0  0  0  0  0  0  0
  -10.7193   -0.9387  -21.4175 H   0  0  0  0  0  0  0  0  0  0  0  0
  -14.0219   -0.7228  -24.1621 H   0  0  0  0  0  0  0  0  0  0  0  0
  -12.4444   -1.3014  -26.0287 H   0  0  0  0  0  0  0  0  0  0  0  0
   -6.9113   -1.7164  -24.3587 H   0  0  0  0  0  0  0  0  0  0  0  0
   -7.8625   -0.2396  -24.6013 H   0  0  0  0  0  0  0  0  0  0  0  0
   -7.5508   -3.3987  -20.5825 H   0  0  0  0  0  0  0  0  0  0  0  0
   -6.4272   -3.0962  -21.9126 H   0  0  0  0  0  0  0  0  0  0  0  0
   -9.4590   -3.1717  -21.8990 H   0  0  0  0  0  0  0  0  0  0  0  0
   -7.4492   -4.0094  -24.0467 H   0  0  0  0  0  0  0  0  0  0  0  0
   -8.2549   -5.0998  -22.8947 H   0  0  0  0  0  0  0  0  0  0  0  0
   -9.2055   -4.2336  -24.1291 H   0  0  0  0  0  0  0  0  0  0  0  0
  1  2  1  0
  2  3  1  0
  3  4  1  0
  4  5  1  0
  5  6  2  0
  6  7  1  0
  7  8  2  0
  8  9  1  0
  9 10  2  0
 10 11  1  0
 11 12  2  0
 12 13  1  0
 13 14  2  0
 13 15  1  0
 12 16  1  0
 11 17  1  0
 10 18  1  0
  8 19  1  0
  6 20  1  0
  4 21  1  0
 21 22  2  0
 21 23  1  0
 23 24  1  6
 24 25  1  0
 25 26  1  0
 26 27  1  0
 27 28  3  0
 26 29  1  0
 26 30  1  0
 25 31  1  0
 31 32  2  0
 31 33  1  0
 33 34  2  0
 34 35  1  0
 35 36  2  0
 36 37  1  0
 36 38  1  0
 38 39  2  0
 38 40  1  0
 35 41  1  0
 34 42  1  0
 24 43  1  0
 24 44  1  0
  3 45  1  0
  3 46  1  0
  2 47  1  1
  1 48  1  0
  1 49  1  0
  1 50  1  0
 23  2  1  0
 39 33  1  0
 14  5  1  0
 39 23  1  0
 14  9  1  0
M  END
>  <cnnaffinities>  (44) 
[5.6555, 5.33899, 6.14189, 5.61769]

>  <score>  (44) 
5.6555

>  <index>  (44) 
46

>  <Smiles>  (44) 
C([C@]1(C(N(c2c(nc(c3c(c(c(c(c23)[H])[H])[H])[H])[H])[H])C(=O)[C@]21C(N(C(C#N)([H])[H])C(=O)c1c(c(c(F)c(c21)[H])[H])[H])([H])[H])([H])[H])[H])([H])([H])[H]

>  <h>  (44) 
<NA>

>  <Training>  (44) 
True

>  <Success>  (44) 
True

>  <enamine_searched>  (44) 
False

>  <enamine_id>  (44) 
nan

$$$$

     RDKit          3D

 58 63  0  0  0  0  0  0  0  0999 V2000
   -8.5958    0.7229  -21.3450 O   0  0  0  0  0  0  0  0  0  0  0  0
   -8.5111   -0.3952  -21.8229 C   0  0  0  0  0  0  0  0  0  0  0  0
   -7.4940   -1.3948  -21.2657 C   0  0  0  0  0  0  0  0  0  0  0  0
   -6.6415   -0.7990  -20.1802 C   0  0  0  0  0  0  0  0  0  0  0  0
   -6.9189   -1.0607  -18.8633 C   0  0  0  0  0  0  0  0  0  0  0  0
   -6.2176   -0.5919  -17.7951 N   0  0  0  0  0  0  0  0  0  0  0  0
   -5.2147    0.2100  -18.0541 C   0  0  0  0  0  0  0  0  0  0  0  0
   -4.8261    0.5924  -19.3714 C   0  0  0  0  0  0  0  0  0  0  0  0
   -3.6986    1.4223  -19.6089 C   0  0  0  0  0  0  0  0  0  0  0  0
   -3.4131    1.8702  -20.8711 C   0  0  0  0  0  0  0  0  0  0  0  0
   -4.2211    1.4639  -21.9618 C   0  0  0  0  0  0  0  0  0  0  0  0
   -5.2183    0.5370  -21.7769 C   0  0  0  0  0  0  0  0  0  0  0  0
   -5.5662    0.0946  -20.4674 C   0  0  0  0  0  0  0  0  0  0  0  0
   -5.7735    0.1547  -22.6311 H   0  0  0  0  0  0  0  0  0  0  0  0
   -4.0433    1.8895  -22.9480 H   0  0  0  0  0  0  0  0  0  0  0  0
   -2.5732    2.5401  -21.0428 H   0  0  0  0  0  0  0  0  0  0  0  0
   -3.0957    1.7161  -18.7527 H   0  0  0  0  0  0  0  0  0  0  0  0
   -4.6375    0.5844  -17.2055 H   0  0  0  0  0  0  0  0  0  0  0  0
   -7.7603   -1.7022  -18.6007 H   0  0  0  0  0  0  0  0  0  0  0  0
   -6.8990   -1.7806  -22.1039 H   0  0  0  0  0  0  0  0  0  0  0  0
   -8.0463   -2.2500  -20.8559 H   0  0  0  0  0  0  0  0  0  0  0  0
   -9.3077   -0.8129  -22.8728 N   0  0  0  0  0  0  0  0  0  0  0  0
   -9.2582   -2.1278  -23.5078 C   0  0  0  0  0  0  0  0  0  0  0  0
   -8.5132   -2.1662  -24.8337 C   0  0  0  0  0  0  0  0  0  0  0  0
   -7.4178   -1.3392  -25.0938 C   0  0  0  0  0  0  0  0  0  0  0  0
   -6.7596   -1.4031  -26.3183 C   0  0  0  0  0  0  0  0  0  0  0  0
   -7.1817   -2.2836  -27.3091 C   0  0  0  0  0  0  0  0  0  0  0  0
   -8.2768   -3.0971  -27.0495 C   0  0  0  0  0  0  0  0  0  0  0  0
   -8.8367   -4.1990  -28.2807 Cl  0  0  0  0  0  0  0  0  0  0  0  0
   -8.9385   -3.0507  -25.8280 C   0  0  0  0  0  0  0  0  0  0  0  0
   -9.8029   -3.6925  -25.6713 H   0  0  0  0  0  0  0  0  0  0  0  0
   -6.6744   -2.3526  -28.2655 H   0  0  0  0  0  0  0  0  0  0  0  0
   -5.9062   -0.7549  -26.5001 H   0  0  0  0  0  0  0  0  0  0  0  0
   -7.0695   -0.6243  -24.3504 H   0  0  0  0  0  0  0  0  0  0  0  0
  -10.2837   -2.4708  -23.6773 H   0  0  0  0  0  0  0  0  0  0  0  0
   -8.8355   -2.8441  -22.8006 H   0  0  0  0  0  0  0  0  0  0  0  0
  -10.2242    0.1654  -23.4089 C   0  0  2  0  0  0  0  0  0  0  0  0
  -11.3489    0.6593  -22.4913 C   0  0  0  0  0  0  0  0  0  0  0  0
  -12.0473    1.6056  -23.4311 N   0  0  1  0  0  4  0  0  0  0  0  0
  -12.2649    2.9530  -22.9013 C   0  0  0  0  0  0  0  0  0  0  0  0
  -13.5455    3.2513  -22.1950 C   0  0  0  0  0  0  0  0  0  0  0  0
  -13.2771    3.8265  -23.5623 C   0  0  0  0  0  0  0  0  0  0  0  0
  -13.0603    4.8825  -23.6556 H   0  0  0  0  0  0  0  0  0  0  0  0
  -13.8073    3.3957  -24.4065 H   0  0  0  0  0  0  0  0  0  0  0  0
  -13.5094    3.9006  -21.3317 H   0  0  0  0  0  0  0  0  0  0  0  0
  -14.2517    2.4323  -22.1091 H   0  0  0  0  0  0  0  0  0  0  0  0
  -11.3735    3.4328  -22.5180 H   0  0  0  0  0  0  0  0  0  0  0  0
  -11.1229    1.4999  -24.6367 C   0  0  2  0  0  0  0  0  0  0  0  0
  -10.9921   -0.0277  -24.7335 C   0  0  0  0  0  0  0  0  0  0  0  0
  -10.3549   -0.3939  -25.5309 H   0  0  0  0  0  0  0  0  0  0  0  0
  -11.9287   -0.5972  -24.6760 H   0  0  0  0  0  0  0  0  0  0  0  0
   -9.7282    1.5118  -23.9946 C   0  0  0  0  0  0  0  0  0  0  0  0
   -8.9146    1.3775  -24.7029 H   0  0  0  0  0  0  0  0  0  0  0  0
   -9.4823    2.2851  -23.2594 H   0  0  0  0  0  0  0  0  0  0  0  0
  -11.4114    2.1567  -25.4551 H   0  0  0  0  0  0  0  0  0  0  0  0
  -12.9815    1.2200  -23.6762 H   0  0  0  0  0  0  0  0  0  0  0  0
  -10.9570    1.2130  -21.6446 H   0  0  0  0  0  0  0  0  0  0  0  0
  -12.0308   -0.1185  -22.1492 H   0  0  0  0  0  0  0  0  0  0  0  0
  1  2  2  0
  2  3  1  0
  3  4  1  0
  4  5  2  0
  5  6  1  0
  6  7  2  0
  7  8  1  0
  8  9  2  0
  9 10  1  0
 10 11  2  0
 11 12  1  0
 12 13  2  0
 12 14  1  0
 11 15  1  0
 10 16  1  0
  9 17  1  0
  7 18  1  0
  5 19  1  0
  3 20  1  0
  3 21  1  0
  2 22  1  0
 22 23  1  0
 23 24  1  0
 24 25  2  0
 25 26  1  0
 26 27  2  0
 27 28  1  0
 28 29  1  0
 28 30  2  0
 30 31  1  0
 27 32  1  0
 26 33  1  0
 25 34  1  0
 23 35  1  0
 23 36  1  0
 37 22  1  1
 37 38  1  0
 38 39  1  0
 39 40  1  0
 40 41  1  0
 41 42  1  0
 42 43  1  0
 42 44  1  0
 41 45  1  0
 41 46  1  0
 40 47  1  0
 39 48  1  0
 48 49  1  0
 49 50  1  0
 49 51  1  0
 48 52  1  0
 52 53  1  0
 52 54  1  0
 48 55  1  6
 39 56  1  6
 38 57  1  0
 38 58  1  0
 13  4  1  0
 30 24  1  0
 49 37  1  0
 13  8  1  0
 52 37  1  0
 42 40  1  0
M  CHG  1  39   1
M  END
>  <cnnaffinities>  (45) 
[5.61283]

>  <score>  (45) 
5.61283

>  <index>  (45) 
47

>  <Smiles>  (45) 
O=C(C(c1c(nc(c2c(c(c(c(c12)[H])[H])[H])[H])[H])[H])([H])[H])N(C(c1c(c(c(c(Cl)c1[H])[H])[H])[H])([H])[H])[C@]12C([N@@+](C3(C(C3([H])[H])([H])[H])[H])([C@](C1([H])[H])(C2([H])[H])[H])[H])([H])[H]

>  <h>  (45) 
<NA>

>  <Training>  (45) 
True

>  <Success>  (45) 
True

>  <enamine_searched>  (45) 
False

>  <enamine_id>  (45) 
nan

$$$$

     RDKit          3D

 46 48  0  0  0  0  0  0  0  0999 V2000
  -13.2393   -3.7469  -22.7320 C   0  0  0  0  0  0  0  0  0  0  0  0
  -13.2827   -2.7213  -23.8679 C   0  0  0  0  0  0  0  0  0  0  0  0
  -14.6551   -2.0466  -23.9184 C   0  0  0  0  0  0  0  0  0  0  0  0
  -15.4317   -2.8014  -24.0822 H   0  0  0  0  0  0  0  0  0  0  0  0
  -14.8847   -1.5289  -22.9785 H   0  0  0  0  0  0  0  0  0  0  0  0
  -14.7237   -1.3141  -24.7309 H   0  0  0  0  0  0  0  0  0  0  0  0
  -12.1255   -1.6992  -23.8611 C   0  0  0  0  0  0  0  0  0  0  0  0
  -10.7396   -2.3727  -24.0485 C   0  0  0  0  0  0  0  0  0  0  0  0
   -9.8467   -2.3393  -22.7967 C   0  0  0  0  0  0  0  0  0  0  0  0
   -9.6472   -0.9525  -22.3678 N   0  0  0  0  0  0  0  0  0  0  0  0
   -8.5435   -0.4411  -21.7482 C   0  0  0  0  0  0  0  0  0  0  0  0
   -8.4124    0.7596  -21.5659 O   0  0  0  0  0  0  0  0  0  0  0  0
   -7.4766   -1.4236  -21.2492 C   0  0  0  0  0  0  0  0  0  0  0  0
   -6.6241   -0.8136  -20.1676 C   0  0  0  0  0  0  0  0  0  0  0  0
   -6.9082   -1.0646  -18.8473 C   0  0  0  0  0  0  0  0  0  0  0  0
   -6.2115   -0.5808  -17.7851 N   0  0  0  0  0  0  0  0  0  0  0  0
   -5.1987    0.2077  -18.0509 C   0  0  0  0  0  0  0  0  0  0  0  0
   -4.8076    0.5826  -19.3658 C   0  0  0  0  0  0  0  0  0  0  0  0
   -3.6868    1.4191  -19.6041 C   0  0  0  0  0  0  0  0  0  0  0  0
   -3.3871    1.8382  -20.8721 C   0  0  0  0  0  0  0  0  0  0  0  0
   -4.1971    1.4293  -21.9595 C   0  0  0  0  0  0  0  0  0  0  0  0
   -5.1989    0.5076  -21.7679 C   0  0  0  0  0  0  0  0  0  0  0  0
   -5.5544    0.0845  -20.4587 C   0  0  0  0  0  0  0  0  0  0  0  0
   -5.7466    0.1224  -22.6231 H   0  0  0  0  0  0  0  0  0  0  0  0
   -4.0031    1.8285  -22.9534 H   0  0  0  0  0  0  0  0  0  0  0  0
   -2.5388    2.4940  -21.0510 H   0  0  0  0  0  0  0  0  0  0  0  0
   -3.0781    1.7130  -18.7516 H   0  0  0  0  0  0  0  0  0  0  0  0
   -4.6259    0.5973  -17.2069 H   0  0  0  0  0  0  0  0  0  0  0  0
   -7.7514   -1.7015  -18.5811 H   0  0  0  0  0  0  0  0  0  0  0  0
   -7.9881   -2.3116  -20.8636 H   0  0  0  0  0  0  0  0  0  0  0  0
   -6.8752   -1.7612  -22.1070 H   0  0  0  0  0  0  0  0  0  0  0  0
  -10.7234   -0.0202  -22.6940 C   0  0  0  0  0  0  0  0  0  0  0  0
  -12.0554   -0.7559  -22.6517 C   0  0  0  0  0  0  0  0  0  0  0  0
  -12.0925   -1.3440  -21.7276 H   0  0  0  0  0  0  0  0  0  0  0  0
  -12.8840   -0.0362  -22.6324 H   0  0  0  0  0  0  0  0  0  0  0  0
  -10.6826    0.8091  -21.9869 H   0  0  0  0  0  0  0  0  0  0  0  0
  -10.5450    0.4026  -23.6975 H   0  0  0  0  0  0  0  0  0  0  0  0
  -10.3052   -2.9300  -21.9878 H   0  0  0  0  0  0  0  0  0  0  0  0
   -8.8770   -2.7958  -23.0303 H   0  0  0  0  0  0  0  0  0  0  0  0
  -10.8623   -3.4110  -24.3816 H   0  0  0  0  0  0  0  0  0  0  0  0
  -10.2004   -1.8510  -24.8490 H   0  0  0  0  0  0  0  0  0  0  0  0
  -12.2954   -1.0622  -24.7439 H   0  0  0  0  0  0  0  0  0  0  0  0
  -13.1536   -3.2770  -24.8099 H   0  0  0  0  0  0  0  0  0  0  0  0
  -13.4489   -3.2902  -21.7563 H   0  0  0  0  0  0  0  0  0  0  0  0
  -13.9995   -4.5188  -22.8992 H   0  0  0  0  0  0  0  0  0  0  0  0
  -12.2720   -4.2575  -22.6643 H   0  0  0  0  0  0  0  0  0  0  0  0
  1  2  1  0
  2  3  1  0
  3  4  1  0
  3  5  1  0
  3  6  1  0
  2  7  1  0
  7  8  1  0
  8  9  1  0
  9 10  1  0
 10 11  1  0
 11 12  2  0
 11 13  1  0
 13 14  1  0
 14 15  2  0
 15 16  1  0
 16 17  2  0
 17 18  1  0
 18 19  2  0
 19 20  1  0
 20 21  2  0
 21 22  1  0
 22 23  2  0
 22 24  1  0
 21 25  1  0
 20 26  1  0
 19 27  1  0
 17 28  1  0
 15 29  1  0
 13 30  1  0
 13 31  1  0
 10 32  1  0
 32 33  1  0
 33 34  1  0
 33 35  1  0
 32 36  1  0
 32 37  1  0
  9 38  1  0
  9 39  1  0
  8 40  1  0
  8 41  1  0
  7 42  1  0
  2 43  1  0
  1 44  1  0
  1 45  1  0
  1 46  1  0
 33  7  1  0
 23 14  1  0
 23 18  1  0
M  END
>  <cnnaffinities>  (46) 
[4.48113, 4.48095, 4.48092, 5.20643, 4.6427, 4.72527, 4.72537]

>  <score>  (46) 
4.48113

>  <index>  (46) 
48

>  <Smiles>  (46) 
C(C(C([H])([H])[H])(C1(C(C(N(C(=O)C(c2c(nc(c3c(c(c(c(c23)[H])[H])[H])[H])[H])[H])([H])[H])C(C1([H])[H])([H])[H])([H])[H])([H])[H])[H])[H])([H])([H])[H]

>  <h>  (46) 
<NA>

>  <Training>  (46) 
True

>  <Success>  (46) 
True

>  <enamine_searched>  (46) 
False

>  <enamine_id>  (46) 
nan

$$$$

     RDKit          3D

 67 72  0  0  0  0  0  0  0  0999 V2000
   -7.4339    3.3465  -21.9268 C   0  0  0  0  0  0  0  0  0  0  0  0
   -8.4486    2.8555  -22.8441 N   0  0  0  0  0  0  0  0  0  0  0  0
   -8.0042    2.1031  -23.8920 C   0  0  0  0  0  0  0  0  0  0  0  0
   -6.8151    1.8929  -24.0863 O   0  0  0  0  0  0  0  0  0  0  0  0
   -9.0491    1.4977  -24.8228 C   0  0  0  0  0  0  0  0  0  0  0  0
   -9.6128    0.3103  -24.2111 N   0  0  0  0  0  0  0  0  0  0  0  0
   -8.7906   -0.8876  -24.1057 C   0  0  0  0  0  0  0  0  0  0  0  0
   -9.0885   -1.6691  -22.8009 C   0  0  2  0  0  0  0  0  0  0  0  0
   -8.5702   -0.8653  -21.5872 C   0  0  0  0  0  0  0  0  0  0  0  0
   -9.0729    0.1158  -21.0791 O   0  0  0  0  0  0  0  0  0  0  0  0
   -7.3887   -1.4360  -21.1768 N   0  0  0  0  0  0  0  0  0  0  0  0
   -6.6211   -0.8257  -20.1569 C   0  0  0  0  0  0  0  0  0  0  0  0
   -6.9326   -1.0679  -18.8438 C   0  0  0  0  0  0  0  0  0  0  0  0
   -6.2386   -0.5766  -17.7916 N   0  0  0  0  0  0  0  0  0  0  0  0
   -5.2040    0.1840  -18.0595 C   0  0  0  0  0  0  0  0  0  0  0  0
   -4.7971    0.5510  -19.3761 C   0  0  0  0  0  0  0  0  0  0  0  0
   -3.7105    1.4313  -19.6152 C   0  0  0  0  0  0  0  0  0  0  0  0
   -3.4421    1.8808  -20.8788 C   0  0  0  0  0  0  0  0  0  0  0  0
   -4.2498    1.4726  -21.9667 C   0  0  0  0  0  0  0  0  0  0  0  0
   -5.2383    0.5350  -21.7778 C   0  0  0  0  0  0  0  0  0  0  0  0
   -5.5579    0.0733  -20.4699 C   0  0  0  0  0  0  0  0  0  0  0  0
   -5.8196    0.1992  -22.6331 H   0  0  0  0  0  0  0  0  0  0  0  0
   -4.1031    1.9181  -22.9479 H   0  0  0  0  0  0  0  0  0  0  0  0
   -2.6271    2.5801  -21.0449 H   0  0  0  0  0  0  0  0  0  0  0  0
   -3.1078    1.7418  -18.7661 H   0  0  0  0  0  0  0  0  0  0  0  0
   -4.6383    0.5641  -17.2089 H   0  0  0  0  0  0  0  0  0  0  0  0
   -7.7897   -1.6943  -18.6097 H   0  0  0  0  0  0  0  0  0  0  0  0
   -6.9731   -2.5915  -21.9481 C   0  0  0  0  0  0  0  0  0  0  0  0
   -8.2470   -2.9794  -22.7185 C   0  0  2  0  0  0  0  0  0  0  0  0
   -7.9721   -3.6749  -24.0605 C   0  0  0  0  0  0  0  0  0  0  0  0
   -7.4057   -4.9860  -23.8514 N   0  0  0  0  0  0  0  0  0  0  0  0
   -6.8866   -5.7565  -24.8731 C   0  0  0  0  0  0  0  0  0  0  0  0
   -6.1226   -6.8824  -24.7801 C   0  0  0  0  0  0  0  0  0  0  0  0
   -5.7478   -7.4625  -25.9751 N   0  0  0  0  0  0  0  0  0  0  0  0
   -6.2343   -6.8157  -26.9859 C   0  0  0  0  0  0  0  0  0  0  0  0
   -6.0859   -7.2799  -28.3997 C   0  0  0  0  0  0  0  0  0  0  0  0
   -5.8915   -6.4645  -29.1028 H   0  0  0  0  0  0  0  0  0  0  0  0
   -7.0041   -7.7926  -28.7167 H   0  0  0  0  0  0  0  0  0  0  0  0
   -5.2632   -7.9986  -28.4318 H   0  0  0  0  0  0  0  0  0  0  0  0
   -7.1782   -5.3976  -26.5556 S   0  0  0  0  0  0  0  0  0  0  0  0
   -5.8319   -7.3679  -23.8529 H   0  0  0  0  0  0  0  0  0  0  0  0
   -7.1015   -5.2276  -22.9227 H   0  0  0  0  0  0  0  0  0  0  0  0
   -8.9143   -3.7674  -24.6175 H   0  0  0  0  0  0  0  0  0  0  0  0
   -7.2848   -3.0622  -24.6674 H   0  0  0  0  0  0  0  0  0  0  0  0
   -8.8001   -3.6915  -22.0983 H   0  0  0  0  0  0  0  0  0  0  0  0
   -6.1472   -2.3427  -22.6343 H   0  0  0  0  0  0  0  0  0  0  0  0
   -6.6270   -3.3891  -21.2828 H   0  0  0  0  0  0  0  0  0  0  0  0
  -10.5904   -1.8416  -22.6970 C   0  0  0  0  0  0  0  0  0  0  0  0
  -11.1423   -2.8260  -21.8741 C   0  0  0  0  0  0  0  0  0  0  0  0
  -12.5129   -2.9209  -21.7270 C   0  0  0  0  0  0  0  0  0  0  0  0
  -13.1572   -4.1355  -20.6669 Cl  0  0  0  0  0  0  0  0  0  0  0  0
  -13.3899   -2.0634  -22.3890 C   0  0  0  0  0  0  0  0  0  0  0  0
  -12.8515   -1.0720  -23.1798 C   0  0  0  0  0  0  0  0  0  0  0  0
  -11.4718   -0.9407  -23.3092 C   0  0  0  0  0  0  0  0  0  0  0  0
  -10.9695    0.2419  -24.0713 C   0  0  0  0  0  0  0  0  0  0  0  0
  -11.7257    1.0979  -24.5173 O   0  0  0  0  0  0  0  0  0  0  0  0
  -13.4711   -0.3540  -23.7041 H   0  0  0  0  0  0  0  0  0  0  0  0
  -14.4618   -2.1595  -22.2632 H   0  0  0  0  0  0  0  0  0  0  0  0
  -10.5210   -3.5163  -21.3166 H   0  0  0  0  0  0  0  0  0  0  0  0
   -7.7353   -0.5978  -24.1454 H   0  0  0  0  0  0  0  0  0  0  0  0
   -8.9932   -1.5464  -24.9616 H   0  0  0  0  0  0  0  0  0  0  0  0
   -9.8780    2.1825  -25.0197 H   0  0  0  0  0  0  0  0  0  0  0  0
   -8.5739    1.2403  -25.7787 H   0  0  0  0  0  0  0  0  0  0  0  0
   -9.3579    2.6454  -22.4530 H   0  0  0  0  0  0  0  0  0  0  0  0
   -6.7275    3.9708  -22.4796 H   0  0  0  0  0  0  0  0  0  0  0  0
   -7.8842    3.9650  -21.1501 H   0  0  0  0  0  0  0  0  0  0  0  0
   -6.9030    2.4929  -21.4855 H   0  0  0  0  0  0  0  0  0  0  0  0
  1  2  1  0
  2  3  1  0
  3  4  2  0
  3  5  1  0
  5  6  1  0
  6  7  1  0
  8  7  1  6
  8  9  1  0
  9 10  2  0
  9 11  1  0
 11 12  1  0
 12 13  2  0
 13 14  1  0
 14 15  2  0
 15 16  1  0
 16 17  2  0
 17 18  1  0
 18 19  2  0
 19 20  1  0
 20 21  2  0
 20 22  1  0
 19 23  1  0
 18 24  1  0
 17 25  1  0
 15 26  1  0
 13 27  1  0
 11 28  1  0
 28 29  1  0
 29 30  1  0
 30 31  1  0
 31 32  1  0
 32 33  2  0
 33 34  1  0
 34 35  2  0
 35 36  1  0
 36 37  1  0
 36 38  1  0
 36 39  1  0
 35 40  1  0
 33 41  1  0
 31 42  1  0
 30 43  1  0
 30 44  1  0
 29 45  1  1
 28 46  1  0
 28 47  1  0
  8 48  1  0
 48 49  2  0
 49 50  1  0
 50 51  1  0
 50 52  2  0
 52 53  1  0
 53 54  2  0
 54 55  1  0
 55 56  2  0
 53 57  1  0
 52 58  1  0
 49 59  1  0
  7 60  1  0
  7 61  1  0
  5 62  1  0
  5 63  1  0
  2 64  1  0
  1 65  1  0
  1 66  1  0
  1 67  1  0
 55  6  1  0
 29  8  1  0
 40 32  1  0
 54 48  1  0
 21 12  1  0
 21 16  1  0
M  END
>  <cnnaffinities>  (47) 
[6.37835, 6.3814, 6.57153]

>  <score>  (47) 
6.37835

>  <index>  (47) 
49

>  <Smiles>  (47) 
C(N(C(=O)C(N1C([C@@]2(C(=O)N(c3c(nc(c4c(c(c(c(c34)[H])[H])[H])[H])[H])[H])C([C@@]2(C(N(c2c(nc(C([H])([H])[H])s2)[H])[H])([H])[H])[H])([H])[H])c2c(c(Cl)c(c(c2C1=O)[H])[H])[H])([H])[H])([H])[H])[H])([H])([H])[H]

>  <h>  (47) 
<NA>

>  <Training>  (47) 
True

>  <Success>  (47) 
True

>  <enamine_searched>  (47) 
False

>  <enamine_id>  (47) 
nan

$$$$

     RDKit          3D

 66 70  0  0  0  0  0  0  0  0999 V2000
   -7.6143    3.0669  -22.0221 C   0  0  0  0  0  0  0  0  0  0  0  0
   -8.7772    2.5630  -22.7376 N   0  0  0  0  0  0  0  0  0  0  0  0
   -8.5330    1.7483  -23.8041 C   0  0  0  0  0  0  0  0  0  0  0  0
   -7.3918    1.4713  -24.1537 O   0  0  0  0  0  0  0  0  0  0  0  0
   -9.7195    1.1488  -24.5562 C   0  0  0  0  0  0  0  0  0  0  0  0
  -10.1527   -0.0659  -23.8968 N   0  0  0  0  0  0  0  0  0  0  0  0
   -9.2575   -1.2147  -23.8892 C   0  0  0  0  0  0  0  0  0  0  0  0
   -9.3129   -1.9518  -22.5250 C   0  0  2  0  0  0  0  0  0  0  0  0
   -8.7162   -1.0041  -21.4470 C   0  0  0  0  0  0  0  0  0  0  0  0
   -9.2452   -0.0210  -20.9649 O   0  0  0  0  0  0  0  0  0  0  0  0
   -7.4332   -1.4283  -21.1579 N   0  0  0  0  0  0  0  0  0  0  0  0
   -6.6509   -0.8148  -20.1474 C   0  0  0  0  0  0  0  0  0  0  0  0
   -6.9399   -1.0636  -18.8261 C   0  0  0  0  0  0  0  0  0  0  0  0
   -6.2304   -0.5738  -17.7814 N   0  0  0  0  0  0  0  0  0  0  0  0
   -5.1884    0.1708  -18.0578 C   0  0  0  0  0  0  0  0  0  0  0  0
   -4.7933    0.5370  -19.3762 C   0  0  0  0  0  0  0  0  0  0  0  0
   -3.7137    1.4305  -19.6127 C   0  0  0  0  0  0  0  0  0  0  0  0
   -3.4459    1.8710  -20.8783 C   0  0  0  0  0  0  0  0  0  0  0  0
   -4.2458    1.4533  -21.9648 C   0  0  0  0  0  0  0  0  0  0  0  0
   -5.2542    0.5308  -21.7711 C   0  0  0  0  0  0  0  0  0  0  0  0
   -5.5689    0.0660  -20.4648 C   0  0  0  0  0  0  0  0  0  0  0  0
   -5.8498    0.2180  -22.6219 H   0  0  0  0  0  0  0  0  0  0  0  0
   -4.0710    1.8662  -22.9553 H   0  0  0  0  0  0  0  0  0  0  0  0
   -2.6371    2.5753  -21.0520 H   0  0  0  0  0  0  0  0  0  0  0  0
   -3.1135    1.7505  -18.7639 H   0  0  0  0  0  0  0  0  0  0  0  0
   -4.6236    0.5716  -17.2143 H   0  0  0  0  0  0  0  0  0  0  0  0
   -7.7842   -1.6998  -18.5762 H   0  0  0  0  0  0  0  0  0  0  0  0
   -6.9925   -2.5476  -21.9698 C   0  0  0  0  0  0  0  0  0  0  0  0
   -8.3254   -3.1478  -22.4476 C   0  0  2  0  0  0  0  0  0  0  0  0
   -8.2119   -3.9964  -23.7132 C   0  0  0  0  0  0  0  0  0  0  0  0
   -7.4501   -5.1554  -23.4729 O   0  0  0  0  0  0  0  0  0  0  0  0
   -6.1692   -5.2230  -24.0868 C   0  0  0  0  0  0  0  0  0  0  0  0
   -6.2700   -5.7359  -25.5163 C   0  0  0  0  0  0  0  0  0  0  0  0
   -6.8739   -5.0759  -26.1455 H   0  0  0  0  0  0  0  0  0  0  0  0
   -5.2743   -5.8078  -25.9620 H   0  0  0  0  0  0  0  0  0  0  0  0
   -6.7256   -6.7292  -25.5285 H   0  0  0  0  0  0  0  0  0  0  0  0
   -5.3385   -6.1349  -23.2030 C   0  0  0  0  0  0  0  0  0  0  0  0
   -5.7856   -7.1338  -23.1873 H   0  0  0  0  0  0  0  0  0  0  0  0
   -5.3242   -5.7470  -22.1797 H   0  0  0  0  0  0  0  0  0  0  0  0
   -4.3083   -6.2149  -23.5656 H   0  0  0  0  0  0  0  0  0  0  0  0
   -5.7216   -4.2169  -24.0973 H   0  0  0  0  0  0  0  0  0  0  0  0
   -7.7700   -3.3949  -24.5244 H   0  0  0  0  0  0  0  0  0  0  0  0
   -9.2195   -4.3031  -24.0323 H   0  0  0  0  0  0  0  0  0  0  0  0
   -8.6531   -3.8082  -21.6402 H   0  0  0  0  0  0  0  0  0  0  0  0
   -6.3718   -2.2131  -22.8184 H   0  0  0  0  0  0  0  0  0  0  0  0
   -6.3989   -3.2544  -21.3797 H   0  0  0  0  0  0  0  0  0  0  0  0
  -10.7788   -2.2852  -22.2773 C   0  0  0  0  0  0  0  0  0  0  0  0
  -11.2031   -3.4429  -21.6120 C   0  0  0  0  0  0  0  0  0  0  0  0
  -12.5355   -3.6009  -21.2762 C   0  0  0  0  0  0  0  0  0  0  0  0
  -12.9055   -4.6742  -20.5535 F   0  0  0  0  0  0  0  0  0  0  0  0
  -13.5129   -2.6794  -21.6314 C   0  0  0  0  0  0  0  0  0  0  0  0
  -13.1140   -1.5661  -22.3411 C   0  0  0  0  0  0  0  0  0  0  0  0
  -11.7718   -1.3711  -22.6636 C   0  0  0  0  0  0  0  0  0  0  0  0
  -11.4359   -0.1357  -23.4340 C   0  0  0  0  0  0  0  0  0  0  0  0
  -12.2642    0.7431  -23.6348 O   0  0  0  0  0  0  0  0  0  0  0  0
  -13.8310   -0.8279  -22.6838 H   0  0  0  0  0  0  0  0  0  0  0  0
  -14.5452   -2.8406  -21.3411 H   0  0  0  0  0  0  0  0  0  0  0  0
  -10.5178   -4.2160  -21.2918 H   0  0  0  0  0  0  0  0  0  0  0  0
   -9.5414   -1.9114  -24.6915 H   0  0  0  0  0  0  0  0  0  0  0  0
   -8.2443   -0.8509  -24.0874 H   0  0  0  0  0  0  0  0  0  0  0  0
  -10.5778    1.8216  -24.5915 H   0  0  0  0  0  0  0  0  0  0  0  0
   -9.4099    0.9301  -25.5898 H   0  0  0  0  0  0  0  0  0  0  0  0
   -9.6180    2.4167  -22.1896 H   0  0  0  0  0  0  0  0  0  0  0  0
   -7.1104    2.2604  -21.4733 H   0  0  0  0  0  0  0  0  0  0  0  0
   -7.8965    3.8447  -21.3102 H   0  0  0  0  0  0  0  0  0  0  0  0
   -6.9120    3.4951  -22.7453 H   0  0  0  0  0  0  0  0  0  0  0  0
  1  2  1  0
  2  3  1  0
  3  4  2  0
  3  5  1  0
  5  6  1  0
  6  7  1  0
  8  7  1  6
  8  9  1  0
  9 10  2  0
  9 11  1  0
 11 12  1  0
 12 13  2  0
 13 14  1  0
 14 15  2  0
 15 16  1  0
 16 17  2  0
 17 18  1  0
 18 19  2  0
 19 20  1  0
 20 21  2  0
 20 22  1  0
 19 23  1  0
 18 24  1  0
 17 25  1  0
 15 26  1  0
 13 27  1  0
 11 28  1  0
 28 29  1  0
 29 30  1  0
 30 31  1  0
 31 32  1  0
 32 33  1  0
 33 34  1  0
 33 35  1  0
 33 36  1  0
 32 37  1  0
 37 38  1  0
 37 39  1  0
 37 40  1  0
 32 41  1  0
 30 42  1  0
 30 43  1  0
 29 44  1  1
 28 45  1  0
 28 46  1  0
  8 47  1  0
 47 48  2  0
 48 49  1  0
 49 50  1  0
 49 51  2  0
 51 52  1  0
 52 53  2  0
 53 54  1  0
 54 55  2  0
 52 56  1  0
 51 57  1  0
 48 58  1  0
  7 59  1  0
  7 60  1  0
  5 61  1  0
  5 62  1  0
  2 63  1  0
  1 64  1  0
  1 65  1  0
  1 66  1  0
 54  6  1  0
 29  8  1  0
 53 47  1  0
 21 12  1  0
 21 16  1  0
M  END
>  <cnnaffinities>  (48) 
[6.54625]

>  <score>  (48) 
6.54625

>  <index>  (48) 
50

>  <Smiles>  (48) 
C(N(C(=O)C(N1C([C@@]2(C(=O)N(c3c(nc(c4c(c(c(c(c34)[H])[H])[H])[H])[H])[H])C([C@@]2(C(OC(C([H])([H])[H])(C([H])([H])[H])[H])([H])[H])[H])([H])[H])c2c(c(F)c(c(c2C1=O)[H])[H])[H])([H])[H])([H])[H])[H])([H])([H])[H]

>  <h>  (48) 
<NA>

>  <Training>  (48) 
True

>  <Success>  (48) 
True

>  <enamine_searched>  (48) 
False

>  <enamine_id>  (48) 
nan

$$$$

     RDKit          3D

 50 52  0  0  0  0  0  0  0  0999 V2000
  -11.5814   -0.2650  -25.0492 C   0  0  0  0  0  0  0  0  0  0  0  0
  -10.7914   -0.0098  -24.0107 C   0  0  0  0  0  0  0  0  0  0  0  0
  -10.6822   -0.9498  -22.8229 C   0  0  0  0  0  0  0  0  0  0  0  0
   -9.3315   -1.4387  -22.5671 N   0  0  0  0  0  0  0  0  0  0  0  0
   -8.6437   -0.8365  -21.5280 C   0  0  0  0  0  0  0  0  0  0  0  0
   -9.1419    0.0460  -20.8298 O   0  0  0  0  0  0  0  0  0  0  0  0
   -7.4038   -1.3389  -21.2522 N   0  0  0  0  0  0  0  0  0  0  0  0
   -6.6322   -0.7973  -20.1941 C   0  0  0  0  0  0  0  0  0  0  0  0
   -6.9442   -1.0618  -18.8814 C   0  0  0  0  0  0  0  0  0  0  0  0
   -6.2337   -0.6002  -17.8262 N   0  0  0  0  0  0  0  0  0  0  0  0
   -5.2160    0.1899  -18.0838 C   0  0  0  0  0  0  0  0  0  0  0  0
   -4.8035    0.5650  -19.3967 C   0  0  0  0  0  0  0  0  0  0  0  0
   -3.6835    1.4070  -19.6353 C   0  0  0  0  0  0  0  0  0  0  0  0
   -3.3765    1.8123  -20.9078 C   0  0  0  0  0  0  0  0  0  0  0  0
   -4.1660    1.3892  -22.0007 C   0  0  0  0  0  0  0  0  0  0  0  0
   -5.1705    0.4664  -21.8086 C   0  0  0  0  0  0  0  0  0  0  0  0
   -5.5303    0.0542  -20.4950 C   0  0  0  0  0  0  0  0  0  0  0  0
   -5.7052    0.0700  -22.6680 H   0  0  0  0  0  0  0  0  0  0  0  0
   -3.9312    1.7352  -23.0073 H   0  0  0  0  0  0  0  0  0  0  0  0
   -2.5161    2.4500  -21.0883 H   0  0  0  0  0  0  0  0  0  0  0  0
   -3.0990    1.7320  -18.7796 H   0  0  0  0  0  0  0  0  0  0  0  0
   -4.6508    0.5726  -17.2340 H   0  0  0  0  0  0  0  0  0  0  0  0
   -7.8043   -1.6858  -18.6470 H   0  0  0  0  0  0  0  0  0  0  0  0
   -6.9675   -1.9340  -21.9434 H   0  0  0  0  0  0  0  0  0  0  0  0
   -8.7347   -2.2222  -23.6066 C   0  0  0  0  0  0  0  0  0  0  0  0
   -9.1750   -3.5223  -23.8635 C   0  0  0  0  0  0  0  0  0  0  0  0
   -8.5799   -4.2555  -24.8861 C   0  0  0  0  0  0  0  0  0  0  0  0
   -7.5859   -3.6981  -25.6823 C   0  0  0  0  0  0  0  0  0  0  0  0
   -7.2006   -2.3878  -25.4444 C   0  0  0  0  0  0  0  0  0  0  0  0
   -5.9713   -1.6627  -26.4348 Cl  0  0  0  0  0  0  0  0  0  0  0  0
   -7.7659   -1.6411  -24.4219 C   0  0  0  0  0  0  0  0  0  0  0  0
   -7.4822   -0.6013  -24.2732 H   0  0  0  0  0  0  0  0  0  0  0  0
   -7.1094   -4.2645  -26.4750 H   0  0  0  0  0  0  0  0  0  0  0  0
   -8.9062   -5.2730  -25.0754 H   0  0  0  0  0  0  0  0  0  0  0  0
   -9.9821   -3.9488  -23.2680 H   0  0  0  0  0  0  0  0  0  0  0  0
  -11.3261   -1.8122  -23.0150 H   0  0  0  0  0  0  0  0  0  0  0  0
  -11.0059   -0.4814  -21.8947 H   0  0  0  0  0  0  0  0  0  0  0  0
   -9.9014    1.1967  -24.1443 C   0  0  0  0  0  0  0  0  0  0  0  0
   -9.6281    1.6644  -25.2455 O   0  0  0  0  0  0  0  0  0  0  0  0
   -9.3890    1.7392  -23.0161 N   0  0  0  0  0  0  0  0  0  0  0  0
   -8.1612    2.4963  -23.1446 C   0  0  0  0  0  0  0  0  0  0  0  0
   -7.5469    2.7973  -21.7948 C   0  0  0  0  0  0  0  0  0  0  0  0
   -7.5741    1.9061  -21.1611 H   0  0  0  0  0  0  0  0  0  0  0  0
   -6.4969    3.0922  -21.8938 H   0  0  0  0  0  0  0  0  0  0  0  0
   -8.0624    3.5956  -21.2682 H   0  0  0  0  0  0  0  0  0  0  0  0
   -7.4340    1.9077  -23.7194 H   0  0  0  0  0  0  0  0  0  0  0  0
   -8.3709    3.3940  -23.7348 H   0  0  0  0  0  0  0  0  0  0  0  0
   -9.5955    1.3473  -22.1004 H   0  0  0  0  0  0  0  0  0  0  0  0
  -11.5883    0.3943  -25.9129 H   0  0  0  0  0  0  0  0  0  0  0  0
  -12.2455   -1.1232  -25.0514 H   0  0  0  0  0  0  0  0  0  0  0  0
  1  2  2  0
  2  3  1  0
  3  4  1  0
  4  5  1  0
  5  6  2  0
  5  7  1  0
  7  8  1  0
  8  9  2  0
  9 10  1  0
 10 11  2  0
 11 12  1  0
 12 13  2  0
 13 14  1  0
 14 15  2  0
 15 16  1  0
 16 17  2  0
 16 18  1  0
 15 19  1  0
 14 20  1  0
 13 21  1  0
 11 22  1  0
  9 23  1  0
  7 24  1  0
  4 25  1  0
 25 26  2  0
 26 27  1  0
 27 28  2  0
 28 29  1  0
 29 30  1  0
 29 31  2  0
 31 32  1  0
 28 33  1  0
 27 34  1  0
 26 35  1  0
  3 36  1  0
  3 37  1  0
  2 38  1  0
 38 39  2  0
 38 40  1  0
 40 41  1  0
 41 42  1  0
 42 43  1  0
 42 44  1  0
 42 45  1  0
 41 46  1  0
 41 47  1  0
 40 48  1  0
  1 49  1  0
  1 50  1  0
 17  8  1  0
 31 25  1  0
 17 12  1  0
M  END
>  <cnnaffinities>  (49) 
[5.83697, 5.34253]

>  <score>  (49) 
5.83697

>  <index>  (49) 
51

>  <Smiles>  (49) 
C(=C(C(N(C(=O)N(c1c(nc(c2c(c(c(c(c12)[H])[H])[H])[H])[H])[H])[H])c1c(c(c(c(Cl)c1[H])[H])[H])[H])([H])[H])C(=O)N(C(C([H])([H])[H])([H])[H])[H])([H])[H]

>  <h>  (49) 
<NA>

>  <Training>  (49) 
True

>  <Success>  (49) 
True

>  <enamine_searched>  (49) 
False

>  <enamine_id>  (49) 
nan

$$$$

     RDKit          3D

 57 60  0  0  0  0  0  0  0  0999 V2000
  -13.9414   -1.4177  -24.1846 C   0  0  0  0  0  0  0  0  0  0  0  0
  -13.2206   -1.4994  -25.5342 C   0  0  0  0  0  0  0  0  0  0  0  0
  -11.8046   -0.9609  -25.4878 C   0  0  0  0  0  0  0  0  0  0  0  0
  -11.5399    0.1990  -25.7468 O   0  0  0  0  0  0  0  0  0  0  0  0
  -10.8582   -1.8821  -25.1028 N   0  0  0  0  0  0  0  0  0  0  0  0
   -9.4642   -1.6524  -25.1199 C   0  0  0  0  0  0  0  0  0  0  0  0
   -8.8963   -0.8251  -26.0870 C   0  0  0  0  0  0  0  0  0  0  0  0
   -7.5198   -0.6506  -26.0924 C   0  0  0  0  0  0  0  0  0  0  0  0
   -6.7081   -1.2586  -25.1425 C   0  0  0  0  0  0  0  0  0  0  0  0
   -7.2757   -2.0652  -24.1540 C   0  0  0  0  0  0  0  0  0  0  0  0
   -6.4080   -2.6750  -23.1924 N   0  0  0  0  0  0  0  0  0  0  0  0
   -5.3675   -3.5880  -23.6906 C   0  0  0  0  0  0  0  0  0  0  0  0
   -5.9635   -4.9258  -24.0661 C   0  0  0  0  0  0  0  0  0  0  0  0
   -5.9822   -5.9773  -23.1467 C   0  0  0  0  0  0  0  0  0  0  0  0
   -6.7570   -7.1027  -23.4007 C   0  0  0  0  0  0  0  0  0  0  0  0
   -7.4907   -7.1901  -24.5816 C   0  0  0  0  0  0  0  0  0  0  0  0
   -7.3820   -6.2009  -25.5557 C   0  0  0  0  0  0  0  0  0  0  0  0
   -6.5994   -5.0828  -25.3012 C   0  0  0  0  0  0  0  0  0  0  0  0
   -6.4900   -4.3272  -26.0784 H   0  0  0  0  0  0  0  0  0  0  0  0
   -7.9111   -6.2967  -26.5040 H   0  0  0  0  0  0  0  0  0  0  0  0
   -8.1478   -8.0344  -24.7469 H   0  0  0  0  0  0  0  0  0  0  0  0
   -6.8029   -7.9141  -22.6766 H   0  0  0  0  0  0  0  0  0  0  0  0
   -5.3999   -5.9263  -22.2262 H   0  0  0  0  0  0  0  0  0  0  0  0
   -4.8743   -3.1248  -24.5517 H   0  0  0  0  0  0  0  0  0  0  0  0
   -4.6147   -3.6785  -22.9062 H   0  0  0  0  0  0  0  0  0  0  0  0
   -6.6190   -2.6573  -21.8234 C   0  0  0  0  0  0  0  0  0  0  0  0
   -6.1387   -3.5107  -21.0954 O   0  0  0  0  0  0  0  0  0  0  0  0
   -7.4046   -1.4831  -21.2413 C   0  0  0  0  0  0  0  0  0  0  0  0
   -6.6229   -0.8101  -20.1474 C   0  0  0  0  0  0  0  0  0  0  0  0
   -6.8905   -1.0814  -18.8334 C   0  0  0  0  0  0  0  0  0  0  0  0
   -6.2075   -0.5777  -17.7733 N   0  0  0  0  0  0  0  0  0  0  0  0
   -5.1867    0.2005  -18.0417 C   0  0  0  0  0  0  0  0  0  0  0  0
   -4.7897    0.5722  -19.3577 C   0  0  0  0  0  0  0  0  0  0  0  0
   -3.6904    1.4405  -19.5917 C   0  0  0  0  0  0  0  0  0  0  0  0
   -3.4292    1.9018  -20.8516 C   0  0  0  0  0  0  0  0  0  0  0  0
   -4.2409    1.4907  -21.9320 C   0  0  0  0  0  0  0  0  0  0  0  0
   -5.2387    0.5592  -21.7540 C   0  0  0  0  0  0  0  0  0  0  0  0
   -5.5553    0.0915  -20.4458 C   0  0  0  0  0  0  0  0  0  0  0  0
   -5.7892    0.2000  -22.6242 H   0  0  0  0  0  0  0  0  0  0  0  0
   -4.0479    1.8992  -22.9184 H   0  0  0  0  0  0  0  0  0  0  0  0
   -2.6222    2.6113  -21.0238 H   0  0  0  0  0  0  0  0  0  0  0  0
   -3.0830    1.7562  -18.7481 H   0  0  0  0  0  0  0  0  0  0  0  0
   -4.6268    0.5925  -17.1917 H   0  0  0  0  0  0  0  0  0  0  0  0
   -7.7208   -1.7409  -18.5801 H   0  0  0  0  0  0  0  0  0  0  0  0
   -7.6556   -0.7718  -22.0305 H   0  0  0  0  0  0  0  0  0  0  0  0
   -8.3434   -1.8893  -20.8441 H   0  0  0  0  0  0  0  0  0  0  0  0
   -8.6563   -2.2849  -24.1686 C   0  0  0  0  0  0  0  0  0  0  0  0
   -9.1150   -2.9259  -23.4203 H   0  0  0  0  0  0  0  0  0  0  0  0
   -5.6326   -1.0980  -25.1545 H   0  0  0  0  0  0  0  0  0  0  0  0
   -7.0716   -0.0218  -26.8580 H   0  0  0  0  0  0  0  0  0  0  0  0
   -9.5204   -0.3320  -26.8245 H   0  0  0  0  0  0  0  0  0  0  0  0
  -11.1657   -2.7988  -24.8117 H   0  0  0  0  0  0  0  0  0  0  0  0
  -13.2045   -2.5353  -25.8968 H   0  0  0  0  0  0  0  0  0  0  0  0
  -13.7710   -0.8942  -26.2541 H   0  0  0  0  0  0  0  0  0  0  0  0
  -14.9818   -1.7403  -24.3162 H   0  0  0  0  0  0  0  0  0  0  0  0
  -13.9419   -0.3928  -23.7915 H   0  0  0  0  0  0  0  0  0  0  0  0
  -13.4695   -2.0675  -23.4390 H   0  0  0  0  0  0  0  0  0  0  0  0
  1  2  1  0
  2  3  1  0
  3  4  2  0
  3  5  1  0
  5  6  1  0
  6  7  2  0
  7  8  1  0
  8  9  2  0
  9 10  1  0
 10 11  1  0
 11 12  1  0
 12 13  1  0
 13 14  2  0
 14 15  1  0
 15 16  2  0
 16 17  1  0
 17 18  2  0
 18 19  1  0
 17 20  1  0
 16 21  1  0
 15 22  1  0
 14 23  1  0
 12 24  1  0
 12 25  1  0
 11 26  1  0
 26 27  2  0
 26 28  1  0
 28 29  1  0
 29 30  2  0
 30 31  1  0
 31 32  2  0
 32 33  1  0
 33 34  2  0
 34 35  1  0
 35 36  2  0
 36 37  1  0
 37 38  2  0
 37 39  1  0
 36 40  1  0
 35 41  1  0
 34 42  1  0
 32 43  1  0
 30 44  1  0
 28 45  1  0
 28 46  1  0
 10 47  2  0
 47 48  1  0
  9 49  1  0
  8 50  1  0
  7 51  1  0
  5 52  1  0
  2 53  1  0
  2 54  1  0
  1 55  1  0
  1 56  1  0
  1 57  1  0
 47  6  1  0
 18 13  1  0
 38 29  1  0
 38 33  1  0
M  END
>  <cnnaffinities>  (50) 
[6.02674, 6.02762, 6.08542, 5.88254, 5.0464, 5.04187, 5.88143, 5.88458, 5.87811]

>  <score>  (50) 
6.02674

>  <index>  (50) 
52

>  <Smiles>  (50) 
C(C(C(=O)N(c1c(c(c(c(N(C(c2c(c(c(c(c2[H])[H])[H])[H])[H])([H])[H])C(=O)C(c2c(nc(c3c(c(c(c(c23)[H])[H])[H])[H])[H])[H])([H])[H])c1[H])[H])[H])[H])[H])([H])[H])([H])([H])[H]

>  <h>  (50) 
<NA>

>  <Training>  (50) 
True

>  <Success>  (50) 
True

>  <enamine_searched>  (50) 
False

>  <enamine_id>  (50) 
nan

$$$$

     RDKit          3D

 59 63  0  0  0  0  0  0  0  0999 V2000
   -8.5023   -6.5852  -26.2486 C   0  0  0  0  0  0  0  0  0  0  0  0
   -8.2842   -5.8766  -27.5789 C   0  0  0  0  0  0  0  0  0  0  0  0
   -8.4054   -4.4327  -27.4668 N   0  0  0  0  0  0  0  0  0  0  0  0
   -7.4239   -3.7076  -26.8796 C   0  0  0  0  0  0  0  0  0  0  0  0
   -6.4321   -4.2180  -26.3757 O   0  0  0  0  0  0  0  0  0  0  0  0
   -7.6539   -2.1988  -26.8675 C   0  0  0  0  0  0  0  0  0  0  0  0
   -8.4980   -1.8233  -25.7393 N   0  0  0  0  0  0  0  0  0  0  0  0
   -7.9169   -1.3154  -24.4937 C   0  0  0  0  0  0  0  0  0  0  0  0
   -8.7749   -1.5931  -23.2165 C   0  0  2  0  0  0  0  0  0  0  0  0
   -8.2353   -0.6407  -22.1356 C   0  0  0  0  0  0  0  0  0  0  0  0
   -8.3712    0.5656  -22.1104 O   0  0  0  0  0  0  0  0  0  0  0  0
   -7.4821   -1.3617  -21.2295 N   0  0  0  0  0  0  0  0  0  0  0  0
   -6.6936   -0.7702  -20.2119 C   0  0  0  0  0  0  0  0  0  0  0  0
   -6.9389   -1.1029  -18.9020 C   0  0  0  0  0  0  0  0  0  0  0  0
   -6.2429   -0.6360  -17.8375 N   0  0  0  0  0  0  0  0  0  0  0  0
   -5.2292    0.1583  -18.0873 C   0  0  0  0  0  0  0  0  0  0  0  0
   -4.8476    0.5688  -19.3966 C   0  0  0  0  0  0  0  0  0  0  0  0
   -3.7530    1.4520  -19.5972 C   0  0  0  0  0  0  0  0  0  0  0  0
   -3.4746    1.9392  -20.8445 C   0  0  0  0  0  0  0  0  0  0  0  0
   -4.2478    1.5242  -21.9543 C   0  0  0  0  0  0  0  0  0  0  0  0
   -5.2614    0.6134  -21.7978 C   0  0  0  0  0  0  0  0  0  0  0  0
   -5.6116    0.1277  -20.5023 C   0  0  0  0  0  0  0  0  0  0  0  0
   -5.8163    0.2803  -22.6701 H   0  0  0  0  0  0  0  0  0  0  0  0
   -4.0266    1.9226  -22.9417 H   0  0  0  0  0  0  0  0  0  0  0  0
   -2.6763    2.6619  -20.9899 H   0  0  0  0  0  0  0  0  0  0  0  0
   -3.1589    1.7392  -18.7328 H   0  0  0  0  0  0  0  0  0  0  0  0
   -4.6665    0.5429  -17.2345 H   0  0  0  0  0  0  0  0  0  0  0  0
   -7.7538   -1.7857  -18.6643 H   0  0  0  0  0  0  0  0  0  0  0  0
   -7.4110   -2.7797  -21.5297 C   0  0  0  0  0  0  0  0  0  0  0  0
   -8.5388   -2.9862  -22.5418 C   0  0  2  0  0  0  0  0  0  0  0  0
   -8.3054   -4.1553  -23.4810 C   0  0  0  0  0  0  0  0  0  0  0  0
   -9.1262   -4.2454  -24.2005 H   0  0  0  0  0  0  0  0  0  0  0  0
   -7.3719   -4.0390  -24.0425 H   0  0  0  0  0  0  0  0  0  0  0  0
   -8.2509   -5.0926  -22.9201 H   0  0  0  0  0  0  0  0  0  0  0  0
   -9.4513   -3.1751  -21.9611 H   0  0  0  0  0  0  0  0  0  0  0  0
   -6.4279   -3.0460  -21.9431 H   0  0  0  0  0  0  0  0  0  0  0  0
   -7.5577   -3.3770  -20.6243 H   0  0  0  0  0  0  0  0  0  0  0  0
  -10.2469   -1.3741  -23.5294 C   0  0  0  0  0  0  0  0  0  0  0  0
  -11.1958   -1.2515  -22.5000 C   0  0  0  0  0  0  0  0  0  0  0  0
  -12.5468   -1.2091  -22.8147 C   0  0  0  0  0  0  0  0  0  0  0  0
  -13.7524   -1.3332  -21.5523 Cl  0  0  0  0  0  0  0  0  0  0  0  0
  -12.9938   -1.1213  -24.1338 C   0  0  0  0  0  0  0  0  0  0  0  0
  -12.0679   -1.2314  -25.1514 C   0  0  0  0  0  0  0  0  0  0  0  0
  -10.7235   -1.4469  -24.8444 C   0  0  0  0  0  0  0  0  0  0  0  0
   -9.8366   -1.8585  -25.9666 C   0  0  0  0  0  0  0  0  0  0  0  0
  -10.3064   -2.2349  -27.0482 O   0  0  0  0  0  0  0  0  0  0  0  0
  -12.3498   -1.1762  -26.2025 H   0  0  0  0  0  0  0  0  0  0  0  0
  -14.0495   -1.0021  -24.3434 H   0  0  0  0  0  0  0  0  0  0  0  0
  -10.9169   -1.1931  -21.4546 H   0  0  0  0  0  0  0  0  0  0  0  0
   -7.7769   -0.2278  -24.5714 H   0  0  0  0  0  0  0  0  0  0  0  0
   -6.9192   -1.7549  -24.3719 H   0  0  0  0  0  0  0  0  0  0  0  0
   -8.1744   -1.9072  -27.7837 H   0  0  0  0  0  0  0  0  0  0  0  0
   -6.7000   -1.6744  -26.8095 H   0  0  0  0  0  0  0  0  0  0  0  0
   -9.2828   -3.9735  -27.6626 H   0  0  0  0  0  0  0  0  0  0  0  0
   -8.9996   -6.2197  -28.3362 H   0  0  0  0  0  0  0  0  0  0  0  0
   -7.2751   -6.0930  -27.9443 H   0  0  0  0  0  0  0  0  0  0  0  0
   -7.7486   -6.2551  -25.5289 H   0  0  0  0  0  0  0  0  0  0  0  0
   -9.4926   -6.3628  -25.8415 H   0  0  0  0  0  0  0  0  0  0  0  0
   -8.4153   -7.6681  -26.3672 H   0  0  0  0  0  0  0  0  0  0  0  0
  1  2  1  0
  2  3  1  0
  3  4  1  0
  4  5  2  0
  4  6  1  0
  6  7  1  0
  7  8  1  0
  9  8  1  6
  9 10  1  0
 10 11  2  0
 10 12  1  0
 12 13  1  0
 13 14  2  0
 14 15  1  0
 15 16  2  0
 16 17  1  0
 17 18  2  0
 18 19  1  0
 19 20  2  0
 20 21  1  0
 21 22  2  0
 21 23  1  0
 20 24  1  0
 19 25  1  0
 18 26  1  0
 16 27  1  0
 14 28  1  0
 12 29  1  0
 29 30  1  0
 30 31  1  0
 31 32  1  0
 31 33  1  0
 31 34  1  0
 30 35  1  1
 29 36  1  0
 29 37  1  0
  9 38  1  0
 38 39  2  0
 39 40  1  0
 40 41  1  0
 40 42  2  0
 42 43  1  0
 43 44  2  0
 44 45  1  0
 45 46  2  0
 43 47  1  0
 42 48  1  0
 39 49  1  0
  8 50  1  0
  8 51  1  0
  6 52  1  0
  6 53  1  0
  3 54  1  0
  2 55  1  0
  2 56  1  0
  1 57  1  0
  1 58  1  0
  1 59  1  0
 45  7  1  0
 30  9  1  0
 44 38  1  0
 22 13  1  0
 22 17  1  0
M  END
>  <cnnaffinities>  (51) 
[5.98632, 5.94296, 6.04449]

>  <score>  (51) 
5.98632

>  <index>  (51) 
53

>  <Smiles>  (51) 
C(C(N(C(=O)C(N1C([C@@]2(C(=O)N(c3c(nc(c4c(c(c(c(c34)[H])[H])[H])[H])[H])[H])C([C@@]2(C([H])([H])[H])[H])([H])[H])c2c(c(Cl)c(c(c2C1=O)[H])[H])[H])([H])[H])([H])[H])[H])([H])[H])([H])([H])[H]

>  <h>  (51) 
<NA>

>  <Training>  (51) 
True

>  <Success>  (51) 
True

>  <enamine_searched>  (51) 
False

>  <enamine_id>  (51) 
nan

$$$$

     RDKit          3D

 40 43  0  0  0  0  0  0  0  0999 V2000
   -9.4111   -3.8825  -22.7387 C   0  0  0  0  0  0  0  0  0  0  0  0
   -8.6758   -2.7069  -22.3343 N   0  0  0  0  0  0  0  0  0  0  0  0
   -8.6773   -1.4533  -22.8681 C   0  0  0  0  0  0  0  0  0  0  0  0
   -9.5467   -1.0736  -24.0138 C   0  0  0  0  0  0  0  0  0  0  0  0
  -10.9810   -0.8519  -23.5728 C   0  0  0  0  0  0  0  0  0  0  0  0
  -11.2931    0.2944  -22.8454 C   0  0  0  0  0  0  0  0  0  0  0  0
  -12.5941    0.5258  -22.4084 C   0  0  0  0  0  0  0  0  0  0  0  0
  -13.6002   -0.3998  -22.6780 C   0  0  0  0  0  0  0  0  0  0  0  0
  -13.2982   -1.5511  -23.4015 C   0  0  0  0  0  0  0  0  0  0  0  0
  -11.9937   -1.7717  -23.8461 C   0  0  0  0  0  0  0  0  0  0  0  0
  -11.7604   -2.6769  -24.4067 H   0  0  0  0  0  0  0  0  0  0  0  0
  -14.0785   -2.2799  -23.6135 H   0  0  0  0  0  0  0  0  0  0  0  0
  -14.6133   -0.2235  -22.3175 H   0  0  0  0  0  0  0  0  0  0  0  0
  -12.8156    1.4260  -21.8379 H   0  0  0  0  0  0  0  0  0  0  0  0
  -10.4978    1.0011  -22.6142 H   0  0  0  0  0  0  0  0  0  0  0  0
   -9.1187   -0.1611  -24.4350 H   0  0  0  0  0  0  0  0  0  0  0  0
   -9.5184   -1.8341  -24.8040 H   0  0  0  0  0  0  0  0  0  0  0  0
   -7.9191   -0.6351  -22.1943 N   0  0  0  0  0  0  0  0  0  0  0  0
   -7.3954   -1.3963  -21.1808 N   0  0  0  0  0  0  0  0  0  0  0  0
   -6.6148   -0.8251  -20.1543 C   0  0  0  0  0  0  0  0  0  0  0  0
   -6.9133   -1.0829  -18.8348 C   0  0  0  0  0  0  0  0  0  0  0  0
   -6.2231   -0.5701  -17.7904 N   0  0  0  0  0  0  0  0  0  0  0  0
   -5.1994    0.1969  -18.0776 C   0  0  0  0  0  0  0  0  0  0  0  0
   -4.8023    0.5645  -19.3914 C   0  0  0  0  0  0  0  0  0  0  0  0
   -3.6814    1.4025  -19.6199 C   0  0  0  0  0  0  0  0  0  0  0  0
   -3.3643    1.8084  -20.8862 C   0  0  0  0  0  0  0  0  0  0  0  0
   -4.1665    1.4013  -21.9803 C   0  0  0  0  0  0  0  0  0  0  0  0
   -5.1545    0.4653  -21.7997 C   0  0  0  0  0  0  0  0  0  0  0  0
   -5.5428    0.0634  -20.4851 C   0  0  0  0  0  0  0  0  0  0  0  0
   -5.6432    0.0069  -22.6551 H   0  0  0  0  0  0  0  0  0  0  0  0
   -3.9566    1.7895  -22.9785 H   0  0  0  0  0  0  0  0  0  0  0  0
   -2.4839    2.4228  -21.0634 H   0  0  0  0  0  0  0  0  0  0  0  0
   -3.0863    1.6859  -18.7558 H   0  0  0  0  0  0  0  0  0  0  0  0
   -4.6404    0.5976  -17.2357 H   0  0  0  0  0  0  0  0  0  0  0  0
   -7.7565   -1.7230  -18.5843 H   0  0  0  0  0  0  0  0  0  0  0  0
   -7.8405   -2.7072  -21.2302 C   0  0  0  0  0  0  0  0  0  0  0  0
   -7.5586   -3.6407  -20.5051 O   0  0  0  0  0  0  0  0  0  0  0  0
   -9.4335   -3.9482  -23.8330 H   0  0  0  0  0  0  0  0  0  0  0  0
  -10.4342   -3.8457  -22.3414 H   0  0  0  0  0  0  0  0  0  0  0  0
   -8.8610   -4.7263  -22.3106 H   0  0  0  0  0  0  0  0  0  0  0  0
  1  2  1  0
  2  3  1  0
  3  4  1  0
  4  5  1  0
  5  6  2  0
  6  7  1  0
  7  8  2  0
  8  9  1  0
  9 10  2  0
 10 11  1  0
  9 12  1  0
  8 13  1  0
  7 14  1  0
  6 15  1  0
  4 16  1  0
  4 17  1  0
  3 18  2  0
 18 19  1  0
 19 20  1  0
 20 21  2  0
 21 22  1  0
 22 23  2  0
 23 24  1  0
 24 25  2  0
 25 26  1  0
 26 27  2  0
 27 28  1  0
 28 29  2  0
 28 30  1  0
 27 31  1  0
 26 32  1  0
 25 33  1  0
 23 34  1  0
 21 35  1  0
 19 36  1  0
 36 37  2  0
  1 38  1  0
  1 39  1  0
  1 40  1  0
 36  2  1  0
 10  5  1  0
 29 20  1  0
 29 24  1  0
M  END
>  <cnnaffinities>  (52) 
[5.23086, 5.22527]

>  <score>  (52) 
5.23086

>  <index>  (52) 
54

>  <Smiles>  (52) 
C(n1c(C(c2c(c(c(c(c2[H])[H])[H])[H])[H])([H])[H])nn(c2c(nc(c3c(c(c(c(c23)[H])[H])[H])[H])[H])[H])c1=O)([H])([H])[H]

>  <h>  (52) 
<NA>

>  <Training>  (52) 
True

>  <Success>  (52) 
True

>  <enamine_searched>  (52) 
False

>  <enamine_id>  (52) 
nan

$$$$

     RDKit          3D

 61 66  0  0  0  0  0  0  0  0999 V2000
   -7.0132   -5.4644  -25.0478 C   0  0  0  0  0  0  0  0  0  0  0  0
   -7.3596   -4.8122  -23.8512 O   0  0  0  0  0  0  0  0  0  0  0  0
   -7.9944   -3.5783  -24.0818 C   0  0  0  0  0  0  0  0  0  0  0  0
   -8.2907   -2.9176  -22.7371 C   0  0  1  0  0  0  0  0  0  0  0  0
   -7.0114   -2.5564  -21.9579 C   0  0  0  0  0  0  0  0  0  0  0  0
   -7.3986   -1.3841  -21.1930 N   0  0  0  0  0  0  0  0  0  0  0  0
   -6.6203   -0.8018  -20.1618 C   0  0  0  0  0  0  0  0  0  0  0  0
   -6.9218   -1.0577  -18.8490 C   0  0  0  0  0  0  0  0  0  0  0  0
   -6.2155   -0.5775  -17.7960 N   0  0  0  0  0  0  0  0  0  0  0  0
   -5.2005    0.2110  -18.0598 C   0  0  0  0  0  0  0  0  0  0  0  0
   -4.7928    0.5774  -19.3753 C   0  0  0  0  0  0  0  0  0  0  0  0
   -3.6792    1.4259  -19.6165 C   0  0  0  0  0  0  0  0  0  0  0  0
   -3.3815    1.8366  -20.8861 C   0  0  0  0  0  0  0  0  0  0  0  0
   -4.1573    1.3869  -21.9750 C   0  0  0  0  0  0  0  0  0  0  0  0
   -5.1421    0.4468  -21.7825 C   0  0  0  0  0  0  0  0  0  0  0  0
   -5.5221    0.0578  -20.4692 C   0  0  0  0  0  0  0  0  0  0  0  0
   -5.6828    0.0484  -22.6372 H   0  0  0  0  0  0  0  0  0  0  0  0
   -3.9600    1.7905  -22.9685 H   0  0  0  0  0  0  0  0  0  0  0  0
   -2.5380    2.5014  -21.0643 H   0  0  0  0  0  0  0  0  0  0  0  0
   -3.0924    1.7581  -18.7661 H   0  0  0  0  0  0  0  0  0  0  0  0
   -4.6241    0.5869  -17.2120 H   0  0  0  0  0  0  0  0  0  0  0  0
   -7.7761   -1.6864  -18.6062 H   0  0  0  0  0  0  0  0  0  0  0  0
   -8.5929   -0.8177  -21.5753 C   0  0  0  0  0  0  0  0  0  0  0  0
   -9.0949    0.1523  -21.0468 O   0  0  0  0  0  0  0  0  0  0  0  0
   -9.1358   -1.6124  -22.7846 C   0  0  1  0  0  0  0  0  0  0  0  0
   -8.8659   -0.8299  -24.0913 C   0  0  0  0  0  0  0  0  0  0  0  0
   -9.6868    0.3587  -24.1930 N   0  0  0  0  0  0  0  0  0  0  0  0
   -9.0615    1.5863  -24.6538 C   0  0  0  0  0  0  0  0  0  0  0  0
   -8.2629    2.2807  -23.5927 C   0  0  0  0  0  0  0  0  0  0  0  0
   -6.9238    2.4025  -23.4288 C   0  0  0  0  0  0  0  0  0  0  0  0
   -6.7129    3.1653  -22.3001 N   0  0  0  0  0  4  0  0  0  0  0  0
   -7.8887    3.5203  -21.7833 C   0  0  0  0  0  0  0  0  0  0  0  0
   -8.8514    2.9874  -22.5547 N   0  0  0  0  0  0  0  0  0  0  0  0
   -9.8232    2.9213  -22.2697 H   0  0  0  0  0  0  0  0  0  0  0  0
   -8.0161    4.1790  -20.9347 H   0  0  0  0  0  0  0  0  0  0  0  0
   -5.8199    3.2324  -21.8356 H   0  0  0  0  0  0  0  0  0  0  0  0
   -6.0818    2.0009  -23.9768 H   0  0  0  0  0  0  0  0  0  0  0  0
   -9.8657    2.2269  -25.0312 H   0  0  0  0  0  0  0  0  0  0  0  0
   -8.4128    1.3421  -25.5017 H   0  0  0  0  0  0  0  0  0  0  0  0
  -11.0383    0.3098  -24.0025 C   0  0  0  0  0  0  0  0  0  0  0  0
  -11.7938    1.1864  -24.3997 O   0  0  0  0  0  0  0  0  0  0  0  0
  -11.5293   -0.8882  -23.2472 C   0  0  0  0  0  0  0  0  0  0  0  0
  -12.9067   -1.0368  -23.0967 C   0  0  0  0  0  0  0  0  0  0  0  0
  -13.4210   -2.0405  -22.3028 C   0  0  0  0  0  0  0  0  0  0  0  0
  -12.5274   -2.8916  -21.6547 C   0  0  0  0  0  0  0  0  0  0  0  0
  -13.1439   -4.1209  -20.5915 Cl  0  0  0  0  0  0  0  0  0  0  0  0
  -11.1602   -2.7781  -21.8204 C   0  0  0  0  0  0  0  0  0  0  0  0
  -10.6339   -1.7891  -22.6539 C   0  0  0  0  0  0  0  0  0  0  0  0
  -10.5137   -3.4534  -21.2717 H   0  0  0  0  0  0  0  0  0  0  0  0
  -14.4884   -2.1595  -22.1532 H   0  0  0  0  0  0  0  0  0  0  0  0
  -13.5531   -0.3286  -23.6011 H   0  0  0  0  0  0  0  0  0  0  0  0
   -9.0737   -1.4906  -24.9424 H   0  0  0  0  0  0  0  0  0  0  0  0
   -7.8145   -0.5290  -24.1418 H   0  0  0  0  0  0  0  0  0  0  0  0
   -6.1758   -2.3402  -22.6392 H   0  0  0  0  0  0  0  0  0  0  0  0
   -6.6947   -3.3648  -21.2939 H   0  0  0  0  0  0  0  0  0  0  0  0
   -8.8382   -3.6570  -22.1532 H   0  0  0  0  0  0  0  0  0  0  0  0
   -8.9277   -3.7317  -24.6514 H   0  0  0  0  0  0  0  0  0  0  0  0
   -7.3439   -2.9240  -24.6900 H   0  0  0  0  0  0  0  0  0  0  0  0
   -6.5437   -6.4148  -24.7830 H   0  0  0  0  0  0  0  0  0  0  0  0
   -7.8951   -5.6727  -25.6753 H   0  0  0  0  0  0  0  0  0  0  0  0
   -6.2979   -4.8763  -25.6457 H   0  0  0  0  0  0  0  0  0  0  0  0
  1  2  1  0
  2  3  1  0
  3  4  1  0
  4  5  1  0
  5  6  1  0
  6  7  1  0
  7  8  2  0
  8  9  1  0
  9 10  2  0
 10 11  1  0
 11 12  2  0
 12 13  1  0
 13 14  2  0
 14 15  1  0
 15 16  2  0
 15 17  1  0
 14 18  1  0
 13 19  1  0
 12 20  1  0
 10 21  1  0
  8 22  1  0
  6 23  1  0
 23 24  2  0
 23 25  1  0
 25 26  1  6
 26 27  1  0
 27 28  1  0
 28 29  1  0
 29 30  2  0
 30 31  1  0
 31 32  2  0
 32 33  1  0
 33 34  1  0
 32 35  1  0
 31 36  1  0
 30 37  1  0
 28 38  1  0
 28 39  1  0
 27 40  1  0
 40 41  2  0
 40 42  1  0
 42 43  2  0
 43 44  1  0
 44 45  2  0
 45 46  1  0
 45 47  1  0
 47 48  2  0
 47 49  1  0
 44 50  1  0
 43 51  1  0
 26 52  1  0
 26 53  1  0
  5 54  1  0
  5 55  1  0
  4 56  1  1
  3 57  1  0
  3 58  1  0
  1 59  1  0
  1 60  1  0
  1 61  1  0
 25  4  1  0
 33 29  1  0
 48 42  1  0
 16  7  1  0
 48 25  1  0
 16 11  1  0
M  CHG  1  31   1
M  END
>  <cnnaffinities>  (53) 
[5.99763]

>  <score>  (53) 
5.99763

>  <index>  (53) 
55

>  <Smiles>  (53) 
C(OC([C@]1(C(N(c2c(nc(c3c(c(c(c(c23)[H])[H])[H])[H])[H])[H])C(=O)[C@]21C(N(C(c1c([n+](c(n1[H])[H])[H])[H])([H])[H])C(=O)c1c(c(c(Cl)c(c21)[H])[H])[H])([H])[H])([H])[H])[H])([H])[H])([H])([H])[H]

>  <h>  (53) 
<NA>

>  <Training>  (53) 
True

>  <Success>  (53) 
True

>  <enamine_searched>  (53) 
False

>  <enamine_id>  (53) 
nan

$$$$

     RDKit          3D

 57 62  0  0  0  0  0  0  0  0999 V2000
   -8.2782   -4.1532  -23.4800 C   0  0  0  0  0  0  0  0  0  0  0  0
   -8.5217   -2.9995  -22.5230 C   0  0  1  0  0  0  0  0  0  0  0  0
   -7.3897   -2.8072  -21.5031 C   0  0  0  0  0  0  0  0  0  0  0  0
   -7.4443   -1.3877  -21.2008 N   0  0  0  0  0  0  0  0  0  0  0  0
   -6.6620   -0.7883  -20.1840 C   0  0  0  0  0  0  0  0  0  0  0  0
   -6.9167   -1.0979  -18.8719 C   0  0  0  0  0  0  0  0  0  0  0  0
   -6.2275   -0.6108  -17.8125 N   0  0  0  0  0  0  0  0  0  0  0  0
   -5.2170    0.1838  -18.0729 C   0  0  0  0  0  0  0  0  0  0  0  0
   -4.8310    0.5756  -19.3862 C   0  0  0  0  0  0  0  0  0  0  0  0
   -3.7206    1.4337  -19.6043 C   0  0  0  0  0  0  0  0  0  0  0  0
   -3.4311    1.8887  -20.8594 C   0  0  0  0  0  0  0  0  0  0  0  0
   -4.2230    1.4824  -21.9577 C   0  0  0  0  0  0  0  0  0  0  0  0
   -5.2191    0.5557  -21.7941 C   0  0  0  0  0  0  0  0  0  0  0  0
   -5.5873    0.1104  -20.4880 C   0  0  0  0  0  0  0  0  0  0  0  0
   -5.7659    0.2089  -22.6677 H   0  0  0  0  0  0  0  0  0  0  0  0
   -4.0205    1.8984  -22.9391 H   0  0  0  0  0  0  0  0  0  0  0  0
   -2.6357    2.6117  -21.0112 H   0  0  0  0  0  0  0  0  0  0  0  0
   -3.1156    1.7181  -18.7462 H   0  0  0  0  0  0  0  0  0  0  0  0
   -4.6435    0.5597  -17.2243 H   0  0  0  0  0  0  0  0  0  0  0  0
   -7.7488   -1.7593  -18.6335 H   0  0  0  0  0  0  0  0  0  0  0  0
   -8.1621   -0.6528  -22.1187 C   0  0  0  0  0  0  0  0  0  0  0  0
   -8.2847    0.5567  -22.0830 O   0  0  0  0  0  0  0  0  0  0  0  0
   -8.7398   -1.5932  -23.1894 C   0  0  1  0  0  0  0  0  0  0  0  0
   -7.9515   -1.3202  -24.4936 C   0  0  0  0  0  0  0  0  0  0  0  0
   -8.5922   -1.8872  -25.6773 N   0  0  0  0  0  0  0  0  0  0  0  0
   -7.7814   -2.3047  -26.8096 C   0  0  0  0  0  0  0  0  0  0  0  0
   -7.6818   -3.8114  -26.8630 C   0  0  0  0  0  0  0  0  0  0  0  0
   -8.7733   -4.4933  -27.2408 N   0  0  0  0  0  0  0  0  0  0  0  0
   -8.6291   -5.8119  -27.3605 C   0  0  0  0  0  0  0  0  0  0  0  0
   -7.4369   -6.4617  -27.0695 C   0  0  0  0  0  0  0  0  0  0  0  0
   -6.3930   -5.6576  -26.6488 C   0  0  0  0  0  0  0  0  0  0  0  0
   -6.5058   -4.3321  -26.5130 N   0  0  0  0  0  0  0  0  0  0  0  0
   -5.4159   -6.0856  -26.4290 H   0  0  0  0  0  0  0  0  0  0  0  0
   -7.3319   -7.5411  -27.1626 H   0  0  0  0  0  0  0  0  0  0  0  0
   -9.4909   -6.3810  -27.7145 H   0  0  0  0  0  0  0  0  0  0  0  0
   -6.7785   -1.8745  -26.7237 H   0  0  0  0  0  0  0  0  0  0  0  0
   -8.2772   -1.9337  -27.7156 H   0  0  0  0  0  0  0  0  0  0  0  0
   -9.9293   -1.7392  -25.9298 C   0  0  0  0  0  0  0  0  0  0  0  0
  -10.4129   -1.8898  -27.0412 O   0  0  0  0  0  0  0  0  0  0  0  0
  -10.7562   -1.4057  -24.7491 C   0  0  0  0  0  0  0  0  0  0  0  0
  -12.1180   -1.2364  -24.9763 C   0  0  0  0  0  0  0  0  0  0  0  0
  -12.9724   -0.9403  -23.9386 C   0  0  0  0  0  0  0  0  0  0  0  0
  -12.4170   -0.8495  -22.6676 C   0  0  0  0  0  0  0  0  0  0  0  0
  -13.2478   -0.6096  -21.6491 F   0  0  0  0  0  0  0  0  0  0  0  0
  -11.0678   -1.0255  -22.4138 C   0  0  0  0  0  0  0  0  0  0  0  0
  -10.2034   -1.3112  -23.4702 C   0  0  0  0  0  0  0  0  0  0  0  0
  -10.6748   -0.9464  -21.4076 H   0  0  0  0  0  0  0  0  0  0  0  0
  -14.0359   -0.7824  -24.0936 H   0  0  0  0  0  0  0  0  0  0  0  0
  -12.4706   -1.3583  -25.9927 H   0  0  0  0  0  0  0  0  0  0  0  0
   -7.8643   -0.2288  -24.6107 H   0  0  0  0  0  0  0  0  0  0  0  0
   -6.9328   -1.7228  -24.4174 H   0  0  0  0  0  0  0  0  0  0  0  0
   -7.5459   -3.3997  -20.5958 H   0  0  0  0  0  0  0  0  0  0  0  0
   -6.4061   -3.0872  -21.9122 H   0  0  0  0  0  0  0  0  0  0  0  0
   -9.4370   -3.1999  -21.9437 H   0  0  0  0  0  0  0  0  0  0  0  0
   -7.3257   -4.0169  -24.0032 H   0  0  0  0  0  0  0  0  0  0  0  0
   -8.2363   -5.1000  -22.9324 H   0  0  0  0  0  0  0  0  0  0  0  0
   -9.0817   -4.2080  -24.2214 H   0  0  0  0  0  0  0  0  0  0  0  0
  1  2  1  0
  2  3  1  0
  3  4  1  0
  4  5  1  0
  5  6  2  0
  6  7  1  0
  7  8  2  0
  8  9  1  0
  9 10  2  0
 10 11  1  0
 11 12  2  0
 12 13  1  0
 13 14  2  0
 13 15  1  0
 12 16  1  0
 11 17  1  0
 10 18  1  0
  8 19  1  0
  6 20  1  0
  4 21  1  0
 21 22  2  0
 21 23  1  0
 23 24  1  6
 24 25  1  0
 25 26  1  0
 26 27  1  0
 27 28  2  0
 28 29  1  0
 29 30  2  0
 30 31  1  0
 31 32  2  0
 31 33  1  0
 30 34  1  0
 29 35  1  0
 26 36  1  0
 26 37  1  0
 25 38  1  0
 38 39  2  0
 38 40  1  0
 40 41  2  0
 41 42  1  0
 42 43  2  0
 43 44  1  0
 43 45  1  0
 45 46  2  0
 45 47  1  0
 42 48  1  0
 41 49  1  0
 24 50  1  0
 24 51  1  0
  3 52  1  0
  3 53  1  0
  2 54  1  1
  1 55  1  0
  1 56  1  0
  1 57  1  0
 23  2  1  0
 32 27  1  0
 46 40  1  0
 14  5  1  0
 46 23  1  0
 14  9  1  0
M  END
>  <cnnaffinities>  (54) 
[5.93274, 5.91969]

>  <score>  (54) 
5.93274

>  <index>  (54) 
56

>  <Smiles>  (54) 
C([C@]1(C(N(c2c(nc(c3c(c(c(c(c23)[H])[H])[H])[H])[H])[H])C(=O)[C@]21C(N(C(c1nc(c(c(n1)[H])[H])[H])([H])[H])C(=O)c1c(c(c(F)c(c21)[H])[H])[H])([H])[H])([H])[H])[H])([H])([H])[H]

>  <h>  (54) 
<NA>

>  <Training>  (54) 
True

>  <Success>  (54) 
True

>  <enamine_searched>  (54) 
False

>  <enamine_id>  (54) 
nan

$$$$

     RDKit          3D

 59 63  0  0  0  0  0  0  0  0999 V2000
   -7.4915   -6.0262  -26.9685 C   0  0  0  0  0  0  0  0  0  0  0  0
   -7.7291   -4.6151  -27.1657 N   0  0  0  0  0  0  0  0  0  0  0  0
   -6.8148   -3.7140  -26.7343 C   0  0  0  0  0  0  0  0  0  0  0  0
   -5.7501   -4.0153  -26.2172 O   0  0  0  0  0  0  0  0  0  0  0  0
   -7.2523   -2.2561  -26.8854 C   0  0  0  0  0  0  0  0  0  0  0  0
   -8.2084   -1.8966  -25.8443 N   0  0  0  0  0  0  0  0  0  0  0  0
   -7.7199   -1.4055  -24.5578 C   0  0  0  0  0  0  0  0  0  0  0  0
   -8.6721   -1.6532  -23.3397 C   0  0  2  0  0  0  0  0  0  0  0  0
   -8.1871   -0.6800  -22.2393 C   0  0  0  0  0  0  0  0  0  0  0  0
   -8.3889    0.5204  -22.2103 O   0  0  0  0  0  0  0  0  0  0  0  0
   -7.4439   -1.3729  -21.3046 N   0  0  0  0  0  0  0  0  0  0  0  0
   -6.6905   -0.7716  -20.2576 C   0  0  0  0  0  0  0  0  0  0  0  0
   -6.9327   -1.1433  -18.9574 C   0  0  0  0  0  0  0  0  0  0  0  0
   -6.2418   -0.6930  -17.8810 N   0  0  0  0  0  0  0  0  0  0  0  0
   -5.2521    0.1363  -18.1061 C   0  0  0  0  0  0  0  0  0  0  0  0
   -4.8817    0.5997  -19.3989 C   0  0  0  0  0  0  0  0  0  0  0  0
   -3.8116    1.5165  -19.5805 C   0  0  0  0  0  0  0  0  0  0  0  0
   -3.5521    2.0373  -20.8153 C   0  0  0  0  0  0  0  0  0  0  0  0
   -4.3195    1.6362  -21.9306 C   0  0  0  0  0  0  0  0  0  0  0  0
   -5.3339    0.7280  -21.7842 C   0  0  0  0  0  0  0  0  0  0  0  0
   -5.6451    0.1797  -20.5102 C   0  0  0  0  0  0  0  0  0  0  0  0
   -5.9233    0.4365  -22.6436 H   0  0  0  0  0  0  0  0  0  0  0  0
   -4.1199    2.0601  -22.9101 H   0  0  0  0  0  0  0  0  0  0  0  0
   -2.7530    2.7595  -20.9466 H   0  0  0  0  0  0  0  0  0  0  0  0
   -3.2182    1.7977  -18.7132 H   0  0  0  0  0  0  0  0  0  0  0  0
   -4.6887    0.4961  -17.2446 H   0  0  0  0  0  0  0  0  0  0  0  0
   -7.7604   -1.8213  -18.7479 H   0  0  0  0  0  0  0  0  0  0  0  0
   -7.2971   -2.7797  -21.6426 C   0  0  0  0  0  0  0  0  0  0  0  0
   -8.4840   -3.0567  -22.5946 C   0  0  0  0  0  0  0  0  0  0  0  0
   -8.1959   -4.2594  -23.4966 C   0  0  0  0  0  0  0  0  0  0  0  0
   -9.0231   -4.4321  -24.1937 H   0  0  0  0  0  0  0  0  0  0  0  0
   -7.2710   -4.1422  -24.0737 H   0  0  0  0  0  0  0  0  0  0  0  0
   -8.0794   -5.1599  -22.8826 H   0  0  0  0  0  0  0  0  0  0  0  0
   -9.7095   -3.3500  -21.7148 C   0  0  0  0  0  0  0  0  0  0  0  0
   -9.5099   -4.2083  -21.0701 H   0  0  0  0  0  0  0  0  0  0  0  0
  -10.5893   -3.5691  -22.3245 H   0  0  0  0  0  0  0  0  0  0  0  0
   -9.9441   -2.4985  -21.0692 H   0  0  0  0  0  0  0  0  0  0  0  0
   -6.3208   -2.9707  -22.1210 H   0  0  0  0  0  0  0  0  0  0  0  0
   -7.3451   -3.3860  -20.7325 H   0  0  0  0  0  0  0  0  0  0  0  0
  -10.0828   -1.3256  -23.8123 C   0  0  0  0  0  0  0  0  0  0  0  0
  -11.0295   -0.6853  -22.9967 C   0  0  0  0  0  0  0  0  0  0  0  0
  -12.3167   -0.4792  -23.4645 C   0  0  0  0  0  0  0  0  0  0  0  0
  -13.4548    0.4492  -22.5419 Cl  0  0  0  0  0  0  0  0  0  0  0  0
  -12.7413   -0.9635  -24.6989 C   0  0  0  0  0  0  0  0  0  0  0  0
  -11.8178   -1.5822  -25.5149 C   0  0  0  0  0  0  0  0  0  0  0  0
  -10.4925   -1.6944  -25.1004 C   0  0  0  0  0  0  0  0  0  0  0  0
   -9.5117   -2.1692  -26.1011 C   0  0  0  0  0  0  0  0  0  0  0  0
   -9.8670   -2.7634  -27.1268 O   0  0  0  0  0  0  0  0  0  0  0  0
  -12.0847   -1.9574  -26.5001 H   0  0  0  0  0  0  0  0  0  0  0  0
  -13.7696   -0.8099  -25.0105 H   0  0  0  0  0  0  0  0  0  0  0  0
  -10.7448   -0.3303  -22.0141 H   0  0  0  0  0  0  0  0  0  0  0  0
   -6.7459   -1.8666  -24.3662 H   0  0  0  0  0  0  0  0  0  0  0  0
   -7.5579   -0.3205  -24.6074 H   0  0  0  0  0  0  0  0  0  0  0  0
   -7.7484   -2.1122  -27.8493 H   0  0  0  0  0  0  0  0  0  0  0  0
   -6.3635   -1.6248  -26.8416 H   0  0  0  0  0  0  0  0  0  0  0  0
   -8.6468   -4.2697  -27.4261 H   0  0  0  0  0  0  0  0  0  0  0  0
   -8.3802   -6.5848  -27.2640 H   0  0  0  0  0  0  0  0  0  0  0  0
   -7.2609   -6.2413  -25.9190 H   0  0  0  0  0  0  0  0  0  0  0  0
   -6.6429   -6.3619  -27.5687 H   0  0  0  0  0  0  0  0  0  0  0  0
  1  2  1  0
  2  3  1  0
  3  4  2  0
  3  5  1  0
  5  6  1  0
  6  7  1  0
  8  7  1  6
  8  9  1  0
  9 10  2  0
  9 11  1  0
 11 12  1  0
 12 13  2  0
 13 14  1  0
 14 15  2  0
 15 16  1  0
 16 17  2  0
 17 18  1  0
 18 19  2  0
 19 20  1  0
 20 21  2  0
 20 22  1  0
 19 23  1  0
 18 24  1  0
 17 25  1  0
 15 26  1  0
 13 27  1  0
 11 28  1  0
 28 29  1  0
 29 30  1  0
 30 31  1  0
 30 32  1  0
 30 33  1  0
 29 34  1  0
 34 35  1  0
 34 36  1  0
 34 37  1  0
 28 38  1  0
 28 39  1  0
  8 40  1  0
 40 41  2  0
 41 42  1  0
 42 43  1  0
 42 44  2  0
 44 45  1  0
 45 46  2  0
 46 47  1  0
 47 48  2  0
 45 49  1  0
 44 50  1  0
 41 51  1  0
  7 52  1  0
  7 53  1  0
  5 54  1  0
  5 55  1  0
  2 56  1  0
  1 57  1  0
  1 58  1  0
  1 59  1  0
 47  6  1  0
 29  8  1  0
 46 40  1  0
 21 12  1  0
 21 16  1  0
M  END
>  <cnnaffinities>  (55) 
[5.86173, 5.83626]

>  <score>  (55) 
5.86173

>  <index>  (55) 
57

>  <Smiles>  (55) 
C(N(C(=O)C(N1C([C@@]2(C(=O)N(c3c(nc(c4c(c(c(c(c34)[H])[H])[H])[H])[H])[H])C(C2(C([H])([H])[H])C([H])([H])[H])([H])[H])c2c(c(Cl)c(c(c2C1=O)[H])[H])[H])([H])[H])([H])[H])[H])([H])([H])[H]

>  <h>  (55) 
<NA>

>  <Training>  (55) 
True

>  <Success>  (55) 
True

>  <enamine_searched>  (55) 
False

>  <enamine_id>  (55) 
nan

$$$$

     RDKit          3D

 42 45  0  0  0  0  0  0  0  0999 V2000
   -7.3454   -5.2433  -21.5605 C   0  0  0  0  0  0  0  0  0  0  0  0
   -8.0248   -4.2286  -22.3576 N   0  0  0  0  0  0  0  0  0  0  0  0
   -9.2924   -3.6492  -21.9328 C   0  0  0  0  0  0  0  0  0  0  0  0
   -9.4160   -2.1648  -22.2855 C   0  0  1  0  0  0  0  0  0  0  0  0
   -8.6835   -1.1813  -21.3761 C   0  0  0  0  0  0  0  0  0  0  0  0
   -9.2428   -0.2111  -20.8915 O   0  0  0  0  0  0  0  0  0  0  0  0
   -7.3482   -1.4200  -21.1982 N   0  0  0  0  0  0  0  0  0  0  0  0
   -6.6198   -0.8160  -20.1590 C   0  0  0  0  0  0  0  0  0  0  0  0
   -6.9298   -1.0695  -18.8497 C   0  0  0  0  0  0  0  0  0  0  0  0
   -6.2372   -0.5799  -17.7958 N   0  0  0  0  0  0  0  0  0  0  0  0
   -5.1980    0.1745  -18.0613 C   0  0  0  0  0  0  0  0  0  0  0  0
   -4.7890    0.5294  -19.3788 C   0  0  0  0  0  0  0  0  0  0  0  0
   -3.7119    1.4168  -19.6152 C   0  0  0  0  0  0  0  0  0  0  0  0
   -3.4687    1.8837  -20.8774 C   0  0  0  0  0  0  0  0  0  0  0  0
   -4.2598    1.4577  -21.9705 C   0  0  0  0  0  0  0  0  0  0  0  0
   -5.2758    0.5529  -21.7805 C   0  0  0  0  0  0  0  0  0  0  0  0
   -5.5541    0.0713  -20.4713 C   0  0  0  0  0  0  0  0  0  0  0  0
   -5.8738    0.2138  -22.6246 H   0  0  0  0  0  0  0  0  0  0  0  0
   -4.0970    1.9049  -22.9467 H   0  0  0  0  0  0  0  0  0  0  0  0
   -2.6854    2.6188  -21.0430 H   0  0  0  0  0  0  0  0  0  0  0  0
   -3.1209    1.7432  -18.7664 H   0  0  0  0  0  0  0  0  0  0  0  0
   -4.6485    0.5704  -17.2070 H   0  0  0  0  0  0  0  0  0  0  0  0
   -7.7767   -1.7115  -18.6183 H   0  0  0  0  0  0  0  0  0  0  0  0
   -6.8759   -2.1406  -21.7264 H   0  0  0  0  0  0  0  0  0  0  0  0
   -9.0075   -1.9601  -23.7158 C   0  0  0  0  0  0  0  0  0  0  0  0
   -9.5116   -0.8631  -24.4044 C   0  0  0  0  0  0  0  0  0  0  0  0
   -9.0782   -0.6142  -25.6949 C   0  0  0  0  0  0  0  0  0  0  0  0
   -9.6949    0.7783  -26.5271 Cl  0  0  0  0  0  0  0  0  0  0  0  0
   -8.1515   -1.4453  -26.3239 C   0  0  0  0  0  0  0  0  0  0  0  0
   -7.6685   -2.5467  -25.6400 C   0  0  0  0  0  0  0  0  0  0  0  0
   -8.0996   -2.8074  -24.3387 C   0  0  0  0  0  0  0  0  0  0  0  0
   -7.5215   -3.9762  -23.6037 C   0  0  0  0  0  0  0  0  0  0  0  0
   -6.6132   -4.6465  -24.0806 O   0  0  0  0  0  0  0  0  0  0  0  0
   -6.9447   -3.2171  -26.0899 H   0  0  0  0  0  0  0  0  0  0  0  0
   -7.7996   -1.2206  -27.3251 H   0  0  0  0  0  0  0  0  0  0  0  0
  -10.2187   -0.2081  -23.9071 H   0  0  0  0  0  0  0  0  0  0  0  0
  -10.4561   -1.8689  -22.1515 H   0  0  0  0  0  0  0  0  0  0  0  0
  -10.1441   -4.1445  -22.4201 H   0  0  0  0  0  0  0  0  0  0  0  0
   -9.3959   -3.8014  -20.8556 H   0  0  0  0  0  0  0  0  0  0  0  0
   -7.9752   -5.5157  -20.7141 H   0  0  0  0  0  0  0  0  0  0  0  0
   -7.1622   -6.1510  -22.1464 H   0  0  0  0  0  0  0  0  0  0  0  0
   -6.3829   -4.8668  -21.1858 H   0  0  0  0  0  0  0  0  0  0  0  0
  1  2  1  0
  2  3  1  0
  3  4  1  0
  4  5  1  0
  5  6  2  0
  5  7  1  0
  7  8  1  0
  8  9  2  0
  9 10  1  0
 10 11  2  0
 11 12  1  0
 12 13  2  0
 13 14  1  0
 14 15  2  0
 15 16  1  0
 16 17  2  0
 16 18  1  0
 15 19  1  0
 14 20  1  0
 13 21  1  0
 11 22  1  0
  9 23  1  0
  7 24  1  0
  4 25  1  0
 25 26  2  0
 26 27  1  0
 27 28  1  0
 27 29  2  0
 29 30  1  0
 30 31  2  0
 31 32  1  0
 32 33  2  0
 30 34  1  0
 29 35  1  0
 26 36  1  0
  4 37  1  6
  3 38  1  0
  3 39  1  0
  1 40  1  0
  1 41  1  0
  1 42  1  0
 32  2  1  0
 17  8  1  0
 31 25  1  0
 17 12  1  0
M  END
>  <cnnaffinities>  (56) 
[5.04207]

>  <score>  (56) 
5.04207

>  <index>  (56) 
58

>  <Smiles>  (56) 
C(N1C([C@@](C(=O)N(c2c(nc(c3c(c(c(c(c23)[H])[H])[H])[H])[H])[H])[H])(c2c(c(Cl)c(c(c2C1=O)[H])[H])[H])[H])([H])[H])([H])([H])[H]

>  <h>  (56) 
<NA>

>  <Training>  (56) 
True

>  <Success>  (56) 
True

>  <enamine_searched>  (56) 
False

>  <enamine_id>  (56) 
nan

$$$$

     RDKit          3D

 60 65  0  0  0  0  0  0  0  0999 V2000
   -7.3575    3.4198  -21.8906 C   0  0  0  0  0  0  0  0  0  0  0  0
   -8.2578    2.9574  -22.9333 N   0  0  0  0  0  0  0  0  0  0  0  0
   -7.7043    2.2260  -23.9445 C   0  0  0  0  0  0  0  0  0  0  0  0
   -6.5002    2.0477  -24.0495 O   0  0  0  0  0  0  0  0  0  0  0  0
   -8.6856    1.6266  -24.9492 C   0  0  0  0  0  0  0  0  0  0  0  0
   -9.3683    0.4902  -24.3644 N   0  0  0  0  0  0  0  0  0  0  0  0
   -8.6326   -0.7495  -24.1892 C   0  0  0  0  0  0  0  0  0  0  0  0
   -9.0263   -1.4814  -22.8870 C   0  0  2  0  0  0  0  0  0  0  0  0
   -8.5025   -0.7142  -21.6512 C   0  0  0  0  0  0  0  0  0  0  0  0
   -8.9330    0.3164  -21.1706 O   0  0  0  0  0  0  0  0  0  0  0  0
   -7.4138   -1.3900  -21.1586 N   0  0  0  0  0  0  0  0  0  0  0  0
   -6.6230   -0.8033  -20.1436 C   0  0  0  0  0  0  0  0  0  0  0  0
   -6.9270   -1.0559  -18.8327 C   0  0  0  0  0  0  0  0  0  0  0  0
   -6.2227   -0.5785  -17.7805 N   0  0  0  0  0  0  0  0  0  0  0  0
   -5.1998    0.1994  -18.0474 C   0  0  0  0  0  0  0  0  0  0  0  0
   -4.7934    0.5642  -19.3662 C   0  0  0  0  0  0  0  0  0  0  0  0
   -3.6878    1.4205  -19.6155 C   0  0  0  0  0  0  0  0  0  0  0  0
   -3.4220    1.8684  -20.8808 C   0  0  0  0  0  0  0  0  0  0  0  0
   -4.2188    1.4507  -21.9714 C   0  0  0  0  0  0  0  0  0  0  0  0
   -5.2205    0.5279  -21.7743 C   0  0  0  0  0  0  0  0  0  0  0  0
   -5.5481    0.0800  -20.4609 C   0  0  0  0  0  0  0  0  0  0  0  0
   -5.7846    0.1575  -22.6277 H   0  0  0  0  0  0  0  0  0  0  0  0
   -4.0699    1.8886  -22.9533 H   0  0  0  0  0  0  0  0  0  0  0  0
   -2.5863    2.5435  -21.0522 H   0  0  0  0  0  0  0  0  0  0  0  0
   -3.0873    1.7375  -18.7675 H   0  0  0  0  0  0  0  0  0  0  0  0
   -4.6231    0.5637  -17.1967 H   0  0  0  0  0  0  0  0  0  0  0  0
   -7.7853   -1.6833  -18.6026 H   0  0  0  0  0  0  0  0  0  0  0  0
   -7.0489   -2.5786  -21.8945 C   0  0  0  0  0  0  0  0  0  0  0  0
   -8.2791   -2.8508  -22.7799 C   0  0  2  0  0  0  0  0  0  0  0  0
   -7.8579   -3.5606  -24.0832 C   0  0  0  0  0  0  0  0  0  0  0  0
   -7.1385   -4.8341  -23.7737 C   0  0  0  0  0  0  0  0  0  0  0  0
   -5.8233   -4.9987  -23.8386 N   0  0  0  0  0  0  0  0  0  0  0  0
   -5.6160   -6.2522  -23.4408 N   0  0  0  0  0  0  0  0  0  0  0  0
   -6.7612   -6.8093  -23.1506 N   0  0  0  0  0  2  0  0  0  0  0  0
   -7.7450   -5.9352  -23.3455 N   0  0  0  0  0  0  0  0  0  0  0  0
   -7.1573   -2.9384  -24.6431 H   0  0  0  0  0  0  0  0  0  0  0  0
   -8.7154   -3.7978  -24.7220 H   0  0  0  0  0  0  0  0  0  0  0  0
   -8.9338   -3.5573  -22.2626 H   0  0  0  0  0  0  0  0  0  0  0  0
   -6.8362   -3.4177  -21.2259 H   0  0  0  0  0  0  0  0  0  0  0  0
   -6.1377   -2.4180  -22.4945 H   0  0  0  0  0  0  0  0  0  0  0  0
  -10.5390   -1.5358  -22.8298 C   0  0  0  0  0  0  0  0  0  0  0  0
  -11.1798   -2.4337  -21.9757 C   0  0  0  0  0  0  0  0  0  0  0  0
  -12.5599   -2.4437  -21.8899 C   0  0  0  0  0  0  0  0  0  0  0  0
  -13.3233   -3.5582  -20.8025 Cl  0  0  0  0  0  0  0  0  0  0  0  0
  -13.3580   -1.5756  -22.6331 C   0  0  0  0  0  0  0  0  0  0  0  0
  -12.7268   -0.6579  -23.4429 C   0  0  0  0  0  0  0  0  0  0  0  0
  -11.3376   -0.6116  -23.5158 C   0  0  0  0  0  0  0  0  0  0  0  0
  -10.7326    0.5063  -24.3013 C   0  0  0  0  0  0  0  0  0  0  0  0
  -11.4065    1.3872  -24.8181 O   0  0  0  0  0  0  0  0  0  0  0  0
  -13.2850    0.0640  -24.0238 H   0  0  0  0  0  0  0  0  0  0  0  0
  -14.4401   -1.6086  -22.5516 H   0  0  0  0  0  0  0  0  0  0  0  0
  -10.6135   -3.1234  -21.3605 H   0  0  0  0  0  0  0  0  0  0  0  0
   -7.5614   -0.5259  -24.1934 H   0  0  0  0  0  0  0  0  0  0  0  0
   -8.8416   -1.4302  -25.0252 H   0  0  0  0  0  0  0  0  0  0  0  0
   -8.1197    1.3124  -25.8320 H   0  0  0  0  0  0  0  0  0  0  0  0
   -9.4529    2.3451  -25.2560 H   0  0  0  0  0  0  0  0  0  0  0  0
   -9.2116    2.7550  -22.6545 H   0  0  0  0  0  0  0  0  0  0  0  0
   -6.7971    2.5730  -21.4704 H   0  0  0  0  0  0  0  0  0  0  0  0
   -6.6451    4.1395  -22.3030 H   0  0  0  0  0  0  0  0  0  0  0  0
   -7.9207    3.9202  -21.1022 H   0  0  0  0  0  0  0  0  0  0  0  0
  1  2  1  0
  2  3  1  0
  3  4  2  0
  3  5  1  0
  5  6  1  0
  6  7  1  0
  8  7  1  6
  8  9  1  0
  9 10  2  0
  9 11  1  0
 11 12  1  0
 12 13  2  0
 13 14  1  0
 14 15  2  0
 15 16  1  0
 16 17  2  0
 17 18  1  0
 18 19  2  0
 19 20  1  0
 20 21  2  0
 20 22  1  0
 19 23  1  0
 18 24  1  0
 17 25  1  0
 15 26  1  0
 13 27  1  0
 11 28  1  0
 28 29  1  0
 29 30  1  0
 30 31  1  0
 31 32  1  0
 32 33  2  0
 33 34  1  0
 34 35  1  0
 30 36  1  0
 30 37  1  0
 29 38  1  1
 28 39  1  0
 28 40  1  0
  8 41  1  0
 41 42  2  0
 42 43  1  0
 43 44  1  0
 43 45  2  0
 45 46  1  0
 46 47  2  0
 47 48  1  0
 48 49  2  0
 46 50  1  0
 45 51  1  0
 42 52  1  0
  7 53  1  0
  7 54  1  0
  5 55  1  0
  5 56  1  0
  2 57  1  0
  1 58  1  0
  1 59  1  0
  1 60  1  0
 48  6  1  0
 29  8  1  0
 35 31  2  0
 47 41  1  0
 21 12  1  0
 21 16  1  0
M  CHG  1  34  -1
M  END
>  <cnnaffinities>  (57) 
[6.08734, 6.07881]

>  <score>  (57) 
6.08734

>  <index>  (57) 
59

>  <Smiles>  (57) 
C(N(C(=O)C(N1C([C@@]2(C(=O)N(c3c(nc(c4c(c(c(c(c34)[H])[H])[H])[H])[H])[H])C([C@@]2(C(c2nn[n-]n2)([H])[H])[H])([H])[H])c2c(c(Cl)c(c(c2C1=O)[H])[H])[H])([H])[H])([H])[H])[H])([H])([H])[H]

>  <h>  (57) 
<NA>

>  <Training>  (57) 
True

>  <Success>  (57) 
True

>  <enamine_searched>  (57) 
False

>  <enamine_id>  (57) 
nan

$$$$

     RDKit          3D

 62 67  0  0  0  0  0  0  0  0999 V2000
  -11.3179    4.3030  -25.2277 C   0  0  0  0  0  0  0  0  0  0  0  0
   -9.8241    4.1697  -25.5257 C   0  0  0  0  0  0  0  0  0  0  0  0
   -9.0680    3.5851  -24.4239 N   0  0  0  0  0  0  0  0  0  0  0  0
   -8.4836    4.4133  -23.5419 N   0  0  0  0  0  0  0  0  0  0  0  0
   -7.9005    3.6227  -22.6519 C   0  0  0  0  0  0  0  0  0  0  0  0
   -8.1128    2.2643  -22.9688 C   0  0  0  0  0  0  0  0  0  0  0  0
   -8.8883    2.2709  -24.1038 C   0  0  0  0  0  0  0  0  0  0  0  0
   -9.3941    1.0982  -24.9053 C   0  0  0  0  0  0  0  0  0  0  0  0
   -9.8578   -0.0001  -24.0802 N   0  0  0  0  0  0  0  0  0  0  0  0
   -9.0381   -1.1936  -23.9753 C   0  0  0  0  0  0  0  0  0  0  0  0
   -9.2205   -1.9100  -22.6127 C   0  0  2  0  0  0  0  0  0  0  0  0
   -8.6578   -1.0265  -21.4631 C   0  0  0  0  0  0  0  0  0  0  0  0
   -9.2195   -0.1075  -20.9036 O   0  0  0  0  0  0  0  0  0  0  0  0
   -7.3762   -1.4427  -21.1841 N   0  0  0  0  0  0  0  0  0  0  0  0
   -6.6079   -0.8321  -20.1567 C   0  0  0  0  0  0  0  0  0  0  0  0
   -6.9112   -1.0610  -18.8372 C   0  0  0  0  0  0  0  0  0  0  0  0
   -6.2048   -0.5615  -17.7946 N   0  0  0  0  0  0  0  0  0  0  0  0
   -5.1702    0.1950  -18.0676 C   0  0  0  0  0  0  0  0  0  0  0  0
   -4.7621    0.5454  -19.3853 C   0  0  0  0  0  0  0  0  0  0  0  0
   -3.6578    1.4096  -19.6248 C   0  0  0  0  0  0  0  0  0  0  0  0
   -3.3439    1.7882  -20.8997 C   0  0  0  0  0  0  0  0  0  0  0  0
   -4.1331    1.3506  -21.9870 C   0  0  0  0  0  0  0  0  0  0  0  0
   -5.1535    0.4496  -21.7829 C   0  0  0  0  0  0  0  0  0  0  0  0
   -5.5163    0.0443  -20.4690 C   0  0  0  0  0  0  0  0  0  0  0  0
   -5.6410   -0.0055  -22.6391 H   0  0  0  0  0  0  0  0  0  0  0  0
   -3.8669    1.6387  -22.9994 H   0  0  0  0  0  0  0  0  0  0  0  0
   -2.4531    2.3830  -21.0939 H   0  0  0  0  0  0  0  0  0  0  0  0
   -3.0632    1.7325  -18.7723 H   0  0  0  0  0  0  0  0  0  0  0  0
   -4.6196    0.6085  -17.2234 H   0  0  0  0  0  0  0  0  0  0  0  0
   -7.7655   -1.6790  -18.5725 H   0  0  0  0  0  0  0  0  0  0  0  0
   -6.9632   -2.6157  -21.9349 C   0  0  0  0  0  0  0  0  0  0  0  0
   -8.2920   -3.1595  -22.5093 C   0  0  2  0  0  0  0  0  0  0  0  0
   -8.0982   -3.9869  -23.7830 C   0  0  0  0  0  0  0  0  0  0  0  0
   -7.5584   -3.4105  -24.5452 H   0  0  0  0  0  0  0  0  0  0  0  0
   -7.5082   -4.8875  -23.5799 H   0  0  0  0  0  0  0  0  0  0  0  0
   -9.0537   -4.3011  -24.2190 H   0  0  0  0  0  0  0  0  0  0  0  0
   -8.7330   -3.7919  -21.7323 H   0  0  0  0  0  0  0  0  0  0  0  0
   -6.4574   -3.3276  -21.2731 H   0  0  0  0  0  0  0  0  0  0  0  0
   -6.2601   -2.3554  -22.7426 H   0  0  0  0  0  0  0  0  0  0  0  0
  -10.7098   -2.1407  -22.4258 C   0  0  0  0  0  0  0  0  0  0  0  0
  -11.2175   -3.2320  -21.7107 C   0  0  0  0  0  0  0  0  0  0  0  0
  -12.5744   -3.3214  -21.4783 C   0  0  0  0  0  0  0  0  0  0  0  0
  -13.0445   -4.3501  -20.7525 F   0  0  0  0  0  0  0  0  0  0  0  0
  -13.4754   -2.3693  -21.9353 C   0  0  0  0  0  0  0  0  0  0  0  0
  -12.9827   -1.2854  -22.6334 C   0  0  0  0  0  0  0  0  0  0  0  0
  -11.6158   -1.1680  -22.8816 C   0  0  0  0  0  0  0  0  0  0  0  0
  -11.1471    0.0373  -23.6431 C   0  0  0  0  0  0  0  0  0  0  0  0
  -11.8876    0.9852  -23.8731 O   0  0  0  0  0  0  0  0  0  0  0  0
  -13.6268   -0.4943  -23.0040 H   0  0  0  0  0  0  0  0  0  0  0  0
  -14.5292   -2.4918  -21.7210 H   0  0  0  0  0  0  0  0  0  0  0  0
  -10.5873   -3.9930  -21.2659 H   0  0  0  0  0  0  0  0  0  0  0  0
   -9.2956   -1.9119  -24.7719 H   0  0  0  0  0  0  0  0  0  0  0  0
   -7.9917   -0.8907  -24.0867 H   0  0  0  0  0  0  0  0  0  0  0  0
  -10.2135    1.4044  -25.5638 H   0  0  0  0  0  0  0  0  0  0  0  0
   -8.5838    0.6942  -25.5220 H   0  0  0  0  0  0  0  0  0  0  0  0
   -7.7868    1.3719  -22.4535 H   0  0  0  0  0  0  0  0  0  0  0  0
   -7.3675    4.0798  -21.8214 H   0  0  0  0  0  0  0  0  0  0  0  0
   -9.3639    5.1499  -25.6975 H   0  0  0  0  0  0  0  0  0  0  0  0
   -9.6502    3.5491  -26.4147 H   0  0  0  0  0  0  0  0  0  0  0  0
  -11.7715    3.3228  -25.0384 H   0  0  0  0  0  0  0  0  0  0  0  0
  -11.4876    4.9451  -24.3568 H   0  0  0  0  0  0  0  0  0  0  0  0
  -11.8165    4.7584  -26.0880 H   0  0  0  0  0  0  0  0  0  0  0  0
  1  2  1  0
  2  3  1  0
  3  4  1  0
  4  5  2  0
  5  6  1  0
  6  7  2  0
  7  8  1  0
  8  9  1  0
  9 10  1  0
 11 10  1  6
 11 12  1  0
 12 13  2  0
 12 14  1  0
 14 15  1  0
 15 16  2  0
 16 17  1  0
 17 18  2  0
 18 19  1  0
 19 20  2  0
 20 21  1  0
 21 22  2  0
 22 23  1  0
 23 24  2  0
 23 25  1  0
 22 26  1  0
 21 27  1  0
 20 28  1  0
 18 29  1  0
 16 30  1  0
 14 31  1  0
 31 32  1  0
 32 33  1  0
 33 34  1  0
 33 35  1  0
 33 36  1  0
 32 37  1  1
 31 38  1  0
 31 39  1  0
 11 40  1  0
 40 41  2  0
 41 42  1  0
 42 43  1  0
 42 44  2  0
 44 45  1  0
 45 46  2  0
 46 47  1  0
 47 48  2  0
 45 49  1  0
 44 50  1  0
 41 51  1  0
 10 52  1  0
 10 53  1  0
  8 54  1  0
  8 55  1  0
  6 56  1  0
  5 57  1  0
  2 58  1  0
  2 59  1  0
  1 60  1  0
  1 61  1  0
  1 62  1  0
  7  3  1  0
 47  9  1  0
 32 11  1  0
 46 40  1  0
 24 15  1  0
 24 19  1  0
M  END
>  <cnnaffinities>  (58) 
[6.45408, 6.01504, 6.05104, 5.97111]

>  <score>  (58) 
6.45408

>  <index>  (58) 
60

>  <Smiles>  (58) 
C(C(n1nc(c(c1C(N1C([C@@]2(C(=O)N(c3c(nc(c4c(c(c(c(c34)[H])[H])[H])[H])[H])[H])C([C@@]2(C([H])([H])[H])[H])([H])[H])c2c(c(F)c(c(c2C1=O)[H])[H])[H])([H])[H])([H])[H])[H])[H])([H])[H])([H])([H])[H]

>  <h>  (58) 
<NA>

>  <Training>  (58) 
True

>  <Success>  (58) 
True

>  <enamine_searched>  (58) 
False

>  <enamine_id>  (58) 
nan

$$$$

     RDKit          3D

 44 47  0  0  0  0  0  0  0  0999 V2000
   -8.4458    0.7716  -21.5311 O   0  0  0  0  0  0  0  0  0  0  0  0
   -8.5482   -0.4272  -21.7536 C   0  0  0  0  0  0  0  0  0  0  0  0
   -7.4850   -1.4074  -21.2545 C   0  0  0  0  0  0  0  0  0  0  0  0
   -6.6375   -0.8042  -20.1675 C   0  0  0  0  0  0  0  0  0  0  0  0
   -6.9134   -1.0645  -18.8492 C   0  0  0  0  0  0  0  0  0  0  0  0
   -6.2125   -0.5896  -17.7842 N   0  0  0  0  0  0  0  0  0  0  0  0
   -5.2079    0.2110  -18.0495 C   0  0  0  0  0  0  0  0  0  0  0  0
   -4.8178    0.5871  -19.3653 C   0  0  0  0  0  0  0  0  0  0  0  0
   -3.6882    1.4115  -19.6062 C   0  0  0  0  0  0  0  0  0  0  0  0
   -3.3979    1.8469  -20.8705 C   0  0  0  0  0  0  0  0  0  0  0  0
   -4.2032    1.4341  -21.9607 C   0  0  0  0  0  0  0  0  0  0  0  0
   -5.2092    0.5160  -21.7710 C   0  0  0  0  0  0  0  0  0  0  0  0
   -5.5593    0.0836  -20.4607 C   0  0  0  0  0  0  0  0  0  0  0  0
   -5.7702    0.1430  -22.6235 H   0  0  0  0  0  0  0  0  0  0  0  0
   -4.0167    1.8453  -22.9535 H   0  0  0  0  0  0  0  0  0  0  0  0
   -2.5573    2.5172  -21.0466 H   0  0  0  0  0  0  0  0  0  0  0  0
   -3.0876    1.7143  -18.7509 H   0  0  0  0  0  0  0  0  0  0  0  0
   -4.6283    0.5906  -17.2031 H   0  0  0  0  0  0  0  0  0  0  0  0
   -7.7521   -1.7079  -18.5805 H   0  0  0  0  0  0  0  0  0  0  0  0
   -6.8752   -1.7393  -22.1081 H   0  0  0  0  0  0  0  0  0  0  0  0
   -8.0017   -2.2969  -20.8733 H   0  0  0  0  0  0  0  0  0  0  0  0
   -9.6197   -0.9495  -22.4223 N   0  0  0  0  0  0  0  0  0  0  0  0
   -9.7673   -2.3381  -22.8669 C   0  0  0  0  0  0  0  0  0  0  0  0
  -10.8143   -2.4381  -23.9849 C   0  0  0  0  0  0  0  0  0  0  0  0
  -12.2071   -1.9485  -23.5755 C   0  0  0  0  0  0  0  0  0  0  0  0
  -13.2063   -1.6979  -24.7404 C   0  0  0  0  0  0  0  0  0  0  0  0
  -14.1415   -2.8162  -24.2201 C   0  0  0  0  0  0  0  0  0  0  0  0
  -13.1600   -3.0577  -23.0510 C   0  0  0  0  0  0  0  0  0  0  0  0
  -13.5736   -2.8308  -22.0646 H   0  0  0  0  0  0  0  0  0  0  0  0
  -12.7025   -4.0507  -23.0125 H   0  0  0  0  0  0  0  0  0  0  0  0
  -15.1406   -2.4862  -23.9193 H   0  0  0  0  0  0  0  0  0  0  0  0
  -14.2741   -3.6640  -24.9003 H   0  0  0  0  0  0  0  0  0  0  0  0
  -13.6404   -0.6935  -24.7296 H   0  0  0  0  0  0  0  0  0  0  0  0
  -12.7942   -1.8717  -25.7363 H   0  0  0  0  0  0  0  0  0  0  0  0
  -12.0356   -0.7871  -22.5920 C   0  0  0  0  0  0  0  0  0  0  0  0
  -10.7166   -0.0401  -22.7210 C   0  0  0  0  0  0  0  0  0  0  0  0
  -10.6445    0.7838  -22.0100 H   0  0  0  0  0  0  0  0  0  0  0  0
  -10.5732    0.3874  -23.7189 H   0  0  0  0  0  0  0  0  0  0  0  0
  -12.8886   -0.1010  -22.6147 H   0  0  0  0  0  0  0  0  0  0  0  0
  -12.0129   -1.2329  -21.6005 H   0  0  0  0  0  0  0  0  0  0  0  0
  -10.4663   -1.8130  -24.8135 H   0  0  0  0  0  0  0  0  0  0  0  0
  -10.8608   -3.4651  -24.3653 H   0  0  0  0  0  0  0  0  0  0  0  0
   -8.8038   -2.6910  -23.2501 H   0  0  0  0  0  0  0  0  0  0  0  0
  -10.0395   -2.9904  -22.0237 H   0  0  0  0  0  0  0  0  0  0  0  0
  1  2  2  0
  2  3  1  0
  3  4  1  0
  4  5  2  0
  5  6  1  0
  6  7  2  0
  7  8  1  0
  8  9  2  0
  9 10  1  0
 10 11  2  0
 11 12  1  0
 12 13  2  0
 12 14  1  0
 11 15  1  0
 10 16  1  0
  9 17  1  0
  7 18  1  0
  5 19  1  0
  3 20  1  0
  3 21  1  0
  2 22  1  0
 22 23  1  0
 23 24  1  0
 24 25  1  0
 25 26  1  0
 26 27  1  0
 27 28  1  0
 28 29  1  0
 28 30  1  0
 27 31  1  0
 27 32  1  0
 26 33  1  0
 26 34  1  0
 25 35  1  0
 35 36  1  0
 36 37  1  0
 36 38  1  0
 35 39  1  0
 35 40  1  0
 24 41  1  0
 24 42  1  0
 23 43  1  0
 23 44  1  0
 13  4  1  0
 36 22  1  0
 13  8  1  0
 28 25  1  0
M  END
>  <cnnaffinities>  (59) 
[4.91705, 4.91698, 4.91959, 5.01369, 4.84671, 4.84628, 4.84603, 4.92455, 4.92469, 4.92454, 4.9246]

>  <score>  (59) 
4.91705

>  <index>  (59) 
61

>  <Smiles>  (59) 
O=C(C(c1c(nc(c2c(c(c(c(c12)[H])[H])[H])[H])[H])[H])([H])[H])N1C(C(C2(C(C(C2([H])[H])([H])[H])([H])[H])C(C1([H])[H])([H])[H])([H])[H])([H])[H]

>  <h>  (59) 
<NA>

>  <Training>  (59) 
True

>  <Success>  (59) 
True

>  <enamine_searched>  (59) 
False

>  <enamine_id>  (59) 
nan

$$$$

     RDKit          3D

 44 47  0  0  0  0  0  0  0  0999 V2000
   -8.5037    0.7563  -21.4506 O   0  0  0  0  0  0  0  0  0  0  0  0
   -8.5221   -0.4164  -21.7904 C   0  0  0  0  0  0  0  0  0  0  0  0
   -7.4771   -1.4019  -21.2648 C   0  0  0  0  0  0  0  0  0  0  0  0
   -6.6374   -0.8016  -20.1742 C   0  0  0  0  0  0  0  0  0  0  0  0
   -6.9196   -1.0628  -18.8582 C   0  0  0  0  0  0  0  0  0  0  0  0
   -6.2206   -0.5905  -17.7912 N   0  0  0  0  0  0  0  0  0  0  0  0
   -5.2142    0.2083  -18.0532 C   0  0  0  0  0  0  0  0  0  0  0  0
   -4.8206    0.5880  -19.3681 C   0  0  0  0  0  0  0  0  0  0  0  0
   -3.6943    1.4152  -19.6072 C   0  0  0  0  0  0  0  0  0  0  0  0
   -3.4066    1.8576  -20.8714 C   0  0  0  0  0  0  0  0  0  0  0  0
   -4.2106    1.4439  -21.9627 C   0  0  0  0  0  0  0  0  0  0  0  0
   -5.2153    0.5255  -21.7747 C   0  0  0  0  0  0  0  0  0  0  0  0
   -5.5630    0.0901  -20.4652 C   0  0  0  0  0  0  0  0  0  0  0  0
   -5.7702    0.1427  -22.6286 H   0  0  0  0  0  0  0  0  0  0  0  0
   -4.0274    1.8615  -22.9517 H   0  0  0  0  0  0  0  0  0  0  0  0
   -2.5679    2.5273  -21.0457 H   0  0  0  0  0  0  0  0  0  0  0  0
   -3.0906    1.7149  -18.7536 H   0  0  0  0  0  0  0  0  0  0  0  0
   -4.6358    0.5829  -17.2051 H   0  0  0  0  0  0  0  0  0  0  0  0
   -7.7601   -1.7071  -18.5988 H   0  0  0  0  0  0  0  0  0  0  0  0
   -8.0196   -2.2726  -20.8770 H   0  0  0  0  0  0  0  0  0  0  0  0
   -6.8551   -1.7595  -22.0976 H   0  0  0  0  0  0  0  0  0  0  0  0
   -9.4840   -0.9244  -22.6179 N   0  0  0  0  0  0  0  0  0  0  0  0
   -9.4672   -2.2697  -23.1965 C   0  0  0  0  0  0  0  0  0  0  0  0
  -10.5103   -2.3907  -24.3055 C   0  0  0  0  0  0  0  0  0  0  0  0
  -11.9220   -2.0422  -23.8084 C   0  0  0  0  0  0  0  0  0  0  0  0
  -12.9254   -1.9619  -24.9481 C   0  0  0  0  0  0  0  0  0  0  0  0
  -14.3846   -2.2114  -24.6894 C   0  0  0  0  0  0  0  0  0  0  0  0
  -13.5742   -3.2052  -25.4736 C   0  0  0  0  0  0  0  0  0  0  0  0
  -13.3113   -4.1525  -25.0118 H   0  0  0  0  0  0  0  0  0  0  0  0
  -13.7781   -3.2621  -26.5356 H   0  0  0  0  0  0  0  0  0  0  0  0
  -15.1216   -1.6364  -25.2437 H   0  0  0  0  0  0  0  0  0  0  0  0
  -14.6790   -2.4645  -23.6747 H   0  0  0  0  0  0  0  0  0  0  0  0
  -12.7075   -1.1977  -25.6912 H   0  0  0  0  0  0  0  0  0  0  0  0
  -11.9035   -0.7438  -22.9628 C   0  0  0  0  0  0  0  0  0  0  0  0
  -10.5609   -0.0243  -23.0017 C   0  0  0  0  0  0  0  0  0  0  0  0
  -10.3537    0.3964  -23.9940 H   0  0  0  0  0  0  0  0  0  0  0  0
  -10.5261    0.8067  -22.2978 H   0  0  0  0  0  0  0  0  0  0  0  0
  -12.1215   -0.9984  -21.9221 H   0  0  0  0  0  0  0  0  0  0  0  0
  -12.6928   -0.0534  -23.2826 H   0  0  0  0  0  0  0  0  0  0  0  0
  -12.2451   -2.8636  -23.1509 H   0  0  0  0  0  0  0  0  0  0  0  0
  -10.2337   -1.7120  -25.1179 H   0  0  0  0  0  0  0  0  0  0  0  0
  -10.4867   -3.4050  -24.7230 H   0  0  0  0  0  0  0  0  0  0  0  0
   -9.6670   -3.0319  -22.4298 H   0  0  0  0  0  0  0  0  0  0  0  0
   -8.4717   -2.4808  -23.6064 H   0  0  0  0  0  0  0  0  0  0  0  0
  1  2  2  0
  2  3  1  0
  3  4  1  0
  4  5  2  0
  5  6  1  0
  6  7  2  0
  7  8  1  0
  8  9  2  0
  9 10  1  0
 10 11  2  0
 11 12  1  0
 12 13  2  0
 12 14  1  0
 11 15  1  0
 10 16  1  0
  9 17  1  0
  7 18  1  0
  5 19  1  0
  3 20  1  0
  3 21  1  0
  2 22  1  0
 22 23  1  0
 23 24  1  0
 24 25  1  0
 25 26  1  0
 26 27  1  0
 27 28  1  0
 28 29  1  0
 28 30  1  0
 27 31  1  0
 27 32  1  0
 26 33  1  0
 25 34  1  0
 34 35  1  0
 35 36  1  0
 35 37  1  0
 34 38  1  0
 34 39  1  0
 25 40  1  0
 24 41  1  0
 24 42  1  0
 23 43  1  0
 23 44  1  0
 13  4  1  0
 35 22  1  0
 13  8  1  0
 28 26  1  0
M  END
>  <cnnaffinities>  (60) 
[4.64446, 4.74118, 5.09232]

>  <score>  (60) 
4.64446

>  <index>  (60) 
62

>  <Smiles>  (60) 
O=C(C(c1c(nc(c2c(c(c(c(c12)[H])[H])[H])[H])[H])[H])([H])[H])N1C(C(C(C2(C(C2([H])[H])([H])[H])[H])(C(C1([H])[H])([H])[H])[H])([H])[H])([H])[H]

>  <h>  (60) 
<NA>

>  <Training>  (60) 
True

>  <Success>  (60) 
True

>  <enamine_searched>  (60) 
False

>  <enamine_id>  (60) 
nan

$$$$

     RDKit          3D

 57 61  0  0  0  0  0  0  0  0999 V2000
   -8.1710   -5.6920  -27.6223 C   0  0  0  0  0  0  0  0  0  0  0  0
   -8.3848   -4.2633  -27.4564 N   0  0  0  0  0  0  0  0  0  0  0  0
   -7.4028   -3.4818  -26.9741 C   0  0  0  0  0  0  0  0  0  0  0  0
   -6.3262   -3.9484  -26.6066 O   0  0  0  0  0  0  0  0  0  0  0  0
   -7.7093   -1.9906  -26.8498 C   0  0  0  0  0  0  0  0  0  0  0  0
   -8.5960   -1.7260  -25.7254 N   0  0  0  0  0  0  0  0  0  0  0  0
   -8.0361   -1.2733  -24.4509 C   0  0  0  0  0  0  0  0  0  0  0  0
   -8.8838   -1.6371  -23.1918 C   0  0  2  0  0  0  0  0  0  0  0  0
   -8.4376   -0.6579  -22.0812 C   0  0  0  0  0  0  0  0  0  0  0  0
   -8.7215    0.5196  -22.0063 O   0  0  0  0  0  0  0  0  0  0  0  0
   -7.5764   -1.3182  -21.2225 N   0  0  0  0  0  0  0  0  0  0  0  0
   -6.7828   -0.7121  -20.2104 C   0  0  0  0  0  0  0  0  0  0  0  0
   -6.9646   -1.1182  -18.9102 C   0  0  0  0  0  0  0  0  0  0  0  0
   -6.2313   -0.7048  -17.8497 N   0  0  0  0  0  0  0  0  0  0  0  0
   -5.2549    0.1363  -18.0860 C   0  0  0  0  0  0  0  0  0  0  0  0
   -4.9391    0.6377  -19.3786 C   0  0  0  0  0  0  0  0  0  0  0  0
   -3.8621    1.5463  -19.5669 C   0  0  0  0  0  0  0  0  0  0  0  0
   -3.5732    2.0338  -20.8100 C   0  0  0  0  0  0  0  0  0  0  0  0
   -4.3434    1.6254  -21.9236 C   0  0  0  0  0  0  0  0  0  0  0  0
   -5.3871    0.7431  -21.7666 C   0  0  0  0  0  0  0  0  0  0  0  0
   -5.7221    0.2224  -20.4836 C   0  0  0  0  0  0  0  0  0  0  0  0
   -5.9822    0.4572  -22.6286 H   0  0  0  0  0  0  0  0  0  0  0  0
   -4.1169    2.0246  -22.9086 H   0  0  0  0  0  0  0  0  0  0  0  0
   -2.7719    2.7590  -20.9449 H   0  0  0  0  0  0  0  0  0  0  0  0
   -3.2796    1.8403  -18.6956 H   0  0  0  0  0  0  0  0  0  0  0  0
   -4.6650    0.4735  -17.2326 H   0  0  0  0  0  0  0  0  0  0  0  0
   -7.7668   -1.8157  -18.6763 H   0  0  0  0  0  0  0  0  0  0  0  0
   -7.4368   -2.7343  -21.5200 C   0  0  0  0  0  0  0  0  0  0  0  0
   -8.5502   -3.0126  -22.5308 C   0  0  2  0  0  0  0  0  0  0  0  0
   -8.2459   -4.1717  -23.4736 C   0  0  0  0  0  0  0  0  0  0  0  0
   -6.8890   -4.1300  -23.8511 O   0  0  0  0  0  0  0  0  0  0  0  0
   -6.7812   -4.2043  -24.8100 H   0  0  0  0  0  0  0  0  0  0  0  0
   -8.4329   -5.1158  -22.9475 H   0  0  0  0  0  0  0  0  0  0  0  0
   -8.9330   -4.1397  -24.3335 H   0  0  0  0  0  0  0  0  0  0  0  0
   -9.4547   -3.2815  -21.9734 H   0  0  0  0  0  0  0  0  0  0  0  0
   -6.4519   -2.9446  -21.9495 H   0  0  0  0  0  0  0  0  0  0  0  0
   -7.5480   -3.3318  -20.6086 H   0  0  0  0  0  0  0  0  0  0  0  0
  -10.3603   -1.5147  -23.5180 C   0  0  0  0  0  0  0  0  0  0  0  0
  -11.3063   -1.5261  -22.4826 C   0  0  0  0  0  0  0  0  0  0  0  0
  -12.6567   -1.4024  -22.7687 C   0  0  0  0  0  0  0  0  0  0  0  0
  -13.8696   -1.4632  -21.5283 Cl  0  0  0  0  0  0  0  0  0  0  0  0
  -13.1035   -1.2472  -24.0822 C   0  0  0  0  0  0  0  0  0  0  0  0
  -12.1825   -1.2831  -25.1089 C   0  0  0  0  0  0  0  0  0  0  0  0
  -10.8289   -1.4687  -24.8314 C   0  0  0  0  0  0  0  0  0  0  0  0
   -9.9327   -1.7759  -25.9765 C   0  0  0  0  0  0  0  0  0  0  0  0
  -10.3881   -2.1075  -27.0706 O   0  0  0  0  0  0  0  0  0  0  0  0
  -12.4844   -1.1794  -26.1498 H   0  0  0  0  0  0  0  0  0  0  0  0
  -14.1636   -1.1676  -24.3000 H   0  0  0  0  0  0  0  0  0  0  0  0
  -10.9695   -1.6361  -21.4595 H   0  0  0  0  0  0  0  0  0  0  0  0
   -7.0461   -1.7352  -24.3664 H   0  0  0  0  0  0  0  0  0  0  0  0
   -7.9389   -0.1774  -24.4675 H   0  0  0  0  0  0  0  0  0  0  0  0
   -6.7661   -1.4542  -26.7254 H   0  0  0  0  0  0  0  0  0  0  0  0
   -8.2090   -1.6437  -27.7584 H   0  0  0  0  0  0  0  0  0  0  0  0
   -9.2916   -3.8538  -27.6144 H   0  0  0  0  0  0  0  0  0  0  0  0
   -7.7621   -6.1186  -26.6990 H   0  0  0  0  0  0  0  0  0  0  0  0
   -9.1263   -6.1733  -27.8454 H   0  0  0  0  0  0  0  0  0  0  0  0
   -7.4694   -5.8960  -28.4399 H   0  0  0  0  0  0  0  0  0  0  0  0
  1  2  1  0
  2  3  1  0
  3  4  2  0
  3  5  1  0
  5  6  1  0
  6  7  1  0
  8  7  1  6
  8  9  1  0
  9 10  2  0
  9 11  1  0
 11 12  1  0
 12 13  2  0
 13 14  1  0
 14 15  2  0
 15 16  1  0
 16 17  2  0
 17 18  1  0
 18 19  2  0
 19 20  1  0
 20 21  2  0
 20 22  1  0
 19 23  1  0
 18 24  1  0
 17 25  1  0
 15 26  1  0
 13 27  1  0
 11 28  1  0
 28 29  1  0
 29 30  1  0
 30 31  1  0
 31 32  1  0
 30 33  1  0
 30 34  1  0
 29 35  1  1
 28 36  1  0
 28 37  1  0
  8 38  1  0
 38 39  2  0
 39 40  1  0
 40 41  1  0
 40 42  2  0
 42 43  1  0
 43 44  2  0
 44 45  1  0
 45 46  2  0
 43 47  1  0
 42 48  1  0
 39 49  1  0
  7 50  1  0
  7 51  1  0
  5 52  1  0
  5 53  1  0
  2 54  1  0
  1 55  1  0
  1 56  1  0
  1 57  1  0
 45  6  1  0
 29  8  1  0
 44 38  1  0
 21 12  1  0
 21 16  1  0
M  END
>  <cnnaffinities>  (61) 
[5.61468]

>  <score>  (61) 
5.61468

>  <index>  (61) 
63

>  <Smiles>  (61) 
C(N(C(=O)C(N1C([C@@]2(C(=O)N(c3c(nc(c4c(c(c(c(c34)[H])[H])[H])[H])[H])[H])C([C@@]2(C(O[H])([H])[H])[H])([H])[H])c2c(c(Cl)c(c(c2C1=O)[H])[H])[H])([H])[H])([H])[H])[H])([H])([H])[H]

>  <h>  (61) 
<NA>

>  <Training>  (61) 
True

>  <Success>  (61) 
True

>  <enamine_searched>  (61) 
False

>  <enamine_id>  (61) 
nan

$$$$

     RDKit          3D

 55 60  0  0  0  0  0  0  0  0999 V2000
   -8.3169   -4.1556  -23.4697 C   0  0  0  0  0  0  0  0  0  0  0  0
   -8.5388   -2.9953  -22.5139 C   0  0  1  0  0  0  0  0  0  0  0  0
   -7.4029   -2.8078  -21.4989 C   0  0  0  0  0  0  0  0  0  0  0  0
   -7.4478   -1.3853  -21.2004 N   0  0  0  0  0  0  0  0  0  0  0  0
   -6.6654   -0.7874  -20.1842 C   0  0  0  0  0  0  0  0  0  0  0  0
   -6.9188   -1.0997  -18.8716 C   0  0  0  0  0  0  0  0  0  0  0  0
   -6.2301   -0.6123  -17.8128 N   0  0  0  0  0  0  0  0  0  0  0  0
   -5.2154    0.1757  -18.0748 C   0  0  0  0  0  0  0  0  0  0  0  0
   -4.8340    0.5739  -19.3875 C   0  0  0  0  0  0  0  0  0  0  0  0
   -3.7280    1.4399  -19.6006 C   0  0  0  0  0  0  0  0  0  0  0  0
   -3.4508    1.9090  -20.8524 C   0  0  0  0  0  0  0  0  0  0  0  0
   -4.2349    1.4959  -21.9530 C   0  0  0  0  0  0  0  0  0  0  0  0
   -5.2386    0.5764  -21.7907 C   0  0  0  0  0  0  0  0  0  0  0  0
   -5.5917    0.1123  -20.4880 C   0  0  0  0  0  0  0  0  0  0  0  0
   -5.7925    0.2421  -22.6621 H   0  0  0  0  0  0  0  0  0  0  0  0
   -4.0338    1.9144  -22.9334 H   0  0  0  0  0  0  0  0  0  0  0  0
   -2.6619    2.6389  -21.0019 H   0  0  0  0  0  0  0  0  0  0  0  0
   -3.1253    1.7264  -18.7408 H   0  0  0  0  0  0  0  0  0  0  0  0
   -4.6473    0.5569  -17.2253 H   0  0  0  0  0  0  0  0  0  0  0  0
   -7.7443   -1.7675  -18.6339 H   0  0  0  0  0  0  0  0  0  0  0  0
   -8.1700   -0.6466  -22.1134 C   0  0  0  0  0  0  0  0  0  0  0  0
   -8.2904    0.5609  -22.0857 O   0  0  0  0  0  0  0  0  0  0  0  0
   -8.7480   -1.5876  -23.1827 C   0  0  1  0  0  0  0  0  0  0  0  0
   -7.9397   -1.3146  -24.4809 C   0  0  0  0  0  0  0  0  0  0  0  0
   -8.5753   -1.8634  -25.6771 N   0  0  0  0  0  0  0  0  0  0  0  0
   -7.7811   -2.3509  -26.7930 C   0  0  0  0  0  0  0  0  0  0  0  0
   -7.7897   -3.8507  -26.8634 C   0  0  0  0  0  0  0  0  0  0  0  0
   -6.6850   -4.5971  -26.5879 N   0  0  0  0  0  0  0  0  0  0  0  0
   -7.0923   -5.8193  -26.8594 C   0  0  0  0  0  0  0  0  0  0  0  0
   -8.3743   -5.8119  -27.2403 N   0  0  0  0  0  0  0  0  0  0  0  0
   -8.8482   -4.5441  -27.2485 N   0  0  0  0  0  0  0  0  0  0  0  0
   -8.9449   -6.5783  -27.5710 H   0  0  0  0  0  0  0  0  0  0  0  0
   -6.4873   -6.7085  -26.8160 H   0  0  0  0  0  0  0  0  0  0  0  0
   -8.2236   -1.9448  -27.7099 H   0  0  0  0  0  0  0  0  0  0  0  0
   -6.7576   -1.9815  -26.7032 H   0  0  0  0  0  0  0  0  0  0  0  0
   -9.9169   -1.7425  -25.9215 C   0  0  0  0  0  0  0  0  0  0  0  0
  -10.3979   -1.9338  -27.0314 O   0  0  0  0  0  0  0  0  0  0  0  0
  -10.7557   -1.3910  -24.7515 C   0  0  0  0  0  0  0  0  0  0  0  0
  -12.1166   -1.2093  -24.9843 C   0  0  0  0  0  0  0  0  0  0  0  0
  -12.9718   -0.9077  -23.9477 C   0  0  0  0  0  0  0  0  0  0  0  0
  -12.4265   -0.8250  -22.6733 C   0  0  0  0  0  0  0  0  0  0  0  0
  -13.2604   -0.5833  -21.6576 F   0  0  0  0  0  0  0  0  0  0  0  0
  -11.0802   -1.0092  -22.4176 C   0  0  0  0  0  0  0  0  0  0  0  0
  -10.2100   -1.2962  -23.4698 C   0  0  0  0  0  0  0  0  0  0  0  0
  -10.6939   -0.9319  -21.4109 H   0  0  0  0  0  0  0  0  0  0  0  0
  -14.0310   -0.7452  -24.1122 H   0  0  0  0  0  0  0  0  0  0  0  0
  -12.4719   -1.3273  -26.0012 H   0  0  0  0  0  0  0  0  0  0  0  0
   -7.8398   -0.2220  -24.5893 H   0  0  0  0  0  0  0  0  0  0  0  0
   -6.9256   -1.7292  -24.3872 H   0  0  0  0  0  0  0  0  0  0  0  0
   -7.5637   -3.3966  -20.5904 H   0  0  0  0  0  0  0  0  0  0  0  0
   -6.4220   -3.0964  -21.9073 H   0  0  0  0  0  0  0  0  0  0  0  0
   -9.4543   -3.1823  -21.9317 H   0  0  0  0  0  0  0  0  0  0  0  0
   -9.1318   -4.2114  -24.1987 H   0  0  0  0  0  0  0  0  0  0  0  0
   -8.2691   -5.0985  -22.9158 H   0  0  0  0  0  0  0  0  0  0  0  0
   -7.3785   -4.0269  -24.0195 H   0  0  0  0  0  0  0  0  0  0  0  0
  1  2  1  0
  2  3  1  0
  3  4  1  0
  4  5  1  0
  5  6  2  0
  6  7  1  0
  7  8  2  0
  8  9  1  0
  9 10  2  0
 10 11  1  0
 11 12  2  0
 12 13  1  0
 13 14  2  0
 13 15  1  0
 12 16  1  0
 11 17  1  0
 10 18  1  0
  8 19  1  0
  6 20  1  0
  4 21  1  0
 21 22  2  0
 21 23  1  0
 23 24  1  6
 24 25  1  0
 25 26  1  0
 26 27  1  0
 27 28  1  0
 28 29  2  0
 29 30  1  0
 30 31  1  0
 30 32  1  0
 29 33  1  0
 26 34  1  0
 26 35  1  0
 25 36  1  0
 36 37  2  0
 36 38  1  0
 38 39  2  0
 39 40  1  0
 40 41  2  0
 41 42  1  0
 41 43  1  0
 43 44  2  0
 43 45  1  0
 40 46  1  0
 39 47  1  0
 24 48  1  0
 24 49  1  0
  3 50  1  0
  3 51  1  0
  2 52  1  1
  1 53  1  0
  1 54  1  0
  1 55  1  0
 23  2  1  0
 31 27  2  0
 44 38  1  0
 14  5  1  0
 44 23  1  0
 14  9  1  0
M  END
>  <cnnaffinities>  (62) 
[5.90141]

>  <score>  (62) 
5.90141

>  <index>  (62) 
64

>  <Smiles>  (62) 
C([C@]1(C(N(c2c(nc(c3c(c(c(c(c23)[H])[H])[H])[H])[H])[H])C(=O)[C@]21C(N(C(c1nc(n(n1)[H])[H])([H])[H])C(=O)c1c(c(c(F)c(c21)[H])[H])[H])([H])[H])([H])[H])[H])([H])([H])[H]

>  <h>  (62) 
<NA>

>  <Training>  (62) 
True

>  <Success>  (62) 
True

>  <enamine_searched>  (62) 
False

>  <enamine_id>  (62) 
nan

$$$$

     RDKit          3D

 55 60  0  0  0  0  0  0  0  0999 V2000
   -8.0369   -3.9994  -23.8296 C   0  0  0  0  0  0  0  0  0  0  0  0
   -8.3709   -3.1235  -22.6182 C   0  0  1  0  0  0  0  0  0  0  0  0
   -7.0978   -2.5294  -21.9924 C   0  0  0  0  0  0  0  0  0  0  0  0
   -7.5611   -1.3403  -21.3107 N   0  0  0  0  0  0  0  0  0  0  0  0
   -6.8203   -0.7424  -20.2504 C   0  0  0  0  0  0  0  0  0  0  0  0
   -7.0784   -1.0880  -18.9466 C   0  0  0  0  0  0  0  0  0  0  0  0
   -6.3362   -0.6855  -17.8823 N   0  0  0  0  0  0  0  0  0  0  0  0
   -5.3135    0.0973  -18.1231 C   0  0  0  0  0  0  0  0  0  0  0  0
   -4.9490    0.5668  -19.4174 C   0  0  0  0  0  0  0  0  0  0  0  0
   -3.8631    1.4583  -19.6156 C   0  0  0  0  0  0  0  0  0  0  0  0
   -3.5839    1.9424  -20.8632 C   0  0  0  0  0  0  0  0  0  0  0  0
   -4.3575    1.5355  -21.9712 C   0  0  0  0  0  0  0  0  0  0  0  0
   -5.4137    0.6716  -21.8040 C   0  0  0  0  0  0  0  0  0  0  0  0
   -5.7324    0.1555  -20.5196 C   0  0  0  0  0  0  0  0  0  0  0  0
   -6.0331    0.3900  -22.6496 H   0  0  0  0  0  0  0  0  0  0  0  0
   -4.1259    1.9244  -22.9581 H   0  0  0  0  0  0  0  0  0  0  0  0
   -2.7797    2.6594  -21.0032 H   0  0  0  0  0  0  0  0  0  0  0  0
   -3.2780    1.7550  -18.7506 H   0  0  0  0  0  0  0  0  0  0  0  0
   -4.7284    0.4213  -17.2633 H   0  0  0  0  0  0  0  0  0  0  0  0
   -7.9245   -1.7332  -18.7180 H   0  0  0  0  0  0  0  0  0  0  0  0
   -8.8327   -0.9484  -21.6780 C   0  0  0  0  0  0  0  0  0  0  0  0
   -9.4168   -0.0068  -21.1767 O   0  0  0  0  0  0  0  0  0  0  0  0
   -9.3203   -1.8843  -22.8238 C   0  0  1  0  0  0  0  0  0  0  0  0
   -9.0983   -1.1800  -24.1824 C   0  0  0  0  0  0  0  0  0  0  0  0
   -9.6006   -1.9887  -25.2963 N   0  0  0  0  0  0  0  0  0  0  0  0
   -9.1187   -1.6499  -26.6424 C   0  0  0  0  0  0  0  0  0  0  0  0
   -9.6537   -0.3383  -27.1308 C   0  0  0  0  0  0  0  0  0  0  0  0
  -10.8912   -0.0208  -27.5752 C   0  0  0  0  0  0  0  0  0  0  0  0
  -10.9629    1.3340  -27.6934 O   0  0  0  0  0  0  0  0  0  0  0  0
   -9.7413    1.7659  -27.3294 C   0  0  0  0  0  0  0  0  0  0  0  0
   -8.9170    0.8357  -26.9968 N   0  0  0  0  0  0  0  0  0  0  0  0
   -9.5954    2.8375  -27.2900 H   0  0  0  0  0  0  0  0  0  0  0  0
  -11.7625   -0.5968  -27.8426 H   0  0  0  0  0  0  0  0  0  0  0  0
   -8.0257   -1.6023  -26.6390 H   0  0  0  0  0  0  0  0  0  0  0  0
   -9.4392   -2.4636  -27.2966 H   0  0  0  0  0  0  0  0  0  0  0  0
  -10.9003   -2.4481  -25.2555 C   0  0  0  0  0  0  0  0  0  0  0  0
  -11.5183   -2.7398  -26.2669 O   0  0  0  0  0  0  0  0  0  0  0  0
  -11.5195   -2.5605  -23.9039 C   0  0  0  0  0  0  0  0  0  0  0  0
  -12.8476   -2.9874  -23.8228 C   0  0  0  0  0  0  0  0  0  0  0  0
  -13.4811   -3.0719  -22.5977 C   0  0  0  0  0  0  0  0  0  0  0  0
  -12.7614   -2.7461  -21.4601 C   0  0  0  0  0  0  0  0  0  0  0  0
  -13.3870   -2.8704  -20.2768 F   0  0  0  0  0  0  0  0  0  0  0  0
  -11.4594   -2.2883  -21.5279 C   0  0  0  0  0  0  0  0  0  0  0  0
  -10.7998   -2.2273  -22.7505 C   0  0  0  0  0  0  0  0  0  0  0  0
  -10.9408   -1.9136  -20.6596 H   0  0  0  0  0  0  0  0  0  0  0  0
  -14.5111   -3.3756  -22.4705 H   0  0  0  0  0  0  0  0  0  0  0  0
  -13.3563   -3.2413  -24.7457 H   0  0  0  0  0  0  0  0  0  0  0  0
   -8.0249   -1.0083  -24.3361 H   0  0  0  0  0  0  0  0  0  0  0  0
   -9.6280   -0.2159  -24.1498 H   0  0  0  0  0  0  0  0  0  0  0  0
   -6.6224   -3.2141  -21.2784 H   0  0  0  0  0  0  0  0  0  0  0  0
   -6.3660   -2.2738  -22.7793 H   0  0  0  0  0  0  0  0  0  0  0  0
   -8.8692   -3.7582  -21.8719 H   0  0  0  0  0  0  0  0  0  0  0  0
   -7.5217   -3.4226  -24.6065 H   0  0  0  0  0  0  0  0  0  0  0  0
   -8.9361   -4.4298  -24.2827 H   0  0  0  0  0  0  0  0  0  0  0  0
   -7.3659   -4.8145  -23.5327 H   0  0  0  0  0  0  0  0  0  0  0  0
  1  2  1  0
  2  3  1  0
  3  4  1  0
  4  5  1  0
  5  6  2  0
  6  7  1  0
  7  8  2  0
  8  9  1  0
  9 10  2  0
 10 11  1  0
 11 12  2  0
 12 13  1  0
 13 14  2  0
 13 15  1  0
 12 16  1  0
 11 17  1  0
 10 18  1  0
  8 19  1  0
  6 20  1  0
  4 21  1  0
 21 22  2  0
 21 23  1  0
 23 24  1  6
 24 25  1  0
 25 26  1  0
 26 27  1  0
 27 28  2  0
 28 29  1  0
 29 30  1  0
 30 31  2  0
 30 32  1  0
 28 33  1  0
 26 34  1  0
 26 35  1  0
 25 36  1  0
 36 37  2  0
 36 38  1  0
 38 39  2  0
 39 40  1  0
 40 41  2  0
 41 42  1  0
 41 43  1  0
 43 44  2  0
 43 45  1  0
 40 46  1  0
 39 47  1  0
 24 48  1  0
 24 49  1  0
  3 50  1  0
  3 51  1  0
  2 52  1  1
  1 53  1  0
  1 54  1  0
  1 55  1  0
 23  2  1  0
 31 27  1  0
 44 38  1  0
 14  5  1  0
 44 23  1  0
 14  9  1  0
M  END
>  <cnnaffinities>  (63) 
[5.49185]

>  <score>  (63) 
5.49185

>  <index>  (63) 
65

>  <Smiles>  (63) 
C([C@]1(C(N(c2c(nc(c3c(c(c(c(c23)[H])[H])[H])[H])[H])[H])C(=O)[C@]21C(N(C(c1c(oc(n1)[H])[H])([H])[H])C(=O)c1c(c(c(F)c(c21)[H])[H])[H])([H])[H])([H])[H])[H])([H])([H])[H]

>  <h>  (63) 
<NA>

>  <Training>  (63) 
True

>  <Success>  (63) 
True

>  <enamine_searched>  (63) 
False

>  <enamine_id>  (63) 
nan

$$$$

     RDKit          3D

 44 47  0  0  0  0  0  0  0  0999 V2000
  -10.7034   -3.4749  -21.7767 C   0  0  0  0  0  0  0  0  0  0  0  0
  -10.4030   -3.5078  -21.9873 C   0  0  0  0  0  0  0  0  0  0  0  0
   -9.9410   -2.3478  -22.6295 C   0  0  1  0  0  0  0  0  0  0  0  0
  -10.3522   -2.3057  -24.0524 C   0  0  0  0  0  0  0  0  0  0  0  0
  -10.2096   -3.3879  -24.9995 C   0  0  0  0  0  0  0  0  0  0  0  0
  -10.5290   -3.0416  -26.2734 C   0  0  0  0  0  0  0  0  0  0  0  0
  -11.0468   -1.4004  -26.3629 S   0  0  0  0  0  0  0  0  0  0  0  0
  -10.7417   -1.1645  -24.6781 C   0  0  0  0  0  0  0  0  0  0  0  0
  -10.7997    0.1844  -24.0162 C   0  0  0  0  0  0  0  0  0  0  0  0
  -10.9415    0.0101  -22.5100 C   0  0  0  0  0  0  0  0  0  0  0  0
   -9.9652   -0.9789  -21.9860 N   0  0  0  0  0  0  0  0  0  0  0  0
   -8.8495   -0.4202  -21.3627 C   0  0  0  0  0  0  0  0  0  0  0  0
   -8.7949    0.7707  -21.1157 O   0  0  0  0  0  0  0  0  0  0  0  0
   -7.6217   -1.3022  -21.0127 C   0  0  0  0  0  0  0  0  0  0  0  0
   -6.7154   -0.6729  -19.9780 C   0  0  0  0  0  0  0  0  0  0  0  0
   -6.8346   -1.0200  -18.6566 C   0  0  0  0  0  0  0  0  0  0  0  0
   -6.0707   -0.5544  -17.6324 N   0  0  0  0  0  0  0  0  0  0  0  0
   -5.1261    0.2992  -17.9433 C   0  0  0  0  0  0  0  0  0  0  0  0
   -4.8793    0.7587  -19.2635 C   0  0  0  0  0  0  0  0  0  0  0  0
   -3.8310    1.6747  -19.5330 C   0  0  0  0  0  0  0  0  0  0  0  0
   -3.6195    2.1289  -20.8047 C   0  0  0  0  0  0  0  0  0  0  0  0
   -4.4612    1.6974  -21.8543 C   0  0  0  0  0  0  0  0  0  0  0  0
   -5.4864    0.8139  -21.6138 C   0  0  0  0  0  0  0  0  0  0  0  0
   -5.7115    0.2934  -20.3105 C   0  0  0  0  0  0  0  0  0  0  0  0
   -6.1501    0.5281  -22.4236 H   0  0  0  0  0  0  0  0  0  0  0  0
   -4.2923    2.0751  -22.8578 H   0  0  0  0  0  0  0  0  0  0  0  0
   -2.8172    2.8340  -21.0067 H   0  0  0  0  0  0  0  0  0  0  0  0
   -3.2190    2.0117  -18.6971 H   0  0  0  0  0  0  0  0  0  0  0  0
   -4.4971    0.6707  -17.1297 H   0  0  0  0  0  0  0  0  0  0  0  0
   -7.5873   -1.7376  -18.3368 H   0  0  0  0  0  0  0  0  0  0  0  0
   -7.0679   -1.4577  -21.9504 H   0  0  0  0  0  0  0  0  0  0  0  0
   -7.9281   -2.2979  -20.6544 H   0  0  0  0  0  0  0  0  0  0  0  0
  -10.7587    0.9558  -21.9951 H   0  0  0  0  0  0  0  0  0  0  0  0
  -11.9733   -0.2953  -22.2754 H   0  0  0  0  0  0  0  0  0  0  0  0
   -9.8844    0.7457  -24.2553 H   0  0  0  0  0  0  0  0  0  0  0  0
  -11.6328    0.7710  -24.4077 H   0  0  0  0  0  0  0  0  0  0  0  0
  -10.4574   -3.6373  -27.1789 H   0  0  0  0  0  0  0  0  0  0  0  0
   -9.8500   -4.3780  -24.7320 H   0  0  0  0  0  0  0  0  0  0  0  0
   -8.8460   -2.4885  -22.7476 H   0  0  0  0  0  0  0  0  0  0  0  0
  -11.8399   -2.6241  -21.2493 H   0  0  0  0  0  0  0  0  0  0  0  0
   -9.7223   -3.6427  -20.9543 H   0  0  0  0  0  0  0  0  0  0  0  0
  -11.7251   -4.1305  -20.8980 H   0  0  0  0  0  0  0  0  0  0  0  0
  -11.1085   -4.1312  -22.7846 H   0  0  0  0  0  0  0  0  0  0  0  0
   -9.4473   -4.2037  -22.6881 H   0  0  0  0  0  0  0  0  0  0  0  0
  1  2  1  0
  2  3  1  0
  3  4  1  0
  4  5  1  0
  5  6  2  0
  6  7  1  0
  7  8  1  0
  8  9  1  0
  9 10  1  0
 10 11  1  0
 11 12  1  0
 12 13  2  0
 12 14  1  0
 14 15  1  0
 15 16  2  0
 16 17  1  0
 17 18  2  0
 18 19  1  0
 19 20  2  0
 20 21  1  0
 21 22  2  0
 22 23  1  0
 23 24  2  0
 23 25  1  0
 22 26  1  0
 21 27  1  0
 20 28  1  0
 18 29  1  0
 16 30  1  0
 14 31  1  0
 14 32  1  0
 10 33  1  0
 10 34  1  0
  9 35  1  0
  9 36  1  0
  6 37  1  0
  5 38  1  0
  3 39  1  6
  2 40  1  0
  2 41  1  0
  1 42  1  0
  1 43  1  0
  1 44  1  0
 11  3  1  0
 24 15  1  0
  8  4  2  0
 24 19  1  0
M  END
>  <cnnaffinities>  (64) 
[5.39882]

>  <score>  (64) 
5.39882

>  <index>  (64) 
66

>  <Smiles>  (64) 
C(C([C@]1(c2c(c(sc2C(C(N1C(=O)C(c1c(nc(c2c(c(c(c(c12)[H])[H])[H])[H])[H])[H])([H])[H])([H])[H])([H])[H])[H])[H])[H])([H])[H])([H])([H])[H]

>  <h>  (64) 
<NA>

>  <Training>  (64) 
True

>  <Success>  (64) 
True

>  <enamine_searched>  (64) 
False

>  <enamine_id>  (64) 
nan

$$$$

     RDKit          3D

 58 63  0  0  0  0  0  0  0  0999 V2000
   -8.2761   -7.2397  -27.5038 C   0  0  0  0  0  0  0  0  0  0  0  0
   -7.7945   -5.8487  -27.2193 C   0  0  0  0  0  0  0  0  0  0  0  0
   -8.5169   -4.6277  -27.3604 C   0  0  0  0  0  0  0  0  0  0  0  0
   -7.6277   -3.6806  -26.9559 C   0  0  0  0  0  0  0  0  0  0  0  0
   -7.6977   -2.1914  -26.8122 C   0  0  0  0  0  0  0  0  0  0  0  0
   -8.5196   -1.7850  -25.6791 N   0  0  0  0  0  0  0  0  0  0  0  0
   -7.9071   -1.2724  -24.4558 C   0  0  0  0  0  0  0  0  0  0  0  0
   -8.7374   -1.5727  -23.1762 C   0  0  2  0  0  0  0  0  0  0  0  0
   -8.1837   -0.6379  -22.0892 C   0  0  0  0  0  0  0  0  0  0  0  0
   -8.3189    0.5714  -22.0397 O   0  0  0  0  0  0  0  0  0  0  0  0
   -7.4525   -1.3767  -21.1859 N   0  0  0  0  0  0  0  0  0  0  0  0
   -6.6646   -0.7823  -20.1764 C   0  0  0  0  0  0  0  0  0  0  0  0
   -6.9167   -1.0976  -18.8631 C   0  0  0  0  0  0  0  0  0  0  0  0
   -6.2265   -0.6121  -17.8069 N   0  0  0  0  0  0  0  0  0  0  0  0
   -5.2090    0.1717  -18.0734 C   0  0  0  0  0  0  0  0  0  0  0  0
   -4.8307    0.5723  -19.3869 C   0  0  0  0  0  0  0  0  0  0  0  0
   -3.7300    1.4459  -19.5977 C   0  0  0  0  0  0  0  0  0  0  0  0
   -3.4603    1.9200  -20.8503 C   0  0  0  0  0  0  0  0  0  0  0  0
   -4.2395    1.5037  -21.9534 C   0  0  0  0  0  0  0  0  0  0  0  0
   -5.2495    0.5906  -21.7879 C   0  0  0  0  0  0  0  0  0  0  0  0
   -5.5922    0.1176  -20.4834 C   0  0  0  0  0  0  0  0  0  0  0  0
   -5.8040    0.2585  -22.6561 H   0  0  0  0  0  0  0  0  0  0  0  0
   -4.0367    1.9200  -22.9363 H   0  0  0  0  0  0  0  0  0  0  0  0
   -2.6700    2.6471  -21.0008 H   0  0  0  0  0  0  0  0  0  0  0  0
   -3.1279    1.7315  -18.7380 H   0  0  0  0  0  0  0  0  0  0  0  0
   -4.6475    0.5582  -17.2245 H   0  0  0  0  0  0  0  0  0  0  0  0
   -7.7388   -1.7707  -18.6302 H   0  0  0  0  0  0  0  0  0  0  0  0
   -7.3877   -2.7936  -21.5000 C   0  0  0  0  0  0  0  0  0  0  0  0
   -8.5210   -2.9827  -22.5149 C   0  0  2  0  0  0  0  0  0  0  0  0
   -8.2618   -4.1331  -23.4712 C   0  0  0  0  0  0  0  0  0  0  0  0
   -7.2930   -3.9927  -23.9625 H   0  0  0  0  0  0  0  0  0  0  0  0
   -9.0362   -4.1742  -24.2438 H   0  0  0  0  0  0  0  0  0  0  0  0
   -8.2427   -5.0824  -22.9255 H   0  0  0  0  0  0  0  0  0  0  0  0
   -9.4392   -3.1839  -21.9403 H   0  0  0  0  0  0  0  0  0  0  0  0
   -7.5301   -3.3982  -20.5980 H   0  0  0  0  0  0  0  0  0  0  0  0
   -6.4085   -3.0657  -21.9265 H   0  0  0  0  0  0  0  0  0  0  0  0
  -10.1994   -1.3010  -23.4728 C   0  0  0  0  0  0  0  0  0  0  0  0
  -11.0837   -1.0295  -22.4249 C   0  0  0  0  0  0  0  0  0  0  0  0
  -12.4310   -0.8635  -22.6893 C   0  0  0  0  0  0  0  0  0  0  0  0
  -13.2771   -0.6272  -21.6794 F   0  0  0  0  0  0  0  0  0  0  0  0
  -12.9588   -0.9601  -23.9705 C   0  0  0  0  0  0  0  0  0  0  0  0
  -12.0908   -1.2533  -25.0015 C   0  0  0  0  0  0  0  0  0  0  0  0
  -10.7276   -1.4126  -24.7590 C   0  0  0  0  0  0  0  0  0  0  0  0
   -9.8678   -1.7600  -25.9159 C   0  0  0  0  0  0  0  0  0  0  0  0
  -10.3486   -2.0184  -27.0145 O   0  0  0  0  0  0  0  0  0  0  0  0
  -12.4415   -1.3791  -26.0196 H   0  0  0  0  0  0  0  0  0  0  0  0
  -14.0202   -0.8189  -24.1391 H   0  0  0  0  0  0  0  0  0  0  0  0
  -10.7094   -0.9514  -21.4136 H   0  0  0  0  0  0  0  0  0  0  0  0
   -6.8987   -1.7010  -24.3532 H   0  0  0  0  0  0  0  0  0  0  0  0
   -7.7997   -0.1774  -24.5254 H   0  0  0  0  0  0  0  0  0  0  0  0
   -8.1670   -1.7721  -27.7080 H   0  0  0  0  0  0  0  0  0  0  0  0
   -6.6967   -1.7700  -26.7097 H   0  0  0  0  0  0  0  0  0  0  0  0
   -6.4784   -4.2683  -26.6003 O   0  0  0  0  0  0  0  0  0  0  0  0
   -6.5811   -5.6371  -26.7716 N   0  0  0  0  0  0  0  0  0  0  0  0
   -9.5260   -4.5016  -27.7163 H   0  0  0  0  0  0  0  0  0  0  0  0
   -9.3353   -7.3401  -27.2436 H   0  0  0  0  0  0  0  0  0  0  0  0
   -7.6889   -7.9596  -26.9254 H   0  0  0  0  0  0  0  0  0  0  0  0
   -8.1772   -7.4788  -28.5695 H   0  0  0  0  0  0  0  0  0  0  0  0
  1  2  1  0
  2  3  1  0
  3  4  2  0
  4  5  1  0
  5  6  1  0
  6  7  1  0
  8  7  1  6
  8  9  1  0
  9 10  2  0
  9 11  1  0
 11 12  1  0
 12 13  2  0
 13 14  1  0
 14 15  2  0
 15 16  1  0
 16 17  2  0
 17 18  1  0
 18 19  2  0
 19 20  1  0
 20 21  2  0
 20 22  1  0
 19 23  1  0
 18 24  1  0
 17 25  1  0
 15 26  1  0
 13 27  1  0
 11 28  1  0
 28 29  1  0
 29 30  1  0
 30 31  1  0
 30 32  1  0
 30 33  1  0
 29 34  1  1
 28 35  1  0
 28 36  1  0
  8 37  1  0
 37 38  2  0
 38 39  1  0
 39 40  1  0
 39 41  2  0
 41 42  1  0
 42 43  2  0
 43 44  1  0
 44 45  2  0
 42 46  1  0
 41 47  1  0
 38 48  1  0
  7 49  1  0
  7 50  1  0
  5 51  1  0
  5 52  1  0
  4 53  1  0
 53 54  1  0
  3 55  1  0
  1 56  1  0
  1 57  1  0
  1 58  1  0
 54  2  2  0
 44  6  1  0
 29  8  1  0
 43 37  1  0
 21 12  1  0
 21 16  1  0
M  END
>  <cnnaffinities>  (65) 
[6.0634]

>  <score>  (65) 
6.0634

>  <index>  (65) 
67

>  <Smiles>  (65) 
C(c1c(c(C(N2C([C@@]3(C(=O)N(c4c(nc(c5c(c(c(c(c45)[H])[H])[H])[H])[H])[H])C([C@@]3(C([H])([H])[H])[H])([H])[H])c3c(c(F)c(c(c3C2=O)[H])[H])[H])([H])[H])([H])[H])on1)[H])([H])([H])[H]

>  <h>  (65) 
<NA>

>  <Training>  (65) 
True

>  <Success>  (65) 
True

>  <enamine_searched>  (65) 
False

>  <enamine_id>  (65) 
nan

$$$$

     RDKit          3D

 65 70  0  0  0  0  0  0  0  0999 V2000
   -9.3099   -0.0059  -20.8934 O   0  0  0  0  0  0  0  0  0  0  0  0
   -8.4443   -0.3388  -21.6819 C   0  0  0  0  0  0  0  0  0  0  0  0
   -7.4471   -1.4163  -21.2712 C   0  0  0  0  0  0  0  0  0  0  0  0
   -6.5839   -0.8417  -20.1658 C   0  0  0  0  0  0  0  0  0  0  0  0
   -6.8961   -1.0617  -18.8479 C   0  0  0  0  0  0  0  0  0  0  0  0
   -6.2115   -0.5709  -17.7839 N   0  0  0  0  0  0  0  0  0  0  0  0
   -5.1980    0.2215  -18.0488 C   0  0  0  0  0  0  0  0  0  0  0  0
   -4.7852    0.5814  -19.3639 C   0  0  0  0  0  0  0  0  0  0  0  0
   -3.6698    1.4269  -19.6028 C   0  0  0  0  0  0  0  0  0  0  0  0
   -3.3709    1.8480  -20.8742 C   0  0  0  0  0  0  0  0  0  0  0  0
   -4.1660    1.4152  -21.9573 C   0  0  0  0  0  0  0  0  0  0  0  0
   -5.1355    0.4537  -21.7681 C   0  0  0  0  0  0  0  0  0  0  0  0
   -5.5033    0.0391  -20.4585 C   0  0  0  0  0  0  0  0  0  0  0  0
   -5.6439    0.0426  -22.6323 H   0  0  0  0  0  0  0  0  0  0  0  0
   -3.9627    1.7868  -22.9618 H   0  0  0  0  0  0  0  0  0  0  0  0
   -2.5201    2.5023  -21.0502 H   0  0  0  0  0  0  0  0  0  0  0  0
   -3.0867    1.7579  -18.7480 H   0  0  0  0  0  0  0  0  0  0  0  0
   -4.6359    0.6106  -17.1984 H   0  0  0  0  0  0  0  0  0  0  0  0
   -7.7560   -1.6815  -18.5956 H   0  0  0  0  0  0  0  0  0  0  0  0
   -8.0246   -2.2591  -20.8814 H   0  0  0  0  0  0  0  0  0  0  0  0
   -6.8463   -1.7687  -22.1130 H   0  0  0  0  0  0  0  0  0  0  0  0
   -8.2342    0.3175  -22.8965 N   0  0  0  0  0  0  0  0  0  0  0  0
   -8.0609   -0.3912  -24.1658 C   0  0  0  0  0  0  0  0  0  0  0  0
   -9.3294   -1.0512  -24.6879 C   0  0  0  0  0  0  0  0  0  0  0  0
  -10.1196   -0.4642  -25.6780 C   0  0  0  0  0  0  0  0  0  0  0  0
  -11.2928   -1.0798  -26.1097 C   0  0  0  0  0  0  0  0  0  0  0  0
  -11.7029   -2.2870  -25.5582 C   0  0  0  0  0  0  0  0  0  0  0  0
  -10.9252   -2.8526  -24.5588 C   0  0  0  0  0  0  0  0  0  0  0  0
  -11.4815   -4.3014  -23.7786 Cl  0  0  0  0  0  0  0  0  0  0  0  0
   -9.7406   -2.2654  -24.1366 C   0  0  0  0  0  0  0  0  0  0  0  0
   -9.1454   -2.7663  -23.3754 H   0  0  0  0  0  0  0  0  0  0  0  0
  -12.6169   -2.7803  -25.8750 H   0  0  0  0  0  0  0  0  0  0  0  0
  -11.8995   -0.6019  -26.8705 H   0  0  0  0  0  0  0  0  0  0  0  0
   -9.8288    0.4873  -26.1198 H   0  0  0  0  0  0  0  0  0  0  0  0
   -7.2934   -1.1549  -24.0207 H   0  0  0  0  0  0  0  0  0  0  0  0
   -7.6556    0.3155  -24.8940 H   0  0  0  0  0  0  0  0  0  0  0  0
   -8.5724    1.7344  -22.9102 C   0  0  2  0  0  0  0  0  0  0  0  0
  -10.0635    2.1203  -23.0178 C   0  0  0  0  0  0  0  0  0  0  0  0
  -10.0009    3.6228  -23.4193 C   0  0  0  0  0  0  0  0  0  0  0  0
   -8.4977    3.9076  -23.4796 C   0  0  2  0  0  0  0  0  0  0  0  0
   -7.9373    2.5935  -24.0105 C   0  0  0  0  0  0  0  0  0  0  0  0
   -8.3241    2.3614  -25.0039 H   0  0  0  0  0  0  0  0  0  0  0  0
   -6.8430    2.5410  -24.0109 H   0  0  0  0  0  0  0  0  0  0  0  0
   -8.0128    3.9097  -22.0232 N   0  0  2  0  0  4  0  0  0  0  0  0
   -6.6899    4.5464  -21.7626 C   0  0  0  0  0  0  0  0  0  0  0  0
   -6.6891    6.0487  -21.9951 C   0  0  0  0  0  0  0  0  0  0  0  0
   -6.2565    6.5323  -23.3915 C   0  0  0  0  0  0  0  0  0  0  0  0
   -5.0660    7.1407  -22.8797 O   0  0  0  0  0  0  0  0  0  0  0  0
   -5.4046    6.7651  -21.5362 C   0  0  0  0  0  0  0  0  0  0  0  0
   -4.6424    6.1056  -21.1006 H   0  0  0  0  0  0  0  0  0  0  0  0
   -5.5180    7.6399  -20.8829 H   0  0  0  0  0  0  0  0  0  0  0  0
   -6.0152    5.7294  -24.1018 H   0  0  0  0  0  0  0  0  0  0  0  0
   -6.9102    7.2649  -23.8835 H   0  0  0  0  0  0  0  0  0  0  0  0
   -7.6324    6.4623  -21.6263 H   0  0  0  0  0  0  0  0  0  0  0  0
   -6.3946    4.3384  -20.7273 H   0  0  0  0  0  0  0  0  0  0  0  0
   -5.9228    4.0725  -22.3928 H   0  0  0  0  0  0  0  0  0  0  0  0
   -8.0438    2.4477  -21.6559 C   0  0  0  0  0  0  0  0  0  0  0  0
   -7.0399    2.1210  -21.3878 H   0  0  0  0  0  0  0  0  0  0  0  0
   -8.6930    2.2822  -20.8007 H   0  0  0  0  0  0  0  0  0  0  0  0
   -8.7149    4.3818  -21.4201 H   0  0  0  0  0  0  0  0  0  0  0  0
   -8.2003    4.8328  -23.9664 H   0  0  0  0  0  0  0  0  0  0  0  0
  -10.4667    3.7919  -24.3939 H   0  0  0  0  0  0  0  0  0  0  0  0
  -10.4798    4.2925  -22.6941 H   0  0  0  0  0  0  0  0  0  0  0  0
  -10.5454    1.5156  -23.7907 H   0  0  0  0  0  0  0  0  0  0  0  0
  -10.5880    1.9409  -22.0780 H   0  0  0  0  0  0  0  0  0  0  0  0
  1  2  2  0
  2  3  1  0
  3  4  1  0
  4  5  2  0
  5  6  1  0
  6  7  2  0
  7  8  1  0
  8  9  2  0
  9 10  1  0
 10 11  2  0
 11 12  1  0
 12 13  2  0
 12 14  1  0
 11 15  1  0
 10 16  1  0
  9 17  1  0
  7 18  1  0
  5 19  1  0
  3 20  1  0
  3 21  1  0
  2 22  1  0
 22 23  1  0
 23 24  1  0
 24 25  2  0
 25 26  1  0
 26 27  2  0
 27 28  1  0
 28 29  1  0
 28 30  2  0
 30 31  1  0
 27 32  1  0
 26 33  1  0
 25 34  1  0
 23 35  1  0
 23 36  1  0
 37 22  1  6
 37 38  1  0
 38 39  1  0
 39 40  1  0
 40 41  1  0
 41 42  1  0
 41 43  1  0
 40 44  1  0
 44 45  1  0
 45 46  1  0
 46 47  1  0
 47 48  1  0
 48 49  1  0
 49 50  1  0
 49 51  1  0
 47 52  1  0
 47 53  1  0
 46 54  1  0
 45 55  1  0
 45 56  1  0
 44 57  1  0
 57 58  1  0
 57 59  1  0
 44 60  1  1
 40 61  1  6
 39 62  1  0
 39 63  1  0
 38 64  1  0
 38 65  1  0
 13  4  1  0
 30 24  1  0
 41 37  1  0
 49 46  1  0
 13  8  1  0
 57 37  1  0
M  CHG  1  44   1
M  END
>  <cnnaffinities>  (66) 
[5.99094, 5.98618, 5.58118, 5.89706]

>  <score>  (66) 
5.99094

>  <index>  (66) 
68

>  <Smiles>  (66) 
O=C(C(c1c(nc(c2c(c(c(c(c12)[H])[H])[H])[H])[H])[H])([H])[H])N(C(c1c(c(c(c(Cl)c1[H])[H])[H])[H])([H])[H])[C@]12C(C([C@](C1([H])[H])([N@+](C(C1(C(OC1([H])[H])([H])[H])[H])([H])[H])(C2([H])[H])[H])[H])([H])[H])([H])[H]

>  <h>  (66) 
<NA>

>  <Training>  (66) 
True

>  <Success>  (66) 
True

>  <enamine_searched>  (66) 
False

>  <enamine_id>  (66) 
nan

$$$$

     RDKit          3D

 63 67  0  0  0  0  0  0  0  0999 V2000
  -15.2517   -5.0376  -25.1961 C   0  0  0  0  0  0  0  0  0  0  0  0
  -14.5024   -4.3379  -24.3506 C   0  0  0  0  0  0  0  0  0  0  0  0
  -13.5238   -3.3420  -24.8516 C   0  0  0  0  0  0  0  0  0  0  0  0
  -13.5037   -2.9534  -26.0049 O   0  0  0  0  0  0  0  0  0  0  0  0
  -12.5754   -2.9595  -23.9059 N   0  0  0  0  0  0  0  0  0  0  0  0
  -12.9932   -2.6849  -22.5352 C   0  0  0  0  0  0  0  0  0  0  0  0
  -12.8118   -1.2007  -22.3323 C   0  0  0  0  0  0  0  0  0  0  0  0
  -11.3241   -0.9325  -22.3264 C   0  0  0  0  0  0  0  0  0  0  0  0
  -10.6279   -1.5464  -23.5174 C   0  0  0  0  0  0  0  0  0  0  0  0
  -11.3138   -2.4712  -24.3212 C   0  0  0  0  0  0  0  0  0  0  0  0
  -10.7315   -2.9271  -25.5100 C   0  0  0  0  0  0  0  0  0  0  0  0
   -9.4241   -2.6123  -25.8232 C   0  0  0  0  0  0  0  0  0  0  0  0
   -8.6936   -1.7692  -24.9913 C   0  0  0  0  0  0  0  0  0  0  0  0
   -9.3206   -1.2206  -23.8785 C   0  0  0  0  0  0  0  0  0  0  0  0
   -8.5459   -0.1199  -23.1390 N   0  0  1  0  0  4  0  0  0  0  0  0
   -8.9590    1.3209  -23.5610 C   0  0  0  0  0  0  0  0  0  0  0  0
   -7.8278    2.2830  -23.2830 C   0  0  0  0  0  0  0  0  0  0  0  0
   -7.7814    2.9361  -22.0547 C   0  0  0  0  0  0  0  0  0  0  0  0
   -6.8494    3.9335  -21.8150 C   0  0  0  0  0  0  0  0  0  0  0  0
   -5.8891    4.2349  -22.7757 C   0  0  0  0  0  0  0  0  0  0  0  0
   -5.8496    3.4812  -23.9424 C   0  0  0  0  0  0  0  0  0  0  0  0
   -4.4917    3.6640  -25.0239 Cl  0  0  0  0  0  0  0  0  0  0  0  0
   -6.8216    2.5284  -24.2162 C   0  0  0  0  0  0  0  0  0  0  0  0
   -6.8027    1.9853  -25.1502 H   0  0  0  0  0  0  0  0  0  0  0  0
   -5.1687    5.0277  -22.6251 H   0  0  0  0  0  0  0  0  0  0  0  0
   -6.8694    4.4763  -20.8731 H   0  0  0  0  0  0  0  0  0  0  0  0
   -8.4756    2.6078  -21.2929 H   0  0  0  0  0  0  0  0  0  0  0  0
   -9.2455    1.2764  -24.6122 H   0  0  0  0  0  0  0  0  0  0  0  0
   -9.8422    1.5860  -22.9773 H   0  0  0  0  0  0  0  0  0  0  0  0
   -8.4657   -0.2698  -21.6777 C   0  0  0  0  0  0  0  0  0  0  0  0
   -9.1778    0.3638  -20.9397 O   0  0  0  0  0  0  0  0  0  0  0  0
   -7.4873   -1.3322  -21.1998 C   0  0  0  0  0  0  0  0  0  0  0  0
   -6.6062   -0.7881  -20.1087 C   0  0  0  0  0  0  0  0  0  0  0  0
   -6.8604   -1.0807  -18.7964 C   0  0  0  0  0  0  0  0  0  0  0  0
   -6.1544   -0.6034  -17.7384 N   0  0  0  0  0  0  0  0  0  0  0  0
   -5.1610    0.2072  -18.0115 C   0  0  0  0  0  0  0  0  0  0  0  0
   -4.7844    0.6029  -19.3260 C   0  0  0  0  0  0  0  0  0  0  0  0
   -3.7120    1.4992  -19.5648 C   0  0  0  0  0  0  0  0  0  0  0  0
   -3.4545    1.9587  -20.8254 C   0  0  0  0  0  0  0  0  0  0  0  0
   -4.2199    1.4886  -21.9147 C   0  0  0  0  0  0  0  0  0  0  0  0
   -5.2498    0.6019  -21.7176 C   0  0  0  0  0  0  0  0  0  0  0  0
   -5.5513    0.1228  -20.4135 C   0  0  0  0  0  0  0  0  0  0  0  0
   -5.8618    0.3156  -22.5675 H   0  0  0  0  0  0  0  0  0  0  0  0
   -3.9974    1.8361  -22.9197 H   0  0  0  0  0  0  0  0  0  0  0  0
   -2.6765    2.6976  -20.9992 H   0  0  0  0  0  0  0  0  0  0  0  0
   -3.1307    1.8481  -18.7151 H   0  0  0  0  0  0  0  0  0  0  0  0
   -4.5918    0.5994  -17.1684 H   0  0  0  0  0  0  0  0  0  0  0  0
   -7.6680   -1.7673  -18.5387 H   0  0  0  0  0  0  0  0  0  0  0  0
   -6.8975   -1.7041  -22.0430 H   0  0  0  0  0  0  0  0  0  0  0  0
   -8.0952   -2.1691  -20.8317 H   0  0  0  0  0  0  0  0  0  0  0  0
   -7.5790   -0.2476  -23.4977 H   0  0  0  0  0  0  0  0  0  0  0  0
   -7.6598   -1.5337  -25.2299 H   0  0  0  0  0  0  0  0  0  0  0  0
   -8.9821   -3.0116  -26.7346 H   0  0  0  0  0  0  0  0  0  0  0  0
  -11.3232   -3.5057  -26.1999 H   0  0  0  0  0  0  0  0  0  0  0  0
  -11.1383    0.1373  -22.2741 H   0  0  0  0  0  0  0  0  0  0  0  0
  -10.8927   -1.3537  -21.4135 H   0  0  0  0  0  0  0  0  0  0  0  0
  -13.2783   -0.6980  -23.1812 H   0  0  0  0  0  0  0  0  0  0  0  0
  -13.3082   -0.8351  -21.4326 H   0  0  0  0  0  0  0  0  0  0  0  0
  -12.3849   -3.2651  -21.8326 H   0  0  0  0  0  0  0  0  0  0  0  0
  -14.0307   -2.9807  -22.3989 H   0  0  0  0  0  0  0  0  0  0  0  0
  -14.4596   -4.5811  -23.2952 H   0  0  0  0  0  0  0  0  0  0  0  0
  -15.7734   -5.9287  -24.8722 H   0  0  0  0  0  0  0  0  0  0  0  0
  -15.3039   -4.7848  -26.2491 H   0  0  0  0  0  0  0  0  0  0  0  0
  1  2  2  0
  2  3  1  0
  3  4  2  0
  3  5  1  0
  5  6  1  0
  6  7  1  0
  7  8  1  0
  8  9  1  0
  9 10  2  0
 10 11  1  0
 11 12  2  0
 12 13  1  0
 13 14  2  0
 14 15  1  0
 15 16  1  0
 16 17  1  0
 17 18  2  0
 18 19  1  0
 19 20  2  0
 20 21  1  0
 21 22  1  0
 21 23  2  0
 23 24  1  0
 20 25  1  0
 19 26  1  0
 18 27  1  0
 16 28  1  0
 16 29  1  0
 15 30  1  0
 30 31  2  0
 30 32  1  0
 32 33  1  0
 33 34  2  0
 34 35  1  0
 35 36  2  0
 36 37  1  0
 37 38  2  0
 38 39  1  0
 39 40  2  0
 40 41  1  0
 41 42  2  0
 41 43  1  0
 40 44  1  0
 39 45  1  0
 38 46  1  0
 36 47  1  0
 34 48  1  0
 32 49  1  0
 32 50  1  0
 15 51  1  6
 13 52  1  0
 12 53  1  0
 11 54  1  0
  8 55  1  0
  8 56  1  0
  7 57  1  0
  7 58  1  0
  6 59  1  0
  6 60  1  0
  2 61  1  0
  1 62  1  0
  1 63  1  0
 10  5  1  0
 23 17  1  0
 42 33  1  0
 14  9  1  0
 42 37  1  0
M  CHG  1  15   1
M  END
>  <cnnaffinities>  (67) 
[6.47577]

>  <score>  (67) 
6.47577

>  <index>  (67) 
69

>  <Smiles>  (67) 
C(=C(C(=O)N1C(C(C(c2c1c(c(c(c2[N@@+](C(c1c(c(c(c(Cl)c1[H])[H])[H])[H])([H])[H])(C(=O)C(c1c(nc(c2c(c(c(c(c12)[H])[H])[H])[H])[H])[H])([H])[H])[H])[H])[H])[H])([H])[H])([H])[H])([H])[H])[H])([H])[H]

>  <h>  (67) 
<NA>

>  <Training>  (67) 
True

>  <Success>  (67) 
True

>  <enamine_searched>  (67) 
False

>  <enamine_id>  (67) 
nan

$$$$

     RDKit          3D

 52 54  0  0  0  0  0  0  0  0999 V2000
  -14.1796   -4.1191  -24.8308 C   0  0  0  0  0  0  0  0  0  0  0  0
  -14.1244   -4.0146  -25.0612 C   0  0  0  0  0  0  0  0  0  0  0  0
  -15.2510   -3.3007  -25.5837 C   0  0  0  0  0  0  0  0  0  0  0  0
  -15.9537   -3.8530  -26.2584 H   0  0  0  0  0  0  0  0  0  0  0  0
  -15.8614   -2.5911  -24.9779 H   0  0  0  0  0  0  0  0  0  0  0  0
  -14.6506   -2.7220  -26.2830 H   0  0  0  0  0  0  0  0  0  0  0  0
  -13.5937   -3.3740  -23.7574 C   0  0  0  0  0  0  0  0  0  0  0  0
  -11.8097   -1.3211  -24.0618 C   0  0  0  0  0  0  0  0  0  0  0  0
  -12.3752   -0.7431  -25.3272 C   0  0  0  0  0  0  0  0  0  0  0  0
  -12.1943   -1.3614  -26.2121 H   0  0  0  0  0  0  0  0  0  0  0  0
  -11.9003    0.2287  -25.5232 H   0  0  0  0  0  0  0  0  0  0  0  0
  -13.4501   -0.5531  -25.2338 H   0  0  0  0  0  0  0  0  0  0  0  0
  -11.8959   -0.4624  -22.8263 C   0  0  0  0  0  0  0  0  0  0  0  0
  -10.5521    0.2296  -22.6694 C   0  0  0  0  0  0  0  0  0  0  0  0
   -9.5357   -0.7714  -22.3522 N   0  0  0  0  0  0  0  0  0  0  0  0
   -8.5636   -0.3985  -21.4661 C   0  0  0  0  0  0  0  0  0  0  0  0
   -8.5482    0.7176  -20.9711 O   0  0  0  0  0  0  0  0  0  0  0  0
   -7.4589   -1.4094  -21.1063 C   0  0  0  0  0  0  0  0  0  0  0  0
   -6.5564   -0.8569  -20.0363 C   0  0  0  0  0  0  0  0  0  0  0  0
   -6.7475   -1.1986  -18.7228 C   0  0  0  0  0  0  0  0  0  0  0  0
   -6.0617   -0.6912  -17.6647 N   0  0  0  0  0  0  0  0  0  0  0  0
   -5.1363    0.1990  -17.9317 C   0  0  0  0  0  0  0  0  0  0  0  0
   -4.8156    0.6430  -19.2428 C   0  0  0  0  0  0  0  0  0  0  0  0
   -3.7986    1.6038  -19.4811 C   0  0  0  0  0  0  0  0  0  0  0  0
   -3.5500    2.0540  -20.7482 C   0  0  0  0  0  0  0  0  0  0  0  0
   -4.3033    1.5587  -21.8343 C   0  0  0  0  0  0  0  0  0  0  0  0
   -5.2703    0.6021  -21.6349 C   0  0  0  0  0  0  0  0  0  0  0  0
   -5.5559    0.1184  -20.3286 C   0  0  0  0  0  0  0  0  0  0  0  0
   -5.8363    0.2260  -22.4812 H   0  0  0  0  0  0  0  0  0  0  0  0
   -4.1140    1.9371  -22.8346 H   0  0  0  0  0  0  0  0  0  0  0  0
   -2.7860    2.8065  -20.9241 H   0  0  0  0  0  0  0  0  0  0  0  0
   -3.2396    1.9846  -18.6291 H   0  0  0  0  0  0  0  0  0  0  0  0
   -4.5877    0.6167  -17.0863 H   0  0  0  0  0  0  0  0  0  0  0  0
   -7.5057   -1.9352  -18.4581 H   0  0  0  0  0  0  0  0  0  0  0  0
   -6.8894   -1.6568  -22.0129 H   0  0  0  0  0  0  0  0  0  0  0  0
   -7.9200   -2.3423  -20.7554 H   0  0  0  0  0  0  0  0  0  0  0  0
   -9.7346   -2.1321  -22.8579 C   0  0  0  0  0  0  0  0  0  0  0  0
  -10.5341   -2.1184  -24.1638 C   0  0  0  0  0  0  0  0  0  0  0  0
  -10.7738   -3.1475  -24.4517 H   0  0  0  0  0  0  0  0  0  0  0  0
   -9.9064   -1.6980  -24.9614 H   0  0  0  0  0  0  0  0  0  0  0  0
   -8.7590   -2.5955  -23.0342 H   0  0  0  0  0  0  0  0  0  0  0  0
  -10.2665   -2.7536  -22.1229 H   0  0  0  0  0  0  0  0  0  0  0  0
  -10.5480    0.9784  -21.8770 H   0  0  0  0  0  0  0  0  0  0  0  0
  -10.2892    0.7515  -23.6011 H   0  0  0  0  0  0  0  0  0  0  0  0
  -12.0785   -1.0585  -21.9218 H   0  0  0  0  0  0  0  0  0  0  0  0
  -12.7083    0.2699  -22.8960 H   0  0  0  0  0  0  0  0  0  0  0  0
  -14.3415   -2.9318  -23.0324 H   0  0  0  0  0  0  0  0  0  0  0  0
  -12.7831   -2.5412  -23.8136 H   0  0  0  0  0  0  0  0  0  0  0  0
  -14.6857   -4.8117  -23.9296 H   0  0  0  0  0  0  0  0  0  0  0  0
  -13.5015   -3.5842  -26.0425 H   0  0  0  0  0  0  0  0  0  0  0  0
  -13.0732   -4.0940  -23.0864 H   0  0  0  0  0  0  0  0  0  0  0  0
  -13.5523   -5.4195  -25.3616 H   0  0  0  0  0  0  0  0  0  0  0  0
  1  2  1  0
  2  3  1  0
  3  4  1  0
  3  5  1  0
  3  6  1  0
  2  7  1  0
  7  8  1  0
  8  9  1  0
  9 10  1  0
  9 11  1  0
  9 12  1  0
  8 13  1  0
 13 14  1  0
 14 15  1  0
 15 16  1  0
 16 17  2  0
 16 18  1  0
 18 19  1  0
 19 20  2  0
 20 21  1  0
 21 22  2  0
 22 23  1  0
 23 24  2  0
 24 25  1  0
 25 26  2  0
 26 27  1  0
 27 28  2  0
 27 29  1  0
 26 30  1  0
 25 31  1  0
 24 32  1  0
 22 33  1  0
 20 34  1  0
 18 35  1  0
 18 36  1  0
 15 37  1  0
 37 38  1  0
 38 39  1  0
 38 40  1  0
 37 41  1  0
 37 42  1  0
 14 43  1  0
 14 44  1  0
 13 45  1  0
 13 46  1  0
  7 47  1  0
  7 48  1  0
  2 49  1  0
  1 50  1  0
  1 51  1  0
  1 52  1  0
 38  8  1  0
 28 19  1  0
 28 23  1  0
M  END
>  <cnnaffinities>  (68) 
[5.49686, 5.50566]

>  <score>  (68) 
5.49686

>  <index>  (68) 
70

>  <Smiles>  (68) 
C(C(C([H])([H])[H])(C(C1(C([H])([H])[H])C(C(N(C(=O)C(c2c(nc(c3c(c(c(c(c23)[H])[H])[H])[H])[H])[H])([H])[H])C(C1([H])[H])([H])[H])([H])[H])([H])[H])([H])[H])[H])([H])([H])[H]

>  <h>  (68) 
<NA>

>  <Training>  (68) 
True

>  <Success>  (68) 
True

>  <enamine_searched>  (68) 
False

>  <enamine_id>  (68) 
nan

$$$$

     RDKit          3D

 50 54  0  0  0  0  0  0  0  0999 V2000
   -8.3532   -4.1589  -23.4487 C   0  0  0  0  0  0  0  0  0  0  0  0
   -8.5506   -2.9945  -22.4941 C   0  0  1  0  0  0  0  0  0  0  0  0
   -7.4043   -2.8085  -21.4929 C   0  0  0  0  0  0  0  0  0  0  0  0
   -7.4520   -1.3850  -21.1968 N   0  0  0  0  0  0  0  0  0  0  0  0
   -6.6692   -0.7857  -20.1832 C   0  0  0  0  0  0  0  0  0  0  0  0
   -6.9198   -1.1032  -18.8709 C   0  0  0  0  0  0  0  0  0  0  0  0
   -6.2324   -0.6180  -17.8108 N   0  0  0  0  0  0  0  0  0  0  0  0
   -5.2183    0.1732  -18.0756 C   0  0  0  0  0  0  0  0  0  0  0  0
   -4.8384    0.5735  -19.3904 C   0  0  0  0  0  0  0  0  0  0  0  0
   -3.7388    1.4462  -19.5961 C   0  0  0  0  0  0  0  0  0  0  0  0
   -3.4748    1.9380  -20.8443 C   0  0  0  0  0  0  0  0  0  0  0  0
   -4.2521    1.5147  -21.9479 C   0  0  0  0  0  0  0  0  0  0  0  0
   -5.2639    0.6039  -21.7888 C   0  0  0  0  0  0  0  0  0  0  0  0
   -5.5997    0.1178  -20.4902 C   0  0  0  0  0  0  0  0  0  0  0  0
   -5.8328    0.2927  -22.6583 H   0  0  0  0  0  0  0  0  0  0  0  0
   -4.0546    1.9445  -22.9273 H   0  0  0  0  0  0  0  0  0  0  0  0
   -2.7033    2.6853  -20.9892 H   0  0  0  0  0  0  0  0  0  0  0  0
   -3.1398    1.7345  -18.7365 H   0  0  0  0  0  0  0  0  0  0  0  0
   -4.6502    0.5508  -17.2242 H   0  0  0  0  0  0  0  0  0  0  0  0
   -7.7401   -1.7796  -18.6345 H   0  0  0  0  0  0  0  0  0  0  0  0
   -8.1820   -0.6498  -22.1074 C   0  0  0  0  0  0  0  0  0  0  0  0
   -8.3062    0.5577  -22.0801 O   0  0  0  0  0  0  0  0  0  0  0  0
   -8.7529   -1.5939  -23.1742 C   0  0  1  0  0  0  0  0  0  0  0  0
   -7.9369   -1.3330  -24.4694 C   0  0  0  0  0  0  0  0  0  0  0  0
   -8.5547   -1.9399  -25.6462 N   0  0  0  0  0  0  0  0  0  0  0  0
   -7.7697   -2.4218  -26.7691 C   0  0  0  0  0  0  0  0  0  0  0  0
   -7.9171   -3.8808  -26.9293 C   0  0  0  0  0  0  0  0  0  0  0  0
   -8.0833   -5.0165  -27.0477 N   0  0  0  0  0  0  0  0  0  0  0  0
   -8.1579   -1.9540  -27.6779 H   0  0  0  0  0  0  0  0  0  0  0  0
   -6.7160   -2.1609  -26.6462 H   0  0  0  0  0  0  0  0  0  0  0  0
   -9.8934   -1.7764  -25.9144 C   0  0  0  0  0  0  0  0  0  0  0  0
  -10.3641   -1.9464  -27.0306 O   0  0  0  0  0  0  0  0  0  0  0  0
  -10.7423   -1.3969  -24.7588 C   0  0  0  0  0  0  0  0  0  0  0  0
  -12.0991   -1.1967  -25.0044 C   0  0  0  0  0  0  0  0  0  0  0  0
  -12.9661   -0.8921  -23.9770 C   0  0  0  0  0  0  0  0  0  0  0  0
  -12.4344   -0.8230  -22.6949 C   0  0  0  0  0  0  0  0  0  0  0  0
  -13.2730   -0.5817  -21.6812 F   0  0  0  0  0  0  0  0  0  0  0  0
  -11.0907   -1.0141  -22.4275 C   0  0  0  0  0  0  0  0  0  0  0  0
  -10.2112   -1.3034  -23.4719 C   0  0  0  0  0  0  0  0  0  0  0  0
  -10.7144   -0.9357  -21.4159 H   0  0  0  0  0  0  0  0  0  0  0  0
  -14.0227   -0.7197  -24.1551 H   0  0  0  0  0  0  0  0  0  0  0  0
  -12.4475   -1.3026  -26.0242 H   0  0  0  0  0  0  0  0  0  0  0  0
   -6.9135   -1.7155  -24.3600 H   0  0  0  0  0  0  0  0  0  0  0  0
   -7.8635   -0.2396  -24.6019 H   0  0  0  0  0  0  0  0  0  0  0  0
   -7.5527   -3.3983  -20.5825 H   0  0  0  0  0  0  0  0  0  0  0  0
   -6.4280   -3.0973  -21.9123 H   0  0  0  0  0  0  0  0  0  0  0  0
   -9.4600   -3.1714  -21.9006 H   0  0  0  0  0  0  0  0  0  0  0  0
   -7.4479   -4.0087  -24.0468 H   0  0  0  0  0  0  0  0  0  0  0  0
   -8.2554   -5.0987  -22.8965 H   0  0  0  0  0  0  0  0  0  0  0  0
   -9.2043   -4.2321  -24.1316 H   0  0  0  0  0  0  0  0  0  0  0  0
  1  2  1  0
  2  3  1  0
  3  4  1  0
  4  5  1  0
  5  6  2  0
  6  7  1  0
  7  8  2  0
  8  9  1  0
  9 10  2  0
 10 11  1  0
 11 12  2  0
 12 13  1  0
 13 14  2  0
 13 15  1  0
 12 16  1  0
 11 17  1  0
 10 18  1  0
  8 19  1  0
  6 20  1  0
  4 21  1  0
 21 22  2  0
 21 23  1  0
 23 24  1  6
 24 25  1  0
 25 26  1  0
 26 27  1  0
 27 28  3  0
 26 29  1  0
 26 30  1  0
 25 31  1  0
 31 32  2  0
 31 33  1  0
 33 34  2  0
 34 35  1  0
 35 36  2  0
 36 37  1  0
 36 38  1  0
 38 39  2  0
 38 40  1  0
 35 41  1  0
 34 42  1  0
 24 43  1  0
 24 44  1  0
  3 45  1  0
  3 46  1  0
  2 47  1  1
  1 48  1  0
  1 49  1  0
  1 50  1  0
 23  2  1  0
 39 33  1  0
 14  5  1  0
 39 23  1  0
 14  9  1  0
M  END
>  <cnnaffinities>  (69) 
[5.65058, 5.33903, 6.14182, 5.61773]

>  <score>  (69) 
5.65058

>  <index>  (69) 
71

>  <Smiles>  (69) 
C([C@]1(C(N(c2c(nc(c3c(c(c(c(c23)[H])[H])[H])[H])[H])[H])C(=O)[C@]21C(N(C(C#N)([H])[H])C(=O)c1c(c(c(F)c(c21)[H])[H])[H])([H])[H])([H])[H])[H])([H])([H])[H]

>  <h>  (69) 
<NA>

>  <Training>  (69) 
True

>  <Success>  (69) 
True

>  <enamine_searched>  (69) 
False

>  <enamine_id>  (69) 
nan

$$$$

     RDKit          3D

 41 44  0  0  0  0  0  0  0  0999 V2000
   -8.7030    0.7095  -21.2695 O   0  0  0  0  0  0  0  0  0  0  0  0
   -8.6626   -0.4328  -21.6921 C   0  0  0  0  0  0  0  0  0  0  0  0
   -7.5341   -1.3860  -21.2629 C   0  0  0  0  0  0  0  0  0  0  0  0
   -6.6881   -0.7966  -20.1762 C   0  0  0  0  0  0  0  0  0  0  0  0
   -6.9527   -1.0920  -18.8669 C   0  0  0  0  0  0  0  0  0  0  0  0
   -6.2574   -0.6237  -17.7979 N   0  0  0  0  0  0  0  0  0  0  0  0
   -5.2374    0.1591  -18.0569 C   0  0  0  0  0  0  0  0  0  0  0  0
   -4.8632    0.5785  -19.3647 C   0  0  0  0  0  0  0  0  0  0  0  0
   -3.7817    1.4717  -19.5861 C   0  0  0  0  0  0  0  0  0  0  0  0
   -3.5678    1.9998  -20.8349 C   0  0  0  0  0  0  0  0  0  0  0  0
   -4.4053    1.6330  -21.9101 C   0  0  0  0  0  0  0  0  0  0  0  0
   -5.3926    0.6957  -21.7445 C   0  0  0  0  0  0  0  0  0  0  0  0
   -5.6478    0.1374  -20.4556 C   0  0  0  0  0  0  0  0  0  0  0  0
   -6.0177    0.4255  -22.5915 H   0  0  0  0  0  0  0  0  0  0  0  0
   -4.2383    2.0804  -22.8900 H   0  0  0  0  0  0  0  0  0  0  0  0
   -2.7935    2.7460  -20.9911 H   0  0  0  0  0  0  0  0  0  0  0  0
   -3.1575    1.7616  -18.7452 H   0  0  0  0  0  0  0  0  0  0  0  0
   -4.6767    0.5417  -17.2019 H   0  0  0  0  0  0  0  0  0  0  0  0
   -7.7685   -1.7706  -18.6194 H   0  0  0  0  0  0  0  0  0  0  0  0
   -7.9742   -2.3345  -20.9229 H   0  0  0  0  0  0  0  0  0  0  0  0
   -6.9093   -1.6199  -22.1326 H   0  0  0  0  0  0  0  0  0  0  0  0
   -9.6186   -0.9158  -22.5525 N   0  0  0  0  0  0  0  0  0  0  0  0
   -9.5861   -2.2257  -23.2062 C   0  0  0  0  0  0  0  0  0  0  0  0
  -10.3263   -3.3181  -22.4242 C   0  0  0  0  0  0  0  0  0  0  0  0
  -11.5412   -2.7492  -21.6810 C   0  0  0  0  0  0  0  0  0  0  0  0
  -12.4285   -1.8172  -22.4747 C   0  0  0  0  0  0  0  0  0  0  0  0
  -14.1291   -2.0889  -22.6605 S   0  0  0  0  0  0  0  0  0  0  0  0
  -14.3545   -0.5630  -23.4279 C   0  0  0  0  0  0  0  0  0  0  0  0
  -13.1818    0.1097  -23.5474 C   0  0  0  0  0  0  0  0  0  0  0  0
  -12.0656   -0.6082  -23.0028 C   0  0  0  0  0  0  0  0  0  0  0  0
  -10.6879    0.0066  -22.9285 C   0  0  0  0  0  0  0  0  0  0  0  0
  -10.4501    0.4783  -23.8954 H   0  0  0  0  0  0  0  0  0  0  0  0
  -10.6938    0.8300  -22.2032 H   0  0  0  0  0  0  0  0  0  0  0  0
  -13.1168    1.1021  -23.9868 H   0  0  0  0  0  0  0  0  0  0  0  0
  -15.3361   -0.1934  -23.6926 H   0  0  0  0  0  0  0  0  0  0  0  0
  -12.1297   -3.5497  -21.2278 H   0  0  0  0  0  0  0  0  0  0  0  0
  -11.1352   -2.1254  -20.8777 H   0  0  0  0  0  0  0  0  0  0  0  0
   -9.6544   -3.7815  -21.6909 H   0  0  0  0  0  0  0  0  0  0  0  0
  -10.6279   -4.1159  -23.1154 H   0  0  0  0  0  0  0  0  0  0  0  0
  -10.0955   -2.1135  -24.1694 H   0  0  0  0  0  0  0  0  0  0  0  0
   -8.5501   -2.5237  -23.4083 H   0  0  0  0  0  0  0  0  0  0  0  0
  1  2  2  0
  2  3  1  0
  3  4  1  0
  4  5  2  0
  5  6  1  0
  6  7  2  0
  7  8  1  0
  8  9  2  0
  9 10  1  0
 10 11  2  0
 11 12  1  0
 12 13  2  0
 12 14  1  0
 11 15  1  0
 10 16  1  0
  9 17  1  0
  7 18  1  0
  5 19  1  0
  3 20  1  0
  3 21  1  0
  2 22  1  0
 22 23  1  0
 23 24  1  0
 24 25  1  0
 25 26  1  0
 26 27  1  0
 27 28  1  0
 28 29  2  0
 29 30  1  0
 30 31  1  0
 31 32  1  0
 31 33  1  0
 29 34  1  0
 28 35  1  0
 25 36  1  0
 25 37  1  0
 24 38  1  0
 24 39  1  0
 23 40  1  0
 23 41  1  0
 13  4  1  0
 31 22  1  0
 13  8  1  0
 30 26  2  0
M  END
>  <cnnaffinities>  (70) 
[4.95572, 5.11939]

>  <score>  (70) 
4.95572

>  <index>  (70) 
72

>  <Smiles>  (70) 
O=C(C(c1c(nc(c2c(c(c(c(c12)[H])[H])[H])[H])[H])[H])([H])[H])N1C(C(C(c2sc(c(c2C1([H])[H])[H])[H])([H])[H])([H])[H])([H])[H]

>  <h>  (70) 
<NA>

>  <Training>  (70) 
True

>  <Success>  (70) 
True

>  <enamine_searched>  (70) 
False

>  <enamine_id>  (70) 
nan

$$$$

     RDKit          3D

 50 53  0  0  0  0  0  0  0  0999 V2000
   -8.7568    0.6138  -21.1551 O   0  0  0  0  0  0  0  0  0  0  0  0
   -8.6693   -0.4917  -21.6733 C   0  0  0  0  0  0  0  0  0  0  0  0
   -7.5017   -1.4205  -21.3059 C   0  0  0  0  0  0  0  0  0  0  0  0
   -6.6643   -0.8245  -20.2122 C   0  0  0  0  0  0  0  0  0  0  0  0
   -6.9443   -1.1177  -18.9049 C   0  0  0  0  0  0  0  0  0  0  0  0
   -6.2518   -0.6601  -17.8273 N   0  0  0  0  0  0  0  0  0  0  0  0
   -5.2547    0.1574  -18.0808 C   0  0  0  0  0  0  0  0  0  0  0  0
   -4.8757    0.5806  -19.3875 C   0  0  0  0  0  0  0  0  0  0  0  0
   -3.8031    1.4836  -19.6053 C   0  0  0  0  0  0  0  0  0  0  0  0
   -3.5855    2.0182  -20.8501 C   0  0  0  0  0  0  0  0  0  0  0  0
   -4.3924    1.6152  -21.9407 C   0  0  0  0  0  0  0  0  0  0  0  0
   -5.3899    0.6833  -21.7776 C   0  0  0  0  0  0  0  0  0  0  0  0
   -5.6360    0.1222  -20.4914 C   0  0  0  0  0  0  0  0  0  0  0  0
   -6.0239    0.4293  -22.6264 H   0  0  0  0  0  0  0  0  0  0  0  0
   -4.1932    2.0235  -22.9257 H   0  0  0  0  0  0  0  0  0  0  0  0
   -2.8129    2.7636  -21.0040 H   0  0  0  0  0  0  0  0  0  0  0  0
   -3.2071    1.7960  -18.7533 H   0  0  0  0  0  0  0  0  0  0  0  0
   -4.6889    0.5266  -17.2228 H   0  0  0  0  0  0  0  0  0  0  0  0
   -7.7736   -1.7869  -18.6713 H   0  0  0  0  0  0  0  0  0  0  0  0
   -7.9189   -2.3747  -20.9546 H   0  0  0  0  0  0  0  0  0  0  0  0
   -6.8968   -1.6462  -22.1948 H   0  0  0  0  0  0  0  0  0  0  0  0
   -9.6079   -0.9510  -22.5625 N   0  0  0  0  0  0  0  0  0  0  0  0
  -10.7599   -0.0960  -22.8314 C   0  0  0  0  0  0  0  0  0  0  0  0
  -12.0263   -0.8933  -22.5608 C   0  0  0  0  0  0  0  0  0  0  0  0
  -12.0684   -2.1067  -23.4797 C   0  0  0  0  0  0  0  0  0  0  0  0
  -10.8611   -2.9960  -23.1763 C   0  0  0  0  0  0  0  0  0  0  0  0
   -9.5584   -2.1907  -23.3487 C   0  0  1  0  0  0  0  0  0  0  0  0
   -9.3242   -1.8508  -24.8363 C   0  0  0  0  0  0  0  0  0  0  0  0
   -7.9982   -1.1767  -25.0719 C   0  0  0  0  0  0  0  0  0  0  0  0
   -6.8409   -1.9517  -25.1492 C   0  0  0  0  0  0  0  0  0  0  0  0
   -5.5960   -1.3617  -25.3213 C   0  0  0  0  0  0  0  0  0  0  0  0
   -5.4948    0.0239  -25.4197 C   0  0  0  0  0  0  0  0  0  0  0  0
   -6.6402    0.8112  -25.3367 C   0  0  0  0  0  0  0  0  0  0  0  0
   -7.8819    0.2126  -25.1557 C   0  0  0  0  0  0  0  0  0  0  0  0
   -8.7684    0.8380  -25.0818 H   0  0  0  0  0  0  0  0  0  0  0  0
   -6.5689    1.8934  -25.4164 H   0  0  0  0  0  0  0  0  0  0  0  0
   -4.5220    0.4925  -25.5432 H   0  0  0  0  0  0  0  0  0  0  0  0
   -4.7086   -1.9833  -25.3874 H   0  0  0  0  0  0  0  0  0  0  0  0
   -6.9275   -3.0340  -25.0764 H   0  0  0  0  0  0  0  0  0  0  0  0
  -10.1377   -1.2054  -25.1800 H   0  0  0  0  0  0  0  0  0  0  0  0
   -9.3857   -2.7734  -25.4265 H   0  0  0  0  0  0  0  0  0  0  0  0
   -8.7207   -2.8003  -22.9904 H   0  0  0  0  0  0  0  0  0  0  0  0
  -10.9086   -3.3739  -22.1425 H   0  0  0  0  0  0  0  0  0  0  0  0
  -10.8491   -3.8776  -23.8352 H   0  0  0  0  0  0  0  0  0  0  0  0
  -12.9995   -2.6662  -23.3610 H   0  0  0  0  0  0  0  0  0  0  0  0
  -12.0261   -1.7712  -24.5240 H   0  0  0  0  0  0  0  0  0  0  0  0
  -11.9586   -1.2764  -21.5484 H   0  0  0  0  0  0  0  0  0  0  0  0
  -12.9172   -0.2617  -22.6522 H   0  0  0  0  0  0  0  0  0  0  0  0
  -10.7557    0.2497  -23.8748 H   0  0  0  0  0  0  0  0  0  0  0  0
  -10.6584    0.7905  -22.2078 H   0  0  0  0  0  0  0  0  0  0  0  0
  1  2  2  0
  2  3  1  0
  3  4  1  0
  4  5  2  0
  5  6  1  0
  6  7  2  0
  7  8  1  0
  8  9  2  0
  9 10  1  0
 10 11  2  0
 11 12  1  0
 12 13  2  0
 12 14  1  0
 11 15  1  0
 10 16  1  0
  9 17  1  0
  7 18  1  0
  5 19  1  0
  3 20  1  0
  3 21  1  0
  2 22  1  0
 22 23  1  0
 23 24  1  0
 24 25  1  0
 25 26  1  0
 26 27  1  0
 27 28  1  0
 28 29  1  0
 29 30  2  0
 30 31  1  0
 31 32  2  0
 32 33  1  0
 33 34  2  0
 34 35  1  0
 33 36  1  0
 32 37  1  0
 31 38  1  0
 30 39  1  0
 28 40  1  0
 28 41  1  0
 27 42  1  1
 26 43  1  0
 26 44  1  0
 25 45  1  0
 25 46  1  0
 24 47  1  0
 24 48  1  0
 23 49  1  0
 23 50  1  0
 13  4  1  0
 27 22  1  0
 34 29  1  0
 13  8  1  0
M  END
>  <cnnaffinities>  (71) 
[5.40614]

>  <score>  (71) 
5.40614

>  <index>  (71) 
73

>  <Smiles>  (71) 
O=C(C(c1c(nc(c2c(c(c(c(c12)[H])[H])[H])[H])[H])[H])([H])[H])N1C(C(C(C([C@]1(C(c1c(c(c(c(c1[H])[H])[H])[H])[H])([H])[H])[H])([H])[H])([H])[H])([H])[H])([H])[H]

>  <h>  (71) 
<NA>

>  <Training>  (71) 
True

>  <Success>  (71) 
True

>  <enamine_searched>  (71) 
False

>  <enamine_id>  (71) 
nan

$$$$

     RDKit          3D

 43 47  0  0  0  0  0  0  0  0999 V2000
   -5.5274   -3.0638  -21.6541 O   0  0  0  0  0  0  0  0  0  0  0  0
   -6.5919   -2.5272  -21.8348 C   0  0  0  0  0  0  0  0  0  0  0  0
   -7.5135   -2.7624  -22.8368 N   0  0  0  0  0  0  0  0  0  0  0  0
   -8.5963   -1.7950  -22.8318 C   0  0  1  0  0  0  0  0  0  0  0  0
   -8.7367   -0.8342  -24.0406 C   0  0  0  0  0  0  0  0  0  0  0  0
  -10.1291   -1.4403  -24.3591 C   0  0  2  0  0  0  0  0  0  0  0  0
  -11.2875   -0.4938  -24.3448 C   0  0  0  0  0  0  0  0  0  0  0  0
  -11.4249    0.4264  -23.3023 C   0  0  0  0  0  0  0  0  0  0  0  0
  -12.6259    1.0885  -23.0800 C   0  0  0  0  0  0  0  0  0  0  0  0
  -13.7281    0.8248  -23.8865 C   0  0  0  0  0  0  0  0  0  0  0  0
  -13.5875   -0.0348  -24.9663 C   0  0  0  0  0  0  0  0  0  0  0  0
  -12.3591   -0.6234  -25.2238 C   0  0  0  0  0  0  0  0  0  0  0  0
  -12.1721   -1.5449  -26.6898 Cl  0  0  0  0  0  0  0  0  0  0  0  0
  -14.4088   -0.3227  -25.6026 H   0  0  0  0  0  0  0  0  0  0  0  0
  -14.6794    1.2939  -23.6521 H   0  0  0  0  0  0  0  0  0  0  0  0
  -12.7362    1.7682  -22.2424 H   0  0  0  0  0  0  0  0  0  0  0  0
  -10.5933    0.6082  -22.6221 H   0  0  0  0  0  0  0  0  0  0  0  0
  -10.0324   -2.3013  -23.0547 C   0  0  0  0  0  0  0  0  0  0  0  0
  -10.7020   -1.9519  -22.2607 H   0  0  0  0  0  0  0  0  0  0  0  0
  -10.1351   -3.3840  -23.1465 H   0  0  0  0  0  0  0  0  0  0  0  0
  -10.1174   -2.0491  -25.2625 H   0  0  0  0  0  0  0  0  0  0  0  0
   -8.7878    0.2086  -23.7175 H   0  0  0  0  0  0  0  0  0  0  0  0
   -7.9529   -0.9186  -24.7982 H   0  0  0  0  0  0  0  0  0  0  0  0
   -8.3758   -1.0704  -21.5227 C   0  0  0  0  0  0  0  0  0  0  0  0
   -9.0789   -0.2295  -21.0084 O   0  0  0  0  0  0  0  0  0  0  0  0
   -7.1535   -1.5104  -21.0331 N   0  0  0  0  0  0  0  0  0  0  0  0
   -6.4532   -0.8090  -20.0114 C   0  0  0  0  0  0  0  0  0  0  0  0
   -6.7672   -1.0470  -18.7028 C   0  0  0  0  0  0  0  0  0  0  0  0
   -6.0714   -0.5379  -17.6561 N   0  0  0  0  0  0  0  0  0  0  0  0
   -5.0685    0.2613  -17.9342 C   0  0  0  0  0  0  0  0  0  0  0  0
   -4.7106    0.6788  -19.2496 C   0  0  0  0  0  0  0  0  0  0  0  0
   -3.6715    1.6107  -19.4944 C   0  0  0  0  0  0  0  0  0  0  0  0
   -3.4751    2.1082  -20.7515 C   0  0  0  0  0  0  0  0  0  0  0  0
   -4.2964    1.6864  -21.8175 C   0  0  0  0  0  0  0  0  0  0  0  0
   -5.2814    0.7571  -21.6114 C   0  0  0  0  0  0  0  0  0  0  0  0
   -5.4813    0.1959  -20.3233 C   0  0  0  0  0  0  0  0  0  0  0  0
   -5.9325    0.4725  -22.4271 H   0  0  0  0  0  0  0  0  0  0  0  0
   -4.1510    2.1100  -22.8041 H   0  0  0  0  0  0  0  0  0  0  0  0
   -2.7093    2.8542  -20.9275 H   0  0  0  0  0  0  0  0  0  0  0  0
   -3.0588    1.9191  -18.6557 H   0  0  0  0  0  0  0  0  0  0  0  0
   -4.4984    0.6427  -17.0902 H   0  0  0  0  0  0  0  0  0  0  0  0
   -7.6237   -1.6769  -18.4719 H   0  0  0  0  0  0  0  0  0  0  0  0
   -7.1619   -3.1572  -23.6986 H   0  0  0  0  0  0  0  0  0  0  0  0
  1  2  2  0
  2  3  1  0
  4  3  1  6
  4  5  1  0
  5  6  1  0
  6  7  1  0
  7  8  2  0
  8  9  1  0
  9 10  2  0
 10 11  1  0
 11 12  2  0
 12 13  1  0
 11 14  1  0
 10 15  1  0
  9 16  1  0
  8 17  1  0
  6 18  1  0
 18 19  1  0
 18 20  1  0
  6 21  1  6
  5 22  1  0
  5 23  1  0
  4 24  1  0
 24 25  2  0
 24 26  1  0
 26 27  1  0
 27 28  2  0
 28 29  1  0
 29 30  2  0
 30 31  1  0
 31 32  2  0
 32 33  1  0
 33 34  2  0
 34 35  1  0
 35 36  2  0
 35 37  1  0
 34 38  1  0
 33 39  1  0
 32 40  1  0
 30 41  1  0
 28 42  1  0
  3 43  1  0
 26  2  1  0
 36 27  1  0
 18  4  1  0
 36 31  1  0
 12  7  1  0
M  END
>  <cnnaffinities>  (72) 
[5.3771]

>  <score>  (72) 
5.3771

>  <index>  (72) 
74

>  <Smiles>  (72) 
O=C1N([C@]2(C([C@](c3c(c(c(c(c3Cl)[H])[H])[H])[H])(C2([H])[H])[H])([H])[H])C(=O)N1c1c(nc(c2c(c(c(c(c12)[H])[H])[H])[H])[H])[H])[H]

>  <h>  (72) 
<NA>

>  <Training>  (72) 
True

>  <Success>  (72) 
True

>  <enamine_searched>  (72) 
False

>  <enamine_id>  (72) 
nan

$$$$

     RDKit          3D

 66 71  0  0  0  0  0  0  0  0999 V2000
   -7.3963    3.3978  -21.8778 C   0  0  0  0  0  0  0  0  0  0  0  0
   -8.3325    2.9086  -22.8765 N   0  0  0  0  0  0  0  0  0  0  0  0
   -7.8105    2.1846  -23.9088 C   0  0  0  0  0  0  0  0  0  0  0  0
   -6.6063    2.0176  -24.0530 O   0  0  0  0  0  0  0  0  0  0  0  0
   -8.7948    1.5671  -24.8982 C   0  0  0  0  0  0  0  0  0  0  0  0
   -9.4435    0.4136  -24.3039 N   0  0  0  0  0  0  0  0  0  0  0  0
   -8.6882   -0.8249  -24.1547 C   0  0  0  0  0  0  0  0  0  0  0  0
   -9.0674   -1.5696  -22.8465 C   0  0  2  0  0  0  0  0  0  0  0  0
   -8.5467   -0.7762  -21.6253 C   0  0  0  0  0  0  0  0  0  0  0  0
   -9.0232    0.2285  -21.1386 O   0  0  0  0  0  0  0  0  0  0  0  0
   -7.4049   -1.3931  -21.1722 N   0  0  0  0  0  0  0  0  0  0  0  0
   -6.6244   -0.8037  -20.1531 C   0  0  0  0  0  0  0  0  0  0  0  0
   -6.9281   -1.0583  -18.8413 C   0  0  0  0  0  0  0  0  0  0  0  0
   -6.2297   -0.5739  -17.7889 N   0  0  0  0  0  0  0  0  0  0  0  0
   -5.1978    0.1916  -18.0534 C   0  0  0  0  0  0  0  0  0  0  0  0
   -4.7905    0.5576  -19.3697 C   0  0  0  0  0  0  0  0  0  0  0  0
   -3.6946    1.4291  -19.6123 C   0  0  0  0  0  0  0  0  0  0  0  0
   -3.4181    1.8638  -20.8788 C   0  0  0  0  0  0  0  0  0  0  0  0
   -4.2208    1.4562  -21.9675 C   0  0  0  0  0  0  0  0  0  0  0  0
   -5.2219    0.5291  -21.7740 C   0  0  0  0  0  0  0  0  0  0  0  0
   -5.5517    0.0827  -20.4629 C   0  0  0  0  0  0  0  0  0  0  0  0
   -5.7969    0.1834  -22.6267 H   0  0  0  0  0  0  0  0  0  0  0  0
   -4.0615    1.8832  -22.9507 H   0  0  0  0  0  0  0  0  0  0  0  0
   -2.5905    2.5494  -21.0480 H   0  0  0  0  0  0  0  0  0  0  0  0
   -3.0907    1.7417  -18.7648 H   0  0  0  0  0  0  0  0  0  0  0  0
   -4.6283    0.5654  -17.2015 H   0  0  0  0  0  0  0  0  0  0  0  0
   -7.7835   -1.6869  -18.6119 H   0  0  0  0  0  0  0  0  0  0  0  0
   -7.0119   -2.5624  -21.9257 C   0  0  0  0  0  0  0  0  0  0  0  0
   -8.2932   -2.9204  -22.6979 C   0  0  2  0  0  0  0  0  0  0  0  0
   -8.0068   -3.7092  -23.9913 C   0  0  0  0  0  0  0  0  0  0  0  0
   -7.5033   -5.0509  -23.7636 N   0  0  0  0  0  0  0  0  0  0  0  0
   -6.1921   -5.3739  -23.4945 C   0  0  0  0  0  0  0  0  0  0  0  0
   -5.0712   -4.6031  -23.8904 C   0  0  0  0  0  0  0  0  0  0  0  0
   -3.8248   -4.9671  -23.6129 N   0  0  0  0  0  0  0  0  0  0  0  0
   -3.6603   -6.1077  -22.9412 C   0  0  0  0  0  0  0  0  0  0  0  0
   -4.7516   -6.8736  -22.5645 C   0  0  0  0  0  0  0  0  0  0  0  0
   -6.0072   -6.5233  -22.8418 N   0  0  0  0  0  0  0  0  0  0  0  0
   -4.6211   -7.8020  -22.0115 H   0  0  0  0  0  0  0  0  0  0  0  0
   -2.6411   -6.4117  -22.7059 H   0  0  0  0  0  0  0  0  0  0  0  0
   -5.1902   -3.6781  -24.4466 H   0  0  0  0  0  0  0  0  0  0  0  0
   -8.1350   -5.7080  -23.3260 H   0  0  0  0  0  0  0  0  0  0  0  0
   -7.2707   -3.1702  -24.5986 H   0  0  0  0  0  0  0  0  0  0  0  0
   -8.9190   -3.7838  -24.5994 H   0  0  0  0  0  0  0  0  0  0  0  0
   -8.8892   -3.5690  -22.0451 H   0  0  0  0  0  0  0  0  0  0  0  0
   -6.6840   -3.3612  -21.2553 H   0  0  0  0  0  0  0  0  0  0  0  0
   -6.1737   -2.3410  -22.6072 H   0  0  0  0  0  0  0  0  0  0  0  0
  -10.5800   -1.6575  -22.7836 C   0  0  0  0  0  0  0  0  0  0  0  0
  -11.2062   -2.5906  -21.9537 C   0  0  0  0  0  0  0  0  0  0  0  0
  -12.5844   -2.6192  -21.8550 C   0  0  0  0  0  0  0  0  0  0  0  0
  -13.3179   -3.7797  -20.7933 Cl  0  0  0  0  0  0  0  0  0  0  0  0
  -13.3958   -1.7362  -22.5648 C   0  0  0  0  0  0  0  0  0  0  0  0
  -12.7838   -0.7850  -23.3521 C   0  0  0  0  0  0  0  0  0  0  0  0
  -11.3948   -0.7239  -23.4382 C   0  0  0  0  0  0  0  0  0  0  0  0
  -10.8072    0.4197  -24.2013 C   0  0  0  0  0  0  0  0  0  0  0  0
  -11.5027    1.3075  -24.6749 O   0  0  0  0  0  0  0  0  0  0  0  0
  -13.3534   -0.0488  -23.9057 H   0  0  0  0  0  0  0  0  0  0  0  0
  -14.4758   -1.7808  -22.4780 H   0  0  0  0  0  0  0  0  0  0  0  0
  -10.6382   -3.2945  -21.3580 H   0  0  0  0  0  0  0  0  0  0  0  0
   -8.9021   -1.4880  -25.0046 H   0  0  0  0  0  0  0  0  0  0  0  0
   -7.6170   -0.5911  -24.1727 H   0  0  0  0  0  0  0  0  0  0  0  0
   -8.2470    1.2702  -25.8013 H   0  0  0  0  0  0  0  0  0  0  0  0
   -9.5821    2.2728  -25.1823 H   0  0  0  0  0  0  0  0  0  0  0  0
   -9.2708    2.6994  -22.5570 H   0  0  0  0  0  0  0  0  0  0  0  0
   -6.8384    2.5502  -21.4590 H   0  0  0  0  0  0  0  0  0  0  0  0
   -6.6946    4.0973  -22.3397 H   0  0  0  0  0  0  0  0  0  0  0  0
   -7.9276    3.9335  -21.0899 H   0  0  0  0  0  0  0  0  0  0  0  0
  1  2  1  0
  2  3  1  0
  3  4  2  0
  3  5  1  0
  5  6  1  0
  6  7  1  0
  8  7  1  6
  8  9  1  0
  9 10  2  0
  9 11  1  0
 11 12  1  0
 12 13  2  0
 13 14  1  0
 14 15  2  0
 15 16  1  0
 16 17  2  0
 17 18  1  0
 18 19  2  0
 19 20  1  0
 20 21  2  0
 20 22  1  0
 19 23  1  0
 18 24  1  0
 17 25  1  0
 15 26  1  0
 13 27  1  0
 11 28  1  0
 28 29  1  0
 29 30  1  0
 30 31  1  0
 31 32  1  0
 32 33  2  0
 33 34  1  0
 34 35  2  0
 35 36  1  0
 36 37  2  0
 36 38  1  0
 35 39  1  0
 33 40  1  0
 31 41  1  0
 30 42  1  0
 30 43  1  0
 29 44  1  1
 28 45  1  0
 28 46  1  0
  8 47  1  0
 47 48  2  0
 48 49  1  0
 49 50  1  0
 49 51  2  0
 51 52  1  0
 52 53  2  0
 53 54  1  0
 54 55  2  0
 52 56  1  0
 51 57  1  0
 48 58  1  0
  7 59  1  0
  7 60  1  0
  5 61  1  0
  5 62  1  0
  2 63  1  0
  1 64  1  0
  1 65  1  0
  1 66  1  0
 54  6  1  0
 29  8  1  0
 37 32  1  0
 53 47  1  0
 21 12  1  0
 21 16  1  0
M  END
>  <cnnaffinities>  (73) 
[6.49023, 6.55056, 6.34413]

>  <score>  (73) 
6.49023

>  <index>  (73) 
75

>  <Smiles>  (73) 
C(N(C(=O)C(N1C([C@@]2(C(=O)N(c3c(nc(c4c(c(c(c(c34)[H])[H])[H])[H])[H])[H])C([C@@]2(C(N(c2c(nc(c(n2)[H])[H])[H])[H])([H])[H])[H])([H])[H])c2c(c(Cl)c(c(c2C1=O)[H])[H])[H])([H])[H])([H])[H])[H])([H])([H])[H]

>  <h>  (73) 
<NA>

>  <Training>  (73) 
True

>  <Success>  (73) 
True

>  <enamine_searched>  (73) 
False

>  <enamine_id>  (73) 
nan

$$$$

     RDKit          3D

 66 71  0  0  0  0  0  0  0  0999 V2000
   -8.2102   -3.4592  -24.0832 C   0  0  0  0  0  0  0  0  0  0  0  0
   -8.4684   -2.7213  -22.7670 C   0  0  1  0  0  0  0  0  0  0  0  0
   -7.1846   -2.5165  -21.9420 C   0  0  0  0  0  0  0  0  0  0  0  0
   -7.4643   -1.3244  -21.1684 N   0  0  0  0  0  0  0  0  0  0  0  0
   -6.6373   -0.7886  -20.1491 C   0  0  0  0  0  0  0  0  0  0  0  0
   -6.9275   -1.0527  -18.8352 C   0  0  0  0  0  0  0  0  0  0  0  0
   -6.2070   -0.5869  -17.7859 N   0  0  0  0  0  0  0  0  0  0  0  0
   -5.1973    0.2083  -18.0578 C   0  0  0  0  0  0  0  0  0  0  0  0
   -4.8047    0.5882  -19.3767 C   0  0  0  0  0  0  0  0  0  0  0  0
   -3.6838    1.4262  -19.6273 C   0  0  0  0  0  0  0  0  0  0  0  0
   -3.3813    1.8325  -20.9009 C   0  0  0  0  0  0  0  0  0  0  0  0
   -4.1739    1.3994  -21.9882 C   0  0  0  0  0  0  0  0  0  0  0  0
   -5.1571    0.4553  -21.7863 C   0  0  0  0  0  0  0  0  0  0  0  0
   -5.5379    0.0656  -20.4685 C   0  0  0  0  0  0  0  0  0  0  0  0
   -5.6533    0.0118  -22.6462 H   0  0  0  0  0  0  0  0  0  0  0  0
   -3.9514    1.7616  -22.9901 H   0  0  0  0  0  0  0  0  0  0  0  0
   -2.5274    2.4848  -21.0796 H   0  0  0  0  0  0  0  0  0  0  0  0
   -3.0952    1.7546  -18.7768 H   0  0  0  0  0  0  0  0  0  0  0  0
   -4.6142    0.5833  -17.2146 H   0  0  0  0  0  0  0  0  0  0  0  0
   -7.7910   -1.6689  -18.5892 H   0  0  0  0  0  0  0  0  0  0  0  0
   -8.5234   -0.5890  -21.6376 C   0  0  0  0  0  0  0  0  0  0  0  0
   -8.8901    0.4637  -21.1540 O   0  0  0  0  0  0  0  0  0  0  0  0
   -9.1229   -1.3120  -22.8597 C   0  0  1  0  0  0  0  0  0  0  0  0
   -8.7030   -0.5823  -24.1488 C   0  0  0  0  0  0  0  0  0  0  0  0
   -9.3122    0.7290  -24.2472 N   0  0  0  0  0  0  0  0  0  0  0  0
   -8.5351    1.7783  -24.8743 C   0  0  0  0  0  0  0  0  0  0  0  0
   -7.5563    2.4219  -23.9015 C   0  0  0  0  0  0  0  0  0  0  0  0
   -8.2679    3.2318  -22.8597 N   0  0  0  0  0  4  0  0  0  0  0  0
   -7.4802    3.3371  -21.5994 C   0  0  0  0  0  0  0  0  0  0  0  0
   -6.3298    4.3230  -21.6422 C   0  0  0  0  0  0  0  0  0  0  0  0
   -6.8009    5.6113  -21.9727 O   0  0  0  0  0  0  0  0  0  0  0  0
   -7.4449    5.5971  -23.2299 C   0  0  0  0  0  0  0  0  0  0  0  0
   -8.6471    4.6464  -23.2643 C   0  0  0  0  0  0  0  0  0  0  0  0
   -9.4059    4.9916  -22.5571 H   0  0  0  0  0  0  0  0  0  0  0  0
   -9.0838    4.6356  -24.2638 H   0  0  0  0  0  0  0  0  0  0  0  0
   -6.7233    5.3188  -24.0140 H   0  0  0  0  0  0  0  0  0  0  0  0
   -7.7721    6.6229  -23.4137 H   0  0  0  0  0  0  0  0  0  0  0  0
   -5.8769    4.3966  -20.6481 H   0  0  0  0  0  0  0  0  0  0  0  0
   -5.5508    4.0005  -22.3507 H   0  0  0  0  0  0  0  0  0  0  0  0
   -7.1314    2.3431  -21.3221 H   0  0  0  0  0  0  0  0  0  0  0  0
   -8.1588    3.6798  -20.8193 H   0  0  0  0  0  0  0  0  0  0  0  0
   -9.1246    2.7105  -22.5928 H   0  0  0  0  0  0  0  0  0  0  0  0
   -6.9903    1.6521  -23.3659 H   0  0  0  0  0  0  0  0  0  0  0  0
   -6.8389    3.0434  -24.4397 H   0  0  0  0  0  0  0  0  0  0  0  0
   -7.9823    1.3518  -25.7187 H   0  0  0  0  0  0  0  0  0  0  0  0
   -9.2509    2.5140  -25.2423 H   0  0  0  0  0  0  0  0  0  0  0  0
  -10.6604    0.8850  -24.0985 C   0  0  0  0  0  0  0  0  0  0  0  0
  -11.2658    1.8807  -24.4814 O   0  0  0  0  0  0  0  0  0  0  0  0
  -11.3541   -0.2315  -23.3853 C   0  0  0  0  0  0  0  0  0  0  0  0
  -12.7413   -0.1600  -23.2931 C   0  0  0  0  0  0  0  0  0  0  0  0
  -13.4369   -1.1044  -22.5643 C   0  0  0  0  0  0  0  0  0  0  0  0
  -12.7190   -2.1119  -21.9170 C   0  0  0  0  0  0  0  0  0  0  0  0
  -13.5651   -3.2561  -20.9088 Cl  0  0  0  0  0  0  0  0  0  0  0  0
  -11.3419   -2.2021  -22.0109 C   0  0  0  0  0  0  0  0  0  0  0  0
  -10.6351   -1.2766  -22.7846 C   0  0  0  0  0  0  0  0  0  0  0  0
  -10.8320   -2.9811  -21.4527 H   0  0  0  0  0  0  0  0  0  0  0  0
  -14.5149   -1.0589  -22.4587 H   0  0  0  0  0  0  0  0  0  0  0  0
  -13.2386    0.6666  -23.7918 H   0  0  0  0  0  0  0  0  0  0  0  0
   -7.6154   -0.4636  -24.1756 H   0  0  0  0  0  0  0  0  0  0  0  0
   -9.0015   -1.2050  -25.0029 H   0  0  0  0  0  0  0  0  0  0  0  0
   -6.9706   -3.3624  -21.2804 H   0  0  0  0  0  0  0  0  0  0  0  0
   -6.3180   -2.3748  -22.6059 H   0  0  0  0  0  0  0  0  0  0  0  0
   -9.1441   -3.3331  -22.1689 H   0  0  0  0  0  0  0  0  0  0  0  0
   -9.1175   -3.5727  -24.6893 H   0  0  0  0  0  0  0  0  0  0  0  0
   -7.4677   -2.9294  -24.6923 H   0  0  0  0  0  0  0  0  0  0  0  0
   -7.8118   -4.4630  -23.8977 H   0  0  0  0  0  0  0  0  0  0  0  0
  1  2  1  0
  2  3  1  0
  3  4  1  0
  4  5  1  0
  5  6  2  0
  6  7  1  0
  7  8  2  0
  8  9  1  0
  9 10  2  0
 10 11  1  0
 11 12  2  0
 12 13  1  0
 13 14  2  0
 13 15  1  0
 12 16  1  0
 11 17  1  0
 10 18  1  0
  8 19  1  0
  6 20  1  0
  4 21  1  0
 21 22  2  0
 21 23  1  0
 23 24  1  6
 24 25  1  0
 25 26  1  0
 26 27  1  0
 27 28  1  0
 28 29  1  0
 29 30  1  0
 30 31  1  0
 31 32  1  0
 32 33  1  0
 33 34  1  0
 33 35  1  0
 32 36  1  0
 32 37  1  0
 30 38  1  0
 30 39  1  0
 29 40  1  0
 29 41  1  0
 28 42  1  0
 27 43  1  0
 27 44  1  0
 26 45  1  0
 26 46  1  0
 25 47  1  0
 47 48  2  0
 47 49  1  0
 49 50  2  0
 50 51  1  0
 51 52  2  0
 52 53  1  0
 52 54  1  0
 54 55  2  0
 54 56  1  0
 51 57  1  0
 50 58  1  0
 24 59  1  0
 24 60  1  0
  3 61  1  0
  3 62  1  0
  2 63  1  1
  1 64  1  0
  1 65  1  0
  1 66  1  0
 23  2  1  0
 33 28  1  0
 55 49  1  0
 14  5  1  0
 55 23  1  0
 14  9  1  0
M  CHG  1  28   1
M  END
>  <cnnaffinities>  (74) 
[5.85469, 6.35434]

>  <score>  (74) 
5.85469

>  <index>  (74) 
76

>  <Smiles>  (74) 
C([C@]1(C(N(c2c(nc(c3c(c(c(c(c23)[H])[H])[H])[H])[H])[H])C(=O)[C@]21C(N(C(C([N+]1(C(C(OC(C1([H])[H])([H])[H])([H])[H])([H])[H])[H])([H])[H])([H])[H])C(=O)c1c(c(c(Cl)c(c21)[H])[H])[H])([H])[H])([H])[H])[H])([H])([H])[H]

>  <h>  (74) 
<NA>

>  <Training>  (74) 
True

>  <Success>  (74) 
True

>  <enamine_searched>  (74) 
False

>  <enamine_id>  (74) 
nan

$$$$

     RDKit          3D

 55 60  0  0  0  0  0  0  0  0999 V2000
   -8.0370   -3.9990  -23.8291 C   0  0  0  0  0  0  0  0  0  0  0  0
   -8.3708   -3.1234  -22.6182 C   0  0  1  0  0  0  0  0  0  0  0  0
   -7.0976   -2.5298  -21.9924 C   0  0  0  0  0  0  0  0  0  0  0  0
   -7.5610   -1.3405  -21.3110 N   0  0  0  0  0  0  0  0  0  0  0  0
   -6.8206   -0.7424  -20.2506 C   0  0  0  0  0  0  0  0  0  0  0  0
   -7.0783   -1.0878  -18.9467 C   0  0  0  0  0  0  0  0  0  0  0  0
   -6.3362   -0.6854  -17.8822 N   0  0  0  0  0  0  0  0  0  0  0  0
   -5.3137    0.0976  -18.1229 C   0  0  0  0  0  0  0  0  0  0  0  0
   -4.9493    0.5669  -19.4170 C   0  0  0  0  0  0  0  0  0  0  0  0
   -3.8631    1.4582  -19.6153 C   0  0  0  0  0  0  0  0  0  0  0  0
   -3.5832    1.9416  -20.8633 C   0  0  0  0  0  0  0  0  0  0  0  0
   -4.3574    1.5352  -21.9714 C   0  0  0  0  0  0  0  0  0  0  0  0
   -5.4129    0.6708  -21.8041 C   0  0  0  0  0  0  0  0  0  0  0  0
   -5.7324    0.1552  -20.5195 C   0  0  0  0  0  0  0  0  0  0  0  0
   -6.0322    0.3889  -22.6497 H   0  0  0  0  0  0  0  0  0  0  0  0
   -4.1249    1.9233  -22.9586 H   0  0  0  0  0  0  0  0  0  0  0  0
   -2.7786    2.6582  -21.0036 H   0  0  0  0  0  0  0  0  0  0  0  0
   -3.2777    1.7555  -18.7501 H   0  0  0  0  0  0  0  0  0  0  0  0
   -4.7280    0.4214  -17.2632 H   0  0  0  0  0  0  0  0  0  0  0  0
   -7.9242   -1.7332  -18.7180 H   0  0  0  0  0  0  0  0  0  0  0  0
   -8.8328   -0.9490  -21.6781 C   0  0  0  0  0  0  0  0  0  0  0  0
   -9.4162   -0.0068  -21.1770 O   0  0  0  0  0  0  0  0  0  0  0  0
   -9.3199   -1.8847  -22.8244 C   0  0  1  0  0  0  0  0  0  0  0  0
   -9.0984   -1.1802  -24.1824 C   0  0  0  0  0  0  0  0  0  0  0  0
   -9.6022   -1.9873  -25.2962 N   0  0  0  0  0  0  0  0  0  0  0  0
   -9.1192   -1.6499  -26.6417 C   0  0  0  0  0  0  0  0  0  0  0  0
   -9.6537   -0.3383  -27.1301 C   0  0  0  0  0  0  0  0  0  0  0  0
  -10.8915   -0.0214  -27.5755 C   0  0  0  0  0  0  0  0  0  0  0  0
  -10.9629    1.3337  -27.6938 O   0  0  0  0  0  0  0  0  0  0  0  0
   -9.7419    1.7672  -27.3295 C   0  0  0  0  0  0  0  0  0  0  0  0
   -8.9175    0.8359  -26.9953 N   0  0  0  0  0  0  0  0  0  0  0  0
   -9.5952    2.8379  -27.2920 H   0  0  0  0  0  0  0  0  0  0  0  0
  -11.7624   -0.5972  -27.8431 H   0  0  0  0  0  0  0  0  0  0  0  0
   -8.0261   -1.6024  -26.6373 H   0  0  0  0  0  0  0  0  0  0  0  0
   -9.4401   -2.4636  -27.2960 H   0  0  0  0  0  0  0  0  0  0  0  0
  -10.9010   -2.4476  -25.2541 C   0  0  0  0  0  0  0  0  0  0  0  0
  -11.5187   -2.7404  -26.2664 O   0  0  0  0  0  0  0  0  0  0  0  0
  -11.5196   -2.5610  -23.9033 C   0  0  0  0  0  0  0  0  0  0  0  0
  -12.8490   -2.9876  -23.8221 C   0  0  0  0  0  0  0  0  0  0  0  0
  -13.4805   -3.0723  -22.5953 C   0  0  0  0  0  0  0  0  0  0  0  0
  -12.7593   -2.7464  -21.4591 C   0  0  0  0  0  0  0  0  0  0  0  0
  -13.3850   -2.8703  -20.2752 F   0  0  0  0  0  0  0  0  0  0  0  0
  -11.4577   -2.2893  -21.5280 C   0  0  0  0  0  0  0  0  0  0  0  0
  -10.7994   -2.2277  -22.7505 C   0  0  0  0  0  0  0  0  0  0  0  0
  -10.9381   -1.9150  -20.6585 H   0  0  0  0  0  0  0  0  0  0  0  0
  -14.5102   -3.3766  -22.4693 H   0  0  0  0  0  0  0  0  0  0  0  0
  -13.3569   -3.2413  -24.7441 H   0  0  0  0  0  0  0  0  0  0  0  0
   -8.0257   -1.0076  -24.3362 H   0  0  0  0  0  0  0  0  0  0  0  0
   -9.6264   -0.2156  -24.1492 H   0  0  0  0  0  0  0  0  0  0  0  0
   -6.6216   -3.2141  -21.2786 H   0  0  0  0  0  0  0  0  0  0  0  0
   -6.3658   -2.2746  -22.7790 H   0  0  0  0  0  0  0  0  0  0  0  0
   -8.8686   -3.7579  -21.8717 H   0  0  0  0  0  0  0  0  0  0  0  0
   -7.5222   -3.4226  -24.6059 H   0  0  0  0  0  0  0  0  0  0  0  0
   -8.9357   -4.4294  -24.2819 H   0  0  0  0  0  0  0  0  0  0  0  0
   -7.3665   -4.8145  -23.5329 H   0  0  0  0  0  0  0  0  0  0  0  0
  1  2  1  0
  2  3  1  0
  3  4  1  0
  4  5  1  0
  5  6  2  0
  6  7  1  0
  7  8  2  0
  8  9  1  0
  9 10  2  0
 10 11  1  0
 11 12  2  0
 12 13  1  0
 13 14  2  0
 13 15  1  0
 12 16  1  0
 11 17  1  0
 10 18  1  0
  8 19  1  0
  6 20  1  0
  4 21  1  0
 21 22  2  0
 21 23  1  0
 23 24  1  6
 24 25  1  0
 25 26  1  0
 26 27  1  0
 27 28  2  0
 28 29  1  0
 29 30  1  0
 30 31  2  0
 30 32  1  0
 28 33  1  0
 26 34  1  0
 26 35  1  0
 25 36  1  0
 36 37  2  0
 36 38  1  0
 38 39  2  0
 39 40  1  0
 40 41  2  0
 41 42  1  0
 41 43  1  0
 43 44  2  0
 43 45  1  0
 40 46  1  0
 39 47  1  0
 24 48  1  0
 24 49  1  0
  3 50  1  0
  3 51  1  0
  2 52  1  1
  1 53  1  0
  1 54  1  0
  1 55  1  0
 23  2  1  0
 31 27  1  0
 44 38  1  0
 14  5  1  0
 44 23  1  0
 14  9  1  0
M  END
>  <cnnaffinities>  (75) 
[5.49132]

>  <score>  (75) 
5.49132

>  <index>  (75) 
77

>  <Smiles>  (75) 
C([C@]1(C(N(c2c(nc(c3c(c(c(c(c23)[H])[H])[H])[H])[H])[H])C(=O)[C@]21C(N(C(c1c(oc(n1)[H])[H])([H])[H])C(=O)c1c(c(c(F)c(c21)[H])[H])[H])([H])[H])([H])[H])[H])([H])([H])[H]

>  <h>  (75) 
<NA>

>  <Training>  (75) 
True

>  <Success>  (75) 
True

>  <enamine_searched>  (75) 
False

>  <enamine_id>  (75) 
nan

$$$$

     RDKit          3D

 56 60  0  0  0  0  0  0  0  0999 V2000
   -8.0109   -5.9722  -27.0112 C   0  0  0  0  0  0  0  0  0  0  0  0
   -8.2480   -4.5466  -27.1163 N   0  0  0  0  0  0  0  0  0  0  0  0
   -7.2745   -3.6876  -26.7254 C   0  0  0  0  0  0  0  0  0  0  0  0
   -6.2047   -4.0644  -26.2610 O   0  0  0  0  0  0  0  0  0  0  0  0
   -7.6341   -2.2021  -26.8441 C   0  0  0  0  0  0  0  0  0  0  0  0
   -8.4961   -1.7990  -25.7354 N   0  0  0  0  0  0  0  0  0  0  0  0
   -7.9276   -1.3138  -24.4827 C   0  0  0  0  0  0  0  0  0  0  0  0
   -8.7936   -1.6006  -23.2167 C   0  0  2  0  0  0  0  0  0  0  0  0
   -8.2657   -0.6393  -22.1321 C   0  0  0  0  0  0  0  0  0  0  0  0
   -8.4337    0.5596  -22.0872 O   0  0  0  0  0  0  0  0  0  0  0  0
   -7.4977   -1.3497  -21.2279 N   0  0  0  0  0  0  0  0  0  0  0  0
   -6.7065   -0.7566  -20.2130 C   0  0  0  0  0  0  0  0  0  0  0  0
   -6.9405   -1.1087  -18.9062 C   0  0  0  0  0  0  0  0  0  0  0  0
   -6.2345   -0.6573  -17.8422 N   0  0  0  0  0  0  0  0  0  0  0  0
   -5.2366    0.1580  -18.0846 C   0  0  0  0  0  0  0  0  0  0  0  0
   -4.8633    0.5826  -19.3909 C   0  0  0  0  0  0  0  0  0  0  0  0
   -3.7755    1.4737  -19.5894 C   0  0  0  0  0  0  0  0  0  0  0  0
   -3.5054    1.9757  -20.8318 C   0  0  0  0  0  0  0  0  0  0  0  0
   -4.2755    1.5623  -21.9429 C   0  0  0  0  0  0  0  0  0  0  0  0
   -5.2899    0.6524  -21.7883 C   0  0  0  0  0  0  0  0  0  0  0  0
   -5.6280    0.1473  -20.4982 C   0  0  0  0  0  0  0  0  0  0  0  0
   -5.8599    0.3383  -22.6575 H   0  0  0  0  0  0  0  0  0  0  0  0
   -4.0511    1.9546  -22.9306 H   0  0  0  0  0  0  0  0  0  0  0  0
   -2.7072    2.6997  -20.9746 H   0  0  0  0  0  0  0  0  0  0  0  0
   -3.1889    1.7698  -18.7235 H   0  0  0  0  0  0  0  0  0  0  0  0
   -4.6646    0.5324  -17.2327 H   0  0  0  0  0  0  0  0  0  0  0  0
   -7.7554   -1.7940  -18.6728 H   0  0  0  0  0  0  0  0  0  0  0  0
   -7.4101   -2.7652  -21.5286 C   0  0  0  0  0  0  0  0  0  0  0  0
   -8.5474   -2.9849  -22.5301 C   0  0  2  0  0  0  0  0  0  0  0  0
   -8.3166   -4.1644  -23.4605 C   0  0  0  0  0  0  0  0  0  0  0  0
   -8.2587   -5.0964  -22.8904 H   0  0  0  0  0  0  0  0  0  0  0  0
   -7.3806   -4.0622  -24.0237 H   0  0  0  0  0  0  0  0  0  0  0  0
   -9.1448   -4.2533  -24.1706 H   0  0  0  0  0  0  0  0  0  0  0  0
   -9.4596   -3.1660  -21.9415 H   0  0  0  0  0  0  0  0  0  0  0  0
   -7.5428   -3.3632  -20.6216 H   0  0  0  0  0  0  0  0  0  0  0  0
   -6.4259   -3.0232  -21.9505 H   0  0  0  0  0  0  0  0  0  0  0  0
  -10.2666   -1.4016  -23.5344 C   0  0  0  0  0  0  0  0  0  0  0  0
  -11.2165   -1.2973  -22.4989 C   0  0  0  0  0  0  0  0  0  0  0  0
  -12.5633   -1.2213  -22.8216 C   0  0  0  0  0  0  0  0  0  0  0  0
  -13.7970   -1.3395  -21.6047 Cl  0  0  0  0  0  0  0  0  0  0  0  0
  -12.9940   -1.1283  -24.1461 C   0  0  0  0  0  0  0  0  0  0  0  0
  -12.0653   -1.2205  -25.1610 C   0  0  0  0  0  0  0  0  0  0  0  0
  -10.7260   -1.4446  -24.8585 C   0  0  0  0  0  0  0  0  0  0  0  0
   -9.8315   -1.8628  -25.9773 C   0  0  0  0  0  0  0  0  0  0  0  0
  -10.2581   -2.2848  -27.0525 O   0  0  0  0  0  0  0  0  0  0  0  0
  -12.3525   -1.1589  -26.2077 H   0  0  0  0  0  0  0  0  0  0  0  0
  -14.0566   -1.0538  -24.3467 H   0  0  0  0  0  0  0  0  0  0  0  0
  -10.9122   -1.2957  -21.4528 H   0  0  0  0  0  0  0  0  0  0  0  0
   -6.9349   -1.7632  -24.3651 H   0  0  0  0  0  0  0  0  0  0  0  0
   -7.7688   -0.2276  -24.5296 H   0  0  0  0  0  0  0  0  0  0  0  0
   -6.7137   -1.6109  -26.8573 H   0  0  0  0  0  0  0  0  0  0  0  0
   -8.2057   -2.0308  -27.7646 H   0  0  0  0  0  0  0  0  0  0  0  0
   -9.1532   -4.1798  -27.3848 H   0  0  0  0  0  0  0  0  0  0  0  0
   -8.9204   -6.5163  -27.2720 H   0  0  0  0  0  0  0  0  0  0  0  0
   -7.6963   -6.2374  -25.9958 H   0  0  0  0  0  0  0  0  0  0  0  0
   -7.1995   -6.2796  -27.6767 H   0  0  0  0  0  0  0  0  0  0  0  0
  1  2  1  0
  2  3  1  0
  3  4  2  0
  3  5  1  0
  5  6  1  0
  6  7  1  0
  8  7  1  6
  8  9  1  0
  9 10  2  0
  9 11  1  0
 11 12  1  0
 12 13  2  0
 13 14  1  0
 14 15  2  0
 15 16  1  0
 16 17  2  0
 17 18  1  0
 18 19  2  0
 19 20  1  0
 20 21  2  0
 20 22  1  0
 19 23  1  0
 18 24  1  0
 17 25  1  0
 15 26  1  0
 13 27  1  0
 11 28  1  0
 28 29  1  0
 29 30  1  0
 30 31  1  0
 30 32  1  0
 30 33  1  0
 29 34  1  1
 28 35  1  0
 28 36  1  0
  8 37  1  0
 37 38  2  0
 38 39  1  0
 39 40  1  0
 39 41  2  0
 41 42  1  0
 42 43  2  0
 43 44  1  0
 44 45  2  0
 42 46  1  0
 41 47  1  0
 38 48  1  0
  7 49  1  0
  7 50  1  0
  5 51  1  0
  5 52  1  0
  2 53  1  0
  1 54  1  0
  1 55  1  0
  1 56  1  0
 44  6  1  0
 29  8  1  0
 43 37  1  0
 21 12  1  0
 21 16  1  0
M  END
>  <cnnaffinities>  (76) 
[5.88101, 5.76004]

>  <score>  (76) 
5.88101

>  <index>  (76) 
78

>  <Smiles>  (76) 
C(N(C(=O)C(N1C([C@@]2(C(=O)N(c3c(nc(c4c(c(c(c(c34)[H])[H])[H])[H])[H])[H])C([C@@]2(C([H])([H])[H])[H])([H])[H])c2c(c(Cl)c(c(c2C1=O)[H])[H])[H])([H])[H])([H])[H])[H])([H])([H])[H]

>  <h>  (76) 
<NA>

>  <Training>  (76) 
True

>  <Success>  (76) 
True

>  <enamine_searched>  (76) 
False

>  <enamine_id>  (76) 
nan

$$$$

     RDKit          3D

 45 49  0  0  0  0  0  0  0  0999 V2000
   -9.4463   -4.0225  -22.5234 C   0  0  0  0  0  0  0  0  0  0  0  0
   -8.8297   -2.7582  -22.2010 N   0  0  0  0  0  0  0  0  0  0  0  0
   -7.8779   -2.6377  -21.2292 C   0  0  0  0  0  0  0  0  0  0  0  0
   -7.4016   -3.5153  -20.5404 O   0  0  0  0  0  0  0  0  0  0  0  0
   -7.5265   -1.2819  -21.1755 N   0  0  0  0  0  0  0  0  0  0  0  0
   -6.6775   -0.7718  -20.1666 C   0  0  0  0  0  0  0  0  0  0  0  0
   -6.9255   -1.1025  -18.8568 C   0  0  0  0  0  0  0  0  0  0  0  0
   -6.2255   -0.6206  -17.8057 N   0  0  0  0  0  0  0  0  0  0  0  0
   -5.2162    0.1693  -18.0799 C   0  0  0  0  0  0  0  0  0  0  0  0
   -4.8249    0.5427  -19.3952 C   0  0  0  0  0  0  0  0  0  0  0  0
   -3.7205    1.4012  -19.6145 C   0  0  0  0  0  0  0  0  0  0  0  0
   -3.4387    1.8525  -20.8716 C   0  0  0  0  0  0  0  0  0  0  0  0
   -4.2209    1.4337  -21.9701 C   0  0  0  0  0  0  0  0  0  0  0  0
   -5.2191    0.5099  -21.8023 C   0  0  0  0  0  0  0  0  0  0  0  0
   -5.5859    0.0866  -20.4899 C   0  0  0  0  0  0  0  0  0  0  0  0
   -5.7325    0.1177  -22.6757 H   0  0  0  0  0  0  0  0  0  0  0  0
   -4.0149    1.8344  -22.9576 H   0  0  0  0  0  0  0  0  0  0  0  0
   -2.6224    2.5482  -21.0296 H   0  0  0  0  0  0  0  0  0  0  0  0
   -3.1323    1.6939  -18.7511 H   0  0  0  0  0  0  0  0  0  0  0  0
   -4.6576    0.5693  -17.2362 H   0  0  0  0  0  0  0  0  0  0  0  0
   -7.7425   -1.7774  -18.6154 H   0  0  0  0  0  0  0  0  0  0  0  0
   -8.2870   -0.5222  -22.0642 C   0  0  0  0  0  0  0  0  0  0  0  0
   -8.2218    0.6724  -22.2218 O   0  0  0  0  0  0  0  0  0  0  0  0
   -9.2105   -1.4910  -22.7719 C   0  0  0  0  0  0  0  0  0  0  0  0
   -9.2641   -1.3869  -24.3091 C   0  0  0  0  0  0  0  0  0  0  0  0
  -10.7057   -1.0052  -24.2433 N   0  0  0  0  0  0  0  0  0  0  0  0
  -11.7545   -1.9887  -25.1249 S   0  0  0  0  0  0  0  0  0  0  0  0
  -11.7138   -3.3530  -24.6039 O   0  0  0  0  0  0  0  0  0  0  0  0
  -11.4753   -1.7535  -26.5273 O   0  0  0  0  0  0  0  0  0  0  0  0
  -13.3516   -1.3285  -24.7354 C   0  0  0  0  0  0  0  0  0  0  0  0
  -14.1388   -1.9458  -23.6140 C   0  0  0  0  0  0  0  0  0  0  0  0
  -14.4840   -2.2689  -25.0310 C   0  0  0  0  0  0  0  0  0  0  0  0
  -14.2066   -3.2518  -25.4000 H   0  0  0  0  0  0  0  0  0  0  0  0
  -15.3768   -1.8367  -25.4650 H   0  0  0  0  0  0  0  0  0  0  0  0
  -13.6443   -2.7218  -23.0373 H   0  0  0  0  0  0  0  0  0  0  0  0
  -14.8144   -1.2952  -23.0673 H   0  0  0  0  0  0  0  0  0  0  0  0
  -13.4819   -0.2727  -24.9420 H   0  0  0  0  0  0  0  0  0  0  0  0
  -10.7025   -1.0814  -22.7625 C   0  0  0  0  0  0  0  0  0  0  0  0
  -11.3794   -1.8122  -22.3123 H   0  0  0  0  0  0  0  0  0  0  0  0
  -10.8623   -0.0896  -22.3346 H   0  0  0  0  0  0  0  0  0  0  0  0
   -9.0696   -2.3322  -24.8232 H   0  0  0  0  0  0  0  0  0  0  0  0
   -8.6709   -0.5799  -24.7414 H   0  0  0  0  0  0  0  0  0  0  0  0
   -8.8615   -4.7819  -22.0056 H   0  0  0  0  0  0  0  0  0  0  0  0
   -9.3950   -4.2202  -23.5975 H   0  0  0  0  0  0  0  0  0  0  0  0
  -10.4945   -4.0515  -22.1967 H   0  0  0  0  0  0  0  0  0  0  0  0
  1  2  1  0
  2  3  1  0
  3  4  2  0
  3  5  1  0
  5  6  1  0
  6  7  2  0
  7  8  1  0
  8  9  2  0
  9 10  1  0
 10 11  2  0
 11 12  1  0
 12 13  2  0
 13 14  1  0
 14 15  2  0
 14 16  1  0
 13 17  1  0
 12 18  1  0
 11 19  1  0
  9 20  1  0
  7 21  1  0
  5 22  1  0
 22 23  2  0
 22 24  1  0
 24 25  1  0
 25 26  1  0
 26 27  1  0
 27 28  2  0
 27 29  2  0
 27 30  1  0
 30 31  1  0
 31 32  1  0
 32 33  1  0
 32 34  1  0
 31 35  1  0
 31 36  1  0
 30 37  1  0
 26 38  1  0
 38 39  1  0
 38 40  1  0
 25 41  1  0
 25 42  1  0
  1 43  1  0
  1 44  1  0
  1 45  1  0
 24  2  1  0
 32 30  1  0
 15  6  1  0
 38 24  1  0
 15 10  1  0
M  END
>  <cnnaffinities>  (77) 
[5.11054, 5.10853, 5.10827]

>  <score>  (77) 
5.11054

>  <index>  (77) 
79

>  <Smiles>  (77) 
C(N1C(=O)N(c2c(nc(c3c(c(c(c(c23)[H])[H])[H])[H])[H])[H])C(=O)C21C(N(S(=O)(=O)C1(C(C1([H])[H])([H])[H])[H])C2([H])[H])([H])[H])([H])([H])[H]

>  <h>  (77) 
<NA>

>  <Training>  (77) 
True

>  <Success>  (77) 
True

>  <enamine_searched>  (77) 
False

>  <enamine_id>  (77) 
nan

$$$$

     RDKit          3D

 60 65  0  0  0  0  0  0  0  0999 V2000
   -8.8527   -7.8599  -25.9824 C   0  0  0  0  0  0  0  0  0  0  0  0
   -8.0727   -6.9580  -25.1715 N   0  0  0  0  0  0  0  0  0  0  0  0
   -7.3707   -7.2603  -24.0567 C   0  0  0  0  0  0  0  0  0  0  0  0
   -7.3897   -8.3172  -23.4459 O   0  0  0  0  0  0  0  0  0  0  0  0
   -6.5461   -6.1030  -23.5351 C   0  0  0  0  0  0  0  0  0  0  0  0
   -6.8785   -4.7816  -23.9648 N   0  0  0  0  0  0  0  0  0  0  0  0
   -8.0387   -4.1695  -23.3650 C   0  0  0  0  0  0  0  0  0  0  0  0
   -7.8354   -2.6651  -23.1581 C   0  0  2  0  0  0  0  0  0  0  0  0
   -6.8354   -2.4120  -22.0117 C   0  0  0  0  0  0  0  0  0  0  0  0
   -5.7479   -2.9314  -21.8438 O   0  0  0  0  0  0  0  0  0  0  0  0
   -7.3678   -1.4645  -21.1784 N   0  0  0  0  0  0  0  0  0  0  0  0
   -6.6014   -0.8402  -20.1692 C   0  0  0  0  0  0  0  0  0  0  0  0
   -6.9209   -1.0648  -18.8565 C   0  0  0  0  0  0  0  0  0  0  0  0
   -6.2298   -0.5703  -17.8030 N   0  0  0  0  0  0  0  0  0  0  0  0
   -5.2041    0.2022  -18.0742 C   0  0  0  0  0  0  0  0  0  0  0  0
   -4.7914    0.5460  -19.3957 C   0  0  0  0  0  0  0  0  0  0  0  0
   -3.6819    1.4017  -19.6252 C   0  0  0  0  0  0  0  0  0  0  0  0
   -3.3951    1.8396  -20.8868 C   0  0  0  0  0  0  0  0  0  0  0  0
   -4.1884    1.4204  -21.9826 C   0  0  0  0  0  0  0  0  0  0  0  0
   -5.1964    0.5016  -21.8097 C   0  0  0  0  0  0  0  0  0  0  0  0
   -5.5279    0.0475  -20.4933 C   0  0  0  0  0  0  0  0  0  0  0  0
   -5.7351    0.1176  -22.6803 H   0  0  0  0  0  0  0  0  0  0  0  0
   -3.9715    1.8108  -22.9724 H   0  0  0  0  0  0  0  0  0  0  0  0
   -2.5555    2.5116  -21.0559 H   0  0  0  0  0  0  0  0  0  0  0  0
   -3.1004    1.7282  -18.7665 H   0  0  0  0  0  0  0  0  0  0  0  0
   -4.6387    0.5963  -17.2280 H   0  0  0  0  0  0  0  0  0  0  0  0
   -7.7699   -1.7061  -18.6236 H   0  0  0  0  0  0  0  0  0  0  0  0
   -8.6721   -0.9865  -21.5639 C   0  0  0  0  0  0  0  0  0  0  0  0
   -9.1362   -1.9600  -22.6624 C   0  0  2  0  0  0  0  0  0  0  0  0
  -10.2427   -2.8787  -22.1243 C   0  0  0  0  0  0  0  0  0  0  0  0
  -11.0851   -2.2759  -21.7697 H   0  0  0  0  0  0  0  0  0  0  0  0
  -10.6291   -3.5482  -22.8977 H   0  0  0  0  0  0  0  0  0  0  0  0
   -9.8925   -3.4851  -21.2825 H   0  0  0  0  0  0  0  0  0  0  0  0
   -9.5729   -1.4166  -23.5043 H   0  0  0  0  0  0  0  0  0  0  0  0
   -9.3418   -1.0050  -20.7085 H   0  0  0  0  0  0  0  0  0  0  0  0
   -8.6263    0.0554  -21.9062 H   0  0  0  0  0  0  0  0  0  0  0  0
   -7.2889   -2.0715  -24.4541 C   0  0  0  0  0  0  0  0  0  0  0  0
   -7.4505   -0.7128  -24.7427 C   0  0  0  0  0  0  0  0  0  0  0  0
   -6.9226   -0.1813  -25.9074 C   0  0  0  0  0  0  0  0  0  0  0  0
   -7.1247    1.5139  -26.2331 Cl  0  0  0  0  0  0  0  0  0  0  0  0
   -6.2277   -0.9630  -26.8269 C   0  0  0  0  0  0  0  0  0  0  0  0
   -6.0445   -2.2964  -26.5365 C   0  0  0  0  0  0  0  0  0  0  0  0
   -6.5512   -2.8414  -25.3593 C   0  0  0  0  0  0  0  0  0  0  0  0
   -6.2554   -4.2687  -25.0785 C   0  0  0  0  0  0  0  0  0  0  0  0
   -5.5106   -4.9515  -25.7690 O   0  0  0  0  0  0  0  0  0  0  0  0
   -5.4972   -2.9549  -27.1996 H   0  0  0  0  0  0  0  0  0  0  0  0
   -5.8232   -0.5264  -27.7319 H   0  0  0  0  0  0  0  0  0  0  0  0
   -7.9904   -0.0545  -24.0703 H   0  0  0  0  0  0  0  0  0  0  0  0
   -8.2266   -4.6579  -22.4108 H   0  0  0  0  0  0  0  0  0  0  0  0
   -8.9213   -4.3211  -23.9989 H   0  0  0  0  0  0  0  0  0  0  0  0
   -6.1684   -6.2569  -22.0883 C   0  0  0  0  0  0  0  0  0  0  0  0
   -5.1170   -6.3625  -23.1475 C   0  0  0  0  0  0  0  0  0  0  0  0
   -4.6951   -7.3339  -23.3943 H   0  0  0  0  0  0  0  0  0  0  0  0
   -4.4453   -5.5113  -23.2578 H   0  0  0  0  0  0  0  0  0  0  0  0
   -6.1818   -5.3379  -21.5109 H   0  0  0  0  0  0  0  0  0  0  0  0
   -6.5093   -7.1750  -21.6170 H   0  0  0  0  0  0  0  0  0  0  0  0
   -7.9012   -6.0566  -25.5860 H   0  0  0  0  0  0  0  0  0  0  0  0
   -8.2147   -8.5646  -26.5227 H   0  0  0  0  0  0  0  0  0  0  0  0
   -9.6151   -8.3857  -25.3989 H   0  0  0  0  0  0  0  0  0  0  0  0
   -9.3512   -7.2435  -26.7249 H   0  0  0  0  0  0  0  0  0  0  0  0
  1  2  1  0
  2  3  1  0
  3  4  2  0
  3  5  1  0
  5  6  1  0
  6  7  1  0
  8  7  1  6
  8  9  1  0
  9 10  2  0
  9 11  1  0
 11 12  1  0
 12 13  2  0
 13 14  1  0
 14 15  2  0
 15 16  1  0
 16 17  2  0
 17 18  1  0
 18 19  2  0
 19 20  1  0
 20 21  2  0
 20 22  1  0
 19 23  1  0
 18 24  1  0
 17 25  1  0
 15 26  1  0
 13 27  1  0
 11 28  1  0
 28 29  1  0
 29 30  1  0
 30 31  1  0
 30 32  1  0
 30 33  1  0
 29 34  1  6
 28 35  1  0
 28 36  1  0
  8 37  1  0
 37 38  2  0
 38 39  1  0
 39 40  1  0
 39 41  2  0
 41 42  1  0
 42 43  2  0
 43 44  1  0
 44 45  2  0
 42 46  1  0
 41 47  1  0
 38 48  1  0
  7 49  1  0
  7 50  1  0
  5 51  1  0
 51 52  1  0
 52 53  1  0
 52 54  1  0
 51 55  1  0
 51 56  1  0
  2 57  1  0
  1 58  1  0
  1 59  1  0
  1 60  1  0
 52  5  1  0
 44  6  1  0
 29  8  1  0
 43 37  1  0
 21 12  1  0
 21 16  1  0
M  END
>  <cnnaffinities>  (78) 
[5.70667, 6.01993, 6.08338, 5.95732]

>  <score>  (78) 
5.70667

>  <index>  (78) 
80

>  <Smiles>  (78) 
C(N(C(=O)C1(N2C([C@@]3(C(=O)N(c4c(nc(c5c(c(c(c(c45)[H])[H])[H])[H])[H])[H])C([C@@]3(C([H])([H])[H])[H])([H])[H])c3c(c(Cl)c(c(c3C2=O)[H])[H])[H])([H])[H])C(C1([H])[H])([H])[H])[H])([H])([H])[H]

>  <h>  (78) 
<NA>

>  <Training>  (78) 
True

>  <Success>  (78) 
True

>  <enamine_searched>  (78) 
False

>  <enamine_id>  (78) 
nan

$$$$

     RDKit          3D

 36 38  0  0  0  0  0  0  0  0999 V2000
   -8.5266    0.7341  -21.4116 O   0  0  0  0  0  0  0  0  0  0  0  0
   -8.3987   -0.3803  -21.8920 C   0  0  0  0  0  0  0  0  0  0  0  0
   -7.4502   -1.4063  -21.2765 C   0  0  0  0  0  0  0  0  0  0  0  0
   -6.6141   -0.8121  -20.1768 C   0  0  0  0  0  0  0  0  0  0  0  0
   -6.9087   -1.0546  -18.8599 C   0  0  0  0  0  0  0  0  0  0  0  0
   -6.2144   -0.5790  -17.7906 N   0  0  0  0  0  0  0  0  0  0  0  0
   -5.1976    0.2091  -18.0545 C   0  0  0  0  0  0  0  0  0  0  0  0
   -4.8040    0.5899  -19.3680 C   0  0  0  0  0  0  0  0  0  0  0  0
   -3.6752    1.4171  -19.6042 C   0  0  0  0  0  0  0  0  0  0  0  0
   -3.3684    1.8244  -20.8769 C   0  0  0  0  0  0  0  0  0  0  0  0
   -4.1774    1.4191  -21.9668 C   0  0  0  0  0  0  0  0  0  0  0  0
   -5.1664    0.4840  -21.7758 C   0  0  0  0  0  0  0  0  0  0  0  0
   -5.5376    0.0781  -20.4625 C   0  0  0  0  0  0  0  0  0  0  0  0
   -5.7002    0.0705  -22.6272 H   0  0  0  0  0  0  0  0  0  0  0  0
   -3.9650    1.7948  -22.9686 H   0  0  0  0  0  0  0  0  0  0  0  0
   -2.5110    2.4713  -21.0554 H   0  0  0  0  0  0  0  0  0  0  0  0
   -3.0742    1.7141  -18.7478 H   0  0  0  0  0  0  0  0  0  0  0  0
   -4.6297    0.5933  -17.2048 H   0  0  0  0  0  0  0  0  0  0  0  0
   -7.7579   -1.6861  -18.5977 H   0  0  0  0  0  0  0  0  0  0  0  0
   -6.8351   -1.8634  -22.0666 H   0  0  0  0  0  0  0  0  0  0  0  0
   -8.0720   -2.2119  -20.8734 H   0  0  0  0  0  0  0  0  0  0  0  0
   -9.0504   -0.7690  -23.0474 N   0  0  0  0  0  0  0  0  0  0  0  0
   -9.9791    0.1829  -23.6203 C   0  0  0  0  0  0  0  0  0  0  0  0
  -11.3614    0.1787  -23.0204 C   0  0  0  0  0  0  0  0  0  0  0  0
  -12.0112   -0.8003  -22.3853 C   0  0  0  0  0  0  0  0  0  0  0  0
  -11.5663   -2.1796  -22.1181 C   0  0  0  0  0  0  0  0  0  0  0  0
  -10.4479   -2.7754  -22.5385 C   0  0  0  0  0  0  0  0  0  0  0  0
   -9.3484   -2.1567  -23.3719 C   0  0  0  0  0  0  0  0  0  0  0  0
   -8.4408   -2.7680  -23.3023 H   0  0  0  0  0  0  0  0  0  0  0  0
   -9.6276   -2.1569  -24.4350 H   0  0  0  0  0  0  0  0  0  0  0  0
  -10.3089   -3.8238  -22.2815 H   0  0  0  0  0  0  0  0  0  0  0  0
  -12.2833   -2.7719  -21.5496 H   0  0  0  0  0  0  0  0  0  0  0  0
  -13.0165   -0.5853  -22.0215 H   0  0  0  0  0  0  0  0  0  0  0  0
  -11.8702    1.1359  -23.1178 H   0  0  0  0  0  0  0  0  0  0  0  0
  -10.0320   -0.0227  -24.6997 H   0  0  0  0  0  0  0  0  0  0  0  0
   -9.5450    1.1785  -23.5028 H   0  0  0  0  0  0  0  0  0  0  0  0
  1  2  2  0
  2  3  1  0
  3  4  1  0
  4  5  2  0
  5  6  1  0
  6  7  2  0
  7  8  1  0
  8  9  2  0
  9 10  1  0
 10 11  2  0
 11 12  1  0
 12 13  2  0
 12 14  1  0
 11 15  1  0
 10 16  1  0
  9 17  1  0
  7 18  1  0
  5 19  1  0
  3 20  1  0
  3 21  1  0
  2 22  1  0
 22 23  1  0
 23 24  1  0
 24 25  2  0
 25 26  1  0
 26 27  2  0
 27 28  1  0
 28 29  1  0
 28 30  1  0
 27 31  1  0
 26 32  1  0
 25 33  1  0
 24 34  1  0
 23 35  1  0
 23 36  1  0
 13  4  1  0
 28 22  1  0
 13  8  1  0
M  END
>  <cnnaffinities>  (79) 
[4.21642, 4.21638, 4.7512, 4.75127, 4.51004, 4.51018, 4.50847, 4.50815]

>  <score>  (79) 
4.21642

>  <index>  (79) 
81

>  <Smiles>  (79) 
O=C(C(c1c(nc(c2c(c(c(c(c12)[H])[H])[H])[H])[H])[H])([H])[H])N1C(C(=C(C(=C(C1([H])[H])[H])[H])[H])[H])([H])[H]

>  <h>  (79) 
<NA>

>  <Training>  (79) 
True

>  <Success>  (79) 
True

>  <enamine_searched>  (79) 
False

>  <enamine_id>  (79) 
nan

$$$$

     RDKit          3D

 54 57  0  0  0  0  0  0  0  0999 V2000
  -10.6844    0.3562  -25.3872 C   0  0  0  0  0  0  0  0  0  0  0  0
   -9.8100   -0.6291  -24.9040 O   0  0  0  0  0  0  0  0  0  0  0  0
   -8.4881   -0.5193  -25.2046 C   0  0  0  0  0  0  0  0  0  0  0  0
   -7.9564    0.5145  -25.9773 C   0  0  0  0  0  0  0  0  0  0  0  0
   -6.5881    0.5465  -26.2397 C   0  0  0  0  0  0  0  0  0  0  0  0
   -5.7669   -0.4460  -25.7221 C   0  0  0  0  0  0  0  0  0  0  0  0
   -6.3101   -1.4630  -24.9359 C   0  0  0  0  0  0  0  0  0  0  0  0
   -7.6712   -1.5332  -24.6705 C   0  0  0  0  0  0  0  0  0  0  0  0
   -8.3023   -2.6457  -23.8272 C   0  0  1  0  0  0  0  0  0  0  0  0
   -9.1408   -3.6390  -24.6677 C   0  0  0  0  0  0  0  0  0  0  0  0
   -8.3840   -4.8444  -25.2434 C   0  0  1  0  0  0  0  0  0  0  0  0
   -7.5089   -4.5226  -26.4587 C   0  0  0  0  0  0  0  0  0  0  0  0
   -6.6843   -3.8493  -26.2062 H   0  0  0  0  0  0  0  0  0  0  0  0
   -7.0731   -5.4352  -26.8798 H   0  0  0  0  0  0  0  0  0  0  0  0
   -8.0891   -4.0444  -27.2539 H   0  0  0  0  0  0  0  0  0  0  0  0
   -7.5913   -5.4977  -24.1078 C   0  0  0  0  0  0  0  0  0  0  0  0
   -6.6337   -4.5345  -23.4334 C   0  0  0  0  0  0  0  0  0  0  0  0
   -7.3278   -3.3364  -22.9665 N   0  0  0  0  0  0  0  0  0  0  0  0
   -6.7306   -2.7446  -21.8726 C   0  0  0  0  0  0  0  0  0  0  0  0
   -5.7314   -3.2170  -21.3625 O   0  0  0  0  0  0  0  0  0  0  0  0
   -7.3965   -1.4929  -21.2867 C   0  0  0  0  0  0  0  0  0  0  0  0
   -6.5980   -0.8461  -20.1865 C   0  0  0  0  0  0  0  0  0  0  0  0
   -6.8857   -1.0857  -18.8687 C   0  0  0  0  0  0  0  0  0  0  0  0
   -6.2020   -0.5942  -17.7994 N   0  0  0  0  0  0  0  0  0  0  0  0
   -5.1876    0.1990  -18.0588 C   0  0  0  0  0  0  0  0  0  0  0  0
   -4.7841    0.5614  -19.3740 C   0  0  0  0  0  0  0  0  0  0  0  0
   -3.6614    1.3988  -19.6107 C   0  0  0  0  0  0  0  0  0  0  0  0
   -3.3634    1.8127  -20.8812 C   0  0  0  0  0  0  0  0  0  0  0  0
   -4.1572    1.3867  -21.9708 C   0  0  0  0  0  0  0  0  0  0  0  0
   -5.1527    0.4566  -21.7798 C   0  0  0  0  0  0  0  0  0  0  0  0
   -5.5101    0.0382  -20.4693 C   0  0  0  0  0  0  0  0  0  0  0  0
   -5.6553    0.0164  -22.6369 H   0  0  0  0  0  0  0  0  0  0  0  0
   -3.9568    1.7676  -22.9695 H   0  0  0  0  0  0  0  0  0  0  0  0
   -2.4959    2.4426  -21.0646 H   0  0  0  0  0  0  0  0  0  0  0  0
   -3.0684    1.7143  -18.7548 H   0  0  0  0  0  0  0  0  0  0  0  0
   -4.6345    0.5996  -17.2079 H   0  0  0  0  0  0  0  0  0  0  0  0
   -7.7395   -1.7093  -18.6037 H   0  0  0  0  0  0  0  0  0  0  0  0
   -7.5920   -0.7847  -22.0985 H   0  0  0  0  0  0  0  0  0  0  0  0
   -8.3761   -1.7998  -20.8955 H   0  0  0  0  0  0  0  0  0  0  0  0
   -6.2283   -5.0023  -22.5370 H   0  0  0  0  0  0  0  0  0  0  0  0
   -5.7672   -4.2753  -24.0604 H   0  0  0  0  0  0  0  0  0  0  0  0
   -8.2671   -5.8189  -23.3119 H   0  0  0  0  0  0  0  0  0  0  0  0
   -7.0472   -6.3863  -24.4576 H   0  0  0  0  0  0  0  0  0  0  0  0
   -9.1528   -5.5596  -25.5718 H   0  0  0  0  0  0  0  0  0  0  0  0
   -9.6362   -3.0712  -25.4655 H   0  0  0  0  0  0  0  0  0  0  0  0
   -9.9295   -4.0299  -24.0112 H   0  0  0  0  0  0  0  0  0  0  0  0
   -9.0324   -2.1576  -23.1675 H   0  0  0  0  0  0  0  0  0  0  0  0
   -5.6531   -2.2383  -24.5435 H   0  0  0  0  0  0  0  0  0  0  0  0
   -4.7007   -0.4480  -25.9253 H   0  0  0  0  0  0  0  0  0  0  0  0
   -6.1787    1.3498  -26.8524 H   0  0  0  0  0  0  0  0  0  0  0  0
   -8.6119    1.2813  -26.3754 H   0  0  0  0  0  0  0  0  0  0  0  0
  -11.6684    0.0663  -25.0158 H   0  0  0  0  0  0  0  0  0  0  0  0
  -10.6868    0.3867  -26.4853 H   0  0  0  0  0  0  0  0  0  0  0  0
  -10.4120    1.3490  -25.0052 H   0  0  0  0  0  0  0  0  0  0  0  0
  1  2  1  0
  2  3  1  0
  3  4  2  0
  4  5  1  0
  5  6  2  0
  6  7  1  0
  7  8  2  0
  8  9  1  0
  9 10  1  0
 10 11  1  0
 11 12  1  0
 12 13  1  0
 12 14  1  0
 12 15  1  0
 11 16  1  0
 16 17  1  0
 17 18  1  0
 18 19  1  0
 19 20  2  0
 19 21  1  0
 21 22  1  0
 22 23  2  0
 23 24  1  0
 24 25  2  0
 25 26  1  0
 26 27  2  0
 27 28  1  0
 28 29  2  0
 29 30  1  0
 30 31  2  0
 30 32  1  0
 29 33  1  0
 28 34  1  0
 27 35  1  0
 25 36  1  0
 23 37  1  0
 21 38  1  0
 21 39  1  0
 17 40  1  0
 17 41  1  0
 16 42  1  0
 16 43  1  0
 11 44  1  6
 10 45  1  0
 10 46  1  0
  9 47  1  1
  7 48  1  0
  6 49  1  0
  5 50  1  0
  4 51  1  0
  1 52  1  0
  1 53  1  0
  1 54  1  0
  8  3  1  0
 18  9  1  0
 31 22  1  0
 31 26  1  0
M  END
>  <cnnaffinities>  (80) 
[5.40018, 5.32428]

>  <score>  (80) 
5.40018

>  <index>  (80) 
82

>  <Smiles>  (80) 
C(Oc1c(c(c(c(c1[C@]1(C([C@@](C([H])([H])[H])(C(C(N1C(=O)C(c1c(nc(c2c(c(c(c(c12)[H])[H])[H])[H])[H])[H])([H])[H])([H])[H])([H])[H])[H])([H])[H])[H])[H])[H])[H])[H])([H])([H])[H]

>  <h>  (80) 
<NA>

>  <Training>  (80) 
True

>  <Success>  (80) 
True

>  <enamine_searched>  (80) 
False

>  <enamine_id>  (80) 
nan

$$$$

     RDKit          3D

 46 50  0  0  0  0  0  0  0  0999 V2000
   -9.9873    2.8215  -24.9741 N   0  0  0  0  0  0  0  0  0  0  0  0
   -9.3767    1.7007  -26.0448 S   0  0  0  0  0  0  0  0  0  0  0  0
  -10.0165    1.9696  -27.3211 O   0  0  0  0  0  0  0  0  0  0  0  0
   -7.9379    1.7240  -25.8611 O   0  0  0  0  0  0  0  0  0  0  0  0
   -9.9798    0.1361  -25.4463 C   0  0  0  0  0  0  0  0  0  0  0  0
  -11.1392   -0.4406  -25.9651 C   0  0  0  0  0  0  0  0  0  0  0  0
  -11.7112   -1.5152  -25.2990 C   0  0  0  0  0  0  0  0  0  0  0  0
  -11.1323   -2.0125  -24.1324 C   0  0  0  0  0  0  0  0  0  0  0  0
   -9.9013   -1.5078  -23.6845 C   0  0  0  0  0  0  0  0  0  0  0  0
   -9.3360   -0.4214  -24.3494 C   0  0  0  0  0  0  0  0  0  0  0  0
   -8.3986    0.0086  -24.0032 H   0  0  0  0  0  0  0  0  0  0  0  0
   -9.2021   -2.1149  -22.4843 C   0  0  1  0  0  0  0  0  0  0  0  0
  -10.2140   -2.9617  -21.7006 C   0  0  0  0  0  0  0  0  0  0  0  0
  -11.0416   -3.8065  -22.6345 C   0  0  0  0  0  0  0  0  0  0  0  0
  -11.8271   -2.9804  -23.4733 O   0  0  0  0  0  0  0  0  0  0  0  0
  -10.4100   -4.4625  -23.2558 H   0  0  0  0  0  0  0  0  0  0  0  0
  -11.7642   -4.3941  -22.0722 H   0  0  0  0  0  0  0  0  0  0  0  0
  -10.8784   -2.2586  -21.1872 H   0  0  0  0  0  0  0  0  0  0  0  0
   -9.6916   -3.5705  -20.9605 H   0  0  0  0  0  0  0  0  0  0  0  0
   -7.9744   -2.8290  -22.8133 N   0  0  0  0  0  0  0  0  0  0  0  0
   -6.9034   -2.4950  -22.0258 C   0  0  0  0  0  0  0  0  0  0  0  0
   -5.8067   -2.9896  -21.9827 O   0  0  0  0  0  0  0  0  0  0  0  0
   -7.3409   -1.4001  -21.2456 N   0  0  0  0  0  0  0  0  0  0  0  0
   -6.5878   -0.8111  -20.1925 C   0  0  0  0  0  0  0  0  0  0  0  0
   -6.9008   -1.0863  -18.8878 C   0  0  0  0  0  0  0  0  0  0  0  0
   -6.2122   -0.6087  -17.8188 N   0  0  0  0  0  0  0  0  0  0  0  0
   -5.1904    0.1798  -18.0563 C   0  0  0  0  0  0  0  0  0  0  0  0
   -4.7806    0.5785  -19.3634 C   0  0  0  0  0  0  0  0  0  0  0  0
   -3.7092    1.4891  -19.5795 C   0  0  0  0  0  0  0  0  0  0  0  0
   -3.4636    1.9745  -20.8353 C   0  0  0  0  0  0  0  0  0  0  0  0
   -4.2482    1.5523  -21.9330 C   0  0  0  0  0  0  0  0  0  0  0  0
   -5.2385    0.6190  -21.7576 C   0  0  0  0  0  0  0  0  0  0  0  0
   -5.5251    0.1037  -20.4665 C   0  0  0  0  0  0  0  0  0  0  0  0
   -5.8311    0.2830  -22.6013 H   0  0  0  0  0  0  0  0  0  0  0  0
   -4.0607    1.9586  -22.9230 H   0  0  0  0  0  0  0  0  0  0  0  0
   -2.6768    2.7066  -20.9966 H   0  0  0  0  0  0  0  0  0  0  0  0
   -3.1221    1.8175  -18.7235 H   0  0  0  0  0  0  0  0  0  0  0  0
   -4.6437    0.5678  -17.1933 H   0  0  0  0  0  0  0  0  0  0  0  0
   -7.7517   -1.7259  -18.6647 H   0  0  0  0  0  0  0  0  0  0  0  0
   -8.6661   -1.0716  -21.5036 C   0  0  0  0  0  0  0  0  0  0  0  0
   -9.2703   -0.1557  -21.0048 O   0  0  0  0  0  0  0  0  0  0  0  0
   -7.9199   -3.6117  -23.4458 H   0  0  0  0  0  0  0  0  0  0  0  0
  -12.6195   -1.9888  -25.6523 H   0  0  0  0  0  0  0  0  0  0  0  0
  -11.5849   -0.0370  -26.8711 H   0  0  0  0  0  0  0  0  0  0  0  0
  -11.0028    2.8522  -24.9794 H   0  0  0  0  0  0  0  0  0  0  0  0
   -9.6007    2.6869  -24.0434 H   0  0  0  0  0  0  0  0  0  0  0  0
  1  2  1  0
  2  3  2  0
  2  4  2  0
  2  5  1  0
  5  6  2  0
  6  7  1  0
  7  8  2  0
  8  9  1  0
  9 10  2  0
 10 11  1  0
  9 12  1  0
 12 13  1  0
 13 14  1  0
 14 15  1  0
 14 16  1  0
 14 17  1  0
 13 18  1  0
 13 19  1  0
 12 20  1  6
 20 21  1  0
 21 22  2  0
 21 23  1  0
 23 24  1  0
 24 25  2  0
 25 26  1  0
 26 27  2  0
 27 28  1  0
 28 29  2  0
 29 30  1  0
 30 31  2  0
 31 32  1  0
 32 33  2  0
 32 34  1  0
 31 35  1  0
 30 36  1  0
 29 37  1  0
 27 38  1  0
 25 39  1  0
 23 40  1  0
 40 41  2  0
 20 42  1  0
  7 43  1  0
  6 44  1  0
  1 45  1  0
  1 46  1  0
 10  5  1  0
 40 12  1  0
 15  8  1  0
 33 24  1  0
 33 28  1  0
M  END
>  <cnnaffinities>  (81) 
[5.47396, 5.47671, 5.11974, 5.34098, 5.11485, 5.31479]

>  <score>  (81) 
5.47396

>  <index>  (81) 
83

>  <Smiles>  (81) 
N(S(=O)(=O)c1c(c(c2c(c1[H])[C@@]1(C(C(O2)([H])[H])([H])[H])N(C(=O)N(c2c(nc(c3c(c(c(c(c23)[H])[H])[H])[H])[H])[H])C1=O)[H])[H])[H])([H])[H]

>  <h>  (81) 
<NA>

>  <Training>  (81) 
True

>  <Success>  (81) 
True

>  <enamine_searched>  (81) 
False

>  <enamine_id>  (81) 
nan

$$$$

     RDKit          3D

 63 68  0  0  0  0  0  0  0  0999 V2000
   -8.2930   -4.1782  -23.4896 C   0  0  0  0  0  0  0  0  0  0  0  0
   -8.5335   -3.0053  -22.5488 C   0  0  1  0  0  0  0  0  0  0  0  0
   -7.3843   -2.7805  -21.5567 C   0  0  0  0  0  0  0  0  0  0  0  0
   -7.4714   -1.3662  -21.2411 N   0  0  0  0  0  0  0  0  0  0  0  0
   -6.7013   -0.7621  -20.2141 C   0  0  0  0  0  0  0  0  0  0  0  0
   -6.9315   -1.1230  -18.9092 C   0  0  0  0  0  0  0  0  0  0  0  0
   -6.2300   -0.6728  -17.8412 N   0  0  0  0  0  0  0  0  0  0  0  0
   -5.2430    0.1575  -18.0788 C   0  0  0  0  0  0  0  0  0  0  0  0
   -4.8842    0.6103  -19.3807 C   0  0  0  0  0  0  0  0  0  0  0  0
   -3.7998    1.5083  -19.5748 C   0  0  0  0  0  0  0  0  0  0  0  0
   -3.4925    1.9661  -20.8265 C   0  0  0  0  0  0  0  0  0  0  0  0
   -4.2564    1.5439  -21.9395 C   0  0  0  0  0  0  0  0  0  0  0  0
   -5.2869    0.6519  -21.7818 C   0  0  0  0  0  0  0  0  0  0  0  0
   -5.6384    0.1624  -20.4907 C   0  0  0  0  0  0  0  0  0  0  0  0
   -5.8523    0.3279  -22.6503 H   0  0  0  0  0  0  0  0  0  0  0  0
   -4.0050    1.9057  -22.9314 H   0  0  0  0  0  0  0  0  0  0  0  0
   -2.6682    2.6594  -20.9744 H   0  0  0  0  0  0  0  0  0  0  0  0
   -3.2347    1.8310  -18.7042 H   0  0  0  0  0  0  0  0  0  0  0  0
   -4.6692    0.5132  -17.2211 H   0  0  0  0  0  0  0  0  0  0  0  0
   -7.7431   -1.8102  -18.6759 H   0  0  0  0  0  0  0  0  0  0  0  0
   -8.2591   -0.6547  -22.1203 C   0  0  0  0  0  0  0  0  0  0  0  0
   -8.4481    0.5428  -22.0481 O   0  0  0  0  0  0  0  0  0  0  0  0
   -8.7952   -1.6078  -23.2112 C   0  0  1  0  0  0  0  0  0  0  0  0
   -7.9755   -1.3137  -24.4938 C   0  0  0  0  0  0  0  0  0  0  0  0
   -8.5854   -1.8089  -25.7239 N   0  0  0  0  0  0  0  0  0  0  0  0
   -7.7388   -2.1625  -26.8526 C   0  0  0  0  0  0  0  0  0  0  0  0
   -7.6865   -3.6790  -27.0568 C   0  0  0  0  0  0  0  0  0  0  0  0
   -6.8997   -4.3773  -26.4341 O   0  0  0  0  0  0  0  0  0  0  0  0
   -8.5802   -4.1628  -27.9604 N   0  0  0  0  0  0  0  0  0  0  0  0
   -8.5420   -5.5556  -28.3675 C   0  0  0  0  0  0  0  0  0  0  0  0
   -7.4911   -5.8453  -29.3447 C   0  0  0  0  0  0  0  0  0  0  0  0
   -6.3093   -5.1652  -29.2811 F   0  0  0  0  0  0  0  0  0  0  0  0
   -7.5970   -6.9176  -30.3404 C   0  0  0  0  0  0  0  0  0  0  0  0
   -7.4133   -6.7632  -30.3350 C   0  0  0  0  0  0  0  0  0  0  0  0
   -6.5845   -7.7032  -30.0477 H   0  0  0  0  0  0  0  0  0  0  0  0
   -8.9213   -7.8004  -29.9129 H   0  0  0  0  0  0  0  0  0  0  0  0
   -6.6499   -6.2169  -31.1553 H   0  0  0  0  0  0  0  0  0  0  0  0
   -7.7922   -6.5608  -31.6010 H   0  0  0  0  0  0  0  0  0  0  0  0
   -8.3366   -6.1147  -27.4447 H   0  0  0  0  0  0  0  0  0  0  0  0
   -9.5463   -5.8569  -28.7333 H   0  0  0  0  0  0  0  0  0  0  0  0
   -9.3029   -3.5472  -28.3002 H   0  0  0  0  0  0  0  0  0  0  0  0
   -8.1199   -1.6788  -27.7554 H   0  0  0  0  0  0  0  0  0  0  0  0
   -6.7275   -1.8029  -26.6550 H   0  0  0  0  0  0  0  0  0  0  0  0
   -9.9262   -1.7852  -25.9599 C   0  0  0  0  0  0  0  0  0  0  0  0
  -10.3910   -2.0423  -27.0715 O   0  0  0  0  0  0  0  0  0  0  0  0
  -10.7914   -1.4650  -24.7947 C   0  0  0  0  0  0  0  0  0  0  0  0
  -12.1570   -1.3144  -25.0295 C   0  0  0  0  0  0  0  0  0  0  0  0
  -13.0202   -1.0521  -23.9859 C   0  0  0  0  0  0  0  0  0  0  0  0
  -12.4901   -0.9771  -22.7046 C   0  0  0  0  0  0  0  0  0  0  0  0
  -13.3414   -0.7559  -21.6949 F   0  0  0  0  0  0  0  0  0  0  0  0
  -11.1427   -1.1356  -22.4434 C   0  0  0  0  0  0  0  0  0  0  0  0
  -10.2623   -1.3704  -23.5032 C   0  0  0  0  0  0  0  0  0  0  0  0
  -10.7706   -1.0753  -21.4278 H   0  0  0  0  0  0  0  0  0  0  0  0
  -14.0872   -0.9197  -24.1243 H   0  0  0  0  0  0  0  0  0  0  0  0
  -12.5109   -1.4171  -26.0495 H   0  0  0  0  0  0  0  0  0  0  0  0
   -6.9858   -1.7798  -24.4106 H   0  0  0  0  0  0  0  0  0  0  0  0
   -7.8451   -0.2219  -24.5494 H   0  0  0  0  0  0  0  0  0  0  0  0
   -6.4079   -3.0245  -22.0010 H   0  0  0  0  0  0  0  0  0  0  0  0
   -7.4914   -3.3873  -20.6516 H   0  0  0  0  0  0  0  0  0  0  0  0
   -9.4360   -3.2155  -21.9570 H   0  0  0  0  0  0  0  0  0  0  0  0
   -9.1178   -4.2952  -24.1967 H   0  0  0  0  0  0  0  0  0  0  0  0
   -7.3801   -4.0528  -24.0791 H   0  0  0  0  0  0  0  0  0  0  0  0
   -8.2027   -5.1105  -22.9232 H   0  0  0  0  0  0  0  0  0  0  0  0
  1  2  1  0
  2  3  1  0
  3  4  1  0
  4  5  1  0
  5  6  2  0
  6  7  1  0
  7  8  2  0
  8  9  1  0
  9 10  2  0
 10 11  1  0
 11 12  2  0
 12 13  1  0
 13 14  2  0
 13 15  1  0
 12 16  1  0
 11 17  1  0
 10 18  1  0
  8 19  1  0
  6 20  1  0
  4 21  1  0
 21 22  2  0
 21 23  1  0
 23 24  1  6
 24 25  1  0
 25 26  1  0
 26 27  1  0
 27 28  2  0
 27 29  1  0
 29 30  1  0
 30 31  1  0
 31 32  1  0
 31 33  1  0
 33 34  1  0
 34 35  1  0
 34 36  1  0
 33 37  1  0
 33 38  1  0
 30 39  1  0
 30 40  1  0
 29 41  1  0
 26 42  1  0
 26 43  1  0
 25 44  1  0
 44 45  2  0
 44 46  1  0
 46 47  2  0
 47 48  1  0
 48 49  2  0
 49 50  1  0
 49 51  1  0
 51 52  2  0
 51 53  1  0
 48 54  1  0
 47 55  1  0
 24 56  1  0
 24 57  1  0
  3 58  1  0
  3 59  1  0
  2 60  1  1
  1 61  1  0
  1 62  1  0
  1 63  1  0
 23  2  1  0
 34 31  1  0
 52 46  1  0
 14  5  1  0
 52 23  1  0
 14  9  1  0
M  END
>  <cnnaffinities>  (82) 
[5.65871]

>  <score>  (82) 
5.65871

>  <index>  (82) 
84

>  <Smiles>  (82) 
C([C@]1(C(N(c2c(nc(c3c(c(c(c(c23)[H])[H])[H])[H])[H])[H])C(=O)[C@]21C(N(C(C(=O)N(C(C1(F)C(C1([H])[H])([H])[H])([H])[H])[H])([H])[H])C(=O)c1c(c(c(F)c(c21)[H])[H])[H])([H])[H])([H])[H])[H])([H])([H])[H]

>  <h>  (82) 
<NA>

>  <Training>  (82) 
True

>  <Success>  (82) 
True

>  <enamine_searched>  (82) 
False

>  <enamine_id>  (82) 
nan

$$$$

     RDKit          3D

 57 62  0  0  0  0  0  0  0  0999 V2000
   -9.1787    1.0511  -29.3101 C   0  0  0  0  0  0  0  0  0  0  0  0
   -9.1261    1.3761  -27.9001 N   0  0  0  0  0  0  0  0  0  0  0  0
   -8.2510    0.6962  -27.1116 C   0  0  0  0  0  0  0  0  0  0  0  0
   -7.5086   -0.1801  -27.5281 O   0  0  0  0  0  0  0  0  0  0  0  0
   -8.2853    1.1115  -25.6406 C   0  0  0  0  0  0  0  0  0  0  0  0
   -9.1414    0.2351  -24.8730 N   0  0  0  0  0  0  0  0  0  0  0  0
   -8.6492   -1.0797  -24.5216 C   0  0  0  0  0  0  0  0  0  0  0  0
   -8.9488   -1.4390  -23.0503 C   0  0  2  0  0  0  0  0  0  0  0  0
   -8.1599   -0.5362  -22.0794 C   0  0  0  0  0  0  0  0  0  0  0  0
   -8.1556    0.6721  -22.0600 O   0  0  0  0  0  0  0  0  0  0  0  0
   -7.4189   -1.3227  -21.2130 N   0  0  0  0  0  0  0  0  0  0  0  0
   -6.6325   -0.7825  -20.1726 C   0  0  0  0  0  0  0  0  0  0  0  0
   -6.9039   -1.0869  -18.8610 C   0  0  0  0  0  0  0  0  0  0  0  0
   -6.2066   -0.6074  -17.8013 N   0  0  0  0  0  0  0  0  0  0  0  0
   -5.2001    0.1953  -18.0584 C   0  0  0  0  0  0  0  0  0  0  0  0
   -4.7961    0.5700  -19.3730 C   0  0  0  0  0  0  0  0  0  0  0  0
   -3.6786    1.4163  -19.6026 C   0  0  0  0  0  0  0  0  0  0  0  0
   -3.3842    1.8536  -20.8655 C   0  0  0  0  0  0  0  0  0  0  0  0
   -4.1650    1.4246  -21.9627 C   0  0  0  0  0  0  0  0  0  0  0  0
   -5.1490    0.4869  -21.7856 C   0  0  0  0  0  0  0  0  0  0  0  0
   -5.5326    0.0823  -20.4723 C   0  0  0  0  0  0  0  0  0  0  0  0
   -5.6565    0.0705  -22.6506 H   0  0  0  0  0  0  0  0  0  0  0  0
   -3.9632    1.8190  -22.9543 H   0  0  0  0  0  0  0  0  0  0  0  0
   -2.5542    2.5353  -21.0350 H   0  0  0  0  0  0  0  0  0  0  0  0
   -3.0851    1.7268  -18.7474 H   0  0  0  0  0  0  0  0  0  0  0  0
   -4.6351    0.5784  -17.2073 H   0  0  0  0  0  0  0  0  0  0  0  0
   -7.7545   -1.7239  -18.6181 H   0  0  0  0  0  0  0  0  0  0  0  0
   -7.6133   -2.7371  -21.3946 C   0  0  0  0  0  0  0  0  0  0  0  0
   -8.4253   -2.8262  -22.6736 C   0  0  0  0  0  0  0  0  0  0  0  0
   -9.2722   -4.0349  -22.8330 C   0  0  0  0  0  0  0  0  0  0  0  0
   -8.0377   -3.8916  -23.6693 C   0  0  0  0  0  0  0  0  0  0  0  0
   -7.1822   -4.5312  -23.4486 H   0  0  0  0  0  0  0  0  0  0  0  0
   -8.1517   -3.6551  -24.7231 H   0  0  0  0  0  0  0  0  0  0  0  0
   -9.2242   -4.6864  -21.9744 H   0  0  0  0  0  0  0  0  0  0  0  0
  -10.2486   -3.9282  -23.2945 H   0  0  0  0  0  0  0  0  0  0  0  0
   -6.6548   -3.2639  -21.4700 H   0  0  0  0  0  0  0  0  0  0  0  0
   -8.1760   -3.1817  -20.5651 H   0  0  0  0  0  0  0  0  0  0  0  0
  -10.4518   -1.2129  -22.8757 C   0  0  0  0  0  0  0  0  0  0  0  0
  -11.1920   -1.9682  -21.9641 C   0  0  0  0  0  0  0  0  0  0  0  0
  -12.5671   -1.8097  -21.8990 C   0  0  0  0  0  0  0  0  0  0  0  0
  -13.4787   -2.9814  -20.9862 Cl  0  0  0  0  0  0  0  0  0  0  0  0
  -13.2290   -0.7584  -22.5334 C   0  0  0  0  0  0  0  0  0  0  0  0
  -12.4804    0.0464  -23.3721 C   0  0  0  0  0  0  0  0  0  0  0  0
  -11.1369   -0.2295  -23.6095 C   0  0  0  0  0  0  0  0  0  0  0  0
  -10.4386    0.5883  -24.6503 C   0  0  0  0  0  0  0  0  0  0  0  0
  -10.9692    1.5236  -25.2453 O   0  0  0  0  0  0  0  0  0  0  0  0
  -12.9169    0.8929  -23.8855 H   0  0  0  0  0  0  0  0  0  0  0  0
  -14.2966   -0.6103  -22.3875 H   0  0  0  0  0  0  0  0  0  0  0  0
  -10.7166   -2.7291  -21.3533 H   0  0  0  0  0  0  0  0  0  0  0  0
   -7.5775   -1.1227  -24.7221 H   0  0  0  0  0  0  0  0  0  0  0  0
   -9.1349   -1.8317  -25.1560 H   0  0  0  0  0  0  0  0  0  0  0  0
   -8.6621    2.1330  -25.5354 H   0  0  0  0  0  0  0  0  0  0  0  0
   -7.2694    1.0397  -25.2302 H   0  0  0  0  0  0  0  0  0  0  0  0
   -9.8931    1.8704  -27.4609 H   0  0  0  0  0  0  0  0  0  0  0  0
   -9.5449    0.0311  -29.4757 H   0  0  0  0  0  0  0  0  0  0  0  0
   -9.8179    1.7595  -29.8367 H   0  0  0  0  0  0  0  0  0  0  0  0
   -8.1718    1.1270  -29.7279 H   0  0  0  0  0  0  0  0  0  0  0  0
  1  2  1  0
  2  3  1  0
  3  4  2  0
  3  5  1  0
  5  6  1  0
  6  7  1  0
  8  7  1  6
  8  9  1  0
  9 10  2  0
  9 11  1  0
 11 12  1  0
 12 13  2  0
 13 14  1  0
 14 15  2  0
 15 16  1  0
 16 17  2  0
 17 18  1  0
 18 19  2  0
 19 20  1  0
 20 21  2  0
 20 22  1  0
 19 23  1  0
 18 24  1  0
 17 25  1  0
 15 26  1  0
 13 27  1  0
 11 28  1  0
 28 29  1  0
 29 30  1  0
 30 31  1  0
 31 32  1  0
 31 33  1  0
 30 34  1  0
 30 35  1  0
 28 36  1  0
 28 37  1  0
  8 38  1  0
 38 39  2  0
 39 40  1  0
 40 41  1  0
 40 42  2  0
 42 43  1  0
 43 44  2  0
 44 45  1  0
 45 46  2  0
 43 47  1  0
 42 48  1  0
 39 49  1  0
  7 50  1  0
  7 51  1  0
  5 52  1  0
  5 53  1  0
  2 54  1  0
  1 55  1  0
  1 56  1  0
  1 57  1  0
 45  6  1  0
 29  8  1  0
 44 38  1  0
 21 12  1  0
 31 29  1  0
 21 16  1  0
M  END
>  <cnnaffinities>  (83) 
[5.45397]

>  <score>  (83) 
5.45397

>  <index>  (83) 
85

>  <Smiles>  (83) 
C(N(C(=O)C(N1C([C@@]2(C(=O)N(c3c(nc(c4c(c(c(c(c34)[H])[H])[H])[H])[H])[H])C(C32C(C3([H])[H])([H])[H])([H])[H])c2c(c(Cl)c(c(c2C1=O)[H])[H])[H])([H])[H])([H])[H])[H])([H])([H])[H]

>  <h>  (83) 
<NA>

>  <Training>  (83) 
True

>  <Success>  (83) 
True

>  <enamine_searched>  (83) 
False

>  <enamine_id>  (83) 
nan

$$$$

     RDKit          3D

 43 45  0  0  0  0  0  0  0  0999 V2000
  -12.9851   -1.8148  -24.0396 C   0  0  0  0  0  0  0  0  0  0  0  0
  -11.6381   -1.2561  -24.5130 C   0  0  1  0  0  0  0  0  0  0  0  0
  -11.3093    0.1022  -23.8811 C   0  0  0  0  0  0  0  0  0  0  0  0
  -10.8332   -0.0903  -22.4522 C   0  0  0  0  0  0  0  0  0  0  0  0
   -9.6549   -0.9361  -22.3782 N   0  0  0  0  0  0  0  0  0  0  0  0
   -8.5502   -0.4196  -21.7467 C   0  0  0  0  0  0  0  0  0  0  0  0
   -8.4384    0.7728  -21.5248 O   0  0  0  0  0  0  0  0  0  0  0  0
   -7.4764   -1.4033  -21.2673 C   0  0  0  0  0  0  0  0  0  0  0  0
   -6.6290   -0.8074  -20.1742 C   0  0  0  0  0  0  0  0  0  0  0  0
   -6.9099   -1.0648  -18.8575 C   0  0  0  0  0  0  0  0  0  0  0  0
   -6.2126   -0.5911  -17.7883 N   0  0  0  0  0  0  0  0  0  0  0  0
   -5.2077    0.2122  -18.0500 C   0  0  0  0  0  0  0  0  0  0  0  0
   -4.8137    0.5858  -19.3648 C   0  0  0  0  0  0  0  0  0  0  0  0
   -3.6804    1.4095  -19.6050 C   0  0  0  0  0  0  0  0  0  0  0  0
   -3.3961    1.8496  -20.8685 C   0  0  0  0  0  0  0  0  0  0  0  0
   -4.2030    1.4405  -21.9542 C   0  0  0  0  0  0  0  0  0  0  0  0
   -5.2069    0.5177  -21.7706 C   0  0  0  0  0  0  0  0  0  0  0  0
   -5.5496    0.0802  -20.4608 C   0  0  0  0  0  0  0  0  0  0  0  0
   -5.7681    0.1438  -22.6201 H   0  0  0  0  0  0  0  0  0  0  0  0
   -4.0126    1.8442  -22.9499 H   0  0  0  0  0  0  0  0  0  0  0  0
   -2.5518    2.5172  -21.0453 H   0  0  0  0  0  0  0  0  0  0  0  0
   -3.0845    1.7198  -18.7505 H   0  0  0  0  0  0  0  0  0  0  0  0
   -4.6302    0.5898  -17.2009 H   0  0  0  0  0  0  0  0  0  0  0  0
   -7.7495   -1.7075  -18.5880 H   0  0  0  0  0  0  0  0  0  0  0  0
   -7.9908   -2.2947  -20.8879 H   0  0  0  0  0  0  0  0  0  0  0  0
   -6.8787   -1.7373  -22.1268 H   0  0  0  0  0  0  0  0  0  0  0  0
   -9.8383   -2.2911  -22.9002 C   0  0  1  0  0  0  0  0  0  0  0  0
  -10.6313   -3.2073  -21.9661 C   0  0  0  0  0  0  0  0  0  0  0  0
  -10.8396   -4.1573  -22.4672 H   0  0  0  0  0  0  0  0  0  0  0  0
  -10.0743   -3.4213  -21.0485 H   0  0  0  0  0  0  0  0  0  0  0  0
  -11.5919   -2.7811  -21.6688 H   0  0  0  0  0  0  0  0  0  0  0  0
  -10.4444   -2.2114  -24.3160 C   0  0  0  0  0  0  0  0  0  0  0  0
   -9.6415   -1.8778  -24.9808 H   0  0  0  0  0  0  0  0  0  0  0  0
  -10.7255   -3.2244  -24.6312 H   0  0  0  0  0  0  0  0  0  0  0  0
   -8.8422   -2.7385  -23.0090 H   0  0  0  0  0  0  0  0  0  0  0  0
  -11.6458   -0.5785  -21.9027 H   0  0  0  0  0  0  0  0  0  0  0  0
  -10.5849    0.8457  -21.9523 H   0  0  0  0  0  0  0  0  0  0  0  0
  -12.1870    0.7596  -23.8744 H   0  0  0  0  0  0  0  0  0  0  0  0
  -10.5457    0.6200  -24.4686 H   0  0  0  0  0  0  0  0  0  0  0  0
  -11.7431   -1.1171  -25.5980 H   0  0  0  0  0  0  0  0  0  0  0  0
  -13.0707   -1.9035  -22.9533 H   0  0  0  0  0  0  0  0  0  0  0  0
  -13.8151   -1.1755  -24.3645 H   0  0  0  0  0  0  0  0  0  0  0  0
  -13.1562   -2.8107  -24.4585 H   0  0  0  0  0  0  0  0  0  0  0  0
  1  2  1  0
  2  3  1  0
  3  4  1  0
  4  5  1  0
  5  6  1  0
  6  7  2  0
  6  8  1  0
  8  9  1  0
  9 10  2  0
 10 11  1  0
 11 12  2  0
 12 13  1  0
 13 14  2  0
 14 15  1  0
 15 16  2  0
 16 17  1  0
 17 18  2  0
 17 19  1  0
 16 20  1  0
 15 21  1  0
 14 22  1  0
 12 23  1  0
 10 24  1  0
  8 25  1  0
  8 26  1  0
  5 27  1  0
 27 28  1  0
 28 29  1  0
 28 30  1  0
 28 31  1  0
 27 32  1  0
 32 33  1  0
 32 34  1  0
 27 35  1  6
  4 36  1  0
  4 37  1  0
  3 38  1  0
  3 39  1  0
  2 40  1  6
  1 41  1  0
  1 42  1  0
  1 43  1  0
 32  2  1  0
 18  9  1  0
 18 13  1  0
M  END
>  <cnnaffinities>  (84) 
[4.60996, 4.92923, 4.845, 4.72079]

>  <score>  (84) 
4.60996

>  <index>  (84) 
86

>  <Smiles>  (84) 
C([C@]1(C(C(N(C(=O)C(c2c(nc(c3c(c(c(c(c23)[H])[H])[H])[H])[H])[H])([H])[H])[C@@](C([H])([H])[H])(C1([H])[H])[H])([H])[H])([H])[H])[H])([H])([H])[H]

>  <h>  (84) 
<NA>

>  <Training>  (84) 
True

>  <Success>  (84) 
True

>  <enamine_searched>  (84) 
False

>  <enamine_id>  (84) 
nan

$$$$

     RDKit          3D

 59 64  0  0  0  0  0  0  0  0999 V2000
   -8.2665   -4.1261  -23.4871 C   0  0  0  0  0  0  0  0  0  0  0  0
   -8.5160   -2.9792  -22.5251 C   0  0  1  0  0  0  0  0  0  0  0  0
   -7.3812   -2.7905  -21.5115 C   0  0  0  0  0  0  0  0  0  0  0  0
   -7.4464   -1.3747  -21.1958 N   0  0  0  0  0  0  0  0  0  0  0  0
   -6.6626   -0.7811  -20.1799 C   0  0  0  0  0  0  0  0  0  0  0  0
   -6.9168   -1.0959  -18.8695 C   0  0  0  0  0  0  0  0  0  0  0  0
   -6.2272   -0.6106  -17.8112 N   0  0  0  0  0  0  0  0  0  0  0  0
   -5.2142    0.1798  -18.0734 C   0  0  0  0  0  0  0  0  0  0  0  0
   -4.8312    0.5768  -19.3860 C   0  0  0  0  0  0  0  0  0  0  0  0
   -3.7199    1.4351  -19.6030 C   0  0  0  0  0  0  0  0  0  0  0  0
   -3.4335    1.8924  -20.8588 C   0  0  0  0  0  0  0  0  0  0  0  0
   -4.2164    1.4794  -21.9612 C   0  0  0  0  0  0  0  0  0  0  0  0
   -5.2230    0.5633  -21.7937 C   0  0  0  0  0  0  0  0  0  0  0  0
   -5.5865    0.1129  -20.4872 C   0  0  0  0  0  0  0  0  0  0  0  0
   -5.7742    0.2219  -22.6660 H   0  0  0  0  0  0  0  0  0  0  0  0
   -4.0122    1.8950  -22.9431 H   0  0  0  0  0  0  0  0  0  0  0  0
   -2.6385    2.6164  -21.0101 H   0  0  0  0  0  0  0  0  0  0  0  0
   -3.1173    1.7218  -18.7425 H   0  0  0  0  0  0  0  0  0  0  0  0
   -4.6460    0.5590  -17.2244 H   0  0  0  0  0  0  0  0  0  0  0  0
   -7.7464   -1.7614  -18.6365 H   0  0  0  0  0  0  0  0  0  0  0  0
   -8.1723   -0.6317  -22.1033 C   0  0  0  0  0  0  0  0  0  0  0  0
   -8.2962    0.5738  -22.0592 O   0  0  0  0  0  0  0  0  0  0  0  0
   -8.7349   -1.5693  -23.1874 C   0  0  1  0  0  0  0  0  0  0  0  0
   -7.9292   -1.2712  -24.4791 C   0  0  0  0  0  0  0  0  0  0  0  0
   -8.5301   -1.8434  -25.6837 N   0  0  0  0  0  0  0  0  0  0  0  0
   -7.6531   -2.0088  -26.8352 C   0  0  0  0  0  0  0  0  0  0  0  0
   -6.7932   -3.2248  -26.7165 C   0  0  0  0  0  0  0  0  0  0  0  0
   -5.4959   -3.3933  -26.2737 C   0  0  0  0  0  0  0  0  0  0  0  0
   -5.2663   -4.7805  -26.3627 C   0  0  0  0  0  0  0  0  0  0  0  0
   -6.3303   -5.4237  -26.8210 N   0  0  0  0  0  0  0  0  0  0  0  0
   -7.2539   -4.4691  -27.0363 N   0  0  0  0  0  0  0  0  0  0  0  0
   -8.5730   -4.8807  -27.4980 C   0  0  0  0  0  0  0  0  0  0  0  0
   -8.8539   -4.3652  -28.4253 H   0  0  0  0  0  0  0  0  0  0  0  0
   -8.5005   -5.9549  -27.6889 H   0  0  0  0  0  0  0  0  0  0  0  0
   -9.3417   -4.7078  -26.7325 H   0  0  0  0  0  0  0  0  0  0  0  0
   -4.3755   -5.3444  -26.1061 H   0  0  0  0  0  0  0  0  0  0  0  0
   -4.8045   -2.6274  -25.9336 H   0  0  0  0  0  0  0  0  0  0  0  0
   -8.2954   -2.0929  -27.7122 H   0  0  0  0  0  0  0  0  0  0  0  0
   -7.0436   -1.1058  -26.9634 H   0  0  0  0  0  0  0  0  0  0  0  0
   -9.8772   -1.7874  -25.9264 C   0  0  0  0  0  0  0  0  0  0  0  0
  -10.3676   -2.0299  -27.0258 O   0  0  0  0  0  0  0  0  0  0  0  0
  -10.7340   -1.4362  -24.7651 C   0  0  0  0  0  0  0  0  0  0  0  0
  -12.1001   -1.2814  -24.9960 C   0  0  0  0  0  0  0  0  0  0  0  0
  -12.9618   -0.9801  -23.9619 C   0  0  0  0  0  0  0  0  0  0  0  0
  -12.4192   -0.8635  -22.6878 C   0  0  0  0  0  0  0  0  0  0  0  0
  -13.2587   -0.6183  -21.6768 F   0  0  0  0  0  0  0  0  0  0  0  0
  -11.0703   -1.0205  -22.4291 C   0  0  0  0  0  0  0  0  0  0  0  0
  -10.1979   -1.3035  -23.4814 C   0  0  0  0  0  0  0  0  0  0  0  0
  -10.6829   -0.9343  -21.4219 H   0  0  0  0  0  0  0  0  0  0  0  0
  -14.0283   -0.8436  -24.1177 H   0  0  0  0  0  0  0  0  0  0  0  0
  -12.4590   -1.4168  -26.0097 H   0  0  0  0  0  0  0  0  0  0  0  0
   -6.8998   -1.6405  -24.3796 H   0  0  0  0  0  0  0  0  0  0  0  0
   -7.8643   -0.1750  -24.5757 H   0  0  0  0  0  0  0  0  0  0  0  0
   -6.4012   -3.0600  -21.9363 H   0  0  0  0  0  0  0  0  0  0  0  0
   -7.5254   -3.3943  -20.6098 H   0  0  0  0  0  0  0  0  0  0  0  0
   -9.4313   -3.1769  -21.9453 H   0  0  0  0  0  0  0  0  0  0  0  0
   -7.3153   -3.9672  -24.0010 H   0  0  0  0  0  0  0  0  0  0  0  0
   -8.2143   -5.0727  -22.9422 H   0  0  0  0  0  0  0  0  0  0  0  0
   -9.0667   -4.1827  -24.2304 H   0  0  0  0  0  0  0  0  0  0  0  0
  1  2  1  0
  2  3  1  0
  3  4  1  0
  4  5  1  0
  5  6  2  0
  6  7  1  0
  7  8  2  0
  8  9  1  0
  9 10  2  0
 10 11  1  0
 11 12  2  0
 12 13  1  0
 13 14  2  0
 13 15  1  0
 12 16  1  0
 11 17  1  0
 10 18  1  0
  8 19  1  0
  6 20  1  0
  4 21  1  0
 21 22  2  0
 21 23  1  0
 23 24  1  6
 24 25  1  0
 25 26  1  0
 26 27  1  0
 27 28  2  0
 28 29  1  0
 29 30  2  0
 30 31  1  0
 31 32  1  0
 32 33  1  0
 32 34  1  0
 32 35  1  0
 29 36  1  0
 28 37  1  0
 26 38  1  0
 26 39  1  0
 25 40  1  0
 40 41  2  0
 40 42  1  0
 42 43  2  0
 43 44  1  0
 44 45  2  0
 45 46  1  0
 45 47  1  0
 47 48  2  0
 47 49  1  0
 44 50  1  0
 43 51  1  0
 24 52  1  0
 24 53  1  0
  3 54  1  0
  3 55  1  0
  2 56  1  1
  1 57  1  0
  1 58  1  0
  1 59  1  0
 23  2  1  0
 31 27  1  0
 48 42  1  0
 14  5  1  0
 48 23  1  0
 14  9  1  0
M  END
>  <cnnaffinities>  (85) 
[5.91357, 5.95242, 6.51582, 5.9449]

>  <score>  (85) 
5.91357

>  <index>  (85) 
87

>  <Smiles>  (85) 
C([C@]1(C(N(c2c(nc(c3c(c(c(c(c23)[H])[H])[H])[H])[H])[H])C(=O)[C@]21C(N(C(c1c(c(nn1C([H])([H])[H])[H])[H])([H])[H])C(=O)c1c(c(c(F)c(c21)[H])[H])[H])([H])[H])([H])[H])[H])([H])([H])[H]

>  <h>  (85) 
<NA>

>  <Training>  (85) 
True

>  <Success>  (85) 
True

>  <enamine_searched>  (85) 
False

>  <enamine_id>  (85) 
nan

$$$$

     RDKit          3D

 40 42  0  0  0  0  0  0  0  0999 V2000
   -8.5742    0.6817  -21.3395 O   0  0  0  0  0  0  0  0  0  0  0  0
   -8.5642   -0.4733  -21.7379 C   0  0  0  0  0  0  0  0  0  0  0  0
   -7.4693   -1.4387  -21.2747 C   0  0  0  0  0  0  0  0  0  0  0  0
   -6.6392   -0.8229  -20.1881 C   0  0  0  0  0  0  0  0  0  0  0  0
   -6.9291   -1.0884  -18.8764 C   0  0  0  0  0  0  0  0  0  0  0  0
   -6.2494   -0.6031  -17.8071 N   0  0  0  0  0  0  0  0  0  0  0  0
   -5.2283    0.1787  -18.0607 C   0  0  0  0  0  0  0  0  0  0  0  0
   -4.8274    0.5672  -19.3706 C   0  0  0  0  0  0  0  0  0  0  0  0
   -3.7387    1.4488  -19.5966 C   0  0  0  0  0  0  0  0  0  0  0  0
   -3.4976    1.9479  -20.8459 C   0  0  0  0  0  0  0  0  0  0  0  0
   -4.3044    1.5442  -21.9366 C   0  0  0  0  0  0  0  0  0  0  0  0
   -5.3177    0.6353  -21.7599 C   0  0  0  0  0  0  0  0  0  0  0  0
   -5.5979    0.1103  -20.4669 C   0  0  0  0  0  0  0  0  0  0  0  0
   -5.9188    0.3329  -22.6123 H   0  0  0  0  0  0  0  0  0  0  0  0
   -4.1206    1.9704  -22.9188 H   0  0  0  0  0  0  0  0  0  0  0  0
   -2.7039    2.6707  -21.0096 H   0  0  0  0  0  0  0  0  0  0  0  0
   -3.1313    1.7606  -18.7466 H   0  0  0  0  0  0  0  0  0  0  0  0
   -4.6672    0.5535  -17.2023 H   0  0  0  0  0  0  0  0  0  0  0  0
   -7.7570   -1.7533  -18.6305 H   0  0  0  0  0  0  0  0  0  0  0  0
   -7.9675   -2.3377  -20.8864 H   0  0  0  0  0  0  0  0  0  0  0  0
   -6.8415   -1.7410  -22.1220 H   0  0  0  0  0  0  0  0  0  0  0  0
   -9.5617   -0.9399  -22.5733 N   0  0  0  0  0  0  0  0  0  0  0  0
  -10.8336   -0.2481  -22.3797 C   0  0  0  0  0  0  0  0  0  0  0  0
  -11.6818   -0.2642  -23.6266 C   0  0  0  0  0  0  0  0  0  0  0  0
  -11.9728   -1.7134  -24.0094 C   0  0  0  0  0  0  0  0  0  0  0  0
  -12.8779   -1.7851  -25.2216 C   0  0  0  0  0  0  0  0  0  0  0  0
  -14.0633   -1.1542  -24.9666 F   0  0  0  0  0  0  0  0  0  0  0  0
  -12.3040   -1.1356  -26.2769 F   0  0  0  0  0  0  0  0  0  0  0  0
  -13.1095   -2.8088  -25.5377 H   0  0  0  0  0  0  0  0  0  0  0  0
  -10.6485   -2.4637  -24.1936 C   0  0  0  0  0  0  0  0  0  0  0  0
   -9.7759   -2.3468  -22.9334 C   0  0  0  0  0  0  0  0  0  0  0  0
   -8.8260   -2.8535  -23.1129 H   0  0  0  0  0  0  0  0  0  0  0  0
  -10.2759   -2.8740  -22.0987 H   0  0  0  0  0  0  0  0  0  0  0  0
  -10.1035   -2.0539  -25.0528 H   0  0  0  0  0  0  0  0  0  0  0  0
  -10.8426   -3.5233  -24.4126 H   0  0  0  0  0  0  0  0  0  0  0  0
  -12.5376   -2.1952  -23.1945 H   0  0  0  0  0  0  0  0  0  0  0  0
  -11.1395    0.2412  -24.4333 H   0  0  0  0  0  0  0  0  0  0  0  0
  -12.6147    0.2838  -23.4472 H   0  0  0  0  0  0  0  0  0  0  0  0
  -11.3696   -0.8164  -21.6013 H   0  0  0  0  0  0  0  0  0  0  0  0
  -10.6268    0.7689  -22.0469 H   0  0  0  0  0  0  0  0  0  0  0  0
  1  2  2  0
  2  3  1  0
  3  4  1  0
  4  5  2  0
  5  6  1  0
  6  7  2  0
  7  8  1  0
  8  9  2  0
  9 10  1  0
 10 11  2  0
 11 12  1  0
 12 13  2  0
 12 14  1  0
 11 15  1  0
 10 16  1  0
  9 17  1  0
  7 18  1  0
  5 19  1  0
  3 20  1  0
  3 21  1  0
  2 22  1  0
 22 23  1  0
 23 24  1  0
 24 25  1  0
 25 26  1  0
 26 27  1  0
 26 28  1  0
 26 29  1  0
 25 30  1  0
 30 31  1  0
 31 32  1  0
 31 33  1  0
 30 34  1  0
 30 35  1  0
 25 36  1  0
 24 37  1  0
 24 38  1  0
 23 39  1  0
 23 40  1  0
 13  4  1  0
 31 22  1  0
 13  8  1  0
M  END
>  <cnnaffinities>  (86) 
[4.98802, 4.99993]

>  <score>  (86) 
4.98802

>  <index>  (86) 
88

>  <Smiles>  (86) 
O=C(C(c1c(nc(c2c(c(c(c(c12)[H])[H])[H])[H])[H])[H])([H])[H])N1C(C(C(C(F)(F)[H])(C(C1([H])[H])([H])[H])[H])([H])[H])([H])[H]

>  <h>  (86) 
<NA>

>  <Training>  (86) 
True

>  <Success>  (86) 
True

>  <enamine_searched>  (86) 
False

>  <enamine_id>  (86) 
nan

$$$$

     RDKit          3D

 43 45  0  0  0  0  0  0  0  0999 V2000
  -13.0035   -1.4558  -24.8226 C   0  0  0  0  0  0  0  0  0  0  0  0
  -12.2228   -1.9441  -23.5977 C   0  0  0  0  0  0  0  0  0  0  0  0
  -13.0170   -3.0754  -22.9291 C   0  0  0  0  0  0  0  0  0  0  0  0
  -13.9876   -2.7166  -22.5648 H   0  0  0  0  0  0  0  0  0  0  0  0
  -12.4730   -3.4856  -22.0712 H   0  0  0  0  0  0  0  0  0  0  0  0
  -13.2036   -3.8972  -23.6305 H   0  0  0  0  0  0  0  0  0  0  0  0
  -12.0425   -0.7931  -22.5909 C   0  0  0  0  0  0  0  0  0  0  0  0
  -10.7249   -0.0478  -22.7251 C   0  0  0  0  0  0  0  0  0  0  0  0
   -9.6322   -0.9569  -22.4196 N   0  0  0  0  0  0  0  0  0  0  0  0
   -8.5615   -0.4281  -21.7559 C   0  0  0  0  0  0  0  0  0  0  0  0
   -8.4630    0.7700  -21.5395 O   0  0  0  0  0  0  0  0  0  0  0  0
   -7.4954   -1.4041  -21.2566 C   0  0  0  0  0  0  0  0  0  0  0  0
   -6.6472   -0.7997  -20.1693 C   0  0  0  0  0  0  0  0  0  0  0  0
   -6.9177   -1.0631  -18.8518 C   0  0  0  0  0  0  0  0  0  0  0  0
   -6.2151   -0.5948  -17.7857 N   0  0  0  0  0  0  0  0  0  0  0  0
   -5.2105    0.2108  -18.0505 C   0  0  0  0  0  0  0  0  0  0  0  0
   -4.8278    0.5916  -19.3668 C   0  0  0  0  0  0  0  0  0  0  0  0
   -3.6938    1.4141  -19.6051 C   0  0  0  0  0  0  0  0  0  0  0  0
   -3.4093    1.8569  -20.8705 C   0  0  0  0  0  0  0  0  0  0  0  0
   -4.2211    1.4550  -21.9568 C   0  0  0  0  0  0  0  0  0  0  0  0
   -5.2205    0.5265  -21.7717 C   0  0  0  0  0  0  0  0  0  0  0  0
   -5.5689    0.0909  -20.4600 C   0  0  0  0  0  0  0  0  0  0  0  0
   -5.7780    0.1499  -22.6231 H   0  0  0  0  0  0  0  0  0  0  0  0
   -4.0436    1.8759  -22.9474 H   0  0  0  0  0  0  0  0  0  0  0  0
   -2.5660    2.5260  -21.0444 H   0  0  0  0  0  0  0  0  0  0  0  0
   -3.0907    1.7083  -18.7513 H   0  0  0  0  0  0  0  0  0  0  0  0
   -4.6308    0.5875  -17.2044 H   0  0  0  0  0  0  0  0  0  0  0  0
   -7.7549   -1.7097  -18.5805 H   0  0  0  0  0  0  0  0  0  0  0  0
   -6.8889   -1.7353  -22.1123 H   0  0  0  0  0  0  0  0  0  0  0  0
   -8.0066   -2.2967  -20.8755 H   0  0  0  0  0  0  0  0  0  0  0  0
   -9.7867   -2.3450  -22.8550 C   0  0  0  0  0  0  0  0  0  0  0  0
  -10.8150   -2.4361  -23.9902 C   0  0  0  0  0  0  0  0  0  0  0  0
  -10.4455   -1.8091  -24.8067 H   0  0  0  0  0  0  0  0  0  0  0  0
  -10.8690   -3.4626  -24.3706 H   0  0  0  0  0  0  0  0  0  0  0  0
   -8.8224   -2.7156  -23.2157 H   0  0  0  0  0  0  0  0  0  0  0  0
  -10.0855   -2.9878  -22.0152 H   0  0  0  0  0  0  0  0  0  0  0  0
  -10.5807    0.3689  -23.7260 H   0  0  0  0  0  0  0  0  0  0  0  0
  -10.6443    0.7860  -22.0289 H   0  0  0  0  0  0  0  0  0  0  0  0
  -12.0131   -1.2563  -21.6100 H   0  0  0  0  0  0  0  0  0  0  0  0
  -12.8971   -0.1092  -22.6052 H   0  0  0  0  0  0  0  0  0  0  0  0
  -12.5367   -0.5824  -25.2896 H   0  0  0  0  0  0  0  0  0  0  0  0
  -14.0206   -1.1666  -24.5333 H   0  0  0  0  0  0  0  0  0  0  0  0
  -13.0926   -2.2317  -25.5890 H   0  0  0  0  0  0  0  0  0  0  0  0
  1  2  1  0
  2  3  1  0
  3  4  1  0
  3  5  1  0
  3  6  1  0
  2  7  1  0
  7  8  1  0
  8  9  1  0
  9 10  1  0
 10 11  2  0
 10 12  1  0
 12 13  1  0
 13 14  2  0
 14 15  1  0
 15 16  2  0
 16 17  1  0
 17 18  2  0
 18 19  1  0
 19 20  2  0
 20 21  1  0
 21 22  2  0
 21 23  1  0
 20 24  1  0
 19 25  1  0
 18 26  1  0
 16 27  1  0
 14 28  1  0
 12 29  1  0
 12 30  1  0
  9 31  1  0
 31 32  1  0
 32 33  1  0
 32 34  1  0
 31 35  1  0
 31 36  1  0
  8 37  1  0
  8 38  1  0
  7 39  1  0
  7 40  1  0
  1 41  1  0
  1 42  1  0
  1 43  1  0
 32  2  1  0
 22 13  1  0
 22 17  1  0
M  END
>  <cnnaffinities>  (87) 
[4.72987, 4.72985, 4.72987, 4.72444, 4.80167, 4.46781, 4.47303, 4.47291, 4.60168, 4.60206]

>  <score>  (87) 
4.72987

>  <index>  (87) 
89

>  <Smiles>  (87) 
C(C1(C([H])([H])[H])C(C(N(C(=O)C(c2c(nc(c3c(c(c(c(c23)[H])[H])[H])[H])[H])[H])([H])[H])C(C1([H])[H])([H])[H])([H])[H])([H])[H])([H])([H])[H]

>  <h>  (87) 
<NA>

>  <Training>  (87) 
True

>  <Success>  (87) 
True

>  <enamine_searched>  (87) 
False

>  <enamine_id>  (87) 
nan

$$$$

     RDKit          3D

 64 68  0  0  0  0  0  0  0  0999 V2000
   -7.5231    3.2306  -22.0206 C   0  0  0  0  0  0  0  0  0  0  0  0
   -8.6403    2.6709  -22.7635 N   0  0  0  0  0  0  0  0  0  0  0  0
   -8.3768    1.8802  -23.8424 C   0  0  0  0  0  0  0  0  0  0  0  0
   -7.2278    1.6451  -24.1915 O   0  0  0  0  0  0  0  0  0  0  0  0
   -9.5538    1.2787  -24.6225 C   0  0  0  0  0  0  0  0  0  0  0  0
  -10.0199    0.0602  -23.9855 N   0  0  0  0  0  0  0  0  0  0  0  0
   -9.1514   -1.1087  -23.9563 C   0  0  0  0  0  0  0  0  0  0  0  0
   -9.2753   -1.8719  -22.6073 C   0  0  2  0  0  0  0  0  0  0  0  0
   -8.6997   -0.9587  -21.4906 C   0  0  0  0  0  0  0  0  0  0  0  0
   -9.2195    0.0262  -21.0010 O   0  0  0  0  0  0  0  0  0  0  0  0
   -7.4386   -1.4154  -21.1637 N   0  0  0  0  0  0  0  0  0  0  0  0
   -6.6637   -0.8024  -20.1483 C   0  0  0  0  0  0  0  0  0  0  0  0
   -6.9515   -1.0643  -18.8306 C   0  0  0  0  0  0  0  0  0  0  0  0
   -6.2366   -0.5878  -17.7847 N   0  0  0  0  0  0  0  0  0  0  0  0
   -5.1943    0.1607  -18.0569 C   0  0  0  0  0  0  0  0  0  0  0  0
   -4.8017    0.5395  -19.3724 C   0  0  0  0  0  0  0  0  0  0  0  0
   -3.7227    1.4354  -19.6059 C   0  0  0  0  0  0  0  0  0  0  0  0
   -3.4681    1.8963  -20.8682 C   0  0  0  0  0  0  0  0  0  0  0  0
   -4.2697    1.4810  -21.9535 C   0  0  0  0  0  0  0  0  0  0  0  0
   -5.2790    0.5614  -21.7652 C   0  0  0  0  0  0  0  0  0  0  0  0
   -5.5756    0.0737  -20.4618 C   0  0  0  0  0  0  0  0  0  0  0  0
   -5.9001    0.2759  -22.6083 H   0  0  0  0  0  0  0  0  0  0  0  0
   -4.0796    1.8704  -22.9509 H   0  0  0  0  0  0  0  0  0  0  0  0
   -2.6674    2.6106  -21.0395 H   0  0  0  0  0  0  0  0  0  0  0  0
   -3.1359    1.7667  -18.7536 H   0  0  0  0  0  0  0  0  0  0  0  0
   -4.6329    0.5576  -17.2116 H   0  0  0  0  0  0  0  0  0  0  0  0
   -7.7895   -1.7114  -18.5806 H   0  0  0  0  0  0  0  0  0  0  0  0
   -6.9885   -2.5380  -21.9596 C   0  0  0  0  0  0  0  0  0  0  0  0
   -8.3123   -3.0937  -22.5153 C   0  0  2  0  0  0  0  0  0  0  0  0
   -8.1657   -3.9031  -23.8040 C   0  0  0  0  0  0  0  0  0  0  0  0
   -7.1999   -5.3828  -23.5566 S   0  0  0  0  0  0  0  0  0  0  0  0
   -7.8706   -6.1809  -22.5400 O   0  0  0  0  0  0  0  0  0  0  0  0
   -5.7954   -5.0348  -23.3899 O   0  0  0  0  0  0  0  0  0  0  0  0
   -7.3014   -6.1005  -25.0547 N   0  0  0  0  0  0  0  0  0  0  0  0
   -8.5461   -6.6537  -25.5700 C   0  0  0  0  0  0  0  0  0  0  0  0
   -9.2384   -5.8463  -25.8201 H   0  0  0  0  0  0  0  0  0  0  0  0
   -9.0393   -7.3666  -24.9019 H   0  0  0  0  0  0  0  0  0  0  0  0
   -8.3167   -7.1650  -26.5065 H   0  0  0  0  0  0  0  0  0  0  0  0
   -6.4844   -6.6837  -25.1838 H   0  0  0  0  0  0  0  0  0  0  0  0
   -7.6703   -3.3284  -24.5927 H   0  0  0  0  0  0  0  0  0  0  0  0
   -9.1567   -4.2180  -24.1475 H   0  0  0  0  0  0  0  0  0  0  0  0
   -8.7019   -3.7602  -21.7399 H   0  0  0  0  0  0  0  0  0  0  0  0
   -6.4539   -3.2725  -21.3511 H   0  0  0  0  0  0  0  0  0  0  0  0
   -6.3012   -2.2191  -22.7588 H   0  0  0  0  0  0  0  0  0  0  0  0
  -10.7560   -2.1639  -22.3902 C   0  0  0  0  0  0  0  0  0  0  0  0
  -11.2306   -3.2830  -21.6880 C   0  0  0  0  0  0  0  0  0  0  0  0
  -12.5791   -3.4009  -21.3969 C   0  0  0  0  0  0  0  0  0  0  0  0
  -12.9971   -4.4533  -20.6680 F   0  0  0  0  0  0  0  0  0  0  0  0
  -13.5174   -2.4629  -21.8109 C   0  0  0  0  0  0  0  0  0  0  0  0
  -13.0661   -1.3818  -22.5387 C   0  0  0  0  0  0  0  0  0  0  0  0
  -11.7097   -1.2285  -22.8251 C   0  0  0  0  0  0  0  0  0  0  0  0
  -11.3276   -0.0044  -23.5958 C   0  0  0  0  0  0  0  0  0  0  0  0
  -12.1403    0.8734  -23.8545 O   0  0  0  0  0  0  0  0  0  0  0  0
  -13.7539   -0.6294  -22.9105 H   0  0  0  0  0  0  0  0  0  0  0  0
  -14.5652   -2.5917  -21.5589 H   0  0  0  0  0  0  0  0  0  0  0  0
  -10.5759   -4.0508  -21.2930 H   0  0  0  0  0  0  0  0  0  0  0  0
   -9.4087   -1.7735  -24.7933 H   0  0  0  0  0  0  0  0  0  0  0  0
   -8.1265   -0.7550  -24.0977 H   0  0  0  0  0  0  0  0  0  0  0  0
  -10.4129    1.9548  -24.6653 H   0  0  0  0  0  0  0  0  0  0  0  0
   -9.2165    1.0832  -25.6558 H   0  0  0  0  0  0  0  0  0  0  0  0
   -9.5157    2.5515  -22.2649 H   0  0  0  0  0  0  0  0  0  0  0  0
   -7.8765    4.0321  -21.3701 H   0  0  0  0  0  0  0  0  0  0  0  0
   -7.0351    2.4730  -21.3992 H   0  0  0  0  0  0  0  0  0  0  0  0
   -6.7676    3.6321  -22.7063 H   0  0  0  0  0  0  0  0  0  0  0  0
  1  2  1  0
  2  3  1  0
  3  4  2  0
  3  5  1  0
  5  6  1  0
  6  7  1  0
  8  7  1  6
  8  9  1  0
  9 10  2  0
  9 11  1  0
 11 12  1  0
 12 13  2  0
 13 14  1  0
 14 15  2  0
 15 16  1  0
 16 17  2  0
 17 18  1  0
 18 19  2  0
 19 20  1  0
 20 21  2  0
 20 22  1  0
 19 23  1  0
 18 24  1  0
 17 25  1  0
 15 26  1  0
 13 27  1  0
 11 28  1  0
 28 29  1  0
 29 30  1  0
 30 31  1  0
 31 32  2  0
 31 33  2  0
 31 34  1  0
 34 35  1  0
 35 36  1  0
 35 37  1  0
 35 38  1  0
 34 39  1  0
 30 40  1  0
 30 41  1  0
 29 42  1  1
 28 43  1  0
 28 44  1  0
  8 45  1  0
 45 46  2  0
 46 47  1  0
 47 48  1  0
 47 49  2  0
 49 50  1  0
 50 51  2  0
 51 52  1  0
 52 53  2  0
 50 54  1  0
 49 55  1  0
 46 56  1  0
  7 57  1  0
  7 58  1  0
  5 59  1  0
  5 60  1  0
  2 61  1  0
  1 62  1  0
  1 63  1  0
  1 64  1  0
 52  6  1  0
 29  8  1  0
 51 45  1  0
 21 12  1  0
 21 16  1  0
M  END
>  <cnnaffinities>  (88) 
[6.48079]

>  <score>  (88) 
6.48079

>  <index>  (88) 
90

>  <Smiles>  (88) 
C(N(C(=O)C(N1C([C@@]2(C(=O)N(c3c(nc(c4c(c(c(c(c34)[H])[H])[H])[H])[H])[H])C([C@@]2(C(S(=O)(=O)N(C([H])([H])[H])[H])([H])[H])[H])([H])[H])c2c(c(F)c(c(c2C1=O)[H])[H])[H])([H])[H])([H])[H])[H])([H])([H])[H]

>  <h>  (88) 
<NA>

>  <Training>  (88) 
True

>  <Success>  (88) 
True

>  <enamine_searched>  (88) 
False

>  <enamine_id>  (88) 
nan

$$$$

     RDKit          3D

 66 71  0  0  0  0  0  0  0  0999 V2000
   -7.3963    3.3978  -21.8778 C   0  0  0  0  0  0  0  0  0  0  0  0
   -8.3326    2.9087  -22.8765 N   0  0  0  0  0  0  0  0  0  0  0  0
   -7.8104    2.1846  -23.9088 C   0  0  0  0  0  0  0  0  0  0  0  0
   -6.6064    2.0176  -24.0529 O   0  0  0  0  0  0  0  0  0  0  0  0
   -8.7948    1.5671  -24.8982 C   0  0  0  0  0  0  0  0  0  0  0  0
   -9.4435    0.4136  -24.3039 N   0  0  0  0  0  0  0  0  0  0  0  0
   -8.6882   -0.8249  -24.1547 C   0  0  0  0  0  0  0  0  0  0  0  0
   -9.0674   -1.5696  -22.8465 C   0  0  2  0  0  0  0  0  0  0  0  0
   -8.5467   -0.7763  -21.6253 C   0  0  0  0  0  0  0  0  0  0  0  0
   -9.0232    0.2285  -21.1386 O   0  0  0  0  0  0  0  0  0  0  0  0
   -7.4049   -1.3931  -21.1722 N   0  0  0  0  0  0  0  0  0  0  0  0
   -6.6244   -0.8037  -20.1531 C   0  0  0  0  0  0  0  0  0  0  0  0
   -6.9281   -1.0583  -18.8413 C   0  0  0  0  0  0  0  0  0  0  0  0
   -6.2297   -0.5740  -17.7889 N   0  0  0  0  0  0  0  0  0  0  0  0
   -5.1978    0.1917  -18.0534 C   0  0  0  0  0  0  0  0  0  0  0  0
   -4.7906    0.5576  -19.3697 C   0  0  0  0  0  0  0  0  0  0  0  0
   -3.6946    1.4290  -19.6123 C   0  0  0  0  0  0  0  0  0  0  0  0
   -3.4180    1.8637  -20.8788 C   0  0  0  0  0  0  0  0  0  0  0  0
   -4.2207    1.4561  -21.9676 C   0  0  0  0  0  0  0  0  0  0  0  0
   -5.2218    0.5290  -21.7740 C   0  0  0  0  0  0  0  0  0  0  0  0
   -5.5517    0.0826  -20.4629 C   0  0  0  0  0  0  0  0  0  0  0  0
   -5.7968    0.1833  -22.6268 H   0  0  0  0  0  0  0  0  0  0  0  0
   -4.0614    1.8831  -22.9507 H   0  0  0  0  0  0  0  0  0  0  0  0
   -2.5904    2.5493  -21.0480 H   0  0  0  0  0  0  0  0  0  0  0  0
   -3.0906    1.7417  -18.7648 H   0  0  0  0  0  0  0  0  0  0  0  0
   -4.6283    0.5654  -17.2015 H   0  0  0  0  0  0  0  0  0  0  0  0
   -7.7835   -1.6869  -18.6119 H   0  0  0  0  0  0  0  0  0  0  0  0
   -7.0119   -2.5624  -21.9257 C   0  0  0  0  0  0  0  0  0  0  0  0
   -8.2932   -2.9204  -22.6979 C   0  0  2  0  0  0  0  0  0  0  0  0
   -8.0068   -3.7092  -23.9913 C   0  0  0  0  0  0  0  0  0  0  0  0
   -7.5033   -5.0509  -23.7636 N   0  0  0  0  0  0  0  0  0  0  0  0
   -6.1920   -5.3739  -23.4945 C   0  0  0  0  0  0  0  0  0  0  0  0
   -5.0712   -4.6031  -23.8904 C   0  0  0  0  0  0  0  0  0  0  0  0
   -3.8248   -4.9671  -23.6129 N   0  0  0  0  0  0  0  0  0  0  0  0
   -3.6603   -6.1077  -22.9412 C   0  0  0  0  0  0  0  0  0  0  0  0
   -4.7516   -6.8736  -22.5645 C   0  0  0  0  0  0  0  0  0  0  0  0
   -6.0072   -6.5233  -22.8418 N   0  0  0  0  0  0  0  0  0  0  0  0
   -4.6212   -7.8020  -22.0115 H   0  0  0  0  0  0  0  0  0  0  0  0
   -2.6411   -6.4117  -22.7059 H   0  0  0  0  0  0  0  0  0  0  0  0
   -5.1903   -3.6781  -24.4467 H   0  0  0  0  0  0  0  0  0  0  0  0
   -8.1349   -5.7080  -23.3261 H   0  0  0  0  0  0  0  0  0  0  0  0
   -7.2707   -3.1703  -24.5986 H   0  0  0  0  0  0  0  0  0  0  0  0
   -8.9190   -3.7838  -24.5994 H   0  0  0  0  0  0  0  0  0  0  0  0
   -8.8892   -3.5690  -22.0451 H   0  0  0  0  0  0  0  0  0  0  0  0
   -6.6840   -3.3612  -21.2553 H   0  0  0  0  0  0  0  0  0  0  0  0
   -6.1737   -2.3411  -22.6072 H   0  0  0  0  0  0  0  0  0  0  0  0
  -10.5800   -1.6575  -22.7836 C   0  0  0  0  0  0  0  0  0  0  0  0
  -11.2062   -2.5906  -21.9537 C   0  0  0  0  0  0  0  0  0  0  0  0
  -12.5844   -2.6192  -21.8550 C   0  0  0  0  0  0  0  0  0  0  0  0
  -13.3179   -3.7797  -20.7932 Cl  0  0  0  0  0  0  0  0  0  0  0  0
  -13.3958   -1.7361  -22.5648 C   0  0  0  0  0  0  0  0  0  0  0  0
  -12.7838   -0.7850  -23.3521 C   0  0  0  0  0  0  0  0  0  0  0  0
  -11.3948   -0.7239  -23.4382 C   0  0  0  0  0  0  0  0  0  0  0  0
  -10.8072    0.4197  -24.2013 C   0  0  0  0  0  0  0  0  0  0  0  0
  -11.5027    1.3075  -24.6749 O   0  0  0  0  0  0  0  0  0  0  0  0
  -13.3534   -0.0488  -23.9058 H   0  0  0  0  0  0  0  0  0  0  0  0
  -14.4758   -1.7808  -22.4780 H   0  0  0  0  0  0  0  0  0  0  0  0
  -10.6382   -3.2945  -21.3580 H   0  0  0  0  0  0  0  0  0  0  0  0
   -8.9022   -1.4880  -25.0046 H   0  0  0  0  0  0  0  0  0  0  0  0
   -7.6170   -0.5911  -24.1727 H   0  0  0  0  0  0  0  0  0  0  0  0
   -8.2469    1.2702  -25.8012 H   0  0  0  0  0  0  0  0  0  0  0  0
   -9.5821    2.2728  -25.1822 H   0  0  0  0  0  0  0  0  0  0  0  0
   -9.2708    2.6995  -22.5570 H   0  0  0  0  0  0  0  0  0  0  0  0
   -6.8384    2.5502  -21.4590 H   0  0  0  0  0  0  0  0  0  0  0  0
   -6.6947    4.0973  -22.3396 H   0  0  0  0  0  0  0  0  0  0  0  0
   -7.9277    3.9334  -21.0898 H   0  0  0  0  0  0  0  0  0  0  0  0
  1  2  1  0
  2  3  1  0
  3  4  2  0
  3  5  1  0
  5  6  1  0
  6  7  1  0
  8  7  1  6
  8  9  1  0
  9 10  2  0
  9 11  1  0
 11 12  1  0
 12 13  2  0
 13 14  1  0
 14 15  2  0
 15 16  1  0
 16 17  2  0
 17 18  1  0
 18 19  2  0
 19 20  1  0
 20 21  2  0
 20 22  1  0
 19 23  1  0
 18 24  1  0
 17 25  1  0
 15 26  1  0
 13 27  1  0
 11 28  1  0
 28 29  1  0
 29 30  1  0
 30 31  1  0
 31 32  1  0
 32 33  2  0
 33 34  1  0
 34 35  2  0
 35 36  1  0
 36 37  2  0
 36 38  1  0
 35 39  1  0
 33 40  1  0
 31 41  1  0
 30 42  1  0
 30 43  1  0
 29 44  1  1
 28 45  1  0
 28 46  1  0
  8 47  1  0
 47 48  2  0
 48 49  1  0
 49 50  1  0
 49 51  2  0
 51 52  1  0
 52 53  2  0
 53 54  1  0
 54 55  2  0
 52 56  1  0
 51 57  1  0
 48 58  1  0
  7 59  1  0
  7 60  1  0
  5 61  1  0
  5 62  1  0
  2 63  1  0
  1 64  1  0
  1 65  1  0
  1 66  1  0
 54  6  1  0
 29  8  1  0
 37 32  1  0
 53 47  1  0
 21 12  1  0
 21 16  1  0
M  END
>  <cnnaffinities>  (89) 
[6.4902, 6.55057, 6.3441]

>  <score>  (89) 
6.4902

>  <index>  (89) 
91

>  <Smiles>  (89) 
C(N(C(=O)C(N1C([C@@]2(C(=O)N(c3c(nc(c4c(c(c(c(c34)[H])[H])[H])[H])[H])[H])C([C@@]2(C(N(c2c(nc(c(n2)[H])[H])[H])[H])([H])[H])[H])([H])[H])c2c(c(Cl)c(c(c2C1=O)[H])[H])[H])([H])[H])([H])[H])[H])([H])([H])[H]

>  <h>  (89) 
<NA>

>  <Training>  (89) 
True

>  <Success>  (89) 
True

>  <enamine_searched>  (89) 
False

>  <enamine_id>  (89) 
nan

$$$$

     RDKit          3D

 60 65  0  0  0  0  0  0  0  0999 V2000
   -7.4658   -6.2940  -23.8231 C   0  0  0  0  0  0  0  0  0  0  0  0
   -7.9092   -5.2849  -22.9467 O   0  0  0  0  0  0  0  0  0  0  0  0
   -8.1577   -4.0786  -23.6249 C   0  0  0  0  0  0  0  0  0  0  0  0
   -8.4698   -3.0020  -22.5984 C   0  0  1  0  0  0  0  0  0  0  0  0
   -7.3672   -2.8107  -21.5478 C   0  0  0  0  0  0  0  0  0  0  0  0
   -7.4617   -1.3976  -21.2150 N   0  0  0  0  0  0  0  0  0  0  0  0
   -6.6780   -0.7956  -20.1995 C   0  0  0  0  0  0  0  0  0  0  0  0
   -6.9324   -1.1110  -18.8886 C   0  0  0  0  0  0  0  0  0  0  0  0
   -6.2357   -0.6376  -17.8283 N   0  0  0  0  0  0  0  0  0  0  0  0
   -5.2255    0.1599  -18.0825 C   0  0  0  0  0  0  0  0  0  0  0  0
   -4.8428    0.5601  -19.3937 C   0  0  0  0  0  0  0  0  0  0  0  0
   -3.7528    1.4477  -19.5972 C   0  0  0  0  0  0  0  0  0  0  0  0
   -3.4864    1.9474  -20.8414 C   0  0  0  0  0  0  0  0  0  0  0  0
   -4.2593    1.5259  -21.9498 C   0  0  0  0  0  0  0  0  0  0  0  0
   -5.2734    0.6156  -21.7906 C   0  0  0  0  0  0  0  0  0  0  0  0
   -5.6058    0.1123  -20.4962 C   0  0  0  0  0  0  0  0  0  0  0  0
   -5.8296    0.2845  -22.6634 H   0  0  0  0  0  0  0  0  0  0  0  0
   -4.0403    1.9239  -22.9383 H   0  0  0  0  0  0  0  0  0  0  0  0
   -2.6834    2.6654  -20.9911 H   0  0  0  0  0  0  0  0  0  0  0  0
   -3.1626    1.7426  -18.7331 H   0  0  0  0  0  0  0  0  0  0  0  0
   -4.6638    0.5486  -17.2324 H   0  0  0  0  0  0  0  0  0  0  0  0
   -7.7498   -1.7901  -18.6476 H   0  0  0  0  0  0  0  0  0  0  0  0
   -8.2419   -0.6658  -22.0826 C   0  0  0  0  0  0  0  0  0  0  0  0
   -8.4076    0.5386  -22.0076 O   0  0  0  0  0  0  0  0  0  0  0  0
   -8.7501   -1.5873  -23.1985 C   0  0  1  0  0  0  0  0  0  0  0  0
   -7.8964   -1.2305  -24.4571 C   0  0  0  0  0  0  0  0  0  0  0  0
   -8.4310   -1.7630  -25.7084 N   0  0  0  0  0  0  0  0  0  0  0  0
   -7.5800   -2.1850  -26.8293 C   0  0  0  0  0  0  0  0  0  0  0  0
   -7.4048   -3.6802  -26.9450 C   0  0  0  0  0  0  0  0  0  0  0  0
   -6.2519   -4.4512  -26.6846 C   0  0  0  0  0  0  0  0  0  0  0  0
   -6.4594   -5.7526  -26.8759 N   0  0  0  0  0  0  0  0  0  0  0  0
   -7.7264   -5.8124  -27.2861 N   0  0  0  0  0  0  0  0  0  0  0  0
   -8.3471   -4.6104  -27.3342 C   0  0  0  0  0  0  0  0  0  0  0  0
   -9.3755   -4.5117  -27.6654 H   0  0  0  0  0  0  0  0  0  0  0  0
   -8.1063   -6.7075  -27.5336 H   0  0  0  0  0  0  0  0  0  0  0  0
   -5.2760   -4.1150  -26.3587 H   0  0  0  0  0  0  0  0  0  0  0  0
   -6.6053   -1.6985  -26.7393 H   0  0  0  0  0  0  0  0  0  0  0  0
   -8.0763   -1.8174  -27.7367 H   0  0  0  0  0  0  0  0  0  0  0  0
   -9.7726   -1.7833  -25.9690 C   0  0  0  0  0  0  0  0  0  0  0  0
  -10.2229   -2.0839  -27.0689 O   0  0  0  0  0  0  0  0  0  0  0  0
  -10.6786   -1.4424  -24.8357 C   0  0  0  0  0  0  0  0  0  0  0  0
  -12.0273   -1.2581  -25.1516 C   0  0  0  0  0  0  0  0  0  0  0  0
  -12.9666   -1.1573  -24.1453 C   0  0  0  0  0  0  0  0  0  0  0  0
  -12.5345   -1.2243  -22.8196 C   0  0  0  0  0  0  0  0  0  0  0  0
  -13.7545   -1.3256  -21.5836 Cl  0  0  0  0  0  0  0  0  0  0  0  0
  -11.1848   -1.2694  -22.4942 C   0  0  0  0  0  0  0  0  0  0  0  0
  -10.2209   -1.3833  -23.5146 C   0  0  0  0  0  0  0  0  0  0  0  0
  -10.9149   -1.2091  -21.4448 H   0  0  0  0  0  0  0  0  0  0  0  0
  -14.0255   -1.0505  -24.3712 H   0  0  0  0  0  0  0  0  0  0  0  0
  -12.3033   -1.2214  -26.2055 H   0  0  0  0  0  0  0  0  0  0  0  0
   -6.8713   -1.5931  -24.3151 H   0  0  0  0  0  0  0  0  0  0  0  0
   -7.8313   -0.1351  -24.5075 H   0  0  0  0  0  0  0  0  0  0  0  0
   -7.5350   -3.4309  -20.6632 H   0  0  0  0  0  0  0  0  0  0  0  0
   -6.3676   -3.0546  -21.9295 H   0  0  0  0  0  0  0  0  0  0  0  0
   -9.3782   -3.3108  -22.0642 H   0  0  0  0  0  0  0  0  0  0  0  0
   -7.2807   -3.8040  -24.2298 H   0  0  0  0  0  0  0  0  0  0  0  0
   -9.0157   -4.1936  -24.3069 H   0  0  0  0  0  0  0  0  0  0  0  0
   -7.5073   -7.2378  -23.2728 H   0  0  0  0  0  0  0  0  0  0  0  0
   -6.4398   -6.1159  -24.1757 H   0  0  0  0  0  0  0  0  0  0  0  0
   -8.1074   -6.3739  -24.7089 H   0  0  0  0  0  0  0  0  0  0  0  0
  1  2  1  0
  2  3  1  0
  3  4  1  0
  4  5  1  0
  5  6  1  0
  6  7  1  0
  7  8  2  0
  8  9  1  0
  9 10  2  0
 10 11  1  0
 11 12  2  0
 12 13  1  0
 13 14  2  0
 14 15  1  0
 15 16  2  0
 15 17  1  0
 14 18  1  0
 13 19  1  0
 12 20  1  0
 10 21  1  0
  8 22  1  0
  6 23  1  0
 23 24  2  0
 23 25  1  0
 25 26  1  6
 26 27  1  0
 27 28  1  0
 28 29  1  0
 29 30  1  0
 30 31  2  0
 31 32  1  0
 32 33  1  0
 33 34  1  0
 32 35  1  0
 30 36  1  0
 28 37  1  0
 28 38  1  0
 27 39  1  0
 39 40  2  0
 39 41  1  0
 41 42  2  0
 42 43  1  0
 43 44  2  0
 44 45  1  0
 44 46  1  0
 46 47  2  0
 46 48  1  0
 43 49  1  0
 42 50  1  0
 26 51  1  0
 26 52  1  0
  5 53  1  0
  5 54  1  0
  4 55  1  1
  3 56  1  0
  3 57  1  0
  1 58  1  0
  1 59  1  0
  1 60  1  0
 25  4  1  0
 33 29  2  0
 47 41  1  0
 16  7  1  0
 47 25  1  0
 16 11  1  0
M  END
>  <cnnaffinities>  (90) 
[6.01843, 6.48268, 6.01521, 6.05372]

>  <score>  (90) 
6.01843

>  <index>  (90) 
92

>  <Smiles>  (90) 
C(OC([C@]1(C(N(c2c(nc(c3c(c(c(c(c23)[H])[H])[H])[H])[H])[H])C(=O)[C@]21C(N(C(c1c(nn(c1[H])[H])[H])([H])[H])C(=O)c1c(c(c(Cl)c(c21)[H])[H])[H])([H])[H])([H])[H])[H])([H])[H])([H])([H])[H]

>  <h>  (90) 
<NA>

>  <Training>  (90) 
True

>  <Success>  (90) 
True

>  <enamine_searched>  (90) 
False

>  <enamine_id>  (90) 
nan

$$$$

     RDKit          3D

 62 67  0  0  0  0  0  0  0  0999 V2000
  -11.3179    4.3030  -25.2277 C   0  0  0  0  0  0  0  0  0  0  0  0
   -9.8241    4.1697  -25.5257 C   0  0  0  0  0  0  0  0  0  0  0  0
   -9.0680    3.5851  -24.4239 N   0  0  0  0  0  0  0  0  0  0  0  0
   -8.4836    4.4133  -23.5419 N   0  0  0  0  0  0  0  0  0  0  0  0
   -7.9005    3.6227  -22.6519 C   0  0  0  0  0  0  0  0  0  0  0  0
   -8.1128    2.2643  -22.9688 C   0  0  0  0  0  0  0  0  0  0  0  0
   -8.8884    2.2709  -24.1038 C   0  0  0  0  0  0  0  0  0  0  0  0
   -9.3941    1.0982  -24.9053 C   0  0  0  0  0  0  0  0  0  0  0  0
   -9.8578   -0.0001  -24.0802 N   0  0  0  0  0  0  0  0  0  0  0  0
   -9.0381   -1.1936  -23.9753 C   0  0  0  0  0  0  0  0  0  0  0  0
   -9.2205   -1.9100  -22.6127 C   0  0  2  0  0  0  0  0  0  0  0  0
   -8.6578   -1.0265  -21.4631 C   0  0  0  0  0  0  0  0  0  0  0  0
   -9.2195   -0.1075  -20.9036 O   0  0  0  0  0  0  0  0  0  0  0  0
   -7.3762   -1.4427  -21.1841 N   0  0  0  0  0  0  0  0  0  0  0  0
   -6.6079   -0.8321  -20.1566 C   0  0  0  0  0  0  0  0  0  0  0  0
   -6.9112   -1.0610  -18.8372 C   0  0  0  0  0  0  0  0  0  0  0  0
   -6.2048   -0.5615  -17.7946 N   0  0  0  0  0  0  0  0  0  0  0  0
   -5.1702    0.1950  -18.0676 C   0  0  0  0  0  0  0  0  0  0  0  0
   -4.7621    0.5454  -19.3853 C   0  0  0  0  0  0  0  0  0  0  0  0
   -3.6578    1.4096  -19.6248 C   0  0  0  0  0  0  0  0  0  0  0  0
   -3.3439    1.7882  -20.8998 C   0  0  0  0  0  0  0  0  0  0  0  0
   -4.1331    1.3506  -21.9870 C   0  0  0  0  0  0  0  0  0  0  0  0
   -5.1535    0.4496  -21.7829 C   0  0  0  0  0  0  0  0  0  0  0  0
   -5.5163    0.0443  -20.4690 C   0  0  0  0  0  0  0  0  0  0  0  0
   -5.6410   -0.0055  -22.6391 H   0  0  0  0  0  0  0  0  0  0  0  0
   -3.8669    1.6387  -22.9994 H   0  0  0  0  0  0  0  0  0  0  0  0
   -2.4531    2.3830  -21.0939 H   0  0  0  0  0  0  0  0  0  0  0  0
   -3.0632    1.7325  -18.7723 H   0  0  0  0  0  0  0  0  0  0  0  0
   -4.6196    0.6085  -17.2234 H   0  0  0  0  0  0  0  0  0  0  0  0
   -7.7655   -1.6790  -18.5725 H   0  0  0  0  0  0  0  0  0  0  0  0
   -6.9632   -2.6157  -21.9349 C   0  0  0  0  0  0  0  0  0  0  0  0
   -8.2920   -3.1595  -22.5093 C   0  0  2  0  0  0  0  0  0  0  0  0
   -8.0982   -3.9869  -23.7830 C   0  0  0  0  0  0  0  0  0  0  0  0
   -7.5584   -3.4105  -24.5452 H   0  0  0  0  0  0  0  0  0  0  0  0
   -7.5082   -4.8875  -23.5799 H   0  0  0  0  0  0  0  0  0  0  0  0
   -9.0537   -4.3011  -24.2190 H   0  0  0  0  0  0  0  0  0  0  0  0
   -8.7330   -3.7919  -21.7323 H   0  0  0  0  0  0  0  0  0  0  0  0
   -6.4574   -3.3276  -21.2731 H   0  0  0  0  0  0  0  0  0  0  0  0
   -6.2601   -2.3554  -22.7426 H   0  0  0  0  0  0  0  0  0  0  0  0
  -10.7098   -2.1407  -22.4258 C   0  0  0  0  0  0  0  0  0  0  0  0
  -11.2175   -3.2320  -21.7107 C   0  0  0  0  0  0  0  0  0  0  0  0
  -12.5744   -3.3214  -21.4783 C   0  0  0  0  0  0  0  0  0  0  0  0
  -13.0445   -4.3501  -20.7525 F   0  0  0  0  0  0  0  0  0  0  0  0
  -13.4754   -2.3693  -21.9353 C   0  0  0  0  0  0  0  0  0  0  0  0
  -12.9827   -1.2854  -22.6334 C   0  0  0  0  0  0  0  0  0  0  0  0
  -11.6158   -1.1680  -22.8816 C   0  0  0  0  0  0  0  0  0  0  0  0
  -11.1471    0.0373  -23.6431 C   0  0  0  0  0  0  0  0  0  0  0  0
  -11.8876    0.9852  -23.8731 O   0  0  0  0  0  0  0  0  0  0  0  0
  -13.6268   -0.4943  -23.0040 H   0  0  0  0  0  0  0  0  0  0  0  0
  -14.5292   -2.4918  -21.7210 H   0  0  0  0  0  0  0  0  0  0  0  0
  -10.5873   -3.9930  -21.2659 H   0  0  0  0  0  0  0  0  0  0  0  0
   -9.2956   -1.9119  -24.7719 H   0  0  0  0  0  0  0  0  0  0  0  0
   -7.9917   -0.8907  -24.0867 H   0  0  0  0  0  0  0  0  0  0  0  0
  -10.2135    1.4044  -25.5638 H   0  0  0  0  0  0  0  0  0  0  0  0
   -8.5838    0.6942  -25.5220 H   0  0  0  0  0  0  0  0  0  0  0  0
   -7.7868    1.3719  -22.4535 H   0  0  0  0  0  0  0  0  0  0  0  0
   -7.3675    4.0798  -21.8214 H   0  0  0  0  0  0  0  0  0  0  0  0
   -9.3639    5.1499  -25.6975 H   0  0  0  0  0  0  0  0  0  0  0  0
   -9.6502    3.5491  -26.4147 H   0  0  0  0  0  0  0  0  0  0  0  0
  -11.7715    3.3228  -25.0384 H   0  0  0  0  0  0  0  0  0  0  0  0
  -11.4876    4.9451  -24.3568 H   0  0  0  0  0  0  0  0  0  0  0  0
  -11.8165    4.7584  -26.0880 H   0  0  0  0  0  0  0  0  0  0  0  0
  1  2  1  0
  2  3  1  0
  3  4  1  0
  4  5  2  0
  5  6  1  0
  6  7  2  0
  7  8  1  0
  8  9  1  0
  9 10  1  0
 11 10  1  6
 11 12  1  0
 12 13  2  0
 12 14  1  0
 14 15  1  0
 15 16  2  0
 16 17  1  0
 17 18  2  0
 18 19  1  0
 19 20  2  0
 20 21  1  0
 21 22  2  0
 22 23  1  0
 23 24  2  0
 23 25  1  0
 22 26  1  0
 21 27  1  0
 20 28  1  0
 18 29  1  0
 16 30  1  0
 14 31  1  0
 31 32  1  0
 32 33  1  0
 33 34  1  0
 33 35  1  0
 33 36  1  0
 32 37  1  1
 31 38  1  0
 31 39  1  0
 11 40  1  0
 40 41  2  0
 41 42  1  0
 42 43  1  0
 42 44  2  0
 44 45  1  0
 45 46  2  0
 46 47  1  0
 47 48  2  0
 45 49  1  0
 44 50  1  0
 41 51  1  0
 10 52  1  0
 10 53  1  0
  8 54  1  0
  8 55  1  0
  6 56  1  0
  5 57  1  0
  2 58  1  0
  2 59  1  0
  1 60  1  0
  1 61  1  0
  1 62  1  0
  7  3  1  0
 47  9  1  0
 32 11  1  0
 46 40  1  0
 24 15  1  0
 24 19  1  0
M  END
>  <cnnaffinities>  (91) 
[6.45407, 6.0153, 6.05099, 5.97127]

>  <score>  (91) 
6.45407

>  <index>  (91) 
93

>  <Smiles>  (91) 
C(C(n1nc(c(c1C(N1C([C@@]2(C(=O)N(c3c(nc(c4c(c(c(c(c34)[H])[H])[H])[H])[H])[H])C([C@@]2(C([H])([H])[H])[H])([H])[H])c2c(c(F)c(c(c2C1=O)[H])[H])[H])([H])[H])([H])[H])[H])[H])([H])[H])([H])([H])[H]

>  <h>  (91) 
<NA>

>  <Training>  (91) 
True

>  <Success>  (91) 
True

>  <enamine_searched>  (91) 
False

>  <enamine_id>  (91) 
nan

$$$$

     RDKit          3D

 66 71  0  0  0  0  0  0  0  0999 V2000
   -7.8385   -6.0307  -26.6973 C   0  0  0  0  0  0  0  0  0  0  0  0
   -8.0245   -4.6132  -26.9520 N   0  0  0  0  0  0  0  0  0  0  0  0
   -7.1009   -3.7072  -26.5612 C   0  0  0  0  0  0  0  0  0  0  0  0
   -6.0572   -4.0229  -25.9950 O   0  0  0  0  0  0  0  0  0  0  0  0
   -7.4520   -2.2387  -26.8090 C   0  0  0  0  0  0  0  0  0  0  0  0
   -8.3552   -1.7239  -25.7877 N   0  0  0  0  0  0  0  0  0  0  0  0
   -7.8281   -1.2405  -24.5139 C   0  0  0  0  0  0  0  0  0  0  0  0
   -8.7281   -1.5410  -23.2752 C   0  0  2  0  0  0  0  0  0  0  0  0
   -8.2704   -0.5675  -22.1664 C   0  0  0  0  0  0  0  0  0  0  0  0
   -8.4738    0.6288  -22.1339 O   0  0  0  0  0  0  0  0  0  0  0  0
   -7.5037   -1.2620  -21.2474 N   0  0  0  0  0  0  0  0  0  0  0  0
   -6.7287   -0.6770  -20.2160 C   0  0  0  0  0  0  0  0  0  0  0  0
   -6.9308   -1.0869  -18.9202 C   0  0  0  0  0  0  0  0  0  0  0  0
   -6.2105   -0.6709  -17.8515 N   0  0  0  0  0  0  0  0  0  0  0  0
   -5.2265    0.1643  -18.0804 C   0  0  0  0  0  0  0  0  0  0  0  0
   -4.8948    0.6651  -19.3709 C   0  0  0  0  0  0  0  0  0  0  0  0
   -3.8149    1.5695  -19.5583 C   0  0  0  0  0  0  0  0  0  0  0  0
   -3.5284    2.0621  -20.8003 C   0  0  0  0  0  0  0  0  0  0  0  0
   -4.2967    1.6586  -21.9167 C   0  0  0  0  0  0  0  0  0  0  0  0
   -5.3307    0.7699  -21.7632 C   0  0  0  0  0  0  0  0  0  0  0  0
   -5.6698    0.2554  -20.4796 C   0  0  0  0  0  0  0  0  0  0  0  0
   -5.9234    0.4903  -22.6273 H   0  0  0  0  0  0  0  0  0  0  0  0
   -4.0790    2.0690  -22.8981 H   0  0  0  0  0  0  0  0  0  0  0  0
   -2.7380    2.7958  -20.9309 H   0  0  0  0  0  0  0  0  0  0  0  0
   -3.2261    1.8552  -18.6907 H   0  0  0  0  0  0  0  0  0  0  0  0
   -4.6461    0.4967  -17.2194 H   0  0  0  0  0  0  0  0  0  0  0  0
   -7.7465   -1.7741  -18.7022 H   0  0  0  0  0  0  0  0  0  0  0  0
   -7.3912   -2.6803  -21.5362 C   0  0  0  0  0  0  0  0  0  0  0  0
   -8.4801   -2.9140  -22.5837 C   0  0  2  0  0  0  0  0  0  0  0  0
   -8.1919   -4.0866  -23.5156 C   0  0  0  0  0  0  0  0  0  0  0  0
   -8.1275   -5.3454  -22.8019 N   0  0  0  0  0  0  0  0  0  0  0  0
   -6.9922   -5.9105  -22.3094 C   0  0  0  0  0  0  0  0  0  0  0  0
   -5.7236   -5.7022  -22.8769 C   0  0  0  0  0  0  0  0  0  0  0  0
   -4.6695   -6.3515  -22.2657 C   0  0  0  0  0  0  0  0  0  0  0  0
   -4.8206   -7.1151  -21.1788 N   0  0  0  0  0  0  0  0  0  0  0  0
   -6.0624   -7.2382  -20.7375 C   0  0  0  0  0  0  0  0  0  0  0  0
   -7.1645   -6.7042  -21.2411 N   0  0  0  0  0  0  0  0  0  0  0  0
   -6.1929   -7.8606  -19.8534 H   0  0  0  0  0  0  0  0  0  0  0  0
   -3.6489   -6.2655  -22.6430 H   0  0  0  0  0  0  0  0  0  0  0  0
   -5.6024   -5.0862  -23.7631 H   0  0  0  0  0  0  0  0  0  0  0  0
   -8.9193   -5.5139  -22.1976 H   0  0  0  0  0  0  0  0  0  0  0  0
   -9.0056   -4.1413  -24.2487 H   0  0  0  0  0  0  0  0  0  0  0  0
   -7.2536   -3.9173  -24.0454 H   0  0  0  0  0  0  0  0  0  0  0  0
   -9.4138   -3.1426  -22.0484 H   0  0  0  0  0  0  0  0  0  0  0  0
   -7.5519   -3.2681  -20.6291 H   0  0  0  0  0  0  0  0  0  0  0  0
   -6.3826   -2.9223  -21.9070 H   0  0  0  0  0  0  0  0  0  0  0  0
  -10.1865   -1.3666  -23.6491 C   0  0  0  0  0  0  0  0  0  0  0  0
  -11.1563   -1.2952  -22.6382 C   0  0  0  0  0  0  0  0  0  0  0  0
  -12.4960   -1.1784  -22.9647 C   0  0  0  0  0  0  0  0  0  0  0  0
  -13.7378   -1.1931  -21.7448 Cl  0  0  0  0  0  0  0  0  0  0  0  0
  -12.9061   -1.1084  -24.2964 C   0  0  0  0  0  0  0  0  0  0  0  0
  -11.9580   -1.2074  -25.2967 C   0  0  0  0  0  0  0  0  0  0  0  0
  -10.6167   -1.4000  -24.9774 C   0  0  0  0  0  0  0  0  0  0  0  0
   -9.6853   -1.8180  -26.0636 C   0  0  0  0  0  0  0  0  0  0  0  0
  -10.0965   -2.2805  -27.1262 O   0  0  0  0  0  0  0  0  0  0  0  0
  -12.2352   -1.1670  -26.3469 H   0  0  0  0  0  0  0  0  0  0  0  0
  -13.9656   -1.0558  -24.5159 H   0  0  0  0  0  0  0  0  0  0  0  0
  -10.8471   -1.3417  -21.6011 H   0  0  0  0  0  0  0  0  0  0  0  0
   -7.6995   -0.1499  -24.5615 H   0  0  0  0  0  0  0  0  0  0  0  0
   -6.8423   -1.7060  -24.3841 H   0  0  0  0  0  0  0  0  0  0  0  0
   -6.5268   -1.6611  -26.8271 H   0  0  0  0  0  0  0  0  0  0  0  0
   -7.9691   -2.1387  -27.7641 H   0  0  0  0  0  0  0  0  0  0  0  0
   -8.8966   -4.2783  -27.3319 H   0  0  0  0  0  0  0  0  0  0  0  0
   -7.5812   -6.1942  -25.6417 H   0  0  0  0  0  0  0  0  0  0  0  0
   -8.7677   -6.5592  -26.9214 H   0  0  0  0  0  0  0  0  0  0  0  0
   -7.0441   -6.4491  -27.3263 H   0  0  0  0  0  0  0  0  0  0  0  0
  1  2  1  0
  2  3  1  0
  3  4  2  0
  3  5  1  0
  5  6  1  0
  6  7  1  0
  8  7  1  6
  8  9  1  0
  9 10  2  0
  9 11  1  0
 11 12  1  0
 12 13  2  0
 13 14  1  0
 14 15  2  0
 15 16  1  0
 16 17  2  0
 17 18  1  0
 18 19  2  0
 19 20  1  0
 20 21  2  0
 20 22  1  0
 19 23  1  0
 18 24  1  0
 17 25  1  0
 15 26  1  0
 13 27  1  0
 11 28  1  0
 28 29  1  0
 29 30  1  0
 30 31  1  0
 31 32  1  0
 32 33  2  0
 33 34  1  0
 34 35  2  0
 35 36  1  0
 36 37  2  0
 36 38  1  0
 34 39  1  0
 33 40  1  0
 31 41  1  0
 30 42  1  0
 30 43  1  0
 29 44  1  1
 28 45  1  0
 28 46  1  0
  8 47  1  0
 47 48  2  0
 48 49  1  0
 49 50  1  0
 49 51  2  0
 51 52  1  0
 52 53  2  0
 53 54  1  0
 54 55  2  0
 52 56  1  0
 51 57  1  0
 48 58  1  0
  7 59  1  0
  7 60  1  0
  5 61  1  0
  5 62  1  0
  2 63  1  0
  1 64  1  0
  1 65  1  0
  1 66  1  0
 54  6  1  0
 29  8  1  0
 37 32  1  0
 53 47  1  0
 21 12  1  0
 21 16  1  0
M  END
>  <cnnaffinities>  (92) 
[6.12675, 6.43259]

>  <score>  (92) 
6.12675

>  <index>  (92) 
95

>  <Smiles>  (92) 
C(N(C(=O)C(N1C([C@@]2(C(=O)N(c3c(nc(c4c(c(c(c(c34)[H])[H])[H])[H])[H])[H])C([C@@]2(C(N(c2c(c(nc(n2)[H])[H])[H])[H])([H])[H])[H])([H])[H])c2c(c(Cl)c(c(c2C1=O)[H])[H])[H])([H])[H])([H])[H])[H])([H])([H])[H]

>  <h>  (92) 
<NA>

>  <Training>  (92) 
True

>  <Success>  (92) 
True

>  <enamine_searched>  (92) 
False

>  <enamine_id>  (92) 
nan

$$$$

     RDKit          3D

 66 70  0  0  0  0  0  0  0  0999 V2000
   -7.6394    3.0590  -21.9702 C   0  0  0  0  0  0  0  0  0  0  0  0
   -8.8055    2.5856  -22.6983 N   0  0  0  0  0  0  0  0  0  0  0  0
   -8.5314    1.7686  -23.7589 C   0  0  0  0  0  0  0  0  0  0  0  0
   -7.3785    1.5055  -24.0864 O   0  0  0  0  0  0  0  0  0  0  0  0
   -9.6987    1.1712  -24.5366 C   0  0  0  0  0  0  0  0  0  0  0  0
  -10.1313   -0.0506  -23.8920 N   0  0  0  0  0  0  0  0  0  0  0  0
   -9.2358   -1.2001  -23.8857 C   0  0  0  0  0  0  0  0  0  0  0  0
   -9.3013   -1.9438  -22.5269 C   0  0  2  0  0  0  0  0  0  0  0  0
   -8.7072   -1.0084  -21.4396 C   0  0  0  0  0  0  0  0  0  0  0  0
   -9.2405   -0.0291  -20.9502 O   0  0  0  0  0  0  0  0  0  0  0  0
   -7.4230   -1.4301  -21.1574 N   0  0  0  0  0  0  0  0  0  0  0  0
   -6.6425   -0.8168  -20.1465 C   0  0  0  0  0  0  0  0  0  0  0  0
   -6.9343   -1.0619  -18.8252 C   0  0  0  0  0  0  0  0  0  0  0  0
   -6.2228   -0.5784  -17.7810 N   0  0  0  0  0  0  0  0  0  0  0  0
   -5.1958    0.1898  -18.0576 C   0  0  0  0  0  0  0  0  0  0  0  0
   -4.7976    0.5463  -19.3782 C   0  0  0  0  0  0  0  0  0  0  0  0
   -3.7004    1.4162  -19.6191 C   0  0  0  0  0  0  0  0  0  0  0  0
   -3.4288    1.8568  -20.8853 C   0  0  0  0  0  0  0  0  0  0  0  0
   -4.2220    1.4315  -21.9717 C   0  0  0  0  0  0  0  0  0  0  0  0
   -5.2337    0.5136  -21.7783 C   0  0  0  0  0  0  0  0  0  0  0  0
   -5.5581    0.0588  -20.4681 C   0  0  0  0  0  0  0  0  0  0  0  0
   -5.8160    0.1879  -22.6339 H   0  0  0  0  0  0  0  0  0  0  0  0
   -4.0463    1.8471  -22.9591 H   0  0  0  0  0  0  0  0  0  0  0  0
   -2.6046    2.5434  -21.0579 H   0  0  0  0  0  0  0  0  0  0  0  0
   -3.1058    1.7399  -18.7695 H   0  0  0  0  0  0  0  0  0  0  0  0
   -4.6208    0.5732  -17.2145 H   0  0  0  0  0  0  0  0  0  0  0  0
   -7.7827   -1.6951  -18.5797 H   0  0  0  0  0  0  0  0  0  0  0  0
   -6.9899   -2.5574  -21.9651 C   0  0  0  0  0  0  0  0  0  0  0  0
   -8.3222   -3.1459  -22.4546 C   0  0  2  0  0  0  0  0  0  0  0  0
   -8.2008   -3.9848  -23.7270 C   0  0  0  0  0  0  0  0  0  0  0  0
   -7.4539   -5.1538  -23.4804 O   0  0  0  0  0  0  0  0  0  0  0  0
   -6.1665   -5.2223  -24.0847 C   0  0  0  0  0  0  0  0  0  0  0  0
   -5.3405   -6.1395  -23.2007 C   0  0  0  0  0  0  0  0  0  0  0  0
   -4.3070   -6.2202  -23.5573 H   0  0  0  0  0  0  0  0  0  0  0  0
   -5.7925   -7.1365  -23.1908 H   0  0  0  0  0  0  0  0  0  0  0  0
   -5.3311   -5.7536  -22.1774 H   0  0  0  0  0  0  0  0  0  0  0  0
   -6.2574   -5.7354  -25.5202 C   0  0  0  0  0  0  0  0  0  0  0  0
   -6.8569   -5.0704  -26.1532 H   0  0  0  0  0  0  0  0  0  0  0  0
   -6.7179   -6.7301  -25.5376 H   0  0  0  0  0  0  0  0  0  0  0  0
   -5.2536   -5.8072  -25.9570 H   0  0  0  0  0  0  0  0  0  0  0  0
   -5.7100   -4.2166  -24.0950 H   0  0  0  0  0  0  0  0  0  0  0  0
   -9.2027   -4.2871  -24.0613 H   0  0  0  0  0  0  0  0  0  0  0  0
   -7.7475   -3.3814  -24.5340 H   0  0  0  0  0  0  0  0  0  0  0  0
   -8.6625   -3.8076  -21.6546 H   0  0  0  0  0  0  0  0  0  0  0  0
   -6.3677   -2.2283  -22.8138 H   0  0  0  0  0  0  0  0  0  0  0  0
   -6.4104   -3.2732  -21.3706 H   0  0  0  0  0  0  0  0  0  0  0  0
  -10.7699   -2.2716  -22.2947 C   0  0  0  0  0  0  0  0  0  0  0  0
  -11.1941   -3.4122  -21.6070 C   0  0  0  0  0  0  0  0  0  0  0  0
  -12.5263   -3.5697  -21.2651 C   0  0  0  0  0  0  0  0  0  0  0  0
  -12.9756   -4.8941  -20.2312 Cl  0  0  0  0  0  0  0  0  0  0  0  0
  -13.5058   -2.6650  -21.6600 C   0  0  0  0  0  0  0  0  0  0  0  0
  -13.1105   -1.5714  -22.3999 C   0  0  0  0  0  0  0  0  0  0  0  0
  -11.7666   -1.3752  -22.7083 C   0  0  0  0  0  0  0  0  0  0  0  0
  -11.4265   -0.1374  -23.4721 C   0  0  0  0  0  0  0  0  0  0  0  0
  -12.2544    0.7340  -23.6978 O   0  0  0  0  0  0  0  0  0  0  0  0
  -13.8197   -0.8274  -22.7423 H   0  0  0  0  0  0  0  0  0  0  0  0
  -14.5412   -2.8125  -21.3772 H   0  0  0  0  0  0  0  0  0  0  0  0
  -10.5046   -4.1790  -21.2851 H   0  0  0  0  0  0  0  0  0  0  0  0
   -9.5208   -1.8967  -24.6863 H   0  0  0  0  0  0  0  0  0  0  0  0
   -8.2201   -0.8446  -24.0868 H   0  0  0  0  0  0  0  0  0  0  0  0
   -9.3429    0.9416  -25.5466 H   0  0  0  0  0  0  0  0  0  0  0  0
  -10.5663    1.8349  -24.6105 H   0  0  0  0  0  0  0  0  0  0  0  0
   -9.6425    2.4420  -22.1395 H   0  0  0  0  0  0  0  0  0  0  0  0
   -7.1272    2.2189  -21.4791 H   0  0  0  0  0  0  0  0  0  0  0  0
   -7.9208    3.8166  -21.2379 H   0  0  0  0  0  0  0  0  0  0  0  0
   -6.9596    3.5284  -22.6870 H   0  0  0  0  0  0  0  0  0  0  0  0
  1  2  1  0
  2  3  1  0
  3  4  2  0
  3  5  1  0
  5  6  1  0
  6  7  1  0
  8  7  1  6
  8  9  1  0
  9 10  2  0
  9 11  1  0
 11 12  1  0
 12 13  2  0
 13 14  1  0
 14 15  2  0
 15 16  1  0
 16 17  2  0
 17 18  1  0
 18 19  2  0
 19 20  1  0
 20 21  2  0
 20 22  1  0
 19 23  1  0
 18 24  1  0
 17 25  1  0
 15 26  1  0
 13 27  1  0
 11 28  1  0
 28 29  1  0
 29 30  1  0
 30 31  1  0
 31 32  1  0
 32 33  1  0
 33 34  1  0
 33 35  1  0
 33 36  1  0
 32 37  1  0
 37 38  1  0
 37 39  1  0
 37 40  1  0
 32 41  1  0
 30 42  1  0
 30 43  1  0
 29 44  1  1
 28 45  1  0
 28 46  1  0
  8 47  1  0
 47 48  2  0
 48 49  1  0
 49 50  1  0
 49 51  2  0
 51 52  1  0
 52 53  2  0
 53 54  1  0
 54 55  2  0
 52 56  1  0
 51 57  1  0
 48 58  1  0
  7 59  1  0
  7 60  1  0
  5 61  1  0
  5 62  1  0
  2 63  1  0
  1 64  1  0
  1 65  1  0
  1 66  1  0
 54  6  1  0
 29  8  1  0
 53 47  1  0
 21 12  1  0
 21 16  1  0
M  END
>  <cnnaffinities>  (93) 
[6.60588, 5.88978]

>  <score>  (93) 
6.60588

>  <index>  (93) 
96

>  <Smiles>  (93) 
C(N(C(=O)C(N1C([C@@]2(C(=O)N(c3c(nc(c4c(c(c(c(c34)[H])[H])[H])[H])[H])[H])C([C@@]2(C(OC(C([H])([H])[H])(C([H])([H])[H])[H])([H])[H])[H])([H])[H])c2c(c(Cl)c(c(c2C1=O)[H])[H])[H])([H])[H])([H])[H])[H])([H])([H])[H]

>  <h>  (93) 
<NA>

>  <Training>  (93) 
True

>  <Success>  (93) 
True

>  <enamine_searched>  (93) 
False

>  <enamine_id>  (93) 
nan

$$$$

     RDKit          3D

 40 43  0  0  0  0  0  0  0  0999 V2000
  -12.5807   -3.9307  -21.0448 C   0  0  0  0  0  0  0  0  0  0  0  0
  -11.5863   -2.9386  -21.6919 C   0  0  2  0  0  0  0  0  0  0  0  0
  -12.0662   -2.4660  -23.0566 C   0  0  0  0  0  0  0  0  0  0  0  0
  -11.2368   -1.4524  -23.5783 O   0  0  0  0  0  0  0  0  0  0  0  0
   -9.9135   -1.8835  -23.7705 C   0  0  0  0  0  0  0  0  0  0  0  0
   -9.2324   -2.3846  -22.4866 C   0  0  1  0  0  0  0  0  0  0  0  0
  -10.1525   -3.4459  -21.8456 C   0  0  0  0  0  0  0  0  0  0  0  0
  -10.1322   -4.3139  -22.5161 H   0  0  0  0  0  0  0  0  0  0  0  0
   -9.7252   -3.7437  -20.8824 H   0  0  0  0  0  0  0  0  0  0  0  0
   -7.9234   -2.9202  -22.8302 N   0  0  0  0  0  0  0  0  0  0  0  0
   -6.9222   -2.5179  -21.9800 C   0  0  0  0  0  0  0  0  0  0  0  0
   -5.8034   -2.9550  -21.8690 O   0  0  0  0  0  0  0  0  0  0  0  0
   -7.4615   -1.4625  -21.2260 N   0  0  0  0  0  0  0  0  0  0  0  0
   -6.7108   -0.8238  -20.1948 C   0  0  0  0  0  0  0  0  0  0  0  0
   -6.9831   -1.1055  -18.8793 C   0  0  0  0  0  0  0  0  0  0  0  0
   -6.2668   -0.6330  -17.8260 N   0  0  0  0  0  0  0  0  0  0  0  0
   -5.2440    0.1492  -18.0766 C   0  0  0  0  0  0  0  0  0  0  0  0
   -4.8556    0.5338  -19.3915 C   0  0  0  0  0  0  0  0  0  0  0  0
   -3.7785    1.4407  -19.6049 C   0  0  0  0  0  0  0  0  0  0  0  0
   -3.5485    1.9548  -20.8531 C   0  0  0  0  0  0  0  0  0  0  0  0
   -4.3450    1.5381  -21.9475 C   0  0  0  0  0  0  0  0  0  0  0  0
   -5.3460    0.6087  -21.7771 C   0  0  0  0  0  0  0  0  0  0  0  0
   -5.6269    0.0722  -20.4874 C   0  0  0  0  0  0  0  0  0  0  0  0
   -5.9634    0.3092  -22.6197 H   0  0  0  0  0  0  0  0  0  0  0  0
   -4.1680    1.9626  -22.9346 H   0  0  0  0  0  0  0  0  0  0  0  0
   -2.7744    2.7059  -21.0145 H   0  0  0  0  0  0  0  0  0  0  0  0
   -3.1852    1.7607  -18.7479 H   0  0  0  0  0  0  0  0  0  0  0  0
   -4.6718    0.5491  -17.2301 H   0  0  0  0  0  0  0  0  0  0  0  0
   -7.8109   -1.7620  -18.6192 H   0  0  0  0  0  0  0  0  0  0  0  0
   -8.8234   -1.2818  -21.4883 C   0  0  0  0  0  0  0  0  0  0  0  0
   -9.5124   -0.4114  -21.0115 O   0  0  0  0  0  0  0  0  0  0  0  0
   -7.8416   -3.8248  -23.2679 H   0  0  0  0  0  0  0  0  0  0  0  0
   -9.3499   -1.0411  -24.1751 H   0  0  0  0  0  0  0  0  0  0  0  0
   -9.8656   -2.7201  -24.4933 H   0  0  0  0  0  0  0  0  0  0  0  0
  -13.0625   -2.0305  -22.9767 H   0  0  0  0  0  0  0  0  0  0  0  0
  -12.1251   -3.3279  -23.7466 H   0  0  0  0  0  0  0  0  0  0  0  0
  -11.5009   -2.0508  -21.0718 H   0  0  0  0  0  0  0  0  0  0  0  0
  -12.0789   -4.7397  -20.4973 H   0  0  0  0  0  0  0  0  0  0  0  0
  -13.2418   -4.3977  -21.7861 H   0  0  0  0  0  0  0  0  0  0  0  0
  -13.2228   -3.4157  -20.3203 H   0  0  0  0  0  0  0  0  0  0  0  0
  1  2  1  0
  2  3  1  0
  3  4  1  0
  4  5  1  0
  5  6  1  0
  6  7  1  0
  7  8  1  0
  7  9  1  0
  6 10  1  6
 10 11  1  0
 11 12  2  0
 11 13  1  0
 13 14  1  0
 14 15  2  0
 15 16  1  0
 16 17  2  0
 17 18  1  0
 18 19  2  0
 19 20  1  0
 20 21  2  0
 21 22  1  0
 22 23  2  0
 22 24  1  0
 21 25  1  0
 20 26  1  0
 19 27  1  0
 17 28  1  0
 15 29  1  0
 13 30  1  0
 30 31  2  0
 10 32  1  0
  5 33  1  0
  5 34  1  0
  3 35  1  0
  3 36  1  0
  2 37  1  1
  1 38  1  0
  1 39  1  0
  1 40  1  0
  7  2  1  0
 23 14  1  0
 30  6  1  0
 23 18  1  0
M  END
>  <cnnaffinities>  (94) 
[5.18291, 4.80059, 5.04219, 4.75828]

>  <score>  (94) 
5.18291

>  <index>  (94) 
97

>  <Smiles>  (94) 
C([C@@]1(C(OC([C@@]2(C1([H])[H])N(C(=O)N(c1c(nc(c3c(c(c(c(c13)[H])[H])[H])[H])[H])[H])C2=O)[H])([H])[H])([H])[H])[H])([H])([H])[H]

>  <h>  (94) 
<NA>

>  <Training>  (94) 
True

>  <Success>  (94) 
True

>  <enamine_searched>  (94) 
False

>  <enamine_id>  (94) 
nan

$$$$
