
     RDKit          3D

 66 71  0  0  0  0  0  0  0  0999 V2000
   -6.7689    0.0863  -29.3843 C   0  0  0  0  0  0  0  0  0  0  0  0
   -7.0940    0.4797  -28.0338 N   0  0  0  0  0  0  0  0  0  0  0  0
   -6.4233   -0.0333  -26.9738 C   0  0  0  0  0  0  0  0  0  0  0  0
   -5.5451   -0.8767  -27.0646 O   0  0  0  0  0  0  0  0  0  0  0  0
   -6.8381    0.5577  -25.6230 C   0  0  0  0  0  0  0  0  0  0  0  0
   -7.9821   -0.1001  -25.0345 N   0  0  0  0  0  0  0  0  0  0  0  0
   -7.7788   -1.3856  -24.4007 C   0  0  0  0  0  0  0  0  0  0  0  0
   -8.6796   -1.5285  -23.1503 C   0  0  2  0  0  0  0  0  0  0  0  0
   -8.1444   -0.5963  -22.0342 C   0  0  0  0  0  0  0  0  0  0  0  0
   -8.3064    0.5983  -21.9357 O   0  0  0  0  0  0  0  0  0  0  0  0
   -7.3977   -1.3588  -21.1565 N   0  0  0  0  0  0  0  0  0  0  0  0
   -6.6112   -0.8000  -20.1186 C   0  0  0  0  0  0  0  0  0  0  0  0
   -6.9016   -1.0747  -18.8056 C   0  0  0  0  0  0  0  0  0  0  0  0
   -6.2307   -0.5642  -17.7423 N   0  0  0  0  0  0  0  0  0  0  0  0
   -5.2086    0.2198  -17.9955 C   0  0  0  0  0  0  0  0  0  0  0  0
   -4.7616    0.5476  -19.3085 C   0  0  0  0  0  0  0  0  0  0  0  0
   -3.6377    1.3892  -19.5394 C   0  0  0  0  0  0  0  0  0  0  0  0
   -3.2281    1.6646  -20.8159 C   0  0  0  0  0  0  0  0  0  0  0  0
   -3.9151    1.1125  -21.9190 C   0  0  0  0  0  0  0  0  0  0  0  0
   -4.9981    0.2972  -21.7224 C   0  0  0  0  0  0  0  0  0  0  0  0
   -5.4673    0.0139  -20.4085 C   0  0  0  0  0  0  0  0  0  0  0  0
   -5.5121   -0.1373  -22.5740 H   0  0  0  0  0  0  0  0  0  0  0  0
   -3.5767    1.3324  -22.9262 H   0  0  0  0  0  0  0  0  0  0  0  0
   -2.3704    2.3060  -20.9955 H   0  0  0  0  0  0  0  0  0  0  0  0
   -3.1106    1.8072  -18.6872 H   0  0  0  0  0  0  0  0  0  0  0  0
   -4.6751    0.6281  -17.1369 H   0  0  0  0  0  0  0  0  0  0  0  0
   -7.7454   -1.7237  -18.5727 H   0  0  0  0  0  0  0  0  0  0  0  0
   -7.3391   -2.7652  -21.4999 C   0  0  0  0  0  0  0  0  0  0  0  0
   -8.4950   -2.9224  -22.5033 C   0  0  2  0  0  0  0  0  0  0  0  0
   -8.3692   -4.0853  -23.4992 C   0  0  0  0  0  0  0  0  0  0  0  0
   -8.3278   -5.3838  -22.8611 N   0  0  0  0  0  0  0  0  0  0  0  0
   -7.2040   -5.9448  -22.3304 C   0  0  0  0  0  0  0  0  0  0  0  0
   -5.9104   -5.6093  -22.7721 C   0  0  0  0  0  0  0  0  0  0  0  0
   -4.8622   -6.2661  -22.1633 C   0  0  0  0  0  0  0  0  0  0  0  0
   -5.0402   -7.1454  -21.1696 N   0  0  0  0  0  0  0  0  0  0  0  0
   -6.3002   -7.3742  -20.8364 C   0  0  0  0  0  0  0  0  0  0  0  0
   -7.3995   -6.8495  -21.3582 N   0  0  0  0  0  0  0  0  0  0  0  0
   -6.4590   -8.0657  -20.0083 H   0  0  0  0  0  0  0  0  0  0  0  0
   -3.8269   -6.0727  -22.4504 H   0  0  0  0  0  0  0  0  0  0  0  0
   -5.7448   -4.8621  -23.5412 H   0  0  0  0  0  0  0  0  0  0  0  0
   -9.1660   -5.6077  -22.3430 H   0  0  0  0  0  0  0  0  0  0  0  0
   -7.4860   -3.9651  -24.1320 H   0  0  0  0  0  0  0  0  0  0  0  0
   -9.2358   -4.0548  -24.1740 H   0  0  0  0  0  0  0  0  0  0  0  0
   -9.3865   -3.1202  -21.9039 H   0  0  0  0  0  0  0  0  0  0  0  0
   -7.4600   -3.3728  -20.5991 H   0  0  0  0  0  0  0  0  0  0  0  0
   -6.3589   -3.0221  -21.9272 H   0  0  0  0  0  0  0  0  0  0  0  0
  -10.0992   -1.1574  -23.5486 C   0  0  0  0  0  0  0  0  0  0  0  0
  -11.2098   -1.5776  -22.8034 C   0  0  0  0  0  0  0  0  0  0  0  0
  -12.4802   -1.1416  -23.1386 C   0  0  0  0  0  0  0  0  0  0  0  0
  -13.8408   -1.6672  -22.1965 Cl  0  0  0  0  0  0  0  0  0  0  0  0
  -12.7110   -0.2874  -24.2145 C   0  0  0  0  0  0  0  0  0  0  0  0
  -11.6320    0.1063  -24.9758 C   0  0  0  0  0  0  0  0  0  0  0  0
  -10.3438   -0.3034  -24.6354 C   0  0  0  0  0  0  0  0  0  0  0  0
   -9.2295    0.2311  -25.4620 C   0  0  0  0  0  0  0  0  0  0  0  0
   -9.4258    0.9379  -26.4532 O   0  0  0  0  0  0  0  0  0  0  0  0
  -11.7571    0.7438  -25.8416 H   0  0  0  0  0  0  0  0  0  0  0  0
  -13.7153    0.0648  -24.4230 H   0  0  0  0  0  0  0  0  0  0  0  0
  -11.1119   -2.2313  -21.9444 H   0  0  0  0  0  0  0  0  0  0  0  0
   -8.0083   -2.1759  -25.1305 H   0  0  0  0  0  0  0  0  0  0  0  0
   -6.7225   -1.4722  -24.1265 H   0  0  0  0  0  0  0  0  0  0  0  0
   -5.9836    0.4413  -24.9520 H   0  0  0  0  0  0  0  0  0  0  0  0
   -7.0717    1.6214  -25.7149 H   0  0  0  0  0  0  0  0  0  0  0  0
   -8.0069    0.8708  -27.8415 H   0  0  0  0  0  0  0  0  0  0  0  0
   -5.6875    0.1526  -29.5295 H   0  0  0  0  0  0  0  0  0  0  0  0
   -7.2523    0.7798  -30.0774 H   0  0  0  0  0  0  0  0  0  0  0  0
   -7.0995   -0.9352  -29.6075 H   0  0  0  0  0  0  0  0  0  0  0  0
  1  2  1  0
  2  3  1  0
  3  4  2  0
  3  5  1  0
  5  6  1  0
  6  7  1  0
  8  7  1  6
  8  9  1  0
  9 10  2  0
  9 11  1  0
 11 12  1  0
 12 13  2  0
 13 14  1  0
 14 15  2  0
 15 16  1  0
 16 17  2  0
 17 18  1  0
 18 19  2  0
 19 20  1  0
 20 21  2  0
 20 22  1  0
 19 23  1  0
 18 24  1  0
 17 25  1  0
 15 26  1  0
 13 27  1  0
 11 28  1  0
 28 29  1  0
 29 30  1  0
 30 31  1  0
 31 32  1  0
 32 33  2  0
 33 34  1  0
 34 35  2  0
 35 36  1  0
 36 37  2  0
 36 38  1  0
 34 39  1  0
 33 40  1  0
 31 41  1  0
 30 42  1  0
 30 43  1  0
 29 44  1  1
 28 45  1  0
 28 46  1  0
  8 47  1  0
 47 48  2  0
 48 49  1  0
 49 50  1  0
 49 51  2  0
 51 52  1  0
 52 53  2  0
 53 54  1  0
 54 55  2  0
 52 56  1  0
 51 57  1  0
 48 58  1  0
  7 59  1  0
  7 60  1  0
  5 61  1  0
  5 62  1  0
  2 63  1  0
  1 64  1  0
  1 65  1  0
  1 66  1  0
 54  6  1  0
 29  8  1  0
 37 32  1  0
 53 47  1  0
 21 12  1  0
 21 16  1  0
M  END
>  <cnnaffinities>  (1) 
[5.72904, 5.92264, 6.54539, 6.4483]

>  <score>  (1) 
5.72904

>  <index>  (1) 
0

>  <Smiles>  (1) 
C(N(C(=O)C(N1C([C@@]2(C(=O)N(c3c(nc(c4c(c(c(c(c34)[H])[H])[H])[H])[H])[H])C([C@@]2(C(N(c2c(c(nc(n2)[H])[H])[H])[H])([H])[H])[H])([H])[H])c2c(c(Cl)c(c(c2C1=O)[H])[H])[H])([H])[H])([H])[H])[H])([H])([H])[H]

>  <h>  (1) 
<NA>

>  <Training>  (1) 
True

>  <Success>  (1) 
True

>  <enamine_searched>  (1) 
False

>  <enamine_id>  (1) 
nan

$$$$

     RDKit          3D

 68 73  0  0  0  0  0  0  0  0999 V2000
   -7.2772    3.4355  -21.8174 C   0  0  0  0  0  0  0  0  0  0  0  0
   -8.2509    2.8942  -22.7528 N   0  0  0  0  0  0  0  0  0  0  0  0
   -7.8279    2.2058  -23.8502 C   0  0  0  0  0  0  0  0  0  0  0  0
   -6.6422    2.0118  -24.0927 O   0  0  0  0  0  0  0  0  0  0  0  0
   -8.9509    1.7037  -24.7712 C   0  0  0  0  0  0  0  0  0  0  0  0
   -9.5478    0.4871  -24.2440 N   0  0  0  0  0  0  0  0  0  0  0  0
   -8.7205   -0.6968  -24.0844 C   0  0  0  0  0  0  0  0  0  0  0  0
   -9.0732   -1.5009  -22.7988 C   0  0  2  0  0  0  0  0  0  0  0  0
   -8.5733   -0.7117  -21.5678 C   0  0  0  0  0  0  0  0  0  0  0  0
   -9.0646    0.2833  -21.0828 O   0  0  0  0  0  0  0  0  0  0  0  0
   -7.4265   -1.3110  -21.1025 N   0  0  0  0  0  0  0  0  0  0  0  0
   -6.6387   -0.7381  -20.0901 C   0  0  0  0  0  0  0  0  0  0  0  0
   -6.9457   -0.9832  -18.7795 C   0  0  0  0  0  0  0  0  0  0  0  0
   -6.2218   -0.5168  -17.7362 N   0  0  0  0  0  0  0  0  0  0  0  0
   -5.1695    0.2153  -18.0192 C   0  0  0  0  0  0  0  0  0  0  0  0
   -4.7423    0.5395  -19.3409 C   0  0  0  0  0  0  0  0  0  0  0  0
   -3.6137    1.3633  -19.6012 C   0  0  0  0  0  0  0  0  0  0  0  0
   -3.2566    1.6697  -20.8868 C   0  0  0  0  0  0  0  0  0  0  0  0
   -4.0049    1.1701  -21.9793 C   0  0  0  0  0  0  0  0  0  0  0  0
   -5.1010    0.3728  -21.7552 C   0  0  0  0  0  0  0  0  0  0  0  0
   -5.4963    0.0429  -20.4260 C   0  0  0  0  0  0  0  0  0  0  0  0
   -5.6923    0.0265  -22.5985 H   0  0  0  0  0  0  0  0  0  0  0  0
   -3.7231    1.4307  -22.9958 H   0  0  0  0  0  0  0  0  0  0  0  0
   -2.3955    2.3035  -21.0802 H   0  0  0  0  0  0  0  0  0  0  0  0
   -3.0593    1.7561  -18.7534 H   0  0  0  0  0  0  0  0  0  0  0  0
   -4.5932    0.5993  -17.1775 H   0  0  0  0  0  0  0  0  0  0  0  0
   -7.8134   -1.5948  -18.5416 H   0  0  0  0  0  0  0  0  0  0  0  0
   -6.9798   -2.4424  -21.8648 C   0  0  0  0  0  0  0  0  0  0  0  0
   -8.2318   -2.8096  -22.6609 C   0  0  2  0  0  0  0  0  0  0  0  0
   -7.8640   -3.5350  -23.9349 C   0  0  0  0  0  0  0  0  0  0  0  0
   -9.0307   -4.1467  -24.5158 N   0  0  0  0  0  0  0  0  0  0  0  0
   -8.8818   -4.7287  -25.7676 C   0  0  0  0  0  0  0  0  0  0  0  0
   -7.7069   -4.8221  -26.5568 C   0  0  0  0  0  0  0  0  0  0  0  0
   -7.9444   -5.4242  -27.7138 N   0  0  0  0  0  0  0  0  0  0  0  0
   -9.2314   -5.7721  -27.6638 N   0  0  0  0  0  0  0  0  0  0  0  0
   -9.8990   -6.1778  -28.8709 C   0  0  0  0  0  0  0  0  0  0  0  0
  -10.5945   -5.3957  -29.1840 H   0  0  0  0  0  0  0  0  0  0  0  0
  -10.4511   -7.1073  -28.7284 H   0  0  0  0  0  0  0  0  0  0  0  0
   -9.1409   -6.3072  -29.6426 H   0  0  0  0  0  0  0  0  0  0  0  0
   -9.8422   -5.3714  -26.5174 C   0  0  0  0  0  0  0  0  0  0  0  0
  -10.8742   -5.6178  -26.3114 H   0  0  0  0  0  0  0  0  0  0  0  0
   -6.7122   -4.4738  -26.3119 H   0  0  0  0  0  0  0  0  0  0  0  0
   -9.8988   -3.6374  -24.3847 H   0  0  0  0  0  0  0  0  0  0  0  0
   -7.3466   -2.8381  -24.6176 H   0  0  0  0  0  0  0  0  0  0  0  0
   -7.1224   -4.3160  -23.7340 H   0  0  0  0  0  0  0  0  0  0  0  0
   -8.8099   -3.5069  -22.0501 H   0  0  0  0  0  0  0  0  0  0  0  0
   -6.1308   -2.1871  -22.5200 H   0  0  0  0  0  0  0  0  0  0  0  0
   -6.6485   -3.2559  -21.2086 H   0  0  0  0  0  0  0  0  0  0  0  0
  -10.5811   -1.6738  -22.7229 C   0  0  0  0  0  0  0  0  0  0  0  0
  -11.1643   -2.6220  -21.8700 C   0  0  0  0  0  0  0  0  0  0  0  0
  -12.5337   -2.6320  -21.6683 C   0  0  0  0  0  0  0  0  0  0  0  0
  -13.1709   -3.6824  -20.4375 Cl  0  0  0  0  0  0  0  0  0  0  0  0
  -13.3825   -1.7602  -22.3508 C   0  0  0  0  0  0  0  0  0  0  0  0
  -12.8179   -0.8437  -23.2121 C   0  0  0  0  0  0  0  0  0  0  0  0
  -11.4346   -0.7549  -23.3530 C   0  0  0  0  0  0  0  0  0  0  0  0
  -10.9059    0.4267  -24.1091 C   0  0  0  0  0  0  0  0  0  0  0  0
  -11.6444    1.3029  -24.5376 O   0  0  0  0  0  0  0  0  0  0  0  0
  -13.4297   -0.1490  -23.7751 H   0  0  0  0  0  0  0  0  0  0  0  0
  -14.4517   -1.7695  -22.1689 H   0  0  0  0  0  0  0  0  0  0  0  0
  -10.5781   -3.3299  -21.2931 H   0  0  0  0  0  0  0  0  0  0  0  0
   -7.6814   -0.3639  -24.0258 H   0  0  0  0  0  0  0  0  0  0  0  0
   -8.8280   -1.3297  -24.9777 H   0  0  0  0  0  0  0  0  0  0  0  0
   -9.7625    2.4343  -24.8350 H   0  0  0  0  0  0  0  0  0  0  0  0
   -8.5572    1.5557  -25.7857 H   0  0  0  0  0  0  0  0  0  0  0  0
   -9.1839    2.7233  -22.3994 H   0  0  0  0  0  0  0  0  0  0  0  0
   -6.6440    4.1712  -22.3180 H   0  0  0  0  0  0  0  0  0  0  0  0
   -7.7953    3.9332  -20.9949 H   0  0  0  0  0  0  0  0  0  0  0  0
   -6.6250    2.6527  -21.4120 H   0  0  0  0  0  0  0  0  0  0  0  0
  1  2  1  0
  2  3  1  0
  3  4  2  0
  3  5  1  0
  5  6  1  0
  6  7  1  0
  8  7  1  6
  8  9  1  0
  9 10  2  0
  9 11  1  0
 11 12  1  0
 12 13  2  0
 13 14  1  0
 14 15  2  0
 15 16  1  0
 16 17  2  0
 17 18  1  0
 18 19  2  0
 19 20  1  0
 20 21  2  0
 20 22  1  0
 19 23  1  0
 18 24  1  0
 17 25  1  0
 15 26  1  0
 13 27  1  0
 11 28  1  0
 28 29  1  0
 29 30  1  0
 30 31  1  0
 31 32  1  0
 32 33  1  0
 33 34  2  0
 34 35  1  0
 35 36  1  0
 36 37  1  0
 36 38  1  0
 36 39  1  0
 35 40  1  0
 40 41  1  0
 33 42  1  0
 31 43  1  0
 30 44  1  0
 30 45  1  0
 29 46  1  1
 28 47  1  0
 28 48  1  0
  8 49  1  0
 49 50  2  0
 50 51  1  0
 51 52  1  0
 51 53  2  0
 53 54  1  0
 54 55  2  0
 55 56  1  0
 56 57  2  0
 54 58  1  0
 53 59  1  0
 50 60  1  0
  7 61  1  0
  7 62  1  0
  5 63  1  0
  5 64  1  0
  2 65  1  0
  1 66  1  0
  1 67  1  0
  1 68  1  0
 56  6  1  0
 29  8  1  0
 40 32  2  0
 55 49  1  0
 21 12  1  0
 21 16  1  0
M  END
>  <cnnaffinities>  (2) 
[6.21097]

>  <score>  (2) 
6.21097

>  <index>  (2) 
1

>  <Smiles>  (2) 
C(N(C(=O)C(N1C([C@@]2(C(=O)N(c3c(nc(c4c(c(c(c(c34)[H])[H])[H])[H])[H])[H])C([C@@]2(C(N(c2c(nn(C([H])([H])[H])c2[H])[H])[H])([H])[H])[H])([H])[H])c2c(c(Cl)c(c(c2C1=O)[H])[H])[H])([H])[H])([H])[H])[H])([H])([H])[H]

>  <h>  (2) 
<NA>

>  <Training>  (2) 
True

>  <Success>  (2) 
True

>  <enamine_searched>  (2) 
False

>  <enamine_id>  (2) 
nan

$$$$

     RDKit          3D

 60 65  0  0  0  0  0  0  0  0999 V2000
   -5.1913   -1.5077  -30.5034 C   0  0  0  0  0  0  0  0  0  0  0  0
   -5.6734   -0.8826  -29.2202 C   0  0  0  0  0  0  0  0  0  0  0  0
   -5.1521   -1.2693  -27.9847 C   0  0  0  0  0  0  0  0  0  0  0  0
   -5.5736   -0.7626  -26.8300 N   0  0  0  0  0  0  0  0  0  0  0  0
   -6.5615    0.1348  -26.8872 C   0  0  0  0  0  0  0  0  0  0  0  0
   -7.0783    0.6974  -25.5837 C   0  0  0  0  0  0  0  0  0  0  0  0
   -8.1831   -0.0245  -24.9877 N   0  0  0  0  0  0  0  0  0  0  0  0
   -7.9527   -1.3470  -24.4575 C   0  0  0  0  0  0  0  0  0  0  0  0
   -8.7510   -1.5210  -23.1499 C   0  0  2  0  0  0  0  0  0  0  0  0
   -8.1353   -0.5998  -22.0679 C   0  0  0  0  0  0  0  0  0  0  0  0
   -8.2194    0.6050  -21.9995 O   0  0  0  0  0  0  0  0  0  0  0  0
   -7.4235   -1.3789  -21.1854 N   0  0  0  0  0  0  0  0  0  0  0  0
   -6.6087   -0.8091  -20.1755 C   0  0  0  0  0  0  0  0  0  0  0  0
   -6.8979   -1.0549  -18.8585 C   0  0  0  0  0  0  0  0  0  0  0  0
   -6.2032   -0.5534  -17.8095 N   0  0  0  0  0  0  0  0  0  0  0  0
   -5.1715    0.2087  -18.0809 C   0  0  0  0  0  0  0  0  0  0  0  0
   -4.7376    0.5270  -19.3985 C   0  0  0  0  0  0  0  0  0  0  0  0
   -3.6049    1.3554  -19.6330 C   0  0  0  0  0  0  0  0  0  0  0  0
   -3.2000    1.6302  -20.9085 C   0  0  0  0  0  0  0  0  0  0  0  0
   -3.8977    1.0776  -22.0062 C   0  0  0  0  0  0  0  0  0  0  0  0
   -4.9884    0.2723  -21.8052 C   0  0  0  0  0  0  0  0  0  0  0  0
   -5.4615   -0.0052  -20.4894 C   0  0  0  0  0  0  0  0  0  0  0  0
   -5.5133   -0.1505  -22.6576 H   0  0  0  0  0  0  0  0  0  0  0  0
   -3.5538    1.2925  -23.0140 H   0  0  0  0  0  0  0  0  0  0  0  0
   -2.3334    2.2614  -21.0893 H   0  0  0  0  0  0  0  0  0  0  0  0
   -3.0751    1.7634  -18.7757 H   0  0  0  0  0  0  0  0  0  0  0  0
   -4.6246    0.6149  -17.2302 H   0  0  0  0  0  0  0  0  0  0  0  0
   -7.7474   -1.6860  -18.6007 H   0  0  0  0  0  0  0  0  0  0  0  0
   -7.4237   -2.7930  -21.5117 C   0  0  0  0  0  0  0  0  0  0  0  0
   -8.5566   -2.9463  -22.5490 C   0  0  2  0  0  0  0  0  0  0  0  0
   -8.2913   -4.0842  -23.5454 C   0  0  0  0  0  0  0  0  0  0  0  0
   -9.0784   -4.1588  -24.3057 H   0  0  0  0  0  0  0  0  0  0  0  0
   -8.2336   -5.0489  -23.0285 H   0  0  0  0  0  0  0  0  0  0  0  0
   -7.3401   -3.9366  -24.0730 H   0  0  0  0  0  0  0  0  0  0  0  0
   -9.4797   -3.1742  -22.0100 H   0  0  0  0  0  0  0  0  0  0  0  0
   -6.4550   -3.1017  -21.9347 H   0  0  0  0  0  0  0  0  0  0  0  0
   -7.5950   -3.3891  -20.6105 H   0  0  0  0  0  0  0  0  0  0  0  0
  -10.1879   -1.0927  -23.4022 C   0  0  0  0  0  0  0  0  0  0  0  0
  -11.1906   -1.4619  -22.4957 C   0  0  0  0  0  0  0  0  0  0  0  0
  -12.4923   -1.0732  -22.7296 C   0  0  0  0  0  0  0  0  0  0  0  0
  -13.4524   -1.4902  -21.8902 F   0  0  0  0  0  0  0  0  0  0  0  0
  -12.8513   -0.2764  -23.8097 C   0  0  0  0  0  0  0  0  0  0  0  0
  -11.8547    0.1472  -24.6694 C   0  0  0  0  0  0  0  0  0  0  0  0
  -10.5261   -0.2303  -24.4609 C   0  0  0  0  0  0  0  0  0  0  0  0
   -9.4526    0.3322  -25.3449 C   0  0  0  0  0  0  0  0  0  0  0  0
   -9.6529    1.0619  -26.3047 O   0  0  0  0  0  0  0  0  0  0  0  0
  -12.0813    0.7867  -25.5141 H   0  0  0  0  0  0  0  0  0  0  0  0
  -13.8935   -0.0011  -23.9308 H   0  0  0  0  0  0  0  0  0  0  0  0
  -10.9865   -2.0323  -21.5939 H   0  0  0  0  0  0  0  0  0  0  0  0
   -6.8775   -1.4630  -24.2785 H   0  0  0  0  0  0  0  0  0  0  0  0
   -8.2788   -2.1040  -25.1920 H   0  0  0  0  0  0  0  0  0  0  0  0
   -7.4364    1.7162  -25.7423 H   0  0  0  0  0  0  0  0  0  0  0  0
   -6.2499    0.6964  -24.8649 H   0  0  0  0  0  0  0  0  0  0  0  0
   -7.0536    0.5559  -28.1195 C   0  0  0  0  0  0  0  0  0  0  0  0
   -6.6188    0.0548  -29.2785 N   0  0  0  0  0  0  0  0  0  0  0  0
   -7.8231    1.3218  -28.1697 H   0  0  0  0  0  0  0  0  0  0  0  0
   -4.3809   -2.0317  -27.9288 H   0  0  0  0  0  0  0  0  0  0  0  0
   -5.4969   -2.5612  -30.5604 H   0  0  0  0  0  0  0  0  0  0  0  0
   -4.0952   -1.4837  -30.5551 H   0  0  0  0  0  0  0  0  0  0  0  0
   -5.6104   -0.9681  -31.3573 H   0  0  0  0  0  0  0  0  0  0  0  0
  1  2  1  0
  2  3  2  0
  3  4  1  0
  4  5  2  0
  5  6  1  0
  6  7  1  0
  7  8  1  0
  9  8  1  6
  9 10  1  0
 10 11  2  0
 10 12  1  0
 12 13  1  0
 13 14  2  0
 14 15  1  0
 15 16  2  0
 16 17  1  0
 17 18  2  0
 18 19  1  0
 19 20  2  0
 20 21  1  0
 21 22  2  0
 21 23  1  0
 20 24  1  0
 19 25  1  0
 18 26  1  0
 16 27  1  0
 14 28  1  0
 12 29  1  0
 29 30  1  0
 30 31  1  0
 31 32  1  0
 31 33  1  0
 31 34  1  0
 30 35  1  1
 29 36  1  0
 29 37  1  0
  9 38  1  0
 38 39  2  0
 39 40  1  0
 40 41  1  0
 40 42  2  0
 42 43  1  0
 43 44  2  0
 44 45  1  0
 45 46  2  0
 43 47  1  0
 42 48  1  0
 39 49  1  0
  8 50  1  0
  8 51  1  0
  6 52  1  0
  6 53  1  0
  5 54  1  0
 54 55  2  0
 54 56  1  0
  3 57  1  0
  1 58  1  0
  1 59  1  0
  1 60  1  0
 55  2  1  0
 45  7  1  0
 30  9  1  0
 44 38  1  0
 22 13  1  0
 22 17  1  0
M  END
>  <cnnaffinities>  (3) 
[5.98194]

>  <score>  (3) 
5.98194

>  <index>  (3) 
2

>  <Smiles>  (3) 
C(c1c(nc(C(N2C([C@@]3(C(=O)N(c4c(nc(c5c(c(c(c(c45)[H])[H])[H])[H])[H])[H])C([C@@]3(C([H])([H])[H])[H])([H])[H])c3c(c(F)c(c(c3C2=O)[H])[H])[H])([H])[H])([H])[H])c(n1)[H])[H])([H])([H])[H]

>  <h>  (3) 
<NA>

>  <Training>  (3) 
True

>  <Success>  (3) 
True

>  <enamine_searched>  (3) 
False

>  <enamine_id>  (3) 
nan

$$$$

     RDKit          3D

 66 70  0  0  0  0  0  0  0  0999 V2000
   -7.4556    3.3428  -21.6828 C   0  0  0  0  0  0  0  0  0  0  0  0
   -8.3730    2.9327  -22.7281 N   0  0  0  0  0  0  0  0  0  0  0  0
   -7.8251    2.2588  -23.7668 C   0  0  0  0  0  0  0  0  0  0  0  0
   -6.6115    2.1597  -23.9027 O   0  0  0  0  0  0  0  0  0  0  0  0
   -8.7723    1.6472  -24.7938 C   0  0  0  0  0  0  0  0  0  0  0  0
   -9.4590    0.4602  -24.3280 N   0  0  0  0  0  0  0  0  0  0  0  0
   -8.6956   -0.7683  -24.1949 C   0  0  0  0  0  0  0  0  0  0  0  0
   -9.0545   -1.5245  -22.8955 C   0  0  2  0  0  0  0  0  0  0  0  0
   -8.5307   -0.7521  -21.6593 C   0  0  0  0  0  0  0  0  0  0  0  0
   -9.0092    0.2482  -21.1542 O   0  0  0  0  0  0  0  0  0  0  0  0
   -7.4001   -1.3839  -21.1969 N   0  0  0  0  0  0  0  0  0  0  0  0
   -6.6039   -0.8106  -20.1688 C   0  0  0  0  0  0  0  0  0  0  0  0
   -6.9128   -1.0407  -18.8520 C   0  0  0  0  0  0  0  0  0  0  0  0
   -6.2110   -0.5451  -17.8021 N   0  0  0  0  0  0  0  0  0  0  0  0
   -5.1710    0.2068  -18.0733 C   0  0  0  0  0  0  0  0  0  0  0  0
   -4.7342    0.5304  -19.3902 C   0  0  0  0  0  0  0  0  0  0  0  0
   -3.6098    1.3673  -19.6357 C   0  0  0  0  0  0  0  0  0  0  0  0
   -3.2312    1.6650  -20.9157 C   0  0  0  0  0  0  0  0  0  0  0  0
   -3.9560    1.1416  -22.0107 C   0  0  0  0  0  0  0  0  0  0  0  0
   -5.0450    0.3299  -21.7999 C   0  0  0  0  0  0  0  0  0  0  0  0
   -5.4678    0.0038  -20.4814 C   0  0  0  0  0  0  0  0  0  0  0  0
   -5.6039   -0.0493  -22.6502 H   0  0  0  0  0  0  0  0  0  0  0  0
   -3.6544    1.3855  -23.0232 H   0  0  0  0  0  0  0  0  0  0  0  0
   -2.3720    2.3047  -21.0984 H   0  0  0  0  0  0  0  0  0  0  0  0
   -3.0694    1.7681  -18.7820 H   0  0  0  0  0  0  0  0  0  0  0  0
   -4.6169    0.6089  -17.2246 H   0  0  0  0  0  0  0  0  0  0  0  0
   -7.7655   -1.6669  -18.6007 H   0  0  0  0  0  0  0  0  0  0  0  0
   -7.0391   -2.5764  -21.9411 C   0  0  0  0  0  0  0  0  0  0  0  0
   -8.2936   -2.8821  -22.7751 C   0  0  2  0  0  0  0  0  0  0  0  0
   -7.9661   -3.6186  -24.0779 C   0  0  0  0  0  0  0  0  0  0  0  0
   -9.1233   -3.9182  -24.8294 O   0  0  0  0  0  0  0  0  0  0  0  0
   -9.6970   -5.1980  -24.5633 C   0  0  0  0  0  0  0  0  0  0  0  0
  -11.1986   -5.0783  -24.7350 C   0  0  0  0  0  0  0  0  0  0  0  0
  -11.6765   -6.0359  -24.5128 H   0  0  0  0  0  0  0  0  0  0  0  0
  -11.6098   -4.3083  -24.0770 H   0  0  0  0  0  0  0  0  0  0  0  0
  -11.4351   -4.8234  -25.7674 H   0  0  0  0  0  0  0  0  0  0  0  0
   -9.0931   -6.2338  -25.5072 C   0  0  0  0  0  0  0  0  0  0  0  0
   -9.5464   -7.2153  -25.3401 H   0  0  0  0  0  0  0  0  0  0  0  0
   -8.0116   -6.3291  -25.3616 H   0  0  0  0  0  0  0  0  0  0  0  0
   -9.2741   -5.9350  -26.5449 H   0  0  0  0  0  0  0  0  0  0  0  0
   -9.4711   -5.4769  -23.5212 H   0  0  0  0  0  0  0  0  0  0  0  0
   -7.4023   -4.5376  -23.8547 H   0  0  0  0  0  0  0  0  0  0  0  0
   -7.3233   -2.9913  -24.7087 H   0  0  0  0  0  0  0  0  0  0  0  0
   -8.9461   -3.5397  -22.1959 H   0  0  0  0  0  0  0  0  0  0  0  0
   -6.1681   -2.3869  -22.5868 H   0  0  0  0  0  0  0  0  0  0  0  0
   -6.7738   -3.3920  -21.2578 H   0  0  0  0  0  0  0  0  0  0  0  0
  -10.5659   -1.6222  -22.8335 C   0  0  0  0  0  0  0  0  0  0  0  0
  -11.1527   -2.5242  -21.9443 C   0  0  0  0  0  0  0  0  0  0  0  0
  -12.5220   -2.5680  -21.7835 C   0  0  0  0  0  0  0  0  0  0  0  0
  -13.1414   -3.5906  -20.5164 Cl  0  0  0  0  0  0  0  0  0  0  0  0
  -13.3659   -1.7582  -22.5480 C   0  0  0  0  0  0  0  0  0  0  0  0
  -12.7933   -0.8206  -23.3884 C   0  0  0  0  0  0  0  0  0  0  0  0
  -11.4055   -0.7179  -23.4972 C   0  0  0  0  0  0  0  0  0  0  0  0
  -10.8291    0.4508  -24.2382 C   0  0  0  0  0  0  0  0  0  0  0  0
  -11.5313    1.3452  -24.6859 O   0  0  0  0  0  0  0  0  0  0  0  0
  -13.3944   -0.1090  -23.9457 H   0  0  0  0  0  0  0  0  0  0  0  0
  -14.4429   -1.8369  -22.4608 H   0  0  0  0  0  0  0  0  0  0  0  0
  -10.5481   -3.1542  -21.3048 H   0  0  0  0  0  0  0  0  0  0  0  0
   -8.8983   -1.4428  -25.0402 H   0  0  0  0  0  0  0  0  0  0  0  0
   -7.6342   -0.4966  -24.1810 H   0  0  0  0  0  0  0  0  0  0  0  0
   -9.5593    2.3497  -25.0582 H   0  0  0  0  0  0  0  0  0  0  0  0
   -8.1513    1.4201  -25.6703 H   0  0  0  0  0  0  0  0  0  0  0  0
   -9.3565    2.8150  -22.5300 H   0  0  0  0  0  0  0  0  0  0  0  0
   -6.8217    2.4921  -21.4026 H   0  0  0  0  0  0  0  0  0  0  0  0
   -6.8040    4.1409  -22.0479 H   0  0  0  0  0  0  0  0  0  0  0  0
   -8.0124    3.6947  -20.8198 H   0  0  0  0  0  0  0  0  0  0  0  0
  1  2  1  0
  2  3  1  0
  3  4  2  0
  3  5  1  0
  5  6  1  0
  6  7  1  0
  8  7  1  6
  8  9  1  0
  9 10  2  0
  9 11  1  0
 11 12  1  0
 12 13  2  0
 13 14  1  0
 14 15  2  0
 15 16  1  0
 16 17  2  0
 17 18  1  0
 18 19  2  0
 19 20  1  0
 20 21  2  0
 20 22  1  0
 19 23  1  0
 18 24  1  0
 17 25  1  0
 15 26  1  0
 13 27  1  0
 11 28  1  0
 28 29  1  0
 29 30  1  0
 30 31  1  0
 31 32  1  0
 32 33  1  0
 33 34  1  0
 33 35  1  0
 33 36  1  0
 32 37  1  0
 37 38  1  0
 37 39  1  0
 37 40  1  0
 32 41  1  0
 30 42  1  0
 30 43  1  0
 29 44  1  1
 28 45  1  0
 28 46  1  0
  8 47  1  0
 47 48  2  0
 48 49  1  0
 49 50  1  0
 49 51  2  0
 51 52  1  0
 52 53  2  0
 53 54  1  0
 54 55  2  0
 52 56  1  0
 51 57  1  0
 48 58  1  0
  7 59  1  0
  7 60  1  0
  5 61  1  0
  5 62  1  0
  2 63  1  0
  1 64  1  0
  1 65  1  0
  1 66  1  0
 54  6  1  0
 29  8  1  0
 53 47  1  0
 21 12  1  0
 21 16  1  0
M  END
>  <cnnaffinities>  (4) 
[6.13547, 6.55124, 6.35344]

>  <score>  (4) 
6.13547

>  <index>  (4) 
3

>  <Smiles>  (4) 
C(N(C(=O)C(N1C([C@@]2(C(=O)N(c3c(nc(c4c(c(c(c(c34)[H])[H])[H])[H])[H])[H])C([C@@]2(C(OC(C([H])([H])[H])(C([H])([H])[H])[H])([H])[H])[H])([H])[H])c2c(c(Cl)c(c(c2C1=O)[H])[H])[H])([H])[H])([H])[H])[H])([H])([H])[H]

>  <h>  (4) 
<NA>

>  <Training>  (4) 
True

>  <Success>  (4) 
True

>  <enamine_searched>  (4) 
False

>  <enamine_id>  (4) 
nan

$$$$

     RDKit          3D

 59 64  0  0  0  0  0  0  0  0999 V2000
  -10.1385   -3.0084  -22.0561 C   0  0  0  0  0  0  0  0  0  0  0  0
   -9.1103   -2.0433  -22.6689 C   0  0  1  0  0  0  0  0  0  0  0  0
   -8.6469   -0.9930  -21.6337 C   0  0  0  0  0  0  0  0  0  0  0  0
   -7.3696   -1.4936  -21.1851 N   0  0  0  0  0  0  0  0  0  0  0  0
   -6.6093   -0.8765  -20.1708 C   0  0  0  0  0  0  0  0  0  0  0  0
   -6.9741   -1.0490  -18.8610 C   0  0  0  0  0  0  0  0  0  0  0  0
   -6.3045   -0.5244  -17.8055 N   0  0  0  0  0  0  0  0  0  0  0  0
   -5.2450    0.2022  -18.0750 C   0  0  0  0  0  0  0  0  0  0  0  0
   -4.7849    0.4905  -19.3920 C   0  0  0  0  0  0  0  0  0  0  0  0
   -3.6669    1.3360  -19.6162 C   0  0  0  0  0  0  0  0  0  0  0  0
   -3.2918    1.6630  -20.8902 C   0  0  0  0  0  0  0  0  0  0  0  0
   -4.0053    1.1500  -21.9989 C   0  0  0  0  0  0  0  0  0  0  0  0
   -5.0705    0.2999  -21.8128 C   0  0  0  0  0  0  0  0  0  0  0  0
   -5.4845   -0.0518  -20.4901 C   0  0  0  0  0  0  0  0  0  0  0  0
   -5.6074   -0.0884  -22.6778 H   0  0  0  0  0  0  0  0  0  0  0  0
   -3.6960    1.4313  -23.0015 H   0  0  0  0  0  0  0  0  0  0  0  0
   -2.4409    2.3163  -21.0604 H   0  0  0  0  0  0  0  0  0  0  0  0
   -3.1296    1.7173  -18.7527 H   0  0  0  0  0  0  0  0  0  0  0  0
   -4.6998    0.6226  -17.2299 H   0  0  0  0  0  0  0  0  0  0  0  0
   -7.8446   -1.6586  -18.6254 H   0  0  0  0  0  0  0  0  0  0  0  0
   -6.8436   -2.4918  -21.9668 C   0  0  0  0  0  0  0  0  0  0  0  0
   -5.8336   -3.1095  -21.6996 O   0  0  0  0  0  0  0  0  0  0  0  0
   -7.7752   -2.6973  -23.1773 C   0  0  1  0  0  0  0  0  0  0  0  0
   -7.8488   -4.2120  -23.4435 C   0  0  0  0  0  0  0  0  0  0  0  0
   -6.5961   -4.7057  -23.9933 N   0  0  0  0  0  0  0  0  0  0  0  0
   -6.0713   -5.9631  -23.4958 C   0  0  0  0  0  0  0  0  0  0  0  0
   -7.0580   -7.0701  -23.7077 C   0  0  0  0  0  0  0  0  0  0  0  0
   -7.6317   -7.7290  -22.7265 N   0  0  0  0  0  0  0  0  0  0  0  0
   -8.6665   -8.4109  -23.3114 C   0  0  0  0  0  0  0  0  0  0  0  0
   -8.7046   -8.1617  -24.6490 C   0  0  0  0  0  0  0  0  0  0  0  0
   -7.6413   -7.3295  -24.9159 N   0  0  0  0  0  0  0  0  0  0  0  0
   -7.2759   -6.8796  -26.2501 C   0  0  0  0  0  0  0  0  0  0  0  0
   -7.9247   -7.3912  -26.9620 H   0  0  0  0  0  0  0  0  0  0  0  0
   -7.4228   -5.8056  -26.3615 H   0  0  0  0  0  0  0  0  0  0  0  0
   -6.2399   -7.1010  -26.5078 H   0  0  0  0  0  0  0  0  0  0  0  0
   -9.4143   -8.4356  -25.4118 H   0  0  0  0  0  0  0  0  0  0  0  0
   -9.3574   -8.9800  -22.7071 H   0  0  0  0  0  0  0  0  0  0  0  0
   -5.1181   -6.1081  -24.0039 H   0  0  0  0  0  0  0  0  0  0  0  0
   -5.8806   -5.8804  -22.4200 H   0  0  0  0  0  0  0  0  0  0  0  0
   -5.9932   -4.1071  -25.0620 C   0  0  0  0  0  0  0  0  0  0  0  0
   -5.1177   -4.6522  -25.7224 O   0  0  0  0  0  0  0  0  0  0  0  0
   -6.4678   -2.7238  -25.3697 C   0  0  0  0  0  0  0  0  0  0  0  0
   -6.0829   -2.1592  -26.5864 C   0  0  0  0  0  0  0  0  0  0  0  0
   -6.3970   -0.8500  -26.8886 C   0  0  0  0  0  0  0  0  0  0  0  0
   -7.0883   -0.1267  -25.9292 C   0  0  0  0  0  0  0  0  0  0  0  0
   -7.3668    1.1615  -26.1926 F   0  0  0  0  0  0  0  0  0  0  0  0
   -7.5080   -0.6679  -24.7274 C   0  0  0  0  0  0  0  0  0  0  0  0
   -7.2401   -2.0160  -24.4418 C   0  0  0  0  0  0  0  0  0  0  0  0
   -8.0658   -0.0224  -24.0609 H   0  0  0  0  0  0  0  0  0  0  0  0
   -6.0982   -0.3816  -27.8206 H   0  0  0  0  0  0  0  0  0  0  0  0
   -5.5459   -2.7916  -27.2816 H   0  0  0  0  0  0  0  0  0  0  0  0
   -8.6764   -4.4374  -24.1271 H   0  0  0  0  0  0  0  0  0  0  0  0
   -8.0267   -4.7351  -22.5033 H   0  0  0  0  0  0  0  0  0  0  0  0
   -9.3335   -0.9056  -20.7891 H   0  0  0  0  0  0  0  0  0  0  0  0
   -8.5370    0.0145  -22.0608 H   0  0  0  0  0  0  0  0  0  0  0  0
   -9.6134   -1.5494  -23.5060 H   0  0  0  0  0  0  0  0  0  0  0  0
   -9.7305   -3.5700  -21.2079 H   0  0  0  0  0  0  0  0  0  0  0  0
  -10.5023   -3.7227  -22.8023 H   0  0  0  0  0  0  0  0  0  0  0  0
  -11.0111   -2.4529  -21.6893 H   0  0  0  0  0  0  0  0  0  0  0  0
  1  2  1  0
  2  3  1  0
  3  4  1  0
  4  5  1  0
  5  6  2  0
  6  7  1  0
  7  8  2  0
  8  9  1  0
  9 10  2  0
 10 11  1  0
 11 12  2  0
 12 13  1  0
 13 14  2  0
 13 15  1  0
 12 16  1  0
 11 17  1  0
 10 18  1  0
  8 19  1  0
  6 20  1  0
  4 21  1  0
 21 22  2  0
 21 23  1  0
 23 24  1  6
 24 25  1  0
 25 26  1  0
 26 27  1  0
 27 28  2  0
 28 29  1  0
 29 30  2  0
 30 31  1  0
 31 32  1  0
 32 33  1  0
 32 34  1  0
 32 35  1  0
 30 36  1  0
 29 37  1  0
 26 38  1  0
 26 39  1  0
 25 40  1  0
 40 41  2  0
 40 42  1  0
 42 43  2  0
 43 44  1  0
 44 45  2  0
 45 46  1  0
 45 47  1  0
 47 48  2  0
 47 49  1  0
 44 50  1  0
 43 51  1  0
 24 52  1  0
 24 53  1  0
  3 54  1  0
  3 55  1  0
  2 56  1  6
  1 57  1  0
  1 58  1  0
  1 59  1  0
 23  2  1  0
 31 27  1  0
 48 42  1  0
 14  5  1  0
 48 23  1  0
 14  9  1  0
M  END
>  <cnnaffinities>  (5) 
[5.86871]

>  <score>  (5) 
5.86871

>  <index>  (5) 
4

>  <Smiles>  (5) 
C([C@]1(C(N(c2c(nc(c3c(c(c(c(c23)[H])[H])[H])[H])[H])[H])C(=O)[C@]21C(N(C(c1nc(c(n1C([H])([H])[H])[H])[H])([H])[H])C(=O)c1c(c(c(F)c(c21)[H])[H])[H])([H])[H])([H])[H])[H])([H])([H])[H]

>  <h>  (5) 
<NA>

>  <Training>  (5) 
True

>  <Success>  (5) 
True

>  <enamine_searched>  (5) 
False

>  <enamine_id>  (5) 
nan

$$$$

     RDKit          3D

 58 61  0  0  0  0  0  0  0  0999 V2000
   -7.4161   -3.8492  -21.8023 C   0  0  0  0  0  0  0  0  0  0  0  0
   -7.5335   -3.7183  -21.4947 C   0  0  0  0  0  0  0  0  0  0  0  0
   -6.6685   -2.4593  -21.9690 C   0  0  0  0  0  0  0  0  0  0  0  0
   -7.1887   -1.1761  -21.3990 N   0  0  0  0  0  0  0  0  0  0  0  0
   -8.4674   -0.7091  -21.6644 C   0  0  0  0  0  0  0  0  0  0  0  0
   -9.1100   -0.0886  -20.8359 O   0  0  0  0  0  0  0  0  0  0  0  0
   -8.9401   -0.8830  -23.0958 C   0  0  2  0  0  0  0  0  0  0  0  0
   -8.9441    0.5046  -23.7747 C   0  0  0  0  0  0  0  0  0  0  0  0
   -9.4570    0.3827  -25.1214 N   0  0  0  0  0  0  0  0  0  0  0  0
   -8.7443    0.9271  -26.2624 C   0  0  0  0  0  0  0  0  0  0  0  0
   -7.9055   -0.1256  -27.0012 C   0  0  0  0  0  0  0  0  0  0  0  0
   -8.1078   -0.4369  -28.1634 O   0  0  0  0  0  0  0  0  0  0  0  0
   -6.9111   -0.6919  -26.2635 N   0  0  0  0  0  0  0  0  0  0  0  0
   -6.1332   -1.7873  -26.8067 C   0  0  0  0  0  0  0  0  0  0  0  0
   -6.7400   -2.6942  -26.9047 H   0  0  0  0  0  0  0  0  0  0  0  0
   -5.2931   -1.9930  -26.1383 H   0  0  0  0  0  0  0  0  0  0  0  0
   -5.7570   -1.5317  -27.7999 H   0  0  0  0  0  0  0  0  0  0  0  0
   -6.7321   -0.3768  -25.3234 H   0  0  0  0  0  0  0  0  0  0  0  0
   -8.1048    1.7499  -25.9159 H   0  0  0  0  0  0  0  0  0  0  0  0
   -9.4768    1.3027  -26.9741 H   0  0  0  0  0  0  0  0  0  0  0  0
  -10.6557   -0.2489  -25.3574 C   0  0  0  0  0  0  0  0  0  0  0  0
  -11.2587   -0.1130  -26.4129 O   0  0  0  0  0  0  0  0  0  0  0  0
  -11.1566   -1.1121  -24.2411 C   0  0  0  0  0  0  0  0  0  0  0  0
  -12.4762   -1.5533  -24.2822 C   0  0  0  0  0  0  0  0  0  0  0  0
  -12.9934   -2.3226  -23.2560 C   0  0  0  0  0  0  0  0  0  0  0  0
  -12.1581   -2.6696  -22.1963 C   0  0  0  0  0  0  0  0  0  0  0  0
  -12.7955   -3.6295  -20.8963 Cl  0  0  0  0  0  0  0  0  0  0  0  0
  -10.8321   -2.2629  -22.1501 C   0  0  0  0  0  0  0  0  0  0  0  0
  -10.3325   -1.4548  -23.1656 C   0  0  0  0  0  0  0  0  0  0  0  0
  -10.2001   -2.5454  -21.3141 H   0  0  0  0  0  0  0  0  0  0  0  0
  -14.0263   -2.6550  -23.2688 H   0  0  0  0  0  0  0  0  0  0  0  0
  -13.0940   -1.2685  -25.1263 H   0  0  0  0  0  0  0  0  0  0  0  0
   -9.5650    1.1836  -23.1757 H   0  0  0  0  0  0  0  0  0  0  0  0
   -7.9421    0.9435  -23.8101 H   0  0  0  0  0  0  0  0  0  0  0  0
   -8.2526   -1.5214  -23.6524 H   0  0  0  0  0  0  0  0  0  0  0  0
   -6.5243   -0.6347  -20.2646 C   0  0  0  0  0  0  0  0  0  0  0  0
   -6.9412   -0.9010  -18.9885 C   0  0  0  0  0  0  0  0  0  0  0  0
   -6.2881   -0.4777  -17.8736 N   0  0  0  0  0  0  0  0  0  0  0  0
   -5.2027    0.2425  -18.0348 C   0  0  0  0  0  0  0  0  0  0  0  0
   -4.6738    0.6198  -19.3056 C   0  0  0  0  0  0  0  0  0  0  0  0
   -3.5066    1.4187  -19.4607 C   0  0  0  0  0  0  0  0  0  0  0  0
   -3.0759    1.7743  -20.7109 C   0  0  0  0  0  0  0  0  0  0  0  0
   -3.7822    1.3656  -21.8615 C   0  0  0  0  0  0  0  0  0  0  0  0
   -4.9031    0.5888  -21.7386 C   0  0  0  0  0  0  0  0  0  0  0  0
   -5.3656    0.1915  -20.4575 C   0  0  0  0  0  0  0  0  0  0  0  0
   -5.4469    0.2946  -22.6278 H   0  0  0  0  0  0  0  0  0  0  0  0
   -3.4283    1.6591  -22.8457 H   0  0  0  0  0  0  0  0  0  0  0  0
   -2.1853    2.3812  -20.8356 H   0  0  0  0  0  0  0  0  0  0  0  0
   -2.9583    1.7367  -18.5781 H   0  0  0  0  0  0  0  0  0  0  0  0
   -4.6816    0.5582  -17.1296 H   0  0  0  0  0  0  0  0  0  0  0  0
   -7.8465   -1.4824  -18.8056 H   0  0  0  0  0  0  0  0  0  0  0  0
   -6.5877   -2.4612  -23.0516 H   0  0  0  0  0  0  0  0  0  0  0  0
   -5.6833   -2.6130  -21.5912 H   0  0  0  0  0  0  0  0  0  0  0  0
   -8.2253   -4.1715  -22.9339 C   0  0  0  0  0  0  0  0  0  0  0  0
   -7.6152   -4.0682  -23.9621 O   0  0  0  0  0  0  0  0  0  0  0  0
   -9.4728   -4.6736  -22.9544 O   0  0  0  0  0  1  0  0  0  0  0  0
   -9.7109   -4.7362  -22.0274 H   0  0  0  0  0  0  0  0  0  0  0  0
   -7.6080   -3.6554  -20.4327 H   0  0  0  0  0  0  0  0  0  0  0  0
  1  2  2  0
  2  3  1  0
  3  4  1  0
  4  5  1  0
  5  6  2  0
  5  7  1  0
  7  8  1  0
  8  9  1  0
  9 10  1  0
 10 11  1  0
 11 12  2  0
 11 13  1  0
 13 14  1  0
 14 15  1  0
 14 16  1  0
 14 17  1  0
 13 18  1  0
 10 19  1  0
 10 20  1  0
  9 21  1  0
 21 22  2  0
 21 23  1  0
 23 24  2  0
 24 25  1  0
 25 26  2  0
 26 27  1  0
 26 28  1  0
 28 29  2  0
 28 30  1  0
 25 31  1  0
 24 32  1  0
  8 33  1  0
  8 34  1  0
  7 35  1  6
  4 36  1  0
 36 37  2  0
 37 38  1  0
 38 39  2  0
 39 40  1  0
 40 41  2  0
 41 42  1  0
 42 43  2  0
 43 44  1  0
 44 45  2  0
 44 46  1  0
 43 47  1  0
 42 48  1  0
 41 49  1  0
 39 50  1  0
 37 51  1  0
  3 52  1  0
  3 53  1  0
  2 54  1  0
 54 55  2  0
 54 56  1  0
  1 57  1  0
  1 58  1  0
 29  7  1  0
 45 36  1  0
 29 23  1  0
 45 40  1  0
M  CHG  1  56  -1
M  END
>  <cnnaffinities>  (6) 
[5.67205]

>  <score>  (6) 
5.67205

>  <index>  (6) 
5

>  <Smiles>  (6) 
C(=C(C(N(C(=O)[C@@]1(C(N(C(C(=O)N(C([H])([H])[H])[H])([H])[H])C(=O)c2c(c(c(Cl)c(c12)[H])[H])[H])([H])[H])[H])c1c(nc(c2c(c(c(c(c12)[H])[H])[H])[H])[H])[H])([H])[H])C(=O)[O-])([H])[H]

>  <h>  (6) 
<NA>

>  <Training>  (6) 
True

>  <Success>  (6) 
True

>  <enamine_searched>  (6) 
False

>  <enamine_id>  (6) 
nan

$$$$

     RDKit          3D

 43 45  0  0  0  0  0  0  0  0999 V2000
  -14.3326   -1.2383  -24.9910 C   0  0  0  0  0  0  0  0  0  0  0  0
  -12.9131   -1.7652  -25.1879 C   0  0  0  0  0  0  0  0  0  0  0  0
  -11.9733   -1.5761  -23.9871 C   0  0  0  0  0  0  0  0  0  0  0  0
  -11.6381   -0.1084  -23.7364 C   0  0  0  0  0  0  0  0  0  0  0  0
  -10.6871    0.0231  -22.5589 C   0  0  0  0  0  0  0  0  0  0  0  0
   -9.4828   -0.8181  -22.6544 N   0  0  0  0  0  0  0  0  0  0  0  0
   -8.4693   -0.3990  -21.8006 C   0  0  0  0  0  0  0  0  0  0  0  0
   -8.4031    0.7620  -21.4398 O   0  0  0  0  0  0  0  0  0  0  0  0
   -7.4536   -1.4320  -21.2764 C   0  0  0  0  0  0  0  0  0  0  0  0
   -6.5928   -0.8484  -20.1866 C   0  0  0  0  0  0  0  0  0  0  0  0
   -6.9082   -1.0564  -18.8668 C   0  0  0  0  0  0  0  0  0  0  0  0
   -6.2344   -0.5481  -17.7993 N   0  0  0  0  0  0  0  0  0  0  0  0
   -5.1987    0.2061  -18.0666 C   0  0  0  0  0  0  0  0  0  0  0  0
   -4.7602    0.5265  -19.3796 C   0  0  0  0  0  0  0  0  0  0  0  0
   -3.6342    1.3524  -19.6143 C   0  0  0  0  0  0  0  0  0  0  0  0
   -3.2467    1.6548  -20.8885 C   0  0  0  0  0  0  0  0  0  0  0  0
   -3.9679    1.1376  -21.9885 C   0  0  0  0  0  0  0  0  0  0  0  0
   -5.0600    0.3314  -21.7896 C   0  0  0  0  0  0  0  0  0  0  0  0
   -5.4839   -0.0023  -20.4767 C   0  0  0  0  0  0  0  0  0  0  0  0
   -5.6182   -0.0389  -22.6443 H   0  0  0  0  0  0  0  0  0  0  0  0
   -3.6463    1.3789  -22.9962 H   0  0  0  0  0  0  0  0  0  0  0  0
   -2.3829    2.2887  -21.0727 H   0  0  0  0  0  0  0  0  0  0  0  0
   -3.0895    1.7485  -18.7596 H   0  0  0  0  0  0  0  0  0  0  0  0
   -4.6415    0.6190  -17.2232 H   0  0  0  0  0  0  0  0  0  0  0  0
   -7.7602   -1.6810  -18.6063 H   0  0  0  0  0  0  0  0  0  0  0  0
   -8.0178   -2.2916  -20.8821 H   0  0  0  0  0  0  0  0  0  0  0  0
   -6.8447   -1.8005  -22.1139 H   0  0  0  0  0  0  0  0  0  0  0  0
   -9.7856   -2.2357  -22.8883 C   0  0  0  0  0  0  0  0  0  0  0  0
  -10.6586   -2.3562  -24.1353 C   0  0  0  0  0  0  0  0  0  0  0  0
  -10.8439   -3.4096  -24.3675 H   0  0  0  0  0  0  0  0  0  0  0  0
  -10.0878   -1.9741  -24.9882 H   0  0  0  0  0  0  0  0  0  0  0  0
  -10.3149   -2.6792  -22.0214 H   0  0  0  0  0  0  0  0  0  0  0  0
   -8.8639   -2.8152  -23.0203 H   0  0  0  0  0  0  0  0  0  0  0  0
  -11.2354   -0.2654  -21.6556 H   0  0  0  0  0  0  0  0  0  0  0  0
  -10.3675    1.0504  -22.4142 H   0  0  0  0  0  0  0  0  0  0  0  0
  -11.2247    0.3292  -24.6559 H   0  0  0  0  0  0  0  0  0  0  0  0
  -12.5491    0.4659  -23.5224 H   0  0  0  0  0  0  0  0  0  0  0  0
  -12.4802   -1.9396  -23.0751 H   0  0  0  0  0  0  0  0  0  0  0  0
  -12.9833   -2.8317  -25.4416 H   0  0  0  0  0  0  0  0  0  0  0  0
  -12.4773   -1.2727  -26.0678 H   0  0  0  0  0  0  0  0  0  0  0  0
  -14.8312   -1.7518  -24.1629 H   0  0  0  0  0  0  0  0  0  0  0  0
  -14.9289   -1.4071  -25.8941 H   0  0  0  0  0  0  0  0  0  0  0  0
  -14.3536   -0.1649  -24.7754 H   0  0  0  0  0  0  0  0  0  0  0  0
  1  2  1  0
  2  3  1  0
  3  4  1  0
  4  5  1  0
  5  6  1  0
  6  7  1  0
  7  8  2  0
  7  9  1  0
  9 10  1  0
 10 11  2  0
 11 12  1  0
 12 13  2  0
 13 14  1  0
 14 15  2  0
 15 16  1  0
 16 17  2  0
 17 18  1  0
 18 19  2  0
 18 20  1  0
 17 21  1  0
 16 22  1  0
 15 23  1  0
 13 24  1  0
 11 25  1  0
  9 26  1  0
  9 27  1  0
  6 28  1  0
 28 29  1  0
 29 30  1  0
 29 31  1  0
 28 32  1  0
 28 33  1  0
  5 34  1  0
  5 35  1  0
  4 36  1  0
  4 37  1  0
  3 38  1  0
  2 39  1  0
  2 40  1  0
  1 41  1  0
  1 42  1  0
  1 43  1  0
 29  3  1  0
 19 10  1  0
 19 14  1  0
M  END
>  <cnnaffinities>  (7) 
[4.81665, 4.85304, 4.85354]

>  <score>  (7) 
4.81665

>  <index>  (7) 
6

>  <Smiles>  (7) 
C(C(C1(C(C(N(C(=O)C(c2c(nc(c3c(c(c(c(c23)[H])[H])[H])[H])[H])[H])([H])[H])C(C1([H])[H])([H])[H])([H])[H])([H])[H])[H])([H])[H])([H])([H])[H]

>  <h>  (7) 
<NA>

>  <Training>  (7) 
True

>  <Success>  (7) 
True

>  <enamine_searched>  (7) 
False

>  <enamine_id>  (7) 
nan

$$$$

     RDKit          3D

 44 47  0  0  0  0  0  0  0  0999 V2000
  -10.1024   -5.9899  -27.5673 C   0  0  0  0  0  0  0  0  0  0  0  0
   -8.9769   -5.3055  -26.7841 C   0  0  0  0  0  0  0  0  0  0  0  0
   -9.2412   -5.5278  -25.0311 S   0  0  0  0  0  0  0  0  0  0  0  0
   -9.0742   -6.9342  -24.7099 O   0  0  0  0  0  0  0  0  0  0  0  0
  -10.4850   -4.8356  -24.7148 O   0  0  0  0  0  0  0  0  0  0  0  0
   -7.9643   -4.7045  -24.2688 N   0  0  0  0  0  0  0  0  0  0  0  0
   -8.0749   -4.6908  -22.7675 C   0  0  0  0  0  0  0  0  0  0  0  0
   -8.0696   -3.1504  -22.7659 C   0  0  0  0  0  0  0  0  0  0  0  0
   -7.9981   -3.2181  -24.3129 C   0  0  0  0  0  0  0  0  0  0  0  0
   -7.0703   -2.8287  -24.7318 H   0  0  0  0  0  0  0  0  0  0  0  0
   -8.8580   -2.7843  -24.8357 H   0  0  0  0  0  0  0  0  0  0  0  0
   -6.8711   -2.5286  -22.0651 C   0  0  0  0  0  0  0  0  0  0  0  0
   -5.7117   -2.8174  -22.2265 O   0  0  0  0  0  0  0  0  0  0  0  0
   -7.3672   -1.5370  -21.2132 N   0  0  0  0  0  0  0  0  0  0  0  0
   -6.6000   -0.8699  -20.1991 C   0  0  0  0  0  0  0  0  0  0  0  0
   -6.9165   -1.0640  -18.8748 C   0  0  0  0  0  0  0  0  0  0  0  0
   -6.2233   -0.5451  -17.8281 N   0  0  0  0  0  0  0  0  0  0  0  0
   -5.1846    0.2045  -18.0989 C   0  0  0  0  0  0  0  0  0  0  0  0
   -4.7536    0.5204  -19.4146 C   0  0  0  0  0  0  0  0  0  0  0  0
   -3.6248    1.3576  -19.6369 C   0  0  0  0  0  0  0  0  0  0  0  0
   -3.2368    1.6672  -20.9102 C   0  0  0  0  0  0  0  0  0  0  0  0
   -3.9655    1.1543  -22.0056 C   0  0  0  0  0  0  0  0  0  0  0  0
   -5.0562    0.3407  -21.8154 C   0  0  0  0  0  0  0  0  0  0  0  0
   -5.4811   -0.0163  -20.5057 C   0  0  0  0  0  0  0  0  0  0  0  0
   -5.5974   -0.0474  -22.6712 H   0  0  0  0  0  0  0  0  0  0  0  0
   -3.6454    1.3995  -23.0125 H   0  0  0  0  0  0  0  0  0  0  0  0
   -2.3711    2.3017  -21.0889 H   0  0  0  0  0  0  0  0  0  0  0  0
   -3.0850    1.7480  -18.7775 H   0  0  0  0  0  0  0  0  0  0  0  0
   -4.6293    0.6060  -17.2495 H   0  0  0  0  0  0  0  0  0  0  0  0
   -7.7633   -1.6861  -18.5995 H   0  0  0  0  0  0  0  0  0  0  0  0
   -8.7605   -1.3806  -21.4055 C   0  0  0  0  0  0  0  0  0  0  0  0
   -9.4331   -0.4543  -21.0119 O   0  0  0  0  0  0  0  0  0  0  0  0
   -9.1737   -2.4433  -22.1735 N   0  0  0  0  0  0  0  0  0  0  0  0
  -10.5634   -2.6990  -22.4930 C   0  0  0  0  0  0  0  0  0  0  0  0
  -10.8329   -3.7413  -22.2765 H   0  0  0  0  0  0  0  0  0  0  0  0
  -10.7659   -2.4954  -23.5516 H   0  0  0  0  0  0  0  0  0  0  0  0
  -11.1499   -2.0250  -21.8678 H   0  0  0  0  0  0  0  0  0  0  0  0
   -7.1902   -5.1299  -22.3042 H   0  0  0  0  0  0  0  0  0  0  0  0
   -8.9814   -5.1486  -22.3583 H   0  0  0  0  0  0  0  0  0  0  0  0
   -8.9552   -4.2198  -26.9277 H   0  0  0  0  0  0  0  0  0  0  0  0
   -7.9905   -5.7214  -27.0098 H   0  0  0  0  0  0  0  0  0  0  0  0
   -9.9559   -5.8520  -28.6429 H   0  0  0  0  0  0  0  0  0  0  0  0
  -11.0808   -5.5811  -27.2954 H   0  0  0  0  0  0  0  0  0  0  0  0
  -10.1152   -7.0647  -27.3560 H   0  0  0  0  0  0  0  0  0  0  0  0
  1  2  1  0
  2  3  1  0
  3  4  2  0
  3  5  2  0
  3  6  1  0
  6  7  1  0
  7  8  1  0
  8  9  1  0
  9 10  1  0
  9 11  1  0
  8 12  1  0
 12 13  2  0
 12 14  1  0
 14 15  1  0
 15 16  2  0
 16 17  1  0
 17 18  2  0
 18 19  1  0
 19 20  2  0
 20 21  1  0
 21 22  2  0
 22 23  1  0
 23 24  2  0
 23 25  1  0
 22 26  1  0
 21 27  1  0
 20 28  1  0
 18 29  1  0
 16 30  1  0
 14 31  1  0
 31 32  2  0
 31 33  1  0
 33 34  1  0
 34 35  1  0
 34 36  1  0
 34 37  1  0
  7 38  1  0
  7 39  1  0
  2 40  1  0
  2 41  1  0
  1 42  1  0
  1 43  1  0
  1 44  1  0
  9  6  1  0
 24 15  1  0
 33  8  1  0
 24 19  1  0
M  END
>  <cnnaffinities>  (8) 
[4.76603, 4.76404, 4.75977, 4.99835, 5.02978, 5.02911]

>  <score>  (8) 
4.76603

>  <index>  (8) 
7

>  <Smiles>  (8) 
C(C(S(=O)(=O)N1C(C2(C1([H])[H])C(=O)N(c1c(nc(c3c(c(c(c(c13)[H])[H])[H])[H])[H])[H])C(=O)N2C([H])([H])[H])([H])[H])([H])[H])([H])([H])[H]

>  <h>  (8) 
<NA>

>  <Training>  (8) 
True

>  <Success>  (8) 
True

>  <enamine_searched>  (8) 
False

>  <enamine_id>  (8) 
nan

$$$$

     RDKit          3D

 60 64  0  0  0  0  0  0  0  0999 V2000
   -7.2171    3.1901  -22.0529 C   0  0  0  0  0  0  0  0  0  0  0  0
   -8.2011    2.5469  -22.8979 N   0  0  0  0  0  0  0  0  0  0  0  0
   -7.8540    1.9030  -24.0368 C   0  0  0  0  0  0  0  0  0  0  0  0
   -6.6956    1.7613  -24.4153 O   0  0  0  0  0  0  0  0  0  0  0  0
   -9.0435    1.4240  -24.8629 C   0  0  0  0  0  0  0  0  0  0  0  0
   -9.7355    0.2973  -24.2790 N   0  0  0  0  0  0  0  0  0  0  0  0
   -9.0178   -0.9444  -24.1144 C   0  0  0  0  0  0  0  0  0  0  0  0
   -9.3754   -1.6224  -22.7751 C   0  0  2  0  0  0  0  0  0  0  0  0
   -8.8253   -0.7807  -21.5840 C   0  0  0  0  0  0  0  0  0  0  0  0
   -9.3481    0.1842  -21.0621 O   0  0  0  0  0  0  0  0  0  0  0  0
   -7.6150   -1.3184  -21.2050 N   0  0  0  0  0  0  0  0  0  0  0  0
   -6.7972   -0.7657  -20.1812 C   0  0  0  0  0  0  0  0  0  0  0  0
   -7.0867   -1.0207  -18.8634 C   0  0  0  0  0  0  0  0  0  0  0  0
   -6.3519   -0.5747  -17.8139 N   0  0  0  0  0  0  0  0  0  0  0  0
   -5.2905    0.1507  -18.0748 C   0  0  0  0  0  0  0  0  0  0  0  0
   -4.8600    0.4816  -19.3914 C   0  0  0  0  0  0  0  0  0  0  0  0
   -3.7121    1.2869  -19.6299 C   0  0  0  0  0  0  0  0  0  0  0  0
   -3.3307    1.5966  -20.9075 C   0  0  0  0  0  0  0  0  0  0  0  0
   -4.0718    1.1058  -22.0049 C   0  0  0  0  0  0  0  0  0  0  0  0
   -5.1845    0.3211  -21.8006 C   0  0  0  0  0  0  0  0  0  0  0  0
   -5.6212   -0.0044  -20.4870 C   0  0  0  0  0  0  0  0  0  0  0  0
   -5.7667   -0.0026  -22.6579 H   0  0  0  0  0  0  0  0  0  0  0  0
   -3.7763    1.3641  -23.0175 H   0  0  0  0  0  0  0  0  0  0  0  0
   -2.4559    2.2174  -21.0874 H   0  0  0  0  0  0  0  0  0  0  0  0
   -3.1486    1.6588  -18.7776 H   0  0  0  0  0  0  0  0  0  0  0  0
   -4.7033    0.5133  -17.2259 H   0  0  0  0  0  0  0  0  0  0  0  0
   -7.9513   -1.6302  -18.6089 H   0  0  0  0  0  0  0  0  0  0  0  0
   -7.2535   -2.4990  -21.9615 C   0  0  0  0  0  0  0  0  0  0  0  0
   -8.5756   -2.9501  -22.6100 C   0  0  2  0  0  0  0  0  0  0  0  0
   -8.3012   -3.7871  -23.8738 C   0  0  0  0  0  0  0  0  0  0  0  0
   -7.4600   -4.8938  -23.6130 O   0  0  0  0  0  0  0  0  0  0  0  0
   -8.1484   -6.0811  -23.3279 C   0  0  0  0  0  0  0  0  0  0  0  0
   -8.7590   -6.4161  -24.1812 H   0  0  0  0  0  0  0  0  0  0  0  0
   -8.7967   -5.9636  -22.4508 H   0  0  0  0  0  0  0  0  0  0  0  0
   -7.3986   -6.8477  -23.1184 H   0  0  0  0  0  0  0  0  0  0  0  0
   -7.7506   -3.1773  -24.6012 H   0  0  0  0  0  0  0  0  0  0  0  0
   -9.2424   -4.1086  -24.3512 H   0  0  0  0  0  0  0  0  0  0  0  0
   -9.1171   -3.5814  -21.8967 H   0  0  0  0  0  0  0  0  0  0  0  0
   -6.5156   -2.2539  -22.7406 H   0  0  0  0  0  0  0  0  0  0  0  0
   -6.8116   -3.2594  -21.3158 H   0  0  0  0  0  0  0  0  0  0  0  0
  -10.8849   -1.7029  -22.7032 C   0  0  0  0  0  0  0  0  0  0  0  0
  -11.5013   -2.5910  -21.8258 C   0  0  0  0  0  0  0  0  0  0  0  0
  -12.8618   -2.5197  -21.6068 C   0  0  0  0  0  0  0  0  0  0  0  0
  -13.4904   -3.3549  -20.2249 Cl  0  0  0  0  0  0  0  0  0  0  0  0
  -13.6959   -1.6957  -22.3672 C   0  0  0  0  0  0  0  0  0  0  0  0
  -13.0982   -0.8516  -23.2856 C   0  0  0  0  0  0  0  0  0  0  0  0
  -11.7042   -0.7986  -23.3942 C   0  0  0  0  0  0  0  0  0  0  0  0
  -11.1041    0.3012  -24.2152 C   0  0  0  0  0  0  0  0  0  0  0  0
  -11.7917    1.1485  -24.7641 O   0  0  0  0  0  0  0  0  0  0  0  0
  -13.6826   -0.1776  -23.9054 H   0  0  0  0  0  0  0  0  0  0  0  0
  -14.7762   -1.7210  -22.2249 H   0  0  0  0  0  0  0  0  0  0  0  0
  -10.9338   -3.3144  -21.2606 H   0  0  0  0  0  0  0  0  0  0  0  0
   -7.9499   -0.7246  -24.1676 H   0  0  0  0  0  0  0  0  0  0  0  0
   -9.2638   -1.6319  -24.9357 H   0  0  0  0  0  0  0  0  0  0  0  0
   -9.7881    2.2168  -24.9190 H   0  0  0  0  0  0  0  0  0  0  0  0
   -8.6701    1.2207  -25.8696 H   0  0  0  0  0  0  0  0  0  0  0  0
   -9.1309    2.4015  -22.5332 H   0  0  0  0  0  0  0  0  0  0  0  0
   -7.7192    3.9432  -21.4415 H   0  0  0  0  0  0  0  0  0  0  0  0
   -6.4686    3.6877  -22.6757 H   0  0  0  0  0  0  0  0  0  0  0  0
   -6.7062    2.4612  -21.4117 H   0  0  0  0  0  0  0  0  0  0  0  0
  1  2  1  0
  2  3  1  0
  3  4  2  0
  3  5  1  0
  5  6  1  0
  6  7  1  0
  8  7  1  6
  8  9  1  0
  9 10  2  0
  9 11  1  0
 11 12  1  0
 12 13  2  0
 13 14  1  0
 14 15  2  0
 15 16  1  0
 16 17  2  0
 17 18  1  0
 18 19  2  0
 19 20  1  0
 20 21  2  0
 20 22  1  0
 19 23  1  0
 18 24  1  0
 17 25  1  0
 15 26  1  0
 13 27  1  0
 11 28  1  0
 28 29  1  0
 29 30  1  0
 30 31  1  0
 31 32  1  0
 32 33  1  0
 32 34  1  0
 32 35  1  0
 30 36  1  0
 30 37  1  0
 29 38  1  1
 28 39  1  0
 28 40  1  0
  8 41  1  0
 41 42  2  0
 42 43  1  0
 43 44  1  0
 43 45  2  0
 45 46  1  0
 46 47  2  0
 47 48  1  0
 48 49  2  0
 46 50  1  0
 45 51  1  0
 42 52  1  0
  7 53  1  0
  7 54  1  0
  5 55  1  0
  5 56  1  0
  2 57  1  0
  1 58  1  0
  1 59  1  0
  1 60  1  0
 48  6  1  0
 29  8  1  0
 47 41  1  0
 21 12  1  0
 21 16  1  0
M  END
>  <cnnaffinities>  (9) 
[6.28958, 6.13343, 5.95147, 5.91918]

>  <score>  (9) 
6.28958

>  <index>  (9) 
8

>  <Smiles>  (9) 
C(N(C(=O)C(N1C([C@@]2(C(=O)N(c3c(nc(c4c(c(c(c(c34)[H])[H])[H])[H])[H])[H])C([C@@]2(C(OC([H])([H])[H])([H])[H])[H])([H])[H])c2c(c(Cl)c(c(c2C1=O)[H])[H])[H])([H])[H])([H])[H])[H])([H])([H])[H]

>  <h>  (9) 
<NA>

>  <Training>  (9) 
True

>  <Success>  (9) 
True

>  <enamine_searched>  (9) 
False

>  <enamine_id>  (9) 
nan

$$$$

     RDKit          3D

 41 43  0  0  0  0  0  0  0  0999 V2000
   -9.9974    0.4478  -24.8788 C   0  0  0  0  0  0  0  0  0  0  0  0
  -10.1726    1.6485  -24.0084 C   0  0  1  0  0  0  0  0  0  0  0  0
  -11.4220    1.9394  -23.5814 C   0  0  0  0  0  0  0  0  0  0  0  0
  -11.5856    1.7006  -23.3200 C   0  0  0  0  0  0  0  0  0  0  0  0
   -9.9377    0.5075  -21.4374 C   0  0  0  0  0  0  0  0  0  0  0  0
   -8.7041    0.1867  -21.7655 N   0  0  0  0  0  0  0  0  0  0  0  0
   -8.4075   -1.2128  -21.6768 C   0  0  0  0  0  0  0  0  0  0  0  0
   -9.3009   -2.0332  -21.7728 O   0  0  0  0  0  0  0  0  0  0  0  0
   -6.9694   -1.6252  -21.4285 C   0  0  0  0  0  0  0  0  0  0  0  0
   -6.3164   -0.8745  -20.2927 C   0  0  0  0  0  0  0  0  0  0  0  0
   -6.7463   -1.0789  -19.0051 C   0  0  0  0  0  0  0  0  0  0  0  0
   -6.1999   -0.5098  -17.9001 N   0  0  0  0  0  0  0  0  0  0  0  0
   -5.1830    0.2962  -18.0891 C   0  0  0  0  0  0  0  0  0  0  0  0
   -4.6510    0.6279  -19.3655 C   0  0  0  0  0  0  0  0  0  0  0  0
   -3.5453    1.5030  -19.5213 C   0  0  0  0  0  0  0  0  0  0  0  0
   -3.0977    1.8396  -20.7679 C   0  0  0  0  0  0  0  0  0  0  0  0
   -3.7394    1.3242  -21.9142 C   0  0  0  0  0  0  0  0  0  0  0  0
   -4.7953    0.4540  -21.7905 C   0  0  0  0  0  0  0  0  0  0  0  0
   -5.2634    0.0611  -20.5092 C   0  0  0  0  0  0  0  0  0  0  0  0
   -5.2758    0.0783  -22.6915 H   0  0  0  0  0  0  0  0  0  0  0  0
   -3.3798    1.6017  -22.9000 H   0  0  0  0  0  0  0  0  0  0  0  0
   -2.2497    2.5052  -20.8890 H   0  0  0  0  0  0  0  0  0  0  0  0
   -3.0684    1.8960  -18.6278 H   0  0  0  0  0  0  0  0  0  0  0  0
   -4.7243    0.7369  -17.2029 H   0  0  0  0  0  0  0  0  0  0  0  0
   -7.5783   -1.7557  -18.8108 H   0  0  0  0  0  0  0  0  0  0  0  0
   -6.3898   -1.5348  -22.3496 H   0  0  0  0  0  0  0  0  0  0  0  0
   -7.0322   -2.6946  -21.2035 H   0  0  0  0  0  0  0  0  0  0  0  0
   -8.0047    1.2165  -22.6029 C   0  0  0  0  0  0  0  0  0  0  0  0
   -9.0165    2.2102  -23.2312 C   0  0  0  0  0  0  0  0  0  0  0  0
   -8.3849    2.8365  -23.8922 H   0  0  0  0  0  0  0  0  0  0  0  0
   -9.3191    2.9192  -22.4495 H   0  0  0  0  0  0  0  0  0  0  0  0
   -7.4481    0.6914  -23.3869 H   0  0  0  0  0  0  0  0  0  0  0  0
   -7.2748    1.7520  -21.9834 H   0  0  0  0  0  0  0  0  0  0  0  0
  -10.6309   -0.2961  -21.2653 H   0  0  0  0  0  0  0  0  0  0  0  0
  -10.1290    1.4958  -21.0588 H   0  0  0  0  0  0  0  0  0  0  0  0
  -12.0255    0.7671  -22.7518 H   0  0  0  0  0  0  0  0  0  0  0  0
  -12.3481    2.6560  -23.4043 H   0  0  0  0  0  0  0  0  0  0  0  0
  -10.4938    2.4507  -24.6089 H   0  0  0  0  0  0  0  0  0  0  0  0
   -9.0128    0.4691  -25.3964 H   0  0  0  0  0  0  0  0  0  0  0  0
  -10.7173    0.3405  -25.7191 H   0  0  0  0  0  0  0  0  0  0  0  0
   -9.9782   -0.5353  -24.3561 H   0  0  0  0  0  0  0  0  0  0  0  0
  1  2  1  0
  2  3  1  0
  3  4  2  0
  4  5  1  0
  5  6  1  0
  6  7  1  0
  7  8  2  0
  7  9  1  0
  9 10  1  0
 10 11  2  0
 11 12  1  0
 12 13  2  0
 13 14  1  0
 14 15  2  0
 15 16  1  0
 16 17  2  0
 17 18  1  0
 18 19  2  0
 18 20  1  0
 17 21  1  0
 16 22  1  0
 15 23  1  0
 13 24  1  0
 11 25  1  0
  9 26  1  0
  9 27  1  0
  6 28  1  0
 28 29  1  0
 29 30  1  0
 29 31  1  0
 28 32  1  0
 28 33  1  0
  5 34  1  0
  5 35  1  0
  4 36  1  0
  3 37  1  0
  2 38  1  6
  1 39  1  0
  1 40  1  0
  1 41  1  0
 29  2  1  0
 19 10  1  0
 19 14  1  0
M  END
>  <cnnaffinities>  (10) 
[4.68783]

>  <score>  (10) 
4.68783

>  <index>  (10) 
9

>  <Smiles>  (10) 
C([C@]1(C(=C(C(N(C(=O)C(c2c(nc(c3c(c(c(c(c23)[H])[H])[H])[H])[H])[H])([H])[H])C(C1([H])[H])([H])[H])([H])[H])[H])[H])[H])([H])([H])[H]

>  <h>  (10) 
<NA>

>  <Training>  (10) 
True

>  <Success>  (10) 
True

>  <enamine_searched>  (10) 
False

>  <enamine_id>  (10) 
nan

$$$$

     RDKit          3D

 57 62  0  0  0  0  0  0  0  0999 V2000
  -10.3177   -1.0265  -23.3737 C   0  0  0  0  0  0  0  0  0  0  0  0
   -8.8960   -1.4519  -23.0127 C   0  0  1  0  0  0  0  0  0  0  0  0
   -8.3008   -0.5537  -21.9202 C   0  0  0  0  0  0  0  0  0  0  0  0
   -7.3334   -1.4099  -21.2585 N   0  0  0  0  0  0  0  0  0  0  0  0
   -6.5572   -0.9147  -20.1850 C   0  0  0  0  0  0  0  0  0  0  0  0
   -6.8944   -1.1610  -18.8782 C   0  0  0  0  0  0  0  0  0  0  0  0
   -6.2574   -0.6027  -17.8159 N   0  0  0  0  0  0  0  0  0  0  0  0
   -5.2476    0.1977  -18.0642 C   0  0  0  0  0  0  0  0  0  0  0  0
   -4.7815    0.5213  -19.3725 C   0  0  0  0  0  0  0  0  0  0  0  0
   -3.6669    1.3724  -19.6055 C   0  0  0  0  0  0  0  0  0  0  0  0
   -3.2717    1.6573  -20.8847 C   0  0  0  0  0  0  0  0  0  0  0  0
   -3.9639    1.1090  -21.9886 C   0  0  0  0  0  0  0  0  0  0  0  0
   -5.0344    0.2741  -21.7876 C   0  0  0  0  0  0  0  0  0  0  0  0
   -5.4659   -0.0376  -20.4715 C   0  0  0  0  0  0  0  0  0  0  0  0
   -5.5552   -0.1702  -22.6284 H   0  0  0  0  0  0  0  0  0  0  0  0
   -3.6344    1.3373  -22.9980 H   0  0  0  0  0  0  0  0  0  0  0  0
   -2.4105    2.2953  -21.0659 H   0  0  0  0  0  0  0  0  0  0  0  0
   -3.1335    1.7836  -18.7524 H   0  0  0  0  0  0  0  0  0  0  0  0
   -4.7388    0.6320  -17.2029 H   0  0  0  0  0  0  0  0  0  0  0  0
   -7.7234   -1.8247  -18.6397 H   0  0  0  0  0  0  0  0  0  0  0  0
   -7.5942   -2.7546  -21.4278 C   0  0  0  0  0  0  0  0  0  0  0  0
   -7.0110   -3.6427  -20.8406 O   0  0  0  0  0  0  0  0  0  0  0  0
   -8.7294   -2.9123  -22.4581 C   0  0  1  0  0  0  0  0  0  0  0  0
   -9.9741   -3.3750  -21.6670 C   0  0  0  0  0  0  0  0  0  0  0  0
  -11.0616   -3.8177  -22.5275 N   0  0  0  0  0  0  0  0  0  0  0  0
  -12.4440   -3.6322  -22.1164 C   0  0  0  0  0  0  0  0  0  0  0  0
  -13.1695   -2.5349  -22.8367 C   0  0  0  0  0  0  0  0  0  0  0  0
  -13.6958   -2.4823  -24.0804 C   0  0  0  0  0  0  0  0  0  0  0  0
  -14.5501   -1.3975  -24.1203 N   0  0  0  0  0  4  0  0  0  0  0  0
  -14.4969   -0.7627  -22.9456 C   0  0  0  0  0  0  0  0  0  0  0  0
  -13.6412   -1.4274  -22.1567 N   0  0  0  0  0  0  0  0  0  0  0  0
  -13.3713   -1.1830  -21.2096 H   0  0  0  0  0  0  0  0  0  0  0  0
  -15.0056    0.1500  -22.6834 H   0  0  0  0  0  0  0  0  0  0  0  0
  -15.1814   -1.2126  -24.8913 H   0  0  0  0  0  0  0  0  0  0  0  0
  -13.5235   -3.1117  -24.9427 H   0  0  0  0  0  0  0  0  0  0  0  0
  -12.9779   -4.5620  -22.3414 H   0  0  0  0  0  0  0  0  0  0  0  0
  -12.4660   -3.4379  -21.0370 H   0  0  0  0  0  0  0  0  0  0  0  0
  -10.8478   -4.5728  -23.6475 C   0  0  0  0  0  0  0  0  0  0  0  0
  -11.7691   -5.0502  -24.3011 O   0  0  0  0  0  0  0  0  0  0  0  0
   -9.4200   -4.7665  -24.0511 C   0  0  0  0  0  0  0  0  0  0  0  0
   -9.1324   -5.7465  -25.0056 C   0  0  0  0  0  0  0  0  0  0  0  0
   -7.8469   -5.9107  -25.4879 C   0  0  0  0  0  0  0  0  0  0  0  0
   -6.8627   -5.0585  -25.0000 C   0  0  0  0  0  0  0  0  0  0  0  0
   -5.6140   -5.1812  -25.4789 F   0  0  0  0  0  0  0  0  0  0  0  0
   -7.1117   -4.1045  -24.0294 C   0  0  0  0  0  0  0  0  0  0  0  0
   -8.4087   -3.9538  -23.5216 C   0  0  0  0  0  0  0  0  0  0  0  0
   -6.2876   -3.5125  -23.6472 H   0  0  0  0  0  0  0  0  0  0  0  0
   -7.5902   -6.6790  -26.2125 H   0  0  0  0  0  0  0  0  0  0  0  0
   -9.9413   -6.3791  -25.3597 H   0  0  0  0  0  0  0  0  0  0  0  0
   -9.6549   -4.1702  -20.9868 H   0  0  0  0  0  0  0  0  0  0  0  0
  -10.3240   -2.5408  -21.0505 H   0  0  0  0  0  0  0  0  0  0  0  0
   -7.8240    0.3453  -22.3191 H   0  0  0  0  0  0  0  0  0  0  0  0
   -9.0763   -0.2117  -21.2135 H   0  0  0  0  0  0  0  0  0  0  0  0
   -8.2546   -1.3992  -23.9022 H   0  0  0  0  0  0  0  0  0  0  0  0
  -10.9122   -0.8773  -22.4660 H   0  0  0  0  0  0  0  0  0  0  0  0
  -10.8228   -1.7825  -23.9799 H   0  0  0  0  0  0  0  0  0  0  0  0
  -10.3292   -0.0818  -23.9231 H   0  0  0  0  0  0  0  0  0  0  0  0
  1  2  1  0
  2  3  1  0
  3  4  1  0
  4  5  1  0
  5  6  2  0
  6  7  1  0
  7  8  2  0
  8  9  1  0
  9 10  2  0
 10 11  1  0
 11 12  2  0
 12 13  1  0
 13 14  2  0
 13 15  1  0
 12 16  1  0
 11 17  1  0
 10 18  1  0
  8 19  1  0
  6 20  1  0
  4 21  1  0
 21 22  2  0
 21 23  1  0
 23 24  1  1
 24 25  1  0
 25 26  1  0
 26 27  1  0
 27 28  2  0
 28 29  1  0
 29 30  2  0
 30 31  1  0
 31 32  1  0
 30 33  1  0
 29 34  1  0
 28 35  1  0
 26 36  1  0
 26 37  1  0
 25 38  1  0
 38 39  2  0
 38 40  1  0
 40 41  2  0
 41 42  1  0
 42 43  2  0
 43 44  1  0
 43 45  1  0
 45 46  2  0
 45 47  1  0
 42 48  1  0
 41 49  1  0
 24 50  1  0
 24 51  1  0
  3 52  1  0
  3 53  1  0
  2 54  1  6
  1 55  1  0
  1 56  1  0
  1 57  1  0
 23  2  1  0
 31 27  1  0
 46 40  1  0
 14  5  1  0
 46 23  1  0
 14  9  1  0
M  CHG  1  29   1
M  END
>  <cnnaffinities>  (11) 
[6.7513, 6.78059]

>  <score>  (11) 
6.7513

>  <index>  (11) 
10

>  <Smiles>  (11) 
C([C@]1(C(N(c2c(nc(c3c(c(c(c(c23)[H])[H])[H])[H])[H])[H])C(=O)[C@]21C(N(C(c1c([n+](c(n1[H])[H])[H])[H])([H])[H])C(=O)c1c(c(c(F)c(c21)[H])[H])[H])([H])[H])([H])[H])[H])([H])([H])[H]

>  <h>  (11) 
<NA>

>  <Training>  (11) 
True

>  <Success>  (11) 
True

>  <enamine_searched>  (11) 
False

>  <enamine_id>  (11) 
nan

$$$$

     RDKit          3D

 48 52  0  0  0  0  0  0  0  0999 V2000
   -9.6068   -4.0200  -22.4780 C   0  0  0  0  0  0  0  0  0  0  0  0
   -8.8997   -2.7894  -22.1744 N   0  0  0  0  0  0  0  0  0  0  0  0
   -7.8727   -2.7149  -21.2731 C   0  0  0  0  0  0  0  0  0  0  0  0
   -7.3258   -3.6228  -20.6857 O   0  0  0  0  0  0  0  0  0  0  0  0
   -7.5016   -1.3597  -21.1861 N   0  0  0  0  0  0  0  0  0  0  0  0
   -6.6204   -0.8354  -20.1915 C   0  0  0  0  0  0  0  0  0  0  0  0
   -6.9078   -1.0711  -18.8703 C   0  0  0  0  0  0  0  0  0  0  0  0
   -6.2168   -0.5508  -17.8273 N   0  0  0  0  0  0  0  0  0  0  0  0
   -5.1835    0.2039  -18.0990 C   0  0  0  0  0  0  0  0  0  0  0  0
   -4.7424    0.5090  -19.4149 C   0  0  0  0  0  0  0  0  0  0  0  0
   -3.6151    1.3483  -19.6354 C   0  0  0  0  0  0  0  0  0  0  0  0
   -3.2071    1.6326  -20.9078 C   0  0  0  0  0  0  0  0  0  0  0  0
   -3.9054    1.0772  -22.0020 C   0  0  0  0  0  0  0  0  0  0  0  0
   -4.9925    0.2595  -21.8121 C   0  0  0  0  0  0  0  0  0  0  0  0
   -5.4646   -0.0343  -20.5034 C   0  0  0  0  0  0  0  0  0  0  0  0
   -5.5152   -0.1518  -22.6682 H   0  0  0  0  0  0  0  0  0  0  0  0
   -3.5653    1.2940  -23.0085 H   0  0  0  0  0  0  0  0  0  0  0  0
   -2.3421    2.2664  -21.0873 H   0  0  0  0  0  0  0  0  0  0  0  0
   -3.0914    1.7565  -18.7757 H   0  0  0  0  0  0  0  0  0  0  0  0
   -4.6366    0.6091  -17.2499 H   0  0  0  0  0  0  0  0  0  0  0  0
   -7.7527   -1.6964  -18.5937 H   0  0  0  0  0  0  0  0  0  0  0  0
   -8.2263   -0.5866  -22.0953 C   0  0  0  0  0  0  0  0  0  0  0  0
   -8.1063    0.6007  -22.2397 O   0  0  0  0  0  0  0  0  0  0  0  0
   -9.1688   -1.5281  -22.8221 C   0  0  0  0  0  0  0  0  0  0  0  0
   -9.1183   -1.4690  -24.3760 C   0  0  0  0  0  0  0  0  0  0  0  0
  -10.5094   -0.9682  -24.3835 N   0  0  0  0  0  0  0  0  0  0  0  0
  -10.8652    0.4449  -25.2005 S   0  0  0  0  0  0  0  0  0  0  0  0
  -12.2309    0.7675  -24.8452 O   0  0  0  0  0  0  0  0  0  0  0  0
  -10.4486    0.2381  -26.5707 O   0  0  0  0  0  0  0  0  0  0  0  0
   -9.8236    1.7438  -24.5530 C   0  0  0  0  0  0  0  0  0  0  0  0
  -10.2939    2.5477  -23.5209 C   0  0  0  0  0  0  0  0  0  0  0  0
   -9.5002    3.5975  -23.0785 C   0  0  0  0  0  0  0  0  0  0  0  0
   -8.2268    3.7978  -23.5965 C   0  0  0  0  0  0  0  0  0  0  0  0
   -7.7699    2.9908  -24.6324 C   0  0  0  0  0  0  0  0  0  0  0  0
   -8.5762    1.9738  -25.1311 C   0  0  0  0  0  0  0  0  0  0  0  0
   -8.2455    1.3592  -25.9644 H   0  0  0  0  0  0  0  0  0  0  0  0
   -6.7956    3.1743  -25.0727 H   0  0  0  0  0  0  0  0  0  0  0  0
   -7.6062    4.5901  -23.1881 H   0  0  0  0  0  0  0  0  0  0  0  0
   -9.8883    4.2997  -22.3527 H   0  0  0  0  0  0  0  0  0  0  0  0
  -11.2675    2.3519  -23.0762 H   0  0  0  0  0  0  0  0  0  0  0  0
  -10.6284   -1.0095  -22.9065 C   0  0  0  0  0  0  0  0  0  0  0  0
  -10.7919   -0.0349  -22.4297 H   0  0  0  0  0  0  0  0  0  0  0  0
  -11.3993   -1.7040  -22.5634 H   0  0  0  0  0  0  0  0  0  0  0  0
   -9.0328   -2.4362  -24.8783 H   0  0  0  0  0  0  0  0  0  0  0  0
   -8.3774   -0.7865  -24.8102 H   0  0  0  0  0  0  0  0  0  0  0  0
  -10.1328   -4.3937  -21.5895 H   0  0  0  0  0  0  0  0  0  0  0  0
  -10.3360   -3.7999  -23.2648 H   0  0  0  0  0  0  0  0  0  0  0  0
   -8.9074   -4.7895  -22.8298 H   0  0  0  0  0  0  0  0  0  0  0  0
  1  2  1  0
  2  3  1  0
  3  4  2  0
  3  5  1  0
  5  6  1  0
  6  7  2  0
  7  8  1  0
  8  9  2  0
  9 10  1  0
 10 11  2  0
 11 12  1  0
 12 13  2  0
 13 14  1  0
 14 15  2  0
 14 16  1  0
 13 17  1  0
 12 18  1  0
 11 19  1  0
  9 20  1  0
  7 21  1  0
  5 22  1  0
 22 23  2  0
 22 24  1  0
 24 25  1  0
 25 26  1  0
 26 27  1  0
 27 28  2  0
 27 29  2  0
 27 30  1  0
 30 31  2  0
 31 32  1  0
 32 33  2  0
 33 34  1  0
 34 35  2  0
 35 36  1  0
 34 37  1  0
 33 38  1  0
 32 39  1  0
 31 40  1  0
 26 41  1  0
 41 42  1  0
 41 43  1  0
 25 44  1  0
 25 45  1  0
  1 46  1  0
  1 47  1  0
  1 48  1  0
 24  2  1  0
 35 30  1  0
 15  6  1  0
 41 24  1  0
 15 10  1  0
M  END
>  <cnnaffinities>  (12) 
[5.82398, 5.82443, 5.82461, 5.82477, 5.50742, 4.88491, 5.65211]

>  <score>  (12) 
5.82398

>  <index>  (12) 
11

>  <Smiles>  (12) 
C(N1C(=O)N(c2c(nc(c3c(c(c(c(c23)[H])[H])[H])[H])[H])[H])C(=O)C21C(N(S(=O)(=O)c1c(c(c(c(c1[H])[H])[H])[H])[H])C2([H])[H])([H])[H])([H])([H])[H]

>  <h>  (12) 
<NA>

>  <Training>  (12) 
True

>  <Success>  (12) 
True

>  <enamine_searched>  (12) 
False

>  <enamine_id>  (12) 
nan

$$$$

     RDKit          3D

 76 82  0  0  0  0  0  0  0  0999 V2000
  -12.6739    0.0016  -23.6098 O   0  0  0  0  0  0  0  0  0  0  0  0
  -11.6856   -0.6866  -23.3707 C   0  0  0  0  0  0  0  0  0  0  0  0
  -11.7965   -1.8645  -22.4722 C   0  0  0  0  0  0  0  0  0  0  0  0
  -13.0223   -2.0599  -21.8438 C   0  0  0  0  0  0  0  0  0  0  0  0
  -13.1590   -3.0536  -20.9070 C   0  0  0  0  0  0  0  0  0  0  0  0
  -12.1631   -4.0067  -20.7948 C   0  0  0  0  0  0  0  0  0  0  0  0
  -12.2336   -5.0460  -19.3284 Cl  0  0  0  0  0  0  0  0  0  0  0  0
  -10.9605   -3.8655  -21.4858 C   0  0  0  0  0  0  0  0  0  0  0  0
  -10.6945   -2.6743  -22.1758 C   0  0  0  0  0  0  0  0  0  0  0  0
   -9.2969   -2.1605  -22.5030 C   0  0  1  0  0  0  0  0  0  0  0  0
   -9.3987   -1.4113  -23.8597 C   0  0  0  0  0  0  0  0  0  0  0  0
  -10.4391   -0.3971  -23.8279 N   0  0  0  0  0  0  0  0  0  0  0  0
  -10.2147    0.8571  -24.5233 C   0  0  0  0  0  0  0  0  0  0  0  0
   -9.2742    1.7785  -23.7309 C   0  0  0  0  0  0  0  0  0  0  0  0
   -9.9898    2.9143  -23.1180 N   0  0  0  0  0  4  0  0  0  0  0  0
  -10.4119    3.9371  -24.1266 C   0  0  0  0  0  0  0  0  0  0  0  0
  -10.8227    5.2028  -23.3717 C   0  0  0  0  0  0  0  0  0  0  0  0
  -11.0462    4.9182  -22.0025 O   0  0  0  0  0  0  0  0  0  0  0  0
  -11.8823    3.7983  -21.8139 C   0  0  0  0  0  0  0  0  0  0  0  0
  -11.1345    2.5189  -22.2052 C   0  0  0  0  0  0  0  0  0  0  0  0
  -10.7064    2.0124  -21.3337 H   0  0  0  0  0  0  0  0  0  0  0  0
  -11.8227    1.8468  -22.7082 H   0  0  0  0  0  0  0  0  0  0  0  0
  -12.1402    3.7567  -20.7525 H   0  0  0  0  0  0  0  0  0  0  0  0
  -12.8065    3.8974  -22.4026 H   0  0  0  0  0  0  0  0  0  0  0  0
  -10.0212    5.9468  -23.3922 H   0  0  0  0  0  0  0  0  0  0  0  0
  -11.7197    5.6480  -23.8281 H   0  0  0  0  0  0  0  0  0  0  0  0
   -9.5658    4.1313  -24.7904 H   0  0  0  0  0  0  0  0  0  0  0  0
  -11.2417    3.5581  -24.7313 H   0  0  0  0  0  0  0  0  0  0  0  0
   -9.3446    3.4113  -22.4731 H   0  0  0  0  0  0  0  0  0  0  0  0
   -8.7792    1.2291  -22.9258 H   0  0  0  0  0  0  0  0  0  0  0  0
   -8.4917    2.1831  -24.3832 H   0  0  0  0  0  0  0  0  0  0  0  0
   -9.8293    0.6503  -25.5263 H   0  0  0  0  0  0  0  0  0  0  0  0
  -11.1964    1.3187  -24.6646 H   0  0  0  0  0  0  0  0  0  0  0  0
   -8.4527   -0.9206  -24.1009 H   0  0  0  0  0  0  0  0  0  0  0  0
   -9.6176   -2.1252  -24.6671 H   0  0  0  0  0  0  0  0  0  0  0  0
   -8.7336   -1.1546  -21.4593 C   0  0  0  0  0  0  0  0  0  0  0  0
   -9.3139   -0.1856  -21.0069 O   0  0  0  0  0  0  0  0  0  0  0  0
   -7.4116   -1.4691  -21.2071 N   0  0  0  0  0  0  0  0  0  0  0  0
   -6.6496   -0.8340  -20.1870 C   0  0  0  0  0  0  0  0  0  0  0  0
   -6.9558   -1.0473  -18.8633 C   0  0  0  0  0  0  0  0  0  0  0  0
   -6.2490   -0.5533  -17.8129 N   0  0  0  0  0  0  0  0  0  0  0  0
   -5.2042    0.1899  -18.0835 C   0  0  0  0  0  0  0  0  0  0  0  0
   -4.7770    0.5044  -19.4032 C   0  0  0  0  0  0  0  0  0  0  0  0
   -3.6518    1.3393  -19.6321 C   0  0  0  0  0  0  0  0  0  0  0  0
   -3.2711    1.6497  -20.9079 C   0  0  0  0  0  0  0  0  0  0  0  0
   -3.9920    1.1348  -22.0081 C   0  0  0  0  0  0  0  0  0  0  0  0
   -5.0806    0.3180  -21.8114 C   0  0  0  0  0  0  0  0  0  0  0  0
   -5.5081   -0.0191  -20.4976 C   0  0  0  0  0  0  0  0  0  0  0  0
   -5.6278   -0.0580  -22.6695 H   0  0  0  0  0  0  0  0  0  0  0  0
   -3.6759    1.3861  -23.0167 H   0  0  0  0  0  0  0  0  0  0  0  0
   -2.4093    2.2876  -21.0871 H   0  0  0  0  0  0  0  0  0  0  0  0
   -3.1093    1.7280  -18.7732 H   0  0  0  0  0  0  0  0  0  0  0  0
   -4.6277    0.5880  -17.2439 H   0  0  0  0  0  0  0  0  0  0  0  0
   -7.8099   -1.6673  -18.6026 H   0  0  0  0  0  0  0  0  0  0  0  0
   -6.9181   -2.5760  -22.0138 C   0  0  0  0  0  0  0  0  0  0  0  0
   -8.2086   -3.2497  -22.4961 C   0  0  2  0  0  0  0  0  0  0  0  0
   -8.0949   -4.0043  -23.8120 C   0  0  0  0  0  0  0  0  0  0  0  0
   -7.1774   -5.1095  -23.7157 N   0  0  0  0  0  0  0  0  0  0  0  0
   -6.9119   -5.9085  -24.7752 C   0  0  0  0  0  0  0  0  0  0  0  0
   -6.0669   -6.9312  -24.5388 N   0  0  0  0  0  0  0  0  0  0  0  0
   -5.7790   -7.6870  -25.5858 C   0  0  0  0  0  0  0  0  0  0  0  0
   -6.3024   -7.4731  -26.8569 C   0  0  0  0  0  0  0  0  0  0  0  0
   -7.1776   -6.4052  -26.9731 C   0  0  0  0  0  0  0  0  0  0  0  0
   -7.4891   -5.6085  -25.9516 N   0  0  0  0  0  0  0  0  0  0  0  0
   -7.6445   -6.1727  -27.9309 H   0  0  0  0  0  0  0  0  0  0  0  0
   -6.0490   -8.1081  -27.6959 H   0  0  0  0  0  0  0  0  0  0  0  0
   -5.0893   -8.5060  -25.3938 H   0  0  0  0  0  0  0  0  0  0  0  0
   -6.8217   -5.4123  -22.8245 H   0  0  0  0  0  0  0  0  0  0  0  0
   -7.7466   -3.3407  -24.6156 H   0  0  0  0  0  0  0  0  0  0  0  0
   -9.0880   -4.3709  -24.1057 H   0  0  0  0  0  0  0  0  0  0  0  0
   -8.4774   -3.9557  -21.7059 H   0  0  0  0  0  0  0  0  0  0  0  0
   -6.3105   -3.2481  -21.4002 H   0  0  0  0  0  0  0  0  0  0  0  0
   -6.2957   -2.2299  -22.8524 H   0  0  0  0  0  0  0  0  0  0  0  0
  -10.2100   -4.6336  -21.3830 H   0  0  0  0  0  0  0  0  0  0  0  0
  -14.0444   -3.1241  -20.2879 H   0  0  0  0  0  0  0  0  0  0  0  0
  -13.8362   -1.3831  -22.0749 H   0  0  0  0  0  0  0  0  0  0  0  0
  1  2  2  0
  2  3  1  0
  3  4  2  0
  4  5  1  0
  5  6  2  0
  6  7  1  0
  6  8  1  0
  8  9  2  0
  9 10  1  0
 10 11  1  6
 11 12  1  0
 12 13  1  0
 13 14  1  0
 14 15  1  0
 15 16  1  0
 16 17  1  0
 17 18  1  0
 18 19  1  0
 19 20  1  0
 20 21  1  0
 20 22  1  0
 19 23  1  0
 19 24  1  0
 17 25  1  0
 17 26  1  0
 16 27  1  0
 16 28  1  0
 15 29  1  0
 14 30  1  0
 14 31  1  0
 13 32  1  0
 13 33  1  0
 11 34  1  0
 11 35  1  0
 10 36  1  0
 36 37  2  0
 36 38  1  0
 38 39  1  0
 39 40  2  0
 40 41  1  0
 41 42  2  0
 42 43  1  0
 43 44  2  0
 44 45  1  0
 45 46  2  0
 46 47  1  0
 47 48  2  0
 47 49  1  0
 46 50  1  0
 45 51  1  0
 44 52  1  0
 42 53  1  0
 40 54  1  0
 38 55  1  0
 55 56  1  0
 56 57  1  0
 57 58  1  0
 58 59  1  0
 59 60  2  0
 60 61  1  0
 61 62  2  0
 62 63  1  0
 63 64  2  0
 63 65  1  0
 62 66  1  0
 61 67  1  0
 58 68  1  0
 57 69  1  0
 57 70  1  0
 56 71  1  1
 55 72  1  0
 55 73  1  0
  8 74  1  0
  5 75  1  0
  4 76  1  0
 12  2  1  0
 20 15  1  0
 48 39  1  0
 64 59  1  0
  9  3  1  0
 56 10  1  0
 48 43  1  0
M  CHG  1  15   1
M  END
>  <cnnaffinities>  (13) 
[6.4691]

>  <score>  (13) 
6.4691

>  <index>  (13) 
12

>  <Smiles>  (13) 
O=C1c2c(c(c(Cl)c(c2[C@@]2(C(N1C(C([N+]1(C(C(OC(C1([H])[H])([H])[H])([H])[H])([H])[H])[H])([H])[H])([H])[H])([H])[H])C(=O)N(c1c(nc(c3c(c(c(c(c13)[H])[H])[H])[H])[H])[H])C([C@@]2(C(N(c1nc(c(c(n1)[H])[H])[H])[H])([H])[H])[H])([H])[H])[H])[H])[H]

>  <h>  (13) 
<NA>

>  <Training>  (13) 
True

>  <Success>  (13) 
True

>  <enamine_searched>  (13) 
False

>  <enamine_id>  (13) 
nan

$$$$

     RDKit          3D

 69 74  0  0  0  0  0  0  0  0999 V2000
   -5.1192   -4.0160  -19.3710 C   0  0  0  0  0  0  0  0  0  0  0  0
   -6.2488   -4.7760  -19.8834 N   0  0  0  0  0  0  0  0  0  0  0  0
   -6.0322   -5.7300  -20.8390 C   0  0  0  0  0  0  0  0  0  0  0  0
   -4.9145   -6.1594  -21.0880 O   0  0  0  0  0  0  0  0  0  0  0  0
   -7.2670   -6.2288  -21.6103 C   0  0  0  0  0  0  0  0  0  0  0  0
   -7.5880   -5.3239  -22.7028 N   0  0  0  0  0  0  0  0  0  0  0  0
   -8.4948   -4.2178  -22.4920 C   0  0  0  0  0  0  0  0  0  0  0  0
   -7.9199   -2.8682  -23.0039 C   0  0  2  0  0  0  0  0  0  0  0  0
   -6.7950   -2.3756  -22.0767 C   0  0  0  0  0  0  0  0  0  0  0  0
   -5.6371   -2.7536  -22.0639 O   0  0  0  0  0  0  0  0  0  0  0  0
   -7.3074   -1.4245  -21.2269 N   0  0  0  0  0  0  0  0  0  0  0  0
   -6.5659   -0.8430  -20.1864 C   0  0  0  0  0  0  0  0  0  0  0  0
   -6.9292   -1.0495  -18.8780 C   0  0  0  0  0  0  0  0  0  0  0  0
   -6.2498   -0.5579  -17.8151 N   0  0  0  0  0  0  0  0  0  0  0  0
   -5.1933    0.1810  -18.0656 C   0  0  0  0  0  0  0  0  0  0  0  0
   -4.7369    0.5022  -19.3776 C   0  0  0  0  0  0  0  0  0  0  0  0
   -3.6122    1.3408  -19.5993 C   0  0  0  0  0  0  0  0  0  0  0  0
   -3.2316    1.6698  -20.8711 C   0  0  0  0  0  0  0  0  0  0  0  0
   -3.9485    1.1746  -21.9835 C   0  0  0  0  0  0  0  0  0  0  0  0
   -5.0308    0.3522  -21.7988 C   0  0  0  0  0  0  0  0  0  0  0  0
   -5.4428   -0.0125  -20.4840 C   0  0  0  0  0  0  0  0  0  0  0  0
   -5.5801   -0.0301  -22.6538 H   0  0  0  0  0  0  0  0  0  0  0  0
   -3.6312    1.4401  -22.9879 H   0  0  0  0  0  0  0  0  0  0  0  0
   -2.3697    2.3103  -21.0380 H   0  0  0  0  0  0  0  0  0  0  0  0
   -3.0770    1.7231  -18.7345 H   0  0  0  0  0  0  0  0  0  0  0  0
   -4.6464    0.5743  -17.2095 H   0  0  0  0  0  0  0  0  0  0  0  0
   -7.7985   -1.6617  -18.6432 H   0  0  0  0  0  0  0  0  0  0  0  0
   -8.7273   -1.2177  -21.3884 C   0  0  0  0  0  0  0  0  0  0  0  0
   -8.9580   -1.7524  -22.8047 C   0  0  2  0  0  0  0  0  0  0  0  0
  -10.3900   -2.1504  -23.0727 C   0  0  0  0  0  0  0  0  0  0  0  0
  -11.1918   -0.9600  -23.2288 N   0  0  0  0  0  0  0  0  0  0  0  0
  -12.5397   -1.1169  -23.3210 C   0  0  0  0  0  0  0  0  0  0  0  0
  -13.4169   -0.0606  -23.0214 C   0  0  0  0  0  0  0  0  0  0  0  0
  -14.7461   -0.3905  -23.0465 C   0  0  0  0  0  0  0  0  0  0  0  0
  -15.1940   -1.5972  -23.4114 N   0  0  0  0  0  0  0  0  0  0  0  0
  -14.2856   -2.4887  -23.7822 C   0  0  0  0  0  0  0  0  0  0  0  0
  -14.8000   -3.7847  -24.3407 C   0  0  0  0  0  0  0  0  0  0  0  0
  -14.9106   -3.7124  -25.4250 H   0  0  0  0  0  0  0  0  0  0  0  0
  -14.1296   -4.6107  -24.1076 H   0  0  0  0  0  0  0  0  0  0  0  0
  -15.7928   -3.9899  -23.9466 H   0  0  0  0  0  0  0  0  0  0  0  0
  -12.9647   -2.3165  -23.7299 N   0  0  0  0  0  0  0  0  0  0  0  0
  -15.4967    0.3448  -22.7591 H   0  0  0  0  0  0  0  0  0  0  0  0
  -13.0610    0.9345  -22.7534 H   0  0  0  0  0  0  0  0  0  0  0  0
  -10.8860   -0.1504  -22.7062 H   0  0  0  0  0  0  0  0  0  0  0  0
  -10.4853   -2.7705  -23.9678 H   0  0  0  0  0  0  0  0  0  0  0  0
  -10.7600   -2.7893  -22.2556 H   0  0  0  0  0  0  0  0  0  0  0  0
   -8.7109   -0.9394  -23.4836 H   0  0  0  0  0  0  0  0  0  0  0  0
   -9.3161   -1.7821  -20.6503 H   0  0  0  0  0  0  0  0  0  0  0  0
   -8.9692   -0.1561  -21.2807 H   0  0  0  0  0  0  0  0  0  0  0  0
   -7.4337   -3.0631  -24.4225 C   0  0  0  0  0  0  0  0  0  0  0  0
   -7.3333   -1.9891  -25.3214 C   0  0  0  0  0  0  0  0  0  0  0  0
   -6.8271   -2.1914  -26.5921 C   0  0  0  0  0  0  0  0  0  0  0  0
   -6.6854   -0.8257  -27.6724 Cl  0  0  0  0  0  0  0  0  0  0  0  0
   -6.4129   -3.4544  -27.0158 C   0  0  0  0  0  0  0  0  0  0  0  0
   -6.4965   -4.5148  -26.1328 C   0  0  0  0  0  0  0  0  0  0  0  0
   -6.9846   -4.3237  -24.8412 C   0  0  0  0  0  0  0  0  0  0  0  0
   -6.9563   -5.5033  -23.9059 C   0  0  0  0  0  0  0  0  0  0  0  0
   -6.3774   -6.5414  -24.1892 O   0  0  0  0  0  0  0  0  0  0  0  0
   -6.1719   -5.5122  -26.4148 H   0  0  0  0  0  0  0  0  0  0  0  0
   -6.0229   -3.5865  -28.0184 H   0  0  0  0  0  0  0  0  0  0  0  0
   -7.6403   -0.9853  -25.0502 H   0  0  0  0  0  0  0  0  0  0  0  0
   -9.4290   -4.4257  -23.0287 H   0  0  0  0  0  0  0  0  0  0  0  0
   -8.7343   -4.1384  -21.4256 H   0  0  0  0  0  0  0  0  0  0  0  0
   -7.0235   -7.1926  -22.0629 H   0  0  0  0  0  0  0  0  0  0  0  0
   -8.1513   -6.3535  -20.9691 H   0  0  0  0  0  0  0  0  0  0  0  0
   -7.1422   -4.2981  -19.8757 H   0  0  0  0  0  0  0  0  0  0  0  0
   -4.2991   -4.7119  -19.2400 H   0  0  0  0  0  0  0  0  0  0  0  0
   -5.3839   -3.5484  -18.4156 H   0  0  0  0  0  0  0  0  0  0  0  0
   -4.8076   -3.2522  -20.0934 H   0  0  0  0  0  0  0  0  0  0  0  0
  1  2  1  0
  2  3  1  0
  3  4  2  0
  3  5  1  0
  5  6  1  0
  6  7  1  0
  8  7  1  1
  8  9  1  0
  9 10  2  0
  9 11  1  0
 11 12  1  0
 12 13  2  0
 13 14  1  0
 14 15  2  0
 15 16  1  0
 16 17  2  0
 17 18  1  0
 18 19  2  0
 19 20  1  0
 20 21  2  0
 20 22  1  0
 19 23  1  0
 18 24  1  0
 17 25  1  0
 15 26  1  0
 13 27  1  0
 11 28  1  0
 28 29  1  0
 29 30  1  0
 30 31  1  0
 31 32  1  0
 32 33  2  0
 33 34  1  0
 34 35  2  0
 35 36  1  0
 36 37  1  0
 37 38  1  0
 37 39  1  0
 37 40  1  0
 36 41  2  0
 34 42  1  0
 33 43  1  0
 31 44  1  0
 30 45  1  0
 30 46  1  0
 29 47  1  6
 28 48  1  0
 28 49  1  0
  8 50  1  0
 50 51  2  0
 51 52  1  0
 52 53  1  0
 52 54  2  0
 54 55  1  0
 55 56  2  0
 56 57  1  0
 57 58  2  0
 55 59  1  0
 54 60  1  0
 51 61  1  0
  7 62  1  0
  7 63  1  0
  5 64  1  0
  5 65  1  0
  2 66  1  0
  1 67  1  0
  1 68  1  0
  1 69  1  0
 57  6  1  0
 29  8  1  0
 41 32  1  0
 56 50  1  0
 21 12  1  0
 21 16  1  0
M  END
>  <cnnaffinities>  (14) 
[6.80653, 6.37759]

>  <score>  (14) 
6.80653

>  <index>  (14) 
13

>  <Smiles>  (14) 
C(N(C(=O)C(N1C([C@@]2(C(=O)N(c3c(nc(c4c(c(c(c(c34)[H])[H])[H])[H])[H])[H])C([C@@]2(C(N(c2c(c(nc(C([H])([H])[H])n2)[H])[H])[H])([H])[H])[H])([H])[H])c2c(c(Cl)c(c(c2C1=O)[H])[H])[H])([H])[H])([H])[H])[H])([H])([H])[H]

>  <h>  (14) 
<NA>

>  <Training>  (14) 
True

>  <Success>  (14) 
True

>  <enamine_searched>  (14) 
False

>  <enamine_id>  (14) 
nan

$$$$

     RDKit          3D

 73 78  0  0  0  0  0  0  0  0999 V2000
   -7.8457   -3.8493  -23.9536 C   0  0  0  0  0  0  0  0  0  0  0  0
   -8.1859   -2.9190  -22.7968 C   0  0  1  0  0  0  0  0  0  0  0  0
   -7.0813   -2.7080  -21.7598 C   0  0  0  0  0  0  0  0  0  0  0  0
   -7.4271   -1.4227  -21.1714 N   0  0  0  0  0  0  0  0  0  0  0  0
   -6.6495   -0.8191  -20.1474 C   0  0  0  0  0  0  0  0  0  0  0  0
   -6.9564   -1.0625  -18.8359 C   0  0  0  0  0  0  0  0  0  0  0  0
   -6.2684   -0.5596  -17.7788 N   0  0  0  0  0  0  0  0  0  0  0  0
   -5.2361    0.2026  -18.0431 C   0  0  0  0  0  0  0  0  0  0  0  0
   -4.7969    0.5288  -19.3582 C   0  0  0  0  0  0  0  0  0  0  0  0
   -3.6667    1.3578  -19.5892 C   0  0  0  0  0  0  0  0  0  0  0  0
   -3.2676    1.6450  -20.8625 C   0  0  0  0  0  0  0  0  0  0  0  0
   -3.9781    1.1205  -21.9671 C   0  0  0  0  0  0  0  0  0  0  0  0
   -5.0746    0.3195  -21.7730 C   0  0  0  0  0  0  0  0  0  0  0  0
   -5.5188    0.0063  -20.4554 C   0  0  0  0  0  0  0  0  0  0  0  0
   -5.6117   -0.0781  -22.6317 H   0  0  0  0  0  0  0  0  0  0  0  0
   -3.6436    1.3524  -22.9726 H   0  0  0  0  0  0  0  0  0  0  0  0
   -2.3990    2.2731  -21.0416 H   0  0  0  0  0  0  0  0  0  0  0  0
   -3.1320    1.7571  -18.7308 H   0  0  0  0  0  0  0  0  0  0  0  0
   -4.6831    0.6025  -17.1920 H   0  0  0  0  0  0  0  0  0  0  0  0
   -7.8094   -1.6932  -18.5916 H   0  0  0  0  0  0  0  0  0  0  0  0
   -8.3016   -0.6731  -21.9348 C   0  0  0  0  0  0  0  0  0  0  0  0
   -8.6661    0.4472  -21.6434 O   0  0  0  0  0  0  0  0  0  0  0  0
   -8.6769   -1.4879  -23.1868 C   0  0  1  0  0  0  0  0  0  0  0  0
   -7.9468   -0.8407  -24.3897 C   0  0  0  0  0  0  0  0  0  0  0  0
   -8.5890   -1.0921  -25.6730 N   0  0  0  0  0  0  0  0  0  0  0  0
   -7.7647   -1.0243  -26.8756 C   0  0  0  0  0  0  0  0  0  0  0  0
   -7.3385   -2.4202  -27.3440 C   0  0  0  0  0  0  0  0  0  0  0  0
   -6.6095   -2.4448  -28.6495 N   0  0  0  0  0  4  0  0  0  0  0  0
   -7.4149   -1.8657  -29.7841 C   0  0  0  0  0  0  0  0  0  0  0  0
   -6.5803   -1.7260  -31.0554 C   0  0  0  0  0  0  0  0  0  0  0  0
   -5.6795   -2.8649  -31.2888 N   0  0  0  0  0  0  0  0  0  0  0  0
   -4.6927   -2.7996  -32.6291 S   0  0  0  0  0  0  0  0  0  0  0  0
   -4.6423   -1.4270  -33.1003 O   0  0  0  0  0  0  0  0  0  0  0  0
   -3.4726   -3.5362  -32.3373 O   0  0  0  0  0  0  0  0  0  0  0  0
   -5.6393   -3.7583  -33.7943 C   0  0  0  0  0  0  0  0  0  0  0  0
   -5.8527   -4.7319  -33.3456 H   0  0  0  0  0  0  0  0  0  0  0  0
   -5.0425   -3.8805  -34.6998 H   0  0  0  0  0  0  0  0  0  0  0  0
   -6.5627   -3.2217  -34.0225 H   0  0  0  0  0  0  0  0  0  0  0  0
   -5.3785   -3.9176  -30.3054 C   0  0  0  0  0  0  0  0  0  0  0  0
   -6.2468   -3.8593  -29.0456 C   0  0  0  0  0  0  0  0  0  0  0  0
   -7.1815   -4.4075  -29.2093 H   0  0  0  0  0  0  0  0  0  0  0  0
   -5.7361   -4.3413  -28.2088 H   0  0  0  0  0  0  0  0  0  0  0  0
   -4.3160   -3.8743  -30.0519 H   0  0  0  0  0  0  0  0  0  0  0  0
   -5.5298   -4.8916  -30.7842 H   0  0  0  0  0  0  0  0  0  0  0  0
   -5.9937   -0.7989  -31.0336 H   0  0  0  0  0  0  0  0  0  0  0  0
   -7.2768   -1.6582  -31.8958 H   0  0  0  0  0  0  0  0  0  0  0  0
   -8.2781   -2.5271  -29.9137 H   0  0  0  0  0  0  0  0  0  0  0  0
   -7.7882   -0.8850  -29.4998 H   0  0  0  0  0  0  0  0  0  0  0  0
   -5.7185   -1.9068  -28.5622 H   0  0  0  0  0  0  0  0  0  0  0  0
   -8.2265   -3.0585  -27.4371 H   0  0  0  0  0  0  0  0  0  0  0  0
   -6.6922   -2.8763  -26.5880 H   0  0  0  0  0  0  0  0  0  0  0  0
   -6.8748   -0.4038  -26.7019 H   0  0  0  0  0  0  0  0  0  0  0  0
   -8.3744   -0.5315  -27.6303 H   0  0  0  0  0  0  0  0  0  0  0  0
   -9.9492   -0.8961  -25.8217 C   0  0  0  0  0  0  0  0  0  0  0  0
  -10.4507   -0.5241  -26.8735 O   0  0  0  0  0  0  0  0  0  0  0  0
  -10.7778   -1.2334  -24.6145 C   0  0  0  0  0  0  0  0  0  0  0  0
  -12.1676   -1.3261  -24.7356 C   0  0  0  0  0  0  0  0  0  0  0  0
  -12.9549   -1.7525  -23.6773 C   0  0  0  0  0  0  0  0  0  0  0  0
  -12.3283   -2.0591  -22.4677 C   0  0  0  0  0  0  0  0  0  0  0  0
  -13.2389   -2.5433  -21.0705 Cl  0  0  0  0  0  0  0  0  0  0  0  0
  -10.9638   -1.9376  -22.3174 C   0  0  0  0  0  0  0  0  0  0  0  0
  -10.1670   -1.5302  -23.3981 C   0  0  0  0  0  0  0  0  0  0  0  0
  -10.5273   -2.1739  -21.3489 H   0  0  0  0  0  0  0  0  0  0  0  0
  -14.0314   -1.8642  -23.7901 H   0  0  0  0  0  0  0  0  0  0  0  0
  -12.6283   -1.0284  -25.6720 H   0  0  0  0  0  0  0  0  0  0  0  0
   -6.9161   -1.2190  -24.4299 H   0  0  0  0  0  0  0  0  0  0  0  0
   -7.8806    0.2461  -24.2268 H   0  0  0  0  0  0  0  0  0  0  0  0
   -6.0844   -2.6993  -22.2276 H   0  0  0  0  0  0  0  0  0  0  0  0
   -7.0838   -3.4907  -20.9952 H   0  0  0  0  0  0  0  0  0  0  0  0
   -9.0308   -3.3675  -22.2612 H   0  0  0  0  0  0  0  0  0  0  0  0
   -7.6836   -4.8679  -23.5885 H   0  0  0  0  0  0  0  0  0  0  0  0
   -8.6605   -3.8760  -24.6868 H   0  0  0  0  0  0  0  0  0  0  0  0
   -6.9359   -3.5282  -24.4703 H   0  0  0  0  0  0  0  0  0  0  0  0
  1  2  1  0
  2  3  1  0
  3  4  1  0
  4  5  1  0
  5  6  2  0
  6  7  1  0
  7  8  2  0
  8  9  1  0
  9 10  2  0
 10 11  1  0
 11 12  2  0
 12 13  1  0
 13 14  2  0
 13 15  1  0
 12 16  1  0
 11 17  1  0
 10 18  1  0
  8 19  1  0
  6 20  1  0
  4 21  1  0
 21 22  2  0
 21 23  1  0
 23 24  1  6
 24 25  1  0
 25 26  1  0
 26 27  1  0
 27 28  1  0
 28 29  1  0
 29 30  1  0
 30 31  1  0
 31 32  1  0
 32 33  2  0
 32 34  2  0
 32 35  1  0
 35 36  1  0
 35 37  1  0
 35 38  1  0
 31 39  1  0
 39 40  1  0
 40 41  1  0
 40 42  1  0
 39 43  1  0
 39 44  1  0
 30 45  1  0
 30 46  1  0
 29 47  1  0
 29 48  1  0
 28 49  1  0
 27 50  1  0
 27 51  1  0
 26 52  1  0
 26 53  1  0
 25 54  1  0
 54 55  2  0
 54 56  1  0
 56 57  2  0
 57 58  1  0
 58 59  2  0
 59 60  1  0
 59 61  1  0
 61 62  2  0
 61 63  1  0
 58 64  1  0
 57 65  1  0
 24 66  1  0
 24 67  1  0
  3 68  1  0
  3 69  1  0
  2 70  1  1
  1 71  1  0
  1 72  1  0
  1 73  1  0
 23  2  1  0
 40 28  1  0
 62 56  1  0
 14  5  1  0
 62 23  1  0
 14  9  1  0
M  CHG  1  28   1
M  END
>  <cnnaffinities>  (15) 
[4.89876]

>  <score>  (15) 
4.89876

>  <index>  (15) 
14

>  <Smiles>  (15) 
C([C@]1(C(N(c2c(nc(c3c(c(c(c(c23)[H])[H])[H])[H])[H])[H])C(=O)[C@]21C(N(C(C([N+]1(C(C(N(S(=O)(=O)C([H])([H])[H])C(C1([H])[H])([H])[H])([H])[H])([H])[H])[H])([H])[H])([H])[H])C(=O)c1c(c(c(Cl)c(c21)[H])[H])[H])([H])[H])([H])[H])[H])([H])([H])[H]

>  <h>  (15) 
<NA>

>  <Training>  (15) 
True

>  <Success>  (15) 
True

>  <enamine_searched>  (15) 
False

>  <enamine_id>  (15) 
nan

$$$$

     RDKit          3D

 63 68  0  0  0  0  0  0  0  0999 V2000
   -7.4879    3.3192  -21.6880 C   0  0  0  0  0  0  0  0  0  0  0  0
   -8.4208    2.8801  -22.7067 N   0  0  0  0  0  0  0  0  0  0  0  0
   -7.8843    2.2111  -23.7528 C   0  0  0  0  0  0  0  0  0  0  0  0
   -6.6726    2.1216  -23.9080 O   0  0  0  0  0  0  0  0  0  0  0  0
   -8.8410    1.5912  -24.7670 C   0  0  0  0  0  0  0  0  0  0  0  0
   -9.5130    0.4016  -24.2887 N   0  0  0  0  0  0  0  0  0  0  0  0
   -8.7498   -0.8293  -24.1791 C   0  0  0  0  0  0  0  0  0  0  0  0
   -9.0776   -1.5810  -22.8669 C   0  0  2  0  0  0  0  0  0  0  0  0
   -8.5415   -0.7874  -21.6460 C   0  0  0  0  0  0  0  0  0  0  0  0
   -9.0338    0.2049  -21.1398 O   0  0  0  0  0  0  0  0  0  0  0  0
   -7.3864   -1.3905  -21.2048 N   0  0  0  0  0  0  0  0  0  0  0  0
   -6.5999   -0.8158  -20.1717 C   0  0  0  0  0  0  0  0  0  0  0  0
   -6.9100   -1.0456  -18.8548 C   0  0  0  0  0  0  0  0  0  0  0  0
   -6.2101   -0.5473  -17.8048 N   0  0  0  0  0  0  0  0  0  0  0  0
   -5.1716    0.2070  -18.0744 C   0  0  0  0  0  0  0  0  0  0  0  0
   -4.7340    0.5306  -19.3909 C   0  0  0  0  0  0  0  0  0  0  0  0
   -3.6126    1.3719  -19.6368 C   0  0  0  0  0  0  0  0  0  0  0  0
   -3.2372    1.6725  -20.9166 C   0  0  0  0  0  0  0  0  0  0  0  0
   -3.9616    1.1483  -22.0114 C   0  0  0  0  0  0  0  0  0  0  0  0
   -5.0466    0.3316  -21.8004 C   0  0  0  0  0  0  0  0  0  0  0  0
   -5.4659    0.0023  -20.4819 C   0  0  0  0  0  0  0  0  0  0  0  0
   -5.6069   -0.0493  -22.6492 H   0  0  0  0  0  0  0  0  0  0  0  0
   -3.6618    1.3937  -23.0239 H   0  0  0  0  0  0  0  0  0  0  0  0
   -2.3803    2.3147  -21.1000 H   0  0  0  0  0  0  0  0  0  0  0  0
   -3.0717    1.7730  -18.7835 H   0  0  0  0  0  0  0  0  0  0  0  0
   -4.6180    0.6103  -17.2257 H   0  0  0  0  0  0  0  0  0  0  0  0
   -7.7620   -1.6719  -18.6015 H   0  0  0  0  0  0  0  0  0  0  0  0
   -7.0217   -2.5882  -21.9345 C   0  0  0  0  0  0  0  0  0  0  0  0
   -8.2894   -2.9217  -22.7411 C   0  0  2  0  0  0  0  0  0  0  0  0
   -7.9698   -3.6689  -24.0522 C   0  0  0  0  0  0  0  0  0  0  0  0
   -7.3927   -4.9844  -23.8152 N   0  0  0  0  0  0  0  0  0  0  0  0
   -8.0712   -6.1167  -23.5181 C   0  0  0  0  0  0  0  0  0  0  0  0
   -7.1345   -7.1007  -23.2877 C   0  0  0  0  0  0  0  0  0  0  0  0
   -5.8977   -6.4428  -23.4784 C   0  0  0  0  0  0  0  0  0  0  0  0
   -6.0636   -5.1623  -23.7908 N   0  0  0  0  0  0  0  0  0  0  0  0
   -4.8882   -6.8335  -23.4032 H   0  0  0  0  0  0  0  0  0  0  0  0
   -7.3155   -8.1356  -23.0210 H   0  0  0  0  0  0  0  0  0  0  0  0
   -9.1561   -6.1124  -23.5015 H   0  0  0  0  0  0  0  0  0  0  0  0
   -7.2333   -3.1207  -24.6491 H   0  0  0  0  0  0  0  0  0  0  0  0
   -8.8833   -3.8159  -24.6428 H   0  0  0  0  0  0  0  0  0  0  0  0
   -8.9105   -3.5920  -22.1422 H   0  0  0  0  0  0  0  0  0  0  0  0
   -6.1647   -2.4067  -22.6018 H   0  0  0  0  0  0  0  0  0  0  0  0
   -6.7371   -3.3896  -21.2436 H   0  0  0  0  0  0  0  0  0  0  0  0
  -10.5890   -1.6876  -22.7723 C   0  0  0  0  0  0  0  0  0  0  0  0
  -11.1634   -2.6063  -21.8921 C   0  0  0  0  0  0  0  0  0  0  0  0
  -12.5308   -2.6432  -21.7114 C   0  0  0  0  0  0  0  0  0  0  0  0
  -13.1447   -3.6691  -20.4487 Cl  0  0  0  0  0  0  0  0  0  0  0  0
  -13.3824   -1.8139  -22.4445 C   0  0  0  0  0  0  0  0  0  0  0  0
  -12.8235   -0.8661  -23.2789 C   0  0  0  0  0  0  0  0  0  0  0  0
  -11.4375   -0.7701  -23.4082 C   0  0  0  0  0  0  0  0  0  0  0  0
  -10.8777    0.3998  -24.1588 C   0  0  0  0  0  0  0  0  0  0  0  0
  -11.5892    1.2969  -24.5856 O   0  0  0  0  0  0  0  0  0  0  0  0
  -13.4347   -0.1436  -23.8123 H   0  0  0  0  0  0  0  0  0  0  0  0
  -14.4577   -1.8773  -22.3331 H   0  0  0  0  0  0  0  0  0  0  0  0
  -10.5570   -3.2707  -21.2890 H   0  0  0  0  0  0  0  0  0  0  0  0
   -8.9714   -1.4931  -25.0300 H   0  0  0  0  0  0  0  0  0  0  0  0
   -7.6894   -0.5559  -24.1955 H   0  0  0  0  0  0  0  0  0  0  0  0
   -9.6362    2.2881  -25.0234 H   0  0  0  0  0  0  0  0  0  0  0  0
   -8.2324    1.3653  -25.6526 H   0  0  0  0  0  0  0  0  0  0  0  0
   -9.4008    2.7632  -22.4936 H   0  0  0  0  0  0  0  0  0  0  0  0
   -6.8351    2.4811  -21.4172 H   0  0  0  0  0  0  0  0  0  0  0  0
   -8.0235    3.6788  -20.8153 H   0  0  0  0  0  0  0  0  0  0  0  0
   -6.8571    4.1215  -22.0770 H   0  0  0  0  0  0  0  0  0  0  0  0
  1  2  1  0
  2  3  1  0
  3  4  2  0
  3  5  1  0
  5  6  1  0
  6  7  1  0
  8  7  1  6
  8  9  1  0
  9 10  2  0
  9 11  1  0
 11 12  1  0
 12 13  2  0
 13 14  1  0
 14 15  2  0
 15 16  1  0
 16 17  2  0
 17 18  1  0
 18 19  2  0
 19 20  1  0
 20 21  2  0
 20 22  1  0
 19 23  1  0
 18 24  1  0
 17 25  1  0
 15 26  1  0
 13 27  1  0
 11 28  1  0
 28 29  1  0
 29 30  1  0
 30 31  1  0
 31 32  1  0
 32 33  2  0
 33 34  1  0
 34 35  2  0
 34 36  1  0
 33 37  1  0
 32 38  1  0
 30 39  1  0
 30 40  1  0
 29 41  1  1
 28 42  1  0
 28 43  1  0
  8 44  1  0
 44 45  2  0
 45 46  1  0
 46 47  1  0
 46 48  2  0
 48 49  1  0
 49 50  2  0
 50 51  1  0
 51 52  2  0
 49 53  1  0
 48 54  1  0
 45 55  1  0
  7 56  1  0
  7 57  1  0
  5 58  1  0
  5 59  1  0
  2 60  1  0
  1 61  1  0
  1 62  1  0
  1 63  1  0
 51  6  1  0
 29  8  1  0
 35 31  1  0
 50 44  1  0
 21 12  1  0
 21 16  1  0
M  END
>  <cnnaffinities>  (16) 
[6.47846, 6.40509, 6.63957]

>  <score>  (16) 
6.47846

>  <index>  (16) 
15

>  <Smiles>  (16) 
C(N(C(=O)C(N1C([C@@]2(C(=O)N(c3c(nc(c4c(c(c(c(c34)[H])[H])[H])[H])[H])[H])C([C@@]2(C(n2c(c(c(n2)[H])[H])[H])([H])[H])[H])([H])[H])c2c(c(Cl)c(c(c2C1=O)[H])[H])[H])([H])[H])([H])[H])[H])([H])([H])[H]

>  <h>  (16) 
<NA>

>  <Training>  (16) 
True

>  <Success>  (16) 
True

>  <enamine_searched>  (16) 
False

>  <enamine_id>  (16) 
nan

$$$$

     RDKit          3D

 61 66  0  0  0  0  0  0  0  0999 V2000
  -14.4590   -0.3256  -23.0690 C   0  0  0  0  0  0  0  0  0  0  0  0
  -13.9542   -1.5837  -22.5444 N   0  0  0  0  0  0  0  0  0  0  0  0
  -13.1529   -2.4363  -23.2528 C   0  0  0  0  0  0  0  0  0  0  0  0
  -12.9774   -2.3101  -24.4562 O   0  0  0  0  0  0  0  0  0  0  0  0
  -12.5116   -3.5736  -22.4342 C   0  0  0  0  0  0  0  0  0  0  0  0
  -11.1162   -3.8826  -22.7099 N   0  0  0  0  0  0  0  0  0  0  0  0
  -10.0772   -3.5719  -21.7178 C   0  0  0  0  0  0  0  0  0  0  0  0
   -8.7546   -3.1042  -22.3858 C   0  0  2  0  0  0  0  0  0  0  0  0
   -7.6176   -2.9710  -21.3253 C   0  0  0  0  0  0  0  0  0  0  0  0
   -7.0536   -3.8714  -20.7382 O   0  0  0  0  0  0  0  0  0  0  0  0
   -7.3010   -1.6256  -21.1757 N   0  0  0  0  0  0  0  0  0  0  0  0
   -6.5305   -1.0802  -20.1134 C   0  0  0  0  0  0  0  0  0  0  0  0
   -6.8664   -1.2714  -18.7936 C   0  0  0  0  0  0  0  0  0  0  0  0
   -6.2590   -0.6503  -17.7475 N   0  0  0  0  0  0  0  0  0  0  0  0
   -5.2745    0.1751  -18.0118 C   0  0  0  0  0  0  0  0  0  0  0  0
   -4.8150    0.4653  -19.3264 C   0  0  0  0  0  0  0  0  0  0  0  0
   -3.7366    1.3618  -19.5594 C   0  0  0  0  0  0  0  0  0  0  0  0
   -3.3519    1.6554  -20.8400 C   0  0  0  0  0  0  0  0  0  0  0  0
   -4.0312    1.0756  -21.9344 C   0  0  0  0  0  0  0  0  0  0  0  0
   -5.0643    0.1943  -21.7283 C   0  0  0  0  0  0  0  0  0  0  0  0
   -5.4775   -0.1486  -20.4128 C   0  0  0  0  0  0  0  0  0  0  0  0
   -5.5791   -0.2486  -22.5727 H   0  0  0  0  0  0  0  0  0  0  0  0
   -3.7325    1.3335  -22.9466 H   0  0  0  0  0  0  0  0  0  0  0  0
   -2.5265    2.3377  -21.0240 H   0  0  0  0  0  0  0  0  0  0  0  0
   -3.2360    1.8130  -18.7056 H   0  0  0  0  0  0  0  0  0  0  0  0
   -4.7923    0.6717  -17.1680 H   0  0  0  0  0  0  0  0  0  0  0  0
   -7.6777   -1.9415  -18.5190 H   0  0  0  0  0  0  0  0  0  0  0  0
   -8.2504   -0.7636  -21.8521 C   0  0  0  0  0  0  0  0  0  0  0  0
   -8.8243   -1.6501  -22.9539 C   0  0  2  0  0  0  0  0  0  0  0  0
  -10.1867   -1.1050  -23.3836 C   0  0  0  0  0  0  0  0  0  0  0  0
  -10.0463    0.2487  -23.8889 N   0  0  0  0  0  0  0  0  0  0  0  0
  -10.6911    1.2920  -23.3974 N   0  0  0  0  0  0  0  0  0  0  0  0
  -10.2339    2.2639  -24.1680 C   0  0  0  0  0  0  0  0  0  0  0  0
   -9.3508    1.8260  -25.0911 N   0  0  0  0  0  0  0  0  0  0  0  0
   -9.2553    0.5369  -24.8971 N   0  0  0  0  0  0  0  0  0  0  0  0
  -10.5876    3.2824  -24.1047 H   0  0  0  0  0  0  0  0  0  0  0  0
  -10.8600   -1.0378  -22.5296 H   0  0  0  0  0  0  0  0  0  0  0  0
  -10.6509   -1.7079  -24.1673 H   0  0  0  0  0  0  0  0  0  0  0  0
   -8.1629   -1.6218  -23.8300 H   0  0  0  0  0  0  0  0  0  0  0  0
   -9.0322   -0.4357  -21.1479 H   0  0  0  0  0  0  0  0  0  0  0  0
   -7.7778    0.1394  -22.2448 H   0  0  0  0  0  0  0  0  0  0  0  0
   -8.4046   -4.1236  -23.4560 C   0  0  0  0  0  0  0  0  0  0  0  0
   -7.0871   -4.2263  -23.9207 C   0  0  0  0  0  0  0  0  0  0  0  0
   -6.7659   -5.1348  -24.9164 C   0  0  0  0  0  0  0  0  0  0  0  0
   -5.1286   -5.2131  -25.5042 Cl  0  0  0  0  0  0  0  0  0  0  0  0
   -7.7428   -5.9387  -25.5028 C   0  0  0  0  0  0  0  0  0  0  0  0
   -9.0473   -5.8328  -25.0557 C   0  0  0  0  0  0  0  0  0  0  0  0
   -9.3860   -4.9364  -24.0426 C   0  0  0  0  0  0  0  0  0  0  0  0
  -10.8430   -4.8011  -23.6961 C   0  0  0  0  0  0  0  0  0  0  0  0
  -11.7049   -5.4290  -24.2919 O   0  0  0  0  0  0  0  0  0  0  0  0
   -9.8403   -6.4368  -25.4882 H   0  0  0  0  0  0  0  0  0  0  0  0
   -7.4742   -6.6296  -26.2969 H   0  0  0  0  0  0  0  0  0  0  0  0
   -6.3111   -3.5977  -23.4977 H   0  0  0  0  0  0  0  0  0  0  0  0
  -10.4485   -2.7788  -21.0642 H   0  0  0  0  0  0  0  0  0  0  0  0
   -9.8548   -4.4619  -21.1108 H   0  0  0  0  0  0  0  0  0  0  0  0
  -13.0741   -4.4847  -22.6578 H   0  0  0  0  0  0  0  0  0  0  0  0
  -12.6152   -3.3647  -21.3732 H   0  0  0  0  0  0  0  0  0  0  0  0
  -14.1061   -1.7906  -21.5674 H   0  0  0  0  0  0  0  0  0  0  0  0
  -15.5495   -0.2641  -22.9763 H   0  0  0  0  0  0  0  0  0  0  0  0
  -14.0302    0.5324  -22.5300 H   0  0  0  0  0  0  0  0  0  0  0  0
  -14.1842   -0.2650  -24.1254 H   0  0  0  0  0  0  0  0  0  0  0  0
  1  2  1  0
  2  3  1  0
  3  4  2  0
  3  5  1  0
  5  6  1  0
  6  7  1  0
  8  7  1  1
  8  9  1  0
  9 10  2  0
  9 11  1  0
 11 12  1  0
 12 13  2  0
 13 14  1  0
 14 15  2  0
 15 16  1  0
 16 17  2  0
 17 18  1  0
 18 19  2  0
 19 20  1  0
 20 21  2  0
 20 22  1  0
 19 23  1  0
 18 24  1  0
 17 25  1  0
 15 26  1  0
 13 27  1  0
 11 28  1  0
 28 29  1  0
 29 30  1  0
 30 31  1  0
 31 32  1  0
 32 33  2  0
 33 34  1  0
 34 35  2  0
 33 36  1  0
 30 37  1  0
 30 38  1  0
 29 39  1  6
 28 40  1  0
 28 41  1  0
  8 42  1  0
 42 43  2  0
 43 44  1  0
 44 45  1  0
 44 46  2  0
 46 47  1  0
 47 48  2  0
 48 49  1  0
 49 50  2  0
 47 51  1  0
 46 52  1  0
 43 53  1  0
  7 54  1  0
  7 55  1  0
  5 56  1  0
  5 57  1  0
  2 58  1  0
  1 59  1  0
  1 60  1  0
  1 61  1  0
 49  6  1  0
 29  8  1  0
 35 31  1  0
 48 42  1  0
 21 12  1  0
 21 16  1  0
M  END
>  <cnnaffinities>  (17) 
[6.78411]

>  <score>  (17) 
6.78411

>  <index>  (17) 
16

>  <Smiles>  (17) 
C(N(C(=O)C(N1C([C@@]2(C(=O)N(c3c(nc(c4c(c(c(c(c34)[H])[H])[H])[H])[H])[H])C([C@@]2(C(n2nc(nn2)[H])([H])[H])[H])([H])[H])c2c(c(Cl)c(c(c2C1=O)[H])[H])[H])([H])[H])([H])[H])[H])([H])([H])[H]

>  <h>  (17) 
<NA>

>  <Training>  (17) 
True

>  <Success>  (17) 
True

>  <enamine_searched>  (17) 
False

>  <enamine_id>  (17) 
nan

$$$$

     RDKit          3D

 38 41  0  0  0  0  0  0  0  0999 V2000
   -9.3478   -4.9447  -25.6901 C   0  0  0  0  0  0  0  0  0  0  0  0
   -9.3461   -4.1956  -24.3566 C   0  0  2  0  0  0  0  0  0  0  0  0
  -10.3468   -3.0415  -24.3791 C   0  0  0  0  0  0  0  0  0  0  0  0
  -10.4223   -2.3514  -23.0151 C   0  0  0  0  0  0  0  0  0  0  0  0
   -9.0827   -2.1134  -22.4695 C   0  0  0  0  0  0  0  0  0  0  0  0
   -8.7197   -1.1923  -21.4395 C   0  0  0  0  0  0  0  0  0  0  0  0
   -9.3824   -0.3261  -20.9145 O   0  0  0  0  0  1  0  0  0  0  0  0
   -7.3433   -1.4717  -21.1977 N   0  0  0  0  0  0  0  0  0  0  0  0
   -6.5718   -0.8448  -20.1805 C   0  0  0  0  0  0  0  0  0  0  0  0
   -6.8895   -1.0521  -18.8623 C   0  0  0  0  0  0  0  0  0  0  0  0
   -6.1961   -0.5415  -17.8125 N   0  0  0  0  0  0  0  0  0  0  0  0
   -5.1595    0.2136  -18.0751 C   0  0  0  0  0  0  0  0  0  0  0  0
   -4.7275    0.5326  -19.3902 C   0  0  0  0  0  0  0  0  0  0  0  0
   -3.6026    1.3693  -19.6266 C   0  0  0  0  0  0  0  0  0  0  0  0
   -3.2293    1.6761  -20.9055 C   0  0  0  0  0  0  0  0  0  0  0  0
   -3.9615    1.1641  -22.0002 C   0  0  0  0  0  0  0  0  0  0  0  0
   -5.0504    0.3551  -21.7976 C   0  0  0  0  0  0  0  0  0  0  0  0
   -5.4569    0.0036  -20.4831 C   0  0  0  0  0  0  0  0  0  0  0  0
   -5.6087   -0.0322  -22.6427 H   0  0  0  0  0  0  0  0  0  0  0  0
   -3.6530    1.4092  -23.0121 H   0  0  0  0  0  0  0  0  0  0  0  0
   -2.3680    2.3132  -21.0950 H   0  0  0  0  0  0  0  0  0  0  0  0
   -3.0573    1.7699  -18.7756 H   0  0  0  0  0  0  0  0  0  0  0  0
   -4.6095    0.6196  -17.2220 H   0  0  0  0  0  0  0  0  0  0  0  0
   -7.7396   -1.6735  -18.5940 H   0  0  0  0  0  0  0  0  0  0  0  0
   -6.8621   -2.4206  -22.1184 C   0  0  0  0  0  0  0  0  0  0  0  0
   -5.7272   -2.8179  -22.2462 O   0  0  0  0  0  0  0  0  0  0  0  0
   -7.9754   -2.7828  -22.8661 N   0  0  0  0  0  0  0  0  0  0  0  0
   -7.9456   -3.6818  -24.0083 C   0  0  0  0  0  0  0  0  0  0  0  0
   -7.2774   -4.4992  -23.7567 H   0  0  0  0  0  0  0  0  0  0  0  0
   -7.5094   -3.1775  -24.8748 H   0  0  0  0  0  0  0  0  0  0  0  0
  -10.9662   -1.4021  -23.0752 H   0  0  0  0  0  0  0  0  0  0  0  0
  -11.0038   -2.9651  -22.3101 H   0  0  0  0  0  0  0  0  0  0  0  0
  -10.0329   -2.3169  -25.1394 H   0  0  0  0  0  0  0  0  0  0  0  0
  -11.3399   -3.4067  -24.6709 H   0  0  0  0  0  0  0  0  0  0  0  0
   -9.6528   -4.9010  -23.5737 H   0  0  0  0  0  0  0  0  0  0  0  0
  -10.3421   -5.3458  -25.9216 H   0  0  0  0  0  0  0  0  0  0  0  0
   -8.6478   -5.7875  -25.6927 H   0  0  0  0  0  0  0  0  0  0  0  0
   -9.0714   -4.2816  -26.5190 H   0  0  0  0  0  0  0  0  0  0  0  0
  1  2  1  0
  2  3  1  0
  3  4  1  0
  4  5  1  0
  5  6  2  0
  6  7  1  0
  6  8  1  0
  8  9  1  0
  9 10  2  0
 10 11  1  0
 11 12  2  0
 12 13  1  0
 13 14  2  0
 14 15  1  0
 15 16  2  0
 16 17  1  0
 17 18  2  0
 17 19  1  0
 16 20  1  0
 15 21  1  0
 14 22  1  0
 12 23  1  0
 10 24  1  0
  8 25  1  0
 25 26  2  0
 25 27  1  0
 27 28  1  0
 28 29  1  0
 28 30  1  0
  4 31  1  0
  4 32  1  0
  3 33  1  0
  3 34  1  0
  2 35  1  1
  1 36  1  0
  1 37  1  0
  1 38  1  0
 28  2  1  0
 27  5  1  0
 18  9  1  0
 18 13  1  0
M  CHG  1   7  -1
M  END
>  <cnnaffinities>  (18) 
[4.84222, 4.8522, 4.47432]

>  <score>  (18) 
4.84222

>  <index>  (18) 
17

>  <Smiles>  (18) 
C([C@@]1(C(C(c2c([O-])n(c3c(nc(c4c(c(c(c(c34)[H])[H])[H])[H])[H])[H])c(=O)n2C1([H])[H])([H])[H])([H])[H])[H])([H])([H])[H]

>  <h>  (18) 
<NA>

>  <Training>  (18) 
True

>  <Success>  (18) 
True

>  <enamine_searched>  (18) 
False

>  <enamine_id>  (18) 
nan

$$$$

     RDKit          3D

 56 61  0  0  0  0  0  0  0  0999 V2000
  -10.3257   -1.0318  -23.3814 C   0  0  0  0  0  0  0  0  0  0  0  0
   -8.9048   -1.4373  -23.0073 C   0  0  1  0  0  0  0  0  0  0  0  0
   -8.3205   -0.5393  -21.9073 C   0  0  0  0  0  0  0  0  0  0  0  0
   -7.3491   -1.3975  -21.2536 N   0  0  0  0  0  0  0  0  0  0  0  0
   -6.5658   -0.9096  -20.1821 C   0  0  0  0  0  0  0  0  0  0  0  0
   -6.8976   -1.1632  -18.8761 C   0  0  0  0  0  0  0  0  0  0  0  0
   -6.2588   -0.6076  -17.8135 N   0  0  0  0  0  0  0  0  0  0  0  0
   -5.2508    0.1951  -18.0616 C   0  0  0  0  0  0  0  0  0  0  0  0
   -4.7857    0.5203  -19.3697 C   0  0  0  0  0  0  0  0  0  0  0  0
   -3.6697    1.3694  -19.6037 C   0  0  0  0  0  0  0  0  0  0  0  0
   -3.2764    1.6550  -20.8831 C   0  0  0  0  0  0  0  0  0  0  0  0
   -3.9705    1.1084  -21.9870 C   0  0  0  0  0  0  0  0  0  0  0  0
   -5.0415    0.2749  -21.7849 C   0  0  0  0  0  0  0  0  0  0  0  0
   -5.4726   -0.0357  -20.4689 C   0  0  0  0  0  0  0  0  0  0  0  0
   -5.5632   -0.1697  -22.6251 H   0  0  0  0  0  0  0  0  0  0  0  0
   -3.6430    1.3384  -22.9966 H   0  0  0  0  0  0  0  0  0  0  0  0
   -2.4158    2.2935  -21.0650 H   0  0  0  0  0  0  0  0  0  0  0  0
   -3.1337    1.7792  -18.7512 H   0  0  0  0  0  0  0  0  0  0  0  0
   -4.7429    0.6297  -17.1998 H   0  0  0  0  0  0  0  0  0  0  0  0
   -7.7234   -1.8317  -18.6397 H   0  0  0  0  0  0  0  0  0  0  0  0
   -7.6067   -2.7422  -21.4305 C   0  0  0  0  0  0  0  0  0  0  0  0
   -7.0250   -3.6335  -20.8436 O   0  0  0  0  0  0  0  0  0  0  0  0
   -8.7388   -2.9038  -22.4614 C   0  0  1  0  0  0  0  0  0  0  0  0
   -9.9817   -3.3725  -21.6620 C   0  0  0  0  0  0  0  0  0  0  0  0
  -11.0586   -3.8574  -22.5088 N   0  0  0  0  0  0  0  0  0  0  0  0
  -12.4415   -3.6316  -22.1344 C   0  0  0  0  0  0  0  0  0  0  0  0
  -13.1309   -2.5006  -22.8431 C   0  0  0  0  0  0  0  0  0  0  0  0
  -13.7420   -2.4612  -24.1169 C   0  0  0  0  0  0  0  0  0  0  0  0
  -14.4777   -1.2984  -24.1115 C   0  0  0  0  0  0  0  0  0  0  0  0
  -14.2451   -0.7082  -22.9172 N   0  0  0  0  0  0  0  0  0  0  0  0
  -13.4127   -1.4100  -22.1412 N   0  0  0  0  0  0  0  0  0  0  0  0
  -14.6438    0.1305  -22.5347 H   0  0  0  0  0  0  0  0  0  0  0  0
  -15.1870   -0.9114  -24.8176 H   0  0  0  0  0  0  0  0  0  0  0  0
  -13.6627   -3.1916  -24.9079 H   0  0  0  0  0  0  0  0  0  0  0  0
  -12.9975   -4.5435  -22.3653 H   0  0  0  0  0  0  0  0  0  0  0  0
  -12.4920   -3.4146  -21.0653 H   0  0  0  0  0  0  0  0  0  0  0  0
  -10.8506   -4.5833  -23.6486 C   0  0  0  0  0  0  0  0  0  0  0  0
  -11.7720   -5.0400  -24.3088 O   0  0  0  0  0  0  0  0  0  0  0  0
   -9.4241   -4.7588  -24.0614 C   0  0  0  0  0  0  0  0  0  0  0  0
   -9.1372   -5.7421  -25.0127 C   0  0  0  0  0  0  0  0  0  0  0  0
   -7.8507   -5.9202  -25.4847 C   0  0  0  0  0  0  0  0  0  0  0  0
   -6.8652   -5.0705  -24.9972 C   0  0  0  0  0  0  0  0  0  0  0  0
   -5.6156   -5.2103  -25.4678 F   0  0  0  0  0  0  0  0  0  0  0  0
   -7.1140   -4.1088  -24.0335 C   0  0  0  0  0  0  0  0  0  0  0  0
   -8.4135   -3.9450  -23.5301 C   0  0  0  0  0  0  0  0  0  0  0  0
   -6.2791   -3.5325  -23.6507 H   0  0  0  0  0  0  0  0  0  0  0  0
   -7.5975   -6.7035  -26.1940 H   0  0  0  0  0  0  0  0  0  0  0  0
   -9.9492   -6.3708  -25.3666 H   0  0  0  0  0  0  0  0  0  0  0  0
   -9.6558   -4.1394  -20.9529 H   0  0  0  0  0  0  0  0  0  0  0  0
  -10.3656   -2.5306  -21.0758 H   0  0  0  0  0  0  0  0  0  0  0  0
   -9.0990   -0.2075  -21.1988 H   0  0  0  0  0  0  0  0  0  0  0  0
   -7.8452    0.3670  -22.2939 H   0  0  0  0  0  0  0  0  0  0  0  0
   -8.2514   -1.3726  -23.8876 H   0  0  0  0  0  0  0  0  0  0  0  0
  -10.7921   -1.7835  -24.0232 H   0  0  0  0  0  0  0  0  0  0  0  0
  -10.9537   -0.9369  -22.4897 H   0  0  0  0  0  0  0  0  0  0  0  0
  -10.3550   -0.0694  -23.8998 H   0  0  0  0  0  0  0  0  0  0  0  0
  1  2  1  0
  2  3  1  0
  3  4  1  0
  4  5  1  0
  5  6  2  0
  6  7  1  0
  7  8  2  0
  8  9  1  0
  9 10  2  0
 10 11  1  0
 11 12  2  0
 12 13  1  0
 13 14  2  0
 13 15  1  0
 12 16  1  0
 11 17  1  0
 10 18  1  0
  8 19  1  0
  6 20  1  0
  4 21  1  0
 21 22  2  0
 21 23  1  0
 23 24  1  1
 24 25  1  0
 25 26  1  0
 26 27  1  0
 27 28  1  0
 28 29  2  0
 29 30  1  0
 30 31  1  0
 30 32  1  0
 29 33  1  0
 28 34  1  0
 26 35  1  0
 26 36  1  0
 25 37  1  0
 37 38  2  0
 37 39  1  0
 39 40  2  0
 40 41  1  0
 41 42  2  0
 42 43  1  0
 42 44  1  0
 44 45  2  0
 44 46  1  0
 41 47  1  0
 40 48  1  0
 24 49  1  0
 24 50  1  0
  3 51  1  0
  3 52  1  0
  2 53  1  6
  1 54  1  0
  1 55  1  0
  1 56  1  0
 23  2  1  0
 31 27  2  0
 45 39  1  0
 14  5  1  0
 45 23  1  0
 14  9  1  0
M  END
>  <cnnaffinities>  (19) 
[6.78071]

>  <score>  (19) 
6.78071

>  <index>  (19) 
18

>  <Smiles>  (19) 
C([C@]1(C(N(c2c(nc(c3c(c(c(c(c23)[H])[H])[H])[H])[H])[H])C(=O)[C@]21C(N(C(c1c(c(n(n1)[H])[H])[H])([H])[H])C(=O)c1c(c(c(F)c(c21)[H])[H])[H])([H])[H])([H])[H])[H])([H])([H])[H]

>  <h>  (19) 
<NA>

>  <Training>  (19) 
True

>  <Success>  (19) 
True

>  <enamine_searched>  (19) 
False

>  <enamine_id>  (19) 
nan

$$$$

     RDKit          3D

 42 45  0  0  0  0  0  0  0  0999 V2000
   -8.4629    0.5867  -21.5843 O   0  0  0  0  0  0  0  0  0  0  0  0
   -8.2326   -0.5460  -21.9533 C   0  0  0  0  0  0  0  0  0  0  0  0
   -8.7643   -1.1109  -23.2780 C   0  0  1  0  0  0  0  0  0  0  0  0
   -7.7643   -0.8692  -24.4020 C   0  0  0  0  0  0  0  0  0  0  0  0
   -6.9978   -1.8790  -24.9773 C   0  0  0  0  0  0  0  0  0  0  0  0
   -6.0604   -1.5944  -25.9602 C   0  0  0  0  0  0  0  0  0  0  0  0
   -5.8763   -0.2914  -26.4018 C   0  0  0  0  0  0  0  0  0  0  0  0
   -4.6879    0.0227  -27.6192 Cl  0  0  0  0  0  0  0  0  0  0  0  0
   -6.6528    0.7287  -25.8513 C   0  0  0  0  0  0  0  0  0  0  0  0
   -6.4555    2.3703  -26.3659 Cl  0  0  0  0  0  0  0  0  0  0  0  0
   -7.5882    0.4344  -24.8666 C   0  0  0  0  0  0  0  0  0  0  0  0
   -8.1719    1.2495  -24.4520 H   0  0  0  0  0  0  0  0  0  0  0  0
   -5.4639   -2.3901  -26.3878 H   0  0  0  0  0  0  0  0  0  0  0  0
   -7.1176   -2.9103  -24.6669 H   0  0  0  0  0  0  0  0  0  0  0  0
   -9.2390   -2.5547  -23.1275 C   0  0  0  0  0  0  0  0  0  0  0  0
   -8.4051   -3.4271  -22.1830 C   0  0  2  0  0  0  0  0  0  0  0  0
   -9.2392   -3.8712  -21.1394 O   0  0  0  0  0  0  0  0  0  0  0  0
   -9.4358   -3.1122  -20.5709 H   0  0  0  0  0  0  0  0  0  0  0  0
   -7.1389   -2.7394  -21.6752 C   0  0  0  0  0  0  0  0  0  0  0  0
   -7.4267   -1.3900  -21.2115 N   0  0  0  0  0  0  0  0  0  0  0  0
   -6.6093   -0.8094  -20.1830 C   0  0  0  0  0  0  0  0  0  0  0  0
   -6.8895   -1.0480  -18.8630 C   0  0  0  0  0  0  0  0  0  0  0  0
   -6.1941   -0.5438  -17.8098 N   0  0  0  0  0  0  0  0  0  0  0  0
   -5.1608    0.2187  -18.0718 C   0  0  0  0  0  0  0  0  0  0  0  0
   -4.7278    0.5310  -19.3916 C   0  0  0  0  0  0  0  0  0  0  0  0
   -3.5981    1.3615  -19.6315 C   0  0  0  0  0  0  0  0  0  0  0  0
   -3.2077    1.6407  -20.9126 C   0  0  0  0  0  0  0  0  0  0  0  0
   -3.9197    1.0952  -22.0068 C   0  0  0  0  0  0  0  0  0  0  0  0
   -5.0103    0.2866  -21.7994 C   0  0  0  0  0  0  0  0  0  0  0  0
   -5.4603   -0.0012  -20.4825 C   0  0  0  0  0  0  0  0  0  0  0  0
   -5.5442   -0.1424  -22.6431 H   0  0  0  0  0  0  0  0  0  0  0  0
   -3.5899    1.3095  -23.0172 H   0  0  0  0  0  0  0  0  0  0  0  0
   -2.3422    2.2691  -21.1050 H   0  0  0  0  0  0  0  0  0  0  0  0
   -3.0539    1.7754  -18.7855 H   0  0  0  0  0  0  0  0  0  0  0  0
   -4.6068    0.6233  -17.2209 H   0  0  0  0  0  0  0  0  0  0  0  0
   -7.7341   -1.6755  -18.5936 H   0  0  0  0  0  0  0  0  0  0  0  0
   -6.3487   -2.7556  -22.4412 H   0  0  0  0  0  0  0  0  0  0  0  0
   -6.7571   -3.2960  -20.8179 H   0  0  0  0  0  0  0  0  0  0  0  0
   -8.1080   -4.3489  -22.6838 H   0  0  0  0  0  0  0  0  0  0  0  0
  -10.2493   -2.5554  -22.6976 H   0  0  0  0  0  0  0  0  0  0  0  0
   -9.3420   -3.0392  -24.1034 H   0  0  0  0  0  0  0  0  0  0  0  0
   -9.6397   -0.4987  -23.4969 H   0  0  0  0  0  0  0  0  0  0  0  0
  1  2  2  0
  2  3  1  0
  3  4  1  0
  4  5  2  0
  5  6  1  0
  6  7  2  0
  7  8  1  0
  7  9  1  0
  9 10  1  0
  9 11  2  0
 11 12  1  0
  6 13  1  0
  5 14  1  0
  3 15  1  0
 15 16  1  0
 16 17  1  0
 17 18  1  0
 16 19  1  0
 19 20  1  0
 20 21  1  0
 21 22  2  0
 22 23  1  0
 23 24  2  0
 24 25  1  0
 25 26  2  0
 26 27  1  0
 27 28  2  0
 28 29  1  0
 29 30  2  0
 29 31  1  0
 28 32  1  0
 27 33  1  0
 26 34  1  0
 24 35  1  0
 22 36  1  0
 19 37  1  0
 19 38  1  0
 16 39  1  6
 15 40  1  0
 15 41  1  0
  3 42  1  6
 20  2  1  0
 30 21  1  0
 11  4  1  0
 30 25  1  0
M  END
>  <cnnaffinities>  (20) 
[5.29544]

>  <score>  (20) 
5.29544

>  <index>  (20) 
19

>  <Smiles>  (20) 
O=C1[C@@](c2c(c(c(Cl)c(Cl)c2[H])[H])[H])(C([C@](O[H])(C(N1c1c(nc(c2c(c(c(c(c12)[H])[H])[H])[H])[H])[H])([H])[H])[H])([H])[H])[H]

>  <h>  (20) 
<NA>

>  <Training>  (20) 
True

>  <Success>  (20) 
True

>  <enamine_searched>  (20) 
False

>  <enamine_id>  (20) 
nan

$$$$

     RDKit          3D

 66 71  0  0  0  0  0  0  0  0999 V2000
   -7.4404    3.3387  -21.7313 C   0  0  0  0  0  0  0  0  0  0  0  0
   -8.3390    2.8974  -22.7795 N   0  0  0  0  0  0  0  0  0  0  0  0
   -7.7874    2.2133  -23.8086 C   0  0  0  0  0  0  0  0  0  0  0  0
   -6.5745    2.1137  -23.9432 O   0  0  0  0  0  0  0  0  0  0  0  0
   -8.7371    1.5900  -24.8284 C   0  0  0  0  0  0  0  0  0  0  0  0
   -9.4437    0.4274  -24.3374 N   0  0  0  0  0  0  0  0  0  0  0  0
   -8.7026   -0.8109  -24.1976 C   0  0  0  0  0  0  0  0  0  0  0  0
   -9.0651   -1.5377  -22.8844 C   0  0  2  0  0  0  0  0  0  0  0  0
   -8.5268   -0.7510  -21.6607 C   0  0  0  0  0  0  0  0  0  0  0  0
   -8.9994    0.2551  -21.1637 O   0  0  0  0  0  0  0  0  0  0  0  0
   -7.3961   -1.3838  -21.1996 N   0  0  0  0  0  0  0  0  0  0  0  0
   -6.6022   -0.8136  -20.1702 C   0  0  0  0  0  0  0  0  0  0  0  0
   -6.9126   -1.0435  -18.8540 C   0  0  0  0  0  0  0  0  0  0  0  0
   -6.2121   -0.5464  -17.8040 N   0  0  0  0  0  0  0  0  0  0  0  0
   -5.1727    0.2064  -18.0743 C   0  0  0  0  0  0  0  0  0  0  0  0
   -4.7353    0.5300  -19.3908 C   0  0  0  0  0  0  0  0  0  0  0  0
   -3.6117    1.3681  -19.6365 C   0  0  0  0  0  0  0  0  0  0  0  0
   -3.2327    1.6650  -20.9162 C   0  0  0  0  0  0  0  0  0  0  0  0
   -3.9560    1.1397  -22.0113 C   0  0  0  0  0  0  0  0  0  0  0  0
   -5.0437    0.3266  -21.8004 C   0  0  0  0  0  0  0  0  0  0  0  0
   -5.4674    0.0020  -20.4822 C   0  0  0  0  0  0  0  0  0  0  0  0
   -5.6004   -0.0583  -22.6497 H   0  0  0  0  0  0  0  0  0  0  0  0
   -3.6543    1.3826  -23.0239 H   0  0  0  0  0  0  0  0  0  0  0  0
   -2.3738    2.3053  -21.0990 H   0  0  0  0  0  0  0  0  0  0  0  0
   -3.0719    1.7700  -18.7827 H   0  0  0  0  0  0  0  0  0  0  0  0
   -4.6183    0.6089  -17.2252 H   0  0  0  0  0  0  0  0  0  0  0  0
   -7.7660   -1.6682  -18.6016 H   0  0  0  0  0  0  0  0  0  0  0  0
   -7.0481   -2.5849  -21.9335 C   0  0  0  0  0  0  0  0  0  0  0  0
   -8.3154   -2.8991  -22.7476 C   0  0  2  0  0  0  0  0  0  0  0  0
   -8.0206   -3.6759  -24.0480 C   0  0  0  0  0  0  0  0  0  0  0  0
   -7.4641   -5.0598  -23.7881 C   0  0  0  0  0  0  0  0  0  0  0  0
   -6.0872   -5.3047  -23.7771 C   0  0  0  0  0  0  0  0  0  0  0  0
   -5.5861   -6.5746  -23.4967 C   0  0  0  0  0  0  0  0  0  0  0  0
   -6.4589   -7.6246  -23.2227 C   0  0  0  0  0  0  0  0  0  0  0  0
   -7.8321   -7.3988  -23.2457 C   0  0  0  0  0  0  0  0  0  0  0  0
   -8.3274   -6.1246  -23.5157 C   0  0  0  0  0  0  0  0  0  0  0  0
   -9.4021   -5.9394  -23.5142 H   0  0  0  0  0  0  0  0  0  0  0  0
   -8.5147   -8.2245  -23.0514 H   0  0  0  0  0  0  0  0  0  0  0  0
   -6.0735   -8.6163  -22.9922 H   0  0  0  0  0  0  0  0  0  0  0  0
   -4.5118   -6.7501  -23.4945 H   0  0  0  0  0  0  0  0  0  0  0  0
   -5.3979   -4.4884  -23.9918 H   0  0  0  0  0  0  0  0  0  0  0  0
   -8.9464   -3.7585  -24.6359 H   0  0  0  0  0  0  0  0  0  0  0  0
   -7.3057   -3.1054  -24.6558 H   0  0  0  0  0  0  0  0  0  0  0  0
   -8.9559   -3.5402  -22.1363 H   0  0  0  0  0  0  0  0  0  0  0  0
   -6.7806   -3.4004  -21.2509 H   0  0  0  0  0  0  0  0  0  0  0  0
   -6.1840   -2.4118  -22.5942 H   0  0  0  0  0  0  0  0  0  0  0  0
  -10.5761   -1.6184  -22.8114 C   0  0  0  0  0  0  0  0  0  0  0  0
  -11.1690   -2.5206  -21.9286 C   0  0  0  0  0  0  0  0  0  0  0  0
  -12.5382   -2.5445  -21.7654 C   0  0  0  0  0  0  0  0  0  0  0  0
  -13.1686   -3.5629  -20.5026 Cl  0  0  0  0  0  0  0  0  0  0  0  0
  -13.3735   -1.7158  -22.5179 C   0  0  0  0  0  0  0  0  0  0  0  0
  -12.7917   -0.7835  -23.3568 C   0  0  0  0  0  0  0  0  0  0  0  0
  -11.4033   -0.7012  -23.4715 C   0  0  0  0  0  0  0  0  0  0  0  0
  -10.8111    0.4504  -24.2259 C   0  0  0  0  0  0  0  0  0  0  0  0
  -11.5003    1.3583  -24.6694 O   0  0  0  0  0  0  0  0  0  0  0  0
  -13.3855   -0.0629  -23.9096 H   0  0  0  0  0  0  0  0  0  0  0  0
  -14.4510   -1.7823  -22.4212 H   0  0  0  0  0  0  0  0  0  0  0  0
  -10.5698   -3.1839  -21.3176 H   0  0  0  0  0  0  0  0  0  0  0  0
   -7.6364   -0.5579  -24.2006 H   0  0  0  0  0  0  0  0  0  0  0  0
   -8.9235   -1.4854  -25.0403 H   0  0  0  0  0  0  0  0  0  0  0  0
   -8.1135    1.3311  -25.6940 H   0  0  0  0  0  0  0  0  0  0  0  0
   -9.5140    2.2944  -25.1169 H   0  0  0  0  0  0  0  0  0  0  0  0
   -9.3251    2.7917  -22.5949 H   0  0  0  0  0  0  0  0  0  0  0  0
   -8.0112    3.7320  -20.8950 H   0  0  0  0  0  0  0  0  0  0  0  0
   -6.7746    4.1187  -22.1092 H   0  0  0  0  0  0  0  0  0  0  0  0
   -6.8201    2.4964  -21.4025 H   0  0  0  0  0  0  0  0  0  0  0  0
  1  2  1  0
  2  3  1  0
  3  4  2  0
  3  5  1  0
  5  6  1  0
  6  7  1  0
  8  7  1  6
  8  9  1  0
  9 10  2  0
  9 11  1  0
 11 12  1  0
 12 13  2  0
 13 14  1  0
 14 15  2  0
 15 16  1  0
 16 17  2  0
 17 18  1  0
 18 19  2  0
 19 20  1  0
 20 21  2  0
 20 22  1  0
 19 23  1  0
 18 24  1  0
 17 25  1  0
 15 26  1  0
 13 27  1  0
 11 28  1  0
 28 29  1  0
 29 30  1  0
 30 31  1  0
 31 32  2  0
 32 33  1  0
 33 34  2  0
 34 35  1  0
 35 36  2  0
 36 37  1  0
 35 38  1  0
 34 39  1  0
 33 40  1  0
 32 41  1  0
 30 42  1  0
 30 43  1  0
 29 44  1  1
 28 45  1  0
 28 46  1  0
  8 47  1  0
 47 48  2  0
 48 49  1  0
 49 50  1  0
 49 51  2  0
 51 52  1  0
 52 53  2  0
 53 54  1  0
 54 55  2  0
 52 56  1  0
 51 57  1  0
 48 58  1  0
  7 59  1  0
  7 60  1  0
  5 61  1  0
  5 62  1  0
  2 63  1  0
  1 64  1  0
  1 65  1  0
  1 66  1  0
 54  6  1  0
 29  8  1  0
 36 31  1  0
 53 47  1  0
 21 12  1  0
 21 16  1  0
M  END
>  <cnnaffinities>  (21) 
[6.43534, 6.40746, 6.21237]

>  <score>  (21) 
6.43534

>  <index>  (21) 
20

>  <Smiles>  (21) 
C(N(C(=O)C(N1C([C@@]2(C(=O)N(c3c(nc(c4c(c(c(c(c34)[H])[H])[H])[H])[H])[H])C([C@@]2(C(c2c(c(c(c(c2[H])[H])[H])[H])[H])([H])[H])[H])([H])[H])c2c(c(Cl)c(c(c2C1=O)[H])[H])[H])([H])[H])([H])[H])[H])([H])([H])[H]

>  <h>  (21) 
<NA>

>  <Training>  (21) 
True

>  <Success>  (21) 
True

>  <enamine_searched>  (21) 
False

>  <enamine_id>  (21) 
nan

$$$$

     RDKit          3D

 63 68  0  0  0  0  0  0  0  0999 V2000
   -8.3325   -4.1665  -23.1904 C   0  0  0  0  0  0  0  0  0  0  0  0
   -8.5769   -3.2766  -21.9408 C   0  0  1  0  0  0  0  0  0  0  0  0
   -7.1043   -2.7789  -21.6246 C   0  0  0  0  0  0  0  0  0  0  0  0
   -7.2159   -1.3954  -21.1791 N   0  0  0  0  0  0  0  0  0  0  0  0
   -6.4077   -0.8844  -20.1463 C   0  0  0  0  0  0  0  0  0  0  0  0
   -6.7353   -1.0770  -18.8251 C   0  0  0  0  0  0  0  0  0  0  0  0
   -6.0752   -0.5520  -17.7737 N   0  0  0  0  0  0  0  0  0  0  0  0
   -5.0535    0.2198  -18.0414 C   0  0  0  0  0  0  0  0  0  0  0  0
   -4.6043    0.5155  -19.3592 C   0  0  0  0  0  0  0  0  0  0  0  0
   -3.5141    1.3942  -19.5973 C   0  0  0  0  0  0  0  0  0  0  0  0
   -3.1582    1.7130  -20.8790 C   0  0  0  0  0  0  0  0  0  0  0  0
   -3.8646    1.1753  -21.9788 C   0  0  0  0  0  0  0  0  0  0  0  0
   -4.9048    0.3030  -21.7741 C   0  0  0  0  0  0  0  0  0  0  0  0
   -5.2919   -0.0468  -20.4546 C   0  0  0  0  0  0  0  0  0  0  0  0
   -5.4615   -0.1073  -22.6081 H   0  0  0  0  0  0  0  0  0  0  0  0
   -3.5679    1.4467  -22.9875 H   0  0  0  0  0  0  0  0  0  0  0  0
   -2.3225    2.3818  -21.0639 H   0  0  0  0  0  0  0  0  0  0  0  0
   -2.9845    1.8177  -18.7485 H   0  0  0  0  0  0  0  0  0  0  0  0
   -4.5325    0.6373  -17.1844 H   0  0  0  0  0  0  0  0  0  0  0  0
   -7.5930   -1.6691  -18.5293 H   0  0  0  0  0  0  0  0  0  0  0  0
   -8.6677   -1.0980  -20.8967 C   0  0  0  0  0  0  0  0  0  0  0  0
   -8.9254    0.1413  -20.8367 O   0  0  0  0  0  0  0  0  0  0  0  0
   -9.4085   -1.9451  -21.9466 C   0  0  1  0  0  0  0  0  0  0  0  0
   -9.3007   -1.1262  -23.3460 C   0  0  0  0  0  0  0  0  0  0  0  0
   -9.9301   -1.9509  -24.3310 N   0  0  0  0  0  0  0  0  0  0  0  0
   -9.5150   -1.8282  -25.7018 C   0  0  0  0  0  0  0  0  0  0  0  0
   -8.7335   -3.0573  -26.2032 C   0  0  0  0  0  0  0  0  0  0  0  0
   -7.5787   -2.9664  -26.5290 O   0  0  0  0  0  0  0  0  0  0  0  0
   -9.4387   -4.2137  -26.2956 N   0  0  0  0  0  0  0  0  0  0  0  0
   -8.8129   -5.3370  -26.9780 C   0  0  0  0  0  0  0  0  0  0  0  0
   -9.6435   -6.5883  -26.8808 C   0  0  0  0  0  0  0  0  0  0  0  0
   -8.9274   -7.8971  -26.7582 C   0  0  0  0  0  0  0  0  0  0  0  0
   -9.6780   -7.3418  -25.5828 C   0  0  0  0  0  0  0  0  0  0  0  0
  -10.6057   -7.8227  -25.3002 H   0  0  0  0  0  0  0  0  0  0  0  0
   -9.1038   -6.9381  -24.7504 H   0  0  0  0  0  0  0  0  0  0  0  0
   -7.8414   -7.8581  -26.7227 H   0  0  0  0  0  0  0  0  0  0  0  0
   -9.3289   -8.7629  -27.2753 H   0  0  0  0  0  0  0  0  0  0  0  0
  -10.5611   -6.5881  -27.4705 H   0  0  0  0  0  0  0  0  0  0  0  0
   -8.6105   -5.0904  -28.0278 H   0  0  0  0  0  0  0  0  0  0  0  0
   -7.8320   -5.4856  -26.5132 H   0  0  0  0  0  0  0  0  0  0  0  0
  -10.4337   -4.1942  -26.1240 H   0  0  0  0  0  0  0  0  0  0  0  0
  -10.3695   -1.5930  -26.3357 H   0  0  0  0  0  0  0  0  0  0  0  0
   -8.8186   -0.9882  -25.8110 H   0  0  0  0  0  0  0  0  0  0  0  0
  -10.9470   -2.7751  -23.8729 C   0  0  0  0  0  0  0  0  0  0  0  0
  -11.6724   -3.3186  -24.7236 O   0  0  0  0  0  0  0  0  0  0  0  0
  -11.0598   -3.0993  -22.5622 C   0  0  0  0  0  0  0  0  0  0  0  0
  -12.2358   -3.9258  -22.1487 C   0  0  0  0  0  0  0  0  0  0  0  0
  -12.7050   -3.8576  -20.7434 C   0  0  0  0  0  0  0  0  0  0  0  0
  -12.7891   -3.6798  -20.9721 C   0  0  0  0  0  0  0  0  0  0  0  0
  -12.6277   -4.5905  -19.5624 F   0  0  0  0  0  0  0  0  0  0  0  0
  -11.0236   -1.7291  -21.8005 C   0  0  0  0  0  0  0  0  0  0  0  0
  -11.0234   -1.7293  -21.8000 C   0  0  0  0  0  0  0  0  0  0  0  0
   -8.7937   -1.6748  -19.9168 H   0  0  0  0  0  0  0  0  0  0  0  0
  -13.1352   -2.8724  -20.1353 H   0  0  0  0  0  0  0  0  0  0  0  0
  -13.1157   -3.7188  -22.6610 H   0  0  0  0  0  0  0  0  0  0  0  0
   -8.2438   -1.0056  -23.5322 H   0  0  0  0  0  0  0  0  0  0  0  0
   -9.6807   -0.0492  -23.3419 H   0  0  0  0  0  0  0  0  0  0  0  0
   -6.4850   -2.7957  -22.5490 H   0  0  0  0  0  0  0  0  0  0  0  0
   -6.5326   -3.4279  -20.9377 H   0  0  0  0  0  0  0  0  0  0  0  0
   -9.0192   -3.8711  -21.1277 H   0  0  0  0  0  0  0  0  0  0  0  0
   -9.2211   -4.5826  -23.6525 H   0  0  0  0  0  0  0  0  0  0  0  0
   -7.6437   -5.0007  -22.9570 H   0  0  0  0  0  0  0  0  0  0  0  0
   -7.8162   -3.5740  -23.9518 H   0  0  0  0  0  0  0  0  0  0  0  0
  1  2  1  0
  2  3  1  0
  3  4  1  0
  4  5  1  0
  5  6  2  0
  6  7  1  0
  7  8  2  0
  8  9  1  0
  9 10  2  0
 10 11  1  0
 11 12  2  0
 12 13  1  0
 13 14  2  0
 13 15  1  0
 12 16  1  0
 11 17  1  0
 10 18  1  0
  8 19  1  0
  6 20  1  0
  4 21  1  0
 21 22  2  0
 21 23  1  0
 23 24  1  6
 24 25  1  0
 25 26  1  0
 26 27  1  0
 27 28  2  0
 27 29  1  0
 29 30  1  0
 30 31  1  0
 31 32  1  0
 32 33  1  0
 33 34  1  0
 33 35  1  0
 32 36  1  0
 32 37  1  0
 31 38  1  0
 30 39  1  0
 30 40  1  0
 29 41  1  0
 26 42  1  0
 26 43  1  0
 25 44  1  0
 44 45  2  0
 44 46  1  0
 46 47  2  0
 47 48  1  0
 48 49  2  0
 49 50  1  0
 49 51  1  0
 51 52  2  0
 51 53  1  0
 48 54  1  0
 47 55  1  0
 24 56  1  0
 24 57  1  0
  3 58  1  0
  3 59  1  0
  2 60  1  1
  1 61  1  0
  1 62  1  0
  1 63  1  0
 23  2  1  0
 33 31  1  0
 52 46  1  0
 14  5  1  0
 52 23  1  0
 14  9  1  0
M  END
>  <cnnaffinities>  (22) 
[5.59454]

>  <score>  (22) 
5.59454

>  <index>  (22) 
21

>  <Smiles>  (22) 
C([C@]1(C(N(c2c(nc(c3c(c(c(c(c23)[H])[H])[H])[H])[H])[H])C(=O)[C@]21C(N(C(C(=O)N(C(C1(C(C1([H])[H])([H])[H])[H])([H])[H])[H])([H])[H])C(=O)c1c(c(c(F)c(c21)[H])[H])[H])([H])[H])([H])[H])[H])([H])([H])[H]

>  <h>  (22) 
<NA>

>  <Training>  (22) 
True

>  <Success>  (22) 
True

>  <enamine_searched>  (22) 
False

>  <enamine_id>  (22) 
nan

$$$$

     RDKit          3D

 68 73  0  0  0  0  0  0  0  0999 V2000
  -14.4098   -1.1675  -24.2491 C   0  0  0  0  0  0  0  0  0  0  0  0
  -13.7334   -2.3796  -23.8384 N   0  0  0  0  0  0  0  0  0  0  0  0
  -13.1580   -2.4147  -22.6138 C   0  0  0  0  0  0  0  0  0  0  0  0
  -13.1118   -1.4121  -21.9088 O   0  0  0  0  0  0  0  0  0  0  0  0
  -12.5401   -3.7451  -22.1653 C   0  0  0  0  0  0  0  0  0  0  0  0
  -11.1574   -3.8917  -22.5921 N   0  0  0  0  0  0  0  0  0  0  0  0
  -10.1022   -3.3765  -21.7222 C   0  0  0  0  0  0  0  0  0  0  0  0
   -8.8297   -2.9364  -22.4895 C   0  0  2  0  0  0  0  0  0  0  0  0
   -7.7118   -2.7487  -21.4448 C   0  0  0  0  0  0  0  0  0  0  0  0
   -7.1200   -3.6303  -20.8519 O   0  0  0  0  0  0  0  0  0  0  0  0
   -7.4759   -1.3980  -21.2632 N   0  0  0  0  0  0  0  0  0  0  0  0
   -6.6666   -0.9115  -20.2005 C   0  0  0  0  0  0  0  0  0  0  0  0
   -6.9478   -1.2119  -18.8883 C   0  0  0  0  0  0  0  0  0  0  0  0
   -6.2963   -0.6761  -17.8203 N   0  0  0  0  0  0  0  0  0  0  0  0
   -5.3063    0.1478  -18.0642 C   0  0  0  0  0  0  0  0  0  0  0  0
   -4.8659    0.4978  -19.3721 C   0  0  0  0  0  0  0  0  0  0  0  0
   -3.7563    1.3569  -19.5852 C   0  0  0  0  0  0  0  0  0  0  0  0
   -3.3460    1.6457  -20.8567 C   0  0  0  0  0  0  0  0  0  0  0  0
   -4.0178    1.0912  -21.9691 C   0  0  0  0  0  0  0  0  0  0  0  0
   -5.0951    0.2586  -21.7905 C   0  0  0  0  0  0  0  0  0  0  0  0
   -5.5556   -0.0470  -20.4811 C   0  0  0  0  0  0  0  0  0  0  0  0
   -5.5926   -0.1843  -22.6487 H   0  0  0  0  0  0  0  0  0  0  0  0
   -3.6710    1.3225  -22.9713 H   0  0  0  0  0  0  0  0  0  0  0  0
   -2.4976    2.3018  -21.0236 H   0  0  0  0  0  0  0  0  0  0  0  0
   -3.2462    1.7747  -18.7209 H   0  0  0  0  0  0  0  0  0  0  0  0
   -4.7859    0.5786  -17.2059 H   0  0  0  0  0  0  0  0  0  0  0  0
   -7.7441   -1.9099  -18.6386 H   0  0  0  0  0  0  0  0  0  0  0  0
   -8.4240   -0.5596  -21.9906 C   0  0  0  0  0  0  0  0  0  0  0  0
   -8.9336   -1.4949  -23.0975 C   0  0  2  0  0  0  0  0  0  0  0  0
  -10.3106   -1.1031  -23.6661 C   0  0  0  0  0  0  0  0  0  0  0  0
  -10.3031    0.1112  -24.4514 N   0  0  0  0  0  0  0  0  0  0  0  0
  -10.5416    1.3697  -23.9163 C   0  0  0  0  0  0  0  0  0  0  0  0
  -11.5365    1.5721  -22.9477 C   0  0  0  0  0  0  0  0  0  0  0  0
  -11.8002    2.8604  -22.4882 C   0  0  0  0  0  0  0  0  0  0  0  0
  -11.0906    3.9542  -22.9750 C   0  0  0  0  0  0  0  0  0  0  0  0
  -10.1029    3.7534  -23.9331 C   0  0  0  0  0  0  0  0  0  0  0  0
   -9.8240    2.4763  -24.3946 C   0  0  0  0  0  0  0  0  0  0  0  0
   -9.0522    2.3179  -25.1456 H   0  0  0  0  0  0  0  0  0  0  0  0
   -9.5230    4.5947  -24.3079 H   0  0  0  0  0  0  0  0  0  0  0  0
  -11.2788    4.9478  -22.5827 H   0  0  0  0  0  0  0  0  0  0  0  0
  -12.5350    3.0095  -21.6989 H   0  0  0  0  0  0  0  0  0  0  0  0
  -12.0967    0.7187  -22.5623 H   0  0  0  0  0  0  0  0  0  0  0  0
   -9.6849    0.0927  -25.2462 H   0  0  0  0  0  0  0  0  0  0  0  0
  -11.0244   -0.9835  -22.8485 H   0  0  0  0  0  0  0  0  0  0  0  0
  -10.6658   -1.9124  -24.3141 H   0  0  0  0  0  0  0  0  0  0  0  0
   -8.2200   -1.4560  -23.9320 H   0  0  0  0  0  0  0  0  0  0  0  0
   -7.9434    0.3485  -22.3704 H   0  0  0  0  0  0  0  0  0  0  0  0
   -9.2433   -0.2459  -21.3241 H   0  0  0  0  0  0  0  0  0  0  0  0
   -8.4929   -4.0002  -23.5181 C   0  0  0  0  0  0  0  0  0  0  0  0
   -7.1761   -4.1667  -23.9655 C   0  0  0  0  0  0  0  0  0  0  0  0
   -6.8818   -5.1584  -24.8885 C   0  0  0  0  0  0  0  0  0  0  0  0
   -5.2292   -5.3984  -25.3840 Cl  0  0  0  0  0  0  0  0  0  0  0  0
   -7.8812   -5.9516  -25.4562 C   0  0  0  0  0  0  0  0  0  0  0  0
   -9.1931   -5.7324  -25.0772 C   0  0  0  0  0  0  0  0  0  0  0  0
   -9.4969   -4.7744  -24.1111 C   0  0  0  0  0  0  0  0  0  0  0  0
  -10.9310   -4.5719  -23.7524 C   0  0  0  0  0  0  0  0  0  0  0  0
  -11.8436   -4.9753  -24.4663 O   0  0  0  0  0  0  0  0  0  0  0  0
  -10.0093   -6.2795  -25.5406 H   0  0  0  0  0  0  0  0  0  0  0  0
   -7.6279   -6.7004  -26.2015 H   0  0  0  0  0  0  0  0  0  0  0  0
   -6.3892   -3.5146  -23.5959 H   0  0  0  0  0  0  0  0  0  0  0  0
   -9.8158   -4.1176  -20.9647 H   0  0  0  0  0  0  0  0  0  0  0  0
  -10.5175   -2.5118  -21.1937 H   0  0  0  0  0  0  0  0  0  0  0  0
  -12.5563   -3.7780  -21.0731 H   0  0  0  0  0  0  0  0  0  0  0  0
  -13.1058   -4.5890  -22.5736 H   0  0  0  0  0  0  0  0  0  0  0  0
  -13.5716   -3.1186  -24.5030 H   0  0  0  0  0  0  0  0  0  0  0  0
  -13.7547   -0.3002  -24.1022 H   0  0  0  0  0  0  0  0  0  0  0  0
  -15.2911   -0.9943  -23.6266 H   0  0  0  0  0  0  0  0  0  0  0  0
  -14.7085   -1.2499  -25.2951 H   0  0  0  0  0  0  0  0  0  0  0  0
  1  2  1  0
  2  3  1  0
  3  4  2  0
  3  5  1  0
  5  6  1  0
  6  7  1  0
  8  7  1  1
  8  9  1  0
  9 10  2  0
  9 11  1  0
 11 12  1  0
 12 13  2  0
 13 14  1  0
 14 15  2  0
 15 16  1  0
 16 17  2  0
 17 18  1  0
 18 19  2  0
 19 20  1  0
 20 21  2  0
 20 22  1  0
 19 23  1  0
 18 24  1  0
 17 25  1  0
 15 26  1  0
 13 27  1  0
 11 28  1  0
 28 29  1  0
 29 30  1  0
 30 31  1  0
 31 32  1  0
 32 33  2  0
 33 34  1  0
 34 35  2  0
 35 36  1  0
 36 37  2  0
 37 38  1  0
 36 39  1  0
 35 40  1  0
 34 41  1  0
 33 42  1  0
 31 43  1  0
 30 44  1  0
 30 45  1  0
 29 46  1  6
 28 47  1  0
 28 48  1  0
  8 49  1  0
 49 50  2  0
 50 51  1  0
 51 52  1  0
 51 53  2  0
 53 54  1  0
 54 55  2  0
 55 56  1  0
 56 57  2  0
 54 58  1  0
 53 59  1  0
 50 60  1  0
  7 61  1  0
  7 62  1  0
  5 63  1  0
  5 64  1  0
  2 65  1  0
  1 66  1  0
  1 67  1  0
  1 68  1  0
 56  6  1  0
 29  8  1  0
 37 32  1  0
 55 49  1  0
 21 12  1  0
 21 16  1  0
M  END
>  <cnnaffinities>  (23) 
[6.80766]

>  <score>  (23) 
6.80766

>  <index>  (23) 
23

>  <Smiles>  (23) 
C(N(C(=O)C(N1C([C@@]2(C(=O)N(c3c(nc(c4c(c(c(c(c34)[H])[H])[H])[H])[H])[H])C([C@@]2(C(N(c2c(c(c(c(c2[H])[H])[H])[H])[H])[H])([H])[H])[H])([H])[H])c2c(c(Cl)c(c(c2C1=O)[H])[H])[H])([H])[H])([H])[H])[H])([H])([H])[H]

>  <h>  (23) 
<NA>

>  <Training>  (23) 
True

>  <Success>  (23) 
True

>  <enamine_searched>  (23) 
False

>  <enamine_id>  (23) 
nan

$$$$

     RDKit          3D

 65 70  0  0  0  0  0  0  0  0999 V2000
   -4.9596   -7.3237  -23.7377 O   0  0  0  0  0  0  0  0  0  0  0  0
   -6.0493   -7.3131  -24.2904 C   0  0  0  0  0  0  0  0  0  0  0  0
   -7.2455   -6.6131  -23.6548 C   0  0  0  0  0  0  0  0  0  0  0  0
   -7.1148   -5.1237  -23.8237 N   0  0  1  0  0  4  0  0  0  0  0  0
   -7.2950   -4.7339  -25.3107 C   0  0  0  0  0  0  0  0  0  0  0  0
   -7.2328   -3.2495  -25.5224 C   0  0  0  0  0  0  0  0  0  0  0  0
   -6.8741   -2.7589  -26.7753 C   0  0  0  0  0  0  0  0  0  0  0  0
   -6.8107   -1.3993  -27.0381 C   0  0  0  0  0  0  0  0  0  0  0  0
   -7.1163   -0.5143  -26.0100 C   0  0  0  0  0  0  0  0  0  0  0  0
   -7.0293    1.2003  -26.3052 Cl  0  0  0  0  0  0  0  0  0  0  0  0
   -7.4871   -0.9754  -24.7564 C   0  0  0  0  0  0  0  0  0  0  0  0
   -7.5587   -2.3517  -24.5054 C   0  0  0  0  0  0  0  0  0  0  0  0
   -7.9432   -2.8218  -23.1145 C   0  0  2  0  0  0  0  0  0  0  0  0
   -9.1905   -2.1118  -22.5595 C   0  0  0  0  0  0  0  0  0  0  0  0
   -8.7268   -1.1580  -21.4504 C   0  0  0  0  0  0  0  0  0  0  0  0
   -7.3222   -1.4884  -21.2405 N   0  0  0  0  0  0  0  0  0  0  0  0
   -6.5551   -0.8880  -20.1983 C   0  0  0  0  0  0  0  0  0  0  0  0
   -6.8969   -1.0628  -18.8776 C   0  0  0  0  0  0  0  0  0  0  0  0
   -6.2193   -0.5356  -17.8242 N   0  0  0  0  0  0  0  0  0  0  0  0
   -5.1758    0.2104  -18.0884 C   0  0  0  0  0  0  0  0  0  0  0  0
   -4.7346    0.5202  -19.4034 C   0  0  0  0  0  0  0  0  0  0  0  0
   -3.6147    1.3640  -19.6341 C   0  0  0  0  0  0  0  0  0  0  0  0
   -3.2338    1.6742  -20.9075 C   0  0  0  0  0  0  0  0  0  0  0  0
   -3.9597    1.1619  -22.0079 C   0  0  0  0  0  0  0  0  0  0  0  0
   -5.0398    0.3398  -21.8155 C   0  0  0  0  0  0  0  0  0  0  0  0
   -5.4480   -0.0241  -20.5009 C   0  0  0  0  0  0  0  0  0  0  0  0
   -5.5873   -0.0437  -22.6752 H   0  0  0  0  0  0  0  0  0  0  0  0
   -3.6404    1.4099  -23.0143 H   0  0  0  0  0  0  0  0  0  0  0  0
   -2.3712    2.3099  -21.0881 H   0  0  0  0  0  0  0  0  0  0  0  0
   -3.0765    1.7587  -18.7746 H   0  0  0  0  0  0  0  0  0  0  0  0
   -4.6253    0.6127  -17.2359 H   0  0  0  0  0  0  0  0  0  0  0  0
   -7.7502   -1.6797  -18.5983 H   0  0  0  0  0  0  0  0  0  0  0  0
   -6.8370   -2.4353  -22.1221 C   0  0  0  0  0  0  0  0  0  0  0  0
   -5.7306   -2.9397  -22.1405 O   0  0  0  0  0  0  0  0  0  0  0  0
   -8.8715   -0.0942  -21.6981 H   0  0  0  0  0  0  0  0  0  0  0  0
   -9.2940   -1.3685  -20.5500 H   0  0  0  0  0  0  0  0  0  0  0  0
   -9.7631   -1.6032  -23.3394 H   0  0  0  0  0  0  0  0  0  0  0  0
   -9.8586   -2.8604  -22.1227 H   0  0  0  0  0  0  0  0  0  0  0  0
   -8.1462   -4.3469  -23.0301 C   0  0  0  0  0  0  0  0  0  0  0  0
   -9.1380   -4.5935  -23.4199 H   0  0  0  0  0  0  0  0  0  0  0  0
   -8.1064   -4.6381  -21.9784 H   0  0  0  0  0  0  0  0  0  0  0  0
   -7.7203   -0.2508  -23.9771 H   0  0  0  0  0  0  0  0  0  0  0  0
   -6.5257   -1.0193  -28.0147 H   0  0  0  0  0  0  0  0  0  0  0  0
   -6.6330   -3.4602  -27.5691 H   0  0  0  0  0  0  0  0  0  0  0  0
   -8.2591   -5.1363  -25.6419 H   0  0  0  0  0  0  0  0  0  0  0  0
   -6.5246   -5.2211  -25.9029 H   0  0  0  0  0  0  0  0  0  0  0  0
   -6.1704   -4.8081  -23.4935 H   0  0  0  0  0  0  0  0  0  0  0  0
   -7.2395   -6.8619  -22.5941 H   0  0  0  0  0  0  0  0  0  0  0  0
   -8.1983   -6.9482  -24.0891 H   0  0  0  0  0  0  0  0  0  0  0  0
   -6.2571   -7.8735  -25.5121 N   0  0  0  0  0  0  0  0  0  0  0  0
   -5.1385   -8.4441  -26.2449 C   0  0  0  0  0  0  0  0  0  0  0  0
   -4.1974   -7.3782  -26.7934 C   0  0  1  0  0  0  0  0  0  0  0  0
   -3.1062   -7.8992  -27.7727 C   0  0  0  0  0  0  0  0  0  0  0  0
   -3.7234   -7.0560  -28.9100 C   0  0  1  0  0  0  0  0  0  0  0  0
   -4.2356   -7.8187  -29.9518 F   0  0  0  0  0  0  0  0  0  0  0  0
   -4.8003   -6.5197  -27.9447 C   0  0  0  0  0  0  0  0  0  0  0  0
   -5.8158   -6.8058  -28.2524 H   0  0  0  0  0  0  0  0  0  0  0  0
   -4.8078   -5.4357  -27.7737 H   0  0  0  0  0  0  0  0  0  0  0  0
   -3.0729   -6.3087  -29.3771 H   0  0  0  0  0  0  0  0  0  0  0  0
   -2.0789   -7.6395  -27.4948 H   0  0  0  0  0  0  0  0  0  0  0  0
   -3.1203   -8.9785  -27.9721 H   0  0  0  0  0  0  0  0  0  0  0  0
   -3.8033   -6.8059  -25.9425 H   0  0  0  0  0  0  0  0  0  0  0  0
   -5.5433   -9.0188  -27.0861 H   0  0  0  0  0  0  0  0  0  0  0  0
   -4.5772   -9.1085  -25.5734 H   0  0  0  0  0  0  0  0  0  0  0  0
   -7.1913   -7.9086  -25.8956 H   0  0  0  0  0  0  0  0  0  0  0  0
  1  2  2  0
  2  3  1  0
  3  4  1  0
  4  5  1  0
  5  6  1  0
  6  7  2  0
  7  8  1  0
  8  9  2  0
  9 10  1  0
  9 11  1  0
 11 12  2  0
 12 13  1  0
 13 14  1  1
 14 15  1  0
 15 16  1  0
 16 17  1  0
 17 18  2  0
 18 19  1  0
 19 20  2  0
 20 21  1  0
 21 22  2  0
 22 23  1  0
 23 24  2  0
 24 25  1  0
 25 26  2  0
 25 27  1  0
 24 28  1  0
 23 29  1  0
 22 30  1  0
 20 31  1  0
 18 32  1  0
 16 33  1  0
 33 34  2  0
 15 35  1  0
 15 36  1  0
 14 37  1  0
 14 38  1  0
 13 39  1  0
 39 40  1  0
 39 41  1  0
 11 42  1  0
  8 43  1  0
  7 44  1  0
  5 45  1  0
  5 46  1  0
  4 47  1  1
  3 48  1  0
  3 49  1  0
  2 50  1  0
 50 51  1  0
 51 52  1  0
 52 53  1  0
 53 54  1  0
 54 55  1  0
 54 56  1  0
 56 57  1  0
 56 58  1  0
 54 59  1  6
 53 60  1  0
 53 61  1  0
 52 62  1  1
 51 63  1  0
 51 64  1  0
 50 65  1  0
 39  4  1  0
 56 52  1  0
 12  6  1  0
 33 13  1  0
 26 17  1  0
 26 21  1  0
M  CHG  1   4   1
M  END
>  <cnnaffinities>  (24) 
[6.18638, 6.28388, 6.10475, 6.42709, 6.03483]

>  <score>  (24) 
6.18638

>  <index>  (24) 
24

>  <Smiles>  (24) 
O=C(C([N@+]1(C(c2c(c(c(Cl)c(c2[C@@]2(C(C(N(c3c(nc(c4c(c(c(c(c34)[H])[H])[H])[H])[H])[H])C2=O)([H])[H])([H])[H])C1([H])[H])[H])[H])[H])([H])[H])[H])([H])[H])N(C([C@]1(C([C@@](F)(C1([H])[H])[H])([H])[H])[H])([H])[H])[H]

>  <h>  (24) 
<NA>

>  <Training>  (24) 
True

>  <Success>  (24) 
True

>  <enamine_searched>  (24) 
False

>  <enamine_id>  (24) 
nan

$$$$

     RDKit          3D

 70 75  0  0  0  0  0  0  0  0999 V2000
   -8.1141   -7.0598  -23.9622 O   0  0  0  0  0  0  0  0  0  0  0  0
   -8.0388   -6.3164  -23.0029 C   0  0  0  0  0  0  0  0  0  0  0  0
   -9.1512   -5.3420  -22.6304 C   0  0  0  0  0  0  0  0  0  0  0  0
   -8.7813   -3.9259  -22.8888 N   0  0  1  0  0  4  0  0  0  0  0  0
   -8.4400   -3.7520  -24.3722 C   0  0  0  0  0  0  0  0  0  0  0  0
   -8.1425   -2.3143  -24.6919 C   0  0  0  0  0  0  0  0  0  0  0  0
   -7.3509   -1.9928  -25.7953 C   0  0  0  0  0  0  0  0  0  0  0  0
   -7.0725   -0.6698  -26.1150 C   0  0  0  0  0  0  0  0  0  0  0  0
   -7.6004    0.3449  -25.3219 C   0  0  0  0  0  0  0  0  0  0  0  0
   -7.2624    2.0179  -25.6816 Cl  0  0  0  0  0  0  0  0  0  0  0  0
   -8.3827    0.0433  -24.2192 C   0  0  0  0  0  0  0  0  0  0  0  0
   -8.6527   -1.2876  -23.8983 C   0  0  0  0  0  0  0  0  0  0  0  0
   -9.4351   -1.5220  -22.6290 C   0  0  2  0  0  0  0  0  0  0  0  0
   -8.6755   -0.9533  -21.4317 C   0  0  0  0  0  0  0  0  0  0  0  0
   -9.1367   -0.0435  -20.7657 O   0  0  0  0  0  0  0  0  0  0  0  0
   -7.4102   -1.4687  -21.2084 N   0  0  0  0  0  0  0  0  0  0  0  0
   -6.5938   -0.8923  -20.1994 C   0  0  0  0  0  0  0  0  0  0  0  0
   -6.9270   -1.0869  -18.8844 C   0  0  0  0  0  0  0  0  0  0  0  0
   -6.2420   -0.5781  -17.8302 N   0  0  0  0  0  0  0  0  0  0  0  0
   -5.1990    0.1702  -18.0947 C   0  0  0  0  0  0  0  0  0  0  0  0
   -4.7586    0.4767  -19.4125 C   0  0  0  0  0  0  0  0  0  0  0  0
   -3.6479    1.3253  -19.6399 C   0  0  0  0  0  0  0  0  0  0  0  0
   -3.2686    1.6413  -20.9126 C   0  0  0  0  0  0  0  0  0  0  0  0
   -3.9859    1.1285  -22.0156 C   0  0  0  0  0  0  0  0  0  0  0  0
   -5.0646    0.3009  -21.8256 C   0  0  0  0  0  0  0  0  0  0  0  0
   -5.4703   -0.0573  -20.5109 C   0  0  0  0  0  0  0  0  0  0  0  0
   -5.6146   -0.0574  -22.6900 H   0  0  0  0  0  0  0  0  0  0  0  0
   -3.6741    1.4017  -23.0189 H   0  0  0  0  0  0  0  0  0  0  0  0
   -2.4181    2.2935  -21.0865 H   0  0  0  0  0  0  0  0  0  0  0  0
   -3.1223    1.7287  -18.7810 H   0  0  0  0  0  0  0  0  0  0  0  0
   -4.6553    0.5954  -17.2480 H   0  0  0  0  0  0  0  0  0  0  0  0
   -7.7970   -1.6911  -18.6385 H   0  0  0  0  0  0  0  0  0  0  0  0
   -6.9519   -1.9118  -21.9951 H   0  0  0  0  0  0  0  0  0  0  0  0
   -9.8785   -2.9680  -22.4878 C   0  0  0  0  0  0  0  0  0  0  0  0
  -10.2026   -3.1905  -21.4716 H   0  0  0  0  0  0  0  0  0  0  0  0
  -10.7288   -3.1071  -23.1591 H   0  0  0  0  0  0  0  0  0  0  0  0
  -10.3297   -0.8970  -22.6549 H   0  0  0  0  0  0  0  0  0  0  0  0
   -8.7748    0.8325  -23.5822 H   0  0  0  0  0  0  0  0  0  0  0  0
   -6.4509   -0.4222  -26.9687 H   0  0  0  0  0  0  0  0  0  0  0  0
   -6.9356   -2.7840  -26.4168 H   0  0  0  0  0  0  0  0  0  0  0  0
   -9.2960   -4.1201  -24.9508 H   0  0  0  0  0  0  0  0  0  0  0  0
   -7.5888   -4.3923  -24.6065 H   0  0  0  0  0  0  0  0  0  0  0  0
   -7.9383   -3.6882  -22.3244 H   0  0  0  0  0  0  0  0  0  0  0  0
  -10.0304   -5.6010  -23.2264 H   0  0  0  0  0  0  0  0  0  0  0  0
   -9.3999   -5.4764  -21.5722 H   0  0  0  0  0  0  0  0  0  0  0  0
   -6.9529   -6.2665  -22.1682 N   0  0  0  0  0  0  0  0  0  0  0  0
   -5.7552   -6.9639  -22.4083 C   0  0  0  0  0  0  0  0  0  0  0  0
   -4.9914   -7.4495  -21.3502 C   0  0  0  0  0  0  0  0  0  0  0  0
   -3.7863   -8.0733  -21.6192 C   0  0  0  0  0  0  0  0  0  0  0  0
   -3.2995   -8.2087  -22.9173 C   0  0  0  0  0  0  0  0  0  0  0  0
   -2.0679   -8.8712  -23.1531 N   0  0  0  0  0  0  0  0  0  0  0  0
   -1.0186   -8.8001  -22.1260 C   0  0  0  0  0  0  0  0  0  0  0  0
    0.3037   -9.1781  -22.7714 C   0  0  0  0  0  0  0  0  0  0  0  0
    0.1904  -10.4842  -23.2995 O   0  0  0  0  0  0  0  0  0  0  0  0
   -0.6844  -10.5196  -24.3950 C   0  0  0  0  0  0  0  0  0  0  0  0
   -1.9865   -9.7543  -24.2120 C   0  0  0  0  0  0  0  0  0  0  0  0
   -2.8895   -9.9574  -25.0085 O   0  0  0  0  0  0  0  0  0  0  0  0
   -0.9681  -11.5568  -24.5979 H   0  0  0  0  0  0  0  0  0  0  0  0
   -0.1904  -10.1477  -25.3048 H   0  0  0  0  0  0  0  0  0  0  0  0
    1.0991   -9.2152  -22.0228 H   0  0  0  0  0  0  0  0  0  0  0  0
    0.5663   -8.4663  -23.5706 H   0  0  0  0  0  0  0  0  0  0  0  0
   -0.9849   -7.7880  -21.6975 H   0  0  0  0  0  0  0  0  0  0  0  0
   -1.2171   -9.5139  -21.3109 H   0  0  0  0  0  0  0  0  0  0  0  0
   -4.0690   -7.7199  -23.9662 C   0  0  0  0  0  0  0  0  0  0  0  0
   -5.2960   -7.1403  -23.7134 C   0  0  0  0  0  0  0  0  0  0  0  0
   -5.8924   -6.8235  -24.5569 H   0  0  0  0  0  0  0  0  0  0  0  0
   -3.7538   -7.8557  -24.9913 H   0  0  0  0  0  0  0  0  0  0  0  0
   -3.2215   -8.5342  -20.8099 H   0  0  0  0  0  0  0  0  0  0  0  0
   -5.3476   -7.3904  -20.3238 H   0  0  0  0  0  0  0  0  0  0  0  0
   -7.0507   -5.8105  -21.2729 H   0  0  0  0  0  0  0  0  0  0  0  0
  1  2  2  0
  2  3  1  0
  3  4  1  0
  4  5  1  0
  5  6  1  0
  6  7  2  0
  7  8  1  0
  8  9  2  0
  9 10  1  0
  9 11  1  0
 11 12  2  0
 12 13  1  0
 13 14  1  0
 14 15  2  0
 14 16  1  0
 16 17  1  0
 17 18  2  0
 18 19  1  0
 19 20  2  0
 20 21  1  0
 21 22  2  0
 22 23  1  0
 23 24  2  0
 24 25  1  0
 25 26  2  0
 25 27  1  0
 24 28  1  0
 23 29  1  0
 22 30  1  0
 20 31  1  0
 18 32  1  0
 16 33  1  0
 13 34  1  0
 34 35  1  0
 34 36  1  0
 13 37  1  6
 11 38  1  0
  8 39  1  0
  7 40  1  0
  5 41  1  0
  5 42  1  0
  4 43  1  1
  3 44  1  0
  3 45  1  0
  2 46  1  0
 46 47  1  0
 47 48  2  0
 48 49  1  0
 49 50  2  0
 50 51  1  0
 51 52  1  0
 52 53  1  0
 53 54  1  0
 54 55  1  0
 55 56  1  0
 56 57  2  0
 55 58  1  0
 55 59  1  0
 53 60  1  0
 53 61  1  0
 52 62  1  0
 52 63  1  0
 50 64  1  0
 64 65  2  0
 65 66  1  0
 64 67  1  0
 49 68  1  0
 48 69  1  0
 46 70  1  0
 34  4  1  0
 65 47  1  0
 12  6  1  0
 26 17  1  0
 56 51  1  0
 26 21  1  0
M  CHG  1   4   1
M  END
>  <cnnaffinities>  (25) 
[6.46705, 6.47324]

>  <score>  (25) 
6.46705

>  <index>  (25) 
25

>  <Smiles>  (25) 
O=C(C([N@+]1(C(c2c(c(c(Cl)c(c2[C@](C(=O)N(c2c(nc(c3c(c(c(c(c23)[H])[H])[H])[H])[H])[H])[H])(C1([H])[H])[H])[H])[H])[H])([H])[H])[H])([H])[H])N(c1c(c(c(N2C(C(OC(C2=O)([H])[H])([H])[H])([H])[H])c(c1[H])[H])[H])[H])[H]

>  <h>  (25) 
<NA>

>  <Training>  (25) 
True

>  <Success>  (25) 
True

>  <enamine_searched>  (25) 
False

>  <enamine_id>  (25) 
nan

$$$$

     RDKit          3D

 55 60  0  0  0  0  0  0  0  0999 V2000
  -10.3535   -1.0176  -23.3853 C   0  0  0  0  0  0  0  0  0  0  0  0
   -8.9289   -1.4275  -23.0139 C   0  0  1  0  0  0  0  0  0  0  0  0
   -8.3438   -0.5364  -21.9083 C   0  0  0  0  0  0  0  0  0  0  0  0
   -7.3651   -1.3925  -21.2589 N   0  0  0  0  0  0  0  0  0  0  0  0
   -6.5757   -0.9090  -20.1876 C   0  0  0  0  0  0  0  0  0  0  0  0
   -6.9036   -1.1686  -18.8808 C   0  0  0  0  0  0  0  0  0  0  0  0
   -6.2648   -0.6147  -17.8173 N   0  0  0  0  0  0  0  0  0  0  0  0
   -5.2585    0.1907  -18.0640 C   0  0  0  0  0  0  0  0  0  0  0  0
   -4.7931    0.5207  -19.3711 C   0  0  0  0  0  0  0  0  0  0  0  0
   -3.6775    1.3723  -19.6018 C   0  0  0  0  0  0  0  0  0  0  0  0
   -3.2817    1.6594  -20.8805 C   0  0  0  0  0  0  0  0  0  0  0  0
   -3.9740    1.1130  -21.9851 C   0  0  0  0  0  0  0  0  0  0  0  0
   -5.0460    0.2790  -21.7859 C   0  0  0  0  0  0  0  0  0  0  0  0
   -5.4800   -0.0342  -20.4711 C   0  0  0  0  0  0  0  0  0  0  0  0
   -5.5664   -0.1650  -22.6269 H   0  0  0  0  0  0  0  0  0  0  0  0
   -3.6421    1.3419  -22.9935 H   0  0  0  0  0  0  0  0  0  0  0  0
   -2.4198    2.2972  -21.0599 H   0  0  0  0  0  0  0  0  0  0  0  0
   -3.1418    1.7805  -18.7485 H   0  0  0  0  0  0  0  0  0  0  0  0
   -4.7526    0.6228  -17.2007 H   0  0  0  0  0  0  0  0  0  0  0  0
   -7.7270   -1.8402  -18.6444 H   0  0  0  0  0  0  0  0  0  0  0  0
   -7.6172   -2.7364  -21.4433 C   0  0  0  0  0  0  0  0  0  0  0  0
   -7.0296   -3.6283  -20.8610 O   0  0  0  0  0  0  0  0  0  0  0  0
   -8.7511   -2.8931  -22.4754 C   0  0  1  0  0  0  0  0  0  0  0  0
   -9.9925   -3.3631  -21.6786 C   0  0  0  0  0  0  0  0  0  0  0  0
  -11.0823   -3.8119  -22.5418 N   0  0  0  0  0  0  0  0  0  0  0  0
  -12.4756   -3.5964  -22.1604 C   0  0  0  0  0  0  0  0  0  0  0  0
  -13.1953   -2.4724  -22.8471 C   0  0  0  0  0  0  0  0  0  0  0  0
  -13.7935   -2.3514  -24.1083 C   0  0  0  0  0  0  0  0  0  0  0  0
  -14.4146   -1.1744  -24.1925 N   0  0  0  0  0  0  0  0  0  0  0  0
  -14.2010   -0.6506  -23.0032 N   0  0  0  0  0  0  0  0  0  0  0  0
  -13.4727   -1.3619  -22.1635 N   0  0  0  0  0  0  0  0  0  0  0  0
  -14.6076    0.2271  -22.7079 H   0  0  0  0  0  0  0  0  0  0  0  0
  -13.8017   -3.0517  -24.9316 H   0  0  0  0  0  0  0  0  0  0  0  0
  -12.5126   -3.3638  -21.0962 H   0  0  0  0  0  0  0  0  0  0  0  0
  -13.0159   -4.5255  -22.3613 H   0  0  0  0  0  0  0  0  0  0  0  0
  -10.8638   -4.5531  -23.6743 C   0  0  0  0  0  0  0  0  0  0  0  0
  -11.7799   -5.0139  -24.3434 O   0  0  0  0  0  0  0  0  0  0  0  0
   -9.4357   -4.7443  -24.0796 C   0  0  0  0  0  0  0  0  0  0  0  0
   -9.1466   -5.7313  -25.0296 C   0  0  0  0  0  0  0  0  0  0  0  0
   -7.8552   -5.9153  -25.4895 C   0  0  0  0  0  0  0  0  0  0  0  0
   -6.8701   -5.0689  -24.9932 C   0  0  0  0  0  0  0  0  0  0  0  0
   -5.6129   -5.2191  -25.4427 F   0  0  0  0  0  0  0  0  0  0  0  0
   -7.1243   -4.0996  -24.0380 C   0  0  0  0  0  0  0  0  0  0  0  0
   -8.4262   -3.9331  -23.5441 C   0  0  0  0  0  0  0  0  0  0  0  0
   -6.2954   -3.5172  -23.6482 H   0  0  0  0  0  0  0  0  0  0  0  0
   -7.5923   -6.7053  -26.1908 H   0  0  0  0  0  0  0  0  0  0  0  0
   -9.9575   -6.3559  -25.3947 H   0  0  0  0  0  0  0  0  0  0  0  0
  -10.3451   -2.5297  -21.0580 H   0  0  0  0  0  0  0  0  0  0  0  0
   -9.6493   -4.1559  -21.0043 H   0  0  0  0  0  0  0  0  0  0  0  0
   -9.1227   -0.2074  -21.1975 H   0  0  0  0  0  0  0  0  0  0  0  0
   -7.8716    0.3690  -22.2998 H   0  0  0  0  0  0  0  0  0  0  0  0
   -8.2785   -1.3557  -23.8960 H   0  0  0  0  0  0  0  0  0  0  0  0
  -10.3803   -0.0441  -23.8830 H   0  0  0  0  0  0  0  0  0  0  0  0
  -10.8169   -1.7515  -24.0500 H   0  0  0  0  0  0  0  0  0  0  0  0
  -10.9938   -0.9431  -22.4991 H   0  0  0  0  0  0  0  0  0  0  0  0
  1  2  1  0
  2  3  1  0
  3  4  1  0
  4  5  1  0
  5  6  2  0
  6  7  1  0
  7  8  2  0
  8  9  1  0
  9 10  2  0
 10 11  1  0
 11 12  2  0
 12 13  1  0
 13 14  2  0
 13 15  1  0
 12 16  1  0
 11 17  1  0
 10 18  1  0
  8 19  1  0
  6 20  1  0
  4 21  1  0
 21 22  2  0
 21 23  1  0
 23 24  1  1
 24 25  1  0
 25 26  1  0
 26 27  1  0
 27 28  1  0
 28 29  2  0
 29 30  1  0
 30 31  1  0
 30 32  1  0
 28 33  1  0
 26 34  1  0
 26 35  1  0
 25 36  1  0
 36 37  2  0
 36 38  1  0
 38 39  2  0
 39 40  1  0
 40 41  2  0
 41 42  1  0
 41 43  1  0
 43 44  2  0
 43 45  1  0
 40 46  1  0
 39 47  1  0
 24 48  1  0
 24 49  1  0
  3 50  1  0
  3 51  1  0
  2 52  1  6
  1 53  1  0
  1 54  1  0
  1 55  1  0
 23  2  1  0
 31 27  2  0
 44 38  1  0
 14  5  1  0
 44 23  1  0
 14  9  1  0
M  END
>  <cnnaffinities>  (26) 
[6.89114]

>  <score>  (26) 
6.89114

>  <index>  (26) 
26

>  <Smiles>  (26) 
C([C@]1(C(N(c2c(nc(c3c(c(c(c(c23)[H])[H])[H])[H])[H])[H])C(=O)[C@]21C(N(C(c1c(nn(n1)[H])[H])([H])[H])C(=O)c1c(c(c(F)c(c21)[H])[H])[H])([H])[H])([H])[H])[H])([H])([H])[H]

>  <h>  (26) 
<NA>

>  <Training>  (26) 
True

>  <Success>  (26) 
True

>  <enamine_searched>  (26) 
False

>  <enamine_id>  (26) 
nan

$$$$

     RDKit          3D

 58 62  0  0  0  0  0  0  0  0999 V2000
   -3.7608   -5.3584  -22.7102 C   0  0  0  0  0  0  0  0  0  0  0  0
   -4.4954   -6.5326  -22.1627 N   0  0  0  0  0  4  0  0  0  0  0  0
   -5.6234   -6.2237  -21.2095 C   0  0  0  0  0  0  0  0  0  0  0  0
   -6.9996   -6.4864  -21.8357 C   0  0  0  0  0  0  0  0  0  0  0  0
   -7.3431   -5.4526  -22.8011 N   0  0  0  0  0  0  0  0  0  0  0  0
   -8.3118   -4.4349  -22.4401 C   0  0  0  0  0  0  0  0  0  0  0  0
   -7.9031   -3.0175  -22.9131 C   0  0  2  0  0  0  0  0  0  0  0  0
   -6.7848   -2.4738  -21.9821 C   0  0  0  0  0  0  0  0  0  0  0  0
   -5.6397   -2.8847  -21.9034 O   0  0  0  0  0  0  0  0  0  0  0  0
   -7.3102   -1.4579  -21.2159 N   0  0  0  0  0  0  0  0  0  0  0  0
   -6.5729   -0.8460  -20.1806 C   0  0  0  0  0  0  0  0  0  0  0  0
   -6.9174   -1.0495  -18.8725 C   0  0  0  0  0  0  0  0  0  0  0  0
   -6.2501   -0.5363  -17.8125 N   0  0  0  0  0  0  0  0  0  0  0  0
   -5.2031    0.2080  -18.0791 C   0  0  0  0  0  0  0  0  0  0  0  0
   -4.7527    0.5182  -19.3926 C   0  0  0  0  0  0  0  0  0  0  0  0
   -3.6283    1.3529  -19.6192 C   0  0  0  0  0  0  0  0  0  0  0  0
   -3.2469    1.6630  -20.8943 C   0  0  0  0  0  0  0  0  0  0  0  0
   -3.9665    1.1635  -21.9998 C   0  0  0  0  0  0  0  0  0  0  0  0
   -5.0473    0.3440  -21.8083 C   0  0  0  0  0  0  0  0  0  0  0  0
   -5.4588   -0.0091  -20.4926 C   0  0  0  0  0  0  0  0  0  0  0  0
   -5.5889   -0.0475  -22.6644 H   0  0  0  0  0  0  0  0  0  0  0  0
   -3.6502    1.4318  -23.0034 H   0  0  0  0  0  0  0  0  0  0  0  0
   -2.3922    2.3099  -21.0631 H   0  0  0  0  0  0  0  0  0  0  0  0
   -3.0926    1.7406  -18.7585 H   0  0  0  0  0  0  0  0  0  0  0  0
   -4.6507    0.6126  -17.2316 H   0  0  0  0  0  0  0  0  0  0  0  0
   -7.7752   -1.6785  -18.6351 H   0  0  0  0  0  0  0  0  0  0  0  0
   -8.7571   -1.3712  -21.2981 C   0  0  0  0  0  0  0  0  0  0  0  0
   -9.0711   -2.0051  -22.6602 C   0  0  2  0  0  0  0  0  0  0  0  0
  -10.4902   -2.5664  -22.6937 C   0  0  0  0  0  0  0  0  0  0  0  0
  -10.7009   -3.0829  -23.6363 H   0  0  0  0  0  0  0  0  0  0  0  0
  -10.6482   -3.2795  -21.8732 H   0  0  0  0  0  0  0  0  0  0  0  0
  -11.2158   -1.7553  -22.5757 H   0  0  0  0  0  0  0  0  0  0  0  0
   -9.0026   -1.2140  -23.4131 H   0  0  0  0  0  0  0  0  0  0  0  0
   -9.2580   -1.9323  -20.4914 H   0  0  0  0  0  0  0  0  0  0  0  0
   -9.0832   -0.3283  -21.2422 H   0  0  0  0  0  0  0  0  0  0  0  0
   -7.4092   -3.0929  -24.3404 C   0  0  0  0  0  0  0  0  0  0  0  0
   -7.3349   -1.9355  -25.1176 C   0  0  0  0  0  0  0  0  0  0  0  0
   -6.9011   -2.0215  -26.4210 C   0  0  0  0  0  0  0  0  0  0  0  0
   -6.8273   -0.8984  -27.1500 F   0  0  0  0  0  0  0  0  0  0  0  0
   -6.5339   -3.2177  -27.0201 C   0  0  0  0  0  0  0  0  0  0  0  0
   -6.5512   -4.3503  -26.2346 C   0  0  0  0  0  0  0  0  0  0  0  0
   -6.9293   -4.2886  -24.8916 C   0  0  0  0  0  0  0  0  0  0  0  0
   -6.7311   -5.4837  -24.0074 C   0  0  0  0  0  0  0  0  0  0  0  0
   -5.9922   -6.4228  -24.3356 O   0  0  0  0  0  0  0  0  0  0  0  0
   -6.2643   -5.3054  -26.6514 H   0  0  0  0  0  0  0  0  0  0  0  0
   -6.2160   -3.2362  -28.0577 H   0  0  0  0  0  0  0  0  0  0  0  0
   -7.5997   -0.9635  -24.7190 H   0  0  0  0  0  0  0  0  0  0  0  0
   -8.3892   -4.4122  -21.3525 H   0  0  0  0  0  0  0  0  0  0  0  0
   -9.2959   -4.6891  -22.8577 H   0  0  0  0  0  0  0  0  0  0  0  0
   -7.7782   -6.5136  -21.0695 H   0  0  0  0  0  0  0  0  0  0  0  0
   -7.0033   -7.4552  -22.3518 H   0  0  0  0  0  0  0  0  0  0  0  0
   -5.5190   -6.8484  -20.3178 H   0  0  0  0  0  0  0  0  0  0  0  0
   -5.5575   -5.1680  -20.9276 H   0  0  0  0  0  0  0  0  0  0  0  0
   -4.9030   -7.0214  -22.9936 H   0  0  0  0  0  0  0  0  0  0  0  0
   -3.8237   -7.1733  -21.6823 H   0  0  0  0  0  0  0  0  0  0  0  0
   -2.8551   -5.7007  -23.2170 H   0  0  0  0  0  0  0  0  0  0  0  0
   -4.3848   -4.8231  -23.4324 H   0  0  0  0  0  0  0  0  0  0  0  0
   -3.5051   -4.6637  -21.9096 H   0  0  0  0  0  0  0  0  0  0  0  0
  1  2  1  0
  2  3  1  0
  3  4  1  0
  4  5  1  0
  5  6  1  0
  7  6  1  1
  7  8  1  0
  8  9  2  0
  8 10  1  0
 10 11  1  0
 11 12  2  0
 12 13  1  0
 13 14  2  0
 14 15  1  0
 15 16  2  0
 16 17  1  0
 17 18  2  0
 18 19  1  0
 19 20  2  0
 19 21  1  0
 18 22  1  0
 17 23  1  0
 16 24  1  0
 14 25  1  0
 12 26  1  0
 10 27  1  0
 27 28  1  0
 28 29  1  0
 29 30  1  0
 29 31  1  0
 29 32  1  0
 28 33  1  6
 27 34  1  0
 27 35  1  0
  7 36  1  0
 36 37  2  0
 37 38  1  0
 38 39  1  0
 38 40  2  0
 40 41  1  0
 41 42  2  0
 42 43  1  0
 43 44  2  0
 41 45  1  0
 40 46  1  0
 37 47  1  0
  6 48  1  0
  6 49  1  0
  4 50  1  0
  4 51  1  0
  3 52  1  0
  3 53  1  0
  2 54  1  0
  2 55  1  0
  1 56  1  0
  1 57  1  0
  1 58  1  0
 43  5  1  0
 28  7  1  0
 42 36  1  0
 20 11  1  0
 20 15  1  0
M  CHG  1   2   1
M  END
>  <cnnaffinities>  (27) 
[5.7132]

>  <score>  (27) 
5.7132

>  <index>  (27) 
27

>  <Smiles>  (27) 
C([N+](C(C(N1C([C@@]2(C(=O)N(c3c(nc(c4c(c(c(c(c34)[H])[H])[H])[H])[H])[H])C([C@@]2(C([H])([H])[H])[H])([H])[H])c2c(c(F)c(c(c2C1=O)[H])[H])[H])([H])[H])([H])[H])([H])[H])([H])[H])([H])([H])[H]

>  <h>  (27) 
<NA>

>  <Training>  (27) 
True

>  <Success>  (27) 
True

>  <enamine_searched>  (27) 
False

>  <enamine_id>  (27) 
nan

$$$$

     RDKit          3D

 64 68  0  0  0  0  0  0  0  0999 V2000
   -5.2556   -3.8912  -19.3396 C   0  0  0  0  0  0  0  0  0  0  0  0
   -6.4183   -4.5964  -19.8293 N   0  0  0  0  0  0  0  0  0  0  0  0
   -6.2574   -5.7346  -20.5581 C   0  0  0  0  0  0  0  0  0  0  0  0
   -5.1810   -6.3093  -20.6049 O   0  0  0  0  0  0  0  0  0  0  0  0
   -7.4696   -6.2438  -21.3625 C   0  0  0  0  0  0  0  0  0  0  0  0
   -7.8239   -5.3603  -22.4642 N   0  0  0  0  0  0  0  0  0  0  0  0
   -8.6947   -4.2038  -22.2984 C   0  0  0  0  0  0  0  0  0  0  0  0
   -8.1092   -2.9098  -22.9535 C   0  0  2  0  0  0  0  0  0  0  0  0
   -6.9208   -2.3917  -22.1122 C   0  0  0  0  0  0  0  0  0  0  0  0
   -5.7736   -2.7881  -22.1480 O   0  0  0  0  0  0  0  0  0  0  0  0
   -7.3749   -1.4028  -21.2632 N   0  0  0  0  0  0  0  0  0  0  0  0
   -6.5976   -0.8493  -20.2272 C   0  0  0  0  0  0  0  0  0  0  0  0
   -6.9739   -1.0376  -18.9182 C   0  0  0  0  0  0  0  0  0  0  0  0
   -6.2864   -0.5688  -17.8518 N   0  0  0  0  0  0  0  0  0  0  0  0
   -5.2149    0.1495  -18.0963 C   0  0  0  0  0  0  0  0  0  0  0  0
   -4.7492    0.4630  -19.4039 C   0  0  0  0  0  0  0  0  0  0  0  0
   -3.6256    1.3065  -19.6100 C   0  0  0  0  0  0  0  0  0  0  0  0
   -3.2361    1.6442  -20.8759 C   0  0  0  0  0  0  0  0  0  0  0  0
   -3.9402    1.1488  -21.9967 C   0  0  0  0  0  0  0  0  0  0  0  0
   -5.0224    0.3210  -21.8276 C   0  0  0  0  0  0  0  0  0  0  0  0
   -5.4539   -0.0408  -20.5184 C   0  0  0  0  0  0  0  0  0  0  0  0
   -5.5581   -0.0617  -22.6924 H   0  0  0  0  0  0  0  0  0  0  0  0
   -3.6171    1.4246  -22.9965 H   0  0  0  0  0  0  0  0  0  0  0  0
   -2.3810    2.2967  -21.0335 H   0  0  0  0  0  0  0  0  0  0  0  0
   -3.1026    1.6921  -18.7389 H   0  0  0  0  0  0  0  0  0  0  0  0
   -4.6652    0.5315  -17.2375 H   0  0  0  0  0  0  0  0  0  0  0  0
   -7.8508   -1.6400  -18.6817 H   0  0  0  0  0  0  0  0  0  0  0  0
   -8.7968   -1.1567  -21.3903 C   0  0  0  0  0  0  0  0  0  0  0  0
   -9.0865   -1.7096  -22.7943 C   0  0  2  0  0  0  0  0  0  0  0  0
  -10.5537   -2.0565  -23.0126 C   0  0  0  0  0  0  0  0  0  0  0  0
  -11.6321   -0.6511  -23.2409 S   0  0  0  0  0  0  0  0  0  0  0  0
  -11.5028    0.2770  -22.1301 O   0  0  0  0  0  0  0  0  0  0  0  0
  -12.9404   -1.1747  -23.6030 O   0  0  0  0  0  0  0  0  0  0  0  0
  -10.9188    0.1503  -24.5250 N   0  0  0  0  0  0  0  0  0  0  0  0
  -11.0670   -0.3875  -25.8710 C   0  0  0  0  0  0  0  0  0  0  0  0
  -10.7077    0.3801  -26.5597 H   0  0  0  0  0  0  0  0  0  0  0  0
  -10.4120   -1.2597  -25.9793 H   0  0  0  0  0  0  0  0  0  0  0  0
  -12.1000   -0.6627  -26.1203 H   0  0  0  0  0  0  0  0  0  0  0  0
  -11.1695    1.1281  -24.4173 H   0  0  0  0  0  0  0  0  0  0  0  0
  -10.6989   -2.6893  -23.8965 H   0  0  0  0  0  0  0  0  0  0  0  0
  -10.9599   -2.5801  -22.1368 H   0  0  0  0  0  0  0  0  0  0  0  0
   -8.7789   -0.9308  -23.4993 H   0  0  0  0  0  0  0  0  0  0  0  0
   -9.3779   -1.7087  -20.6381 H   0  0  0  0  0  0  0  0  0  0  0  0
   -9.0317   -0.0937  -21.2917 H   0  0  0  0  0  0  0  0  0  0  0  0
   -7.6952   -3.2501  -24.3751 C   0  0  0  0  0  0  0  0  0  0  0  0
   -7.6300   -2.2867  -25.3964 C   0  0  0  0  0  0  0  0  0  0  0  0
   -7.1773   -2.6389  -26.6604 C   0  0  0  0  0  0  0  0  0  0  0  0
   -7.1000   -1.4084  -27.9034 Cl  0  0  0  0  0  0  0  0  0  0  0  0
   -6.7742   -3.9398  -26.9643 C   0  0  0  0  0  0  0  0  0  0  0  0
   -6.8225   -4.8890  -25.9640 C   0  0  0  0  0  0  0  0  0  0  0  0
   -7.2756   -4.5504  -24.6891 C   0  0  0  0  0  0  0  0  0  0  0  0
   -7.2225   -5.6340  -23.6637 C   0  0  0  0  0  0  0  0  0  0  0  0
   -6.6503   -6.6914  -23.8851 O   0  0  0  0  0  0  0  0  0  0  0  0
   -6.5043   -5.9129  -26.1392 H   0  0  0  0  0  0  0  0  0  0  0  0
   -6.4277   -4.1902  -27.9631 H   0  0  0  0  0  0  0  0  0  0  0  0
   -7.9074   -1.2526  -25.2204 H   0  0  0  0  0  0  0  0  0  0  0  0
   -8.8755   -4.0351  -21.2332 H   0  0  0  0  0  0  0  0  0  0  0  0
   -9.6684   -4.4092  -22.7619 H   0  0  0  0  0  0  0  0  0  0  0  0
   -7.1460   -7.1761  -21.8306 H   0  0  0  0  0  0  0  0  0  0  0  0
   -8.3577   -6.4417  -20.7525 H   0  0  0  0  0  0  0  0  0  0  0  0
   -7.2856   -4.0811  -19.8793 H   0  0  0  0  0  0  0  0  0  0  0  0
   -4.5851   -4.6373  -18.9383 H   0  0  0  0  0  0  0  0  0  0  0  0
   -4.7703   -3.3467  -20.1538 H   0  0  0  0  0  0  0  0  0  0  0  0
   -5.5482   -3.1901  -18.5562 H   0  0  0  0  0  0  0  0  0  0  0  0
  1  2  1  0
  2  3  1  0
  3  4  2  0
  3  5  1  0
  5  6  1  0
  6  7  1  0
  8  7  1  1
  8  9  1  0
  9 10  2  0
  9 11  1  0
 11 12  1  0
 12 13  2  0
 13 14  1  0
 14 15  2  0
 15 16  1  0
 16 17  2  0
 17 18  1  0
 18 19  2  0
 19 20  1  0
 20 21  2  0
 20 22  1  0
 19 23  1  0
 18 24  1  0
 17 25  1  0
 15 26  1  0
 13 27  1  0
 11 28  1  0
 28 29  1  0
 29 30  1  0
 30 31  1  0
 31 32  2  0
 31 33  2  0
 31 34  1  0
 34 35  1  0
 35 36  1  0
 35 37  1  0
 35 38  1  0
 34 39  1  0
 30 40  1  0
 30 41  1  0
 29 42  1  6
 28 43  1  0
 28 44  1  0
  8 45  1  0
 45 46  2  0
 46 47  1  0
 47 48  1  0
 47 49  2  0
 49 50  1  0
 50 51  2  0
 51 52  1  0
 52 53  2  0
 50 54  1  0
 49 55  1  0
 46 56  1  0
  7 57  1  0
  7 58  1  0
  5 59  1  0
  5 60  1  0
  2 61  1  0
  1 62  1  0
  1 63  1  0
  1 64  1  0
 52  6  1  0
 29  8  1  0
 51 45  1  0
 21 12  1  0
 21 16  1  0
M  END
>  <cnnaffinities>  (28) 
[5.86278]

>  <score>  (28) 
5.86278

>  <index>  (28) 
28

>  <Smiles>  (28) 
C(N(C(=O)C(N1C([C@@]2(C(=O)N(c3c(nc(c4c(c(c(c(c34)[H])[H])[H])[H])[H])[H])C([C@@]2(C(S(=O)(=O)N(C([H])([H])[H])[H])([H])[H])[H])([H])[H])c2c(c(Cl)c(c(c2C1=O)[H])[H])[H])([H])[H])([H])[H])[H])([H])([H])[H]

>  <h>  (28) 
<NA>

>  <Training>  (28) 
True

>  <Success>  (28) 
True

>  <enamine_searched>  (28) 
False

>  <enamine_id>  (28) 
nan

$$$$

     RDKit          3D

 55 60  0  0  0  0  0  0  0  0999 V2000
  -10.3534   -1.0176  -23.3853 C   0  0  0  0  0  0  0  0  0  0  0  0
   -8.9289   -1.4275  -23.0140 C   0  0  1  0  0  0  0  0  0  0  0  0
   -8.3438   -0.5364  -21.9083 C   0  0  0  0  0  0  0  0  0  0  0  0
   -7.3651   -1.3925  -21.2589 N   0  0  0  0  0  0  0  0  0  0  0  0
   -6.5757   -0.9090  -20.1876 C   0  0  0  0  0  0  0  0  0  0  0  0
   -6.9037   -1.1687  -18.8808 C   0  0  0  0  0  0  0  0  0  0  0  0
   -6.2648   -0.6147  -17.8173 N   0  0  0  0  0  0  0  0  0  0  0  0
   -5.2586    0.1907  -18.0640 C   0  0  0  0  0  0  0  0  0  0  0  0
   -4.7931    0.5207  -19.3711 C   0  0  0  0  0  0  0  0  0  0  0  0
   -3.6775    1.3723  -19.6018 C   0  0  0  0  0  0  0  0  0  0  0  0
   -3.2817    1.6594  -20.8805 C   0  0  0  0  0  0  0  0  0  0  0  0
   -3.9740    1.1130  -21.9851 C   0  0  0  0  0  0  0  0  0  0  0  0
   -5.0460    0.2790  -21.7859 C   0  0  0  0  0  0  0  0  0  0  0  0
   -5.4800   -0.0342  -20.4711 C   0  0  0  0  0  0  0  0  0  0  0  0
   -5.5664   -0.1650  -22.6269 H   0  0  0  0  0  0  0  0  0  0  0  0
   -3.6421    1.3419  -22.9936 H   0  0  0  0  0  0  0  0  0  0  0  0
   -2.4198    2.2972  -21.0599 H   0  0  0  0  0  0  0  0  0  0  0  0
   -3.1418    1.7805  -18.7485 H   0  0  0  0  0  0  0  0  0  0  0  0
   -4.7527    0.6228  -17.2007 H   0  0  0  0  0  0  0  0  0  0  0  0
   -7.7270   -1.8403  -18.6444 H   0  0  0  0  0  0  0  0  0  0  0  0
   -7.6173   -2.7364  -21.4434 C   0  0  0  0  0  0  0  0  0  0  0  0
   -7.0296   -3.6283  -20.8610 O   0  0  0  0  0  0  0  0  0  0  0  0
   -8.7511   -2.8930  -22.4755 C   0  0  1  0  0  0  0  0  0  0  0  0
   -9.9924   -3.3631  -21.6787 C   0  0  0  0  0  0  0  0  0  0  0  0
  -11.0823   -3.8119  -22.5418 N   0  0  0  0  0  0  0  0  0  0  0  0
  -12.4756   -3.5963  -22.1606 C   0  0  0  0  0  0  0  0  0  0  0  0
  -13.1952   -2.4723  -22.8473 C   0  0  0  0  0  0  0  0  0  0  0  0
  -13.7934   -2.3512  -24.1086 C   0  0  0  0  0  0  0  0  0  0  0  0
  -14.4144   -1.1742  -24.1927 N   0  0  0  0  0  0  0  0  0  0  0  0
  -14.2009   -0.6505  -23.0033 N   0  0  0  0  0  0  0  0  0  0  0  0
  -13.4726   -1.3618  -22.1637 N   0  0  0  0  0  0  0  0  0  0  0  0
  -14.6078    0.2270  -22.7079 H   0  0  0  0  0  0  0  0  0  0  0  0
  -13.8017   -3.0516  -24.9319 H   0  0  0  0  0  0  0  0  0  0  0  0
  -12.5126   -3.3636  -21.0965 H   0  0  0  0  0  0  0  0  0  0  0  0
  -13.0159   -4.5254  -22.3614 H   0  0  0  0  0  0  0  0  0  0  0  0
  -10.8638   -4.5530  -23.6745 C   0  0  0  0  0  0  0  0  0  0  0  0
  -11.7798   -5.0136  -24.3437 O   0  0  0  0  0  0  0  0  0  0  0  0
   -9.4357   -4.7442  -24.0798 C   0  0  0  0  0  0  0  0  0  0  0  0
   -9.1466   -5.7312  -25.0295 C   0  0  0  0  0  0  0  0  0  0  0  0
   -7.8551   -5.9153  -25.4896 C   0  0  0  0  0  0  0  0  0  0  0  0
   -6.8700   -5.0688  -24.9932 C   0  0  0  0  0  0  0  0  0  0  0  0
   -5.6129   -5.2191  -25.4427 F   0  0  0  0  0  0  0  0  0  0  0  0
   -7.1242   -4.0996  -24.0381 C   0  0  0  0  0  0  0  0  0  0  0  0
   -8.4261   -3.9331  -23.5442 C   0  0  0  0  0  0  0  0  0  0  0  0
   -6.2953   -3.5173  -23.6482 H   0  0  0  0  0  0  0  0  0  0  0  0
   -7.5923   -6.7054  -26.1907 H   0  0  0  0  0  0  0  0  0  0  0  0
   -9.9575   -6.3559  -25.3947 H   0  0  0  0  0  0  0  0  0  0  0  0
  -10.3451   -2.5297  -21.0580 H   0  0  0  0  0  0  0  0  0  0  0  0
   -9.6494   -4.1558  -21.0044 H   0  0  0  0  0  0  0  0  0  0  0  0
   -9.1227   -0.2074  -21.1975 H   0  0  0  0  0  0  0  0  0  0  0  0
   -7.8716    0.3690  -22.2998 H   0  0  0  0  0  0  0  0  0  0  0  0
   -8.2784   -1.3556  -23.8960 H   0  0  0  0  0  0  0  0  0  0  0  0
  -10.3804   -0.0441  -23.8830 H   0  0  0  0  0  0  0  0  0  0  0  0
  -10.8168   -1.7515  -24.0500 H   0  0  0  0  0  0  0  0  0  0  0  0
  -10.9937   -0.9431  -22.4990 H   0  0  0  0  0  0  0  0  0  0  0  0
  1  2  1  0
  2  3  1  0
  3  4  1  0
  4  5  1  0
  5  6  2  0
  6  7  1  0
  7  8  2  0
  8  9  1  0
  9 10  2  0
 10 11  1  0
 11 12  2  0
 12 13  1  0
 13 14  2  0
 13 15  1  0
 12 16  1  0
 11 17  1  0
 10 18  1  0
  8 19  1  0
  6 20  1  0
  4 21  1  0
 21 22  2  0
 21 23  1  0
 23 24  1  1
 24 25  1  0
 25 26  1  0
 26 27  1  0
 27 28  1  0
 28 29  2  0
 29 30  1  0
 30 31  1  0
 30 32  1  0
 28 33  1  0
 26 34  1  0
 26 35  1  0
 25 36  1  0
 36 37  2  0
 36 38  1  0
 38 39  2  0
 39 40  1  0
 40 41  2  0
 41 42  1  0
 41 43  1  0
 43 44  2  0
 43 45  1  0
 40 46  1  0
 39 47  1  0
 24 48  1  0
 24 49  1  0
  3 50  1  0
  3 51  1  0
  2 52  1  6
  1 53  1  0
  1 54  1  0
  1 55  1  0
 23  2  1  0
 31 27  2  0
 44 38  1  0
 14  5  1  0
 44 23  1  0
 14  9  1  0
M  END
>  <cnnaffinities>  (29) 
[6.89121]

>  <score>  (29) 
6.89121

>  <index>  (29) 
29

>  <Smiles>  (29) 
C([C@]1(C(N(c2c(nc(c3c(c(c(c(c23)[H])[H])[H])[H])[H])[H])C(=O)[C@]21C(N(C(c1c(nn(n1)[H])[H])([H])[H])C(=O)c1c(c(c(F)c(c21)[H])[H])[H])([H])[H])([H])[H])[H])([H])([H])[H]

>  <h>  (29) 
<NA>

>  <Training>  (29) 
True

>  <Success>  (29) 
True

>  <enamine_searched>  (29) 
False

>  <enamine_id>  (29) 
nan

$$$$

     RDKit          3D

 58 63  0  0  0  0  0  0  0  0999 V2000
  -10.2613   -0.9305  -23.4609 C   0  0  0  0  0  0  0  0  0  0  0  0
   -8.8777   -1.4372  -23.0577 C   0  0  1  0  0  0  0  0  0  0  0  0
   -8.2916   -0.5689  -21.9346 C   0  0  0  0  0  0  0  0  0  0  0  0
   -7.3470   -1.4442  -21.2734 N   0  0  0  0  0  0  0  0  0  0  0  0
   -6.5703   -0.9535  -20.1945 C   0  0  0  0  0  0  0  0  0  0  0  0
   -6.9025   -1.2025  -18.8852 C   0  0  0  0  0  0  0  0  0  0  0  0
   -6.2747   -0.6365  -17.8199 N   0  0  0  0  0  0  0  0  0  0  0  0
   -5.2741    0.1768  -18.0608 C   0  0  0  0  0  0  0  0  0  0  0  0
   -4.8082    0.4996  -19.3683 C   0  0  0  0  0  0  0  0  0  0  0  0
   -3.7022    1.3632  -19.5908 C   0  0  0  0  0  0  0  0  0  0  0  0
   -3.3010    1.6571  -20.8655 C   0  0  0  0  0  0  0  0  0  0  0  0
   -3.9818    1.1068  -21.9743 C   0  0  0  0  0  0  0  0  0  0  0  0
   -5.0459    0.2608  -21.7844 C   0  0  0  0  0  0  0  0  0  0  0  0
   -5.4824   -0.0649  -20.4724 C   0  0  0  0  0  0  0  0  0  0  0  0
   -5.5572   -0.1756  -22.6354 H   0  0  0  0  0  0  0  0  0  0  0  0
   -3.6546    1.3496  -22.9806 H   0  0  0  0  0  0  0  0  0  0  0  0
   -2.4506    2.3109  -21.0391 H   0  0  0  0  0  0  0  0  0  0  0  0
   -3.1850    1.7839  -18.7328 H   0  0  0  0  0  0  0  0  0  0  0  0
   -4.7730    0.6267  -17.2008 H   0  0  0  0  0  0  0  0  0  0  0  0
   -7.7221   -1.8745  -18.6388 H   0  0  0  0  0  0  0  0  0  0  0  0
   -7.6629   -2.7776  -21.4443 C   0  0  0  0  0  0  0  0  0  0  0  0
   -7.1154   -3.6848  -20.8492 O   0  0  0  0  0  0  0  0  0  0  0  0
   -8.7684   -2.9146  -22.5211 C   0  0  1  0  0  0  0  0  0  0  0  0
  -10.0489   -3.3992  -21.8096 C   0  0  0  0  0  0  0  0  0  0  0  0
  -11.0817   -3.8625  -22.7386 N   0  0  0  0  0  0  0  0  0  0  0  0
  -12.4906   -3.7390  -22.3690 C   0  0  0  0  0  0  0  0  0  0  0  0
  -13.2596   -2.6474  -23.0887 C   0  0  0  0  0  0  0  0  0  0  0  0
  -13.5661   -1.4777  -22.4537 C   0  0  0  0  0  0  0  0  0  0  0  0
  -14.3162   -0.4214  -23.0970 C   0  0  0  0  0  0  0  0  0  0  0  0
  -14.5826    0.6974  -22.6963 O   0  0  0  0  0  0  0  0  0  0  0  0
  -14.7402   -0.8296  -24.3670 N   0  0  0  0  0  0  0  0  0  0  0  0
  -14.4481   -2.0352  -24.9203 C   0  0  0  0  0  0  0  0  0  0  0  0
  -13.7285   -2.9443  -24.3547 N   0  0  0  0  0  0  0  0  0  0  0  0
  -14.8771   -2.2017  -25.9128 H   0  0  0  0  0  0  0  0  0  0  0  0
  -15.1668   -0.0807  -24.8951 H   0  0  0  0  0  0  0  0  0  0  0  0
  -13.1980   -1.2739  -21.4726 H   0  0  0  0  0  0  0  0  0  0  0  0
  -12.9764   -4.6879  -22.6096 H   0  0  0  0  0  0  0  0  0  0  0  0
  -12.5619   -3.5513  -21.2916 H   0  0  0  0  0  0  0  0  0  0  0  0
  -10.7864   -4.7387  -23.7519 C   0  0  0  0  0  0  0  0  0  0  0  0
  -11.6324   -5.4151  -24.3197 O   0  0  0  0  0  0  0  0  0  0  0  0
   -9.3443   -4.8217  -24.1235 C   0  0  0  0  0  0  0  0  0  0  0  0
   -8.9820   -5.7775  -25.0730 C   0  0  0  0  0  0  0  0  0  0  0  0
   -7.6753   -5.8895  -25.5031 C   0  0  0  0  0  0  0  0  0  0  0  0
   -6.7410   -5.0089  -24.9735 C   0  0  0  0  0  0  0  0  0  0  0  0
   -5.4701   -5.0983  -25.4005 F   0  0  0  0  0  0  0  0  0  0  0  0
   -7.0714   -4.0590  -24.0249 C   0  0  0  0  0  0  0  0  0  0  0  0
   -8.3927   -3.9548  -23.5692 C   0  0  0  0  0  0  0  0  0  0  0  0
   -6.2845   -3.4253  -23.6330 H   0  0  0  0  0  0  0  0  0  0  0  0
   -7.3730   -6.6213  -26.2447 H   0  0  0  0  0  0  0  0  0  0  0  0
   -9.7547   -6.4317  -25.4633 H   0  0  0  0  0  0  0  0  0  0  0  0
   -9.7626   -4.1915  -21.1056 H   0  0  0  0  0  0  0  0  0  0  0  0
  -10.4457   -2.5707  -21.2196 H   0  0  0  0  0  0  0  0  0  0  0  0
   -9.0745   -0.2481  -21.2276 H   0  0  0  0  0  0  0  0  0  0  0  0
   -7.8010    0.3409  -22.2929 H   0  0  0  0  0  0  0  0  0  0  0  0
   -8.2063   -1.3825  -23.9228 H   0  0  0  0  0  0  0  0  0  0  0  0
  -10.8533   -0.7127  -22.5652 H   0  0  0  0  0  0  0  0  0  0  0  0
  -10.8198   -1.6579  -24.0561 H   0  0  0  0  0  0  0  0  0  0  0  0
  -10.1792    0.0031  -24.0276 H   0  0  0  0  0  0  0  0  0  0  0  0
  1  2  1  0
  2  3  1  0
  3  4  1  0
  4  5  1  0
  5  6  2  0
  6  7  1  0
  7  8  2  0
  8  9  1  0
  9 10  2  0
 10 11  1  0
 11 12  2  0
 12 13  1  0
 13 14  2  0
 13 15  1  0
 12 16  1  0
 11 17  1  0
 10 18  1  0
  8 19  1  0
  6 20  1  0
  4 21  1  0
 21 22  2  0
 21 23  1  0
 23 24  1  1
 24 25  1  0
 25 26  1  0
 26 27  1  0
 27 28  2  0
 28 29  1  0
 29 30  2  0
 29 31  1  0
 31 32  1  0
 32 33  2  0
 32 34  1  0
 31 35  1  0
 28 36  1  0
 26 37  1  0
 26 38  1  0
 25 39  1  0
 39 40  2  0
 39 41  1  0
 41 42  2  0
 42 43  1  0
 43 44  2  0
 44 45  1  0
 44 46  1  0
 46 47  2  0
 46 48  1  0
 43 49  1  0
 42 50  1  0
 24 51  1  0
 24 52  1  0
  3 53  1  0
  3 54  1  0
  2 55  1  6
  1 56  1  0
  1 57  1  0
  1 58  1  0
 23  2  1  0
 33 27  1  0
 47 41  1  0
 14  5  1  0
 47 23  1  0
 14  9  1  0
M  END
>  <cnnaffinities>  (30) 
[6.51142]

>  <score>  (30) 
6.51142

>  <index>  (30) 
30

>  <Smiles>  (30) 
C([C@]1(C(N(c2c(nc(c3c(c(c(c(c23)[H])[H])[H])[H])[H])[H])C(=O)[C@]21C(N(C(c1c(c(=O)n(c(n1)[H])[H])[H])([H])[H])C(=O)c1c(c(c(F)c(c21)[H])[H])[H])([H])[H])([H])[H])[H])([H])([H])[H]

>  <h>  (30) 
<NA>

>  <Training>  (30) 
True

>  <Success>  (30) 
True

>  <enamine_searched>  (30) 
False

>  <enamine_id>  (30) 
nan

$$$$

     RDKit          3D

 66 71  0  0  0  0  0  0  0  0999 V2000
   -6.7688    0.0863  -29.3843 C   0  0  0  0  0  0  0  0  0  0  0  0
   -7.0939    0.4798  -28.0338 N   0  0  0  0  0  0  0  0  0  0  0  0
   -6.4234   -0.0333  -26.9738 C   0  0  0  0  0  0  0  0  0  0  0  0
   -5.5453   -0.8768  -27.0646 O   0  0  0  0  0  0  0  0  0  0  0  0
   -6.8381    0.5578  -25.6230 C   0  0  0  0  0  0  0  0  0  0  0  0
   -7.9822   -0.1000  -25.0344 N   0  0  0  0  0  0  0  0  0  0  0  0
   -7.7788   -1.3857  -24.4007 C   0  0  0  0  0  0  0  0  0  0  0  0
   -8.6796   -1.5286  -23.1503 C   0  0  2  0  0  0  0  0  0  0  0  0
   -8.1443   -0.5963  -22.0342 C   0  0  0  0  0  0  0  0  0  0  0  0
   -8.3063    0.5983  -21.9358 O   0  0  0  0  0  0  0  0  0  0  0  0
   -7.3977   -1.3588  -21.1566 N   0  0  0  0  0  0  0  0  0  0  0  0
   -6.6112   -0.8000  -20.1186 C   0  0  0  0  0  0  0  0  0  0  0  0
   -6.9016   -1.0747  -18.8056 C   0  0  0  0  0  0  0  0  0  0  0  0
   -6.2306   -0.5642  -17.7423 N   0  0  0  0  0  0  0  0  0  0  0  0
   -5.2086    0.2198  -17.9955 C   0  0  0  0  0  0  0  0  0  0  0  0
   -4.7616    0.5476  -19.3085 C   0  0  0  0  0  0  0  0  0  0  0  0
   -3.6376    1.3892  -19.5394 C   0  0  0  0  0  0  0  0  0  0  0  0
   -3.2280    1.6646  -20.8160 C   0  0  0  0  0  0  0  0  0  0  0  0
   -3.9151    1.1125  -21.9190 C   0  0  0  0  0  0  0  0  0  0  0  0
   -4.9981    0.2972  -21.7224 C   0  0  0  0  0  0  0  0  0  0  0  0
   -5.4672    0.0139  -20.4085 C   0  0  0  0  0  0  0  0  0  0  0  0
   -5.5121   -0.1373  -22.5740 H   0  0  0  0  0  0  0  0  0  0  0  0
   -3.5767    1.3324  -22.9263 H   0  0  0  0  0  0  0  0  0  0  0  0
   -2.3703    2.3060  -20.9955 H   0  0  0  0  0  0  0  0  0  0  0  0
   -3.1106    1.8072  -18.6873 H   0  0  0  0  0  0  0  0  0  0  0  0
   -4.6751    0.6281  -17.1369 H   0  0  0  0  0  0  0  0  0  0  0  0
   -7.7454   -1.7237  -18.5727 H   0  0  0  0  0  0  0  0  0  0  0  0
   -7.3391   -2.7652  -21.4999 C   0  0  0  0  0  0  0  0  0  0  0  0
   -8.4950   -2.9224  -22.5033 C   0  0  2  0  0  0  0  0  0  0  0  0
   -8.3691   -4.0852  -23.4993 C   0  0  0  0  0  0  0  0  0  0  0  0
   -8.3279   -5.3838  -22.8612 N   0  0  0  0  0  0  0  0  0  0  0  0
   -7.2041   -5.9448  -22.3304 C   0  0  0  0  0  0  0  0  0  0  0  0
   -5.9104   -5.6094  -22.7720 C   0  0  0  0  0  0  0  0  0  0  0  0
   -4.8623   -6.2662  -22.1630 C   0  0  0  0  0  0  0  0  0  0  0  0
   -5.0404   -7.1455  -21.1695 N   0  0  0  0  0  0  0  0  0  0  0  0
   -6.3004   -7.3743  -20.8363 C   0  0  0  0  0  0  0  0  0  0  0  0
   -7.3997   -6.8495  -21.3582 N   0  0  0  0  0  0  0  0  0  0  0  0
   -6.4593   -8.0658  -20.0083 H   0  0  0  0  0  0  0  0  0  0  0  0
   -3.8270   -6.0730  -22.4502 H   0  0  0  0  0  0  0  0  0  0  0  0
   -5.7448   -4.8621  -23.5410 H   0  0  0  0  0  0  0  0  0  0  0  0
   -9.1661   -5.6075  -22.3431 H   0  0  0  0  0  0  0  0  0  0  0  0
   -7.4860   -3.9650  -24.1321 H   0  0  0  0  0  0  0  0  0  0  0  0
   -9.2358   -4.0547  -24.1740 H   0  0  0  0  0  0  0  0  0  0  0  0
   -9.3866   -3.1202  -21.9039 H   0  0  0  0  0  0  0  0  0  0  0  0
   -7.4600   -3.3728  -20.5991 H   0  0  0  0  0  0  0  0  0  0  0  0
   -6.3588   -3.0222  -21.9272 H   0  0  0  0  0  0  0  0  0  0  0  0
  -10.0992   -1.1574  -23.5486 C   0  0  0  0  0  0  0  0  0  0  0  0
  -11.2098   -1.5776  -22.8033 C   0  0  0  0  0  0  0  0  0  0  0  0
  -12.4802   -1.1416  -23.1385 C   0  0  0  0  0  0  0  0  0  0  0  0
  -13.8408   -1.6671  -22.1964 Cl  0  0  0  0  0  0  0  0  0  0  0  0
  -12.7111   -0.2873  -24.2144 C   0  0  0  0  0  0  0  0  0  0  0  0
  -11.6320    0.1064  -24.9756 C   0  0  0  0  0  0  0  0  0  0  0  0
  -10.3439   -0.3035  -24.6354 C   0  0  0  0  0  0  0  0  0  0  0  0
   -9.2295    0.2310  -25.4620 C   0  0  0  0  0  0  0  0  0  0  0  0
   -9.4258    0.9378  -26.4532 O   0  0  0  0  0  0  0  0  0  0  0  0
  -11.7572    0.7439  -25.8414 H   0  0  0  0  0  0  0  0  0  0  0  0
  -13.7154    0.0648  -24.4229 H   0  0  0  0  0  0  0  0  0  0  0  0
  -11.1119   -2.2313  -21.9443 H   0  0  0  0  0  0  0  0  0  0  0  0
   -8.0084   -2.1759  -25.1306 H   0  0  0  0  0  0  0  0  0  0  0  0
   -6.7225   -1.4723  -24.1265 H   0  0  0  0  0  0  0  0  0  0  0  0
   -5.9836    0.4413  -24.9520 H   0  0  0  0  0  0  0  0  0  0  0  0
   -7.0719    1.6214  -25.7148 H   0  0  0  0  0  0  0  0  0  0  0  0
   -8.0068    0.8708  -27.8415 H   0  0  0  0  0  0  0  0  0  0  0  0
   -5.6875    0.1526  -29.5295 H   0  0  0  0  0  0  0  0  0  0  0  0
   -7.2523    0.7798  -30.0775 H   0  0  0  0  0  0  0  0  0  0  0  0
   -7.0994   -0.9351  -29.6074 H   0  0  0  0  0  0  0  0  0  0  0  0
  1  2  1  0
  2  3  1  0
  3  4  2  0
  3  5  1  0
  5  6  1  0
  6  7  1  0
  8  7  1  6
  8  9  1  0
  9 10  2  0
  9 11  1  0
 11 12  1  0
 12 13  2  0
 13 14  1  0
 14 15  2  0
 15 16  1  0
 16 17  2  0
 17 18  1  0
 18 19  2  0
 19 20  1  0
 20 21  2  0
 20 22  1  0
 19 23  1  0
 18 24  1  0
 17 25  1  0
 15 26  1  0
 13 27  1  0
 11 28  1  0
 28 29  1  0
 29 30  1  0
 30 31  1  0
 31 32  1  0
 32 33  2  0
 33 34  1  0
 34 35  2  0
 35 36  1  0
 36 37  2  0
 36 38  1  0
 34 39  1  0
 33 40  1  0
 31 41  1  0
 30 42  1  0
 30 43  1  0
 29 44  1  1
 28 45  1  0
 28 46  1  0
  8 47  1  0
 47 48  2  0
 48 49  1  0
 49 50  1  0
 49 51  2  0
 51 52  1  0
 52 53  2  0
 53 54  1  0
 54 55  2  0
 52 56  1  0
 51 57  1  0
 48 58  1  0
  7 59  1  0
  7 60  1  0
  5 61  1  0
  5 62  1  0
  2 63  1  0
  1 64  1  0
  1 65  1  0
  1 66  1  0
 54  6  1  0
 29  8  1  0
 37 32  1  0
 53 47  1  0
 21 12  1  0
 21 16  1  0
M  END
>  <cnnaffinities>  (31) 
[5.72891, 5.92263, 6.54538, 6.44832]

>  <score>  (31) 
5.72891

>  <index>  (31) 
31

>  <Smiles>  (31) 
C(N(C(=O)C(N1C([C@@]2(C(=O)N(c3c(nc(c4c(c(c(c(c34)[H])[H])[H])[H])[H])[H])C([C@@]2(C(N(c2c(c(nc(n2)[H])[H])[H])[H])([H])[H])[H])([H])[H])c2c(c(Cl)c(c(c2C1=O)[H])[H])[H])([H])[H])([H])[H])[H])([H])([H])[H]

>  <h>  (31) 
<NA>

>  <Training>  (31) 
True

>  <Success>  (31) 
True

>  <enamine_searched>  (31) 
False

>  <enamine_id>  (31) 
nan

$$$$

     RDKit          3D

 57 62  0  0  0  0  0  0  0  0999 V2000
  -10.2323   -2.9750  -22.0720 C   0  0  0  0  0  0  0  0  0  0  0  0
   -9.1631   -2.0214  -22.6325 C   0  0  1  0  0  0  0  0  0  0  0  0
   -8.6869   -1.0455  -21.5351 C   0  0  0  0  0  0  0  0  0  0  0  0
   -7.3407   -1.4645  -21.2097 N   0  0  0  0  0  0  0  0  0  0  0  0
   -6.5655   -0.8639  -20.1852 C   0  0  0  0  0  0  0  0  0  0  0  0
   -6.9021   -1.0559  -18.8672 C   0  0  0  0  0  0  0  0  0  0  0  0
   -6.2221   -0.5370  -17.8164 N   0  0  0  0  0  0  0  0  0  0  0  0
   -5.1788    0.2109  -18.0850 C   0  0  0  0  0  0  0  0  0  0  0  0
   -4.7363    0.5205  -19.4038 C   0  0  0  0  0  0  0  0  0  0  0  0
   -3.6161    1.3619  -19.6345 C   0  0  0  0  0  0  0  0  0  0  0  0
   -3.2375    1.6727  -20.9095 C   0  0  0  0  0  0  0  0  0  0  0  0
   -3.9633    1.1631  -22.0115 C   0  0  0  0  0  0  0  0  0  0  0  0
   -5.0466    0.3425  -21.8174 C   0  0  0  0  0  0  0  0  0  0  0  0
   -5.4530   -0.0160  -20.4986 C   0  0  0  0  0  0  0  0  0  0  0  0
   -5.5964   -0.0432  -22.6761 H   0  0  0  0  0  0  0  0  0  0  0  0
   -3.6444    1.4131  -23.0180 H   0  0  0  0  0  0  0  0  0  0  0  0
   -2.3731    2.3075  -21.0888 H   0  0  0  0  0  0  0  0  0  0  0  0
   -3.0766    1.7551  -18.7754 H   0  0  0  0  0  0  0  0  0  0  0  0
   -4.6253    0.6138  -17.2364 H   0  0  0  0  0  0  0  0  0  0  0  0
   -7.7572   -1.6805  -18.6114 H   0  0  0  0  0  0  0  0  0  0  0  0
   -6.8181   -2.4059  -22.0664 C   0  0  0  0  0  0  0  0  0  0  0  0
   -5.7127   -2.8961  -21.9617 O   0  0  0  0  0  0  0  0  0  0  0  0
   -7.8563   -2.6913  -23.1739 C   0  0  1  0  0  0  0  0  0  0  0  0
   -7.9917   -4.2193  -23.3895 C   0  0  0  0  0  0  0  0  0  0  0  0
   -6.8009   -4.7993  -23.9887 N   0  0  0  0  0  0  0  0  0  0  0  0
   -6.1888   -5.9566  -23.3388 C   0  0  0  0  0  0  0  0  0  0  0  0
   -7.1003   -7.1390  -23.3709 C   0  0  0  0  0  0  0  0  0  0  0  0
   -7.5827   -7.8590  -22.3827 N   0  0  0  0  0  0  0  0  0  0  0  0
   -8.5319   -8.6499  -22.9398 N   0  0  0  0  0  0  0  0  0  0  0  0
   -8.6284   -8.4440  -24.1982 N   0  0  0  0  0  0  0  0  0  0  0  0
   -7.6933   -7.5315  -24.5099 N   0  0  0  0  0  0  0  0  0  0  0  0
   -7.2018   -7.3874  -25.8584 C   0  0  0  0  0  0  0  0  0  0  0  0
   -7.4439   -6.4164  -26.2853 H   0  0  0  0  0  0  0  0  0  0  0  0
   -6.1203   -7.5180  -25.8824 H   0  0  0  0  0  0  0  0  0  0  0  0
   -7.6706   -8.1860  -26.4181 H   0  0  0  0  0  0  0  0  0  0  0  0
   -5.9391   -5.7126  -22.2979 H   0  0  0  0  0  0  0  0  0  0  0  0
   -5.2845   -6.1640  -23.9169 H   0  0  0  0  0  0  0  0  0  0  0  0
   -6.2199   -4.2377  -25.0911 C   0  0  0  0  0  0  0  0  0  0  0  0
   -5.4038   -4.8250  -25.7932 O   0  0  0  0  0  0  0  0  0  0  0  0
   -6.6122   -2.8216  -25.3910 C   0  0  0  0  0  0  0  0  0  0  0  0
   -6.1304   -2.2533  -26.5716 C   0  0  0  0  0  0  0  0  0  0  0  0
   -6.3625   -0.9185  -26.8472 C   0  0  0  0  0  0  0  0  0  0  0  0
   -7.0681   -0.1649  -25.9166 C   0  0  0  0  0  0  0  0  0  0  0  0
   -7.2734    1.1404  -26.1704 F   0  0  0  0  0  0  0  0  0  0  0  0
   -7.5617   -0.7058  -24.7455 C   0  0  0  0  0  0  0  0  0  0  0  0
   -7.3628   -2.0683  -24.4786 C   0  0  0  0  0  0  0  0  0  0  0  0
   -8.0906   -0.0472  -24.0629 H   0  0  0  0  0  0  0  0  0  0  0  0
   -5.9945   -0.4396  -27.7464 H   0  0  0  0  0  0  0  0  0  0  0  0
   -5.5565   -2.8916  -27.2368 H   0  0  0  0  0  0  0  0  0  0  0  0
   -8.8643   -4.4024  -24.0386 H   0  0  0  0  0  0  0  0  0  0  0  0
   -8.1385   -4.7136  -22.4297 H   0  0  0  0  0  0  0  0  0  0  0  0
   -8.7033    0.0050  -21.8593 H   0  0  0  0  0  0  0  0  0  0  0  0
   -9.3316   -1.1242  -20.6645 H   0  0  0  0  0  0  0  0  0  0  0  0
   -9.6416   -1.4744  -23.4542 H   0  0  0  0  0  0  0  0  0  0  0  0
  -10.6177   -3.6521  -22.8395 H   0  0  0  0  0  0  0  0  0  0  0  0
  -11.0856   -2.4015  -21.6943 H   0  0  0  0  0  0  0  0  0  0  0  0
   -9.8478   -3.5793  -21.2426 H   0  0  0  0  0  0  0  0  0  0  0  0
  1  2  1  0
  2  3  1  0
  3  4  1  0
  4  5  1  0
  5  6  2  0
  6  7  1  0
  7  8  2  0
  8  9  1  0
  9 10  2  0
 10 11  1  0
 11 12  2  0
 12 13  1  0
 13 14  2  0
 13 15  1  0
 12 16  1  0
 11 17  1  0
 10 18  1  0
  8 19  1  0
  6 20  1  0
  4 21  1  0
 21 22  2  0
 21 23  1  0
 23 24  1  6
 24 25  1  0
 25 26  1  0
 26 27  1  0
 27 28  2  0
 28 29  1  0
 29 30  2  0
 30 31  1  0
 31 32  1  0
 32 33  1  0
 32 34  1  0
 32 35  1  0
 26 36  1  0
 26 37  1  0
 25 38  1  0
 38 39  2  0
 38 40  1  0
 40 41  2  0
 41 42  1  0
 42 43  2  0
 43 44  1  0
 43 45  1  0
 45 46  2  0
 45 47  1  0
 42 48  1  0
 41 49  1  0
 24 50  1  0
 24 51  1  0
  3 52  1  0
  3 53  1  0
  2 54  1  6
  1 55  1  0
  1 56  1  0
  1 57  1  0
 23  2  1  0
 31 27  1  0
 46 40  1  0
 14  5  1  0
 46 23  1  0
 14  9  1  0
M  END
>  <cnnaffinities>  (32) 
[6.14135]

>  <score>  (32) 
6.14135

>  <index>  (32) 
32

>  <Smiles>  (32) 
C([C@]1(C(N(c2c(nc(c3c(c(c(c(c23)[H])[H])[H])[H])[H])[H])C(=O)[C@]21C(N(C(c1nnnn1C([H])([H])[H])([H])[H])C(=O)c1c(c(c(F)c(c21)[H])[H])[H])([H])[H])([H])[H])[H])([H])([H])[H]

>  <h>  (32) 
<NA>

>  <Training>  (32) 
True

>  <Success>  (32) 
True

>  <enamine_searched>  (32) 
False

>  <enamine_id>  (32) 
nan

$$$$

     RDKit          3D

 66 70  0  0  0  0  0  0  0  0999 V2000
   -7.4556    3.3428  -21.6828 C   0  0  0  0  0  0  0  0  0  0  0  0
   -8.3730    2.9327  -22.7281 N   0  0  0  0  0  0  0  0  0  0  0  0
   -7.8251    2.2588  -23.7668 C   0  0  0  0  0  0  0  0  0  0  0  0
   -6.6115    2.1597  -23.9027 O   0  0  0  0  0  0  0  0  0  0  0  0
   -8.7723    1.6472  -24.7938 C   0  0  0  0  0  0  0  0  0  0  0  0
   -9.4590    0.4602  -24.3280 N   0  0  0  0  0  0  0  0  0  0  0  0
   -8.6956   -0.7683  -24.1949 C   0  0  0  0  0  0  0  0  0  0  0  0
   -9.0546   -1.5245  -22.8955 C   0  0  2  0  0  0  0  0  0  0  0  0
   -8.5307   -0.7521  -21.6593 C   0  0  0  0  0  0  0  0  0  0  0  0
   -9.0092    0.2482  -21.1542 O   0  0  0  0  0  0  0  0  0  0  0  0
   -7.4001   -1.3839  -21.1969 N   0  0  0  0  0  0  0  0  0  0  0  0
   -6.6039   -0.8106  -20.1688 C   0  0  0  0  0  0  0  0  0  0  0  0
   -6.9128   -1.0407  -18.8520 C   0  0  0  0  0  0  0  0  0  0  0  0
   -6.2110   -0.5451  -17.8021 N   0  0  0  0  0  0  0  0  0  0  0  0
   -5.1710    0.2068  -18.0733 C   0  0  0  0  0  0  0  0  0  0  0  0
   -4.7342    0.5304  -19.3902 C   0  0  0  0  0  0  0  0  0  0  0  0
   -3.6098    1.3673  -19.6357 C   0  0  0  0  0  0  0  0  0  0  0  0
   -3.2312    1.6650  -20.9157 C   0  0  0  0  0  0  0  0  0  0  0  0
   -3.9559    1.1416  -22.0107 C   0  0  0  0  0  0  0  0  0  0  0  0
   -5.0450    0.3298  -21.7999 C   0  0  0  0  0  0  0  0  0  0  0  0
   -5.4678    0.0038  -20.4814 C   0  0  0  0  0  0  0  0  0  0  0  0
   -5.6039   -0.0493  -22.6502 H   0  0  0  0  0  0  0  0  0  0  0  0
   -3.6544    1.3855  -23.0232 H   0  0  0  0  0  0  0  0  0  0  0  0
   -2.3720    2.3047  -21.0984 H   0  0  0  0  0  0  0  0  0  0  0  0
   -3.0694    1.7681  -18.7820 H   0  0  0  0  0  0  0  0  0  0  0  0
   -4.6169    0.6089  -17.2246 H   0  0  0  0  0  0  0  0  0  0  0  0
   -7.7655   -1.6669  -18.6007 H   0  0  0  0  0  0  0  0  0  0  0  0
   -7.0391   -2.5764  -21.9411 C   0  0  0  0  0  0  0  0  0  0  0  0
   -8.2936   -2.8821  -22.7751 C   0  0  2  0  0  0  0  0  0  0  0  0
   -7.9661   -3.6186  -24.0779 C   0  0  0  0  0  0  0  0  0  0  0  0
   -9.1233   -3.9182  -24.8294 O   0  0  0  0  0  0  0  0  0  0  0  0
   -9.6970   -5.1980  -24.5633 C   0  0  0  0  0  0  0  0  0  0  0  0
  -11.1986   -5.0783  -24.7350 C   0  0  0  0  0  0  0  0  0  0  0  0
  -11.6765   -6.0359  -24.5128 H   0  0  0  0  0  0  0  0  0  0  0  0
  -11.6098   -4.3083  -24.0770 H   0  0  0  0  0  0  0  0  0  0  0  0
  -11.4351   -4.8234  -25.7674 H   0  0  0  0  0  0  0  0  0  0  0  0
   -9.0931   -6.2338  -25.5072 C   0  0  0  0  0  0  0  0  0  0  0  0
   -9.5464   -7.2153  -25.3401 H   0  0  0  0  0  0  0  0  0  0  0  0
   -8.0116   -6.3291  -25.3616 H   0  0  0  0  0  0  0  0  0  0  0  0
   -9.2741   -5.9350  -26.5449 H   0  0  0  0  0  0  0  0  0  0  0  0
   -9.4711   -5.4769  -23.5212 H   0  0  0  0  0  0  0  0  0  0  0  0
   -7.4023   -4.5376  -23.8547 H   0  0  0  0  0  0  0  0  0  0  0  0
   -7.3233   -2.9913  -24.7087 H   0  0  0  0  0  0  0  0  0  0  0  0
   -8.9461   -3.5397  -22.1959 H   0  0  0  0  0  0  0  0  0  0  0  0
   -6.1681   -2.3869  -22.5868 H   0  0  0  0  0  0  0  0  0  0  0  0
   -6.7738   -3.3920  -21.2578 H   0  0  0  0  0  0  0  0  0  0  0  0
  -10.5659   -1.6222  -22.8335 C   0  0  0  0  0  0  0  0  0  0  0  0
  -11.1527   -2.5242  -21.9443 C   0  0  0  0  0  0  0  0  0  0  0  0
  -12.5220   -2.5680  -21.7835 C   0  0  0  0  0  0  0  0  0  0  0  0
  -13.1414   -3.5907  -20.5164 Cl  0  0  0  0  0  0  0  0  0  0  0  0
  -13.3659   -1.7582  -22.5480 C   0  0  0  0  0  0  0  0  0  0  0  0
  -12.7933   -0.8206  -23.3884 C   0  0  0  0  0  0  0  0  0  0  0  0
  -11.4055   -0.7179  -23.4972 C   0  0  0  0  0  0  0  0  0  0  0  0
  -10.8291    0.4508  -24.2382 C   0  0  0  0  0  0  0  0  0  0  0  0
  -11.5313    1.3452  -24.6859 O   0  0  0  0  0  0  0  0  0  0  0  0
  -13.3944   -0.1090  -23.9457 H   0  0  0  0  0  0  0  0  0  0  0  0
  -14.4429   -1.8369  -22.4608 H   0  0  0  0  0  0  0  0  0  0  0  0
  -10.5481   -3.1542  -21.3048 H   0  0  0  0  0  0  0  0  0  0  0  0
   -8.8983   -1.4428  -25.0402 H   0  0  0  0  0  0  0  0  0  0  0  0
   -7.6342   -0.4966  -24.1810 H   0  0  0  0  0  0  0  0  0  0  0  0
   -9.5593    2.3497  -25.0582 H   0  0  0  0  0  0  0  0  0  0  0  0
   -8.1513    1.4201  -25.6703 H   0  0  0  0  0  0  0  0  0  0  0  0
   -9.3565    2.8150  -22.5300 H   0  0  0  0  0  0  0  0  0  0  0  0
   -6.8217    2.4921  -21.4026 H   0  0  0  0  0  0  0  0  0  0  0  0
   -6.8040    4.1409  -22.0479 H   0  0  0  0  0  0  0  0  0  0  0  0
   -8.0124    3.6947  -20.8198 H   0  0  0  0  0  0  0  0  0  0  0  0
  1  2  1  0
  2  3  1  0
  3  4  2  0
  3  5  1  0
  5  6  1  0
  6  7  1  0
  8  7  1  6
  8  9  1  0
  9 10  2  0
  9 11  1  0
 11 12  1  0
 12 13  2  0
 13 14  1  0
 14 15  2  0
 15 16  1  0
 16 17  2  0
 17 18  1  0
 18 19  2  0
 19 20  1  0
 20 21  2  0
 20 22  1  0
 19 23  1  0
 18 24  1  0
 17 25  1  0
 15 26  1  0
 13 27  1  0
 11 28  1  0
 28 29  1  0
 29 30  1  0
 30 31  1  0
 31 32  1  0
 32 33  1  0
 33 34  1  0
 33 35  1  0
 33 36  1  0
 32 37  1  0
 37 38  1  0
 37 39  1  0
 37 40  1  0
 32 41  1  0
 30 42  1  0
 30 43  1  0
 29 44  1  1
 28 45  1  0
 28 46  1  0
  8 47  1  0
 47 48  2  0
 48 49  1  0
 49 50  1  0
 49 51  2  0
 51 52  1  0
 52 53  2  0
 53 54  1  0
 54 55  2  0
 52 56  1  0
 51 57  1  0
 48 58  1  0
  7 59  1  0
  7 60  1  0
  5 61  1  0
  5 62  1  0
  2 63  1  0
  1 64  1  0
  1 65  1  0
  1 66  1  0
 54  6  1  0
 29  8  1  0
 53 47  1  0
 21 12  1  0
 21 16  1  0
M  END
>  <cnnaffinities>  (33) 
[6.13545, 6.3535, 6.5509]

>  <score>  (33) 
6.13545

>  <index>  (33) 
34

>  <Smiles>  (33) 
C(N(C(=O)C(N1C([C@@]2(C(=O)N(c3c(nc(c4c(c(c(c(c34)[H])[H])[H])[H])[H])[H])C([C@@]2(C(OC(C([H])([H])[H])(C([H])([H])[H])[H])([H])[H])[H])([H])[H])c2c(c(Cl)c(c(c2C1=O)[H])[H])[H])([H])[H])([H])[H])[H])([H])([H])[H]

>  <h>  (33) 
<NA>

>  <Training>  (33) 
True

>  <Success>  (33) 
True

>  <enamine_searched>  (33) 
False

>  <enamine_id>  (33) 
nan

$$$$

     RDKit          3D

 40 42  0  0  0  0  0  0  0  0999 V2000
   -9.2501   -1.9033  -22.4448 O   0  0  0  0  0  0  0  0  0  0  0  0
   -8.3467   -1.1011  -22.2377 C   0  0  0  0  0  0  0  0  0  0  0  0
   -6.9508   -1.5620  -21.8262 C   0  0  0  0  0  0  0  0  0  0  0  0
   -6.3707   -0.8740  -20.5925 C   0  0  0  0  0  0  0  0  0  0  0  0
   -6.9645   -1.0564  -19.3639 C   0  0  0  0  0  0  0  0  0  0  0  0
   -6.5320   -0.5126  -18.1966 N   0  0  0  0  0  0  0  0  0  0  0  0
   -5.4709    0.2550  -18.2492 C   0  0  0  0  0  0  0  0  0  0  0  0
   -4.7603    0.5599  -19.4426 C   0  0  0  0  0  0  0  0  0  0  0  0
   -3.6644    1.4639  -19.4663 C   0  0  0  0  0  0  0  0  0  0  0  0
   -3.0804    1.8178  -20.6513 C   0  0  0  0  0  0  0  0  0  0  0  0
   -3.5477    1.2600  -21.8582 C   0  0  0  0  0  0  0  0  0  0  0  0
   -4.5478    0.3174  -21.8525 C   0  0  0  0  0  0  0  0  0  0  0  0
   -5.2148   -0.0297  -20.6494 C   0  0  0  0  0  0  0  0  0  0  0  0
   -4.8450   -0.1340  -22.7951 H   0  0  0  0  0  0  0  0  0  0  0  0
   -3.0782    1.5465  -22.7937 H   0  0  0  0  0  0  0  0  0  0  0  0
   -2.2563    2.5243  -20.6756 H   0  0  0  0  0  0  0  0  0  0  0  0
   -3.3155    1.8914  -18.5302 H   0  0  0  0  0  0  0  0  0  0  0  0
   -5.1230    0.6848  -17.3094 H   0  0  0  0  0  0  0  0  0  0  0  0
   -7.8496   -1.6896  -19.2732 H   0  0  0  0  0  0  0  0  0  0  0  0
   -7.0580   -2.6340  -21.6374 H   0  0  0  0  0  0  0  0  0  0  0  0
   -6.2725   -1.4636  -22.6774 H   0  0  0  0  0  0  0  0  0  0  0  0
   -8.4606    0.2589  -22.3145 N   0  0  0  0  0  0  0  0  0  0  0  0
   -7.4726    1.0757  -23.0970 C   0  0  0  0  0  0  0  0  0  0  0  0
   -7.9937    2.3570  -23.6828 C   0  0  0  0  0  0  0  0  0  0  0  0
   -9.2396    2.8122  -23.7059 C   0  0  0  0  0  0  0  0  0  0  0  0
   -8.4246    5.4451  -22.9585 C   0  0  0  0  0  0  0  0  0  0  0  0
   -7.8242    5.0796  -21.8428 F   0  0  0  0  0  0  0  0  0  0  0  0
   -9.3917    6.3029  -22.7056 F   0  0  0  0  0  0  0  0  0  0  0  0
   -7.5597    5.9530  -23.8146 F   0  0  0  0  0  0  0  0  0  0  0  0
   -9.6816    1.0391  -22.0050 C   0  0  0  0  0  0  0  0  0  0  0  0
   -9.7159    0.8846  -21.8328 C   0  0  0  0  0  0  0  0  0  0  0  0
  -10.3553    0.5371  -22.8883 H   0  0  0  0  0  0  0  0  0  0  0  0
  -10.1769   -0.0233  -20.6484 H   0  0  0  0  0  0  0  0  0  0  0  0
  -10.6310    1.7925  -21.8425 H   0  0  0  0  0  0  0  0  0  0  0  0
   -9.0250    1.8857  -21.4016 H   0  0  0  0  0  0  0  0  0  0  0  0
   -9.3945    3.8866  -23.8255 H   0  0  0  0  0  0  0  0  0  0  0  0
   -7.2013    2.9916  -24.0772 H   0  0  0  0  0  0  0  0  0  0  0  0
  -10.0759    2.1544  -23.6152 H   0  0  0  0  0  0  0  0  0  0  0  0
   -7.0404    0.4506  -23.8881 H   0  0  0  0  0  0  0  0  0  0  0  0
   -6.6642    1.3507  -22.4138 H   0  0  0  0  0  0  0  0  0  0  0  0
  1  2  2  0
  2  3  1  0
  3  4  1  0
  4  5  2  0
  5  6  1  0
  6  7  2  0
  7  8  1  0
  8  9  2  0
  9 10  1  0
 10 11  2  0
 11 12  1  0
 12 13  2  0
 12 14  1  0
 11 15  1  0
 10 16  1  0
  9 17  1  0
  7 18  1  0
  5 19  1  0
  3 20  1  0
  3 21  1  0
  2 22  1  0
 22 23  1  0
 23 24  1  0
 24 25  1  0
 25 26  1  0
 26 27  1  0
 26 28  1  0
 26 29  1  0
 25 30  1  0
 30 31  1  0
 31 32  1  0
 31 33  1  0
 30 34  1  0
 30 35  1  0
 25 36  1  0
 24 37  1  0
 24 38  1  0
 23 39  1  0
 23 40  1  0
 13  4  1  0
 31 22  1  0
 13  8  1  0
M  END
>  <cnnaffinities>  (34) 
[4.6551]

>  <score>  (34) 
4.6551

>  <index>  (34) 
35

>  <Smiles>  (34) 
O=C(C(c1c(nc(c2c(c(c(c(c12)[H])[H])[H])[H])[H])[H])([H])[H])N1C(C(C(C(F)(F)F)(C(C1([H])[H])([H])[H])[H])([H])[H])([H])[H]

>  <h>  (34) 
<NA>

>  <Training>  (34) 
True

>  <Success>  (34) 
True

>  <enamine_searched>  (34) 
False

>  <enamine_id>  (34) 
nan

$$$$

     RDKit          3D

 47 50  0  0  0  0  0  0  0  0999 V2000
   -8.6660    0.6246  -21.3324 O   0  0  0  0  0  0  0  0  0  0  0  0
   -8.4201   -0.4130  -21.9223 C   0  0  0  0  0  0  0  0  0  0  0  0
   -7.4273   -1.4245  -21.2903 C   0  0  0  0  0  0  0  0  0  0  0  0
   -6.5847   -0.8242  -20.1846 C   0  0  0  0  0  0  0  0  0  0  0  0
   -6.8818   -1.0361  -18.8628 C   0  0  0  0  0  0  0  0  0  0  0  0
   -6.1963   -0.5323  -17.7977 N   0  0  0  0  0  0  0  0  0  0  0  0
   -5.1581    0.2205  -18.0662 C   0  0  0  0  0  0  0  0  0  0  0  0
   -4.7250    0.5347  -19.3823 C   0  0  0  0  0  0  0  0  0  0  0  0
   -3.6008    1.3647  -19.6219 C   0  0  0  0  0  0  0  0  0  0  0  0
   -3.2158    1.6606  -20.8984 C   0  0  0  0  0  0  0  0  0  0  0  0
   -3.9425    1.1299  -21.9905 C   0  0  0  0  0  0  0  0  0  0  0  0
   -5.0327    0.3206  -21.7955 C   0  0  0  0  0  0  0  0  0  0  0  0
   -5.4569    0.0023  -20.4781 C   0  0  0  0  0  0  0  0  0  0  0  0
   -5.5717   -0.0733  -22.6599 H   0  0  0  0  0  0  0  0  0  0  0  0
   -3.6172    1.3637  -22.9985 H   0  0  0  0  0  0  0  0  0  0  0  0
   -2.3509    2.2932  -21.0898 H   0  0  0  0  0  0  0  0  0  0  0  0
   -3.0567    1.7710  -18.7713 H   0  0  0  0  0  0  0  0  0  0  0  0
   -4.6026    0.6251  -17.2157 H   0  0  0  0  0  0  0  0  0  0  0  0
   -7.7298   -1.6595  -18.5836 H   0  0  0  0  0  0  0  0  0  0  0  0
   -6.7838   -1.8976  -22.0420 H   0  0  0  0  0  0  0  0  0  0  0  0
   -8.0346   -2.2319  -20.8576 H   0  0  0  0  0  0  0  0  0  0  0  0
   -9.0704   -0.7298  -23.1058 N   0  0  0  0  0  0  0  0  0  0  0  0
  -10.0871    0.2465  -23.5246 C   0  0  0  0  0  0  0  0  0  0  0  0
  -11.0551   -0.2990  -24.5531 C   0  0  0  0  0  0  0  0  0  0  0  0
  -10.3207   -0.9686  -25.6937 C   0  0  0  0  0  0  0  0  0  0  0  0
   -9.5341   -2.1447  -25.1295 C   0  0  0  0  0  0  0  0  0  0  0  0
   -8.5258   -1.7199  -24.0449 C   0  0  1  0  0  0  0  0  0  0  0  0
   -7.1869   -1.3036  -24.6625 C   0  0  0  0  0  0  0  0  0  0  0  0
   -6.9702   -0.0200  -25.1590 C   0  0  0  0  0  0  0  0  0  0  0  0
   -5.7491    0.3281  -25.7289 C   0  0  0  0  0  0  0  0  0  0  0  0
   -4.7202   -0.6053  -25.8236 C   0  0  0  0  0  0  0  0  0  0  0  0
   -4.9333   -1.9001  -25.3581 C   0  0  0  0  0  0  0  0  0  0  0  0
   -6.1589   -2.2434  -24.7914 C   0  0  0  0  0  0  0  0  0  0  0  0
   -6.3088   -3.2625  -24.4390 H   0  0  0  0  0  0  0  0  0  0  0  0
   -4.1408   -2.6398  -25.4266 H   0  0  0  0  0  0  0  0  0  0  0  0
   -3.7637   -0.3229  -26.2552 H   0  0  0  0  0  0  0  0  0  0  0  0
   -5.6024    1.3401  -26.0931 H   0  0  0  0  0  0  0  0  0  0  0  0
   -7.7589    0.7244  -25.1058 H   0  0  0  0  0  0  0  0  0  0  0  0
   -8.3257   -2.6150  -23.4494 H   0  0  0  0  0  0  0  0  0  0  0  0
  -10.2304   -2.8742  -24.7022 H   0  0  0  0  0  0  0  0  0  0  0  0
   -8.9903   -2.6765  -25.9152 H   0  0  0  0  0  0  0  0  0  0  0  0
   -9.6501   -0.2758  -26.2129 H   0  0  0  0  0  0  0  0  0  0  0  0
  -11.0526   -1.2485  -26.4494 H   0  0  0  0  0  0  0  0  0  0  0  0
  -11.6918    0.5047  -24.9338 H   0  0  0  0  0  0  0  0  0  0  0  0
  -11.7293   -1.0246  -24.0872 H   0  0  0  0  0  0  0  0  0  0  0  0
  -10.6270    0.5511  -22.6295 H   0  0  0  0  0  0  0  0  0  0  0  0
   -9.6297    1.1646  -23.9202 H   0  0  0  0  0  0  0  0  0  0  0  0
  1  2  2  0
  2  3  1  0
  3  4  1  0
  4  5  2  0
  5  6  1  0
  6  7  2  0
  7  8  1  0
  8  9  2  0
  9 10  1  0
 10 11  2  0
 11 12  1  0
 12 13  2  0
 12 14  1  0
 11 15  1  0
 10 16  1  0
  9 17  1  0
  7 18  1  0
  5 19  1  0
  3 20  1  0
  3 21  1  0
  2 22  1  0
 22 23  1  0
 23 24  1  0
 24 25  1  0
 25 26  1  0
 26 27  1  0
 27 28  1  0
 28 29  2  0
 29 30  1  0
 30 31  2  0
 31 32  1  0
 32 33  2  0
 33 34  1  0
 32 35  1  0
 31 36  1  0
 30 37  1  0
 29 38  1  0
 27 39  1  1
 26 40  1  0
 26 41  1  0
 25 42  1  0
 25 43  1  0
 24 44  1  0
 24 45  1  0
 23 46  1  0
 23 47  1  0
 13  4  1  0
 27 22  1  0
 33 28  1  0
 13  8  1  0
M  END
>  <cnnaffinities>  (35) 
[4.86013, 4.85946, 5.52406, 5.52248]

>  <score>  (35) 
4.86013

>  <index>  (35) 
36

>  <Smiles>  (35) 
O=C(C(c1c(nc(c2c(c(c(c(c12)[H])[H])[H])[H])[H])[H])([H])[H])N1C(C(C(C([C@]1(c1c(c(c(c(c1[H])[H])[H])[H])[H])[H])([H])[H])([H])[H])([H])[H])([H])[H]

>  <h>  (35) 
<NA>

>  <Training>  (35) 
True

>  <Success>  (35) 
True

>  <enamine_searched>  (35) 
False

>  <enamine_id>  (35) 
nan

$$$$

     RDKit          3D

 56 60  0  0  0  0  0  0  0  0999 V2000
  -14.5443   -1.3549  -24.0706 C   0  0  0  0  0  0  0  0  0  0  0  0
  -13.6346   -2.4531  -23.8029 N   0  0  0  0  0  0  0  0  0  0  0  0
  -13.1311   -2.4983  -22.5458 C   0  0  0  0  0  0  0  0  0  0  0  0
  -13.2029   -1.5301  -21.8054 O   0  0  0  0  0  0  0  0  0  0  0  0
  -12.4796   -3.7881  -22.0653 C   0  0  0  0  0  0  0  0  0  0  0  0
  -11.0993   -3.8989  -22.5117 N   0  0  0  0  0  0  0  0  0  0  0  0
  -10.0289   -3.3371  -21.6902 C   0  0  0  0  0  0  0  0  0  0  0  0
   -8.7760   -2.8762  -22.4850 C   0  0  2  0  0  0  0  0  0  0  0  0
   -7.6450   -2.7350  -21.4426 C   0  0  0  0  0  0  0  0  0  0  0  0
   -7.0807   -3.6377  -20.8544 O   0  0  0  0  0  0  0  0  0  0  0  0
   -7.3628   -1.3985  -21.2554 N   0  0  0  0  0  0  0  0  0  0  0  0
   -6.5730   -0.9250  -20.1838 C   0  0  0  0  0  0  0  0  0  0  0  0
   -6.9035   -1.1868  -18.8790 C   0  0  0  0  0  0  0  0  0  0  0  0
   -6.2690   -0.6284  -17.8157 N   0  0  0  0  0  0  0  0  0  0  0  0
   -5.2648    0.1807  -18.0603 C   0  0  0  0  0  0  0  0  0  0  0  0
   -4.7967    0.5075  -19.3679 C   0  0  0  0  0  0  0  0  0  0  0  0
   -3.6863    1.3636  -19.6029 C   0  0  0  0  0  0  0  0  0  0  0  0
   -3.2929    1.6514  -20.8824 C   0  0  0  0  0  0  0  0  0  0  0  0
   -3.9824    1.1013  -21.9867 C   0  0  0  0  0  0  0  0  0  0  0  0
   -5.0483    0.2614  -21.7839 C   0  0  0  0  0  0  0  0  0  0  0  0
   -5.4784   -0.0514  -20.4679 C   0  0  0  0  0  0  0  0  0  0  0  0
   -5.5695   -0.1836  -22.6238 H   0  0  0  0  0  0  0  0  0  0  0  0
   -3.6572    1.3345  -22.9964 H   0  0  0  0  0  0  0  0  0  0  0  0
   -2.4348    2.2935  -21.0638 H   0  0  0  0  0  0  0  0  0  0  0  0
   -3.1531    1.7763  -18.7510 H   0  0  0  0  0  0  0  0  0  0  0  0
   -4.7644    0.6217  -17.1970 H   0  0  0  0  0  0  0  0  0  0  0  0
   -7.7250   -1.8620  -18.6450 H   0  0  0  0  0  0  0  0  0  0  0  0
   -8.3231   -0.5226  -21.8961 C   0  0  0  0  0  0  0  0  0  0  0  0
   -8.8998   -1.3976  -23.0176 C   0  0  2  0  0  0  0  0  0  0  0  0
  -10.2850   -0.9253  -23.4422 C   0  0  0  0  0  0  0  0  0  0  0  0
  -10.7315   -1.6270  -24.1520 H   0  0  0  0  0  0  0  0  0  0  0  0
  -10.2319    0.0595  -23.9176 H   0  0  0  0  0  0  0  0  0  0  0  0
  -10.9599   -0.8308  -22.5825 H   0  0  0  0  0  0  0  0  0  0  0  0
   -8.2171   -1.3403  -23.8753 H   0  0  0  0  0  0  0  0  0  0  0  0
   -9.0997   -0.2072  -21.1768 H   0  0  0  0  0  0  0  0  0  0  0  0
   -7.8378    0.3886  -22.2620 H   0  0  0  0  0  0  0  0  0  0  0  0
   -8.4510   -3.9242  -23.5448 C   0  0  0  0  0  0  0  0  0  0  0  0
   -7.1479   -4.1257  -24.0282 C   0  0  0  0  0  0  0  0  0  0  0  0
   -6.8809   -5.1041  -24.9787 C   0  0  0  0  0  0  0  0  0  0  0  0
   -7.9044   -5.9128  -25.4747 C   0  0  0  0  0  0  0  0  0  0  0  0
   -9.1965   -5.7053  -25.0342 C   0  0  0  0  0  0  0  0  0  0  0  0
   -9.4660   -4.7212  -24.0890 C   0  0  0  0  0  0  0  0  0  0  0  0
  -10.8934   -4.5398  -23.6950 C   0  0  0  0  0  0  0  0  0  0  0  0
  -11.8236   -4.9345  -24.3957 O   0  0  0  0  0  0  0  0  0  0  0  0
  -10.0355   -6.2943  -25.3907 H   0  0  0  0  0  0  0  0  0  0  0  0
   -7.6948   -6.7099  -26.1837 H   0  0  0  0  0  0  0  0  0  0  0  0
   -5.8678   -5.2483  -25.3430 H   0  0  0  0  0  0  0  0  0  0  0  0
   -6.3255   -3.5393  -23.6243 H   0  0  0  0  0  0  0  0  0  0  0  0
  -10.4363   -2.4775  -21.1445 H   0  0  0  0  0  0  0  0  0  0  0  0
   -9.6927   -4.0701  -20.9507 H   0  0  0  0  0  0  0  0  0  0  0  0
  -12.5381   -3.7843  -20.9691 H   0  0  0  0  0  0  0  0  0  0  0  0
  -13.0423   -4.6332  -22.4760 H   0  0  0  0  0  0  0  0  0  0  0  0
  -13.3990   -3.1745  -24.4663 H   0  0  0  0  0  0  0  0  0  0  0  0
  -14.0147   -0.4076  -23.9221 H   0  0  0  0  0  0  0  0  0  0  0  0
  -15.3476   -1.4001  -23.3257 H   0  0  0  0  0  0  0  0  0  0  0  0
  -14.9465   -1.4187  -25.0834 H   0  0  0  0  0  0  0  0  0  0  0  0
  1  2  1  0
  2  3  1  0
  3  4  2  0
  3  5  1  0
  5  6  1  0
  6  7  1  0
  8  7  1  1
  8  9  1  0
  9 10  2  0
  9 11  1  0
 11 12  1  0
 12 13  2  0
 13 14  1  0
 14 15  2  0
 15 16  1  0
 16 17  2  0
 17 18  1  0
 18 19  2  0
 19 20  1  0
 20 21  2  0
 20 22  1  0
 19 23  1  0
 18 24  1  0
 17 25  1  0
 15 26  1  0
 13 27  1  0
 11 28  1  0
 28 29  1  0
 29 30  1  0
 30 31  1  0
 30 32  1  0
 30 33  1  0
 29 34  1  6
 28 35  1  0
 28 36  1  0
  8 37  1  0
 37 38  2  0
 38 39  1  0
 39 40  2  0
 40 41  1  0
 41 42  2  0
 42 43  1  0
 43 44  2  0
 41 45  1  0
 40 46  1  0
 39 47  1  0
 38 48  1  0
  7 49  1  0
  7 50  1  0
  5 51  1  0
  5 52  1  0
  2 53  1  0
  1 54  1  0
  1 55  1  0
  1 56  1  0
 43  6  1  0
 29  8  1  0
 42 37  1  0
 21 12  1  0
 21 16  1  0
M  END
>  <cnnaffinities>  (36) 
[6.39753]

>  <score>  (36) 
6.39753

>  <index>  (36) 
37

>  <Smiles>  (36) 
C(N(C(=O)C(N1C([C@@]2(C(=O)N(c3c(nc(c4c(c(c(c(c34)[H])[H])[H])[H])[H])[H])C([C@@]2(C([H])([H])[H])[H])([H])[H])c2c(c(c(c(c2C1=O)[H])[H])[H])[H])([H])[H])([H])[H])[H])([H])([H])[H]

>  <h>  (36) 
<NA>

>  <Training>  (36) 
True

>  <Success>  (36) 
True

>  <enamine_searched>  (36) 
False

>  <enamine_id>  (36) 
nan

$$$$

     RDKit          3D

 46 48  0  0  0  0  0  0  0  0999 V2000
   -8.1437   -4.7046  -26.5287 C   0  0  0  0  0  0  0  0  0  0  0  0
   -8.6492   -4.9639  -25.1115 C   0  0  1  0  0  0  0  0  0  0  0  0
   -7.5879   -5.5276  -24.1765 C   0  0  0  0  0  0  0  0  0  0  0  0
   -6.6141   -4.5188  -23.5530 C   0  0  1  0  0  0  0  0  0  0  0  0
   -5.4115   -4.1598  -24.4400 C   0  0  0  0  0  0  0  0  0  0  0  0
   -4.6075   -3.7379  -23.8288 H   0  0  0  0  0  0  0  0  0  0  0  0
   -5.6635   -3.4318  -25.2144 H   0  0  0  0  0  0  0  0  0  0  0  0
   -5.0161   -5.0550  -24.9378 H   0  0  0  0  0  0  0  0  0  0  0  0
   -7.3227   -3.3366  -23.0153 N   0  0  0  0  0  0  0  0  0  0  0  0
   -6.7238   -2.7043  -21.9365 C   0  0  0  0  0  0  0  0  0  0  0  0
   -5.6754   -3.1186  -21.4678 O   0  0  0  0  0  0  0  0  0  0  0  0
   -7.4076   -1.4712  -21.2799 C   0  0  0  0  0  0  0  0  0  0  0  0
   -6.5777   -0.8357  -20.1836 C   0  0  0  0  0  0  0  0  0  0  0  0
   -6.8735   -1.0476  -18.8623 C   0  0  0  0  0  0  0  0  0  0  0  0
   -6.1925   -0.5393  -17.7974 N   0  0  0  0  0  0  0  0  0  0  0  0
   -5.1588    0.2205  -18.0648 C   0  0  0  0  0  0  0  0  0  0  0  0
   -4.7224    0.5297  -19.3801 C   0  0  0  0  0  0  0  0  0  0  0  0
   -3.5962    1.3591  -19.6217 C   0  0  0  0  0  0  0  0  0  0  0  0
   -3.2008    1.6414  -20.9002 C   0  0  0  0  0  0  0  0  0  0  0  0
   -3.9138    1.0998  -21.9927 C   0  0  0  0  0  0  0  0  0  0  0  0
   -5.0037    0.2910  -21.7864 C   0  0  0  0  0  0  0  0  0  0  0  0
   -5.4459   -0.0139  -20.4727 C   0  0  0  0  0  0  0  0  0  0  0  0
   -5.5351   -0.1243  -22.6373 H   0  0  0  0  0  0  0  0  0  0  0  0
   -3.5795    1.3178  -23.0022 H   0  0  0  0  0  0  0  0  0  0  0  0
   -2.3322    2.2689  -21.0882 H   0  0  0  0  0  0  0  0  0  0  0  0
   -3.0550    1.7707  -18.7724 H   0  0  0  0  0  0  0  0  0  0  0  0
   -4.6031    0.6270  -17.2160 H   0  0  0  0  0  0  0  0  0  0  0  0
   -7.7214   -1.6719  -18.5856 H   0  0  0  0  0  0  0  0  0  0  0  0
   -7.6718   -0.7143  -22.0309 H   0  0  0  0  0  0  0  0  0  0  0  0
   -8.3602   -1.8082  -20.8472 H   0  0  0  0  0  0  0  0  0  0  0  0
   -8.4097   -2.7195  -23.7936 C   0  0  1  0  0  0  0  0  0  0  0  0
   -7.9397   -1.6593  -24.8008 C   0  0  0  0  0  0  0  0  0  0  0  0
   -7.4437   -2.0884  -25.6757 H   0  0  0  0  0  0  0  0  0  0  0  0
   -8.7991   -1.0848  -25.1702 H   0  0  0  0  0  0  0  0  0  0  0  0
   -7.2440   -0.9498  -24.3424 H   0  0  0  0  0  0  0  0  0  0  0  0
   -9.3277   -3.7784  -24.4240 C   0  0  0  0  0  0  0  0  0  0  0  0
   -9.9790   -4.1695  -23.6352 H   0  0  0  0  0  0  0  0  0  0  0  0
   -9.9940   -3.2776  -25.1345 H   0  0  0  0  0  0  0  0  0  0  0  0
   -9.0332   -2.1956  -23.0628 H   0  0  0  0  0  0  0  0  0  0  0  0
   -6.1942   -5.0179  -22.6787 H   0  0  0  0  0  0  0  0  0  0  0  0
   -8.0925   -6.0566  -23.3623 H   0  0  0  0  0  0  0  0  0  0  0  0
   -7.0109   -6.2884  -24.7133 H   0  0  0  0  0  0  0  0  0  0  0  0
   -9.4267   -5.7353  -25.2233 H   0  0  0  0  0  0  0  0  0  0  0  0
   -7.9196   -5.6462  -27.0451 H   0  0  0  0  0  0  0  0  0  0  0  0
   -8.9234   -4.2064  -27.0998 H   0  0  0  0  0  0  0  0  0  0  0  0
   -7.2478   -4.0811  -26.5777 H   0  0  0  0  0  0  0  0  0  0  0  0
  1  2  1  0
  2  3  1  0
  3  4  1  0
  4  5  1  0
  5  6  1  0
  5  7  1  0
  5  8  1  0
  4  9  1  0
  9 10  1  0
 10 11  2  0
 10 12  1  0
 12 13  1  0
 13 14  2  0
 14 15  1  0
 15 16  2  0
 16 17  1  0
 17 18  2  0
 18 19  1  0
 19 20  2  0
 20 21  1  0
 21 22  2  0
 21 23  1  0
 20 24  1  0
 19 25  1  0
 18 26  1  0
 16 27  1  0
 14 28  1  0
 12 29  1  0
 12 30  1  0
  9 31  1  0
 31 32  1  0
 32 33  1  0
 32 34  1  0
 32 35  1  0
 31 36  1  0
 36 37  1  0
 36 38  1  0
 31 39  1  1
  4 40  1  1
  3 41  1  0
  3 42  1  0
  2 43  1  6
  1 44  1  0
  1 45  1  0
  1 46  1  0
 36  2  1  0
 22 13  1  0
 22 17  1  0
M  END
>  <cnnaffinities>  (37) 
[5.33386, 5.46077]

>  <score>  (37) 
5.33386

>  <index>  (37) 
38

>  <Smiles>  (37) 
C([C@]1(C([C@@](C([H])([H])[H])(N(C(=O)C(c2c(nc(c3c(c(c(c(c23)[H])[H])[H])[H])[H])[H])([H])[H])[C@@](C([H])([H])[H])(C1([H])[H])[H])[H])([H])[H])[H])([H])([H])[H]

>  <h>  (37) 
<NA>

>  <Training>  (37) 
True

>  <Success>  (37) 
True

>  <enamine_searched>  (37) 
False

>  <enamine_id>  (37) 
nan

$$$$

     RDKit          3D

 40 44  0  0  0  0  0  0  0  0999 V2000
   -7.2310    0.9541  -25.6018 C   0  0  0  0  0  0  0  0  0  0  0  0
   -6.4985   -0.3687  -25.4061 C   0  0  0  0  0  0  0  0  0  0  0  0
   -5.2961   -0.4686  -25.5824 O   0  0  0  0  0  0  0  0  0  0  0  0
   -7.2542   -1.4521  -25.0456 N   0  0  0  0  0  0  0  0  0  0  0  0
   -6.6458   -2.7649  -24.7209 C   0  0  0  0  0  0  0  0  0  0  0  0
   -7.8232   -3.4988  -24.0346 C   0  0  2  0  0  0  0  0  0  0  0  0
   -8.9947   -2.9684  -24.8673 C   0  0  0  0  0  0  0  0  0  0  0  0
   -8.6584   -1.5014  -24.5580 C   0  0  1  0  0  0  0  0  0  0  0  0
   -8.5944   -1.5838  -23.0836 C   0  0  0  0  0  0  0  0  0  0  0  0
   -8.1596   -0.6178  -22.1219 C   0  0  0  0  0  0  0  0  0  0  0  0
   -8.3088    0.5826  -22.0802 O   0  0  0  0  0  1  0  0  0  0  0  0
   -7.4065   -1.3995  -21.1894 N   0  0  0  0  0  0  0  0  0  0  0  0
   -6.5882   -0.8218  -20.1736 C   0  0  0  0  0  0  0  0  0  0  0  0
   -6.8838   -1.0545  -18.8562 C   0  0  0  0  0  0  0  0  0  0  0  0
   -6.1932   -0.5389  -17.8058 N   0  0  0  0  0  0  0  0  0  0  0  0
   -5.1608    0.2220  -18.0692 C   0  0  0  0  0  0  0  0  0  0  0  0
   -4.7231    0.5334  -19.3878 C   0  0  0  0  0  0  0  0  0  0  0  0
   -3.5918    1.3617  -19.6280 C   0  0  0  0  0  0  0  0  0  0  0  0
   -3.1982    1.6337  -20.9081 C   0  0  0  0  0  0  0  0  0  0  0  0
   -3.9032    1.0845  -22.0028 C   0  0  0  0  0  0  0  0  0  0  0  0
   -4.9886    0.2744  -21.7952 C   0  0  0  0  0  0  0  0  0  0  0  0
   -5.4451   -0.0076  -20.4792 C   0  0  0  0  0  0  0  0  0  0  0  0
   -5.5112   -0.1558  -22.6448 H   0  0  0  0  0  0  0  0  0  0  0  0
   -3.5709    1.2866  -23.0168 H   0  0  0  0  0  0  0  0  0  0  0  0
   -2.3303    2.2587  -21.1005 H   0  0  0  0  0  0  0  0  0  0  0  0
   -3.0507    1.7752  -18.7801 H   0  0  0  0  0  0  0  0  0  0  0  0
   -4.6058    0.6245  -17.2180 H   0  0  0  0  0  0  0  0  0  0  0  0
   -7.7370   -1.6752  -18.5984 H   0  0  0  0  0  0  0  0  0  0  0  0
   -7.2484   -2.7321  -21.6313 C   0  0  0  0  0  0  0  0  0  0  0  0
   -6.5177   -3.5748  -21.1654 O   0  0  0  0  0  0  0  0  0  0  0  0
   -8.0957   -2.8203  -22.7431 N   0  0  0  0  0  0  0  0  0  0  0  0
   -9.2971   -0.7214  -24.9730 H   0  0  0  0  0  0  0  0  0  0  0  0
   -9.9610   -3.2807  -24.4794 H   0  0  0  0  0  0  0  0  0  0  0  0
   -8.9165   -3.2083  -25.9300 H   0  0  0  0  0  0  0  0  0  0  0  0
   -7.7305   -4.5729  -23.9224 H   0  0  0  0  0  0  0  0  0  0  0  0
   -5.7871   -2.6788  -24.0511 H   0  0  0  0  0  0  0  0  0  0  0  0
   -6.3243   -3.2737  -25.6335 H   0  0  0  0  0  0  0  0  0  0  0  0
   -6.4986    1.6971  -25.9130 H   0  0  0  0  0  0  0  0  0  0  0  0
   -7.7135    1.2970  -24.6824 H   0  0  0  0  0  0  0  0  0  0  0  0
   -7.9965    0.8933  -26.3812 H   0  0  0  0  0  0  0  0  0  0  0  0
  1  2  1  0
  2  3  2  0
  2  4  1  0
  4  5  1  0
  5  6  1  0
  6  7  1  0
  7  8  1  0
  8  9  1  0
  9 10  2  0
 10 11  1  0
 10 12  1  0
 12 13  1  0
 13 14  2  0
 14 15  1  0
 15 16  2  0
 16 17  1  0
 17 18  2  0
 18 19  1  0
 19 20  2  0
 20 21  1  0
 21 22  2  0
 21 23  1  0
 20 24  1  0
 19 25  1  0
 18 26  1  0
 16 27  1  0
 14 28  1  0
 12 29  1  0
 29 30  2  0
 29 31  1  0
  8 32  1  1
  7 33  1  0
  7 34  1  0
  6 35  1  1
  5 36  1  0
  5 37  1  0
  1 38  1  0
  1 39  1  0
  1 40  1  0
  8  4  1  0
 31  9  1  0
 31  6  1  0
 22 13  1  0
 22 17  1  0
M  CHG  1  11  -1
M  END
>  <cnnaffinities>  (38) 
[5.42754, 5.37648]

>  <score>  (38) 
5.42754

>  <index>  (38) 
39

>  <Smiles>  (38) 
C(C(=O)N1C([C@@]2(C([C@]1(c1c([O-])n(c3c(nc(c4c(c(c(c(c34)[H])[H])[H])[H])[H])[H])c(=O)n21)[H])([H])[H])[H])([H])[H])([H])([H])[H]

>  <h>  (38) 
<NA>

>  <Training>  (38) 
True

>  <Success>  (38) 
True

>  <enamine_searched>  (38) 
False

>  <enamine_id>  (38) 
nan

$$$$

     RDKit          3D

 40 42  0  0  0  0  0  0  0  0999 V2000
  -12.9159   -1.7142  -25.1837 C   0  0  0  0  0  0  0  0  0  0  0  0
  -11.9780   -1.5824  -23.9805 C   0  0  0  0  0  0  0  0  0  0  0  0
  -11.6381   -0.1172  -23.7309 C   0  0  0  0  0  0  0  0  0  0  0  0
  -10.6831    0.0274  -22.5597 C   0  0  0  0  0  0  0  0  0  0  0  0
   -9.4834   -0.8215  -22.6530 N   0  0  0  0  0  0  0  0  0  0  0  0
   -8.4684   -0.4025  -21.8020 C   0  0  0  0  0  0  0  0  0  0  0  0
   -8.3998    0.7594  -21.4459 O   0  0  0  0  0  0  0  0  0  0  0  0
   -7.4526   -1.4344  -21.2761 C   0  0  0  0  0  0  0  0  0  0  0  0
   -6.5924   -0.8494  -20.1861 C   0  0  0  0  0  0  0  0  0  0  0  0
   -6.9076   -1.0567  -18.8667 C   0  0  0  0  0  0  0  0  0  0  0  0
   -6.2346   -0.5483  -17.7991 N   0  0  0  0  0  0  0  0  0  0  0  0
   -5.1982    0.2065  -18.0664 C   0  0  0  0  0  0  0  0  0  0  0  0
   -4.7603    0.5259  -19.3796 C   0  0  0  0  0  0  0  0  0  0  0  0
   -3.6339    1.3525  -19.6139 C   0  0  0  0  0  0  0  0  0  0  0  0
   -3.2465    1.6546  -20.8889 C   0  0  0  0  0  0  0  0  0  0  0  0
   -3.9674    1.1374  -21.9884 C   0  0  0  0  0  0  0  0  0  0  0  0
   -5.0597    0.3307  -21.7898 C   0  0  0  0  0  0  0  0  0  0  0  0
   -5.4832   -0.0029  -20.4763 C   0  0  0  0  0  0  0  0  0  0  0  0
   -5.6177   -0.0388  -22.6445 H   0  0  0  0  0  0  0  0  0  0  0  0
   -3.6461    1.3787  -22.9965 H   0  0  0  0  0  0  0  0  0  0  0  0
   -2.3827    2.2885  -21.0729 H   0  0  0  0  0  0  0  0  0  0  0  0
   -3.0892    1.7486  -18.7600 H   0  0  0  0  0  0  0  0  0  0  0  0
   -4.6411    0.6194  -17.2233 H   0  0  0  0  0  0  0  0  0  0  0  0
   -7.7604   -1.6809  -18.6062 H   0  0  0  0  0  0  0  0  0  0  0  0
   -8.0171   -2.2934  -20.8817 H   0  0  0  0  0  0  0  0  0  0  0  0
   -6.8431   -1.8022  -22.1133 H   0  0  0  0  0  0  0  0  0  0  0  0
   -9.7899   -2.2394  -22.8827 C   0  0  0  0  0  0  0  0  0  0  0  0
  -10.6700   -2.3684  -24.1251 C   0  0  0  0  0  0  0  0  0  0  0  0
  -10.8589   -3.4228  -24.3479 H   0  0  0  0  0  0  0  0  0  0  0  0
  -10.1041   -1.9960  -24.9854 H   0  0  0  0  0  0  0  0  0  0  0  0
  -10.3128   -2.6799  -22.0106 H   0  0  0  0  0  0  0  0  0  0  0  0
   -8.8691   -2.8184  -23.0216 H   0  0  0  0  0  0  0  0  0  0  0  0
  -11.2265   -0.2433  -21.6478 H   0  0  0  0  0  0  0  0  0  0  0  0
  -10.3579    1.0568  -22.4375 H   0  0  0  0  0  0  0  0  0  0  0  0
  -11.2264    0.3114  -24.6541 H   0  0  0  0  0  0  0  0  0  0  0  0
  -12.5553    0.4533  -23.5270 H   0  0  0  0  0  0  0  0  0  0  0  0
  -12.5013   -1.9427  -23.0792 H   0  0  0  0  0  0  0  0  0  0  0  0
  -12.4712   -1.2550  -26.0765 H   0  0  0  0  0  0  0  0  0  0  0  0
  -13.8578   -1.1874  -24.9910 H   0  0  0  0  0  0  0  0  0  0  0  0
  -13.1586   -2.7562  -25.4302 H   0  0  0  0  0  0  0  0  0  0  0  0
  1  2  1  0
  2  3  1  0
  3  4  1  0
  4  5  1  0
  5  6  1  0
  6  7  2  0
  6  8  1  0
  8  9  1  0
  9 10  2  0
 10 11  1  0
 11 12  2  0
 12 13  1  0
 13 14  2  0
 14 15  1  0
 15 16  2  0
 16 17  1  0
 17 18  2  0
 17 19  1  0
 16 20  1  0
 15 21  1  0
 14 22  1  0
 12 23  1  0
 10 24  1  0
  8 25  1  0
  8 26  1  0
  5 27  1  0
 27 28  1  0
 28 29  1  0
 28 30  1  0
 27 31  1  0
 27 32  1  0
  4 33  1  0
  4 34  1  0
  3 35  1  0
  3 36  1  0
  2 37  1  0
  1 38  1  0
  1 39  1  0
  1 40  1  0
 28  2  1  0
 18  9  1  0
 18 13  1  0
M  END
>  <cnnaffinities>  (39) 
[4.81177, 4.8159, 4.75029, 4.75045]

>  <score>  (39) 
4.81177

>  <index>  (39) 
40

>  <Smiles>  (39) 
C(C1(C(C(N(C(=O)C(c2c(nc(c3c(c(c(c(c23)[H])[H])[H])[H])[H])[H])([H])[H])C(C1([H])[H])([H])[H])([H])[H])([H])[H])[H])([H])([H])[H]

>  <h>  (39) 
<NA>

>  <Training>  (39) 
True

>  <Success>  (39) 
True

>  <enamine_searched>  (39) 
False

>  <enamine_id>  (39) 
nan

$$$$

     RDKit          3D

 67 71  0  0  0  0  0  0  0  0999 V2000
   -7.4310    3.3575  -21.6941 C   0  0  0  0  0  0  0  0  0  0  0  0
   -8.3710    2.9480  -22.7141 N   0  0  0  0  0  0  0  0  0  0  0  0
   -7.8591    2.2463  -23.7538 C   0  0  0  0  0  0  0  0  0  0  0  0
   -6.6538    2.1053  -23.9011 O   0  0  0  0  0  0  0  0  0  0  0  0
   -8.8404    1.6535  -24.7524 C   0  0  0  0  0  0  0  0  0  0  0  0
   -9.4998    0.4694  -24.2548 N   0  0  0  0  0  0  0  0  0  0  0  0
   -8.7408   -0.7627  -24.1523 C   0  0  0  0  0  0  0  0  0  0  0  0
   -9.0833   -1.5304  -22.8601 C   0  0  2  0  0  0  0  0  0  0  0  0
   -8.5454   -0.7647  -21.6308 C   0  0  0  0  0  0  0  0  0  0  0  0
   -9.0169    0.2289  -21.1151 O   0  0  0  0  0  0  0  0  0  0  0  0
   -7.4003   -1.3910  -21.1999 N   0  0  0  0  0  0  0  0  0  0  0  0
   -6.6024   -0.8209  -20.1731 C   0  0  0  0  0  0  0  0  0  0  0  0
   -6.9206   -1.0482  -18.8575 C   0  0  0  0  0  0  0  0  0  0  0  0
   -6.2239   -0.5494  -17.8059 N   0  0  0  0  0  0  0  0  0  0  0  0
   -5.1849    0.2036  -18.0755 C   0  0  0  0  0  0  0  0  0  0  0  0
   -4.7477    0.5273  -19.3909 C   0  0  0  0  0  0  0  0  0  0  0  0
   -3.6257    1.3650  -19.6348 C   0  0  0  0  0  0  0  0  0  0  0  0
   -3.2462    1.6685  -20.9127 C   0  0  0  0  0  0  0  0  0  0  0  0
   -3.9698    1.1517  -22.0130 C   0  0  0  0  0  0  0  0  0  0  0  0
   -5.0576    0.3374  -21.8059 C   0  0  0  0  0  0  0  0  0  0  0  0
   -5.4749    0.0018  -20.4875 C   0  0  0  0  0  0  0  0  0  0  0  0
   -5.6155   -0.0350  -22.6611 H   0  0  0  0  0  0  0  0  0  0  0  0
   -3.6668    1.4015  -23.0254 H   0  0  0  0  0  0  0  0  0  0  0  0
   -2.3854    2.3096  -21.0945 H   0  0  0  0  0  0  0  0  0  0  0  0
   -3.0825    1.7613  -18.7806 H   0  0  0  0  0  0  0  0  0  0  0  0
   -4.6203    0.5991  -17.2296 H   0  0  0  0  0  0  0  0  0  0  0  0
   -7.7838   -1.6653  -18.6113 H   0  0  0  0  0  0  0  0  0  0  0  0
   -7.0430   -2.5757  -21.9528 C   0  0  0  0  0  0  0  0  0  0  0  0
   -8.3162   -2.8886  -22.7682 C   0  0  2  0  0  0  0  0  0  0  0  0
   -8.0423   -3.6245  -24.1011 C   0  0  0  0  0  0  0  0  0  0  0  0
   -7.3102   -5.2393  -23.7900 S   0  0  0  0  0  0  0  0  0  0  0  0
   -8.2239   -6.0063  -22.9518 O   0  0  0  0  0  0  0  0  0  0  0  0
   -5.9314   -5.0147  -23.3722 O   0  0  0  0  0  0  0  0  0  0  0  0
   -7.2926   -6.0189  -25.2910 N   0  0  0  0  0  0  0  0  0  0  0  0
   -6.4984   -5.3815  -26.3344 C   0  0  0  0  0  0  0  0  0  0  0  0
   -5.4511   -5.2442  -26.0397 H   0  0  0  0  0  0  0  0  0  0  0  0
   -6.5458   -6.0229  -27.2219 H   0  0  0  0  0  0  0  0  0  0  0  0
   -6.9275   -4.4176  -26.6103 H   0  0  0  0  0  0  0  0  0  0  0  0
   -6.9020   -7.4249  -25.1314 C   0  0  0  0  0  0  0  0  0  0  0  0
   -5.8723   -7.5388  -24.7643 H   0  0  0  0  0  0  0  0  0  0  0  0
   -7.5824   -7.9040  -24.4307 H   0  0  0  0  0  0  0  0  0  0  0  0
   -6.9905   -7.9217  -26.1021 H   0  0  0  0  0  0  0  0  0  0  0  0
   -7.3212   -3.0556  -24.7023 H   0  0  0  0  0  0  0  0  0  0  0  0
   -8.9656   -3.7826  -24.6732 H   0  0  0  0  0  0  0  0  0  0  0  0
   -8.9309   -3.5629  -22.1712 H   0  0  0  0  0  0  0  0  0  0  0  0
   -6.1891   -2.3766  -22.6131 H   0  0  0  0  0  0  0  0  0  0  0  0
   -6.7661   -3.3939  -21.2819 H   0  0  0  0  0  0  0  0  0  0  0  0
  -10.5924   -1.6229  -22.7661 C   0  0  0  0  0  0  0  0  0  0  0  0
  -11.1778   -2.5549  -21.9092 C   0  0  0  0  0  0  0  0  0  0  0  0
  -12.5482   -2.5796  -21.7602 C   0  0  0  0  0  0  0  0  0  0  0  0
  -13.0561   -3.4425  -20.8628 F   0  0  0  0  0  0  0  0  0  0  0  0
  -13.3931   -1.7218  -22.4628 C   0  0  0  0  0  0  0  0  0  0  0  0
  -12.8187   -0.7664  -23.2794 C   0  0  0  0  0  0  0  0  0  0  0  0
  -11.4310   -0.6920  -23.3977 C   0  0  0  0  0  0  0  0  0  0  0  0
  -10.8612    0.4784  -24.1296 C   0  0  0  0  0  0  0  0  0  0  0  0
  -11.5612    1.3901  -24.5468 O   0  0  0  0  0  0  0  0  0  0  0  0
  -13.4188   -0.0337  -23.8132 H   0  0  0  0  0  0  0  0  0  0  0  0
  -14.4658   -1.8032  -22.3311 H   0  0  0  0  0  0  0  0  0  0  0  0
  -10.5799   -3.2485  -21.3277 H   0  0  0  0  0  0  0  0  0  0  0  0
   -7.6782   -0.5035  -24.1774 H   0  0  0  0  0  0  0  0  0  0  0  0
   -8.9725   -1.4071  -25.0101 H   0  0  0  0  0  0  0  0  0  0  0  0
   -9.6398    2.3570  -24.9810 H   0  0  0  0  0  0  0  0  0  0  0  0
   -8.2482    1.4164  -25.6399 H   0  0  0  0  0  0  0  0  0  0  0  0
   -9.3281    2.8085  -22.4276 H   0  0  0  0  0  0  0  0  0  0  0  0
   -7.9576    3.7055  -20.8119 H   0  0  0  0  0  0  0  0  0  0  0  0
   -6.7868    4.1423  -22.0798 H   0  0  0  0  0  0  0  0  0  0  0  0
   -6.7862    2.5223  -21.4209 H   0  0  0  0  0  0  0  0  0  0  0  0
  1  2  1  0
  2  3  1  0
  3  4  2  0
  3  5  1  0
  5  6  1  0
  6  7  1  0
  8  7  1  6
  8  9  1  0
  9 10  2  0
  9 11  1  0
 11 12  1  0
 12 13  2  0
 13 14  1  0
 14 15  2  0
 15 16  1  0
 16 17  2  0
 17 18  1  0
 18 19  2  0
 19 20  1  0
 20 21  2  0
 20 22  1  0
 19 23  1  0
 18 24  1  0
 17 25  1  0
 15 26  1  0
 13 27  1  0
 11 28  1  0
 28 29  1  0
 29 30  1  0
 30 31  1  0
 31 32  2  0
 31 33  2  0
 31 34  1  0
 34 35  1  0
 35 36  1  0
 35 37  1  0
 35 38  1  0
 34 39  1  0
 39 40  1  0
 39 41  1  0
 39 42  1  0
 30 43  1  0
 30 44  1  0
 29 45  1  1
 28 46  1  0
 28 47  1  0
  8 48  1  0
 48 49  2  0
 49 50  1  0
 50 51  1  0
 50 52  2  0
 52 53  1  0
 53 54  2  0
 54 55  1  0
 55 56  2  0
 53 57  1  0
 52 58  1  0
 49 59  1  0
  7 60  1  0
  7 61  1  0
  5 62  1  0
  5 63  1  0
  2 64  1  0
  1 65  1  0
  1 66  1  0
  1 67  1  0
 55  6  1  0
 29  8  1  0
 54 48  1  0
 21 12  1  0
 21 16  1  0
M  END
>  <cnnaffinities>  (40) 
[6.3004]

>  <score>  (40) 
6.3004

>  <index>  (40) 
41

>  <Smiles>  (40) 
C(N(C(=O)C(N1C([C@@]2(C(=O)N(c3c(nc(c4c(c(c(c(c34)[H])[H])[H])[H])[H])[H])C([C@@]2(C(S(=O)(=O)N(C([H])([H])[H])C([H])([H])[H])([H])[H])[H])([H])[H])c2c(c(F)c(c(c2C1=O)[H])[H])[H])([H])[H])([H])[H])[H])([H])([H])[H]

>  <h>  (40) 
<NA>

>  <Training>  (40) 
True

>  <Success>  (40) 
True

>  <enamine_searched>  (40) 
False

>  <enamine_id>  (40) 
nan

$$$$

     RDKit          3D

 67 72  0  0  0  0  0  0  0  0999 V2000
   -7.3903    3.3821  -21.7501 C   0  0  0  0  0  0  0  0  0  0  0  0
   -8.2560    2.9327  -22.8273 N   0  0  0  0  0  0  0  0  0  0  0  0
   -7.6835    2.2523  -23.8496 C   0  0  0  0  0  0  0  0  0  0  0  0
   -6.4698    2.1554  -23.9714 O   0  0  0  0  0  0  0  0  0  0  0  0
   -8.6349    1.6351  -24.8807 C   0  0  0  0  0  0  0  0  0  0  0  0
   -9.3586    0.4740  -24.3995 N   0  0  0  0  0  0  0  0  0  0  0  0
   -8.6307   -0.7729  -24.2537 C   0  0  0  0  0  0  0  0  0  0  0  0
   -9.0156   -1.5030  -22.9472 C   0  0  2  0  0  0  0  0  0  0  0  0
   -8.4899   -0.7216  -21.7120 C   0  0  0  0  0  0  0  0  0  0  0  0
   -8.9380    0.3053  -21.2446 O   0  0  0  0  0  0  0  0  0  0  0  0
   -7.3971   -1.3880  -21.2025 N   0  0  0  0  0  0  0  0  0  0  0  0
   -6.6029   -0.8119  -20.1740 C   0  0  0  0  0  0  0  0  0  0  0  0
   -6.9111   -1.0422  -18.8573 C   0  0  0  0  0  0  0  0  0  0  0  0
   -6.2100   -0.5466  -17.8080 N   0  0  0  0  0  0  0  0  0  0  0  0
   -5.1701    0.2069  -18.0755 C   0  0  0  0  0  0  0  0  0  0  0  0
   -4.7330    0.5306  -19.3915 C   0  0  0  0  0  0  0  0  0  0  0  0
   -3.6079    1.3669  -19.6357 C   0  0  0  0  0  0  0  0  0  0  0  0
   -3.2270    1.6620  -20.9163 C   0  0  0  0  0  0  0  0  0  0  0  0
   -3.9493    1.1344  -22.0098 C   0  0  0  0  0  0  0  0  0  0  0  0
   -5.0388    0.3234  -21.7994 C   0  0  0  0  0  0  0  0  0  0  0  0
   -5.4664    0.0035  -20.4817 C   0  0  0  0  0  0  0  0  0  0  0  0
   -5.5931   -0.0667  -22.6480 H   0  0  0  0  0  0  0  0  0  0  0  0
   -3.6469    1.3739  -23.0232 H   0  0  0  0  0  0  0  0  0  0  0  0
   -2.3664    2.3001  -21.0995 H   0  0  0  0  0  0  0  0  0  0  0  0
   -3.0691    1.7707  -18.7832 H   0  0  0  0  0  0  0  0  0  0  0  0
   -4.6196    0.6102  -17.2253 H   0  0  0  0  0  0  0  0  0  0  0  0
   -7.7622   -1.6692  -18.6031 H   0  0  0  0  0  0  0  0  0  0  0  0
   -7.0409   -2.5907  -21.9271 C   0  0  0  0  0  0  0  0  0  0  0  0
   -8.2813   -2.8727  -22.7950 C   0  0  2  0  0  0  0  0  0  0  0  0
   -7.9193   -3.6310  -24.0901 C   0  0  0  0  0  0  0  0  0  0  0  0
   -7.3796   -4.9393  -23.8090 N   0  0  0  0  0  0  0  0  0  0  0  0
   -6.0577   -5.2836  -23.8101 C   0  0  0  0  0  0  0  0  0  0  0  0
   -4.7994   -4.2310  -24.4224 S   0  0  0  0  0  0  0  0  0  0  0  0
   -3.6491   -5.4722  -23.9964 C   0  0  0  0  0  0  0  0  0  0  0  0
   -4.1457   -6.5414  -23.4691 N   0  0  0  0  0  0  0  0  0  0  0  0
   -5.5218   -6.4591  -23.3631 C   0  0  0  0  0  0  0  0  0  0  0  0
   -6.3053   -7.6039  -22.7839 C   0  0  0  0  0  0  0  0  0  0  0  0
   -7.0268   -8.0119  -23.5048 H   0  0  0  0  0  0  0  0  0  0  0  0
   -6.8646   -7.3000  -21.8884 H   0  0  0  0  0  0  0  0  0  0  0  0
   -5.6180   -8.4059  -22.4999 H   0  0  0  0  0  0  0  0  0  0  0  0
   -2.5922   -5.3164  -24.1807 H   0  0  0  0  0  0  0  0  0  0  0  0
   -8.0148   -5.6565  -23.4947 H   0  0  0  0  0  0  0  0  0  0  0  0
   -8.8156   -3.7753  -24.7030 H   0  0  0  0  0  0  0  0  0  0  0  0
   -7.1788   -3.0698  -24.6773 H   0  0  0  0  0  0  0  0  0  0  0  0
   -8.9547   -3.5206  -22.2232 H   0  0  0  0  0  0  0  0  0  0  0  0
   -6.1483   -2.4351  -22.5512 H   0  0  0  0  0  0  0  0  0  0  0  0
   -6.8137   -3.4139  -21.2397 H   0  0  0  0  0  0  0  0  0  0  0  0
  -10.5292   -1.5591  -22.8869 C   0  0  0  0  0  0  0  0  0  0  0  0
  -11.1431   -2.4320  -21.9918 C   0  0  0  0  0  0  0  0  0  0  0  0
  -12.5140   -2.4494  -21.8463 C   0  0  0  0  0  0  0  0  0  0  0  0
  -13.1414   -3.4622  -20.5781 Cl  0  0  0  0  0  0  0  0  0  0  0  0
  -13.3391   -1.6265  -22.6168 C   0  0  0  0  0  0  0  0  0  0  0  0
  -12.7329   -0.7079  -23.4547 C   0  0  0  0  0  0  0  0  0  0  0  0
  -11.3424   -0.6391  -23.5578 C   0  0  0  0  0  0  0  0  0  0  0  0
  -10.7290    0.5050  -24.3058 C   0  0  0  0  0  0  0  0  0  0  0  0
  -11.4055    1.4165  -24.7565 O   0  0  0  0  0  0  0  0  0  0  0  0
  -13.3078    0.0166  -24.0197 H   0  0  0  0  0  0  0  0  0  0  0  0
  -14.4200   -1.6777  -22.5378 H   0  0  0  0  0  0  0  0  0  0  0  0
  -10.5684   -3.0789  -21.3424 H   0  0  0  0  0  0  0  0  0  0  0  0
   -7.5639   -0.5258  -24.2332 H   0  0  0  0  0  0  0  0  0  0  0  0
   -8.8374   -1.4391  -25.1083 H   0  0  0  0  0  0  0  0  0  0  0  0
   -8.0025    1.3774  -25.7382 H   0  0  0  0  0  0  0  0  0  0  0  0
   -9.3977    2.3485  -25.1929 H   0  0  0  0  0  0  0  0  0  0  0  0
   -9.2540    2.8513  -22.6761 H   0  0  0  0  0  0  0  0  0  0  0  0
   -6.7872    2.5382  -21.3802 H   0  0  0  0  0  0  0  0  0  0  0  0
   -6.7062    4.1617  -22.1053 H   0  0  0  0  0  0  0  0  0  0  0  0
   -8.0046    3.7978  -20.9532 H   0  0  0  0  0  0  0  0  0  0  0  0
  1  2  1  0
  2  3  1  0
  3  4  2  0
  3  5  1  0
  5  6  1  0
  6  7  1  0
  8  7  1  6
  8  9  1  0
  9 10  2  0
  9 11  1  0
 11 12  1  0
 12 13  2  0
 13 14  1  0
 14 15  2  0
 15 16  1  0
 16 17  2  0
 17 18  1  0
 18 19  2  0
 19 20  1  0
 20 21  2  0
 20 22  1  0
 19 23  1  0
 18 24  1  0
 17 25  1  0
 15 26  1  0
 13 27  1  0
 11 28  1  0
 28 29  1  0
 29 30  1  0
 30 31  1  0
 31 32  1  0
 32 33  1  0
 33 34  1  0
 34 35  2  0
 35 36  1  0
 36 37  1  0
 37 38  1  0
 37 39  1  0
 37 40  1  0
 34 41  1  0
 31 42  1  0
 30 43  1  0
 30 44  1  0
 29 45  1  1
 28 46  1  0
 28 47  1  0
  8 48  1  0
 48 49  2  0
 49 50  1  0
 50 51  1  0
 50 52  2  0
 52 53  1  0
 53 54  2  0
 54 55  1  0
 55 56  2  0
 53 57  1  0
 52 58  1  0
 49 59  1  0
  7 60  1  0
  7 61  1  0
  5 62  1  0
  5 63  1  0
  2 64  1  0
  1 65  1  0
  1 66  1  0
  1 67  1  0
 55  6  1  0
 29  8  1  0
 36 32  2  0
 54 48  1  0
 21 12  1  0
 21 16  1  0
M  END
>  <cnnaffinities>  (41) 
[6.7208, 6.81634]

>  <score>  (41) 
6.7208

>  <index>  (41) 
43

>  <Smiles>  (41) 
C(N(C(=O)C(N1C([C@@]2(C(=O)N(c3c(nc(c4c(c(c(c(c34)[H])[H])[H])[H])[H])[H])C([C@@]2(C(N(c2sc(nc2C([H])([H])[H])[H])[H])([H])[H])[H])([H])[H])c2c(c(Cl)c(c(c2C1=O)[H])[H])[H])([H])[H])([H])[H])[H])([H])([H])[H]

>  <h>  (41) 
<NA>

>  <Training>  (41) 
True

>  <Success>  (41) 
True

>  <enamine_searched>  (41) 
False

>  <enamine_id>  (41) 
nan

$$$$

     RDKit          3D

 60 64  0  0  0  0  0  0  0  0999 V2000
   -7.2172    3.1901  -22.0529 C   0  0  0  0  0  0  0  0  0  0  0  0
   -8.2012    2.5470  -22.8978 N   0  0  0  0  0  0  0  0  0  0  0  0
   -7.8539    1.9029  -24.0367 C   0  0  0  0  0  0  0  0  0  0  0  0
   -6.6958    1.7612  -24.4152 O   0  0  0  0  0  0  0  0  0  0  0  0
   -9.0435    1.4240  -24.8627 C   0  0  0  0  0  0  0  0  0  0  0  0
   -9.7356    0.2973  -24.2790 N   0  0  0  0  0  0  0  0  0  0  0  0
   -9.0179   -0.9445  -24.1144 C   0  0  0  0  0  0  0  0  0  0  0  0
   -9.3755   -1.6225  -22.7751 C   0  0  2  0  0  0  0  0  0  0  0  0
   -8.8253   -0.7807  -21.5840 C   0  0  0  0  0  0  0  0  0  0  0  0
   -9.3481    0.1841  -21.0622 O   0  0  0  0  0  0  0  0  0  0  0  0
   -7.6150   -1.3184  -21.2050 N   0  0  0  0  0  0  0  0  0  0  0  0
   -6.7973   -0.7657  -20.1812 C   0  0  0  0  0  0  0  0  0  0  0  0
   -7.0866   -1.0207  -18.8633 C   0  0  0  0  0  0  0  0  0  0  0  0
   -6.3518   -0.5747  -17.8138 N   0  0  0  0  0  0  0  0  0  0  0  0
   -5.2905    0.1507  -18.0748 C   0  0  0  0  0  0  0  0  0  0  0  0
   -4.8600    0.4816  -19.3914 C   0  0  0  0  0  0  0  0  0  0  0  0
   -3.7120    1.2869  -19.6299 C   0  0  0  0  0  0  0  0  0  0  0  0
   -3.3306    1.5966  -20.9075 C   0  0  0  0  0  0  0  0  0  0  0  0
   -4.0718    1.1058  -22.0050 C   0  0  0  0  0  0  0  0  0  0  0  0
   -5.1845    0.3211  -21.8005 C   0  0  0  0  0  0  0  0  0  0  0  0
   -5.6212   -0.0045  -20.4869 C   0  0  0  0  0  0  0  0  0  0  0  0
   -5.7666   -0.0026  -22.6578 H   0  0  0  0  0  0  0  0  0  0  0  0
   -3.7763    1.3641  -23.0176 H   0  0  0  0  0  0  0  0  0  0  0  0
   -2.4558    2.2175  -21.0874 H   0  0  0  0  0  0  0  0  0  0  0  0
   -3.1485    1.6589  -18.7776 H   0  0  0  0  0  0  0  0  0  0  0  0
   -4.7032    0.5133  -17.2258 H   0  0  0  0  0  0  0  0  0  0  0  0
   -7.9512   -1.6302  -18.6089 H   0  0  0  0  0  0  0  0  0  0  0  0
   -7.2535   -2.4990  -21.9616 C   0  0  0  0  0  0  0  0  0  0  0  0
   -8.5756   -2.9501  -22.6100 C   0  0  2  0  0  0  0  0  0  0  0  0
   -8.3011   -3.7871  -23.8738 C   0  0  0  0  0  0  0  0  0  0  0  0
   -7.4600   -4.8938  -23.6130 O   0  0  0  0  0  0  0  0  0  0  0  0
   -8.1484   -6.0812  -23.3279 C   0  0  0  0  0  0  0  0  0  0  0  0
   -8.7589   -6.4162  -24.1813 H   0  0  0  0  0  0  0  0  0  0  0  0
   -8.7968   -5.9637  -22.4508 H   0  0  0  0  0  0  0  0  0  0  0  0
   -7.3986   -6.8478  -23.1185 H   0  0  0  0  0  0  0  0  0  0  0  0
   -7.7506   -3.1774  -24.6012 H   0  0  0  0  0  0  0  0  0  0  0  0
   -9.2423   -4.1087  -24.3513 H   0  0  0  0  0  0  0  0  0  0  0  0
   -9.1171   -3.5815  -21.8967 H   0  0  0  0  0  0  0  0  0  0  0  0
   -6.5156   -2.2539  -22.7406 H   0  0  0  0  0  0  0  0  0  0  0  0
   -6.8115   -3.2594  -21.3159 H   0  0  0  0  0  0  0  0  0  0  0  0
  -10.8850   -1.7029  -22.7030 C   0  0  0  0  0  0  0  0  0  0  0  0
  -11.5015   -2.5912  -21.8257 C   0  0  0  0  0  0  0  0  0  0  0  0
  -12.8621   -2.5198  -21.6068 C   0  0  0  0  0  0  0  0  0  0  0  0
  -13.4908   -3.3548  -20.2247 Cl  0  0  0  0  0  0  0  0  0  0  0  0
  -13.6961   -1.6956  -22.3672 C   0  0  0  0  0  0  0  0  0  0  0  0
  -13.0983   -0.8518  -23.2855 C   0  0  0  0  0  0  0  0  0  0  0  0
  -11.7044   -0.7987  -23.3941 C   0  0  0  0  0  0  0  0  0  0  0  0
  -11.1042    0.3012  -24.2150 C   0  0  0  0  0  0  0  0  0  0  0  0
  -11.7918    1.1485  -24.7639 O   0  0  0  0  0  0  0  0  0  0  0  0
  -13.6825   -0.1777  -23.9055 H   0  0  0  0  0  0  0  0  0  0  0  0
  -14.7764   -1.7210  -22.2248 H   0  0  0  0  0  0  0  0  0  0  0  0
  -10.9338   -3.3146  -21.2605 H   0  0  0  0  0  0  0  0  0  0  0  0
   -7.9500   -0.7246  -24.1676 H   0  0  0  0  0  0  0  0  0  0  0  0
   -9.2637   -1.6320  -24.9356 H   0  0  0  0  0  0  0  0  0  0  0  0
   -9.7882    2.2167  -24.9187 H   0  0  0  0  0  0  0  0  0  0  0  0
   -8.6700    1.2209  -25.8695 H   0  0  0  0  0  0  0  0  0  0  0  0
   -9.1309    2.4015  -22.5332 H   0  0  0  0  0  0  0  0  0  0  0  0
   -7.7193    3.9430  -21.4416 H   0  0  0  0  0  0  0  0  0  0  0  0
   -6.4688    3.6877  -22.6757 H   0  0  0  0  0  0  0  0  0  0  0  0
   -6.7063    2.4611  -21.4119 H   0  0  0  0  0  0  0  0  0  0  0  0
  1  2  1  0
  2  3  1  0
  3  4  2  0
  3  5  1  0
  5  6  1  0
  6  7  1  0
  8  7  1  6
  8  9  1  0
  9 10  2  0
  9 11  1  0
 11 12  1  0
 12 13  2  0
 13 14  1  0
 14 15  2  0
 15 16  1  0
 16 17  2  0
 17 18  1  0
 18 19  2  0
 19 20  1  0
 20 21  2  0
 20 22  1  0
 19 23  1  0
 18 24  1  0
 17 25  1  0
 15 26  1  0
 13 27  1  0
 11 28  1  0
 28 29  1  0
 29 30  1  0
 30 31  1  0
 31 32  1  0
 32 33  1  0
 32 34  1  0
 32 35  1  0
 30 36  1  0
 30 37  1  0
 29 38  1  1
 28 39  1  0
 28 40  1  0
  8 41  1  0
 41 42  2  0
 42 43  1  0
 43 44  1  0
 43 45  2  0
 45 46  1  0
 46 47  2  0
 47 48  1  0
 48 49  2  0
 46 50  1  0
 45 51  1  0
 42 52  1  0
  7 53  1  0
  7 54  1  0
  5 55  1  0
  5 56  1  0
  2 57  1  0
  1 58  1  0
  1 59  1  0
  1 60  1  0
 48  6  1  0
 29  8  1  0
 47 41  1  0
 21 12  1  0
 21 16  1  0
M  END
>  <cnnaffinities>  (42) 
[6.28968, 6.13343, 5.95145, 5.91919]

>  <score>  (42) 
6.28968

>  <index>  (42) 
44

>  <Smiles>  (42) 
C(N(C(=O)C(N1C([C@@]2(C(=O)N(c3c(nc(c4c(c(c(c(c34)[H])[H])[H])[H])[H])[H])C([C@@]2(C(OC([H])([H])[H])([H])[H])[H])([H])[H])c2c(c(Cl)c(c(c2C1=O)[H])[H])[H])([H])[H])([H])[H])[H])([H])([H])[H]

>  <h>  (42) 
<NA>

>  <Training>  (42) 
True

>  <Success>  (42) 
True

>  <enamine_searched>  (42) 
False

>  <enamine_id>  (42) 
nan

$$$$

     RDKit          3D

 66 71  0  0  0  0  0  0  0  0999 V2000
   -7.4404    3.3387  -21.7313 C   0  0  0  0  0  0  0  0  0  0  0  0
   -8.3390    2.8974  -22.7795 N   0  0  0  0  0  0  0  0  0  0  0  0
   -7.7874    2.2133  -23.8086 C   0  0  0  0  0  0  0  0  0  0  0  0
   -6.5745    2.1137  -23.9432 O   0  0  0  0  0  0  0  0  0  0  0  0
   -8.7371    1.5900  -24.8284 C   0  0  0  0  0  0  0  0  0  0  0  0
   -9.4437    0.4274  -24.3374 N   0  0  0  0  0  0  0  0  0  0  0  0
   -8.7026   -0.8109  -24.1977 C   0  0  0  0  0  0  0  0  0  0  0  0
   -9.0651   -1.5377  -22.8844 C   0  0  2  0  0  0  0  0  0  0  0  0
   -8.5268   -0.7510  -21.6607 C   0  0  0  0  0  0  0  0  0  0  0  0
   -8.9994    0.2551  -21.1637 O   0  0  0  0  0  0  0  0  0  0  0  0
   -7.3961   -1.3838  -21.1996 N   0  0  0  0  0  0  0  0  0  0  0  0
   -6.6022   -0.8136  -20.1702 C   0  0  0  0  0  0  0  0  0  0  0  0
   -6.9126   -1.0435  -18.8540 C   0  0  0  0  0  0  0  0  0  0  0  0
   -6.2121   -0.5464  -17.8040 N   0  0  0  0  0  0  0  0  0  0  0  0
   -5.1727    0.2064  -18.0743 C   0  0  0  0  0  0  0  0  0  0  0  0
   -4.7353    0.5300  -19.3908 C   0  0  0  0  0  0  0  0  0  0  0  0
   -3.6117    1.3681  -19.6365 C   0  0  0  0  0  0  0  0  0  0  0  0
   -3.2327    1.6650  -20.9162 C   0  0  0  0  0  0  0  0  0  0  0  0
   -3.9560    1.1397  -22.0112 C   0  0  0  0  0  0  0  0  0  0  0  0
   -5.0437    0.3266  -21.8004 C   0  0  0  0  0  0  0  0  0  0  0  0
   -5.4674    0.0020  -20.4822 C   0  0  0  0  0  0  0  0  0  0  0  0
   -5.6004   -0.0583  -22.6497 H   0  0  0  0  0  0  0  0  0  0  0  0
   -3.6543    1.3826  -23.0239 H   0  0  0  0  0  0  0  0  0  0  0  0
   -2.3738    2.3053  -21.0990 H   0  0  0  0  0  0  0  0  0  0  0  0
   -3.0719    1.7700  -18.7827 H   0  0  0  0  0  0  0  0  0  0  0  0
   -4.6183    0.6089  -17.2252 H   0  0  0  0  0  0  0  0  0  0  0  0
   -7.7660   -1.6682  -18.6016 H   0  0  0  0  0  0  0  0  0  0  0  0
   -7.0481   -2.5849  -21.9335 C   0  0  0  0  0  0  0  0  0  0  0  0
   -8.3154   -2.8991  -22.7476 C   0  0  2  0  0  0  0  0  0  0  0  0
   -8.0206   -3.6759  -24.0480 C   0  0  0  0  0  0  0  0  0  0  0  0
   -7.4641   -5.0598  -23.7881 C   0  0  0  0  0  0  0  0  0  0  0  0
   -6.0872   -5.3047  -23.7771 C   0  0  0  0  0  0  0  0  0  0  0  0
   -5.5861   -6.5746  -23.4967 C   0  0  0  0  0  0  0  0  0  0  0  0
   -6.4589   -7.6246  -23.2227 C   0  0  0  0  0  0  0  0  0  0  0  0
   -7.8321   -7.3988  -23.2457 C   0  0  0  0  0  0  0  0  0  0  0  0
   -8.3274   -6.1246  -23.5157 C   0  0  0  0  0  0  0  0  0  0  0  0
   -9.4021   -5.9394  -23.5142 H   0  0  0  0  0  0  0  0  0  0  0  0
   -8.5147   -8.2245  -23.0514 H   0  0  0  0  0  0  0  0  0  0  0  0
   -6.0735   -8.6163  -22.9922 H   0  0  0  0  0  0  0  0  0  0  0  0
   -4.5118   -6.7501  -23.4945 H   0  0  0  0  0  0  0  0  0  0  0  0
   -5.3979   -4.4884  -23.9918 H   0  0  0  0  0  0  0  0  0  0  0  0
   -8.9464   -3.7585  -24.6359 H   0  0  0  0  0  0  0  0  0  0  0  0
   -7.3057   -3.1054  -24.6558 H   0  0  0  0  0  0  0  0  0  0  0  0
   -8.9559   -3.5402  -22.1363 H   0  0  0  0  0  0  0  0  0  0  0  0
   -6.7806   -3.4004  -21.2509 H   0  0  0  0  0  0  0  0  0  0  0  0
   -6.1840   -2.4118  -22.5942 H   0  0  0  0  0  0  0  0  0  0  0  0
  -10.5761   -1.6184  -22.8114 C   0  0  0  0  0  0  0  0  0  0  0  0
  -11.1690   -2.5206  -21.9286 C   0  0  0  0  0  0  0  0  0  0  0  0
  -12.5382   -2.5445  -21.7654 C   0  0  0  0  0  0  0  0  0  0  0  0
  -13.1686   -3.5629  -20.5026 Cl  0  0  0  0  0  0  0  0  0  0  0  0
  -13.3735   -1.7158  -22.5179 C   0  0  0  0  0  0  0  0  0  0  0  0
  -12.7917   -0.7835  -23.3568 C   0  0  0  0  0  0  0  0  0  0  0  0
  -11.4033   -0.7012  -23.4715 C   0  0  0  0  0  0  0  0  0  0  0  0
  -10.8111    0.4504  -24.2259 C   0  0  0  0  0  0  0  0  0  0  0  0
  -11.5003    1.3583  -24.6694 O   0  0  0  0  0  0  0  0  0  0  0  0
  -13.3855   -0.0629  -23.9096 H   0  0  0  0  0  0  0  0  0  0  0  0
  -14.4510   -1.7823  -22.4212 H   0  0  0  0  0  0  0  0  0  0  0  0
  -10.5698   -3.1839  -21.3176 H   0  0  0  0  0  0  0  0  0  0  0  0
   -7.6364   -0.5579  -24.2006 H   0  0  0  0  0  0  0  0  0  0  0  0
   -8.9235   -1.4854  -25.0403 H   0  0  0  0  0  0  0  0  0  0  0  0
   -8.1135    1.3311  -25.6940 H   0  0  0  0  0  0  0  0  0  0  0  0
   -9.5140    2.2944  -25.1169 H   0  0  0  0  0  0  0  0  0  0  0  0
   -9.3251    2.7917  -22.5949 H   0  0  0  0  0  0  0  0  0  0  0  0
   -8.0113    3.7320  -20.8950 H   0  0  0  0  0  0  0  0  0  0  0  0
   -6.7747    4.1187  -22.1092 H   0  0  0  0  0  0  0  0  0  0  0  0
   -6.8201    2.4964  -21.4025 H   0  0  0  0  0  0  0  0  0  0  0  0
  1  2  1  0
  2  3  1  0
  3  4  2  0
  3  5  1  0
  5  6  1  0
  6  7  1  0
  8  7  1  6
  8  9  1  0
  9 10  2  0
  9 11  1  0
 11 12  1  0
 12 13  2  0
 13 14  1  0
 14 15  2  0
 15 16  1  0
 16 17  2  0
 17 18  1  0
 18 19  2  0
 19 20  1  0
 20 21  2  0
 20 22  1  0
 19 23  1  0
 18 24  1  0
 17 25  1  0
 15 26  1  0
 13 27  1  0
 11 28  1  0
 28 29  1  0
 29 30  1  0
 30 31  1  0
 31 32  2  0
 32 33  1  0
 33 34  2  0
 34 35  1  0
 35 36  2  0
 36 37  1  0
 35 38  1  0
 34 39  1  0
 33 40  1  0
 32 41  1  0
 30 42  1  0
 30 43  1  0
 29 44  1  1
 28 45  1  0
 28 46  1  0
  8 47  1  0
 47 48  2  0
 48 49  1  0
 49 50  1  0
 49 51  2  0
 51 52  1  0
 52 53  2  0
 53 54  1  0
 54 55  2  0
 52 56  1  0
 51 57  1  0
 48 58  1  0
  7 59  1  0
  7 60  1  0
  5 61  1  0
  5 62  1  0
  2 63  1  0
  1 64  1  0
  1 65  1  0
  1 66  1  0
 54  6  1  0
 29  8  1  0
 36 31  1  0
 53 47  1  0
 21 12  1  0
 21 16  1  0
M  END
>  <cnnaffinities>  (43) 
[6.43535, 6.40744, 6.21238]

>  <score>  (43) 
6.43535

>  <index>  (43) 
45

>  <Smiles>  (43) 
C(N(C(=O)C(N1C([C@@]2(C(=O)N(c3c(nc(c4c(c(c(c(c34)[H])[H])[H])[H])[H])[H])C([C@@]2(C(c2c(c(c(c(c2[H])[H])[H])[H])[H])([H])[H])[H])([H])[H])c2c(c(Cl)c(c(c2C1=O)[H])[H])[H])([H])[H])([H])[H])[H])([H])([H])[H]

>  <h>  (43) 
<NA>

>  <Training>  (43) 
True

>  <Success>  (43) 
True

>  <enamine_searched>  (43) 
False

>  <enamine_id>  (43) 
nan

$$$$

     RDKit          3D

 50 54  0  0  0  0  0  0  0  0999 V2000
  -10.4126   -1.1616  -23.2595 C   0  0  0  0  0  0  0  0  0  0  0  0
   -8.9753   -1.5219  -22.9313 C   0  0  1  0  0  0  0  0  0  0  0  0
   -8.3511   -0.5657  -21.9090 C   0  0  0  0  0  0  0  0  0  0  0  0
   -7.3627   -1.3808  -21.2278 N   0  0  0  0  0  0  0  0  0  0  0  0
   -6.5745   -0.8592  -20.1754 C   0  0  0  0  0  0  0  0  0  0  0  0
   -6.8963   -1.0926  -18.8621 C   0  0  0  0  0  0  0  0  0  0  0  0
   -6.2259   -0.5601  -17.8075 N   0  0  0  0  0  0  0  0  0  0  0  0
   -5.1968    0.2087  -18.0713 C   0  0  0  0  0  0  0  0  0  0  0  0
   -4.7520    0.5194  -19.3887 C   0  0  0  0  0  0  0  0  0  0  0  0
   -3.6278    1.3494  -19.6286 C   0  0  0  0  0  0  0  0  0  0  0  0
   -3.2357    1.6265  -20.9085 C   0  0  0  0  0  0  0  0  0  0  0  0
   -3.9387    1.0850  -22.0082 C   0  0  0  0  0  0  0  0  0  0  0  0
   -5.0253    0.2715  -21.8046 C   0  0  0  0  0  0  0  0  0  0  0  0
   -5.4605   -0.0210  -20.4835 C   0  0  0  0  0  0  0  0  0  0  0  0
   -5.5546   -0.1595  -22.6488 H   0  0  0  0  0  0  0  0  0  0  0  0
   -3.6073    1.3101  -23.0176 H   0  0  0  0  0  0  0  0  0  0  0  0
   -2.3724    2.2590  -21.0940 H   0  0  0  0  0  0  0  0  0  0  0  0
   -3.0947    1.7587  -18.7759 H   0  0  0  0  0  0  0  0  0  0  0  0
   -4.6518    0.6342  -17.2251 H   0  0  0  0  0  0  0  0  0  0  0  0
   -7.7376   -1.7345  -18.6092 H   0  0  0  0  0  0  0  0  0  0  0  0
   -7.6021   -2.7355  -21.3488 C   0  0  0  0  0  0  0  0  0  0  0  0
   -6.9680   -3.5902  -20.7688 O   0  0  0  0  0  0  0  0  0  0  0  0
   -8.7833   -2.9460  -22.3126 C   0  0  1  0  0  0  0  0  0  0  0  0
   -9.9936   -3.4000  -21.4747 C   0  0  0  0  0  0  0  0  0  0  0  0
  -11.1115   -3.8514  -22.2790 N   0  0  0  0  0  0  0  0  0  0  0  0
  -12.4835   -3.5419  -21.9342 C   0  0  0  0  0  0  0  0  0  0  0  0
  -13.0755   -2.5107  -22.8086 C   0  0  0  0  0  0  0  0  0  0  0  0
  -13.5273   -1.7083  -23.5090 N   0  0  0  0  0  0  0  0  0  0  0  0
  -12.5585   -3.2043  -20.8985 H   0  0  0  0  0  0  0  0  0  0  0  0
  -13.0595   -4.4610  -22.0456 H   0  0  0  0  0  0  0  0  0  0  0  0
  -10.9401   -4.6213  -23.3950 C   0  0  0  0  0  0  0  0  0  0  0  0
  -11.8863   -5.0699  -24.0240 O   0  0  0  0  0  0  0  0  0  0  0  0
   -9.5277   -4.8379  -23.8161 C   0  0  0  0  0  0  0  0  0  0  0  0
   -9.2784   -5.8121  -24.7790 C   0  0  0  0  0  0  0  0  0  0  0  0
   -8.0234   -5.9433  -25.3388 C   0  0  0  0  0  0  0  0  0  0  0  0
   -7.0286   -5.0781  -24.9028 C   0  0  0  0  0  0  0  0  0  0  0  0
   -5.8286   -5.1347  -25.4991 F   0  0  0  0  0  0  0  0  0  0  0  0
   -7.2343   -4.1371  -23.9140 C   0  0  0  0  0  0  0  0  0  0  0  0
   -8.5028   -4.0132  -23.3446 C   0  0  0  0  0  0  0  0  0  0  0  0
   -6.4245   -3.4883  -23.6033 H   0  0  0  0  0  0  0  0  0  0  0  0
   -7.8070   -6.6572  -26.1263 H   0  0  0  0  0  0  0  0  0  0  0  0
  -10.0938   -6.4569  -25.0831 H   0  0  0  0  0  0  0  0  0  0  0  0
   -9.6591   -4.2026  -20.8234 H   0  0  0  0  0  0  0  0  0  0  0  0
  -10.3215   -2.5663  -20.8558 H   0  0  0  0  0  0  0  0  0  0  0  0
   -9.1108   -0.2052  -21.1980 H   0  0  0  0  0  0  0  0  0  0  0  0
   -7.8905    0.3079  -22.3797 H   0  0  0  0  0  0  0  0  0  0  0  0
   -8.3809   -1.4987  -23.8544 H   0  0  0  0  0  0  0  0  0  0  0  0
  -10.4945   -0.1876  -23.7449 H   0  0  0  0  0  0  0  0  0  0  0  0
  -11.0067   -1.1238  -22.3414 H   0  0  0  0  0  0  0  0  0  0  0  0
  -10.8542   -1.9163  -23.9131 H   0  0  0  0  0  0  0  0  0  0  0  0
  1  2  1  0
  2  3  1  0
  3  4  1  0
  4  5  1  0
  5  6  2  0
  6  7  1  0
  7  8  2  0
  8  9  1  0
  9 10  2  0
 10 11  1  0
 11 12  2  0
 12 13  1  0
 13 14  2  0
 13 15  1  0
 12 16  1  0
 11 17  1  0
 10 18  1  0
  8 19  1  0
  6 20  1  0
  4 21  1  0
 21 22  2  0
 21 23  1  0
 23 24  1  1
 24 25  1  0
 25 26  1  0
 26 27  1  0
 27 28  3  0
 26 29  1  0
 26 30  1  0
 25 31  1  0
 31 32  2  0
 31 33  1  0
 33 34  2  0
 34 35  1  0
 35 36  2  0
 36 37  1  0
 36 38  1  0
 38 39  2  0
 38 40  1  0
 35 41  1  0
 34 42  1  0
 24 43  1  0
 24 44  1  0
  3 45  1  0
  3 46  1  0
  2 47  1  6
  1 48  1  0
  1 49  1  0
  1 50  1  0
 23  2  1  0
 39 33  1  0
 14  5  1  0
 39 23  1  0
 14  9  1  0
M  END
>  <cnnaffinities>  (44) 
[6.27401]

>  <score>  (44) 
6.27401

>  <index>  (44) 
46

>  <Smiles>  (44) 
C([C@]1(C(N(c2c(nc(c3c(c(c(c(c23)[H])[H])[H])[H])[H])[H])C(=O)[C@]21C(N(C(C#N)([H])[H])C(=O)c1c(c(c(F)c(c21)[H])[H])[H])([H])[H])([H])[H])[H])([H])([H])[H]

>  <h>  (44) 
<NA>

>  <Training>  (44) 
True

>  <Success>  (44) 
True

>  <enamine_searched>  (44) 
False

>  <enamine_id>  (44) 
nan

$$$$

     RDKit          3D

 58 63  0  0  0  0  0  0  0  0999 V2000
   -8.7066    0.5790  -21.2922 O   0  0  0  0  0  0  0  0  0  0  0  0
   -8.4017   -0.4247  -21.9103 C   0  0  0  0  0  0  0  0  0  0  0  0
   -7.4173   -1.4333  -21.2742 C   0  0  0  0  0  0  0  0  0  0  0  0
   -6.5771   -0.8290  -20.1749 C   0  0  0  0  0  0  0  0  0  0  0  0
   -6.8779   -1.0376  -18.8565 C   0  0  0  0  0  0  0  0  0  0  0  0
   -6.1928   -0.5313  -17.7918 N   0  0  0  0  0  0  0  0  0  0  0  0
   -5.1562    0.2213  -18.0637 C   0  0  0  0  0  0  0  0  0  0  0  0
   -4.7215    0.5358  -19.3803 C   0  0  0  0  0  0  0  0  0  0  0  0
   -3.5970    1.3664  -19.6228 C   0  0  0  0  0  0  0  0  0  0  0  0
   -3.2128    1.6589  -20.8982 C   0  0  0  0  0  0  0  0  0  0  0  0
   -3.9404    1.1274  -21.9910 C   0  0  0  0  0  0  0  0  0  0  0  0
   -5.0292    0.3200  -21.7928 C   0  0  0  0  0  0  0  0  0  0  0  0
   -5.4523    0.0011  -20.4737 C   0  0  0  0  0  0  0  0  0  0  0  0
   -5.5754   -0.0676  -22.6539 H   0  0  0  0  0  0  0  0  0  0  0  0
   -3.6164    1.3643  -22.9994 H   0  0  0  0  0  0  0  0  0  0  0  0
   -2.3486    2.2913  -21.0916 H   0  0  0  0  0  0  0  0  0  0  0  0
   -3.0518    1.7733  -18.7728 H   0  0  0  0  0  0  0  0  0  0  0  0
   -4.5988    0.6282  -17.2159 H   0  0  0  0  0  0  0  0  0  0  0  0
   -7.7304   -1.6613  -18.5852 H   0  0  0  0  0  0  0  0  0  0  0  0
   -8.0363   -2.2332  -20.8456 H   0  0  0  0  0  0  0  0  0  0  0  0
   -6.7769   -1.9113  -22.0194 H   0  0  0  0  0  0  0  0  0  0  0  0
   -8.9708   -0.7189  -23.1423 N   0  0  0  0  0  0  0  0  0  0  0  0
   -8.4431   -1.7200  -24.0595 C   0  0  0  0  0  0  0  0  0  0  0  0
   -7.0944   -1.3552  -24.6513 C   0  0  0  0  0  0  0  0  0  0  0  0
   -6.8806   -0.1015  -25.2223 C   0  0  0  0  0  0  0  0  0  0  0  0
   -5.6407    0.2363  -25.7448 C   0  0  0  0  0  0  0  0  0  0  0  0
   -4.5852   -0.6673  -25.7143 C   0  0  0  0  0  0  0  0  0  0  0  0
   -4.8108   -1.9232  -25.1643 C   0  0  0  0  0  0  0  0  0  0  0  0
   -3.5204   -3.0889  -25.1214 Cl  0  0  0  0  0  0  0  0  0  0  0  0
   -6.0491   -2.2750  -24.6415 C   0  0  0  0  0  0  0  0  0  0  0  0
   -6.1881   -3.2691  -24.2205 H   0  0  0  0  0  0  0  0  0  0  0  0
   -3.6107   -0.4033  -26.1104 H   0  0  0  0  0  0  0  0  0  0  0  0
   -5.4909    1.2204  -26.1780 H   0  0  0  0  0  0  0  0  0  0  0  0
   -7.6811    0.6294  -25.2697 H   0  0  0  0  0  0  0  0  0  0  0  0
   -8.3794   -2.6781  -23.5379 H   0  0  0  0  0  0  0  0  0  0  0  0
   -9.1708   -1.8658  -24.8595 H   0  0  0  0  0  0  0  0  0  0  0  0
  -10.1523    0.0258  -23.5073 C   0  0  2  0  0  0  0  0  0  0  0  0
  -11.4321   -0.2453  -22.6945 C   0  0  0  0  0  0  0  0  0  0  0  0
  -12.3796    0.7268  -23.3729 N   0  0  1  0  0  4  0  0  0  0  0  0
  -13.0900    1.6759  -22.4909 C   0  0  0  0  0  0  0  0  0  0  0  0
  -13.0164    3.1616  -22.7106 C   0  0  0  0  0  0  0  0  0  0  0  0
  -14.2702    2.4107  -23.0436 C   0  0  0  0  0  0  0  0  0  0  0  0
  -14.4885    2.2305  -24.0906 H   0  0  0  0  0  0  0  0  0  0  0  0
  -15.1369    2.5398  -22.4072 H   0  0  0  0  0  0  0  0  0  0  0  0
  -12.4552    3.5510  -23.5503 H   0  0  0  0  0  0  0  0  0  0  0  0
  -13.0358    3.8277  -21.8569 H   0  0  0  0  0  0  0  0  0  0  0  0
  -13.1714    1.3326  -21.4671 H   0  0  0  0  0  0  0  0  0  0  0  0
  -11.4285    1.2933  -24.4086 C   0  0  2  0  0  0  0  0  0  0  0  0
  -10.7501    0.0346  -24.9290 C   0  0  0  0  0  0  0  0  0  0  0  0
  -11.4221   -0.7884  -25.1960 H   0  0  0  0  0  0  0  0  0  0  0  0
  -10.0381    0.2427  -25.7254 H   0  0  0  0  0  0  0  0  0  0  0  0
  -10.1830    1.5739  -23.5780 C   0  0  0  0  0  0  0  0  0  0  0  0
  -10.3372    2.0857  -22.6251 H   0  0  0  0  0  0  0  0  0  0  0  0
   -9.3620    2.0068  -24.1449 H   0  0  0  0  0  0  0  0  0  0  0  0
  -11.8688    2.0162  -25.0639 H   0  0  0  0  0  0  0  0  0  0  0  0
  -13.1334    0.1985  -23.8445 H   0  0  0  0  0  0  0  0  0  0  0  0
  -11.3191    0.0313  -21.6510 H   0  0  0  0  0  0  0  0  0  0  0  0
  -11.8145   -1.2637  -22.7867 H   0  0  0  0  0  0  0  0  0  0  0  0
  1  2  2  0
  2  3  1  0
  3  4  1  0
  4  5  2  0
  5  6  1  0
  6  7  2  0
  7  8  1  0
  8  9  2  0
  9 10  1  0
 10 11  2  0
 11 12  1  0
 12 13  2  0
 12 14  1  0
 11 15  1  0
 10 16  1  0
  9 17  1  0
  7 18  1  0
  5 19  1  0
  3 20  1  0
  3 21  1  0
  2 22  1  0
 22 23  1  0
 23 24  1  0
 24 25  2  0
 25 26  1  0
 26 27  2  0
 27 28  1  0
 28 29  1  0
 28 30  2  0
 30 31  1  0
 27 32  1  0
 26 33  1  0
 25 34  1  0
 23 35  1  0
 23 36  1  0
 37 22  1  6
 37 38  1  0
 38 39  1  0
 39 40  1  0
 40 41  1  0
 41 42  1  0
 42 43  1  0
 42 44  1  0
 41 45  1  0
 41 46  1  0
 40 47  1  0
 39 48  1  0
 48 49  1  0
 49 50  1  0
 49 51  1  0
 48 52  1  0
 52 53  1  0
 52 54  1  0
 48 55  1  6
 39 56  1  6
 38 57  1  0
 38 58  1  0
 13  4  1  0
 30 24  1  0
 49 37  1  0
 13  8  1  0
 52 37  1  0
 42 40  1  0
M  CHG  1  39   1
M  END
>  <cnnaffinities>  (45) 
[5.68561, 5.78649]

>  <score>  (45) 
5.68561

>  <index>  (45) 
47

>  <Smiles>  (45) 
O=C(C(c1c(nc(c2c(c(c(c(c12)[H])[H])[H])[H])[H])[H])([H])[H])N(C(c1c(c(c(c(Cl)c1[H])[H])[H])[H])([H])[H])[C@]12C([N@@+](C3(C(C3([H])[H])([H])[H])[H])([C@](C1([H])[H])(C2([H])[H])[H])[H])([H])[H]

>  <h>  (45) 
<NA>

>  <Training>  (45) 
True

>  <Success>  (45) 
True

>  <enamine_searched>  (45) 
False

>  <enamine_id>  (45) 
nan

$$$$

     RDKit          3D

 46 48  0  0  0  0  0  0  0  0999 V2000
   -8.5207   -6.7756  -25.9064 C   0  0  0  0  0  0  0  0  0  0  0  0
   -9.6167   -6.7218  -24.8472 C   0  0  0  0  0  0  0  0  0  0  0  0
  -10.9828   -6.5492  -25.5095 C   0  0  0  0  0  0  0  0  0  0  0  0
  -11.7950   -6.5148  -24.7785 H   0  0  0  0  0  0  0  0  0  0  0  0
  -11.1925   -7.3736  -26.1990 H   0  0  0  0  0  0  0  0  0  0  0  0
  -11.0360   -5.6273  -26.0962 H   0  0  0  0  0  0  0  0  0  0  0  0
   -9.3611   -5.6610  -23.7461 C   0  0  0  0  0  0  0  0  0  0  0  0
   -9.2784   -4.2226  -24.2496 C   0  0  0  0  0  0  0  0  0  0  0  0
   -8.8337   -3.2505  -23.1598 C   0  0  0  0  0  0  0  0  0  0  0  0
   -7.5514   -3.6278  -22.5695 N   0  0  0  0  0  0  0  0  0  0  0  0
   -6.7695   -2.7733  -21.8324 C   0  0  0  0  0  0  0  0  0  0  0  0
   -5.5942   -3.0183  -21.6084 O   0  0  0  0  0  0  0  0  0  0  0  0
   -7.4185   -1.4853  -21.2623 C   0  0  0  0  0  0  0  0  0  0  0  0
   -6.5820   -0.8314  -20.1826 C   0  0  0  0  0  0  0  0  0  0  0  0
   -6.8739   -1.0437  -18.8590 C   0  0  0  0  0  0  0  0  0  0  0  0
   -6.1910   -0.5395  -17.7972 N   0  0  0  0  0  0  0  0  0  0  0  0
   -5.1572    0.2220  -18.0637 C   0  0  0  0  0  0  0  0  0  0  0  0
   -4.7224    0.5308  -19.3819 C   0  0  0  0  0  0  0  0  0  0  0  0
   -3.5946    1.3603  -19.6189 C   0  0  0  0  0  0  0  0  0  0  0  0
   -3.1972    1.6407  -20.8992 C   0  0  0  0  0  0  0  0  0  0  0  0
   -3.9089    1.0971  -21.9910 C   0  0  0  0  0  0  0  0  0  0  0  0
   -5.0018    0.2891  -21.7863 C   0  0  0  0  0  0  0  0  0  0  0  0
   -5.4461   -0.0120  -20.4723 C   0  0  0  0  0  0  0  0  0  0  0  0
   -5.5236   -0.1350  -22.6367 H   0  0  0  0  0  0  0  0  0  0  0  0
   -3.5730    1.3112  -23.0007 H   0  0  0  0  0  0  0  0  0  0  0  0
   -2.3289    2.2678  -21.0866 H   0  0  0  0  0  0  0  0  0  0  0  0
   -3.0526    1.7732  -18.7710 H   0  0  0  0  0  0  0  0  0  0  0  0
   -4.6010    0.6275  -17.2166 H   0  0  0  0  0  0  0  0  0  0  0  0
   -7.7198   -1.6698  -18.5838 H   0  0  0  0  0  0  0  0  0  0  0  0
   -8.4107   -1.7196  -20.8478 H   0  0  0  0  0  0  0  0  0  0  0  0
   -7.5936   -0.7634  -22.0728 H   0  0  0  0  0  0  0  0  0  0  0  0
   -7.0394   -4.9583  -22.8967 C   0  0  0  0  0  0  0  0  0  0  0  0
   -8.1514   -5.9972  -22.8464 C   0  0  0  0  0  0  0  0  0  0  0  0
   -7.7494   -6.9849  -23.0980 H   0  0  0  0  0  0  0  0  0  0  0  0
   -8.4562   -6.0651  -21.7977 H   0  0  0  0  0  0  0  0  0  0  0  0
   -6.2601   -5.2131  -22.1795 H   0  0  0  0  0  0  0  0  0  0  0  0
   -6.5627   -4.9628  -23.8827 H   0  0  0  0  0  0  0  0  0  0  0  0
   -8.7493   -2.2542  -23.6048 H   0  0  0  0  0  0  0  0  0  0  0  0
   -9.6116   -3.1760  -22.3875 H   0  0  0  0  0  0  0  0  0  0  0  0
  -10.2636   -3.9084  -24.6054 H   0  0  0  0  0  0  0  0  0  0  0  0
   -8.6136   -4.1419  -25.1099 H   0  0  0  0  0  0  0  0  0  0  0  0
  -10.2534   -5.6339  -23.1171 H   0  0  0  0  0  0  0  0  0  0  0  0
   -9.6272   -7.7004  -24.3496 H   0  0  0  0  0  0  0  0  0  0  0  0
   -7.5196   -6.8328  -25.4689 H   0  0  0  0  0  0  0  0  0  0  0  0
   -8.5445   -5.8929  -26.5521 H   0  0  0  0  0  0  0  0  0  0  0  0
   -8.6450   -7.6489  -26.5545 H   0  0  0  0  0  0  0  0  0  0  0  0
  1  2  1  0
  2  3  1  0
  3  4  1  0
  3  5  1  0
  3  6  1  0
  2  7  1  0
  7  8  1  0
  8  9  1  0
  9 10  1  0
 10 11  1  0
 11 12  2  0
 11 13  1  0
 13 14  1  0
 14 15  2  0
 15 16  1  0
 16 17  2  0
 17 18  1  0
 18 19  2  0
 19 20  1  0
 20 21  2  0
 21 22  1  0
 22 23  2  0
 22 24  1  0
 21 25  1  0
 20 26  1  0
 19 27  1  0
 17 28  1  0
 15 29  1  0
 13 30  1  0
 13 31  1  0
 10 32  1  0
 32 33  1  0
 33 34  1  0
 33 35  1  0
 32 36  1  0
 32 37  1  0
  9 38  1  0
  9 39  1  0
  8 40  1  0
  8 41  1  0
  7 42  1  0
  2 43  1  0
  1 44  1  0
  1 45  1  0
  1 46  1  0
 33  7  1  0
 23 14  1  0
 23 18  1  0
M  END
>  <cnnaffinities>  (46) 
[5.2565, 5.26308, 5.26318, 5.2635, 5.06005, 5.06001, 5.06011, 5.06226, 4.79095, 4.79071, 4.79136]

>  <score>  (46) 
5.2565

>  <index>  (46) 
48

>  <Smiles>  (46) 
C(C(C([H])([H])[H])(C1(C(C(N(C(=O)C(c2c(nc(c3c(c(c(c(c23)[H])[H])[H])[H])[H])[H])([H])[H])C(C1([H])[H])([H])[H])([H])[H])([H])[H])[H])[H])([H])([H])[H]

>  <h>  (46) 
<NA>

>  <Training>  (46) 
True

>  <Success>  (46) 
True

>  <enamine_searched>  (46) 
False

>  <enamine_id>  (46) 
nan

$$$$

     RDKit          3D

 67 72  0  0  0  0  0  0  0  0999 V2000
   -7.4089    3.3652  -21.7640 C   0  0  0  0  0  0  0  0  0  0  0  0
   -8.2744    2.9051  -22.8368 N   0  0  0  0  0  0  0  0  0  0  0  0
   -7.6976    2.2244  -23.8561 C   0  0  0  0  0  0  0  0  0  0  0  0
   -6.4814    2.1370  -23.9775 O   0  0  0  0  0  0  0  0  0  0  0  0
   -8.6433    1.5958  -24.8851 C   0  0  0  0  0  0  0  0  0  0  0  0
   -9.3685    0.4389  -24.3976 N   0  0  0  0  0  0  0  0  0  0  0  0
   -8.6421   -0.8077  -24.2448 C   0  0  0  0  0  0  0  0  0  0  0  0
   -9.0252   -1.5264  -22.9323 C   0  0  2  0  0  0  0  0  0  0  0  0
   -8.4959   -0.7371  -21.7025 C   0  0  0  0  0  0  0  0  0  0  0  0
   -8.9506    0.2859  -21.2311 O   0  0  0  0  0  0  0  0  0  0  0  0
   -7.3894   -1.3919  -21.2068 N   0  0  0  0  0  0  0  0  0  0  0  0
   -6.6002   -0.8146  -20.1750 C   0  0  0  0  0  0  0  0  0  0  0  0
   -6.9109   -1.0427  -18.8582 C   0  0  0  0  0  0  0  0  0  0  0  0
   -6.2104   -0.5461  -17.8086 N   0  0  0  0  0  0  0  0  0  0  0  0
   -5.1703    0.2069  -18.0758 C   0  0  0  0  0  0  0  0  0  0  0  0
   -4.7323    0.5302  -19.3912 C   0  0  0  0  0  0  0  0  0  0  0  0
   -3.6076    1.3671  -19.6357 C   0  0  0  0  0  0  0  0  0  0  0  0
   -3.2267    1.6626  -20.9161 C   0  0  0  0  0  0  0  0  0  0  0  0
   -3.9492    1.1356  -22.0098 C   0  0  0  0  0  0  0  0  0  0  0  0
   -5.0386    0.3251  -21.7994 C   0  0  0  0  0  0  0  0  0  0  0  0
   -5.4651    0.0032  -20.4819 C   0  0  0  0  0  0  0  0  0  0  0  0
   -5.5945   -0.0619  -22.6481 H   0  0  0  0  0  0  0  0  0  0  0  0
   -3.6467    1.3747  -23.0234 H   0  0  0  0  0  0  0  0  0  0  0  0
   -2.3662    2.3008  -21.0991 H   0  0  0  0  0  0  0  0  0  0  0  0
   -3.0692    1.7709  -18.7830 H   0  0  0  0  0  0  0  0  0  0  0  0
   -4.6202    0.6102  -17.2253 H   0  0  0  0  0  0  0  0  0  0  0  0
   -7.7620   -1.6692  -18.6022 H   0  0  0  0  0  0  0  0  0  0  0  0
   -7.0386   -2.5990  -21.9282 C   0  0  0  0  0  0  0  0  0  0  0  0
   -8.2912   -2.8957  -22.7709 C   0  0  2  0  0  0  0  0  0  0  0  0
   -7.9605   -3.6802  -24.0578 C   0  0  0  0  0  0  0  0  0  0  0  0
   -7.4525   -5.0055  -23.7827 N   0  0  0  0  0  0  0  0  0  0  0  0
   -6.1217   -5.3097  -23.6649 C   0  0  0  0  0  0  0  0  0  0  0  0
   -5.0177   -4.5874  -24.0117 C   0  0  0  0  0  0  0  0  0  0  0  0
   -3.7939   -5.1887  -23.7905 N   0  0  0  0  0  0  0  0  0  0  0  0
   -3.9345   -6.3773  -23.2936 C   0  0  0  0  0  0  0  0  0  0  0  0
   -2.7941   -7.2984  -22.9857 C   0  0  0  0  0  0  0  0  0  0  0  0
   -3.0215   -7.9312  -22.1254 H   0  0  0  0  0  0  0  0  0  0  0  0
   -2.5857   -7.9500  -23.8437 H   0  0  0  0  0  0  0  0  0  0  0  0
   -1.8987   -6.7036  -22.7918 H   0  0  0  0  0  0  0  0  0  0  0  0
   -5.6023   -6.8633  -23.0352 S   0  0  0  0  0  0  0  0  0  0  0  0
   -5.0535   -3.6008  -24.4601 H   0  0  0  0  0  0  0  0  0  0  0  0
   -8.1103   -5.7181  -23.5013 H   0  0  0  0  0  0  0  0  0  0  0  0
   -8.8665   -3.7908  -24.6650 H   0  0  0  0  0  0  0  0  0  0  0  0
   -7.2164   -3.1292  -24.6525 H   0  0  0  0  0  0  0  0  0  0  0  0
   -8.9553   -3.5304  -22.1758 H   0  0  0  0  0  0  0  0  0  0  0  0
   -6.1550   -2.4486  -22.5699 H   0  0  0  0  0  0  0  0  0  0  0  0
   -6.7903   -3.4193  -21.2459 H   0  0  0  0  0  0  0  0  0  0  0  0
  -10.5380   -1.5837  -22.8732 C   0  0  0  0  0  0  0  0  0  0  0  0
  -11.1512   -2.4592  -21.9807 C   0  0  0  0  0  0  0  0  0  0  0  0
  -12.5213   -2.4757  -21.8328 C   0  0  0  0  0  0  0  0  0  0  0  0
  -13.1451   -3.4853  -20.5605 Cl  0  0  0  0  0  0  0  0  0  0  0  0
  -13.3472   -1.6549  -22.6046 C   0  0  0  0  0  0  0  0  0  0  0  0
  -12.7417   -0.7377  -23.4442 C   0  0  0  0  0  0  0  0  0  0  0  0
  -11.3517   -0.6669  -23.5477 C   0  0  0  0  0  0  0  0  0  0  0  0
  -10.7392    0.4744  -24.3024 C   0  0  0  0  0  0  0  0  0  0  0  0
  -11.4124    1.3847  -24.7559 O   0  0  0  0  0  0  0  0  0  0  0  0
  -13.3164   -0.0148  -24.0108 H   0  0  0  0  0  0  0  0  0  0  0  0
  -14.4282   -1.7069  -22.5270 H   0  0  0  0  0  0  0  0  0  0  0  0
  -10.5766   -3.1096  -21.3341 H   0  0  0  0  0  0  0  0  0  0  0  0
   -7.5756   -0.5612  -24.2294 H   0  0  0  0  0  0  0  0  0  0  0  0
   -8.8520   -1.4795  -25.0938 H   0  0  0  0  0  0  0  0  0  0  0  0
   -9.4071    2.3035  -25.2078 H   0  0  0  0  0  0  0  0  0  0  0  0
   -8.0058    1.3302  -25.7363 H   0  0  0  0  0  0  0  0  0  0  0  0
   -9.2728    2.8167  -22.6871 H   0  0  0  0  0  0  0  0  0  0  0  0
   -6.8015    2.5255  -21.3911 H   0  0  0  0  0  0  0  0  0  0  0  0
   -6.7289    4.1452  -22.1269 H   0  0  0  0  0  0  0  0  0  0  0  0
   -8.0212    3.7844  -20.9678 H   0  0  0  0  0  0  0  0  0  0  0  0
  1  2  1  0
  2  3  1  0
  3  4  2  0
  3  5  1  0
  5  6  1  0
  6  7  1  0
  8  7  1  6
  8  9  1  0
  9 10  2  0
  9 11  1  0
 11 12  1  0
 12 13  2  0
 13 14  1  0
 14 15  2  0
 15 16  1  0
 16 17  2  0
 17 18  1  0
 18 19  2  0
 19 20  1  0
 20 21  2  0
 20 22  1  0
 19 23  1  0
 18 24  1  0
 17 25  1  0
 15 26  1  0
 13 27  1  0
 11 28  1  0
 28 29  1  0
 29 30  1  0
 30 31  1  0
 31 32  1  0
 32 33  2  0
 33 34  1  0
 34 35  2  0
 35 36  1  0
 36 37  1  0
 36 38  1  0
 36 39  1  0
 35 40  1  0
 33 41  1  0
 31 42  1  0
 30 43  1  0
 30 44  1  0
 29 45  1  1
 28 46  1  0
 28 47  1  0
  8 48  1  0
 48 49  2  0
 49 50  1  0
 50 51  1  0
 50 52  2  0
 52 53  1  0
 53 54  2  0
 54 55  1  0
 55 56  2  0
 53 57  1  0
 52 58  1  0
 49 59  1  0
  7 60  1  0
  7 61  1  0
  5 62  1  0
  5 63  1  0
  2 64  1  0
  1 65  1  0
  1 66  1  0
  1 67  1  0
 55  6  1  0
 29  8  1  0
 40 32  1  0
 54 48  1  0
 21 12  1  0
 21 16  1  0
M  END
>  <cnnaffinities>  (47) 
[6.67588]

>  <score>  (47) 
6.67588

>  <index>  (47) 
49

>  <Smiles>  (47) 
C(N(C(=O)C(N1C([C@@]2(C(=O)N(c3c(nc(c4c(c(c(c(c34)[H])[H])[H])[H])[H])[H])C([C@@]2(C(N(c2c(nc(C([H])([H])[H])s2)[H])[H])([H])[H])[H])([H])[H])c2c(c(Cl)c(c(c2C1=O)[H])[H])[H])([H])[H])([H])[H])[H])([H])([H])[H]

>  <h>  (47) 
<NA>

>  <Training>  (47) 
True

>  <Success>  (47) 
True

>  <enamine_searched>  (47) 
False

>  <enamine_id>  (47) 
nan

$$$$

     RDKit          3D

 66 70  0  0  0  0  0  0  0  0999 V2000
   -7.4443    3.3500  -21.8033 C   0  0  0  0  0  0  0  0  0  0  0  0
   -8.3512    2.8802  -22.8363 N   0  0  0  0  0  0  0  0  0  0  0  0
   -7.8295    2.1538  -23.8531 C   0  0  0  0  0  0  0  0  0  0  0  0
   -6.6201    2.0227  -24.0102 O   0  0  0  0  0  0  0  0  0  0  0  0
   -8.8322    1.5333  -24.8327 C   0  0  0  0  0  0  0  0  0  0  0  0
   -9.5339    0.3754  -24.3137 N   0  0  0  0  0  0  0  0  0  0  0  0
   -8.8058   -0.8704  -24.1770 C   0  0  0  0  0  0  0  0  0  0  0  0
   -9.1256   -1.5735  -22.8341 C   0  0  2  0  0  0  0  0  0  0  0  0
   -8.5421   -0.7514  -21.6515 C   0  0  0  0  0  0  0  0  0  0  0  0
   -8.9780    0.2811  -21.1856 O   0  0  0  0  0  0  0  0  0  0  0  0
   -7.4051   -1.3844  -21.1995 N   0  0  0  0  0  0  0  0  0  0  0  0
   -6.6076   -0.8085  -20.1716 C   0  0  0  0  0  0  0  0  0  0  0  0
   -6.9115   -1.0392  -18.8540 C   0  0  0  0  0  0  0  0  0  0  0  0
   -6.2066   -0.5449  -17.8055 N   0  0  0  0  0  0  0  0  0  0  0  0
   -5.1677    0.2077  -18.0752 C   0  0  0  0  0  0  0  0  0  0  0  0
   -4.7310    0.5298  -19.3910 C   0  0  0  0  0  0  0  0  0  0  0  0
   -3.6053    1.3642  -19.6386 C   0  0  0  0  0  0  0  0  0  0  0  0
   -3.2247    1.6575  -20.9183 C   0  0  0  0  0  0  0  0  0  0  0  0
   -3.9482    1.1286  -22.0115 C   0  0  0  0  0  0  0  0  0  0  0  0
   -5.0378    0.3180  -21.7981 C   0  0  0  0  0  0  0  0  0  0  0  0
   -5.4672    0.0019  -20.4821 C   0  0  0  0  0  0  0  0  0  0  0  0
   -5.5937   -0.0719  -22.6459 H   0  0  0  0  0  0  0  0  0  0  0  0
   -3.6425    1.3626  -23.0247 H   0  0  0  0  0  0  0  0  0  0  0  0
   -2.3629    2.2925  -21.1038 H   0  0  0  0  0  0  0  0  0  0  0  0
   -3.0654    1.7684  -18.7860 H   0  0  0  0  0  0  0  0  0  0  0  0
   -4.6171    0.6116  -17.2249 H   0  0  0  0  0  0  0  0  0  0  0  0
   -7.7599   -1.6672  -18.5938 H   0  0  0  0  0  0  0  0  0  0  0  0
   -7.0777   -2.6090  -21.9074 C   0  0  0  0  0  0  0  0  0  0  0  0
   -8.3664   -2.9311  -22.6958 C   0  0  2  0  0  0  0  0  0  0  0  0
   -8.0847   -3.6777  -23.9994 C   0  0  0  0  0  0  0  0  0  0  0  0
   -7.4666   -4.9191  -23.7072 O   0  0  0  0  0  0  0  0  0  0  0  0
   -7.3030   -5.7633  -24.8508 C   0  0  0  0  0  0  0  0  0  0  0  0
   -8.4381   -6.7864  -24.9214 C   0  0  0  0  0  0  0  0  0  0  0  0
   -8.4369   -7.4070  -24.0193 H   0  0  0  0  0  0  0  0  0  0  0  0
   -8.3140   -7.4387  -25.7947 H   0  0  0  0  0  0  0  0  0  0  0  0
   -9.4136   -6.2933  -25.0013 H   0  0  0  0  0  0  0  0  0  0  0  0
   -5.9401   -6.4430  -24.7586 C   0  0  0  0  0  0  0  0  0  0  0  0
   -5.8881   -7.0659  -23.8602 H   0  0  0  0  0  0  0  0  0  0  0  0
   -5.7717   -7.0811  -25.6346 H   0  0  0  0  0  0  0  0  0  0  0  0
   -5.1418   -5.6969  -24.7138 H   0  0  0  0  0  0  0  0  0  0  0  0
   -7.3290   -5.1351  -25.7594 H   0  0  0  0  0  0  0  0  0  0  0  0
   -9.0197   -3.8343  -24.5629 H   0  0  0  0  0  0  0  0  0  0  0  0
   -7.4137   -3.0844  -24.6443 H   0  0  0  0  0  0  0  0  0  0  0  0
   -8.9774   -3.5959  -22.0827 H   0  0  0  0  0  0  0  0  0  0  0  0
   -6.8065   -3.4002  -21.2011 H   0  0  0  0  0  0  0  0  0  0  0  0
   -6.2178   -2.4636  -22.5795 H   0  0  0  0  0  0  0  0  0  0  0  0
  -10.6370   -1.6368  -22.7090 C   0  0  0  0  0  0  0  0  0  0  0  0
  -11.2221   -2.5359  -21.8180 C   0  0  0  0  0  0  0  0  0  0  0  0
  -12.5892   -2.5471  -21.6477 C   0  0  0  0  0  0  0  0  0  0  0  0
  -13.0978   -3.3747  -20.7216 F   0  0  0  0  0  0  0  0  0  0  0  0
  -13.4348   -1.6948  -22.3508 C   0  0  0  0  0  0  0  0  0  0  0  0
  -12.8586   -0.7690  -23.1983 C   0  0  0  0  0  0  0  0  0  0  0  0
  -11.4724   -0.7116  -23.3547 C   0  0  0  0  0  0  0  0  0  0  0  0
  -10.8952    0.4154  -24.1557 C   0  0  0  0  0  0  0  0  0  0  0  0
  -11.5866    1.3179  -24.6007 O   0  0  0  0  0  0  0  0  0  0  0  0
  -13.4575   -0.0443  -23.7398 H   0  0  0  0  0  0  0  0  0  0  0  0
  -14.5070   -1.7430  -22.1999 H   0  0  0  0  0  0  0  0  0  0  0  0
  -10.6310   -3.2051  -21.2061 H   0  0  0  0  0  0  0  0  0  0  0  0
   -9.0506   -1.5527  -25.0084 H   0  0  0  0  0  0  0  0  0  0  0  0
   -7.7429   -0.6193  -24.2187 H   0  0  0  0  0  0  0  0  0  0  0  0
   -8.2501    1.2730  -25.7240 H   0  0  0  0  0  0  0  0  0  0  0  0
   -9.6109    2.2449  -25.1064 H   0  0  0  0  0  0  0  0  0  0  0  0
   -9.3471    2.8401  -22.6585 H   0  0  0  0  0  0  0  0  0  0  0  0
   -8.0226    3.8252  -21.0119 H   0  0  0  0  0  0  0  0  0  0  0  0
   -6.8541    2.5070  -21.4095 H   0  0  0  0  0  0  0  0  0  0  0  0
   -6.7468    4.0915  -22.2105 H   0  0  0  0  0  0  0  0  0  0  0  0
  1  2  1  0
  2  3  1  0
  3  4  2  0
  3  5  1  0
  5  6  1  0
  6  7  1  0
  8  7  1  6
  8  9  1  0
  9 10  2  0
  9 11  1  0
 11 12  1  0
 12 13  2  0
 13 14  1  0
 14 15  2  0
 15 16  1  0
 16 17  2  0
 17 18  1  0
 18 19  2  0
 19 20  1  0
 20 21  2  0
 20 22  1  0
 19 23  1  0
 18 24  1  0
 17 25  1  0
 15 26  1  0
 13 27  1  0
 11 28  1  0
 28 29  1  0
 29 30  1  0
 30 31  1  0
 31 32  1  0
 32 33  1  0
 33 34  1  0
 33 35  1  0
 33 36  1  0
 32 37  1  0
 37 38  1  0
 37 39  1  0
 37 40  1  0
 32 41  1  0
 30 42  1  0
 30 43  1  0
 29 44  1  1
 28 45  1  0
 28 46  1  0
  8 47  1  0
 47 48  2  0
 48 49  1  0
 49 50  1  0
 49 51  2  0
 51 52  1  0
 52 53  2  0
 53 54  1  0
 54 55  2  0
 52 56  1  0
 51 57  1  0
 48 58  1  0
  7 59  1  0
  7 60  1  0
  5 61  1  0
  5 62  1  0
  2 63  1  0
  1 64  1  0
  1 65  1  0
  1 66  1  0
 54  6  1  0
 29  8  1  0
 53 47  1  0
 21 12  1  0
 21 16  1  0
M  END
>  <cnnaffinities>  (48) 
[6.30394, 5.88614, 6.13038]

>  <score>  (48) 
6.30394

>  <index>  (48) 
50

>  <Smiles>  (48) 
C(N(C(=O)C(N1C([C@@]2(C(=O)N(c3c(nc(c4c(c(c(c(c34)[H])[H])[H])[H])[H])[H])C([C@@]2(C(OC(C([H])([H])[H])(C([H])([H])[H])[H])([H])[H])[H])([H])[H])c2c(c(F)c(c(c2C1=O)[H])[H])[H])([H])[H])([H])[H])[H])([H])([H])[H]

>  <h>  (48) 
<NA>

>  <Training>  (48) 
True

>  <Success>  (48) 
True

>  <enamine_searched>  (48) 
False

>  <enamine_id>  (48) 
nan

$$$$

     RDKit          3D

 50 52  0  0  0  0  0  0  0  0999 V2000
  -11.5715   -0.2555  -25.0402 C   0  0  0  0  0  0  0  0  0  0  0  0
  -10.7852   -0.0074  -23.9980 C   0  0  0  0  0  0  0  0  0  0  0  0
  -10.6933   -0.9412  -22.8043 C   0  0  0  0  0  0  0  0  0  0  0  0
   -9.3381   -1.4341  -22.5619 N   0  0  0  0  0  0  0  0  0  0  0  0
   -8.6484   -0.8455  -21.5177 C   0  0  0  0  0  0  0  0  0  0  0  0
   -9.1538    0.0258  -20.8123 O   0  0  0  0  0  0  0  0  0  0  0  0
   -7.3965   -1.3301  -21.2618 N   0  0  0  0  0  0  0  0  0  0  0  0
   -6.6165   -0.8047  -20.2020 C   0  0  0  0  0  0  0  0  0  0  0  0
   -6.9419   -1.0476  -18.8881 C   0  0  0  0  0  0  0  0  0  0  0  0
   -6.2436   -0.5661  -17.8319 N   0  0  0  0  0  0  0  0  0  0  0  0
   -5.2055    0.1930  -18.0938 C   0  0  0  0  0  0  0  0  0  0  0  0
   -4.7608    0.5234  -19.4066 C   0  0  0  0  0  0  0  0  0  0  0  0
   -3.6422    1.3645  -19.6446 C   0  0  0  0  0  0  0  0  0  0  0  0
   -3.2647    1.6703  -20.9251 C   0  0  0  0  0  0  0  0  0  0  0  0
   -3.9791    1.1542  -22.0286 C   0  0  0  0  0  0  0  0  0  0  0  0
   -5.0701    0.3410  -21.8253 C   0  0  0  0  0  0  0  0  0  0  0  0
   -5.4796    0.0004  -20.5055 C   0  0  0  0  0  0  0  0  0  0  0  0
   -5.6281   -0.0363  -22.6802 H   0  0  0  0  0  0  0  0  0  0  0  0
   -3.6604    1.4013  -23.0381 H   0  0  0  0  0  0  0  0  0  0  0  0
   -2.4038    2.3085  -21.1036 H   0  0  0  0  0  0  0  0  0  0  0  0
   -3.1028    1.7584  -18.7878 H   0  0  0  0  0  0  0  0  0  0  0  0
   -4.6483    0.5907  -17.2452 H   0  0  0  0  0  0  0  0  0  0  0  0
   -7.8037   -1.6701  -18.6571 H   0  0  0  0  0  0  0  0  0  0  0  0
   -6.9728   -1.9461  -21.9397 H   0  0  0  0  0  0  0  0  0  0  0  0
   -8.7408   -2.2130  -23.6072 C   0  0  0  0  0  0  0  0  0  0  0  0
   -9.1756   -3.5145  -23.8597 C   0  0  0  0  0  0  0  0  0  0  0  0
   -8.5799   -4.2479  -24.8808 C   0  0  0  0  0  0  0  0  0  0  0  0
   -7.5879   -3.6922  -25.6798 C   0  0  0  0  0  0  0  0  0  0  0  0
   -7.2016   -2.3817  -25.4435 C   0  0  0  0  0  0  0  0  0  0  0  0
   -5.9696   -1.6614  -26.4352 Cl  0  0  0  0  0  0  0  0  0  0  0  0
   -7.7692   -1.6330  -24.4224 C   0  0  0  0  0  0  0  0  0  0  0  0
   -7.4863   -0.5926  -24.2749 H   0  0  0  0  0  0  0  0  0  0  0  0
   -7.1162   -4.2634  -26.4712 H   0  0  0  0  0  0  0  0  0  0  0  0
   -8.9052   -5.2665  -25.0636 H   0  0  0  0  0  0  0  0  0  0  0  0
   -9.9786   -3.9463  -23.2616 H   0  0  0  0  0  0  0  0  0  0  0  0
  -11.3421   -1.8016  -22.9900 H   0  0  0  0  0  0  0  0  0  0  0  0
  -11.0217   -0.4554  -21.8827 H   0  0  0  0  0  0  0  0  0  0  0  0
   -9.8526    1.1649  -24.1245 C   0  0  0  0  0  0  0  0  0  0  0  0
   -9.4854    1.5627  -25.2273 O   0  0  0  0  0  0  0  0  0  0  0  0
   -9.4023    1.7621  -22.9938 N   0  0  0  0  0  0  0  0  0  0  0  0
   -8.1648    2.5151  -23.1196 C   0  0  0  0  0  0  0  0  0  0  0  0
   -7.5300    2.7766  -21.7682 C   0  0  0  0  0  0  0  0  0  0  0  0
   -7.5521    1.8611  -21.1694 H   0  0  0  0  0  0  0  0  0  0  0  0
   -6.4890    3.0879  -21.8684 H   0  0  0  0  0  0  0  0  0  0  0  0
   -8.0444    3.5533  -21.2042 H   0  0  0  0  0  0  0  0  0  0  0  0
   -7.4520    1.9296  -23.7113 H   0  0  0  0  0  0  0  0  0  0  0  0
   -8.3714    3.4225  -23.6944 H   0  0  0  0  0  0  0  0  0  0  0  0
   -9.5952    1.3668  -22.0831 H   0  0  0  0  0  0  0  0  0  0  0  0
  -11.5741    0.4004  -25.9068 H   0  0  0  0  0  0  0  0  0  0  0  0
  -12.2412   -1.1107  -25.0406 H   0  0  0  0  0  0  0  0  0  0  0  0
  1  2  2  0
  2  3  1  0
  3  4  1  0
  4  5  1  0
  5  6  2  0
  5  7  1  0
  7  8  1  0
  8  9  2  0
  9 10  1  0
 10 11  2  0
 11 12  1  0
 12 13  2  0
 13 14  1  0
 14 15  2  0
 15 16  1  0
 16 17  2  0
 16 18  1  0
 15 19  1  0
 14 20  1  0
 13 21  1  0
 11 22  1  0
  9 23  1  0
  7 24  1  0
  4 25  1  0
 25 26  2  0
 26 27  1  0
 27 28  2  0
 28 29  1  0
 29 30  1  0
 29 31  2  0
 31 32  1  0
 28 33  1  0
 27 34  1  0
 26 35  1  0
  3 36  1  0
  3 37  1  0
  2 38  1  0
 38 39  2  0
 38 40  1  0
 40 41  1  0
 41 42  1  0
 42 43  1  0
 42 44  1  0
 42 45  1  0
 41 46  1  0
 41 47  1  0
 40 48  1  0
  1 49  1  0
  1 50  1  0
 17  8  1  0
 31 25  1  0
 17 12  1  0
M  END
>  <cnnaffinities>  (49) 
[6.03844]

>  <score>  (49) 
6.03844

>  <index>  (49) 
51

>  <Smiles>  (49) 
C(=C(C(N(C(=O)N(c1c(nc(c2c(c(c(c(c12)[H])[H])[H])[H])[H])[H])[H])c1c(c(c(c(Cl)c1[H])[H])[H])[H])([H])[H])C(=O)N(C(C([H])([H])[H])([H])[H])[H])([H])[H]

>  <h>  (49) 
<NA>

>  <Training>  (49) 
True

>  <Success>  (49) 
True

>  <enamine_searched>  (49) 
False

>  <enamine_id>  (49) 
nan

$$$$

     RDKit          3D

 57 60  0  0  0  0  0  0  0  0999 V2000
   -2.3324   -1.1805  -28.0582 C   0  0  0  0  0  0  0  0  0  0  0  0
   -3.4105   -0.1246  -27.8144 C   0  0  0  0  0  0  0  0  0  0  0  0
   -4.3362   -0.5203  -26.6653 C   0  0  0  0  0  0  0  0  0  0  0  0
   -4.0833   -0.2063  -25.5153 O   0  0  0  0  0  0  0  0  0  0  0  0
   -5.4439   -1.2817  -26.9799 N   0  0  0  0  0  0  0  0  0  0  0  0
   -6.4868   -1.6032  -26.0700 C   0  0  0  0  0  0  0  0  0  0  0  0
   -7.1297   -2.8449  -26.1553 C   0  0  0  0  0  0  0  0  0  0  0  0
   -8.1429   -3.1528  -25.2547 C   0  0  0  0  0  0  0  0  0  0  0  0
   -8.5455   -2.2510  -24.2761 C   0  0  0  0  0  0  0  0  0  0  0  0
   -7.9106   -1.0068  -24.2017 C   0  0  0  0  0  0  0  0  0  0  0  0
   -8.2909   -0.0479  -23.2066 N   0  0  0  0  0  0  0  0  0  0  0  0
   -8.9395    1.1934  -23.6556 C   0  0  0  0  0  0  0  0  0  0  0  0
  -10.3866    1.0184  -24.0580 C   0  0  0  0  0  0  0  0  0  0  0  0
  -10.7023    0.5192  -25.3175 C   0  0  0  0  0  0  0  0  0  0  0  0
  -12.0209    0.2713  -25.6664 C   0  0  0  0  0  0  0  0  0  0  0  0
  -13.0559    0.5480  -24.7775 C   0  0  0  0  0  0  0  0  0  0  0  0
  -12.7504    1.0580  -23.5206 C   0  0  0  0  0  0  0  0  0  0  0  0
  -11.4249    1.2911  -23.1670 C   0  0  0  0  0  0  0  0  0  0  0  0
  -11.1850    1.6621  -22.1766 H   0  0  0  0  0  0  0  0  0  0  0  0
  -13.5461    1.2663  -22.8096 H   0  0  0  0  0  0  0  0  0  0  0  0
  -14.0912    0.3660  -25.0519 H   0  0  0  0  0  0  0  0  0  0  0  0
  -12.1942   -0.1749  -26.6345 H   0  0  0  0  0  0  0  0  0  0  0  0
   -9.9168    0.2930  -26.0345 H   0  0  0  0  0  0  0  0  0  0  0  0
   -8.8578    1.9327  -22.8547 H   0  0  0  0  0  0  0  0  0  0  0  0
   -8.3672    1.5597  -24.5138 H   0  0  0  0  0  0  0  0  0  0  0  0
   -8.3821   -0.3534  -21.8510 C   0  0  0  0  0  0  0  0  0  0  0  0
   -9.1477    0.2423  -21.1149 O   0  0  0  0  0  0  0  0  0  0  0  0
   -7.4284   -1.4103  -21.2731 C   0  0  0  0  0  0  0  0  0  0  0  0
   -6.5681   -0.8285  -20.1710 C   0  0  0  0  0  0  0  0  0  0  0  0
   -6.8764   -1.0388  -18.8526 C   0  0  0  0  0  0  0  0  0  0  0  0
   -6.1933   -0.5312  -17.7899 N   0  0  0  0  0  0  0  0  0  0  0  0
   -5.1554    0.2211  -18.0633 C   0  0  0  0  0  0  0  0  0  0  0  0
   -4.7187    0.5346  -19.3772 C   0  0  0  0  0  0  0  0  0  0  0  0
   -3.5989    1.3685  -19.6213 C   0  0  0  0  0  0  0  0  0  0  0  0
   -3.2154    1.6631  -20.9002 C   0  0  0  0  0  0  0  0  0  0  0  0
   -3.9353    1.1304  -21.9961 C   0  0  0  0  0  0  0  0  0  0  0  0
   -5.0209    0.3147  -21.7910 C   0  0  0  0  0  0  0  0  0  0  0  0
   -5.4453   -0.0035  -20.4738 C   0  0  0  0  0  0  0  0  0  0  0  0
   -5.5605   -0.0818  -22.6530 H   0  0  0  0  0  0  0  0  0  0  0  0
   -3.6171    1.3527  -23.0098 H   0  0  0  0  0  0  0  0  0  0  0  0
   -2.3512    2.2987  -21.0864 H   0  0  0  0  0  0  0  0  0  0  0  0
   -3.0552    1.7764  -18.7699 H   0  0  0  0  0  0  0  0  0  0  0  0
   -4.6003    0.6275  -17.2142 H   0  0  0  0  0  0  0  0  0  0  0  0
   -7.7296   -1.6608  -18.5829 H   0  0  0  0  0  0  0  0  0  0  0  0
   -8.0529   -2.2052  -20.8451 H   0  0  0  0  0  0  0  0  0  0  0  0
   -6.8135   -1.8652  -22.0575 H   0  0  0  0  0  0  0  0  0  0  0  0
   -6.9100   -0.6782  -25.1150 C   0  0  0  0  0  0  0  0  0  0  0  0
   -6.4422    0.2969  -25.0716 H   0  0  0  0  0  0  0  0  0  0  0  0
   -9.3469   -2.5027  -23.5798 H   0  0  0  0  0  0  0  0  0  0  0  0
   -8.6316   -4.1206  -25.3078 H   0  0  0  0  0  0  0  0  0  0  0  0
   -6.8370   -3.5809  -26.9021 H   0  0  0  0  0  0  0  0  0  0  0  0
   -5.4820   -1.7236  -27.8858 H   0  0  0  0  0  0  0  0  0  0  0  0
   -2.9321    0.8089  -27.5088 H   0  0  0  0  0  0  0  0  0  0  0  0
   -3.9632    0.0822  -28.7405 H   0  0  0  0  0  0  0  0  0  0  0  0
   -2.7835   -2.1310  -28.3570 H   0  0  0  0  0  0  0  0  0  0  0  0
   -1.6407   -0.8720  -28.8508 H   0  0  0  0  0  0  0  0  0  0  0  0
   -1.7405   -1.3575  -27.1540 H   0  0  0  0  0  0  0  0  0  0  0  0
  1  2  1  0
  2  3  1  0
  3  4  2  0
  3  5  1  0
  5  6  1  0
  6  7  2  0
  7  8  1  0
  8  9  2  0
  9 10  1  0
 10 11  1  0
 11 12  1  0
 12 13  1  0
 13 14  2  0
 14 15  1  0
 15 16  2  0
 16 17  1  0
 17 18  2  0
 18 19  1  0
 17 20  1  0
 16 21  1  0
 15 22  1  0
 14 23  1  0
 12 24  1  0
 12 25  1  0
 11 26  1  0
 26 27  2  0
 26 28  1  0
 28 29  1  0
 29 30  2  0
 30 31  1  0
 31 32  2  0
 32 33  1  0
 33 34  2  0
 34 35  1  0
 35 36  2  0
 36 37  1  0
 37 38  2  0
 37 39  1  0
 36 40  1  0
 35 41  1  0
 34 42  1  0
 32 43  1  0
 30 44  1  0
 28 45  1  0
 28 46  1  0
 10 47  2  0
 47 48  1  0
  9 49  1  0
  8 50  1  0
  7 51  1  0
  5 52  1  0
  2 53  1  0
  2 54  1  0
  1 55  1  0
  1 56  1  0
  1 57  1  0
 47  6  1  0
 18 13  1  0
 38 29  1  0
 38 33  1  0
M  END
>  <cnnaffinities>  (50) 
[5.59334, 5.79135, 5.79313, 5.52746, 5.53178, 5.59328, 5.48387, 5.48077, 5.7714, 5.77131, 5.70259, 5.6934]

>  <score>  (50) 
5.59334

>  <index>  (50) 
52

>  <Smiles>  (50) 
C(C(C(=O)N(c1c(c(c(c(N(C(c2c(c(c(c(c2[H])[H])[H])[H])[H])([H])[H])C(=O)C(c2c(nc(c3c(c(c(c(c23)[H])[H])[H])[H])[H])[H])([H])[H])c1[H])[H])[H])[H])[H])([H])[H])([H])([H])[H]

>  <h>  (50) 
<NA>

>  <Training>  (50) 
True

>  <Success>  (50) 
True

>  <enamine_searched>  (50) 
False

>  <enamine_id>  (50) 
nan

$$$$

     RDKit          3D

 59 63  0  0  0  0  0  0  0  0999 V2000
   -7.6482    3.4990  -21.9388 C   0  0  0  0  0  0  0  0  0  0  0  0
   -7.4893    3.6939  -22.1246 C   0  0  0  0  0  0  0  0  0  0  0  0
   -8.2316    3.0582  -23.1972 N   0  0  0  0  0  0  0  0  0  0  0  0
   -7.5582    2.3199  -24.0445 C   0  0  0  0  0  0  0  0  0  0  0  0
   -6.3385    2.1563  -24.0155 O   0  0  0  0  0  0  0  0  0  0  0  0
   -8.4518    1.6451  -25.0900 C   0  0  0  0  0  0  0  0  0  0  0  0
   -9.1863    0.5334  -24.4996 N   0  0  0  0  0  0  0  0  0  0  0  0
   -8.4875   -0.7228  -24.2919 C   0  0  0  0  0  0  0  0  0  0  0  0
   -8.9283   -1.4603  -22.9983 C   0  0  2  0  0  0  0  0  0  0  0  0
   -8.4462   -0.7141  -21.7412 C   0  0  0  0  0  0  0  0  0  0  0  0
   -8.9292    0.3036  -21.2817 O   0  0  0  0  0  0  0  0  0  0  0  0
   -7.3944   -1.3936  -21.1886 N   0  0  0  0  0  0  0  0  0  0  0  0
   -6.6247   -0.8073  -20.1526 C   0  0  0  0  0  0  0  0  0  0  0  0
   -6.9634   -1.0187  -18.8423 C   0  0  0  0  0  0  0  0  0  0  0  0
   -6.2672   -0.5305  -17.7851 N   0  0  0  0  0  0  0  0  0  0  0  0
   -5.2116    0.2028  -18.0466 C   0  0  0  0  0  0  0  0  0  0  0  0
   -4.7673    0.5291  -19.3612 C   0  0  0  0  0  0  0  0  0  0  0  0
   -3.6336    1.3502  -19.6012 C   0  0  0  0  0  0  0  0  0  0  0  0
   -3.2517    1.6519  -20.8794 C   0  0  0  0  0  0  0  0  0  0  0  0
   -3.9935    1.1650  -21.9791 C   0  0  0  0  0  0  0  0  0  0  0  0
   -5.1011    0.3790  -21.7748 C   0  0  0  0  0  0  0  0  0  0  0  0
   -5.5035    0.0228  -20.4569 C   0  0  0  0  0  0  0  0  0  0  0  0
   -5.6931    0.0572  -22.6261 H   0  0  0  0  0  0  0  0  0  0  0  0
   -3.6929    1.4212  -22.9906 H   0  0  0  0  0  0  0  0  0  0  0  0
   -2.3769    2.2715  -21.0602 H   0  0  0  0  0  0  0  0  0  0  0  0
   -3.0872    1.7380  -18.7466 H   0  0  0  0  0  0  0  0  0  0  0  0
   -4.6490    0.5887  -17.1953 H   0  0  0  0  0  0  0  0  0  0  0  0
   -7.8412   -1.6166  -18.6058 H   0  0  0  0  0  0  0  0  0  0  0  0
   -7.0126   -2.5857  -21.9187 C   0  0  0  0  0  0  0  0  0  0  0  0
   -8.2240   -2.8392  -22.8419 C   0  0  2  0  0  0  0  0  0  0  0  0
   -7.8705   -3.5707  -24.1354 C   0  0  0  0  0  0  0  0  0  0  0  0
   -7.1150   -3.0207  -24.7093 H   0  0  0  0  0  0  0  0  0  0  0  0
   -7.4682   -4.5680  -23.9271 H   0  0  0  0  0  0  0  0  0  0  0  0
   -8.7558   -3.6927  -24.7718 H   0  0  0  0  0  0  0  0  0  0  0  0
   -8.9149   -3.4743  -22.2834 H   0  0  0  0  0  0  0  0  0  0  0  0
   -6.8379   -3.4164  -21.2261 H   0  0  0  0  0  0  0  0  0  0  0  0
   -6.0865   -2.4259  -22.4923 H   0  0  0  0  0  0  0  0  0  0  0  0
  -10.4378   -1.4729  -22.9289 C   0  0  0  0  0  0  0  0  0  0  0  0
  -11.0870   -2.3278  -22.0350 C   0  0  0  0  0  0  0  0  0  0  0  0
  -12.4593   -2.2666  -21.8916 C   0  0  0  0  0  0  0  0  0  0  0  0
  -13.1866   -3.1529  -20.5810 Cl  0  0  0  0  0  0  0  0  0  0  0  0
  -13.2288   -1.3925  -22.6611 C   0  0  0  0  0  0  0  0  0  0  0  0
  -12.5813   -0.4829  -23.4760 C   0  0  0  0  0  0  0  0  0  0  0  0
  -11.1876   -0.4637  -23.5443 C   0  0  0  0  0  0  0  0  0  0  0  0
  -10.4877    0.7219  -24.1460 C   0  0  0  0  0  0  0  0  0  0  0  0
  -11.0273    1.8200  -24.2701 O   0  0  0  0  0  0  0  0  0  0  0  0
  -13.1391    0.2582  -24.0366 H   0  0  0  0  0  0  0  0  0  0  0  0
  -14.3075   -1.3897  -22.5555 H   0  0  0  0  0  0  0  0  0  0  0  0
  -10.5372   -3.0056  -21.3922 H   0  0  0  0  0  0  0  0  0  0  0  0
   -7.4181   -0.5012  -24.2376 H   0  0  0  0  0  0  0  0  0  0  0  0
   -8.6630   -1.3698  -25.1603 H   0  0  0  0  0  0  0  0  0  0  0  0
   -9.1839    2.3717  -25.4436 H   0  0  0  0  0  0  0  0  0  0  0  0
   -7.8595    1.3139  -25.9478 H   0  0  0  0  0  0  0  0  0  0  0  0
   -9.2398    2.9150  -23.2109 H   0  0  0  0  0  0  0  0  0  0  0  0
   -6.6399    4.8016  -22.8117 H   0  0  0  0  0  0  0  0  0  0  0  0
   -8.4007    4.4415  -21.8171 H   0  0  0  0  0  0  0  0  0  0  0  0
   -8.3488    2.5466  -20.9191 H   0  0  0  0  0  0  0  0  0  0  0  0
   -7.0273    4.0913  -20.9959 H   0  0  0  0  0  0  0  0  0  0  0  0
   -6.6334    2.8452  -22.0186 H   0  0  0  0  0  0  0  0  0  0  0  0
  1  2  1  0
  2  3  1  0
  3  4  1  0
  4  5  2  0
  4  6  1  0
  6  7  1  0
  7  8  1  0
  9  8  1  6
  9 10  1  0
 10 11  2  0
 10 12  1  0
 12 13  1  0
 13 14  2  0
 14 15  1  0
 15 16  2  0
 16 17  1  0
 17 18  2  0
 18 19  1  0
 19 20  2  0
 20 21  1  0
 21 22  2  0
 21 23  1  0
 20 24  1  0
 19 25  1  0
 18 26  1  0
 16 27  1  0
 14 28  1  0
 12 29  1  0
 29 30  1  0
 30 31  1  0
 31 32  1  0
 31 33  1  0
 31 34  1  0
 30 35  1  1
 29 36  1  0
 29 37  1  0
  9 38  1  0
 38 39  2  0
 39 40  1  0
 40 41  1  0
 40 42  2  0
 42 43  1  0
 43 44  2  0
 44 45  1  0
 45 46  2  0
 43 47  1  0
 42 48  1  0
 39 49  1  0
  8 50  1  0
  8 51  1  0
  6 52  1  0
  6 53  1  0
  3 54  1  0
  2 55  1  0
  2 56  1  0
  1 57  1  0
  1 58  1  0
  1 59  1  0
 45  7  1  0
 30  9  1  0
 44 38  1  0
 22 13  1  0
 22 17  1  0
M  END
>  <cnnaffinities>  (51) 
[6.05068]

>  <score>  (51) 
6.05068

>  <index>  (51) 
53

>  <Smiles>  (51) 
C(C(N(C(=O)C(N1C([C@@]2(C(=O)N(c3c(nc(c4c(c(c(c(c34)[H])[H])[H])[H])[H])[H])C([C@@]2(C([H])([H])[H])[H])([H])[H])c2c(c(Cl)c(c(c2C1=O)[H])[H])[H])([H])[H])([H])[H])[H])([H])[H])([H])([H])[H]

>  <h>  (51) 
<NA>

>  <Training>  (51) 
True

>  <Success>  (51) 
True

>  <enamine_searched>  (51) 
False

>  <enamine_id>  (51) 
nan

$$$$

     RDKit          3D

 40 43  0  0  0  0  0  0  0  0999 V2000
   -9.4278   -3.8878  -22.7472 C   0  0  0  0  0  0  0  0  0  0  0  0
   -8.6554   -2.7261  -22.3640 N   0  0  0  0  0  0  0  0  0  0  0  0
   -8.6901   -1.4702  -22.9001 C   0  0  0  0  0  0  0  0  0  0  0  0
   -9.5694   -1.0764  -24.0404 C   0  0  0  0  0  0  0  0  0  0  0  0
  -10.9916   -0.8421  -23.5818 C   0  0  0  0  0  0  0  0  0  0  0  0
  -11.2911    0.2926  -22.8321 C   0  0  0  0  0  0  0  0  0  0  0  0
  -12.5872    0.5181  -22.3857 C   0  0  0  0  0  0  0  0  0  0  0  0
  -13.5933   -0.3987  -22.6738 C   0  0  0  0  0  0  0  0  0  0  0  0
  -13.2981   -1.5482  -23.3963 C   0  0  0  0  0  0  0  0  0  0  0  0
  -12.0004   -1.7637  -23.8480 C   0  0  0  0  0  0  0  0  0  0  0  0
  -11.7661   -2.6619  -24.4120 H   0  0  0  0  0  0  0  0  0  0  0  0
  -14.0776   -2.2743  -23.6040 H   0  0  0  0  0  0  0  0  0  0  0  0
  -14.6096   -0.2238  -22.3385 H   0  0  0  0  0  0  0  0  0  0  0  0
  -12.8142    1.4090  -21.8092 H   0  0  0  0  0  0  0  0  0  0  0  0
  -10.5011    1.0037  -22.6107 H   0  0  0  0  0  0  0  0  0  0  0  0
   -9.1372   -0.1653  -24.4658 H   0  0  0  0  0  0  0  0  0  0  0  0
   -9.5448   -1.8379  -24.8265 H   0  0  0  0  0  0  0  0  0  0  0  0
   -7.9542   -0.6317  -22.2335 N   0  0  0  0  0  0  0  0  0  0  0  0
   -7.4246   -1.3591  -21.2071 N   0  0  0  0  0  0  0  0  0  0  0  0
   -6.6110   -0.8044  -20.1892 C   0  0  0  0  0  0  0  0  0  0  0  0
   -6.9010   -1.0478  -18.8683 C   0  0  0  0  0  0  0  0  0  0  0  0
   -6.2053   -0.5385  -17.8228 N   0  0  0  0  0  0  0  0  0  0  0  0
   -5.1687    0.2176  -18.0862 C   0  0  0  0  0  0  0  0  0  0  0  0
   -4.7315    0.5243  -19.3991 C   0  0  0  0  0  0  0  0  0  0  0  0
   -3.6005    1.3538  -19.6255 C   0  0  0  0  0  0  0  0  0  0  0  0
   -3.1948    1.6318  -20.9017 C   0  0  0  0  0  0  0  0  0  0  0  0
   -3.8947    1.0759  -21.9974 C   0  0  0  0  0  0  0  0  0  0  0  0
   -4.9844    0.2627  -21.8058 C   0  0  0  0  0  0  0  0  0  0  0  0
   -5.4598   -0.0118  -20.4977 C   0  0  0  0  0  0  0  0  0  0  0  0
   -5.5299   -0.1585  -22.6424 H   0  0  0  0  0  0  0  0  0  0  0  0
   -3.5539    1.2840  -23.0060 H   0  0  0  0  0  0  0  0  0  0  0  0
   -2.3249    2.2578  -21.0897 H   0  0  0  0  0  0  0  0  0  0  0  0
   -3.0659    1.7671  -18.7716 H   0  0  0  0  0  0  0  0  0  0  0  0
   -4.6151    0.6178  -17.2295 H   0  0  0  0  0  0  0  0  0  0  0  0
   -7.7377   -1.6778  -18.5860 H   0  0  0  0  0  0  0  0  0  0  0  0
   -7.7926   -2.6883  -21.2686 C   0  0  0  0  0  0  0  0  0  0  0  0
   -7.3786   -3.5905  -20.5744 O   0  0  0  0  0  0  0  0  0  0  0  0
   -9.4821   -4.0017  -23.8327 H   0  0  0  0  0  0  0  0  0  0  0  0
  -10.4452   -3.8748  -22.3461 H   0  0  0  0  0  0  0  0  0  0  0  0
   -8.9290   -4.7643  -22.3478 H   0  0  0  0  0  0  0  0  0  0  0  0
  1  2  1  0
  2  3  1  0
  3  4  1  0
  4  5  1  0
  5  6  2  0
  6  7  1  0
  7  8  2  0
  8  9  1  0
  9 10  2  0
 10 11  1  0
  9 12  1  0
  8 13  1  0
  7 14  1  0
  6 15  1  0
  4 16  1  0
  4 17  1  0
  3 18  2  0
 18 19  1  0
 19 20  1  0
 20 21  2  0
 21 22  1  0
 22 23  2  0
 23 24  1  0
 24 25  2  0
 25 26  1  0
 26 27  2  0
 27 28  1  0
 28 29  2  0
 28 30  1  0
 27 31  1  0
 26 32  1  0
 25 33  1  0
 23 34  1  0
 21 35  1  0
 19 36  1  0
 36 37  2  0
  1 38  1  0
  1 39  1  0
  1 40  1  0
 36  2  1  0
 10  5  1  0
 29 20  1  0
 29 24  1  0
M  END
>  <cnnaffinities>  (52) 
[5.09307, 5.09949, 4.69875, 4.6973]

>  <score>  (52) 
5.09307

>  <index>  (52) 
54

>  <Smiles>  (52) 
C(n1c(C(c2c(c(c(c(c2[H])[H])[H])[H])[H])([H])[H])nn(c2c(nc(c3c(c(c(c(c23)[H])[H])[H])[H])[H])[H])c1=O)([H])([H])[H]

>  <h>  (52) 
<NA>

>  <Training>  (52) 
True

>  <Success>  (52) 
True

>  <enamine_searched>  (52) 
False

>  <enamine_id>  (52) 
nan

$$$$

     RDKit          3D

 61 66  0  0  0  0  0  0  0  0999 V2000
   -7.0055   -5.4642  -25.0493 C   0  0  0  0  0  0  0  0  0  0  0  0
   -7.3277   -4.8021  -23.8534 O   0  0  0  0  0  0  0  0  0  0  0  0
   -7.9842   -3.5814  -24.0792 C   0  0  0  0  0  0  0  0  0  0  0  0
   -8.2846   -2.9256  -22.7346 C   0  0  1  0  0  0  0  0  0  0  0  0
   -7.0048   -2.5610  -21.9562 C   0  0  0  0  0  0  0  0  0  0  0  0
   -7.3888   -1.3821  -21.2028 N   0  0  0  0  0  0  0  0  0  0  0  0
   -6.6047   -0.8100  -20.1727 C   0  0  0  0  0  0  0  0  0  0  0  0
   -6.9236   -1.0405  -18.8589 C   0  0  0  0  0  0  0  0  0  0  0  0
   -6.2257   -0.5467  -17.8067 N   0  0  0  0  0  0  0  0  0  0  0  0
   -5.1895    0.2111  -18.0763 C   0  0  0  0  0  0  0  0  0  0  0  0
   -4.7564    0.5392  -19.3930 C   0  0  0  0  0  0  0  0  0  0  0  0
   -3.6357    1.3779  -19.6326 C   0  0  0  0  0  0  0  0  0  0  0  0
   -3.2547    1.6758  -20.9118 C   0  0  0  0  0  0  0  0  0  0  0  0
   -3.9561    1.1351  -22.0103 C   0  0  0  0  0  0  0  0  0  0  0  0
   -5.0298    0.3009  -21.8038 C   0  0  0  0  0  0  0  0  0  0  0  0
   -5.4697   -0.0018  -20.4855 C   0  0  0  0  0  0  0  0  0  0  0  0
   -5.5880   -0.0743  -22.6558 H   0  0  0  0  0  0  0  0  0  0  0  0
   -3.6374    1.3925  -23.0175 H   0  0  0  0  0  0  0  0  0  0  0  0
   -2.3967    2.3162  -21.0928 H   0  0  0  0  0  0  0  0  0  0  0  0
   -3.0902    1.7678  -18.7798 H   0  0  0  0  0  0  0  0  0  0  0  0
   -4.6229    0.6060  -17.2312 H   0  0  0  0  0  0  0  0  0  0  0  0
   -7.7850   -1.6591  -18.6168 H   0  0  0  0  0  0  0  0  0  0  0  0
   -8.5868   -0.8220  -21.5839 C   0  0  0  0  0  0  0  0  0  0  0  0
   -9.1023    0.1397  -21.0503 O   0  0  0  0  0  0  0  0  0  0  0  0
   -9.1196   -1.6162  -22.7999 C   0  0  1  0  0  0  0  0  0  0  0  0
   -8.8195   -0.8417  -24.1079 C   0  0  0  0  0  0  0  0  0  0  0  0
   -9.6153    0.3611  -24.2127 N   0  0  0  0  0  0  0  0  0  0  0  0
   -8.9879    1.5975  -24.6372 C   0  0  0  0  0  0  0  0  0  0  0  0
   -8.1911    2.2626  -23.5634 C   0  0  0  0  0  0  0  0  0  0  0  0
   -6.8518    2.3781  -23.3957 C   0  0  0  0  0  0  0  0  0  0  0  0
   -6.6387    3.1131  -22.2548 N   0  0  0  0  0  4  0  0  0  0  0  0
   -7.8157    3.4581  -21.7302 C   0  0  0  0  0  0  0  0  0  0  0  0
   -8.7806    2.9518  -22.5153 N   0  0  0  0  0  0  0  0  0  0  0  0
   -9.7630    2.9009  -22.2443 H   0  0  0  0  0  0  0  0  0  0  0  0
   -7.9531    4.1051  -20.8758 H   0  0  0  0  0  0  0  0  0  0  0  0
   -5.7318    3.1771  -21.8087 H   0  0  0  0  0  0  0  0  0  0  0  0
   -6.0149    1.9870  -23.9516 H   0  0  0  0  0  0  0  0  0  0  0  0
   -9.8079    2.2366  -24.9687 H   0  0  0  0  0  0  0  0  0  0  0  0
   -8.3626    1.3857  -25.5083 H   0  0  0  0  0  0  0  0  0  0  0  0
  -10.9703    0.3266  -24.0536 C   0  0  0  0  0  0  0  0  0  0  0  0
  -11.7006    1.2257  -24.4420 O   0  0  0  0  0  0  0  0  0  0  0  0
  -11.4936   -0.8613  -23.3119 C   0  0  0  0  0  0  0  0  0  0  0  0
  -12.8745   -0.9350  -23.1476 C   0  0  0  0  0  0  0  0  0  0  0  0
  -13.4135   -1.8339  -22.2560 C   0  0  0  0  0  0  0  0  0  0  0  0
  -12.5466   -2.6873  -21.5765 C   0  0  0  0  0  0  0  0  0  0  0  0
  -13.1959   -3.7095  -20.3404 Cl  0  0  0  0  0  0  0  0  0  0  0  0
  -11.1841   -2.6951  -21.8103 C   0  0  0  0  0  0  0  0  0  0  0  0
  -10.6244   -1.7682  -22.6905 C   0  0  0  0  0  0  0  0  0  0  0  0
  -10.5672   -3.4105  -21.2802 H   0  0  0  0  0  0  0  0  0  0  0  0
  -14.4742   -1.8653  -22.0371 H   0  0  0  0  0  0  0  0  0  0  0  0
  -13.4814   -0.2356  -23.7105 H   0  0  0  0  0  0  0  0  0  0  0  0
   -9.0432   -1.5007  -24.9576 H   0  0  0  0  0  0  0  0  0  0  0  0
   -7.7604   -0.5653  -24.1566 H   0  0  0  0  0  0  0  0  0  0  0  0
   -6.1646   -2.3527  -22.6343 H   0  0  0  0  0  0  0  0  0  0  0  0
   -6.6925   -3.3617  -21.2822 H   0  0  0  0  0  0  0  0  0  0  0  0
   -8.8392   -3.6585  -22.1462 H   0  0  0  0  0  0  0  0  0  0  0  0
   -8.9199   -3.7448  -24.6423 H   0  0  0  0  0  0  0  0  0  0  0  0
   -7.3461   -2.9180  -24.6898 H   0  0  0  0  0  0  0  0  0  0  0  0
   -6.5404   -6.4158  -24.7841 H   0  0  0  0  0  0  0  0  0  0  0  0
   -7.8984   -5.6680  -25.6607 H   0  0  0  0  0  0  0  0  0  0  0  0
   -6.2963   -4.8844  -25.6602 H   0  0  0  0  0  0  0  0  0  0  0  0
  1  2  1  0
  2  3  1  0
  3  4  1  0
  4  5  1  0
  5  6  1  0
  6  7  1  0
  7  8  2  0
  8  9  1  0
  9 10  2  0
 10 11  1  0
 11 12  2  0
 12 13  1  0
 13 14  2  0
 14 15  1  0
 15 16  2  0
 15 17  1  0
 14 18  1  0
 13 19  1  0
 12 20  1  0
 10 21  1  0
  8 22  1  0
  6 23  1  0
 23 24  2  0
 23 25  1  0
 25 26  1  6
 26 27  1  0
 27 28  1  0
 28 29  1  0
 29 30  2  0
 30 31  1  0
 31 32  2  0
 32 33  1  0
 33 34  1  0
 32 35  1  0
 31 36  1  0
 30 37  1  0
 28 38  1  0
 28 39  1  0
 27 40  1  0
 40 41  2  0
 40 42  1  0
 42 43  2  0
 43 44  1  0
 44 45  2  0
 45 46  1  0
 45 47  1  0
 47 48  2  0
 47 49  1  0
 44 50  1  0
 43 51  1  0
 26 52  1  0
 26 53  1  0
  5 54  1  0
  5 55  1  0
  4 56  1  1
  3 57  1  0
  3 58  1  0
  1 59  1  0
  1 60  1  0
  1 61  1  0
 25  4  1  0
 33 29  1  0
 48 42  1  0
 16  7  1  0
 48 25  1  0
 16 11  1  0
M  CHG  1  31   1
M  END
>  <cnnaffinities>  (53) 
[6.37356]

>  <score>  (53) 
6.37356

>  <index>  (53) 
55

>  <Smiles>  (53) 
C(OC([C@]1(C(N(c2c(nc(c3c(c(c(c(c23)[H])[H])[H])[H])[H])[H])C(=O)[C@]21C(N(C(c1c([n+](c(n1[H])[H])[H])[H])([H])[H])C(=O)c1c(c(c(Cl)c(c21)[H])[H])[H])([H])[H])([H])[H])[H])([H])[H])([H])([H])[H]

>  <h>  (53) 
<NA>

>  <Training>  (53) 
True

>  <Success>  (53) 
True

>  <enamine_searched>  (53) 
False

>  <enamine_id>  (53) 
nan

$$$$

     RDKit          3D

 57 62  0  0  0  0  0  0  0  0999 V2000
  -10.0334   -0.8009  -23.7009 C   0  0  0  0  0  0  0  0  0  0  0  0
   -8.7426   -1.3703  -23.1215 C   0  0  1  0  0  0  0  0  0  0  0  0
   -8.2482   -0.5274  -21.9408 C   0  0  0  0  0  0  0  0  0  0  0  0
   -7.3244   -1.4167  -21.2626 N   0  0  0  0  0  0  0  0  0  0  0  0
   -6.5537   -0.9514  -20.1725 C   0  0  0  0  0  0  0  0  0  0  0  0
   -6.8784   -1.2278  -18.8668 C   0  0  0  0  0  0  0  0  0  0  0  0
   -6.2602   -0.6615  -17.7961 N   0  0  0  0  0  0  0  0  0  0  0  0
   -5.2754    0.1738  -18.0303 C   0  0  0  0  0  0  0  0  0  0  0  0
   -4.8069    0.5095  -19.3345 C   0  0  0  0  0  0  0  0  0  0  0  0
   -3.7117    1.3881  -19.5545 C   0  0  0  0  0  0  0  0  0  0  0  0
   -3.3124    1.6829  -20.8307 C   0  0  0  0  0  0  0  0  0  0  0  0
   -3.9801    1.1223  -21.9420 C   0  0  0  0  0  0  0  0  0  0  0  0
   -5.0318    0.2636  -21.7524 C   0  0  0  0  0  0  0  0  0  0  0  0
   -5.4709   -0.0576  -20.4410 C   0  0  0  0  0  0  0  0  0  0  0  0
   -5.5319   -0.1846  -22.6029 H   0  0  0  0  0  0  0  0  0  0  0  0
   -3.6609    1.3705  -22.9497 H   0  0  0  0  0  0  0  0  0  0  0  0
   -2.4769    2.3539  -21.0036 H   0  0  0  0  0  0  0  0  0  0  0  0
   -3.2044    1.8220  -18.6965 H   0  0  0  0  0  0  0  0  0  0  0  0
   -4.7896    0.6293  -17.1655 H   0  0  0  0  0  0  0  0  0  0  0  0
   -7.6829   -1.9213  -18.6318 H   0  0  0  0  0  0  0  0  0  0  0  0
   -7.6183   -2.7466  -21.4852 C   0  0  0  0  0  0  0  0  0  0  0  0
   -7.0752   -3.6748  -20.9141 O   0  0  0  0  0  0  0  0  0  0  0  0
   -8.7214   -2.8486  -22.5681 C   0  0  1  0  0  0  0  0  0  0  0  0
  -10.0085   -3.2765  -21.8153 C   0  0  0  0  0  0  0  0  0  0  0  0
  -11.0344   -3.8910  -22.6468 N   0  0  0  0  0  0  0  0  0  0  0  0
  -12.4237   -3.7945  -22.2176 C   0  0  0  0  0  0  0  0  0  0  0  0
  -13.1251   -2.6517  -22.8900 C   0  0  0  0  0  0  0  0  0  0  0  0
  -13.7165   -2.8891  -24.0669 N   0  0  0  0  0  0  0  0  0  0  0  0
  -14.3042   -1.8449  -24.6463 C   0  0  0  0  0  0  0  0  0  0  0  0
  -14.3003   -0.5820  -24.0707 C   0  0  0  0  0  0  0  0  0  0  0  0
  -13.6762   -0.4714  -22.8404 C   0  0  0  0  0  0  0  0  0  0  0  0
  -13.0543   -1.4850  -22.2431 N   0  0  0  0  0  0  0  0  0  0  0  0
  -13.6535    0.4717  -22.2996 H   0  0  0  0  0  0  0  0  0  0  0  0
  -14.6844    0.3024  -24.5638 H   0  0  0  0  0  0  0  0  0  0  0  0
  -14.7972   -2.0281  -25.6016 H   0  0  0  0  0  0  0  0  0  0  0  0
  -12.9145   -4.7385  -22.4683 H   0  0  0  0  0  0  0  0  0  0  0  0
  -12.4377   -3.5988  -21.1424 H   0  0  0  0  0  0  0  0  0  0  0  0
  -10.7706   -4.6893  -23.7207 C   0  0  0  0  0  0  0  0  0  0  0  0
  -11.6455   -5.3121  -24.3109 O   0  0  0  0  0  0  0  0  0  0  0  0
   -9.3409   -4.7645  -24.1293 C   0  0  0  0  0  0  0  0  0  0  0  0
   -9.0151   -5.7335  -25.0757 C   0  0  0  0  0  0  0  0  0  0  0  0
   -7.7094   -5.8918  -25.4948 C   0  0  0  0  0  0  0  0  0  0  0  0
   -6.7462   -5.0366  -24.9690 C   0  0  0  0  0  0  0  0  0  0  0  0
   -5.4713   -5.1801  -25.3689 F   0  0  0  0  0  0  0  0  0  0  0  0
   -7.0517   -4.0461  -24.0536 C   0  0  0  0  0  0  0  0  0  0  0  0
   -8.3703   -3.9090  -23.5968 C   0  0  0  0  0  0  0  0  0  0  0  0
   -6.2635   -3.4013  -23.6788 H   0  0  0  0  0  0  0  0  0  0  0  0
   -7.4296   -6.6398  -26.2283 H   0  0  0  0  0  0  0  0  0  0  0  0
   -9.8214   -6.3520  -25.4630 H   0  0  0  0  0  0  0  0  0  0  0  0
   -9.7142   -3.9708  -21.0196 H   0  0  0  0  0  0  0  0  0  0  0  0
  -10.4598   -2.4041  -21.3287 H   0  0  0  0  0  0  0  0  0  0  0  0
   -7.7660    0.4124  -22.2295 H   0  0  0  0  0  0  0  0  0  0  0  0
   -9.0823   -0.2537  -21.2721 H   0  0  0  0  0  0  0  0  0  0  0  0
   -7.9762   -1.3408  -23.9070 H   0  0  0  0  0  0  0  0  0  0  0  0
   -9.8258    0.1396  -24.2256 H   0  0  0  0  0  0  0  0  0  0  0  0
  -10.7562   -0.5801  -22.9087 H   0  0  0  0  0  0  0  0  0  0  0  0
  -10.5049   -1.4729  -24.4212 H   0  0  0  0  0  0  0  0  0  0  0  0
  1  2  1  0
  2  3  1  0
  3  4  1  0
  4  5  1  0
  5  6  2  0
  6  7  1  0
  7  8  2  0
  8  9  1  0
  9 10  2  0
 10 11  1  0
 11 12  2  0
 12 13  1  0
 13 14  2  0
 13 15  1  0
 12 16  1  0
 11 17  1  0
 10 18  1  0
  8 19  1  0
  6 20  1  0
  4 21  1  0
 21 22  2  0
 21 23  1  0
 23 24  1  1
 24 25  1  0
 25 26  1  0
 26 27  1  0
 27 28  2  0
 28 29  1  0
 29 30  2  0
 30 31  1  0
 31 32  2  0
 31 33  1  0
 30 34  1  0
 29 35  1  0
 26 36  1  0
 26 37  1  0
 25 38  1  0
 38 39  2  0
 38 40  1  0
 40 41  2  0
 41 42  1  0
 42 43  2  0
 43 44  1  0
 43 45  1  0
 45 46  2  0
 45 47  1  0
 42 48  1  0
 41 49  1  0
 24 50  1  0
 24 51  1  0
  3 52  1  0
  3 53  1  0
  2 54  1  6
  1 55  1  0
  1 56  1  0
  1 57  1  0
 23  2  1  0
 32 27  1  0
 46 40  1  0
 14  5  1  0
 46 23  1  0
 14  9  1  0
M  END
>  <cnnaffinities>  (54) 
[6.7942, 6.79581]

>  <score>  (54) 
6.7942

>  <index>  (54) 
56

>  <Smiles>  (54) 
C([C@]1(C(N(c2c(nc(c3c(c(c(c(c23)[H])[H])[H])[H])[H])[H])C(=O)[C@]21C(N(C(c1nc(c(c(n1)[H])[H])[H])([H])[H])C(=O)c1c(c(c(F)c(c21)[H])[H])[H])([H])[H])([H])[H])[H])([H])([H])[H]

>  <h>  (54) 
<NA>

>  <Training>  (54) 
True

>  <Success>  (54) 
True

>  <enamine_searched>  (54) 
False

>  <enamine_id>  (54) 
nan

$$$$

     RDKit          3D

 59 63  0  0  0  0  0  0  0  0999 V2000
  -14.2749   -0.1334  -23.1541 C   0  0  0  0  0  0  0  0  0  0  0  0
  -13.7290   -1.2973  -22.4824 N   0  0  0  0  0  0  0  0  0  0  0  0
  -13.1366   -2.3303  -23.1476 C   0  0  0  0  0  0  0  0  0  0  0  0
  -13.0115   -2.3398  -24.3644 O   0  0  0  0  0  0  0  0  0  0  0  0
  -12.5801   -3.4458  -22.2429 C   0  0  0  0  0  0  0  0  0  0  0  0
  -11.1883   -3.7571  -22.5320 N   0  0  0  0  0  0  0  0  0  0  0  0
  -10.1068   -3.2783  -21.6683 C   0  0  0  0  0  0  0  0  0  0  0  0
   -8.7904   -2.9542  -22.4324 C   0  0  2  0  0  0  0  0  0  0  0  0
   -7.6555   -2.7770  -21.3827 C   0  0  0  0  0  0  0  0  0  0  0  0
   -7.1013   -3.6495  -20.7455 O   0  0  0  0  0  0  0  0  0  0  0  0
   -7.3408   -1.4363  -21.2685 N   0  0  0  0  0  0  0  0  0  0  0  0
   -6.5744   -0.9193  -20.1917 C   0  0  0  0  0  0  0  0  0  0  0  0
   -6.9072   -1.1673  -18.8817 C   0  0  0  0  0  0  0  0  0  0  0  0
   -6.2724   -0.6068  -17.8190 N   0  0  0  0  0  0  0  0  0  0  0  0
   -5.2630    0.1939  -18.0625 C   0  0  0  0  0  0  0  0  0  0  0  0
   -4.7956    0.5180  -19.3695 C   0  0  0  0  0  0  0  0  0  0  0  0
   -3.6787    1.3689  -19.5991 C   0  0  0  0  0  0  0  0  0  0  0  0
   -3.2791    1.6569  -20.8742 C   0  0  0  0  0  0  0  0  0  0  0  0
   -3.9714    1.1165  -21.9809 C   0  0  0  0  0  0  0  0  0  0  0  0
   -5.0470    0.2843  -21.7820 C   0  0  0  0  0  0  0  0  0  0  0  0
   -5.4810   -0.0373  -20.4699 C   0  0  0  0  0  0  0  0  0  0  0  0
   -5.5719   -0.1452  -22.6258 H   0  0  0  0  0  0  0  0  0  0  0  0
   -3.6400    1.3476  -22.9875 H   0  0  0  0  0  0  0  0  0  0  0  0
   -2.4135    2.2918  -21.0515 H   0  0  0  0  0  0  0  0  0  0  0  0
   -3.1465    1.7750  -18.7428 H   0  0  0  0  0  0  0  0  0  0  0  0
   -4.7564    0.6269  -17.1992 H   0  0  0  0  0  0  0  0  0  0  0  0
   -7.7286   -1.8379  -18.6397 H   0  0  0  0  0  0  0  0  0  0  0  0
   -8.2872   -0.5934  -21.9697 C   0  0  0  0  0  0  0  0  0  0  0  0
   -8.8759   -1.4879  -23.0878 C   0  0  0  0  0  0  0  0  0  0  0  0
   -8.0550   -1.4178  -24.3822 C   0  0  0  0  0  0  0  0  0  0  0  0
   -7.0003   -1.6728  -24.2268 H   0  0  0  0  0  0  0  0  0  0  0  0
   -8.1127   -0.4113  -24.8086 H   0  0  0  0  0  0  0  0  0  0  0  0
   -8.4735   -2.1210  -25.1114 H   0  0  0  0  0  0  0  0  0  0  0  0
  -10.2773   -0.9428  -23.4110 C   0  0  0  0  0  0  0  0  0  0  0  0
  -10.1679    0.0477  -23.8686 H   0  0  0  0  0  0  0  0  0  0  0  0
  -10.8209   -1.5839  -24.1086 H   0  0  0  0  0  0  0  0  0  0  0  0
  -10.9078   -0.7985  -22.5242 H   0  0  0  0  0  0  0  0  0  0  0  0
   -7.7978    0.3058  -22.3543 H   0  0  0  0  0  0  0  0  0  0  0  0
   -9.0812   -0.2623  -21.2756 H   0  0  0  0  0  0  0  0  0  0  0  0
   -8.4908   -4.1440  -23.3464 C   0  0  0  0  0  0  0  0  0  0  0  0
   -7.1779   -4.4807  -23.7246 C   0  0  0  0  0  0  0  0  0  0  0  0
   -6.9519   -5.4847  -24.6538 C   0  0  0  0  0  0  0  0  0  0  0  0
   -5.3289   -5.8534  -25.1601 Cl  0  0  0  0  0  0  0  0  0  0  0  0
   -7.9948   -6.2223  -25.2080 C   0  0  0  0  0  0  0  0  0  0  0  0
   -9.2803   -5.9352  -24.7966 C   0  0  0  0  0  0  0  0  0  0  0  0
   -9.5309   -4.9226  -23.8718 C   0  0  0  0  0  0  0  0  0  0  0  0
  -10.9614   -4.6861  -23.5113 C   0  0  0  0  0  0  0  0  0  0  0  0
  -11.8622   -5.2781  -24.0915 O   0  0  0  0  0  0  0  0  0  0  0  0
  -10.1323   -6.4786  -25.1892 H   0  0  0  0  0  0  0  0  0  0  0  0
   -7.7893   -7.0103  -25.9268 H   0  0  0  0  0  0  0  0  0  0  0  0
   -6.3281   -3.9755  -23.2784 H   0  0  0  0  0  0  0  0  0  0  0  0
  -10.4265   -2.3693  -21.1536 H   0  0  0  0  0  0  0  0  0  0  0  0
   -9.8643   -4.0132  -20.8957 H   0  0  0  0  0  0  0  0  0  0  0  0
  -13.1534   -4.3591  -22.4340 H   0  0  0  0  0  0  0  0  0  0  0  0
  -12.6846   -3.1957  -21.1837 H   0  0  0  0  0  0  0  0  0  0  0  0
  -13.8415   -1.3734  -21.4841 H   0  0  0  0  0  0  0  0  0  0  0  0
  -13.8327    0.7803  -22.7495 H   0  0  0  0  0  0  0  0  0  0  0  0
  -15.3658   -0.0698  -23.0625 H   0  0  0  0  0  0  0  0  0  0  0  0
  -14.0241   -0.1911  -24.2130 H   0  0  0  0  0  0  0  0  0  0  0  0
  1  2  1  0
  2  3  1  0
  3  4  2  0
  3  5  1  0
  5  6  1  0
  6  7  1  0
  8  7  1  1
  8  9  1  0
  9 10  2  0
  9 11  1  0
 11 12  1  0
 12 13  2  0
 13 14  1  0
 14 15  2  0
 15 16  1  0
 16 17  2  0
 17 18  1  0
 18 19  2  0
 19 20  1  0
 20 21  2  0
 20 22  1  0
 19 23  1  0
 18 24  1  0
 17 25  1  0
 15 26  1  0
 13 27  1  0
 11 28  1  0
 28 29  1  0
 29 30  1  0
 30 31  1  0
 30 32  1  0
 30 33  1  0
 29 34  1  0
 34 35  1  0
 34 36  1  0
 34 37  1  0
 28 38  1  0
 28 39  1  0
  8 40  1  0
 40 41  2  0
 41 42  1  0
 42 43  1  0
 42 44  2  0
 44 45  1  0
 45 46  2  0
 46 47  1  0
 47 48  2  0
 45 49  1  0
 44 50  1  0
 41 51  1  0
  7 52  1  0
  7 53  1  0
  5 54  1  0
  5 55  1  0
  2 56  1  0
  1 57  1  0
  1 58  1  0
  1 59  1  0
 47  6  1  0
 29  8  1  0
 46 40  1  0
 21 12  1  0
 21 16  1  0
M  END
>  <cnnaffinities>  (55) 
[6.56288, 6.55998]

>  <score>  (55) 
6.56288

>  <index>  (55) 
57

>  <Smiles>  (55) 
C(N(C(=O)C(N1C([C@@]2(C(=O)N(c3c(nc(c4c(c(c(c(c34)[H])[H])[H])[H])[H])[H])C(C2(C([H])([H])[H])C([H])([H])[H])([H])[H])c2c(c(Cl)c(c(c2C1=O)[H])[H])[H])([H])[H])([H])[H])[H])([H])([H])[H]

>  <h>  (55) 
<NA>

>  <Training>  (55) 
True

>  <Success>  (55) 
True

>  <enamine_searched>  (55) 
False

>  <enamine_id>  (55) 
nan

$$$$

     RDKit          3D

 42 45  0  0  0  0  0  0  0  0999 V2000
  -12.0261   -4.0920  -22.9279 C   0  0  0  0  0  0  0  0  0  0  0  0
  -10.6289   -4.4876  -22.9324 N   0  0  0  0  0  0  0  0  0  0  0  0
   -9.8092   -4.0357  -21.8295 C   0  0  0  0  0  0  0  0  0  0  0  0
   -8.6542   -3.1886  -22.3712 C   0  0  1  0  0  0  0  0  0  0  0  0
   -7.7143   -2.7317  -21.2571 C   0  0  0  0  0  0  0  0  0  0  0  0
   -7.2177   -3.5125  -20.4640 O   0  0  0  0  0  0  0  0  0  0  0  0
   -7.3774   -1.3912  -21.2195 N   0  0  0  0  0  0  0  0  0  0  0  0
   -6.5861   -0.8376  -20.1814 C   0  0  0  0  0  0  0  0  0  0  0  0
   -6.8947   -1.0600  -18.8597 C   0  0  0  0  0  0  0  0  0  0  0  0
   -6.2117   -0.5386  -17.8094 N   0  0  0  0  0  0  0  0  0  0  0  0
   -5.1723    0.2156  -18.0749 C   0  0  0  0  0  0  0  0  0  0  0  0
   -4.7337    0.5276  -19.3908 C   0  0  0  0  0  0  0  0  0  0  0  0
   -3.6050    1.3554  -19.6291 C   0  0  0  0  0  0  0  0  0  0  0  0
   -3.2100    1.6309  -20.9091 C   0  0  0  0  0  0  0  0  0  0  0  0
   -3.9183    1.0879  -22.0054 C   0  0  0  0  0  0  0  0  0  0  0  0
   -5.0117    0.2827  -21.8007 C   0  0  0  0  0  0  0  0  0  0  0  0
   -5.4544   -0.0084  -20.4842 C   0  0  0  0  0  0  0  0  0  0  0  0
   -5.5377   -0.1393  -22.6523 H   0  0  0  0  0  0  0  0  0  0  0  0
   -3.5813    1.3022  -23.0152 H   0  0  0  0  0  0  0  0  0  0  0  0
   -2.3421    2.2579  -21.0957 H   0  0  0  0  0  0  0  0  0  0  0  0
   -3.0681    1.7634  -18.7766 H   0  0  0  0  0  0  0  0  0  0  0  0
   -4.6180    0.6200  -17.2267 H   0  0  0  0  0  0  0  0  0  0  0  0
   -7.7479   -1.6799  -18.5966 H   0  0  0  0  0  0  0  0  0  0  0  0
   -7.6686   -0.7790  -21.9694 H   0  0  0  0  0  0  0  0  0  0  0  0
   -7.9194   -3.9931  -23.4315 C   0  0  0  0  0  0  0  0  0  0  0  0
   -6.5781   -3.7327  -23.7186 C   0  0  0  0  0  0  0  0  0  0  0  0
   -5.9363   -4.4349  -24.7247 C   0  0  0  0  0  0  0  0  0  0  0  0
   -4.2676   -4.0815  -25.0786 Cl  0  0  0  0  0  0  0  0  0  0  0  0
   -6.6046   -5.4111  -25.4587 C   0  0  0  0  0  0  0  0  0  0  0  0
   -7.9397   -5.6655  -25.1786 C   0  0  0  0  0  0  0  0  0  0  0  0
   -8.6062   -4.9577  -24.1767 C   0  0  0  0  0  0  0  0  0  0  0  0
  -10.0833   -5.1781  -23.9855 C   0  0  0  0  0  0  0  0  0  0  0  0
  -10.7354   -5.9109  -24.7180 O   0  0  0  0  0  0  0  0  0  0  0  0
   -8.4889   -6.4034  -25.7554 H   0  0  0  0  0  0  0  0  0  0  0  0
   -6.0819   -5.9419  -26.2487 H   0  0  0  0  0  0  0  0  0  0  0  0
   -6.0346   -2.9784  -23.1577 H   0  0  0  0  0  0  0  0  0  0  0  0
   -9.1000   -2.3060  -22.8449 H   0  0  0  0  0  0  0  0  0  0  0  0
  -10.4453   -3.4584  -21.1541 H   0  0  0  0  0  0  0  0  0  0  0  0
   -9.4086   -4.8897  -21.2757 H   0  0  0  0  0  0  0  0  0  0  0  0
  -12.4994   -4.2467  -21.9514 H   0  0  0  0  0  0  0  0  0  0  0  0
  -12.5786   -4.6826  -23.6567 H   0  0  0  0  0  0  0  0  0  0  0  0
  -12.1191   -3.0182  -23.1512 H   0  0  0  0  0  0  0  0  0  0  0  0
  1  2  1  0
  2  3  1  0
  3  4  1  0
  4  5  1  0
  5  6  2  0
  5  7  1  0
  7  8  1  0
  8  9  2  0
  9 10  1  0
 10 11  2  0
 11 12  1  0
 12 13  2  0
 13 14  1  0
 14 15  2  0
 15 16  1  0
 16 17  2  0
 16 18  1  0
 15 19  1  0
 14 20  1  0
 13 21  1  0
 11 22  1  0
  9 23  1  0
  7 24  1  0
  4 25  1  0
 25 26  2  0
 26 27  1  0
 27 28  1  0
 27 29  2  0
 29 30  1  0
 30 31  2  0
 31 32  1  0
 32 33  2  0
 30 34  1  0
 29 35  1  0
 26 36  1  0
  4 37  1  6
  3 38  1  0
  3 39  1  0
  1 40  1  0
  1 41  1  0
  1 42  1  0
 32  2  1  0
 17  8  1  0
 31 25  1  0
 17 12  1  0
M  END
>  <cnnaffinities>  (56) 
[5.49795]

>  <score>  (56) 
5.49795

>  <index>  (56) 
58

>  <Smiles>  (56) 
C(N1C([C@@](C(=O)N(c2c(nc(c3c(c(c(c(c23)[H])[H])[H])[H])[H])[H])[H])(c2c(c(Cl)c(c(c2C1=O)[H])[H])[H])[H])([H])[H])([H])([H])[H]

>  <h>  (56) 
<NA>

>  <Training>  (56) 
True

>  <Success>  (56) 
True

>  <enamine_searched>  (56) 
False

>  <enamine_id>  (56) 
nan

$$$$

     RDKit          3D

 60 65  0  0  0  0  0  0  0  0999 V2000
  -14.3334   -1.2469  -24.4616 C   0  0  0  0  0  0  0  0  0  0  0  0
  -13.6083   -2.4124  -24.0002 N   0  0  0  0  0  0  0  0  0  0  0  0
  -13.1260   -2.4388  -22.7323 C   0  0  0  0  0  0  0  0  0  0  0  0
  -13.1197   -1.4454  -22.0149 O   0  0  0  0  0  0  0  0  0  0  0  0
  -12.5219   -3.7759  -22.3044 C   0  0  0  0  0  0  0  0  0  0  0  0
  -11.1426   -3.9015  -22.7469 N   0  0  0  0  0  0  0  0  0  0  0  0
  -10.0925   -3.5425  -21.8024 C   0  0  0  0  0  0  0  0  0  0  0  0
   -8.7998   -3.0655  -22.4810 C   0  0  2  0  0  0  0  0  0  0  0  0
   -7.6903   -2.9452  -21.4021 C   0  0  0  0  0  0  0  0  0  0  0  0
   -7.1336   -3.8613  -20.8331 O   0  0  0  0  0  0  0  0  0  0  0  0
   -7.3515   -1.6110  -21.2307 N   0  0  0  0  0  0  0  0  0  0  0  0
   -6.5779   -1.1094  -20.1566 C   0  0  0  0  0  0  0  0  0  0  0  0
   -6.9077   -1.3548  -18.8441 C   0  0  0  0  0  0  0  0  0  0  0  0
   -6.3079   -0.7506  -17.7838 N   0  0  0  0  0  0  0  0  0  0  0  0
   -5.3408    0.1001  -18.0339 C   0  0  0  0  0  0  0  0  0  0  0  0
   -4.8800    0.4217  -19.3417 C   0  0  0  0  0  0  0  0  0  0  0  0
   -3.8163    1.3354  -19.5588 C   0  0  0  0  0  0  0  0  0  0  0  0
   -3.4212    1.6493  -20.8318 C   0  0  0  0  0  0  0  0  0  0  0  0
   -4.0770    1.0644  -21.9377 C   0  0  0  0  0  0  0  0  0  0  0  0
   -5.1011    0.1698  -21.7515 C   0  0  0  0  0  0  0  0  0  0  0  0
   -5.5238   -0.1799  -20.4408 C   0  0  0  0  0  0  0  0  0  0  0  0
   -5.6039   -0.2764  -22.6036 H   0  0  0  0  0  0  0  0  0  0  0  0
   -3.7692    1.3263  -22.9443 H   0  0  0  0  0  0  0  0  0  0  0  0
   -2.6028    2.3441  -20.9985 H   0  0  0  0  0  0  0  0  0  0  0  0
   -3.3374    1.7803  -18.6930 H   0  0  0  0  0  0  0  0  0  0  0  0
   -4.8610    0.5925  -17.1868 H   0  0  0  0  0  0  0  0  0  0  0  0
   -7.7047   -2.0502  -18.5861 H   0  0  0  0  0  0  0  0  0  0  0  0
   -8.2821   -0.7299  -21.8982 C   0  0  0  0  0  0  0  0  0  0  0  0
   -8.8338   -1.6004  -23.0222 C   0  0  2  0  0  0  0  0  0  0  0  0
  -10.1451   -0.9894  -23.5268 C   0  0  0  0  0  0  0  0  0  0  0  0
   -9.8231    0.3357  -24.1454 C   0  0  0  0  0  0  0  0  0  0  0  0
  -10.1345    1.5326  -23.6621 N   0  0  0  0  0  0  0  0  0  0  0  0
   -9.5150    2.3950  -24.4667 N   0  0  0  0  0  0  0  0  0  0  0  0
   -8.8691    1.7390  -25.3949 N   0  0  0  0  0  2  0  0  0  0  0  0
   -9.0518    0.4357  -25.2194 N   0  0  0  0  0  0  0  0  0  0  0  0
  -10.8593   -0.8251  -22.7148 H   0  0  0  0  0  0  0  0  0  0  0  0
  -10.6016   -1.6435  -24.2673 H   0  0  0  0  0  0  0  0  0  0  0  0
   -8.1140   -1.5961  -23.8497 H   0  0  0  0  0  0  0  0  0  0  0  0
   -9.0945   -0.4274  -21.2178 H   0  0  0  0  0  0  0  0  0  0  0  0
   -7.8101    0.1933  -22.2543 H   0  0  0  0  0  0  0  0  0  0  0  0
   -8.4624   -4.0986  -23.5452 C   0  0  0  0  0  0  0  0  0  0  0  0
   -7.1343   -4.2864  -23.9242 C   0  0  0  0  0  0  0  0  0  0  0  0
   -6.8106   -5.1851  -24.9226 C   0  0  0  0  0  0  0  0  0  0  0  0
   -5.1345   -5.4256  -25.3172 Cl  0  0  0  0  0  0  0  0  0  0  0  0
   -7.7923   -5.9307  -25.5704 C   0  0  0  0  0  0  0  0  0  0  0  0
   -9.1138   -5.7517  -25.2009 C   0  0  0  0  0  0  0  0  0  0  0  0
   -9.4542   -4.8361  -24.2064 C   0  0  0  0  0  0  0  0  0  0  0  0
  -10.8977   -4.6412  -23.8714 C   0  0  0  0  0  0  0  0  0  0  0  0
  -11.8083   -5.0848  -24.5674 O   0  0  0  0  0  0  0  0  0  0  0  0
   -9.9066   -6.3152  -25.6802 H   0  0  0  0  0  0  0  0  0  0  0  0
   -7.5089   -6.6343  -26.3429 H   0  0  0  0  0  0  0  0  0  0  0  0
   -6.3538   -3.7580  -23.3946 H   0  0  0  0  0  0  0  0  0  0  0  0
  -10.4719   -2.7540  -21.1482 H   0  0  0  0  0  0  0  0  0  0  0  0
   -9.8387   -4.4147  -21.1909 H   0  0  0  0  0  0  0  0  0  0  0  0
  -12.5564   -3.8516  -21.2141 H   0  0  0  0  0  0  0  0  0  0  0  0
  -13.0962   -4.5966  -22.7413 H   0  0  0  0  0  0  0  0  0  0  0  0
  -13.5601   -3.2595  -24.5516 H   0  0  0  0  0  0  0  0  0  0  0  0
  -14.6429   -1.3953  -25.4957 H   0  0  0  0  0  0  0  0  0  0  0  0
  -15.2141   -1.0555  -23.8433 H   0  0  0  0  0  0  0  0  0  0  0  0
  -13.7111   -0.3496  -24.3949 H   0  0  0  0  0  0  0  0  0  0  0  0
  1  2  1  0
  2  3  1  0
  3  4  2  0
  3  5  1  0
  5  6  1  0
  6  7  1  0
  8  7  1  1
  8  9  1  0
  9 10  2  0
  9 11  1  0
 11 12  1  0
 12 13  2  0
 13 14  1  0
 14 15  2  0
 15 16  1  0
 16 17  2  0
 17 18  1  0
 18 19  2  0
 19 20  1  0
 20 21  2  0
 20 22  1  0
 19 23  1  0
 18 24  1  0
 17 25  1  0
 15 26  1  0
 13 27  1  0
 11 28  1  0
 28 29  1  0
 29 30  1  0
 30 31  1  0
 31 32  1  0
 32 33  2  0
 33 34  1  0
 34 35  1  0
 30 36  1  0
 30 37  1  0
 29 38  1  6
 28 39  1  0
 28 40  1  0
  8 41  1  0
 41 42  2  0
 42 43  1  0
 43 44  1  0
 43 45  2  0
 45 46  1  0
 46 47  2  0
 47 48  1  0
 48 49  2  0
 46 50  1  0
 45 51  1  0
 42 52  1  0
  7 53  1  0
  7 54  1  0
  5 55  1  0
  5 56  1  0
  2 57  1  0
  1 58  1  0
  1 59  1  0
  1 60  1  0
 48  6  1  0
 29  8  1  0
 35 31  2  0
 47 41  1  0
 21 12  1  0
 21 16  1  0
M  CHG  1  34  -1
M  END
>  <cnnaffinities>  (57) 
[6.66341, 6.78971]

>  <score>  (57) 
6.66341

>  <index>  (57) 
59

>  <Smiles>  (57) 
C(N(C(=O)C(N1C([C@@]2(C(=O)N(c3c(nc(c4c(c(c(c(c34)[H])[H])[H])[H])[H])[H])C([C@@]2(C(c2nn[n-]n2)([H])[H])[H])([H])[H])c2c(c(Cl)c(c(c2C1=O)[H])[H])[H])([H])[H])([H])[H])[H])([H])([H])[H]

>  <h>  (57) 
<NA>

>  <Training>  (57) 
True

>  <Success>  (57) 
True

>  <enamine_searched>  (57) 
False

>  <enamine_id>  (57) 
nan

$$$$

     RDKit          3D

 62 67  0  0  0  0  0  0  0  0999 V2000
   -6.6029    2.5653  -28.8183 C   0  0  0  0  0  0  0  0  0  0  0  0
   -5.3860    2.2935  -27.9307 C   0  0  0  0  0  0  0  0  0  0  0  0
   -5.6536    2.5033  -26.5111 N   0  0  0  0  0  0  0  0  0  0  0  0
   -5.3960    3.7063  -25.9735 N   0  0  0  0  0  0  0  0  0  0  0  0
   -5.7975    3.6227  -24.7120 C   0  0  0  0  0  0  0  0  0  0  0  0
   -6.3344    2.3459  -24.4345 C   0  0  0  0  0  0  0  0  0  0  0  0
   -6.2418    1.6574  -25.6215 C   0  0  0  0  0  0  0  0  0  0  0  0
   -6.6393    0.2385  -25.9128 C   0  0  0  0  0  0  0  0  0  0  0  0
   -7.8033   -0.1879  -25.1542 N   0  0  0  0  0  0  0  0  0  0  0  0
   -7.7677   -1.4644  -24.4623 C   0  0  0  0  0  0  0  0  0  0  0  0
   -8.6828   -1.4809  -23.2128 C   0  0  2  0  0  0  0  0  0  0  0  0
   -8.0855   -0.5695  -22.1112 C   0  0  0  0  0  0  0  0  0  0  0  0
   -8.1546    0.6426  -22.0431 O   0  0  0  0  0  0  0  0  0  0  0  0
   -7.4249   -1.3569  -21.1978 N   0  0  0  0  0  0  0  0  0  0  0  0
   -6.6117   -0.8054  -20.1786 C   0  0  0  0  0  0  0  0  0  0  0  0
   -6.9004   -1.0562  -18.8613 C   0  0  0  0  0  0  0  0  0  0  0  0
   -6.2034   -0.5550  -17.8120 N   0  0  0  0  0  0  0  0  0  0  0  0
   -5.1724    0.2086  -18.0835 C   0  0  0  0  0  0  0  0  0  0  0  0
   -4.7407    0.5298  -19.3991 C   0  0  0  0  0  0  0  0  0  0  0  0
   -3.6097    1.3590  -19.6350 C   0  0  0  0  0  0  0  0  0  0  0  0
   -3.2046    1.6380  -20.9090 C   0  0  0  0  0  0  0  0  0  0  0  0
   -3.9042    1.0847  -22.0090 C   0  0  0  0  0  0  0  0  0  0  0  0
   -4.9929    0.2763  -21.8050 C   0  0  0  0  0  0  0  0  0  0  0  0
   -5.4658   -0.0004  -20.4914 C   0  0  0  0  0  0  0  0  0  0  0  0
   -5.5085   -0.1589  -22.6556 H   0  0  0  0  0  0  0  0  0  0  0  0
   -3.5595    1.2959  -23.0160 H   0  0  0  0  0  0  0  0  0  0  0  0
   -2.3387    2.2686  -21.0883 H   0  0  0  0  0  0  0  0  0  0  0  0
   -3.0794    1.7663  -18.7771 H   0  0  0  0  0  0  0  0  0  0  0  0
   -4.6247    0.6143  -17.2323 H   0  0  0  0  0  0  0  0  0  0  0  0
   -7.7508   -1.6836  -18.6010 H   0  0  0  0  0  0  0  0  0  0  0  0
   -7.5160   -2.7793  -21.4778 C   0  0  0  0  0  0  0  0  0  0  0  0
   -8.6465   -2.8826  -22.5209 C   0  0  2  0  0  0  0  0  0  0  0  0
   -8.5005   -4.1074  -23.4332 C   0  0  0  0  0  0  0  0  0  0  0  0
   -9.2679   -4.1304  -24.2169 H   0  0  0  0  0  0  0  0  0  0  0  0
   -8.5831   -5.0388  -22.8598 H   0  0  0  0  0  0  0  0  0  0  0  0
   -7.5211   -4.1190  -23.9296 H   0  0  0  0  0  0  0  0  0  0  0  0
   -9.5881   -2.9747  -21.9722 H   0  0  0  0  0  0  0  0  0  0  0  0
   -7.7362   -3.3319  -20.5595 H   0  0  0  0  0  0  0  0  0  0  0  0
   -6.5652   -3.1687  -21.8751 H   0  0  0  0  0  0  0  0  0  0  0  0
  -10.0530   -0.9694  -23.6129 C   0  0  0  0  0  0  0  0  0  0  0  0
  -11.1843   -1.2446  -22.8331 C   0  0  0  0  0  0  0  0  0  0  0  0
  -12.4100   -0.7290  -23.2013 C   0  0  0  0  0  0  0  0  0  0  0  0
  -13.4882   -1.0140  -22.4536 F   0  0  0  0  0  0  0  0  0  0  0  0
  -12.5716    0.0758  -24.3225 C   0  0  0  0  0  0  0  0  0  0  0  0
  -11.4516    0.3785  -25.0672 C   0  0  0  0  0  0  0  0  0  0  0  0
  -10.1936   -0.1008  -24.7079 C   0  0  0  0  0  0  0  0  0  0  0  0
   -9.0058    0.3658  -25.4996 C   0  0  0  0  0  0  0  0  0  0  0  0
   -9.0923    1.1977  -26.3947 O   0  0  0  0  0  0  0  0  0  0  0  0
  -11.5106    0.9935  -25.9500 H   0  0  0  0  0  0  0  0  0  0  0  0
  -13.5557    0.4538  -24.5719 H   0  0  0  0  0  0  0  0  0  0  0  0
  -11.1375   -1.8364  -21.9250 H   0  0  0  0  0  0  0  0  0  0  0  0
   -6.7388   -1.6559  -24.1389 H   0  0  0  0  0  0  0  0  0  0  0  0
   -8.0848   -2.2751  -25.1375 H   0  0  0  0  0  0  0  0  0  0  0  0
   -6.8144    0.1022  -26.9884 H   0  0  0  0  0  0  0  0  0  0  0  0
   -5.8278   -0.4339  -25.6205 H   0  0  0  0  0  0  0  0  0  0  0  0
   -6.7292    1.9315  -23.5128 H   0  0  0  0  0  0  0  0  0  0  0  0
   -5.6864    4.4970  -24.0776 H   0  0  0  0  0  0  0  0  0  0  0  0
   -4.5576    2.9678  -28.1770 H   0  0  0  0  0  0  0  0  0  0  0  0
   -5.0298    1.2637  -28.0549 H   0  0  0  0  0  0  0  0  0  0  0  0
   -6.9207    3.6094  -28.7314 H   0  0  0  0  0  0  0  0  0  0  0  0
   -7.4482    1.9207  -28.5451 H   0  0  0  0  0  0  0  0  0  0  0  0
   -6.3432    2.3733  -29.8643 H   0  0  0  0  0  0  0  0  0  0  0  0
  1  2  1  0
  2  3  1  0
  3  4  1  0
  4  5  2  0
  5  6  1  0
  6  7  2  0
  7  8  1  0
  8  9  1  0
  9 10  1  0
 11 10  1  6
 11 12  1  0
 12 13  2  0
 12 14  1  0
 14 15  1  0
 15 16  2  0
 16 17  1  0
 17 18  2  0
 18 19  1  0
 19 20  2  0
 20 21  1  0
 21 22  2  0
 22 23  1  0
 23 24  2  0
 23 25  1  0
 22 26  1  0
 21 27  1  0
 20 28  1  0
 18 29  1  0
 16 30  1  0
 14 31  1  0
 31 32  1  0
 32 33  1  0
 33 34  1  0
 33 35  1  0
 33 36  1  0
 32 37  1  1
 31 38  1  0
 31 39  1  0
 11 40  1  0
 40 41  2  0
 41 42  1  0
 42 43  1  0
 42 44  2  0
 44 45  1  0
 45 46  2  0
 46 47  1  0
 47 48  2  0
 45 49  1  0
 44 50  1  0
 41 51  1  0
 10 52  1  0
 10 53  1  0
  8 54  1  0
  8 55  1  0
  6 56  1  0
  5 57  1  0
  2 58  1  0
  2 59  1  0
  1 60  1  0
  1 61  1  0
  1 62  1  0
  7  3  1  0
 47  9  1  0
 32 11  1  0
 46 40  1  0
 24 15  1  0
 24 19  1  0
M  END
>  <cnnaffinities>  (58) 
[6.0706, 5.76466]

>  <score>  (58) 
6.0706

>  <index>  (58) 
60

>  <Smiles>  (58) 
C(C(n1nc(c(c1C(N1C([C@@]2(C(=O)N(c3c(nc(c4c(c(c(c(c34)[H])[H])[H])[H])[H])[H])C([C@@]2(C([H])([H])[H])[H])([H])[H])c2c(c(F)c(c(c2C1=O)[H])[H])[H])([H])[H])([H])[H])[H])[H])([H])[H])([H])([H])[H]

>  <h>  (58) 
<NA>

>  <Training>  (58) 
True

>  <Success>  (58) 
True

>  <enamine_searched>  (58) 
False

>  <enamine_id>  (58) 
nan

$$$$

     RDKit          3D

 44 47  0  0  0  0  0  0  0  0999 V2000
   -6.1989   -3.5435  -21.1105 O   0  0  0  0  0  0  0  0  0  0  0  0
   -6.6354   -2.6867  -21.8554 C   0  0  0  0  0  0  0  0  0  0  0  0
   -7.3912   -1.4733  -21.2734 C   0  0  0  0  0  0  0  0  0  0  0  0
   -6.5803   -0.8204  -20.1720 C   0  0  0  0  0  0  0  0  0  0  0  0
   -6.8742   -1.0440  -18.8530 C   0  0  0  0  0  0  0  0  0  0  0  0
   -6.1897   -0.5361  -17.7908 N   0  0  0  0  0  0  0  0  0  0  0  0
   -5.1569    0.2224  -18.0627 C   0  0  0  0  0  0  0  0  0  0  0  0
   -4.7218    0.5348  -19.3783 C   0  0  0  0  0  0  0  0  0  0  0  0
   -3.5935    1.3594  -19.6201 C   0  0  0  0  0  0  0  0  0  0  0  0
   -3.1992    1.6423  -20.8984 C   0  0  0  0  0  0  0  0  0  0  0  0
   -3.9164    1.1045  -21.9918 C   0  0  0  0  0  0  0  0  0  0  0  0
   -5.0091    0.3005  -21.7860 C   0  0  0  0  0  0  0  0  0  0  0  0
   -5.4486   -0.0026  -20.4701 C   0  0  0  0  0  0  0  0  0  0  0  0
   -5.5432   -0.1030  -22.6429 H   0  0  0  0  0  0  0  0  0  0  0  0
   -3.5840    1.3261  -23.0014 H   0  0  0  0  0  0  0  0  0  0  0  0
   -2.3297    2.2683  -21.0869 H   0  0  0  0  0  0  0  0  0  0  0  0
   -3.0513    1.7683  -18.7707 H   0  0  0  0  0  0  0  0  0  0  0  0
   -4.6008    0.6281  -17.2149 H   0  0  0  0  0  0  0  0  0  0  0  0
   -7.7225   -1.6719  -18.5817 H   0  0  0  0  0  0  0  0  0  0  0  0
   -7.6526   -0.7393  -22.0474 H   0  0  0  0  0  0  0  0  0  0  0  0
   -8.3297   -1.8490  -20.8461 H   0  0  0  0  0  0  0  0  0  0  0  0
   -6.4249   -2.7460  -23.2261 N   0  0  0  0  0  0  0  0  0  0  0  0
   -5.0937   -3.1107  -23.7053 C   0  0  0  0  0  0  0  0  0  0  0  0
   -5.1665   -4.0171  -24.9245 C   0  0  0  0  0  0  0  0  0  0  0  0
   -6.0448   -3.4227  -26.0171 C   0  0  0  0  0  0  0  0  0  0  0  0
   -6.0874   -4.2643  -27.3142 C   0  0  0  0  0  0  0  0  0  0  0  0
   -5.4341   -3.1101  -28.1071 C   0  0  0  0  0  0  0  0  0  0  0  0
   -5.3879   -2.2651  -26.8156 C   0  0  0  0  0  0  0  0  0  0  0  0
   -5.9815   -1.3473  -26.8444 H   0  0  0  0  0  0  0  0  0  0  0  0
   -4.3830   -1.9978  -26.4780 H   0  0  0  0  0  0  0  0  0  0  0  0
   -6.0571   -2.6939  -28.9037 H   0  0  0  0  0  0  0  0  0  0  0  0
   -4.4550   -3.3453  -28.5339 H   0  0  0  0  0  0  0  0  0  0  0  0
   -7.0946   -4.5367  -27.6412 H   0  0  0  0  0  0  0  0  0  0  0  0
   -5.4992   -5.1852  -27.2718 H   0  0  0  0  0  0  0  0  0  0  0  0
   -7.4168   -3.0939  -25.4454 C   0  0  0  0  0  0  0  0  0  0  0  0
   -7.3291   -2.1868  -24.2179 C   0  0  0  0  0  0  0  0  0  0  0  0
   -7.0187   -1.1744  -24.5298 H   0  0  0  0  0  0  0  0  0  0  0  0
   -8.3197   -2.0947  -23.7690 H   0  0  0  0  0  0  0  0  0  0  0  0
   -7.9403   -4.0237  -25.1902 H   0  0  0  0  0  0  0  0  0  0  0  0
   -8.0272   -2.6092  -26.2124 H   0  0  0  0  0  0  0  0  0  0  0  0
   -4.1592   -4.1903  -25.3188 H   0  0  0  0  0  0  0  0  0  0  0  0
   -5.5517   -5.0026  -24.6352 H   0  0  0  0  0  0  0  0  0  0  0  0
   -4.5139   -2.2031  -23.9528 H   0  0  0  0  0  0  0  0  0  0  0  0
   -4.5726   -3.6069  -22.8856 H   0  0  0  0  0  0  0  0  0  0  0  0
  1  2  2  0
  2  3  1  0
  3  4  1  0
  4  5  2  0
  5  6  1  0
  6  7  2  0
  7  8  1  0
  8  9  2  0
  9 10  1  0
 10 11  2  0
 11 12  1  0
 12 13  2  0
 12 14  1  0
 11 15  1  0
 10 16  1  0
  9 17  1  0
  7 18  1  0
  5 19  1  0
  3 20  1  0
  3 21  1  0
  2 22  1  0
 22 23  1  0
 23 24  1  0
 24 25  1  0
 25 26  1  0
 26 27  1  0
 27 28  1  0
 28 29  1  0
 28 30  1  0
 27 31  1  0
 27 32  1  0
 26 33  1  0
 26 34  1  0
 25 35  1  0
 35 36  1  0
 36 37  1  0
 36 38  1  0
 35 39  1  0
 35 40  1  0
 24 41  1  0
 24 42  1  0
 23 43  1  0
 23 44  1  0
 13  4  1  0
 36 22  1  0
 13  8  1  0
 28 25  1  0
M  END
>  <cnnaffinities>  (59) 
[4.97948, 4.97947, 4.97948, 4.6365, 5.22533, 5.22539, 5.22541, 5.22527, 4.6541, 4.87582, 4.90836, 4.9084, 4.90839, 4.90827, 4.87232, 4.87195]

>  <score>  (59) 
4.97948

>  <index>  (59) 
61

>  <Smiles>  (59) 
O=C(C(c1c(nc(c2c(c(c(c(c12)[H])[H])[H])[H])[H])[H])([H])[H])N1C(C(C2(C(C(C2([H])[H])([H])[H])([H])[H])C(C1([H])[H])([H])[H])([H])[H])([H])[H]

>  <h>  (59) 
<NA>

>  <Training>  (59) 
True

>  <Success>  (59) 
True

>  <enamine_searched>  (59) 
False

>  <enamine_id>  (59) 
nan

$$$$

     RDKit          3D

 44 47  0  0  0  0  0  0  0  0999 V2000
   -5.5881   -3.0035  -21.6592 O   0  0  0  0  0  0  0  0  0  0  0  0
   -6.7884   -2.8115  -21.7651 C   0  0  0  0  0  0  0  0  0  0  0  0
   -7.4160   -1.4897  -21.2577 C   0  0  0  0  0  0  0  0  0  0  0  0
   -6.5824   -0.8312  -20.1800 C   0  0  0  0  0  0  0  0  0  0  0  0
   -6.8787   -1.0451  -18.8585 C   0  0  0  0  0  0  0  0  0  0  0  0
   -6.1943   -0.5386  -17.7986 N   0  0  0  0  0  0  0  0  0  0  0  0
   -5.1584    0.2187  -18.0659 C   0  0  0  0  0  0  0  0  0  0  0  0
   -4.7242    0.5292  -19.3826 C   0  0  0  0  0  0  0  0  0  0  0  0
   -3.5982    1.3588  -19.6197 C   0  0  0  0  0  0  0  0  0  0  0  0
   -3.2011    1.6412  -20.8953 C   0  0  0  0  0  0  0  0  0  0  0  0
   -3.9132    1.0970  -21.9930 C   0  0  0  0  0  0  0  0  0  0  0  0
   -5.0029    0.2864  -21.7862 C   0  0  0  0  0  0  0  0  0  0  0  0
   -5.4464   -0.0125  -20.4734 C   0  0  0  0  0  0  0  0  0  0  0  0
   -5.5226   -0.1463  -22.6352 H   0  0  0  0  0  0  0  0  0  0  0  0
   -3.5763    1.3140  -22.9993 H   0  0  0  0  0  0  0  0  0  0  0  0
   -2.3344    2.2673  -21.0812 H   0  0  0  0  0  0  0  0  0  0  0  0
   -3.0636    1.7671  -18.7641 H   0  0  0  0  0  0  0  0  0  0  0  0
   -4.6086    0.6254  -17.2168 H   0  0  0  0  0  0  0  0  0  0  0  0
   -7.7253   -1.6704  -18.5804 H   0  0  0  0  0  0  0  0  0  0  0  0
   -7.5622   -0.8059  -22.1062 H   0  0  0  0  0  0  0  0  0  0  0  0
   -8.4178   -1.7011  -20.8571 H   0  0  0  0  0  0  0  0  0  0  0  0
   -7.6179   -3.7625  -22.3144 N   0  0  0  0  0  0  0  0  0  0  0  0
   -7.2628   -5.1687  -22.1424 C   0  0  0  0  0  0  0  0  0  0  0  0
   -7.5164   -5.9793  -23.4068 C   0  0  0  0  0  0  0  0  0  0  0  0
   -8.9441   -5.7855  -23.9197 C   0  0  0  0  0  0  0  0  0  0  0  0
   -9.2140   -6.6797  -25.1285 C   0  0  0  0  0  0  0  0  0  0  0  0
   -8.4784   -6.4566  -26.4229 C   0  0  0  0  0  0  0  0  0  0  0  0
   -9.9713   -6.2301  -26.3507 C   0  0  0  0  0  0  0  0  0  0  0  0
  -10.6312   -6.9373  -26.8503 H   0  0  0  0  0  0  0  0  0  0  0  0
  -10.3565   -5.2115  -26.3748 H   0  0  0  0  0  0  0  0  0  0  0  0
   -7.8319   -5.5802  -26.4704 H   0  0  0  0  0  0  0  0  0  0  0  0
   -8.0872   -7.3111  -26.9749 H   0  0  0  0  0  0  0  0  0  0  0  0
   -9.3711   -7.7239  -24.8512 H   0  0  0  0  0  0  0  0  0  0  0  0
   -9.2429   -4.3012  -24.0991 C   0  0  0  0  0  0  0  0  0  0  0  0
   -8.9670   -3.5205  -22.8102 C   0  0  0  0  0  0  0  0  0  0  0  0
   -9.7179   -3.7968  -22.0453 H   0  0  0  0  0  0  0  0  0  0  0  0
   -9.0735   -2.4538  -23.0119 H   0  0  0  0  0  0  0  0  0  0  0  0
  -10.3025   -4.1813  -24.3518 H   0  0  0  0  0  0  0  0  0  0  0  0
   -8.6521   -3.8924  -24.9299 H   0  0  0  0  0  0  0  0  0  0  0  0
   -9.6278   -6.0844  -23.1375 H   0  0  0  0  0  0  0  0  0  0  0  0
   -6.8185   -5.6798  -24.2012 H   0  0  0  0  0  0  0  0  0  0  0  0
   -7.3311   -7.0395  -23.1984 H   0  0  0  0  0  0  0  0  0  0  0  0
   -7.8489   -5.5989  -21.3097 H   0  0  0  0  0  0  0  0  0  0  0  0
   -6.2108   -5.1951  -21.8591 H   0  0  0  0  0  0  0  0  0  0  0  0
  1  2  2  0
  2  3  1  0
  3  4  1  0
  4  5  2  0
  5  6  1  0
  6  7  2  0
  7  8  1  0
  8  9  2  0
  9 10  1  0
 10 11  2  0
 11 12  1  0
 12 13  2  0
 12 14  1  0
 11 15  1  0
 10 16  1  0
  9 17  1  0
  7 18  1  0
  5 19  1  0
  3 20  1  0
  3 21  1  0
  2 22  1  0
 22 23  1  0
 23 24  1  0
 24 25  1  0
 25 26  1  0
 26 27  1  0
 27 28  1  0
 28 29  1  0
 28 30  1  0
 27 31  1  0
 27 32  1  0
 26 33  1  0
 25 34  1  0
 34 35  1  0
 35 36  1  0
 35 37  1  0
 34 38  1  0
 34 39  1  0
 25 40  1  0
 24 41  1  0
 24 42  1  0
 23 43  1  0
 23 44  1  0
 13  4  1  0
 35 22  1  0
 13  8  1  0
 28 26  1  0
M  END
>  <cnnaffinities>  (60) 
[5.05537, 5.01798, 4.36131, 4.36307, 5.275, 4.84813, 4.75085]

>  <score>  (60) 
5.05537

>  <index>  (60) 
62

>  <Smiles>  (60) 
O=C(C(c1c(nc(c2c(c(c(c(c12)[H])[H])[H])[H])[H])[H])([H])[H])N1C(C(C(C2(C(C2([H])[H])([H])[H])[H])(C(C1([H])[H])([H])[H])[H])([H])[H])([H])[H]

>  <h>  (60) 
<NA>

>  <Training>  (60) 
True

>  <Success>  (60) 
True

>  <enamine_searched>  (60) 
False

>  <enamine_id>  (60) 
nan

$$$$

     RDKit          3D

 57 61  0  0  0  0  0  0  0  0999 V2000
   -7.3352    3.4235  -21.8484 C   0  0  0  0  0  0  0  0  0  0  0  0
   -8.1744    2.9572  -22.9346 N   0  0  0  0  0  0  0  0  0  0  0  0
   -7.6093    2.2448  -23.9376 C   0  0  0  0  0  0  0  0  0  0  0  0
   -6.3967    2.1217  -24.0494 O   0  0  0  0  0  0  0  0  0  0  0  0
   -8.5596    1.6209  -24.9607 C   0  0  0  0  0  0  0  0  0  0  0  0
   -9.2982    0.4809  -24.4599 N   0  0  0  0  0  0  0  0  0  0  0  0
   -8.5848   -0.7692  -24.2837 C   0  0  0  0  0  0  0  0  0  0  0  0
   -8.9901   -1.4768  -22.9686 C   0  0  2  0  0  0  0  0  0  0  0  0
   -8.4502   -0.6901  -21.7484 C   0  0  0  0  0  0  0  0  0  0  0  0
   -8.8634    0.3666  -21.3089 O   0  0  0  0  0  0  0  0  0  0  0  0
   -7.3975   -1.3867  -21.2047 N   0  0  0  0  0  0  0  0  0  0  0  0
   -6.6031   -0.8144  -20.1740 C   0  0  0  0  0  0  0  0  0  0  0  0
   -6.9142   -1.0438  -18.8584 C   0  0  0  0  0  0  0  0  0  0  0  0
   -6.2148   -0.5464  -17.8074 N   0  0  0  0  0  0  0  0  0  0  0  0
   -5.1752    0.2068  -18.0764 C   0  0  0  0  0  0  0  0  0  0  0  0
   -4.7386    0.5314  -19.3928 C   0  0  0  0  0  0  0  0  0  0  0  0
   -3.6118    1.3657  -19.6364 C   0  0  0  0  0  0  0  0  0  0  0  0
   -3.2265    1.6573  -20.9162 C   0  0  0  0  0  0  0  0  0  0  0  0
   -3.9475    1.1296  -22.0117 C   0  0  0  0  0  0  0  0  0  0  0  0
   -5.0390    0.3215  -21.8025 C   0  0  0  0  0  0  0  0  0  0  0  0
   -5.4710    0.0048  -20.4846 C   0  0  0  0  0  0  0  0  0  0  0  0
   -5.5868   -0.0725  -22.6536 H   0  0  0  0  0  0  0  0  0  0  0  0
   -3.6424    1.3683  -23.0244 H   0  0  0  0  0  0  0  0  0  0  0  0
   -2.3648    2.2942  -21.0982 H   0  0  0  0  0  0  0  0  0  0  0  0
   -3.0730    1.7676  -18.7823 H   0  0  0  0  0  0  0  0  0  0  0  0
   -4.6204    0.6076  -17.2271 H   0  0  0  0  0  0  0  0  0  0  0  0
   -7.7697   -1.6654  -18.6044 H   0  0  0  0  0  0  0  0  0  0  0  0
   -7.0721   -2.6181  -21.8987 C   0  0  0  0  0  0  0  0  0  0  0  0
   -8.2951   -2.8619  -22.8086 C   0  0  2  0  0  0  0  0  0  0  0  0
   -7.9363   -3.5851  -24.1053 C   0  0  0  0  0  0  0  0  0  0  0  0
   -7.4224   -4.8541  -23.7553 O   0  0  0  0  0  0  0  0  0  0  0  0
   -7.2082   -5.3265  -24.5682 H   0  0  0  0  0  0  0  0  0  0  0  0
   -7.1811   -2.9982  -24.6530 H   0  0  0  0  0  0  0  0  0  0  0  0
   -8.8258   -3.6831  -24.7499 H   0  0  0  0  0  0  0  0  0  0  0  0
   -8.9904   -3.5160  -22.2785 H   0  0  0  0  0  0  0  0  0  0  0  0
   -6.9106   -3.4314  -21.1834 H   0  0  0  0  0  0  0  0  0  0  0  0
   -6.1514   -2.5029  -22.4889 H   0  0  0  0  0  0  0  0  0  0  0  0
  -10.5050   -1.5095  -22.9075 C   0  0  0  0  0  0  0  0  0  0  0  0
  -11.1341   -2.3495  -21.9886 C   0  0  0  0  0  0  0  0  0  0  0  0
  -12.5077   -2.3357  -21.8521 C   0  0  0  0  0  0  0  0  0  0  0  0
  -13.1881   -3.2757  -20.5549 Cl  0  0  0  0  0  0  0  0  0  0  0  0
  -13.3101   -1.5107  -22.6437 C   0  0  0  0  0  0  0  0  0  0  0  0
  -12.6893   -0.6266  -23.5066 C   0  0  0  0  0  0  0  0  0  0  0  0
  -11.2973   -0.5933  -23.6054 C   0  0  0  0  0  0  0  0  0  0  0  0
  -10.6660    0.5284  -24.3654 C   0  0  0  0  0  0  0  0  0  0  0  0
  -11.3397    1.4424  -24.8204 O   0  0  0  0  0  0  0  0  0  0  0  0
  -13.2479    0.0990  -24.0890 H   0  0  0  0  0  0  0  0  0  0  0  0
  -14.3897   -1.5396  -22.5498 H   0  0  0  0  0  0  0  0  0  0  0  0
  -10.5577   -2.9819  -21.3251 H   0  0  0  0  0  0  0  0  0  0  0  0
   -7.5144   -0.5335  -24.2629 H   0  0  0  0  0  0  0  0  0  0  0  0
   -8.7955   -1.4457  -25.1266 H   0  0  0  0  0  0  0  0  0  0  0  0
   -7.9287    1.3331  -25.8101 H   0  0  0  0  0  0  0  0  0  0  0  0
   -9.3164    2.3334  -25.2832 H   0  0  0  0  0  0  0  0  0  0  0  0
   -9.1680    2.8842  -22.7913 H   0  0  0  0  0  0  0  0  0  0  0  0
   -6.6231    4.1724  -22.2064 H   0  0  0  0  0  0  0  0  0  0  0  0
   -7.9677    3.8748  -21.0844 H   0  0  0  0  0  0  0  0  0  0  0  0
   -6.7606    2.5893  -21.4265 H   0  0  0  0  0  0  0  0  0  0  0  0
  1  2  1  0
  2  3  1  0
  3  4  2  0
  3  5  1  0
  5  6  1  0
  6  7  1  0
  8  7  1  6
  8  9  1  0
  9 10  2  0
  9 11  1  0
 11 12  1  0
 12 13  2  0
 13 14  1  0
 14 15  2  0
 15 16  1  0
 16 17  2  0
 17 18  1  0
 18 19  2  0
 19 20  1  0
 20 21  2  0
 20 22  1  0
 19 23  1  0
 18 24  1  0
 17 25  1  0
 15 26  1  0
 13 27  1  0
 11 28  1  0
 28 29  1  0
 29 30  1  0
 30 31  1  0
 31 32  1  0
 30 33  1  0
 30 34  1  0
 29 35  1  1
 28 36  1  0
 28 37  1  0
  8 38  1  0
 38 39  2  0
 39 40  1  0
 40 41  1  0
 40 42  2  0
 42 43  1  0
 43 44  2  0
 44 45  1  0
 45 46  2  0
 43 47  1  0
 42 48  1  0
 39 49  1  0
  7 50  1  0
  7 51  1  0
  5 52  1  0
  5 53  1  0
  2 54  1  0
  1 55  1  0
  1 56  1  0
  1 57  1  0
 45  6  1  0
 29  8  1  0
 44 38  1  0
 21 12  1  0
 21 16  1  0
M  END
>  <cnnaffinities>  (61) 
[5.78235]

>  <score>  (61) 
5.78235

>  <index>  (61) 
63

>  <Smiles>  (61) 
C(N(C(=O)C(N1C([C@@]2(C(=O)N(c3c(nc(c4c(c(c(c(c34)[H])[H])[H])[H])[H])[H])C([C@@]2(C(O[H])([H])[H])[H])([H])[H])c2c(c(Cl)c(c(c2C1=O)[H])[H])[H])([H])[H])([H])[H])[H])([H])([H])[H]

>  <h>  (61) 
<NA>

>  <Training>  (61) 
True

>  <Success>  (61) 
True

>  <enamine_searched>  (61) 
False

>  <enamine_id>  (61) 
nan

$$$$

     RDKit          3D

 55 60  0  0  0  0  0  0  0  0999 V2000
  -10.3568   -0.9944  -23.3749 C   0  0  0  0  0  0  0  0  0  0  0  0
   -8.9330   -1.4164  -23.0107 C   0  0  1  0  0  0  0  0  0  0  0  0
   -8.3457   -0.5233  -21.9055 C   0  0  0  0  0  0  0  0  0  0  0  0
   -7.3708   -1.3795  -21.2557 N   0  0  0  0  0  0  0  0  0  0  0  0
   -6.5804   -0.8981  -20.1849 C   0  0  0  0  0  0  0  0  0  0  0  0
   -6.9032   -1.1593  -18.8772 C   0  0  0  0  0  0  0  0  0  0  0  0
   -6.2605   -0.6087  -17.8141 N   0  0  0  0  0  0  0  0  0  0  0  0
   -5.2533    0.1946  -18.0630 C   0  0  0  0  0  0  0  0  0  0  0  0
   -4.7903    0.5213  -19.3717 C   0  0  0  0  0  0  0  0  0  0  0  0
   -3.6740    1.3698  -19.6047 C   0  0  0  0  0  0  0  0  0  0  0  0
   -3.2797    1.6551  -20.8838 C   0  0  0  0  0  0  0  0  0  0  0  0
   -3.9734    1.1097  -21.9878 C   0  0  0  0  0  0  0  0  0  0  0  0
   -5.0469    0.2785  -21.7869 C   0  0  0  0  0  0  0  0  0  0  0  0
   -5.4806   -0.0305  -20.4711 C   0  0  0  0  0  0  0  0  0  0  0  0
   -5.5699   -0.1637  -22.6275 H   0  0  0  0  0  0  0  0  0  0  0  0
   -3.6427    1.3390  -22.9967 H   0  0  0  0  0  0  0  0  0  0  0  0
   -2.4179    2.2921  -21.0641 H   0  0  0  0  0  0  0  0  0  0  0  0
   -3.1386    1.7774  -18.7512 H   0  0  0  0  0  0  0  0  0  0  0  0
   -4.7440    0.6258  -17.2009 H   0  0  0  0  0  0  0  0  0  0  0  0
   -7.7262   -1.8308  -18.6405 H   0  0  0  0  0  0  0  0  0  0  0  0
   -7.6276   -2.7219  -21.4349 C   0  0  0  0  0  0  0  0  0  0  0  0
   -7.0404   -3.6096  -20.8464 O   0  0  0  0  0  0  0  0  0  0  0  0
   -8.7582   -2.8839  -22.4699 C   0  0  1  0  0  0  0  0  0  0  0  0
  -10.0090   -3.3552  -21.6896 C   0  0  0  0  0  0  0  0  0  0  0  0
  -11.0935   -3.7881  -22.5669 N   0  0  0  0  0  0  0  0  0  0  0  0
  -12.4759   -3.5773  -22.1869 C   0  0  0  0  0  0  0  0  0  0  0  0
  -13.2007   -2.4595  -22.8701 C   0  0  0  0  0  0  0  0  0  0  0  0
  -13.7096   -2.5171  -24.1368 N   0  0  0  0  0  0  0  0  0  0  0  0
  -14.4407   -1.4241  -24.2024 C   0  0  0  0  0  0  0  0  0  0  0  0
  -14.3581   -0.7439  -23.0497 N   0  0  0  0  0  0  0  0  0  0  0  0
  -13.5518   -1.3881  -22.1903 N   0  0  0  0  0  0  0  0  0  0  0  0
  -14.9210    0.0096  -22.6953 H   0  0  0  0  0  0  0  0  0  0  0  0
  -15.0294   -1.0735  -25.0351 H   0  0  0  0  0  0  0  0  0  0  0  0
  -12.5387   -3.3985  -21.1144 H   0  0  0  0  0  0  0  0  0  0  0  0
  -13.0237   -4.4844  -22.4397 H   0  0  0  0  0  0  0  0  0  0  0  0
  -10.8552   -4.6408  -23.6145 C   0  0  0  0  0  0  0  0  0  0  0  0
  -11.7426   -5.2424  -24.2012 O   0  0  0  0  0  0  0  0  0  0  0  0
   -9.4251   -4.7729  -24.0324 C   0  0  0  0  0  0  0  0  0  0  0  0
   -9.1336   -5.7574  -24.9782 C   0  0  0  0  0  0  0  0  0  0  0  0
   -7.8513   -5.9212  -25.4628 C   0  0  0  0  0  0  0  0  0  0  0  0
   -6.8706   -5.0665  -24.9780 C   0  0  0  0  0  0  0  0  0  0  0  0
   -5.6238   -5.1929  -25.4597 F   0  0  0  0  0  0  0  0  0  0  0  0
   -7.1234   -4.0981  -24.0229 C   0  0  0  0  0  0  0  0  0  0  0  0
   -8.4248   -3.9324  -23.5244 C   0  0  0  0  0  0  0  0  0  0  0  0
   -6.2922   -3.5105  -23.6514 H   0  0  0  0  0  0  0  0  0  0  0  0
   -7.5938   -6.6945  -26.1804 H   0  0  0  0  0  0  0  0  0  0  0  0
   -9.9387   -6.3997  -25.3210 H   0  0  0  0  0  0  0  0  0  0  0  0
   -9.7068   -4.1786  -21.0329 H   0  0  0  0  0  0  0  0  0  0  0  0
  -10.3509   -2.5175  -21.0701 H   0  0  0  0  0  0  0  0  0  0  0  0
   -7.8686    0.3802  -22.2977 H   0  0  0  0  0  0  0  0  0  0  0  0
   -9.1204   -0.2012  -21.1861 H   0  0  0  0  0  0  0  0  0  0  0  0
   -8.2857   -1.3479  -23.8967 H   0  0  0  0  0  0  0  0  0  0  0  0
  -10.9890   -0.9074  -22.4843 H   0  0  0  0  0  0  0  0  0  0  0  0
  -10.3607   -0.0199  -23.8715 H   0  0  0  0  0  0  0  0  0  0  0  0
  -10.8381   -1.7225  -24.0323 H   0  0  0  0  0  0  0  0  0  0  0  0
  1  2  1  0
  2  3  1  0
  3  4  1  0
  4  5  1  0
  5  6  2  0
  6  7  1  0
  7  8  2  0
  8  9  1  0
  9 10  2  0
 10 11  1  0
 11 12  2  0
 12 13  1  0
 13 14  2  0
 13 15  1  0
 12 16  1  0
 11 17  1  0
 10 18  1  0
  8 19  1  0
  6 20  1  0
  4 21  1  0
 21 22  2  0
 21 23  1  0
 23 24  1  1
 24 25  1  0
 25 26  1  0
 26 27  1  0
 27 28  1  0
 28 29  2  0
 29 30  1  0
 30 31  1  0
 30 32  1  0
 29 33  1  0
 26 34  1  0
 26 35  1  0
 25 36  1  0
 36 37  2  0
 36 38  1  0
 38 39  2  0
 39 40  1  0
 40 41  2  0
 41 42  1  0
 41 43  1  0
 43 44  2  0
 43 45  1  0
 40 46  1  0
 39 47  1  0
 24 48  1  0
 24 49  1  0
  3 50  1  0
  3 51  1  0
  2 52  1  6
  1 53  1  0
  1 54  1  0
  1 55  1  0
 23  2  1  0
 31 27  2  0
 44 38  1  0
 14  5  1  0
 44 23  1  0
 14  9  1  0
M  END
>  <cnnaffinities>  (62) 
[6.78625, 6.61102]

>  <score>  (62) 
6.78625

>  <index>  (62) 
64

>  <Smiles>  (62) 
C([C@]1(C(N(c2c(nc(c3c(c(c(c(c23)[H])[H])[H])[H])[H])[H])C(=O)[C@]21C(N(C(c1nc(n(n1)[H])[H])([H])[H])C(=O)c1c(c(c(F)c(c21)[H])[H])[H])([H])[H])([H])[H])[H])([H])([H])[H]

>  <h>  (62) 
<NA>

>  <Training>  (62) 
True

>  <Success>  (62) 
True

>  <enamine_searched>  (62) 
False

>  <enamine_id>  (62) 
nan

$$$$

     RDKit          3D

 55 60  0  0  0  0  0  0  0  0999 V2000
  -10.3424   -1.0646  -23.3769 C   0  0  0  0  0  0  0  0  0  0  0  0
   -8.9110   -1.4410  -23.0107 C   0  0  1  0  0  0  0  0  0  0  0  0
   -8.3383   -0.5334  -21.9094 C   0  0  0  0  0  0  0  0  0  0  0  0
   -7.3621   -1.3857  -21.2547 N   0  0  0  0  0  0  0  0  0  0  0  0
   -6.5771   -0.8968  -20.1877 C   0  0  0  0  0  0  0  0  0  0  0  0
   -6.9055   -1.1584  -18.8825 C   0  0  0  0  0  0  0  0  0  0  0  0
   -6.2649   -0.6058  -17.8207 N   0  0  0  0  0  0  0  0  0  0  0  0
   -5.2556    0.1941  -18.0703 C   0  0  0  0  0  0  0  0  0  0  0  0
   -4.7902    0.5174  -19.3782 C   0  0  0  0  0  0  0  0  0  0  0  0
   -3.6717    1.3600  -19.6103 C   0  0  0  0  0  0  0  0  0  0  0  0
   -3.2774    1.6452  -20.8888 C   0  0  0  0  0  0  0  0  0  0  0  0
   -3.9731    1.1039  -21.9939 C   0  0  0  0  0  0  0  0  0  0  0  0
   -5.0479    0.2749  -21.7955 C   0  0  0  0  0  0  0  0  0  0  0  0
   -5.4784   -0.0326  -20.4781 C   0  0  0  0  0  0  0  0  0  0  0  0
   -5.5720   -0.1675  -22.6364 H   0  0  0  0  0  0  0  0  0  0  0  0
   -3.6459    1.3345  -23.0027 H   0  0  0  0  0  0  0  0  0  0  0  0
   -2.4166    2.2827  -21.0693 H   0  0  0  0  0  0  0  0  0  0  0  0
   -3.1379    1.7654  -18.7560 H   0  0  0  0  0  0  0  0  0  0  0  0
   -4.7434    0.6269  -17.2110 H   0  0  0  0  0  0  0  0  0  0  0  0
   -7.7320   -1.8263  -18.6454 H   0  0  0  0  0  0  0  0  0  0  0  0
   -7.5988   -2.7318  -21.4414 C   0  0  0  0  0  0  0  0  0  0  0  0
   -7.0188   -3.6207  -20.8469 O   0  0  0  0  0  0  0  0  0  0  0  0
   -8.7263   -2.9057  -22.4669 C   0  0  1  0  0  0  0  0  0  0  0  0
   -9.9635   -3.4015  -21.6742 C   0  0  0  0  0  0  0  0  0  0  0  0
  -11.0505   -3.8496  -22.5290 N   0  0  0  0  0  0  0  0  0  0  0  0
  -12.4407   -3.6460  -22.1471 C   0  0  0  0  0  0  0  0  0  0  0  0
  -13.1320   -2.5326  -22.8748 C   0  0  0  0  0  0  0  0  0  0  0  0
  -13.6902   -2.4962  -24.1071 C   0  0  0  0  0  0  0  0  0  0  0  0
  -14.4231   -1.3440  -24.2096 O   0  0  0  0  0  0  0  0  0  0  0  0
  -14.2477   -0.7374  -23.0218 C   0  0  0  0  0  0  0  0  0  0  0  0
  -13.4770   -1.3677  -22.2000 N   0  0  0  0  0  0  0  0  0  0  0  0
  -14.7366    0.2128  -22.8643 H   0  0  0  0  0  0  0  0  0  0  0  0
  -13.6650   -3.1291  -24.9808 H   0  0  0  0  0  0  0  0  0  0  0  0
  -12.5035   -3.3934  -21.0828 H   0  0  0  0  0  0  0  0  0  0  0  0
  -12.9834   -4.5757  -22.3654 H   0  0  0  0  0  0  0  0  0  0  0  0
  -10.8354   -4.5304  -23.6897 C   0  0  0  0  0  0  0  0  0  0  0  0
  -11.7590   -4.9266  -24.3967 O   0  0  0  0  0  0  0  0  0  0  0  0
   -9.4086   -4.7512  -24.0616 C   0  0  0  0  0  0  0  0  0  0  0  0
   -9.1235   -5.7505  -24.9937 C   0  0  0  0  0  0  0  0  0  0  0  0
   -7.8364   -5.9188  -25.4715 C   0  0  0  0  0  0  0  0  0  0  0  0
   -6.8517   -5.0555  -24.9976 C   0  0  0  0  0  0  0  0  0  0  0  0
   -5.6024   -5.1794  -25.4780 F   0  0  0  0  0  0  0  0  0  0  0  0
   -7.0935   -4.0988  -24.0262 C   0  0  0  0  0  0  0  0  0  0  0  0
   -8.3952   -3.9423  -23.5289 C   0  0  0  0  0  0  0  0  0  0  0  0
   -6.2622   -3.5225  -23.6298 H   0  0  0  0  0  0  0  0  0  0  0  0
   -7.5806   -6.6975  -26.1866 H   0  0  0  0  0  0  0  0  0  0  0  0
   -9.9308   -6.3947  -25.3346 H   0  0  0  0  0  0  0  0  0  0  0  0
  -10.3424   -2.5837  -21.0590 H   0  0  0  0  0  0  0  0  0  0  0  0
   -9.6375   -4.1906  -20.9900 H   0  0  0  0  0  0  0  0  0  0  0  0
   -9.1269   -0.2148  -21.2045 H   0  0  0  0  0  0  0  0  0  0  0  0
   -7.8722    0.3818  -22.2932 H   0  0  0  0  0  0  0  0  0  0  0  0
   -8.2617   -1.3660  -23.8934 H   0  0  0  0  0  0  0  0  0  0  0  0
  -10.4030   -0.1055  -23.8989 H   0  0  0  0  0  0  0  0  0  0  0  0
  -10.7935   -1.8311  -24.0132 H   0  0  0  0  0  0  0  0  0  0  0  0
  -10.9586   -0.9811  -22.4745 H   0  0  0  0  0  0  0  0  0  0  0  0
  1  2  1  0
  2  3  1  0
  3  4  1  0
  4  5  1  0
  5  6  2  0
  6  7  1  0
  7  8  2  0
  8  9  1  0
  9 10  2  0
 10 11  1  0
 11 12  2  0
 12 13  1  0
 13 14  2  0
 13 15  1  0
 12 16  1  0
 11 17  1  0
 10 18  1  0
  8 19  1  0
  6 20  1  0
  4 21  1  0
 21 22  2  0
 21 23  1  0
 23 24  1  1
 24 25  1  0
 25 26  1  0
 26 27  1  0
 27 28  2  0
 28 29  1  0
 29 30  1  0
 30 31  2  0
 30 32  1  0
 28 33  1  0
 26 34  1  0
 26 35  1  0
 25 36  1  0
 36 37  2  0
 36 38  1  0
 38 39  2  0
 39 40  1  0
 40 41  2  0
 41 42  1  0
 41 43  1  0
 43 44  2  0
 43 45  1  0
 40 46  1  0
 39 47  1  0
 24 48  1  0
 24 49  1  0
  3 50  1  0
  3 51  1  0
  2 52  1  6
  1 53  1  0
  1 54  1  0
  1 55  1  0
 23  2  1  0
 31 27  1  0
 44 38  1  0
 14  5  1  0
 44 23  1  0
 14  9  1  0
M  END
>  <cnnaffinities>  (63) 
[6.63136]

>  <score>  (63) 
6.63136

>  <index>  (63) 
65

>  <Smiles>  (63) 
C([C@]1(C(N(c2c(nc(c3c(c(c(c(c23)[H])[H])[H])[H])[H])[H])C(=O)[C@]21C(N(C(c1c(oc(n1)[H])[H])([H])[H])C(=O)c1c(c(c(F)c(c21)[H])[H])[H])([H])[H])([H])[H])[H])([H])([H])[H]

>  <h>  (63) 
<NA>

>  <Training>  (63) 
True

>  <Success>  (63) 
True

>  <enamine_searched>  (63) 
False

>  <enamine_id>  (63) 
nan

$$$$

     RDKit          3D

 44 47  0  0  0  0  0  0  0  0999 V2000
   -7.8633   -0.6308  -24.9376 C   0  0  0  0  0  0  0  0  0  0  0  0
   -8.3881   -2.0413  -25.1103 C   0  0  0  0  0  0  0  0  0  0  0  0
   -8.3385   -2.8839  -23.8286 C   0  0  1  0  0  0  0  0  0  0  0  0
   -8.8942   -4.2631  -24.0854 C   0  0  0  0  0  0  0  0  0  0  0  0
  -10.2746   -4.5709  -24.2966 C   0  0  0  0  0  0  0  0  0  0  0  0
  -10.4749   -5.8912  -24.5625 C   0  0  0  0  0  0  0  0  0  0  0  0
   -8.9960   -6.7811  -24.5541 S   0  0  0  0  0  0  0  0  0  0  0  0
   -8.0872   -5.3554  -24.1820 C   0  0  0  0  0  0  0  0  0  0  0  0
   -6.6072   -5.3361  -23.9384 C   0  0  0  0  0  0  0  0  0  0  0  0
   -6.0940   -3.8951  -23.9607 C   0  0  0  0  0  0  0  0  0  0  0  0
   -6.9908   -2.9797  -23.2499 N   0  0  0  0  0  0  0  0  0  0  0  0
   -6.6867   -2.6719  -21.9314 C   0  0  0  0  0  0  0  0  0  0  0  0
   -5.8369   -3.2874  -21.3133 O   0  0  0  0  0  0  0  0  0  0  0  0
   -7.4054   -1.4675  -21.2743 C   0  0  0  0  0  0  0  0  0  0  0  0
   -6.5813   -0.8277  -20.1780 C   0  0  0  0  0  0  0  0  0  0  0  0
   -6.8730   -1.0459  -18.8554 C   0  0  0  0  0  0  0  0  0  0  0  0
   -6.1905   -0.5381  -17.7920 N   0  0  0  0  0  0  0  0  0  0  0  0
   -5.1572    0.2225  -18.0614 C   0  0  0  0  0  0  0  0  0  0  0  0
   -4.7222    0.5327  -19.3803 C   0  0  0  0  0  0  0  0  0  0  0  0
   -3.5943    1.3622  -19.6204 C   0  0  0  0  0  0  0  0  0  0  0  0
   -3.2003    1.6445  -20.9004 C   0  0  0  0  0  0  0  0  0  0  0  0
   -3.9148    1.1033  -21.9925 C   0  0  0  0  0  0  0  0  0  0  0  0
   -5.0058    0.2955  -21.7856 C   0  0  0  0  0  0  0  0  0  0  0  0
   -5.4475   -0.0076  -20.4695 C   0  0  0  0  0  0  0  0  0  0  0  0
   -5.5354   -0.1131  -22.6406 H   0  0  0  0  0  0  0  0  0  0  0  0
   -3.5840    1.3222  -23.0022 H   0  0  0  0  0  0  0  0  0  0  0  0
   -2.3335    2.2723  -21.0894 H   0  0  0  0  0  0  0  0  0  0  0  0
   -3.0511    1.7736  -18.7732 H   0  0  0  0  0  0  0  0  0  0  0  0
   -4.5996    0.6284  -17.2157 H   0  0  0  0  0  0  0  0  0  0  0  0
   -7.7211   -1.6721  -18.5858 H   0  0  0  0  0  0  0  0  0  0  0  0
   -7.6871   -0.7152  -22.0248 H   0  0  0  0  0  0  0  0  0  0  0  0
   -8.3440   -1.8359  -20.8393 H   0  0  0  0  0  0  0  0  0  0  0  0
   -6.0015   -3.5649  -25.0013 H   0  0  0  0  0  0  0  0  0  0  0  0
   -5.0981   -3.8288  -23.5200 H   0  0  0  0  0  0  0  0  0  0  0  0
   -6.3975   -5.7706  -22.9548 H   0  0  0  0  0  0  0  0  0  0  0  0
   -6.0680   -5.9547  -24.6676 H   0  0  0  0  0  0  0  0  0  0  0  0
  -11.4171   -6.3918  -24.7370 H   0  0  0  0  0  0  0  0  0  0  0  0
  -11.0773   -3.8370  -24.2514 H   0  0  0  0  0  0  0  0  0  0  0  0
   -8.9912   -2.4019  -23.0920 H   0  0  0  0  0  0  0  0  0  0  0  0
   -7.8395   -2.5693  -25.8937 H   0  0  0  0  0  0  0  0  0  0  0  0
   -9.4266   -2.0173  -25.4593 H   0  0  0  0  0  0  0  0  0  0  0  0
   -7.9252   -0.0750  -25.8752 H   0  0  0  0  0  0  0  0  0  0  0  0
   -6.8183   -0.6403  -24.6156 H   0  0  0  0  0  0  0  0  0  0  0  0
   -8.4464   -0.0854  -24.1892 H   0  0  0  0  0  0  0  0  0  0  0  0
  1  2  1  0
  2  3  1  0
  3  4  1  0
  4  5  1  0
  5  6  2  0
  6  7  1  0
  7  8  1  0
  8  9  1  0
  9 10  1  0
 10 11  1  0
 11 12  1  0
 12 13  2  0
 12 14  1  0
 14 15  1  0
 15 16  2  0
 16 17  1  0
 17 18  2  0
 18 19  1  0
 19 20  2  0
 20 21  1  0
 21 22  2  0
 22 23  1  0
 23 24  2  0
 23 25  1  0
 22 26  1  0
 21 27  1  0
 20 28  1  0
 18 29  1  0
 16 30  1  0
 14 31  1  0
 14 32  1  0
 10 33  1  0
 10 34  1  0
  9 35  1  0
  9 36  1  0
  6 37  1  0
  5 38  1  0
  3 39  1  1
  2 40  1  0
  2 41  1  0
  1 42  1  0
  1 43  1  0
  1 44  1  0
 11  3  1  0
 24 15  1  0
  8  4  2  0
 24 19  1  0
M  END
>  <cnnaffinities>  (64) 
[5.68461]

>  <score>  (64) 
5.68461

>  <index>  (64) 
66

>  <Smiles>  (64) 
C(C([C@]1(c2c(c(sc2C(C(N1C(=O)C(c1c(nc(c2c(c(c(c(c12)[H])[H])[H])[H])[H])[H])([H])[H])([H])[H])([H])[H])[H])[H])[H])([H])[H])([H])([H])[H]

>  <h>  (64) 
<NA>

>  <Training>  (64) 
True

>  <Success>  (64) 
True

>  <enamine_searched>  (64) 
False

>  <enamine_id>  (64) 
nan

$$$$

     RDKit          3D

 58 63  0  0  0  0  0  0  0  0999 V2000
   -6.4888   -0.2672  -30.5846 C   0  0  0  0  0  0  0  0  0  0  0  0
   -6.3815   -0.2720  -29.0889 C   0  0  0  0  0  0  0  0  0  0  0  0
   -7.0834    0.5867  -28.1957 C   0  0  0  0  0  0  0  0  0  0  0  0
   -6.6721    0.1813  -26.9684 C   0  0  0  0  0  0  0  0  0  0  0  0
   -7.0424    0.6482  -25.5903 C   0  0  0  0  0  0  0  0  0  0  0  0
   -8.1534   -0.0524  -24.9918 N   0  0  0  0  0  0  0  0  0  0  0  0
   -7.9534   -1.3753  -24.4547 C   0  0  0  0  0  0  0  0  0  0  0  0
   -8.7570   -1.5212  -23.1471 C   0  0  2  0  0  0  0  0  0  0  0  0
   -8.1298   -0.5998  -22.0739 C   0  0  0  0  0  0  0  0  0  0  0  0
   -8.2030    0.6083  -22.0147 O   0  0  0  0  0  0  0  0  0  0  0  0
   -7.4223   -1.3778  -21.1856 N   0  0  0  0  0  0  0  0  0  0  0  0
   -6.6074   -0.8101  -20.1754 C   0  0  0  0  0  0  0  0  0  0  0  0
   -6.8978   -1.0547  -18.8571 C   0  0  0  0  0  0  0  0  0  0  0  0
   -6.2036   -0.5528  -17.8085 N   0  0  0  0  0  0  0  0  0  0  0  0
   -5.1709    0.2090  -18.0804 C   0  0  0  0  0  0  0  0  0  0  0  0
   -4.7375    0.5271  -19.3981 C   0  0  0  0  0  0  0  0  0  0  0  0
   -3.6049    1.3550  -19.6321 C   0  0  0  0  0  0  0  0  0  0  0  0
   -3.1994    1.6294  -20.9087 C   0  0  0  0  0  0  0  0  0  0  0  0
   -3.8967    1.0766  -22.0064 C   0  0  0  0  0  0  0  0  0  0  0  0
   -4.9882    0.2717  -21.8047 C   0  0  0  0  0  0  0  0  0  0  0  0
   -5.4607   -0.0051  -20.4884 C   0  0  0  0  0  0  0  0  0  0  0  0
   -5.5123   -0.1524  -22.6562 H   0  0  0  0  0  0  0  0  0  0  0  0
   -3.5528    1.2906  -23.0143 H   0  0  0  0  0  0  0  0  0  0  0  0
   -2.3327    2.2607  -21.0884 H   0  0  0  0  0  0  0  0  0  0  0  0
   -3.0752    1.7630  -18.7755 H   0  0  0  0  0  0  0  0  0  0  0  0
   -4.6241    0.6152  -17.2305 H   0  0  0  0  0  0  0  0  0  0  0  0
   -7.7482   -1.6851  -18.6007 H   0  0  0  0  0  0  0  0  0  0  0  0
   -7.4478   -2.7956  -21.4953 C   0  0  0  0  0  0  0  0  0  0  0  0
   -8.5854   -2.9421  -22.5287 C   0  0  2  0  0  0  0  0  0  0  0  0
   -8.3400   -4.0967  -23.5118 C   0  0  0  0  0  0  0  0  0  0  0  0
   -8.2997   -5.0563  -22.9824 H   0  0  0  0  0  0  0  0  0  0  0  0
   -7.3857   -3.9716  -24.0413 H   0  0  0  0  0  0  0  0  0  0  0  0
   -9.1297   -4.1660  -24.2706 H   0  0  0  0  0  0  0  0  0  0  0  0
   -9.5100   -3.1511  -21.9838 H   0  0  0  0  0  0  0  0  0  0  0  0
   -7.6287   -3.3779  -20.5861 H   0  0  0  0  0  0  0  0  0  0  0  0
   -6.4838   -3.1232  -21.9159 H   0  0  0  0  0  0  0  0  0  0  0  0
  -10.1857   -1.0737  -23.4128 C   0  0  0  0  0  0  0  0  0  0  0  0
  -11.1974   -1.4164  -22.5083 C   0  0  0  0  0  0  0  0  0  0  0  0
  -12.4913   -1.0099  -22.7532 C   0  0  0  0  0  0  0  0  0  0  0  0
  -13.4611   -1.4090  -21.9171 F   0  0  0  0  0  0  0  0  0  0  0  0
  -12.8326   -0.2164  -23.8420 C   0  0  0  0  0  0  0  0  0  0  0  0
  -11.8270    0.1825  -24.7033 C   0  0  0  0  0  0  0  0  0  0  0  0
  -10.5059   -0.2167  -24.4804 C   0  0  0  0  0  0  0  0  0  0  0  0
   -9.4176    0.3316  -25.3510 C   0  0  0  0  0  0  0  0  0  0  0  0
   -9.6064    1.0749  -26.2991 O   0  0  0  0  0  0  0  0  0  0  0  0
  -12.0389    0.8174  -25.5563 H   0  0  0  0  0  0  0  0  0  0  0  0
  -13.8684    0.0764  -23.9700 H   0  0  0  0  0  0  0  0  0  0  0  0
  -11.0012   -1.9828  -21.6036 H   0  0  0  0  0  0  0  0  0  0  0  0
   -8.2978   -2.1325  -25.1815 H   0  0  0  0  0  0  0  0  0  0  0  0
   -6.8813   -1.5143  -24.2732 H   0  0  0  0  0  0  0  0  0  0  0  0
   -6.1802    0.5803  -24.9180 H   0  0  0  0  0  0  0  0  0  0  0  0
   -7.3570    1.6883  -25.6691 H   0  0  0  0  0  0  0  0  0  0  0  0
   -5.7808   -0.8067  -27.0942 O   0  0  0  0  0  0  0  0  0  0  0  0
   -5.6000   -1.0971  -28.4355 N   0  0  0  0  0  0  0  0  0  0  0  0
   -7.8141    1.3492  -28.4235 H   0  0  0  0  0  0  0  0  0  0  0  0
   -7.5141   -0.0104  -30.8699 H   0  0  0  0  0  0  0  0  0  0  0  0
   -6.2265   -1.2355  -31.0245 H   0  0  0  0  0  0  0  0  0  0  0  0
   -5.8307    0.5022  -31.0047 H   0  0  0  0  0  0  0  0  0  0  0  0
  1  2  1  0
  2  3  1  0
  3  4  2  0
  4  5  1  0
  5  6  1  0
  6  7  1  0
  8  7  1  6
  8  9  1  0
  9 10  2  0
  9 11  1  0
 11 12  1  0
 12 13  2  0
 13 14  1  0
 14 15  2  0
 15 16  1  0
 16 17  2  0
 17 18  1  0
 18 19  2  0
 19 20  1  0
 20 21  2  0
 20 22  1  0
 19 23  1  0
 18 24  1  0
 17 25  1  0
 15 26  1  0
 13 27  1  0
 11 28  1  0
 28 29  1  0
 29 30  1  0
 30 31  1  0
 30 32  1  0
 30 33  1  0
 29 34  1  1
 28 35  1  0
 28 36  1  0
  8 37  1  0
 37 38  2  0
 38 39  1  0
 39 40  1  0
 39 41  2  0
 41 42  1  0
 42 43  2  0
 43 44  1  0
 44 45  2  0
 42 46  1  0
 41 47  1  0
 38 48  1  0
  7 49  1  0
  7 50  1  0
  5 51  1  0
  5 52  1  0
  4 53  1  0
 53 54  1  0
  3 55  1  0
  1 56  1  0
  1 57  1  0
  1 58  1  0
 54  2  2  0
 44  6  1  0
 29  8  1  0
 43 37  1  0
 21 12  1  0
 21 16  1  0
M  END
>  <cnnaffinities>  (65) 
[5.87274]

>  <score>  (65) 
5.87274

>  <index>  (65) 
67

>  <Smiles>  (65) 
C(c1c(c(C(N2C([C@@]3(C(=O)N(c4c(nc(c5c(c(c(c(c45)[H])[H])[H])[H])[H])[H])C([C@@]3(C([H])([H])[H])[H])([H])[H])c3c(c(F)c(c(c3C2=O)[H])[H])[H])([H])[H])([H])[H])on1)[H])([H])([H])[H]

>  <h>  (65) 
<NA>

>  <Training>  (65) 
True

>  <Success>  (65) 
True

>  <enamine_searched>  (65) 
False

>  <enamine_id>  (65) 
nan

$$$$

     RDKit          3D

 65 70  0  0  0  0  0  0  0  0999 V2000
   -9.2332    0.0872  -20.8324 O   0  0  0  0  0  0  0  0  0  0  0  0
   -8.4678   -0.3470  -21.6802 C   0  0  0  0  0  0  0  0  0  0  0  0
   -7.4518   -1.4140  -21.2678 C   0  0  0  0  0  0  0  0  0  0  0  0
   -6.5690   -0.8519  -20.1748 C   0  0  0  0  0  0  0  0  0  0  0  0
   -6.8935   -1.0461  -18.8546 C   0  0  0  0  0  0  0  0  0  0  0  0
   -6.2138   -0.5339  -17.7955 N   0  0  0  0  0  0  0  0  0  0  0  0
   -5.1746    0.2152  -18.0662 C   0  0  0  0  0  0  0  0  0  0  0  0
   -4.7300    0.5235  -19.3821 C   0  0  0  0  0  0  0  0  0  0  0  0
   -3.6083    1.3602  -19.6173 C   0  0  0  0  0  0  0  0  0  0  0  0
   -3.2164    1.6499  -20.8957 C   0  0  0  0  0  0  0  0  0  0  0  0
   -3.9277    1.1176  -21.9911 C   0  0  0  0  0  0  0  0  0  0  0  0
   -5.0171    0.3020  -21.7887 C   0  0  0  0  0  0  0  0  0  0  0  0
   -5.4510   -0.0190  -20.4727 C   0  0  0  0  0  0  0  0  0  0  0  0
   -5.5578   -0.0691  -22.6529 H   0  0  0  0  0  0  0  0  0  0  0  0
   -3.6001    1.3474  -23.0012 H   0  0  0  0  0  0  0  0  0  0  0  0
   -2.3533    2.2842  -21.0769 H   0  0  0  0  0  0  0  0  0  0  0  0
   -3.0736    1.7648  -18.7633 H   0  0  0  0  0  0  0  0  0  0  0  0
   -4.6223    0.6266  -17.2187 H   0  0  0  0  0  0  0  0  0  0  0  0
   -7.7634   -1.6494  -18.6007 H   0  0  0  0  0  0  0  0  0  0  0  0
   -6.8542   -1.7587  -22.1141 H   0  0  0  0  0  0  0  0  0  0  0  0
   -8.0233   -2.2645  -20.8740 H   0  0  0  0  0  0  0  0  0  0  0  0
   -8.4245    0.1608  -22.9707 N   0  0  0  0  0  0  0  0  0  0  0  0
   -8.2300   -0.7000  -24.1379 C   0  0  0  0  0  0  0  0  0  0  0  0
   -9.3689   -1.6869  -24.3013 C   0  0  0  0  0  0  0  0  0  0  0  0
   -9.2490   -2.9994  -23.8497 C   0  0  0  0  0  0  0  0  0  0  0  0
  -10.3289   -3.8741  -23.9241 C   0  0  0  0  0  0  0  0  0  0  0  0
  -11.5533   -3.4443  -24.4188 C   0  0  0  0  0  0  0  0  0  0  0  0
  -11.6735   -2.1275  -24.8498 C   0  0  0  0  0  0  0  0  0  0  0  0
  -13.1992   -1.5735  -25.4977 Cl  0  0  0  0  0  0  0  0  0  0  0  0
  -10.5875   -1.2615  -24.8334 C   0  0  0  0  0  0  0  0  0  0  0  0
  -10.7145   -0.2703  -25.2658 H   0  0  0  0  0  0  0  0  0  0  0  0
  -12.3946   -4.1248  -24.5056 H   0  0  0  0  0  0  0  0  0  0  0  0
  -10.2162   -4.9040  -23.5946 H   0  0  0  0  0  0  0  0  0  0  0  0
   -8.3058   -3.3480  -23.4320 H   0  0  0  0  0  0  0  0  0  0  0  0
   -8.1677   -0.0615  -25.0219 H   0  0  0  0  0  0  0  0  0  0  0  0
   -7.2739   -1.2316  -24.0553 H   0  0  0  0  0  0  0  0  0  0  0  0
   -8.8272    1.5561  -23.1107 C   0  0  2  0  0  0  0  0  0  0  0  0
  -10.3033    1.9153  -22.8071 C   0  0  0  0  0  0  0  0  0  0  0  0
  -10.4532    3.3211  -23.4390 C   0  0  0  0  0  0  0  0  0  0  0  0
   -9.0699    3.5902  -24.0233 C   0  0  2  0  0  0  0  0  0  0  0  0
   -8.6202    2.2097  -24.4867 C   0  0  0  0  0  0  0  0  0  0  0  0
   -7.5719    2.1695  -24.8096 H   0  0  0  0  0  0  0  0  0  0  0  0
   -9.2751    1.8019  -25.2647 H   0  0  0  0  0  0  0  0  0  0  0  0
   -8.1054    3.8465  -22.8389 N   0  0  2  0  0  4  0  0  0  0  0  0
   -6.8273    4.4531  -23.3160 C   0  0  0  0  0  0  0  0  0  0  0  0
   -6.9478    5.9530  -23.2319 C   0  0  0  0  0  0  0  0  0  0  0  0
   -5.7694    6.8734  -23.5234 C   0  0  0  0  0  0  0  0  0  0  0  0
   -6.0042    7.6008  -22.3013 O   0  0  0  0  0  0  0  0  0  0  0  0
   -6.8169    6.5170  -21.8209 C   0  0  0  0  0  0  0  0  0  0  0  0
   -6.2376    5.8509  -21.1617 H   0  0  0  0  0  0  0  0  0  0  0  0
   -7.7472    6.8130  -21.3259 H   0  0  0  0  0  0  0  0  0  0  0  0
   -5.8364    7.5296  -24.3988 H   0  0  0  0  0  0  0  0  0  0  0  0
   -4.8076    6.3372  -23.4976 H   0  0  0  0  0  0  0  0  0  0  0  0
   -7.8720    6.3088  -23.6848 H   0  0  0  0  0  0  0  0  0  0  0  0
   -6.6060    4.0953  -24.3222 H   0  0  0  0  0  0  0  0  0  0  0  0
   -5.9915    4.1318  -22.6905 H   0  0  0  0  0  0  0  0  0  0  0  0
   -7.9710    2.4828  -22.2098 C   0  0  0  0  0  0  0  0  0  0  0  0
   -8.3445    2.5158  -21.1863 H   0  0  0  0  0  0  0  0  0  0  0  0
   -6.9224    2.1754  -22.1890 H   0  0  0  0  0  0  0  0  0  0  0  0
   -8.5032    4.5046  -22.1484 H   0  0  0  0  0  0  0  0  0  0  0  0
   -9.0162    4.4064  -24.7394 H   0  0  0  0  0  0  0  0  0  0  0  0
  -10.7346    4.0923  -22.7139 H   0  0  0  0  0  0  0  0  0  0  0  0
  -11.2043    3.3197  -24.2323 H   0  0  0  0  0  0  0  0  0  0  0  0
  -10.5066    1.9071  -21.7370 H   0  0  0  0  0  0  0  0  0  0  0  0
  -10.9604    1.1840  -23.2877 H   0  0  0  0  0  0  0  0  0  0  0  0
  1  2  2  0
  2  3  1  0
  3  4  1  0
  4  5  2  0
  5  6  1  0
  6  7  2  0
  7  8  1  0
  8  9  2  0
  9 10  1  0
 10 11  2  0
 11 12  1  0
 12 13  2  0
 12 14  1  0
 11 15  1  0
 10 16  1  0
  9 17  1  0
  7 18  1  0
  5 19  1  0
  3 20  1  0
  3 21  1  0
  2 22  1  0
 22 23  1  0
 23 24  1  0
 24 25  2  0
 25 26  1  0
 26 27  2  0
 27 28  1  0
 28 29  1  0
 28 30  2  0
 30 31  1  0
 27 32  1  0
 26 33  1  0
 25 34  1  0
 23 35  1  0
 23 36  1  0
 37 22  1  6
 37 38  1  0
 38 39  1  0
 39 40  1  0
 40 41  1  0
 41 42  1  0
 41 43  1  0
 40 44  1  0
 44 45  1  0
 45 46  1  0
 46 47  1  0
 47 48  1  0
 48 49  1  0
 49 50  1  0
 49 51  1  0
 47 52  1  0
 47 53  1  0
 46 54  1  0
 45 55  1  0
 45 56  1  0
 44 57  1  0
 57 58  1  0
 57 59  1  0
 44 60  1  1
 40 61  1  6
 39 62  1  0
 39 63  1  0
 38 64  1  0
 38 65  1  0
 13  4  1  0
 30 24  1  0
 41 37  1  0
 49 46  1  0
 13  8  1  0
 57 37  1  0
M  CHG  1  44   1
M  END
>  <cnnaffinities>  (66) 
[6.21145, 5.91834, 6.21888, 6.21844]

>  <score>  (66) 
6.21145

>  <index>  (66) 
68

>  <Smiles>  (66) 
O=C(C(c1c(nc(c2c(c(c(c(c12)[H])[H])[H])[H])[H])[H])([H])[H])N(C(c1c(c(c(c(Cl)c1[H])[H])[H])[H])([H])[H])[C@]12C(C([C@](C1([H])[H])([N@+](C(C1(C(OC1([H])[H])([H])[H])[H])([H])[H])(C2([H])[H])[H])[H])([H])[H])([H])[H]

>  <h>  (66) 
<NA>

>  <Training>  (66) 
True

>  <Success>  (66) 
True

>  <enamine_searched>  (66) 
False

>  <enamine_id>  (66) 
nan

$$$$

     RDKit          3D

 63 67  0  0  0  0  0  0  0  0999 V2000
  -12.3346    6.4799  -23.9371 C   0  0  0  0  0  0  0  0  0  0  0  0
  -11.4657    5.4834  -23.8045 C   0  0  0  0  0  0  0  0  0  0  0  0
  -10.5806    5.0633  -24.9198 C   0  0  0  0  0  0  0  0  0  0  0  0
  -10.4598    5.6985  -25.9524 O   0  0  0  0  0  0  0  0  0  0  0  0
   -9.8068    3.9340  -24.6756 N   0  0  0  0  0  0  0  0  0  0  0  0
   -8.5458    3.8832  -25.4069 C   0  0  0  0  0  0  0  0  0  0  0  0
   -7.5447    3.1741  -24.5271 C   0  0  0  0  0  0  0  0  0  0  0  0
   -7.9952    1.7354  -24.3496 C   0  0  0  0  0  0  0  0  0  0  0  0
   -9.4617    1.6323  -23.9624 C   0  0  0  0  0  0  0  0  0  0  0  0
  -10.3278    2.7242  -24.1452 C   0  0  0  0  0  0  0  0  0  0  0  0
  -11.7053    2.5563  -23.9233 C   0  0  0  0  0  0  0  0  0  0  0  0
  -12.2390    1.3252  -23.5916 C   0  0  0  0  0  0  0  0  0  0  0  0
  -11.3848    0.2579  -23.3480 C   0  0  0  0  0  0  0  0  0  0  0  0
  -10.0173    0.4500  -23.4674 C   0  0  0  0  0  0  0  0  0  0  0  0
   -9.1241   -0.7066  -23.0312 N   0  0  1  0  0  4  0  0  0  0  0  0
   -8.3480   -1.3744  -24.2213 C   0  0  0  0  0  0  0  0  0  0  0  0
   -8.4225   -2.8804  -24.2011 C   0  0  0  0  0  0  0  0  0  0  0  0
   -7.2567   -3.6419  -24.1160 C   0  0  0  0  0  0  0  0  0  0  0  0
   -7.3123   -5.0299  -24.1441 C   0  0  0  0  0  0  0  0  0  0  0  0
   -8.5306   -5.6848  -24.2813 C   0  0  0  0  0  0  0  0  0  0  0  0
   -9.6866   -4.9223  -24.3992 C   0  0  0  0  0  0  0  0  0  0  0  0
  -11.2199   -5.7119  -24.6521 Cl  0  0  0  0  0  0  0  0  0  0  0  0
   -9.6485   -3.5367  -24.3417 C   0  0  0  0  0  0  0  0  0  0  0  0
  -10.5812   -2.9840  -24.4371 H   0  0  0  0  0  0  0  0  0  0  0  0
   -8.5836   -6.7680  -24.3105 H   0  0  0  0  0  0  0  0  0  0  0  0
   -6.3924   -5.6005  -24.0647 H   0  0  0  0  0  0  0  0  0  0  0  0
   -6.2958   -3.1380  -24.0298 H   0  0  0  0  0  0  0  0  0  0  0  0
   -7.3083   -1.0345  -24.2098 H   0  0  0  0  0  0  0  0  0  0  0  0
   -8.8224   -0.9793  -25.1204 H   0  0  0  0  0  0  0  0  0  0  0  0
   -8.3608   -0.3434  -21.7760 C   0  0  0  0  0  0  0  0  0  0  0  0
   -8.5448    0.7196  -21.2498 O   0  0  0  0  0  0  0  0  0  0  0  0
   -7.4334   -1.4214  -21.2271 C   0  0  0  0  0  0  0  0  0  0  0  0
   -6.5569   -0.8600  -20.1467 C   0  0  0  0  0  0  0  0  0  0  0  0
   -6.8701   -1.0538  -18.8285 C   0  0  0  0  0  0  0  0  0  0  0  0
   -6.1912   -0.5355  -17.7712 N   0  0  0  0  0  0  0  0  0  0  0  0
   -5.1583    0.2217  -18.0528 C   0  0  0  0  0  0  0  0  0  0  0  0
   -4.7284    0.5282  -19.3730 C   0  0  0  0  0  0  0  0  0  0  0  0
   -3.6137    1.3707  -19.6182 C   0  0  0  0  0  0  0  0  0  0  0  0
   -3.2349    1.6663  -20.8986 C   0  0  0  0  0  0  0  0  0  0  0  0
   -3.9545    1.1328  -21.9920 C   0  0  0  0  0  0  0  0  0  0  0  0
   -5.0338    0.3096  -21.7807 C   0  0  0  0  0  0  0  0  0  0  0  0
   -5.4506   -0.0182  -20.4590 C   0  0  0  0  0  0  0  0  0  0  0  0
   -5.5815   -0.0854  -22.6337 H   0  0  0  0  0  0  0  0  0  0  0  0
   -3.6353    1.3723  -23.0031 H   0  0  0  0  0  0  0  0  0  0  0  0
   -2.3757    2.3050  -21.0854 H   0  0  0  0  0  0  0  0  0  0  0  0
   -3.0739    1.7768  -18.7665 H   0  0  0  0  0  0  0  0  0  0  0  0
   -4.6026    0.6403  -17.2117 H   0  0  0  0  0  0  0  0  0  0  0  0
   -7.7312   -1.6694  -18.5650 H   0  0  0  0  0  0  0  0  0  0  0  0
   -8.0572   -2.2355  -20.8318 H   0  0  0  0  0  0  0  0  0  0  0  0
   -6.8537   -1.8360  -22.0534 H   0  0  0  0  0  0  0  0  0  0  0  0
   -9.7888   -1.4609  -22.7377 H   0  0  0  0  0  0  0  0  0  0  0  0
  -11.7770   -0.7231  -23.1021 H   0  0  0  0  0  0  0  0  0  0  0  0
  -13.3194    1.1986  -23.5388 H   0  0  0  0  0  0  0  0  0  0  0  0
  -12.3960    3.3790  -24.0558 H   0  0  0  0  0  0  0  0  0  0  0  0
   -7.8081    1.1859  -25.2821 H   0  0  0  0  0  0  0  0  0  0  0  0
   -7.3673    1.2520  -23.6009 H   0  0  0  0  0  0  0  0  0  0  0  0
   -6.5271    3.2325  -24.9303 H   0  0  0  0  0  0  0  0  0  0  0  0
   -7.5399    3.6676  -23.5498 H   0  0  0  0  0  0  0  0  0  0  0  0
   -8.6749    3.3867  -26.3802 H   0  0  0  0  0  0  0  0  0  0  0  0
   -8.2491    4.9114  -25.6047 H   0  0  0  0  0  0  0  0  0  0  0  0
  -11.3905    4.9155  -22.8818 H   0  0  0  0  0  0  0  0  0  0  0  0
  -12.3625    7.0901  -24.8318 H   0  0  0  0  0  0  0  0  0  0  0  0
  -12.9920    6.7322  -23.1100 H   0  0  0  0  0  0  0  0  0  0  0  0
  1  2  2  0
  2  3  1  0
  3  4  2  0
  3  5  1  0
  5  6  1  0
  6  7  1  0
  7  8  1  0
  8  9  1  0
  9 10  2  0
 10 11  1  0
 11 12  2  0
 12 13  1  0
 13 14  2  0
 14 15  1  0
 15 16  1  0
 16 17  1  0
 17 18  2  0
 18 19  1  0
 19 20  2  0
 20 21  1  0
 21 22  1  0
 21 23  2  0
 23 24  1  0
 20 25  1  0
 19 26  1  0
 18 27  1  0
 16 28  1  0
 16 29  1  0
 15 30  1  0
 30 31  2  0
 30 32  1  0
 32 33  1  0
 33 34  2  0
 34 35  1  0
 35 36  2  0
 36 37  1  0
 37 38  2  0
 38 39  1  0
 39 40  2  0
 40 41  1  0
 41 42  2  0
 41 43  1  0
 40 44  1  0
 39 45  1  0
 38 46  1  0
 36 47  1  0
 34 48  1  0
 32 49  1  0
 32 50  1  0
 15 51  1  1
 13 52  1  0
 12 53  1  0
 11 54  1  0
  8 55  1  0
  8 56  1  0
  7 57  1  0
  7 58  1  0
  6 59  1  0
  6 60  1  0
  2 61  1  0
  1 62  1  0
  1 63  1  0
 10  5  1  0
 23 17  1  0
 42 33  1  0
 14  9  1  0
 42 37  1  0
M  CHG  1  15   1
M  END
>  <cnnaffinities>  (67) 
[6.19676]

>  <score>  (67) 
6.19676

>  <index>  (67) 
69

>  <Smiles>  (67) 
C(=C(C(=O)N1C(C(C(c2c1c(c(c(c2[N@@+](C(c1c(c(c(c(Cl)c1[H])[H])[H])[H])([H])[H])(C(=O)C(c1c(nc(c2c(c(c(c(c12)[H])[H])[H])[H])[H])[H])([H])[H])[H])[H])[H])[H])([H])[H])([H])[H])([H])[H])[H])([H])[H]

>  <h>  (67) 
<NA>

>  <Training>  (67) 
True

>  <Success>  (67) 
True

>  <enamine_searched>  (67) 
False

>  <enamine_id>  (67) 
nan

$$$$

     RDKit          3D

 52 54  0  0  0  0  0  0  0  0999 V2000
   -6.3725   -6.8984  -26.9825 C   0  0  0  0  0  0  0  0  0  0  0  0
   -5.9409   -5.7183  -26.1085 C   0  0  0  0  0  0  0  0  0  0  0  0
   -4.7389   -5.0147  -26.7465 C   0  0  0  0  0  0  0  0  0  0  0  0
   -4.3647   -4.1972  -26.1218 H   0  0  0  0  0  0  0  0  0  0  0  0
   -3.9080   -5.7125  -26.9013 H   0  0  0  0  0  0  0  0  0  0  0  0
   -4.9941   -4.5984  -27.7273 H   0  0  0  0  0  0  0  0  0  0  0  0
   -7.0566   -4.6944  -25.8274 C   0  0  0  0  0  0  0  0  0  0  0  0
   -8.3058   -5.0850  -24.9864 C   0  0  0  0  0  0  0  0  0  0  0  0
   -9.2712   -5.9590  -25.8027 C   0  0  0  0  0  0  0  0  0  0  0  0
   -9.5083   -5.4975  -26.7692 H   0  0  0  0  0  0  0  0  0  0  0  0
   -8.8823   -6.9614  -26.0019 H   0  0  0  0  0  0  0  0  0  0  0  0
  -10.2197   -6.0944  -25.2696 H   0  0  0  0  0  0  0  0  0  0  0  0
   -9.0537   -3.7817  -24.5747 C   0  0  0  0  0  0  0  0  0  0  0  0
   -8.8698   -3.3513  -23.1082 C   0  0  0  0  0  0  0  0  0  0  0  0
   -7.5313   -3.6169  -22.6009 N   0  0  0  0  0  0  0  0  0  0  0  0
   -6.7718   -2.7626  -21.8397 C   0  0  0  0  0  0  0  0  0  0  0  0
   -5.6008   -3.0146  -21.5992 O   0  0  0  0  0  0  0  0  0  0  0  0
   -7.4202   -1.4779  -21.2624 C   0  0  0  0  0  0  0  0  0  0  0  0
   -6.5805   -0.8310  -20.1816 C   0  0  0  0  0  0  0  0  0  0  0  0
   -6.8735   -1.0442  -18.8589 C   0  0  0  0  0  0  0  0  0  0  0  0
   -6.1908   -0.5393  -17.7963 N   0  0  0  0  0  0  0  0  0  0  0  0
   -5.1573    0.2219  -18.0637 C   0  0  0  0  0  0  0  0  0  0  0  0
   -4.7217    0.5310  -19.3811 C   0  0  0  0  0  0  0  0  0  0  0  0
   -3.5940    1.3604  -19.6195 C   0  0  0  0  0  0  0  0  0  0  0  0
   -3.1967    1.6400  -20.8989 C   0  0  0  0  0  0  0  0  0  0  0  0
   -3.9085    1.0962  -21.9913 C   0  0  0  0  0  0  0  0  0  0  0  0
   -5.0008    0.2888  -21.7863 C   0  0  0  0  0  0  0  0  0  0  0  0
   -5.4449   -0.0125  -20.4724 C   0  0  0  0  0  0  0  0  0  0  0  0
   -5.5226   -0.1356  -22.6370 H   0  0  0  0  0  0  0  0  0  0  0  0
   -3.5721    1.3101  -23.0008 H   0  0  0  0  0  0  0  0  0  0  0  0
   -2.3283    2.2668  -21.0868 H   0  0  0  0  0  0  0  0  0  0  0  0
   -3.0520    1.7732  -18.7712 H   0  0  0  0  0  0  0  0  0  0  0  0
   -4.6006    0.6277  -17.2166 H   0  0  0  0  0  0  0  0  0  0  0  0
   -7.7204   -1.6699  -18.5852 H   0  0  0  0  0  0  0  0  0  0  0  0
   -8.4069   -1.7230  -20.8425 H   0  0  0  0  0  0  0  0  0  0  0  0
   -7.6029   -0.7588  -22.0733 H   0  0  0  0  0  0  0  0  0  0  0  0
   -7.0271   -4.9836  -22.7740 C   0  0  0  0  0  0  0  0  0  0  0  0
   -7.9120   -5.8177  -23.6994 C   0  0  0  0  0  0  0  0  0  0  0  0
   -7.4027   -6.7560  -23.9440 H   0  0  0  0  0  0  0  0  0  0  0  0
   -8.8168   -6.1339  -23.1694 H   0  0  0  0  0  0  0  0  0  0  0  0
   -6.9509   -5.4820  -21.7994 H   0  0  0  0  0  0  0  0  0  0  0  0
   -6.0059   -4.9418  -23.1652 H   0  0  0  0  0  0  0  0  0  0  0  0
   -9.0760   -2.2838  -23.0299 H   0  0  0  0  0  0  0  0  0  0  0  0
   -9.6213   -3.8567  -22.4864 H   0  0  0  0  0  0  0  0  0  0  0  0
  -10.1317   -3.8937  -24.7409 H   0  0  0  0  0  0  0  0  0  0  0  0
   -8.7554   -2.9621  -25.2355 H   0  0  0  0  0  0  0  0  0  0  0  0
   -7.4108   -4.3118  -26.7954 H   0  0  0  0  0  0  0  0  0  0  0  0
   -6.5918   -3.8247  -25.3442 H   0  0  0  0  0  0  0  0  0  0  0  0
   -5.5904   -6.1220  -25.1543 H   0  0  0  0  0  0  0  0  0  0  0  0
   -5.5101   -7.3784  -27.4574 H   0  0  0  0  0  0  0  0  0  0  0  0
   -7.0395   -6.5752  -27.7876 H   0  0  0  0  0  0  0  0  0  0  0  0
   -6.8942   -7.6726  -26.4144 H   0  0  0  0  0  0  0  0  0  0  0  0
  1  2  1  0
  2  3  1  0
  3  4  1  0
  3  5  1  0
  3  6  1  0
  2  7  1  0
  7  8  1  0
  8  9  1  0
  9 10  1  0
  9 11  1  0
  9 12  1  0
  8 13  1  0
 13 14  1  0
 14 15  1  0
 15 16  1  0
 16 17  2  0
 16 18  1  0
 18 19  1  0
 19 20  2  0
 20 21  1  0
 21 22  2  0
 22 23  1  0
 23 24  2  0
 24 25  1  0
 25 26  2  0
 26 27  1  0
 27 28  2  0
 27 29  1  0
 26 30  1  0
 25 31  1  0
 24 32  1  0
 22 33  1  0
 20 34  1  0
 18 35  1  0
 18 36  1  0
 15 37  1  0
 37 38  1  0
 38 39  1  0
 38 40  1  0
 37 41  1  0
 37 42  1  0
 14 43  1  0
 14 44  1  0
 13 45  1  0
 13 46  1  0
  7 47  1  0
  7 48  1  0
  2 49  1  0
  1 50  1  0
  1 51  1  0
  1 52  1  0
 38  8  1  0
 28 19  1  0
 28 23  1  0
M  END
>  <cnnaffinities>  (68) 
[5.48049, 5.48463, 4.79526]

>  <score>  (68) 
5.48049

>  <index>  (68) 
70

>  <Smiles>  (68) 
C(C(C([H])([H])[H])(C(C1(C([H])([H])[H])C(C(N(C(=O)C(c2c(nc(c3c(c(c(c(c23)[H])[H])[H])[H])[H])[H])([H])[H])C(C1([H])[H])([H])[H])([H])[H])([H])[H])([H])[H])[H])([H])([H])[H]

>  <h>  (68) 
<NA>

>  <Training>  (68) 
True

>  <Success>  (68) 
True

>  <enamine_searched>  (68) 
False

>  <enamine_id>  (68) 
nan

$$$$

     RDKit          3D

 50 54  0  0  0  0  0  0  0  0999 V2000
  -10.4126   -1.1615  -23.2595 C   0  0  0  0  0  0  0  0  0  0  0  0
   -8.9753   -1.5218  -22.9313 C   0  0  1  0  0  0  0  0  0  0  0  0
   -8.3511   -0.5657  -21.9090 C   0  0  0  0  0  0  0  0  0  0  0  0
   -7.3627   -1.3808  -21.2278 N   0  0  0  0  0  0  0  0  0  0  0  0
   -6.5745   -0.8592  -20.1754 C   0  0  0  0  0  0  0  0  0  0  0  0
   -6.8963   -1.0926  -18.8621 C   0  0  0  0  0  0  0  0  0  0  0  0
   -6.2259   -0.5601  -17.8075 N   0  0  0  0  0  0  0  0  0  0  0  0
   -5.1968    0.2087  -18.0713 C   0  0  0  0  0  0  0  0  0  0  0  0
   -4.7520    0.5194  -19.3887 C   0  0  0  0  0  0  0  0  0  0  0  0
   -3.6278    1.3494  -19.6286 C   0  0  0  0  0  0  0  0  0  0  0  0
   -3.2357    1.6265  -20.9085 C   0  0  0  0  0  0  0  0  0  0  0  0
   -3.9387    1.0850  -22.0082 C   0  0  0  0  0  0  0  0  0  0  0  0
   -5.0253    0.2715  -21.8046 C   0  0  0  0  0  0  0  0  0  0  0  0
   -5.4605   -0.0210  -20.4835 C   0  0  0  0  0  0  0  0  0  0  0  0
   -5.5546   -0.1595  -22.6488 H   0  0  0  0  0  0  0  0  0  0  0  0
   -3.6073    1.3101  -23.0176 H   0  0  0  0  0  0  0  0  0  0  0  0
   -2.3724    2.2590  -21.0940 H   0  0  0  0  0  0  0  0  0  0  0  0
   -3.0946    1.7587  -18.7759 H   0  0  0  0  0  0  0  0  0  0  0  0
   -4.6518    0.6342  -17.2251 H   0  0  0  0  0  0  0  0  0  0  0  0
   -7.7376   -1.7345  -18.6092 H   0  0  0  0  0  0  0  0  0  0  0  0
   -7.6021   -2.7355  -21.3488 C   0  0  0  0  0  0  0  0  0  0  0  0
   -6.9680   -3.5902  -20.7689 O   0  0  0  0  0  0  0  0  0  0  0  0
   -8.7834   -2.9460  -22.3126 C   0  0  1  0  0  0  0  0  0  0  0  0
   -9.9936   -3.4000  -21.4747 C   0  0  0  0  0  0  0  0  0  0  0  0
  -11.1114   -3.8513  -22.2790 N   0  0  0  0  0  0  0  0  0  0  0  0
  -12.4834   -3.5420  -21.9342 C   0  0  0  0  0  0  0  0  0  0  0  0
  -13.0755   -2.5107  -22.8086 C   0  0  0  0  0  0  0  0  0  0  0  0
  -13.5273   -1.7084  -23.5089 N   0  0  0  0  0  0  0  0  0  0  0  0
  -12.5585   -3.2043  -20.8984 H   0  0  0  0  0  0  0  0  0  0  0  0
  -13.0595   -4.4611  -22.0455 H   0  0  0  0  0  0  0  0  0  0  0  0
  -10.9401   -4.6214  -23.3950 C   0  0  0  0  0  0  0  0  0  0  0  0
  -11.8863   -5.0700  -24.0239 O   0  0  0  0  0  0  0  0  0  0  0  0
   -9.5277   -4.8379  -23.8161 C   0  0  0  0  0  0  0  0  0  0  0  0
   -9.2784   -5.8121  -24.7790 C   0  0  0  0  0  0  0  0  0  0  0  0
   -8.0234   -5.9433  -25.3389 C   0  0  0  0  0  0  0  0  0  0  0  0
   -7.0286   -5.0781  -24.9028 C   0  0  0  0  0  0  0  0  0  0  0  0
   -5.8286   -5.1348  -25.4991 F   0  0  0  0  0  0  0  0  0  0  0  0
   -7.2344   -4.1370  -23.9140 C   0  0  0  0  0  0  0  0  0  0  0  0
   -8.5028   -4.0132  -23.3446 C   0  0  0  0  0  0  0  0  0  0  0  0
   -6.4245   -3.4883  -23.6033 H   0  0  0  0  0  0  0  0  0  0  0  0
   -7.8070   -6.6572  -26.1263 H   0  0  0  0  0  0  0  0  0  0  0  0
  -10.0938   -6.4569  -25.0832 H   0  0  0  0  0  0  0  0  0  0  0  0
   -9.6592   -4.2026  -20.8234 H   0  0  0  0  0  0  0  0  0  0  0  0
  -10.3215   -2.5663  -20.8558 H   0  0  0  0  0  0  0  0  0  0  0  0
   -9.1108   -0.2052  -21.1980 H   0  0  0  0  0  0  0  0  0  0  0  0
   -7.8905    0.3079  -22.3797 H   0  0  0  0  0  0  0  0  0  0  0  0
   -8.3809   -1.4986  -23.8544 H   0  0  0  0  0  0  0  0  0  0  0  0
  -10.4944   -0.1875  -23.7450 H   0  0  0  0  0  0  0  0  0  0  0  0
  -11.0067   -1.1238  -22.3415 H   0  0  0  0  0  0  0  0  0  0  0  0
  -10.8541   -1.9163  -23.9132 H   0  0  0  0  0  0  0  0  0  0  0  0
  1  2  1  0
  2  3  1  0
  3  4  1  0
  4  5  1  0
  5  6  2  0
  6  7  1  0
  7  8  2  0
  8  9  1  0
  9 10  2  0
 10 11  1  0
 11 12  2  0
 12 13  1  0
 13 14  2  0
 13 15  1  0
 12 16  1  0
 11 17  1  0
 10 18  1  0
  8 19  1  0
  6 20  1  0
  4 21  1  0
 21 22  2  0
 21 23  1  0
 23 24  1  1
 24 25  1  0
 25 26  1  0
 26 27  1  0
 27 28  3  0
 26 29  1  0
 26 30  1  0
 25 31  1  0
 31 32  2  0
 31 33  1  0
 33 34  2  0
 34 35  1  0
 35 36  2  0
 36 37  1  0
 36 38  1  0
 38 39  2  0
 38 40  1  0
 35 41  1  0
 34 42  1  0
 24 43  1  0
 24 44  1  0
  3 45  1  0
  3 46  1  0
  2 47  1  6
  1 48  1  0
  1 49  1  0
  1 50  1  0
 23  2  1  0
 39 33  1  0
 14  5  1  0
 39 23  1  0
 14  9  1  0
M  END
>  <cnnaffinities>  (69) 
[6.27397]

>  <score>  (69) 
6.27397

>  <index>  (69) 
71

>  <Smiles>  (69) 
C([C@]1(C(N(c2c(nc(c3c(c(c(c(c23)[H])[H])[H])[H])[H])[H])C(=O)[C@]21C(N(C(C#N)([H])[H])C(=O)c1c(c(c(F)c(c21)[H])[H])[H])([H])[H])([H])[H])[H])([H])([H])[H]

>  <h>  (69) 
<NA>

>  <Training>  (69) 
True

>  <Success>  (69) 
True

>  <enamine_searched>  (69) 
False

>  <enamine_id>  (69) 
nan

$$$$

     RDKit          3D

 41 44  0  0  0  0  0  0  0  0999 V2000
   -5.5872   -2.9771  -21.6849 O   0  0  0  0  0  0  0  0  0  0  0  0
   -6.7871   -2.7864  -21.7964 C   0  0  0  0  0  0  0  0  0  0  0  0
   -7.4220   -1.4818  -21.2551 C   0  0  0  0  0  0  0  0  0  0  0  0
   -6.5816   -0.8275  -20.1794 C   0  0  0  0  0  0  0  0  0  0  0  0
   -6.8736   -1.0423  -18.8564 C   0  0  0  0  0  0  0  0  0  0  0  0
   -6.1900   -0.5389  -17.7945 N   0  0  0  0  0  0  0  0  0  0  0  0
   -5.1564    0.2227  -18.0628 C   0  0  0  0  0  0  0  0  0  0  0  0
   -4.7214    0.5322  -19.3808 C   0  0  0  0  0  0  0  0  0  0  0  0
   -3.5928    1.3617  -19.6185 C   0  0  0  0  0  0  0  0  0  0  0  0
   -3.1958    1.6409  -20.8984 C   0  0  0  0  0  0  0  0  0  0  0  0
   -3.9073    1.0972  -21.9908 C   0  0  0  0  0  0  0  0  0  0  0  0
   -5.0000    0.2906  -21.7859 C   0  0  0  0  0  0  0  0  0  0  0  0
   -5.4446   -0.0100  -20.4710 C   0  0  0  0  0  0  0  0  0  0  0  0
   -5.5193   -0.1365  -22.6362 H   0  0  0  0  0  0  0  0  0  0  0  0
   -3.5709    1.3107  -23.0003 H   0  0  0  0  0  0  0  0  0  0  0  0
   -2.3280    2.2677  -21.0858 H   0  0  0  0  0  0  0  0  0  0  0  0
   -3.0512    1.7741  -18.7705 H   0  0  0  0  0  0  0  0  0  0  0  0
   -4.5996    0.6282  -17.2166 H   0  0  0  0  0  0  0  0  0  0  0  0
   -7.7200   -1.6698  -18.5844 H   0  0  0  0  0  0  0  0  0  0  0  0
   -8.4190   -1.6972  -20.8446 H   0  0  0  0  0  0  0  0  0  0  0  0
   -7.5739   -0.7809  -22.0874 H   0  0  0  0  0  0  0  0  0  0  0  0
   -7.6060   -3.7348  -22.3640 N   0  0  0  0  0  0  0  0  0  0  0  0
   -7.0703   -5.0872  -22.5436 C   0  0  0  0  0  0  0  0  0  0  0  0
   -6.3243   -5.2885  -23.8688 C   0  0  0  0  0  0  0  0  0  0  0  0
   -6.9777   -4.5532  -25.0503 C   0  0  0  0  0  0  0  0  0  0  0  0
   -8.4763   -4.7028  -25.0721 C   0  0  0  0  0  0  0  0  0  0  0  0
   -9.3207   -5.5488  -26.3294 S   0  0  0  0  0  0  0  0  0  0  0  0
  -10.8353   -5.2861  -25.5567 C   0  0  0  0  0  0  0  0  0  0  0  0
  -10.7015   -4.5767  -24.4014 C   0  0  0  0  0  0  0  0  0  0  0  0
   -9.3387   -4.2558  -24.1056 C   0  0  0  0  0  0  0  0  0  0  0  0
   -8.9384   -3.4518  -22.8832 C   0  0  0  0  0  0  0  0  0  0  0  0
   -9.0139   -2.3886  -23.1412 H   0  0  0  0  0  0  0  0  0  0  0  0
   -9.6972   -3.6183  -22.1067 H   0  0  0  0  0  0  0  0  0  0  0  0
  -11.5454   -4.2814  -23.7805 H   0  0  0  0  0  0  0  0  0  0  0  0
  -11.7501   -5.6402  -26.0127 H   0  0  0  0  0  0  0  0  0  0  0  0
   -6.7429   -3.4845  -24.9668 H   0  0  0  0  0  0  0  0  0  0  0  0
   -6.5427   -4.8921  -25.9924 H   0  0  0  0  0  0  0  0  0  0  0  0
   -5.2934   -4.9447  -23.7506 H   0  0  0  0  0  0  0  0  0  0  0  0
   -6.2782   -6.3627  -24.0915 H   0  0  0  0  0  0  0  0  0  0  0  0
   -6.4190   -5.3254  -21.7017 H   0  0  0  0  0  0  0  0  0  0  0  0
   -7.9157   -5.7798  -22.4959 H   0  0  0  0  0  0  0  0  0  0  0  0
  1  2  2  0
  2  3  1  0
  3  4  1  0
  4  5  2  0
  5  6  1  0
  6  7  2  0
  7  8  1  0
  8  9  2  0
  9 10  1  0
 10 11  2  0
 11 12  1  0
 12 13  2  0
 12 14  1  0
 11 15  1  0
 10 16  1  0
  9 17  1  0
  7 18  1  0
  5 19  1  0
  3 20  1  0
  3 21  1  0
  2 22  1  0
 22 23  1  0
 23 24  1  0
 24 25  1  0
 25 26  1  0
 26 27  1  0
 27 28  1  0
 28 29  2  0
 29 30  1  0
 30 31  1  0
 31 32  1  0
 31 33  1  0
 29 34  1  0
 28 35  1  0
 25 36  1  0
 25 37  1  0
 24 38  1  0
 24 39  1  0
 23 40  1  0
 23 41  1  0
 13  4  1  0
 31 22  1  0
 13  8  1  0
 30 26  2  0
M  END
>  <cnnaffinities>  (70) 
[5.24643, 5.22227, 5.31542, 5.09122, 5.16955]

>  <score>  (70) 
5.24643

>  <index>  (70) 
72

>  <Smiles>  (70) 
O=C(C(c1c(nc(c2c(c(c(c(c12)[H])[H])[H])[H])[H])[H])([H])[H])N1C(C(C(c2sc(c(c2C1([H])[H])[H])[H])([H])[H])([H])[H])([H])[H]

>  <h>  (70) 
<NA>

>  <Training>  (70) 
True

>  <Success>  (70) 
True

>  <enamine_searched>  (70) 
False

>  <enamine_id>  (70) 
nan

$$$$

     RDKit          3D

 50 53  0  0  0  0  0  0  0  0999 V2000
   -5.5987   -3.0287  -21.5813 O   0  0  0  0  0  0  0  0  0  0  0  0
   -6.7578   -2.7542  -21.8596 C   0  0  0  0  0  0  0  0  0  0  0  0
   -7.4147   -1.4801  -21.2676 C   0  0  0  0  0  0  0  0  0  0  0  0
   -6.5809   -0.8320  -20.1824 C   0  0  0  0  0  0  0  0  0  0  0  0
   -6.8741   -1.0448  -18.8621 C   0  0  0  0  0  0  0  0  0  0  0  0
   -6.1911   -0.5392  -17.7979 N   0  0  0  0  0  0  0  0  0  0  0  0
   -5.1593    0.2209  -18.0656 C   0  0  0  0  0  0  0  0  0  0  0  0
   -4.7221    0.5297  -19.3802 C   0  0  0  0  0  0  0  0  0  0  0  0
   -3.5955    1.3584  -19.6212 C   0  0  0  0  0  0  0  0  0  0  0  0
   -3.1979    1.6401  -20.8977 C   0  0  0  0  0  0  0  0  0  0  0  0
   -3.9114    1.0961  -21.9915 C   0  0  0  0  0  0  0  0  0  0  0  0
   -5.0019    0.2891  -21.7858 C   0  0  0  0  0  0  0  0  0  0  0  0
   -5.4464   -0.0141  -20.4746 C   0  0  0  0  0  0  0  0  0  0  0  0
   -5.5269   -0.1339  -22.6368 H   0  0  0  0  0  0  0  0  0  0  0  0
   -3.5743    1.3107  -23.0003 H   0  0  0  0  0  0  0  0  0  0  0  0
   -2.3288    2.2664  -21.0869 H   0  0  0  0  0  0  0  0  0  0  0  0
   -3.0544    1.7713  -18.7706 H   0  0  0  0  0  0  0  0  0  0  0  0
   -4.6031    0.6267  -17.2161 H   0  0  0  0  0  0  0  0  0  0  0  0
   -7.7197   -1.6692  -18.5835 H   0  0  0  0  0  0  0  0  0  0  0  0
   -7.6152   -0.7504  -22.0650 H   0  0  0  0  0  0  0  0  0  0  0  0
   -8.3959   -1.7476  -20.8485 H   0  0  0  0  0  0  0  0  0  0  0  0
   -7.5180   -3.5812  -22.6643 N   0  0  0  0  0  0  0  0  0  0  0  0
   -8.6633   -3.1256  -23.4511 C   0  0  0  0  0  0  0  0  0  0  0  0
   -9.7337   -4.2019  -23.5641 C   0  0  0  0  0  0  0  0  0  0  0  0
   -9.1623   -5.5021  -24.1052 C   0  0  0  0  0  0  0  0  0  0  0  0
   -7.9808   -5.9310  -23.2471 C   0  0  0  0  0  0  0  0  0  0  0  0
   -6.9096   -4.8492  -23.1047 C   0  0  1  0  0  0  0  0  0  0  0  0
   -6.0415   -4.6957  -24.3711 C   0  0  0  0  0  0  0  0  0  0  0  0
   -5.2080   -5.9198  -24.6887 C   0  0  0  0  0  0  0  0  0  0  0  0
   -4.0471   -6.1890  -23.9583 C   0  0  0  0  0  0  0  0  0  0  0  0
   -3.2846   -7.3202  -24.2204 C   0  0  0  0  0  0  0  0  0  0  0  0
   -3.6703   -8.2113  -25.2178 C   0  0  0  0  0  0  0  0  0  0  0  0
   -4.8277   -7.9606  -25.9498 C   0  0  0  0  0  0  0  0  0  0  0  0
   -5.5853   -6.8245  -25.6835 C   0  0  0  0  0  0  0  0  0  0  0  0
   -6.4945   -6.6404  -26.2527 H   0  0  0  0  0  0  0  0  0  0  0  0
   -5.1416   -8.6461  -26.7319 H   0  0  0  0  0  0  0  0  0  0  0  0
   -3.0715   -9.0918  -25.4256 H   0  0  0  0  0  0  0  0  0  0  0  0
   -2.3832   -7.5097  -23.6433 H   0  0  0  0  0  0  0  0  0  0  0  0
   -3.7439   -5.5002  -23.1730 H   0  0  0  0  0  0  0  0  0  0  0  0
   -6.6856   -4.4573  -25.2240 H   0  0  0  0  0  0  0  0  0  0  0  0
   -5.3821   -3.8371  -24.2151 H   0  0  0  0  0  0  0  0  0  0  0  0
   -6.2407   -5.1511  -22.2990 H   0  0  0  0  0  0  0  0  0  0  0  0
   -8.3303   -6.1689  -22.2420 H   0  0  0  0  0  0  0  0  0  0  0  0
   -7.5379   -6.8525  -23.6368 H   0  0  0  0  0  0  0  0  0  0  0  0
   -9.9313   -6.2821  -24.1274 H   0  0  0  0  0  0  0  0  0  0  0  0
   -8.8400   -5.3751  -25.1458 H   0  0  0  0  0  0  0  0  0  0  0  0
  -10.1660   -4.3766  -22.5761 H   0  0  0  0  0  0  0  0  0  0  0  0
  -10.5510   -3.8482  -24.1987 H   0  0  0  0  0  0  0  0  0  0  0  0
   -9.0842   -2.2329  -22.9912 H   0  0  0  0  0  0  0  0  0  0  0  0
   -8.3560   -2.8302  -24.4654 H   0  0  0  0  0  0  0  0  0  0  0  0
  1  2  2  0
  2  3  1  0
  3  4  1  0
  4  5  2  0
  5  6  1  0
  6  7  2  0
  7  8  1  0
  8  9  2  0
  9 10  1  0
 10 11  2  0
 11 12  1  0
 12 13  2  0
 12 14  1  0
 11 15  1  0
 10 16  1  0
  9 17  1  0
  7 18  1  0
  5 19  1  0
  3 20  1  0
  3 21  1  0
  2 22  1  0
 22 23  1  0
 23 24  1  0
 24 25  1  0
 25 26  1  0
 26 27  1  0
 27 28  1  0
 28 29  1  0
 29 30  2  0
 30 31  1  0
 31 32  2  0
 32 33  1  0
 33 34  2  0
 34 35  1  0
 33 36  1  0
 32 37  1  0
 31 38  1  0
 30 39  1  0
 28 40  1  0
 28 41  1  0
 27 42  1  1
 26 43  1  0
 26 44  1  0
 25 45  1  0
 25 46  1  0
 24 47  1  0
 24 48  1  0
 23 49  1  0
 23 50  1  0
 13  4  1  0
 27 22  1  0
 34 29  1  0
 13  8  1  0
M  END
>  <cnnaffinities>  (71) 
[5.64114]

>  <score>  (71) 
5.64114

>  <index>  (71) 
73

>  <Smiles>  (71) 
O=C(C(c1c(nc(c2c(c(c(c(c12)[H])[H])[H])[H])[H])[H])([H])[H])N1C(C(C(C([C@]1(C(c1c(c(c(c(c1[H])[H])[H])[H])[H])([H])[H])[H])([H])[H])([H])[H])([H])[H])([H])[H]

>  <h>  (71) 
<NA>

>  <Training>  (71) 
True

>  <Success>  (71) 
True

>  <enamine_searched>  (71) 
False

>  <enamine_id>  (71) 
nan

$$$$

     RDKit          3D

 43 47  0  0  0  0  0  0  0  0999 V2000
   -9.4275   -0.4515  -20.9852 O   0  0  0  0  0  0  0  0  0  0  0  0
   -8.7470   -1.3644  -21.3783 C   0  0  0  0  0  0  0  0  0  0  0  0
   -9.1375   -2.4460  -22.1203 N   0  0  0  0  0  0  0  0  0  0  0  0
   -8.0414   -3.1460  -22.7408 C   0  0  1  0  0  0  0  0  0  0  0  0
   -8.1076   -4.6888  -22.7152 C   0  0  0  0  0  0  0  0  0  0  0  0
   -8.2249   -4.7218  -24.2734 C   0  0  2  0  0  0  0  0  0  0  0  0
   -7.1765   -5.5211  -24.9837 C   0  0  0  0  0  0  0  0  0  0  0  0
   -5.8198   -5.2763  -24.7391 C   0  0  0  0  0  0  0  0  0  0  0  0
   -4.8285   -6.0086  -25.3817 C   0  0  0  0  0  0  0  0  0  0  0  0
   -5.1778   -7.0080  -26.2880 C   0  0  0  0  0  0  0  0  0  0  0  0
   -6.5173   -7.2654  -26.5463 C   0  0  0  0  0  0  0  0  0  0  0  0
   -7.4975   -6.5299  -25.8919 C   0  0  0  0  0  0  0  0  0  0  0  0
   -9.1660   -6.9160  -26.2479 Cl  0  0  0  0  0  0  0  0  0  0  0  0
   -6.8195   -8.0226  -27.2605 H   0  0  0  0  0  0  0  0  0  0  0  0
   -4.4110   -7.5857  -26.7967 H   0  0  0  0  0  0  0  0  0  0  0  0
   -3.7839   -5.7951  -25.1759 H   0  0  0  0  0  0  0  0  0  0  0  0
   -5.5493   -4.4949  -24.0265 H   0  0  0  0  0  0  0  0  0  0  0  0
   -8.0354   -3.1703  -24.2981 C   0  0  0  0  0  0  0  0  0  0  0  0
   -8.8582   -2.6050  -24.7505 H   0  0  0  0  0  0  0  0  0  0  0  0
   -7.0986   -2.8272  -24.7558 H   0  0  0  0  0  0  0  0  0  0  0  0
   -9.2263   -5.0167  -24.6010 H   0  0  0  0  0  0  0  0  0  0  0  0
   -8.9715   -5.0671  -22.1609 H   0  0  0  0  0  0  0  0  0  0  0  0
   -7.1965   -5.1492  -22.3148 H   0  0  0  0  0  0  0  0  0  0  0  0
   -6.8422   -2.5165  -22.0517 C   0  0  0  0  0  0  0  0  0  0  0  0
   -5.6807   -2.8072  -22.2307 O   0  0  0  0  0  0  0  0  0  0  0  0
   -7.3417   -1.5179  -21.2042 N   0  0  0  0  0  0  0  0  0  0  0  0
   -6.5850   -0.8597  -20.1854 C   0  0  0  0  0  0  0  0  0  0  0  0
   -6.9105   -1.0595  -18.8654 C   0  0  0  0  0  0  0  0  0  0  0  0
   -6.2174   -0.5417  -17.8220 N   0  0  0  0  0  0  0  0  0  0  0  0
   -5.1788    0.2065  -18.0949 C   0  0  0  0  0  0  0  0  0  0  0  0
   -4.7476    0.5245  -19.4098 C   0  0  0  0  0  0  0  0  0  0  0  0
   -3.6198    1.3596  -19.6360 C   0  0  0  0  0  0  0  0  0  0  0  0
   -3.2348    1.6663  -20.9098 C   0  0  0  0  0  0  0  0  0  0  0  0
   -3.9649    1.1520  -22.0054 C   0  0  0  0  0  0  0  0  0  0  0  0
   -5.0545    0.3395  -21.8125 C   0  0  0  0  0  0  0  0  0  0  0  0
   -5.4715   -0.0112  -20.4980 C   0  0  0  0  0  0  0  0  0  0  0  0
   -5.5997   -0.0523  -22.6648 H   0  0  0  0  0  0  0  0  0  0  0  0
   -3.6455    1.3972  -23.0120 H   0  0  0  0  0  0  0  0  0  0  0  0
   -2.3702    2.3011  -21.0912 H   0  0  0  0  0  0  0  0  0  0  0  0
   -3.0800    1.7516  -18.7791 H   0  0  0  0  0  0  0  0  0  0  0  0
   -4.6263    0.6080  -17.2465 H   0  0  0  0  0  0  0  0  0  0  0  0
   -7.7570   -1.6853  -18.5955 H   0  0  0  0  0  0  0  0  0  0  0  0
  -10.1034   -2.6115  -22.3579 H   0  0  0  0  0  0  0  0  0  0  0  0
  1  2  2  0
  2  3  1  0
  4  3  1  6
  4  5  1  0
  5  6  1  0
  6  7  1  0
  7  8  2  0
  8  9  1  0
  9 10  2  0
 10 11  1  0
 11 12  2  0
 12 13  1  0
 11 14  1  0
 10 15  1  0
  9 16  1  0
  8 17  1  0
  6 18  1  0
 18 19  1  0
 18 20  1  0
  6 21  1  1
  5 22  1  0
  5 23  1  0
  4 24  1  0
 24 25  2  0
 24 26  1  0
 26 27  1  0
 27 28  2  0
 28 29  1  0
 29 30  2  0
 30 31  1  0
 31 32  2  0
 32 33  1  0
 33 34  2  0
 34 35  1  0
 35 36  2  0
 35 37  1  0
 34 38  1  0
 33 39  1  0
 32 40  1  0
 30 41  1  0
 28 42  1  0
  3 43  1  0
 26  2  1  0
 36 27  1  0
 18  4  1  0
 36 31  1  0
 12  7  1  0
M  END
>  <cnnaffinities>  (72) 
[5.73394]

>  <score>  (72) 
5.73394

>  <index>  (72) 
74

>  <Smiles>  (72) 
O=C1N([C@]2(C([C@](c3c(c(c(c(c3Cl)[H])[H])[H])[H])(C2([H])[H])[H])([H])[H])C(=O)N1c1c(nc(c2c(c(c(c(c12)[H])[H])[H])[H])[H])[H])[H]

>  <h>  (72) 
<NA>

>  <Training>  (72) 
True

>  <Success>  (72) 
True

>  <enamine_searched>  (72) 
False

>  <enamine_id>  (72) 
nan

$$$$

     RDKit          3D

 66 71  0  0  0  0  0  0  0  0999 V2000
   -7.4545    3.2606  -21.8100 C   0  0  0  0  0  0  0  0  0  0  0  0
   -8.5366    2.8221  -22.6746 N   0  0  0  0  0  0  0  0  0  0  0  0
   -8.1797    2.0706  -23.7536 C   0  0  0  0  0  0  0  0  0  0  0  0
   -7.0149    1.8021  -24.0036 O   0  0  0  0  0  0  0  0  0  0  0  0
   -9.2866    1.5456  -24.6546 C   0  0  0  0  0  0  0  0  0  0  0  0
   -9.8339    0.3286  -24.0914 N   0  0  0  0  0  0  0  0  0  0  0  0
   -9.0332   -0.8884  -24.0512 C   0  0  0  0  0  0  0  0  0  0  0  0
   -9.2585   -1.6635  -22.7240 C   0  0  2  0  0  0  0  0  0  0  0  0
   -8.6563   -0.8458  -21.5489 C   0  0  0  0  0  0  0  0  0  0  0  0
   -9.1335    0.1415  -21.0228 O   0  0  0  0  0  0  0  0  0  0  0  0
   -7.4444   -1.4049  -21.1997 N   0  0  0  0  0  0  0  0  0  0  0  0
   -6.6345   -0.8308  -20.1843 C   0  0  0  0  0  0  0  0  0  0  0  0
   -6.9487   -1.0479  -18.8637 C   0  0  0  0  0  0  0  0  0  0  0  0
   -6.2450   -0.5605  -17.8139 N   0  0  0  0  0  0  0  0  0  0  0  0
   -5.1998    0.1839  -18.0843 C   0  0  0  0  0  0  0  0  0  0  0  0
   -4.7705    0.5077  -19.4021 C   0  0  0  0  0  0  0  0  0  0  0  0
   -3.6495    1.3488  -19.6327 C   0  0  0  0  0  0  0  0  0  0  0  0
   -3.2677    1.6584  -20.9092 C   0  0  0  0  0  0  0  0  0  0  0  0
   -3.9873    1.1455  -22.0095 C   0  0  0  0  0  0  0  0  0  0  0  0
   -5.0822    0.3332  -21.8136 C   0  0  0  0  0  0  0  0  0  0  0  0
   -5.5006   -0.0141  -20.4984 C   0  0  0  0  0  0  0  0  0  0  0  0
   -5.6549    0.0011  -22.6731 H   0  0  0  0  0  0  0  0  0  0  0  0
   -3.6708    1.3962  -23.0174 H   0  0  0  0  0  0  0  0  0  0  0  0
   -2.4052    2.2951  -21.0851 H   0  0  0  0  0  0  0  0  0  0  0  0
   -3.1107    1.7393  -18.7739 H   0  0  0  0  0  0  0  0  0  0  0  0
   -4.6323    0.5813  -17.2414 H   0  0  0  0  0  0  0  0  0  0  0  0
   -7.8125   -1.6601  -18.6182 H   0  0  0  0  0  0  0  0  0  0  0  0
   -7.0954   -2.5751  -21.9848 C   0  0  0  0  0  0  0  0  0  0  0  0
   -8.4272   -2.9732  -22.6378 C   0  0  2  0  0  0  0  0  0  0  0  0
   -8.2266   -3.7622  -23.9294 C   0  0  0  0  0  0  0  0  0  0  0  0
   -9.4711   -4.2757  -24.4421 N   0  0  0  0  0  0  0  0  0  0  0  0
   -9.5698   -4.9516  -25.6255 C   0  0  0  0  0  0  0  0  0  0  0  0
   -8.4493   -5.2115  -26.4567 C   0  0  0  0  0  0  0  0  0  0  0  0
   -8.5639   -5.8100  -27.6313 N   0  0  0  0  0  0  0  0  0  0  0  0
   -9.7946   -6.1744  -28.0029 C   0  0  0  0  0  0  0  0  0  0  0  0
  -10.8854   -5.9573  -27.1731 C   0  0  0  0  0  0  0  0  0  0  0  0
  -10.7859   -5.3693  -25.9816 N   0  0  0  0  0  0  0  0  0  0  0  0
  -11.8848   -6.2545  -27.4808 H   0  0  0  0  0  0  0  0  0  0  0  0
   -9.9018   -6.6428  -28.9775 H   0  0  0  0  0  0  0  0  0  0  0  0
   -7.4453   -4.9195  -26.1618 H   0  0  0  0  0  0  0  0  0  0  0  0
  -10.3579   -4.0335  -24.0133 H   0  0  0  0  0  0  0  0  0  0  0  0
   -7.5485   -4.6046  -23.7355 H   0  0  0  0  0  0  0  0  0  0  0  0
   -7.7374   -3.1255  -24.6868 H   0  0  0  0  0  0  0  0  0  0  0  0
   -8.9442   -3.6269  -21.9279 H   0  0  0  0  0  0  0  0  0  0  0  0
   -6.3275   -2.3458  -22.7412 H   0  0  0  0  0  0  0  0  0  0  0  0
   -6.7049   -3.3752  -21.3486 H   0  0  0  0  0  0  0  0  0  0  0  0
  -10.7595   -1.8425  -22.5506 C   0  0  0  0  0  0  0  0  0  0  0  0
  -11.3102   -2.8541  -21.7529 C   0  0  0  0  0  0  0  0  0  0  0  0
  -12.6515   -2.8106  -21.4167 C   0  0  0  0  0  0  0  0  0  0  0  0
  -13.2629   -3.8905  -20.2189 Cl  0  0  0  0  0  0  0  0  0  0  0  0
  -13.5225   -1.8541  -21.9243 C   0  0  0  0  0  0  0  0  0  0  0  0
  -13.0077   -0.8913  -22.7563 C   0  0  0  0  0  0  0  0  0  0  0  0
  -11.6488   -0.8790  -23.0516 C   0  0  0  0  0  0  0  0  0  0  0  0
  -11.1724    0.2986  -23.8298 C   0  0  0  0  0  0  0  0  0  0  0  0
  -11.9328    1.1952  -24.1743 O   0  0  0  0  0  0  0  0  0  0  0  0
  -13.6073   -0.0828  -23.1568 H   0  0  0  0  0  0  0  0  0  0  0  0
  -14.5633   -1.8618  -21.6248 H   0  0  0  0  0  0  0  0  0  0  0  0
  -10.7294   -3.6680  -21.3313 H   0  0  0  0  0  0  0  0  0  0  0  0
   -7.9792   -0.6155  -24.1710 H   0  0  0  0  0  0  0  0  0  0  0  0
   -9.3224   -1.5366  -24.8921 H   0  0  0  0  0  0  0  0  0  0  0  0
  -10.1144    2.2499  -24.7351 H   0  0  0  0  0  0  0  0  0  0  0  0
   -8.8829    1.3640  -25.6610 H   0  0  0  0  0  0  0  0  0  0  0  0
   -9.4540    2.7131  -22.2552 H   0  0  0  0  0  0  0  0  0  0  0  0
   -7.8774    3.7621  -20.9406 H   0  0  0  0  0  0  0  0  0  0  0  0
   -6.8532    2.3897  -21.5167 H   0  0  0  0  0  0  0  0  0  0  0  0
   -6.8182    3.9742  -22.3433 H   0  0  0  0  0  0  0  0  0  0  0  0
  1  2  1  0
  2  3  1  0
  3  4  2  0
  3  5  1  0
  5  6  1  0
  6  7  1  0
  8  7  1  6
  8  9  1  0
  9 10  2  0
  9 11  1  0
 11 12  1  0
 12 13  2  0
 13 14  1  0
 14 15  2  0
 15 16  1  0
 16 17  2  0
 17 18  1  0
 18 19  2  0
 19 20  1  0
 20 21  2  0
 20 22  1  0
 19 23  1  0
 18 24  1  0
 17 25  1  0
 15 26  1  0
 13 27  1  0
 11 28  1  0
 28 29  1  0
 29 30  1  0
 30 31  1  0
 31 32  1  0
 32 33  2  0
 33 34  1  0
 34 35  2  0
 35 36  1  0
 36 37  2  0
 36 38  1  0
 35 39  1  0
 33 40  1  0
 31 41  1  0
 30 42  1  0
 30 43  1  0
 29 44  1  1
 28 45  1  0
 28 46  1  0
  8 47  1  0
 47 48  2  0
 48 49  1  0
 49 50  1  0
 49 51  2  0
 51 52  1  0
 52 53  2  0
 53 54  1  0
 54 55  2  0
 52 56  1  0
 51 57  1  0
 48 58  1  0
  7 59  1  0
  7 60  1  0
  5 61  1  0
  5 62  1  0
  2 63  1  0
  1 64  1  0
  1 65  1  0
  1 66  1  0
 54  6  1  0
 29  8  1  0
 37 32  1  0
 53 47  1  0
 21 12  1  0
 21 16  1  0
M  END
>  <cnnaffinities>  (73) 
[6.36051, 6.6225]

>  <score>  (73) 
6.36051

>  <index>  (73) 
75

>  <Smiles>  (73) 
C(N(C(=O)C(N1C([C@@]2(C(=O)N(c3c(nc(c4c(c(c(c(c34)[H])[H])[H])[H])[H])[H])C([C@@]2(C(N(c2c(nc(c(n2)[H])[H])[H])[H])([H])[H])[H])([H])[H])c2c(c(Cl)c(c(c2C1=O)[H])[H])[H])([H])[H])([H])[H])[H])([H])([H])[H]

>  <h>  (73) 
<NA>

>  <Training>  (73) 
True

>  <Success>  (73) 
True

>  <enamine_searched>  (73) 
False

>  <enamine_id>  (73) 
nan

$$$$

     RDKit          3D

 66 71  0  0  0  0  0  0  0  0999 V2000
   -8.1902   -3.4740  -24.1047 C   0  0  0  0  0  0  0  0  0  0  0  0
   -8.4559   -2.7312  -22.7893 C   0  0  1  0  0  0  0  0  0  0  0  0
   -7.1794   -2.5251  -21.9480 C   0  0  0  0  0  0  0  0  0  0  0  0
   -7.4577   -1.3175  -21.1898 N   0  0  0  0  0  0  0  0  0  0  0  0
   -6.6164   -0.7940  -20.1655 C   0  0  0  0  0  0  0  0  0  0  0  0
   -6.9151   -1.0366  -18.8489 C   0  0  0  0  0  0  0  0  0  0  0  0
   -6.2026   -0.5533  -17.8028 N   0  0  0  0  0  0  0  0  0  0  0  0
   -5.1699    0.2064  -18.0755 C   0  0  0  0  0  0  0  0  0  0  0  0
   -4.7398    0.5381  -19.3924 C   0  0  0  0  0  0  0  0  0  0  0  0
   -3.6238    1.3845  -19.6392 C   0  0  0  0  0  0  0  0  0  0  0  0
   -3.2479    1.6857  -20.9202 C   0  0  0  0  0  0  0  0  0  0  0  0
   -3.9573    1.1445  -22.0133 C   0  0  0  0  0  0  0  0  0  0  0  0
   -5.0351    0.3151  -21.8012 C   0  0  0  0  0  0  0  0  0  0  0  0
   -5.4727    0.0071  -20.4819 C   0  0  0  0  0  0  0  0  0  0  0  0
   -5.5640   -0.1010  -22.6531 H   0  0  0  0  0  0  0  0  0  0  0  0
   -3.6430    1.3864  -23.0245 H   0  0  0  0  0  0  0  0  0  0  0  0
   -2.3970    2.3390  -21.1052 H   0  0  0  0  0  0  0  0  0  0  0  0
   -3.0856    1.7914  -18.7882 H   0  0  0  0  0  0  0  0  0  0  0  0
   -4.6173    0.6103  -17.2259 H   0  0  0  0  0  0  0  0  0  0  0  0
   -7.7688   -1.6609  -18.5929 H   0  0  0  0  0  0  0  0  0  0  0  0
   -8.5310   -0.5947  -21.6571 C   0  0  0  0  0  0  0  0  0  0  0  0
   -8.9152    0.4494  -21.1627 O   0  0  0  0  0  0  0  0  0  0  0  0
   -9.1189   -1.3220  -22.8887 C   0  0  1  0  0  0  0  0  0  0  0  0
   -8.7008   -0.5876  -24.1820 C   0  0  0  0  0  0  0  0  0  0  0  0
   -9.3103    0.7241  -24.2746 N   0  0  0  0  0  0  0  0  0  0  0  0
   -8.5082    1.7870  -24.8532 C   0  0  0  0  0  0  0  0  0  0  0  0
   -7.5610    2.4162  -23.8447 C   0  0  0  0  0  0  0  0  0  0  0  0
   -8.3060    3.2149  -22.8175 N   0  0  0  0  0  4  0  0  0  0  0  0
   -7.5105    3.3116  -21.5625 C   0  0  0  0  0  0  0  0  0  0  0  0
   -6.3713    4.2972  -21.6621 C   0  0  0  0  0  0  0  0  0  0  0  0
   -6.8237    5.5943  -21.9736 O   0  0  0  0  0  0  0  0  0  0  0  0
   -7.4555    5.5911  -23.2306 C   0  0  0  0  0  0  0  0  0  0  0  0
   -8.6583    4.6380  -23.2518 C   0  0  0  0  0  0  0  0  0  0  0  0
   -9.4078    5.0087  -22.5475 H   0  0  0  0  0  0  0  0  0  0  0  0
   -9.0810    4.6008  -24.2576 H   0  0  0  0  0  0  0  0  0  0  0  0
   -6.7252    5.3087  -24.0045 H   0  0  0  0  0  0  0  0  0  0  0  0
   -7.7792    6.6202  -23.4116 H   0  0  0  0  0  0  0  0  0  0  0  0
   -5.9613    4.3643  -20.6759 H   0  0  0  0  0  0  0  0  0  0  0  0
   -5.6064    3.9514  -22.3783 H   0  0  0  0  0  0  0  0  0  0  0  0
   -7.1427    2.3126  -21.3123 H   0  0  0  0  0  0  0  0  0  0  0  0
   -8.1620    3.6570  -20.7609 H   0  0  0  0  0  0  0  0  0  0  0  0
   -9.1678    2.6923  -22.5633 H   0  0  0  0  0  0  0  0  0  0  0  0
   -6.9900    1.6440  -23.3132 H   0  0  0  0  0  0  0  0  0  0  0  0
   -6.8429    3.0607  -24.3550 H   0  0  0  0  0  0  0  0  0  0  0  0
   -7.9220    1.3840  -25.6862 H   0  0  0  0  0  0  0  0  0  0  0  0
   -9.1993    2.5377  -25.2289 H   0  0  0  0  0  0  0  0  0  0  0  0
  -10.6544    0.8887  -24.0898 C   0  0  0  0  0  0  0  0  0  0  0  0
  -11.2355    1.9240  -24.3966 O   0  0  0  0  0  0  0  0  0  0  0  0
  -11.3589   -0.2597  -23.4175 C   0  0  0  0  0  0  0  0  0  0  0  0
  -12.7447   -0.2178  -23.2891 C   0  0  0  0  0  0  0  0  0  0  0  0
  -13.4180   -1.1505  -22.5208 C   0  0  0  0  0  0  0  0  0  0  0  0
  -12.6698   -2.1143  -21.8456 C   0  0  0  0  0  0  0  0  0  0  0  0
  -13.3285   -3.0323  -20.5179 Cl  0  0  0  0  0  0  0  0  0  0  0  0
  -11.3045   -2.2093  -22.0147 C   0  0  0  0  0  0  0  0  0  0  0  0
  -10.6305   -1.3036  -22.8282 C   0  0  0  0  0  0  0  0  0  0  0  0
  -10.7630   -2.9489  -21.4383 H   0  0  0  0  0  0  0  0  0  0  0  0
  -14.4947   -1.1202  -22.4018 H   0  0  0  0  0  0  0  0  0  0  0  0
  -13.2770    0.5948  -23.7660 H   0  0  0  0  0  0  0  0  0  0  0  0
   -7.6129   -0.4554  -24.2006 H   0  0  0  0  0  0  0  0  0  0  0  0
   -8.9956   -1.2070  -25.0470 H   0  0  0  0  0  0  0  0  0  0  0  0
   -6.9774   -3.3665  -21.2746 H   0  0  0  0  0  0  0  0  0  0  0  0
   -6.2963   -2.4093  -22.5962 H   0  0  0  0  0  0  0  0  0  0  0  0
   -9.1390   -3.3391  -22.1942 H   0  0  0  0  0  0  0  0  0  0  0  0
   -9.0985   -3.5772  -24.7107 H   0  0  0  0  0  0  0  0  0  0  0  0
   -7.4458   -2.9452  -24.7123 H   0  0  0  0  0  0  0  0  0  0  0  0
   -7.8007   -4.4827  -23.9179 H   0  0  0  0  0  0  0  0  0  0  0  0
  1  2  1  0
  2  3  1  0
  3  4  1  0
  4  5  1  0
  5  6  2  0
  6  7  1  0
  7  8  2  0
  8  9  1  0
  9 10  2  0
 10 11  1  0
 11 12  2  0
 12 13  1  0
 13 14  2  0
 13 15  1  0
 12 16  1  0
 11 17  1  0
 10 18  1  0
  8 19  1  0
  6 20  1  0
  4 21  1  0
 21 22  2  0
 21 23  1  0
 23 24  1  6
 24 25  1  0
 25 26  1  0
 26 27  1  0
 27 28  1  0
 28 29  1  0
 29 30  1  0
 30 31  1  0
 31 32  1  0
 32 33  1  0
 33 34  1  0
 33 35  1  0
 32 36  1  0
 32 37  1  0
 30 38  1  0
 30 39  1  0
 29 40  1  0
 29 41  1  0
 28 42  1  0
 27 43  1  0
 27 44  1  0
 26 45  1  0
 26 46  1  0
 25 47  1  0
 47 48  2  0
 47 49  1  0
 49 50  2  0
 50 51  1  0
 51 52  2  0
 52 53  1  0
 52 54  1  0
 54 55  2  0
 54 56  1  0
 51 57  1  0
 50 58  1  0
 24 59  1  0
 24 60  1  0
  3 61  1  0
  3 62  1  0
  2 63  1  1
  1 64  1  0
  1 65  1  0
  1 66  1  0
 23  2  1  0
 33 28  1  0
 55 49  1  0
 14  5  1  0
 55 23  1  0
 14  9  1  0
M  CHG  1  28   1
M  END
>  <cnnaffinities>  (74) 
[6.12468, 6.0765, 6.28788]

>  <score>  (74) 
6.12468

>  <index>  (74) 
76

>  <Smiles>  (74) 
C([C@]1(C(N(c2c(nc(c3c(c(c(c(c23)[H])[H])[H])[H])[H])[H])C(=O)[C@]21C(N(C(C([N+]1(C(C(OC(C1([H])[H])([H])[H])([H])[H])([H])[H])[H])([H])[H])([H])[H])C(=O)c1c(c(c(Cl)c(c21)[H])[H])[H])([H])[H])([H])[H])[H])([H])([H])[H]

>  <h>  (74) 
<NA>

>  <Training>  (74) 
True

>  <Success>  (74) 
True

>  <enamine_searched>  (74) 
False

>  <enamine_id>  (74) 
nan

$$$$

     RDKit          3D

 55 60  0  0  0  0  0  0  0  0999 V2000
  -10.3430   -1.0656  -23.3760 C   0  0  0  0  0  0  0  0  0  0  0  0
   -8.9114   -1.4415  -23.0102 C   0  0  1  0  0  0  0  0  0  0  0  0
   -8.3384   -0.5335  -21.9095 C   0  0  0  0  0  0  0  0  0  0  0  0
   -7.3622   -1.3856  -21.2545 N   0  0  0  0  0  0  0  0  0  0  0  0
   -6.5771   -0.8965  -20.1877 C   0  0  0  0  0  0  0  0  0  0  0  0
   -6.9055   -1.1580  -18.8825 C   0  0  0  0  0  0  0  0  0  0  0  0
   -6.2647   -0.6055  -17.8208 N   0  0  0  0  0  0  0  0  0  0  0  0
   -5.2552    0.1942  -18.0704 C   0  0  0  0  0  0  0  0  0  0  0  0
   -4.7901    0.5173  -19.3783 C   0  0  0  0  0  0  0  0  0  0  0  0
   -3.6714    1.3599  -19.6104 C   0  0  0  0  0  0  0  0  0  0  0  0
   -3.2771    1.6449  -20.8890 C   0  0  0  0  0  0  0  0  0  0  0  0
   -3.9729    1.1037  -21.9940 C   0  0  0  0  0  0  0  0  0  0  0  0
   -5.0479    0.2749  -21.7956 C   0  0  0  0  0  0  0  0  0  0  0  0
   -5.4784   -0.0325  -20.4782 C   0  0  0  0  0  0  0  0  0  0  0  0
   -5.5719   -0.1675  -22.6366 H   0  0  0  0  0  0  0  0  0  0  0  0
   -3.6457    1.3343  -23.0029 H   0  0  0  0  0  0  0  0  0  0  0  0
   -2.4164    2.2825  -21.0695 H   0  0  0  0  0  0  0  0  0  0  0  0
   -3.1377    1.7653  -18.7562 H   0  0  0  0  0  0  0  0  0  0  0  0
   -4.7428    0.6270  -17.2112 H   0  0  0  0  0  0  0  0  0  0  0  0
   -7.7321   -1.8257  -18.6453 H   0  0  0  0  0  0  0  0  0  0  0  0
   -7.5986   -2.7318  -21.4407 C   0  0  0  0  0  0  0  0  0  0  0  0
   -7.0187   -3.6204  -20.8464 O   0  0  0  0  0  0  0  0  0  0  0  0
   -8.7264   -2.9060  -22.4661 C   0  0  1  0  0  0  0  0  0  0  0  0
   -9.9633   -3.4021  -21.6730 C   0  0  0  0  0  0  0  0  0  0  0  0
  -11.0503   -3.8512  -22.5273 N   0  0  0  0  0  0  0  0  0  0  0  0
  -12.4403   -3.6473  -22.1454 C   0  0  0  0  0  0  0  0  0  0  0  0
  -13.1308   -2.5333  -22.8730 C   0  0  0  0  0  0  0  0  0  0  0  0
  -13.6904   -2.4978  -24.1044 C   0  0  0  0  0  0  0  0  0  0  0  0
  -14.4242   -1.3462  -24.2067 O   0  0  0  0  0  0  0  0  0  0  0  0
  -14.2479   -0.7391  -23.0193 C   0  0  0  0  0  0  0  0  0  0  0  0
  -13.4758   -1.3683  -22.1981 N   0  0  0  0  0  0  0  0  0  0  0  0
  -14.7380    0.2106  -22.8616 H   0  0  0  0  0  0  0  0  0  0  0  0
  -13.6651   -3.1311  -24.9778 H   0  0  0  0  0  0  0  0  0  0  0  0
  -12.5029   -3.3960  -21.0808 H   0  0  0  0  0  0  0  0  0  0  0  0
  -12.9831   -4.5766  -22.3641 H   0  0  0  0  0  0  0  0  0  0  0  0
  -10.8356   -4.5315  -23.6884 C   0  0  0  0  0  0  0  0  0  0  0  0
  -11.7593   -4.9274  -24.3951 O   0  0  0  0  0  0  0  0  0  0  0  0
   -9.4088   -4.7519  -24.0605 C   0  0  0  0  0  0  0  0  0  0  0  0
   -9.1237   -5.7510  -24.9927 C   0  0  0  0  0  0  0  0  0  0  0  0
   -7.8369   -5.9187  -25.4709 C   0  0  0  0  0  0  0  0  0  0  0  0
   -6.8522   -5.0552  -24.9973 C   0  0  0  0  0  0  0  0  0  0  0  0
   -5.6034   -5.1786  -25.4786 F   0  0  0  0  0  0  0  0  0  0  0  0
   -7.0940   -4.0989  -24.0256 C   0  0  0  0  0  0  0  0  0  0  0  0
   -8.3954   -3.9427  -23.5278 C   0  0  0  0  0  0  0  0  0  0  0  0
   -6.2627   -3.5223  -23.6295 H   0  0  0  0  0  0  0  0  0  0  0  0
   -7.5814   -6.6969  -26.1866 H   0  0  0  0  0  0  0  0  0  0  0  0
   -9.9311   -6.3953  -25.3331 H   0  0  0  0  0  0  0  0  0  0  0  0
  -10.3427   -2.5841  -21.0582 H   0  0  0  0  0  0  0  0  0  0  0  0
   -9.6374   -4.1909  -20.9885 H   0  0  0  0  0  0  0  0  0  0  0  0
   -9.1267   -0.2148  -21.2045 H   0  0  0  0  0  0  0  0  0  0  0  0
   -7.8723    0.3815  -22.2936 H   0  0  0  0  0  0  0  0  0  0  0  0
   -8.2625   -1.3666  -23.8932 H   0  0  0  0  0  0  0  0  0  0  0  0
  -10.4042   -0.1066  -23.8980 H   0  0  0  0  0  0  0  0  0  0  0  0
  -10.7941   -1.8324  -24.0118 H   0  0  0  0  0  0  0  0  0  0  0  0
  -10.9586   -0.9823  -22.4732 H   0  0  0  0  0  0  0  0  0  0  0  0
  1  2  1  0
  2  3  1  0
  3  4  1  0
  4  5  1  0
  5  6  2  0
  6  7  1  0
  7  8  2  0
  8  9  1  0
  9 10  2  0
 10 11  1  0
 11 12  2  0
 12 13  1  0
 13 14  2  0
 13 15  1  0
 12 16  1  0
 11 17  1  0
 10 18  1  0
  8 19  1  0
  6 20  1  0
  4 21  1  0
 21 22  2  0
 21 23  1  0
 23 24  1  1
 24 25  1  0
 25 26  1  0
 26 27  1  0
 27 28  2  0
 28 29  1  0
 29 30  1  0
 30 31  2  0
 30 32  1  0
 28 33  1  0
 26 34  1  0
 26 35  1  0
 25 36  1  0
 36 37  2  0
 36 38  1  0
 38 39  2  0
 39 40  1  0
 40 41  2  0
 41 42  1  0
 41 43  1  0
 43 44  2  0
 43 45  1  0
 40 46  1  0
 39 47  1  0
 24 48  1  0
 24 49  1  0
  3 50  1  0
  3 51  1  0
  2 52  1  6
  1 53  1  0
  1 54  1  0
  1 55  1  0
 23  2  1  0
 31 27  1  0
 44 38  1  0
 14  5  1  0
 44 23  1  0
 14  9  1  0
M  END
>  <cnnaffinities>  (75) 
[6.63057]

>  <score>  (75) 
6.63057

>  <index>  (75) 
77

>  <Smiles>  (75) 
C([C@]1(C(N(c2c(nc(c3c(c(c(c(c23)[H])[H])[H])[H])[H])[H])C(=O)[C@]21C(N(C(c1c(oc(n1)[H])[H])([H])[H])C(=O)c1c(c(c(F)c(c21)[H])[H])[H])([H])[H])([H])[H])[H])([H])([H])[H]

>  <h>  (75) 
<NA>

>  <Training>  (75) 
True

>  <Success>  (75) 
True

>  <enamine_searched>  (75) 
False

>  <enamine_id>  (75) 
nan

$$$$

     RDKit          3D

 56 60  0  0  0  0  0  0  0  0999 V2000
  -14.5392   -1.3819  -24.0946 C   0  0  0  0  0  0  0  0  0  0  0  0
  -13.6159   -2.4658  -23.8092 N   0  0  0  0  0  0  0  0  0  0  0  0
  -13.1143   -2.4923  -22.5488 C   0  0  0  0  0  0  0  0  0  0  0  0
  -13.2144   -1.5219  -21.8091 O   0  0  0  0  0  0  0  0  0  0  0  0
  -12.4619   -3.7788  -22.0657 C   0  0  0  0  0  0  0  0  0  0  0  0
  -11.0833   -3.8899  -22.5130 N   0  0  0  0  0  0  0  0  0  0  0  0
  -10.0083   -3.3535  -21.6851 C   0  0  0  0  0  0  0  0  0  0  0  0
   -8.7592   -2.8798  -22.4773 C   0  0  2  0  0  0  0  0  0  0  0  0
   -7.6262   -2.7362  -21.4400 C   0  0  0  0  0  0  0  0  0  0  0  0
   -7.0520   -3.6344  -20.8532 O   0  0  0  0  0  0  0  0  0  0  0  0
   -7.3532   -1.3986  -21.2515 N   0  0  0  0  0  0  0  0  0  0  0  0
   -6.5691   -0.9220  -20.1787 C   0  0  0  0  0  0  0  0  0  0  0  0
   -6.9004   -1.1823  -18.8737 C   0  0  0  0  0  0  0  0  0  0  0  0
   -6.2654   -0.6245  -17.8104 N   0  0  0  0  0  0  0  0  0  0  0  0
   -5.2604    0.1838  -18.0575 C   0  0  0  0  0  0  0  0  0  0  0  0
   -4.7929    0.5077  -19.3667 C   0  0  0  0  0  0  0  0  0  0  0  0
   -3.6832    1.3642  -19.6018 C   0  0  0  0  0  0  0  0  0  0  0  0
   -3.2903    1.6516  -20.8829 C   0  0  0  0  0  0  0  0  0  0  0  0
   -3.9791    1.1012  -21.9872 C   0  0  0  0  0  0  0  0  0  0  0  0
   -5.0445    0.2610  -21.7838 C   0  0  0  0  0  0  0  0  0  0  0  0
   -5.4744   -0.0505  -20.4658 C   0  0  0  0  0  0  0  0  0  0  0  0
   -5.5661   -0.1822  -22.6241 H   0  0  0  0  0  0  0  0  0  0  0  0
   -3.6542    1.3364  -22.9975 H   0  0  0  0  0  0  0  0  0  0  0  0
   -2.4327    2.2937  -21.0641 H   0  0  0  0  0  0  0  0  0  0  0  0
   -3.1504    1.7774  -18.7503 H   0  0  0  0  0  0  0  0  0  0  0  0
   -4.7591    0.6270  -17.1964 H   0  0  0  0  0  0  0  0  0  0  0  0
   -7.7220   -1.8583  -18.6422 H   0  0  0  0  0  0  0  0  0  0  0  0
   -8.3158   -0.5295  -21.8951 C   0  0  0  0  0  0  0  0  0  0  0  0
   -8.8870   -1.4077  -23.0161 C   0  0  2  0  0  0  0  0  0  0  0  0
  -10.2749   -0.9482  -23.4413 C   0  0  0  0  0  0  0  0  0  0  0  0
  -10.9478   -0.8598  -22.5799 H   0  0  0  0  0  0  0  0  0  0  0  0
  -10.2297    0.0370  -23.9140 H   0  0  0  0  0  0  0  0  0  0  0  0
  -10.7159   -1.6532  -24.1513 H   0  0  0  0  0  0  0  0  0  0  0  0
   -8.2035   -1.3472  -23.8740 H   0  0  0  0  0  0  0  0  0  0  0  0
   -7.8340    0.3846  -22.2589 H   0  0  0  0  0  0  0  0  0  0  0  0
   -9.0963   -0.2244  -21.1762 H   0  0  0  0  0  0  0  0  0  0  0  0
   -8.4350   -3.9220  -23.5391 C   0  0  0  0  0  0  0  0  0  0  0  0
   -7.1305   -4.0918  -24.0307 C   0  0  0  0  0  0  0  0  0  0  0  0
   -6.8708   -5.0569  -24.9932 C   0  0  0  0  0  0  0  0  0  0  0  0
   -5.2619   -5.2349  -25.6353 Cl  0  0  0  0  0  0  0  0  0  0  0  0
   -7.8736   -5.8978  -25.4771 C   0  0  0  0  0  0  0  0  0  0  0  0
   -9.1652   -5.7076  -25.0253 C   0  0  0  0  0  0  0  0  0  0  0  0
   -9.4459   -4.7237  -24.0826 C   0  0  0  0  0  0  0  0  0  0  0  0
  -10.8749   -4.5450  -23.6869 C   0  0  0  0  0  0  0  0  0  0  0  0
  -11.8023   -4.9518  -24.3834 O   0  0  0  0  0  0  0  0  0  0  0  0
   -9.9963   -6.3102  -25.3825 H   0  0  0  0  0  0  0  0  0  0  0  0
   -7.6379   -6.6873  -26.1836 H   0  0  0  0  0  0  0  0  0  0  0  0
   -6.3067   -3.5042  -23.6377 H   0  0  0  0  0  0  0  0  0  0  0  0
   -9.6614   -4.1056  -20.9704 H   0  0  0  0  0  0  0  0  0  0  0  0
  -10.4184   -2.5138  -21.1140 H   0  0  0  0  0  0  0  0  0  0  0  0
  -13.0081   -4.6393  -22.4667 H   0  0  0  0  0  0  0  0  0  0  0  0
  -12.5085   -3.7711  -20.9702 H   0  0  0  0  0  0  0  0  0  0  0  0
  -13.3940   -3.1957  -24.4662 H   0  0  0  0  0  0  0  0  0  0  0  0
  -14.0329   -0.4217  -23.9569 H   0  0  0  0  0  0  0  0  0  0  0  0
  -14.9325   -1.4491  -25.1140 H   0  0  0  0  0  0  0  0  0  0  0  0
  -15.3398   -1.4314  -23.3467 H   0  0  0  0  0  0  0  0  0  0  0  0
  1  2  1  0
  2  3  1  0
  3  4  2  0
  3  5  1  0
  5  6  1  0
  6  7  1  0
  8  7  1  1
  8  9  1  0
  9 10  2  0
  9 11  1  0
 11 12  1  0
 12 13  2  0
 13 14  1  0
 14 15  2  0
 15 16  1  0
 16 17  2  0
 17 18  1  0
 18 19  2  0
 19 20  1  0
 20 21  2  0
 20 22  1  0
 19 23  1  0
 18 24  1  0
 17 25  1  0
 15 26  1  0
 13 27  1  0
 11 28  1  0
 28 29  1  0
 29 30  1  0
 30 31  1  0
 30 32  1  0
 30 33  1  0
 29 34  1  6
 28 35  1  0
 28 36  1  0
  8 37  1  0
 37 38  2  0
 38 39  1  0
 39 40  1  0
 39 41  2  0
 41 42  1  0
 42 43  2  0
 43 44  1  0
 44 45  2  0
 42 46  1  0
 41 47  1  0
 38 48  1  0
  7 49  1  0
  7 50  1  0
  5 51  1  0
  5 52  1  0
  2 53  1  0
  1 54  1  0
  1 55  1  0
  1 56  1  0
 44  6  1  0
 29  8  1  0
 43 37  1  0
 21 12  1  0
 21 16  1  0
M  END
>  <cnnaffinities>  (76) 
[6.45394]

>  <score>  (76) 
6.45394

>  <index>  (76) 
78

>  <Smiles>  (76) 
C(N(C(=O)C(N1C([C@@]2(C(=O)N(c3c(nc(c4c(c(c(c(c34)[H])[H])[H])[H])[H])[H])C([C@@]2(C([H])([H])[H])[H])([H])[H])c2c(c(Cl)c(c(c2C1=O)[H])[H])[H])([H])[H])([H])[H])[H])([H])([H])[H]

>  <h>  (76) 
<NA>

>  <Training>  (76) 
True

>  <Success>  (76) 
True

>  <enamine_searched>  (76) 
False

>  <enamine_id>  (76) 
nan

$$$$

     RDKit          3D

 45 49  0  0  0  0  0  0  0  0999 V2000
  -10.5622   -2.6409  -22.3027 C   0  0  0  0  0  0  0  0  0  0  0  0
   -9.1600   -2.3938  -22.0277 N   0  0  0  0  0  0  0  0  0  0  0  0
   -8.7254   -1.2874  -21.3560 C   0  0  0  0  0  0  0  0  0  0  0  0
   -9.3801   -0.3453  -20.9625 O   0  0  0  0  0  0  0  0  0  0  0  0
   -7.3312   -1.4322  -21.2148 N   0  0  0  0  0  0  0  0  0  0  0  0
   -6.5944   -0.7961  -20.1789 C   0  0  0  0  0  0  0  0  0  0  0  0
   -6.9381   -1.0114  -18.8680 C   0  0  0  0  0  0  0  0  0  0  0  0
   -6.2546   -0.5157  -17.8072 N   0  0  0  0  0  0  0  0  0  0  0  0
   -5.2058    0.2275  -18.0647 C   0  0  0  0  0  0  0  0  0  0  0  0
   -4.7586    0.5516  -19.3775 C   0  0  0  0  0  0  0  0  0  0  0  0
   -3.6254    1.3778  -19.6024 C   0  0  0  0  0  0  0  0  0  0  0  0
   -3.2415    1.6864  -20.8778 C   0  0  0  0  0  0  0  0  0  0  0  0
   -3.9630    1.1870  -21.9851 C   0  0  0  0  0  0  0  0  0  0  0  0
   -5.0564    0.3803  -21.7954 C   0  0  0  0  0  0  0  0  0  0  0  0
   -5.4749    0.0368  -20.4792 C   0  0  0  0  0  0  0  0  0  0  0  0
   -5.6089   -0.0038  -22.6473 H   0  0  0  0  0  0  0  0  0  0  0  0
   -3.6409    1.4404  -22.9910 H   0  0  0  0  0  0  0  0  0  0  0  0
   -2.3744    2.3170  -21.0537 H   0  0  0  0  0  0  0  0  0  0  0  0
   -3.0802    1.7602  -18.7440 H   0  0  0  0  0  0  0  0  0  0  0  0
   -4.6522    0.6155  -17.2089 H   0  0  0  0  0  0  0  0  0  0  0  0
   -7.7996   -1.6316  -18.6307 H   0  0  0  0  0  0  0  0  0  0  0  0
   -6.8580   -2.5227  -21.9446 C   0  0  0  0  0  0  0  0  0  0  0  0
   -5.7088   -2.8861  -22.0323 O   0  0  0  0  0  0  0  0  0  0  0  0
   -8.0699   -3.1469  -22.5976 C   0  0  0  0  0  0  0  0  0  0  0  0
   -8.1038   -4.6875  -22.5569 C   0  0  0  0  0  0  0  0  0  0  0  0
   -8.1092   -4.7137  -24.0509 N   0  0  0  0  0  0  0  0  0  0  0  0
   -9.2034   -5.5834  -24.9381 S   0  0  0  0  0  0  0  0  0  0  0  0
   -8.9520   -7.0106  -24.9096 O   0  0  0  0  0  0  0  0  0  0  0  0
  -10.5103   -4.9600  -25.1177 O   0  0  0  0  0  0  0  0  0  0  0  0
   -8.6333   -5.3938  -27.6162 C   0  0  0  0  0  0  0  0  0  0  0  0
   -9.6039   -6.0511  -28.1741 C   0  0  0  0  0  0  0  0  0  0  0  0
   -8.4272   -5.3109  -27.7724 C   0  0  0  0  0  0  0  0  0  0  0  0
   -8.6958   -4.3600  -27.0113 H   0  0  0  0  0  0  0  0  0  0  0  0
   -7.4344   -4.4943  -28.7382 H   0  0  0  0  0  0  0  0  0  0  0  0
   -9.8230   -6.6603  -29.0798 H   0  0  0  0  0  0  0  0  0  0  0  0
  -10.0809   -5.9297  -27.3054 H   0  0  0  0  0  0  0  0  0  0  0  0
   -7.6594   -5.7984  -26.9208 H   0  0  0  0  0  0  0  0  0  0  0  0
   -8.0310   -3.2403  -24.1362 C   0  0  0  0  0  0  0  0  0  0  0  0
   -7.0813   -2.9083  -24.5649 H   0  0  0  0  0  0  0  0  0  0  0  0
   -8.8757   -2.7409  -24.6229 H   0  0  0  0  0  0  0  0  0  0  0  0
   -7.1761   -5.1184  -22.1714 H   0  0  0  0  0  0  0  0  0  0  0  0
   -8.9741   -5.1361  -22.0708 H   0  0  0  0  0  0  0  0  0  0  0  0
  -11.0130   -1.7783  -22.8015 H   0  0  0  0  0  0  0  0  0  0  0  0
  -11.1065   -2.8231  -21.3738 H   0  0  0  0  0  0  0  0  0  0  0  0
  -10.6602   -3.5192  -22.9477 H   0  0  0  0  0  0  0  0  0  0  0  0
  1  2  1  0
  2  3  1  0
  3  4  2  0
  3  5  1  0
  5  6  1  0
  6  7  2  0
  7  8  1  0
  8  9  2  0
  9 10  1  0
 10 11  2  0
 11 12  1  0
 12 13  2  0
 13 14  1  0
 14 15  2  0
 14 16  1  0
 13 17  1  0
 12 18  1  0
 11 19  1  0
  9 20  1  0
  7 21  1  0
  5 22  1  0
 22 23  2  0
 22 24  1  0
 24 25  1  0
 25 26  1  0
 26 27  1  0
 27 28  2  0
 27 29  2  0
 27 30  1  0
 30 31  1  0
 31 32  1  0
 32 33  1  0
 32 34  1  0
 31 35  1  0
 31 36  1  0
 30 37  1  0
 26 38  1  0
 38 39  1  0
 38 40  1  0
 25 41  1  0
 25 42  1  0
  1 43  1  0
  1 44  1  0
  1 45  1  0
 24  2  1  0
 32 30  1  0
 15  6  1  0
 38 24  1  0
 15 10  1  0
M  END
>  <cnnaffinities>  (77) 
[5.06274]

>  <score>  (77) 
5.06274

>  <index>  (77) 
79

>  <Smiles>  (77) 
C(N1C(=O)N(c2c(nc(c3c(c(c(c(c23)[H])[H])[H])[H])[H])[H])C(=O)C21C(N(S(=O)(=O)C1(C(C1([H])[H])([H])[H])[H])C2([H])[H])([H])[H])([H])([H])[H]

>  <h>  (77) 
<NA>

>  <Training>  (77) 
True

>  <Success>  (77) 
True

>  <enamine_searched>  (77) 
False

>  <enamine_id>  (77) 
nan

$$$$

     RDKit          3D

 60 65  0  0  0  0  0  0  0  0999 V2000
   -7.2222    2.7480  -28.5801 C   0  0  0  0  0  0  0  0  0  0  0  0
   -7.4853    2.6713  -27.1600 N   0  0  0  0  0  0  0  0  0  0  0  0
   -8.1692    1.6197  -26.6284 C   0  0  0  0  0  0  0  0  0  0  0  0
   -8.5809    0.7085  -27.3271 O   0  0  0  0  0  0  0  0  0  0  0  0
   -8.3880    1.6334  -25.1301 C   0  0  0  0  0  0  0  0  0  0  0  0
   -9.0990    0.5070  -24.6001 N   0  0  0  0  0  0  0  0  0  0  0  0
   -8.3882   -0.7299  -24.3616 C   0  0  0  0  0  0  0  0  0  0  0  0
   -8.8558   -1.4261  -23.0550 C   0  0  2  0  0  0  0  0  0  0  0  0
   -8.3662   -0.6549  -21.8111 C   0  0  0  0  0  0  0  0  0  0  0  0
   -8.7389    0.4284  -21.4123 O   0  0  0  0  0  0  0  0  0  0  0  0
   -7.3937   -1.3987  -21.1873 N   0  0  0  0  0  0  0  0  0  0  0  0
   -6.5967   -0.8258  -20.1648 C   0  0  0  0  0  0  0  0  0  0  0  0
   -6.9116   -1.0526  -18.8502 C   0  0  0  0  0  0  0  0  0  0  0  0
   -6.2163   -0.5480  -17.7991 N   0  0  0  0  0  0  0  0  0  0  0  0
   -5.1800    0.2072  -18.0736 C   0  0  0  0  0  0  0  0  0  0  0  0
   -4.7485    0.5270  -19.3940 C   0  0  0  0  0  0  0  0  0  0  0  0
   -3.6237    1.3604  -19.6334 C   0  0  0  0  0  0  0  0  0  0  0  0
   -3.2342    1.6518  -20.9118 C   0  0  0  0  0  0  0  0  0  0  0  0
   -3.9425    1.1148  -22.0116 C   0  0  0  0  0  0  0  0  0  0  0  0
   -5.0254    0.2947  -21.8068 C   0  0  0  0  0  0  0  0  0  0  0  0
   -5.4675   -0.0073  -20.4837 C   0  0  0  0  0  0  0  0  0  0  0  0
   -5.5402   -0.1284  -22.6650 H   0  0  0  0  0  0  0  0  0  0  0  0
   -3.6193    1.3487  -23.0227 H   0  0  0  0  0  0  0  0  0  0  0  0
   -2.3731    2.2899  -21.0939 H   0  0  0  0  0  0  0  0  0  0  0  0
   -3.0866    1.7599  -18.7785 H   0  0  0  0  0  0  0  0  0  0  0  0
   -4.6168    0.6077  -17.2307 H   0  0  0  0  0  0  0  0  0  0  0  0
   -7.7765   -1.6668  -18.6019 H   0  0  0  0  0  0  0  0  0  0  0  0
   -7.0584   -2.6306  -21.8648 C   0  0  0  0  0  0  0  0  0  0  0  0
   -8.2186   -2.8295  -22.8521 C   0  0  2  0  0  0  0  0  0  0  0  0
   -7.8063   -3.5992  -24.1062 C   0  0  0  0  0  0  0  0  0  0  0  0
   -7.0112   -3.0662  -24.6407 H   0  0  0  0  0  0  0  0  0  0  0  0
   -8.6441   -3.7424  -24.8007 H   0  0  0  0  0  0  0  0  0  0  0  0
   -7.4209   -4.5934  -23.8476 H   0  0  0  0  0  0  0  0  0  0  0  0
   -8.9811   -3.4226  -22.3485 H   0  0  0  0  0  0  0  0  0  0  0  0
   -6.9702   -3.4475  -21.1389 H   0  0  0  0  0  0  0  0  0  0  0  0
   -6.1030   -2.5431  -22.4025 H   0  0  0  0  0  0  0  0  0  0  0  0
  -10.3658   -1.4669  -23.0290 C   0  0  0  0  0  0  0  0  0  0  0  0
  -11.0338   -2.2656  -22.0912 C   0  0  0  0  0  0  0  0  0  0  0  0
  -12.4118   -2.2258  -22.0015 C   0  0  0  0  0  0  0  0  0  0  0  0
  -13.1825   -3.0560  -20.6741 Cl  0  0  0  0  0  0  0  0  0  0  0  0
  -13.1731   -1.4373  -22.8698 C   0  0  0  0  0  0  0  0  0  0  0  0
  -12.5154   -0.6050  -23.7533 C   0  0  0  0  0  0  0  0  0  0  0  0
  -11.1199   -0.5867  -23.7975 C   0  0  0  0  0  0  0  0  0  0  0  0
  -10.4713    0.5273  -24.5450 C   0  0  0  0  0  0  0  0  0  0  0  0
  -11.1376    1.4462  -24.9776 O   0  0  0  0  0  0  0  0  0  0  0  0
  -13.0545    0.0903  -24.3892 H   0  0  0  0  0  0  0  0  0  0  0  0
  -14.2555   -1.4584  -22.8012 H   0  0  0  0  0  0  0  0  0  0  0  0
  -10.4843   -2.8921  -21.3980 H   0  0  0  0  0  0  0  0  0  0  0  0
   -7.3227   -0.5038  -24.3209 H   0  0  0  0  0  0  0  0  0  0  0  0
   -8.5582   -1.4044  -25.2093 H   0  0  0  0  0  0  0  0  0  0  0  0
   -7.2863    2.1828  -24.2374 C   0  0  0  0  0  0  0  0  0  0  0  0
   -8.5608    2.9425  -24.4029 C   0  0  0  0  0  0  0  0  0  0  0  0
   -8.5883    3.8599  -24.9832 H   0  0  0  0  0  0  0  0  0  0  0  0
   -9.2566    2.9140  -23.5713 H   0  0  0  0  0  0  0  0  0  0  0  0
   -6.3676    2.5370  -24.6951 H   0  0  0  0  0  0  0  0  0  0  0  0
   -7.1590    1.6629  -23.2937 H   0  0  0  0  0  0  0  0  0  0  0  0
   -7.1061    3.3852  -26.5658 H   0  0  0  0  0  0  0  0  0  0  0  0
   -8.1563    2.7655  -29.1443 H   0  0  0  0  0  0  0  0  0  0  0  0
   -6.6591    3.6581  -28.7946 H   0  0  0  0  0  0  0  0  0  0  0  0
   -6.6469    1.8844  -28.9199 H   0  0  0  0  0  0  0  0  0  0  0  0
  1  2  1  0
  2  3  1  0
  3  4  2  0
  3  5  1  0
  5  6  1  0
  6  7  1  0
  8  7  1  6
  8  9  1  0
  9 10  2  0
  9 11  1  0
 11 12  1  0
 12 13  2  0
 13 14  1  0
 14 15  2  0
 15 16  1  0
 16 17  2  0
 17 18  1  0
 18 19  2  0
 19 20  1  0
 20 21  2  0
 20 22  1  0
 19 23  1  0
 18 24  1  0
 17 25  1  0
 15 26  1  0
 13 27  1  0
 11 28  1  0
 28 29  1  0
 29 30  1  0
 30 31  1  0
 30 32  1  0
 30 33  1  0
 29 34  1  1
 28 35  1  0
 28 36  1  0
  8 37  1  0
 37 38  2  0
 38 39  1  0
 39 40  1  0
 39 41  2  0
 41 42  1  0
 42 43  2  0
 43 44  1  0
 44 45  2  0
 42 46  1  0
 41 47  1  0
 38 48  1  0
  7 49  1  0
  7 50  1  0
  5 51  1  0
 51 52  1  0
 52 53  1  0
 52 54  1  0
 51 55  1  0
 51 56  1  0
  2 57  1  0
  1 58  1  0
  1 59  1  0
  1 60  1  0
 52  5  1  0
 44  6  1  0
 29  8  1  0
 43 37  1  0
 21 12  1  0
 21 16  1  0
M  END
>  <cnnaffinities>  (78) 
[5.77666, 6.25395, 5.87585, 5.79309]

>  <score>  (78) 
5.77666

>  <index>  (78) 
80

>  <Smiles>  (78) 
C(N(C(=O)C1(N2C([C@@]3(C(=O)N(c4c(nc(c5c(c(c(c(c45)[H])[H])[H])[H])[H])[H])C([C@@]3(C([H])([H])[H])[H])([H])[H])c3c(c(Cl)c(c(c3C2=O)[H])[H])[H])([H])[H])C(C1([H])[H])([H])[H])[H])([H])([H])[H]

>  <h>  (78) 
<NA>

>  <Training>  (78) 
True

>  <Success>  (78) 
True

>  <enamine_searched>  (78) 
False

>  <enamine_id>  (78) 
nan

$$$$

     RDKit          3D

 36 38  0  0  0  0  0  0  0  0999 V2000
   -8.5014    0.7123  -21.4648 O   0  0  0  0  0  0  0  0  0  0  0  0
   -8.3862   -0.4024  -21.9322 C   0  0  0  0  0  0  0  0  0  0  0  0
   -7.4391   -1.4334  -21.2741 C   0  0  0  0  0  0  0  0  0  0  0  0
   -6.5821   -0.8287  -20.1824 C   0  0  0  0  0  0  0  0  0  0  0  0
   -6.8798   -1.0390  -18.8605 C   0  0  0  0  0  0  0  0  0  0  0  0
   -6.1959   -0.5333  -17.7973 N   0  0  0  0  0  0  0  0  0  0  0  0
   -5.1573    0.2205  -18.0642 C   0  0  0  0  0  0  0  0  0  0  0  0
   -4.7255    0.5346  -19.3807 C   0  0  0  0  0  0  0  0  0  0  0  0
   -3.6010    1.3673  -19.6202 C   0  0  0  0  0  0  0  0  0  0  0  0
   -3.2166    1.6643  -20.9000 C   0  0  0  0  0  0  0  0  0  0  0  0
   -3.9405    1.1362  -21.9924 C   0  0  0  0  0  0  0  0  0  0  0  0
   -5.0297    0.3241  -21.7868 C   0  0  0  0  0  0  0  0  0  0  0  0
   -5.4556    0.0012  -20.4718 C   0  0  0  0  0  0  0  0  0  0  0  0
   -5.5768   -0.0681  -22.6373 H   0  0  0  0  0  0  0  0  0  0  0  0
   -3.6206    1.3718  -23.0022 H   0  0  0  0  0  0  0  0  0  0  0  0
   -2.3538    2.2986  -21.0880 H   0  0  0  0  0  0  0  0  0  0  0  0
   -3.0553    1.7736  -18.7720 H   0  0  0  0  0  0  0  0  0  0  0  0
   -4.6014    0.6262  -17.2163 H   0  0  0  0  0  0  0  0  0  0  0  0
   -7.7294   -1.6600  -18.5844 H   0  0  0  0  0  0  0  0  0  0  0  0
   -6.8030   -1.8991  -22.0394 H   0  0  0  0  0  0  0  0  0  0  0  0
   -8.0417   -2.2459  -20.8438 H   0  0  0  0  0  0  0  0  0  0  0  0
   -9.0613   -0.7711  -23.0896 N   0  0  0  0  0  0  0  0  0  0  0  0
  -10.0060    0.1969  -23.6438 C   0  0  0  0  0  0  0  0  0  0  0  0
  -11.3799    0.2177  -23.0250 C   0  0  0  0  0  0  0  0  0  0  0  0
  -12.0237   -0.7940  -22.4356 C   0  0  0  0  0  0  0  0  0  0  0  0
  -11.5728   -2.1778  -22.1692 C   0  0  0  0  0  0  0  0  0  0  0  0
  -10.4459   -2.7820  -22.5537 C   0  0  0  0  0  0  0  0  0  0  0  0
   -9.3676   -2.1606  -23.4056 C   0  0  0  0  0  0  0  0  0  0  0  0
   -8.4501   -2.7538  -23.3603 H   0  0  0  0  0  0  0  0  0  0  0  0
   -9.6860   -2.1775  -24.4544 H   0  0  0  0  0  0  0  0  0  0  0  0
  -10.2828   -3.8155  -22.2439 H   0  0  0  0  0  0  0  0  0  0  0  0
  -12.2774   -2.7627  -21.5792 H   0  0  0  0  0  0  0  0  0  0  0  0
  -13.0191   -0.5817  -22.0476 H   0  0  0  0  0  0  0  0  0  0  0  0
  -11.8935    1.1809  -23.0824 H   0  0  0  0  0  0  0  0  0  0  0  0
  -10.1149   -0.0408  -24.7087 H   0  0  0  0  0  0  0  0  0  0  0  0
   -9.5578    1.1926  -23.5966 H   0  0  0  0  0  0  0  0  0  0  0  0
  1  2  2  0
  2  3  1  0
  3  4  1  0
  4  5  2  0
  5  6  1  0
  6  7  2  0
  7  8  1  0
  8  9  2  0
  9 10  1  0
 10 11  2  0
 11 12  1  0
 12 13  2  0
 12 14  1  0
 11 15  1  0
 10 16  1  0
  9 17  1  0
  7 18  1  0
  5 19  1  0
  3 20  1  0
  3 21  1  0
  2 22  1  0
 22 23  1  0
 23 24  1  0
 24 25  2  0
 25 26  1  0
 26 27  2  0
 27 28  1  0
 28 29  1  0
 28 30  1  0
 27 31  1  0
 26 32  1  0
 25 33  1  0
 24 34  1  0
 23 35  1  0
 23 36  1  0
 13  4  1  0
 28 22  1  0
 13  8  1  0
M  END
>  <cnnaffinities>  (79) 
[4.59494, 4.59485]

>  <score>  (79) 
4.59494

>  <index>  (79) 
81

>  <Smiles>  (79) 
O=C(C(c1c(nc(c2c(c(c(c(c12)[H])[H])[H])[H])[H])[H])([H])[H])N1C(C(=C(C(=C(C1([H])[H])[H])[H])[H])[H])([H])[H]

>  <h>  (79) 
<NA>

>  <Training>  (79) 
True

>  <Success>  (79) 
True

>  <enamine_searched>  (79) 
False

>  <enamine_id>  (79) 
nan

$$$$

     RDKit          3D

 54 57  0  0  0  0  0  0  0  0999 V2000
  -10.7328    0.3836  -25.3968 C   0  0  0  0  0  0  0  0  0  0  0  0
   -9.8357   -0.6012  -24.9277 O   0  0  0  0  0  0  0  0  0  0  0  0
   -8.5014   -0.5203  -25.2213 C   0  0  0  0  0  0  0  0  0  0  0  0
   -7.9450    0.5085  -25.9874 C   0  0  0  0  0  0  0  0  0  0  0  0
   -6.5732    0.5270  -26.2377 C   0  0  0  0  0  0  0  0  0  0  0  0
   -5.7486   -0.4650  -25.7282 C   0  0  0  0  0  0  0  0  0  0  0  0
   -6.3159   -1.4735  -24.9547 C   0  0  0  0  0  0  0  0  0  0  0  0
   -7.6791   -1.5418  -24.6902 C   0  0  0  0  0  0  0  0  0  0  0  0
   -8.2984   -2.6705  -23.8508 C   0  0  1  0  0  0  0  0  0  0  0  0
   -9.1399   -3.6539  -24.6918 C   0  0  0  0  0  0  0  0  0  0  0  0
   -8.4101   -4.8645  -25.2725 C   0  0  1  0  0  0  0  0  0  0  0  0
   -7.5081   -4.5374  -26.4629 C   0  0  0  0  0  0  0  0  0  0  0  0
   -6.6824   -3.8743  -26.1902 H   0  0  0  0  0  0  0  0  0  0  0  0
   -7.0749   -5.4496  -26.8905 H   0  0  0  0  0  0  0  0  0  0  0  0
   -8.0714   -4.0323  -27.2548 H   0  0  0  0  0  0  0  0  0  0  0  0
   -7.6723   -5.5500  -24.1296 C   0  0  0  0  0  0  0  0  0  0  0  0
   -6.7091   -4.6180  -23.4099 C   0  0  0  0  0  0  0  0  0  0  0  0
   -7.3469   -3.3676  -22.9712 N   0  0  0  0  0  0  0  0  0  0  0  0
   -6.7450   -2.7424  -21.8862 C   0  0  0  0  0  0  0  0  0  0  0  0
   -5.7264   -3.1934  -21.3916 O   0  0  0  0  0  0  0  0  0  0  0  0
   -7.4025   -1.4745  -21.2811 C   0  0  0  0  0  0  0  0  0  0  0  0
   -6.5763   -0.8364  -20.1842 C   0  0  0  0  0  0  0  0  0  0  0  0
   -6.8727   -1.0485  -18.8631 C   0  0  0  0  0  0  0  0  0  0  0  0
   -6.1926   -0.5388  -17.7979 N   0  0  0  0  0  0  0  0  0  0  0  0
   -5.1592    0.2206  -18.0654 C   0  0  0  0  0  0  0  0  0  0  0  0
   -4.7222    0.5293  -19.3804 C   0  0  0  0  0  0  0  0  0  0  0  0
   -3.5970    1.3584  -19.6218 C   0  0  0  0  0  0  0  0  0  0  0  0
   -3.2029    1.6411  -20.8993 C   0  0  0  0  0  0  0  0  0  0  0  0
   -3.9170    1.0991  -21.9924 C   0  0  0  0  0  0  0  0  0  0  0  0
   -5.0073    0.2888  -21.7899 C   0  0  0  0  0  0  0  0  0  0  0  0
   -5.4458   -0.0147  -20.4756 C   0  0  0  0  0  0  0  0  0  0  0  0
   -5.5413   -0.1220  -22.6449 H   0  0  0  0  0  0  0  0  0  0  0  0
   -3.5836    1.3192  -23.0018 H   0  0  0  0  0  0  0  0  0  0  0  0
   -2.3338    2.2694  -21.0883 H   0  0  0  0  0  0  0  0  0  0  0  0
   -3.0555    1.7703  -18.7718 H   0  0  0  0  0  0  0  0  0  0  0  0
   -4.6040    0.6269  -17.2153 H   0  0  0  0  0  0  0  0  0  0  0  0
   -7.7208   -1.6720  -18.5848 H   0  0  0  0  0  0  0  0  0  0  0  0
   -7.6272   -0.7402  -22.0672 H   0  0  0  0  0  0  0  0  0  0  0  0
   -8.3735   -1.7761  -20.8618 H   0  0  0  0  0  0  0  0  0  0  0  0
   -6.3152   -5.1109  -22.5198 H   0  0  0  0  0  0  0  0  0  0  0  0
   -5.8296   -4.4359  -24.0464 H   0  0  0  0  0  0  0  0  0  0  0  0
   -8.4011   -5.9319  -23.4091 H   0  0  0  0  0  0  0  0  0  0  0  0
   -7.1265   -6.4211  -24.5075 H   0  0  0  0  0  0  0  0  0  0  0  0
   -9.1801   -5.5583  -25.6453 H   0  0  0  0  0  0  0  0  0  0  0  0
   -9.6128   -3.0896  -25.4957 H   0  0  0  0  0  0  0  0  0  0  0  0
   -9.9589   -4.0200  -24.0610 H   0  0  0  0  0  0  0  0  0  0  0  0
   -9.0172   -2.1798  -23.1889 H   0  0  0  0  0  0  0  0  0  0  0  0
   -5.6675   -2.2503  -24.5665 H   0  0  0  0  0  0  0  0  0  0  0  0
   -4.6764   -0.4615  -25.9163 H   0  0  0  0  0  0  0  0  0  0  0  0
   -6.1414    1.3283  -26.8289 H   0  0  0  0  0  0  0  0  0  0  0  0
   -8.5709    1.3015  -26.3900 H   0  0  0  0  0  0  0  0  0  0  0  0
  -11.7130    0.0930  -25.0252 H   0  0  0  0  0  0  0  0  0  0  0  0
  -10.7942    0.4357  -26.4910 H   0  0  0  0  0  0  0  0  0  0  0  0
  -10.5199    1.3868  -25.0090 H   0  0  0  0  0  0  0  0  0  0  0  0
  1  2  1  0
  2  3  1  0
  3  4  2  0
  4  5  1  0
  5  6  2  0
  6  7  1  0
  7  8  2  0
  8  9  1  0
  9 10  1  0
 10 11  1  0
 11 12  1  0
 12 13  1  0
 12 14  1  0
 12 15  1  0
 11 16  1  0
 16 17  1  0
 17 18  1  0
 18 19  1  0
 19 20  2  0
 19 21  1  0
 21 22  1  0
 22 23  2  0
 23 24  1  0
 24 25  2  0
 25 26  1  0
 26 27  2  0
 27 28  1  0
 28 29  2  0
 29 30  1  0
 30 31  2  0
 30 32  1  0
 29 33  1  0
 28 34  1  0
 27 35  1  0
 25 36  1  0
 23 37  1  0
 21 38  1  0
 21 39  1  0
 17 40  1  0
 17 41  1  0
 16 42  1  0
 16 43  1  0
 11 44  1  6
 10 45  1  0
 10 46  1  0
  9 47  1  1
  7 48  1  0
  6 49  1  0
  5 50  1  0
  4 51  1  0
  1 52  1  0
  1 53  1  0
  1 54  1  0
  8  3  1  0
 18  9  1  0
 31 22  1  0
 31 26  1  0
M  END
>  <cnnaffinities>  (80) 
[5.56653]

>  <score>  (80) 
5.56653

>  <index>  (80) 
82

>  <Smiles>  (80) 
C(Oc1c(c(c(c(c1[C@]1(C([C@@](C([H])([H])[H])(C(C(N1C(=O)C(c1c(nc(c2c(c(c(c(c12)[H])[H])[H])[H])[H])[H])([H])[H])([H])[H])([H])[H])[H])([H])[H])[H])[H])[H])[H])[H])([H])([H])[H]

>  <h>  (80) 
<NA>

>  <Training>  (80) 
True

>  <Success>  (80) 
True

>  <enamine_searched>  (80) 
False

>  <enamine_id>  (80) 
nan

$$$$

     RDKit          3D

 46 50  0  0  0  0  0  0  0  0999 V2000
   -7.6640   -0.2041  -26.7480 N   0  0  0  0  0  0  0  0  0  0  0  0
   -9.1168    0.6329  -26.5984 S   0  0  0  0  0  0  0  0  0  0  0  0
   -9.8893    0.6010  -27.8329 O   0  0  0  0  0  0  0  0  0  0  0  0
   -8.7751    1.9062  -25.9939 O   0  0  0  0  0  0  0  0  0  0  0  0
   -9.9604   -0.3762  -25.4429 C   0  0  0  0  0  0  0  0  0  0  0  0
  -11.3361   -0.5146  -25.5843 C   0  0  0  0  0  0  0  0  0  0  0  0
  -12.0345   -1.3306  -24.7091 C   0  0  0  0  0  0  0  0  0  0  0  0
  -11.3254   -2.0457  -23.7323 C   0  0  0  0  0  0  0  0  0  0  0  0
   -9.9438   -1.8647  -23.5671 C   0  0  0  0  0  0  0  0  0  0  0  0
   -9.2675   -1.0219  -24.4345 C   0  0  0  0  0  0  0  0  0  0  0  0
   -8.1945   -0.9108  -24.3350 H   0  0  0  0  0  0  0  0  0  0  0  0
   -9.1546   -2.4799  -22.4303 C   0  0  1  0  0  0  0  0  0  0  0  0
   -9.9897   -3.6064  -21.7954 C   0  0  0  0  0  0  0  0  0  0  0  0
  -11.4574   -3.2112  -21.7095 C   0  0  0  0  0  0  0  0  0  0  0  0
  -12.0239   -2.9424  -22.9857 O   0  0  0  0  0  0  0  0  0  0  0  0
  -12.0784   -3.9951  -21.2697 H   0  0  0  0  0  0  0  0  0  0  0  0
  -11.5416   -2.3187  -21.0966 H   0  0  0  0  0  0  0  0  0  0  0  0
   -9.6130   -3.8701  -20.8058 H   0  0  0  0  0  0  0  0  0  0  0  0
   -9.8726   -4.4703  -22.4577 H   0  0  0  0  0  0  0  0  0  0  0  0
   -7.8445   -2.9687  -22.8540 N   0  0  0  0  0  0  0  0  0  0  0  0
   -6.8127   -2.5576  -22.0480 C   0  0  0  0  0  0  0  0  0  0  0  0
   -5.6573   -2.9206  -22.0447 O   0  0  0  0  0  0  0  0  0  0  0  0
   -7.3546   -1.5631  -21.2081 N   0  0  0  0  0  0  0  0  0  0  0  0
   -6.6058   -0.8898  -20.2006 C   0  0  0  0  0  0  0  0  0  0  0  0
   -6.9421   -1.0739  -18.8797 C   0  0  0  0  0  0  0  0  0  0  0  0
   -6.2629   -0.5547  -17.8242 N   0  0  0  0  0  0  0  0  0  0  0  0
   -5.2182    0.1870  -18.0980 C   0  0  0  0  0  0  0  0  0  0  0  0
   -4.7819    0.4867  -19.4182 C   0  0  0  0  0  0  0  0  0  0  0  0
   -3.6633    1.3285  -19.6311 C   0  0  0  0  0  0  0  0  0  0  0  0
   -3.2743    1.6493  -20.8999 C   0  0  0  0  0  0  0  0  0  0  0  0
   -3.9833    1.1449  -22.0079 C   0  0  0  0  0  0  0  0  0  0  0  0
   -5.0633    0.3171  -21.8303 C   0  0  0  0  0  0  0  0  0  0  0  0
   -5.4880   -0.0479  -20.5182 C   0  0  0  0  0  0  0  0  0  0  0  0
   -5.5928   -0.0478  -22.7036 H   0  0  0  0  0  0  0  0  0  0  0  0
   -3.6649    1.4197  -23.0086 H   0  0  0  0  0  0  0  0  0  0  0  0
   -2.4181    2.2931  -21.0618 H   0  0  0  0  0  0  0  0  0  0  0  0
   -3.1404    1.7128  -18.7629 H   0  0  0  0  0  0  0  0  0  0  0  0
   -4.6545    0.6068  -17.2623 H   0  0  0  0  0  0  0  0  0  0  0  0
   -7.8005   -1.6934  -18.6285 H   0  0  0  0  0  0  0  0  0  0  0  0
   -8.7224   -1.3809  -21.4365 C   0  0  0  0  0  0  0  0  0  0  0  0
   -9.3944   -0.4860  -20.9913 O   0  0  0  0  0  0  0  0  0  0  0  0
   -7.7664   -3.8373  -23.3548 H   0  0  0  0  0  0  0  0  0  0  0  0
  -13.1192   -1.4043  -24.7472 H   0  0  0  0  0  0  0  0  0  0  0  0
  -11.8133    0.0147  -26.4034 H   0  0  0  0  0  0  0  0  0  0  0  0
   -7.7530   -1.0479  -27.3077 H   0  0  0  0  0  0  0  0  0  0  0  0
   -6.9712    0.4202  -27.1489 H   0  0  0  0  0  0  0  0  0  0  0  0
  1  2  1  0
  2  3  2  0
  2  4  2  0
  2  5  1  0
  5  6  2  0
  6  7  1  0
  7  8  2  0
  8  9  1  0
  9 10  2  0
 10 11  1  0
  9 12  1  0
 12 13  1  0
 13 14  1  0
 14 15  1  0
 14 16  1  0
 14 17  1  0
 13 18  1  0
 13 19  1  0
 12 20  1  6
 20 21  1  0
 21 22  2  0
 21 23  1  0
 23 24  1  0
 24 25  2  0
 25 26  1  0
 26 27  2  0
 27 28  1  0
 28 29  2  0
 29 30  1  0
 30 31  2  0
 31 32  1  0
 32 33  2  0
 32 34  1  0
 31 35  1  0
 30 36  1  0
 29 37  1  0
 27 38  1  0
 25 39  1  0
 23 40  1  0
 40 41  2  0
 20 42  1  0
  7 43  1  0
  6 44  1  0
  1 45  1  0
  1 46  1  0
 10  5  1  0
 40 12  1  0
 15  8  1  0
 33 24  1  0
 33 28  1  0
M  END
>  <cnnaffinities>  (81) 
[5.45395, 5.45224, 5.41879]

>  <score>  (81) 
5.45395

>  <index>  (81) 
83

>  <Smiles>  (81) 
N(S(=O)(=O)c1c(c(c2c(c1[H])[C@@]1(C(C(O2)([H])[H])([H])[H])N(C(=O)N(c2c(nc(c3c(c(c(c(c23)[H])[H])[H])[H])[H])[H])C1=O)[H])[H])[H])([H])[H]

>  <h>  (81) 
<NA>

>  <Training>  (81) 
True

>  <Success>  (81) 
True

>  <enamine_searched>  (81) 
False

>  <enamine_id>  (81) 
nan

$$$$

     RDKit          3D

 63 68  0  0  0  0  0  0  0  0999 V2000
   -8.3642   -4.0988  -23.4869 C   0  0  0  0  0  0  0  0  0  0  0  0
   -8.5874   -2.9355  -22.5168 C   0  0  1  0  0  0  0  0  0  0  0  0
   -7.4521   -2.7958  -21.4864 C   0  0  0  0  0  0  0  0  0  0  0  0
   -7.4201   -1.3801  -21.1811 N   0  0  0  0  0  0  0  0  0  0  0  0
   -6.6068   -0.8150  -20.1721 C   0  0  0  0  0  0  0  0  0  0  0  0
   -6.8993   -1.0634  -18.8550 C   0  0  0  0  0  0  0  0  0  0  0  0
   -6.2111   -0.5549  -17.8047 N   0  0  0  0  0  0  0  0  0  0  0  0
   -5.1796    0.2076  -18.0795 C   0  0  0  0  0  0  0  0  0  0  0  0
   -4.7463    0.5235  -19.3992 C   0  0  0  0  0  0  0  0  0  0  0  0
   -3.6146    1.3519  -19.6308 C   0  0  0  0  0  0  0  0  0  0  0  0
   -3.2030    1.6267  -20.9046 C   0  0  0  0  0  0  0  0  0  0  0  0
   -3.8984    1.0769  -22.0075 C   0  0  0  0  0  0  0  0  0  0  0  0
   -4.9910    0.2731  -21.8101 C   0  0  0  0  0  0  0  0  0  0  0  0
   -5.4648   -0.0082  -20.4928 C   0  0  0  0  0  0  0  0  0  0  0  0
   -5.5091   -0.1491  -22.6679 H   0  0  0  0  0  0  0  0  0  0  0  0
   -3.5503    1.2915  -23.0140 H   0  0  0  0  0  0  0  0  0  0  0  0
   -2.3376    2.2601  -21.0825 H   0  0  0  0  0  0  0  0  0  0  0  0
   -3.0864    1.7579  -18.7714 H   0  0  0  0  0  0  0  0  0  0  0  0
   -4.6249    0.6153  -17.2335 H   0  0  0  0  0  0  0  0  0  0  0  0
   -7.7558   -1.6908  -18.6063 H   0  0  0  0  0  0  0  0  0  0  0  0
   -8.1165   -0.6000  -22.0711 C   0  0  0  0  0  0  0  0  0  0  0  0
   -8.1926    0.6088  -22.0038 O   0  0  0  0  0  0  0  0  0  0  0  0
   -8.7446   -1.5128  -23.1453 C   0  0  1  0  0  0  0  0  0  0  0  0
   -7.9472   -1.3826  -24.4599 C   0  0  0  0  0  0  0  0  0  0  0  0
   -8.1628   -0.0917  -25.0724 N   0  0  0  0  0  0  0  0  0  0  0  0
   -7.0567    0.6208  -25.6655 C   0  0  0  0  0  0  0  0  0  0  0  0
   -6.5711    0.0241  -26.9860 C   0  0  0  0  0  0  0  0  0  0  0  0
   -5.6947   -0.8237  -27.0035 O   0  0  0  0  0  0  0  0  0  0  0  0
   -7.1579    0.4820  -28.1198 N   0  0  0  0  0  0  0  0  0  0  0  0
   -6.7850   -0.1228  -29.3835 C   0  0  0  0  0  0  0  0  0  0  0  0
   -7.5812    0.3952  -30.5400 C   0  0  0  0  0  0  0  0  0  0  0  0
   -7.3466    1.7312  -30.7621 F   0  0  0  0  0  0  0  0  0  0  0  0
   -8.9576   -0.0923  -30.8174 C   0  0  0  0  0  0  0  0  0  0  0  0
   -7.8224   -0.4312  -31.7550 C   0  0  0  0  0  0  0  0  0  0  0  0
   -7.8035    0.0840  -32.7075 H   0  0  0  0  0  0  0  0  0  0  0  0
   -7.4138   -1.4339  -31.7881 H   0  0  0  0  0  0  0  0  0  0  0  0
   -9.3751   -0.8466  -30.1631 H   0  0  0  0  0  0  0  0  0  0  0  0
   -9.6782    0.6360  -31.1643 H   0  0  0  0  0  0  0  0  0  0  0  0
   -6.9179   -1.2065  -29.3140 H   0  0  0  0  0  0  0  0  0  0  0  0
   -5.7195    0.0408  -29.5677 H   0  0  0  0  0  0  0  0  0  0  0  0
   -7.9258    1.1308  -28.0481 H   0  0  0  0  0  0  0  0  0  0  0  0
   -6.2108    0.5980  -24.9684 H   0  0  0  0  0  0  0  0  0  0  0  0
   -7.4085    1.6418  -25.8038 H   0  0  0  0  0  0  0  0  0  0  0  0
   -9.4270    0.2895  -25.4148 C   0  0  0  0  0  0  0  0  0  0  0  0
   -9.6330    1.0123  -26.3828 O   0  0  0  0  0  0  0  0  0  0  0  0
  -10.4983   -0.2227  -24.4970 C   0  0  0  0  0  0  0  0  0  0  0  0
  -11.8163    0.1837  -24.7127 C   0  0  0  0  0  0  0  0  0  0  0  0
  -12.8166   -0.2186  -23.8460 C   0  0  0  0  0  0  0  0  0  0  0  0
  -12.4789   -1.0203  -22.7625 C   0  0  0  0  0  0  0  0  0  0  0  0
  -13.4495   -1.4332  -21.9321 F   0  0  0  0  0  0  0  0  0  0  0  0
  -11.1838   -1.4201  -22.5185 C   0  0  0  0  0  0  0  0  0  0  0  0
  -10.1720   -1.0638  -23.4165 C   0  0  0  0  0  0  0  0  0  0  0  0
  -10.9870   -1.9965  -21.6200 H   0  0  0  0  0  0  0  0  0  0  0  0
  -13.8495    0.0776  -23.9698 H   0  0  0  0  0  0  0  0  0  0  0  0
  -12.0201    0.8150  -25.5726 H   0  0  0  0  0  0  0  0  0  0  0  0
   -8.2951   -2.1612  -25.1529 H   0  0  0  0  0  0  0  0  0  0  0  0
   -6.8743   -1.5165  -24.2878 H   0  0  0  0  0  0  0  0  0  0  0  0
   -6.4927   -3.1194  -21.9119 H   0  0  0  0  0  0  0  0  0  0  0  0
   -7.6287   -3.3768  -20.5765 H   0  0  0  0  0  0  0  0  0  0  0  0
   -9.5081   -3.1325  -21.9660 H   0  0  0  0  0  0  0  0  0  0  0  0
   -9.1586   -4.1750  -24.2382 H   0  0  0  0  0  0  0  0  0  0  0  0
   -7.4134   -3.9869  -24.0192 H   0  0  0  0  0  0  0  0  0  0  0  0
   -8.3242   -5.0537  -22.9528 H   0  0  0  0  0  0  0  0  0  0  0  0
  1  2  1  0
  2  3  1  0
  3  4  1  0
  4  5  1  0
  5  6  2  0
  6  7  1  0
  7  8  2  0
  8  9  1  0
  9 10  2  0
 10 11  1  0
 11 12  2  0
 12 13  1  0
 13 14  2  0
 13 15  1  0
 12 16  1  0
 11 17  1  0
 10 18  1  0
  8 19  1  0
  6 20  1  0
  4 21  1  0
 21 22  2  0
 21 23  1  0
 23 24  1  6
 24 25  1  0
 25 26  1  0
 26 27  1  0
 27 28  2  0
 27 29  1  0
 29 30  1  0
 30 31  1  0
 31 32  1  0
 31 33  1  0
 33 34  1  0
 34 35  1  0
 34 36  1  0
 33 37  1  0
 33 38  1  0
 30 39  1  0
 30 40  1  0
 29 41  1  0
 26 42  1  0
 26 43  1  0
 25 44  1  0
 44 45  2  0
 44 46  1  0
 46 47  2  0
 47 48  1  0
 48 49  2  0
 49 50  1  0
 49 51  1  0
 51 52  2  0
 51 53  1  0
 48 54  1  0
 47 55  1  0
 24 56  1  0
 24 57  1  0
  3 58  1  0
  3 59  1  0
  2 60  1  1
  1 61  1  0
  1 62  1  0
  1 63  1  0
 23  2  1  0
 34 31  1  0
 52 46  1  0
 14  5  1  0
 52 23  1  0
 14  9  1  0
M  END
>  <cnnaffinities>  (82) 
[5.99944, 5.86558]

>  <score>  (82) 
5.99944

>  <index>  (82) 
84

>  <Smiles>  (82) 
C([C@]1(C(N(c2c(nc(c3c(c(c(c(c23)[H])[H])[H])[H])[H])[H])C(=O)[C@]21C(N(C(C(=O)N(C(C1(F)C(C1([H])[H])([H])[H])([H])[H])[H])([H])[H])C(=O)c1c(c(c(F)c(c21)[H])[H])[H])([H])[H])([H])[H])[H])([H])([H])[H]

>  <h>  (82) 
<NA>

>  <Training>  (82) 
True

>  <Success>  (82) 
True

>  <enamine_searched>  (82) 
False

>  <enamine_id>  (82) 
nan

$$$$

     RDKit          3D

 57 62  0  0  0  0  0  0  0  0999 V2000
   -6.5932    3.4720  -23.1061 C   0  0  0  0  0  0  0  0  0  0  0  0
   -6.9786    2.4784  -24.0948 N   0  0  0  0  0  0  0  0  0  0  0  0
   -8.2469    2.5080  -24.5967 C   0  0  0  0  0  0  0  0  0  0  0  0
   -8.9846    3.4674  -24.4467 O   0  0  0  0  0  0  0  0  0  0  0  0
   -8.6557    1.2832  -25.4253 C   0  0  0  0  0  0  0  0  0  0  0  0
   -9.3575    0.2657  -24.6749 N   0  0  0  0  0  0  0  0  0  0  0  0
   -8.7539   -1.0323  -24.4368 C   0  0  0  0  0  0  0  0  0  0  0  0
   -8.9861   -1.5267  -22.9893 C   0  0  2  0  0  0  0  0  0  0  0  0
   -8.2320   -0.6049  -22.0016 C   0  0  0  0  0  0  0  0  0  0  0  0
   -8.3252    0.6048  -21.9134 O   0  0  0  0  0  0  0  0  0  0  0  0
   -7.3919   -1.3715  -21.2241 N   0  0  0  0  0  0  0  0  0  0  0  0
   -6.6021   -0.8114  -20.1894 C   0  0  0  0  0  0  0  0  0  0  0  0
   -6.9033   -1.0664  -18.8765 C   0  0  0  0  0  0  0  0  0  0  0  0
   -6.2187   -0.5611  -17.8199 N   0  0  0  0  0  0  0  0  0  0  0  0
   -5.1906    0.2079  -18.0881 C   0  0  0  0  0  0  0  0  0  0  0  0
   -4.7561    0.5366  -19.4030 C   0  0  0  0  0  0  0  0  0  0  0  0
   -3.6233    1.3608  -19.6356 C   0  0  0  0  0  0  0  0  0  0  0  0
   -3.2150    1.6367  -20.9094 C   0  0  0  0  0  0  0  0  0  0  0  0
   -3.9078    1.0909  -22.0143 C   0  0  0  0  0  0  0  0  0  0  0  0
   -5.0022    0.2875  -21.8192 C   0  0  0  0  0  0  0  0  0  0  0  0
   -5.4721    0.0072  -20.5025 C   0  0  0  0  0  0  0  0  0  0  0  0
   -5.5014   -0.1606  -22.6727 H   0  0  0  0  0  0  0  0  0  0  0  0
   -3.5566    1.3112  -23.0196 H   0  0  0  0  0  0  0  0  0  0  0  0
   -2.3437    2.2602  -21.0882 H   0  0  0  0  0  0  0  0  0  0  0  0
   -3.0893    1.7587  -18.7774 H   0  0  0  0  0  0  0  0  0  0  0  0
   -4.6347    0.6081  -17.2390 H   0  0  0  0  0  0  0  0  0  0  0  0
   -7.7594   -1.6944  -18.6284 H   0  0  0  0  0  0  0  0  0  0  0  0
   -7.4883   -2.7926  -21.4612 C   0  0  0  0  0  0  0  0  0  0  0  0
   -8.3563   -2.9020  -22.7083 C   0  0  0  0  0  0  0  0  0  0  0  0
   -7.9085   -3.8343  -23.8051 C   0  0  0  0  0  0  0  0  0  0  0  0
   -9.1172   -4.1673  -22.9804 C   0  0  0  0  0  0  0  0  0  0  0  0
  -10.0918   -4.0555  -23.4495 H   0  0  0  0  0  0  0  0  0  0  0  0
   -9.0700   -4.9685  -22.2432 H   0  0  0  0  0  0  0  0  0  0  0  0
   -8.0634   -3.5279  -24.8349 H   0  0  0  0  0  0  0  0  0  0  0  0
   -6.9968   -4.4091  -23.6564 H   0  0  0  0  0  0  0  0  0  0  0  0
   -6.4899   -3.2160  -21.6125 H   0  0  0  0  0  0  0  0  0  0  0  0
   -7.9522   -3.3109  -20.6155 H   0  0  0  0  0  0  0  0  0  0  0  0
  -10.4953   -1.4584  -22.7663 C   0  0  0  0  0  0  0  0  0  0  0  0
  -11.1473   -2.3242  -21.8880 C   0  0  0  0  0  0  0  0  0  0  0  0
  -12.5213   -2.2815  -21.7396 C   0  0  0  0  0  0  0  0  0  0  0  0
  -13.2199   -3.3157  -20.5232 Cl  0  0  0  0  0  0  0  0  0  0  0  0
  -13.2890   -1.3206  -22.3958 C   0  0  0  0  0  0  0  0  0  0  0  0
  -12.6389   -0.3899  -23.1870 C   0  0  0  0  0  0  0  0  0  0  0  0
  -11.2646   -0.4724  -23.3857 C   0  0  0  0  0  0  0  0  0  0  0  0
  -10.6651    0.4939  -24.3485 C   0  0  0  0  0  0  0  0  0  0  0  0
  -11.3131    1.4219  -24.8014 O   0  0  0  0  0  0  0  0  0  0  0  0
  -13.1442    0.4570  -23.6381 H   0  0  0  0  0  0  0  0  0  0  0  0
  -14.3589   -1.3008  -22.2440 H   0  0  0  0  0  0  0  0  0  0  0  0
  -10.5814   -3.0118  -21.2800 H   0  0  0  0  0  0  0  0  0  0  0  0
   -7.6831   -0.9856  -24.6388 H   0  0  0  0  0  0  0  0  0  0  0  0
   -9.1953   -1.7636  -25.1224 H   0  0  0  0  0  0  0  0  0  0  0  0
   -7.7734    0.8265  -25.8830 H   0  0  0  0  0  0  0  0  0  0  0  0
   -9.3230    1.6317  -26.2096 H   0  0  0  0  0  0  0  0  0  0  0  0
   -6.4771    1.6009  -24.0755 H   0  0  0  0  0  0  0  0  0  0  0  0
   -5.5798    3.2553  -22.7532 H   0  0  0  0  0  0  0  0  0  0  0  0
   -7.2825    3.4563  -22.2542 H   0  0  0  0  0  0  0  0  0  0  0  0
   -6.6215    4.4720  -23.5481 H   0  0  0  0  0  0  0  0  0  0  0  0
  1  2  1  0
  2  3  1  0
  3  4  2  0
  3  5  1  0
  5  6  1  0
  6  7  1  0
  8  7  1  6
  8  9  1  0
  9 10  2  0
  9 11  1  0
 11 12  1  0
 12 13  2  0
 13 14  1  0
 14 15  2  0
 15 16  1  0
 16 17  2  0
 17 18  1  0
 18 19  2  0
 19 20  1  0
 20 21  2  0
 20 22  1  0
 19 23  1  0
 18 24  1  0
 17 25  1  0
 15 26  1  0
 13 27  1  0
 11 28  1  0
 28 29  1  0
 29 30  1  0
 30 31  1  0
 31 32  1  0
 31 33  1  0
 30 34  1  0
 30 35  1  0
 28 36  1  0
 28 37  1  0
  8 38  1  0
 38 39  2  0
 39 40  1  0
 40 41  1  0
 40 42  2  0
 42 43  1  0
 43 44  2  0
 44 45  1  0
 45 46  2  0
 43 47  1  0
 42 48  1  0
 39 49  1  0
  7 50  1  0
  7 51  1  0
  5 52  1  0
  5 53  1  0
  2 54  1  0
  1 55  1  0
  1 56  1  0
  1 57  1  0
 45  6  1  0
 29  8  1  0
 44 38  1  0
 21 12  1  0
 31 29  1  0
 21 16  1  0
M  END
>  <cnnaffinities>  (83) 
[6.05563, 5.52065]

>  <score>  (83) 
6.05563

>  <index>  (83) 
85

>  <Smiles>  (83) 
C(N(C(=O)C(N1C([C@@]2(C(=O)N(c3c(nc(c4c(c(c(c(c34)[H])[H])[H])[H])[H])[H])C(C32C(C3([H])[H])([H])[H])([H])[H])c2c(c(Cl)c(c(c2C1=O)[H])[H])[H])([H])[H])([H])[H])[H])([H])([H])[H]

>  <h>  (83) 
<NA>

>  <Training>  (83) 
True

>  <Success>  (83) 
True

>  <enamine_searched>  (83) 
False

>  <enamine_id>  (83) 
nan

$$$$

     RDKit          3D

 43 45  0  0  0  0  0  0  0  0999 V2000
   -8.5476   -5.5633  -25.7836 C   0  0  0  0  0  0  0  0  0  0  0  0
   -9.0631   -5.4492  -24.3469 C   0  0  1  0  0  0  0  0  0  0  0  0
   -8.0231   -5.8731  -23.3135 C   0  0  0  0  0  0  0  0  0  0  0  0
   -6.9344   -4.8302  -23.0977 C   0  0  0  0  0  0  0  0  0  0  0  0
   -7.5123   -3.5405  -22.7148 N   0  0  0  0  0  0  0  0  0  0  0  0
   -6.7562   -2.7465  -21.8639 C   0  0  0  0  0  0  0  0  0  0  0  0
   -5.6192   -3.0568  -21.5542 O   0  0  0  0  0  0  0  0  0  0  0  0
   -7.4128   -1.4752  -21.2685 C   0  0  0  0  0  0  0  0  0  0  0  0
   -6.5795   -0.8317  -20.1824 C   0  0  0  0  0  0  0  0  0  0  0  0
   -6.8745   -1.0460  -18.8618 C   0  0  0  0  0  0  0  0  0  0  0  0
   -6.1921   -0.5397  -17.7984 N   0  0  0  0  0  0  0  0  0  0  0  0
   -5.1584    0.2205  -18.0659 C   0  0  0  0  0  0  0  0  0  0  0  0
   -4.7224    0.5297  -19.3806 C   0  0  0  0  0  0  0  0  0  0  0  0
   -3.5962    1.3590  -19.6205 C   0  0  0  0  0  0  0  0  0  0  0  0
   -3.1995    1.6408  -20.8992 C   0  0  0  0  0  0  0  0  0  0  0  0
   -3.9112    1.0979  -21.9918 C   0  0  0  0  0  0  0  0  0  0  0  0
   -5.0016    0.2893  -21.7857 C   0  0  0  0  0  0  0  0  0  0  0  0
   -5.4456   -0.0135  -20.4731 C   0  0  0  0  0  0  0  0  0  0  0  0
   -5.5279   -0.1313  -22.6356 H   0  0  0  0  0  0  0  0  0  0  0  0
   -3.5761    1.3134  -23.0015 H   0  0  0  0  0  0  0  0  0  0  0  0
   -2.3310    2.2680  -21.0867 H   0  0  0  0  0  0  0  0  0  0  0  0
   -3.0563    1.7708  -18.7710 H   0  0  0  0  0  0  0  0  0  0  0  0
   -4.6041    0.6265  -17.2166 H   0  0  0  0  0  0  0  0  0  0  0  0
   -7.7213   -1.6706  -18.5848 H   0  0  0  0  0  0  0  0  0  0  0  0
   -7.6216   -0.7484  -22.0667 H   0  0  0  0  0  0  0  0  0  0  0  0
   -8.3931   -1.7512  -20.8535 H   0  0  0  0  0  0  0  0  0  0  0  0
   -8.5399   -2.9964  -23.6139 C   0  0  1  0  0  0  0  0  0  0  0  0
   -7.9416   -2.2905  -24.8411 C   0  0  0  0  0  0  0  0  0  0  0  0
   -8.7291   -1.9765  -25.5355 H   0  0  0  0  0  0  0  0  0  0  0  0
   -7.2488   -2.9315  -25.3936 H   0  0  0  0  0  0  0  0  0  0  0  0
   -7.3909   -1.3890  -24.5496 H   0  0  0  0  0  0  0  0  0  0  0  0
   -9.5908   -4.0644  -23.9673 C   0  0  0  0  0  0  0  0  0  0  0  0
  -10.2130   -3.6820  -24.7836 H   0  0  0  0  0  0  0  0  0  0  0  0
  -10.2621   -4.1723  -23.1083 H   0  0  0  0  0  0  0  0  0  0  0  0
   -9.0800   -2.2370  -23.0434 H   0  0  0  0  0  0  0  0  0  0  0  0
   -6.2966   -4.7536  -23.9904 H   0  0  0  0  0  0  0  0  0  0  0  0
   -6.2745   -5.1446  -22.2913 H   0  0  0  0  0  0  0  0  0  0  0  0
   -7.5749   -6.8273  -23.6108 H   0  0  0  0  0  0  0  0  0  0  0  0
   -8.5082   -6.0391  -22.3499 H   0  0  0  0  0  0  0  0  0  0  0  0
   -9.9149   -6.1404  -24.2754 H   0  0  0  0  0  0  0  0  0  0  0  0
   -7.6008   -5.0392  -25.9393 H   0  0  0  0  0  0  0  0  0  0  0  0
   -8.3805   -6.6139  -26.0502 H   0  0  0  0  0  0  0  0  0  0  0  0
   -9.2687   -5.1513  -26.4972 H   0  0  0  0  0  0  0  0  0  0  0  0
  1  2  1  0
  2  3  1  0
  3  4  1  0
  4  5  1  0
  5  6  1  0
  6  7  2  0
  6  8  1  0
  8  9  1  0
  9 10  2  0
 10 11  1  0
 11 12  2  0
 12 13  1  0
 13 14  2  0
 14 15  1  0
 15 16  2  0
 16 17  1  0
 17 18  2  0
 17 19  1  0
 16 20  1  0
 15 21  1  0
 14 22  1  0
 12 23  1  0
 10 24  1  0
  8 25  1  0
  8 26  1  0
  5 27  1  0
 27 28  1  0
 28 29  1  0
 28 30  1  0
 28 31  1  0
 27 32  1  0
 32 33  1  0
 32 34  1  0
 27 35  1  1
  4 36  1  0
  4 37  1  0
  3 38  1  0
  3 39  1  0
  2 40  1  6
  1 41  1  0
  1 42  1  0
  1 43  1  0
 32  2  1  0
 18  9  1  0
 18 13  1  0
M  END
>  <cnnaffinities>  (84) 
[5.29917, 4.6776, 5.0429]

>  <score>  (84) 
5.29917

>  <index>  (84) 
86

>  <Smiles>  (84) 
C([C@]1(C(C(N(C(=O)C(c2c(nc(c3c(c(c(c(c23)[H])[H])[H])[H])[H])[H])([H])[H])[C@@](C([H])([H])[H])(C1([H])[H])[H])([H])[H])([H])[H])[H])([H])([H])[H]

>  <h>  (84) 
<NA>

>  <Training>  (84) 
True

>  <Success>  (84) 
True

>  <enamine_searched>  (84) 
False

>  <enamine_id>  (84) 
nan

$$$$

     RDKit          3D

 59 64  0  0  0  0  0  0  0  0999 V2000
  -10.1827   -2.9865  -22.0666 C   0  0  0  0  0  0  0  0  0  0  0  0
   -9.1290   -2.0311  -22.6445 C   0  0  1  0  0  0  0  0  0  0  0  0
   -8.6636   -1.0292  -21.5695 C   0  0  0  0  0  0  0  0  0  0  0  0
   -7.3470   -1.4878  -21.1944 N   0  0  0  0  0  0  0  0  0  0  0  0
   -6.5775   -0.8728  -20.1838 C   0  0  0  0  0  0  0  0  0  0  0  0
   -6.9306   -1.0538  -18.8720 C   0  0  0  0  0  0  0  0  0  0  0  0
   -6.2586   -0.5344  -17.8181 N   0  0  0  0  0  0  0  0  0  0  0  0
   -5.2101    0.2047  -18.0910 C   0  0  0  0  0  0  0  0  0  0  0  0
   -4.7608    0.5030  -19.4089 C   0  0  0  0  0  0  0  0  0  0  0  0
   -3.6378    1.3410  -19.6296 C   0  0  0  0  0  0  0  0  0  0  0  0
   -3.2579    1.6626  -20.9011 C   0  0  0  0  0  0  0  0  0  0  0  0
   -3.9765    1.1571  -22.0097 C   0  0  0  0  0  0  0  0  0  0  0  0
   -5.0558    0.3264  -21.8292 C   0  0  0  0  0  0  0  0  0  0  0  0
   -5.4673   -0.0309  -20.5078 C   0  0  0  0  0  0  0  0  0  0  0  0
   -5.5949   -0.0593  -22.6964 H   0  0  0  0  0  0  0  0  0  0  0  0
   -3.6612    1.4306  -23.0117 H   0  0  0  0  0  0  0  0  0  0  0  0
   -2.4041    2.3132  -21.0704 H   0  0  0  0  0  0  0  0  0  0  0  0
   -3.1081    1.7320  -18.7659 H   0  0  0  0  0  0  0  0  0  0  0  0
   -4.6587    0.6143  -17.2451 H   0  0  0  0  0  0  0  0  0  0  0  0
   -7.7956   -1.6732  -18.6379 H   0  0  0  0  0  0  0  0  0  0  0  0
   -6.8183   -2.4522  -22.0141 C   0  0  0  0  0  0  0  0  0  0  0  0
   -5.7491   -2.9912  -21.8283 O   0  0  0  0  0  0  0  0  0  0  0  0
   -7.8175   -2.6958  -23.1676 C   0  0  1  0  0  0  0  0  0  0  0  0
   -7.9412   -4.2138  -23.4022 C   0  0  0  0  0  0  0  0  0  0  0  0
   -6.7239   -4.7552  -23.9882 N   0  0  0  0  0  0  0  0  0  0  0  0
   -6.0960   -5.9180  -23.3611 C   0  0  0  0  0  0  0  0  0  0  0  0
   -6.9871   -7.1247  -23.3999 C   0  0  0  0  0  0  0  0  0  0  0  0
   -7.5658   -7.9169  -22.4233 C   0  0  0  0  0  0  0  0  0  0  0  0
   -8.6081   -8.5749  -23.1058 C   0  0  0  0  0  0  0  0  0  0  0  0
   -8.6328   -8.2852  -24.3925 N   0  0  0  0  0  0  0  0  0  0  0  0
   -7.5946   -7.4598  -24.5732 N   0  0  0  0  0  0  0  0  0  0  0  0
   -7.1560   -7.2028  -25.9291 C   0  0  0  0  0  0  0  0  0  0  0  0
   -6.0943   -7.4260  -26.0439 H   0  0  0  0  0  0  0  0  0  0  0  0
   -7.3570   -6.1772  -26.2408 H   0  0  0  0  0  0  0  0  0  0  0  0
   -7.7284   -7.8654  -26.5703 H   0  0  0  0  0  0  0  0  0  0  0  0
   -9.4259   -9.1551  -22.7254 H   0  0  0  0  0  0  0  0  0  0  0  0
   -7.3274   -7.9647  -21.3660 H   0  0  0  0  0  0  0  0  0  0  0  0
   -5.1977   -6.1317  -23.9479 H   0  0  0  0  0  0  0  0  0  0  0  0
   -5.8207   -5.6418  -22.3301 H   0  0  0  0  0  0  0  0  0  0  0  0
   -6.1306   -4.1800  -25.0707 C   0  0  0  0  0  0  0  0  0  0  0  0
   -5.2862   -4.7477  -25.7549 O   0  0  0  0  0  0  0  0  0  0  0  0
   -6.5597   -2.7840  -25.3769 C   0  0  0  0  0  0  0  0  0  0  0  0
   -6.1200   -2.2260  -26.5791 C   0  0  0  0  0  0  0  0  0  0  0  0
   -6.3706   -0.8995  -26.8724 C   0  0  0  0  0  0  0  0  0  0  0  0
   -7.0722   -0.1517  -25.9309 C   0  0  0  0  0  0  0  0  0  0  0  0
   -7.3200    1.1466  -26.1912 F   0  0  0  0  0  0  0  0  0  0  0  0
   -7.5418   -0.6916  -24.7453 C   0  0  0  0  0  0  0  0  0  0  0  0
   -7.3140   -2.0465  -24.4576 C   0  0  0  0  0  0  0  0  0  0  0  0
   -8.0966   -0.0440  -24.0722 H   0  0  0  0  0  0  0  0  0  0  0  0
   -6.0262   -0.4315  -27.7907 H   0  0  0  0  0  0  0  0  0  0  0  0
   -5.5635   -2.8509  -27.2711 H   0  0  0  0  0  0  0  0  0  0  0  0
   -8.1080   -4.7182  -22.4513 H   0  0  0  0  0  0  0  0  0  0  0  0
   -8.8071   -4.4134  -24.0507 H   0  0  0  0  0  0  0  0  0  0  0  0
   -9.3249   -1.0371  -20.7054 H   0  0  0  0  0  0  0  0  0  0  0  0
   -8.6401    0.0046  -21.9404 H   0  0  0  0  0  0  0  0  0  0  0  0
   -9.6163   -1.5060  -23.4733 H   0  0  0  0  0  0  0  0  0  0  0  0
   -9.7930   -3.5768  -21.2293 H   0  0  0  0  0  0  0  0  0  0  0  0
  -11.0437   -2.4154  -21.6998 H   0  0  0  0  0  0  0  0  0  0  0  0
  -10.5541   -3.6797  -22.8264 H   0  0  0  0  0  0  0  0  0  0  0  0
  1  2  1  0
  2  3  1  0
  3  4  1  0
  4  5  1  0
  5  6  2  0
  6  7  1  0
  7  8  2  0
  8  9  1  0
  9 10  2  0
 10 11  1  0
 11 12  2  0
 12 13  1  0
 13 14  2  0
 13 15  1  0
 12 16  1  0
 11 17  1  0
 10 18  1  0
  8 19  1  0
  6 20  1  0
  4 21  1  0
 21 22  2  0
 21 23  1  0
 23 24  1  6
 24 25  1  0
 25 26  1  0
 26 27  1  0
 27 28  2  0
 28 29  1  0
 29 30  2  0
 30 31  1  0
 31 32  1  0
 32 33  1  0
 32 34  1  0
 32 35  1  0
 29 36  1  0
 28 37  1  0
 26 38  1  0
 26 39  1  0
 25 40  1  0
 40 41  2  0
 40 42  1  0
 42 43  2  0
 43 44  1  0
 44 45  2  0
 45 46  1  0
 45 47  1  0
 47 48  2  0
 47 49  1  0
 44 50  1  0
 43 51  1  0
 24 52  1  0
 24 53  1  0
  3 54  1  0
  3 55  1  0
  2 56  1  6
  1 57  1  0
  1 58  1  0
  1 59  1  0
 23  2  1  0
 31 27  1  0
 48 42  1  0
 14  5  1  0
 48 23  1  0
 14  9  1  0
M  END
>  <cnnaffinities>  (85) 
[5.99146, 5.85323]

>  <score>  (85) 
5.99146

>  <index>  (85) 
87

>  <Smiles>  (85) 
C([C@]1(C(N(c2c(nc(c3c(c(c(c(c23)[H])[H])[H])[H])[H])[H])C(=O)[C@]21C(N(C(c1c(c(nn1C([H])([H])[H])[H])[H])([H])[H])C(=O)c1c(c(c(F)c(c21)[H])[H])[H])([H])[H])([H])[H])[H])([H])([H])[H]

>  <h>  (85) 
<NA>

>  <Training>  (85) 
True

>  <Success>  (85) 
True

>  <enamine_searched>  (85) 
False

>  <enamine_id>  (85) 
nan

$$$$

     RDKit          3D

 40 42  0  0  0  0  0  0  0  0999 V2000
   -8.4100    0.7585  -21.4188 O   0  0  0  0  0  0  0  0  0  0  0  0
   -8.4822   -0.3959  -21.7994 C   0  0  0  0  0  0  0  0  0  0  0  0
   -7.4660   -1.4328  -21.2839 C   0  0  0  0  0  0  0  0  0  0  0  0
   -6.6022   -0.8521  -20.1899 C   0  0  0  0  0  0  0  0  0  0  0  0
   -6.9133   -1.0609  -18.8724 C   0  0  0  0  0  0  0  0  0  0  0  0
   -6.2418   -0.5506  -17.8030 N   0  0  0  0  0  0  0  0  0  0  0  0
   -5.2049    0.2057  -18.0707 C   0  0  0  0  0  0  0  0  0  0  0  0
   -4.7668    0.5243  -19.3827 C   0  0  0  0  0  0  0  0  0  0  0  0
   -3.6386    1.3532  -19.6145 C   0  0  0  0  0  0  0  0  0  0  0  0
   -3.2514    1.6517  -20.8904 C   0  0  0  0  0  0  0  0  0  0  0  0
   -3.9734    1.1381  -21.9874 C   0  0  0  0  0  0  0  0  0  0  0  0
   -5.0679    0.3329  -21.7919 C   0  0  0  0  0  0  0  0  0  0  0  0
   -5.4892   -0.0061  -20.4783 C   0  0  0  0  0  0  0  0  0  0  0  0
   -5.6229   -0.0389  -22.6457 H   0  0  0  0  0  0  0  0  0  0  0  0
   -3.6498    1.3792  -22.9955 H   0  0  0  0  0  0  0  0  0  0  0  0
   -2.3869    2.2858  -21.0692 H   0  0  0  0  0  0  0  0  0  0  0  0
   -3.0957    1.7444  -18.7581 H   0  0  0  0  0  0  0  0  0  0  0  0
   -4.6535    0.6121  -17.2216 H   0  0  0  0  0  0  0  0  0  0  0  0
   -7.7689   -1.6838  -18.6112 H   0  0  0  0  0  0  0  0  0  0  0  0
   -8.0214   -2.2950  -20.8846 H   0  0  0  0  0  0  0  0  0  0  0  0
   -6.8513   -1.8029  -22.1162 H   0  0  0  0  0  0  0  0  0  0  0  0
   -9.4891   -0.8002  -22.6607 N   0  0  0  0  0  0  0  0  0  0  0  0
  -10.6803    0.0587  -22.5715 C   0  0  0  0  0  0  0  0  0  0  0  0
  -11.6274   -0.0948  -23.7462 C   0  0  0  0  0  0  0  0  0  0  0  0
  -11.9720   -1.5661  -23.9761 C   0  0  0  0  0  0  0  0  0  0  0  0
  -12.9177   -1.7009  -25.1611 C   0  0  0  0  0  0  0  0  0  0  0  0
  -14.1291   -1.1466  -24.8546 F   0  0  0  0  0  0  0  0  0  0  0  0
  -12.4273   -1.0038  -26.2328 F   0  0  0  0  0  0  0  0  0  0  0  0
  -13.0904   -2.7388  -25.4832 H   0  0  0  0  0  0  0  0  0  0  0  0
  -10.6714   -2.3602  -24.1402 C   0  0  0  0  0  0  0  0  0  0  0  0
   -9.7940   -2.2201  -22.8928 C   0  0  0  0  0  0  0  0  0  0  0  0
   -8.8730   -2.7995  -23.0295 H   0  0  0  0  0  0  0  0  0  0  0  0
  -10.3141   -2.6685  -22.0212 H   0  0  0  0  0  0  0  0  0  0  0  0
  -10.1103   -1.9927  -25.0066 H   0  0  0  0  0  0  0  0  0  0  0  0
  -10.8758   -3.4203  -24.3352 H   0  0  0  0  0  0  0  0  0  0  0  0
  -12.5183   -1.9508  -23.0955 H   0  0  0  0  0  0  0  0  0  0  0  0
  -11.1982    0.3280  -24.6619 H   0  0  0  0  0  0  0  0  0  0  0  0
  -12.5471    0.4585  -23.5289 H   0  0  0  0  0  0  0  0  0  0  0  0
  -11.2121   -0.2125  -21.6493 H   0  0  0  0  0  0  0  0  0  0  0  0
  -10.3432    1.0919  -22.4617 H   0  0  0  0  0  0  0  0  0  0  0  0
  1  2  2  0
  2  3  1  0
  3  4  1  0
  4  5  2  0
  5  6  1  0
  6  7  2  0
  7  8  1  0
  8  9  2  0
  9 10  1  0
 10 11  2  0
 11 12  1  0
 12 13  2  0
 12 14  1  0
 11 15  1  0
 10 16  1  0
  9 17  1  0
  7 18  1  0
  5 19  1  0
  3 20  1  0
  3 21  1  0
  2 22  1  0
 22 23  1  0
 23 24  1  0
 24 25  1  0
 25 26  1  0
 26 27  1  0
 26 28  1  0
 26 29  1  0
 25 30  1  0
 30 31  1  0
 31 32  1  0
 31 33  1  0
 30 34  1  0
 30 35  1  0
 25 36  1  0
 24 37  1  0
 24 38  1  0
 23 39  1  0
 23 40  1  0
 13  4  1  0
 31 22  1  0
 13  8  1  0
M  END
>  <cnnaffinities>  (86) 
[5.19297, 5.19305, 5.19302, 4.88988, 5.08967]

>  <score>  (86) 
5.19297

>  <index>  (86) 
88

>  <Smiles>  (86) 
O=C(C(c1c(nc(c2c(c(c(c(c12)[H])[H])[H])[H])[H])[H])([H])[H])N1C(C(C(C(F)(F)[H])(C(C1([H])[H])([H])[H])[H])([H])[H])([H])[H]

>  <h>  (86) 
<NA>

>  <Training>  (86) 
True

>  <Success>  (86) 
True

>  <enamine_searched>  (86) 
False

>  <enamine_id>  (86) 
nan

$$$$

     RDKit          3D

 43 45  0  0  0  0  0  0  0  0999 V2000
   -9.8233    0.5777  -27.2229 C   0  0  0  0  0  0  0  0  0  0  0  0
   -8.8008    0.4503  -26.0888 C   0  0  0  0  0  0  0  0  0  0  0  0
   -7.4078    0.6973  -26.6791 C   0  0  0  0  0  0  0  0  0  0  0  0
   -6.6074    0.6042  -25.9419 H   0  0  0  0  0  0  0  0  0  0  0  0
   -7.3388    1.7023  -27.1099 H   0  0  0  0  0  0  0  0  0  0  0  0
   -7.1976   -0.0184  -27.4808 H   0  0  0  0  0  0  0  0  0  0  0  0
   -9.1177    1.4654  -24.9820 C   0  0  0  0  0  0  0  0  0  0  0  0
   -8.2853    1.2634  -23.7219 C   0  0  0  0  0  0  0  0  0  0  0  0
   -8.3469   -0.1116  -23.2417 N   0  0  0  0  0  0  0  0  0  0  0  0
   -8.3589   -0.3255  -21.8668 C   0  0  0  0  0  0  0  0  0  0  0  0
   -9.0485    0.3408  -21.1214 O   0  0  0  0  0  0  0  0  0  0  0  0
   -7.4334   -1.4120  -21.2776 C   0  0  0  0  0  0  0  0  0  0  0  0
   -6.5702   -0.8345  -20.1744 C   0  0  0  0  0  0  0  0  0  0  0  0
   -6.8777   -1.0403  -18.8544 C   0  0  0  0  0  0  0  0  0  0  0  0
   -6.1942   -0.5315  -17.7919 N   0  0  0  0  0  0  0  0  0  0  0  0
   -5.1561    0.2212  -18.0635 C   0  0  0  0  0  0  0  0  0  0  0  0
   -4.7218    0.5333  -19.3794 C   0  0  0  0  0  0  0  0  0  0  0  0
   -3.6017    1.3688  -19.6202 C   0  0  0  0  0  0  0  0  0  0  0  0
   -3.2166    1.6659  -20.8989 C   0  0  0  0  0  0  0  0  0  0  0  0
   -3.9371    1.1332  -21.9925 C   0  0  0  0  0  0  0  0  0  0  0  0
   -5.0225    0.3177  -21.7876 C   0  0  0  0  0  0  0  0  0  0  0  0
   -5.4473   -0.0044  -20.4709 C   0  0  0  0  0  0  0  0  0  0  0  0
   -5.5603   -0.0817  -22.6439 H   0  0  0  0  0  0  0  0  0  0  0  0
   -3.6133    1.3656  -23.0017 H   0  0  0  0  0  0  0  0  0  0  0  0
   -2.3549    2.3014  -21.0864 H   0  0  0  0  0  0  0  0  0  0  0  0
   -3.0599    1.7759  -18.7704 H   0  0  0  0  0  0  0  0  0  0  0  0
   -4.6019    0.6267  -17.2149 H   0  0  0  0  0  0  0  0  0  0  0  0
   -7.7293   -1.6604  -18.5810 H   0  0  0  0  0  0  0  0  0  0  0  0
   -6.8142   -1.8912  -22.0466 H   0  0  0  0  0  0  0  0  0  0  0  0
   -8.0817   -2.1842  -20.8459 H   0  0  0  0  0  0  0  0  0  0  0  0
   -8.0624   -1.1424  -24.2203 C   0  0  0  0  0  0  0  0  0  0  0  0
   -8.9044   -0.9499  -25.4821 C   0  0  0  0  0  0  0  0  0  0  0  0
   -9.9553   -1.1573  -25.2526 H   0  0  0  0  0  0  0  0  0  0  0  0
   -8.6030   -1.6884  -26.2277 H   0  0  0  0  0  0  0  0  0  0  0  0
   -6.9938   -1.1814  -24.4902 H   0  0  0  0  0  0  0  0  0  0  0  0
   -8.3124   -2.1048  -23.7776 H   0  0  0  0  0  0  0  0  0  0  0  0
   -8.6508    1.8953  -22.9141 H   0  0  0  0  0  0  0  0  0  0  0  0
   -7.2396    1.5644  -23.9098 H   0  0  0  0  0  0  0  0  0  0  0  0
  -10.1786    1.3917  -24.7181 H   0  0  0  0  0  0  0  0  0  0  0  0
   -8.9636    2.4815  -25.3616 H   0  0  0  0  0  0  0  0  0  0  0  0
   -9.7310    1.5470  -27.7178 H   0  0  0  0  0  0  0  0  0  0  0  0
  -10.8513    0.4512  -26.8581 H   0  0  0  0  0  0  0  0  0  0  0  0
   -9.6503   -0.1552  -28.0168 H   0  0  0  0  0  0  0  0  0  0  0  0
  1  2  1  0
  2  3  1  0
  3  4  1  0
  3  5  1  0
  3  6  1  0
  2  7  1  0
  7  8  1  0
  8  9  1  0
  9 10  1  0
 10 11  2  0
 10 12  1  0
 12 13  1  0
 13 14  2  0
 14 15  1  0
 15 16  2  0
 16 17  1  0
 17 18  2  0
 18 19  1  0
 19 20  2  0
 20 21  1  0
 21 22  2  0
 21 23  1  0
 20 24  1  0
 19 25  1  0
 18 26  1  0
 16 27  1  0
 14 28  1  0
 12 29  1  0
 12 30  1  0
  9 31  1  0
 31 32  1  0
 32 33  1  0
 32 34  1  0
 31 35  1  0
 31 36  1  0
  8 37  1  0
  8 38  1  0
  7 39  1  0
  7 40  1  0
  1 41  1  0
  1 42  1  0
  1 43  1  0
 32  2  1  0
 22 13  1  0
 22 17  1  0
M  END
>  <cnnaffinities>  (87) 
[4.70902, 4.88323, 4.8461, 4.84615, 4.84606, 4.84609, 5.04685, 5.04682, 5.04679]

>  <score>  (87) 
4.70902

>  <index>  (87) 
89

>  <Smiles>  (87) 
C(C1(C([H])([H])[H])C(C(N(C(=O)C(c2c(nc(c3c(c(c(c(c23)[H])[H])[H])[H])[H])[H])([H])[H])C(C1([H])[H])([H])[H])([H])[H])([H])[H])([H])([H])[H]

>  <h>  (87) 
<NA>

>  <Training>  (87) 
True

>  <Success>  (87) 
True

>  <enamine_searched>  (87) 
False

>  <enamine_id>  (87) 
nan

$$$$

     RDKit          3D

 64 68  0  0  0  0  0  0  0  0999 V2000
   -7.4650    3.2812  -21.7486 C   0  0  0  0  0  0  0  0  0  0  0  0
   -8.4870    2.8074  -22.6683 N   0  0  0  0  0  0  0  0  0  0  0  0
   -8.0485    2.1009  -23.7498 C   0  0  0  0  0  0  0  0  0  0  0  0
   -6.8578    1.9335  -23.9812 O   0  0  0  0  0  0  0  0  0  0  0  0
   -9.0942    1.5243  -24.6964 C   0  0  0  0  0  0  0  0  0  0  0  0
   -9.6673    0.3146  -24.1512 N   0  0  0  0  0  0  0  0  0  0  0  0
   -8.8702   -0.8975  -24.0667 C   0  0  0  0  0  0  0  0  0  0  0  0
   -9.1495   -1.6653  -22.7534 C   0  0  2  0  0  0  0  0  0  0  0  0
   -8.6046   -0.8614  -21.5511 C   0  0  0  0  0  0  0  0  0  0  0  0
   -9.1053    0.1108  -21.0225 O   0  0  0  0  0  0  0  0  0  0  0  0
   -7.3985   -1.4144  -21.1829 N   0  0  0  0  0  0  0  0  0  0  0  0
   -6.6096   -0.8275  -20.1664 C   0  0  0  0  0  0  0  0  0  0  0  0
   -6.9301   -1.0444  -18.8504 C   0  0  0  0  0  0  0  0  0  0  0  0
   -6.2330   -0.5486  -17.7997 N   0  0  0  0  0  0  0  0  0  0  0  0
   -5.1898    0.1981  -18.0705 C   0  0  0  0  0  0  0  0  0  0  0  0
   -4.7535    0.5173  -19.3880 C   0  0  0  0  0  0  0  0  0  0  0  0
   -3.6338    1.3571  -19.6290 C   0  0  0  0  0  0  0  0  0  0  0  0
   -3.2567    1.6640  -20.9058 C   0  0  0  0  0  0  0  0  0  0  0  0
   -3.9779    1.1484  -22.0054 C   0  0  0  0  0  0  0  0  0  0  0  0
   -5.0669    0.3335  -21.8020 C   0  0  0  0  0  0  0  0  0  0  0  0
   -5.4807   -0.0095  -20.4847 C   0  0  0  0  0  0  0  0  0  0  0  0
   -5.6334   -0.0173  -22.6601 H   0  0  0  0  0  0  0  0  0  0  0  0
   -3.6660    1.3959  -23.0152 H   0  0  0  0  0  0  0  0  0  0  0  0
   -2.3972    2.3021  -21.0865 H   0  0  0  0  0  0  0  0  0  0  0  0
   -3.0933    1.7529  -18.7730 H   0  0  0  0  0  0  0  0  0  0  0  0
   -4.6244    0.5957  -17.2251 H   0  0  0  0  0  0  0  0  0  0  0  0
   -7.7943   -1.6567  -18.6080 H   0  0  0  0  0  0  0  0  0  0  0  0
   -7.0055   -2.5752  -21.9518 C   0  0  0  0  0  0  0  0  0  0  0  0
   -8.3144   -2.9738  -22.6546 C   0  0  2  0  0  0  0  0  0  0  0  0
   -8.1078   -3.7451  -23.9555 C   0  0  0  0  0  0  0  0  0  0  0  0
   -7.4171   -5.3614  -23.6463 S   0  0  0  0  0  0  0  0  0  0  0  0
   -6.0347   -5.2205  -23.2119 O   0  0  0  0  0  0  0  0  0  0  0  0
   -8.3632   -6.1186  -22.8365 O   0  0  0  0  0  0  0  0  0  0  0  0
   -7.3305   -5.9839  -25.1959 N   0  0  0  0  0  0  0  0  0  0  0  0
   -8.5483   -6.4446  -25.8610 C   0  0  0  0  0  0  0  0  0  0  0  0
   -9.1436   -5.5955  -26.2097 H   0  0  0  0  0  0  0  0  0  0  0  0
   -8.2517   -7.0025  -26.7527 H   0  0  0  0  0  0  0  0  0  0  0  0
   -9.1644   -7.0890  -25.2272 H   0  0  0  0  0  0  0  0  0  0  0  0
   -6.5852   -6.6705  -25.1966 H   0  0  0  0  0  0  0  0  0  0  0  0
   -7.4256   -3.2442  -24.6441 H   0  0  0  0  0  0  0  0  0  0  0  0
   -9.0564   -3.8905  -24.4773 H   0  0  0  0  0  0  0  0  0  0  0  0
   -8.8441   -3.6523  -21.9852 H   0  0  0  0  0  0  0  0  0  0  0  0
   -6.6337   -3.3654  -21.2974 H   0  0  0  0  0  0  0  0  0  0  0  0
   -6.2051   -2.3442  -22.6712 H   0  0  0  0  0  0  0  0  0  0  0  0
  -10.6512   -1.8223  -22.6332 C   0  0  0  0  0  0  0  0  0  0  0  0
  -11.2125   -2.7993  -21.8112 C   0  0  0  0  0  0  0  0  0  0  0  0
  -12.5700   -2.7773  -21.5667 C   0  0  0  0  0  0  0  0  0  0  0  0
  -13.0625   -3.6528  -20.6790 F   0  0  0  0  0  0  0  0  0  0  0  0
  -13.4434   -1.8706  -22.1545 C   0  0  0  0  0  0  0  0  0  0  0  0
  -12.9005   -0.9369  -23.0043 C   0  0  0  0  0  0  0  0  0  0  0  0
  -11.5249   -0.8831  -23.2012 C   0  0  0  0  0  0  0  0  0  0  0  0
  -11.0166    0.2909  -23.9606 C   0  0  0  0  0  0  0  0  0  0  0  0
  -11.7481    1.1915  -24.3503 O   0  0  0  0  0  0  0  0  0  0  0  0
  -13.5028   -0.1954  -23.5126 H   0  0  0  0  0  0  0  0  0  0  0  0
  -14.4975   -1.8904  -21.9009 H   0  0  0  0  0  0  0  0  0  0  0  0
  -10.6204   -3.5672  -21.3265 H   0  0  0  0  0  0  0  0  0  0  0  0
   -7.8136   -0.6279  -24.1495 H   0  0  0  0  0  0  0  0  0  0  0  0
   -9.1121   -1.5502  -24.9140 H   0  0  0  0  0  0  0  0  0  0  0  0
   -9.9341    2.2050  -24.8585 H   0  0  0  0  0  0  0  0  0  0  0  0
   -8.6040    1.3210  -25.6575 H   0  0  0  0  0  0  0  0  0  0  0  0
   -9.4192    2.6619  -22.2928 H   0  0  0  0  0  0  0  0  0  0  0  0
   -6.8494    4.0533  -22.2225 H   0  0  0  0  0  0  0  0  0  0  0  0
   -6.8366    2.4303  -21.4419 H   0  0  0  0  0  0  0  0  0  0  0  0
   -7.9391    3.7516  -20.8879 H   0  0  0  0  0  0  0  0  0  0  0  0
  1  2  1  0
  2  3  1  0
  3  4  2  0
  3  5  1  0
  5  6  1  0
  6  7  1  0
  8  7  1  6
  8  9  1  0
  9 10  2  0
  9 11  1  0
 11 12  1  0
 12 13  2  0
 13 14  1  0
 14 15  2  0
 15 16  1  0
 16 17  2  0
 17 18  1  0
 18 19  2  0
 19 20  1  0
 20 21  2  0
 20 22  1  0
 19 23  1  0
 18 24  1  0
 17 25  1  0
 15 26  1  0
 13 27  1  0
 11 28  1  0
 28 29  1  0
 29 30  1  0
 30 31  1  0
 31 32  2  0
 31 33  2  0
 31 34  1  0
 34 35  1  0
 35 36  1  0
 35 37  1  0
 35 38  1  0
 34 39  1  0
 30 40  1  0
 30 41  1  0
 29 42  1  1
 28 43  1  0
 28 44  1  0
  8 45  1  0
 45 46  2  0
 46 47  1  0
 47 48  1  0
 47 49  2  0
 49 50  1  0
 50 51  2  0
 51 52  1  0
 52 53  2  0
 50 54  1  0
 49 55  1  0
 46 56  1  0
  7 57  1  0
  7 58  1  0
  5 59  1  0
  5 60  1  0
  2 61  1  0
  1 62  1  0
  1 63  1  0
  1 64  1  0
 52  6  1  0
 29  8  1  0
 51 45  1  0
 21 12  1  0
 21 16  1  0
M  END
>  <cnnaffinities>  (88) 
[6.51118, 6.55611]

>  <score>  (88) 
6.51118

>  <index>  (88) 
90

>  <Smiles>  (88) 
C(N(C(=O)C(N1C([C@@]2(C(=O)N(c3c(nc(c4c(c(c(c(c34)[H])[H])[H])[H])[H])[H])C([C@@]2(C(S(=O)(=O)N(C([H])([H])[H])[H])([H])[H])[H])([H])[H])c2c(c(F)c(c(c2C1=O)[H])[H])[H])([H])[H])([H])[H])[H])([H])([H])[H]

>  <h>  (88) 
<NA>

>  <Training>  (88) 
True

>  <Success>  (88) 
True

>  <enamine_searched>  (88) 
False

>  <enamine_id>  (88) 
nan

$$$$

     RDKit          3D

 66 71  0  0  0  0  0  0  0  0999 V2000
   -7.4545    3.2606  -21.8100 C   0  0  0  0  0  0  0  0  0  0  0  0
   -8.5367    2.8221  -22.6746 N   0  0  0  0  0  0  0  0  0  0  0  0
   -8.1797    2.0706  -23.7536 C   0  0  0  0  0  0  0  0  0  0  0  0
   -7.0149    1.8021  -24.0036 O   0  0  0  0  0  0  0  0  0  0  0  0
   -9.2866    1.5456  -24.6546 C   0  0  0  0  0  0  0  0  0  0  0  0
   -9.8339    0.3286  -24.0914 N   0  0  0  0  0  0  0  0  0  0  0  0
   -9.0332   -0.8884  -24.0511 C   0  0  0  0  0  0  0  0  0  0  0  0
   -9.2585   -1.6635  -22.7240 C   0  0  2  0  0  0  0  0  0  0  0  0
   -8.6563   -0.8458  -21.5489 C   0  0  0  0  0  0  0  0  0  0  0  0
   -9.1335    0.1415  -21.0228 O   0  0  0  0  0  0  0  0  0  0  0  0
   -7.4444   -1.4049  -21.1997 N   0  0  0  0  0  0  0  0  0  0  0  0
   -6.6344   -0.8308  -20.1843 C   0  0  0  0  0  0  0  0  0  0  0  0
   -6.9487   -1.0479  -18.8637 C   0  0  0  0  0  0  0  0  0  0  0  0
   -6.2449   -0.5605  -17.8139 N   0  0  0  0  0  0  0  0  0  0  0  0
   -5.1998    0.1839  -18.0843 C   0  0  0  0  0  0  0  0  0  0  0  0
   -4.7705    0.5077  -19.4021 C   0  0  0  0  0  0  0  0  0  0  0  0
   -3.6495    1.3488  -19.6327 C   0  0  0  0  0  0  0  0  0  0  0  0
   -3.2677    1.6584  -20.9092 C   0  0  0  0  0  0  0  0  0  0  0  0
   -3.9873    1.1456  -22.0095 C   0  0  0  0  0  0  0  0  0  0  0  0
   -5.0822    0.3332  -21.8136 C   0  0  0  0  0  0  0  0  0  0  0  0
   -5.5006   -0.0141  -20.4984 C   0  0  0  0  0  0  0  0  0  0  0  0
   -5.6549    0.0011  -22.6731 H   0  0  0  0  0  0  0  0  0  0  0  0
   -3.6708    1.3962  -23.0174 H   0  0  0  0  0  0  0  0  0  0  0  0
   -2.4052    2.2951  -21.0851 H   0  0  0  0  0  0  0  0  0  0  0  0
   -3.1107    1.7393  -18.7739 H   0  0  0  0  0  0  0  0  0  0  0  0
   -4.6323    0.5813  -17.2414 H   0  0  0  0  0  0  0  0  0  0  0  0
   -7.8125   -1.6601  -18.6182 H   0  0  0  0  0  0  0  0  0  0  0  0
   -7.0954   -2.5751  -21.9848 C   0  0  0  0  0  0  0  0  0  0  0  0
   -8.4272   -2.9732  -22.6378 C   0  0  2  0  0  0  0  0  0  0  0  0
   -8.2266   -3.7622  -23.9294 C   0  0  0  0  0  0  0  0  0  0  0  0
   -9.4711   -4.2757  -24.4421 N   0  0  0  0  0  0  0  0  0  0  0  0
   -9.5698   -4.9516  -25.6255 C   0  0  0  0  0  0  0  0  0  0  0  0
   -8.4493   -5.2115  -26.4567 C   0  0  0  0  0  0  0  0  0  0  0  0
   -8.5639   -5.8100  -27.6313 N   0  0  0  0  0  0  0  0  0  0  0  0
   -9.7946   -6.1744  -28.0029 C   0  0  0  0  0  0  0  0  0  0  0  0
  -10.8854   -5.9573  -27.1731 C   0  0  0  0  0  0  0  0  0  0  0  0
  -10.7859   -5.3694  -25.9816 N   0  0  0  0  0  0  0  0  0  0  0  0
  -11.8848   -6.2545  -27.4808 H   0  0  0  0  0  0  0  0  0  0  0  0
   -9.9018   -6.6428  -28.9775 H   0  0  0  0  0  0  0  0  0  0  0  0
   -7.4453   -4.9195  -26.1618 H   0  0  0  0  0  0  0  0  0  0  0  0
  -10.3579   -4.0335  -24.0133 H   0  0  0  0  0  0  0  0  0  0  0  0
   -7.5485   -4.6046  -23.7355 H   0  0  0  0  0  0  0  0  0  0  0  0
   -7.7374   -3.1255  -24.6868 H   0  0  0  0  0  0  0  0  0  0  0  0
   -8.9442   -3.6269  -21.9279 H   0  0  0  0  0  0  0  0  0  0  0  0
   -6.3275   -2.3458  -22.7412 H   0  0  0  0  0  0  0  0  0  0  0  0
   -6.7049   -3.3752  -21.3486 H   0  0  0  0  0  0  0  0  0  0  0  0
  -10.7595   -1.8425  -22.5506 C   0  0  0  0  0  0  0  0  0  0  0  0
  -11.3102   -2.8541  -21.7529 C   0  0  0  0  0  0  0  0  0  0  0  0
  -12.6515   -2.8106  -21.4167 C   0  0  0  0  0  0  0  0  0  0  0  0
  -13.2629   -3.8905  -20.2189 Cl  0  0  0  0  0  0  0  0  0  0  0  0
  -13.5225   -1.8541  -21.9243 C   0  0  0  0  0  0  0  0  0  0  0  0
  -13.0077   -0.8913  -22.7563 C   0  0  0  0  0  0  0  0  0  0  0  0
  -11.6488   -0.8790  -23.0516 C   0  0  0  0  0  0  0  0  0  0  0  0
  -11.1724    0.2986  -23.8298 C   0  0  0  0  0  0  0  0  0  0  0  0
  -11.9328    1.1952  -24.1743 O   0  0  0  0  0  0  0  0  0  0  0  0
  -13.6073   -0.0828  -23.1568 H   0  0  0  0  0  0  0  0  0  0  0  0
  -14.5633   -1.8618  -21.6248 H   0  0  0  0  0  0  0  0  0  0  0  0
  -10.7294   -3.6680  -21.3313 H   0  0  0  0  0  0  0  0  0  0  0  0
   -7.9793   -0.6155  -24.1710 H   0  0  0  0  0  0  0  0  0  0  0  0
   -9.3224   -1.5367  -24.8921 H   0  0  0  0  0  0  0  0  0  0  0  0
  -10.1145    2.2499  -24.7351 H   0  0  0  0  0  0  0  0  0  0  0  0
   -8.8829    1.3640  -25.6609 H   0  0  0  0  0  0  0  0  0  0  0  0
   -9.4541    2.7131  -22.2552 H   0  0  0  0  0  0  0  0  0  0  0  0
   -7.8774    3.7621  -20.9406 H   0  0  0  0  0  0  0  0  0  0  0  0
   -6.8532    2.3896  -21.5167 H   0  0  0  0  0  0  0  0  0  0  0  0
   -6.8182    3.9742  -22.3433 H   0  0  0  0  0  0  0  0  0  0  0  0
  1  2  1  0
  2  3  1  0
  3  4  2  0
  3  5  1  0
  5  6  1  0
  6  7  1  0
  8  7  1  6
  8  9  1  0
  9 10  2  0
  9 11  1  0
 11 12  1  0
 12 13  2  0
 13 14  1  0
 14 15  2  0
 15 16  1  0
 16 17  2  0
 17 18  1  0
 18 19  2  0
 19 20  1  0
 20 21  2  0
 20 22  1  0
 19 23  1  0
 18 24  1  0
 17 25  1  0
 15 26  1  0
 13 27  1  0
 11 28  1  0
 28 29  1  0
 29 30  1  0
 30 31  1  0
 31 32  1  0
 32 33  2  0
 33 34  1  0
 34 35  2  0
 35 36  1  0
 36 37  2  0
 36 38  1  0
 35 39  1  0
 33 40  1  0
 31 41  1  0
 30 42  1  0
 30 43  1  0
 29 44  1  1
 28 45  1  0
 28 46  1  0
  8 47  1  0
 47 48  2  0
 48 49  1  0
 49 50  1  0
 49 51  2  0
 51 52  1  0
 52 53  2  0
 53 54  1  0
 54 55  2  0
 52 56  1  0
 51 57  1  0
 48 58  1  0
  7 59  1  0
  7 60  1  0
  5 61  1  0
  5 62  1  0
  2 63  1  0
  1 64  1  0
  1 65  1  0
  1 66  1  0
 54  6  1  0
 29  8  1  0
 37 32  1  0
 53 47  1  0
 21 12  1  0
 21 16  1  0
M  END
>  <cnnaffinities>  (89) 
[6.36051, 6.6225]

>  <score>  (89) 
6.36051

>  <index>  (89) 
91

>  <Smiles>  (89) 
C(N(C(=O)C(N1C([C@@]2(C(=O)N(c3c(nc(c4c(c(c(c(c34)[H])[H])[H])[H])[H])[H])C([C@@]2(C(N(c2c(nc(c(n2)[H])[H])[H])[H])([H])[H])[H])([H])[H])c2c(c(Cl)c(c(c2C1=O)[H])[H])[H])([H])[H])([H])[H])[H])([H])([H])[H]

>  <h>  (89) 
<NA>

>  <Training>  (89) 
True

>  <Success>  (89) 
True

>  <enamine_searched>  (89) 
False

>  <enamine_id>  (89) 
nan

$$$$

     RDKit          3D

 60 65  0  0  0  0  0  0  0  0999 V2000
   -6.7830   -3.4403  -26.0934 C   0  0  0  0  0  0  0  0  0  0  0  0
   -7.0055   -2.9016  -24.8140 O   0  0  0  0  0  0  0  0  0  0  0  0
   -7.9828   -3.6101  -24.0778 C   0  0  0  0  0  0  0  0  0  0  0  0
   -8.2913   -2.9050  -22.7563 C   0  0  1  0  0  0  0  0  0  0  0  0
   -7.0208   -2.5624  -21.9603 C   0  0  0  0  0  0  0  0  0  0  0  0
   -7.3822   -1.3625  -21.2291 N   0  0  0  0  0  0  0  0  0  0  0  0
   -6.6030   -0.8083  -20.1843 C   0  0  0  0  0  0  0  0  0  0  0  0
   -6.9322   -1.0352  -18.8706 C   0  0  0  0  0  0  0  0  0  0  0  0
   -6.2364   -0.5453  -17.8153 N   0  0  0  0  0  0  0  0  0  0  0  0
   -5.1941    0.2075  -18.0760 C   0  0  0  0  0  0  0  0  0  0  0  0
   -4.7511    0.5355  -19.3914 C   0  0  0  0  0  0  0  0  0  0  0  0
   -3.6335    1.3778  -19.6290 C   0  0  0  0  0  0  0  0  0  0  0  0
   -3.2490    1.6713  -20.9080 C   0  0  0  0  0  0  0  0  0  0  0  0
   -3.9437    1.1241  -22.0080 C   0  0  0  0  0  0  0  0  0  0  0  0
   -5.0087    0.2778  -21.8002 C   0  0  0  0  0  0  0  0  0  0  0  0
   -5.4574   -0.0111  -20.4848 C   0  0  0  0  0  0  0  0  0  0  0  0
   -5.5242   -0.1602  -22.6494 H   0  0  0  0  0  0  0  0  0  0  0  0
   -3.6096    1.3633  -23.0128 H   0  0  0  0  0  0  0  0  0  0  0  0
   -2.3899    2.3080  -21.0895 H   0  0  0  0  0  0  0  0  0  0  0  0
   -3.0963    1.7783  -18.7744 H   0  0  0  0  0  0  0  0  0  0  0  0
   -4.6355    0.6020  -17.2266 H   0  0  0  0  0  0  0  0  0  0  0  0
   -7.7979   -1.6476  -18.6313 H   0  0  0  0  0  0  0  0  0  0  0  0
   -8.5985   -0.8210  -21.5803 C   0  0  0  0  0  0  0  0  0  0  0  0
   -9.1365    0.0993  -21.0014 O   0  0  0  0  0  0  0  0  0  0  0  0
   -9.1321   -1.5916  -22.8144 C   0  0  1  0  0  0  0  0  0  0  0  0
   -8.8479   -0.8182  -24.1274 C   0  0  0  0  0  0  0  0  0  0  0  0
   -9.6712    0.3673  -24.2452 N   0  0  0  0  0  0  0  0  0  0  0  0
   -9.0807    1.6143  -24.7027 C   0  0  0  0  0  0  0  0  0  0  0  0
   -8.2899    2.3667  -23.6658 C   0  0  0  0  0  0  0  0  0  0  0  0
   -8.8374    3.2849  -22.7362 C   0  0  0  0  0  0  0  0  0  0  0  0
   -7.9186    3.7793  -21.9087 N   0  0  0  0  0  0  0  0  0  0  0  0
   -6.7813    3.2045  -22.3103 N   0  0  0  0  0  0  0  0  0  0  0  0
   -6.9449    2.3626  -23.3587 C   0  0  0  0  0  0  0  0  0  0  0  0
   -6.0755    1.8401  -23.7361 H   0  0  0  0  0  0  0  0  0  0  0  0
   -5.9050    3.3872  -21.8431 H   0  0  0  0  0  0  0  0  0  0  0  0
   -9.8749    3.6004  -22.6287 H   0  0  0  0  0  0  0  0  0  0  0  0
   -8.5010    1.4245  -25.6105 H   0  0  0  0  0  0  0  0  0  0  0  0
   -9.9297    2.2278  -24.9934 H   0  0  0  0  0  0  0  0  0  0  0  0
  -11.0274    0.3138  -24.0777 C   0  0  0  0  0  0  0  0  0  0  0  0
  -11.7770    1.1837  -24.5035 O   0  0  0  0  0  0  0  0  0  0  0  0
  -11.5280   -0.8416  -23.2793 C   0  0  0  0  0  0  0  0  0  0  0  0
  -12.9020   -0.8927  -23.0473 C   0  0  0  0  0  0  0  0  0  0  0  0
  -13.4192   -1.7987  -22.1497 C   0  0  0  0  0  0  0  0  0  0  0  0
  -12.5376   -2.6812  -21.5315 C   0  0  0  0  0  0  0  0  0  0  0  0
  -13.1624   -3.7635  -20.3357 Cl  0  0  0  0  0  0  0  0  0  0  0  0
  -11.1802   -2.6775  -21.7920 C   0  0  0  0  0  0  0  0  0  0  0  0
  -10.6389   -1.7447  -22.6791 C   0  0  0  0  0  0  0  0  0  0  0  0
  -10.5566   -3.3888  -21.2652 H   0  0  0  0  0  0  0  0  0  0  0  0
  -14.4688   -1.8242  -21.8738 H   0  0  0  0  0  0  0  0  0  0  0  0
  -13.5198   -0.1745  -23.5738 H   0  0  0  0  0  0  0  0  0  0  0  0
   -9.0356   -1.5036  -24.9640 H   0  0  0  0  0  0  0  0  0  0  0  0
   -7.7986   -0.5234  -24.1837 H   0  0  0  0  0  0  0  0  0  0  0  0
   -6.1670   -2.3910  -22.6259 H   0  0  0  0  0  0  0  0  0  0  0  0
   -6.7525   -3.3649  -21.2659 H   0  0  0  0  0  0  0  0  0  0  0  0
   -8.8751   -3.6197  -22.1700 H   0  0  0  0  0  0  0  0  0  0  0  0
   -7.6167   -4.6259  -23.8689 H   0  0  0  0  0  0  0  0  0  0  0  0
   -8.9091   -3.7080  -24.6683 H   0  0  0  0  0  0  0  0  0  0  0  0
   -6.0220   -2.8288  -26.5848 H   0  0  0  0  0  0  0  0  0  0  0  0
   -6.4178   -4.4764  -26.0363 H   0  0  0  0  0  0  0  0  0  0  0  0
   -7.6969   -3.4222  -26.7078 H   0  0  0  0  0  0  0  0  0  0  0  0
  1  2  1  0
  2  3  1  0
  3  4  1  0
  4  5  1  0
  5  6  1  0
  6  7  1  0
  7  8  2  0
  8  9  1  0
  9 10  2  0
 10 11  1  0
 11 12  2  0
 12 13  1  0
 13 14  2  0
 14 15  1  0
 15 16  2  0
 15 17  1  0
 14 18  1  0
 13 19  1  0
 12 20  1  0
 10 21  1  0
  8 22  1  0
  6 23  1  0
 23 24  2  0
 23 25  1  0
 25 26  1  6
 26 27  1  0
 27 28  1  0
 28 29  1  0
 29 30  1  0
 30 31  2  0
 31 32  1  0
 32 33  1  0
 33 34  1  0
 32 35  1  0
 30 36  1  0
 28 37  1  0
 28 38  1  0
 27 39  1  0
 39 40  2  0
 39 41  1  0
 41 42  2  0
 42 43  1  0
 43 44  2  0
 44 45  1  0
 44 46  1  0
 46 47  2  0
 46 48  1  0
 43 49  1  0
 42 50  1  0
 26 51  1  0
 26 52  1  0
  5 53  1  0
  5 54  1  0
  4 55  1  1
  3 56  1  0
  3 57  1  0
  1 58  1  0
  1 59  1  0
  1 60  1  0
 25  4  1  0
 33 29  2  0
 47 41  1  0
 16  7  1  0
 47 25  1  0
 16 11  1  0
M  END
>  <cnnaffinities>  (90) 
[6.34593, 6.10857, 6.1277]

>  <score>  (90) 
6.34593

>  <index>  (90) 
92

>  <Smiles>  (90) 
C(OC([C@]1(C(N(c2c(nc(c3c(c(c(c(c23)[H])[H])[H])[H])[H])[H])C(=O)[C@]21C(N(C(c1c(nn(c1[H])[H])[H])([H])[H])C(=O)c1c(c(c(Cl)c(c21)[H])[H])[H])([H])[H])([H])[H])[H])([H])[H])([H])([H])[H]

>  <h>  (90) 
<NA>

>  <Training>  (90) 
True

>  <Success>  (90) 
True

>  <enamine_searched>  (90) 
False

>  <enamine_id>  (90) 
nan

$$$$

     RDKit          3D

 62 67  0  0  0  0  0  0  0  0999 V2000
   -6.6029    2.5653  -28.8183 C   0  0  0  0  0  0  0  0  0  0  0  0
   -5.3860    2.2935  -27.9307 C   0  0  0  0  0  0  0  0  0  0  0  0
   -5.6536    2.5033  -26.5112 N   0  0  0  0  0  0  0  0  0  0  0  0
   -5.3960    3.7063  -25.9735 N   0  0  0  0  0  0  0  0  0  0  0  0
   -5.7975    3.6227  -24.7120 C   0  0  0  0  0  0  0  0  0  0  0  0
   -6.3345    2.3459  -24.4344 C   0  0  0  0  0  0  0  0  0  0  0  0
   -6.2418    1.6574  -25.6216 C   0  0  0  0  0  0  0  0  0  0  0  0
   -6.6393    0.2385  -25.9128 C   0  0  0  0  0  0  0  0  0  0  0  0
   -7.8033   -0.1879  -25.1542 N   0  0  0  0  0  0  0  0  0  0  0  0
   -7.7677   -1.4644  -24.4623 C   0  0  0  0  0  0  0  0  0  0  0  0
   -8.6828   -1.4809  -23.2128 C   0  0  2  0  0  0  0  0  0  0  0  0
   -8.0855   -0.5695  -22.1112 C   0  0  0  0  0  0  0  0  0  0  0  0
   -8.1546    0.6426  -22.0431 O   0  0  0  0  0  0  0  0  0  0  0  0
   -7.4249   -1.3569  -21.1978 N   0  0  0  0  0  0  0  0  0  0  0  0
   -6.6117   -0.8054  -20.1786 C   0  0  0  0  0  0  0  0  0  0  0  0
   -6.9004   -1.0562  -18.8613 C   0  0  0  0  0  0  0  0  0  0  0  0
   -6.2034   -0.5550  -17.8120 N   0  0  0  0  0  0  0  0  0  0  0  0
   -5.1724    0.2086  -18.0835 C   0  0  0  0  0  0  0  0  0  0  0  0
   -4.7407    0.5298  -19.3990 C   0  0  0  0  0  0  0  0  0  0  0  0
   -3.6097    1.3590  -19.6350 C   0  0  0  0  0  0  0  0  0  0  0  0
   -3.2046    1.6380  -20.9090 C   0  0  0  0  0  0  0  0  0  0  0  0
   -3.9042    1.0847  -22.0090 C   0  0  0  0  0  0  0  0  0  0  0  0
   -4.9929    0.2763  -21.8050 C   0  0  0  0  0  0  0  0  0  0  0  0
   -5.4658   -0.0004  -20.4914 C   0  0  0  0  0  0  0  0  0  0  0  0
   -5.5085   -0.1589  -22.6556 H   0  0  0  0  0  0  0  0  0  0  0  0
   -3.5595    1.2959  -23.0160 H   0  0  0  0  0  0  0  0  0  0  0  0
   -2.3387    2.2686  -21.0883 H   0  0  0  0  0  0  0  0  0  0  0  0
   -3.0794    1.7663  -18.7771 H   0  0  0  0  0  0  0  0  0  0  0  0
   -4.6247    0.6143  -17.2323 H   0  0  0  0  0  0  0  0  0  0  0  0
   -7.7508   -1.6836  -18.6010 H   0  0  0  0  0  0  0  0  0  0  0  0
   -7.5160   -2.7793  -21.4778 C   0  0  0  0  0  0  0  0  0  0  0  0
   -8.6465   -2.8826  -22.5209 C   0  0  2  0  0  0  0  0  0  0  0  0
   -8.5005   -4.1074  -23.4332 C   0  0  0  0  0  0  0  0  0  0  0  0
   -9.2679   -4.1304  -24.2169 H   0  0  0  0  0  0  0  0  0  0  0  0
   -8.5831   -5.0389  -22.8598 H   0  0  0  0  0  0  0  0  0  0  0  0
   -7.5211   -4.1190  -23.9296 H   0  0  0  0  0  0  0  0  0  0  0  0
   -9.5881   -2.9747  -21.9722 H   0  0  0  0  0  0  0  0  0  0  0  0
   -7.7362   -3.3319  -20.5595 H   0  0  0  0  0  0  0  0  0  0  0  0
   -6.5652   -3.1687  -21.8751 H   0  0  0  0  0  0  0  0  0  0  0  0
  -10.0530   -0.9694  -23.6129 C   0  0  0  0  0  0  0  0  0  0  0  0
  -11.1843   -1.2446  -22.8331 C   0  0  0  0  0  0  0  0  0  0  0  0
  -12.4100   -0.7290  -23.2012 C   0  0  0  0  0  0  0  0  0  0  0  0
  -13.4882   -1.0140  -22.4536 F   0  0  0  0  0  0  0  0  0  0  0  0
  -12.5716    0.0758  -24.3225 C   0  0  0  0  0  0  0  0  0  0  0  0
  -11.4516    0.3785  -25.0672 C   0  0  0  0  0  0  0  0  0  0  0  0
  -10.1936   -0.1008  -24.7079 C   0  0  0  0  0  0  0  0  0  0  0  0
   -9.0058    0.3658  -25.4996 C   0  0  0  0  0  0  0  0  0  0  0  0
   -9.0923    1.1976  -26.3947 O   0  0  0  0  0  0  0  0  0  0  0  0
  -11.5106    0.9935  -25.9500 H   0  0  0  0  0  0  0  0  0  0  0  0
  -13.5557    0.4538  -24.5719 H   0  0  0  0  0  0  0  0  0  0  0  0
  -11.1375   -1.8364  -21.9250 H   0  0  0  0  0  0  0  0  0  0  0  0
   -6.7388   -1.6559  -24.1389 H   0  0  0  0  0  0  0  0  0  0  0  0
   -8.0848   -2.2751  -25.1375 H   0  0  0  0  0  0  0  0  0  0  0  0
   -6.8144    0.1022  -26.9884 H   0  0  0  0  0  0  0  0  0  0  0  0
   -5.8278   -0.4339  -25.6205 H   0  0  0  0  0  0  0  0  0  0  0  0
   -6.7292    1.9315  -23.5129 H   0  0  0  0  0  0  0  0  0  0  0  0
   -5.6864    4.4970  -24.0777 H   0  0  0  0  0  0  0  0  0  0  0  0
   -4.5576    2.9678  -28.1770 H   0  0  0  0  0  0  0  0  0  0  0  0
   -5.0298    1.2637  -28.0549 H   0  0  0  0  0  0  0  0  0  0  0  0
   -6.9207    3.6094  -28.7314 H   0  0  0  0  0  0  0  0  0  0  0  0
   -7.4482    1.9207  -28.5451 H   0  0  0  0  0  0  0  0  0  0  0  0
   -6.3432    2.3733  -29.8643 H   0  0  0  0  0  0  0  0  0  0  0  0
  1  2  1  0
  2  3  1  0
  3  4  1  0
  4  5  2  0
  5  6  1  0
  6  7  2  0
  7  8  1  0
  8  9  1  0
  9 10  1  0
 11 10  1  6
 11 12  1  0
 12 13  2  0
 12 14  1  0
 14 15  1  0
 15 16  2  0
 16 17  1  0
 17 18  2  0
 18 19  1  0
 19 20  2  0
 20 21  1  0
 21 22  2  0
 22 23  1  0
 23 24  2  0
 23 25  1  0
 22 26  1  0
 21 27  1  0
 20 28  1  0
 18 29  1  0
 16 30  1  0
 14 31  1  0
 31 32  1  0
 32 33  1  0
 33 34  1  0
 33 35  1  0
 33 36  1  0
 32 37  1  1
 31 38  1  0
 31 39  1  0
 11 40  1  0
 40 41  2  0
 41 42  1  0
 42 43  1  0
 42 44  2  0
 44 45  1  0
 45 46  2  0
 46 47  1  0
 47 48  2  0
 45 49  1  0
 44 50  1  0
 41 51  1  0
 10 52  1  0
 10 53  1  0
  8 54  1  0
  8 55  1  0
  6 56  1  0
  5 57  1  0
  2 58  1  0
  2 59  1  0
  1 60  1  0
  1 61  1  0
  1 62  1  0
  7  3  1  0
 47  9  1  0
 32 11  1  0
 46 40  1  0
 24 15  1  0
 24 19  1  0
M  END
>  <cnnaffinities>  (91) 
[6.0706, 5.76463]

>  <score>  (91) 
6.0706

>  <index>  (91) 
93

>  <Smiles>  (91) 
C(C(n1nc(c(c1C(N1C([C@@]2(C(=O)N(c3c(nc(c4c(c(c(c(c34)[H])[H])[H])[H])[H])[H])C([C@@]2(C([H])([H])[H])[H])([H])[H])c2c(c(F)c(c(c2C1=O)[H])[H])[H])([H])[H])([H])[H])[H])[H])([H])[H])([H])([H])[H]

>  <h>  (91) 
<NA>

>  <Training>  (91) 
True

>  <Success>  (91) 
True

>  <enamine_searched>  (91) 
False

>  <enamine_id>  (91) 
nan

$$$$

     RDKit          3D

 66 71  0  0  0  0  0  0  0  0999 V2000
   -6.7648    0.0909  -29.3835 C   0  0  0  0  0  0  0  0  0  0  0  0
   -7.0884    0.4920  -28.0370 N   0  0  0  0  0  0  0  0  0  0  0  0
   -6.4310   -0.0309  -26.9742 C   0  0  0  0  0  0  0  0  0  0  0  0
   -5.5669   -0.8914  -27.0619 O   0  0  0  0  0  0  0  0  0  0  0  0
   -6.8429    0.5578  -25.6226 C   0  0  0  0  0  0  0  0  0  0  0  0
   -7.9860   -0.1008  -25.0315 N   0  0  0  0  0  0  0  0  0  0  0  0
   -7.7833   -1.3903  -24.4052 C   0  0  0  0  0  0  0  0  0  0  0  0
   -8.6807   -1.5301  -23.1514 C   0  0  2  0  0  0  0  0  0  0  0  0
   -8.1421   -0.5987  -22.0376 C   0  0  0  0  0  0  0  0  0  0  0  0
   -8.3009    0.5987  -21.9425 O   0  0  0  0  0  0  0  0  0  0  0  0
   -7.3967   -1.3610  -21.1584 N   0  0  0  0  0  0  0  0  0  0  0  0
   -6.6085   -0.8035  -20.1218 C   0  0  0  0  0  0  0  0  0  0  0  0
   -6.9009   -1.0759  -18.8081 C   0  0  0  0  0  0  0  0  0  0  0  0
   -6.2291   -0.5637  -17.7466 N   0  0  0  0  0  0  0  0  0  0  0  0
   -5.2075    0.2188  -18.0020 C   0  0  0  0  0  0  0  0  0  0  0  0
   -4.7602    0.5466  -19.3142 C   0  0  0  0  0  0  0  0  0  0  0  0
   -3.6360    1.3846  -19.5465 C   0  0  0  0  0  0  0  0  0  0  0  0
   -3.2268    1.6605  -20.8209 C   0  0  0  0  0  0  0  0  0  0  0  0
   -3.9152    1.1103  -21.9254 C   0  0  0  0  0  0  0  0  0  0  0  0
   -4.9974    0.2957  -21.7267 C   0  0  0  0  0  0  0  0  0  0  0  0
   -5.4660    0.0116  -20.4138 C   0  0  0  0  0  0  0  0  0  0  0  0
   -5.5134   -0.1386  -22.5776 H   0  0  0  0  0  0  0  0  0  0  0  0
   -3.5771    1.3300  -22.9327 H   0  0  0  0  0  0  0  0  0  0  0  0
   -2.3700    2.3025  -21.0020 H   0  0  0  0  0  0  0  0  0  0  0  0
   -3.1108    1.8045  -18.6931 H   0  0  0  0  0  0  0  0  0  0  0  0
   -4.6742    0.6266  -17.1443 H   0  0  0  0  0  0  0  0  0  0  0  0
   -7.7469   -1.7225  -18.5751 H   0  0  0  0  0  0  0  0  0  0  0  0
   -7.3395   -2.7688  -21.4999 C   0  0  0  0  0  0  0  0  0  0  0  0
   -8.4983   -2.9228  -22.5019 C   0  0  2  0  0  0  0  0  0  0  0  0
   -8.3691   -4.0819  -23.5020 C   0  0  0  0  0  0  0  0  0  0  0  0
   -8.3328   -5.3808  -22.8628 N   0  0  0  0  0  0  0  0  0  0  0  0
   -7.2126   -5.9462  -22.3250 C   0  0  0  0  0  0  0  0  0  0  0  0
   -5.9105   -5.6172  -22.7562 C   0  0  0  0  0  0  0  0  0  0  0  0
   -4.8715   -6.2812  -22.1382 C   0  0  0  0  0  0  0  0  0  0  0  0
   -5.0611   -7.1670  -21.1562 N   0  0  0  0  0  0  0  0  0  0  0  0
   -6.3272   -7.3849  -20.8302 C   0  0  0  0  0  0  0  0  0  0  0  0
   -7.4203   -6.8555  -21.3641 N   0  0  0  0  0  0  0  0  0  0  0  0
   -6.4954   -8.0785  -20.0092 H   0  0  0  0  0  0  0  0  0  0  0  0
   -3.8331   -6.0933  -22.4256 H   0  0  0  0  0  0  0  0  0  0  0  0
   -5.7448   -4.8638  -23.5184 H   0  0  0  0  0  0  0  0  0  0  0  0
   -9.1752   -5.5960  -22.3441 H   0  0  0  0  0  0  0  0  0  0  0  0
   -7.4849   -3.9609  -24.1381 H   0  0  0  0  0  0  0  0  0  0  0  0
   -9.2401   -4.0479  -24.1718 H   0  0  0  0  0  0  0  0  0  0  0  0
   -9.3932   -3.1186  -21.9029 H   0  0  0  0  0  0  0  0  0  0  0  0
   -7.4657   -3.3736  -20.5973 H   0  0  0  0  0  0  0  0  0  0  0  0
   -6.3577   -3.0326  -21.9249 H   0  0  0  0  0  0  0  0  0  0  0  0
  -10.1004   -1.1560  -23.5450 C   0  0  0  0  0  0  0  0  0  0  0  0
  -11.2082   -1.5718  -22.7952 C   0  0  0  0  0  0  0  0  0  0  0  0
  -12.4795   -1.1368  -23.1267 C   0  0  0  0  0  0  0  0  0  0  0  0
  -13.8329   -1.6682  -22.1813 Cl  0  0  0  0  0  0  0  0  0  0  0  0
  -12.7146   -0.2839  -24.2027 C   0  0  0  0  0  0  0  0  0  0  0  0
  -11.6370    0.1107  -24.9626 C   0  0  0  0  0  0  0  0  0  0  0  0
  -10.3478   -0.3054  -24.6338 C   0  0  0  0  0  0  0  0  0  0  0  0
   -9.2344    0.2307  -25.4635 C   0  0  0  0  0  0  0  0  0  0  0  0
   -9.4308    0.9296  -26.4553 O   0  0  0  0  0  0  0  0  0  0  0  0
  -11.7640    0.7534  -25.8244 H   0  0  0  0  0  0  0  0  0  0  0  0
  -13.7218    0.0624  -24.4117 H   0  0  0  0  0  0  0  0  0  0  0  0
  -11.1109   -2.2260  -21.9361 H   0  0  0  0  0  0  0  0  0  0  0  0
   -8.0228   -2.1763  -25.1392 H   0  0  0  0  0  0  0  0  0  0  0  0
   -6.7257   -1.4777  -24.1324 H   0  0  0  0  0  0  0  0  0  0  0  0
   -5.9872    0.4436  -24.9501 H   0  0  0  0  0  0  0  0  0  0  0  0
   -7.0878    1.6177  -25.7151 H   0  0  0  0  0  0  0  0  0  0  0  0
   -8.0011    0.8776  -27.8452 H   0  0  0  0  0  0  0  0  0  0  0  0
   -5.6852    0.1581  -29.5288 H   0  0  0  0  0  0  0  0  0  0  0  0
   -7.2480    0.7801  -30.0794 H   0  0  0  0  0  0  0  0  0  0  0  0
   -7.0968   -0.9308  -29.5937 H   0  0  0  0  0  0  0  0  0  0  0  0
  1  2  1  0
  2  3  1  0
  3  4  2  0
  3  5  1  0
  5  6  1  0
  6  7  1  0
  8  7  1  6
  8  9  1  0
  9 10  2  0
  9 11  1  0
 11 12  1  0
 12 13  2  0
 13 14  1  0
 14 15  2  0
 15 16  1  0
 16 17  2  0
 17 18  1  0
 18 19  2  0
 19 20  1  0
 20 21  2  0
 20 22  1  0
 19 23  1  0
 18 24  1  0
 17 25  1  0
 15 26  1  0
 13 27  1  0
 11 28  1  0
 28 29  1  0
 29 30  1  0
 30 31  1  0
 31 32  1  0
 32 33  2  0
 33 34  1  0
 34 35  2  0
 35 36  1  0
 36 37  2  0
 36 38  1  0
 34 39  1  0
 33 40  1  0
 31 41  1  0
 30 42  1  0
 30 43  1  0
 29 44  1  1
 28 45  1  0
 28 46  1  0
  8 47  1  0
 47 48  2  0
 48 49  1  0
 49 50  1  0
 49 51  2  0
 51 52  1  0
 52 53  2  0
 53 54  1  0
 54 55  2  0
 52 56  1  0
 51 57  1  0
 48 58  1  0
  7 59  1  0
  7 60  1  0
  5 61  1  0
  5 62  1  0
  2 63  1  0
  1 64  1  0
  1 65  1  0
  1 66  1  0
 54  6  1  0
 29  8  1  0
 37 32  1  0
 53 47  1  0
 21 12  1  0
 21 16  1  0
M  END
>  <cnnaffinities>  (92) 
[5.72247, 5.92263, 6.54541, 6.4483]

>  <score>  (92) 
5.72247

>  <index>  (92) 
95

>  <Smiles>  (92) 
C(N(C(=O)C(N1C([C@@]2(C(=O)N(c3c(nc(c4c(c(c(c(c34)[H])[H])[H])[H])[H])[H])C([C@@]2(C(N(c2c(c(nc(n2)[H])[H])[H])[H])([H])[H])[H])([H])[H])c2c(c(Cl)c(c(c2C1=O)[H])[H])[H])([H])[H])([H])[H])[H])([H])([H])[H]

>  <h>  (92) 
<NA>

>  <Training>  (92) 
True

>  <Success>  (92) 
True

>  <enamine_searched>  (92) 
False

>  <enamine_id>  (92) 
nan

$$$$

     RDKit          3D

 66 70  0  0  0  0  0  0  0  0999 V2000
   -7.4556    3.3428  -21.6828 C   0  0  0  0  0  0  0  0  0  0  0  0
   -8.3730    2.9327  -22.7281 N   0  0  0  0  0  0  0  0  0  0  0  0
   -7.8251    2.2588  -23.7668 C   0  0  0  0  0  0  0  0  0  0  0  0
   -6.6115    2.1597  -23.9027 O   0  0  0  0  0  0  0  0  0  0  0  0
   -8.7723    1.6472  -24.7938 C   0  0  0  0  0  0  0  0  0  0  0  0
   -9.4590    0.4602  -24.3280 N   0  0  0  0  0  0  0  0  0  0  0  0
   -8.6956   -0.7683  -24.1949 C   0  0  0  0  0  0  0  0  0  0  0  0
   -9.0545   -1.5245  -22.8955 C   0  0  2  0  0  0  0  0  0  0  0  0
   -8.5307   -0.7521  -21.6593 C   0  0  0  0  0  0  0  0  0  0  0  0
   -9.0092    0.2482  -21.1541 O   0  0  0  0  0  0  0  0  0  0  0  0
   -7.4001   -1.3839  -21.1968 N   0  0  0  0  0  0  0  0  0  0  0  0
   -6.6039   -0.8106  -20.1688 C   0  0  0  0  0  0  0  0  0  0  0  0
   -6.9128   -1.0407  -18.8520 C   0  0  0  0  0  0  0  0  0  0  0  0
   -6.2110   -0.5451  -17.8021 N   0  0  0  0  0  0  0  0  0  0  0  0
   -5.1710    0.2068  -18.0733 C   0  0  0  0  0  0  0  0  0  0  0  0
   -4.7343    0.5304  -19.3902 C   0  0  0  0  0  0  0  0  0  0  0  0
   -3.6098    1.3673  -19.6357 C   0  0  0  0  0  0  0  0  0  0  0  0
   -3.2312    1.6650  -20.9157 C   0  0  0  0  0  0  0  0  0  0  0  0
   -3.9560    1.1416  -22.0107 C   0  0  0  0  0  0  0  0  0  0  0  0
   -5.0450    0.3299  -21.7999 C   0  0  0  0  0  0  0  0  0  0  0  0
   -5.4678    0.0038  -20.4814 C   0  0  0  0  0  0  0  0  0  0  0  0
   -5.6039   -0.0493  -22.6502 H   0  0  0  0  0  0  0  0  0  0  0  0
   -3.6544    1.3855  -23.0232 H   0  0  0  0  0  0  0  0  0  0  0  0
   -2.3720    2.3047  -21.0984 H   0  0  0  0  0  0  0  0  0  0  0  0
   -3.0694    1.7681  -18.7820 H   0  0  0  0  0  0  0  0  0  0  0  0
   -4.6169    0.6089  -17.2246 H   0  0  0  0  0  0  0  0  0  0  0  0
   -7.7655   -1.6669  -18.6007 H   0  0  0  0  0  0  0  0  0  0  0  0
   -7.0391   -2.5764  -21.9411 C   0  0  0  0  0  0  0  0  0  0  0  0
   -8.2936   -2.8821  -22.7751 C   0  0  2  0  0  0  0  0  0  0  0  0
   -7.9661   -3.6186  -24.0779 C   0  0  0  0  0  0  0  0  0  0  0  0
   -9.1233   -3.9182  -24.8294 O   0  0  0  0  0  0  0  0  0  0  0  0
   -9.6970   -5.1980  -24.5633 C   0  0  0  0  0  0  0  0  0  0  0  0
  -11.1986   -5.0783  -24.7350 C   0  0  0  0  0  0  0  0  0  0  0  0
  -11.6765   -6.0359  -24.5128 H   0  0  0  0  0  0  0  0  0  0  0  0
  -11.6098   -4.3083  -24.0770 H   0  0  0  0  0  0  0  0  0  0  0  0
  -11.4351   -4.8234  -25.7674 H   0  0  0  0  0  0  0  0  0  0  0  0
   -9.0931   -6.2338  -25.5072 C   0  0  0  0  0  0  0  0  0  0  0  0
   -9.5464   -7.2153  -25.3401 H   0  0  0  0  0  0  0  0  0  0  0  0
   -8.0116   -6.3291  -25.3616 H   0  0  0  0  0  0  0  0  0  0  0  0
   -9.2741   -5.9350  -26.5449 H   0  0  0  0  0  0  0  0  0  0  0  0
   -9.4711   -5.4769  -23.5212 H   0  0  0  0  0  0  0  0  0  0  0  0
   -7.4023   -4.5376  -23.8547 H   0  0  0  0  0  0  0  0  0  0  0  0
   -7.3234   -2.9913  -24.7087 H   0  0  0  0  0  0  0  0  0  0  0  0
   -8.9461   -3.5397  -22.1959 H   0  0  0  0  0  0  0  0  0  0  0  0
   -6.1681   -2.3869  -22.5868 H   0  0  0  0  0  0  0  0  0  0  0  0
   -6.7738   -3.3920  -21.2578 H   0  0  0  0  0  0  0  0  0  0  0  0
  -10.5659   -1.6222  -22.8335 C   0  0  0  0  0  0  0  0  0  0  0  0
  -11.1527   -2.5242  -21.9443 C   0  0  0  0  0  0  0  0  0  0  0  0
  -12.5220   -2.5680  -21.7835 C   0  0  0  0  0  0  0  0  0  0  0  0
  -13.1414   -3.5906  -20.5164 Cl  0  0  0  0  0  0  0  0  0  0  0  0
  -13.3659   -1.7582  -22.5480 C   0  0  0  0  0  0  0  0  0  0  0  0
  -12.7933   -0.8206  -23.3884 C   0  0  0  0  0  0  0  0  0  0  0  0
  -11.4055   -0.7179  -23.4972 C   0  0  0  0  0  0  0  0  0  0  0  0
  -10.8291    0.4508  -24.2382 C   0  0  0  0  0  0  0  0  0  0  0  0
  -11.5313    1.3452  -24.6859 O   0  0  0  0  0  0  0  0  0  0  0  0
  -13.3944   -0.1090  -23.9457 H   0  0  0  0  0  0  0  0  0  0  0  0
  -14.4429   -1.8369  -22.4608 H   0  0  0  0  0  0  0  0  0  0  0  0
  -10.5481   -3.1542  -21.3048 H   0  0  0  0  0  0  0  0  0  0  0  0
   -8.8983   -1.4428  -25.0402 H   0  0  0  0  0  0  0  0  0  0  0  0
   -7.6342   -0.4966  -24.1810 H   0  0  0  0  0  0  0  0  0  0  0  0
   -9.5593    2.3497  -25.0582 H   0  0  0  0  0  0  0  0  0  0  0  0
   -8.1513    1.4201  -25.6703 H   0  0  0  0  0  0  0  0  0  0  0  0
   -9.3565    2.8150  -22.5300 H   0  0  0  0  0  0  0  0  0  0  0  0
   -6.8217    2.4921  -21.4026 H   0  0  0  0  0  0  0  0  0  0  0  0
   -6.8040    4.1409  -22.0479 H   0  0  0  0  0  0  0  0  0  0  0  0
   -8.0124    3.6947  -20.8198 H   0  0  0  0  0  0  0  0  0  0  0  0
  1  2  1  0
  2  3  1  0
  3  4  2  0
  3  5  1  0
  5  6  1  0
  6  7  1  0
  8  7  1  6
  8  9  1  0
  9 10  2  0
  9 11  1  0
 11 12  1  0
 12 13  2  0
 13 14  1  0
 14 15  2  0
 15 16  1  0
 16 17  2  0
 17 18  1  0
 18 19  2  0
 19 20  1  0
 20 21  2  0
 20 22  1  0
 19 23  1  0
 18 24  1  0
 17 25  1  0
 15 26  1  0
 13 27  1  0
 11 28  1  0
 28 29  1  0
 29 30  1  0
 30 31  1  0
 31 32  1  0
 32 33  1  0
 33 34  1  0
 33 35  1  0
 33 36  1  0
 32 37  1  0
 37 38  1  0
 37 39  1  0
 37 40  1  0
 32 41  1  0
 30 42  1  0
 30 43  1  0
 29 44  1  1
 28 45  1  0
 28 46  1  0
  8 47  1  0
 47 48  2  0
 48 49  1  0
 49 50  1  0
 49 51  2  0
 51 52  1  0
 52 53  2  0
 53 54  1  0
 54 55  2  0
 52 56  1  0
 51 57  1  0
 48 58  1  0
  7 59  1  0
  7 60  1  0
  5 61  1  0
  5 62  1  0
  2 63  1  0
  1 64  1  0
  1 65  1  0
  1 66  1  0
 54  6  1  0
 29  8  1  0
 53 47  1  0
 21 12  1  0
 21 16  1  0
M  END
>  <cnnaffinities>  (93) 
[6.13546, 6.54951, 6.35347]

>  <score>  (93) 
6.13546

>  <index>  (93) 
96

>  <Smiles>  (93) 
C(N(C(=O)C(N1C([C@@]2(C(=O)N(c3c(nc(c4c(c(c(c(c34)[H])[H])[H])[H])[H])[H])C([C@@]2(C(OC(C([H])([H])[H])(C([H])([H])[H])[H])([H])[H])[H])([H])[H])c2c(c(Cl)c(c(c2C1=O)[H])[H])[H])([H])[H])([H])[H])[H])([H])([H])[H]

>  <h>  (93) 
<NA>

>  <Training>  (93) 
True

>  <Success>  (93) 
True

>  <enamine_searched>  (93) 
False

>  <enamine_id>  (93) 
nan

$$$$

     RDKit          3D

 40 43  0  0  0  0  0  0  0  0999 V2000
  -12.5573   -1.4493  -23.7770 C   0  0  0  0  0  0  0  0  0  0  0  0
  -11.1651   -0.8767  -23.5454 C   0  0  2  0  0  0  0  0  0  0  0  0
  -10.7067   -0.0501  -24.7419 C   0  0  0  0  0  0  0  0  0  0  0  0
   -9.4102    0.4721  -24.5600 O   0  0  0  0  0  0  0  0  0  0  0  0
   -8.4565   -0.5551  -24.4621 C   0  0  0  0  0  0  0  0  0  0  0  0
   -8.7013   -1.4529  -23.2352 C   0  0  1  0  0  0  0  0  0  0  0  0
  -10.1452   -1.9772  -23.2676 C   0  0  0  0  0  0  0  0  0  0  0  0
  -10.3621   -2.4734  -22.3160 H   0  0  0  0  0  0  0  0  0  0  0  0
  -10.2161   -2.7532  -24.0445 H   0  0  0  0  0  0  0  0  0  0  0  0
   -7.7327   -2.5194  -23.1571 N   0  0  0  0  0  0  0  0  0  0  0  0
   -6.9438   -2.5250  -22.0369 C   0  0  0  0  0  0  0  0  0  0  0  0
   -6.0451   -3.2828  -21.7554 O   0  0  0  0  0  0  0  0  0  0  0  0
   -7.3756   -1.4190  -21.2644 N   0  0  0  0  0  0  0  0  0  0  0  0
   -6.5891   -0.8426  -20.2045 C   0  0  0  0  0  0  0  0  0  0  0  0
   -6.8935   -1.0551  -18.8811 C   0  0  0  0  0  0  0  0  0  0  0  0
   -6.1993   -0.5421  -17.8241 N   0  0  0  0  0  0  0  0  0  0  0  0
   -5.1594    0.2182  -18.0699 C   0  0  0  0  0  0  0  0  0  0  0  0
   -4.7246    0.5318  -19.3898 C   0  0  0  0  0  0  0  0  0  0  0  0
   -3.5972    1.3671  -19.6277 C   0  0  0  0  0  0  0  0  0  0  0  0
   -3.2151    1.6546  -20.9116 C   0  0  0  0  0  0  0  0  0  0  0  0
   -3.9348    1.1220  -22.0024 C   0  0  0  0  0  0  0  0  0  0  0  0
   -5.0225    0.3127  -21.7942 C   0  0  0  0  0  0  0  0  0  0  0  0
   -5.4526   -0.0056  -20.4790 C   0  0  0  0  0  0  0  0  0  0  0  0
   -5.5703   -0.0921  -22.6375 H   0  0  0  0  0  0  0  0  0  0  0  0
   -3.6193    1.3476  -23.0155 H   0  0  0  0  0  0  0  0  0  0  0  0
   -2.3535    2.2864  -21.1050 H   0  0  0  0  0  0  0  0  0  0  0  0
   -3.0485    1.7784  -18.7836 H   0  0  0  0  0  0  0  0  0  0  0  0
   -4.6019    0.6260  -17.2191 H   0  0  0  0  0  0  0  0  0  0  0  0
   -7.7414   -1.6769  -18.6078 H   0  0  0  0  0  0  0  0  0  0  0  0
   -8.3880   -0.7064  -21.9361 C   0  0  0  0  0  0  0  0  0  0  0  0
   -8.8800    0.3175  -21.5383 O   0  0  0  0  0  0  0  0  0  0  0  0
   -7.6193   -3.2135  -23.8755 H   0  0  0  0  0  0  0  0  0  0  0  0
   -7.4706   -0.0874  -24.3799 H   0  0  0  0  0  0  0  0  0  0  0  0
   -8.4655   -1.1641  -25.3819 H   0  0  0  0  0  0  0  0  0  0  0  0
  -10.7240   -0.6592  -25.6623 H   0  0  0  0  0  0  0  0  0  0  0  0
  -11.3734    0.8047  -24.8983 H   0  0  0  0  0  0  0  0  0  0  0  0
  -11.1947   -0.2081  -22.6796 H   0  0  0  0  0  0  0  0  0  0  0  0
  -12.8903   -2.0306  -22.9116 H   0  0  0  0  0  0  0  0  0  0  0  0
  -13.2885   -0.6526  -23.9464 H   0  0  0  0  0  0  0  0  0  0  0  0
  -12.5722   -2.1110  -24.6505 H   0  0  0  0  0  0  0  0  0  0  0  0
  1  2  1  0
  2  3  1  0
  3  4  1  0
  4  5  1  0
  5  6  1  0
  6  7  1  0
  7  8  1  0
  7  9  1  0
  6 10  1  6
 10 11  1  0
 11 12  2  0
 11 13  1  0
 13 14  1  0
 14 15  2  0
 15 16  1  0
 16 17  2  0
 17 18  1  0
 18 19  2  0
 19 20  1  0
 20 21  2  0
 21 22  1  0
 22 23  2  0
 22 24  1  0
 21 25  1  0
 20 26  1  0
 19 27  1  0
 17 28  1  0
 15 29  1  0
 13 30  1  0
 30 31  2  0
 10 32  1  0
  5 33  1  0
  5 34  1  0
  3 35  1  0
  3 36  1  0
  2 37  1  1
  1 38  1  0
  1 39  1  0
  1 40  1  0
  7  2  1  0
 23 14  1  0
 30  6  1  0
 23 18  1  0
M  END
>  <cnnaffinities>  (94) 
[5.25256]

>  <score>  (94) 
5.25256

>  <index>  (94) 
97

>  <Smiles>  (94) 
C([C@@]1(C(OC([C@@]2(C1([H])[H])N(C(=O)N(c1c(nc(c3c(c(c(c(c13)[H])[H])[H])[H])[H])[H])C2=O)[H])([H])[H])([H])[H])[H])([H])([H])[H]

>  <h>  (94) 
<NA>

>  <Training>  (94) 
True

>  <Success>  (94) 
True

>  <enamine_searched>  (94) 
False

>  <enamine_id>  (94) 
nan

$$$$
