
     RDKit          3D

 66 71  0  0  0  0  0  0  0  0999 V2000
   -7.4243    3.3810  -21.8606 C   0  0  0  0  0  0  0  0  0  0  0  0
   -8.3485    2.9096  -22.8814 N   0  0  0  0  0  0  0  0  0  0  0  0
   -7.8031    2.1770  -23.8979 C   0  0  0  0  0  0  0  0  0  0  0  0
   -6.5984    2.0208  -24.0267 O   0  0  0  0  0  0  0  0  0  0  0  0
   -8.7887    1.5592  -24.8881 C   0  0  0  0  0  0  0  0  0  0  0  0
   -9.4526    0.4072  -24.3139 N   0  0  0  0  0  0  0  0  0  0  0  0
   -8.7008   -0.8278  -24.1623 C   0  0  0  0  0  0  0  0  0  0  0  0
   -9.0747   -1.5645  -22.8530 C   0  0  2  0  0  0  0  0  0  0  0  0
   -8.5511   -0.7710  -21.6325 C   0  0  0  0  0  0  0  0  0  0  0  0
   -9.0404    0.2188  -21.1314 O   0  0  0  0  0  0  0  0  0  0  0  0
   -7.3997   -1.3792  -21.1931 N   0  0  0  0  0  0  0  0  0  0  0  0
   -6.6079   -0.8075  -20.1721 C   0  0  0  0  0  0  0  0  0  0  0  0
   -6.9267   -1.0399  -18.8603 C   0  0  0  0  0  0  0  0  0  0  0  0
   -6.2314   -0.5513  -17.8055 N   0  0  0  0  0  0  0  0  0  0  0  0
   -5.1898    0.2019  -18.0725 C   0  0  0  0  0  0  0  0  0  0  0  0
   -4.7491    0.5246  -19.3888 C   0  0  0  0  0  0  0  0  0  0  0  0
   -3.6230    1.3564  -19.6313 C   0  0  0  0  0  0  0  0  0  0  0  0
   -3.2382    1.6531  -20.9092 C   0  0  0  0  0  0  0  0  0  0  0  0
   -3.9610    1.1434  -22.0112 C   0  0  0  0  0  0  0  0  0  0  0  0
   -5.0573    0.3396  -21.8058 C   0  0  0  0  0  0  0  0  0  0  0  0
   -5.4759    0.0044  -20.4876 C   0  0  0  0  0  0  0  0  0  0  0  0
   -5.6203   -0.0192  -22.6638 H   0  0  0  0  0  0  0  0  0  0  0  0
   -3.6588    1.3934  -23.0236 H   0  0  0  0  0  0  0  0  0  0  0  0
   -2.3782    2.2914  -21.0854 H   0  0  0  0  0  0  0  0  0  0  0  0
   -3.0907    1.7604  -18.7736 H   0  0  0  0  0  0  0  0  0  0  0  0
   -4.6268    0.5985  -17.2260 H   0  0  0  0  0  0  0  0  0  0  0  0
   -7.7918   -1.6560  -18.6269 H   0  0  0  0  0  0  0  0  0  0  0  0
   -7.0242   -2.5635  -21.9270 C   0  0  0  0  0  0  0  0  0  0  0  0
   -8.3066   -2.9150  -22.7015 C   0  0  2  0  0  0  0  0  0  0  0  0
   -8.0214   -3.7200  -23.9858 C   0  0  0  0  0  0  0  0  0  0  0  0
   -7.4956   -5.0475  -23.7511 N   0  0  0  0  0  0  0  0  0  0  0  0
   -6.1965   -5.3661  -23.5195 C   0  0  0  0  0  0  0  0  0  0  0  0
   -5.0991   -4.5921  -23.9350 C   0  0  0  0  0  0  0  0  0  0  0  0
   -3.8486   -5.0600  -23.5828 C   0  0  0  0  0  0  0  0  0  0  0  0
   -3.6409   -6.1785  -22.8769 N   0  0  0  0  0  0  0  0  0  0  0  0
   -4.7487   -6.8475  -22.5756 C   0  0  0  0  0  0  0  0  0  0  0  0
   -6.0000   -6.5267  -22.8700 N   0  0  0  0  0  0  0  0  0  0  0  0
   -4.6294   -7.7739  -22.0093 H   0  0  0  0  0  0  0  0  0  0  0  0
   -2.9501   -4.5123  -23.8673 H   0  0  0  0  0  0  0  0  0  0  0  0
   -5.2178   -3.6794  -24.5081 H   0  0  0  0  0  0  0  0  0  0  0  0
   -8.1274   -5.7725  -23.4472 H   0  0  0  0  0  0  0  0  0  0  0  0
   -7.3017   -3.1774  -24.6048 H   0  0  0  0  0  0  0  0  0  0  0  0
   -8.9315   -3.8261  -24.5869 H   0  0  0  0  0  0  0  0  0  0  0  0
   -8.9117   -3.5526  -22.0528 H   0  0  0  0  0  0  0  0  0  0  0  0
   -6.1779   -2.3629  -22.6053 H   0  0  0  0  0  0  0  0  0  0  0  0
   -6.7151   -3.3519  -21.2353 H   0  0  0  0  0  0  0  0  0  0  0  0
  -10.5857   -1.6471  -22.7841 C   0  0  0  0  0  0  0  0  0  0  0  0
  -11.2070   -2.5740  -21.9453 C   0  0  0  0  0  0  0  0  0  0  0  0
  -12.5849   -2.6052  -21.8475 C   0  0  0  0  0  0  0  0  0  0  0  0
  -13.3150   -3.7655  -20.7795 Cl  0  0  0  0  0  0  0  0  0  0  0  0
  -13.3989   -1.7266  -22.5627 C   0  0  0  0  0  0  0  0  0  0  0  0
  -12.7900   -0.7772  -23.3555 C   0  0  0  0  0  0  0  0  0  0  0  0
  -11.4019   -0.7161  -23.4410 C   0  0  0  0  0  0  0  0  0  0  0  0
  -10.8141    0.4250  -24.2031 C   0  0  0  0  0  0  0  0  0  0  0  0
  -11.5044    1.3256  -24.6637 O   0  0  0  0  0  0  0  0  0  0  0  0
  -13.3619   -0.0436  -23.9119 H   0  0  0  0  0  0  0  0  0  0  0  0
  -14.4784   -1.7811  -22.4682 H   0  0  0  0  0  0  0  0  0  0  0  0
  -10.6310   -3.2699  -21.3458 H   0  0  0  0  0  0  0  0  0  0  0  0
   -7.6314   -0.5878  -24.1846 H   0  0  0  0  0  0  0  0  0  0  0  0
   -8.9198   -1.4944  -25.0070 H   0  0  0  0  0  0  0  0  0  0  0  0
   -9.5736    2.2706  -25.1691 H   0  0  0  0  0  0  0  0  0  0  0  0
   -8.2165    1.2688  -25.7762 H   0  0  0  0  0  0  0  0  0  0  0  0
   -9.2984    2.7034  -22.5810 H   0  0  0  0  0  0  0  0  0  0  0  0
   -6.8797    2.5331  -21.4102 H   0  0  0  0  0  0  0  0  0  0  0  0
   -7.9582    3.9483  -21.0934 H   0  0  0  0  0  0  0  0  0  0  0  0
   -6.6902    4.0451  -22.3264 H   0  0  0  0  0  0  0  0  0  0  0  0
  1  2  1  0
  2  3  1  0
  3  4  2  0
  3  5  1  0
  5  6  1  0
  6  7  1  0
  8  7  1  6
  8  9  1  0
  9 10  2  0
  9 11  1  0
 11 12  1  0
 12 13  2  0
 13 14  1  0
 14 15  2  0
 15 16  1  0
 16 17  2  0
 17 18  1  0
 18 19  2  0
 19 20  1  0
 20 21  2  0
 20 22  1  0
 19 23  1  0
 18 24  1  0
 17 25  1  0
 15 26  1  0
 13 27  1  0
 11 28  1  0
 28 29  1  0
 29 30  1  0
 30 31  1  0
 31 32  1  0
 32 33  2  0
 33 34  1  0
 34 35  2  0
 35 36  1  0
 36 37  2  0
 36 38  1  0
 34 39  1  0
 33 40  1  0
 31 41  1  0
 30 42  1  0
 30 43  1  0
 29 44  1  1
 28 45  1  0
 28 46  1  0
  8 47  1  0
 47 48  2  0
 48 49  1  0
 49 50  1  0
 49 51  2  0
 51 52  1  0
 52 53  2  0
 53 54  1  0
 54 55  2  0
 52 56  1  0
 51 57  1  0
 48 58  1  0
  7 59  1  0
  7 60  1  0
  5 61  1  0
  5 62  1  0
  2 63  1  0
  1 64  1  0
  1 65  1  0
  1 66  1  0
 54  6  1  0
 29  8  1  0
 37 32  1  0
 53 47  1  0
 21 12  1  0
 21 16  1  0
M  END
>  <cnnaffinities>  (1) 
[6.83653, 6.89914, 6.90651, 6.45139]

>  <score>  (1) 
6.83653

>  <index>  (1) 
0

>  <Smiles>  (1) 
C(N(C(=O)C(N1C([C@@]2(C(=O)N(c3c(nc(c4c(c(c(c(c34)[H])[H])[H])[H])[H])[H])C([C@@]2(C(N(c2c(c(nc(n2)[H])[H])[H])[H])([H])[H])[H])([H])[H])c2c(c(Cl)c(c(c2C1=O)[H])[H])[H])([H])[H])([H])[H])[H])([H])([H])[H]

>  <h>  (1) 
<NA>

>  <Training>  (1) 
True

>  <Success>  (1) 
True

>  <enamine_searched>  (1) 
False

>  <enamine_id>  (1) 
nan

$$$$

     RDKit          3D

 68 73  0  0  0  0  0  0  0  0999 V2000
   -7.3019    3.4700  -21.9861 C   0  0  0  0  0  0  0  0  0  0  0  0
   -8.2963    2.9242  -22.8920 N   0  0  0  0  0  0  0  0  0  0  0  0
   -7.8891    2.2255  -23.9855 C   0  0  0  0  0  0  0  0  0  0  0  0
   -6.7115    2.0668  -24.2690 O   0  0  0  0  0  0  0  0  0  0  0  0
   -9.0096    1.6453  -24.8542 C   0  0  0  0  0  0  0  0  0  0  0  0
   -9.6129    0.4756  -24.2363 N   0  0  0  0  0  0  0  0  0  0  0  0
   -8.7735   -0.6965  -24.0583 C   0  0  0  0  0  0  0  0  0  0  0  0
   -9.1119   -1.4843  -22.7593 C   0  0  2  0  0  0  0  0  0  0  0  0
   -8.6160   -0.6723  -21.5397 C   0  0  0  0  0  0  0  0  0  0  0  0
   -9.1264    0.3225  -21.0670 O   0  0  0  0  0  0  0  0  0  0  0  0
   -7.4496   -1.2442  -21.0857 N   0  0  0  0  0  0  0  0  0  0  0  0
   -6.6549   -0.6790  -20.0691 C   0  0  0  0  0  0  0  0  0  0  0  0
   -6.9381   -0.9494  -18.7576 C   0  0  0  0  0  0  0  0  0  0  0  0
   -6.2003   -0.4964  -17.7170 N   0  0  0  0  0  0  0  0  0  0  0  0
   -5.1528    0.2443  -17.9991 C   0  0  0  0  0  0  0  0  0  0  0  0
   -4.7382    0.5812  -19.3218 C   0  0  0  0  0  0  0  0  0  0  0  0
   -3.5972    1.3852  -19.5896 C   0  0  0  0  0  0  0  0  0  0  0  0
   -3.2343    1.6752  -20.8777 C   0  0  0  0  0  0  0  0  0  0  0  0
   -3.9927    1.1836  -21.9644 C   0  0  0  0  0  0  0  0  0  0  0  0
   -5.1076    0.4157  -21.7330 C   0  0  0  0  0  0  0  0  0  0  0  0
   -5.5055    0.0962  -20.4026 C   0  0  0  0  0  0  0  0  0  0  0  0
   -5.7010    0.0673  -22.5736 H   0  0  0  0  0  0  0  0  0  0  0  0
   -3.7081    1.4209  -22.9860 H   0  0  0  0  0  0  0  0  0  0  0  0
   -2.3688    2.3008  -21.0755 H   0  0  0  0  0  0  0  0  0  0  0  0
   -3.0381    1.7788  -18.7457 H   0  0  0  0  0  0  0  0  0  0  0  0
   -4.5667    0.6157  -17.1581 H   0  0  0  0  0  0  0  0  0  0  0  0
   -7.7971   -1.5721  -18.5119 H   0  0  0  0  0  0  0  0  0  0  0  0
   -6.9978   -2.3855  -21.8387 C   0  0  0  0  0  0  0  0  0  0  0  0
   -8.2509   -2.7823  -22.6198 C   0  0  2  0  0  0  0  0  0  0  0  0
   -7.8983   -3.5037  -23.9029 C   0  0  0  0  0  0  0  0  0  0  0  0
   -9.0976   -4.0304  -24.5000 N   0  0  0  0  0  0  0  0  0  0  0  0
   -8.9678   -4.5288  -25.7899 C   0  0  0  0  0  0  0  0  0  0  0  0
   -7.7757   -4.8034  -26.5104 C   0  0  0  0  0  0  0  0  0  0  0  0
   -8.0411   -5.3181  -27.7048 N   0  0  0  0  0  0  0  0  0  0  0  0
   -9.3684   -5.3730  -27.7613 N   0  0  0  0  0  0  0  0  0  0  0  0
  -10.0399   -5.9027  -28.9106 C   0  0  0  0  0  0  0  0  0  0  0  0
  -10.8138   -5.1852  -29.1922 H   0  0  0  0  0  0  0  0  0  0  0  0
  -10.5024   -6.8742  -28.6937 H   0  0  0  0  0  0  0  0  0  0  0  0
   -9.2934   -6.0126  -29.6979 H   0  0  0  0  0  0  0  0  0  0  0  0
   -9.9831   -4.9217  -26.6404 C   0  0  0  0  0  0  0  0  0  0  0  0
  -11.0694   -4.9239  -26.5676 H   0  0  0  0  0  0  0  0  0  0  0  0
   -6.7426   -4.6531  -26.2163 H   0  0  0  0  0  0  0  0  0  0  0  0
   -9.9133   -3.4399  -24.3780 H   0  0  0  0  0  0  0  0  0  0  0  0
   -7.3605   -2.8202  -24.5902 H   0  0  0  0  0  0  0  0  0  0  0  0
   -7.2190   -4.3405  -23.6984 H   0  0  0  0  0  0  0  0  0  0  0  0
   -8.8210   -3.4760  -21.9953 H   0  0  0  0  0  0  0  0  0  0  0  0
   -6.1487   -2.1389  -22.4993 H   0  0  0  0  0  0  0  0  0  0  0  0
   -6.6533   -3.1742  -21.1609 H   0  0  0  0  0  0  0  0  0  0  0  0
  -10.6203   -1.6779  -22.6958 C   0  0  0  0  0  0  0  0  0  0  0  0
  -11.1985   -2.6845  -21.9088 C   0  0  0  0  0  0  0  0  0  0  0  0
  -12.5753   -2.7748  -21.7890 C   0  0  0  0  0  0  0  0  0  0  0  0
  -13.2682   -4.0115  -20.7843 Cl  0  0  0  0  0  0  0  0  0  0  0  0
  -13.4315   -1.8854  -22.4327 C   0  0  0  0  0  0  0  0  0  0  0  0
  -12.8711   -0.8817  -23.1948 C   0  0  0  0  0  0  0  0  0  0  0  0
  -11.4870   -0.7654  -23.3202 C   0  0  0  0  0  0  0  0  0  0  0  0
  -10.9718    0.4146  -24.0922 C   0  0  0  0  0  0  0  0  0  0  0  0
  -11.7221    1.2761  -24.5335 O   0  0  0  0  0  0  0  0  0  0  0  0
  -13.4862   -0.1489  -23.7032 H   0  0  0  0  0  0  0  0  0  0  0  0
  -14.5065   -1.9756  -22.3165 H   0  0  0  0  0  0  0  0  0  0  0  0
  -10.5964   -3.3975  -21.3574 H   0  0  0  0  0  0  0  0  0  0  0  0
   -7.7408   -0.3416  -24.0134 H   0  0  0  0  0  0  0  0  0  0  0  0
   -8.8697   -1.3453  -24.9405 H   0  0  0  0  0  0  0  0  0  0  0  0
   -9.8199    2.3657  -25.0031 H   0  0  0  0  0  0  0  0  0  0  0  0
   -8.5595    1.4056  -25.8269 H   0  0  0  0  0  0  0  0  0  0  0  0
   -9.2382    2.8020  -22.5495 H   0  0  0  0  0  0  0  0  0  0  0  0
   -6.5610    4.0116  -22.5780 H   0  0  0  0  0  0  0  0  0  0  0  0
   -7.7918    4.1653  -21.2995 H   0  0  0  0  0  0  0  0  0  0  0  0
   -6.7799    2.6825  -21.4198 H   0  0  0  0  0  0  0  0  0  0  0  0
  1  2  1  0
  2  3  1  0
  3  4  2  0
  3  5  1  0
  5  6  1  0
  6  7  1  0
  8  7  1  6
  8  9  1  0
  9 10  2  0
  9 11  1  0
 11 12  1  0
 12 13  2  0
 13 14  1  0
 14 15  2  0
 15 16  1  0
 16 17  2  0
 17 18  1  0
 18 19  2  0
 19 20  1  0
 20 21  2  0
 20 22  1  0
 19 23  1  0
 18 24  1  0
 17 25  1  0
 15 26  1  0
 13 27  1  0
 11 28  1  0
 28 29  1  0
 29 30  1  0
 30 31  1  0
 31 32  1  0
 32 33  1  0
 33 34  2  0
 34 35  1  0
 35 36  1  0
 36 37  1  0
 36 38  1  0
 36 39  1  0
 35 40  1  0
 40 41  1  0
 33 42  1  0
 31 43  1  0
 30 44  1  0
 30 45  1  0
 29 46  1  1
 28 47  1  0
 28 48  1  0
  8 49  1  0
 49 50  2  0
 50 51  1  0
 51 52  1  0
 51 53  2  0
 53 54  1  0
 54 55  2  0
 55 56  1  0
 56 57  2  0
 54 58  1  0
 53 59  1  0
 50 60  1  0
  7 61  1  0
  7 62  1  0
  5 63  1  0
  5 64  1  0
  2 65  1  0
  1 66  1  0
  1 67  1  0
  1 68  1  0
 56  6  1  0
 29  8  1  0
 40 32  2  0
 55 49  1  0
 21 12  1  0
 21 16  1  0
M  END
>  <cnnaffinities>  (2) 
[6.22354]

>  <score>  (2) 
6.22354

>  <index>  (2) 
1

>  <Smiles>  (2) 
C(N(C(=O)C(N1C([C@@]2(C(=O)N(c3c(nc(c4c(c(c(c(c34)[H])[H])[H])[H])[H])[H])C([C@@]2(C(N(c2c(nn(C([H])([H])[H])c2[H])[H])[H])([H])[H])[H])([H])[H])c2c(c(Cl)c(c(c2C1=O)[H])[H])[H])([H])[H])([H])[H])[H])([H])([H])[H]

>  <h>  (2) 
<NA>

>  <Training>  (2) 
True

>  <Success>  (2) 
True

>  <enamine_searched>  (2) 
False

>  <enamine_id>  (2) 
nan

$$$$

     RDKit          3D

 60 65  0  0  0  0  0  0  0  0999 V2000
   -6.0753   -7.6249  -26.6193 C   0  0  0  0  0  0  0  0  0  0  0  0
   -6.5165   -6.1906  -26.7111 C   0  0  0  0  0  0  0  0  0  0  0  0
   -5.6643   -5.1412  -26.3726 C   0  0  0  0  0  0  0  0  0  0  0  0
   -6.0356   -3.8618  -26.4054 N   0  0  0  0  0  0  0  0  0  0  0  0
   -7.2913   -3.6091  -26.7821 C   0  0  0  0  0  0  0  0  0  0  0  0
   -7.7529   -2.1740  -26.8054 C   0  0  0  0  0  0  0  0  0  0  0  0
   -8.6124   -1.8241  -25.6814 N   0  0  0  0  0  0  0  0  0  0  0  0
   -7.9742   -1.2727  -24.4945 C   0  0  0  0  0  0  0  0  0  0  0  0
   -8.7476   -1.5389  -23.1858 C   0  0  2  0  0  0  0  0  0  0  0  0
   -8.1389   -0.6056  -22.1105 C   0  0  0  0  0  0  0  0  0  0  0  0
   -8.2291    0.6029  -22.0500 O   0  0  0  0  0  0  0  0  0  0  0  0
   -7.4163   -1.3658  -21.2175 N   0  0  0  0  0  0  0  0  0  0  0  0
   -6.6154   -0.7958  -20.1906 C   0  0  0  0  0  0  0  0  0  0  0  0
   -6.9002   -1.0531  -18.8734 C   0  0  0  0  0  0  0  0  0  0  0  0
   -6.2039   -0.5576  -17.8192 N   0  0  0  0  0  0  0  0  0  0  0  0
   -5.1732    0.2093  -18.0839 C   0  0  0  0  0  0  0  0  0  0  0  0
   -4.7354    0.5274  -19.3999 C   0  0  0  0  0  0  0  0  0  0  0  0
   -3.5984    1.3496  -19.6336 C   0  0  0  0  0  0  0  0  0  0  0  0
   -3.1840    1.6169  -20.9084 C   0  0  0  0  0  0  0  0  0  0  0  0
   -3.8819    1.0649  -22.0078 C   0  0  0  0  0  0  0  0  0  0  0  0
   -4.9819    0.2724  -21.8061 C   0  0  0  0  0  0  0  0  0  0  0  0
   -5.4600    0.0003  -20.4942 C   0  0  0  0  0  0  0  0  0  0  0  0
   -5.5101   -0.1434  -22.6581 H   0  0  0  0  0  0  0  0  0  0  0  0
   -3.5535    1.2840  -23.0187 H   0  0  0  0  0  0  0  0  0  0  0  0
   -2.3252    2.2587  -21.0863 H   0  0  0  0  0  0  0  0  0  0  0  0
   -3.0790    1.7670  -18.7736 H   0  0  0  0  0  0  0  0  0  0  0  0
   -4.6272    0.6156  -17.2316 H   0  0  0  0  0  0  0  0  0  0  0  0
   -7.7460   -1.6861  -18.6091 H   0  0  0  0  0  0  0  0  0  0  0  0
   -7.4007   -2.7819  -21.5284 C   0  0  0  0  0  0  0  0  0  0  0  0
   -8.5330   -2.9600  -22.5526 C   0  0  2  0  0  0  0  0  0  0  0  0
   -8.2930   -4.1138  -23.5262 C   0  0  0  0  0  0  0  0  0  0  0  0
   -9.0843   -4.1621  -24.2823 H   0  0  0  0  0  0  0  0  0  0  0  0
   -8.2676   -5.0695  -22.9916 H   0  0  0  0  0  0  0  0  0  0  0  0
   -7.3400   -4.0019  -24.0548 H   0  0  0  0  0  0  0  0  0  0  0  0
   -9.4591   -3.1606  -21.9928 H   0  0  0  0  0  0  0  0  0  0  0  0
   -6.4298   -3.0974  -21.9406 H   0  0  0  0  0  0  0  0  0  0  0  0
   -7.5673   -3.3503  -20.6158 H   0  0  0  0  0  0  0  0  0  0  0  0
  -10.2178   -1.2610  -23.4367 C   0  0  0  0  0  0  0  0  0  0  0  0
  -11.0384   -0.9498  -22.3472 C   0  0  0  0  0  0  0  0  0  0  0  0
  -12.3885   -0.7401  -22.5612 C   0  0  0  0  0  0  0  0  0  0  0  0
  -13.2204   -0.3837  -21.5743 F   0  0  0  0  0  0  0  0  0  0  0  0
  -12.9653   -0.8911  -23.8112 C   0  0  0  0  0  0  0  0  0  0  0  0
  -12.1640   -1.2408  -24.8764 C   0  0  0  0  0  0  0  0  0  0  0  0
  -10.7912   -1.4220  -24.7035 C   0  0  0  0  0  0  0  0  0  0  0  0
   -9.9650   -1.8359  -25.8781 C   0  0  0  0  0  0  0  0  0  0  0  0
  -10.4603   -2.1740  -26.9461 O   0  0  0  0  0  0  0  0  0  0  0  0
  -12.5888   -1.3754  -25.8601 H   0  0  0  0  0  0  0  0  0  0  0  0
  -14.0344   -0.7328  -23.8901 H   0  0  0  0  0  0  0  0  0  0  0  0
  -10.5865   -0.8847  -21.3647 H   0  0  0  0  0  0  0  0  0  0  0  0
   -6.9766   -1.7272  -24.4433 H   0  0  0  0  0  0  0  0  0  0  0  0
   -7.8718   -0.1789  -24.5771 H   0  0  0  0  0  0  0  0  0  0  0  0
   -8.3251   -1.9808  -27.7173 H   0  0  0  0  0  0  0  0  0  0  0  0
   -6.8611   -1.5428  -26.7757 H   0  0  0  0  0  0  0  0  0  0  0  0
   -8.1354   -4.6512  -27.1428 C   0  0  0  0  0  0  0  0  0  0  0  0
   -7.7635   -5.9321  -27.1069 N   0  0  0  0  0  0  0  0  0  0  0  0
   -9.1441   -4.4345  -27.4812 H   0  0  0  0  0  0  0  0  0  0  0  0
   -4.6498   -5.3553  -26.0451 H   0  0  0  0  0  0  0  0  0  0  0  0
   -5.1353   -7.7884  -27.1602 H   0  0  0  0  0  0  0  0  0  0  0  0
   -5.8979   -7.8957  -25.5715 H   0  0  0  0  0  0  0  0  0  0  0  0
   -6.8557   -8.2640  -27.0358 H   0  0  0  0  0  0  0  0  0  0  0  0
  1  2  1  0
  2  3  2  0
  3  4  1  0
  4  5  2  0
  5  6  1  0
  6  7  1  0
  7  8  1  0
  9  8  1  6
  9 10  1  0
 10 11  2  0
 10 12  1  0
 12 13  1  0
 13 14  2  0
 14 15  1  0
 15 16  2  0
 16 17  1  0
 17 18  2  0
 18 19  1  0
 19 20  2  0
 20 21  1  0
 21 22  2  0
 21 23  1  0
 20 24  1  0
 19 25  1  0
 18 26  1  0
 16 27  1  0
 14 28  1  0
 12 29  1  0
 29 30  1  0
 30 31  1  0
 31 32  1  0
 31 33  1  0
 31 34  1  0
 30 35  1  1
 29 36  1  0
 29 37  1  0
  9 38  1  0
 38 39  2  0
 39 40  1  0
 40 41  1  0
 40 42  2  0
 42 43  1  0
 43 44  2  0
 44 45  1  0
 45 46  2  0
 43 47  1  0
 42 48  1  0
 39 49  1  0
  8 50  1  0
  8 51  1  0
  6 52  1  0
  6 53  1  0
  5 54  1  0
 54 55  2  0
 54 56  1  0
  3 57  1  0
  1 58  1  0
  1 59  1  0
  1 60  1  0
 55  2  1  0
 45  7  1  0
 30  9  1  0
 44 38  1  0
 22 13  1  0
 22 17  1  0
M  END
>  <cnnaffinities>  (3) 
[6.32017, 6.18456, 6.2097, 6.58487, 6.61586]

>  <score>  (3) 
6.32017

>  <index>  (3) 
2

>  <Smiles>  (3) 
C(c1c(nc(C(N2C([C@@]3(C(=O)N(c4c(nc(c5c(c(c(c(c45)[H])[H])[H])[H])[H])[H])C([C@@]3(C([H])([H])[H])[H])([H])[H])c3c(c(F)c(c(c3C2=O)[H])[H])[H])([H])[H])([H])[H])c(n1)[H])[H])([H])([H])[H]

>  <h>  (3) 
<NA>

>  <Training>  (3) 
True

>  <Success>  (3) 
True

>  <enamine_searched>  (3) 
False

>  <enamine_id>  (3) 
nan

$$$$

     RDKit          3D

 66 70  0  0  0  0  0  0  0  0999 V2000
   -7.4890    3.2998  -21.8997 C   0  0  0  0  0  0  0  0  0  0  0  0
   -8.5164    2.8307  -22.8185 N   0  0  0  0  0  0  0  0  0  0  0  0
   -8.0644    2.0754  -23.8647 C   0  0  0  0  0  0  0  0  0  0  0  0
   -6.8708    1.8808  -24.0557 O   0  0  0  0  0  0  0  0  0  0  0  0
   -9.1038    1.4641  -24.8008 C   0  0  0  0  0  0  0  0  0  0  0  0
   -9.6576    0.2602  -24.2138 N   0  0  0  0  0  0  0  0  0  0  0  0
   -8.8167   -0.9203  -24.0957 C   0  0  0  0  0  0  0  0  0  0  0  0
   -9.0958   -1.6982  -22.7875 C   0  0  2  0  0  0  0  0  0  0  0  0
   -8.5797   -0.8907  -21.5751 C   0  0  0  0  0  0  0  0  0  0  0  0
   -9.1089    0.0692  -21.0478 O   0  0  0  0  0  0  0  0  0  0  0  0
   -7.3745   -1.4284  -21.1897 N   0  0  0  0  0  0  0  0  0  0  0  0
   -6.5996   -0.8282  -20.1709 C   0  0  0  0  0  0  0  0  0  0  0  0
   -6.9275   -1.0465  -18.8569 C   0  0  0  0  0  0  0  0  0  0  0  0
   -6.2367   -0.5494  -17.8043 N   0  0  0  0  0  0  0  0  0  0  0  0
   -5.1941    0.2026  -18.0732 C   0  0  0  0  0  0  0  0  0  0  0  0
   -4.7523    0.5182  -19.3908 C   0  0  0  0  0  0  0  0  0  0  0  0
   -3.6306    1.3555  -19.6282 C   0  0  0  0  0  0  0  0  0  0  0  0
   -3.2443    1.6531  -20.9069 C   0  0  0  0  0  0  0  0  0  0  0  0
   -3.9634    1.1388  -22.0071 C   0  0  0  0  0  0  0  0  0  0  0  0
   -5.0602    0.3331  -21.8077 C   0  0  0  0  0  0  0  0  0  0  0  0
   -5.4738   -0.0073  -20.4878 C   0  0  0  0  0  0  0  0  0  0  0  0
   -5.6264   -0.0142  -22.6674 H   0  0  0  0  0  0  0  0  0  0  0  0
   -3.6526    1.3859  -23.0183 H   0  0  0  0  0  0  0  0  0  0  0  0
   -2.3869    2.2950  -21.0835 H   0  0  0  0  0  0  0  0  0  0  0  0
   -3.1018    1.7612  -18.7711 H   0  0  0  0  0  0  0  0  0  0  0  0
   -4.6337    0.6034  -17.2285 H   0  0  0  0  0  0  0  0  0  0  0  0
   -7.7933   -1.6605  -18.6206 H   0  0  0  0  0  0  0  0  0  0  0  0
   -6.9577   -2.5910  -21.9501 C   0  0  0  0  0  0  0  0  0  0  0  0
   -8.2343   -2.9948  -22.7096 C   0  0  2  0  0  0  0  0  0  0  0  0
   -7.9370   -3.6849  -24.0372 C   0  0  0  0  0  0  0  0  0  0  0  0
   -7.2274   -4.8839  -23.7928 O   0  0  0  0  0  0  0  0  0  0  0  0
   -7.0489   -5.6962  -24.9524 C   0  0  0  0  0  0  0  0  0  0  0  0
   -5.6740   -6.3455  -24.8706 C   0  0  0  0  0  0  0  0  0  0  0  0
   -5.4929   -6.9605  -25.7604 H   0  0  0  0  0  0  0  0  0  0  0  0
   -4.8845   -5.5907  -24.8088 H   0  0  0  0  0  0  0  0  0  0  0  0
   -5.6122   -6.9890  -23.9874 H   0  0  0  0  0  0  0  0  0  0  0  0
   -8.1511   -6.7504  -25.0440 C   0  0  0  0  0  0  0  0  0  0  0  0
   -8.1270   -7.3971  -24.1601 H   0  0  0  0  0  0  0  0  0  0  0  0
   -9.1462   -6.2951  -25.1078 H   0  0  0  0  0  0  0  0  0  0  0  0
   -8.0033   -7.3741  -25.9352 H   0  0  0  0  0  0  0  0  0  0  0  0
   -7.0847   -5.0659  -25.8590 H   0  0  0  0  0  0  0  0  0  0  0  0
   -8.8820   -3.8795  -24.5733 H   0  0  0  0  0  0  0  0  0  0  0  0
   -7.3267   -3.0216  -24.6752 H   0  0  0  0  0  0  0  0  0  0  0  0
   -8.7672   -3.7198  -22.0933 H   0  0  0  0  0  0  0  0  0  0  0  0
   -6.1333   -2.3511  -22.6384 H   0  0  0  0  0  0  0  0  0  0  0  0
   -6.6107   -3.3809  -21.2794 H   0  0  0  0  0  0  0  0  0  0  0  0
  -10.5939   -1.8901  -22.6839 C   0  0  0  0  0  0  0  0  0  0  0  0
  -11.1313   -2.8732  -21.8514 C   0  0  0  0  0  0  0  0  0  0  0  0
  -12.5021   -2.9822  -21.7070 C   0  0  0  0  0  0  0  0  0  0  0  0
  -13.1366   -4.1643  -20.6067 Cl  0  0  0  0  0  0  0  0  0  0  0  0
  -13.3934   -2.1577  -22.3904 C   0  0  0  0  0  0  0  0  0  0  0  0
  -12.8676   -1.1666  -23.1885 C   0  0  0  0  0  0  0  0  0  0  0  0
  -11.4905   -1.0112  -23.3063 C   0  0  0  0  0  0  0  0  0  0  0  0
  -11.0099    0.1787  -24.0656 C   0  0  0  0  0  0  0  0  0  0  0  0
  -11.7728    1.0376  -24.4982 O   0  0  0  0  0  0  0  0  0  0  0  0
  -13.4989   -0.4669  -23.7203 H   0  0  0  0  0  0  0  0  0  0  0  0
  -14.4637   -2.2850  -22.2673 H   0  0  0  0  0  0  0  0  0  0  0  0
  -10.4935   -3.5471  -21.2910 H   0  0  0  0  0  0  0  0  0  0  0  0
   -9.0072   -1.5909  -24.9431 H   0  0  0  0  0  0  0  0  0  0  0  0
   -7.7695   -0.6083  -24.1443 H   0  0  0  0  0  0  0  0  0  0  0  0
   -8.5950    1.2221  -25.7424 H   0  0  0  0  0  0  0  0  0  0  0  0
   -9.9435    2.1383  -25.0085 H   0  0  0  0  0  0  0  0  0  0  0  0
   -9.4292    2.6250  -22.4227 H   0  0  0  0  0  0  0  0  0  0  0  0
   -6.7430    3.8407  -22.4848 H   0  0  0  0  0  0  0  0  0  0  0  0
   -7.9145    3.9980  -21.1748 H   0  0  0  0  0  0  0  0  0  0  0  0
   -6.9959    2.4470  -21.4008 H   0  0  0  0  0  0  0  0  0  0  0  0
  1  2  1  0
  2  3  1  0
  3  4  2  0
  3  5  1  0
  5  6  1  0
  6  7  1  0
  8  7  1  6
  8  9  1  0
  9 10  2  0
  9 11  1  0
 11 12  1  0
 12 13  2  0
 13 14  1  0
 14 15  2  0
 15 16  1  0
 16 17  2  0
 17 18  1  0
 18 19  2  0
 19 20  1  0
 20 21  2  0
 20 22  1  0
 19 23  1  0
 18 24  1  0
 17 25  1  0
 15 26  1  0
 13 27  1  0
 11 28  1  0
 28 29  1  0
 29 30  1  0
 30 31  1  0
 31 32  1  0
 32 33  1  0
 33 34  1  0
 33 35  1  0
 33 36  1  0
 32 37  1  0
 37 38  1  0
 37 39  1  0
 37 40  1  0
 32 41  1  0
 30 42  1  0
 30 43  1  0
 29 44  1  1
 28 45  1  0
 28 46  1  0
  8 47  1  0
 47 48  2  0
 48 49  1  0
 49 50  1  0
 49 51  2  0
 51 52  1  0
 52 53  2  0
 53 54  1  0
 54 55  2  0
 52 56  1  0
 51 57  1  0
 48 58  1  0
  7 59  1  0
  7 60  1  0
  5 61  1  0
  5 62  1  0
  2 63  1  0
  1 64  1  0
  1 65  1  0
  1 66  1  0
 54  6  1  0
 29  8  1  0
 53 47  1  0
 21 12  1  0
 21 16  1  0
M  END
>  <cnnaffinities>  (4) 
[6.34904]

>  <score>  (4) 
6.34904

>  <index>  (4) 
3

>  <Smiles>  (4) 
C(N(C(=O)C(N1C([C@@]2(C(=O)N(c3c(nc(c4c(c(c(c(c34)[H])[H])[H])[H])[H])[H])C([C@@]2(C(OC(C([H])([H])[H])(C([H])([H])[H])[H])([H])[H])[H])([H])[H])c2c(c(Cl)c(c(c2C1=O)[H])[H])[H])([H])[H])([H])[H])[H])([H])([H])[H]

>  <h>  (4) 
<NA>

>  <Training>  (4) 
True

>  <Success>  (4) 
True

>  <enamine_searched>  (4) 
False

>  <enamine_id>  (4) 
nan

$$$$

     RDKit          3D

 59 64  0  0  0  0  0  0  0  0999 V2000
   -8.0733   -3.8362  -23.8626 C   0  0  0  0  0  0  0  0  0  0  0  0
   -8.4153   -2.8536  -22.7343 C   0  0  1  0  0  0  0  0  0  0  0  0
   -7.2616   -2.7007  -21.7203 C   0  0  0  0  0  0  0  0  0  0  0  0
   -7.4328   -1.3587  -21.1973 N   0  0  0  0  0  0  0  0  0  0  0  0
   -6.6120   -0.8004  -20.1809 C   0  0  0  0  0  0  0  0  0  0  0  0
   -6.8989   -1.0513  -18.8639 C   0  0  0  0  0  0  0  0  0  0  0  0
   -6.1976   -0.5586  -17.8140 N   0  0  0  0  0  0  0  0  0  0  0  0
   -5.1675    0.2093  -18.0826 C   0  0  0  0  0  0  0  0  0  0  0  0
   -4.7382    0.5318  -19.4025 C   0  0  0  0  0  0  0  0  0  0  0  0
   -3.6052    1.3588  -19.6420 C   0  0  0  0  0  0  0  0  0  0  0  0
   -3.2054    1.6370  -20.9206 C   0  0  0  0  0  0  0  0  0  0  0  0
   -3.9137    1.0956  -22.0189 C   0  0  0  0  0  0  0  0  0  0  0  0
   -5.0118    0.2975  -21.8128 C   0  0  0  0  0  0  0  0  0  0  0  0
   -5.4689    0.0079  -20.4930 C   0  0  0  0  0  0  0  0  0  0  0  0
   -5.5438   -0.1161  -22.6661 H   0  0  0  0  0  0  0  0  0  0  0  0
   -3.6041    1.3201  -23.0359 H   0  0  0  0  0  0  0  0  0  0  0  0
   -2.3490    2.2836  -21.0943 H   0  0  0  0  0  0  0  0  0  0  0  0
   -3.0785    1.7725  -18.7852 H   0  0  0  0  0  0  0  0  0  0  0  0
   -4.6200    0.6147  -17.2312 H   0  0  0  0  0  0  0  0  0  0  0  0
   -7.7483   -1.6805  -18.6048 H   0  0  0  0  0  0  0  0  0  0  0  0
   -8.2405   -0.5583  -21.9726 C   0  0  0  0  0  0  0  0  0  0  0  0
   -8.4375    0.6178  -21.7521 O   0  0  0  0  0  0  0  0  0  0  0  0
   -8.7933   -1.3933  -23.1522 C   0  0  1  0  0  0  0  0  0  0  0  0
   -8.0667   -0.9680  -24.4544 C   0  0  0  0  0  0  0  0  0  0  0  0
   -8.4355    0.3714  -24.8672 N   0  0  0  0  0  0  0  0  0  0  0  0
   -7.3862    1.3723  -25.0191 C   0  0  0  0  0  0  0  0  0  0  0  0
   -6.2953    0.9668  -25.9706 C   0  0  0  0  0  0  0  0  0  0  0  0
   -5.0467    0.7240  -25.6249 N   0  0  0  0  0  0  0  0  0  0  0  0
   -4.4136    0.3467  -26.7827 C   0  0  0  0  0  0  0  0  0  0  0  0
   -5.2921    0.3666  -27.8300 C   0  0  0  0  0  0  0  0  0  0  0  0
   -6.5002    0.7717  -27.3043 N   0  0  0  0  0  0  0  0  0  0  0  0
   -7.7485    0.9202  -28.0292 C   0  0  0  0  0  0  0  0  0  0  0  0
   -8.4576    0.1330  -27.7543 H   0  0  0  0  0  0  0  0  0  0  0  0
   -8.2032    1.8959  -27.8273 H   0  0  0  0  0  0  0  0  0  0  0  0
   -7.5264    0.8470  -29.0972 H   0  0  0  0  0  0  0  0  0  0  0  0
   -5.1905    0.1278  -28.8797 H   0  0  0  0  0  0  0  0  0  0  0  0
   -3.3649    0.0712  -26.7820 H   0  0  0  0  0  0  0  0  0  0  0  0
   -7.8896    2.2884  -25.3436 H   0  0  0  0  0  0  0  0  0  0  0  0
   -6.9085    1.5553  -24.0460 H   0  0  0  0  0  0  0  0  0  0  0  0
   -9.7519    0.7128  -25.0094 C   0  0  0  0  0  0  0  0  0  0  0  0
  -10.1252    1.6642  -25.6874 O   0  0  0  0  0  0  0  0  0  0  0  0
  -10.7254   -0.1447  -24.2489 C   0  0  0  0  0  0  0  0  0  0  0  0
  -12.0889    0.1146  -24.4087 C   0  0  0  0  0  0  0  0  0  0  0  0
  -13.0237   -0.5316  -23.6238 C   0  0  0  0  0  0  0  0  0  0  0  0
  -12.5642   -1.4191  -22.6581 C   0  0  0  0  0  0  0  0  0  0  0  0
  -13.4623   -2.0138  -21.8552 F   0  0  0  0  0  0  0  0  0  0  0  0
  -11.2253   -1.7075  -22.4883 C   0  0  0  0  0  0  0  0  0  0  0  0
  -10.2781   -1.1092  -23.3300 C   0  0  0  0  0  0  0  0  0  0  0  0
  -10.9498   -2.3739  -21.6776 H   0  0  0  0  0  0  0  0  0  0  0  0
  -14.0880   -0.3449  -23.7129 H   0  0  0  0  0  0  0  0  0  0  0  0
  -12.3835    0.8550  -25.1437 H   0  0  0  0  0  0  0  0  0  0  0  0
   -6.9850   -0.9804  -24.3017 H   0  0  0  0  0  0  0  0  0  0  0  0
   -8.3181   -1.6774  -25.2570 H   0  0  0  0  0  0  0  0  0  0  0  0
   -7.3074   -3.4335  -20.9093 H   0  0  0  0  0  0  0  0  0  0  0  0
   -6.2840   -2.8238  -22.2143 H   0  0  0  0  0  0  0  0  0  0  0  0
   -9.2781   -3.2499  -22.1932 H   0  0  0  0  0  0  0  0  0  0  0  0
   -7.9025   -4.8444  -23.4663 H   0  0  0  0  0  0  0  0  0  0  0  0
   -8.8753   -3.9028  -24.6070 H   0  0  0  0  0  0  0  0  0  0  0  0
   -7.1582   -3.5358  -24.3890 H   0  0  0  0  0  0  0  0  0  0  0  0
  1  2  1  0
  2  3  1  0
  3  4  1  0
  4  5  1  0
  5  6  2  0
  6  7  1  0
  7  8  2  0
  8  9  1  0
  9 10  2  0
 10 11  1  0
 11 12  2  0
 12 13  1  0
 13 14  2  0
 13 15  1  0
 12 16  1  0
 11 17  1  0
 10 18  1  0
  8 19  1  0
  6 20  1  0
  4 21  1  0
 21 22  2  0
 21 23  1  0
 23 24  1  6
 24 25  1  0
 25 26  1  0
 26 27  1  0
 27 28  2  0
 28 29  1  0
 29 30  2  0
 30 31  1  0
 31 32  1  0
 32 33  1  0
 32 34  1  0
 32 35  1  0
 30 36  1  0
 29 37  1  0
 26 38  1  0
 26 39  1  0
 25 40  1  0
 40 41  2  0
 40 42  1  0
 42 43  2  0
 43 44  1  0
 44 45  2  0
 45 46  1  0
 45 47  1  0
 47 48  2  0
 47 49  1  0
 44 50  1  0
 43 51  1  0
 24 52  1  0
 24 53  1  0
  3 54  1  0
  3 55  1  0
  2 56  1  1
  1 57  1  0
  1 58  1  0
  1 59  1  0
 23  2  1  0
 31 27  1  0
 48 42  1  0
 14  5  1  0
 48 23  1  0
 14  9  1  0
M  END
>  <cnnaffinities>  (5) 
[6.50533, 6.37278, 6.33056]

>  <score>  (5) 
6.50533

>  <index>  (5) 
4

>  <Smiles>  (5) 
C([C@]1(C(N(c2c(nc(c3c(c(c(c(c23)[H])[H])[H])[H])[H])[H])C(=O)[C@]21C(N(C(c1nc(c(n1C([H])([H])[H])[H])[H])([H])[H])C(=O)c1c(c(c(F)c(c21)[H])[H])[H])([H])[H])([H])[H])[H])([H])([H])[H]

>  <h>  (5) 
<NA>

>  <Training>  (5) 
True

>  <Success>  (5) 
True

>  <enamine_searched>  (5) 
False

>  <enamine_id>  (5) 
nan

$$$$

     RDKit          3D

 58 61  0  0  0  0  0  0  0  0999 V2000
   -8.0272   -4.6497  -21.9520 C   0  0  0  0  0  0  0  0  0  0  0  0
   -7.0128   -3.8537  -21.6105 C   0  0  0  0  0  0  0  0  0  0  0  0
   -6.7282   -2.4497  -22.0414 C   0  0  0  0  0  0  0  0  0  0  0  0
   -7.3784   -1.4029  -21.2428 N   0  0  0  0  0  0  0  0  0  0  0  0
   -8.6141   -0.8067  -21.4835 C   0  0  0  0  0  0  0  0  0  0  0  0
   -9.0753   -0.0020  -20.6993 O   0  0  0  0  0  0  0  0  0  0  0  0
   -9.3327   -1.1127  -22.7983 C   0  0  2  0  0  0  0  0  0  0  0  0
   -8.7274   -0.2429  -23.9127 C   0  0  0  0  0  0  0  0  0  0  0  0
   -9.0591    1.1518  -23.6590 N   0  0  0  0  0  0  0  0  0  0  0  0
   -8.0158    2.1576  -23.7155 C   0  0  0  0  0  0  0  0  0  0  0  0
   -7.5048    2.3247  -25.1440 C   0  0  0  0  0  0  0  0  0  0  0  0
   -6.4547    1.8318  -25.5283 O   0  0  0  0  0  0  0  0  0  0  0  0
   -8.3360    3.0177  -25.9592 N   0  0  0  0  0  0  0  0  0  0  0  0
   -7.9710    3.2131  -27.3466 C   0  0  0  0  0  0  0  0  0  0  0  0
   -7.0212    3.7525  -27.4154 H   0  0  0  0  0  0  0  0  0  0  0  0
   -7.8447    2.2534  -27.8593 H   0  0  0  0  0  0  0  0  0  0  0  0
   -8.7509    3.7909  -27.8456 H   0  0  0  0  0  0  0  0  0  0  0  0
   -9.2436    3.2982  -25.6150 H   0  0  0  0  0  0  0  0  0  0  0  0
   -7.1797    1.8632  -23.0704 H   0  0  0  0  0  0  0  0  0  0  0  0
   -8.4523    3.0893  -23.3416 H   0  0  0  0  0  0  0  0  0  0  0  0
  -10.3585    1.5514  -23.5123 C   0  0  0  0  0  0  0  0  0  0  0  0
  -10.7249    2.6925  -23.7741 O   0  0  0  0  0  0  0  0  0  0  0  0
  -11.2838    0.4917  -22.9957 C   0  0  0  0  0  0  0  0  0  0  0  0
  -12.6328    0.8048  -22.8188 C   0  0  0  0  0  0  0  0  0  0  0  0
  -13.5218   -0.1605  -22.3799 C   0  0  0  0  0  0  0  0  0  0  0  0
  -13.0464   -1.4416  -22.1022 C   0  0  0  0  0  0  0  0  0  0  0  0
  -14.1655   -2.6620  -21.5701 Cl  0  0  0  0  0  0  0  0  0  0  0  0
  -11.6999   -1.7496  -22.2336 C   0  0  0  0  0  0  0  0  0  0  0  0
  -10.8037   -0.7834  -22.6915 C   0  0  0  0  0  0  0  0  0  0  0  0
  -11.3472   -2.7437  -21.9715 H   0  0  0  0  0  0  0  0  0  0  0  0
  -14.5747    0.0685  -22.2461 H   0  0  0  0  0  0  0  0  0  0  0  0
  -12.9609    1.8173  -23.0321 H   0  0  0  0  0  0  0  0  0  0  0  0
   -9.1198   -0.5626  -24.8894 H   0  0  0  0  0  0  0  0  0  0  0  0
   -7.6366   -0.3149  -23.9576 H   0  0  0  0  0  0  0  0  0  0  0  0
   -9.2210   -2.1735  -23.0282 H   0  0  0  0  0  0  0  0  0  0  0  0
   -6.6222   -0.8214  -20.1894 C   0  0  0  0  0  0  0  0  0  0  0  0
   -6.9602   -1.0484  -18.8826 C   0  0  0  0  0  0  0  0  0  0  0  0
   -6.2703   -0.5649  -17.8213 N   0  0  0  0  0  0  0  0  0  0  0  0
   -5.2145    0.1776  -18.0708 C   0  0  0  0  0  0  0  0  0  0  0  0
   -4.7570    0.5012  -19.3817 C   0  0  0  0  0  0  0  0  0  0  0  0
   -3.6219    1.3295  -19.6134 C   0  0  0  0  0  0  0  0  0  0  0  0
   -3.2253    1.6296  -20.8884 C   0  0  0  0  0  0  0  0  0  0  0  0
   -3.9460    1.1290  -21.9949 C   0  0  0  0  0  0  0  0  0  0  0  0
   -5.0541    0.3426  -21.7941 C   0  0  0  0  0  0  0  0  0  0  0  0
   -5.4786   -0.0098  -20.4818 C   0  0  0  0  0  0  0  0  0  0  0  0
   -5.6146   -0.0094  -22.6540 H   0  0  0  0  0  0  0  0  0  0  0  0
   -3.6312    1.3693  -23.0067 H   0  0  0  0  0  0  0  0  0  0  0  0
   -2.3652    2.2708  -21.0598 H   0  0  0  0  0  0  0  0  0  0  0  0
   -3.0934    1.7362  -18.7542 H   0  0  0  0  0  0  0  0  0  0  0  0
   -4.6679    0.5602  -17.2080 H   0  0  0  0  0  0  0  0  0  0  0  0
   -7.8463   -1.6383  -18.6521 H   0  0  0  0  0  0  0  0  0  0  0  0
   -6.9135   -2.2830  -23.1076 H   0  0  0  0  0  0  0  0  0  0  0  0
   -5.6599   -2.4267  -21.7705 H   0  0  0  0  0  0  0  0  0  0  0  0
   -5.7786   -4.3054  -20.7818 C   0  0  0  0  0  0  0  0  0  0  0  0
   -4.9191   -3.4015  -20.6548 O   0  0  0  0  0  0  0  0  0  0  0  0
   -5.6685   -5.4486  -20.3233 O   0  0  0  0  0  1  0  0  0  0  0  0
   -8.7885   -4.2767  -22.6399 H   0  0  0  0  0  0  0  0  0  0  0  0
   -8.1641   -5.6679  -21.5850 H   0  0  0  0  0  0  0  0  0  0  0  0
  1  2  2  0
  2  3  1  0
  3  4  1  0
  4  5  1  0
  5  6  2  0
  5  7  1  0
  7  8  1  0
  8  9  1  0
  9 10  1  0
 10 11  1  0
 11 12  2  0
 11 13  1  0
 13 14  1  0
 14 15  1  0
 14 16  1  0
 14 17  1  0
 13 18  1  0
 10 19  1  0
 10 20  1  0
  9 21  1  0
 21 22  2  0
 21 23  1  0
 23 24  2  0
 24 25  1  0
 25 26  2  0
 26 27  1  0
 26 28  1  0
 28 29  2  0
 28 30  1  0
 25 31  1  0
 24 32  1  0
  8 33  1  0
  8 34  1  0
  7 35  1  6
  4 36  1  0
 36 37  2  0
 37 38  1  0
 38 39  2  0
 39 40  1  0
 40 41  2  0
 41 42  1  0
 42 43  2  0
 43 44  1  0
 44 45  2  0
 44 46  1  0
 43 47  1  0
 42 48  1  0
 41 49  1  0
 39 50  1  0
 37 51  1  0
  3 52  1  0
  3 53  1  0
  2 54  1  0
 54 55  2  0
 54 56  1  0
  1 57  1  0
  1 58  1  0
 29  7  1  0
 45 36  1  0
 29 23  1  0
 45 40  1  0
M  CHG  1  56  -1
M  END
>  <cnnaffinities>  (6) 
[5.97716]

>  <score>  (6) 
5.97716

>  <index>  (6) 
5

>  <Smiles>  (6) 
C(=C(C(N(C(=O)[C@@]1(C(N(C(C(=O)N(C([H])([H])[H])[H])([H])[H])C(=O)c2c(c(c(Cl)c(c12)[H])[H])[H])([H])[H])[H])c1c(nc(c2c(c(c(c(c12)[H])[H])[H])[H])[H])[H])([H])[H])C(=O)[O-])([H])[H]

>  <h>  (6) 
<NA>

>  <Training>  (6) 
True

>  <Success>  (6) 
True

>  <enamine_searched>  (6) 
False

>  <enamine_id>  (6) 
nan

$$$$

     RDKit          3D

 43 45  0  0  0  0  0  0  0  0999 V2000
   -8.2947   -5.9230  -27.5889 C   0  0  0  0  0  0  0  0  0  0  0  0
   -8.9424   -4.8585  -26.7117 C   0  0  0  0  0  0  0  0  0  0  0  0
   -7.9762   -4.1566  -25.7456 C   0  0  0  0  0  0  0  0  0  0  0  0
   -7.3677   -5.1160  -24.7222 C   0  0  0  0  0  0  0  0  0  0  0  0
   -6.5635   -4.4020  -23.6399 C   0  0  0  0  0  0  0  0  0  0  0  0
   -7.3127   -3.3160  -22.9959 N   0  0  0  0  0  0  0  0  0  0  0  0
   -6.7218   -2.7008  -21.9183 C   0  0  0  0  0  0  0  0  0  0  0  0
   -5.6582   -3.1064  -21.4749 O   0  0  0  0  0  0  0  0  0  0  0  0
   -7.4108   -1.4704  -21.2756 C   0  0  0  0  0  0  0  0  0  0  0  0
   -6.5786   -0.8328  -20.1836 C   0  0  0  0  0  0  0  0  0  0  0  0
   -6.8734   -1.0470  -18.8635 C   0  0  0  0  0  0  0  0  0  0  0  0
   -6.1910   -0.5428  -17.7985 N   0  0  0  0  0  0  0  0  0  0  0  0
   -5.1596    0.2217  -18.0644 C   0  0  0  0  0  0  0  0  0  0  0  0
   -4.7218    0.5305  -19.3803 C   0  0  0  0  0  0  0  0  0  0  0  0
   -3.5933    1.3580  -19.6220 C   0  0  0  0  0  0  0  0  0  0  0  0
   -3.1924    1.6347  -20.9002 C   0  0  0  0  0  0  0  0  0  0  0  0
   -3.9051    1.0915  -21.9933 C   0  0  0  0  0  0  0  0  0  0  0  0
   -5.0014    0.2901  -21.7864 C   0  0  0  0  0  0  0  0  0  0  0  0
   -5.4453   -0.0126  -20.4736 C   0  0  0  0  0  0  0  0  0  0  0  0
   -5.5335   -0.1238  -22.6374 H   0  0  0  0  0  0  0  0  0  0  0  0
   -3.5803    1.3159  -23.0049 H   0  0  0  0  0  0  0  0  0  0  0  0
   -2.3305    2.2722  -21.0871 H   0  0  0  0  0  0  0  0  0  0  0  0
   -3.0562    1.7751  -18.7710 H   0  0  0  0  0  0  0  0  0  0  0  0
   -4.6021    0.6284  -17.2162 H   0  0  0  0  0  0  0  0  0  0  0  0
   -7.7215   -1.6717  -18.5880 H   0  0  0  0  0  0  0  0  0  0  0  0
   -8.3714   -1.7895  -20.8450 H   0  0  0  0  0  0  0  0  0  0  0  0
   -7.6540   -0.7198  -22.0417 H   0  0  0  0  0  0  0  0  0  0  0  0
   -8.6457   -3.0527  -23.5198 C   0  0  0  0  0  0  0  0  0  0  0  0
   -8.6339   -2.9509  -25.0430 C   0  0  0  0  0  0  0  0  0  0  0  0
   -8.1116   -2.0338  -25.3273 H   0  0  0  0  0  0  0  0  0  0  0  0
   -9.6635   -2.8244  -25.3930 H   0  0  0  0  0  0  0  0  0  0  0  0
   -9.3375   -3.8466  -23.2114 H   0  0  0  0  0  0  0  0  0  0  0  0
   -9.0309   -2.1251  -23.0972 H   0  0  0  0  0  0  0  0  0  0  0  0
   -6.2443   -5.1238  -22.8826 H   0  0  0  0  0  0  0  0  0  0  0  0
   -5.6397   -4.0050  -24.0754 H   0  0  0  0  0  0  0  0  0  0  0  0
   -6.7107   -5.8306  -25.2284 H   0  0  0  0  0  0  0  0  0  0  0  0
   -8.1488   -5.7332  -24.2654 H   0  0  0  0  0  0  0  0  0  0  0  0
   -7.1499   -3.7658  -26.3524 H   0  0  0  0  0  0  0  0  0  0  0  0
   -9.4075   -4.1053  -27.3590 H   0  0  0  0  0  0  0  0  0  0  0  0
   -9.7630   -5.3052  -26.1385 H   0  0  0  0  0  0  0  0  0  0  0  0
   -7.4222   -5.5189  -28.1125 H   0  0  0  0  0  0  0  0  0  0  0  0
   -7.9590   -6.7861  -27.0069 H   0  0  0  0  0  0  0  0  0  0  0  0
   -8.9916   -6.2903  -28.3493 H   0  0  0  0  0  0  0  0  0  0  0  0
  1  2  1  0
  2  3  1  0
  3  4  1  0
  4  5  1  0
  5  6  1  0
  6  7  1  0
  7  8  2  0
  7  9  1  0
  9 10  1  0
 10 11  2  0
 11 12  1  0
 12 13  2  0
 13 14  1  0
 14 15  2  0
 15 16  1  0
 16 17  2  0
 17 18  1  0
 18 19  2  0
 18 20  1  0
 17 21  1  0
 16 22  1  0
 15 23  1  0
 13 24  1  0
 11 25  1  0
  9 26  1  0
  9 27  1  0
  6 28  1  0
 28 29  1  0
 29 30  1  0
 29 31  1  0
 28 32  1  0
 28 33  1  0
  5 34  1  0
  5 35  1  0
  4 36  1  0
  4 37  1  0
  3 38  1  0
  2 39  1  0
  2 40  1  0
  1 41  1  0
  1 42  1  0
  1 43  1  0
 29  3  1  0
 19 10  1  0
 19 14  1  0
M  END
>  <cnnaffinities>  (7) 
[4.95907, 4.79269, 4.79268, 4.51285, 4.51311, 4.9285, 4.92793, 4.88436, 4.98827]

>  <score>  (7) 
4.95907

>  <index>  (7) 
6

>  <Smiles>  (7) 
C(C(C1(C(C(N(C(=O)C(c2c(nc(c3c(c(c(c(c23)[H])[H])[H])[H])[H])[H])([H])[H])C(C1([H])[H])([H])[H])([H])[H])([H])[H])[H])([H])[H])([H])([H])[H]

>  <h>  (7) 
<NA>

>  <Training>  (7) 
True

>  <Success>  (7) 
True

>  <enamine_searched>  (7) 
False

>  <enamine_id>  (7) 
nan

$$$$

     RDKit          3D

 44 47  0  0  0  0  0  0  0  0999 V2000
  -14.2845   -3.1342  -22.1092 C   0  0  0  0  0  0  0  0  0  0  0  0
  -13.3893   -4.1468  -22.8054 C   0  0  0  0  0  0  0  0  0  0  0  0
  -12.1403   -3.5001  -23.9244 S   0  0  0  0  0  0  0  0  0  0  0  0
  -11.4330   -4.6550  -24.4635 O   0  0  0  0  0  0  0  0  0  0  0  0
  -12.7725   -2.5398  -24.8043 O   0  0  0  0  0  0  0  0  0  0  0  0
  -11.0723   -2.6421  -22.9490 N   0  0  0  0  0  0  0  0  0  0  0  0
  -10.0123   -1.8008  -23.5941 C   0  0  0  0  0  0  0  0  0  0  0  0
   -8.9980   -2.3653  -22.5830 C   0  0  0  0  0  0  0  0  0  0  0  0
  -10.0763   -3.3825  -22.1551 C   0  0  0  0  0  0  0  0  0  0  0  0
   -9.8586   -4.3899  -22.5233 H   0  0  0  0  0  0  0  0  0  0  0  0
  -10.3069   -3.4308  -21.0952 H   0  0  0  0  0  0  0  0  0  0  0  0
   -8.6101   -1.3612  -21.5243 C   0  0  0  0  0  0  0  0  0  0  0  0
   -9.2953   -0.5036  -21.0197 O   0  0  0  0  0  0  0  0  0  0  0  0
   -7.2611   -1.5723  -21.2767 N   0  0  0  0  0  0  0  0  0  0  0  0
   -6.5572   -0.9248  -20.2332 C   0  0  0  0  0  0  0  0  0  0  0  0
   -6.9603   -1.1038  -18.9375 C   0  0  0  0  0  0  0  0  0  0  0  0
   -6.3146   -0.5822  -17.8674 N   0  0  0  0  0  0  0  0  0  0  0  0
   -5.2615    0.1660  -18.1040 C   0  0  0  0  0  0  0  0  0  0  0  0
   -4.7745    0.4705  -19.4086 C   0  0  0  0  0  0  0  0  0  0  0  0
   -3.6586    1.3202  -19.6238 C   0  0  0  0  0  0  0  0  0  0  0  0
   -3.2653    1.6342  -20.8966 C   0  0  0  0  0  0  0  0  0  0  0  0
   -3.9692    1.1275  -22.0115 C   0  0  0  0  0  0  0  0  0  0  0  0
   -5.0469    0.2999  -21.8323 C   0  0  0  0  0  0  0  0  0  0  0  0
   -5.4544   -0.0672  -20.5192 C   0  0  0  0  0  0  0  0  0  0  0  0
   -5.6084   -0.0678  -22.6869 H   0  0  0  0  0  0  0  0  0  0  0  0
   -3.6630    1.4042  -23.0161 H   0  0  0  0  0  0  0  0  0  0  0  0
   -2.4189    2.2937  -21.0609 H   0  0  0  0  0  0  0  0  0  0  0  0
   -3.1498    1.7294  -18.7573 H   0  0  0  0  0  0  0  0  0  0  0  0
   -4.7450    0.5864  -17.2399 H   0  0  0  0  0  0  0  0  0  0  0  0
   -7.8435   -1.7037  -18.7214 H   0  0  0  0  0  0  0  0  0  0  0  0
   -6.7292   -2.5743  -22.1037 C   0  0  0  0  0  0  0  0  0  0  0  0
   -5.6175   -3.0561  -22.0119 O   0  0  0  0  0  0  0  0  0  0  0  0
   -7.7149   -2.8988  -23.0038 N   0  0  0  0  0  0  0  0  0  0  0  0
   -7.5958   -4.0871  -23.8347 C   0  0  0  0  0  0  0  0  0  0  0  0
   -6.8969   -3.9142  -24.6584 H   0  0  0  0  0  0  0  0  0  0  0  0
   -7.2274   -4.9281  -23.2353 H   0  0  0  0  0  0  0  0  0  0  0  0
   -8.5716   -4.3483  -24.2586 H   0  0  0  0  0  0  0  0  0  0  0  0
  -10.2117   -0.7341  -23.4630 H   0  0  0  0  0  0  0  0  0  0  0  0
   -9.7662   -2.0381  -24.6366 H   0  0  0  0  0  0  0  0  0  0  0  0
  -12.8473   -4.7423  -22.0701 H   0  0  0  0  0  0  0  0  0  0  0  0
  -13.9707   -4.8266  -23.4418 H   0  0  0  0  0  0  0  0  0  0  0  0
  -13.7030   -2.3790  -21.5675 H   0  0  0  0  0  0  0  0  0  0  0  0
  -14.9281   -3.6777  -21.4048 H   0  0  0  0  0  0  0  0  0  0  0  0
  -14.9400   -2.6244  -22.8157 H   0  0  0  0  0  0  0  0  0  0  0  0
  1  2  1  0
  2  3  1  0
  3  4  2  0
  3  5  2  0
  3  6  1  0
  6  7  1  0
  7  8  1  0
  8  9  1  0
  9 10  1  0
  9 11  1  0
  8 12  1  0
 12 13  2  0
 12 14  1  0
 14 15  1  0
 15 16  2  0
 16 17  1  0
 17 18  2  0
 18 19  1  0
 19 20  2  0
 20 21  1  0
 21 22  2  0
 22 23  1  0
 23 24  2  0
 23 25  1  0
 22 26  1  0
 21 27  1  0
 20 28  1  0
 18 29  1  0
 16 30  1  0
 14 31  1  0
 31 32  2  0
 31 33  1  0
 33 34  1  0
 34 35  1  0
 34 36  1  0
 34 37  1  0
  7 38  1  0
  7 39  1  0
  2 40  1  0
  2 41  1  0
  1 42  1  0
  1 43  1  0
  1 44  1  0
  9  6  1  0
 24 15  1  0
 33  8  1  0
 24 19  1  0
M  END
>  <cnnaffinities>  (8) 
[5.74519]

>  <score>  (8) 
5.74519

>  <index>  (8) 
7

>  <Smiles>  (8) 
C(C(S(=O)(=O)N1C(C2(C1([H])[H])C(=O)N(c1c(nc(c3c(c(c(c(c13)[H])[H])[H])[H])[H])[H])C(=O)N2C([H])([H])[H])([H])[H])([H])[H])([H])([H])[H]

>  <h>  (8) 
<NA>

>  <Training>  (8) 
True

>  <Success>  (8) 
True

>  <enamine_searched>  (8) 
False

>  <enamine_id>  (8) 
nan

$$$$

     RDKit          3D

 60 64  0  0  0  0  0  0  0  0999 V2000
   -7.6123    3.0598  -21.9420 C   0  0  0  0  0  0  0  0  0  0  0  0
   -8.7633    2.5849  -22.6966 N   0  0  0  0  0  0  0  0  0  0  0  0
   -8.4769    1.7917  -23.7681 C   0  0  0  0  0  0  0  0  0  0  0  0
   -7.3184    1.5387  -24.0861 O   0  0  0  0  0  0  0  0  0  0  0  0
   -9.6430    1.2051  -24.5599 C   0  0  0  0  0  0  0  0  0  0  0  0
  -10.1010   -0.0088  -23.9152 N   0  0  0  0  0  0  0  0  0  0  0  0
   -9.2190   -1.1679  -23.8991 C   0  0  0  0  0  0  0  0  0  0  0  0
   -9.3021   -1.9151  -22.5436 C   0  0  2  0  0  0  0  0  0  0  0  0
   -8.7069   -0.9934  -21.4427 C   0  0  0  0  0  0  0  0  0  0  0  0
   -9.2420   -0.0270  -20.9350 O   0  0  0  0  0  0  0  0  0  0  0  0
   -7.4209   -1.4174  -21.1711 N   0  0  0  0  0  0  0  0  0  0  0  0
   -6.6263   -0.8220  -20.1591 C   0  0  0  0  0  0  0  0  0  0  0  0
   -6.9341   -1.0434  -18.8384 C   0  0  0  0  0  0  0  0  0  0  0  0
   -6.2284   -0.5521  -17.7923 N   0  0  0  0  0  0  0  0  0  0  0  0
   -5.1877    0.1972  -18.0721 C   0  0  0  0  0  0  0  0  0  0  0  0
   -4.7577    0.5126  -19.3928 C   0  0  0  0  0  0  0  0  0  0  0  0
   -3.6383    1.3523  -19.6350 C   0  0  0  0  0  0  0  0  0  0  0  0
   -3.2626    1.6521  -20.9153 C   0  0  0  0  0  0  0  0  0  0  0  0
   -3.9902    1.1407  -22.0107 C   0  0  0  0  0  0  0  0  0  0  0  0
   -5.0871    0.3348  -21.8041 C   0  0  0  0  0  0  0  0  0  0  0  0
   -5.4929   -0.0112  -20.4845 C   0  0  0  0  0  0  0  0  0  0  0  0
   -5.6693    0.0086  -22.6607 H   0  0  0  0  0  0  0  0  0  0  0  0
   -3.6859    1.3911  -23.0226 H   0  0  0  0  0  0  0  0  0  0  0  0
   -2.4072    2.2962  -21.0941 H   0  0  0  0  0  0  0  0  0  0  0  0
   -3.1050    1.7578  -18.7787 H   0  0  0  0  0  0  0  0  0  0  0  0
   -4.6219    0.6026  -17.2321 H   0  0  0  0  0  0  0  0  0  0  0  0
   -7.7915   -1.6646  -18.5922 H   0  0  0  0  0  0  0  0  0  0  0  0
   -6.9963   -2.5587  -21.9657 C   0  0  0  0  0  0  0  0  0  0  0  0
   -8.3309   -3.1274  -22.4874 C   0  0  2  0  0  0  0  0  0  0  0  0
   -8.1815   -3.9079  -23.7943 C   0  0  0  0  0  0  0  0  0  0  0  0
   -7.3929   -5.0639  -23.6295 O   0  0  0  0  0  0  0  0  0  0  0  0
   -8.1438   -6.2297  -23.4219 C   0  0  0  0  0  0  0  0  0  0  0  0
   -8.7222   -6.5066  -24.3154 H   0  0  0  0  0  0  0  0  0  0  0  0
   -8.8364   -6.1103  -22.5816 H   0  0  0  0  0  0  0  0  0  0  0  0
   -7.4482   -7.0383  -23.1889 H   0  0  0  0  0  0  0  0  0  0  0  0
   -7.6676   -3.2741  -24.5310 H   0  0  0  0  0  0  0  0  0  0  0  0
   -9.1747   -4.1545  -24.2068 H   0  0  0  0  0  0  0  0  0  0  0  0
   -8.6887   -3.8087  -21.7082 H   0  0  0  0  0  0  0  0  0  0  0  0
   -6.3405   -2.2483  -22.7955 H   0  0  0  0  0  0  0  0  0  0  0  0
   -6.4473   -3.2798  -21.3518 H   0  0  0  0  0  0  0  0  0  0  0  0
  -10.7791   -2.2164  -22.3176 C   0  0  0  0  0  0  0  0  0  0  0  0
  -11.2264   -3.3211  -21.5897 C   0  0  0  0  0  0  0  0  0  0  0  0
  -12.5612   -3.4292  -21.2367 C   0  0  0  0  0  0  0  0  0  0  0  0
  -13.0435   -4.6224  -20.0772 Cl  0  0  0  0  0  0  0  0  0  0  0  0
  -13.5294   -2.5418  -21.6901 C   0  0  0  0  0  0  0  0  0  0  0  0
  -13.1122   -1.4852  -22.4647 C   0  0  0  0  0  0  0  0  0  0  0  0
  -11.7621   -1.3117  -22.7518 C   0  0  0  0  0  0  0  0  0  0  0  0
  -11.3979   -0.0766  -23.5035 C   0  0  0  0  0  0  0  0  0  0  0  0
  -12.2094    0.8175  -23.7243 O   0  0  0  0  0  0  0  0  0  0  0  0
  -13.8078   -0.7483  -22.8459 H   0  0  0  0  0  0  0  0  0  0  0  0
  -14.5701   -2.6726  -21.4182 H   0  0  0  0  0  0  0  0  0  0  0  0
  -10.5519   -4.0938  -21.2447 H   0  0  0  0  0  0  0  0  0  0  0  0
   -8.1982   -0.8199  -24.0885 H   0  0  0  0  0  0  0  0  0  0  0  0
   -9.5007   -1.8614  -24.7030 H   0  0  0  0  0  0  0  0  0  0  0  0
  -10.5005    1.8840  -24.6314 H   0  0  0  0  0  0  0  0  0  0  0  0
   -9.2860    0.9725  -25.5718 H   0  0  0  0  0  0  0  0  0  0  0  0
   -9.6230    2.4367  -22.1740 H   0  0  0  0  0  0  0  0  0  0  0  0
   -7.9269    3.8596  -21.2690 H   0  0  0  0  0  0  0  0  0  0  0  0
   -6.8918    3.4679  -22.6533 H   0  0  0  0  0  0  0  0  0  0  0  0
   -7.1315    2.2399  -21.3791 H   0  0  0  0  0  0  0  0  0  0  0  0
  1  2  1  0
  2  3  1  0
  3  4  2  0
  3  5  1  0
  5  6  1  0
  6  7  1  0
  8  7  1  6
  8  9  1  0
  9 10  2  0
  9 11  1  0
 11 12  1  0
 12 13  2  0
 13 14  1  0
 14 15  2  0
 15 16  1  0
 16 17  2  0
 17 18  1  0
 18 19  2  0
 19 20  1  0
 20 21  2  0
 20 22  1  0
 19 23  1  0
 18 24  1  0
 17 25  1  0
 15 26  1  0
 13 27  1  0
 11 28  1  0
 28 29  1  0
 29 30  1  0
 30 31  1  0
 31 32  1  0
 32 33  1  0
 32 34  1  0
 32 35  1  0
 30 36  1  0
 30 37  1  0
 29 38  1  1
 28 39  1  0
 28 40  1  0
  8 41  1  0
 41 42  2  0
 42 43  1  0
 43 44  1  0
 43 45  2  0
 45 46  1  0
 46 47  2  0
 47 48  1  0
 48 49  2  0
 46 50  1  0
 45 51  1  0
 42 52  1  0
  7 53  1  0
  7 54  1  0
  5 55  1  0
  5 56  1  0
  2 57  1  0
  1 58  1  0
  1 59  1  0
  1 60  1  0
 48  6  1  0
 29  8  1  0
 47 41  1  0
 21 12  1  0
 21 16  1  0
M  END
>  <cnnaffinities>  (9) 
[6.62209, 6.4141, 6.36986, 6.44064, 6.37022]

>  <score>  (9) 
6.62209

>  <index>  (9) 
8

>  <Smiles>  (9) 
C(N(C(=O)C(N1C([C@@]2(C(=O)N(c3c(nc(c4c(c(c(c(c34)[H])[H])[H])[H])[H])[H])C([C@@]2(C(OC([H])([H])[H])([H])[H])[H])([H])[H])c2c(c(Cl)c(c(c2C1=O)[H])[H])[H])([H])[H])([H])[H])[H])([H])([H])[H]

>  <h>  (9) 
<NA>

>  <Training>  (9) 
True

>  <Success>  (9) 
True

>  <enamine_searched>  (9) 
False

>  <enamine_id>  (9) 
nan

$$$$

     RDKit          3D

 41 43  0  0  0  0  0  0  0  0999 V2000
  -13.1791   -2.9271  -22.9036 C   0  0  0  0  0  0  0  0  0  0  0  0
  -11.9702   -2.0482  -23.2188 C   0  0  1  0  0  0  0  0  0  0  0  0
  -12.1568   -0.6589  -22.6459 C   0  0  0  0  0  0  0  0  0  0  0  0
  -11.3188    0.3567  -22.8359 C   0  0  0  0  0  0  0  0  0  0  0  0
  -10.0218    0.2184  -23.6035 C   0  0  0  0  0  0  0  0  0  0  0  0
   -9.0911   -0.7822  -23.0593 N   0  0  0  0  0  0  0  0  0  0  0  0
   -8.3788   -0.4055  -21.9310 C   0  0  0  0  0  0  0  0  0  0  0  0
   -8.4775    0.7173  -21.4717 O   0  0  0  0  0  0  0  0  0  0  0  0
   -7.4317   -1.4337  -21.2727 C   0  0  0  0  0  0  0  0  0  0  0  0
   -6.5793   -0.8285  -20.1812 C   0  0  0  0  0  0  0  0  0  0  0  0
   -6.8789   -1.0392  -18.8614 C   0  0  0  0  0  0  0  0  0  0  0  0
   -6.1948   -0.5368  -17.7977 N   0  0  0  0  0  0  0  0  0  0  0  0
   -5.1582    0.2211  -18.0641 C   0  0  0  0  0  0  0  0  0  0  0  0
   -4.7246    0.5350  -19.3801 C   0  0  0  0  0  0  0  0  0  0  0  0
   -3.5988    1.3658  -19.6213 C   0  0  0  0  0  0  0  0  0  0  0  0
   -3.2107    1.6584  -20.9007 C   0  0  0  0  0  0  0  0  0  0  0  0
   -3.9338    1.1305  -21.9933 C   0  0  0  0  0  0  0  0  0  0  0  0
   -5.0262    0.3232  -21.7870 C   0  0  0  0  0  0  0  0  0  0  0  0
   -5.4538    0.0013  -20.4721 C   0  0  0  0  0  0  0  0  0  0  0  0
   -5.5766   -0.0660  -22.6375 H   0  0  0  0  0  0  0  0  0  0  0  0
   -3.6220    1.3725  -23.0054 H   0  0  0  0  0  0  0  0  0  0  0  0
   -2.3531    2.3021  -21.0868 H   0  0  0  0  0  0  0  0  0  0  0  0
   -3.0585    1.7768  -18.7707 H   0  0  0  0  0  0  0  0  0  0  0  0
   -4.6017    0.6275  -17.2162 H   0  0  0  0  0  0  0  0  0  0  0  0
   -7.7303   -1.6604  -18.5864 H   0  0  0  0  0  0  0  0  0  0  0  0
   -6.7962   -1.8993  -22.0378 H   0  0  0  0  0  0  0  0  0  0  0  0
   -8.0413   -2.2446  -20.8451 H   0  0  0  0  0  0  0  0  0  0  0  0
   -9.3947   -2.1694  -23.3975 C   0  0  0  0  0  0  0  0  0  0  0  0
  -10.6667   -2.7290  -22.7527 C   0  0  0  0  0  0  0  0  0  0  0  0
  -10.5873   -2.6366  -21.6640 H   0  0  0  0  0  0  0  0  0  0  0  0
  -10.7249   -3.8067  -22.9657 H   0  0  0  0  0  0  0  0  0  0  0  0
   -8.5306   -2.7933  -23.1564 H   0  0  0  0  0  0  0  0  0  0  0  0
   -9.5107   -2.2203  -24.4857 H   0  0  0  0  0  0  0  0  0  0  0  0
  -10.2462   -0.0763  -24.6356 H   0  0  0  0  0  0  0  0  0  0  0  0
   -9.5082    1.1796  -23.6532 H   0  0  0  0  0  0  0  0  0  0  0  0
  -11.5319    1.3282  -22.3880 H   0  0  0  0  0  0  0  0  0  0  0  0
  -13.0290   -0.4953  -22.0112 H   0  0  0  0  0  0  0  0  0  0  0  0
  -11.9084   -1.9520  -24.3132 H   0  0  0  0  0  0  0  0  0  0  0  0
  -13.0972   -3.9090  -23.3855 H   0  0  0  0  0  0  0  0  0  0  0  0
  -13.2637   -3.0900  -21.8220 H   0  0  0  0  0  0  0  0  0  0  0  0
  -14.1066   -2.4565  -23.2508 H   0  0  0  0  0  0  0  0  0  0  0  0
  1  2  1  0
  2  3  1  0
  3  4  2  0
  4  5  1  0
  5  6  1  0
  6  7  1  0
  7  8  2  0
  7  9  1  0
  9 10  1  0
 10 11  2  0
 11 12  1  0
 12 13  2  0
 13 14  1  0
 14 15  2  0
 15 16  1  0
 16 17  2  0
 17 18  1  0
 18 19  2  0
 18 20  1  0
 17 21  1  0
 16 22  1  0
 15 23  1  0
 13 24  1  0
 11 25  1  0
  9 26  1  0
  9 27  1  0
  6 28  1  0
 28 29  1  0
 29 30  1  0
 29 31  1  0
 28 32  1  0
 28 33  1  0
  5 34  1  0
  5 35  1  0
  4 36  1  0
  3 37  1  0
  2 38  1  6
  1 39  1  0
  1 40  1  0
  1 41  1  0
 29  2  1  0
 19 10  1  0
 19 14  1  0
M  END
>  <cnnaffinities>  (10) 
[5.02233]

>  <score>  (10) 
5.02233

>  <index>  (10) 
9

>  <Smiles>  (10) 
C([C@]1(C(=C(C(N(C(=O)C(c2c(nc(c3c(c(c(c(c23)[H])[H])[H])[H])[H])[H])([H])[H])C(C1([H])[H])([H])[H])([H])[H])[H])[H])[H])([H])([H])[H]

>  <h>  (10) 
<NA>

>  <Training>  (10) 
True

>  <Success>  (10) 
True

>  <enamine_searched>  (10) 
False

>  <enamine_id>  (10) 
nan

$$$$

     RDKit          3D

 57 62  0  0  0  0  0  0  0  0999 V2000
  -10.4536   -1.1571  -23.2791 C   0  0  0  0  0  0  0  0  0  0  0  0
   -9.0073   -1.4798  -22.9354 C   0  0  1  0  0  0  0  0  0  0  0  0
   -8.3940   -0.5238  -21.9027 C   0  0  0  0  0  0  0  0  0  0  0  0
   -7.4025   -1.3468  -21.2325 N   0  0  0  0  0  0  0  0  0  0  0  0
   -6.5879   -0.8503  -20.1887 C   0  0  0  0  0  0  0  0  0  0  0  0
   -6.9012   -1.1004  -18.8770 C   0  0  0  0  0  0  0  0  0  0  0  0
   -6.2343   -0.5727  -17.8188 N   0  0  0  0  0  0  0  0  0  0  0  0
   -5.2117    0.2070  -18.0797 C   0  0  0  0  0  0  0  0  0  0  0  0
   -4.7618    0.5182  -19.3954 C   0  0  0  0  0  0  0  0  0  0  0  0
   -3.6353    1.3459  -19.6301 C   0  0  0  0  0  0  0  0  0  0  0  0
   -3.2265    1.6102  -20.9078 C   0  0  0  0  0  0  0  0  0  0  0  0
   -3.9226    1.0666  -22.0101 C   0  0  0  0  0  0  0  0  0  0  0  0
   -5.0205    0.2657  -21.8119 C   0  0  0  0  0  0  0  0  0  0  0  0
   -5.4662   -0.0216  -20.4935 C   0  0  0  0  0  0  0  0  0  0  0  0
   -5.5449   -0.1603  -22.6618 H   0  0  0  0  0  0  0  0  0  0  0  0
   -3.5893    1.2904  -23.0192 H   0  0  0  0  0  0  0  0  0  0  0  0
   -2.3671    2.2501  -21.0856 H   0  0  0  0  0  0  0  0  0  0  0  0
   -3.1183    1.7673  -18.7726 H   0  0  0  0  0  0  0  0  0  0  0  0
   -4.6726    0.6335  -17.2314 H   0  0  0  0  0  0  0  0  0  0  0  0
   -7.7432   -1.7447  -18.6329 H   0  0  0  0  0  0  0  0  0  0  0  0
   -7.5637   -2.6994  -21.4485 C   0  0  0  0  0  0  0  0  0  0  0  0
   -6.8197   -3.5596  -21.0185 O   0  0  0  0  0  0  0  0  0  0  0  0
   -8.7860   -2.9159  -22.3471 C   0  0  1  0  0  0  0  0  0  0  0  0
   -9.9780   -3.3992  -21.4864 C   0  0  0  0  0  0  0  0  0  0  0  0
  -11.0994   -3.9019  -22.2741 N   0  0  0  0  0  0  0  0  0  0  0  0
  -12.4268   -3.9795  -21.6597 C   0  0  0  0  0  0  0  0  0  0  0  0
  -13.3595   -2.8663  -22.0451 C   0  0  0  0  0  0  0  0  0  0  0  0
  -13.9535   -1.8371  -21.3980 C   0  0  0  0  0  0  0  0  0  0  0  0
  -14.6671   -1.1159  -22.3367 N   0  0  0  0  0  4  0  0  0  0  0  0
  -14.5304   -1.7221  -23.5217 C   0  0  0  0  0  0  0  0  0  0  0  0
  -13.7562   -2.7933  -23.3643 N   0  0  0  0  0  0  0  0  0  0  0  0
  -13.3994   -3.4594  -24.0529 H   0  0  0  0  0  0  0  0  0  0  0  0
  -14.9448   -1.3948  -24.4539 H   0  0  0  0  0  0  0  0  0  0  0  0
  -15.1221   -0.2266  -22.1637 H   0  0  0  0  0  0  0  0  0  0  0  0
  -13.9918   -1.5492  -20.3584 H   0  0  0  0  0  0  0  0  0  0  0  0
  -12.8794   -4.8839  -22.0642 H   0  0  0  0  0  0  0  0  0  0  0  0
  -12.3433   -4.1241  -20.5788 H   0  0  0  0  0  0  0  0  0  0  0  0
  -10.9493   -4.4889  -23.4932 C   0  0  0  0  0  0  0  0  0  0  0  0
  -11.9179   -4.7854  -24.1999 O   0  0  0  0  0  0  0  0  0  0  0  0
   -9.5492   -4.7109  -23.9439 C   0  0  0  0  0  0  0  0  0  0  0  0
   -9.2976   -5.6813  -24.9102 C   0  0  0  0  0  0  0  0  0  0  0  0
   -8.0248   -5.8622  -25.4153 C   0  0  0  0  0  0  0  0  0  0  0  0
   -7.0226   -5.0202  -24.9485 C   0  0  0  0  0  0  0  0  0  0  0  0
   -5.7961   -5.1342  -25.4798 F   0  0  0  0  0  0  0  0  0  0  0  0
   -7.2294   -4.0861  -23.9525 C   0  0  0  0  0  0  0  0  0  0  0  0
   -8.5095   -3.9444  -23.4126 C   0  0  0  0  0  0  0  0  0  0  0  0
   -6.3969   -3.4913  -23.5915 H   0  0  0  0  0  0  0  0  0  0  0  0
   -7.7990   -6.6185  -26.1620 H   0  0  0  0  0  0  0  0  0  0  0  0
  -10.1221   -6.2906  -25.2566 H   0  0  0  0  0  0  0  0  0  0  0  0
   -9.6465   -4.1885  -20.8076 H   0  0  0  0  0  0  0  0  0  0  0  0
  -10.3239   -2.5518  -20.8852 H   0  0  0  0  0  0  0  0  0  0  0  0
   -7.9276    0.3513  -22.3706 H   0  0  0  0  0  0  0  0  0  0  0  0
   -9.1486   -0.1558  -21.1891 H   0  0  0  0  0  0  0  0  0  0  0  0
   -8.3967   -1.4286  -23.8490 H   0  0  0  0  0  0  0  0  0  0  0  0
  -11.0655   -1.1531  -22.3698 H   0  0  0  0  0  0  0  0  0  0  0  0
  -10.8514   -1.9265  -23.9469 H   0  0  0  0  0  0  0  0  0  0  0  0
  -10.5414   -0.1813  -23.7632 H   0  0  0  0  0  0  0  0  0  0  0  0
  1  2  1  0
  2  3  1  0
  3  4  1  0
  4  5  1  0
  5  6  2  0
  6  7  1  0
  7  8  2  0
  8  9  1  0
  9 10  2  0
 10 11  1  0
 11 12  2  0
 12 13  1  0
 13 14  2  0
 13 15  1  0
 12 16  1  0
 11 17  1  0
 10 18  1  0
  8 19  1  0
  6 20  1  0
  4 21  1  0
 21 22  2  0
 21 23  1  0
 23 24  1  1
 24 25  1  0
 25 26  1  0
 26 27  1  0
 27 28  2  0
 28 29  1  0
 29 30  2  0
 30 31  1  0
 31 32  1  0
 30 33  1  0
 29 34  1  0
 28 35  1  0
 26 36  1  0
 26 37  1  0
 25 38  1  0
 38 39  2  0
 38 40  1  0
 40 41  2  0
 41 42  1  0
 42 43  2  0
 43 44  1  0
 43 45  1  0
 45 46  2  0
 45 47  1  0
 42 48  1  0
 41 49  1  0
 24 50  1  0
 24 51  1  0
  3 52  1  0
  3 53  1  0
  2 54  1  6
  1 55  1  0
  1 56  1  0
  1 57  1  0
 23  2  1  0
 31 27  1  0
 46 40  1  0
 14  5  1  0
 46 23  1  0
 14  9  1  0
M  CHG  1  29   1
M  END
>  <cnnaffinities>  (11) 
[6.65961]

>  <score>  (11) 
6.65961

>  <index>  (11) 
10

>  <Smiles>  (11) 
C([C@]1(C(N(c2c(nc(c3c(c(c(c(c23)[H])[H])[H])[H])[H])[H])C(=O)[C@]21C(N(C(c1c([n+](c(n1[H])[H])[H])[H])([H])[H])C(=O)c1c(c(c(F)c(c21)[H])[H])[H])([H])[H])([H])[H])[H])([H])([H])[H]

>  <h>  (11) 
<NA>

>  <Training>  (11) 
True

>  <Success>  (11) 
True

>  <enamine_searched>  (11) 
False

>  <enamine_id>  (11) 
nan

$$$$

     RDKit          3D

 48 52  0  0  0  0  0  0  0  0999 V2000
  -10.0570   -0.7851  -23.6116 C   0  0  0  0  0  0  0  0  0  0  0  0
   -9.0538   -1.3044  -22.7083 N   0  0  0  0  0  0  0  0  0  0  0  0
   -8.3021   -0.4580  -21.9468 C   0  0  0  0  0  0  0  0  0  0  0  0
   -8.3526    0.7535  -21.9178 O   0  0  0  0  0  0  0  0  0  0  0  0
   -7.4360   -1.2648  -21.2007 N   0  0  0  0  0  0  0  0  0  0  0  0
   -6.6136   -0.7621  -20.1731 C   0  0  0  0  0  0  0  0  0  0  0  0
   -6.9365   -1.0293  -18.8721 C   0  0  0  0  0  0  0  0  0  0  0  0
   -6.2559   -0.5361  -17.8127 N   0  0  0  0  0  0  0  0  0  0  0  0
   -5.2210    0.2318  -18.0649 C   0  0  0  0  0  0  0  0  0  0  0  0
   -4.7624    0.5481  -19.3777 C   0  0  0  0  0  0  0  0  0  0  0  0
   -3.6218    1.3614  -19.6118 C   0  0  0  0  0  0  0  0  0  0  0  0
   -3.1977    1.6085  -20.8898 C   0  0  0  0  0  0  0  0  0  0  0  0
   -3.8944    1.0730  -21.9967 C   0  0  0  0  0  0  0  0  0  0  0  0
   -5.0120    0.3028  -21.7964 C   0  0  0  0  0  0  0  0  0  0  0  0
   -5.4745    0.0326  -20.4780 C   0  0  0  0  0  0  0  0  0  0  0  0
   -5.5563   -0.1005  -22.6433 H   0  0  0  0  0  0  0  0  0  0  0  0
   -3.5484    1.2761  -23.0083 H   0  0  0  0  0  0  0  0  0  0  0  0
   -2.3236    2.2289  -21.0694 H   0  0  0  0  0  0  0  0  0  0  0  0
   -3.1087    1.7910  -18.7558 H   0  0  0  0  0  0  0  0  0  0  0  0
   -4.6757    0.6265  -17.2056 H   0  0  0  0  0  0  0  0  0  0  0  0
   -7.7958   -1.6586  -18.6504 H   0  0  0  0  0  0  0  0  0  0  0  0
   -7.6517   -2.6155  -21.4210 C   0  0  0  0  0  0  0  0  0  0  0  0
   -6.9955   -3.5187  -20.9631 O   0  0  0  0  0  0  0  0  0  0  0  0
   -8.8196   -2.6921  -22.3899 C   0  0  0  0  0  0  0  0  0  0  0  0
  -10.0325   -3.5699  -21.9680 C   0  0  0  0  0  0  0  0  0  0  0  0
   -9.8357   -4.4379  -23.1684 N   0  0  0  0  0  0  0  0  0  0  0  0
  -11.0614   -4.3601  -24.3501 S   0  0  0  0  0  0  0  0  0  0  0  0
  -12.2757   -4.8724  -23.7487 O   0  0  0  0  0  0  0  0  0  0  0  0
  -11.1084   -3.0442  -24.9679 O   0  0  0  0  0  0  0  0  0  0  0  0
  -10.3785   -5.5063  -25.5325 C   0  0  0  0  0  0  0  0  0  0  0  0
  -10.8173   -5.4132  -26.8478 C   0  0  0  0  0  0  0  0  0  0  0  0
  -10.4460   -6.4034  -27.7497 C   0  0  0  0  0  0  0  0  0  0  0  0
   -9.5550   -7.4035  -27.3738 C   0  0  0  0  0  0  0  0  0  0  0  0
   -9.0273   -7.4059  -26.0897 C   0  0  0  0  0  0  0  0  0  0  0  0
   -9.4562   -6.4804  -25.1476 C   0  0  0  0  0  0  0  0  0  0  0  0
   -9.0689   -6.5020  -24.1304 H   0  0  0  0  0  0  0  0  0  0  0  0
   -8.2774   -8.1425  -25.8314 H   0  0  0  0  0  0  0  0  0  0  0  0
   -9.2637   -8.1837  -28.0726 H   0  0  0  0  0  0  0  0  0  0  0  0
  -10.8642   -6.4140  -28.7452 H   0  0  0  0  0  0  0  0  0  0  0  0
  -11.4373   -4.5729  -27.1530 H   0  0  0  0  0  0  0  0  0  0  0  0
   -8.5788   -3.7258  -23.5067 C   0  0  0  0  0  0  0  0  0  0  0  0
   -7.7385   -4.3668  -23.2346 H   0  0  0  0  0  0  0  0  0  0  0  0
   -8.4792   -3.3685  -24.5332 H   0  0  0  0  0  0  0  0  0  0  0  0
   -9.8400   -4.1434  -21.0610 H   0  0  0  0  0  0  0  0  0  0  0  0
  -11.0033   -3.0731  -21.9058 H   0  0  0  0  0  0  0  0  0  0  0  0
   -9.9240    0.2949  -23.6198 H   0  0  0  0  0  0  0  0  0  0  0  0
   -9.9208   -1.1930  -24.6117 H   0  0  0  0  0  0  0  0  0  0  0  0
  -11.0631   -1.0173  -23.2535 H   0  0  0  0  0  0  0  0  0  0  0  0
  1  2  1  0
  2  3  1  0
  3  4  2  0
  3  5  1  0
  5  6  1  0
  6  7  2  0
  7  8  1  0
  8  9  2  0
  9 10  1  0
 10 11  2  0
 11 12  1  0
 12 13  2  0
 13 14  1  0
 14 15  2  0
 14 16  1  0
 13 17  1  0
 12 18  1  0
 11 19  1  0
  9 20  1  0
  7 21  1  0
  5 22  1  0
 22 23  2  0
 22 24  1  0
 24 25  1  0
 25 26  1  0
 26 27  1  0
 27 28  2  0
 27 29  2  0
 27 30  1  0
 30 31  2  0
 31 32  1  0
 32 33  2  0
 33 34  1  0
 34 35  2  0
 35 36  1  0
 34 37  1  0
 33 38  1  0
 32 39  1  0
 31 40  1  0
 26 41  1  0
 41 42  1  0
 41 43  1  0
 25 44  1  0
 25 45  1  0
  1 46  1  0
  1 47  1  0
  1 48  1  0
 24  2  1  0
 35 30  1  0
 15  6  1  0
 41 24  1  0
 15 10  1  0
M  END
>  <cnnaffinities>  (12) 
[5.81341, 5.52165, 5.81681, 5.55772, 5.81777, 5.56803]

>  <score>  (12) 
5.81341

>  <index>  (12) 
11

>  <Smiles>  (12) 
C(N1C(=O)N(c2c(nc(c3c(c(c(c(c23)[H])[H])[H])[H])[H])[H])C(=O)C21C(N(S(=O)(=O)c1c(c(c(c(c1[H])[H])[H])[H])[H])C2([H])[H])([H])[H])([H])([H])[H]

>  <h>  (12) 
<NA>

>  <Training>  (12) 
True

>  <Success>  (12) 
True

>  <enamine_searched>  (12) 
False

>  <enamine_id>  (12) 
nan

$$$$

     RDKit          3D

 76 82  0  0  0  0  0  0  0  0999 V2000
   -9.9371    1.2983  -26.0029 O   0  0  0  0  0  0  0  0  0  0  0  0
   -9.6617    0.4118  -25.2025 C   0  0  0  0  0  0  0  0  0  0  0  0
  -10.6984   -0.1602  -24.2822 C   0  0  0  0  0  0  0  0  0  0  0  0
  -12.0131    0.2753  -24.4357 C   0  0  0  0  0  0  0  0  0  0  0  0
  -13.0106   -0.1713  -23.5904 C   0  0  0  0  0  0  0  0  0  0  0  0
  -12.6652   -1.0554  -22.5697 C   0  0  0  0  0  0  0  0  0  0  0  0
  -13.8992   -1.7026  -21.5314 Cl  0  0  0  0  0  0  0  0  0  0  0  0
  -11.3540   -1.4434  -22.3623 C   0  0  0  0  0  0  0  0  0  0  0  0
  -10.3512   -1.0496  -23.2552 C   0  0  0  0  0  0  0  0  0  0  0  0
   -8.9112   -1.4883  -23.0628 C   0  0  1  0  0  0  0  0  0  0  0  0
   -8.1891   -1.3869  -24.4347 C   0  0  0  0  0  0  0  0  0  0  0  0
   -8.4023   -0.0899  -25.0488 N   0  0  0  0  0  0  0  0  0  0  0  0
   -7.3028    0.6177  -25.6715 C   0  0  0  0  0  0  0  0  0  0  0  0
   -7.1349    0.2407  -27.1402 C   0  0  0  0  0  0  0  0  0  0  0  0
   -5.8739    0.7853  -27.7193 N   0  0  0  0  0  4  0  0  0  0  0  0
   -5.8279    2.2992  -27.7832 C   0  0  0  0  0  0  0  0  0  0  0  0
   -4.5677    2.7631  -28.4975 C   0  0  0  0  0  0  0  0  0  0  0  0
   -4.4473    2.2014  -29.7889 O   0  0  0  0  0  0  0  0  0  0  0  0
   -4.3738    0.7922  -29.7064 C   0  0  0  0  0  0  0  0  0  0  0  0
   -5.6240    0.2019  -29.0805 C   0  0  0  0  0  0  0  0  0  0  0  0
   -5.5328   -0.8833  -28.9851 H   0  0  0  0  0  0  0  0  0  0  0  0
   -6.4925    0.4275  -29.7070 H   0  0  0  0  0  0  0  0  0  0  0  0
   -4.2510    0.4080  -30.7226 H   0  0  0  0  0  0  0  0  0  0  0  0
   -3.4945    0.4977  -29.1115 H   0  0  0  0  0  0  0  0  0  0  0  0
   -3.6867    2.4918  -27.8932 H   0  0  0  0  0  0  0  0  0  0  0  0
   -4.5814    3.8502  -28.6141 H   0  0  0  0  0  0  0  0  0  0  0  0
   -5.8434    2.7020  -26.7695 H   0  0  0  0  0  0  0  0  0  0  0  0
   -6.7168    2.6479  -28.3183 H   0  0  0  0  0  0  0  0  0  0  0  0
   -5.0988    0.4697  -27.0968 H   0  0  0  0  0  0  0  0  0  0  0  0
   -7.9914    0.6191  -27.7122 H   0  0  0  0  0  0  0  0  0  0  0  0
   -7.1192   -0.8508  -27.2491 H   0  0  0  0  0  0  0  0  0  0  0  0
   -6.3857    0.3936  -25.1074 H   0  0  0  0  0  0  0  0  0  0  0  0
   -7.5000    1.6876  -25.5747 H   0  0  0  0  0  0  0  0  0  0  0  0
   -8.5685   -2.1895  -25.0859 H   0  0  0  0  0  0  0  0  0  0  0  0
   -7.1140   -1.5511  -24.3015 H   0  0  0  0  0  0  0  0  0  0  0  0
   -8.2053   -0.5697  -22.0363 C   0  0  0  0  0  0  0  0  0  0  0  0
   -8.2932    0.6329  -21.9285 O   0  0  0  0  0  0  0  0  0  0  0  0
   -7.4215   -1.3587  -21.2283 N   0  0  0  0  0  0  0  0  0  0  0  0
   -6.6127   -0.8228  -20.2096 C   0  0  0  0  0  0  0  0  0  0  0  0
   -6.9157   -1.0833  -18.8971 C   0  0  0  0  0  0  0  0  0  0  0  0
   -6.2413   -0.5831  -17.8354 N   0  0  0  0  0  0  0  0  0  0  0  0
   -5.2137    0.1919  -18.0980 C   0  0  0  0  0  0  0  0  0  0  0  0
   -4.7768    0.5146  -19.4149 C   0  0  0  0  0  0  0  0  0  0  0  0
   -3.6506    1.3514  -19.6280 C   0  0  0  0  0  0  0  0  0  0  0  0
   -3.2242    1.6314  -20.8971 C   0  0  0  0  0  0  0  0  0  0  0  0
   -3.9025    1.0894  -22.0134 C   0  0  0  0  0  0  0  0  0  0  0  0
   -5.0013    0.2864  -21.8329 C   0  0  0  0  0  0  0  0  0  0  0  0
   -5.4779   -0.0124  -20.5203 C   0  0  0  0  0  0  0  0  0  0  0  0
   -5.5164   -0.1122  -22.7031 H   0  0  0  0  0  0  0  0  0  0  0  0
   -3.5473    1.3138  -23.0153 H   0  0  0  0  0  0  0  0  0  0  0  0
   -2.3619    2.2712  -21.0557 H   0  0  0  0  0  0  0  0  0  0  0  0
   -3.1445    1.7624  -18.7573 H   0  0  0  0  0  0  0  0  0  0  0  0
   -4.6600    0.6031  -17.2520 H   0  0  0  0  0  0  0  0  0  0  0  0
   -7.7736   -1.7138  -18.6667 H   0  0  0  0  0  0  0  0  0  0  0  0
   -7.4858   -2.7637  -21.5285 C   0  0  0  0  0  0  0  0  0  0  0  0
   -8.7237   -2.8908  -22.4115 C   0  0  2  0  0  0  0  0  0  0  0  0
   -8.5914   -4.0854  -23.3406 C   0  0  0  0  0  0  0  0  0  0  0  0
   -9.7793   -4.2906  -24.1304 N   0  0  0  0  0  0  0  0  0  0  0  0
   -9.8436   -5.3241  -25.0012 C   0  0  0  0  0  0  0  0  0  0  0  0
   -8.7684   -6.1374  -25.0643 N   0  0  0  0  0  0  0  0  0  0  0  0
   -8.8493   -7.1444  -25.9311 C   0  0  0  0  0  0  0  0  0  0  0  0
   -9.9702   -7.3643  -26.7187 C   0  0  0  0  0  0  0  0  0  0  0  0
  -11.0161   -6.4600  -26.5634 C   0  0  0  0  0  0  0  0  0  0  0  0
  -10.9775   -5.4419  -25.7137 N   0  0  0  0  0  0  0  0  0  0  0  0
  -11.9256   -6.5590  -27.1552 H   0  0  0  0  0  0  0  0  0  0  0  0
  -10.0330   -8.1903  -27.4116 H   0  0  0  0  0  0  0  0  0  0  0  0
   -7.9738   -7.7957  -25.9937 H   0  0  0  0  0  0  0  0  0  0  0  0
  -10.5730   -3.6629  -24.0765 H   0  0  0  0  0  0  0  0  0  0  0  0
   -8.4095   -4.9924  -22.7529 H   0  0  0  0  0  0  0  0  0  0  0  0
   -7.7316   -3.9639  -24.0192 H   0  0  0  0  0  0  0  0  0  0  0  0
   -9.5906   -3.0751  -21.7679 H   0  0  0  0  0  0  0  0  0  0  0  0
   -7.5718   -3.3435  -20.6154 H   0  0  0  0  0  0  0  0  0  0  0  0
   -6.5885   -3.1195  -22.0551 H   0  0  0  0  0  0  0  0  0  0  0  0
  -11.1304   -2.0126  -21.4671 H   0  0  0  0  0  0  0  0  0  0  0  0
  -14.0294    0.1849  -23.6950 H   0  0  0  0  0  0  0  0  0  0  0  0
  -12.2149    0.9784  -25.2349 H   0  0  0  0  0  0  0  0  0  0  0  0
  1  2  2  0
  2  3  1  0
  3  4  2  0
  4  5  1  0
  5  6  2  0
  6  7  1  0
  6  8  1  0
  8  9  2  0
  9 10  1  0
 10 11  1  6
 11 12  1  0
 12 13  1  0
 13 14  1  0
 14 15  1  0
 15 16  1  0
 16 17  1  0
 17 18  1  0
 18 19  1  0
 19 20  1  0
 20 21  1  0
 20 22  1  0
 19 23  1  0
 19 24  1  0
 17 25  1  0
 17 26  1  0
 16 27  1  0
 16 28  1  0
 15 29  1  0
 14 30  1  0
 14 31  1  0
 13 32  1  0
 13 33  1  0
 11 34  1  0
 11 35  1  0
 10 36  1  0
 36 37  2  0
 36 38  1  0
 38 39  1  0
 39 40  2  0
 40 41  1  0
 41 42  2  0
 42 43  1  0
 43 44  2  0
 44 45  1  0
 45 46  2  0
 46 47  1  0
 47 48  2  0
 47 49  1  0
 46 50  1  0
 45 51  1  0
 44 52  1  0
 42 53  1  0
 40 54  1  0
 38 55  1  0
 55 56  1  0
 56 57  1  0
 57 58  1  0
 58 59  1  0
 59 60  2  0
 60 61  1  0
 61 62  2  0
 62 63  1  0
 63 64  2  0
 63 65  1  0
 62 66  1  0
 61 67  1  0
 58 68  1  0
 57 69  1  0
 57 70  1  0
 56 71  1  1
 55 72  1  0
 55 73  1  0
  8 74  1  0
  5 75  1  0
  4 76  1  0
 12  2  1  0
 20 15  1  0
 48 39  1  0
 64 59  1  0
  9  3  1  0
 56 10  1  0
 48 43  1  0
M  CHG  1  15   1
M  END
>  <cnnaffinities>  (13) 
[6.31068, 6.10436]

>  <score>  (13) 
6.31068

>  <index>  (13) 
12

>  <Smiles>  (13) 
O=C1c2c(c(c(Cl)c(c2[C@@]2(C(N1C(C([N+]1(C(C(OC(C1([H])[H])([H])[H])([H])[H])([H])[H])[H])([H])[H])([H])[H])([H])[H])C(=O)N(c1c(nc(c3c(c(c(c(c13)[H])[H])[H])[H])[H])[H])C([C@@]2(C(N(c1nc(c(c(n1)[H])[H])[H])[H])([H])[H])[H])([H])[H])[H])[H])[H]

>  <h>  (13) 
<NA>

>  <Training>  (13) 
True

>  <Success>  (13) 
True

>  <enamine_searched>  (13) 
False

>  <enamine_id>  (13) 
nan

$$$$

     RDKit          3D

 69 74  0  0  0  0  0  0  0  0999 V2000
   -7.4573    3.4135  -21.9021 C   0  0  0  0  0  0  0  0  0  0  0  0
   -8.5000    2.9332  -22.7994 N   0  0  0  0  0  0  0  0  0  0  0  0
   -8.0861    2.1479  -23.8411 C   0  0  0  0  0  0  0  0  0  0  0  0
   -6.9067    1.8950  -24.0371 O   0  0  0  0  0  0  0  0  0  0  0  0
   -9.1608    1.5658  -24.7580 C   0  0  0  0  0  0  0  0  0  0  0  0
   -9.7467    0.3961  -24.1349 N   0  0  0  0  0  0  0  0  0  0  0  0
   -8.9525   -0.8225  -24.0628 C   0  0  0  0  0  0  0  0  0  0  0  0
   -9.2228   -1.6009  -22.7517 C   0  0  2  0  0  0  0  0  0  0  0  0
   -8.6344   -0.8081  -21.5592 C   0  0  0  0  0  0  0  0  0  0  0  0
   -9.1097    0.1795  -21.0311 O   0  0  0  0  0  0  0  0  0  0  0  0
   -7.4398   -1.3893  -21.1983 N   0  0  0  0  0  0  0  0  0  0  0  0
   -6.6294   -0.8212  -20.1832 C   0  0  0  0  0  0  0  0  0  0  0  0
   -6.9439   -1.0454  -18.8665 C   0  0  0  0  0  0  0  0  0  0  0  0
   -6.2430   -0.5621  -17.8129 N   0  0  0  0  0  0  0  0  0  0  0  0
   -5.2011    0.1897  -18.0825 C   0  0  0  0  0  0  0  0  0  0  0  0
   -4.7702    0.5158  -19.3999 C   0  0  0  0  0  0  0  0  0  0  0  0
   -3.6466    1.3539  -19.6307 C   0  0  0  0  0  0  0  0  0  0  0  0
   -3.2577    1.6550  -20.9073 C   0  0  0  0  0  0  0  0  0  0  0  0
   -3.9763    1.1430  -22.0089 C   0  0  0  0  0  0  0  0  0  0  0  0
   -5.0766    0.3403  -21.8142 C   0  0  0  0  0  0  0  0  0  0  0  0
   -5.4980   -0.0030  -20.4983 C   0  0  0  0  0  0  0  0  0  0  0  0
   -5.6393   -0.0045  -22.6764 H   0  0  0  0  0  0  0  0  0  0  0  0
   -3.6576    1.3881  -23.0183 H   0  0  0  0  0  0  0  0  0  0  0  0
   -2.3967    2.2935  -21.0801 H   0  0  0  0  0  0  0  0  0  0  0  0
   -3.1175    1.7535  -18.7695 H   0  0  0  0  0  0  0  0  0  0  0  0
   -4.6333    0.5848  -17.2388 H   0  0  0  0  0  0  0  0  0  0  0  0
   -7.8100   -1.6575  -18.6279 H   0  0  0  0  0  0  0  0  0  0  0  0
   -7.0930   -2.5590  -21.9841 C   0  0  0  0  0  0  0  0  0  0  0  0
   -8.4082   -2.9275  -22.6875 C   0  0  2  0  0  0  0  0  0  0  0  0
   -8.1613   -3.6838  -23.9961 C   0  0  0  0  0  0  0  0  0  0  0  0
   -9.3951   -4.1207  -24.6054 N   0  0  0  0  0  0  0  0  0  0  0  0
   -9.4222   -4.7547  -25.8095 C   0  0  0  0  0  0  0  0  0  0  0  0
  -10.6441   -5.1814  -26.3671 C   0  0  0  0  0  0  0  0  0  0  0  0
  -10.5796   -5.7815  -27.6047 C   0  0  0  0  0  0  0  0  0  0  0  0
   -9.4303   -5.9771  -28.2669 N   0  0  0  0  0  0  0  0  0  0  0  0
   -8.3267   -5.5606  -27.6453 C   0  0  0  0  0  0  0  0  0  0  0  0
   -7.0301   -5.8176  -28.3688 C   0  0  0  0  0  0  0  0  0  0  0  0
   -7.2101   -5.7685  -29.4480 H   0  0  0  0  0  0  0  0  0  0  0  0
   -6.6717   -6.8308  -28.1404 H   0  0  0  0  0  0  0  0  0  0  0  0
   -6.2567   -5.0987  -28.0791 H   0  0  0  0  0  0  0  0  0  0  0  0
   -8.2590   -4.9588  -26.4456 N   0  0  0  0  0  0  0  0  0  0  0  0
  -11.4827   -6.1274  -28.1098 H   0  0  0  0  0  0  0  0  0  0  0  0
  -11.5861   -5.0494  -25.8414 H   0  0  0  0  0  0  0  0  0  0  0  0
  -10.2740   -3.9300  -24.1423 H   0  0  0  0  0  0  0  0  0  0  0  0
   -7.5330   -4.5612  -23.7983 H   0  0  0  0  0  0  0  0  0  0  0  0
   -7.6078   -3.0600  -24.7139 H   0  0  0  0  0  0  0  0  0  0  0  0
   -8.9483   -3.6088  -22.0222 H   0  0  0  0  0  0  0  0  0  0  0  0
   -6.2998   -2.3374  -22.7160 H   0  0  0  0  0  0  0  0  0  0  0  0
   -6.7370   -3.3709  -21.3420 H   0  0  0  0  0  0  0  0  0  0  0  0
  -10.7266   -1.7449  -22.5962 C   0  0  0  0  0  0  0  0  0  0  0  0
  -11.2874   -2.7562  -21.8105 C   0  0  0  0  0  0  0  0  0  0  0  0
  -12.6526   -2.7994  -21.5925 C   0  0  0  0  0  0  0  0  0  0  0  0
  -13.2883   -4.0490  -20.5683 Cl  0  0  0  0  0  0  0  0  0  0  0  0
  -13.5199   -1.8586  -22.1416 C   0  0  0  0  0  0  0  0  0  0  0  0
  -12.9769   -0.8593  -22.9208 C   0  0  0  0  0  0  0  0  0  0  0  0
  -11.6021   -0.7888  -23.1327 C   0  0  0  0  0  0  0  0  0  0  0  0
  -11.0922    0.3870  -23.9008 C   0  0  0  0  0  0  0  0  0  0  0  0
  -11.8313    1.2915  -24.2746 O   0  0  0  0  0  0  0  0  0  0  0  0
  -13.5920   -0.0885  -23.3694 H   0  0  0  0  0  0  0  0  0  0  0  0
  -14.5829   -1.8943  -21.9325 H   0  0  0  0  0  0  0  0  0  0  0  0
  -10.6851   -3.5033  -21.3077 H   0  0  0  0  0  0  0  0  0  0  0  0
   -7.8928   -0.5556  -24.1360 H   0  0  0  0  0  0  0  0  0  0  0  0
   -9.1929   -1.4726  -24.9145 H   0  0  0  0  0  0  0  0  0  0  0  0
   -8.6928    1.2807  -25.7107 H   0  0  0  0  0  0  0  0  0  0  0  0
   -9.9716    2.2716  -24.9625 H   0  0  0  0  0  0  0  0  0  0  0  0
   -9.4148    2.7524  -22.3953 H   0  0  0  0  0  0  0  0  0  0  0  0
   -6.9576    2.5571  -21.4173 H   0  0  0  0  0  0  0  0  0  0  0  0
   -6.7208    3.9646  -22.4953 H   0  0  0  0  0  0  0  0  0  0  0  0
   -7.8747    4.1108  -21.1666 H   0  0  0  0  0  0  0  0  0  0  0  0
  1  2  1  0
  2  3  1  0
  3  4  2  0
  3  5  1  0
  5  6  1  0
  6  7  1  0
  8  7  1  6
  8  9  1  0
  9 10  2  0
  9 11  1  0
 11 12  1  0
 12 13  2  0
 13 14  1  0
 14 15  2  0
 15 16  1  0
 16 17  2  0
 17 18  1  0
 18 19  2  0
 19 20  1  0
 20 21  2  0
 20 22  1  0
 19 23  1  0
 18 24  1  0
 17 25  1  0
 15 26  1  0
 13 27  1  0
 11 28  1  0
 28 29  1  0
 29 30  1  0
 30 31  1  0
 31 32  1  0
 32 33  2  0
 33 34  1  0
 34 35  2  0
 35 36  1  0
 36 37  1  0
 37 38  1  0
 37 39  1  0
 37 40  1  0
 36 41  2  0
 34 42  1  0
 33 43  1  0
 31 44  1  0
 30 45  1  0
 30 46  1  0
 29 47  1  1
 28 48  1  0
 28 49  1  0
  8 50  1  0
 50 51  2  0
 51 52  1  0
 52 53  1  0
 52 54  2  0
 54 55  1  0
 55 56  2  0
 56 57  1  0
 57 58  2  0
 55 59  1  0
 54 60  1  0
 51 61  1  0
  7 62  1  0
  7 63  1  0
  5 64  1  0
  5 65  1  0
  2 66  1  0
  1 67  1  0
  1 68  1  0
  1 69  1  0
 57  6  1  0
 29  8  1  0
 41 32  1  0
 56 50  1  0
 21 12  1  0
 21 16  1  0
M  END
>  <cnnaffinities>  (14) 
[6.17063]

>  <score>  (14) 
6.17063

>  <index>  (14) 
13

>  <Smiles>  (14) 
C(N(C(=O)C(N1C([C@@]2(C(=O)N(c3c(nc(c4c(c(c(c(c34)[H])[H])[H])[H])[H])[H])C([C@@]2(C(N(c2c(c(nc(C([H])([H])[H])n2)[H])[H])[H])([H])[H])[H])([H])[H])c2c(c(Cl)c(c(c2C1=O)[H])[H])[H])([H])[H])([H])[H])[H])([H])([H])[H]

>  <h>  (14) 
<NA>

>  <Training>  (14) 
True

>  <Success>  (14) 
True

>  <enamine_searched>  (14) 
False

>  <enamine_id>  (14) 
nan

$$$$

     RDKit          3D

 73 78  0  0  0  0  0  0  0  0999 V2000
   -7.9427   -3.7510  -24.0046 C   0  0  0  0  0  0  0  0  0  0  0  0
   -8.2982   -2.8751  -22.7987 C   0  0  1  0  0  0  0  0  0  0  0  0
   -7.1004   -2.6539  -21.8496 C   0  0  0  0  0  0  0  0  0  0  0  0
   -7.4066   -1.3937  -21.1988 N   0  0  0  0  0  0  0  0  0  0  0  0
   -6.6045   -0.8130  -20.1764 C   0  0  0  0  0  0  0  0  0  0  0  0
   -6.9022   -1.0500  -18.8602 C   0  0  0  0  0  0  0  0  0  0  0  0
   -6.2003   -0.5537  -17.8099 N   0  0  0  0  0  0  0  0  0  0  0  0
   -5.1694    0.2118  -18.0784 C   0  0  0  0  0  0  0  0  0  0  0  0
   -4.7376    0.5386  -19.3965 C   0  0  0  0  0  0  0  0  0  0  0  0
   -3.6105    1.3728  -19.6404 C   0  0  0  0  0  0  0  0  0  0  0  0
   -3.2195    1.6614  -20.9198 C   0  0  0  0  0  0  0  0  0  0  0  0
   -3.9352    1.1285  -22.0150 C   0  0  0  0  0  0  0  0  0  0  0  0
   -5.0297    0.3232  -21.8033 C   0  0  0  0  0  0  0  0  0  0  0  0
   -5.4706    0.0079  -20.4867 C   0  0  0  0  0  0  0  0  0  0  0  0
   -5.5644   -0.0866  -22.6540 H   0  0  0  0  0  0  0  0  0  0  0  0
   -3.6340    1.3759  -23.0297 H   0  0  0  0  0  0  0  0  0  0  0  0
   -2.3666    2.3100  -21.0985 H   0  0  0  0  0  0  0  0  0  0  0  0
   -3.0804    1.7841  -18.7851 H   0  0  0  0  0  0  0  0  0  0  0  0
   -4.6185    0.6174  -17.2281 H   0  0  0  0  0  0  0  0  0  0  0  0
   -7.7538   -1.6747  -18.6005 H   0  0  0  0  0  0  0  0  0  0  0  0
   -8.3905   -0.6651  -21.8325 C   0  0  0  0  0  0  0  0  0  0  0  0
   -8.8013    0.4057  -21.4381 O   0  0  0  0  0  0  0  0  0  0  0  0
   -8.8404   -1.4413  -23.1001 C   0  0  1  0  0  0  0  0  0  0  0  0
   -8.1536   -0.8418  -24.3595 C   0  0  0  0  0  0  0  0  0  0  0  0
   -8.5969    0.5092  -24.6282 N   0  0  0  0  0  0  0  0  0  0  0  0
   -7.6367    1.5721  -24.8902 C   0  0  0  0  0  0  0  0  0  0  0  0
   -7.5117    2.5189  -23.6946 C   0  0  0  0  0  0  0  0  0  0  0  0
   -6.4216    3.5569  -23.8581 N   0  0  0  0  0  4  0  0  0  0  0  0
   -6.7544    4.6776  -24.8350 C   0  0  0  0  0  0  0  0  0  0  0  0
   -7.7589    5.6769  -24.2563 C   0  0  0  0  0  0  0  0  0  0  0  0
   -7.3576    6.1567  -22.9342 N   0  0  0  0  0  0  0  0  0  0  0  0
   -6.5506    7.6004  -22.8287 S   0  0  0  0  0  0  0  0  0  0  0  0
   -6.0364    7.6883  -21.4754 O   0  0  0  0  0  0  0  0  0  0  0  0
   -7.4112    8.6225  -23.3953 O   0  0  0  0  0  0  0  0  0  0  0  0
   -5.1463    7.5256  -23.9309 C   0  0  0  0  0  0  0  0  0  0  0  0
   -5.5129    7.5004  -24.9617 H   0  0  0  0  0  0  0  0  0  0  0  0
   -4.5141    6.6690  -23.6903 H   0  0  0  0  0  0  0  0  0  0  0  0
   -4.6071    8.4628  -23.7600 H   0  0  0  0  0  0  0  0  0  0  0  0
   -7.0458    5.0942  -21.9732 C   0  0  0  0  0  0  0  0  0  0  0  0
   -5.9870    4.1522  -22.5329 C   0  0  0  0  0  0  0  0  0  0  0  0
   -5.0605    4.7051  -22.7071 H   0  0  0  0  0  0  0  0  0  0  0  0
   -5.7761    3.3326  -21.8405 H   0  0  0  0  0  0  0  0  0  0  0  0
   -7.9777    4.5494  -21.7882 H   0  0  0  0  0  0  0  0  0  0  0  0
   -6.7235    5.5559  -21.0409 H   0  0  0  0  0  0  0  0  0  0  0  0
   -8.7366    5.2018  -24.1347 H   0  0  0  0  0  0  0  0  0  0  0  0
   -7.8923    6.5371  -24.9159 H   0  0  0  0  0  0  0  0  0  0  0  0
   -7.1485    4.2437  -25.7527 H   0  0  0  0  0  0  0  0  0  0  0  0
   -5.8187    5.1863  -25.0781 H   0  0  0  0  0  0  0  0  0  0  0  0
   -5.5896    3.0556  -24.2226 H   0  0  0  0  0  0  0  0  0  0  0  0
   -7.2836    1.9436  -22.7927 H   0  0  0  0  0  0  0  0  0  0  0  0
   -8.4698    3.0199  -23.5415 H   0  0  0  0  0  0  0  0  0  0  0  0
   -6.6635    1.1108  -25.0940 H   0  0  0  0  0  0  0  0  0  0  0  0
   -7.9548    2.1136  -25.7851 H   0  0  0  0  0  0  0  0  0  0  0  0
   -9.9307    0.7969  -24.6761 C   0  0  0  0  0  0  0  0  0  0  0  0
  -10.3636    1.8332  -25.1689 O   0  0  0  0  0  0  0  0  0  0  0  0
  -10.8488   -0.2266  -24.0545 C   0  0  0  0  0  0  0  0  0  0  0  0
  -12.2260   -0.0515  -24.2014 C   0  0  0  0  0  0  0  0  0  0  0  0
  -13.1163   -0.8989  -23.5711 C   0  0  0  0  0  0  0  0  0  0  0  0
  -12.6121   -1.9158  -22.7624 C   0  0  0  0  0  0  0  0  0  0  0  0
  -13.7281   -2.9494  -21.9170 Cl  0  0  0  0  0  0  0  0  0  0  0  0
  -11.2512   -2.1112  -22.6067 C   0  0  0  0  0  0  0  0  0  0  0  0
  -10.3421   -1.2909  -23.2880 C   0  0  0  0  0  0  0  0  0  0  0  0
  -10.9206   -2.8901  -21.9274 H   0  0  0  0  0  0  0  0  0  0  0  0
  -14.1883   -0.7717  -23.6744 H   0  0  0  0  0  0  0  0  0  0  0  0
  -12.5734    0.7783  -24.8071 H   0  0  0  0  0  0  0  0  0  0  0  0
   -8.3798   -1.4909  -25.2208 H   0  0  0  0  0  0  0  0  0  0  0  0
   -7.0680   -0.8218  -24.2127 H   0  0  0  0  0  0  0  0  0  0  0  0
   -6.1521   -2.6053  -22.4103 H   0  0  0  0  0  0  0  0  0  0  0  0
   -6.9966   -3.4536  -21.1081 H   0  0  0  0  0  0  0  0  0  0  0  0
   -9.0731   -3.3842  -22.2191 H   0  0  0  0  0  0  0  0  0  0  0  0
   -7.0892   -3.3405  -24.5583 H   0  0  0  0  0  0  0  0  0  0  0  0
   -7.6633   -4.7616  -23.6865 H   0  0  0  0  0  0  0  0  0  0  0  0
   -8.7802   -3.8413  -24.7052 H   0  0  0  0  0  0  0  0  0  0  0  0
  1  2  1  0
  2  3  1  0
  3  4  1  0
  4  5  1  0
  5  6  2  0
  6  7  1  0
  7  8  2  0
  8  9  1  0
  9 10  2  0
 10 11  1  0
 11 12  2  0
 12 13  1  0
 13 14  2  0
 13 15  1  0
 12 16  1  0
 11 17  1  0
 10 18  1  0
  8 19  1  0
  6 20  1  0
  4 21  1  0
 21 22  2  0
 21 23  1  0
 23 24  1  6
 24 25  1  0
 25 26  1  0
 26 27  1  0
 27 28  1  0
 28 29  1  0
 29 30  1  0
 30 31  1  0
 31 32  1  0
 32 33  2  0
 32 34  2  0
 32 35  1  0
 35 36  1  0
 35 37  1  0
 35 38  1  0
 31 39  1  0
 39 40  1  0
 40 41  1  0
 40 42  1  0
 39 43  1  0
 39 44  1  0
 30 45  1  0
 30 46  1  0
 29 47  1  0
 29 48  1  0
 28 49  1  0
 27 50  1  0
 27 51  1  0
 26 52  1  0
 26 53  1  0
 25 54  1  0
 54 55  2  0
 54 56  1  0
 56 57  2  0
 57 58  1  0
 58 59  2  0
 59 60  1  0
 59 61  1  0
 61 62  2  0
 61 63  1  0
 58 64  1  0
 57 65  1  0
 24 66  1  0
 24 67  1  0
  3 68  1  0
  3 69  1  0
  2 70  1  1
  1 71  1  0
  1 72  1  0
  1 73  1  0
 23  2  1  0
 40 28  1  0
 62 56  1  0
 14  5  1  0
 62 23  1  0
 14  9  1  0
M  CHG  1  28   1
M  END
>  <cnnaffinities>  (15) 
[6.99814]

>  <score>  (15) 
6.99814

>  <index>  (15) 
14

>  <Smiles>  (15) 
C([C@]1(C(N(c2c(nc(c3c(c(c(c(c23)[H])[H])[H])[H])[H])[H])C(=O)[C@]21C(N(C(C([N+]1(C(C(N(S(=O)(=O)C([H])([H])[H])C(C1([H])[H])([H])[H])([H])[H])([H])[H])[H])([H])[H])([H])[H])C(=O)c1c(c(c(Cl)c(c21)[H])[H])[H])([H])[H])([H])[H])[H])([H])([H])[H]

>  <h>  (15) 
<NA>

>  <Training>  (15) 
True

>  <Success>  (15) 
True

>  <enamine_searched>  (15) 
False

>  <enamine_id>  (15) 
nan

$$$$

     RDKit          3D

 63 68  0  0  0  0  0  0  0  0999 V2000
   -7.6017    3.2361  -21.8595 C   0  0  0  0  0  0  0  0  0  0  0  0
   -8.6961    2.7796  -22.6979 N   0  0  0  0  0  0  0  0  0  0  0  0
   -8.3253    1.9862  -23.7457 C   0  0  0  0  0  0  0  0  0  0  0  0
   -7.1475    1.7548  -23.9893 O   0  0  0  0  0  0  0  0  0  0  0  0
   -9.4215    1.3877  -24.6199 C   0  0  0  0  0  0  0  0  0  0  0  0
   -9.9292    0.1661  -24.0258 N   0  0  0  0  0  0  0  0  0  0  0  0
   -9.0748   -1.0140  -23.9792 C   0  0  0  0  0  0  0  0  0  0  0  0
   -9.2432   -1.7783  -22.6395 C   0  0  2  0  0  0  0  0  0  0  0  0
   -8.6578   -0.9206  -21.4922 C   0  0  0  0  0  0  0  0  0  0  0  0
   -9.1825    0.0376  -20.9628 O   0  0  0  0  0  0  0  0  0  0  0  0
   -7.4019   -1.4021  -21.1862 N   0  0  0  0  0  0  0  0  0  0  0  0
   -6.6114   -0.8193  -20.1692 C   0  0  0  0  0  0  0  0  0  0  0  0
   -6.9245   -1.0465  -18.8499 C   0  0  0  0  0  0  0  0  0  0  0  0
   -6.2259   -0.5535  -17.8007 N   0  0  0  0  0  0  0  0  0  0  0  0
   -5.1866    0.2020  -18.0721 C   0  0  0  0  0  0  0  0  0  0  0  0
   -4.7540    0.5220  -19.3925 C   0  0  0  0  0  0  0  0  0  0  0  0
   -3.6319    1.3597  -19.6317 C   0  0  0  0  0  0  0  0  0  0  0  0
   -3.2527    1.6583  -20.9127 C   0  0  0  0  0  0  0  0  0  0  0  0
   -3.9760    1.1469  -22.0104 C   0  0  0  0  0  0  0  0  0  0  0  0
   -5.0745    0.3419  -21.8071 C   0  0  0  0  0  0  0  0  0  0  0  0
   -5.4825   -0.0008  -20.4861 C   0  0  0  0  0  0  0  0  0  0  0  0
   -5.6449   -0.0041  -22.6638 H   0  0  0  0  0  0  0  0  0  0  0  0
   -3.6658    1.3920  -23.0224 H   0  0  0  0  0  0  0  0  0  0  0  0
   -2.3953    2.2986  -21.0909 H   0  0  0  0  0  0  0  0  0  0  0  0
   -3.0972    1.7624  -18.7764 H   0  0  0  0  0  0  0  0  0  0  0  0
   -4.6202    0.6026  -17.2304 H   0  0  0  0  0  0  0  0  0  0  0  0
   -7.7852   -1.6642  -18.6091 H   0  0  0  0  0  0  0  0  0  0  0  0
   -7.0084   -2.5633  -21.9590 C   0  0  0  0  0  0  0  0  0  0  0  0
   -8.3371   -3.0371  -22.5645 C   0  0  2  0  0  0  0  0  0  0  0  0
   -8.1443   -3.8076  -23.8740 C   0  0  0  0  0  0  0  0  0  0  0  0
   -7.4166   -5.0454  -23.6681 N   0  0  0  0  0  0  0  0  0  0  0  0
   -6.0826   -5.2374  -23.7781 C   0  0  0  0  0  0  0  0  0  0  0  0
   -5.8372   -6.5489  -23.4437 C   0  0  0  0  0  0  0  0  0  0  0  0
   -7.1104   -7.0696  -23.1395 C   0  0  0  0  0  0  0  0  0  0  0  0
   -8.0602   -6.1485  -23.2628 N   0  0  0  0  0  0  0  0  0  0  0  0
   -7.3690   -8.0800  -22.8400 H   0  0  0  0  0  0  0  0  0  0  0  0
   -4.8851   -7.0577  -23.4248 H   0  0  0  0  0  0  0  0  0  0  0  0
   -5.4179   -4.4435  -24.0930 H   0  0  0  0  0  0  0  0  0  0  0  0
   -7.5841   -3.1983  -24.5925 H   0  0  0  0  0  0  0  0  0  0  0  0
   -9.1063   -4.0724  -24.3187 H   0  0  0  0  0  0  0  0  0  0  0  0
   -8.7777   -3.7288  -21.8454 H   0  0  0  0  0  0  0  0  0  0  0  0
   -6.5577   -3.3269  -21.3177 H   0  0  0  0  0  0  0  0  0  0  0  0
   -6.2823   -2.3069  -22.7483 H   0  0  0  0  0  0  0  0  0  0  0  0
  -10.7338   -2.0152  -22.4504 C   0  0  0  0  0  0  0  0  0  0  0  0
  -11.2169   -3.0678  -21.6696 C   0  0  0  0  0  0  0  0  0  0  0  0
  -12.5712   -3.1752  -21.4053 C   0  0  0  0  0  0  0  0  0  0  0  0
  -13.1174   -4.4014  -20.3068 Cl  0  0  0  0  0  0  0  0  0  0  0  0
  -13.5072   -2.2979  -21.9415 C   0  0  0  0  0  0  0  0  0  0  0  0
  -13.0465   -1.2670  -22.7308 C   0  0  0  0  0  0  0  0  0  0  0  0
  -11.6798   -1.1136  -22.9618 C   0  0  0  0  0  0  0  0  0  0  0  0
  -11.2616    0.0942  -23.7353 C   0  0  0  0  0  0  0  0  0  0  0  0
  -12.0553    0.9649  -24.0639 O   0  0  0  0  0  0  0  0  0  0  0  0
  -13.7226   -0.5388  -23.1621 H   0  0  0  0  0  0  0  0  0  0  0  0
  -14.5599   -2.4169  -21.7101 H   0  0  0  0  0  0  0  0  0  0  0  0
  -10.5568   -3.7983  -21.2181 H   0  0  0  0  0  0  0  0  0  0  0  0
   -8.0356   -0.6970  -24.1204 H   0  0  0  0  0  0  0  0  0  0  0  0
   -9.3359   -1.6931  -24.8024 H   0  0  0  0  0  0  0  0  0  0  0  0
  -10.2712    2.0624  -24.7738 H   0  0  0  0  0  0  0  0  0  0  0  0
   -8.9692    1.1582  -25.5900 H   0  0  0  0  0  0  0  0  0  0  0  0
   -9.5813    2.6254  -22.2186 H   0  0  0  0  0  0  0  0  0  0  0  0
   -7.9507    4.0117  -21.1702 H   0  0  0  0  0  0  0  0  0  0  0  0
   -6.8577    3.6761  -22.5252 H   0  0  0  0  0  0  0  0  0  0  0  0
   -7.1178    2.3910  -21.3344 H   0  0  0  0  0  0  0  0  0  0  0  0
  1  2  1  0
  2  3  1  0
  3  4  2  0
  3  5  1  0
  5  6  1  0
  6  7  1  0
  8  7  1  6
  8  9  1  0
  9 10  2  0
  9 11  1  0
 11 12  1  0
 12 13  2  0
 13 14  1  0
 14 15  2  0
 15 16  1  0
 16 17  2  0
 17 18  1  0
 18 19  2  0
 19 20  1  0
 20 21  2  0
 20 22  1  0
 19 23  1  0
 18 24  1  0
 17 25  1  0
 15 26  1  0
 13 27  1  0
 11 28  1  0
 28 29  1  0
 29 30  1  0
 30 31  1  0
 31 32  1  0
 32 33  2  0
 33 34  1  0
 34 35  2  0
 34 36  1  0
 33 37  1  0
 32 38  1  0
 30 39  1  0
 30 40  1  0
 29 41  1  1
 28 42  1  0
 28 43  1  0
  8 44  1  0
 44 45  2  0
 45 46  1  0
 46 47  1  0
 46 48  2  0
 48 49  1  0
 49 50  2  0
 50 51  1  0
 51 52  2  0
 49 53  1  0
 48 54  1  0
 45 55  1  0
  7 56  1  0
  7 57  1  0
  5 58  1  0
  5 59  1  0
  2 60  1  0
  1 61  1  0
  1 62  1  0
  1 63  1  0
 51  6  1  0
 29  8  1  0
 35 31  1  0
 50 44  1  0
 21 12  1  0
 21 16  1  0
M  END
>  <cnnaffinities>  (16) 
[6.7097, 6.67187]

>  <score>  (16) 
6.7097

>  <index>  (16) 
15

>  <Smiles>  (16) 
C(N(C(=O)C(N1C([C@@]2(C(=O)N(c3c(nc(c4c(c(c(c(c34)[H])[H])[H])[H])[H])[H])C([C@@]2(C(n2c(c(c(n2)[H])[H])[H])([H])[H])[H])([H])[H])c2c(c(Cl)c(c(c2C1=O)[H])[H])[H])([H])[H])([H])[H])[H])([H])([H])[H]

>  <h>  (16) 
<NA>

>  <Training>  (16) 
True

>  <Success>  (16) 
True

>  <enamine_searched>  (16) 
False

>  <enamine_id>  (16) 
nan

$$$$

     RDKit          3D

 61 66  0  0  0  0  0  0  0  0999 V2000
   -7.3837    3.4111  -21.8239 C   0  0  0  0  0  0  0  0  0  0  0  0
   -8.2286    2.9344  -22.9024 N   0  0  0  0  0  0  0  0  0  0  0  0
   -7.6545    2.2400  -23.9100 C   0  0  0  0  0  0  0  0  0  0  0  0
   -6.4412    2.1263  -24.0211 O   0  0  0  0  0  0  0  0  0  0  0  0
   -8.6080    1.6188  -24.9382 C   0  0  0  0  0  0  0  0  0  0  0  0
   -9.3415    0.4708  -24.4352 N   0  0  0  0  0  0  0  0  0  0  0  0
   -8.6303   -0.7854  -24.2594 C   0  0  0  0  0  0  0  0  0  0  0  0
   -9.0329   -1.4936  -22.9385 C   0  0  2  0  0  0  0  0  0  0  0  0
   -8.4824   -0.7051  -21.7225 C   0  0  0  0  0  0  0  0  0  0  0  0
   -8.9087    0.3393  -21.2693 O   0  0  0  0  0  0  0  0  0  0  0  0
   -7.4001   -1.3814  -21.2067 N   0  0  0  0  0  0  0  0  0  0  0  0
   -6.6032   -0.8110  -20.1772 C   0  0  0  0  0  0  0  0  0  0  0  0
   -6.9102   -1.0431  -18.8603 C   0  0  0  0  0  0  0  0  0  0  0  0
   -6.2095   -0.5509  -17.8098 N   0  0  0  0  0  0  0  0  0  0  0  0
   -5.1713    0.2077  -18.0758 C   0  0  0  0  0  0  0  0  0  0  0  0
   -4.7326    0.5301  -19.3928 C   0  0  0  0  0  0  0  0  0  0  0  0
   -3.6052    1.3640  -19.6373 C   0  0  0  0  0  0  0  0  0  0  0  0
   -3.2176    1.6517  -20.9183 C   0  0  0  0  0  0  0  0  0  0  0  0
   -3.9377    1.1233  -22.0114 C   0  0  0  0  0  0  0  0  0  0  0  0
   -5.0324    0.3182  -21.8009 C   0  0  0  0  0  0  0  0  0  0  0  0
   -5.4654    0.0035  -20.4832 C   0  0  0  0  0  0  0  0  0  0  0  0
   -5.5883   -0.0699  -22.6492 H   0  0  0  0  0  0  0  0  0  0  0  0
   -3.6436    1.3664  -23.0275 H   0  0  0  0  0  0  0  0  0  0  0  0
   -2.3634    2.3005  -21.0975 H   0  0  0  0  0  0  0  0  0  0  0  0
   -3.0766    1.7765  -18.7820 H   0  0  0  0  0  0  0  0  0  0  0  0
   -4.6221    0.6117  -17.2257 H   0  0  0  0  0  0  0  0  0  0  0  0
   -7.7631   -1.6684  -18.6066 H   0  0  0  0  0  0  0  0  0  0  0  0
   -7.0711   -2.6049  -21.9079 C   0  0  0  0  0  0  0  0  0  0  0  0
   -8.3144   -2.8707  -22.7768 C   0  0  2  0  0  0  0  0  0  0  0  0
   -7.9530   -3.6321  -24.0708 C   0  0  0  0  0  0  0  0  0  0  0  0
   -7.4244   -4.9608  -23.7751 N   0  0  0  0  0  0  0  0  0  0  0  0
   -6.1353   -5.2358  -23.6737 N   0  0  0  0  0  0  0  0  0  0  0  0
   -6.1684   -6.5205  -23.3511 C   0  0  0  0  0  0  0  0  0  0  0  0
   -7.4283   -6.9951  -23.2598 N   0  0  0  0  0  0  0  0  0  0  0  0
   -8.2092   -5.9884  -23.5345 N   0  0  0  0  0  0  0  0  0  0  0  0
   -5.2843   -7.1178  -23.1725 H   0  0  0  0  0  0  0  0  0  0  0  0
   -7.1684   -3.1193  -24.6358 H   0  0  0  0  0  0  0  0  0  0  0  0
   -8.8320   -3.7849  -24.7055 H   0  0  0  0  0  0  0  0  0  0  0  0
   -8.9892   -3.5230  -22.2174 H   0  0  0  0  0  0  0  0  0  0  0  0
   -6.1683   -2.4801  -22.5274 H   0  0  0  0  0  0  0  0  0  0  0  0
   -6.8730   -3.4218  -21.2053 H   0  0  0  0  0  0  0  0  0  0  0  0
  -10.5511   -1.5214  -22.8652 C   0  0  0  0  0  0  0  0  0  0  0  0
  -11.1938   -2.3846  -21.9688 C   0  0  0  0  0  0  0  0  0  0  0  0
  -12.5738   -2.3948  -21.8823 C   0  0  0  0  0  0  0  0  0  0  0  0
  -13.3566   -3.4809  -20.7705 Cl  0  0  0  0  0  0  0  0  0  0  0  0
  -13.3570   -1.5397  -22.6560 C   0  0  0  0  0  0  0  0  0  0  0  0
  -12.7296   -0.6332  -23.4872 C   0  0  0  0  0  0  0  0  0  0  0  0
  -11.3371   -0.5974  -23.5700 C   0  0  0  0  0  0  0  0  0  0  0  0
  -10.7084    0.5154  -24.3560 C   0  0  0  0  0  0  0  0  0  0  0  0
  -11.3784    1.4139  -24.8548 O   0  0  0  0  0  0  0  0  0  0  0  0
  -13.2891    0.0887  -24.0732 H   0  0  0  0  0  0  0  0  0  0  0  0
  -14.4367   -1.5741  -22.5727 H   0  0  0  0  0  0  0  0  0  0  0  0
  -10.6297   -3.0318  -21.3087 H   0  0  0  0  0  0  0  0  0  0  0  0
   -8.8331   -1.4617  -25.1068 H   0  0  0  0  0  0  0  0  0  0  0  0
   -7.5615   -0.5490  -24.2394 H   0  0  0  0  0  0  0  0  0  0  0  0
   -7.9745    1.3406  -25.7885 H   0  0  0  0  0  0  0  0  0  0  0  0
   -9.3699    2.3315  -25.2669 H   0  0  0  0  0  0  0  0  0  0  0  0
   -9.2246    2.8656  -22.7528 H   0  0  0  0  0  0  0  0  0  0  0  0
   -6.6621    4.1514  -22.1878 H   0  0  0  0  0  0  0  0  0  0  0  0
   -6.8193    2.5730  -21.3814 H   0  0  0  0  0  0  0  0  0  0  0  0
   -8.0274    3.8921  -21.0878 H   0  0  0  0  0  0  0  0  0  0  0  0
  1  2  1  0
  2  3  1  0
  3  4  2  0
  3  5  1  0
  5  6  1  0
  6  7  1  0
  8  7  1  6
  8  9  1  0
  9 10  2  0
  9 11  1  0
 11 12  1  0
 12 13  2  0
 13 14  1  0
 14 15  2  0
 15 16  1  0
 16 17  2  0
 17 18  1  0
 18 19  2  0
 19 20  1  0
 20 21  2  0
 20 22  1  0
 19 23  1  0
 18 24  1  0
 17 25  1  0
 15 26  1  0
 13 27  1  0
 11 28  1  0
 28 29  1  0
 29 30  1  0
 30 31  1  0
 31 32  1  0
 32 33  2  0
 33 34  1  0
 34 35  2  0
 33 36  1  0
 30 37  1  0
 30 38  1  0
 29 39  1  1
 28 40  1  0
 28 41  1  0
  8 42  1  0
 42 43  2  0
 43 44  1  0
 44 45  1  0
 44 46  2  0
 46 47  1  0
 47 48  2  0
 48 49  1  0
 49 50  2  0
 47 51  1  0
 46 52  1  0
 43 53  1  0
  7 54  1  0
  7 55  1  0
  5 56  1  0
  5 57  1  0
  2 58  1  0
  1 59  1  0
  1 60  1  0
  1 61  1  0
 49  6  1  0
 29  8  1  0
 35 31  1  0
 48 42  1  0
 21 12  1  0
 21 16  1  0
M  END
>  <cnnaffinities>  (17) 
[6.55592, 6.80011, 6.53013]

>  <score>  (17) 
6.55592

>  <index>  (17) 
16

>  <Smiles>  (17) 
C(N(C(=O)C(N1C([C@@]2(C(=O)N(c3c(nc(c4c(c(c(c(c34)[H])[H])[H])[H])[H])[H])C([C@@]2(C(n2nc(nn2)[H])([H])[H])[H])([H])[H])c2c(c(Cl)c(c(c2C1=O)[H])[H])[H])([H])[H])([H])[H])[H])([H])([H])[H]

>  <h>  (17) 
<NA>

>  <Training>  (17) 
True

>  <Success>  (17) 
True

>  <enamine_searched>  (17) 
False

>  <enamine_id>  (17) 
nan

$$$$

     RDKit          3D

 38 41  0  0  0  0  0  0  0  0999 V2000
  -11.8700   -3.4235  -24.6570 C   0  0  0  0  0  0  0  0  0  0  0  0
  -10.4593   -2.9788  -24.2765 C   0  0  2  0  0  0  0  0  0  0  0  0
   -9.4906   -4.1584  -24.3095 C   0  0  0  0  0  0  0  0  0  0  0  0
   -8.0529   -3.7129  -24.0336 C   0  0  0  0  0  0  0  0  0  0  0  0
   -7.9920   -2.8088  -22.8871 C   0  0  0  0  0  0  0  0  0  0  0  0
   -6.8415   -2.4281  -22.1217 C   0  0  0  0  0  0  0  0  0  0  0  0
   -5.6892   -2.7932  -22.2071 O   0  0  0  0  0  1  0  0  0  0  0  0
   -7.3506   -1.4703  -21.1982 N   0  0  0  0  0  0  0  0  0  0  0  0
   -6.5793   -0.8418  -20.1816 C   0  0  0  0  0  0  0  0  0  0  0  0
   -6.8921   -1.0520  -18.8631 C   0  0  0  0  0  0  0  0  0  0  0  0
   -6.1960   -0.5439  -17.8127 N   0  0  0  0  0  0  0  0  0  0  0  0
   -5.1621    0.2142  -18.0746 C   0  0  0  0  0  0  0  0  0  0  0  0
   -4.7295    0.5335  -19.3904 C   0  0  0  0  0  0  0  0  0  0  0  0
   -3.6005    1.3660  -19.6279 C   0  0  0  0  0  0  0  0  0  0  0  0
   -3.2203    1.6694  -20.9053 C   0  0  0  0  0  0  0  0  0  0  0  0
   -3.9526    1.1590  -22.0012 C   0  0  0  0  0  0  0  0  0  0  0  0
   -5.0474    0.3592  -21.7959 C   0  0  0  0  0  0  0  0  0  0  0  0
   -5.4606    0.0056  -20.4836 C   0  0  0  0  0  0  0  0  0  0  0  0
   -5.6109   -0.0240  -22.6396 H   0  0  0  0  0  0  0  0  0  0  0  0
   -3.6529    1.4088  -23.0154 H   0  0  0  0  0  0  0  0  0  0  0  0
   -2.3654    2.3160  -21.0927 H   0  0  0  0  0  0  0  0  0  0  0  0
   -3.0619    1.7722  -18.7739 H   0  0  0  0  0  0  0  0  0  0  0  0
   -4.6109    0.6196  -17.2212 H   0  0  0  0  0  0  0  0  0  0  0  0
   -7.7385   -1.6741  -18.5912 H   0  0  0  0  0  0  0  0  0  0  0  0
   -8.7134   -1.2145  -21.4497 C   0  0  0  0  0  0  0  0  0  0  0  0
   -9.4125   -0.3698  -20.9443 O   0  0  0  0  0  0  0  0  0  0  0  0
   -9.0647   -2.1144  -22.4412 N   0  0  0  0  0  0  0  0  0  0  0  0
  -10.4293   -2.3134  -22.9034 C   0  0  0  0  0  0  0  0  0  0  0  0
  -10.9275   -1.3491  -22.9261 H   0  0  0  0  0  0  0  0  0  0  0  0
  -10.9882   -2.9182  -22.1863 H   0  0  0  0  0  0  0  0  0  0  0  0
   -7.6302   -3.2147  -24.9196 H   0  0  0  0  0  0  0  0  0  0  0  0
   -7.3933   -4.5622  -23.8365 H   0  0  0  0  0  0  0  0  0  0  0  0
   -9.8010   -4.8869  -23.5528 H   0  0  0  0  0  0  0  0  0  0  0  0
   -9.5417   -4.6648  -25.2794 H   0  0  0  0  0  0  0  0  0  0  0  0
  -10.1322   -2.2425  -25.0200 H   0  0  0  0  0  0  0  0  0  0  0  0
  -12.2545   -4.1885  -23.9715 H   0  0  0  0  0  0  0  0  0  0  0  0
  -12.5881   -2.5958  -24.6695 H   0  0  0  0  0  0  0  0  0  0  0  0
  -11.8596   -3.8676  -25.6559 H   0  0  0  0  0  0  0  0  0  0  0  0
  1  2  1  0
  2  3  1  0
  3  4  1  0
  4  5  1  0
  5  6  2  0
  6  7  1  0
  6  8  1  0
  8  9  1  0
  9 10  2  0
 10 11  1  0
 11 12  2  0
 12 13  1  0
 13 14  2  0
 14 15  1  0
 15 16  2  0
 16 17  1  0
 17 18  2  0
 17 19  1  0
 16 20  1  0
 15 21  1  0
 14 22  1  0
 12 23  1  0
 10 24  1  0
  8 25  1  0
 25 26  2  0
 25 27  1  0
 27 28  1  0
 28 29  1  0
 28 30  1  0
  4 31  1  0
  4 32  1  0
  3 33  1  0
  3 34  1  0
  2 35  1  6
  1 36  1  0
  1 37  1  0
  1 38  1  0
 28  2  1  0
 27  5  1  0
 18  9  1  0
 18 13  1  0
M  CHG  1   7  -1
M  END
>  <cnnaffinities>  (18) 
[5.00175, 5.29001]

>  <score>  (18) 
5.00175

>  <index>  (18) 
17

>  <Smiles>  (18) 
C([C@@]1(C(C(c2c([O-])n(c3c(nc(c4c(c(c(c(c34)[H])[H])[H])[H])[H])[H])c(=O)n2C1([H])[H])([H])[H])([H])[H])[H])([H])([H])[H]

>  <h>  (18) 
<NA>

>  <Training>  (18) 
True

>  <Success>  (18) 
True

>  <enamine_searched>  (18) 
False

>  <enamine_id>  (18) 
nan

$$$$

     RDKit          3D

 56 61  0  0  0  0  0  0  0  0999 V2000
  -10.3955   -0.9332  -23.4328 C   0  0  0  0  0  0  0  0  0  0  0  0
   -8.9739   -1.3317  -23.0302 C   0  0  1  0  0  0  0  0  0  0  0  0
   -8.4075   -0.4450  -21.9005 C   0  0  0  0  0  0  0  0  0  0  0  0
   -7.4109   -1.2917  -21.2729 N   0  0  0  0  0  0  0  0  0  0  0  0
   -6.6054   -0.8388  -20.1991 C   0  0  0  0  0  0  0  0  0  0  0  0
   -6.9142   -1.1324  -18.8957 C   0  0  0  0  0  0  0  0  0  0  0  0
   -6.2589   -0.6092  -17.8276 N   0  0  0  0  0  0  0  0  0  0  0  0
   -5.2524    0.1989  -18.0660 C   0  0  0  0  0  0  0  0  0  0  0  0
   -4.7888    0.5326  -19.3725 C   0  0  0  0  0  0  0  0  0  0  0  0
   -3.6639    1.3663  -19.6027 C   0  0  0  0  0  0  0  0  0  0  0  0
   -3.2449    1.6284  -20.8789 C   0  0  0  0  0  0  0  0  0  0  0  0
   -3.9265    1.0771  -21.9859 C   0  0  0  0  0  0  0  0  0  0  0  0
   -5.0246    0.2778  -21.7917 C   0  0  0  0  0  0  0  0  0  0  0  0
   -5.4805   -0.0049  -20.4772 C   0  0  0  0  0  0  0  0  0  0  0  0
   -5.5466   -0.1613  -22.6358 H   0  0  0  0  0  0  0  0  0  0  0  0
   -3.5817    1.2886  -22.9943 H   0  0  0  0  0  0  0  0  0  0  0  0
   -2.3811    2.2634  -21.0541 H   0  0  0  0  0  0  0  0  0  0  0  0
   -3.1485    1.7932  -18.7486 H   0  0  0  0  0  0  0  0  0  0  0  0
   -4.7370    0.6182  -17.2008 H   0  0  0  0  0  0  0  0  0  0  0  0
   -7.7342   -1.8089  -18.6613 H   0  0  0  0  0  0  0  0  0  0  0  0
   -7.6047   -2.6302  -21.5227 C   0  0  0  0  0  0  0  0  0  0  0  0
   -6.9327   -3.5132  -21.0243 O   0  0  0  0  0  0  0  0  0  0  0  0
   -8.7857   -2.8036  -22.4986 C   0  0  1  0  0  0  0  0  0  0  0  0
   -9.9960   -3.2989  -21.6606 C   0  0  0  0  0  0  0  0  0  0  0  0
  -11.1091   -3.7839  -22.4694 N   0  0  0  0  0  0  0  0  0  0  0  0
  -12.4726   -3.7499  -21.9636 C   0  0  0  0  0  0  0  0  0  0  0  0
  -13.3253   -2.6266  -22.4773 C   0  0  0  0  0  0  0  0  0  0  0  0
  -14.0600   -1.6906  -21.7182 C   0  0  0  0  0  0  0  0  0  0  0  0
  -14.8225   -1.0131  -22.6412 C   0  0  0  0  0  0  0  0  0  0  0  0
  -14.5046   -1.5346  -23.8496 N   0  0  0  0  0  0  0  0  0  0  0  0
  -13.5920   -2.5153  -23.7729 N   0  0  0  0  0  0  0  0  0  0  0  0
  -14.9526   -1.3696  -24.7381 H   0  0  0  0  0  0  0  0  0  0  0  0
  -15.5594   -0.2321  -22.5229 H   0  0  0  0  0  0  0  0  0  0  0  0
  -14.0366   -1.5701  -20.6437 H   0  0  0  0  0  0  0  0  0  0  0  0
  -12.9451   -4.6810  -22.2848 H   0  0  0  0  0  0  0  0  0  0  0  0
  -12.4755   -3.7253  -20.8740 H   0  0  0  0  0  0  0  0  0  0  0  0
  -10.9172   -4.4997  -23.6190 C   0  0  0  0  0  0  0  0  0  0  0  0
  -11.8466   -5.0123  -24.2287 O   0  0  0  0  0  0  0  0  0  0  0  0
   -9.5095   -4.6409  -24.0825 C   0  0  0  0  0  0  0  0  0  0  0  0
   -9.2591   -5.6133  -25.0520 C   0  0  0  0  0  0  0  0  0  0  0  0
   -7.9745   -5.8513  -25.4987 C   0  0  0  0  0  0  0  0  0  0  0  0
   -6.9554   -5.0695  -24.9688 C   0  0  0  0  0  0  0  0  0  0  0  0
   -5.6985   -5.2877  -25.3897 F   0  0  0  0  0  0  0  0  0  0  0  0
   -7.1820   -4.0776  -24.0321 C   0  0  0  0  0  0  0  0  0  0  0  0
   -8.4808   -3.8522  -23.5551 C   0  0  0  0  0  0  0  0  0  0  0  0
   -6.3423   -3.5006  -23.6635 H   0  0  0  0  0  0  0  0  0  0  0  0
   -7.7471   -6.6093  -26.2428 H   0  0  0  0  0  0  0  0  0  0  0  0
  -10.0963   -6.1885  -25.4362 H   0  0  0  0  0  0  0  0  0  0  0  0
  -10.3484   -2.4610  -21.0522 H   0  0  0  0  0  0  0  0  0  0  0  0
   -9.6048   -4.0744  -20.9877 H   0  0  0  0  0  0  0  0  0  0  0  0
   -9.1959   -0.1663  -21.1781 H   0  0  0  0  0  0  0  0  0  0  0  0
   -7.9464    0.4789  -22.2689 H   0  0  0  0  0  0  0  0  0  0  0  0
   -8.3203   -1.2296  -23.9121 H   0  0  0  0  0  0  0  0  0  0  0  0
  -11.0760   -0.9430  -22.5722 H   0  0  0  0  0  0  0  0  0  0  0  0
  -10.4078    0.0753  -23.8627 H   0  0  0  0  0  0  0  0  0  0  0  0
  -10.8081   -1.6276  -24.1714 H   0  0  0  0  0  0  0  0  0  0  0  0
  1  2  1  0
  2  3  1  0
  3  4  1  0
  4  5  1  0
  5  6  2  0
  6  7  1  0
  7  8  2  0
  8  9  1  0
  9 10  2  0
 10 11  1  0
 11 12  2  0
 12 13  1  0
 13 14  2  0
 13 15  1  0
 12 16  1  0
 11 17  1  0
 10 18  1  0
  8 19  1  0
  6 20  1  0
  4 21  1  0
 21 22  2  0
 21 23  1  0
 23 24  1  1
 24 25  1  0
 25 26  1  0
 26 27  1  0
 27 28  1  0
 28 29  2  0
 29 30  1  0
 30 31  1  0
 30 32  1  0
 29 33  1  0
 28 34  1  0
 26 35  1  0
 26 36  1  0
 25 37  1  0
 37 38  2  0
 37 39  1  0
 39 40  2  0
 40 41  1  0
 41 42  2  0
 42 43  1  0
 42 44  1  0
 44 45  2  0
 44 46  1  0
 41 47  1  0
 40 48  1  0
 24 49  1  0
 24 50  1  0
  3 51  1  0
  3 52  1  0
  2 53  1  6
  1 54  1  0
  1 55  1  0
  1 56  1  0
 23  2  1  0
 31 27  2  0
 45 39  1  0
 14  5  1  0
 45 23  1  0
 14  9  1  0
M  END
>  <cnnaffinities>  (19) 
[6.60965, 6.64336]

>  <score>  (19) 
6.60965

>  <index>  (19) 
18

>  <Smiles>  (19) 
C([C@]1(C(N(c2c(nc(c3c(c(c(c(c23)[H])[H])[H])[H])[H])[H])C(=O)[C@]21C(N(C(c1c(c(n(n1)[H])[H])[H])([H])[H])C(=O)c1c(c(c(F)c(c21)[H])[H])[H])([H])[H])([H])[H])[H])([H])([H])[H]

>  <h>  (19) 
<NA>

>  <Training>  (19) 
True

>  <Success>  (19) 
True

>  <enamine_searched>  (19) 
False

>  <enamine_id>  (19) 
nan

$$$$

     RDKit          3D

 42 45  0  0  0  0  0  0  0  0999 V2000
   -8.3940    0.6057  -21.5714 O   0  0  0  0  0  0  0  0  0  0  0  0
   -8.2901   -0.5580  -21.8971 C   0  0  0  0  0  0  0  0  0  0  0  0
   -9.1784   -1.1568  -23.0053 C   0  0  1  0  0  0  0  0  0  0  0  0
   -9.3665   -0.1836  -24.1569 C   0  0  0  0  0  0  0  0  0  0  0  0
  -10.6378    0.1629  -24.6133 C   0  0  0  0  0  0  0  0  0  0  0  0
  -10.8055    1.0220  -25.6925 C   0  0  0  0  0  0  0  0  0  0  0  0
   -9.6988    1.5515  -26.3454 C   0  0  0  0  0  0  0  0  0  0  0  0
   -9.9413    2.6288  -27.6791 Cl  0  0  0  0  0  0  0  0  0  0  0  0
   -8.4215    1.2018  -25.9086 C   0  0  0  0  0  0  0  0  0  0  0  0
   -7.0110    1.8332  -26.6888 Cl  0  0  0  0  0  0  0  0  0  0  0  0
   -8.2658    0.3358  -24.8316 C   0  0  0  0  0  0  0  0  0  0  0  0
   -7.2583    0.0803  -24.5166 H   0  0  0  0  0  0  0  0  0  0  0  0
  -11.7971    1.2977  -26.0317 H   0  0  0  0  0  0  0  0  0  0  0  0
  -11.5217   -0.2398  -24.1296 H   0  0  0  0  0  0  0  0  0  0  0  0
   -8.6980   -2.5163  -23.5096 C   0  0  0  0  0  0  0  0  0  0  0  0
   -8.2382   -3.4188  -22.3735 C   0  0  2  0  0  0  0  0  0  0  0  0
   -9.2947   -3.7713  -21.5031 O   0  0  0  0  0  0  0  0  0  0  0  0
   -9.4987   -2.9966  -20.9595 H   0  0  0  0  0  0  0  0  0  0  0  0
   -7.0829   -2.7583  -21.6411 C   0  0  0  0  0  0  0  0  0  0  0  0
   -7.4211   -1.4027  -21.2124 N   0  0  0  0  0  0  0  0  0  0  0  0
   -6.6065   -0.8118  -20.1868 C   0  0  0  0  0  0  0  0  0  0  0  0
   -6.8903   -1.0489  -18.8664 C   0  0  0  0  0  0  0  0  0  0  0  0
   -6.1949   -0.5476  -17.8118 N   0  0  0  0  0  0  0  0  0  0  0  0
   -5.1616    0.2188  -18.0705 C   0  0  0  0  0  0  0  0  0  0  0  0
   -4.7269    0.5316  -19.3896 C   0  0  0  0  0  0  0  0  0  0  0  0
   -3.5960    1.3608  -19.6326 C   0  0  0  0  0  0  0  0  0  0  0  0
   -3.2029    1.6370  -20.9153 C   0  0  0  0  0  0  0  0  0  0  0  0
   -3.9151    1.0934  -22.0080 C   0  0  0  0  0  0  0  0  0  0  0  0
   -5.0084    0.2896  -21.7953 C   0  0  0  0  0  0  0  0  0  0  0  0
   -5.4584   -0.0017  -20.4803 C   0  0  0  0  0  0  0  0  0  0  0  0
   -5.5549   -0.1298  -22.6338 H   0  0  0  0  0  0  0  0  0  0  0  0
   -3.5982    1.3177  -23.0211 H   0  0  0  0  0  0  0  0  0  0  0  0
   -2.3446    2.2761  -21.1057 H   0  0  0  0  0  0  0  0  0  0  0  0
   -3.0557    1.7789  -18.7853 H   0  0  0  0  0  0  0  0  0  0  0  0
   -4.6066    0.6246  -17.2200 H   0  0  0  0  0  0  0  0  0  0  0  0
   -7.7378   -1.6764  -18.5995 H   0  0  0  0  0  0  0  0  0  0  0  0
   -6.1835   -2.7690  -22.2764 H   0  0  0  0  0  0  0  0  0  0  0  0
   -6.8398   -3.3343  -20.7460 H   0  0  0  0  0  0  0  0  0  0  0  0
   -7.8900   -4.3652  -22.7976 H   0  0  0  0  0  0  0  0  0  0  0  0
   -9.5098   -3.0100  -24.0520 H   0  0  0  0  0  0  0  0  0  0  0  0
   -7.8752   -2.3731  -24.2206 H   0  0  0  0  0  0  0  0  0  0  0  0
  -10.1537   -1.2967  -22.5221 H   0  0  0  0  0  0  0  0  0  0  0  0
  1  2  2  0
  2  3  1  0
  3  4  1  0
  4  5  2  0
  5  6  1  0
  6  7  2  0
  7  8  1  0
  7  9  1  0
  9 10  1  0
  9 11  2  0
 11 12  1  0
  6 13  1  0
  5 14  1  0
  3 15  1  0
 15 16  1  0
 16 17  1  0
 17 18  1  0
 16 19  1  0
 19 20  1  0
 20 21  1  0
 21 22  2  0
 22 23  1  0
 23 24  2  0
 24 25  1  0
 25 26  2  0
 26 27  1  0
 27 28  2  0
 28 29  1  0
 29 30  2  0
 29 31  1  0
 28 32  1  0
 27 33  1  0
 26 34  1  0
 24 35  1  0
 22 36  1  0
 19 37  1  0
 19 38  1  0
 16 39  1  6
 15 40  1  0
 15 41  1  0
  3 42  1  1
 20  2  1  0
 30 21  1  0
 11  4  1  0
 30 25  1  0
M  END
>  <cnnaffinities>  (20) 
[5.44526, 5.76474]

>  <score>  (20) 
5.44526

>  <index>  (20) 
19

>  <Smiles>  (20) 
O=C1[C@@](c2c(c(c(Cl)c(Cl)c2[H])[H])[H])(C([C@](O[H])(C(N1c1c(nc(c2c(c(c(c(c12)[H])[H])[H])[H])[H])[H])([H])[H])[H])([H])[H])[H]

>  <h>  (20) 
<NA>

>  <Training>  (20) 
True

>  <Success>  (20) 
True

>  <enamine_searched>  (20) 
False

>  <enamine_id>  (20) 
nan

$$$$

     RDKit          3D

 66 71  0  0  0  0  0  0  0  0999 V2000
   -7.4443    3.3827  -21.8283 C   0  0  0  0  0  0  0  0  0  0  0  0
   -8.3402    2.9223  -22.8684 N   0  0  0  0  0  0  0  0  0  0  0  0
   -7.7948    2.1975  -23.8794 C   0  0  0  0  0  0  0  0  0  0  0  0
   -6.5859    2.0558  -23.9983 O   0  0  0  0  0  0  0  0  0  0  0  0
   -8.7610    1.5793  -24.8772 C   0  0  0  0  0  0  0  0  0  0  0  0
   -9.4487    0.4311  -24.3324 N   0  0  0  0  0  0  0  0  0  0  0  0
   -8.7047   -0.8015  -24.1695 C   0  0  0  0  0  0  0  0  0  0  0  0
   -9.0758   -1.5279  -22.8600 C   0  0  2  0  0  0  0  0  0  0  0  0
   -8.5334   -0.7513  -21.6414 C   0  0  0  0  0  0  0  0  0  0  0  0
   -9.0039    0.2499  -21.1358 O   0  0  0  0  0  0  0  0  0  0  0  0
   -7.3966   -1.3812  -21.1968 N   0  0  0  0  0  0  0  0  0  0  0  0
   -6.5993   -0.8148  -20.1734 C   0  0  0  0  0  0  0  0  0  0  0  0
   -6.9193   -1.0458  -18.8586 C   0  0  0  0  0  0  0  0  0  0  0  0
   -6.2244   -0.5519  -17.8071 N   0  0  0  0  0  0  0  0  0  0  0  0
   -5.1847    0.2055  -18.0741 C   0  0  0  0  0  0  0  0  0  0  0  0
   -4.7438    0.5239  -19.3917 C   0  0  0  0  0  0  0  0  0  0  0  0
   -3.6197    1.3593  -19.6338 C   0  0  0  0  0  0  0  0  0  0  0  0
   -3.2324    1.6531  -20.9145 C   0  0  0  0  0  0  0  0  0  0  0  0
   -3.9542    1.1355  -22.0135 C   0  0  0  0  0  0  0  0  0  0  0  0
   -5.0488    0.3290  -21.8070 C   0  0  0  0  0  0  0  0  0  0  0  0
   -5.4684    0.0010  -20.4866 C   0  0  0  0  0  0  0  0  0  0  0  0
   -5.6065   -0.0430  -22.6614 H   0  0  0  0  0  0  0  0  0  0  0  0
   -3.6556    1.3845  -23.0284 H   0  0  0  0  0  0  0  0  0  0  0  0
   -2.3747    2.2996  -21.0916 H   0  0  0  0  0  0  0  0  0  0  0  0
   -3.0888    1.7675  -18.7788 H   0  0  0  0  0  0  0  0  0  0  0  0
   -4.6235    0.6034  -17.2283 H   0  0  0  0  0  0  0  0  0  0  0  0
   -7.7838   -1.6631  -18.6168 H   0  0  0  0  0  0  0  0  0  0  0  0
   -7.0504   -2.5760  -21.9347 C   0  0  0  0  0  0  0  0  0  0  0  0
   -8.3220   -2.8896  -22.7348 C   0  0  2  0  0  0  0  0  0  0  0  0
   -8.0257   -3.6717  -24.0320 C   0  0  0  0  0  0  0  0  0  0  0  0
   -7.4643   -5.0541  -23.7728 C   0  0  0  0  0  0  0  0  0  0  0  0
   -6.0891   -5.3029  -23.7659 C   0  0  0  0  0  0  0  0  0  0  0  0
   -5.5965   -6.5762  -23.4895 C   0  0  0  0  0  0  0  0  0  0  0  0
   -6.4730   -7.6198  -23.2090 C   0  0  0  0  0  0  0  0  0  0  0  0
   -7.8448   -7.3860  -23.2154 C   0  0  0  0  0  0  0  0  0  0  0  0
   -8.3307   -6.1126  -23.4950 C   0  0  0  0  0  0  0  0  0  0  0  0
   -9.4024   -5.9273  -23.5139 H   0  0  0  0  0  0  0  0  0  0  0  0
   -8.5368   -8.1985  -23.0084 H   0  0  0  0  0  0  0  0  0  0  0  0
   -6.0859   -8.6131  -22.9882 H   0  0  0  0  0  0  0  0  0  0  0  0
   -4.5243   -6.7585  -23.4981 H   0  0  0  0  0  0  0  0  0  0  0  0
   -5.3929   -4.4952  -23.9893 H   0  0  0  0  0  0  0  0  0  0  0  0
   -8.9514   -3.7590  -24.6185 H   0  0  0  0  0  0  0  0  0  0  0  0
   -7.3174   -3.0984  -24.6442 H   0  0  0  0  0  0  0  0  0  0  0  0
   -8.9557   -3.5299  -22.1185 H   0  0  0  0  0  0  0  0  0  0  0  0
   -6.7769   -3.3914  -21.2579 H   0  0  0  0  0  0  0  0  0  0  0  0
   -6.1969   -2.3950  -22.6044 H   0  0  0  0  0  0  0  0  0  0  0  0
  -10.5890   -1.6052  -22.7850 C   0  0  0  0  0  0  0  0  0  0  0  0
  -11.2088   -2.5292  -21.9371 C   0  0  0  0  0  0  0  0  0  0  0  0
  -12.5887   -2.5600  -21.8388 C   0  0  0  0  0  0  0  0  0  0  0  0
  -13.3274   -3.7075  -20.7531 Cl  0  0  0  0  0  0  0  0  0  0  0  0
  -13.3966   -1.6865  -22.5694 C   0  0  0  0  0  0  0  0  0  0  0  0
  -12.7938   -0.7403  -23.3759 C   0  0  0  0  0  0  0  0  0  0  0  0
  -11.4030   -0.6821  -23.4567 C   0  0  0  0  0  0  0  0  0  0  0  0
  -10.8126    0.4568  -24.2273 C   0  0  0  0  0  0  0  0  0  0  0  0
  -11.5051    1.3521  -24.6945 O   0  0  0  0  0  0  0  0  0  0  0  0
  -13.3675   -0.0109  -23.9423 H   0  0  0  0  0  0  0  0  0  0  0  0
  -14.4745   -1.7472  -22.4708 H   0  0  0  0  0  0  0  0  0  0  0  0
  -10.6222   -3.2156  -21.3360 H   0  0  0  0  0  0  0  0  0  0  0  0
   -7.6400   -0.5530  -24.1833 H   0  0  0  0  0  0  0  0  0  0  0  0
   -8.9258   -1.4721  -25.0095 H   0  0  0  0  0  0  0  0  0  0  0  0
   -8.1596    1.2961  -25.7460 H   0  0  0  0  0  0  0  0  0  0  0  0
   -9.5423    2.2878  -25.1542 H   0  0  0  0  0  0  0  0  0  0  0  0
   -9.2973    2.7494  -22.6110 H   0  0  0  0  0  0  0  0  0  0  0  0
   -7.9974    3.8971  -21.0449 H   0  0  0  0  0  0  0  0  0  0  0  0
   -6.7134    4.0618  -22.2560 H   0  0  0  0  0  0  0  0  0  0  0  0
   -6.8890    2.5442  -21.4014 H   0  0  0  0  0  0  0  0  0  0  0  0
  1  2  1  0
  2  3  1  0
  3  4  2  0
  3  5  1  0
  5  6  1  0
  6  7  1  0
  8  7  1  6
  8  9  1  0
  9 10  2  0
  9 11  1  0
 11 12  1  0
 12 13  2  0
 13 14  1  0
 14 15  2  0
 15 16  1  0
 16 17  2  0
 17 18  1  0
 18 19  2  0
 19 20  1  0
 20 21  2  0
 20 22  1  0
 19 23  1  0
 18 24  1  0
 17 25  1  0
 15 26  1  0
 13 27  1  0
 11 28  1  0
 28 29  1  0
 29 30  1  0
 30 31  1  0
 31 32  2  0
 32 33  1  0
 33 34  2  0
 34 35  1  0
 35 36  2  0
 36 37  1  0
 35 38  1  0
 34 39  1  0
 33 40  1  0
 32 41  1  0
 30 42  1  0
 30 43  1  0
 29 44  1  1
 28 45  1  0
 28 46  1  0
  8 47  1  0
 47 48  2  0
 48 49  1  0
 49 50  1  0
 49 51  2  0
 51 52  1  0
 52 53  2  0
 53 54  1  0
 54 55  2  0
 52 56  1  0
 51 57  1  0
 48 58  1  0
  7 59  1  0
  7 60  1  0
  5 61  1  0
  5 62  1  0
  2 63  1  0
  1 64  1  0
  1 65  1  0
  1 66  1  0
 54  6  1  0
 29  8  1  0
 36 31  1  0
 53 47  1  0
 21 12  1  0
 21 16  1  0
M  END
>  <cnnaffinities>  (21) 
[6.50698, 6.49732, 6.68263]

>  <score>  (21) 
6.50698

>  <index>  (21) 
20

>  <Smiles>  (21) 
C(N(C(=O)C(N1C([C@@]2(C(=O)N(c3c(nc(c4c(c(c(c(c34)[H])[H])[H])[H])[H])[H])C([C@@]2(C(c2c(c(c(c(c2[H])[H])[H])[H])[H])([H])[H])[H])([H])[H])c2c(c(Cl)c(c(c2C1=O)[H])[H])[H])([H])[H])([H])[H])[H])([H])([H])[H]

>  <h>  (21) 
<NA>

>  <Training>  (21) 
True

>  <Success>  (21) 
True

>  <enamine_searched>  (21) 
False

>  <enamine_id>  (21) 
nan

$$$$

     RDKit          3D

 63 68  0  0  0  0  0  0  0  0999 V2000
   -8.1557   -3.7939  -23.9128 C   0  0  0  0  0  0  0  0  0  0  0  0
   -8.3290   -3.0457  -22.5956 C   0  0  1  0  0  0  0  0  0  0  0  0
   -7.0129   -2.4566  -22.0511 C   0  0  0  0  0  0  0  0  0  0  0  0
   -7.4668   -1.3622  -21.2165 N   0  0  0  0  0  0  0  0  0  0  0  0
   -6.6794   -0.7951  -20.1749 C   0  0  0  0  0  0  0  0  0  0  0  0
   -6.9914   -1.0259  -18.8563 C   0  0  0  0  0  0  0  0  0  0  0  0
   -6.2797   -0.5415  -17.8081 N   0  0  0  0  0  0  0  0  0  0  0  0
   -5.2358    0.2077  -18.0747 C   0  0  0  0  0  0  0  0  0  0  0  0
   -4.7911    0.5215  -19.3906 C   0  0  0  0  0  0  0  0  0  0  0  0
   -3.6709    1.3637  -19.6347 C   0  0  0  0  0  0  0  0  0  0  0  0
   -3.2793    1.6506  -20.9151 C   0  0  0  0  0  0  0  0  0  0  0  0
   -3.9937    1.1168  -22.0081 C   0  0  0  0  0  0  0  0  0  0  0  0
   -5.0832    0.3003  -21.7970 C   0  0  0  0  0  0  0  0  0  0  0  0
   -5.5181   -0.0146  -20.4812 C   0  0  0  0  0  0  0  0  0  0  0  0
   -5.6693   -0.0400  -22.6454 H   0  0  0  0  0  0  0  0  0  0  0  0
   -3.7006    1.3753  -23.0220 H   0  0  0  0  0  0  0  0  0  0  0  0
   -2.4266    2.3013  -21.0961 H   0  0  0  0  0  0  0  0  0  0  0  0
   -3.1479    1.7843  -18.7802 H   0  0  0  0  0  0  0  0  0  0  0  0
   -4.6782    0.6125  -17.2276 H   0  0  0  0  0  0  0  0  0  0  0  0
   -7.8459   -1.6468  -18.5935 H   0  0  0  0  0  0  0  0  0  0  0  0
   -8.7569   -0.9655  -21.4926 C   0  0  0  0  0  0  0  0  0  0  0  0
   -9.3261   -0.0317  -20.9524 O   0  0  0  0  0  0  0  0  0  0  0  0
   -9.3473   -1.8680  -22.6142 C   0  0  1  0  0  0  0  0  0  0  0  0
   -9.3241   -1.1244  -23.9823 C   0  0  0  0  0  0  0  0  0  0  0  0
  -10.2932   -0.0492  -24.0887 N   0  0  0  0  0  0  0  0  0  0  0  0
   -9.8939    1.1473  -24.8143 C   0  0  0  0  0  0  0  0  0  0  0  0
   -8.6413    1.7288  -24.1480 C   0  0  0  0  0  0  0  0  0  0  0  0
   -7.5440    1.7289  -24.6831 O   0  0  0  0  0  0  0  0  0  0  0  0
   -8.8916    2.1627  -22.8860 N   0  0  0  0  0  0  0  0  0  0  0  0
   -7.8646    2.5317  -21.9274 C   0  0  0  0  0  0  0  0  0  0  0  0
   -7.5666    4.0158  -21.9367 C   0  0  0  0  0  0  0  0  0  0  0  0
   -6.4228    4.5728  -21.1439 C   0  0  0  0  0  0  0  0  0  0  0  0
   -6.3372    4.5078  -22.6456 C   0  0  0  0  0  0  0  0  0  0  0  0
   -5.6543    3.7676  -23.0719 H   0  0  0  0  0  0  0  0  0  0  0  0
   -6.3930    5.4442  -23.1884 H   0  0  0  0  0  0  0  0  0  0  0  0
   -5.7833    3.8866  -20.5859 H   0  0  0  0  0  0  0  0  0  0  0  0
   -6.5338    5.5556  -20.6909 H   0  0  0  0  0  0  0  0  0  0  0  0
   -8.4469    4.6494  -22.0341 H   0  0  0  0  0  0  0  0  0  0  0  0
   -8.2333    2.1772  -20.9603 H   0  0  0  0  0  0  0  0  0  0  0  0
   -6.9544    1.9616  -22.1492 H   0  0  0  0  0  0  0  0  0  0  0  0
   -9.8036    1.9687  -22.5019 H   0  0  0  0  0  0  0  0  0  0  0  0
  -10.7403    1.8347  -24.7376 H   0  0  0  0  0  0  0  0  0  0  0  0
   -9.6781    0.9502  -25.8708 H   0  0  0  0  0  0  0  0  0  0  0  0
  -11.5066   -0.0799  -23.4734 C   0  0  0  0  0  0  0  0  0  0  0  0
  -12.2999    0.8522  -23.5467 O   0  0  0  0  0  0  0  0  0  0  0  0
  -11.8150   -1.3238  -22.7023 C   0  0  0  0  0  0  0  0  0  0  0  0
  -13.1520   -1.5422  -22.3724 C   0  0  0  0  0  0  0  0  0  0  0  0
  -13.5238   -2.6484  -21.6437 C   0  0  0  0  0  0  0  0  0  0  0  0
  -12.5206   -3.5324  -21.2780 C   0  0  0  0  0  0  0  0  0  0  0  0
  -12.8722   -4.5409  -20.4679 F   0  0  0  0  0  0  0  0  0  0  0  0
  -11.1958   -3.3832  -21.6458 C   0  0  0  0  0  0  0  0  0  0  0  0
  -10.8024   -2.2285  -22.3370 C   0  0  0  0  0  0  0  0  0  0  0  0
  -10.4977   -4.1468  -21.3200 H   0  0  0  0  0  0  0  0  0  0  0  0
  -14.5479   -2.8433  -21.3429 H   0  0  0  0  0  0  0  0  0  0  0  0
  -13.8848   -0.8147  -22.6961 H   0  0  0  0  0  0  0  0  0  0  0  0
   -8.3405   -0.6814  -24.1407 H   0  0  0  0  0  0  0  0  0  0  0  0
   -9.5033   -1.8378  -24.7944 H   0  0  0  0  0  0  0  0  0  0  0  0
   -6.3539   -2.1059  -22.8613 H   0  0  0  0  0  0  0  0  0  0  0  0
   -6.4425   -3.1842  -21.4622 H   0  0  0  0  0  0  0  0  0  0  0  0
   -8.6819   -3.7400  -21.8282 H   0  0  0  0  0  0  0  0  0  0  0  0
   -7.7044   -3.1433  -24.6727 H   0  0  0  0  0  0  0  0  0  0  0  0
   -7.5040   -4.6661  -23.7993 H   0  0  0  0  0  0  0  0  0  0  0  0
   -9.1231   -4.1362  -24.2971 H   0  0  0  0  0  0  0  0  0  0  0  0
  1  2  1  0
  2  3  1  0
  3  4  1  0
  4  5  1  0
  5  6  2  0
  6  7  1  0
  7  8  2  0
  8  9  1  0
  9 10  2  0
 10 11  1  0
 11 12  2  0
 12 13  1  0
 13 14  2  0
 13 15  1  0
 12 16  1  0
 11 17  1  0
 10 18  1  0
  8 19  1  0
  6 20  1  0
  4 21  1  0
 21 22  2  0
 21 23  1  0
 23 24  1  6
 24 25  1  0
 25 26  1  0
 26 27  1  0
 27 28  2  0
 27 29  1  0
 29 30  1  0
 30 31  1  0
 31 32  1  0
 32 33  1  0
 33 34  1  0
 33 35  1  0
 32 36  1  0
 32 37  1  0
 31 38  1  0
 30 39  1  0
 30 40  1  0
 29 41  1  0
 26 42  1  0
 26 43  1  0
 25 44  1  0
 44 45  2  0
 44 46  1  0
 46 47  2  0
 47 48  1  0
 48 49  2  0
 49 50  1  0
 49 51  1  0
 51 52  2  0
 51 53  1  0
 48 54  1  0
 47 55  1  0
 24 56  1  0
 24 57  1  0
  3 58  1  0
  3 59  1  0
  2 60  1  1
  1 61  1  0
  1 62  1  0
  1 63  1  0
 23  2  1  0
 33 31  1  0
 52 46  1  0
 14  5  1  0
 52 23  1  0
 14  9  1  0
M  END
>  <cnnaffinities>  (22) 
[6.74776]

>  <score>  (22) 
6.74776

>  <index>  (22) 
21

>  <Smiles>  (22) 
C([C@]1(C(N(c2c(nc(c3c(c(c(c(c23)[H])[H])[H])[H])[H])[H])C(=O)[C@]21C(N(C(C(=O)N(C(C1(C(C1([H])[H])([H])[H])[H])([H])[H])[H])([H])[H])C(=O)c1c(c(c(F)c(c21)[H])[H])[H])([H])[H])([H])[H])[H])([H])([H])[H]

>  <h>  (22) 
<NA>

>  <Training>  (22) 
True

>  <Success>  (22) 
True

>  <enamine_searched>  (22) 
False

>  <enamine_id>  (22) 
nan

$$$$

     RDKit          3D

 68 73  0  0  0  0  0  0  0  0999 V2000
  -10.4796    1.5682  -27.0817 C   0  0  0  0  0  0  0  0  0  0  0  0
   -9.8711    0.3695  -26.5365 N   0  0  0  0  0  0  0  0  0  0  0  0
  -10.4129   -0.8364  -26.8636 C   0  0  0  0  0  0  0  0  0  0  0  0
  -11.3315   -0.9021  -27.6627 O   0  0  0  0  0  0  0  0  0  0  0  0
   -9.7895   -2.0782  -26.1944 C   0  0  0  0  0  0  0  0  0  0  0  0
  -10.0620   -2.2672  -24.7703 N   0  0  0  0  0  0  0  0  0  0  0  0
   -9.2654   -1.5371  -23.7839 C   0  0  0  0  0  0  0  0  0  0  0  0
   -8.9705   -2.3294  -22.4899 C   0  0  2  0  0  0  0  0  0  0  0  0
   -8.4589   -1.3285  -21.4609 C   0  0  0  0  0  0  0  0  0  0  0  0
   -9.1198   -0.4391  -20.9585 O   0  0  0  0  0  0  0  0  0  0  0  0
   -7.1411   -1.5912  -21.1963 N   0  0  0  0  0  0  0  0  0  0  0  0
   -6.4734   -0.8951  -20.1597 C   0  0  0  0  0  0  0  0  0  0  0  0
   -6.8660   -1.0499  -18.8547 C   0  0  0  0  0  0  0  0  0  0  0  0
   -6.2085   -0.5122  -17.7972 N   0  0  0  0  0  0  0  0  0  0  0  0
   -5.1572    0.2327  -18.0528 C   0  0  0  0  0  0  0  0  0  0  0  0
   -4.6841    0.5283  -19.3649 C   0  0  0  0  0  0  0  0  0  0  0  0
   -3.5693    1.3760  -19.6060 C   0  0  0  0  0  0  0  0  0  0  0  0
   -3.1922    1.6743  -20.8869 C   0  0  0  0  0  0  0  0  0  0  0  0
   -3.9140    1.1566  -21.9859 C   0  0  0  0  0  0  0  0  0  0  0  0
   -4.9910    0.3303  -21.7793 C   0  0  0  0  0  0  0  0  0  0  0  0
   -5.3797   -0.0264  -20.4610 C   0  0  0  0  0  0  0  0  0  0  0  0
   -5.5713   -0.0357  -22.6210 H   0  0  0  0  0  0  0  0  0  0  0  0
   -3.6227    1.4200  -22.9985 H   0  0  0  0  0  0  0  0  0  0  0  0
   -2.3436    2.3269  -21.0708 H   0  0  0  0  0  0  0  0  0  0  0  0
   -3.0434    1.7975  -18.7532 H   0  0  0  0  0  0  0  0  0  0  0  0
   -4.6274    0.6541  -17.1974 H   0  0  0  0  0  0  0  0  0  0  0  0
   -7.7427   -1.6476  -18.6108 H   0  0  0  0  0  0  0  0  0  0  0  0
   -6.5891   -2.6715  -22.0051 C   0  0  0  0  0  0  0  0  0  0  0  0
   -7.8315   -3.4029  -22.5486 C   0  0  2  0  0  0  0  0  0  0  0  0
   -7.6024   -4.0973  -23.8935 C   0  0  0  0  0  0  0  0  0  0  0  0
   -8.7049   -4.9901  -24.2018 N   0  0  0  0  0  0  0  0  0  0  0  0
   -8.8780   -5.4445  -25.5011 C   0  0  0  0  0  0  0  0  0  0  0  0
  -10.1158   -5.9829  -25.8882 C   0  0  0  0  0  0  0  0  0  0  0  0
  -10.3198   -6.4680  -27.1714 C   0  0  0  0  0  0  0  0  0  0  0  0
   -9.3030   -6.4130  -28.1194 C   0  0  0  0  0  0  0  0  0  0  0  0
   -8.0763   -5.8729  -27.7511 C   0  0  0  0  0  0  0  0  0  0  0  0
   -7.8528   -5.4005  -26.4614 C   0  0  0  0  0  0  0  0  0  0  0  0
   -6.8779   -4.9946  -26.2049 H   0  0  0  0  0  0  0  0  0  0  0  0
   -7.2715   -5.8078  -28.4811 H   0  0  0  0  0  0  0  0  0  0  0  0
   -9.4668   -6.7877  -29.1256 H   0  0  0  0  0  0  0  0  0  0  0  0
  -11.2881   -6.8896  -27.4355 H   0  0  0  0  0  0  0  0  0  0  0  0
  -10.9336   -6.0292  -25.1768 H   0  0  0  0  0  0  0  0  0  0  0  0
   -9.5861   -4.7572  -23.7253 H   0  0  0  0  0  0  0  0  0  0  0  0
   -6.6668   -4.6751  -23.8551 H   0  0  0  0  0  0  0  0  0  0  0  0
   -7.4674   -3.3385  -24.6827 H   0  0  0  0  0  0  0  0  0  0  0  0
   -8.0921   -4.1895  -21.8293 H   0  0  0  0  0  0  0  0  0  0  0  0
   -5.9573   -3.3252  -21.3944 H   0  0  0  0  0  0  0  0  0  0  0  0
   -5.9711   -2.2783  -22.8244 H   0  0  0  0  0  0  0  0  0  0  0  0
  -10.2782   -2.8867  -21.9473 C   0  0  0  0  0  0  0  0  0  0  0  0
  -10.6546   -4.1428  -22.3742 C   0  0  0  0  0  0  0  0  0  0  0  0
  -13.0757   -3.8904  -21.1790 C   0  0  0  0  0  0  0  0  0  0  0  0
  -13.8835   -4.6435  -23.3780 Cl  0  0  0  0  0  0  0  0  0  0  0  0
  -13.0400   -3.7304  -21.0154 C   0  0  0  0  0  0  0  0  0  0  0  0
  -12.9516   -3.2790  -22.5149 C   0  0  0  0  0  0  0  0  0  0  0  0
  -11.4973   -3.2809  -23.0418 C   0  0  0  0  0  0  0  0  0  0  0  0
  -11.3199   -2.7398  -24.4327 C   0  0  0  0  0  0  0  0  0  0  0  0
  -12.2541   -2.6934  -25.2084 O   0  0  0  0  0  0  0  0  0  0  0  0
  -13.4446   -2.3413  -22.8855 H   0  0  0  0  0  0  0  0  0  0  0  0
  -13.6180   -4.6264  -20.3400 H   0  0  0  0  0  0  0  0  0  0  0  0
  -10.6798   -2.4443  -21.0148 H   0  0  0  0  0  0  0  0  0  0  0  0
   -8.3181   -1.2313  -24.2394 H   0  0  0  0  0  0  0  0  0  0  0  0
   -9.8070   -0.6389  -23.4523 H   0  0  0  0  0  0  0  0  0  0  0  0
   -8.6982   -2.0491  -26.3123 H   0  0  0  0  0  0  0  0  0  0  0  0
  -10.1642   -2.9470  -26.7378 H   0  0  0  0  0  0  0  0  0  0  0  0
   -9.0028    0.4424  -26.0309 H   0  0  0  0  0  0  0  0  0  0  0  0
  -11.4718    1.7226  -26.6472 H   0  0  0  0  0  0  0  0  0  0  0  0
   -9.8514    2.4292  -26.8519 H   0  0  0  0  0  0  0  0  0  0  0  0
  -10.6014    1.4752  -28.1643 H   0  0  0  0  0  0  0  0  0  0  0  0
  1  2  1  0
  2  3  1  0
  3  4  2  0
  3  5  1  0
  5  6  1  0
  6  7  1  0
  8  7  1  6
  8  9  1  0
  9 10  2  0
  9 11  1  0
 11 12  1  0
 12 13  2  0
 13 14  1  0
 14 15  2  0
 15 16  1  0
 16 17  2  0
 17 18  1  0
 18 19  2  0
 19 20  1  0
 20 21  2  0
 20 22  1  0
 19 23  1  0
 18 24  1  0
 17 25  1  0
 15 26  1  0
 13 27  1  0
 11 28  1  0
 28 29  1  0
 29 30  1  0
 30 31  1  0
 31 32  1  0
 32 33  2  0
 33 34  1  0
 34 35  2  0
 35 36  1  0
 36 37  2  0
 37 38  1  0
 36 39  1  0
 35 40  1  0
 34 41  1  0
 33 42  1  0
 31 43  1  0
 30 44  1  0
 30 45  1  0
 29 46  1  1
 28 47  1  0
 28 48  1  0
  8 49  1  0
 49 50  2  0
 50 51  1  0
 51 52  1  0
 51 53  2  0
 53 54  1  0
 54 55  2  0
 55 56  1  0
 56 57  2  0
 54 58  1  0
 53 59  1  0
 50 60  1  0
  7 61  1  0
  7 62  1  0
  5 63  1  0
  5 64  1  0
  2 65  1  0
  1 66  1  0
  1 67  1  0
  1 68  1  0
 56  6  1  0
 29  8  1  0
 37 32  1  0
 55 49  1  0
 21 12  1  0
 21 16  1  0
M  END
>  <cnnaffinities>  (23) 
[6.52583]

>  <score>  (23) 
6.52583

>  <index>  (23) 
23

>  <Smiles>  (23) 
C(N(C(=O)C(N1C([C@@]2(C(=O)N(c3c(nc(c4c(c(c(c(c34)[H])[H])[H])[H])[H])[H])C([C@@]2(C(N(c2c(c(c(c(c2[H])[H])[H])[H])[H])[H])([H])[H])[H])([H])[H])c2c(c(Cl)c(c(c2C1=O)[H])[H])[H])([H])[H])([H])[H])[H])([H])([H])[H]

>  <h>  (23) 
<NA>

>  <Training>  (23) 
True

>  <Success>  (23) 
True

>  <enamine_searched>  (23) 
False

>  <enamine_id>  (23) 
nan

$$$$

     RDKit          3D

 65 70  0  0  0  0  0  0  0  0999 V2000
   -6.0092   -7.5434  -25.4964 O   0  0  0  0  0  0  0  0  0  0  0  0
   -5.9663   -7.1808  -24.3290 C   0  0  0  0  0  0  0  0  0  0  0  0
   -7.1563   -6.5591  -23.6116 C   0  0  0  0  0  0  0  0  0  0  0  0
   -7.1020   -5.0722  -23.7795 N   0  0  1  0  0  4  0  0  0  0  0  0
   -7.2788   -4.7399  -25.2775 C   0  0  0  0  0  0  0  0  0  0  0  0
   -7.2152   -3.2613  -25.5156 C   0  0  0  0  0  0  0  0  0  0  0  0
   -6.8469   -2.7830  -26.7707 C   0  0  0  0  0  0  0  0  0  0  0  0
   -6.7777   -1.4228  -27.0342 C   0  0  0  0  0  0  0  0  0  0  0  0
   -7.0853   -0.5285  -26.0144 C   0  0  0  0  0  0  0  0  0  0  0  0
   -6.9901    1.1862  -26.3150 Cl  0  0  0  0  0  0  0  0  0  0  0  0
   -7.4671   -0.9833  -24.7626 C   0  0  0  0  0  0  0  0  0  0  0  0
   -7.5455   -2.3571  -24.5049 C   0  0  0  0  0  0  0  0  0  0  0  0
   -7.9477   -2.8097  -23.1136 C   0  0  2  0  0  0  0  0  0  0  0  0
   -9.1883   -2.0896  -22.5696 C   0  0  0  0  0  0  0  0  0  0  0  0
   -8.7186   -1.1436  -21.4594 C   0  0  0  0  0  0  0  0  0  0  0  0
   -7.3183   -1.4903  -21.2426 N   0  0  0  0  0  0  0  0  0  0  0  0
   -6.5520   -0.8912  -20.2035 C   0  0  0  0  0  0  0  0  0  0  0  0
   -6.8992   -1.0660  -18.8826 C   0  0  0  0  0  0  0  0  0  0  0  0
   -6.2241   -0.5421  -17.8292 N   0  0  0  0  0  0  0  0  0  0  0  0
   -5.1818    0.2090  -18.0916 C   0  0  0  0  0  0  0  0  0  0  0  0
   -4.7359    0.5144  -19.4090 C   0  0  0  0  0  0  0  0  0  0  0  0
   -3.6166    1.3592  -19.6352 C   0  0  0  0  0  0  0  0  0  0  0  0
   -3.2274    1.6673  -20.9085 C   0  0  0  0  0  0  0  0  0  0  0  0
   -3.9489    1.1541  -22.0120 C   0  0  0  0  0  0  0  0  0  0  0  0
   -5.0317    0.3324  -21.8216 C   0  0  0  0  0  0  0  0  0  0  0  0
   -5.4443   -0.0301  -20.5066 C   0  0  0  0  0  0  0  0  0  0  0  0
   -5.5805   -0.0422  -22.6840 H   0  0  0  0  0  0  0  0  0  0  0  0
   -3.6396    1.4119  -23.0196 H   0  0  0  0  0  0  0  0  0  0  0  0
   -2.3727    2.3148  -21.0823 H   0  0  0  0  0  0  0  0  0  0  0  0
   -3.0923    1.7625  -18.7709 H   0  0  0  0  0  0  0  0  0  0  0  0
   -4.6333    0.6146  -17.2407 H   0  0  0  0  0  0  0  0  0  0  0  0
   -7.7561   -1.6807  -18.6099 H   0  0  0  0  0  0  0  0  0  0  0  0
   -6.8404   -2.4409  -22.1210 C   0  0  0  0  0  0  0  0  0  0  0  0
   -5.7461   -2.9738  -22.1326 O   0  0  0  0  0  0  0  0  0  0  0  0
   -9.2947   -1.3424  -20.5624 H   0  0  0  0  0  0  0  0  0  0  0  0
   -8.8428   -0.0802  -21.7108 H   0  0  0  0  0  0  0  0  0  0  0  0
   -9.8584   -2.8386  -22.1368 H   0  0  0  0  0  0  0  0  0  0  0  0
   -9.7501   -1.5822  -23.3583 H   0  0  0  0  0  0  0  0  0  0  0  0
   -8.1654   -4.3270  -23.0143 C   0  0  0  0  0  0  0  0  0  0  0  0
   -8.1468   -4.6029  -21.9553 H   0  0  0  0  0  0  0  0  0  0  0  0
   -9.1449   -4.5838  -23.4307 H   0  0  0  0  0  0  0  0  0  0  0  0
   -7.7024   -0.2550  -23.9890 H   0  0  0  0  0  0  0  0  0  0  0  0
   -6.4852   -1.0517  -28.0104 H   0  0  0  0  0  0  0  0  0  0  0  0
   -6.6015   -3.4933  -27.5569 H   0  0  0  0  0  0  0  0  0  0  0  0
   -6.5162   -5.2683  -25.8439 H   0  0  0  0  0  0  0  0  0  0  0  0
   -8.2435   -5.1590  -25.5960 H   0  0  0  0  0  0  0  0  0  0  0  0
   -6.1826   -4.6895  -23.4424 H   0  0  0  0  0  0  0  0  0  0  0  0
   -7.1742   -6.8228  -22.5558 H   0  0  0  0  0  0  0  0  0  0  0  0
   -8.0698   -6.9661  -24.0527 H   0  0  0  0  0  0  0  0  0  0  0  0
   -4.8262   -7.2337  -23.6027 N   0  0  0  0  0  0  0  0  0  0  0  0
   -3.6655   -7.8663  -24.1980 C   0  0  0  0  0  0  0  0  0  0  0  0
   -2.4040   -7.5591  -23.4114 C   0  0  1  0  0  0  0  0  0  0  0  0
   -1.0886   -8.0316  -24.0931 C   0  0  0  0  0  0  0  0  0  0  0  0
   -0.6140   -6.5666  -24.2060 C   0  0  1  0  0  0  0  0  0  0  0  0
   -0.4993   -6.1256  -25.5179 F   0  0  0  0  0  0  0  0  0  0  0  0
   -1.9044   -6.0836  -23.5078 C   0  0  0  0  0  0  0  0  0  0  0  0
   -1.7680   -5.5668  -22.5504 H   0  0  0  0  0  0  0  0  0  0  0  0
   -2.5098   -5.4307  -24.1497 H   0  0  0  0  0  0  0  0  0  0  0  0
    0.3358   -6.3179  -23.7171 H   0  0  0  0  0  0  0  0  0  0  0  0
   -1.2250   -8.5187  -25.0667 H   0  0  0  0  0  0  0  0  0  0  0  0
   -0.4563   -8.6907  -23.4897 H   0  0  0  0  0  0  0  0  0  0  0  0
   -2.5366   -7.9291  -22.3812 H   0  0  0  0  0  0  0  0  0  0  0  0
   -3.5974   -7.4972  -25.2304 H   0  0  0  0  0  0  0  0  0  0  0  0
   -3.8443   -8.9500  -24.2645 H   0  0  0  0  0  0  0  0  0  0  0  0
   -4.7904   -6.7677  -22.7111 H   0  0  0  0  0  0  0  0  0  0  0  0
  1  2  2  0
  2  3  1  0
  3  4  1  0
  4  5  1  0
  5  6  1  0
  6  7  2  0
  7  8  1  0
  8  9  2  0
  9 10  1  0
  9 11  1  0
 11 12  2  0
 12 13  1  0
 13 14  1  1
 14 15  1  0
 15 16  1  0
 16 17  1  0
 17 18  2  0
 18 19  1  0
 19 20  2  0
 20 21  1  0
 21 22  2  0
 22 23  1  0
 23 24  2  0
 24 25  1  0
 25 26  2  0
 25 27  1  0
 24 28  1  0
 23 29  1  0
 22 30  1  0
 20 31  1  0
 18 32  1  0
 16 33  1  0
 33 34  2  0
 15 35  1  0
 15 36  1  0
 14 37  1  0
 14 38  1  0
 13 39  1  0
 39 40  1  0
 39 41  1  0
 11 42  1  0
  8 43  1  0
  7 44  1  0
  5 45  1  0
  5 46  1  0
  4 47  1  1
  3 48  1  0
  3 49  1  0
  2 50  1  0
 50 51  1  0
 51 52  1  0
 52 53  1  0
 53 54  1  0
 54 55  1  0
 54 56  1  0
 56 57  1  0
 56 58  1  0
 54 59  1  1
 53 60  1  0
 53 61  1  0
 52 62  1  1
 51 63  1  0
 51 64  1  0
 50 65  1  0
 39  4  1  0
 56 52  1  0
 12  6  1  0
 33 13  1  0
 26 17  1  0
 26 21  1  0
M  CHG  1   4   1
M  END
>  <cnnaffinities>  (24) 
[6.3407, 5.91157, 6.43353, 6.21936]

>  <score>  (24) 
6.3407

>  <index>  (24) 
24

>  <Smiles>  (24) 
O=C(C([N@+]1(C(c2c(c(c(Cl)c(c2[C@@]2(C(C(N(c3c(nc(c4c(c(c(c(c34)[H])[H])[H])[H])[H])[H])C2=O)([H])[H])([H])[H])C1([H])[H])[H])[H])[H])([H])[H])[H])([H])[H])N(C([C@]1(C([C@@](F)(C1([H])[H])[H])([H])[H])[H])([H])[H])[H]

>  <h>  (24) 
<NA>

>  <Training>  (24) 
True

>  <Success>  (24) 
True

>  <enamine_searched>  (24) 
False

>  <enamine_id>  (24) 
nan

$$$$

     RDKit          3D

 70 75  0  0  0  0  0  0  0  0999 V2000
   -8.0892   -6.9300  -23.9763 O   0  0  0  0  0  0  0  0  0  0  0  0
   -7.9876   -6.2303  -22.9866 C   0  0  0  0  0  0  0  0  0  0  0  0
   -9.0562   -5.2264  -22.5723 C   0  0  0  0  0  0  0  0  0  0  0  0
   -8.6953   -3.8263  -22.9050 N   0  0  1  0  0  4  0  0  0  0  0  0
   -8.3928   -3.6783  -24.3947 C   0  0  0  0  0  0  0  0  0  0  0  0
   -8.0957   -2.2417  -24.7322 C   0  0  0  0  0  0  0  0  0  0  0  0
   -7.3156   -1.9215  -25.8424 C   0  0  0  0  0  0  0  0  0  0  0  0
   -7.0360   -0.6002  -26.1682 C   0  0  0  0  0  0  0  0  0  0  0  0
   -7.5523    0.4172  -25.3709 C   0  0  0  0  0  0  0  0  0  0  0  0
   -7.2083    2.0813  -25.7481 Cl  0  0  0  0  0  0  0  0  0  0  0  0
   -8.3261    0.1214  -24.2620 C   0  0  0  0  0  0  0  0  0  0  0  0
   -8.6096   -1.2097  -23.9514 C   0  0  0  0  0  0  0  0  0  0  0  0
   -9.4052   -1.4492  -22.7011 C   0  0  2  0  0  0  0  0  0  0  0  0
   -8.6622   -0.9114  -21.4864 C   0  0  0  0  0  0  0  0  0  0  0  0
   -9.1554   -0.0682  -20.7637 O   0  0  0  0  0  0  0  0  0  0  0  0
   -7.4199   -1.4596  -21.2345 N   0  0  0  0  0  0  0  0  0  0  0  0
   -6.6098   -0.8992  -20.2116 C   0  0  0  0  0  0  0  0  0  0  0  0
   -6.9415   -1.1057  -18.8984 C   0  0  0  0  0  0  0  0  0  0  0  0
   -6.2576   -0.6036  -17.8415 N   0  0  0  0  0  0  0  0  0  0  0  0
   -5.2211    0.1544  -18.1075 C   0  0  0  0  0  0  0  0  0  0  0  0
   -4.7670    0.4579  -19.4206 C   0  0  0  0  0  0  0  0  0  0  0  0
   -3.6544    1.3113  -19.6384 C   0  0  0  0  0  0  0  0  0  0  0  0
   -3.2668    1.6232  -20.9117 C   0  0  0  0  0  0  0  0  0  0  0  0
   -3.9784    1.1029  -22.0200 C   0  0  0  0  0  0  0  0  0  0  0  0
   -5.0584    0.2738  -21.8334 C   0  0  0  0  0  0  0  0  0  0  0  0
   -5.4745   -0.0788  -20.5198 C   0  0  0  0  0  0  0  0  0  0  0  0
   -5.6108   -0.0923  -22.6949 H   0  0  0  0  0  0  0  0  0  0  0  0
   -3.6716    1.3783  -23.0264 H   0  0  0  0  0  0  0  0  0  0  0  0
   -2.4237    2.2884  -21.0807 H   0  0  0  0  0  0  0  0  0  0  0  0
   -3.1474    1.7281  -18.7702 H   0  0  0  0  0  0  0  0  0  0  0  0
   -4.6807    0.5739  -17.2599 H   0  0  0  0  0  0  0  0  0  0  0  0
   -7.8112   -1.7086  -18.6546 H   0  0  0  0  0  0  0  0  0  0  0  0
   -6.9590   -1.9141  -22.0083 H   0  0  0  0  0  0  0  0  0  0  0  0
   -9.8239   -2.8997  -22.5189 C   0  0  0  0  0  0  0  0  0  0  0  0
  -10.1142   -3.0991  -21.4828 H   0  0  0  0  0  0  0  0  0  0  0  0
  -10.6774   -3.1231  -23.1740 H   0  0  0  0  0  0  0  0  0  0  0  0
  -10.3137   -0.8516  -22.7253 H   0  0  0  0  0  0  0  0  0  0  0  0
   -8.7199    0.9180  -23.6355 H   0  0  0  0  0  0  0  0  0  0  0  0
   -6.4231   -0.3641  -27.0324 H   0  0  0  0  0  0  0  0  0  0  0  0
   -6.9248   -2.7231  -26.4653 H   0  0  0  0  0  0  0  0  0  0  0  0
   -9.2657   -4.0514  -24.9458 H   0  0  0  0  0  0  0  0  0  0  0  0
   -7.5506   -4.3256  -24.6371 H   0  0  0  0  0  0  0  0  0  0  0  0
   -7.8372   -3.5926  -22.3611 H   0  0  0  0  0  0  0  0  0  0  0  0
   -9.9821   -5.4974  -23.0866 H   0  0  0  0  0  0  0  0  0  0  0  0
   -9.2232   -5.2810  -21.4907 H   0  0  0  0  0  0  0  0  0  0  0  0
   -6.9044   -6.2475  -22.1514 N   0  0  0  0  0  0  0  0  0  0  0  0
   -5.7217   -6.9533  -22.4365 C   0  0  0  0  0  0  0  0  0  0  0  0
   -4.9558   -7.4401  -21.3815 C   0  0  0  0  0  0  0  0  0  0  0  0
   -3.7493   -8.0477  -21.6682 C   0  0  0  0  0  0  0  0  0  0  0  0
   -3.2762   -8.1571  -22.9720 C   0  0  0  0  0  0  0  0  0  0  0  0
   -2.0457   -8.8102  -23.2151 N   0  0  0  0  0  0  0  0  0  0  0  0
   -1.0348   -8.7899  -22.1639 C   0  0  0  0  0  0  0  0  0  0  0  0
    0.3006   -9.1740  -22.7656 C   0  0  0  0  0  0  0  0  0  0  0  0
    0.1986  -10.4737  -23.3110 O   0  0  0  0  0  0  0  0  0  0  0  0
   -0.6760  -10.5007  -24.4103 C   0  0  0  0  0  0  0  0  0  0  0  0
   -1.9715   -9.7166  -24.2492 C   0  0  0  0  0  0  0  0  0  0  0  0
   -2.8775   -9.9224  -25.0350 O   0  0  0  0  0  0  0  0  0  0  0  0
   -0.9926  -11.5341  -24.5720 H   0  0  0  0  0  0  0  0  0  0  0  0
   -0.1993  -10.1426  -25.3385 H   0  0  0  0  0  0  0  0  0  0  0  0
    1.0763   -9.2049  -21.9978 H   0  0  0  0  0  0  0  0  0  0  0  0
    0.5871   -8.4388  -23.5331 H   0  0  0  0  0  0  0  0  0  0  0  0
   -1.0017   -7.7936  -21.7182 H   0  0  0  0  0  0  0  0  0  0  0  0
   -1.2785   -9.4974  -21.3610 H   0  0  0  0  0  0  0  0  0  0  0  0
   -4.0560   -7.6838  -24.0208 C   0  0  0  0  0  0  0  0  0  0  0  0
   -5.2814   -7.1061  -23.7532 C   0  0  0  0  0  0  0  0  0  0  0  0
   -5.9129   -6.8015  -24.5787 H   0  0  0  0  0  0  0  0  0  0  0  0
   -3.7163   -7.7674  -25.0451 H   0  0  0  0  0  0  0  0  0  0  0  0
   -3.1904   -8.5290  -20.8692 H   0  0  0  0  0  0  0  0  0  0  0  0
   -5.2892   -7.3488  -20.3483 H   0  0  0  0  0  0  0  0  0  0  0  0
   -6.9448   -5.7367  -21.2808 H   0  0  0  0  0  0  0  0  0  0  0  0
  1  2  2  0
  2  3  1  0
  3  4  1  0
  4  5  1  0
  5  6  1  0
  6  7  2  0
  7  8  1  0
  8  9  2  0
  9 10  1  0
  9 11  1  0
 11 12  2  0
 12 13  1  0
 13 14  1  0
 14 15  2  0
 14 16  1  0
 16 17  1  0
 17 18  2  0
 18 19  1  0
 19 20  2  0
 20 21  1  0
 21 22  2  0
 22 23  1  0
 23 24  2  0
 24 25  1  0
 25 26  2  0
 25 27  1  0
 24 28  1  0
 23 29  1  0
 22 30  1  0
 20 31  1  0
 18 32  1  0
 16 33  1  0
 13 34  1  0
 34 35  1  0
 34 36  1  0
 13 37  1  6
 11 38  1  0
  8 39  1  0
  7 40  1  0
  5 41  1  0
  5 42  1  0
  4 43  1  1
  3 44  1  0
  3 45  1  0
  2 46  1  0
 46 47  1  0
 47 48  2  0
 48 49  1  0
 49 50  2  0
 50 51  1  0
 51 52  1  0
 52 53  1  0
 53 54  1  0
 54 55  1  0
 55 56  1  0
 56 57  2  0
 55 58  1  0
 55 59  1  0
 53 60  1  0
 53 61  1  0
 52 62  1  0
 52 63  1  0
 50 64  1  0
 64 65  2  0
 65 66  1  0
 64 67  1  0
 49 68  1  0
 48 69  1  0
 46 70  1  0
 34  4  1  0
 65 47  1  0
 12  6  1  0
 26 17  1  0
 56 51  1  0
 26 21  1  0
M  CHG  1   4   1
M  END
>  <cnnaffinities>  (25) 
[6.27575]

>  <score>  (25) 
6.27575

>  <index>  (25) 
25

>  <Smiles>  (25) 
O=C(C([N@+]1(C(c2c(c(c(Cl)c(c2[C@](C(=O)N(c2c(nc(c3c(c(c(c(c23)[H])[H])[H])[H])[H])[H])[H])(C1([H])[H])[H])[H])[H])[H])([H])[H])[H])([H])[H])N(c1c(c(c(N2C(C(OC(C2=O)([H])[H])([H])[H])([H])[H])c(c1[H])[H])[H])[H])[H]

>  <h>  (25) 
<NA>

>  <Training>  (25) 
True

>  <Success>  (25) 
True

>  <enamine_searched>  (25) 
False

>  <enamine_id>  (25) 
nan

$$$$

     RDKit          3D

 55 60  0  0  0  0  0  0  0  0999 V2000
  -10.4218   -0.9854  -23.4096 C   0  0  0  0  0  0  0  0  0  0  0  0
   -8.9804   -1.3194  -23.0159 C   0  0  1  0  0  0  0  0  0  0  0  0
   -8.4146   -0.4246  -21.8942 C   0  0  0  0  0  0  0  0  0  0  0  0
   -7.4062   -1.2649  -21.2729 N   0  0  0  0  0  0  0  0  0  0  0  0
   -6.6008   -0.8229  -20.2004 C   0  0  0  0  0  0  0  0  0  0  0  0
   -6.9100   -1.1328  -18.9014 C   0  0  0  0  0  0  0  0  0  0  0  0
   -6.2589   -0.6104  -17.8310 N   0  0  0  0  0  0  0  0  0  0  0  0
   -5.2515    0.2002  -18.0628 C   0  0  0  0  0  0  0  0  0  0  0  0
   -4.7846    0.5424  -19.3689 C   0  0  0  0  0  0  0  0  0  0  0  0
   -3.6588    1.3774  -19.6021 C   0  0  0  0  0  0  0  0  0  0  0  0
   -3.2385    1.6341  -20.8807 C   0  0  0  0  0  0  0  0  0  0  0  0
   -3.9211    1.0829  -21.9885 C   0  0  0  0  0  0  0  0  0  0  0  0
   -5.0195    0.2850  -21.7904 C   0  0  0  0  0  0  0  0  0  0  0  0
   -5.4739    0.0068  -20.4747 C   0  0  0  0  0  0  0  0  0  0  0  0
   -5.5451   -0.1607  -22.6281 H   0  0  0  0  0  0  0  0  0  0  0  0
   -3.5754    1.2902  -22.9978 H   0  0  0  0  0  0  0  0  0  0  0  0
   -2.3708    2.2651  -21.0562 H   0  0  0  0  0  0  0  0  0  0  0  0
   -3.1366    1.7970  -18.7470 H   0  0  0  0  0  0  0  0  0  0  0  0
   -4.7434    0.6232  -17.1942 H   0  0  0  0  0  0  0  0  0  0  0  0
   -7.7273   -1.8161  -18.6726 H   0  0  0  0  0  0  0  0  0  0  0  0
   -7.5576   -2.6034  -21.5347 C   0  0  0  0  0  0  0  0  0  0  0  0
   -6.8580   -3.4726  -21.0515 O   0  0  0  0  0  0  0  0  0  0  0  0
   -8.7462   -2.7855  -22.4897 C   0  0  1  0  0  0  0  0  0  0  0  0
   -9.9250   -3.2569  -21.5957 C   0  0  0  0  0  0  0  0  0  0  0  0
  -11.0470   -3.8396  -22.3228 N   0  0  0  0  0  0  0  0  0  0  0  0
  -12.3937   -3.8723  -21.7419 C   0  0  0  0  0  0  0  0  0  0  0  0
  -13.2506   -2.7293  -22.1990 C   0  0  0  0  0  0  0  0  0  0  0  0
  -13.5926   -2.3964  -23.5180 C   0  0  0  0  0  0  0  0  0  0  0  0
  -14.3947   -1.3366  -23.5111 N   0  0  0  0  0  0  0  0  0  0  0  0
  -14.5052   -1.0733  -22.2237 N   0  0  0  0  0  0  0  0  0  0  0  0
  -13.8652   -1.8766  -21.3880 N   0  0  0  0  0  0  0  0  0  0  0  0
  -15.0520   -0.2998  -21.8778 H   0  0  0  0  0  0  0  0  0  0  0  0
  -13.3260   -2.9010  -24.4386 H   0  0  0  0  0  0  0  0  0  0  0  0
  -12.3908   -3.9003  -20.6506 H   0  0  0  0  0  0  0  0  0  0  0  0
  -12.8644   -4.7978  -22.0897 H   0  0  0  0  0  0  0  0  0  0  0  0
  -10.9063   -4.4935  -23.5155 C   0  0  0  0  0  0  0  0  0  0  0  0
  -11.8718   -4.9742  -24.1022 O   0  0  0  0  0  0  0  0  0  0  0  0
   -9.5236   -4.6089  -24.0548 C   0  0  0  0  0  0  0  0  0  0  0  0
   -9.3151   -5.5646  -25.0478 C   0  0  0  0  0  0  0  0  0  0  0  0
   -8.0481   -5.8560  -25.5014 C   0  0  0  0  0  0  0  0  0  0  0  0
   -7.0071   -5.1003  -24.9801 C   0  0  0  0  0  0  0  0  0  0  0  0
   -5.7691   -5.3705  -25.4202 F   0  0  0  0  0  0  0  0  0  0  0  0
   -7.1802   -4.1087  -24.0307 C   0  0  0  0  0  0  0  0  0  0  0  0
   -8.4702   -3.8426  -23.5423 C   0  0  0  0  0  0  0  0  0  0  0  0
   -6.2995   -3.5663  -23.6984 H   0  0  0  0  0  0  0  0  0  0  0  0
   -7.8631   -6.6253  -26.2484 H   0  0  0  0  0  0  0  0  0  0  0  0
  -10.1787   -6.0887  -25.4348 H   0  0  0  0  0  0  0  0  0  0  0  0
  -10.2784   -2.4017  -21.0076 H   0  0  0  0  0  0  0  0  0  0  0  0
   -9.5238   -3.9873  -20.8918 H   0  0  0  0  0  0  0  0  0  0  0  0
   -9.1813   -0.1414  -21.1557 H   0  0  0  0  0  0  0  0  0  0  0  0
   -7.9607    0.5032  -22.2582 H   0  0  0  0  0  0  0  0  0  0  0  0
   -8.3322   -1.1923  -23.8938 H   0  0  0  0  0  0  0  0  0  0  0  0
  -10.4937    0.0024  -23.8770 H   0  0  0  0  0  0  0  0  0  0  0  0
  -10.8027   -1.7299  -24.1186 H   0  0  0  0  0  0  0  0  0  0  0  0
  -11.0982   -0.9942  -22.5453 H   0  0  0  0  0  0  0  0  0  0  0  0
  1  2  1  0
  2  3  1  0
  3  4  1  0
  4  5  1  0
  5  6  2  0
  6  7  1  0
  7  8  2  0
  8  9  1  0
  9 10  2  0
 10 11  1  0
 11 12  2  0
 12 13  1  0
 13 14  2  0
 13 15  1  0
 12 16  1  0
 11 17  1  0
 10 18  1  0
  8 19  1  0
  6 20  1  0
  4 21  1  0
 21 22  2  0
 21 23  1  0
 23 24  1  1
 24 25  1  0
 25 26  1  0
 26 27  1  0
 27 28  1  0
 28 29  2  0
 29 30  1  0
 30 31  1  0
 30 32  1  0
 28 33  1  0
 26 34  1  0
 26 35  1  0
 25 36  1  0
 36 37  2  0
 36 38  1  0
 38 39  2  0
 39 40  1  0
 40 41  2  0
 41 42  1  0
 41 43  1  0
 43 44  2  0
 43 45  1  0
 40 46  1  0
 39 47  1  0
 24 48  1  0
 24 49  1  0
  3 50  1  0
  3 51  1  0
  2 52  1  6
  1 53  1  0
  1 54  1  0
  1 55  1  0
 23  2  1  0
 31 27  2  0
 44 38  1  0
 14  5  1  0
 44 23  1  0
 14  9  1  0
M  END
>  <cnnaffinities>  (26) 
[6.71004]

>  <score>  (26) 
6.71004

>  <index>  (26) 
26

>  <Smiles>  (26) 
C([C@]1(C(N(c2c(nc(c3c(c(c(c(c23)[H])[H])[H])[H])[H])[H])C(=O)[C@]21C(N(C(c1c(nn(n1)[H])[H])([H])[H])C(=O)c1c(c(c(F)c(c21)[H])[H])[H])([H])[H])([H])[H])[H])([H])([H])[H]

>  <h>  (26) 
<NA>

>  <Training>  (26) 
True

>  <Success>  (26) 
True

>  <enamine_searched>  (26) 
False

>  <enamine_id>  (26) 
nan

$$$$

     RDKit          3D

 58 62  0  0  0  0  0  0  0  0999 V2000
   -7.0472    3.5745  -22.0994 C   0  0  0  0  0  0  0  0  0  0  0  0
   -7.2887    2.5315  -23.1017 N   0  0  0  0  0  4  0  0  0  0  0  0
   -8.4456    2.8267  -23.9972 C   0  0  0  0  0  0  0  0  0  0  0  0
   -8.7228    1.6665  -24.9544 C   0  0  0  0  0  0  0  0  0  0  0  0
   -9.3800    0.5276  -24.3194 N   0  0  0  0  0  0  0  0  0  0  0  0
   -8.6751   -0.7334  -24.1890 C   0  0  0  0  0  0  0  0  0  0  0  0
   -9.0687   -1.4882  -22.8963 C   0  0  2  0  0  0  0  0  0  0  0  0
   -8.5303   -0.7315  -21.6572 C   0  0  0  0  0  0  0  0  0  0  0  0
   -8.9637    0.2992  -21.1770 O   0  0  0  0  0  0  0  0  0  0  0  0
   -7.4153   -1.3865  -21.1893 N   0  0  0  0  0  0  0  0  0  0  0  0
   -6.6055   -0.8074  -20.1717 C   0  0  0  0  0  0  0  0  0  0  0  0
   -6.9118   -1.0407  -18.8570 C   0  0  0  0  0  0  0  0  0  0  0  0
   -6.2045   -0.5518  -17.8089 N   0  0  0  0  0  0  0  0  0  0  0  0
   -5.1710    0.2074  -18.0828 C   0  0  0  0  0  0  0  0  0  0  0  0
   -4.7401    0.5365  -19.3994 C   0  0  0  0  0  0  0  0  0  0  0  0
   -3.6143    1.3707  -19.6417 C   0  0  0  0  0  0  0  0  0  0  0  0
   -3.2280    1.6687  -20.9199 C   0  0  0  0  0  0  0  0  0  0  0  0
   -3.9472    1.1408  -22.0149 C   0  0  0  0  0  0  0  0  0  0  0  0
   -5.0388    0.3288  -21.8078 C   0  0  0  0  0  0  0  0  0  0  0  0
   -5.4747    0.0094  -20.4910 C   0  0  0  0  0  0  0  0  0  0  0  0
   -5.5674   -0.0819  -22.6637 H   0  0  0  0  0  0  0  0  0  0  0  0
   -3.6413    1.3835  -23.0296 H   0  0  0  0  0  0  0  0  0  0  0  0
   -2.3733    2.3170  -21.0976 H   0  0  0  0  0  0  0  0  0  0  0  0
   -3.0852    1.7766  -18.7828 H   0  0  0  0  0  0  0  0  0  0  0  0
   -4.6221    0.6116  -17.2316 H   0  0  0  0  0  0  0  0  0  0  0  0
   -7.7631   -1.6677  -18.6012 H   0  0  0  0  0  0  0  0  0  0  0  0
   -7.0552   -2.5681  -21.9496 C   0  0  0  0  0  0  0  0  0  0  0  0
   -8.3133   -2.8540  -22.7998 C   0  0  2  0  0  0  0  0  0  0  0  0
   -7.9710   -3.5633  -24.1200 C   0  0  0  0  0  0  0  0  0  0  0  0
   -7.5148   -4.5455  -23.9349 H   0  0  0  0  0  0  0  0  0  0  0  0
   -8.8578   -3.7220  -24.7474 H   0  0  0  0  0  0  0  0  0  0  0  0
   -7.2496   -2.9797  -24.7102 H   0  0  0  0  0  0  0  0  0  0  0  0
   -8.9595   -3.5132  -22.2149 H   0  0  0  0  0  0  0  0  0  0  0  0
   -6.8024   -3.3951  -21.2738 H   0  0  0  0  0  0  0  0  0  0  0  0
   -6.1731   -2.3872  -22.5860 H   0  0  0  0  0  0  0  0  0  0  0  0
  -10.5835   -1.5581  -22.8289 C   0  0  0  0  0  0  0  0  0  0  0  0
  -11.2272   -2.5122  -22.0318 C   0  0  0  0  0  0  0  0  0  0  0  0
  -12.6037   -2.5153  -21.9551 C   0  0  0  0  0  0  0  0  0  0  0  0
  -13.2095   -3.4411  -21.1922 F   0  0  0  0  0  0  0  0  0  0  0  0
  -13.3914   -1.5892  -22.6287 C   0  0  0  0  0  0  0  0  0  0  0  0
  -12.7597   -0.6085  -23.3649 C   0  0  0  0  0  0  0  0  0  0  0  0
  -11.3673   -0.5698  -23.4465 C   0  0  0  0  0  0  0  0  0  0  0  0
  -10.7341    0.5956  -24.1525 C   0  0  0  0  0  0  0  0  0  0  0  0
  -11.3893    1.5561  -24.5406 O   0  0  0  0  0  0  0  0  0  0  0  0
  -13.3158    0.1674  -23.8786 H   0  0  0  0  0  0  0  0  0  0  0  0
  -14.4683   -1.6455  -22.5367 H   0  0  0  0  0  0  0  0  0  0  0  0
  -10.6895   -3.2409  -21.4358 H   0  0  0  0  0  0  0  0  0  0  0  0
   -8.8791   -1.3858  -25.0532 H   0  0  0  0  0  0  0  0  0  0  0  0
   -7.6022   -0.5117  -24.1559 H   0  0  0  0  0  0  0  0  0  0  0  0
   -7.7792    1.3095  -25.3862 H   0  0  0  0  0  0  0  0  0  0  0  0
   -9.3747    2.0144  -25.7596 H   0  0  0  0  0  0  0  0  0  0  0  0
   -9.3314    3.0117  -23.3798 H   0  0  0  0  0  0  0  0  0  0  0  0
   -8.2392    3.7367  -24.5719 H   0  0  0  0  0  0  0  0  0  0  0  0
   -6.4226    2.4051  -23.6791 H   0  0  0  0  0  0  0  0  0  0  0  0
   -7.5013    1.6391  -22.6025 H   0  0  0  0  0  0  0  0  0  0  0  0
   -6.1782    3.3001  -21.4990 H   0  0  0  0  0  0  0  0  0  0  0  0
   -7.9253    3.6787  -21.4534 H   0  0  0  0  0  0  0  0  0  0  0  0
   -6.8737    4.5496  -22.5708 H   0  0  0  0  0  0  0  0  0  0  0  0
  1  2  1  0
  2  3  1  0
  3  4  1  0
  4  5  1  0
  5  6  1  0
  7  6  1  6
  7  8  1  0
  8  9  2  0
  8 10  1  0
 10 11  1  0
 11 12  2  0
 12 13  1  0
 13 14  2  0
 14 15  1  0
 15 16  2  0
 16 17  1  0
 17 18  2  0
 18 19  1  0
 19 20  2  0
 19 21  1  0
 18 22  1  0
 17 23  1  0
 16 24  1  0
 14 25  1  0
 12 26  1  0
 10 27  1  0
 27 28  1  0
 28 29  1  0
 29 30  1  0
 29 31  1  0
 29 32  1  0
 28 33  1  1
 27 34  1  0
 27 35  1  0
  7 36  1  0
 36 37  2  0
 37 38  1  0
 38 39  1  0
 38 40  2  0
 40 41  1  0
 41 42  2  0
 42 43  1  0
 43 44  2  0
 41 45  1  0
 40 46  1  0
 37 47  1  0
  6 48  1  0
  6 49  1  0
  4 50  1  0
  4 51  1  0
  3 52  1  0
  3 53  1  0
  2 54  1  0
  2 55  1  0
  1 56  1  0
  1 57  1  0
  1 58  1  0
 43  5  1  0
 28  7  1  0
 42 36  1  0
 20 11  1  0
 20 15  1  0
M  CHG  1   2   1
M  END
>  <cnnaffinities>  (27) 
[6.3051, 6.2475, 6.34087]

>  <score>  (27) 
6.3051

>  <index>  (27) 
27

>  <Smiles>  (27) 
C([N+](C(C(N1C([C@@]2(C(=O)N(c3c(nc(c4c(c(c(c(c34)[H])[H])[H])[H])[H])[H])C([C@@]2(C([H])([H])[H])[H])([H])[H])c2c(c(F)c(c(c2C1=O)[H])[H])[H])([H])[H])([H])[H])([H])[H])([H])[H])([H])([H])[H]

>  <h>  (27) 
<NA>

>  <Training>  (27) 
True

>  <Success>  (27) 
True

>  <enamine_searched>  (27) 
False

>  <enamine_id>  (27) 
nan

$$$$

     RDKit          3D

 64 68  0  0  0  0  0  0  0  0999 V2000
   -7.5953    3.1844  -21.8770 C   0  0  0  0  0  0  0  0  0  0  0  0
   -8.7015    2.7099  -22.6934 N   0  0  0  0  0  0  0  0  0  0  0  0
   -8.3531    1.9250  -23.7564 C   0  0  0  0  0  0  0  0  0  0  0  0
   -7.1815    1.7000  -24.0268 O   0  0  0  0  0  0  0  0  0  0  0  0
   -9.4680    1.3283  -24.6063 C   0  0  0  0  0  0  0  0  0  0  0  0
   -9.9641    0.1124  -23.9921 N   0  0  0  0  0  0  0  0  0  0  0  0
   -9.1093   -1.0694  -23.9629 C   0  0  0  0  0  0  0  0  0  0  0  0
   -9.2599   -1.8314  -22.6198 C   0  0  2  0  0  0  0  0  0  0  0  0
   -8.6757   -0.9567  -21.4835 C   0  0  0  0  0  0  0  0  0  0  0  0
   -9.2065   -0.0018  -20.9562 O   0  0  0  0  0  0  0  0  0  0  0  0
   -7.4086   -1.4167  -21.1875 N   0  0  0  0  0  0  0  0  0  0  0  0
   -6.6198   -0.8269  -20.1704 C   0  0  0  0  0  0  0  0  0  0  0  0
   -6.9309   -1.0486  -18.8519 C   0  0  0  0  0  0  0  0  0  0  0  0
   -6.2308   -0.5559  -17.8021 N   0  0  0  0  0  0  0  0  0  0  0  0
   -5.1910    0.1981  -18.0752 C   0  0  0  0  0  0  0  0  0  0  0  0
   -4.7587    0.5167  -19.3956 C   0  0  0  0  0  0  0  0  0  0  0  0
   -3.6375    1.3567  -19.6354 C   0  0  0  0  0  0  0  0  0  0  0  0
   -3.2592    1.6562  -20.9150 C   0  0  0  0  0  0  0  0  0  0  0  0
   -3.9841    1.1445  -22.0119 C   0  0  0  0  0  0  0  0  0  0  0  0
   -5.0803    0.3376  -21.8081 C   0  0  0  0  0  0  0  0  0  0  0  0
   -5.4908   -0.0079  -20.4898 C   0  0  0  0  0  0  0  0  0  0  0  0
   -5.6527   -0.0053  -22.6652 H   0  0  0  0  0  0  0  0  0  0  0  0
   -3.6745    1.3911  -23.0233 H   0  0  0  0  0  0  0  0  0  0  0  0
   -2.4025    2.2972  -21.0928 H   0  0  0  0  0  0  0  0  0  0  0  0
   -3.1031    1.7601  -18.7778 H   0  0  0  0  0  0  0  0  0  0  0  0
   -4.6241    0.6013  -17.2327 H   0  0  0  0  0  0  0  0  0  0  0  0
   -7.7892   -1.6674  -18.6077 H   0  0  0  0  0  0  0  0  0  0  0  0
   -6.9988   -2.5703  -21.9605 C   0  0  0  0  0  0  0  0  0  0  0  0
   -8.3314   -3.0786  -22.5461 C   0  0  2  0  0  0  0  0  0  0  0  0
   -8.1706   -3.8713  -23.8443 C   0  0  0  0  0  0  0  0  0  0  0  0
   -7.2616   -5.3868  -23.5513 S   0  0  0  0  0  0  0  0  0  0  0  0
   -5.8714   -5.0404  -23.2551 O   0  0  0  0  0  0  0  0  0  0  0  0
   -7.9914   -6.2126  -22.6015 O   0  0  0  0  0  0  0  0  0  0  0  0
   -7.4105   -6.1510  -25.0347 N   0  0  0  0  0  0  0  0  0  0  0  0
   -6.6873   -5.6291  -26.1923 C   0  0  0  0  0  0  0  0  0  0  0  0
   -7.1694   -4.7164  -26.5579 H   0  0  0  0  0  0  0  0  0  0  0  0
   -6.7611   -6.3679  -26.9935 H   0  0  0  0  0  0  0  0  0  0  0  0
   -5.6305   -5.4317  -25.9851 H   0  0  0  0  0  0  0  0  0  0  0  0
   -7.2869   -7.1473  -24.8825 H   0  0  0  0  0  0  0  0  0  0  0  0
   -7.6188   -3.2963  -24.5951 H   0  0  0  0  0  0  0  0  0  0  0  0
   -9.1383   -4.1541  -24.2692 H   0  0  0  0  0  0  0  0  0  0  0  0
   -8.7471   -3.7687  -21.8104 H   0  0  0  0  0  0  0  0  0  0  0  0
   -6.5265   -3.3231  -21.3244 H   0  0  0  0  0  0  0  0  0  0  0  0
   -6.2850   -2.2981  -22.7532 H   0  0  0  0  0  0  0  0  0  0  0  0
  -10.7488   -2.0838  -22.4192 C   0  0  0  0  0  0  0  0  0  0  0  0
  -11.2256   -3.1475  -21.6489 C   0  0  0  0  0  0  0  0  0  0  0  0
  -12.5748   -3.2474  -21.3569 C   0  0  0  0  0  0  0  0  0  0  0  0
  -13.1152   -4.4613  -20.2457 Cl  0  0  0  0  0  0  0  0  0  0  0  0
  -13.5155   -2.3603  -21.8682 C   0  0  0  0  0  0  0  0  0  0  0  0
  -13.0632   -1.3223  -22.6516 C   0  0  0  0  0  0  0  0  0  0  0  0
  -11.7008   -1.1721  -22.9045 C   0  0  0  0  0  0  0  0  0  0  0  0
  -11.2886    0.0434  -23.6700 C   0  0  0  0  0  0  0  0  0  0  0  0
  -12.0876    0.9221  -23.9715 O   0  0  0  0  0  0  0  0  0  0  0  0
  -13.7416   -0.5830  -23.0626 H   0  0  0  0  0  0  0  0  0  0  0  0
  -14.5657   -2.4740  -21.6247 H   0  0  0  0  0  0  0  0  0  0  0  0
  -10.5639   -3.8937  -21.2268 H   0  0  0  0  0  0  0  0  0  0  0  0
   -8.0709   -0.7523  -24.1149 H   0  0  0  0  0  0  0  0  0  0  0  0
   -9.3808   -1.7474  -24.7855 H   0  0  0  0  0  0  0  0  0  0  0  0
  -10.3177    2.0066  -24.7357 H   0  0  0  0  0  0  0  0  0  0  0  0
   -9.0445    1.0952  -25.5900 H   0  0  0  0  0  0  0  0  0  0  0  0
   -9.5798    2.5597  -22.2103 H   0  0  0  0  0  0  0  0  0  0  0  0
   -6.8490    3.6090  -22.5533 H   0  0  0  0  0  0  0  0  0  0  0  0
   -7.9457    3.9668  -21.1969 H   0  0  0  0  0  0  0  0  0  0  0  0
   -7.1173    2.3552  -21.3231 H   0  0  0  0  0  0  0  0  0  0  0  0
  1  2  1  0
  2  3  1  0
  3  4  2  0
  3  5  1  0
  5  6  1  0
  6  7  1  0
  8  7  1  6
  8  9  1  0
  9 10  2  0
  9 11  1  0
 11 12  1  0
 12 13  2  0
 13 14  1  0
 14 15  2  0
 15 16  1  0
 16 17  2  0
 17 18  1  0
 18 19  2  0
 19 20  1  0
 20 21  2  0
 20 22  1  0
 19 23  1  0
 18 24  1  0
 17 25  1  0
 15 26  1  0
 13 27  1  0
 11 28  1  0
 28 29  1  0
 29 30  1  0
 30 31  1  0
 31 32  2  0
 31 33  2  0
 31 34  1  0
 34 35  1  0
 35 36  1  0
 35 37  1  0
 35 38  1  0
 34 39  1  0
 30 40  1  0
 30 41  1  0
 29 42  1  1
 28 43  1  0
 28 44  1  0
  8 45  1  0
 45 46  2  0
 46 47  1  0
 47 48  1  0
 47 49  2  0
 49 50  1  0
 50 51  2  0
 51 52  1  0
 52 53  2  0
 50 54  1  0
 49 55  1  0
 46 56  1  0
  7 57  1  0
  7 58  1  0
  5 59  1  0
  5 60  1  0
  2 61  1  0
  1 62  1  0
  1 63  1  0
  1 64  1  0
 52  6  1  0
 29  8  1  0
 51 45  1  0
 21 12  1  0
 21 16  1  0
M  END
>  <cnnaffinities>  (28) 
[6.66501, 6.70479, 6.3544]

>  <score>  (28) 
6.66501

>  <index>  (28) 
28

>  <Smiles>  (28) 
C(N(C(=O)C(N1C([C@@]2(C(=O)N(c3c(nc(c4c(c(c(c(c34)[H])[H])[H])[H])[H])[H])C([C@@]2(C(S(=O)(=O)N(C([H])([H])[H])[H])([H])[H])[H])([H])[H])c2c(c(Cl)c(c(c2C1=O)[H])[H])[H])([H])[H])([H])[H])[H])([H])([H])[H]

>  <h>  (28) 
<NA>

>  <Training>  (28) 
True

>  <Success>  (28) 
True

>  <enamine_searched>  (28) 
False

>  <enamine_id>  (28) 
nan

$$$$

     RDKit          3D

 55 60  0  0  0  0  0  0  0  0999 V2000
  -10.4218   -0.9855  -23.4096 C   0  0  0  0  0  0  0  0  0  0  0  0
   -8.9803   -1.3193  -23.0160 C   0  0  1  0  0  0  0  0  0  0  0  0
   -8.4146   -0.4246  -21.8941 C   0  0  0  0  0  0  0  0  0  0  0  0
   -7.4061   -1.2649  -21.2729 N   0  0  0  0  0  0  0  0  0  0  0  0
   -6.6008   -0.8228  -20.2004 C   0  0  0  0  0  0  0  0  0  0  0  0
   -6.9100   -1.1328  -18.9014 C   0  0  0  0  0  0  0  0  0  0  0  0
   -6.2589   -0.6104  -17.8310 N   0  0  0  0  0  0  0  0  0  0  0  0
   -5.2516    0.2002  -18.0629 C   0  0  0  0  0  0  0  0  0  0  0  0
   -4.7846    0.5423  -19.3689 C   0  0  0  0  0  0  0  0  0  0  0  0
   -3.6588    1.3773  -19.6022 C   0  0  0  0  0  0  0  0  0  0  0  0
   -3.2385    1.6341  -20.8807 C   0  0  0  0  0  0  0  0  0  0  0  0
   -3.9211    1.0829  -21.9886 C   0  0  0  0  0  0  0  0  0  0  0  0
   -5.0196    0.2849  -21.7904 C   0  0  0  0  0  0  0  0  0  0  0  0
   -5.4739    0.0067  -20.4747 C   0  0  0  0  0  0  0  0  0  0  0  0
   -5.5451   -0.1607  -22.6282 H   0  0  0  0  0  0  0  0  0  0  0  0
   -3.5754    1.2902  -22.9978 H   0  0  0  0  0  0  0  0  0  0  0  0
   -2.3708    2.2650  -21.0562 H   0  0  0  0  0  0  0  0  0  0  0  0
   -3.1367    1.7969  -18.7471 H   0  0  0  0  0  0  0  0  0  0  0  0
   -4.7434    0.6232  -17.1942 H   0  0  0  0  0  0  0  0  0  0  0  0
   -7.7273   -1.8161  -18.6726 H   0  0  0  0  0  0  0  0  0  0  0  0
   -7.5575   -2.6031  -21.5350 C   0  0  0  0  0  0  0  0  0  0  0  0
   -6.8574   -3.4728  -21.0517 O   0  0  0  0  0  0  0  0  0  0  0  0
   -8.7461   -2.7854  -22.4897 C   0  0  1  0  0  0  0  0  0  0  0  0
   -9.9249   -3.2569  -21.5956 C   0  0  0  0  0  0  0  0  0  0  0  0
  -11.0470   -3.8396  -22.3229 N   0  0  0  0  0  0  0  0  0  0  0  0
  -12.3936   -3.8722  -21.7419 C   0  0  0  0  0  0  0  0  0  0  0  0
  -13.2505   -2.7293  -22.1989 C   0  0  0  0  0  0  0  0  0  0  0  0
  -13.5925   -2.3963  -23.5181 C   0  0  0  0  0  0  0  0  0  0  0  0
  -14.3949   -1.3367  -23.5111 N   0  0  0  0  0  0  0  0  0  0  0  0
  -14.5053   -1.0734  -22.2238 N   0  0  0  0  0  0  0  0  0  0  0  0
  -13.8651   -1.8764  -21.3879 N   0  0  0  0  0  0  0  0  0  0  0  0
  -15.0523   -0.2997  -21.8782 H   0  0  0  0  0  0  0  0  0  0  0  0
  -13.3260   -2.9011  -24.4383 H   0  0  0  0  0  0  0  0  0  0  0  0
  -12.3904   -3.9007  -20.6506 H   0  0  0  0  0  0  0  0  0  0  0  0
  -12.8643   -4.7975  -22.0901 H   0  0  0  0  0  0  0  0  0  0  0  0
  -10.9064   -4.4930  -23.5158 C   0  0  0  0  0  0  0  0  0  0  0  0
  -11.8718   -4.9740  -24.1025 O   0  0  0  0  0  0  0  0  0  0  0  0
   -9.5236   -4.6088  -24.0548 C   0  0  0  0  0  0  0  0  0  0  0  0
   -9.3152   -5.5645  -25.0478 C   0  0  0  0  0  0  0  0  0  0  0  0
   -8.0481   -5.8560  -25.5012 C   0  0  0  0  0  0  0  0  0  0  0  0
   -7.0071   -5.1002  -24.9799 C   0  0  0  0  0  0  0  0  0  0  0  0
   -5.7692   -5.3703  -25.4203 F   0  0  0  0  0  0  0  0  0  0  0  0
   -7.1803   -4.1086  -24.0306 C   0  0  0  0  0  0  0  0  0  0  0  0
   -8.4702   -3.8425  -23.5423 C   0  0  0  0  0  0  0  0  0  0  0  0
   -6.2996   -3.5663  -23.6982 H   0  0  0  0  0  0  0  0  0  0  0  0
   -7.8631   -6.6253  -26.2481 H   0  0  0  0  0  0  0  0  0  0  0  0
  -10.1789   -6.0888  -25.4345 H   0  0  0  0  0  0  0  0  0  0  0  0
  -10.2786   -2.4017  -21.0076 H   0  0  0  0  0  0  0  0  0  0  0  0
   -9.5237   -3.9874  -20.8918 H   0  0  0  0  0  0  0  0  0  0  0  0
   -9.1814   -0.1414  -21.1557 H   0  0  0  0  0  0  0  0  0  0  0  0
   -7.9606    0.5033  -22.2583 H   0  0  0  0  0  0  0  0  0  0  0  0
   -8.3321   -1.1923  -23.8939 H   0  0  0  0  0  0  0  0  0  0  0  0
  -10.4937    0.0023  -23.8769 H   0  0  0  0  0  0  0  0  0  0  0  0
  -10.8027   -1.7300  -24.1184 H   0  0  0  0  0  0  0  0  0  0  0  0
  -11.0980   -0.9943  -22.5451 H   0  0  0  0  0  0  0  0  0  0  0  0
  1  2  1  0
  2  3  1  0
  3  4  1  0
  4  5  1  0
  5  6  2  0
  6  7  1  0
  7  8  2  0
  8  9  1  0
  9 10  2  0
 10 11  1  0
 11 12  2  0
 12 13  1  0
 13 14  2  0
 13 15  1  0
 12 16  1  0
 11 17  1  0
 10 18  1  0
  8 19  1  0
  6 20  1  0
  4 21  1  0
 21 22  2  0
 21 23  1  0
 23 24  1  1
 24 25  1  0
 25 26  1  0
 26 27  1  0
 27 28  1  0
 28 29  2  0
 29 30  1  0
 30 31  1  0
 30 32  1  0
 28 33  1  0
 26 34  1  0
 26 35  1  0
 25 36  1  0
 36 37  2  0
 36 38  1  0
 38 39  2  0
 39 40  1  0
 40 41  2  0
 41 42  1  0
 41 43  1  0
 43 44  2  0
 43 45  1  0
 40 46  1  0
 39 47  1  0
 24 48  1  0
 24 49  1  0
  3 50  1  0
  3 51  1  0
  2 52  1  6
  1 53  1  0
  1 54  1  0
  1 55  1  0
 23  2  1  0
 31 27  2  0
 44 38  1  0
 14  5  1  0
 44 23  1  0
 14  9  1  0
M  END
>  <cnnaffinities>  (29) 
[6.71023]

>  <score>  (29) 
6.71023

>  <index>  (29) 
29

>  <Smiles>  (29) 
C([C@]1(C(N(c2c(nc(c3c(c(c(c(c23)[H])[H])[H])[H])[H])[H])C(=O)[C@]21C(N(C(c1c(nn(n1)[H])[H])([H])[H])C(=O)c1c(c(c(F)c(c21)[H])[H])[H])([H])[H])([H])[H])[H])([H])([H])[H]

>  <h>  (29) 
<NA>

>  <Training>  (29) 
True

>  <Success>  (29) 
True

>  <enamine_searched>  (29) 
False

>  <enamine_id>  (29) 
nan

$$$$

     RDKit          3D

 58 63  0  0  0  0  0  0  0  0999 V2000
  -10.3385   -0.6637  -23.6053 C   0  0  0  0  0  0  0  0  0  0  0  0
   -8.9890   -1.1649  -23.1126 C   0  0  1  0  0  0  0  0  0  0  0  0
   -8.4652   -0.3408  -21.9225 C   0  0  0  0  0  0  0  0  0  0  0  0
   -7.5027   -1.2335  -21.3035 N   0  0  0  0  0  0  0  0  0  0  0  0
   -6.6651   -0.8375  -20.2322 C   0  0  0  0  0  0  0  0  0  0  0  0
   -6.9552   -1.1766  -18.9356 C   0  0  0  0  0  0  0  0  0  0  0  0
   -6.3075   -0.6671  -17.8554 N   0  0  0  0  0  0  0  0  0  0  0  0
   -5.3137    0.1626  -18.0738 C   0  0  0  0  0  0  0  0  0  0  0  0
   -4.8471    0.5188  -19.3732 C   0  0  0  0  0  0  0  0  0  0  0  0
   -3.7245    1.3647  -19.5793 C   0  0  0  0  0  0  0  0  0  0  0  0
   -3.2852    1.6265  -20.8493 C   0  0  0  0  0  0  0  0  0  0  0  0
   -3.9446    1.0697  -21.9693 C   0  0  0  0  0  0  0  0  0  0  0  0
   -5.0463    0.2692  -21.7970 C   0  0  0  0  0  0  0  0  0  0  0  0
   -5.5280   -0.0106  -20.4914 C   0  0  0  0  0  0  0  0  0  0  0  0
   -5.5531   -0.1707  -22.6507 H   0  0  0  0  0  0  0  0  0  0  0  0
   -3.5834    1.2830  -22.9717 H   0  0  0  0  0  0  0  0  0  0  0  0
   -2.4267    2.2732  -21.0090 H   0  0  0  0  0  0  0  0  0  0  0  0
   -3.2289    1.7971  -18.7127 H   0  0  0  0  0  0  0  0  0  0  0  0
   -4.8118    0.5844  -17.1998 H   0  0  0  0  0  0  0  0  0  0  0  0
   -7.7527   -1.8837  -18.7151 H   0  0  0  0  0  0  0  0  0  0  0  0
   -7.7424   -2.5574  -21.5946 C   0  0  0  0  0  0  0  0  0  0  0  0
   -7.1124   -3.4836  -21.1219 O   0  0  0  0  0  0  0  0  0  0  0  0
   -8.9034   -2.6602  -22.6093 C   0  0  1  0  0  0  0  0  0  0  0  0
  -10.1652   -3.1049  -21.8153 C   0  0  0  0  0  0  0  0  0  0  0  0
  -11.2618   -3.5606  -22.6623 N   0  0  0  0  0  0  0  0  0  0  0  0
  -12.6463   -3.3653  -22.2484 C   0  0  0  0  0  0  0  0  0  0  0  0
  -13.3125   -2.1492  -22.8647 C   0  0  0  0  0  0  0  0  0  0  0  0
  -13.8248   -1.1694  -22.0659 C   0  0  0  0  0  0  0  0  0  0  0  0
  -14.4642    0.0013  -22.6256 C   0  0  0  0  0  0  0  0  0  0  0  0
  -14.9484    0.9664  -22.0694 O   0  0  0  0  0  0  0  0  0  0  0  0
  -14.4954   -0.0465  -24.0228 N   0  0  0  0  0  0  0  0  0  0  0  0
  -14.0007   -1.0797  -24.7455 C   0  0  0  0  0  0  0  0  0  0  0  0
  -13.4031   -2.1099  -24.2396 N   0  0  0  0  0  0  0  0  0  0  0  0
  -14.1465   -0.9720  -25.8162 H   0  0  0  0  0  0  0  0  0  0  0  0
  -14.9928    0.7336  -24.4365 H   0  0  0  0  0  0  0  0  0  0  0  0
  -13.7809   -1.2525  -20.9918 H   0  0  0  0  0  0  0  0  0  0  0  0
  -13.1818   -4.2625  -22.5754 H   0  0  0  0  0  0  0  0  0  0  0  0
  -12.6857   -3.2719  -21.1583 H   0  0  0  0  0  0  0  0  0  0  0  0
  -11.0538   -4.3991  -23.7249 C   0  0  0  0  0  0  0  0  0  0  0  0
  -11.9578   -5.0123  -24.2671 O   0  0  0  0  0  0  0  0  0  0  0  0
   -9.6380   -4.5257  -24.1790 C   0  0  0  0  0  0  0  0  0  0  0  0
   -9.3845   -5.4941  -25.1488 C   0  0  0  0  0  0  0  0  0  0  0  0
   -8.0913   -5.7860  -25.5292 C   0  0  0  0  0  0  0  0  0  0  0  0
   -7.0641   -5.0551  -24.9439 C   0  0  0  0  0  0  0  0  0  0  0  0
   -5.7969   -5.3777  -25.2501 F   0  0  0  0  0  0  0  0  0  0  0  0
   -7.2953   -4.0281  -24.0478 C   0  0  0  0  0  0  0  0  0  0  0  0
   -8.6080   -3.7400  -23.6429 C   0  0  0  0  0  0  0  0  0  0  0  0
   -6.4429   -3.4935  -23.6452 H   0  0  0  0  0  0  0  0  0  0  0  0
   -7.8776   -6.5618  -26.2555 H   0  0  0  0  0  0  0  0  0  0  0  0
  -10.2379   -6.0183  -25.5698 H   0  0  0  0  0  0  0  0  0  0  0  0
   -9.8378   -3.8892  -21.1192 H   0  0  0  0  0  0  0  0  0  0  0  0
  -10.5379   -2.2805  -21.2010 H   0  0  0  0  0  0  0  0  0  0  0  0
   -9.2783   -0.0966  -21.2202 H   0  0  0  0  0  0  0  0  0  0  0  0
   -8.0077    0.6130  -22.2081 H   0  0  0  0  0  0  0  0  0  0  0  0
   -8.2615   -1.0677  -23.9280 H   0  0  0  0  0  0  0  0  0  0  0  0
  -11.0806   -0.6900  -22.8031 H   0  0  0  0  0  0  0  0  0  0  0  0
  -10.7115   -1.2685  -24.4354 H   0  0  0  0  0  0  0  0  0  0  0  0
  -10.2657    0.3760  -23.9442 H   0  0  0  0  0  0  0  0  0  0  0  0
  1  2  1  0
  2  3  1  0
  3  4  1  0
  4  5  1  0
  5  6  2  0
  6  7  1  0
  7  8  2  0
  8  9  1  0
  9 10  2  0
 10 11  1  0
 11 12  2  0
 12 13  1  0
 13 14  2  0
 13 15  1  0
 12 16  1  0
 11 17  1  0
 10 18  1  0
  8 19  1  0
  6 20  1  0
  4 21  1  0
 21 22  2  0
 21 23  1  0
 23 24  1  1
 24 25  1  0
 25 26  1  0
 26 27  1  0
 27 28  2  0
 28 29  1  0
 29 30  2  0
 29 31  1  0
 31 32  1  0
 32 33  2  0
 32 34  1  0
 31 35  1  0
 28 36  1  0
 26 37  1  0
 26 38  1  0
 25 39  1  0
 39 40  2  0
 39 41  1  0
 41 42  2  0
 42 43  1  0
 43 44  2  0
 44 45  1  0
 44 46  1  0
 46 47  2  0
 46 48  1  0
 43 49  1  0
 42 50  1  0
 24 51  1  0
 24 52  1  0
  3 53  1  0
  3 54  1  0
  2 55  1  6
  1 56  1  0
  1 57  1  0
  1 58  1  0
 23  2  1  0
 33 27  1  0
 47 41  1  0
 14  5  1  0
 47 23  1  0
 14  9  1  0
M  END
>  <cnnaffinities>  (30) 
[6.68189]

>  <score>  (30) 
6.68189

>  <index>  (30) 
30

>  <Smiles>  (30) 
C([C@]1(C(N(c2c(nc(c3c(c(c(c(c23)[H])[H])[H])[H])[H])[H])C(=O)[C@]21C(N(C(c1c(c(=O)n(c(n1)[H])[H])[H])([H])[H])C(=O)c1c(c(c(F)c(c21)[H])[H])[H])([H])[H])([H])[H])[H])([H])([H])[H]

>  <h>  (30) 
<NA>

>  <Training>  (30) 
True

>  <Success>  (30) 
True

>  <enamine_searched>  (30) 
False

>  <enamine_id>  (30) 
nan

$$$$

     RDKit          3D

 66 71  0  0  0  0  0  0  0  0999 V2000
   -7.4243    3.3810  -21.8606 C   0  0  0  0  0  0  0  0  0  0  0  0
   -8.3485    2.9096  -22.8814 N   0  0  0  0  0  0  0  0  0  0  0  0
   -7.8031    2.1770  -23.8979 C   0  0  0  0  0  0  0  0  0  0  0  0
   -6.5984    2.0208  -24.0267 O   0  0  0  0  0  0  0  0  0  0  0  0
   -8.7887    1.5592  -24.8881 C   0  0  0  0  0  0  0  0  0  0  0  0
   -9.4526    0.4072  -24.3139 N   0  0  0  0  0  0  0  0  0  0  0  0
   -8.7008   -0.8278  -24.1623 C   0  0  0  0  0  0  0  0  0  0  0  0
   -9.0747   -1.5645  -22.8530 C   0  0  2  0  0  0  0  0  0  0  0  0
   -8.5511   -0.7710  -21.6325 C   0  0  0  0  0  0  0  0  0  0  0  0
   -9.0404    0.2188  -21.1314 O   0  0  0  0  0  0  0  0  0  0  0  0
   -7.3997   -1.3792  -21.1931 N   0  0  0  0  0  0  0  0  0  0  0  0
   -6.6079   -0.8075  -20.1721 C   0  0  0  0  0  0  0  0  0  0  0  0
   -6.9267   -1.0399  -18.8603 C   0  0  0  0  0  0  0  0  0  0  0  0
   -6.2314   -0.5513  -17.8055 N   0  0  0  0  0  0  0  0  0  0  0  0
   -5.1898    0.2019  -18.0725 C   0  0  0  0  0  0  0  0  0  0  0  0
   -4.7491    0.5246  -19.3888 C   0  0  0  0  0  0  0  0  0  0  0  0
   -3.6230    1.3564  -19.6313 C   0  0  0  0  0  0  0  0  0  0  0  0
   -3.2382    1.6531  -20.9092 C   0  0  0  0  0  0  0  0  0  0  0  0
   -3.9610    1.1434  -22.0112 C   0  0  0  0  0  0  0  0  0  0  0  0
   -5.0573    0.3396  -21.8058 C   0  0  0  0  0  0  0  0  0  0  0  0
   -5.4759    0.0044  -20.4876 C   0  0  0  0  0  0  0  0  0  0  0  0
   -5.6203   -0.0192  -22.6638 H   0  0  0  0  0  0  0  0  0  0  0  0
   -3.6588    1.3934  -23.0236 H   0  0  0  0  0  0  0  0  0  0  0  0
   -2.3782    2.2914  -21.0854 H   0  0  0  0  0  0  0  0  0  0  0  0
   -3.0907    1.7604  -18.7736 H   0  0  0  0  0  0  0  0  0  0  0  0
   -4.6268    0.5985  -17.2260 H   0  0  0  0  0  0  0  0  0  0  0  0
   -7.7918   -1.6560  -18.6269 H   0  0  0  0  0  0  0  0  0  0  0  0
   -7.0242   -2.5635  -21.9270 C   0  0  0  0  0  0  0  0  0  0  0  0
   -8.3066   -2.9150  -22.7015 C   0  0  2  0  0  0  0  0  0  0  0  0
   -8.0214   -3.7200  -23.9858 C   0  0  0  0  0  0  0  0  0  0  0  0
   -7.4956   -5.0475  -23.7511 N   0  0  0  0  0  0  0  0  0  0  0  0
   -6.1965   -5.3661  -23.5195 C   0  0  0  0  0  0  0  0  0  0  0  0
   -5.0991   -4.5921  -23.9350 C   0  0  0  0  0  0  0  0  0  0  0  0
   -3.8486   -5.0600  -23.5828 C   0  0  0  0  0  0  0  0  0  0  0  0
   -3.6409   -6.1785  -22.8769 N   0  0  0  0  0  0  0  0  0  0  0  0
   -4.7487   -6.8475  -22.5756 C   0  0  0  0  0  0  0  0  0  0  0  0
   -6.0000   -6.5267  -22.8700 N   0  0  0  0  0  0  0  0  0  0  0  0
   -4.6294   -7.7739  -22.0093 H   0  0  0  0  0  0  0  0  0  0  0  0
   -2.9501   -4.5123  -23.8673 H   0  0  0  0  0  0  0  0  0  0  0  0
   -5.2178   -3.6794  -24.5081 H   0  0  0  0  0  0  0  0  0  0  0  0
   -8.1274   -5.7725  -23.4473 H   0  0  0  0  0  0  0  0  0  0  0  0
   -7.3017   -3.1774  -24.6048 H   0  0  0  0  0  0  0  0  0  0  0  0
   -8.9315   -3.8261  -24.5869 H   0  0  0  0  0  0  0  0  0  0  0  0
   -8.9117   -3.5526  -22.0528 H   0  0  0  0  0  0  0  0  0  0  0  0
   -6.1779   -2.3629  -22.6053 H   0  0  0  0  0  0  0  0  0  0  0  0
   -6.7151   -3.3519  -21.2353 H   0  0  0  0  0  0  0  0  0  0  0  0
  -10.5857   -1.6471  -22.7841 C   0  0  0  0  0  0  0  0  0  0  0  0
  -11.2070   -2.5740  -21.9453 C   0  0  0  0  0  0  0  0  0  0  0  0
  -12.5849   -2.6052  -21.8475 C   0  0  0  0  0  0  0  0  0  0  0  0
  -13.3150   -3.7654  -20.7795 Cl  0  0  0  0  0  0  0  0  0  0  0  0
  -13.3989   -1.7266  -22.5627 C   0  0  0  0  0  0  0  0  0  0  0  0
  -12.7900   -0.7772  -23.3555 C   0  0  0  0  0  0  0  0  0  0  0  0
  -11.4019   -0.7161  -23.4410 C   0  0  0  0  0  0  0  0  0  0  0  0
  -10.8141    0.4250  -24.2031 C   0  0  0  0  0  0  0  0  0  0  0  0
  -11.5044    1.3256  -24.6637 O   0  0  0  0  0  0  0  0  0  0  0  0
  -13.3619   -0.0436  -23.9119 H   0  0  0  0  0  0  0  0  0  0  0  0
  -14.4784   -1.7811  -22.4682 H   0  0  0  0  0  0  0  0  0  0  0  0
  -10.6310   -3.2699  -21.3458 H   0  0  0  0  0  0  0  0  0  0  0  0
   -7.6314   -0.5878  -24.1846 H   0  0  0  0  0  0  0  0  0  0  0  0
   -8.9198   -1.4944  -25.0070 H   0  0  0  0  0  0  0  0  0  0  0  0
   -9.5736    2.2706  -25.1691 H   0  0  0  0  0  0  0  0  0  0  0  0
   -8.2165    1.2688  -25.7762 H   0  0  0  0  0  0  0  0  0  0  0  0
   -9.2984    2.7034  -22.5810 H   0  0  0  0  0  0  0  0  0  0  0  0
   -6.8797    2.5331  -21.4102 H   0  0  0  0  0  0  0  0  0  0  0  0
   -7.9582    3.9483  -21.0934 H   0  0  0  0  0  0  0  0  0  0  0  0
   -6.6903    4.0451  -22.3264 H   0  0  0  0  0  0  0  0  0  0  0  0
  1  2  1  0
  2  3  1  0
  3  4  2  0
  3  5  1  0
  5  6  1  0
  6  7  1  0
  8  7  1  6
  8  9  1  0
  9 10  2  0
  9 11  1  0
 11 12  1  0
 12 13  2  0
 13 14  1  0
 14 15  2  0
 15 16  1  0
 16 17  2  0
 17 18  1  0
 18 19  2  0
 19 20  1  0
 20 21  2  0
 20 22  1  0
 19 23  1  0
 18 24  1  0
 17 25  1  0
 15 26  1  0
 13 27  1  0
 11 28  1  0
 28 29  1  0
 29 30  1  0
 30 31  1  0
 31 32  1  0
 32 33  2  0
 33 34  1  0
 34 35  2  0
 35 36  1  0
 36 37  2  0
 36 38  1  0
 34 39  1  0
 33 40  1  0
 31 41  1  0
 30 42  1  0
 30 43  1  0
 29 44  1  1
 28 45  1  0
 28 46  1  0
  8 47  1  0
 47 48  2  0
 48 49  1  0
 49 50  1  0
 49 51  2  0
 51 52  1  0
 52 53  2  0
 53 54  1  0
 54 55  2  0
 52 56  1  0
 51 57  1  0
 48 58  1  0
  7 59  1  0
  7 60  1  0
  5 61  1  0
  5 62  1  0
  2 63  1  0
  1 64  1  0
  1 65  1  0
  1 66  1  0
 54  6  1  0
 29  8  1  0
 37 32  1  0
 53 47  1  0
 21 12  1  0
 21 16  1  0
M  END
>  <cnnaffinities>  (31) 
[6.83654, 6.89922, 6.90648, 6.45137]

>  <score>  (31) 
6.83654

>  <index>  (31) 
31

>  <Smiles>  (31) 
C(N(C(=O)C(N1C([C@@]2(C(=O)N(c3c(nc(c4c(c(c(c(c34)[H])[H])[H])[H])[H])[H])C([C@@]2(C(N(c2c(c(nc(n2)[H])[H])[H])[H])([H])[H])[H])([H])[H])c2c(c(Cl)c(c(c2C1=O)[H])[H])[H])([H])[H])([H])[H])[H])([H])([H])[H]

>  <h>  (31) 
<NA>

>  <Training>  (31) 
True

>  <Success>  (31) 
True

>  <enamine_searched>  (31) 
False

>  <enamine_id>  (31) 
nan

$$$$

     RDKit          3D

 57 62  0  0  0  0  0  0  0  0999 V2000
   -8.1033   -4.0800  -23.7647 C   0  0  0  0  0  0  0  0  0  0  0  0
   -8.3366   -3.2122  -22.5264 C   0  0  1  0  0  0  0  0  0  0  0  0
   -7.0558   -2.4757  -22.0907 C   0  0  0  0  0  0  0  0  0  0  0  0
   -7.5334   -1.3276  -21.3412 N   0  0  0  0  0  0  0  0  0  0  0  0
   -6.7892   -0.7719  -20.2628 C   0  0  0  0  0  0  0  0  0  0  0  0
   -7.1437   -1.0118  -18.9536 C   0  0  0  0  0  0  0  0  0  0  0  0
   -6.4327   -0.5853  -17.8776 N   0  0  0  0  0  0  0  0  0  0  0  0
   -5.3492    0.1229  -18.0943 C   0  0  0  0  0  0  0  0  0  0  0  0
   -4.8695    0.4575  -19.3944 C   0  0  0  0  0  0  0  0  0  0  0  0
   -3.7189    1.2691  -19.5987 C   0  0  0  0  0  0  0  0  0  0  0  0
   -3.2689    1.5288  -20.8648 C   0  0  0  0  0  0  0  0  0  0  0  0
   -3.9250    0.9666  -21.9826 C   0  0  0  0  0  0  0  0  0  0  0  0
   -5.0446    0.1906  -21.8101 C   0  0  0  0  0  0  0  0  0  0  0  0
   -5.5749   -0.0462  -20.5134 C   0  0  0  0  0  0  0  0  0  0  0  0
   -5.5382   -0.2468  -22.6737 H   0  0  0  0  0  0  0  0  0  0  0  0
   -3.5447    1.1470  -22.9843 H   0  0  0  0  0  0  0  0  0  0  0  0
   -2.4049    2.1699  -21.0237 H   0  0  0  0  0  0  0  0  0  0  0  0
   -3.2092    1.6834  -18.7316 H   0  0  0  0  0  0  0  0  0  0  0  0
   -4.7781    0.4541  -17.2222 H   0  0  0  0  0  0  0  0  0  0  0  0
   -8.0312   -1.5975  -18.7174 H   0  0  0  0  0  0  0  0  0  0  0  0
   -8.8701   -1.0674  -21.5769 C   0  0  0  0  0  0  0  0  0  0  0  0
   -9.5030   -0.1977  -21.0159 O   0  0  0  0  0  0  0  0  0  0  0  0
   -9.3935   -2.0682  -22.6649 C   0  0  1  0  0  0  0  0  0  0  0  0
   -9.2925   -1.4346  -24.0773 C   0  0  0  0  0  0  0  0  0  0  0  0
  -10.3395   -0.4677  -24.3798 N   0  0  0  0  0  0  0  0  0  0  0  0
   -9.9254    0.7327  -25.0927 C   0  0  0  0  0  0  0  0  0  0  0  0
   -9.1279    1.5786  -24.1514 C   0  0  0  0  0  0  0  0  0  0  0  0
   -7.8173    1.7054  -24.1374 N   0  0  0  0  0  0  0  0  0  0  0  0
   -7.5212    2.3658  -22.9996 N   0  0  0  0  0  0  0  0  0  0  0  0
   -8.5913    2.6315  -22.3364 N   0  0  0  0  0  0  0  0  0  0  0  0
   -9.6252    2.1513  -23.0441 N   0  0  0  0  0  0  0  0  0  0  0  0
  -10.9752    2.3471  -22.5256 C   0  0  0  0  0  0  0  0  0  0  0  0
  -11.1139    1.6997  -21.6563 H   0  0  0  0  0  0  0  0  0  0  0  0
  -11.7053    2.1003  -23.3036 H   0  0  0  0  0  0  0  0  0  0  0  0
  -11.0694    3.3958  -22.2256 H   0  0  0  0  0  0  0  0  0  0  0  0
  -10.8269    1.2183  -25.4801 H   0  0  0  0  0  0  0  0  0  0  0  0
   -9.2801    0.4672  -25.9329 H   0  0  0  0  0  0  0  0  0  0  0  0
  -11.6349   -0.5921  -23.9779 C   0  0  0  0  0  0  0  0  0  0  0  0
  -12.5375    0.1210  -24.4093 O   0  0  0  0  0  0  0  0  0  0  0  0
  -11.8885   -1.6477  -22.9525 C   0  0  0  0  0  0  0  0  0  0  0  0
  -13.2095   -1.7985  -22.5263 C   0  0  0  0  0  0  0  0  0  0  0  0
  -13.5371   -2.7736  -21.6107 C   0  0  0  0  0  0  0  0  0  0  0  0
  -12.5321   -3.6304  -21.1970 C   0  0  0  0  0  0  0  0  0  0  0  0
  -12.8368   -4.5539  -20.2709 F   0  0  0  0  0  0  0  0  0  0  0  0
  -11.2174   -3.5067  -21.6013 C   0  0  0  0  0  0  0  0  0  0  0  0
  -10.8478   -2.4451  -22.4358 C   0  0  0  0  0  0  0  0  0  0  0  0
  -10.4999   -4.1858  -21.1599 H   0  0  0  0  0  0  0  0  0  0  0  0
  -14.5352   -2.9217  -21.2150 H   0  0  0  0  0  0  0  0  0  0  0  0
  -13.9586   -1.1109  -22.9044 H   0  0  0  0  0  0  0  0  0  0  0  0
   -8.3259   -0.9232  -24.1620 H   0  0  0  0  0  0  0  0  0  0  0  0
   -9.3468   -2.2387  -24.8192 H   0  0  0  0  0  0  0  0  0  0  0  0
   -6.5010   -2.1723  -22.9894 H   0  0  0  0  0  0  0  0  0  0  0  0
   -6.3798   -3.0689  -21.4714 H   0  0  0  0  0  0  0  0  0  0  0  0
   -8.6430   -3.8508  -21.6927 H   0  0  0  0  0  0  0  0  0  0  0  0
   -7.4168   -4.9074  -23.5610 H   0  0  0  0  0  0  0  0  0  0  0  0
   -9.0292   -4.5073  -24.1647 H   0  0  0  0  0  0  0  0  0  0  0  0
   -7.6513   -3.4856  -24.5669 H   0  0  0  0  0  0  0  0  0  0  0  0
  1  2  1  0
  2  3  1  0
  3  4  1  0
  4  5  1  0
  5  6  2  0
  6  7  1  0
  7  8  2  0
  8  9  1  0
  9 10  2  0
 10 11  1  0
 11 12  2  0
 12 13  1  0
 13 14  2  0
 13 15  1  0
 12 16  1  0
 11 17  1  0
 10 18  1  0
  8 19  1  0
  6 20  1  0
  4 21  1  0
 21 22  2  0
 21 23  1  0
 23 24  1  6
 24 25  1  0
 25 26  1  0
 26 27  1  0
 27 28  2  0
 28 29  1  0
 29 30  2  0
 30 31  1  0
 31 32  1  0
 32 33  1  0
 32 34  1  0
 32 35  1  0
 26 36  1  0
 26 37  1  0
 25 38  1  0
 38 39  2  0
 38 40  1  0
 40 41  2  0
 41 42  1  0
 42 43  2  0
 43 44  1  0
 43 45  1  0
 45 46  2  0
 45 47  1  0
 42 48  1  0
 41 49  1  0
 24 50  1  0
 24 51  1  0
  3 52  1  0
  3 53  1  0
  2 54  1  1
  1 55  1  0
  1 56  1  0
  1 57  1  0
 23  2  1  0
 31 27  1  0
 46 40  1  0
 14  5  1  0
 46 23  1  0
 14  9  1  0
M  END
>  <cnnaffinities>  (32) 
[6.62577]

>  <score>  (32) 
6.62577

>  <index>  (32) 
32

>  <Smiles>  (32) 
C([C@]1(C(N(c2c(nc(c3c(c(c(c(c23)[H])[H])[H])[H])[H])[H])C(=O)[C@]21C(N(C(c1nnnn1C([H])([H])[H])([H])[H])C(=O)c1c(c(c(F)c(c21)[H])[H])[H])([H])[H])([H])[H])[H])([H])([H])[H]

>  <h>  (32) 
<NA>

>  <Training>  (32) 
True

>  <Success>  (32) 
True

>  <enamine_searched>  (32) 
False

>  <enamine_id>  (32) 
nan

$$$$

     RDKit          3D

 66 70  0  0  0  0  0  0  0  0999 V2000
   -7.4890    3.2998  -21.8998 C   0  0  0  0  0  0  0  0  0  0  0  0
   -8.5163    2.8307  -22.8185 N   0  0  0  0  0  0  0  0  0  0  0  0
   -8.0644    2.0754  -23.8647 C   0  0  0  0  0  0  0  0  0  0  0  0
   -6.8708    1.8808  -24.0557 O   0  0  0  0  0  0  0  0  0  0  0  0
   -9.1038    1.4641  -24.8008 C   0  0  0  0  0  0  0  0  0  0  0  0
   -9.6576    0.2602  -24.2138 N   0  0  0  0  0  0  0  0  0  0  0  0
   -8.8167   -0.9203  -24.0957 C   0  0  0  0  0  0  0  0  0  0  0  0
   -9.0958   -1.6982  -22.7874 C   0  0  2  0  0  0  0  0  0  0  0  0
   -8.5797   -0.8907  -21.5751 C   0  0  0  0  0  0  0  0  0  0  0  0
   -9.1089    0.0692  -21.0478 O   0  0  0  0  0  0  0  0  0  0  0  0
   -7.3745   -1.4284  -21.1897 N   0  0  0  0  0  0  0  0  0  0  0  0
   -6.5996   -0.8282  -20.1709 C   0  0  0  0  0  0  0  0  0  0  0  0
   -6.9275   -1.0465  -18.8569 C   0  0  0  0  0  0  0  0  0  0  0  0
   -6.2367   -0.5494  -17.8043 N   0  0  0  0  0  0  0  0  0  0  0  0
   -5.1941    0.2026  -18.0732 C   0  0  0  0  0  0  0  0  0  0  0  0
   -4.7524    0.5182  -19.3908 C   0  0  0  0  0  0  0  0  0  0  0  0
   -3.6306    1.3555  -19.6282 C   0  0  0  0  0  0  0  0  0  0  0  0
   -3.2443    1.6531  -20.9069 C   0  0  0  0  0  0  0  0  0  0  0  0
   -3.9634    1.1388  -22.0071 C   0  0  0  0  0  0  0  0  0  0  0  0
   -5.0602    0.3331  -21.8077 C   0  0  0  0  0  0  0  0  0  0  0  0
   -5.4738   -0.0073  -20.4878 C   0  0  0  0  0  0  0  0  0  0  0  0
   -5.6264   -0.0142  -22.6674 H   0  0  0  0  0  0  0  0  0  0  0  0
   -3.6526    1.3859  -23.0183 H   0  0  0  0  0  0  0  0  0  0  0  0
   -2.3869    2.2950  -21.0835 H   0  0  0  0  0  0  0  0  0  0  0  0
   -3.1018    1.7612  -18.7711 H   0  0  0  0  0  0  0  0  0  0  0  0
   -4.6337    0.6034  -17.2285 H   0  0  0  0  0  0  0  0  0  0  0  0
   -7.7934   -1.6605  -18.6206 H   0  0  0  0  0  0  0  0  0  0  0  0
   -6.9577   -2.5910  -21.9501 C   0  0  0  0  0  0  0  0  0  0  0  0
   -8.2343   -2.9948  -22.7096 C   0  0  2  0  0  0  0  0  0  0  0  0
   -7.9371   -3.6849  -24.0372 C   0  0  0  0  0  0  0  0  0  0  0  0
   -7.2275   -4.8839  -23.7928 O   0  0  0  0  0  0  0  0  0  0  0  0
   -7.0489   -5.6962  -24.9524 C   0  0  0  0  0  0  0  0  0  0  0  0
   -5.6740   -6.3454  -24.8706 C   0  0  0  0  0  0  0  0  0  0  0  0
   -5.4929   -6.9605  -25.7604 H   0  0  0  0  0  0  0  0  0  0  0  0
   -4.8845   -5.5907  -24.8088 H   0  0  0  0  0  0  0  0  0  0  0  0
   -5.6122   -6.9890  -23.9873 H   0  0  0  0  0  0  0  0  0  0  0  0
   -8.1511   -6.7504  -25.0440 C   0  0  0  0  0  0  0  0  0  0  0  0
   -8.1270   -7.3971  -24.1601 H   0  0  0  0  0  0  0  0  0  0  0  0
   -9.1462   -6.2951  -25.1078 H   0  0  0  0  0  0  0  0  0  0  0  0
   -8.0033   -7.3741  -25.9352 H   0  0  0  0  0  0  0  0  0  0  0  0
   -7.0847   -5.0659  -25.8590 H   0  0  0  0  0  0  0  0  0  0  0  0
   -8.8820   -3.8795  -24.5733 H   0  0  0  0  0  0  0  0  0  0  0  0
   -7.3267   -3.0216  -24.6752 H   0  0  0  0  0  0  0  0  0  0  0  0
   -8.7672   -3.7198  -22.0933 H   0  0  0  0  0  0  0  0  0  0  0  0
   -6.1333   -2.3511  -22.6384 H   0  0  0  0  0  0  0  0  0  0  0  0
   -6.6107   -3.3809  -21.2794 H   0  0  0  0  0  0  0  0  0  0  0  0
  -10.5939   -1.8901  -22.6840 C   0  0  0  0  0  0  0  0  0  0  0  0
  -11.1313   -2.8732  -21.8514 C   0  0  0  0  0  0  0  0  0  0  0  0
  -12.5021   -2.9822  -21.7070 C   0  0  0  0  0  0  0  0  0  0  0  0
  -13.1366   -4.1643  -20.6067 Cl  0  0  0  0  0  0  0  0  0  0  0  0
  -13.3934   -2.1577  -22.3904 C   0  0  0  0  0  0  0  0  0  0  0  0
  -12.8676   -1.1666  -23.1884 C   0  0  0  0  0  0  0  0  0  0  0  0
  -11.4905   -1.0112  -23.3063 C   0  0  0  0  0  0  0  0  0  0  0  0
  -11.0099    0.1787  -24.0656 C   0  0  0  0  0  0  0  0  0  0  0  0
  -11.7728    1.0376  -24.4982 O   0  0  0  0  0  0  0  0  0  0  0  0
  -13.4989   -0.4669  -23.7203 H   0  0  0  0  0  0  0  0  0  0  0  0
  -14.4637   -2.2850  -22.2673 H   0  0  0  0  0  0  0  0  0  0  0  0
  -10.4935   -3.5472  -21.2910 H   0  0  0  0  0  0  0  0  0  0  0  0
   -9.0072   -1.5909  -24.9431 H   0  0  0  0  0  0  0  0  0  0  0  0
   -7.7695   -0.6083  -24.1443 H   0  0  0  0  0  0  0  0  0  0  0  0
   -8.5950    1.2221  -25.7424 H   0  0  0  0  0  0  0  0  0  0  0  0
   -9.9435    2.1383  -25.0086 H   0  0  0  0  0  0  0  0  0  0  0  0
   -9.4291    2.6250  -22.4228 H   0  0  0  0  0  0  0  0  0  0  0  0
   -6.7429    3.8407  -22.4849 H   0  0  0  0  0  0  0  0  0  0  0  0
   -7.9145    3.9980  -21.1748 H   0  0  0  0  0  0  0  0  0  0  0  0
   -6.9959    2.4470  -21.4008 H   0  0  0  0  0  0  0  0  0  0  0  0
  1  2  1  0
  2  3  1  0
  3  4  2  0
  3  5  1  0
  5  6  1  0
  6  7  1  0
  8  7  1  6
  8  9  1  0
  9 10  2  0
  9 11  1  0
 11 12  1  0
 12 13  2  0
 13 14  1  0
 14 15  2  0
 15 16  1  0
 16 17  2  0
 17 18  1  0
 18 19  2  0
 19 20  1  0
 20 21  2  0
 20 22  1  0
 19 23  1  0
 18 24  1  0
 17 25  1  0
 15 26  1  0
 13 27  1  0
 11 28  1  0
 28 29  1  0
 29 30  1  0
 30 31  1  0
 31 32  1  0
 32 33  1  0
 33 34  1  0
 33 35  1  0
 33 36  1  0
 32 37  1  0
 37 38  1  0
 37 39  1  0
 37 40  1  0
 32 41  1  0
 30 42  1  0
 30 43  1  0
 29 44  1  1
 28 45  1  0
 28 46  1  0
  8 47  1  0
 47 48  2  0
 48 49  1  0
 49 50  1  0
 49 51  2  0
 51 52  1  0
 52 53  2  0
 53 54  1  0
 54 55  2  0
 52 56  1  0
 51 57  1  0
 48 58  1  0
  7 59  1  0
  7 60  1  0
  5 61  1  0
  5 62  1  0
  2 63  1  0
  1 64  1  0
  1 65  1  0
  1 66  1  0
 54  6  1  0
 29  8  1  0
 53 47  1  0
 21 12  1  0
 21 16  1  0
M  END
>  <cnnaffinities>  (33) 
[6.34906]

>  <score>  (33) 
6.34906

>  <index>  (33) 
34

>  <Smiles>  (33) 
C(N(C(=O)C(N1C([C@@]2(C(=O)N(c3c(nc(c4c(c(c(c(c34)[H])[H])[H])[H])[H])[H])C([C@@]2(C(OC(C([H])([H])[H])(C([H])([H])[H])[H])([H])[H])[H])([H])[H])c2c(c(Cl)c(c(c2C1=O)[H])[H])[H])([H])[H])([H])[H])[H])([H])([H])[H]

>  <h>  (33) 
<NA>

>  <Training>  (33) 
True

>  <Success>  (33) 
True

>  <enamine_searched>  (33) 
False

>  <enamine_id>  (33) 
nan

$$$$

     RDKit          3D

 40 42  0  0  0  0  0  0  0  0999 V2000
   -9.2918   -1.8569  -22.5406 O   0  0  0  0  0  0  0  0  0  0  0  0
   -8.4211   -1.0469  -22.2437 C   0  0  0  0  0  0  0  0  0  0  0  0
   -7.0915   -1.5564  -21.7044 C   0  0  0  0  0  0  0  0  0  0  0  0
   -6.4595   -0.8383  -20.5150 C   0  0  0  0  0  0  0  0  0  0  0  0
   -7.0015   -0.9654  -19.2558 C   0  0  0  0  0  0  0  0  0  0  0  0
   -6.4683   -0.4657  -18.1078 N   0  0  0  0  0  0  0  0  0  0  0  0
   -5.3609    0.2295  -18.2178 C   0  0  0  0  0  0  0  0  0  0  0  0
   -4.7049    0.4981  -19.4516 C   0  0  0  0  0  0  0  0  0  0  0  0
   -3.5770    1.3576  -19.5419 C   0  0  0  0  0  0  0  0  0  0  0  0
   -3.0433    1.6825  -20.7596 C   0  0  0  0  0  0  0  0  0  0  0  0
   -3.5743    1.1146  -21.9345 C   0  0  0  0  0  0  0  0  0  0  0  0
   -4.6226    0.2272  -21.8655 C   0  0  0  0  0  0  0  0  0  0  0  0
   -5.2555   -0.0667  -20.6308 C   0  0  0  0  0  0  0  0  0  0  0  0
   -4.9985   -0.2095  -22.7869 H   0  0  0  0  0  0  0  0  0  0  0  0
   -3.1827    1.4070  -22.9032 H   0  0  0  0  0  0  0  0  0  0  0  0
   -2.2350    2.4012  -20.8339 H   0  0  0  0  0  0  0  0  0  0  0  0
   -3.1867    1.7972  -18.6271 H   0  0  0  0  0  0  0  0  0  0  0  0
   -4.9352    0.6397  -17.3017 H   0  0  0  0  0  0  0  0  0  0  0  0
   -7.9345   -1.5193  -19.1210 H   0  0  0  0  0  0  0  0  0  0  0  0
   -7.3054   -2.5958  -21.4346 H   0  0  0  0  0  0  0  0  0  0  0  0
   -6.3928   -1.5774  -22.5393 H   0  0  0  0  0  0  0  0  0  0  0  0
   -8.5187    0.3127  -22.3196 N   0  0  0  0  0  0  0  0  0  0  0  0
   -9.7197    0.9376  -21.6922 C   0  0  0  0  0  0  0  0  0  0  0  0
   -9.7093    1.0846  -21.8842 C   0  0  0  0  0  0  0  0  0  0  0  0
   -9.3218    2.8121  -23.5790 C   0  0  0  0  0  0  0  0  0  0  0  0
   -8.5190    5.3162  -22.6388 C   0  0  0  0  0  0  0  0  0  0  0  0
   -7.8664    5.5518  -23.7650 F   0  0  0  0  0  0  0  0  0  0  0  0
   -9.3198    6.3036  -22.3190 F   0  0  0  0  0  0  0  0  0  0  0  0
   -7.7084    4.9916  -21.6555 F   0  0  0  0  0  0  0  0  0  0  0  0
   -8.0784    2.3760  -23.6874 C   0  0  0  0  0  0  0  0  0  0  0  0
   -7.5224    1.1172  -23.0828 C   0  0  0  0  0  0  0  0  0  0  0  0
   -7.0588    0.4958  -23.8473 H   0  0  0  0  0  0  0  0  0  0  0  0
   -6.7339    1.4202  -22.3880 H   0  0  0  0  0  0  0  0  0  0  0  0
  -10.1634    2.1307  -23.6156 H   0  0  0  0  0  0  0  0  0  0  0  0
   -7.3167    3.0305  -24.1063 H   0  0  0  0  0  0  0  0  0  0  0  0
   -9.5099    3.8688  -23.3712 H   0  0  0  0  0  0  0  0  0  0  0  0
  -10.6350    1.8347  -21.6579 H   0  0  0  0  0  0  0  0  0  0  0  0
   -9.0152    1.9671  -21.4235 H   0  0  0  0  0  0  0  0  0  0  0  0
   -9.8779    0.1802  -20.3209 H   0  0  0  0  0  0  0  0  0  0  0  0
  -10.4751    0.4947  -22.6298 H   0  0  0  0  0  0  0  0  0  0  0  0
  1  2  2  0
  2  3  1  0
  3  4  1  0
  4  5  2  0
  5  6  1  0
  6  7  2  0
  7  8  1  0
  8  9  2  0
  9 10  1  0
 10 11  2  0
 11 12  1  0
 12 13  2  0
 12 14  1  0
 11 15  1  0
 10 16  1  0
  9 17  1  0
  7 18  1  0
  5 19  1  0
  3 20  1  0
  3 21  1  0
  2 22  1  0
 22 23  1  0
 23 24  1  0
 24 25  1  0
 25 26  1  0
 26 27  1  0
 26 28  1  0
 26 29  1  0
 25 30  1  0
 30 31  1  0
 31 32  1  0
 31 33  1  0
 30 34  1  0
 30 35  1  0
 25 36  1  0
 24 37  1  0
 24 38  1  0
 23 39  1  0
 23 40  1  0
 13  4  1  0
 31 22  1  0
 13  8  1  0
M  END
>  <cnnaffinities>  (34) 
[4.53774]

>  <score>  (34) 
4.53774

>  <index>  (34) 
35

>  <Smiles>  (34) 
O=C(C(c1c(nc(c2c(c(c(c(c12)[H])[H])[H])[H])[H])[H])([H])[H])N1C(C(C(C(F)(F)F)(C(C1([H])[H])([H])[H])[H])([H])[H])([H])[H]

>  <h>  (34) 
<NA>

>  <Training>  (34) 
True

>  <Success>  (34) 
True

>  <enamine_searched>  (34) 
False

>  <enamine_id>  (34) 
nan

$$$$

     RDKit          3D

 47 50  0  0  0  0  0  0  0  0999 V2000
   -8.6661    0.6228  -21.3302 O   0  0  0  0  0  0  0  0  0  0  0  0
   -8.4192   -0.4126  -21.9236 C   0  0  0  0  0  0  0  0  0  0  0  0
   -7.4268   -1.4248  -21.2908 C   0  0  0  0  0  0  0  0  0  0  0  0
   -6.5845   -0.8242  -20.1859 C   0  0  0  0  0  0  0  0  0  0  0  0
   -6.8819   -1.0368  -18.8641 C   0  0  0  0  0  0  0  0  0  0  0  0
   -6.1954   -0.5368  -17.7984 N   0  0  0  0  0  0  0  0  0  0  0  0
   -5.1589    0.2216  -18.0659 C   0  0  0  0  0  0  0  0  0  0  0  0
   -4.7243    0.5346  -19.3827 C   0  0  0  0  0  0  0  0  0  0  0  0
   -3.5981    1.3625  -19.6227 C   0  0  0  0  0  0  0  0  0  0  0  0
   -3.2076    1.6538  -20.8997 C   0  0  0  0  0  0  0  0  0  0  0  0
   -3.9342    1.1231  -21.9923 C   0  0  0  0  0  0  0  0  0  0  0  0
   -5.0295    0.3192  -21.7956 C   0  0  0  0  0  0  0  0  0  0  0  0
   -5.4558    0.0025  -20.4782 C   0  0  0  0  0  0  0  0  0  0  0  0
   -5.5710   -0.0718  -22.6599 H   0  0  0  0  0  0  0  0  0  0  0  0
   -3.6190    1.3633  -23.0020 H   0  0  0  0  0  0  0  0  0  0  0  0
   -2.3504    2.2965  -21.0883 H   0  0  0  0  0  0  0  0  0  0  0  0
   -3.0609    1.7744  -18.7702 H   0  0  0  0  0  0  0  0  0  0  0  0
   -4.6035    0.6263  -17.2157 H   0  0  0  0  0  0  0  0  0  0  0  0
   -7.7298   -1.6596  -18.5859 H   0  0  0  0  0  0  0  0  0  0  0  0
   -6.7826   -1.8977  -22.0415 H   0  0  0  0  0  0  0  0  0  0  0  0
   -8.0341   -2.2315  -20.8579 H   0  0  0  0  0  0  0  0  0  0  0  0
   -9.0717   -0.7304  -23.1060 N   0  0  0  0  0  0  0  0  0  0  0  0
  -10.0886    0.2424  -23.5331 C   0  0  0  0  0  0  0  0  0  0  0  0
  -11.0609   -0.3096  -24.5662 C   0  0  0  0  0  0  0  0  0  0  0  0
  -10.3377   -0.9971  -25.7100 C   0  0  0  0  0  0  0  0  0  0  0  0
   -9.5338   -2.1491  -25.1302 C   0  0  0  0  0  0  0  0  0  0  0  0
   -8.5265   -1.7195  -24.0460 C   0  0  1  0  0  0  0  0  0  0  0  0
   -7.1877   -1.3037  -24.6627 C   0  0  0  0  0  0  0  0  0  0  0  0
   -6.9710   -0.0194  -25.1590 C   0  0  0  0  0  0  0  0  0  0  0  0
   -5.7498    0.3285  -25.7291 C   0  0  0  0  0  0  0  0  0  0  0  0
   -4.7214   -0.6054  -25.8236 C   0  0  0  0  0  0  0  0  0  0  0  0
   -4.9340   -1.9002  -25.3581 C   0  0  0  0  0  0  0  0  0  0  0  0
   -6.1594   -2.2440  -24.7913 C   0  0  0  0  0  0  0  0  0  0  0  0
   -6.3079   -3.2632  -24.4402 H   0  0  0  0  0  0  0  0  0  0  0  0
   -4.1394   -2.6380  -25.4262 H   0  0  0  0  0  0  0  0  0  0  0  0
   -3.7638   -0.3238  -26.2530 H   0  0  0  0  0  0  0  0  0  0  0  0
   -5.6021    1.3400  -26.0938 H   0  0  0  0  0  0  0  0  0  0  0  0
   -7.7591    0.7253  -25.1076 H   0  0  0  0  0  0  0  0  0  0  0  0
   -8.3262   -2.6152  -23.4525 H   0  0  0  0  0  0  0  0  0  0  0  0
  -10.2278   -2.8787  -24.7015 H   0  0  0  0  0  0  0  0  0  0  0  0
   -8.9904   -2.6769  -25.9192 H   0  0  0  0  0  0  0  0  0  0  0  0
   -9.6734   -0.2938  -26.2256 H   0  0  0  0  0  0  0  0  0  0  0  0
  -11.0471   -1.3631  -26.4611 H   0  0  0  0  0  0  0  0  0  0  0  0
  -11.6937    0.5023  -24.9373 H   0  0  0  0  0  0  0  0  0  0  0  0
  -11.7332   -1.0255  -24.0855 H   0  0  0  0  0  0  0  0  0  0  0  0
  -10.6282    0.5491  -22.6371 H   0  0  0  0  0  0  0  0  0  0  0  0
   -9.6301    1.1636  -23.9223 H   0  0  0  0  0  0  0  0  0  0  0  0
  1  2  2  0
  2  3  1  0
  3  4  1  0
  4  5  2  0
  5  6  1  0
  6  7  2  0
  7  8  1  0
  8  9  2  0
  9 10  1  0
 10 11  2  0
 11 12  1  0
 12 13  2  0
 12 14  1  0
 11 15  1  0
 10 16  1  0
  9 17  1  0
  7 18  1  0
  5 19  1  0
  3 20  1  0
  3 21  1  0
  2 22  1  0
 22 23  1  0
 23 24  1  0
 24 25  1  0
 25 26  1  0
 26 27  1  0
 27 28  1  0
 28 29  2  0
 29 30  1  0
 30 31  2  0
 31 32  1  0
 32 33  2  0
 33 34  1  0
 32 35  1  0
 31 36  1  0
 30 37  1  0
 29 38  1  0
 27 39  1  1
 26 40  1  0
 26 41  1  0
 25 42  1  0
 25 43  1  0
 24 44  1  0
 24 45  1  0
 23 46  1  0
 23 47  1  0
 13  4  1  0
 27 22  1  0
 33 28  1  0
 13  8  1  0
M  END
>  <cnnaffinities>  (35) 
[5.24138, 5.24125, 5.4728, 5.46904, 5.30317, 5.30316]

>  <score>  (35) 
5.24138

>  <index>  (35) 
36

>  <Smiles>  (35) 
O=C(C(c1c(nc(c2c(c(c(c(c12)[H])[H])[H])[H])[H])[H])([H])[H])N1C(C(C(C([C@]1(c1c(c(c(c(c1[H])[H])[H])[H])[H])[H])([H])[H])([H])[H])([H])[H])([H])[H]

>  <h>  (35) 
<NA>

>  <Training>  (35) 
True

>  <Success>  (35) 
True

>  <enamine_searched>  (35) 
False

>  <enamine_id>  (35) 
nan

$$$$

     RDKit          3D

 56 60  0  0  0  0  0  0  0  0999 V2000
  -14.4731   -1.6292  -23.6987 C   0  0  0  0  0  0  0  0  0  0  0  0
  -13.8060   -2.8254  -23.2367 N   0  0  0  0  0  0  0  0  0  0  0  0
  -13.3663   -2.8169  -21.9544 C   0  0  0  0  0  0  0  0  0  0  0  0
  -13.7142   -1.9713  -21.1445 O   0  0  0  0  0  0  0  0  0  0  0  0
  -12.4440   -3.9846  -21.6373 C   0  0  0  0  0  0  0  0  0  0  0  0
  -11.1315   -3.8907  -22.2565 N   0  0  0  0  0  0  0  0  0  0  0  0
  -10.0097   -3.3863  -21.4768 C   0  0  0  0  0  0  0  0  0  0  0  0
   -8.8087   -2.9187  -22.3275 C   0  0  2  0  0  0  0  0  0  0  0  0
   -7.5778   -2.7029  -21.4300 C   0  0  0  0  0  0  0  0  0  0  0  0
   -6.8212   -3.5510  -21.0044 O   0  0  0  0  0  0  0  0  0  0  0  0
   -7.4060   -1.3505  -21.2299 N   0  0  0  0  0  0  0  0  0  0  0  0
   -6.5899   -0.8520  -20.1890 C   0  0  0  0  0  0  0  0  0  0  0  0
   -6.9058   -1.0964  -18.8761 C   0  0  0  0  0  0  0  0  0  0  0  0
   -6.2342   -0.5721  -17.8194 N   0  0  0  0  0  0  0  0  0  0  0  0
   -5.2078    0.2027  -18.0815 C   0  0  0  0  0  0  0  0  0  0  0  0
   -4.7601    0.5127  -19.3992 C   0  0  0  0  0  0  0  0  0  0  0  0
   -3.6326    1.3398  -19.6332 C   0  0  0  0  0  0  0  0  0  0  0  0
   -3.2237    1.6072  -20.9108 C   0  0  0  0  0  0  0  0  0  0  0  0
   -3.9206    1.0647  -22.0133 C   0  0  0  0  0  0  0  0  0  0  0  0
   -5.0204    0.2643  -21.8159 C   0  0  0  0  0  0  0  0  0  0  0  0
   -5.4671   -0.0245  -20.4967 C   0  0  0  0  0  0  0  0  0  0  0  0
   -5.5472   -0.1582  -22.6665 H   0  0  0  0  0  0  0  0  0  0  0  0
   -3.5894    1.2915  -23.0224 H   0  0  0  0  0  0  0  0  0  0  0  0
   -2.3648    2.2479  -21.0877 H   0  0  0  0  0  0  0  0  0  0  0  0
   -3.1174    1.7607  -18.7748 H   0  0  0  0  0  0  0  0  0  0  0  0
   -4.6653    0.6302  -17.2352 H   0  0  0  0  0  0  0  0  0  0  0  0
   -7.7464   -1.7402  -18.6268 H   0  0  0  0  0  0  0  0  0  0  0  0
   -8.3950   -0.5313  -21.9025 C   0  0  0  0  0  0  0  0  0  0  0  0
   -9.0275   -1.4872  -22.9200 C   0  0  2  0  0  0  0  0  0  0  0  0
  -10.4729   -1.1515  -23.2556 C   0  0  0  0  0  0  0  0  0  0  0  0
  -10.9002   -1.9202  -23.9062 H   0  0  0  0  0  0  0  0  0  0  0  0
  -10.5530   -0.1860  -23.7579 H   0  0  0  0  0  0  0  0  0  0  0  0
  -11.0807   -1.1158  -22.3455 H   0  0  0  0  0  0  0  0  0  0  0  0
   -8.4293   -1.4536  -23.8393 H   0  0  0  0  0  0  0  0  0  0  0  0
   -9.1444   -0.1532  -21.1934 H   0  0  0  0  0  0  0  0  0  0  0  0
   -7.9307    0.3354  -22.3832 H   0  0  0  0  0  0  0  0  0  0  0  0
   -8.5405   -3.9502  -23.3918 C   0  0  0  0  0  0  0  0  0  0  0  0
   -7.2671   -4.1063  -23.9389 C   0  0  0  0  0  0  0  0  0  0  0  0
   -7.0363   -5.0449  -24.9298 C   0  0  0  0  0  0  0  0  0  0  0  0
   -8.0681   -5.8604  -25.3910 C   0  0  0  0  0  0  0  0  0  0  0  0
   -9.3419   -5.6845  -24.8866 C   0  0  0  0  0  0  0  0  0  0  0  0
   -9.5832   -4.7109  -23.9213 C   0  0  0  0  0  0  0  0  0  0  0  0
  -10.9819   -4.4923  -23.4645 C   0  0  0  0  0  0  0  0  0  0  0  0
  -11.9583   -4.8453  -24.1316 O   0  0  0  0  0  0  0  0  0  0  0  0
  -10.1686   -6.2945  -25.2275 H   0  0  0  0  0  0  0  0  0  0  0  0
   -7.8698   -6.6291  -26.1331 H   0  0  0  0  0  0  0  0  0  0  0  0
   -6.0486   -5.1237  -25.3662 H   0  0  0  0  0  0  0  0  0  0  0  0
   -6.4497   -3.5013  -23.5611 H   0  0  0  0  0  0  0  0  0  0  0  0
  -10.3531   -2.5373  -20.8817 H   0  0  0  0  0  0  0  0  0  0  0  0
   -9.6849   -4.1692  -20.7944 H   0  0  0  0  0  0  0  0  0  0  0  0
  -12.3707   -4.0886  -20.5575 H   0  0  0  0  0  0  0  0  0  0  0  0
  -12.9161   -4.8699  -22.0624 H   0  0  0  0  0  0  0  0  0  0  0  0
  -13.4227   -3.5226  -23.8655 H   0  0  0  0  0  0  0  0  0  0  0  0
  -13.7955   -0.7643  -23.6686 H   0  0  0  0  0  0  0  0  0  0  0  0
  -15.3184   -1.4193  -23.0404 H   0  0  0  0  0  0  0  0  0  0  0  0
  -14.8328   -1.7593  -24.7190 H   0  0  0  0  0  0  0  0  0  0  0  0
  1  2  1  0
  2  3  1  0
  3  4  2  0
  3  5  1  0
  5  6  1  0
  6  7  1  0
  8  7  1  1
  8  9  1  0
  9 10  2  0
  9 11  1  0
 11 12  1  0
 12 13  2  0
 13 14  1  0
 14 15  2  0
 15 16  1  0
 16 17  2  0
 17 18  1  0
 18 19  2  0
 19 20  1  0
 20 21  2  0
 20 22  1  0
 19 23  1  0
 18 24  1  0
 17 25  1  0
 15 26  1  0
 13 27  1  0
 11 28  1  0
 28 29  1  0
 29 30  1  0
 30 31  1  0
 30 32  1  0
 30 33  1  0
 29 34  1  6
 28 35  1  0
 28 36  1  0
  8 37  1  0
 37 38  2  0
 38 39  1  0
 39 40  2  0
 40 41  1  0
 41 42  2  0
 42 43  1  0
 43 44  2  0
 41 45  1  0
 40 46  1  0
 39 47  1  0
 38 48  1  0
  7 49  1  0
  7 50  1  0
  5 51  1  0
  5 52  1  0
  2 53  1  0
  1 54  1  0
  1 55  1  0
  1 56  1  0
 43  6  1  0
 29  8  1  0
 42 37  1  0
 21 12  1  0
 21 16  1  0
M  END
>  <cnnaffinities>  (36) 
[6.21972]

>  <score>  (36) 
6.21972

>  <index>  (36) 
37

>  <Smiles>  (36) 
C(N(C(=O)C(N1C([C@@]2(C(=O)N(c3c(nc(c4c(c(c(c(c34)[H])[H])[H])[H])[H])[H])C([C@@]2(C([H])([H])[H])[H])([H])[H])c2c(c(c(c(c2C1=O)[H])[H])[H])[H])([H])[H])([H])[H])[H])([H])([H])[H]

>  <h>  (36) 
<NA>

>  <Training>  (36) 
True

>  <Success>  (36) 
True

>  <enamine_searched>  (36) 
False

>  <enamine_id>  (36) 
nan

$$$$

     RDKit          3D

 46 48  0  0  0  0  0  0  0  0999 V2000
   -8.1582   -4.6949  -26.5424 C   0  0  0  0  0  0  0  0  0  0  0  0
   -8.6538   -4.9601  -25.1186 C   0  0  1  0  0  0  0  0  0  0  0  0
   -7.5895   -5.5253  -24.1814 C   0  0  0  0  0  0  0  0  0  0  0  0
   -6.6146   -4.5189  -23.5534 C   0  0  1  0  0  0  0  0  0  0  0  0
   -5.4118   -4.1595  -24.4400 C   0  0  0  0  0  0  0  0  0  0  0  0
   -4.6074   -3.7381  -23.8293 H   0  0  0  0  0  0  0  0  0  0  0  0
   -5.6632   -3.4319  -25.2147 H   0  0  0  0  0  0  0  0  0  0  0  0
   -5.0163   -5.0546  -24.9376 H   0  0  0  0  0  0  0  0  0  0  0  0
   -7.3245   -3.3381  -23.0133 N   0  0  0  0  0  0  0  0  0  0  0  0
   -6.7236   -2.7038  -21.9368 C   0  0  0  0  0  0  0  0  0  0  0  0
   -5.6775   -3.1188  -21.4638 O   0  0  0  0  0  0  0  0  0  0  0  0
   -7.4075   -1.4705  -21.2811 C   0  0  0  0  0  0  0  0  0  0  0  0
   -6.5779   -0.8348  -20.1854 C   0  0  0  0  0  0  0  0  0  0  0  0
   -6.8735   -1.0479  -18.8644 C   0  0  0  0  0  0  0  0  0  0  0  0
   -6.1919   -0.5432  -17.7988 N   0  0  0  0  0  0  0  0  0  0  0  0
   -5.1598    0.2214  -18.0648 C   0  0  0  0  0  0  0  0  0  0  0  0
   -4.7220    0.5295  -19.3805 C   0  0  0  0  0  0  0  0  0  0  0  0
   -3.5939    1.3567  -19.6226 C   0  0  0  0  0  0  0  0  0  0  0  0
   -3.1926    1.6339  -20.9015 C   0  0  0  0  0  0  0  0  0  0  0  0
   -3.9047    1.0917  -21.9942 C   0  0  0  0  0  0  0  0  0  0  0  0
   -5.0005    0.2896  -21.7868 C   0  0  0  0  0  0  0  0  0  0  0  0
   -5.4451   -0.0139  -20.4735 C   0  0  0  0  0  0  0  0  0  0  0  0
   -5.5346   -0.1229  -22.6375 H   0  0  0  0  0  0  0  0  0  0  0  0
   -3.5807    1.3171  -23.0058 H   0  0  0  0  0  0  0  0  0  0  0  0
   -2.3313    2.2721  -21.0867 H   0  0  0  0  0  0  0  0  0  0  0  0
   -3.0595    1.7736  -18.7711 H   0  0  0  0  0  0  0  0  0  0  0  0
   -4.6042    0.6279  -17.2159 H   0  0  0  0  0  0  0  0  0  0  0  0
   -7.7215   -1.6717  -18.5874 H   0  0  0  0  0  0  0  0  0  0  0  0
   -7.6717   -0.7136  -22.0319 H   0  0  0  0  0  0  0  0  0  0  0  0
   -8.3595   -1.8079  -20.8477 H   0  0  0  0  0  0  0  0  0  0  0  0
   -8.4099   -2.7195  -23.7934 C   0  0  1  0  0  0  0  0  0  0  0  0
   -7.9392   -1.6594  -24.8005 C   0  0  0  0  0  0  0  0  0  0  0  0
   -7.4433   -2.0882  -25.6754 H   0  0  0  0  0  0  0  0  0  0  0  0
   -8.7983   -1.0848  -25.1700 H   0  0  0  0  0  0  0  0  0  0  0  0
   -7.2435   -0.9498  -24.3425 H   0  0  0  0  0  0  0  0  0  0  0  0
   -9.3296   -3.7776  -24.4246 C   0  0  0  0  0  0  0  0  0  0  0  0
   -9.9793   -4.1699  -23.6351 H   0  0  0  0  0  0  0  0  0  0  0  0
   -9.9956   -3.2777  -25.1357 H   0  0  0  0  0  0  0  0  0  0  0  0
   -9.0329   -2.1949  -23.0632 H   0  0  0  0  0  0  0  0  0  0  0  0
   -6.1939   -5.0186  -22.6795 H   0  0  0  0  0  0  0  0  0  0  0  0
   -8.0925   -6.0557  -23.3655 H   0  0  0  0  0  0  0  0  0  0  0  0
   -7.0110   -6.2881  -24.7145 H   0  0  0  0  0  0  0  0  0  0  0  0
   -9.4274   -5.7357  -25.2241 H   0  0  0  0  0  0  0  0  0  0  0  0
   -7.9239   -5.6404  -27.0468 H   0  0  0  0  0  0  0  0  0  0  0  0
   -8.9304   -4.1944  -27.1380 H   0  0  0  0  0  0  0  0  0  0  0  0
   -7.2550   -4.0808  -26.5815 H   0  0  0  0  0  0  0  0  0  0  0  0
  1  2  1  0
  2  3  1  0
  3  4  1  0
  4  5  1  0
  5  6  1  0
  5  7  1  0
  5  8  1  0
  4  9  1  0
  9 10  1  0
 10 11  2  0
 10 12  1  0
 12 13  1  0
 13 14  2  0
 14 15  1  0
 15 16  2  0
 16 17  1  0
 17 18  2  0
 18 19  1  0
 19 20  2  0
 20 21  1  0
 21 22  2  0
 21 23  1  0
 20 24  1  0
 19 25  1  0
 18 26  1  0
 16 27  1  0
 14 28  1  0
 12 29  1  0
 12 30  1  0
  9 31  1  0
 31 32  1  0
 32 33  1  0
 32 34  1  0
 32 35  1  0
 31 36  1  0
 36 37  1  0
 36 38  1  0
 31 39  1  1
  4 40  1  1
  3 41  1  0
  3 42  1  0
  2 43  1  6
  1 44  1  0
  1 45  1  0
  1 46  1  0
 36  2  1  0
 22 13  1  0
 22 17  1  0
M  END
>  <cnnaffinities>  (37) 
[5.12843]

>  <score>  (37) 
5.12843

>  <index>  (37) 
38

>  <Smiles>  (37) 
C([C@]1(C([C@@](C([H])([H])[H])(N(C(=O)C(c2c(nc(c3c(c(c(c(c23)[H])[H])[H])[H])[H])[H])([H])[H])[C@@](C([H])([H])[H])(C1([H])[H])[H])[H])([H])[H])[H])([H])([H])[H]

>  <h>  (37) 
<NA>

>  <Training>  (37) 
True

>  <Success>  (37) 
True

>  <enamine_searched>  (37) 
False

>  <enamine_id>  (37) 
nan

$$$$

     RDKit          3D

 40 44  0  0  0  0  0  0  0  0999 V2000
   -7.2317    0.9543  -25.6021 C   0  0  0  0  0  0  0  0  0  0  0  0
   -6.5000   -0.3686  -25.4067 C   0  0  0  0  0  0  0  0  0  0  0  0
   -5.2981   -0.4677  -25.5822 O   0  0  0  0  0  0  0  0  0  0  0  0
   -7.2547   -1.4516  -25.0427 N   0  0  0  0  0  0  0  0  0  0  0  0
   -6.6458   -2.7648  -24.7205 C   0  0  0  0  0  0  0  0  0  0  0  0
   -7.8231   -3.4990  -24.0343 C   0  0  2  0  0  0  0  0  0  0  0  0
   -8.9945   -2.9684  -24.8668 C   0  0  0  0  0  0  0  0  0  0  0  0
   -8.6586   -1.5015  -24.5571 C   0  0  1  0  0  0  0  0  0  0  0  0
   -8.5976   -1.5848  -23.0821 C   0  0  0  0  0  0  0  0  0  0  0  0
   -8.1601   -0.6181  -22.1222 C   0  0  0  0  0  0  0  0  0  0  0  0
   -8.3100    0.5821  -22.0792 O   0  0  0  0  0  1  0  0  0  0  0  0
   -7.4073   -1.3993  -21.1896 N   0  0  0  0  0  0  0  0  0  0  0  0
   -6.5883   -0.8208  -20.1751 C   0  0  0  0  0  0  0  0  0  0  0  0
   -6.8838   -1.0546  -18.8581 C   0  0  0  0  0  0  0  0  0  0  0  0
   -6.1926   -0.5431  -17.8071 N   0  0  0  0  0  0  0  0  0  0  0  0
   -5.1619    0.2225  -18.0692 C   0  0  0  0  0  0  0  0  0  0  0  0
   -4.7227    0.5332  -19.3882 C   0  0  0  0  0  0  0  0  0  0  0  0
   -3.5892    1.3589  -19.6293 C   0  0  0  0  0  0  0  0  0  0  0  0
   -3.1895    1.6255  -20.9095 C   0  0  0  0  0  0  0  0  0  0  0  0
   -3.8931    1.0752  -22.0041 C   0  0  0  0  0  0  0  0  0  0  0  0
   -4.9854    0.2731  -21.7958 C   0  0  0  0  0  0  0  0  0  0  0  0
   -5.4443   -0.0074  -20.4801 C   0  0  0  0  0  0  0  0  0  0  0  0
   -5.5108   -0.1543  -22.6454 H   0  0  0  0  0  0  0  0  0  0  0  0
   -3.5715    1.2857  -23.0203 H   0  0  0  0  0  0  0  0  0  0  0  0
   -2.3288    2.2615  -21.0994 H   0  0  0  0  0  0  0  0  0  0  0  0
   -3.0543    1.7775  -18.7793 H   0  0  0  0  0  0  0  0  0  0  0  0
   -4.6069    0.6248  -17.2178 H   0  0  0  0  0  0  0  0  0  0  0  0
   -7.7373   -1.6751  -18.6000 H   0  0  0  0  0  0  0  0  0  0  0  0
   -7.2462   -2.7307  -21.6335 C   0  0  0  0  0  0  0  0  0  0  0  0
   -6.5160   -3.5726  -21.1660 O   0  0  0  0  0  0  0  0  0  0  0  0
   -8.0968   -2.8213  -22.7424 N   0  0  0  0  0  0  0  0  0  0  0  0
   -9.2957   -0.7210  -24.9736 H   0  0  0  0  0  0  0  0  0  0  0  0
   -9.9606   -3.2810  -24.4789 H   0  0  0  0  0  0  0  0  0  0  0  0
   -8.9157   -3.2079  -25.9297 H   0  0  0  0  0  0  0  0  0  0  0  0
   -7.7297   -4.5732  -23.9233 H   0  0  0  0  0  0  0  0  0  0  0  0
   -5.7865   -2.6791  -24.0514 H   0  0  0  0  0  0  0  0  0  0  0  0
   -6.3245   -3.2732  -25.6336 H   0  0  0  0  0  0  0  0  0  0  0  0
   -6.4986    1.6969  -25.9131 H   0  0  0  0  0  0  0  0  0  0  0  0
   -7.7135    1.2972  -24.6825 H   0  0  0  0  0  0  0  0  0  0  0  0
   -7.9967    0.8939  -26.3817 H   0  0  0  0  0  0  0  0  0  0  0  0
  1  2  1  0
  2  3  2  0
  2  4  1  0
  4  5  1  0
  5  6  1  0
  6  7  1  0
  7  8  1  0
  8  9  1  0
  9 10  2  0
 10 11  1  0
 10 12  1  0
 12 13  1  0
 13 14  2  0
 14 15  1  0
 15 16  2  0
 16 17  1  0
 17 18  2  0
 18 19  1  0
 19 20  2  0
 20 21  1  0
 21 22  2  0
 21 23  1  0
 20 24  1  0
 19 25  1  0
 18 26  1  0
 16 27  1  0
 14 28  1  0
 12 29  1  0
 29 30  2  0
 29 31  1  0
  8 32  1  1
  7 33  1  0
  7 34  1  0
  6 35  1  1
  5 36  1  0
  5 37  1  0
  1 38  1  0
  1 39  1  0
  1 40  1  0
  8  4  1  0
 31  9  1  0
 31  6  1  0
 22 13  1  0
 22 17  1  0
M  CHG  1  11  -1
M  END
>  <cnnaffinities>  (38) 
[5.43321, 5.39208]

>  <score>  (38) 
5.43321

>  <index>  (38) 
39

>  <Smiles>  (38) 
C(C(=O)N1C([C@@]2(C([C@]1(c1c([O-])n(c3c(nc(c4c(c(c(c(c34)[H])[H])[H])[H])[H])[H])c(=O)n21)[H])([H])[H])[H])([H])[H])([H])([H])[H]

>  <h>  (38) 
<NA>

>  <Training>  (38) 
True

>  <Success>  (38) 
True

>  <enamine_searched>  (38) 
False

>  <enamine_id>  (38) 
nan

$$$$

     RDKit          3D

 40 42  0  0  0  0  0  0  0  0999 V2000
   -9.2654   -6.6083  -25.1431 C   0  0  0  0  0  0  0  0  0  0  0  0
   -8.9084   -5.7633  -23.9199 C   0  0  0  0  0  0  0  0  0  0  0  0
   -7.4647   -5.9500  -23.4683 C   0  0  0  0  0  0  0  0  0  0  0  0
   -7.2291   -5.1532  -22.1900 C   0  0  0  0  0  0  0  0  0  0  0  0
   -7.6133   -3.7540  -22.3191 N   0  0  0  0  0  0  0  0  0  0  0  0
   -6.7827   -2.8185  -21.7582 C   0  0  0  0  0  0  0  0  0  0  0  0
   -5.5866   -3.0369  -21.6212 O   0  0  0  0  0  0  0  0  0  0  0  0
   -7.4077   -1.4972  -21.2648 C   0  0  0  0  0  0  0  0  0  0  0  0
   -6.5834   -0.8351  -20.1850 C   0  0  0  0  0  0  0  0  0  0  0  0
   -6.8819   -1.0498  -18.8651 C   0  0  0  0  0  0  0  0  0  0  0  0
   -6.1985   -0.5443  -17.8028 N   0  0  0  0  0  0  0  0  0  0  0  0
   -5.1647    0.2148  -18.0711 C   0  0  0  0  0  0  0  0  0  0  0  0
   -4.7249    0.5237  -19.3858 C   0  0  0  0  0  0  0  0  0  0  0  0
   -3.5979    1.3517  -19.6216 C   0  0  0  0  0  0  0  0  0  0  0  0
   -3.1938    1.6264  -20.8990 C   0  0  0  0  0  0  0  0  0  0  0  0
   -3.9021    1.0816  -21.9936 C   0  0  0  0  0  0  0  0  0  0  0  0
   -4.9954    0.2773  -21.7906 C   0  0  0  0  0  0  0  0  0  0  0  0
   -5.4460   -0.0200  -20.4771 C   0  0  0  0  0  0  0  0  0  0  0  0
   -5.5243   -0.1522  -22.6358 H   0  0  0  0  0  0  0  0  0  0  0  0
   -3.5795    1.3113  -23.0053 H   0  0  0  0  0  0  0  0  0  0  0  0
   -2.3363    2.2688  -21.0744 H   0  0  0  0  0  0  0  0  0  0  0  0
   -3.0836    1.7677  -18.7580 H   0  0  0  0  0  0  0  0  0  0  0  0
   -4.6195    0.6249  -17.2176 H   0  0  0  0  0  0  0  0  0  0  0  0
   -7.7312   -1.6712  -18.5830 H   0  0  0  0  0  0  0  0  0  0  0  0
   -7.5575   -0.8209  -22.1175 H   0  0  0  0  0  0  0  0  0  0  0  0
   -8.4080   -1.7140  -20.8679 H   0  0  0  0  0  0  0  0  0  0  0  0
   -8.9591   -3.4970  -22.8019 C   0  0  0  0  0  0  0  0  0  0  0  0
   -9.2338   -4.2826  -24.0931 C   0  0  0  0  0  0  0  0  0  0  0  0
  -10.2990   -4.1767  -24.3363 H   0  0  0  0  0  0  0  0  0  0  0  0
   -8.6518   -3.8679  -24.9311 H   0  0  0  0  0  0  0  0  0  0  0  0
   -9.0610   -2.4233  -22.9870 H   0  0  0  0  0  0  0  0  0  0  0  0
   -9.7070   -3.7831  -22.0379 H   0  0  0  0  0  0  0  0  0  0  0  0
   -7.8279   -5.6278  -21.3943 H   0  0  0  0  0  0  0  0  0  0  0  0
   -6.1826   -5.1433  -21.8852 H   0  0  0  0  0  0  0  0  0  0  0  0
   -6.7519   -5.6774  -24.2610 H   0  0  0  0  0  0  0  0  0  0  0  0
   -7.3273   -7.0112  -23.2225 H   0  0  0  0  0  0  0  0  0  0  0  0
   -9.4764   -6.0784  -23.0489 H   0  0  0  0  0  0  0  0  0  0  0  0
   -9.1020   -7.6731  -24.9563 H   0  0  0  0  0  0  0  0  0  0  0  0
  -10.3124   -6.4855  -25.4343 H   0  0  0  0  0  0  0  0  0  0  0  0
   -8.6563   -6.3305  -26.0098 H   0  0  0  0  0  0  0  0  0  0  0  0
  1  2  1  0
  2  3  1  0
  3  4  1  0
  4  5  1  0
  5  6  1  0
  6  7  2  0
  6  8  1  0
  8  9  1  0
  9 10  2  0
 10 11  1  0
 11 12  2  0
 12 13  1  0
 13 14  2  0
 14 15  1  0
 15 16  2  0
 16 17  1  0
 17 18  2  0
 17 19  1  0
 16 20  1  0
 15 21  1  0
 14 22  1  0
 12 23  1  0
 10 24  1  0
  8 25  1  0
  8 26  1  0
  5 27  1  0
 27 28  1  0
 28 29  1  0
 28 30  1  0
 27 31  1  0
 27 32  1  0
  4 33  1  0
  4 34  1  0
  3 35  1  0
  3 36  1  0
  2 37  1  0
  1 38  1  0
  1 39  1  0
  1 40  1  0
 28  2  1  0
 18  9  1  0
 18 13  1  0
M  END
>  <cnnaffinities>  (39) 
[4.41201, 4.41179, 4.75985, 4.75983, 4.52839, 4.52836]

>  <score>  (39) 
4.41201

>  <index>  (39) 
40

>  <Smiles>  (39) 
C(C1(C(C(N(C(=O)C(c2c(nc(c3c(c(c(c(c23)[H])[H])[H])[H])[H])[H])([H])[H])C(C1([H])[H])([H])[H])([H])[H])([H])[H])[H])([H])([H])[H]

>  <h>  (39) 
<NA>

>  <Training>  (39) 
True

>  <Success>  (39) 
True

>  <enamine_searched>  (39) 
False

>  <enamine_id>  (39) 
nan

$$$$

     RDKit          3D

 67 71  0  0  0  0  0  0  0  0999 V2000
   -7.6558    2.8892  -21.9920 C   0  0  0  0  0  0  0  0  0  0  0  0
   -8.7706    2.4135  -22.7993 N   0  0  0  0  0  0  0  0  0  0  0  0
   -8.5060    1.6569  -23.8998 C   0  0  0  0  0  0  0  0  0  0  0  0
   -7.3652    1.4115  -24.2626 O   0  0  0  0  0  0  0  0  0  0  0  0
   -9.7236    1.0783  -24.6275 C   0  0  0  0  0  0  0  0  0  0  0  0
  -10.1587   -0.1250  -23.9470 N   0  0  0  0  0  0  0  0  0  0  0  0
   -9.2524   -1.2613  -23.9019 C   0  0  0  0  0  0  0  0  0  0  0  0
   -9.3023   -1.9824  -22.5256 C   0  0  2  0  0  0  0  0  0  0  0  0
   -8.7056   -1.0334  -21.4487 C   0  0  0  0  0  0  0  0  0  0  0  0
   -9.2394   -0.0624  -20.9479 O   0  0  0  0  0  0  0  0  0  0  0  0
   -7.4117   -1.4393  -21.1786 N   0  0  0  0  0  0  0  0  0  0  0  0
   -6.6305   -0.8320  -20.1629 C   0  0  0  0  0  0  0  0  0  0  0  0
   -6.9459   -1.0469  -18.8424 C   0  0  0  0  0  0  0  0  0  0  0  0
   -6.2395   -0.5527  -17.7989 N   0  0  0  0  0  0  0  0  0  0  0  0
   -5.1950    0.1904  -18.0757 C   0  0  0  0  0  0  0  0  0  0  0  0
   -4.7570    0.4959  -19.3938 C   0  0  0  0  0  0  0  0  0  0  0  0
   -3.6404    1.3387  -19.6352 C   0  0  0  0  0  0  0  0  0  0  0  0
   -3.2627    1.6409  -20.9142 C   0  0  0  0  0  0  0  0  0  0  0  0
   -3.9910    1.1289  -22.0105 C   0  0  0  0  0  0  0  0  0  0  0  0
   -5.0879    0.3201  -21.8043 C   0  0  0  0  0  0  0  0  0  0  0  0
   -5.4918   -0.0283  -20.4848 C   0  0  0  0  0  0  0  0  0  0  0  0
   -5.6813    0.0002  -22.6575 H   0  0  0  0  0  0  0  0  0  0  0  0
   -3.6949    1.3870  -23.0230 H   0  0  0  0  0  0  0  0  0  0  0  0
   -2.4123    2.2954  -21.0946 H   0  0  0  0  0  0  0  0  0  0  0  0
   -3.1146    1.7528  -18.7790 H   0  0  0  0  0  0  0  0  0  0  0  0
   -4.6390    0.5998  -17.2325 H   0  0  0  0  0  0  0  0  0  0  0  0
   -7.8057   -1.6634  -18.5874 H   0  0  0  0  0  0  0  0  0  0  0  0
   -6.9722   -2.5726  -21.9694 C   0  0  0  0  0  0  0  0  0  0  0  0
   -8.3058   -3.1752  -22.4514 C   0  0  2  0  0  0  0  0  0  0  0  0
   -8.2032   -3.9802  -23.7458 C   0  0  0  0  0  0  0  0  0  0  0  0
   -7.2703   -5.4831  -23.5234 S   0  0  0  0  0  0  0  0  0  0  0  0
   -5.8698   -5.1178  -23.3625 O   0  0  0  0  0  0  0  0  0  0  0  0
   -7.9655   -6.2892  -22.5297 O   0  0  0  0  0  0  0  0  0  0  0  0
   -7.4161   -6.2516  -24.9835 N   0  0  0  0  0  0  0  0  0  0  0  0
   -8.6673   -6.9498  -25.2499 C   0  0  0  0  0  0  0  0  0  0  0  0
   -9.4953   -6.2820  -25.5378 H   0  0  0  0  0  0  0  0  0  0  0  0
   -8.4999   -7.6517  -26.0720 H   0  0  0  0  0  0  0  0  0  0  0  0
   -8.9524   -7.5202  -24.3634 H   0  0  0  0  0  0  0  0  0  0  0  0
   -6.7493   -5.6514  -26.1327 C   0  0  0  0  0  0  0  0  0  0  0  0
   -7.3001   -4.8029  -26.5701 H   0  0  0  0  0  0  0  0  0  0  0  0
   -6.6483   -6.4168  -26.9074 H   0  0  0  0  0  0  0  0  0  0  0  0
   -5.7470   -5.3247  -25.8459 H   0  0  0  0  0  0  0  0  0  0  0  0
   -9.2060   -4.2622  -24.0855 H   0  0  0  0  0  0  0  0  0  0  0  0
   -7.7026   -3.3937  -24.5256 H   0  0  0  0  0  0  0  0  0  0  0  0
   -8.6412   -3.8426  -21.6508 H   0  0  0  0  0  0  0  0  0  0  0  0
   -6.3347   -2.2598  -22.8109 H   0  0  0  0  0  0  0  0  0  0  0  0
   -6.3930   -3.2852  -21.3768 H   0  0  0  0  0  0  0  0  0  0  0  0
  -10.7674   -2.3212  -22.2761 C   0  0  0  0  0  0  0  0  0  0  0  0
  -11.1936   -3.4641  -21.5847 C   0  0  0  0  0  0  0  0  0  0  0  0
  -12.5207   -3.5843  -21.2129 C   0  0  0  0  0  0  0  0  0  0  0  0
  -12.8889   -4.5689  -20.3771 F   0  0  0  0  0  0  0  0  0  0  0  0
  -13.5045   -2.6931  -21.6138 C   0  0  0  0  0  0  0  0  0  0  0  0
  -13.1058   -1.6086  -22.3624 C   0  0  0  0  0  0  0  0  0  0  0  0
  -11.7614   -1.4128  -22.6769 C   0  0  0  0  0  0  0  0  0  0  0  0
  -11.4266   -0.1820  -23.4541 C   0  0  0  0  0  0  0  0  0  0  0  0
  -12.2521    0.7091  -23.6312 O   0  0  0  0  0  0  0  0  0  0  0  0
  -13.8275   -0.8892  -22.7284 H   0  0  0  0  0  0  0  0  0  0  0  0
  -14.5364   -2.8605  -21.3213 H   0  0  0  0  0  0  0  0  0  0  0  0
  -10.5089   -4.2311  -21.2415 H   0  0  0  0  0  0  0  0  0  0  0  0
   -9.5121   -1.9648  -24.7058 H   0  0  0  0  0  0  0  0  0  0  0  0
   -8.2475   -0.8763  -24.0910 H   0  0  0  0  0  0  0  0  0  0  0  0
   -9.4723    0.8588  -25.6742 H   0  0  0  0  0  0  0  0  0  0  0  0
  -10.5719    1.7627  -24.6215 H   0  0  0  0  0  0  0  0  0  0  0  0
   -9.6548    2.2495  -22.3398 H   0  0  0  0  0  0  0  0  0  0  0  0
   -8.0333    3.5374  -21.2036 H   0  0  0  0  0  0  0  0  0  0  0  0
   -7.1046    2.0501  -21.5362 H   0  0  0  0  0  0  0  0  0  0  0  0
   -6.9888    3.5084  -22.6055 H   0  0  0  0  0  0  0  0  0  0  0  0
  1  2  1  0
  2  3  1  0
  3  4  2  0
  3  5  1  0
  5  6  1  0
  6  7  1  0
  8  7  1  6
  8  9  1  0
  9 10  2  0
  9 11  1  0
 11 12  1  0
 12 13  2  0
 13 14  1  0
 14 15  2  0
 15 16  1  0
 16 17  2  0
 17 18  1  0
 18 19  2  0
 19 20  1  0
 20 21  2  0
 20 22  1  0
 19 23  1  0
 18 24  1  0
 17 25  1  0
 15 26  1  0
 13 27  1  0
 11 28  1  0
 28 29  1  0
 29 30  1  0
 30 31  1  0
 31 32  2  0
 31 33  2  0
 31 34  1  0
 34 35  1  0
 35 36  1  0
 35 37  1  0
 35 38  1  0
 34 39  1  0
 39 40  1  0
 39 41  1  0
 39 42  1  0
 30 43  1  0
 30 44  1  0
 29 45  1  1
 28 46  1  0
 28 47  1  0
  8 48  1  0
 48 49  2  0
 49 50  1  0
 50 51  1  0
 50 52  2  0
 52 53  1  0
 53 54  2  0
 54 55  1  0
 55 56  2  0
 53 57  1  0
 52 58  1  0
 49 59  1  0
  7 60  1  0
  7 61  1  0
  5 62  1  0
  5 63  1  0
  2 64  1  0
  1 65  1  0
  1 66  1  0
  1 67  1  0
 55  6  1  0
 29  8  1  0
 54 48  1  0
 21 12  1  0
 21 16  1  0
M  END
>  <cnnaffinities>  (40) 
[7.05893]

>  <score>  (40) 
7.05893

>  <index>  (40) 
41

>  <Smiles>  (40) 
C(N(C(=O)C(N1C([C@@]2(C(=O)N(c3c(nc(c4c(c(c(c(c34)[H])[H])[H])[H])[H])[H])C([C@@]2(C(S(=O)(=O)N(C([H])([H])[H])C([H])([H])[H])([H])[H])[H])([H])[H])c2c(c(F)c(c(c2C1=O)[H])[H])[H])([H])[H])([H])[H])[H])([H])([H])[H]

>  <h>  (40) 
<NA>

>  <Training>  (40) 
True

>  <Success>  (40) 
True

>  <enamine_searched>  (40) 
False

>  <enamine_id>  (40) 
nan

$$$$

     RDKit          3D

 67 72  0  0  0  0  0  0  0  0999 V2000
   -7.6024    3.1100  -21.9225 C   0  0  0  0  0  0  0  0  0  0  0  0
   -8.7236    2.6423  -22.7160 N   0  0  0  0  0  0  0  0  0  0  0  0
   -8.3919    1.8712  -23.7939 C   0  0  0  0  0  0  0  0  0  0  0  0
   -7.2221    1.6550  -24.0847 O   0  0  0  0  0  0  0  0  0  0  0  0
   -9.5285    1.2762  -24.6176 C   0  0  0  0  0  0  0  0  0  0  0  0
   -9.9810    0.0425  -24.0086 N   0  0  0  0  0  0  0  0  0  0  0  0
   -9.0789   -1.1007  -23.9753 C   0  0  0  0  0  0  0  0  0  0  0  0
   -9.2126   -1.8860  -22.6449 C   0  0  2  0  0  0  0  0  0  0  0  0
   -8.6590   -1.0095  -21.4944 C   0  0  0  0  0  0  0  0  0  0  0  0
   -9.2163   -0.0664  -20.9688 O   0  0  0  0  0  0  0  0  0  0  0  0
   -7.3881   -1.4463  -21.1879 N   0  0  0  0  0  0  0  0  0  0  0  0
   -6.6119   -0.8380  -20.1711 C   0  0  0  0  0  0  0  0  0  0  0  0
   -6.9309   -1.0526  -18.8524 C   0  0  0  0  0  0  0  0  0  0  0  0
   -6.2347   -0.5527  -17.8031 N   0  0  0  0  0  0  0  0  0  0  0  0
   -5.1941    0.1987  -18.0768 C   0  0  0  0  0  0  0  0  0  0  0  0
   -4.7593    0.5124  -19.3960 C   0  0  0  0  0  0  0  0  0  0  0  0
   -3.6416    1.3544  -19.6362 C   0  0  0  0  0  0  0  0  0  0  0  0
   -3.2649    1.6584  -20.9149 C   0  0  0  0  0  0  0  0  0  0  0  0
   -3.9904    1.1501  -22.0142 C   0  0  0  0  0  0  0  0  0  0  0  0
   -5.0846    0.3397  -21.8108 C   0  0  0  0  0  0  0  0  0  0  0  0
   -5.4867   -0.0151  -20.4915 C   0  0  0  0  0  0  0  0  0  0  0  0
   -5.6642    0.0115  -22.6695 H   0  0  0  0  0  0  0  0  0  0  0  0
   -3.6845    1.4027  -23.0253 H   0  0  0  0  0  0  0  0  0  0  0  0
   -2.4086    2.3018  -21.0932 H   0  0  0  0  0  0  0  0  0  0  0  0
   -3.1073    1.7578  -18.7797 H   0  0  0  0  0  0  0  0  0  0  0  0
   -4.6271    0.6036  -17.2364 H   0  0  0  0  0  0  0  0  0  0  0  0
   -7.7935   -1.6671  -18.6068 H   0  0  0  0  0  0  0  0  0  0  0  0
   -6.9483   -2.5842  -21.9728 C   0  0  0  0  0  0  0  0  0  0  0  0
   -8.2520   -3.1120  -22.6009 C   0  0  2  0  0  0  0  0  0  0  0  0
   -8.0447   -3.8330  -23.9380 C   0  0  0  0  0  0  0  0  0  0  0  0
   -7.2855   -5.0433  -23.7725 N   0  0  0  0  0  0  0  0  0  0  0  0
   -6.9001   -5.8475  -24.8135 C   0  0  0  0  0  0  0  0  0  0  0  0
   -7.3570   -5.5165  -26.4642 S   0  0  0  0  0  0  0  0  0  0  0  0
   -6.4681   -6.9345  -26.9360 C   0  0  0  0  0  0  0  0  0  0  0  0
   -5.8887   -7.5787  -25.9818 N   0  0  0  0  0  0  0  0  0  0  0  0
   -6.1326   -6.9784  -24.7595 C   0  0  0  0  0  0  0  0  0  0  0  0
   -5.5673   -7.5913  -23.5147 C   0  0  0  0  0  0  0  0  0  0  0  0
   -5.0351   -8.5016  -23.7952 H   0  0  0  0  0  0  0  0  0  0  0  0
   -6.3466   -7.8654  -22.7915 H   0  0  0  0  0  0  0  0  0  0  0  0
   -4.8568   -6.9271  -23.0060 H   0  0  0  0  0  0  0  0  0  0  0  0
   -6.4179   -7.2349  -27.9744 H   0  0  0  0  0  0  0  0  0  0  0  0
   -7.0079   -5.3142  -22.8418 H   0  0  0  0  0  0  0  0  0  0  0  0
   -7.5253   -3.1661  -24.6392 H   0  0  0  0  0  0  0  0  0  0  0  0
   -9.0229   -4.0581  -24.3807 H   0  0  0  0  0  0  0  0  0  0  0  0
   -8.6677   -3.8405  -21.8987 H   0  0  0  0  0  0  0  0  0  0  0  0
   -6.4711   -3.3280  -21.3265 H   0  0  0  0  0  0  0  0  0  0  0  0
   -6.2178   -2.2863  -22.7426 H   0  0  0  0  0  0  0  0  0  0  0  0
  -10.6951   -2.1760  -22.4500 C   0  0  0  0  0  0  0  0  0  0  0  0
  -11.1437   -3.2238  -21.6421 C   0  0  0  0  0  0  0  0  0  0  0  0
  -12.4928   -3.3538  -21.3543 C   0  0  0  0  0  0  0  0  0  0  0  0
  -12.9996   -4.5150  -20.1683 Cl  0  0  0  0  0  0  0  0  0  0  0  0
  -13.4632   -2.5334  -21.9230 C   0  0  0  0  0  0  0  0  0  0  0  0
  -13.0346   -1.5146  -22.7421 C   0  0  0  0  0  0  0  0  0  0  0  0
  -11.6768   -1.3163  -22.9726 C   0  0  0  0  0  0  0  0  0  0  0  0
  -11.3078   -0.0870  -23.7302 C   0  0  0  0  0  0  0  0  0  0  0  0
  -12.1344    0.7593  -24.0498 O   0  0  0  0  0  0  0  0  0  0  0  0
  -13.7314   -0.8149  -23.1881 H   0  0  0  0  0  0  0  0  0  0  0  0
  -14.5132   -2.6864  -21.6959 H   0  0  0  0  0  0  0  0  0  0  0  0
  -10.4575   -3.9311  -21.1892 H   0  0  0  0  0  0  0  0  0  0  0  0
   -8.0541   -0.7405  -24.1136 H   0  0  0  0  0  0  0  0  0  0  0  0
   -9.3146   -1.7755  -24.8082 H   0  0  0  0  0  0  0  0  0  0  0  0
  -10.3942    1.9459  -24.7032 H   0  0  0  0  0  0  0  0  0  0  0  0
   -9.1431    1.0723  -25.6217 H   0  0  0  0  0  0  0  0  0  0  0  0
   -9.5924    2.4636  -22.2101 H   0  0  0  0  0  0  0  0  0  0  0  0
   -7.9335    3.8904  -21.2353 H   0  0  0  0  0  0  0  0  0  0  0  0
   -6.8770    3.5449  -22.6125 H   0  0  0  0  0  0  0  0  0  0  0  0
   -7.0991    2.2816  -21.3829 H   0  0  0  0  0  0  0  0  0  0  0  0
  1  2  1  0
  2  3  1  0
  3  4  2  0
  3  5  1  0
  5  6  1  0
  6  7  1  0
  8  7  1  6
  8  9  1  0
  9 10  2  0
  9 11  1  0
 11 12  1  0
 12 13  2  0
 13 14  1  0
 14 15  2  0
 15 16  1  0
 16 17  2  0
 17 18  1  0
 18 19  2  0
 19 20  1  0
 20 21  2  0
 20 22  1  0
 19 23  1  0
 18 24  1  0
 17 25  1  0
 15 26  1  0
 13 27  1  0
 11 28  1  0
 28 29  1  0
 29 30  1  0
 30 31  1  0
 31 32  1  0
 32 33  1  0
 33 34  1  0
 34 35  2  0
 35 36  1  0
 36 37  1  0
 37 38  1  0
 37 39  1  0
 37 40  1  0
 34 41  1  0
 31 42  1  0
 30 43  1  0
 30 44  1  0
 29 45  1  1
 28 46  1  0
 28 47  1  0
  8 48  1  0
 48 49  2  0
 49 50  1  0
 50 51  1  0
 50 52  2  0
 52 53  1  0
 53 54  2  0
 54 55  1  0
 55 56  2  0
 53 57  1  0
 52 58  1  0
 49 59  1  0
  7 60  1  0
  7 61  1  0
  5 62  1  0
  5 63  1  0
  2 64  1  0
  1 65  1  0
  1 66  1  0
  1 67  1  0
 55  6  1  0
 29  8  1  0
 36 32  2  0
 54 48  1  0
 21 12  1  0
 21 16  1  0
M  END
>  <cnnaffinities>  (41) 
[7.04816, 7.06439]

>  <score>  (41) 
7.04816

>  <index>  (41) 
43

>  <Smiles>  (41) 
C(N(C(=O)C(N1C([C@@]2(C(=O)N(c3c(nc(c4c(c(c(c(c34)[H])[H])[H])[H])[H])[H])C([C@@]2(C(N(c2sc(nc2C([H])([H])[H])[H])[H])([H])[H])[H])([H])[H])c2c(c(Cl)c(c(c2C1=O)[H])[H])[H])([H])[H])([H])[H])[H])([H])([H])[H]

>  <h>  (41) 
<NA>

>  <Training>  (41) 
True

>  <Success>  (41) 
True

>  <enamine_searched>  (41) 
False

>  <enamine_id>  (41) 
nan

$$$$

     RDKit          3D

 60 64  0  0  0  0  0  0  0  0999 V2000
   -7.6123    3.0598  -21.9421 C   0  0  0  0  0  0  0  0  0  0  0  0
   -8.7632    2.5849  -22.6966 N   0  0  0  0  0  0  0  0  0  0  0  0
   -8.4769    1.7917  -23.7681 C   0  0  0  0  0  0  0  0  0  0  0  0
   -7.3184    1.5386  -24.0861 O   0  0  0  0  0  0  0  0  0  0  0  0
   -9.6430    1.2051  -24.5599 C   0  0  0  0  0  0  0  0  0  0  0  0
  -10.1010   -0.0088  -23.9153 N   0  0  0  0  0  0  0  0  0  0  0  0
   -9.2190   -1.1679  -23.8991 C   0  0  0  0  0  0  0  0  0  0  0  0
   -9.3021   -1.9151  -22.5436 C   0  0  2  0  0  0  0  0  0  0  0  0
   -8.7069   -0.9934  -21.4428 C   0  0  0  0  0  0  0  0  0  0  0  0
   -9.2420   -0.0270  -20.9350 O   0  0  0  0  0  0  0  0  0  0  0  0
   -7.4209   -1.4174  -21.1711 N   0  0  0  0  0  0  0  0  0  0  0  0
   -6.6263   -0.8220  -20.1591 C   0  0  0  0  0  0  0  0  0  0  0  0
   -6.9341   -1.0434  -18.8384 C   0  0  0  0  0  0  0  0  0  0  0  0
   -6.2284   -0.5521  -17.7923 N   0  0  0  0  0  0  0  0  0  0  0  0
   -5.1877    0.1972  -18.0721 C   0  0  0  0  0  0  0  0  0  0  0  0
   -4.7577    0.5126  -19.3928 C   0  0  0  0  0  0  0  0  0  0  0  0
   -3.6383    1.3523  -19.6350 C   0  0  0  0  0  0  0  0  0  0  0  0
   -3.2626    1.6521  -20.9153 C   0  0  0  0  0  0  0  0  0  0  0  0
   -3.9902    1.1407  -22.0107 C   0  0  0  0  0  0  0  0  0  0  0  0
   -5.0871    0.3348  -21.8041 C   0  0  0  0  0  0  0  0  0  0  0  0
   -5.4929   -0.0112  -20.4845 C   0  0  0  0  0  0  0  0  0  0  0  0
   -5.6693    0.0086  -22.6607 H   0  0  0  0  0  0  0  0  0  0  0  0
   -3.6859    1.3911  -23.0226 H   0  0  0  0  0  0  0  0  0  0  0  0
   -2.4072    2.2962  -21.0941 H   0  0  0  0  0  0  0  0  0  0  0  0
   -3.1050    1.7578  -18.7787 H   0  0  0  0  0  0  0  0  0  0  0  0
   -4.6219    0.6026  -17.2321 H   0  0  0  0  0  0  0  0  0  0  0  0
   -7.7915   -1.6646  -18.5922 H   0  0  0  0  0  0  0  0  0  0  0  0
   -6.9963   -2.5587  -21.9657 C   0  0  0  0  0  0  0  0  0  0  0  0
   -8.3309   -3.1274  -22.4874 C   0  0  2  0  0  0  0  0  0  0  0  0
   -8.1815   -3.9079  -23.7943 C   0  0  0  0  0  0  0  0  0  0  0  0
   -7.3929   -5.0639  -23.6295 O   0  0  0  0  0  0  0  0  0  0  0  0
   -8.1438   -6.2297  -23.4219 C   0  0  0  0  0  0  0  0  0  0  0  0
   -8.7222   -6.5066  -24.3154 H   0  0  0  0  0  0  0  0  0  0  0  0
   -8.8364   -6.1103  -22.5816 H   0  0  0  0  0  0  0  0  0  0  0  0
   -7.4481   -7.0383  -23.1889 H   0  0  0  0  0  0  0  0  0  0  0  0
   -7.6676   -3.2741  -24.5310 H   0  0  0  0  0  0  0  0  0  0  0  0
   -9.1747   -4.1545  -24.2068 H   0  0  0  0  0  0  0  0  0  0  0  0
   -8.6887   -3.8087  -21.7082 H   0  0  0  0  0  0  0  0  0  0  0  0
   -6.3405   -2.2483  -22.7955 H   0  0  0  0  0  0  0  0  0  0  0  0
   -6.4473   -3.2798  -21.3518 H   0  0  0  0  0  0  0  0  0  0  0  0
  -10.7791   -2.2164  -22.3176 C   0  0  0  0  0  0  0  0  0  0  0  0
  -11.2264   -3.3211  -21.5898 C   0  0  0  0  0  0  0  0  0  0  0  0
  -12.5612   -3.4292  -21.2367 C   0  0  0  0  0  0  0  0  0  0  0  0
  -13.0435   -4.6224  -20.0772 Cl  0  0  0  0  0  0  0  0  0  0  0  0
  -13.5294   -2.5418  -21.6902 C   0  0  0  0  0  0  0  0  0  0  0  0
  -13.1122   -1.4852  -22.4647 C   0  0  0  0  0  0  0  0  0  0  0  0
  -11.7621   -1.3116  -22.7518 C   0  0  0  0  0  0  0  0  0  0  0  0
  -11.3979   -0.0766  -23.5035 C   0  0  0  0  0  0  0  0  0  0  0  0
  -12.2094    0.8175  -23.7243 O   0  0  0  0  0  0  0  0  0  0  0  0
  -13.8078   -0.7483  -22.8459 H   0  0  0  0  0  0  0  0  0  0  0  0
  -14.5701   -2.6726  -21.4182 H   0  0  0  0  0  0  0  0  0  0  0  0
  -10.5519   -4.0938  -21.2447 H   0  0  0  0  0  0  0  0  0  0  0  0
   -8.1982   -0.8199  -24.0885 H   0  0  0  0  0  0  0  0  0  0  0  0
   -9.5006   -1.8614  -24.7031 H   0  0  0  0  0  0  0  0  0  0  0  0
  -10.5005    1.8840  -24.6314 H   0  0  0  0  0  0  0  0  0  0  0  0
   -9.2860    0.9725  -25.5719 H   0  0  0  0  0  0  0  0  0  0  0  0
   -9.6229    2.4367  -22.1740 H   0  0  0  0  0  0  0  0  0  0  0  0
   -7.9268    3.8597  -21.2691 H   0  0  0  0  0  0  0  0  0  0  0  0
   -6.8918    3.4679  -22.6533 H   0  0  0  0  0  0  0  0  0  0  0  0
   -7.1315    2.2399  -21.3791 H   0  0  0  0  0  0  0  0  0  0  0  0
  1  2  1  0
  2  3  1  0
  3  4  2  0
  3  5  1  0
  5  6  1  0
  6  7  1  0
  8  7  1  6
  8  9  1  0
  9 10  2  0
  9 11  1  0
 11 12  1  0
 12 13  2  0
 13 14  1  0
 14 15  2  0
 15 16  1  0
 16 17  2  0
 17 18  1  0
 18 19  2  0
 19 20  1  0
 20 21  2  0
 20 22  1  0
 19 23  1  0
 18 24  1  0
 17 25  1  0
 15 26  1  0
 13 27  1  0
 11 28  1  0
 28 29  1  0
 29 30  1  0
 30 31  1  0
 31 32  1  0
 32 33  1  0
 32 34  1  0
 32 35  1  0
 30 36  1  0
 30 37  1  0
 29 38  1  1
 28 39  1  0
 28 40  1  0
  8 41  1  0
 41 42  2  0
 42 43  1  0
 43 44  1  0
 43 45  2  0
 45 46  1  0
 46 47  2  0
 47 48  1  0
 48 49  2  0
 46 50  1  0
 45 51  1  0
 42 52  1  0
  7 53  1  0
  7 54  1  0
  5 55  1  0
  5 56  1  0
  2 57  1  0
  1 58  1  0
  1 59  1  0
  1 60  1  0
 48  6  1  0
 29  8  1  0
 47 41  1  0
 21 12  1  0
 21 16  1  0
M  END
>  <cnnaffinities>  (42) 
[6.62208, 6.4141, 6.36987, 6.44064, 6.37021]

>  <score>  (42) 
6.62208

>  <index>  (42) 
44

>  <Smiles>  (42) 
C(N(C(=O)C(N1C([C@@]2(C(=O)N(c3c(nc(c4c(c(c(c(c34)[H])[H])[H])[H])[H])[H])C([C@@]2(C(OC([H])([H])[H])([H])[H])[H])([H])[H])c2c(c(Cl)c(c(c2C1=O)[H])[H])[H])([H])[H])([H])[H])[H])([H])([H])[H]

>  <h>  (42) 
<NA>

>  <Training>  (42) 
True

>  <Success>  (42) 
True

>  <enamine_searched>  (42) 
False

>  <enamine_id>  (42) 
nan

$$$$

     RDKit          3D

 66 71  0  0  0  0  0  0  0  0999 V2000
   -7.4443    3.3827  -21.8283 C   0  0  0  0  0  0  0  0  0  0  0  0
   -8.3402    2.9223  -22.8685 N   0  0  0  0  0  0  0  0  0  0  0  0
   -7.7948    2.1974  -23.8794 C   0  0  0  0  0  0  0  0  0  0  0  0
   -6.5859    2.0558  -23.9983 O   0  0  0  0  0  0  0  0  0  0  0  0
   -8.7610    1.5793  -24.8772 C   0  0  0  0  0  0  0  0  0  0  0  0
   -9.4487    0.4311  -24.3324 N   0  0  0  0  0  0  0  0  0  0  0  0
   -8.7047   -0.8015  -24.1695 C   0  0  0  0  0  0  0  0  0  0  0  0
   -9.0758   -1.5279  -22.8600 C   0  0  2  0  0  0  0  0  0  0  0  0
   -8.5335   -0.7513  -21.6414 C   0  0  0  0  0  0  0  0  0  0  0  0
   -9.0039    0.2499  -21.1358 O   0  0  0  0  0  0  0  0  0  0  0  0
   -7.3966   -1.3812  -21.1968 N   0  0  0  0  0  0  0  0  0  0  0  0
   -6.5993   -0.8148  -20.1735 C   0  0  0  0  0  0  0  0  0  0  0  0
   -6.9193   -1.0458  -18.8586 C   0  0  0  0  0  0  0  0  0  0  0  0
   -6.2244   -0.5519  -17.8071 N   0  0  0  0  0  0  0  0  0  0  0  0
   -5.1847    0.2055  -18.0741 C   0  0  0  0  0  0  0  0  0  0  0  0
   -4.7438    0.5239  -19.3917 C   0  0  0  0  0  0  0  0  0  0  0  0
   -3.6197    1.3593  -19.6338 C   0  0  0  0  0  0  0  0  0  0  0  0
   -3.2324    1.6531  -20.9145 C   0  0  0  0  0  0  0  0  0  0  0  0
   -3.9542    1.1355  -22.0135 C   0  0  0  0  0  0  0  0  0  0  0  0
   -5.0488    0.3290  -21.8070 C   0  0  0  0  0  0  0  0  0  0  0  0
   -5.4684    0.0010  -20.4866 C   0  0  0  0  0  0  0  0  0  0  0  0
   -5.6065   -0.0430  -22.6614 H   0  0  0  0  0  0  0  0  0  0  0  0
   -3.6556    1.3845  -23.0284 H   0  0  0  0  0  0  0  0  0  0  0  0
   -2.3747    2.2996  -21.0916 H   0  0  0  0  0  0  0  0  0  0  0  0
   -3.0889    1.7675  -18.7788 H   0  0  0  0  0  0  0  0  0  0  0  0
   -4.6235    0.6034  -17.2283 H   0  0  0  0  0  0  0  0  0  0  0  0
   -7.7838   -1.6631  -18.6168 H   0  0  0  0  0  0  0  0  0  0  0  0
   -7.0504   -2.5759  -21.9347 C   0  0  0  0  0  0  0  0  0  0  0  0
   -8.3220   -2.8896  -22.7348 C   0  0  2  0  0  0  0  0  0  0  0  0
   -8.0257   -3.6717  -24.0320 C   0  0  0  0  0  0  0  0  0  0  0  0
   -7.4643   -5.0541  -23.7728 C   0  0  0  0  0  0  0  0  0  0  0  0
   -6.0891   -5.3029  -23.7659 C   0  0  0  0  0  0  0  0  0  0  0  0
   -5.5965   -6.5762  -23.4895 C   0  0  0  0  0  0  0  0  0  0  0  0
   -6.4730   -7.6198  -23.2090 C   0  0  0  0  0  0  0  0  0  0  0  0
   -7.8448   -7.3860  -23.2154 C   0  0  0  0  0  0  0  0  0  0  0  0
   -8.3307   -6.1126  -23.4950 C   0  0  0  0  0  0  0  0  0  0  0  0
   -9.4024   -5.9273  -23.5139 H   0  0  0  0  0  0  0  0  0  0  0  0
   -8.5368   -8.1985  -23.0084 H   0  0  0  0  0  0  0  0  0  0  0  0
   -6.0859   -8.6131  -22.9882 H   0  0  0  0  0  0  0  0  0  0  0  0
   -4.5243   -6.7585  -23.4981 H   0  0  0  0  0  0  0  0  0  0  0  0
   -5.3929   -4.4952  -23.9893 H   0  0  0  0  0  0  0  0  0  0  0  0
   -8.9514   -3.7590  -24.6185 H   0  0  0  0  0  0  0  0  0  0  0  0
   -7.3174   -3.0984  -24.6442 H   0  0  0  0  0  0  0  0  0  0  0  0
   -8.9557   -3.5299  -22.1184 H   0  0  0  0  0  0  0  0  0  0  0  0
   -6.7769   -3.3914  -21.2579 H   0  0  0  0  0  0  0  0  0  0  0  0
   -6.1969   -2.3949  -22.6044 H   0  0  0  0  0  0  0  0  0  0  0  0
  -10.5890   -1.6052  -22.7850 C   0  0  0  0  0  0  0  0  0  0  0  0
  -11.2088   -2.5292  -21.9371 C   0  0  0  0  0  0  0  0  0  0  0  0
  -12.5887   -2.5600  -21.8388 C   0  0  0  0  0  0  0  0  0  0  0  0
  -13.3274   -3.7075  -20.7531 Cl  0  0  0  0  0  0  0  0  0  0  0  0
  -13.3966   -1.6865  -22.5694 C   0  0  0  0  0  0  0  0  0  0  0  0
  -12.7938   -0.7403  -23.3759 C   0  0  0  0  0  0  0  0  0  0  0  0
  -11.4030   -0.6821  -23.4567 C   0  0  0  0  0  0  0  0  0  0  0  0
  -10.8126    0.4568  -24.2273 C   0  0  0  0  0  0  0  0  0  0  0  0
  -11.5051    1.3521  -24.6945 O   0  0  0  0  0  0  0  0  0  0  0  0
  -13.3675   -0.0109  -23.9423 H   0  0  0  0  0  0  0  0  0  0  0  0
  -14.4745   -1.7472  -22.4708 H   0  0  0  0  0  0  0  0  0  0  0  0
  -10.6222   -3.2157  -21.3360 H   0  0  0  0  0  0  0  0  0  0  0  0
   -7.6400   -0.5530  -24.1833 H   0  0  0  0  0  0  0  0  0  0  0  0
   -8.9258   -1.4721  -25.0095 H   0  0  0  0  0  0  0  0  0  0  0  0
   -8.1596    1.2961  -25.7461 H   0  0  0  0  0  0  0  0  0  0  0  0
   -9.5423    2.2878  -25.1543 H   0  0  0  0  0  0  0  0  0  0  0  0
   -9.2972    2.7494  -22.6110 H   0  0  0  0  0  0  0  0  0  0  0  0
   -7.9974    3.8971  -21.0449 H   0  0  0  0  0  0  0  0  0  0  0  0
   -6.7134    4.0618  -22.2560 H   0  0  0  0  0  0  0  0  0  0  0  0
   -6.8890    2.5442  -21.4015 H   0  0  0  0  0  0  0  0  0  0  0  0
  1  2  1  0
  2  3  1  0
  3  4  2  0
  3  5  1  0
  5  6  1  0
  6  7  1  0
  8  7  1  6
  8  9  1  0
  9 10  2  0
  9 11  1  0
 11 12  1  0
 12 13  2  0
 13 14  1  0
 14 15  2  0
 15 16  1  0
 16 17  2  0
 17 18  1  0
 18 19  2  0
 19 20  1  0
 20 21  2  0
 20 22  1  0
 19 23  1  0
 18 24  1  0
 17 25  1  0
 15 26  1  0
 13 27  1  0
 11 28  1  0
 28 29  1  0
 29 30  1  0
 30 31  1  0
 31 32  2  0
 32 33  1  0
 33 34  2  0
 34 35  1  0
 35 36  2  0
 36 37  1  0
 35 38  1  0
 34 39  1  0
 33 40  1  0
 32 41  1  0
 30 42  1  0
 30 43  1  0
 29 44  1  1
 28 45  1  0
 28 46  1  0
  8 47  1  0
 47 48  2  0
 48 49  1  0
 49 50  1  0
 49 51  2  0
 51 52  1  0
 52 53  2  0
 53 54  1  0
 54 55  2  0
 52 56  1  0
 51 57  1  0
 48 58  1  0
  7 59  1  0
  7 60  1  0
  5 61  1  0
  5 62  1  0
  2 63  1  0
  1 64  1  0
  1 65  1  0
  1 66  1  0
 54  6  1  0
 29  8  1  0
 36 31  1  0
 53 47  1  0
 21 12  1  0
 21 16  1  0
M  END
>  <cnnaffinities>  (43) 
[6.50695, 6.4973, 6.68269]

>  <score>  (43) 
6.50695

>  <index>  (43) 
45

>  <Smiles>  (43) 
C(N(C(=O)C(N1C([C@@]2(C(=O)N(c3c(nc(c4c(c(c(c(c34)[H])[H])[H])[H])[H])[H])C([C@@]2(C(c2c(c(c(c(c2[H])[H])[H])[H])[H])([H])[H])[H])([H])[H])c2c(c(Cl)c(c(c2C1=O)[H])[H])[H])([H])[H])([H])[H])[H])([H])([H])[H]

>  <h>  (43) 
<NA>

>  <Training>  (43) 
True

>  <Success>  (43) 
True

>  <enamine_searched>  (43) 
False

>  <enamine_id>  (43) 
nan

$$$$

     RDKit          3D

 50 54  0  0  0  0  0  0  0  0999 V2000
  -10.4555   -1.1463  -23.2804 C   0  0  0  0  0  0  0  0  0  0  0  0
   -9.0074   -1.4646  -22.9427 C   0  0  1  0  0  0  0  0  0  0  0  0
   -8.3979   -0.5128  -21.9059 C   0  0  0  0  0  0  0  0  0  0  0  0
   -7.4083   -1.3348  -21.2335 N   0  0  0  0  0  0  0  0  0  0  0  0
   -6.5935   -0.8466  -20.1915 C   0  0  0  0  0  0  0  0  0  0  0  0
   -6.9060   -1.1020  -18.8785 C   0  0  0  0  0  0  0  0  0  0  0  0
   -6.2391   -0.5775  -17.8202 N   0  0  0  0  0  0  0  0  0  0  0  0
   -5.2159    0.2031  -18.0805 C   0  0  0  0  0  0  0  0  0  0  0  0
   -4.7663    0.5134  -19.3996 C   0  0  0  0  0  0  0  0  0  0  0  0
   -3.6389    1.3396  -19.6316 C   0  0  0  0  0  0  0  0  0  0  0  0
   -3.2280    1.6051  -20.9094 C   0  0  0  0  0  0  0  0  0  0  0  0
   -3.9230    1.0640  -22.0140 C   0  0  0  0  0  0  0  0  0  0  0  0
   -5.0234    0.2646  -21.8169 C   0  0  0  0  0  0  0  0  0  0  0  0
   -5.4703   -0.0213  -20.4972 C   0  0  0  0  0  0  0  0  0  0  0  0
   -5.5471   -0.1581  -22.6684 H   0  0  0  0  0  0  0  0  0  0  0  0
   -3.5905    1.2915  -23.0215 H   0  0  0  0  0  0  0  0  0  0  0  0
   -2.3708    2.2457  -21.0838 H   0  0  0  0  0  0  0  0  0  0  0  0
   -3.1261    1.7604  -18.7716 H   0  0  0  0  0  0  0  0  0  0  0  0
   -4.6775    0.6328  -17.2339 H   0  0  0  0  0  0  0  0  0  0  0  0
   -7.7427   -1.7517  -18.6368 H   0  0  0  0  0  0  0  0  0  0  0  0
   -7.5509   -2.6824  -21.4672 C   0  0  0  0  0  0  0  0  0  0  0  0
   -6.7863   -3.5345  -21.0544 O   0  0  0  0  0  0  0  0  0  0  0  0
   -8.7791   -2.8977  -22.3563 C   0  0  1  0  0  0  0  0  0  0  0  0
   -9.9687   -3.3711  -21.4939 C   0  0  0  0  0  0  0  0  0  0  0  0
  -11.1065   -3.8061  -22.2919 N   0  0  0  0  0  0  0  0  0  0  0  0
  -12.4553   -3.7102  -21.7813 C   0  0  0  0  0  0  0  0  0  0  0  0
  -13.3725   -2.8792  -22.5900 C   0  0  0  0  0  0  0  0  0  0  0  0
  -14.1569   -2.2825  -23.1924 N   0  0  0  0  0  0  0  0  0  0  0  0
  -12.4347   -3.3058  -20.7716 H   0  0  0  0  0  0  0  0  0  0  0  0
  -12.8916   -4.7083  -21.7561 H   0  0  0  0  0  0  0  0  0  0  0  0
  -10.9747   -4.5050  -23.4586 C   0  0  0  0  0  0  0  0  0  0  0  0
  -11.9483   -4.9395  -24.0593 O   0  0  0  0  0  0  0  0  0  0  0  0
   -9.5738   -4.7006  -23.9251 C   0  0  0  0  0  0  0  0  0  0  0  0
   -9.3384   -5.6840  -24.8788 C   0  0  0  0  0  0  0  0  0  0  0  0
   -8.0697   -5.8988  -25.3761 C   0  0  0  0  0  0  0  0  0  0  0  0
   -7.0595   -5.0665  -24.9161 C   0  0  0  0  0  0  0  0  0  0  0  0
   -5.8356   -5.2153  -25.4395 F   0  0  0  0  0  0  0  0  0  0  0  0
   -7.2482   -4.1040  -23.9460 C   0  0  0  0  0  0  0  0  0  0  0  0
   -8.5252   -3.9354  -23.4123 C   0  0  0  0  0  0  0  0  0  0  0  0
   -6.4049   -3.5283  -23.5810 H   0  0  0  0  0  0  0  0  0  0  0  0
   -7.8496   -6.6982  -26.0764 H   0  0  0  0  0  0  0  0  0  0  0  0
  -10.1874   -6.2598  -25.2160 H   0  0  0  0  0  0  0  0  0  0  0  0
   -9.6431   -4.1683  -20.8203 H   0  0  0  0  0  0  0  0  0  0  0  0
  -10.2941   -2.5243  -20.8874 H   0  0  0  0  0  0  0  0  0  0  0  0
   -9.1583   -0.1542  -21.1970 H   0  0  0  0  0  0  0  0  0  0  0  0
   -7.9339    0.3676  -22.3649 H   0  0  0  0  0  0  0  0  0  0  0  0
   -8.3965   -1.4166  -23.8530 H   0  0  0  0  0  0  0  0  0  0  0  0
  -10.5525   -0.1677  -23.7523 H   0  0  0  0  0  0  0  0  0  0  0  0
  -11.0571   -1.1565  -22.3666 H   0  0  0  0  0  0  0  0  0  0  0  0
  -10.8671   -1.9099  -23.9451 H   0  0  0  0  0  0  0  0  0  0  0  0
  1  2  1  0
  2  3  1  0
  3  4  1  0
  4  5  1  0
  5  6  2  0
  6  7  1  0
  7  8  2  0
  8  9  1  0
  9 10  2  0
 10 11  1  0
 11 12  2  0
 12 13  1  0
 13 14  2  0
 13 15  1  0
 12 16  1  0
 11 17  1  0
 10 18  1  0
  8 19  1  0
  6 20  1  0
  4 21  1  0
 21 22  2  0
 21 23  1  0
 23 24  1  1
 24 25  1  0
 25 26  1  0
 26 27  1  0
 27 28  3  0
 26 29  1  0
 26 30  1  0
 25 31  1  0
 31 32  2  0
 31 33  1  0
 33 34  2  0
 34 35  1  0
 35 36  2  0
 36 37  1  0
 36 38  1  0
 38 39  2  0
 38 40  1  0
 35 41  1  0
 34 42  1  0
 24 43  1  0
 24 44  1  0
  3 45  1  0
  3 46  1  0
  2 47  1  6
  1 48  1  0
  1 49  1  0
  1 50  1  0
 23  2  1  0
 39 33  1  0
 14  5  1  0
 39 23  1  0
 14  9  1  0
M  END
>  <cnnaffinities>  (44) 
[6.40072]

>  <score>  (44) 
6.40072

>  <index>  (44) 
46

>  <Smiles>  (44) 
C([C@]1(C(N(c2c(nc(c3c(c(c(c(c23)[H])[H])[H])[H])[H])[H])C(=O)[C@]21C(N(C(C#N)([H])[H])C(=O)c1c(c(c(F)c(c21)[H])[H])[H])([H])[H])([H])[H])[H])([H])([H])[H]

>  <h>  (44) 
<NA>

>  <Training>  (44) 
True

>  <Success>  (44) 
True

>  <enamine_searched>  (44) 
False

>  <enamine_id>  (44) 
nan

$$$$

     RDKit          3D

 58 63  0  0  0  0  0  0  0  0999 V2000
   -9.2207    0.1617  -20.9909 O   0  0  0  0  0  0  0  0  0  0  0  0
   -8.3372   -0.2249  -21.7353 C   0  0  0  0  0  0  0  0  0  0  0  0
   -7.4329   -1.3515  -21.2854 C   0  0  0  0  0  0  0  0  0  0  0  0
   -6.5721   -0.8088  -20.1477 C   0  0  0  0  0  0  0  0  0  0  0  0
   -6.8918   -1.0768  -18.8304 C   0  0  0  0  0  0  0  0  0  0  0  0
   -6.2150   -0.5903  -17.7649 N   0  0  0  0  0  0  0  0  0  0  0  0
   -5.1832    0.1871  -18.0088 C   0  0  0  0  0  0  0  0  0  0  0  0
   -4.7530    0.5512  -19.3174 C   0  0  0  0  0  0  0  0  0  0  0  0
   -3.6045    1.3598  -19.5473 C   0  0  0  0  0  0  0  0  0  0  0  0
   -3.1955    1.6453  -20.8368 C   0  0  0  0  0  0  0  0  0  0  0  0
   -3.9314    1.2381  -21.9305 C   0  0  0  0  0  0  0  0  0  0  0  0
   -5.2631    0.6675  -21.7522 C   0  0  0  0  0  0  0  0  0  0  0  0
   -5.5167    0.0786  -20.3923 C   0  0  0  0  0  0  0  0  0  0  0  0
   -5.5034   -0.0301  -22.5660 H   0  0  0  0  0  0  0  0  0  0  0  0
   -3.5825    1.4426  -22.9352 H   0  0  0  0  0  0  0  0  0  0  0  0
   -2.2828    2.2179  -21.0016 H   0  0  0  0  0  0  0  0  0  0  0  0
   -3.0468    1.7190  -18.6899 H   0  0  0  0  0  0  0  0  0  0  0  0
   -4.6208    0.5595  -17.1548 H   0  0  0  0  0  0  0  0  0  0  0  0
   -7.7338   -1.7225  -18.5931 H   0  0  0  0  0  0  0  0  0  0  0  0
   -6.8187   -1.7051  -22.1187 H   0  0  0  0  0  0  0  0  0  0  0  0
   -8.0545   -2.1716  -20.9118 H   0  0  0  0  0  0  0  0  0  0  0  0
   -8.0311    0.4362  -22.9436 N   0  0  0  0  0  0  0  0  0  0  0  0
   -8.1100   -0.1333  -24.2902 C   0  0  0  0  0  0  0  0  0  0  0  0
   -9.4199    0.2898  -24.9230 C   0  0  0  0  0  0  0  0  0  0  0  0
   -9.4580    1.3258  -25.8583 C   0  0  0  0  0  0  0  0  0  0  0  0
  -10.6716    1.9032  -26.2152 C   0  0  0  0  0  0  0  0  0  0  0  0
  -11.8576    1.4351  -25.6702 C   0  0  0  0  0  0  0  0  0  0  0  0
  -11.8230    0.3596  -24.7888 C   0  0  0  0  0  0  0  0  0  0  0  0
  -13.3162   -0.2672  -24.1533 Cl  0  0  0  0  0  0  0  0  0  0  0  0
  -10.6127   -0.1991  -24.3869 C   0  0  0  0  0  0  0  0  0  0  0  0
  -10.6126   -0.9615  -23.6152 H   0  0  0  0  0  0  0  0  0  0  0  0
  -12.8022    1.9000  -25.9144 H   0  0  0  0  0  0  0  0  0  0  0  0
  -10.6927    2.7407  -26.9086 H   0  0  0  0  0  0  0  0  0  0  0  0
   -8.5355    1.7036  -26.2936 H   0  0  0  0  0  0  0  0  0  0  0  0
   -8.0161   -1.2175  -24.2052 H   0  0  0  0  0  0  0  0  0  0  0  0
   -7.2665    0.2476  -24.8817 H   0  0  0  0  0  0  0  0  0  0  0  0
   -8.1704    1.8662  -22.8669 C   0  0  2  0  0  0  0  0  0  0  0  0
   -7.2342    2.8130  -23.4686 C   0  0  0  0  0  0  0  0  0  0  0  0
   -7.4381    3.5993  -22.2443 N   0  0  1  0  0  4  0  0  0  0  0  0
   -7.9990    5.3570  -23.3519 C   0  0  0  0  0  0  0  0  0  0  0  0
   -8.4519    6.3420  -22.2133 C   0  0  0  0  0  0  0  0  0  0  0  0
   -7.0334    5.9423  -24.1505 C   0  0  0  0  0  0  0  0  0  0  0  0
   -7.4722    6.6801  -24.7969 H   0  0  0  0  0  0  0  0  0  0  0  0
   -6.1136    6.2125  -23.6451 H   0  0  0  0  0  0  0  0  0  0  0  0
   -7.5366    6.8747  -21.9349 H   0  0  0  0  0  0  0  0  0  0  0  0
   -9.1198    7.0388  -22.6903 H   0  0  0  0  0  0  0  0  0  0  0  0
   -8.8599    4.9965  -23.9483 H   0  0  0  0  0  0  0  0  0  0  0  0
   -7.5052    3.6445  -22.1637 C   0  0  1  0  0  0  0  0  0  0  0  0
   -8.3679    2.5625  -21.6124 C   0  0  0  0  0  0  0  0  0  0  0  0
   -6.0147    1.4889  -21.8298 H   0  0  0  0  0  0  0  0  0  0  0  0
   -8.4326    2.1719  -20.5799 H   0  0  0  0  0  0  0  0  0  0  0  0
   -9.5022    2.5241  -22.6135 C   0  0  0  0  0  0  0  0  0  0  0  0
   -9.8248    3.4413  -23.1043 H   0  0  0  0  0  0  0  0  0  0  0  0
  -10.3065    1.8396  -22.3719 H   0  0  0  0  0  0  0  0  0  0  0  0
   -8.9033    5.8541  -21.3339 H   0  0  0  0  0  0  0  0  0  0  0  0
   -6.5878    4.2671  -22.0810 H   0  0  0  0  0  0  0  0  0  0  0  0
   -7.7131    3.2770  -24.3628 H   0  0  0  0  0  0  0  0  0  0  0  0
   -6.2126    2.3717  -23.8095 H   0  0  0  0  0  0  0  0  0  0  0  0
  1  2  2  0
  2  3  1  0
  3  4  1  0
  4  5  2  0
  5  6  1  0
  6  7  2  0
  7  8  1  0
  8  9  2  0
  9 10  1  0
 10 11  2  0
 11 12  1  0
 12 13  2  0
 12 14  1  0
 11 15  1  0
 10 16  1  0
  9 17  1  0
  7 18  1  0
  5 19  1  0
  3 20  1  0
  3 21  1  0
  2 22  1  0
 22 23  1  0
 23 24  1  0
 24 25  2  0
 25 26  1  0
 26 27  2  0
 27 28  1  0
 28 29  1  0
 28 30  2  0
 30 31  1  0
 27 32  1  0
 26 33  1  0
 25 34  1  0
 23 35  1  0
 23 36  1  0
 37 22  1  1
 37 38  1  0
 38 39  1  0
 39 40  1  0
 40 41  1  0
 41 42  1  0
 42 43  1  0
 42 44  1  0
 41 45  1  0
 41 46  1  0
 40 47  1  0
 39 48  1  0
 48 49  1  0
 49 50  1  0
 49 51  1  0
 48 52  1  0
 52 53  1  0
 52 54  1  0
 48 55  1  1
 39 56  1  1
 38 57  1  0
 38 58  1  0
 13  4  1  0
 30 24  1  0
 49 37  1  0
 13  8  1  0
 52 37  1  0
 42 40  1  0
M  CHG  1  39   1
M  END
>  <cnnaffinities>  (45) 
[5.82091, 5.80907]

>  <score>  (45) 
5.82091

>  <index>  (45) 
47

>  <Smiles>  (45) 
O=C(C(c1c(nc(c2c(c(c(c(c12)[H])[H])[H])[H])[H])[H])([H])[H])N(C(c1c(c(c(c(Cl)c1[H])[H])[H])[H])([H])[H])[C@]12C([N@@+](C3(C(C3([H])[H])([H])[H])[H])([C@](C1([H])[H])(C2([H])[H])[H])[H])([H])[H]

>  <h>  (45) 
<NA>

>  <Training>  (45) 
True

>  <Success>  (45) 
True

>  <enamine_searched>  (45) 
False

>  <enamine_id>  (45) 
nan

$$$$

     RDKit          3D

 46 48  0  0  0  0  0  0  0  0999 V2000
   -8.2629   -6.6131  -26.1632 C   0  0  0  0  0  0  0  0  0  0  0  0
   -9.3746   -6.4994  -25.1227 C   0  0  0  0  0  0  0  0  0  0  0  0
  -10.7246   -6.3538  -25.8227 C   0  0  0  0  0  0  0  0  0  0  0  0
  -11.5628   -6.2999  -25.1204 H   0  0  0  0  0  0  0  0  0  0  0  0
  -10.8863   -7.2310  -26.4562 H   0  0  0  0  0  0  0  0  0  0  0  0
  -10.7701   -5.4562  -26.4498 H   0  0  0  0  0  0  0  0  0  0  0  0
   -9.1622   -5.4446  -24.0149 C   0  0  0  0  0  0  0  0  0  0  0  0
   -9.0040   -3.9819  -24.4611 C   0  0  0  0  0  0  0  0  0  0  0  0
   -8.7225   -3.1381  -23.2113 C   0  0  0  0  0  0  0  0  0  0  0  0
   -7.4320   -3.5370  -22.6287 N   0  0  0  0  0  0  0  0  0  0  0  0
   -6.6995   -2.7784  -21.7695 C   0  0  0  0  0  0  0  0  0  0  0  0
   -5.5745   -3.0977  -21.4016 O   0  0  0  0  0  0  0  0  0  0  0  0
   -7.3776   -1.5096  -21.2713 C   0  0  0  0  0  0  0  0  0  0  0  0
   -6.5960   -0.8576  -20.1845 C   0  0  0  0  0  0  0  0  0  0  0  0
   -6.9183   -1.0792  -18.8747 C   0  0  0  0  0  0  0  0  0  0  0  0
   -6.2542   -0.5722  -17.8048 N   0  0  0  0  0  0  0  0  0  0  0  0
   -5.2139    0.1853  -18.0714 C   0  0  0  0  0  0  0  0  0  0  0  0
   -4.7532    0.4815  -19.3838 C   0  0  0  0  0  0  0  0  0  0  0  0
   -3.6350    1.3201  -19.6162 C   0  0  0  0  0  0  0  0  0  0  0  0
   -3.2274    1.5988  -20.8907 C   0  0  0  0  0  0  0  0  0  0  0  0
   -3.9190    1.0508  -21.9939 C   0  0  0  0  0  0  0  0  0  0  0  0
   -5.0043    0.2341  -21.7970 C   0  0  0  0  0  0  0  0  0  0  0  0
   -5.4543   -0.0617  -20.4824 C   0  0  0  0  0  0  0  0  0  0  0  0
   -5.5204   -0.1812  -22.6574 H   0  0  0  0  0  0  0  0  0  0  0  0
   -3.5949    1.2941  -23.0001 H   0  0  0  0  0  0  0  0  0  0  0  0
   -2.3784    2.2506  -21.0654 H   0  0  0  0  0  0  0  0  0  0  0  0
   -3.1274    1.7540  -18.7589 H   0  0  0  0  0  0  0  0  0  0  0  0
   -4.6777    0.6105  -17.2240 H   0  0  0  0  0  0  0  0  0  0  0  0
   -7.7776   -1.7061  -18.6337 H   0  0  0  0  0  0  0  0  0  0  0  0
   -8.3721   -1.7942  -20.9038 H   0  0  0  0  0  0  0  0  0  0  0  0
   -7.5049   -0.8254  -22.1190 H   0  0  0  0  0  0  0  0  0  0  0  0
   -6.8906   -4.8389  -22.9913 C   0  0  0  0  0  0  0  0  0  0  0  0
   -8.0275   -5.8455  -23.0355 C   0  0  0  0  0  0  0  0  0  0  0  0
   -7.6294   -6.8410  -23.2548 H   0  0  0  0  0  0  0  0  0  0  0  0
   -8.4342   -5.9169  -22.0218 H   0  0  0  0  0  0  0  0  0  0  0  0
   -6.1502   -5.1148  -22.2359 H   0  0  0  0  0  0  0  0  0  0  0  0
   -6.3691   -4.7753  -23.9570 H   0  0  0  0  0  0  0  0  0  0  0  0
   -8.6971   -2.0724  -23.4631 H   0  0  0  0  0  0  0  0  0  0  0  0
   -9.5563   -3.2598  -22.4885 H   0  0  0  0  0  0  0  0  0  0  0  0
   -9.9218   -3.6179  -24.9469 H   0  0  0  0  0  0  0  0  0  0  0  0
   -8.1891   -3.8670  -25.1924 H   0  0  0  0  0  0  0  0  0  0  0  0
  -10.0839   -5.4239  -23.4146 H   0  0  0  0  0  0  0  0  0  0  0  0
   -9.3925   -7.4628  -24.5977 H   0  0  0  0  0  0  0  0  0  0  0  0
   -7.2726   -6.7334  -25.7078 H   0  0  0  0  0  0  0  0  0  0  0  0
   -8.2392   -5.7267  -26.8040 H   0  0  0  0  0  0  0  0  0  0  0  0
   -8.4694   -7.4808  -26.8052 H   0  0  0  0  0  0  0  0  0  0  0  0
  1  2  1  0
  2  3  1  0
  3  4  1  0
  3  5  1  0
  3  6  1  0
  2  7  1  0
  7  8  1  0
  8  9  1  0
  9 10  1  0
 10 11  1  0
 11 12  2  0
 11 13  1  0
 13 14  1  0
 14 15  2  0
 15 16  1  0
 16 17  2  0
 17 18  1  0
 18 19  2  0
 19 20  1  0
 20 21  2  0
 21 22  1  0
 22 23  2  0
 22 24  1  0
 21 25  1  0
 20 26  1  0
 19 27  1  0
 17 28  1  0
 15 29  1  0
 13 30  1  0
 13 31  1  0
 10 32  1  0
 32 33  1  0
 33 34  1  0
 33 35  1  0
 32 36  1  0
 32 37  1  0
  9 38  1  0
  9 39  1  0
  8 40  1  0
  8 41  1  0
  7 42  1  0
  2 43  1  0
  1 44  1  0
  1 45  1  0
  1 46  1  0
 33  7  1  0
 23 14  1  0
 23 18  1  0
M  END
>  <cnnaffinities>  (46) 
[4.88521, 4.88649, 4.88756, 4.88779]

>  <score>  (46) 
4.88521

>  <index>  (46) 
48

>  <Smiles>  (46) 
C(C(C([H])([H])[H])(C1(C(C(N(C(=O)C(c2c(nc(c3c(c(c(c(c23)[H])[H])[H])[H])[H])[H])([H])[H])C(C1([H])[H])([H])[H])([H])[H])([H])[H])[H])[H])([H])([H])[H]

>  <h>  (46) 
<NA>

>  <Training>  (46) 
True

>  <Success>  (46) 
True

>  <enamine_searched>  (46) 
False

>  <enamine_id>  (46) 
nan

$$$$

     RDKit          3D

 67 72  0  0  0  0  0  0  0  0999 V2000
   -7.4237    3.3819  -21.7993 C   0  0  0  0  0  0  0  0  0  0  0  0
   -8.2787    2.9054  -22.8674 N   0  0  0  0  0  0  0  0  0  0  0  0
   -7.7005    2.2222  -23.8770 C   0  0  0  0  0  0  0  0  0  0  0  0
   -6.4849    2.1257  -23.9900 O   0  0  0  0  0  0  0  0  0  0  0  0
   -8.6495    1.5960  -24.9030 C   0  0  0  0  0  0  0  0  0  0  0  0
   -9.3736    0.4436  -24.3992 N   0  0  0  0  0  0  0  0  0  0  0  0
   -8.6539   -0.8065  -24.2367 C   0  0  0  0  0  0  0  0  0  0  0  0
   -9.0434   -1.5273  -22.9208 C   0  0  2  0  0  0  0  0  0  0  0  0
   -8.5019   -0.7380  -21.6975 C   0  0  0  0  0  0  0  0  0  0  0  0
   -8.9523    0.2851  -21.2242 O   0  0  0  0  0  0  0  0  0  0  0  0
   -7.3909   -1.3904  -21.2094 N   0  0  0  0  0  0  0  0  0  0  0  0
   -6.6011   -0.8141  -20.1782 C   0  0  0  0  0  0  0  0  0  0  0  0
   -6.9114   -1.0438  -18.8619 C   0  0  0  0  0  0  0  0  0  0  0  0
   -6.2108   -0.5505  -17.8111 N   0  0  0  0  0  0  0  0  0  0  0  0
   -5.1725    0.2065  -18.0772 C   0  0  0  0  0  0  0  0  0  0  0  0
   -4.7322    0.5288  -19.3928 C   0  0  0  0  0  0  0  0  0  0  0  0
   -3.6054    1.3631  -19.6378 C   0  0  0  0  0  0  0  0  0  0  0  0
   -3.2181    1.6537  -20.9171 C   0  0  0  0  0  0  0  0  0  0  0  0
   -3.9402    1.1276  -22.0117 C   0  0  0  0  0  0  0  0  0  0  0  0
   -5.0345    0.3230  -21.8010 C   0  0  0  0  0  0  0  0  0  0  0  0
   -5.4648    0.0026  -20.4846 C   0  0  0  0  0  0  0  0  0  0  0  0
   -5.5937   -0.0589  -22.6504 H   0  0  0  0  0  0  0  0  0  0  0  0
   -3.6470    1.3723  -23.0272 H   0  0  0  0  0  0  0  0  0  0  0  0
   -2.3643    2.3030  -21.0962 H   0  0  0  0  0  0  0  0  0  0  0  0
   -3.0775    1.7750  -18.7812 H   0  0  0  0  0  0  0  0  0  0  0  0
   -4.6239    0.6106  -17.2260 H   0  0  0  0  0  0  0  0  0  0  0  0
   -7.7635   -1.6695  -18.6063 H   0  0  0  0  0  0  0  0  0  0  0  0
   -7.0413   -2.5972  -21.9301 C   0  0  0  0  0  0  0  0  0  0  0  0
   -8.2995   -2.8939  -22.7682 C   0  0  2  0  0  0  0  0  0  0  0  0
   -7.9620   -3.6790  -24.0549 C   0  0  0  0  0  0  0  0  0  0  0  0
   -7.4533   -5.0023  -23.7696 N   0  0  0  0  0  0  0  0  0  0  0  0
   -6.1233   -5.3075  -23.6622 C   0  0  0  0  0  0  0  0  0  0  0  0
   -5.0182   -4.5873  -24.0099 C   0  0  0  0  0  0  0  0  0  0  0  0
   -3.7956   -5.1908  -23.7860 N   0  0  0  0  0  0  0  0  0  0  0  0
   -3.9363   -6.3768  -23.2939 C   0  0  0  0  0  0  0  0  0  0  0  0
   -2.7949   -7.2996  -22.9858 C   0  0  0  0  0  0  0  0  0  0  0  0
   -3.0218   -7.9314  -22.1251 H   0  0  0  0  0  0  0  0  0  0  0  0
   -2.5860   -7.9506  -23.8440 H   0  0  0  0  0  0  0  0  0  0  0  0
   -1.9016   -6.7017  -22.7935 H   0  0  0  0  0  0  0  0  0  0  0  0
   -5.6044   -6.8633  -23.0341 S   0  0  0  0  0  0  0  0  0  0  0  0
   -5.0520   -3.6009  -24.4605 H   0  0  0  0  0  0  0  0  0  0  0  0
   -8.1085   -5.7267  -23.5185 H   0  0  0  0  0  0  0  0  0  0  0  0
   -8.8647   -3.7920  -24.6662 H   0  0  0  0  0  0  0  0  0  0  0  0
   -7.2149   -3.1299  -24.6486 H   0  0  0  0  0  0  0  0  0  0  0  0
   -8.9583   -3.5323  -22.1731 H   0  0  0  0  0  0  0  0  0  0  0  0
   -6.1571   -2.4466  -22.5720 H   0  0  0  0  0  0  0  0  0  0  0  0
   -6.7896   -3.4182  -21.2490 H   0  0  0  0  0  0  0  0  0  0  0  0
  -10.5617   -1.5754  -22.8491 C   0  0  0  0  0  0  0  0  0  0  0  0
  -11.1992   -2.4619  -21.9726 C   0  0  0  0  0  0  0  0  0  0  0  0
  -12.5788   -2.4853  -21.8901 C   0  0  0  0  0  0  0  0  0  0  0  0
  -13.3535   -3.5990  -20.8008 Cl  0  0  0  0  0  0  0  0  0  0  0  0
  -13.3691   -1.6242  -22.6506 C   0  0  0  0  0  0  0  0  0  0  0  0
  -12.7475   -0.6992  -23.4643 C   0  0  0  0  0  0  0  0  0  0  0  0
  -11.3559   -0.6494  -23.5428 C   0  0  0  0  0  0  0  0  0  0  0  0
  -10.7400    0.4820  -24.3147 C   0  0  0  0  0  0  0  0  0  0  0  0
  -11.4137    1.3811  -24.7950 O   0  0  0  0  0  0  0  0  0  0  0  0
  -13.3094    0.0279  -24.0411 H   0  0  0  0  0  0  0  0  0  0  0  0
  -14.4484   -1.6714  -22.5711 H   0  0  0  0  0  0  0  0  0  0  0  0
  -10.6329   -3.1208  -21.3249 H   0  0  0  0  0  0  0  0  0  0  0  0
   -7.5883   -0.5597  -24.2210 H   0  0  0  0  0  0  0  0  0  0  0  0
   -8.8576   -1.4760  -25.0890 H   0  0  0  0  0  0  0  0  0  0  0  0
   -9.4204    2.3008  -25.2272 H   0  0  0  0  0  0  0  0  0  0  0  0
   -8.0114    1.3247  -25.7513 H   0  0  0  0  0  0  0  0  0  0  0  0
   -9.2729    2.8110  -22.7047 H   0  0  0  0  0  0  0  0  0  0  0  0
   -6.8513    2.5410  -21.3714 H   0  0  0  0  0  0  0  0  0  0  0  0
   -6.7093    4.1267  -22.1683 H   0  0  0  0  0  0  0  0  0  0  0  0
   -8.0583    3.8613  -21.0573 H   0  0  0  0  0  0  0  0  0  0  0  0
  1  2  1  0
  2  3  1  0
  3  4  2  0
  3  5  1  0
  5  6  1  0
  6  7  1  0
  8  7  1  6
  8  9  1  0
  9 10  2  0
  9 11  1  0
 11 12  1  0
 12 13  2  0
 13 14  1  0
 14 15  2  0
 15 16  1  0
 16 17  2  0
 17 18  1  0
 18 19  2  0
 19 20  1  0
 20 21  2  0
 20 22  1  0
 19 23  1  0
 18 24  1  0
 17 25  1  0
 15 26  1  0
 13 27  1  0
 11 28  1  0
 28 29  1  0
 29 30  1  0
 30 31  1  0
 31 32  1  0
 32 33  2  0
 33 34  1  0
 34 35  2  0
 35 36  1  0
 36 37  1  0
 36 38  1  0
 36 39  1  0
 35 40  1  0
 33 41  1  0
 31 42  1  0
 30 43  1  0
 30 44  1  0
 29 45  1  1
 28 46  1  0
 28 47  1  0
  8 48  1  0
 48 49  2  0
 49 50  1  0
 50 51  1  0
 50 52  2  0
 52 53  1  0
 53 54  2  0
 54 55  1  0
 55 56  2  0
 53 57  1  0
 52 58  1  0
 49 59  1  0
  7 60  1  0
  7 61  1  0
  5 62  1  0
  5 63  1  0
  2 64  1  0
  1 65  1  0
  1 66  1  0
  1 67  1  0
 55  6  1  0
 29  8  1  0
 40 32  1  0
 54 48  1  0
 21 12  1  0
 21 16  1  0
M  END
>  <cnnaffinities>  (47) 
[6.95358, 6.75975, 6.81378]

>  <score>  (47) 
6.95358

>  <index>  (47) 
49

>  <Smiles>  (47) 
C(N(C(=O)C(N1C([C@@]2(C(=O)N(c3c(nc(c4c(c(c(c(c34)[H])[H])[H])[H])[H])[H])C([C@@]2(C(N(c2c(nc(C([H])([H])[H])s2)[H])[H])([H])[H])[H])([H])[H])c2c(c(Cl)c(c(c2C1=O)[H])[H])[H])([H])[H])([H])[H])[H])([H])([H])[H]

>  <h>  (47) 
<NA>

>  <Training>  (47) 
True

>  <Success>  (47) 
True

>  <enamine_searched>  (47) 
False

>  <enamine_id>  (47) 
nan

$$$$

     RDKit          3D

 66 70  0  0  0  0  0  0  0  0999 V2000
   -7.6621    2.9802  -21.9382 C   0  0  0  0  0  0  0  0  0  0  0  0
   -8.8086    2.5142  -22.6973 N   0  0  0  0  0  0  0  0  0  0  0  0
   -8.5248    1.7256  -23.7745 C   0  0  0  0  0  0  0  0  0  0  0  0
   -7.3713    1.4757  -24.1046 O   0  0  0  0  0  0  0  0  0  0  0  0
   -9.7082    1.1435  -24.5453 C   0  0  0  0  0  0  0  0  0  0  0  0
  -10.1497   -0.0722  -23.8943 N   0  0  0  0  0  0  0  0  0  0  0  0
   -9.2502   -1.2188  -23.8796 C   0  0  0  0  0  0  0  0  0  0  0  0
   -9.3054   -1.9554  -22.5165 C   0  0  2  0  0  0  0  0  0  0  0  0
   -8.7013   -1.0167  -21.4364 C   0  0  0  0  0  0  0  0  0  0  0  0
   -9.2476   -0.0520  -20.9367 O   0  0  0  0  0  0  0  0  0  0  0  0
   -7.4089   -1.4253  -21.1738 N   0  0  0  0  0  0  0  0  0  0  0  0
   -6.6157   -0.8324  -20.1617 C   0  0  0  0  0  0  0  0  0  0  0  0
   -6.9292   -1.0486  -18.8415 C   0  0  0  0  0  0  0  0  0  0  0  0
   -6.2288   -0.5522  -17.7937 N   0  0  0  0  0  0  0  0  0  0  0  0
   -5.1880    0.1986  -18.0715 C   0  0  0  0  0  0  0  0  0  0  0  0
   -4.7543    0.5086  -19.3928 C   0  0  0  0  0  0  0  0  0  0  0  0
   -3.6373    1.3517  -19.6349 C   0  0  0  0  0  0  0  0  0  0  0  0
   -3.2620    1.6528  -20.9146 C   0  0  0  0  0  0  0  0  0  0  0  0
   -3.9851    1.1404  -22.0117 C   0  0  0  0  0  0  0  0  0  0  0  0
   -5.0787    0.3292  -21.8068 C   0  0  0  0  0  0  0  0  0  0  0  0
   -5.4827   -0.0215  -20.4862 C   0  0  0  0  0  0  0  0  0  0  0  0
   -5.6656    0.0125  -22.6651 H   0  0  0  0  0  0  0  0  0  0  0  0
   -3.6830    1.3948  -23.0231 H   0  0  0  0  0  0  0  0  0  0  0  0
   -2.4075    2.2961  -21.0933 H   0  0  0  0  0  0  0  0  0  0  0  0
   -3.1034    1.7571  -18.7793 H   0  0  0  0  0  0  0  0  0  0  0  0
   -4.6176    0.6063  -17.2344 H   0  0  0  0  0  0  0  0  0  0  0  0
   -7.7909   -1.6651  -18.5987 H   0  0  0  0  0  0  0  0  0  0  0  0
   -6.9897   -2.5616  -21.9724 C   0  0  0  0  0  0  0  0  0  0  0  0
   -8.3247   -3.1539  -22.4497 C   0  0  2  0  0  0  0  0  0  0  0  0
   -8.2006   -3.9883  -23.7216 C   0  0  0  0  0  0  0  0  0  0  0  0
   -7.4462   -5.1518  -23.4682 O   0  0  0  0  0  0  0  0  0  0  0  0
   -6.1634   -5.2216  -24.0848 C   0  0  0  0  0  0  0  0  0  0  0  0
   -6.2665   -5.7390  -25.5196 C   0  0  0  0  0  0  0  0  0  0  0  0
   -6.8735   -5.0754  -26.1476 H   0  0  0  0  0  0  0  0  0  0  0  0
   -5.2645   -5.8063  -25.9618 H   0  0  0  0  0  0  0  0  0  0  0  0
   -6.7248   -6.7355  -25.5305 H   0  0  0  0  0  0  0  0  0  0  0  0
   -5.3283   -6.1350  -23.2061 C   0  0  0  0  0  0  0  0  0  0  0  0
   -5.7787   -7.1312  -23.1934 H   0  0  0  0  0  0  0  0  0  0  0  0
   -5.3149   -5.7485  -22.1844 H   0  0  0  0  0  0  0  0  0  0  0  0
   -4.2974   -6.2118  -23.5687 H   0  0  0  0  0  0  0  0  0  0  0  0
   -5.7047   -4.2152  -24.1015 H   0  0  0  0  0  0  0  0  0  0  0  0
   -7.7521   -3.3840  -24.5319 H   0  0  0  0  0  0  0  0  0  0  0  0
   -9.1981   -4.3004  -24.0550 H   0  0  0  0  0  0  0  0  0  0  0  0
   -8.6522   -3.8163  -21.6455 H   0  0  0  0  0  0  0  0  0  0  0  0
   -6.3740   -2.2418  -22.8283 H   0  0  0  0  0  0  0  0  0  0  0  0
   -6.4137   -3.2728  -21.3702 H   0  0  0  0  0  0  0  0  0  0  0  0
  -10.7746   -2.2720  -22.2615 C   0  0  0  0  0  0  0  0  0  0  0  0
  -11.1961   -3.4054  -21.5602 C   0  0  0  0  0  0  0  0  0  0  0  0
  -12.5272   -3.5331  -21.2072 C   0  0  0  0  0  0  0  0  0  0  0  0
  -12.8856   -4.5370  -20.3941 F   0  0  0  0  0  0  0  0  0  0  0  0
  -13.5149   -2.6474  -21.6083 C   0  0  0  0  0  0  0  0  0  0  0  0
  -13.1218   -1.5733  -22.3751 C   0  0  0  0  0  0  0  0  0  0  0  0
  -11.7767   -1.3806  -22.6852 C   0  0  0  0  0  0  0  0  0  0  0  0
  -11.4331   -0.1456  -23.4460 C   0  0  0  0  0  0  0  0  0  0  0  0
  -12.2511    0.7499  -23.6397 O   0  0  0  0  0  0  0  0  0  0  0  0
  -13.8369   -0.8331  -22.7137 H   0  0  0  0  0  0  0  0  0  0  0  0
  -14.5442   -2.8102  -21.3101 H   0  0  0  0  0  0  0  0  0  0  0  0
  -10.5158   -4.1863  -21.2444 H   0  0  0  0  0  0  0  0  0  0  0  0
   -9.5388   -1.9184  -24.6727 H   0  0  0  0  0  0  0  0  0  0  0  0
   -8.2337   -0.8696  -24.0923 H   0  0  0  0  0  0  0  0  0  0  0  0
  -10.5597    1.8320  -24.6091 H   0  0  0  0  0  0  0  0  0  0  0  0
   -9.3687    0.9055  -25.5591 H   0  0  0  0  0  0  0  0  0  0  0  0
   -9.6575    2.3767  -22.1592 H   0  0  0  0  0  0  0  0  0  0  0  0
   -7.1338    2.1495  -21.4449 H   0  0  0  0  0  0  0  0  0  0  0  0
   -7.9968    3.7273  -21.2159 H   0  0  0  0  0  0  0  0  0  0  0  0
   -6.9616    3.4428  -22.6326 H   0  0  0  0  0  0  0  0  0  0  0  0
  1  2  1  0
  2  3  1  0
  3  4  2  0
  3  5  1  0
  5  6  1  0
  6  7  1  0
  8  7  1  6
  8  9  1  0
  9 10  2  0
  9 11  1  0
 11 12  1  0
 12 13  2  0
 13 14  1  0
 14 15  2  0
 15 16  1  0
 16 17  2  0
 17 18  1  0
 18 19  2  0
 19 20  1  0
 20 21  2  0
 20 22  1  0
 19 23  1  0
 18 24  1  0
 17 25  1  0
 15 26  1  0
 13 27  1  0
 11 28  1  0
 28 29  1  0
 29 30  1  0
 30 31  1  0
 31 32  1  0
 32 33  1  0
 33 34  1  0
 33 35  1  0
 33 36  1  0
 32 37  1  0
 37 38  1  0
 37 39  1  0
 37 40  1  0
 32 41  1  0
 30 42  1  0
 30 43  1  0
 29 44  1  1
 28 45  1  0
 28 46  1  0
  8 47  1  0
 47 48  2  0
 48 49  1  0
 49 50  1  0
 49 51  2  0
 51 52  1  0
 52 53  2  0
 53 54  1  0
 54 55  2  0
 52 56  1  0
 51 57  1  0
 48 58  1  0
  7 59  1  0
  7 60  1  0
  5 61  1  0
  5 62  1  0
  2 63  1  0
  1 64  1  0
  1 65  1  0
  1 66  1  0
 54  6  1  0
 29  8  1  0
 53 47  1  0
 21 12  1  0
 21 16  1  0
M  END
>  <cnnaffinities>  (48) 
[6.77356]

>  <score>  (48) 
6.77356

>  <index>  (48) 
50

>  <Smiles>  (48) 
C(N(C(=O)C(N1C([C@@]2(C(=O)N(c3c(nc(c4c(c(c(c(c34)[H])[H])[H])[H])[H])[H])C([C@@]2(C(OC(C([H])([H])[H])(C([H])([H])[H])[H])([H])[H])[H])([H])[H])c2c(c(F)c(c(c2C1=O)[H])[H])[H])([H])[H])([H])[H])[H])([H])([H])[H]

>  <h>  (48) 
<NA>

>  <Training>  (48) 
True

>  <Success>  (48) 
True

>  <enamine_searched>  (48) 
False

>  <enamine_id>  (48) 
nan

$$$$

     RDKit          3D

 50 52  0  0  0  0  0  0  0  0999 V2000
  -11.5762   -0.2647  -25.0567 C   0  0  0  0  0  0  0  0  0  0  0  0
  -10.7864   -0.0117  -24.0175 C   0  0  0  0  0  0  0  0  0  0  0  0
  -10.6816   -0.9549  -22.8323 C   0  0  0  0  0  0  0  0  0  0  0  0
   -9.3295   -1.4377  -22.5731 N   0  0  0  0  0  0  0  0  0  0  0  0
   -8.6454   -0.8441  -21.5257 C   0  0  0  0  0  0  0  0  0  0  0  0
   -9.1514    0.0263  -20.8194 O   0  0  0  0  0  0  0  0  0  0  0  0
   -7.3939   -1.3276  -21.2665 N   0  0  0  0  0  0  0  0  0  0  0  0
   -6.6149   -0.8049  -20.2066 C   0  0  0  0  0  0  0  0  0  0  0  0
   -6.9424   -1.0494  -18.8941 C   0  0  0  0  0  0  0  0  0  0  0  0
   -6.2461   -0.5716  -17.8356 N   0  0  0  0  0  0  0  0  0  0  0  0
   -5.2084    0.1911  -18.0961 C   0  0  0  0  0  0  0  0  0  0  0  0
   -4.7600    0.5202  -19.4084 C   0  0  0  0  0  0  0  0  0  0  0  0
   -3.6410    1.3612  -19.6455 C   0  0  0  0  0  0  0  0  0  0  0  0
   -3.2574    1.6619  -20.9262 C   0  0  0  0  0  0  0  0  0  0  0  0
   -3.9711    1.1471  -22.0307 C   0  0  0  0  0  0  0  0  0  0  0  0
   -5.0671    0.3404  -21.8284 C   0  0  0  0  0  0  0  0  0  0  0  0
   -5.4769   -0.0011  -20.5088 C   0  0  0  0  0  0  0  0  0  0  0  0
   -5.6264   -0.0329  -22.6845 H   0  0  0  0  0  0  0  0  0  0  0  0
   -3.6557    1.3956  -23.0419 H   0  0  0  0  0  0  0  0  0  0  0  0
   -2.4003    2.3061  -21.1005 H   0  0  0  0  0  0  0  0  0  0  0  0
   -3.1114    1.7634  -18.7859 H   0  0  0  0  0  0  0  0  0  0  0  0
   -4.6529    0.5897  -17.2472 H   0  0  0  0  0  0  0  0  0  0  0  0
   -7.8061   -1.6710  -18.6660 H   0  0  0  0  0  0  0  0  0  0  0  0
   -6.9677   -1.9413  -21.9456 H   0  0  0  0  0  0  0  0  0  0  0  0
   -8.7290   -2.2219  -23.6102 C   0  0  0  0  0  0  0  0  0  0  0  0
   -9.1679   -3.5225  -23.8613 C   0  0  0  0  0  0  0  0  0  0  0  0
   -8.5743   -4.2550  -24.8836 C   0  0  0  0  0  0  0  0  0  0  0  0
   -7.5830   -3.6974  -25.6830 C   0  0  0  0  0  0  0  0  0  0  0  0
   -7.1947   -2.3873  -25.4467 C   0  0  0  0  0  0  0  0  0  0  0  0
   -5.9671   -1.6614  -26.4396 Cl  0  0  0  0  0  0  0  0  0  0  0  0
   -7.7582   -1.6407  -24.4231 C   0  0  0  0  0  0  0  0  0  0  0  0
   -7.4767   -0.6001  -24.2744 H   0  0  0  0  0  0  0  0  0  0  0  0
   -7.1111   -4.2664  -26.4761 H   0  0  0  0  0  0  0  0  0  0  0  0
   -8.9001   -5.2730  -25.0704 H   0  0  0  0  0  0  0  0  0  0  0  0
   -9.9761   -3.9501  -23.2676 H   0  0  0  0  0  0  0  0  0  0  0  0
  -11.3202   -1.8214  -23.0254 H   0  0  0  0  0  0  0  0  0  0  0  0
  -11.0192   -0.4847  -21.9120 H   0  0  0  0  0  0  0  0  0  0  0  0
   -9.8969    1.1974  -24.1390 C   0  0  0  0  0  0  0  0  0  0  0  0
   -9.6266    1.6724  -25.2386 O   0  0  0  0  0  0  0  0  0  0  0  0
   -9.3882    1.7356  -23.0031 N   0  0  0  0  0  0  0  0  0  0  0  0
   -8.1509    2.4851  -23.1321 C   0  0  0  0  0  0  0  0  0  0  0  0
   -7.5365    2.8062  -21.7868 C   0  0  0  0  0  0  0  0  0  0  0  0
   -7.5627    1.9435  -21.1144 H   0  0  0  0  0  0  0  0  0  0  0  0
   -6.4900    3.1045  -21.8894 H   0  0  0  0  0  0  0  0  0  0  0  0
   -8.0681    3.6197  -21.2951 H   0  0  0  0  0  0  0  0  0  0  0  0
   -7.4232    1.8890  -23.6945 H   0  0  0  0  0  0  0  0  0  0  0  0
   -8.3511    3.3836  -23.7220 H   0  0  0  0  0  0  0  0  0  0  0  0
   -9.5871    1.3294  -22.0992 H   0  0  0  0  0  0  0  0  0  0  0  0
  -11.5862    0.3983  -25.9175 H   0  0  0  0  0  0  0  0  0  0  0  0
  -12.2426   -1.1227  -25.0572 H   0  0  0  0  0  0  0  0  0  0  0  0
  1  2  2  0
  2  3  1  0
  3  4  1  0
  4  5  1  0
  5  6  2  0
  5  7  1  0
  7  8  1  0
  8  9  2  0
  9 10  1  0
 10 11  2  0
 11 12  1  0
 12 13  2  0
 13 14  1  0
 14 15  2  0
 15 16  1  0
 16 17  2  0
 16 18  1  0
 15 19  1  0
 14 20  1  0
 13 21  1  0
 11 22  1  0
  9 23  1  0
  7 24  1  0
  4 25  1  0
 25 26  2  0
 26 27  1  0
 27 28  2  0
 28 29  1  0
 29 30  1  0
 29 31  2  0
 31 32  1  0
 28 33  1  0
 27 34  1  0
 26 35  1  0
  3 36  1  0
  3 37  1  0
  2 38  1  0
 38 39  2  0
 38 40  1  0
 40 41  1  0
 41 42  1  0
 42 43  1  0
 42 44  1  0
 42 45  1  0
 41 46  1  0
 41 47  1  0
 40 48  1  0
  1 49  1  0
  1 50  1  0
 17  8  1  0
 31 25  1  0
 17 12  1  0
M  END
>  <cnnaffinities>  (49) 
[5.96102]

>  <score>  (49) 
5.96102

>  <index>  (49) 
51

>  <Smiles>  (49) 
C(=C(C(N(C(=O)N(c1c(nc(c2c(c(c(c(c12)[H])[H])[H])[H])[H])[H])[H])c1c(c(c(c(Cl)c1[H])[H])[H])[H])([H])[H])C(=O)N(C(C([H])([H])[H])([H])[H])[H])([H])[H]

>  <h>  (49) 
<NA>

>  <Training>  (49) 
True

>  <Success>  (49) 
True

>  <enamine_searched>  (49) 
False

>  <enamine_id>  (49) 
nan

$$$$

     RDKit          3D

 57 60  0  0  0  0  0  0  0  0999 V2000
  -13.9600   -1.1146  -23.7489 C   0  0  0  0  0  0  0  0  0  0  0  0
  -13.1682   -1.3765  -25.0411 C   0  0  0  0  0  0  0  0  0  0  0  0
  -11.7427   -0.8431  -25.1393 C   0  0  0  0  0  0  0  0  0  0  0  0
  -11.4858    0.3216  -25.3931 O   0  0  0  0  0  0  0  0  0  0  0  0
  -10.7712   -1.7977  -24.9544 N   0  0  0  0  0  0  0  0  0  0  0  0
   -9.3797   -1.5843  -25.0540 C   0  0  0  0  0  0  0  0  0  0  0  0
   -8.8275   -0.7839  -26.0485 C   0  0  0  0  0  0  0  0  0  0  0  0
   -7.4442   -0.6474  -26.0879 C   0  0  0  0  0  0  0  0  0  0  0  0
   -6.6241   -1.2589  -25.1464 C   0  0  0  0  0  0  0  0  0  0  0  0
   -7.1863   -2.0513  -24.1473 C   0  0  0  0  0  0  0  0  0  0  0  0
   -6.3398   -2.6817  -23.1914 N   0  0  0  0  0  0  0  0  0  0  0  0
   -5.3414   -3.6272  -23.6883 C   0  0  0  0  0  0  0  0  0  0  0  0
   -5.9758   -4.9479  -24.0778 C   0  0  0  0  0  0  0  0  0  0  0  0
   -6.0202   -6.0084  -23.1728 C   0  0  0  0  0  0  0  0  0  0  0  0
   -6.7821   -7.1363  -23.4574 C   0  0  0  0  0  0  0  0  0  0  0  0
   -7.4904   -7.2225  -24.6500 C   0  0  0  0  0  0  0  0  0  0  0  0
   -7.3840   -6.2089  -25.5967 C   0  0  0  0  0  0  0  0  0  0  0  0
   -6.6117   -5.0872  -25.3141 C   0  0  0  0  0  0  0  0  0  0  0  0
   -6.5067   -4.3069  -26.0687 H   0  0  0  0  0  0  0  0  0  0  0  0
   -7.8966   -6.2849  -26.5552 H   0  0  0  0  0  0  0  0  0  0  0  0
   -8.1008   -8.0996  -24.8443 H   0  0  0  0  0  0  0  0  0  0  0  0
   -6.8218   -7.9599  -22.7496 H   0  0  0  0  0  0  0  0  0  0  0  0
   -5.4602   -5.9497  -22.2398 H   0  0  0  0  0  0  0  0  0  0  0  0
   -4.8516   -3.1645  -24.5493 H   0  0  0  0  0  0  0  0  0  0  0  0
   -4.5977   -3.7505  -22.8990 H   0  0  0  0  0  0  0  0  0  0  0  0
   -6.5684   -2.6699  -21.8260 C   0  0  0  0  0  0  0  0  0  0  0  0
   -6.0767   -3.5147  -21.1002 O   0  0  0  0  0  0  0  0  0  0  0  0
   -7.3752   -1.5024  -21.2562 C   0  0  0  0  0  0  0  0  0  0  0  0
   -6.5931   -0.8311  -20.1641 C   0  0  0  0  0  0  0  0  0  0  0  0
   -6.9015   -1.0564  -18.8517 C   0  0  0  0  0  0  0  0  0  0  0  0
   -6.2293   -0.5441  -17.7877 N   0  0  0  0  0  0  0  0  0  0  0  0
   -5.1971    0.2173  -18.0585 C   0  0  0  0  0  0  0  0  0  0  0  0
   -4.7491    0.5249  -19.3736 C   0  0  0  0  0  0  0  0  0  0  0  0
   -3.6195    1.3512  -19.6029 C   0  0  0  0  0  0  0  0  0  0  0  0
   -3.2068    1.6289  -20.8756 C   0  0  0  0  0  0  0  0  0  0  0  0
   -3.9127    1.0944  -21.9769 C   0  0  0  0  0  0  0  0  0  0  0  0
   -5.0138    0.2958  -21.7857 C   0  0  0  0  0  0  0  0  0  0  0  0
   -5.4630   -0.0135  -20.4687 C   0  0  0  0  0  0  0  0  0  0  0  0
   -5.5396   -0.0946  -22.6566 H   0  0  0  0  0  0  0  0  0  0  0  0
   -3.5820    1.3291  -22.9843 H   0  0  0  0  0  0  0  0  0  0  0  0
   -2.3437    2.2664  -21.0495 H   0  0  0  0  0  0  0  0  0  0  0  0
   -3.1012    1.7699  -18.7443 H   0  0  0  0  0  0  0  0  0  0  0  0
   -4.6505    0.6336  -17.2112 H   0  0  0  0  0  0  0  0  0  0  0  0
   -7.7518   -1.6901  -18.5983 H   0  0  0  0  0  0  0  0  0  0  0  0
   -7.6313   -0.7904  -22.0453 H   0  0  0  0  0  0  0  0  0  0  0  0
   -8.3141   -1.9058  -20.8528 H   0  0  0  0  0  0  0  0  0  0  0  0
   -8.5641   -2.2458  -24.1353 C   0  0  0  0  0  0  0  0  0  0  0  0
   -9.0196   -2.8920  -23.3911 H   0  0  0  0  0  0  0  0  0  0  0  0
   -5.5476   -1.1091  -25.1694 H   0  0  0  0  0  0  0  0  0  0  0  0
   -6.9915   -0.0435  -26.8679 H   0  0  0  0  0  0  0  0  0  0  0  0
   -9.4626   -0.2914  -26.7820 H   0  0  0  0  0  0  0  0  0  0  0  0
  -11.0468   -2.7238  -24.6546 H   0  0  0  0  0  0  0  0  0  0  0  0
  -13.1645   -2.4527  -25.2413 H   0  0  0  0  0  0  0  0  0  0  0  0
  -13.7164   -0.8665  -25.8428 H   0  0  0  0  0  0  0  0  0  0  0  0
  -14.9956   -1.4394  -23.9095 H   0  0  0  0  0  0  0  0  0  0  0  0
  -14.0245   -0.0435  -23.5365 H   0  0  0  0  0  0  0  0  0  0  0  0
  -13.5870   -1.6348  -22.8529 H   0  0  0  0  0  0  0  0  0  0  0  0
  1  2  1  0
  2  3  1  0
  3  4  2  0
  3  5  1  0
  5  6  1  0
  6  7  2  0
  7  8  1  0
  8  9  2  0
  9 10  1  0
 10 11  1  0
 11 12  1  0
 12 13  1  0
 13 14  2  0
 14 15  1  0
 15 16  2  0
 16 17  1  0
 17 18  2  0
 18 19  1  0
 17 20  1  0
 16 21  1  0
 15 22  1  0
 14 23  1  0
 12 24  1  0
 12 25  1  0
 11 26  1  0
 26 27  2  0
 26 28  1  0
 28 29  1  0
 29 30  2  0
 30 31  1  0
 31 32  2  0
 32 33  1  0
 33 34  2  0
 34 35  1  0
 35 36  2  0
 36 37  1  0
 37 38  2  0
 37 39  1  0
 36 40  1  0
 35 41  1  0
 34 42  1  0
 32 43  1  0
 30 44  1  0
 28 45  1  0
 28 46  1  0
 10 47  2  0
 47 48  1  0
  9 49  1  0
  8 50  1  0
  7 51  1  0
  5 52  1  0
  2 53  1  0
  2 54  1  0
  1 55  1  0
  1 56  1  0
  1 57  1  0
 47  6  1  0
 18 13  1  0
 38 29  1  0
 38 33  1  0
M  END
>  <cnnaffinities>  (50) 
[6.06493, 5.37921, 6.15287]

>  <score>  (50) 
6.06493

>  <index>  (50) 
52

>  <Smiles>  (50) 
C(C(C(=O)N(c1c(c(c(c(N(C(c2c(c(c(c(c2[H])[H])[H])[H])[H])([H])[H])C(=O)C(c2c(nc(c3c(c(c(c(c23)[H])[H])[H])[H])[H])[H])([H])[H])c1[H])[H])[H])[H])[H])([H])[H])([H])([H])[H]

>  <h>  (50) 
<NA>

>  <Training>  (50) 
True

>  <Success>  (50) 
True

>  <enamine_searched>  (50) 
False

>  <enamine_id>  (50) 
nan

$$$$

     RDKit          3D

 59 63  0  0  0  0  0  0  0  0999 V2000
  -13.9589   -1.0661  -24.4396 C   0  0  0  0  0  0  0  0  0  0  0  0
  -14.8717   -2.0267  -23.6855 C   0  0  0  0  0  0  0  0  0  0  0  0
  -14.1181   -3.1195  -23.1011 N   0  0  0  0  0  0  0  0  0  0  0  0
  -13.3314   -2.8425  -22.0291 C   0  0  0  0  0  0  0  0  0  0  0  0
  -13.3663   -1.7681  -21.4565 O   0  0  0  0  0  0  0  0  0  0  0  0
  -12.4222   -3.9900  -21.6336 C   0  0  0  0  0  0  0  0  0  0  0  0
  -11.1174   -3.8978  -22.2636 N   0  0  0  0  0  0  0  0  0  0  0  0
   -9.9915   -3.4018  -21.4849 C   0  0  0  0  0  0  0  0  0  0  0  0
   -8.8000   -2.9239  -22.3421 C   0  0  2  0  0  0  0  0  0  0  0  0
   -7.5765   -2.7062  -21.4364 C   0  0  0  0  0  0  0  0  0  0  0  0
   -6.8398   -3.5618  -20.9881 O   0  0  0  0  0  0  0  0  0  0  0  0
   -7.4069   -1.3526  -21.2337 N   0  0  0  0  0  0  0  0  0  0  0  0
   -6.5892   -0.8560  -20.1902 C   0  0  0  0  0  0  0  0  0  0  0  0
   -6.9028   -1.1012  -18.8771 C   0  0  0  0  0  0  0  0  0  0  0  0
   -6.2341   -0.5723  -17.8208 N   0  0  0  0  0  0  0  0  0  0  0  0
   -5.2108    0.2049  -18.0841 C   0  0  0  0  0  0  0  0  0  0  0  0
   -4.7605    0.5153  -19.3994 C   0  0  0  0  0  0  0  0  0  0  0  0
   -3.6325    1.3431  -19.6324 C   0  0  0  0  0  0  0  0  0  0  0  0
   -3.2246    1.6086  -20.9098 C   0  0  0  0  0  0  0  0  0  0  0  0
   -3.9241    1.0662  -22.0111 C   0  0  0  0  0  0  0  0  0  0  0  0
   -5.0224    0.2657  -21.8127 C   0  0  0  0  0  0  0  0  0  0  0  0
   -5.4680   -0.0244  -20.4957 C   0  0  0  0  0  0  0  0  0  0  0  0
   -5.5489   -0.1605  -22.6605 H   0  0  0  0  0  0  0  0  0  0  0  0
   -3.5905    1.2895  -23.0199 H   0  0  0  0  0  0  0  0  0  0  0  0
   -2.3646    2.2483  -21.0870 H   0  0  0  0  0  0  0  0  0  0  0  0
   -3.1141    1.7622  -18.7736 H   0  0  0  0  0  0  0  0  0  0  0  0
   -4.6710    0.6258  -17.2342 H   0  0  0  0  0  0  0  0  0  0  0  0
   -7.7460   -1.7409  -18.6262 H   0  0  0  0  0  0  0  0  0  0  0  0
   -8.4034   -0.5310  -21.9003 C   0  0  0  0  0  0  0  0  0  0  0  0
   -9.0246   -1.4865  -22.9288 C   0  0  2  0  0  0  0  0  0  0  0  0
  -10.4697   -1.1463  -23.2606 C   0  0  0  0  0  0  0  0  0  0  0  0
  -10.5523   -0.1859  -23.7763 H   0  0  0  0  0  0  0  0  0  0  0  0
  -11.0798   -1.1066  -22.3499 H   0  0  0  0  0  0  0  0  0  0  0  0
  -10.8971   -1.9188  -23.9071 H   0  0  0  0  0  0  0  0  0  0  0  0
   -8.4187   -1.4488  -23.8452 H   0  0  0  0  0  0  0  0  0  0  0  0
   -7.9382    0.3405  -22.3738 H   0  0  0  0  0  0  0  0  0  0  0  0
   -9.1534   -0.1572  -21.1839 H   0  0  0  0  0  0  0  0  0  0  0  0
   -8.5339   -3.9583  -23.4028 C   0  0  0  0  0  0  0  0  0  0  0  0
   -7.2550   -4.0908  -23.9476 C   0  0  0  0  0  0  0  0  0  0  0  0
   -7.0279   -5.0162  -24.9476 C   0  0  0  0  0  0  0  0  0  0  0  0
   -5.4443   -5.1397  -25.6453 Cl  0  0  0  0  0  0  0  0  0  0  0  0
   -8.0398   -5.8556  -25.4066 C   0  0  0  0  0  0  0  0  0  0  0  0
   -9.3147   -5.6874  -24.9005 C   0  0  0  0  0  0  0  0  0  0  0  0
   -9.5750   -4.7263  -23.9295 C   0  0  0  0  0  0  0  0  0  0  0  0
  -10.9787   -4.5331  -23.4585 C   0  0  0  0  0  0  0  0  0  0  0  0
  -11.9577   -4.9105  -24.1047 O   0  0  0  0  0  0  0  0  0  0  0  0
  -10.1419   -6.2858  -25.2605 H   0  0  0  0  0  0  0  0  0  0  0  0
   -7.8285   -6.6145  -26.1530 H   0  0  0  0  0  0  0  0  0  0  0  0
   -6.4321   -3.4878  -23.5822 H   0  0  0  0  0  0  0  0  0  0  0  0
   -9.6675   -4.1949  -20.8066 H   0  0  0  0  0  0  0  0  0  0  0  0
  -10.3375   -2.5397  -20.9081 H   0  0  0  0  0  0  0  0  0  0  0  0
  -12.8998   -4.8967  -21.9921 H   0  0  0  0  0  0  0  0  0  0  0  0
  -12.3392   -4.0430  -20.5499 H   0  0  0  0  0  0  0  0  0  0  0  0
  -13.7590   -3.8274  -23.7337 H   0  0  0  0  0  0  0  0  0  0  0  0
  -15.3789   -1.4994  -22.8706 H   0  0  0  0  0  0  0  0  0  0  0  0
  -15.6331   -2.4664  -24.3350 H   0  0  0  0  0  0  0  0  0  0  0  0
  -14.5289   -0.3036  -24.9715 H   0  0  0  0  0  0  0  0  0  0  0  0
  -13.3291   -1.5989  -25.1669 H   0  0  0  0  0  0  0  0  0  0  0  0
  -13.3110   -0.5623  -23.7149 H   0  0  0  0  0  0  0  0  0  0  0  0
  1  2  1  0
  2  3  1  0
  3  4  1  0
  4  5  2  0
  4  6  1  0
  6  7  1  0
  7  8  1  0
  9  8  1  1
  9 10  1  0
 10 11  2  0
 10 12  1  0
 12 13  1  0
 13 14  2  0
 14 15  1  0
 15 16  2  0
 16 17  1  0
 17 18  2  0
 18 19  1  0
 19 20  2  0
 20 21  1  0
 21 22  2  0
 21 23  1  0
 20 24  1  0
 19 25  1  0
 18 26  1  0
 16 27  1  0
 14 28  1  0
 12 29  1  0
 29 30  1  0
 30 31  1  0
 31 32  1  0
 31 33  1  0
 31 34  1  0
 30 35  1  6
 29 36  1  0
 29 37  1  0
  9 38  1  0
 38 39  2  0
 39 40  1  0
 40 41  1  0
 40 42  2  0
 42 43  1  0
 43 44  2  0
 44 45  1  0
 45 46  2  0
 43 47  1  0
 42 48  1  0
 39 49  1  0
  8 50  1  0
  8 51  1  0
  6 52  1  0
  6 53  1  0
  3 54  1  0
  2 55  1  0
  2 56  1  0
  1 57  1  0
  1 58  1  0
  1 59  1  0
 45  7  1  0
 30  9  1  0
 44 38  1  0
 22 13  1  0
 22 17  1  0
M  END
>  <cnnaffinities>  (51) 
[6.45466]

>  <score>  (51) 
6.45466

>  <index>  (51) 
53

>  <Smiles>  (51) 
C(C(N(C(=O)C(N1C([C@@]2(C(=O)N(c3c(nc(c4c(c(c(c(c34)[H])[H])[H])[H])[H])[H])C([C@@]2(C([H])([H])[H])[H])([H])[H])c2c(c(Cl)c(c(c2C1=O)[H])[H])[H])([H])[H])([H])[H])[H])([H])[H])([H])([H])[H]

>  <h>  (51) 
<NA>

>  <Training>  (51) 
True

>  <Success>  (51) 
True

>  <enamine_searched>  (51) 
False

>  <enamine_id>  (51) 
nan

$$$$

     RDKit          3D

 40 43  0  0  0  0  0  0  0  0999 V2000
   -7.9553   -3.5566  -24.0441 C   0  0  0  0  0  0  0  0  0  0  0  0
   -7.9922   -2.7055  -22.8694 N   0  0  0  0  0  0  0  0  0  0  0  0
   -9.0591   -2.0259  -22.3374 C   0  0  0  0  0  0  0  0  0  0  0  0
  -10.4368   -2.0557  -22.9164 C   0  0  0  0  0  0  0  0  0  0  0  0
  -10.5449   -1.1584  -24.1313 C   0  0  0  0  0  0  0  0  0  0  0  0
  -10.5379    0.2256  -23.9642 C   0  0  0  0  0  0  0  0  0  0  0  0
  -10.6111    1.0681  -25.0678 C   0  0  0  0  0  0  0  0  0  0  0  0
  -10.6775    0.5342  -26.3517 C   0  0  0  0  0  0  0  0  0  0  0  0
  -10.6703   -0.8455  -26.5267 C   0  0  0  0  0  0  0  0  0  0  0  0
  -10.6012   -1.6850  -25.4186 C   0  0  0  0  0  0  0  0  0  0  0  0
  -10.5885   -2.7640  -25.5571 H   0  0  0  0  0  0  0  0  0  0  0  0
  -10.7199   -1.2713  -27.5244 H   0  0  0  0  0  0  0  0  0  0  0  0
  -10.7313    1.1914  -27.2145 H   0  0  0  0  0  0  0  0  0  0  0  0
  -10.6139    2.1454  -24.9274 H   0  0  0  0  0  0  0  0  0  0  0  0
  -10.4781    0.6437  -22.9616 H   0  0  0  0  0  0  0  0  0  0  0  0
  -10.7192   -3.0848  -23.1713 H   0  0  0  0  0  0  0  0  0  0  0  0
  -11.1210   -1.7258  -22.1282 H   0  0  0  0  0  0  0  0  0  0  0  0
   -8.7107   -1.2848  -21.3269 N   0  0  0  0  0  0  0  0  0  0  0  0
   -7.3544   -1.4540  -21.2114 N   0  0  0  0  0  0  0  0  0  0  0  0
   -6.5843   -0.8299  -20.1832 C   0  0  0  0  0  0  0  0  0  0  0  0
   -6.8956   -1.0491  -18.8636 C   0  0  0  0  0  0  0  0  0  0  0  0
   -6.1969   -0.5451  -17.8161 N   0  0  0  0  0  0  0  0  0  0  0  0
   -5.1587    0.2171  -18.0715 C   0  0  0  0  0  0  0  0  0  0  0  0
   -4.7243    0.5329  -19.3885 C   0  0  0  0  0  0  0  0  0  0  0  0
   -3.5989    1.3719  -19.6251 C   0  0  0  0  0  0  0  0  0  0  0  0
   -3.2256    1.6777  -20.9054 C   0  0  0  0  0  0  0  0  0  0  0  0
   -3.9596    1.1667  -21.9994 C   0  0  0  0  0  0  0  0  0  0  0  0
   -5.0502    0.3614  -21.7950 C   0  0  0  0  0  0  0  0  0  0  0  0
   -5.4554    0.0073  -20.4791 C   0  0  0  0  0  0  0  0  0  0  0  0
   -5.6150   -0.0166  -22.6394 H   0  0  0  0  0  0  0  0  0  0  0  0
   -3.6661    1.4228  -23.0122 H   0  0  0  0  0  0  0  0  0  0  0  0
   -2.3733    2.3232  -21.0958 H   0  0  0  0  0  0  0  0  0  0  0  0
   -3.0544    1.7790  -18.7755 H   0  0  0  0  0  0  0  0  0  0  0  0
   -4.6052    0.6246  -17.2209 H   0  0  0  0  0  0  0  0  0  0  0  0
   -7.7406   -1.6755  -18.5931 H   0  0  0  0  0  0  0  0  0  0  0  0
   -6.8599   -2.3631  -22.1370 C   0  0  0  0  0  0  0  0  0  0  0  0
   -5.7195   -2.7536  -22.2838 O   0  0  0  0  0  0  0  0  0  0  0  0
   -8.8218   -4.2214  -24.0882 H   0  0  0  0  0  0  0  0  0  0  0  0
   -7.0652   -4.1812  -23.9997 H   0  0  0  0  0  0  0  0  0  0  0  0
   -7.9103   -2.9788  -24.9727 H   0  0  0  0  0  0  0  0  0  0  0  0
  1  2  1  0
  2  3  1  0
  3  4  1  0
  4  5  1  0
  5  6  2  0
  6  7  1  0
  7  8  2  0
  8  9  1  0
  9 10  2  0
 10 11  1  0
  9 12  1  0
  8 13  1  0
  7 14  1  0
  6 15  1  0
  4 16  1  0
  4 17  1  0
  3 18  2  0
 18 19  1  0
 19 20  1  0
 20 21  2  0
 21 22  1  0
 22 23  2  0
 23 24  1  0
 24 25  2  0
 25 26  1  0
 26 27  2  0
 27 28  1  0
 28 29  2  0
 28 30  1  0
 27 31  1  0
 26 32  1  0
 25 33  1  0
 23 34  1  0
 21 35  1  0
 19 36  1  0
 36 37  2  0
  1 38  1  0
  1 39  1  0
  1 40  1  0
 36  2  1  0
 10  5  1  0
 29 20  1  0
 29 24  1  0
M  END
>  <cnnaffinities>  (52) 
[5.49845, 5.49881, 5.38864, 5.39037]

>  <score>  (52) 
5.49845

>  <index>  (52) 
54

>  <Smiles>  (52) 
C(n1c(C(c2c(c(c(c(c2[H])[H])[H])[H])[H])([H])[H])nn(c2c(nc(c3c(c(c(c(c23)[H])[H])[H])[H])[H])[H])c1=O)([H])([H])[H]

>  <h>  (52) 
<NA>

>  <Training>  (52) 
True

>  <Success>  (52) 
True

>  <enamine_searched>  (52) 
False

>  <enamine_id>  (52) 
nan

$$$$

     RDKit          3D

 61 66  0  0  0  0  0  0  0  0999 V2000
   -9.1427   -4.6285  -25.8173 C   0  0  0  0  0  0  0  0  0  0  0  0
   -9.3231   -4.0173  -24.5613 O   0  0  0  0  0  0  0  0  0  0  0  0
   -8.1027   -3.6487  -23.9680 C   0  0  0  0  0  0  0  0  0  0  0  0
   -8.3695   -2.9255  -22.6569 C   0  0  1  0  0  0  0  0  0  0  0  0
   -7.0619   -2.5296  -21.9608 C   0  0  0  0  0  0  0  0  0  0  0  0
   -7.4161   -1.3495  -21.2021 N   0  0  0  0  0  0  0  0  0  0  0  0
   -6.6127   -0.8012  -20.1731 C   0  0  0  0  0  0  0  0  0  0  0  0
   -6.9255   -1.0392  -18.8587 C   0  0  0  0  0  0  0  0  0  0  0  0
   -6.2244   -0.5515  -17.8059 N   0  0  0  0  0  0  0  0  0  0  0  0
   -5.1890    0.2095  -18.0761 C   0  0  0  0  0  0  0  0  0  0  0  0
   -4.7535    0.5318  -19.3935 C   0  0  0  0  0  0  0  0  0  0  0  0
   -3.6321    1.3694  -19.6344 C   0  0  0  0  0  0  0  0  0  0  0  0
   -3.2424    1.6559  -20.9143 C   0  0  0  0  0  0  0  0  0  0  0  0
   -3.9399    1.1117  -22.0136 C   0  0  0  0  0  0  0  0  0  0  0  0
   -5.0198    0.2841  -21.8047 C   0  0  0  0  0  0  0  0  0  0  0  0
   -5.4659   -0.0108  -20.4869 C   0  0  0  0  0  0  0  0  0  0  0  0
   -5.5729   -0.0977  -22.6570 H   0  0  0  0  0  0  0  0  0  0  0  0
   -3.6227    1.3689  -23.0222 H   0  0  0  0  0  0  0  0  0  0  0  0
   -2.3892    2.3032  -21.0930 H   0  0  0  0  0  0  0  0  0  0  0  0
   -3.0974    1.7724  -18.7796 H   0  0  0  0  0  0  0  0  0  0  0  0
   -4.6199    0.6067  -17.2337 H   0  0  0  0  0  0  0  0  0  0  0  0
   -7.7904   -1.6541  -18.6186 H   0  0  0  0  0  0  0  0  0  0  0  0
   -8.6410   -0.8087  -21.5350 C   0  0  0  0  0  0  0  0  0  0  0  0
   -9.1419    0.1532  -20.9984 O   0  0  0  0  0  0  0  0  0  0  0  0
   -9.2234   -1.6283  -22.7105 C   0  0  1  0  0  0  0  0  0  0  0  0
   -9.0029   -0.8679  -24.0391 C   0  0  0  0  0  0  0  0  0  0  0  0
   -9.8193    0.3299  -24.1156 N   0  0  0  0  0  0  0  0  0  0  0  0
   -9.1933    1.5473  -24.6055 C   0  0  0  0  0  0  0  0  0  0  0  0
   -8.3331    2.2203  -23.5771 C   0  0  0  0  0  0  0  0  0  0  0  0
   -6.9896    2.2738  -23.4156 C   0  0  0  0  0  0  0  0  0  0  0  0
   -6.7258    3.0718  -22.3293 N   0  0  0  0  0  4  0  0  0  0  0  0
   -7.8796    3.5125  -21.8252 C   0  0  0  0  0  0  0  0  0  0  0  0
   -8.8763    2.9942  -22.5604 N   0  0  0  0  0  0  0  0  0  0  0  0
   -9.8457    2.9681  -22.2559 H   0  0  0  0  0  0  0  0  0  0  0  0
   -7.9905    4.2352  -21.0273 H   0  0  0  0  0  0  0  0  0  0  0  0
   -5.8107    3.0859  -21.8928 H   0  0  0  0  0  0  0  0  0  0  0  0
   -6.1728    1.8070  -23.9453 H   0  0  0  0  0  0  0  0  0  0  0  0
   -8.6064    1.2908  -25.4963 H   0  0  0  0  0  0  0  0  0  0  0  0
  -10.0008    2.2145  -24.9238 H   0  0  0  0  0  0  0  0  0  0  0  0
  -11.1648    0.2968  -23.8608 C   0  0  0  0  0  0  0  0  0  0  0  0
  -11.9298    1.1806  -24.2161 O   0  0  0  0  0  0  0  0  0  0  0  0
  -11.6357   -0.9034  -23.0936 C   0  0  0  0  0  0  0  0  0  0  0  0
  -13.0095   -1.0448  -22.8904 C   0  0  0  0  0  0  0  0  0  0  0  0
  -13.4987   -2.0632  -22.0962 C   0  0  0  0  0  0  0  0  0  0  0  0
  -12.5884   -2.9472  -21.5208 C   0  0  0  0  0  0  0  0  0  0  0  0
  -13.1590   -4.2043  -20.4649 Cl  0  0  0  0  0  0  0  0  0  0  0  0
  -11.2291   -2.8397  -21.7424 C   0  0  0  0  0  0  0  0  0  0  0  0
  -10.7205   -1.8165  -22.5457 C   0  0  0  0  0  0  0  0  0  0  0  0
  -10.5803   -3.5504  -21.2445 H   0  0  0  0  0  0  0  0  0  0  0  0
  -14.5569   -2.1685  -21.8846 H   0  0  0  0  0  0  0  0  0  0  0  0
  -13.6766   -0.3250  -23.3534 H   0  0  0  0  0  0  0  0  0  0  0  0
   -9.2595   -1.5463  -24.8598 H   0  0  0  0  0  0  0  0  0  0  0  0
   -7.9505   -0.5814  -24.1476 H   0  0  0  0  0  0  0  0  0  0  0  0
   -6.2782   -2.3142  -22.7033 H   0  0  0  0  0  0  0  0  0  0  0  0
   -6.6965   -3.3210  -21.2974 H   0  0  0  0  0  0  0  0  0  0  0  0
   -8.8893   -3.6326  -22.0136 H   0  0  0  0  0  0  0  0  0  0  0  0
   -7.5190   -2.9980  -24.6429 H   0  0  0  0  0  0  0  0  0  0  0  0
   -7.4912   -4.5452  -23.7687 H   0  0  0  0  0  0  0  0  0  0  0  0
   -8.5142   -5.5312  -25.7476 H   0  0  0  0  0  0  0  0  0  0  0  0
  -10.1256   -4.9201  -26.1942 H   0  0  0  0  0  0  0  0  0  0  0  0
   -8.6838   -3.9380  -26.5435 H   0  0  0  0  0  0  0  0  0  0  0  0
  1  2  1  0
  2  3  1  0
  3  4  1  0
  4  5  1  0
  5  6  1  0
  6  7  1  0
  7  8  2  0
  8  9  1  0
  9 10  2  0
 10 11  1  0
 11 12  2  0
 12 13  1  0
 13 14  2  0
 14 15  1  0
 15 16  2  0
 15 17  1  0
 14 18  1  0
 13 19  1  0
 12 20  1  0
 10 21  1  0
  8 22  1  0
  6 23  1  0
 23 24  2  0
 23 25  1  0
 25 26  1  6
 26 27  1  0
 27 28  1  0
 28 29  1  0
 29 30  2  0
 30 31  1  0
 31 32  2  0
 32 33  1  0
 33 34  1  0
 32 35  1  0
 31 36  1  0
 30 37  1  0
 28 38  1  0
 28 39  1  0
 27 40  1  0
 40 41  2  0
 40 42  1  0
 42 43  2  0
 43 44  1  0
 44 45  2  0
 45 46  1  0
 45 47  1  0
 47 48  2  0
 47 49  1  0
 44 50  1  0
 43 51  1  0
 26 52  1  0
 26 53  1  0
  5 54  1  0
  5 55  1  0
  4 56  1  1
  3 57  1  0
  3 58  1  0
  1 59  1  0
  1 60  1  0
  1 61  1  0
 25  4  1  0
 33 29  1  0
 48 42  1  0
 16  7  1  0
 48 25  1  0
 16 11  1  0
M  CHG  1  31   1
M  END
>  <cnnaffinities>  (53) 
[6.50015, 6.32582]

>  <score>  (53) 
6.50015

>  <index>  (53) 
55

>  <Smiles>  (53) 
C(OC([C@]1(C(N(c2c(nc(c3c(c(c(c(c23)[H])[H])[H])[H])[H])[H])C(=O)[C@]21C(N(C(c1c([n+](c(n1[H])[H])[H])[H])([H])[H])C(=O)c1c(c(c(Cl)c(c21)[H])[H])[H])([H])[H])([H])[H])[H])([H])[H])([H])([H])[H]

>  <h>  (53) 
<NA>

>  <Training>  (53) 
True

>  <Success>  (53) 
True

>  <enamine_searched>  (53) 
False

>  <enamine_id>  (53) 
nan

$$$$

     RDKit          3D

 57 62  0  0  0  0  0  0  0  0999 V2000
  -10.3694   -0.7889  -23.5088 C   0  0  0  0  0  0  0  0  0  0  0  0
   -8.9820   -1.2476  -23.0728 C   0  0  1  0  0  0  0  0  0  0  0  0
   -8.4314   -0.3971  -21.9028 C   0  0  0  0  0  0  0  0  0  0  0  0
   -7.4425   -1.2677  -21.2945 N   0  0  0  0  0  0  0  0  0  0  0  0
   -6.6292   -0.8450  -20.2120 C   0  0  0  0  0  0  0  0  0  0  0  0
   -6.9303   -1.1578  -18.9106 C   0  0  0  0  0  0  0  0  0  0  0  0
   -6.2793   -0.6409  -17.8352 N   0  0  0  0  0  0  0  0  0  0  0  0
   -5.2804    0.1804  -18.0656 C   0  0  0  0  0  0  0  0  0  0  0  0
   -4.8144    0.5224  -19.3704 C   0  0  0  0  0  0  0  0  0  0  0  0
   -3.6905    1.3603  -19.5941 C   0  0  0  0  0  0  0  0  0  0  0  0
   -3.2673    1.6218  -20.8689 C   0  0  0  0  0  0  0  0  0  0  0  0
   -3.9407    1.0691  -21.9780 C   0  0  0  0  0  0  0  0  0  0  0  0
   -5.0379    0.2682  -21.7909 C   0  0  0  0  0  0  0  0  0  0  0  0
   -5.5009   -0.0120  -20.4796 C   0  0  0  0  0  0  0  0  0  0  0  0
   -5.5518   -0.1692  -22.6393 H   0  0  0  0  0  0  0  0  0  0  0  0
   -3.5924    1.2838  -22.9823 H   0  0  0  0  0  0  0  0  0  0  0  0
   -2.4083    2.2633  -21.0378 H   0  0  0  0  0  0  0  0  0  0  0  0
   -3.1843    1.7945  -18.7377 H   0  0  0  0  0  0  0  0  0  0  0  0
   -4.7738    0.6059  -17.1978 H   0  0  0  0  0  0  0  0  0  0  0  0
   -7.7384   -1.8497  -18.6820 H   0  0  0  0  0  0  0  0  0  0  0  0
   -7.6607   -2.5998  -21.5690 C   0  0  0  0  0  0  0  0  0  0  0  0
   -7.0185   -3.5065  -21.0858 O   0  0  0  0  0  0  0  0  0  0  0  0
   -8.8294   -2.7438  -22.5707 C   0  0  1  0  0  0  0  0  0  0  0  0
  -10.0439   -3.2364  -21.7264 C   0  0  0  0  0  0  0  0  0  0  0  0
  -11.1210   -3.8475  -22.4936 N   0  0  0  0  0  0  0  0  0  0  0  0
  -12.4957   -3.7377  -22.0239 C   0  0  0  0  0  0  0  0  0  0  0  0
  -13.1688   -2.5077  -22.5625 C   0  0  0  0  0  0  0  0  0  0  0  0
  -13.5364   -2.5578  -23.8482 N   0  0  0  0  0  0  0  0  0  0  0  0
  -14.2386   -1.5238  -24.2910 C   0  0  0  0  0  0  0  0  0  0  0  0
  -14.4720   -0.4144  -23.4962 C   0  0  0  0  0  0  0  0  0  0  0  0
  -13.9276   -0.4214  -22.2295 C   0  0  0  0  0  0  0  0  0  0  0  0
  -13.2887   -1.4788  -21.7319 N   0  0  0  0  0  0  0  0  0  0  0  0
  -13.9930    0.4672  -21.6091 H   0  0  0  0  0  0  0  0  0  0  0  0
  -14.9837    0.4679  -23.8278 H   0  0  0  0  0  0  0  0  0  0  0  0
  -14.6289   -1.5934  -25.3052 H   0  0  0  0  0  0  0  0  0  0  0  0
  -13.0224   -4.6136  -22.4061 H   0  0  0  0  0  0  0  0  0  0  0  0
  -12.5311   -3.7198  -20.9359 H   0  0  0  0  0  0  0  0  0  0  0  0
  -10.9351   -4.5192  -23.6655 C   0  0  0  0  0  0  0  0  0  0  0  0
  -11.8621   -5.0378  -24.2769 O   0  0  0  0  0  0  0  0  0  0  0  0
   -9.5384   -4.6030  -24.1581 C   0  0  0  0  0  0  0  0  0  0  0  0
   -9.2867   -5.5590  -25.1406 C   0  0  0  0  0  0  0  0  0  0  0  0
   -7.9984   -5.8253  -25.5576 C   0  0  0  0  0  0  0  0  0  0  0  0
   -6.9784   -5.0789  -24.9823 C   0  0  0  0  0  0  0  0  0  0  0  0
   -5.7104   -5.3580  -25.3236 F   0  0  0  0  0  0  0  0  0  0  0  0
   -7.2126   -4.0675  -24.0684 C   0  0  0  0  0  0  0  0  0  0  0  0
   -8.5178   -3.8097  -23.6204 C   0  0  0  0  0  0  0  0  0  0  0  0
   -6.3694   -3.5152  -23.6734 H   0  0  0  0  0  0  0  0  0  0  0  0
   -7.7708   -6.5921  -26.2908 H   0  0  0  0  0  0  0  0  0  0  0  0
  -10.1292   -6.1025  -25.5543 H   0  0  0  0  0  0  0  0  0  0  0  0
   -9.6466   -3.9399  -20.9815 H   0  0  0  0  0  0  0  0  0  0  0  0
  -10.4800   -2.3862  -21.1906 H   0  0  0  0  0  0  0  0  0  0  0  0
   -7.9665    0.5433  -22.2234 H   0  0  0  0  0  0  0  0  0  0  0  0
   -9.2259   -0.1416  -21.1757 H   0  0  0  0  0  0  0  0  0  0  0  0
   -8.2993   -1.1307  -23.9273 H   0  0  0  0  0  0  0  0  0  0  0  0
  -10.3246    0.2063  -23.9667 H   0  0  0  0  0  0  0  0  0  0  0  0
  -11.0456   -0.7269  -22.6518 H   0  0  0  0  0  0  0  0  0  0  0  0
  -10.8168   -1.4731  -24.2357 H   0  0  0  0  0  0  0  0  0  0  0  0
  1  2  1  0
  2  3  1  0
  3  4  1  0
  4  5  1  0
  5  6  2  0
  6  7  1  0
  7  8  2  0
  8  9  1  0
  9 10  2  0
 10 11  1  0
 11 12  2  0
 12 13  1  0
 13 14  2  0
 13 15  1  0
 12 16  1  0
 11 17  1  0
 10 18  1  0
  8 19  1  0
  6 20  1  0
  4 21  1  0
 21 22  2  0
 21 23  1  0
 23 24  1  1
 24 25  1  0
 25 26  1  0
 26 27  1  0
 27 28  2  0
 28 29  1  0
 29 30  2  0
 30 31  1  0
 31 32  2  0
 31 33  1  0
 30 34  1  0
 29 35  1  0
 26 36  1  0
 26 37  1  0
 25 38  1  0
 38 39  2  0
 38 40  1  0
 40 41  2  0
 41 42  1  0
 42 43  2  0
 43 44  1  0
 43 45  1  0
 45 46  2  0
 45 47  1  0
 42 48  1  0
 41 49  1  0
 24 50  1  0
 24 51  1  0
  3 52  1  0
  3 53  1  0
  2 54  1  6
  1 55  1  0
  1 56  1  0
  1 57  1  0
 23  2  1  0
 32 27  1  0
 46 40  1  0
 14  5  1  0
 46 23  1  0
 14  9  1  0
M  END
>  <cnnaffinities>  (54) 
[6.64897]

>  <score>  (54) 
6.64897

>  <index>  (54) 
56

>  <Smiles>  (54) 
C([C@]1(C(N(c2c(nc(c3c(c(c(c(c23)[H])[H])[H])[H])[H])[H])C(=O)[C@]21C(N(C(c1nc(c(c(n1)[H])[H])[H])([H])[H])C(=O)c1c(c(c(F)c(c21)[H])[H])[H])([H])[H])([H])[H])[H])([H])([H])[H]

>  <h>  (54) 
<NA>

>  <Training>  (54) 
True

>  <Success>  (54) 
True

>  <enamine_searched>  (54) 
False

>  <enamine_id>  (54) 
nan

$$$$

     RDKit          3D

 59 63  0  0  0  0  0  0  0  0999 V2000
  -14.4929   -1.3429  -23.5289 C   0  0  0  0  0  0  0  0  0  0  0  0
  -13.8202   -2.5719  -23.1548 N   0  0  0  0  0  0  0  0  0  0  0  0
  -13.4732   -2.7608  -21.8569 C   0  0  0  0  0  0  0  0  0  0  0  0
  -13.9540   -2.0958  -20.9494 O   0  0  0  0  0  0  0  0  0  0  0  0
  -12.5089   -3.9151  -21.5785 C   0  0  0  0  0  0  0  0  0  0  0  0
  -11.1978   -3.7959  -22.2046 N   0  0  0  0  0  0  0  0  0  0  0  0
  -10.0582   -3.3106  -21.4208 C   0  0  0  0  0  0  0  0  0  0  0  0
   -8.8349   -2.9383  -22.3138 C   0  0  2  0  0  0  0  0  0  0  0  0
   -7.5917   -2.7073  -21.4364 C   0  0  0  0  0  0  0  0  0  0  0  0
   -6.8500   -3.5677  -21.0102 O   0  0  0  0  0  0  0  0  0  0  0  0
   -7.4124   -1.3517  -21.2415 N   0  0  0  0  0  0  0  0  0  0  0  0
   -6.6005   -0.8414  -20.1941 C   0  0  0  0  0  0  0  0  0  0  0  0
   -6.9071   -1.0963  -18.8809 C   0  0  0  0  0  0  0  0  0  0  0  0
   -6.2387   -0.5728  -17.8204 N   0  0  0  0  0  0  0  0  0  0  0  0
   -5.2150    0.2056  -18.0806 C   0  0  0  0  0  0  0  0  0  0  0  0
   -4.7659    0.5200  -19.3959 C   0  0  0  0  0  0  0  0  0  0  0  0
   -3.6358    1.3445  -19.6288 C   0  0  0  0  0  0  0  0  0  0  0  0
   -3.2249    1.6093  -20.9054 C   0  0  0  0  0  0  0  0  0  0  0  0
   -3.9228    1.0708  -22.0086 C   0  0  0  0  0  0  0  0  0  0  0  0
   -5.0245    0.2767  -21.8120 C   0  0  0  0  0  0  0  0  0  0  0  0
   -5.4739   -0.0144  -20.4953 C   0  0  0  0  0  0  0  0  0  0  0  0
   -5.5501   -0.1381  -22.6664 H   0  0  0  0  0  0  0  0  0  0  0  0
   -3.5854    1.2940  -23.0161 H   0  0  0  0  0  0  0  0  0  0  0  0
   -2.3632    2.2460  -21.0805 H   0  0  0  0  0  0  0  0  0  0  0  0
   -3.1157    1.7611  -18.7709 H   0  0  0  0  0  0  0  0  0  0  0  0
   -4.6718    0.6294  -17.2336 H   0  0  0  0  0  0  0  0  0  0  0  0
   -7.7489   -1.7424  -18.6421 H   0  0  0  0  0  0  0  0  0  0  0  0
   -8.4134   -0.5484  -21.9225 C   0  0  0  0  0  0  0  0  0  0  0  0
   -9.0139   -1.5029  -22.9896 C   0  0  0  0  0  0  0  0  0  0  0  0
  -10.4686   -1.1203  -23.2774 C   0  0  0  0  0  0  0  0  0  0  0  0
  -11.0657   -1.0969  -22.3595 H   0  0  0  0  0  0  0  0  0  0  0  0
  -10.9184   -1.8458  -23.9627 H   0  0  0  0  0  0  0  0  0  0  0  0
  -10.5162   -0.1278  -23.7367 H   0  0  0  0  0  0  0  0  0  0  0  0
   -8.2271   -1.4297  -24.3102 C   0  0  0  0  0  0  0  0  0  0  0  0
   -8.6438   -2.1549  -25.0185 H   0  0  0  0  0  0  0  0  0  0  0  0
   -8.3132   -0.4322  -24.7529 H   0  0  0  0  0  0  0  0  0  0  0  0
   -7.1642   -1.6694  -24.1728 H   0  0  0  0  0  0  0  0  0  0  0  0
   -7.9628    0.3489  -22.3663 H   0  0  0  0  0  0  0  0  0  0  0  0
   -9.1885   -0.2190  -21.2097 H   0  0  0  0  0  0  0  0  0  0  0  0
   -8.5896   -4.0845  -23.2728 C   0  0  0  0  0  0  0  0  0  0  0  0
   -7.3014   -4.4618  -23.6776 C   0  0  0  0  0  0  0  0  0  0  0  0
   -7.1432   -5.4555  -24.6273 C   0  0  0  0  0  0  0  0  0  0  0  0
   -5.5404   -5.8363  -25.1773 Cl  0  0  0  0  0  0  0  0  0  0  0  0
   -8.2293   -6.1214  -25.1929 C   0  0  0  0  0  0  0  0  0  0  0  0
   -9.4987   -5.7281  -24.8108 C   0  0  0  0  0  0  0  0  0  0  0  0
   -9.6785   -4.7317  -23.8541 C   0  0  0  0  0  0  0  0  0  0  0  0
  -11.0617   -4.3946  -23.4214 C   0  0  0  0  0  0  0  0  0  0  0  0
  -12.0354   -4.6680  -24.1245 O   0  0  0  0  0  0  0  0  0  0  0  0
  -10.3819   -6.1981  -25.2275 H   0  0  0  0  0  0  0  0  0  0  0  0
   -8.0712   -6.9236  -25.9100 H   0  0  0  0  0  0  0  0  0  0  0  0
   -6.4252   -3.9751  -23.2640 H   0  0  0  0  0  0  0  0  0  0  0  0
  -10.3570   -2.4159  -20.8579 H   0  0  0  0  0  0  0  0  0  0  0  0
   -9.7686   -4.0743  -20.6931 H   0  0  0  0  0  0  0  0  0  0  0  0
  -12.4251   -4.0181  -20.4956 H   0  0  0  0  0  0  0  0  0  0  0  0
  -12.9806   -4.8177  -21.9814 H   0  0  0  0  0  0  0  0  0  0  0  0
  -13.4646   -3.2255  -23.8420 H   0  0  0  0  0  0  0  0  0  0  0  0
  -13.8088   -0.4819  -23.4994 H   0  0  0  0  0  0  0  0  0  0  0  0
  -14.8912   -1.4346  -24.5416 H   0  0  0  0  0  0  0  0  0  0  0  0
  -15.3139   -1.1511  -22.8339 H   0  0  0  0  0  0  0  0  0  0  0  0
  1  2  1  0
  2  3  1  0
  3  4  2  0
  3  5  1  0
  5  6  1  0
  6  7  1  0
  8  7  1  1
  8  9  1  0
  9 10  2  0
  9 11  1  0
 11 12  1  0
 12 13  2  0
 13 14  1  0
 14 15  2  0
 15 16  1  0
 16 17  2  0
 17 18  1  0
 18 19  2  0
 19 20  1  0
 20 21  2  0
 20 22  1  0
 19 23  1  0
 18 24  1  0
 17 25  1  0
 15 26  1  0
 13 27  1  0
 11 28  1  0
 28 29  1  0
 29 30  1  0
 30 31  1  0
 30 32  1  0
 30 33  1  0
 29 34  1  0
 34 35  1  0
 34 36  1  0
 34 37  1  0
 28 38  1  0
 28 39  1  0
  8 40  1  0
 40 41  2  0
 41 42  1  0
 42 43  1  0
 42 44  2  0
 44 45  1  0
 45 46  2  0
 46 47  1  0
 47 48  2  0
 45 49  1  0
 44 50  1  0
 41 51  1  0
  7 52  1  0
  7 53  1  0
  5 54  1  0
  5 55  1  0
  2 56  1  0
  1 57  1  0
  1 58  1  0
  1 59  1  0
 47  6  1  0
 29  8  1  0
 46 40  1  0
 21 12  1  0
 21 16  1  0
M  END
>  <cnnaffinities>  (55) 
[6.45844]

>  <score>  (55) 
6.45844

>  <index>  (55) 
57

>  <Smiles>  (55) 
C(N(C(=O)C(N1C([C@@]2(C(=O)N(c3c(nc(c4c(c(c(c(c34)[H])[H])[H])[H])[H])[H])C(C2(C([H])([H])[H])C([H])([H])[H])([H])[H])c2c(c(Cl)c(c(c2C1=O)[H])[H])[H])([H])[H])([H])[H])[H])([H])([H])[H]

>  <h>  (55) 
<NA>

>  <Training>  (55) 
True

>  <Success>  (55) 
True

>  <enamine_searched>  (55) 
False

>  <enamine_id>  (55) 
nan

$$$$

     RDKit          3D

 42 45  0  0  0  0  0  0  0  0999 V2000
  -11.1983   -4.6240  -23.6954 C   0  0  0  0  0  0  0  0  0  0  0  0
  -10.1665   -3.6027  -23.7031 N   0  0  0  0  0  0  0  0  0  0  0  0
   -9.4225   -3.1660  -22.5290 C   0  0  0  0  0  0  0  0  0  0  0  0
   -9.3662   -1.6273  -22.5525 C   0  0  1  0  0  0  0  0  0  0  0  0
   -8.6017   -0.9947  -21.4078 C   0  0  0  0  0  0  0  0  0  0  0  0
   -9.0630   -0.0597  -20.7730 O   0  0  0  0  0  0  0  0  0  0  0  0
   -7.3361   -1.4788  -21.1758 N   0  0  0  0  0  0  0  0  0  0  0  0
   -6.5512   -0.8871  -20.1644 C   0  0  0  0  0  0  0  0  0  0  0  0
   -6.9128   -1.0510  -18.8563 C   0  0  0  0  0  0  0  0  0  0  0  0
   -6.2298   -0.5416  -17.8036 N   0  0  0  0  0  0  0  0  0  0  0  0
   -5.1790    0.1961  -18.0693 C   0  0  0  0  0  0  0  0  0  0  0  0
   -4.7338    0.4909  -19.3906 C   0  0  0  0  0  0  0  0  0  0  0  0
   -3.6259    1.3360  -19.6407 C   0  0  0  0  0  0  0  0  0  0  0  0
   -3.2563    1.6341  -20.9206 C   0  0  0  0  0  0  0  0  0  0  0  0
   -3.9833    1.1222  -22.0205 C   0  0  0  0  0  0  0  0  0  0  0  0
   -5.0641    0.3026  -21.8110 C   0  0  0  0  0  0  0  0  0  0  0  0
   -5.4443   -0.0483  -20.4863 C   0  0  0  0  0  0  0  0  0  0  0  0
   -5.6416   -0.0550  -22.6615 H   0  0  0  0  0  0  0  0  0  0  0  0
   -3.6881    1.3912  -23.0312 H   0  0  0  0  0  0  0  0  0  0  0  0
   -2.4086    2.2870  -21.1037 H   0  0  0  0  0  0  0  0  0  0  0  0
   -3.1046    1.7593  -18.7872 H   0  0  0  0  0  0  0  0  0  0  0  0
   -4.6383    0.6225  -17.2196 H   0  0  0  0  0  0  0  0  0  0  0  0
   -7.8008   -1.6323  -18.6210 H   0  0  0  0  0  0  0  0  0  0  0  0
   -6.8752   -2.0575  -21.8652 H   0  0  0  0  0  0  0  0  0  0  0  0
   -8.8226   -1.1550  -23.8945 C   0  0  0  0  0  0  0  0  0  0  0  0
   -8.2206    0.0965  -24.0524 C   0  0  0  0  0  0  0  0  0  0  0  0
   -7.7370    0.4793  -25.2957 C   0  0  0  0  0  0  0  0  0  0  0  0
   -6.9827    2.0409  -25.4521 Cl  0  0  0  0  0  0  0  0  0  0  0  0
   -7.8596   -0.3433  -26.4116 C   0  0  0  0  0  0  0  0  0  0  0  0
   -8.4674   -1.5741  -26.2532 C   0  0  0  0  0  0  0  0  0  0  0  0
   -8.9453   -1.9782  -25.0108 C   0  0  0  0  0  0  0  0  0  0  0  0
   -9.6931   -3.2673  -24.9402 C   0  0  0  0  0  0  0  0  0  0  0  0
   -9.9112   -3.9588  -25.9268 O   0  0  0  0  0  0  0  0  0  0  0  0
   -8.6020   -2.2520  -27.0877 H   0  0  0  0  0  0  0  0  0  0  0  0
   -7.5055   -0.0214  -27.3845 H   0  0  0  0  0  0  0  0  0  0  0  0
   -8.1226    0.7771  -23.2144 H   0  0  0  0  0  0  0  0  0  0  0  0
  -10.3803   -1.2373  -22.4084 H   0  0  0  0  0  0  0  0  0  0  0  0
   -8.4058   -3.5932  -22.5493 H   0  0  0  0  0  0  0  0  0  0  0  0
   -9.9120   -3.5306  -21.6196 H   0  0  0  0  0  0  0  0  0  0  0  0
  -12.0906   -4.2450  -24.1993 H   0  0  0  0  0  0  0  0  0  0  0  0
  -10.8646   -5.5116  -24.2532 H   0  0  0  0  0  0  0  0  0  0  0  0
  -11.4897   -4.8538  -22.6692 H   0  0  0  0  0  0  0  0  0  0  0  0
  1  2  1  0
  2  3  1  0
  3  4  1  0
  4  5  1  0
  5  6  2  0
  5  7  1  0
  7  8  1  0
  8  9  2  0
  9 10  1  0
 10 11  2  0
 11 12  1  0
 12 13  2  0
 13 14  1  0
 14 15  2  0
 15 16  1  0
 16 17  2  0
 16 18  1  0
 15 19  1  0
 14 20  1  0
 13 21  1  0
 11 22  1  0
  9 23  1  0
  7 24  1  0
  4 25  1  0
 25 26  2  0
 26 27  1  0
 27 28  1  0
 27 29  2  0
 29 30  1  0
 30 31  2  0
 31 32  1  0
 32 33  2  0
 30 34  1  0
 29 35  1  0
 26 36  1  0
  4 37  1  1
  3 38  1  0
  3 39  1  0
  1 40  1  0
  1 41  1  0
  1 42  1  0
 32  2  1  0
 17  8  1  0
 31 25  1  0
 17 12  1  0
M  END
>  <cnnaffinities>  (56) 
[5.22416, 5.41934, 5.54171]

>  <score>  (56) 
5.22416

>  <index>  (56) 
58

>  <Smiles>  (56) 
C(N1C([C@@](C(=O)N(c2c(nc(c3c(c(c(c(c23)[H])[H])[H])[H])[H])[H])[H])(c2c(c(Cl)c(c(c2C1=O)[H])[H])[H])[H])([H])[H])([H])([H])[H]

>  <h>  (56) 
<NA>

>  <Training>  (56) 
True

>  <Success>  (56) 
True

>  <enamine_searched>  (56) 
False

>  <enamine_id>  (56) 
nan

$$$$

     RDKit          3D

 60 65  0  0  0  0  0  0  0  0999 V2000
  -14.3590   -1.5458  -23.7175 C   0  0  0  0  0  0  0  0  0  0  0  0
  -13.7360   -2.7535  -23.2367 N   0  0  0  0  0  0  0  0  0  0  0  0
  -13.3413   -2.7826  -21.9444 C   0  0  0  0  0  0  0  0  0  0  0  0
  -13.6765   -1.9309  -21.1379 O   0  0  0  0  0  0  0  0  0  0  0  0
  -12.4594   -3.9724  -21.5860 C   0  0  0  0  0  0  0  0  0  0  0  0
  -11.1312   -3.9538  -22.1942 N   0  0  0  0  0  0  0  0  0  0  0  0
  -10.0029   -3.4297  -21.4288 C   0  0  0  0  0  0  0  0  0  0  0  0
   -8.8068   -2.9617  -22.2887 C   0  0  2  0  0  0  0  0  0  0  0  0
   -7.5736   -2.7157  -21.3935 C   0  0  0  0  0  0  0  0  0  0  0  0
   -6.8099   -3.5392  -20.9334 O   0  0  0  0  0  0  0  0  0  0  0  0
   -7.4129   -1.3531  -21.2240 N   0  0  0  0  0  0  0  0  0  0  0  0
   -6.5977   -0.8340  -20.1853 C   0  0  0  0  0  0  0  0  0  0  0  0
   -6.9050   -1.0772  -18.8685 C   0  0  0  0  0  0  0  0  0  0  0  0
   -6.2213   -0.5618  -17.8140 N   0  0  0  0  0  0  0  0  0  0  0  0
   -5.1917    0.2060  -18.0812 C   0  0  0  0  0  0  0  0  0  0  0  0
   -4.7470    0.5158  -19.3989 C   0  0  0  0  0  0  0  0  0  0  0  0
   -3.6179    1.3426  -19.6347 C   0  0  0  0  0  0  0  0  0  0  0  0
   -3.2136    1.6124  -20.9136 C   0  0  0  0  0  0  0  0  0  0  0  0
   -3.9146    1.0679  -22.0147 C   0  0  0  0  0  0  0  0  0  0  0  0
   -5.0149    0.2682  -21.8134 C   0  0  0  0  0  0  0  0  0  0  0  0
   -5.4635   -0.0170  -20.4944 C   0  0  0  0  0  0  0  0  0  0  0  0
   -5.5484   -0.1545  -22.6598 H   0  0  0  0  0  0  0  0  0  0  0  0
   -3.5844    1.2928  -23.0257 H   0  0  0  0  0  0  0  0  0  0  0  0
   -2.3520    2.2510  -21.0940 H   0  0  0  0  0  0  0  0  0  0  0  0
   -3.0963    1.7618  -18.7777 H   0  0  0  0  0  0  0  0  0  0  0  0
   -4.6448    0.6241  -17.2344 H   0  0  0  0  0  0  0  0  0  0  0  0
   -7.7478   -1.7181  -18.6149 H   0  0  0  0  0  0  0  0  0  0  0  0
   -8.3996   -0.5566  -21.9306 C   0  0  0  0  0  0  0  0  0  0  0  0
   -9.0349   -1.5507  -22.9054 C   0  0  2  0  0  0  0  0  0  0  0  0
  -10.4910   -1.2170  -23.2510 C   0  0  0  0  0  0  0  0  0  0  0  0
  -10.5677    0.0403  -24.0248 C   0  0  0  0  0  0  0  0  0  0  0  0
  -10.7548    1.2405  -23.4919 N   0  0  0  0  0  0  0  0  0  0  0  0
  -10.6902    2.0787  -24.5234 N   0  0  0  0  0  0  0  0  0  0  0  0
  -10.4716    1.4019  -25.6205 N   0  0  0  0  0  2  0  0  0  0  0  0
  -10.3865    0.1068  -25.3362 N   0  0  0  0  0  0  0  0  0  0  0  0
  -11.0957   -1.1011  -22.3495 H   0  0  0  0  0  0  0  0  0  0  0  0
  -10.9064   -2.0211  -23.8586 H   0  0  0  0  0  0  0  0  0  0  0  0
   -8.4598   -1.5291  -23.8402 H   0  0  0  0  0  0  0  0  0  0  0  0
   -9.1476   -0.1377  -21.2448 H   0  0  0  0  0  0  0  0  0  0  0  0
   -7.9487    0.2871  -22.4616 H   0  0  0  0  0  0  0  0  0  0  0  0
   -8.5418   -4.0027  -23.3477 C   0  0  0  0  0  0  0  0  0  0  0  0
   -7.2680   -4.1178  -23.9070 C   0  0  0  0  0  0  0  0  0  0  0  0
   -7.0327   -5.0520  -24.8991 C   0  0  0  0  0  0  0  0  0  0  0  0
   -5.4584   -5.1167  -25.6472 Cl  0  0  0  0  0  0  0  0  0  0  0  0
   -8.0489   -5.8971  -25.3506 C   0  0  0  0  0  0  0  0  0  0  0  0
   -9.3280   -5.7478  -24.8391 C   0  0  0  0  0  0  0  0  0  0  0  0
   -9.5812   -4.7826  -23.8616 C   0  0  0  0  0  0  0  0  0  0  0  0
  -10.9857   -4.5460  -23.4107 C   0  0  0  0  0  0  0  0  0  0  0  0
  -11.9577   -4.8947  -24.0828 O   0  0  0  0  0  0  0  0  0  0  0  0
  -10.1384   -6.3897  -25.1798 H   0  0  0  0  0  0  0  0  0  0  0  0
   -7.8368   -6.6260  -26.1272 H   0  0  0  0  0  0  0  0  0  0  0  0
   -6.4698   -3.4678  -23.5676 H   0  0  0  0  0  0  0  0  0  0  0  0
  -10.3633   -2.5802  -20.8468 H   0  0  0  0  0  0  0  0  0  0  0  0
   -9.6457   -4.1913  -20.7424 H   0  0  0  0  0  0  0  0  0  0  0  0
  -12.3946   -4.0188  -20.4994 H   0  0  0  0  0  0  0  0  0  0  0  0
  -12.9820   -4.8500  -21.9673 H   0  0  0  0  0  0  0  0  0  0  0  0
  -13.4478   -3.5047  -23.8461 H   0  0  0  0  0  0  0  0  0  0  0  0
  -14.6667   -1.6538  -24.7589 H   0  0  0  0  0  0  0  0  0  0  0  0
  -15.2167   -1.3274  -23.0827 H   0  0  0  0  0  0  0  0  0  0  0  0
  -13.6544   -0.7122  -23.6231 H   0  0  0  0  0  0  0  0  0  0  0  0
  1  2  1  0
  2  3  1  0
  3  4  2  0
  3  5  1  0
  5  6  1  0
  6  7  1  0
  8  7  1  1
  8  9  1  0
  9 10  2  0
  9 11  1  0
 11 12  1  0
 12 13  2  0
 13 14  1  0
 14 15  2  0
 15 16  1  0
 16 17  2  0
 17 18  1  0
 18 19  2  0
 19 20  1  0
 20 21  2  0
 20 22  1  0
 19 23  1  0
 18 24  1  0
 17 25  1  0
 15 26  1  0
 13 27  1  0
 11 28  1  0
 28 29  1  0
 29 30  1  0
 30 31  1  0
 31 32  1  0
 32 33  2  0
 33 34  1  0
 34 35  1  0
 30 36  1  0
 30 37  1  0
 29 38  1  6
 28 39  1  0
 28 40  1  0
  8 41  1  0
 41 42  2  0
 42 43  1  0
 43 44  1  0
 43 45  2  0
 45 46  1  0
 46 47  2  0
 47 48  1  0
 48 49  2  0
 46 50  1  0
 45 51  1  0
 42 52  1  0
  7 53  1  0
  7 54  1  0
  5 55  1  0
  5 56  1  0
  2 57  1  0
  1 58  1  0
  1 59  1  0
  1 60  1  0
 48  6  1  0
 29  8  1  0
 35 31  2  0
 47 41  1  0
 21 12  1  0
 21 16  1  0
M  CHG  1  34  -1
M  END
>  <cnnaffinities>  (57) 
[6.73209, 6.869]

>  <score>  (57) 
6.73209

>  <index>  (57) 
59

>  <Smiles>  (57) 
C(N(C(=O)C(N1C([C@@]2(C(=O)N(c3c(nc(c4c(c(c(c(c34)[H])[H])[H])[H])[H])[H])C([C@@]2(C(c2nn[n-]n2)([H])[H])[H])([H])[H])c2c(c(Cl)c(c(c2C1=O)[H])[H])[H])([H])[H])([H])[H])[H])([H])([H])[H]

>  <h>  (57) 
<NA>

>  <Training>  (57) 
True

>  <Success>  (57) 
True

>  <enamine_searched>  (57) 
False

>  <enamine_id>  (57) 
nan

$$$$

     RDKit          3D

 62 67  0  0  0  0  0  0  0  0999 V2000
  -11.3178    4.3034  -25.2329 C   0  0  0  0  0  0  0  0  0  0  0  0
   -9.8232    4.1746  -25.5294 C   0  0  0  0  0  0  0  0  0  0  0  0
   -9.0688    3.5941  -24.4254 N   0  0  0  0  0  0  0  0  0  0  0  0
   -8.4902    4.4127  -23.5346 N   0  0  0  0  0  0  0  0  0  0  0  0
   -7.9048    3.6169  -22.6473 C   0  0  0  0  0  0  0  0  0  0  0  0
   -8.1117    2.2654  -22.9737 C   0  0  0  0  0  0  0  0  0  0  0  0
   -8.8918    2.2809  -24.1052 C   0  0  0  0  0  0  0  0  0  0  0  0
   -9.3902    1.1104  -24.9057 C   0  0  0  0  0  0  0  0  0  0  0  0
   -9.8550    0.0021  -24.0820 N   0  0  0  0  0  0  0  0  0  0  0  0
   -9.0426   -1.1970  -23.9782 C   0  0  0  0  0  0  0  0  0  0  0  0
   -9.2262   -1.9127  -22.6141 C   0  0  2  0  0  0  0  0  0  0  0  0
   -8.6642   -1.0307  -21.4693 C   0  0  0  0  0  0  0  0  0  0  0  0
   -9.2283   -0.1064  -20.9134 O   0  0  0  0  0  0  0  0  0  0  0  0
   -7.3773   -1.4361  -21.1918 N   0  0  0  0  0  0  0  0  0  0  0  0
   -6.6006   -0.8242  -20.1701 C   0  0  0  0  0  0  0  0  0  0  0  0
   -6.9073   -1.0485  -18.8483 C   0  0  0  0  0  0  0  0  0  0  0  0
   -6.2014   -0.5484  -17.8050 N   0  0  0  0  0  0  0  0  0  0  0  0
   -5.1654    0.2089  -18.0770 C   0  0  0  0  0  0  0  0  0  0  0  0
   -4.7322    0.5276  -19.3950 C   0  0  0  0  0  0  0  0  0  0  0  0
   -3.6090    1.3634  -19.6369 C   0  0  0  0  0  0  0  0  0  0  0  0
   -3.2276    1.6624  -20.9165 C   0  0  0  0  0  0  0  0  0  0  0  0
   -3.9552    1.1383  -22.0105 C   0  0  0  0  0  0  0  0  0  0  0  0
   -5.0490    0.3261  -21.7985 C   0  0  0  0  0  0  0  0  0  0  0  0
   -5.4650   -0.0038  -20.4825 C   0  0  0  0  0  0  0  0  0  0  0  0
   -5.6017   -0.0618  -22.6486 H   0  0  0  0  0  0  0  0  0  0  0  0
   -3.6551    1.3878  -23.0212 H   0  0  0  0  0  0  0  0  0  0  0  0
   -2.3771    2.3130  -21.1008 H   0  0  0  0  0  0  0  0  0  0  0  0
   -3.0765    1.7745  -18.7837 H   0  0  0  0  0  0  0  0  0  0  0  0
   -4.6179    0.6163  -17.2285 H   0  0  0  0  0  0  0  0  0  0  0  0
   -7.7540   -1.6760  -18.5834 H   0  0  0  0  0  0  0  0  0  0  0  0
   -6.9642   -2.6141  -21.9357 C   0  0  0  0  0  0  0  0  0  0  0  0
   -8.2932   -3.1578  -22.5095 C   0  0  2  0  0  0  0  0  0  0  0  0
   -8.0924   -3.9860  -23.7847 C   0  0  0  0  0  0  0  0  0  0  0  0
   -7.5516   -3.4117  -24.5513 H   0  0  0  0  0  0  0  0  0  0  0  0
   -7.5038   -4.8928  -23.5827 H   0  0  0  0  0  0  0  0  0  0  0  0
   -9.0497   -4.2981  -24.2224 H   0  0  0  0  0  0  0  0  0  0  0  0
   -8.7245   -3.8040  -21.7382 H   0  0  0  0  0  0  0  0  0  0  0  0
   -6.4643   -3.3278  -21.2696 H   0  0  0  0  0  0  0  0  0  0  0  0
   -6.2499   -2.3654  -22.7388 H   0  0  0  0  0  0  0  0  0  0  0  0
  -10.7132   -2.1464  -22.4259 C   0  0  0  0  0  0  0  0  0  0  0  0
  -11.2240   -3.2310  -21.7042 C   0  0  0  0  0  0  0  0  0  0  0  0
  -12.5820   -3.3139  -21.4680 C   0  0  0  0  0  0  0  0  0  0  0  0
  -13.0576   -4.3284  -20.7277 F   0  0  0  0  0  0  0  0  0  0  0  0
  -13.4862   -2.3689  -21.9305 C   0  0  0  0  0  0  0  0  0  0  0  0
  -12.9865   -1.2921  -22.6331 C   0  0  0  0  0  0  0  0  0  0  0  0
  -11.6183   -1.1720  -22.8788 C   0  0  0  0  0  0  0  0  0  0  0  0
  -11.1453    0.0350  -23.6369 C   0  0  0  0  0  0  0  0  0  0  0  0
  -11.8751    0.9938  -23.8583 O   0  0  0  0  0  0  0  0  0  0  0  0
  -13.6431   -0.5140  -22.9982 H   0  0  0  0  0  0  0  0  0  0  0  0
  -14.5411   -2.4968  -21.7161 H   0  0  0  0  0  0  0  0  0  0  0  0
  -10.5947   -3.9918  -21.2572 H   0  0  0  0  0  0  0  0  0  0  0  0
   -9.2985   -1.9028  -24.7870 H   0  0  0  0  0  0  0  0  0  0  0  0
   -7.9960   -0.8982  -24.0889 H   0  0  0  0  0  0  0  0  0  0  0  0
  -10.1977    1.4094  -25.5852 H   0  0  0  0  0  0  0  0  0  0  0  0
   -8.5680    0.7148  -25.5137 H   0  0  0  0  0  0  0  0  0  0  0  0
   -7.7769    1.3723  -22.4704 H   0  0  0  0  0  0  0  0  0  0  0  0
   -7.3630    4.0552  -21.8167 H   0  0  0  0  0  0  0  0  0  0  0  0
   -9.3685    5.1552  -25.7169 H   0  0  0  0  0  0  0  0  0  0  0  0
   -9.6523    3.5487  -26.4122 H   0  0  0  0  0  0  0  0  0  0  0  0
  -11.7702    3.3197  -25.0427 H   0  0  0  0  0  0  0  0  0  0  0  0
  -11.4822    4.9453  -24.3593 H   0  0  0  0  0  0  0  0  0  0  0  0
  -11.8231    4.7617  -26.0913 H   0  0  0  0  0  0  0  0  0  0  0  0
  1  2  1  0
  2  3  1  0
  3  4  1  0
  4  5  2  0
  5  6  1  0
  6  7  2  0
  7  8  1  0
  8  9  1  0
  9 10  1  0
 11 10  1  6
 11 12  1  0
 12 13  2  0
 12 14  1  0
 14 15  1  0
 15 16  2  0
 16 17  1  0
 17 18  2  0
 18 19  1  0
 19 20  2  0
 20 21  1  0
 21 22  2  0
 22 23  1  0
 23 24  2  0
 23 25  1  0
 22 26  1  0
 21 27  1  0
 20 28  1  0
 18 29  1  0
 16 30  1  0
 14 31  1  0
 31 32  1  0
 32 33  1  0
 33 34  1  0
 33 35  1  0
 33 36  1  0
 32 37  1  1
 31 38  1  0
 31 39  1  0
 11 40  1  0
 40 41  2  0
 41 42  1  0
 42 43  1  0
 42 44  2  0
 44 45  1  0
 45 46  2  0
 46 47  1  0
 47 48  2  0
 45 49  1  0
 44 50  1  0
 41 51  1  0
 10 52  1  0
 10 53  1  0
  8 54  1  0
  8 55  1  0
  6 56  1  0
  5 57  1  0
  2 58  1  0
  2 59  1  0
  1 60  1  0
  1 61  1  0
  1 62  1  0
  7  3  1  0
 47  9  1  0
 32 11  1  0
 46 40  1  0
 24 15  1  0
 24 19  1  0
M  END
>  <cnnaffinities>  (58) 
[6.7012]

>  <score>  (58) 
6.7012

>  <index>  (58) 
60

>  <Smiles>  (58) 
C(C(n1nc(c(c1C(N1C([C@@]2(C(=O)N(c3c(nc(c4c(c(c(c(c34)[H])[H])[H])[H])[H])[H])C([C@@]2(C([H])([H])[H])[H])([H])[H])c2c(c(F)c(c(c2C1=O)[H])[H])[H])([H])[H])([H])[H])[H])[H])([H])[H])([H])([H])[H]

>  <h>  (58) 
<NA>

>  <Training>  (58) 
True

>  <Success>  (58) 
True

>  <enamine_searched>  (58) 
False

>  <enamine_id>  (58) 
nan

$$$$

     RDKit          3D

 44 47  0  0  0  0  0  0  0  0999 V2000
   -5.8667   -3.3080  -21.2781 O   0  0  0  0  0  0  0  0  0  0  0  0
   -6.6931   -2.6846  -21.9251 C   0  0  0  0  0  0  0  0  0  0  0  0
   -7.3961   -1.4609  -21.2848 C   0  0  0  0  0  0  0  0  0  0  0  0
   -6.5777   -0.8285  -20.1825 C   0  0  0  0  0  0  0  0  0  0  0  0
   -6.8721   -1.0466  -18.8582 C   0  0  0  0  0  0  0  0  0  0  0  0
   -6.1906   -0.5422  -17.7940 N   0  0  0  0  0  0  0  0  0  0  0  0
   -5.1583    0.2235  -18.0609 C   0  0  0  0  0  0  0  0  0  0  0  0
   -4.7213    0.5325  -19.3804 C   0  0  0  0  0  0  0  0  0  0  0  0
   -3.5924    1.3599  -19.6208 C   0  0  0  0  0  0  0  0  0  0  0  0
   -3.1932    1.6383  -20.9020 C   0  0  0  0  0  0  0  0  0  0  0  0
   -3.9071    1.0973  -21.9938 C   0  0  0  0  0  0  0  0  0  0  0  0
   -5.0040    0.2965  -21.7858 C   0  0  0  0  0  0  0  0  0  0  0  0
   -5.4455   -0.0069  -20.4698 C   0  0  0  0  0  0  0  0  0  0  0  0
   -5.5366   -0.1094  -22.6398 H   0  0  0  0  0  0  0  0  0  0  0  0
   -3.5862    1.3225  -23.0055 H   0  0  0  0  0  0  0  0  0  0  0  0
   -2.3328    2.2751  -21.0883 H   0  0  0  0  0  0  0  0  0  0  0  0
   -3.0545    1.7755  -18.7722 H   0  0  0  0  0  0  0  0  0  0  0  0
   -4.6005    0.6290  -17.2155 H   0  0  0  0  0  0  0  0  0  0  0  0
   -7.7210   -1.6714  -18.5884 H   0  0  0  0  0  0  0  0  0  0  0  0
   -7.6864   -0.7007  -22.0206 H   0  0  0  0  0  0  0  0  0  0  0  0
   -8.3350   -1.8265  -20.8460 H   0  0  0  0  0  0  0  0  0  0  0  0
   -7.0443   -3.0684  -23.1939 N   0  0  0  0  0  0  0  0  0  0  0  0
   -7.7403   -2.2004  -24.1415 C   0  0  0  0  0  0  0  0  0  0  0  0
   -7.7257   -2.7793  -25.5531 C   0  0  0  0  0  0  0  0  0  0  0  0
   -8.2700   -4.2063  -25.6403 C   0  0  0  0  0  0  0  0  0  0  0  0
   -8.0278   -4.8596  -27.0289 C   0  0  0  0  0  0  0  0  0  0  0  0
   -9.5407   -4.9313  -27.2909 C   0  0  0  0  0  0  0  0  0  0  0  0
   -9.7978   -4.2901  -25.9171 C   0  0  0  0  0  0  0  0  0  0  0  0
  -10.3404   -4.9292  -25.2185 H   0  0  0  0  0  0  0  0  0  0  0  0
  -10.3024   -3.3229  -25.9489 H   0  0  0  0  0  0  0  0  0  0  0  0
   -9.8797   -4.3369  -28.1405 H   0  0  0  0  0  0  0  0  0  0  0  0
   -9.9313   -5.9443  -27.3929 H   0  0  0  0  0  0  0  0  0  0  0  0
   -7.5233   -5.8263  -26.9877 H   0  0  0  0  0  0  0  0  0  0  0  0
   -7.4799   -4.2260  -27.7275 H   0  0  0  0  0  0  0  0  0  0  0  0
   -7.8166   -5.0388  -24.4320 C   0  0  0  0  0  0  0  0  0  0  0  0
   -6.6663   -4.4045  -23.6618 C   0  0  0  0  0  0  0  0  0  0  0  0
   -5.7695   -4.3646  -24.2917 H   0  0  0  0  0  0  0  0  0  0  0  0
   -6.4070   -5.0143  -22.7982 H   0  0  0  0  0  0  0  0  0  0  0  0
   -8.6536   -5.1742  -23.7366 H   0  0  0  0  0  0  0  0  0  0  0  0
   -7.5441   -6.0500  -24.7506 H   0  0  0  0  0  0  0  0  0  0  0  0
   -8.3025   -2.1294  -26.2179 H   0  0  0  0  0  0  0  0  0  0  0  0
   -6.7078   -2.7405  -25.9616 H   0  0  0  0  0  0  0  0  0  0  0  0
   -8.7749   -2.0311  -23.8228 H   0  0  0  0  0  0  0  0  0  0  0  0
   -7.2614   -1.2139  -24.1738 H   0  0  0  0  0  0  0  0  0  0  0  0
  1  2  2  0
  2  3  1  0
  3  4  1  0
  4  5  2  0
  5  6  1  0
  6  7  2  0
  7  8  1  0
  8  9  2  0
  9 10  1  0
 10 11  2  0
 11 12  1  0
 12 13  2  0
 12 14  1  0
 11 15  1  0
 10 16  1  0
  9 17  1  0
  7 18  1  0
  5 19  1  0
  3 20  1  0
  3 21  1  0
  2 22  1  0
 22 23  1  0
 23 24  1  0
 24 25  1  0
 25 26  1  0
 26 27  1  0
 27 28  1  0
 28 29  1  0
 28 30  1  0
 27 31  1  0
 27 32  1  0
 26 33  1  0
 26 34  1  0
 25 35  1  0
 35 36  1  0
 36 37  1  0
 36 38  1  0
 35 39  1  0
 35 40  1  0
 24 41  1  0
 24 42  1  0
 23 43  1  0
 23 44  1  0
 13  4  1  0
 36 22  1  0
 13  8  1  0
 28 25  1  0
M  END
>  <cnnaffinities>  (59) 
[5.1496, 5.14954, 5.14941, 5.14878, 4.9931, 4.99281, 4.99244, 5.11759, 5.11763, 5.11762, 5.11756, 4.61352, 4.61347, 4.61351, 4.61345, 5.05179, 5.05179, 5.05177]

>  <score>  (59) 
5.1496

>  <index>  (59) 
61

>  <Smiles>  (59) 
O=C(C(c1c(nc(c2c(c(c(c(c12)[H])[H])[H])[H])[H])[H])([H])[H])N1C(C(C2(C(C(C2([H])[H])([H])[H])([H])[H])C(C1([H])[H])([H])[H])([H])[H])([H])[H]

>  <h>  (59) 
<NA>

>  <Training>  (59) 
True

>  <Success>  (59) 
True

>  <enamine_searched>  (59) 
False

>  <enamine_id>  (59) 
nan

$$$$

     RDKit          3D

 44 47  0  0  0  0  0  0  0  0999 V2000
   -5.5760   -3.1157  -21.3703 O   0  0  0  0  0  0  0  0  0  0  0  0
   -6.7317   -2.8633  -21.6837 C   0  0  0  0  0  0  0  0  0  0  0  0
   -7.3862   -1.5400  -21.2713 C   0  0  0  0  0  0  0  0  0  0  0  0
   -6.5985   -0.8558  -20.1967 C   0  0  0  0  0  0  0  0  0  0  0  0
   -6.9194   -1.0690  -18.8833 C   0  0  0  0  0  0  0  0  0  0  0  0
   -6.2566   -0.5645  -17.8132 N   0  0  0  0  0  0  0  0  0  0  0  0
   -5.2156    0.1916  -18.0741 C   0  0  0  0  0  0  0  0  0  0  0  0
   -4.7538    0.4890  -19.3854 C   0  0  0  0  0  0  0  0  0  0  0  0
   -3.6343    1.3244  -19.6164 C   0  0  0  0  0  0  0  0  0  0  0  0
   -3.2262    1.6037  -20.8883 C   0  0  0  0  0  0  0  0  0  0  0  0
   -3.9165    1.0527  -21.9911 C   0  0  0  0  0  0  0  0  0  0  0  0
   -4.9989    0.2326  -21.7954 C   0  0  0  0  0  0  0  0  0  0  0  0
   -5.4557   -0.0578  -20.4850 C   0  0  0  0  0  0  0  0  0  0  0  0
   -5.5112   -0.1930  -22.6521 H   0  0  0  0  0  0  0  0  0  0  0  0
   -3.5896    1.2911  -22.9965 H   0  0  0  0  0  0  0  0  0  0  0  0
   -2.3753    2.2550  -21.0653 H   0  0  0  0  0  0  0  0  0  0  0  0
   -3.1215    1.7579  -18.7599 H   0  0  0  0  0  0  0  0  0  0  0  0
   -4.6799    0.6094  -17.2228 H   0  0  0  0  0  0  0  0  0  0  0  0
   -7.7750   -1.6962  -18.6373 H   0  0  0  0  0  0  0  0  0  0  0  0
   -8.3936   -1.7606  -20.8888 H   0  0  0  0  0  0  0  0  0  0  0  0
   -7.4983   -0.8979  -22.1548 H   0  0  0  0  0  0  0  0  0  0  0  0
   -7.5120   -3.7499  -22.3907 N   0  0  0  0  0  0  0  0  0  0  0  0
   -7.1476   -5.1588  -22.3003 C   0  0  0  0  0  0  0  0  0  0  0  0
   -7.3729   -5.8740  -23.6217 C   0  0  0  0  0  0  0  0  0  0  0  0
   -8.8313   -5.6994  -24.0591 C   0  0  0  0  0  0  0  0  0  0  0  0
   -9.1523   -6.5381  -25.2909 C   0  0  0  0  0  0  0  0  0  0  0  0
  -10.5307   -6.7460  -25.8652 C   0  0  0  0  0  0  0  0  0  0  0  0
   -9.4955   -5.9768  -26.6389 C   0  0  0  0  0  0  0  0  0  0  0  0
   -9.6485   -4.9043  -26.7281 H   0  0  0  0  0  0  0  0  0  0  0  0
   -8.9906   -6.4461  -27.4821 H   0  0  0  0  0  0  0  0  0  0  0  0
  -10.7667   -7.7394  -26.2397 H   0  0  0  0  0  0  0  0  0  0  0  0
  -11.3906   -6.2258  -25.4491 H   0  0  0  0  0  0  0  0  0  0  0  0
   -8.5791   -7.4624  -25.3266 H   0  0  0  0  0  0  0  0  0  0  0  0
   -9.1686   -4.2050  -24.1503 C   0  0  0  0  0  0  0  0  0  0  0  0
   -8.8941   -3.5127  -22.8117 C   0  0  0  0  0  0  0  0  0  0  0  0
   -9.6190   -3.8691  -22.0520 H   0  0  0  0  0  0  0  0  0  0  0  0
   -9.0831   -2.4431  -22.9136 H   0  0  0  0  0  0  0  0  0  0  0  0
   -8.5974   -3.7117  -24.9515 H   0  0  0  0  0  0  0  0  0  0  0  0
  -10.2247   -4.0616  -24.4072 H   0  0  0  0  0  0  0  0  0  0  0  0
   -9.4233   -6.0999  -23.2283 H   0  0  0  0  0  0  0  0  0  0  0  0
   -7.1446   -6.9386  -23.4754 H   0  0  0  0  0  0  0  0  0  0  0  0
   -6.6849   -5.5002  -24.3930 H   0  0  0  0  0  0  0  0  0  0  0  0
   -6.1077   -5.2058  -21.9911 H   0  0  0  0  0  0  0  0  0  0  0  0
   -7.7390   -5.6489  -21.5053 H   0  0  0  0  0  0  0  0  0  0  0  0
  1  2  2  0
  2  3  1  0
  3  4  1  0
  4  5  2  0
  5  6  1  0
  6  7  2  0
  7  8  1  0
  8  9  2  0
  9 10  1  0
 10 11  2  0
 11 12  1  0
 12 13  2  0
 12 14  1  0
 11 15  1  0
 10 16  1  0
  9 17  1  0
  7 18  1  0
  5 19  1  0
  3 20  1  0
  3 21  1  0
  2 22  1  0
 22 23  1  0
 23 24  1  0
 24 25  1  0
 25 26  1  0
 26 27  1  0
 27 28  1  0
 28 29  1  0
 28 30  1  0
 27 31  1  0
 27 32  1  0
 26 33  1  0
 25 34  1  0
 34 35  1  0
 35 36  1  0
 35 37  1  0
 34 38  1  0
 34 39  1  0
 25 40  1  0
 24 41  1  0
 24 42  1  0
 23 43  1  0
 23 44  1  0
 13  4  1  0
 35 22  1  0
 13  8  1  0
 28 26  1  0
M  END
>  <cnnaffinities>  (60) 
[4.79496]

>  <score>  (60) 
4.79496

>  <index>  (60) 
62

>  <Smiles>  (60) 
O=C(C(c1c(nc(c2c(c(c(c(c12)[H])[H])[H])[H])[H])[H])([H])[H])N1C(C(C(C2(C(C2([H])[H])([H])[H])[H])(C(C1([H])[H])([H])[H])[H])([H])[H])([H])[H]

>  <h>  (60) 
<NA>

>  <Training>  (60) 
True

>  <Success>  (60) 
True

>  <enamine_searched>  (60) 
False

>  <enamine_id>  (60) 
nan

$$$$

     RDKit          3D

 57 61  0  0  0  0  0  0  0  0999 V2000
  -14.5498   -1.6388  -23.6811 C   0  0  0  0  0  0  0  0  0  0  0  0
  -13.6186   -2.6747  -23.2954 N   0  0  0  0  0  0  0  0  0  0  0  0
  -13.3280   -2.9046  -21.9891 C   0  0  0  0  0  0  0  0  0  0  0  0
  -13.8802   -2.3282  -21.0584 O   0  0  0  0  0  0  0  0  0  0  0  0
  -12.3120   -4.0297  -21.7778 C   0  0  0  0  0  0  0  0  0  0  0  0
  -11.0234   -3.8528  -22.4288 N   0  0  0  0  0  0  0  0  0  0  0  0
   -9.9015   -3.3488  -21.6403 C   0  0  0  0  0  0  0  0  0  0  0  0
   -8.7206   -2.8222  -22.4923 C   0  0  2  0  0  0  0  0  0  0  0  0
   -7.5447   -2.6453  -21.5234 C   0  0  0  0  0  0  0  0  0  0  0  0
   -6.8519   -3.5218  -21.0465 O   0  0  0  0  0  0  0  0  0  0  0  0
   -7.3835   -1.3028  -21.2674 N   0  0  0  0  0  0  0  0  0  0  0  0
   -6.5827   -0.8462  -20.2001 C   0  0  0  0  0  0  0  0  0  0  0  0
   -6.9093   -1.1290  -18.8998 C   0  0  0  0  0  0  0  0  0  0  0  0
   -6.2603   -0.6009  -17.8314 N   0  0  0  0  0  0  0  0  0  0  0  0
   -5.2485    0.2014  -18.0708 C   0  0  0  0  0  0  0  0  0  0  0  0
   -4.7798    0.5343  -19.3773 C   0  0  0  0  0  0  0  0  0  0  0  0
   -3.6524    1.3670  -19.6064 C   0  0  0  0  0  0  0  0  0  0  0  0
   -3.2348    1.6285  -20.8841 C   0  0  0  0  0  0  0  0  0  0  0  0
   -3.9207    1.0828  -21.9929 C   0  0  0  0  0  0  0  0  0  0  0  0
   -5.0171    0.2809  -21.7988 C   0  0  0  0  0  0  0  0  0  0  0  0
   -5.4663   -0.0056  -20.4822 C   0  0  0  0  0  0  0  0  0  0  0  0
   -5.5456   -0.1548  -22.6408 H   0  0  0  0  0  0  0  0  0  0  0  0
   -3.5793    1.2971  -23.0016 H   0  0  0  0  0  0  0  0  0  0  0  0
   -2.3660    2.2578  -21.0569 H   0  0  0  0  0  0  0  0  0  0  0  0
   -3.1337    1.7828  -18.7473 H   0  0  0  0  0  0  0  0  0  0  0  0
   -4.7374    0.6307  -17.2077 H   0  0  0  0  0  0  0  0  0  0  0  0
   -7.7368   -1.7992  -18.6704 H   0  0  0  0  0  0  0  0  0  0  0  0
   -8.3796   -0.4529  -21.8973 C   0  0  0  0  0  0  0  0  0  0  0  0
   -8.9159   -1.3515  -23.0194 C   0  0  2  0  0  0  0  0  0  0  0  0
  -10.3227   -0.9933  -23.4964 C   0  0  0  0  0  0  0  0  0  0  0  0
  -11.2314   -0.8893  -22.4111 O   0  0  0  0  0  0  0  0  0  0  0  0
  -11.4334    0.0387  -22.2619 H   0  0  0  0  0  0  0  0  0  0  0  0
  -10.6676   -1.7951  -24.1559 H   0  0  0  0  0  0  0  0  0  0  0  0
  -10.3190   -0.0678  -24.0912 H   0  0  0  0  0  0  0  0  0  0  0  0
   -8.2338   -1.2515  -23.8745 H   0  0  0  0  0  0  0  0  0  0  0  0
   -9.1617   -0.1725  -21.1762 H   0  0  0  0  0  0  0  0  0  0  0  0
   -7.9263    0.4816  -22.2481 H   0  0  0  0  0  0  0  0  0  0  0  0
   -8.4191   -3.8440  -23.5672 C   0  0  0  0  0  0  0  0  0  0  0  0
   -7.1233   -4.0188  -24.0702 C   0  0  0  0  0  0  0  0  0  0  0  0
   -6.8901   -4.9803  -25.0394 C   0  0  0  0  0  0  0  0  0  0  0  0
   -5.2752   -5.1939  -25.6549 Cl  0  0  0  0  0  0  0  0  0  0  0  0
   -7.9142   -5.7866  -25.5372 C   0  0  0  0  0  0  0  0  0  0  0  0
   -9.2021   -5.5735  -25.0853 C   0  0  0  0  0  0  0  0  0  0  0  0
   -9.4520   -4.6199  -24.1048 C   0  0  0  0  0  0  0  0  0  0  0  0
  -10.8547   -4.4680  -23.6319 C   0  0  0  0  0  0  0  0  0  0  0  0
  -11.8214   -4.8494  -24.2950 O   0  0  0  0  0  0  0  0  0  0  0  0
  -10.0516   -6.1175  -25.4858 H   0  0  0  0  0  0  0  0  0  0  0  0
   -7.6945   -6.5815  -26.2419 H   0  0  0  0  0  0  0  0  0  0  0  0
   -6.2930   -3.4501  -23.6623 H   0  0  0  0  0  0  0  0  0  0  0  0
   -9.5047   -4.1356  -20.9939 H   0  0  0  0  0  0  0  0  0  0  0  0
  -10.2568   -2.5432  -20.9990 H   0  0  0  0  0  0  0  0  0  0  0  0
  -12.7677   -4.9176  -22.2222 H   0  0  0  0  0  0  0  0  0  0  0  0
  -12.1815   -4.1938  -20.7092 H   0  0  0  0  0  0  0  0  0  0  0  0
  -13.2023   -3.2578  -24.0123 H   0  0  0  0  0  0  0  0  0  0  0  0
  -14.1077   -0.6357  -23.6069 H   0  0  0  0  0  0  0  0  0  0  0  0
  -15.4270   -1.6634  -23.0316 H   0  0  0  0  0  0  0  0  0  0  0  0
  -14.8602   -1.8220  -24.7133 H   0  0  0  0  0  0  0  0  0  0  0  0
  1  2  1  0
  2  3  1  0
  3  4  2  0
  3  5  1  0
  5  6  1  0
  6  7  1  0
  8  7  1  1
  8  9  1  0
  9 10  2  0
  9 11  1  0
 11 12  1  0
 12 13  2  0
 13 14  1  0
 14 15  2  0
 15 16  1  0
 16 17  2  0
 17 18  1  0
 18 19  2  0
 19 20  1  0
 20 21  2  0
 20 22  1  0
 19 23  1  0
 18 24  1  0
 17 25  1  0
 15 26  1  0
 13 27  1  0
 11 28  1  0
 28 29  1  0
 29 30  1  0
 30 31  1  0
 31 32  1  0
 30 33  1  0
 30 34  1  0
 29 35  1  6
 28 36  1  0
 28 37  1  0
  8 38  1  0
 38 39  2  0
 39 40  1  0
 40 41  1  0
 40 42  2  0
 42 43  1  0
 43 44  2  0
 44 45  1  0
 45 46  2  0
 43 47  1  0
 42 48  1  0
 39 49  1  0
  7 50  1  0
  7 51  1  0
  5 52  1  0
  5 53  1  0
  2 54  1  0
  1 55  1  0
  1 56  1  0
  1 57  1  0
 45  6  1  0
 29  8  1  0
 44 38  1  0
 21 12  1  0
 21 16  1  0
M  END
>  <cnnaffinities>  (61) 
[6.08242, 5.94824]

>  <score>  (61) 
6.08242

>  <index>  (61) 
63

>  <Smiles>  (61) 
C(N(C(=O)C(N1C([C@@]2(C(=O)N(c3c(nc(c4c(c(c(c(c34)[H])[H])[H])[H])[H])[H])C([C@@]2(C(O[H])([H])[H])[H])([H])[H])c2c(c(Cl)c(c(c2C1=O)[H])[H])[H])([H])[H])([H])[H])[H])([H])([H])[H]

>  <h>  (61) 
<NA>

>  <Training>  (61) 
True

>  <Success>  (61) 
True

>  <enamine_searched>  (61) 
False

>  <enamine_id>  (61) 
nan

$$$$

     RDKit          3D

 55 60  0  0  0  0  0  0  0  0999 V2000
  -10.4258   -1.0329  -23.3714 C   0  0  0  0  0  0  0  0  0  0  0  0
   -8.9861   -1.3736  -22.9926 C   0  0  1  0  0  0  0  0  0  0  0  0
   -8.4090   -0.4602  -21.8927 C   0  0  0  0  0  0  0  0  0  0  0  0
   -7.4135   -1.3031  -21.2532 N   0  0  0  0  0  0  0  0  0  0  0  0
   -6.5999   -0.8382  -20.1938 C   0  0  0  0  0  0  0  0  0  0  0  0
   -6.9126   -1.1200  -18.8895 C   0  0  0  0  0  0  0  0  0  0  0  0
   -6.2482   -0.6003  -17.8260 N   0  0  0  0  0  0  0  0  0  0  0  0
   -5.2391    0.2003  -18.0755 C   0  0  0  0  0  0  0  0  0  0  0  0
   -4.7798    0.5345  -19.3830 C   0  0  0  0  0  0  0  0  0  0  0  0
   -3.6490    1.3627  -19.6154 C   0  0  0  0  0  0  0  0  0  0  0  0
   -3.2379    1.6236  -20.8934 C   0  0  0  0  0  0  0  0  0  0  0  0
   -3.9284    1.0729  -21.9987 C   0  0  0  0  0  0  0  0  0  0  0  0
   -5.0275    0.2727  -21.8015 C   0  0  0  0  0  0  0  0  0  0  0  0
   -5.4779   -0.0048  -20.4847 C   0  0  0  0  0  0  0  0  0  0  0  0
   -5.5567   -0.1696  -22.6411 H   0  0  0  0  0  0  0  0  0  0  0  0
   -3.5886    1.2809  -23.0086 H   0  0  0  0  0  0  0  0  0  0  0  0
   -2.3677    2.2514  -21.0723 H   0  0  0  0  0  0  0  0  0  0  0  0
   -3.1247    1.7783  -18.7574 H   0  0  0  0  0  0  0  0  0  0  0  0
   -4.7192    0.6229  -17.2153 H   0  0  0  0  0  0  0  0  0  0  0  0
   -7.7386   -1.7886  -18.6534 H   0  0  0  0  0  0  0  0  0  0  0  0
   -7.5743   -2.6478  -21.5075 C   0  0  0  0  0  0  0  0  0  0  0  0
   -6.8626   -3.5182  -21.0456 O   0  0  0  0  0  0  0  0  0  0  0  0
   -8.7687   -2.8352  -22.4528 C   0  0  1  0  0  0  0  0  0  0  0  0
   -9.9662   -3.2968  -21.5776 C   0  0  0  0  0  0  0  0  0  0  0  0
  -11.0928   -3.7988  -22.3537 N   0  0  0  0  0  0  0  0  0  0  0  0
  -12.4530   -3.7792  -21.8261 C   0  0  0  0  0  0  0  0  0  0  0  0
  -13.2789   -2.6318  -22.3341 C   0  0  0  0  0  0  0  0  0  0  0  0
  -13.7377   -2.6257  -23.6176 N   0  0  0  0  0  0  0  0  0  0  0  0
  -14.5243   -1.5717  -23.6521 C   0  0  0  0  0  0  0  0  0  0  0  0
  -14.5088   -0.9566  -22.4615 N   0  0  0  0  0  0  0  0  0  0  0  0
  -13.7198   -1.6327  -21.5936 N   0  0  0  0  0  0  0  0  0  0  0  0
  -15.0234   -0.1465  -22.1470 H   0  0  0  0  0  0  0  0  0  0  0  0
  -15.1675   -1.2543  -24.4648 H   0  0  0  0  0  0  0  0  0  0  0  0
  -12.4589   -3.8060  -20.7363 H   0  0  0  0  0  0  0  0  0  0  0  0
  -12.9246   -4.6882  -22.2104 H   0  0  0  0  0  0  0  0  0  0  0  0
  -10.9127   -4.5277  -23.5018 C   0  0  0  0  0  0  0  0  0  0  0  0
  -11.8516   -5.0365  -24.0961 O   0  0  0  0  0  0  0  0  0  0  0  0
   -9.5136   -4.6830  -24.0010 C   0  0  0  0  0  0  0  0  0  0  0  0
   -9.2840   -5.6443  -24.9900 C   0  0  0  0  0  0  0  0  0  0  0  0
   -8.0031   -5.8668  -25.4620 C   0  0  0  0  0  0  0  0  0  0  0  0
   -6.9707   -5.0782  -24.9654 C   0  0  0  0  0  0  0  0  0  0  0  0
   -5.7223   -5.2639  -25.4307 F   0  0  0  0  0  0  0  0  0  0  0  0
   -7.1824   -4.0906  -24.0238 C   0  0  0  0  0  0  0  0  0  0  0  0
   -8.4741   -3.8862  -23.5097 C   0  0  0  0  0  0  0  0  0  0  0  0
   -6.3222   -3.5400  -23.6593 H   0  0  0  0  0  0  0  0  0  0  0  0
   -7.7807   -6.6457  -26.1833 H   0  0  0  0  0  0  0  0  0  0  0  0
  -10.1256   -6.2180  -25.3764 H   0  0  0  0  0  0  0  0  0  0  0  0
   -9.5976   -4.0698  -20.9012 H   0  0  0  0  0  0  0  0  0  0  0  0
  -10.2694   -2.4509  -20.9475 H   0  0  0  0  0  0  0  0  0  0  0  0
   -7.9584    0.4573  -22.2875 H   0  0  0  0  0  0  0  0  0  0  0  0
   -9.1851   -0.1302  -21.1815 H   0  0  0  0  0  0  0  0  0  0  0  0
   -8.3518   -1.2696  -23.8833 H   0  0  0  0  0  0  0  0  0  0  0  0
  -11.0703   -0.9992  -22.4886 H   0  0  0  0  0  0  0  0  0  0  0  0
  -10.5088   -0.0563  -23.8545 H   0  0  0  0  0  0  0  0  0  0  0  0
  -10.8366   -1.7893  -24.0479 H   0  0  0  0  0  0  0  0  0  0  0  0
  1  2  1  0
  2  3  1  0
  3  4  1  0
  4  5  1  0
  5  6  2  0
  6  7  1  0
  7  8  2  0
  8  9  1  0
  9 10  2  0
 10 11  1  0
 11 12  2  0
 12 13  1  0
 13 14  2  0
 13 15  1  0
 12 16  1  0
 11 17  1  0
 10 18  1  0
  8 19  1  0
  6 20  1  0
  4 21  1  0
 21 22  2  0
 21 23  1  0
 23 24  1  1
 24 25  1  0
 25 26  1  0
 26 27  1  0
 27 28  1  0
 28 29  2  0
 29 30  1  0
 30 31  1  0
 30 32  1  0
 29 33  1  0
 26 34  1  0
 26 35  1  0
 25 36  1  0
 36 37  2  0
 36 38  1  0
 38 39  2  0
 39 40  1  0
 40 41  2  0
 41 42  1  0
 41 43  1  0
 43 44  2  0
 43 45  1  0
 40 46  1  0
 39 47  1  0
 24 48  1  0
 24 49  1  0
  3 50  1  0
  3 51  1  0
  2 52  1  6
  1 53  1  0
  1 54  1  0
  1 55  1  0
 23  2  1  0
 31 27  2  0
 44 38  1  0
 14  5  1  0
 44 23  1  0
 14  9  1  0
M  END
>  <cnnaffinities>  (62) 
[6.61903]

>  <score>  (62) 
6.61903

>  <index>  (62) 
64

>  <Smiles>  (62) 
C([C@]1(C(N(c2c(nc(c3c(c(c(c(c23)[H])[H])[H])[H])[H])[H])C(=O)[C@]21C(N(C(c1nc(n(n1)[H])[H])([H])[H])C(=O)c1c(c(c(F)c(c21)[H])[H])[H])([H])[H])([H])[H])[H])([H])([H])[H]

>  <h>  (62) 
<NA>

>  <Training>  (62) 
True

>  <Success>  (62) 
True

>  <enamine_searched>  (62) 
False

>  <enamine_id>  (62) 
nan

$$$$

     RDKit          3D

 55 60  0  0  0  0  0  0  0  0999 V2000
  -10.4217   -1.0031  -23.4377 C   0  0  0  0  0  0  0  0  0  0  0  0
   -8.9793   -1.3117  -23.0324 C   0  0  1  0  0  0  0  0  0  0  0  0
   -8.4410   -0.4216  -21.8913 C   0  0  0  0  0  0  0  0  0  0  0  0
   -7.4205   -1.2535  -21.2749 N   0  0  0  0  0  0  0  0  0  0  0  0
   -6.6146   -0.8124  -20.2007 C   0  0  0  0  0  0  0  0  0  0  0  0
   -6.9155   -1.1332  -18.9035 C   0  0  0  0  0  0  0  0  0  0  0  0
   -6.2640   -0.6145  -17.8307 N   0  0  0  0  0  0  0  0  0  0  0  0
   -5.2610    0.2004  -18.0637 C   0  0  0  0  0  0  0  0  0  0  0  0
   -4.7935    0.5423  -19.3684 C   0  0  0  0  0  0  0  0  0  0  0  0
   -3.6676    1.3750  -19.6009 C   0  0  0  0  0  0  0  0  0  0  0  0
   -3.2458    1.6307  -20.8777 C   0  0  0  0  0  0  0  0  0  0  0  0
   -3.9264    1.0811  -21.9874 C   0  0  0  0  0  0  0  0  0  0  0  0
   -5.0264    0.2866  -21.7906 C   0  0  0  0  0  0  0  0  0  0  0  0
   -5.4847    0.0112  -20.4765 C   0  0  0  0  0  0  0  0  0  0  0  0
   -5.5488   -0.1578  -22.6313 H   0  0  0  0  0  0  0  0  0  0  0  0
   -3.5780    1.2887  -22.9953 H   0  0  0  0  0  0  0  0  0  0  0  0
   -2.3790    2.2614  -21.0526 H   0  0  0  0  0  0  0  0  0  0  0  0
   -3.1465    1.7953  -18.7454 H   0  0  0  0  0  0  0  0  0  0  0  0
   -4.7526    0.6224  -17.1950 H   0  0  0  0  0  0  0  0  0  0  0  0
   -7.7283   -1.8235  -18.6809 H   0  0  0  0  0  0  0  0  0  0  0  0
   -7.5427   -2.5906  -21.5598 C   0  0  0  0  0  0  0  0  0  0  0  0
   -6.8401   -3.4586  -21.0771 O   0  0  0  0  0  0  0  0  0  0  0  0
   -8.7267   -2.7816  -22.5170 C   0  0  1  0  0  0  0  0  0  0  0  0
   -9.8952   -3.2803  -21.6186 C   0  0  0  0  0  0  0  0  0  0  0  0
  -11.0138   -3.8575  -22.3553 N   0  0  0  0  0  0  0  0  0  0  0  0
  -12.3635   -3.8662  -21.7898 C   0  0  0  0  0  0  0  0  0  0  0  0
  -13.1926   -2.7100  -22.2556 C   0  0  0  0  0  0  0  0  0  0  0  0
  -13.5060   -2.4142  -23.5371 C   0  0  0  0  0  0  0  0  0  0  0  0
  -14.3259   -1.3244  -23.5424 O   0  0  0  0  0  0  0  0  0  0  0  0
  -14.4488   -1.0115  -22.2406 C   0  0  0  0  0  0  0  0  0  0  0  0
  -13.8112   -1.7898  -21.4299 N   0  0  0  0  0  0  0  0  0  0  0  0
  -15.0579   -0.1507  -22.0087 H   0  0  0  0  0  0  0  0  0  0  0  0
  -13.2740   -2.8788  -24.4783 H   0  0  0  0  0  0  0  0  0  0  0  0
  -12.3601   -3.9043  -20.6985 H   0  0  0  0  0  0  0  0  0  0  0  0
  -12.8402   -4.7841  -22.1480 H   0  0  0  0  0  0  0  0  0  0  0  0
  -10.8685   -4.4934  -23.5591 C   0  0  0  0  0  0  0  0  0  0  0  0
  -11.8289   -4.9647  -24.1621 O   0  0  0  0  0  0  0  0  0  0  0  0
   -9.4786   -4.6167  -24.0830 C   0  0  0  0  0  0  0  0  0  0  0  0
   -9.2532   -5.5769  -25.0696 C   0  0  0  0  0  0  0  0  0  0  0  0
   -7.9803   -5.8595  -25.5149 C   0  0  0  0  0  0  0  0  0  0  0  0
   -6.9491   -5.0931  -24.9880 C   0  0  0  0  0  0  0  0  0  0  0  0
   -5.7038   -5.3608  -25.4106 F   0  0  0  0  0  0  0  0  0  0  0  0
   -7.1405   -4.0988  -24.0438 C   0  0  0  0  0  0  0  0  0  0  0  0
   -8.4358   -3.8380  -23.5674 C   0  0  0  0  0  0  0  0  0  0  0  0
   -6.2713   -3.5513  -23.6933 H   0  0  0  0  0  0  0  0  0  0  0  0
   -7.7821   -6.6331  -26.2552 H   0  0  0  0  0  0  0  0  0  0  0  0
  -10.1084   -6.1178  -25.4545 H   0  0  0  0  0  0  0  0  0  0  0  0
  -10.2507   -2.4364  -21.0153 H   0  0  0  0  0  0  0  0  0  0  0  0
   -9.4774   -4.0169  -20.9276 H   0  0  0  0  0  0  0  0  0  0  0  0
   -9.2255   -0.1725  -21.1566 H   0  0  0  0  0  0  0  0  0  0  0  0
   -7.9996    0.5188  -22.2421 H   0  0  0  0  0  0  0  0  0  0  0  0
   -8.3278   -1.1634  -23.9059 H   0  0  0  0  0  0  0  0  0  0  0  0
  -10.5100   -0.0021  -23.8720 H   0  0  0  0  0  0  0  0  0  0  0  0
  -10.7652   -1.7317  -24.1822 H   0  0  0  0  0  0  0  0  0  0  0  0
  -11.1093   -1.0625  -22.5836 H   0  0  0  0  0  0  0  0  0  0  0  0
  1  2  1  0
  2  3  1  0
  3  4  1  0
  4  5  1  0
  5  6  2  0
  6  7  1  0
  7  8  2  0
  8  9  1  0
  9 10  2  0
 10 11  1  0
 11 12  2  0
 12 13  1  0
 13 14  2  0
 13 15  1  0
 12 16  1  0
 11 17  1  0
 10 18  1  0
  8 19  1  0
  6 20  1  0
  4 21  1  0
 21 22  2  0
 21 23  1  0
 23 24  1  1
 24 25  1  0
 25 26  1  0
 26 27  1  0
 27 28  2  0
 28 29  1  0
 29 30  1  0
 30 31  2  0
 30 32  1  0
 28 33  1  0
 26 34  1  0
 26 35  1  0
 25 36  1  0
 36 37  2  0
 36 38  1  0
 38 39  2  0
 39 40  1  0
 40 41  2  0
 41 42  1  0
 41 43  1  0
 43 44  2  0
 43 45  1  0
 40 46  1  0
 39 47  1  0
 24 48  1  0
 24 49  1  0
  3 50  1  0
  3 51  1  0
  2 52  1  6
  1 53  1  0
  1 54  1  0
  1 55  1  0
 23  2  1  0
 31 27  1  0
 44 38  1  0
 14  5  1  0
 44 23  1  0
 14  9  1  0
M  END
>  <cnnaffinities>  (63) 
[6.48678]

>  <score>  (63) 
6.48678

>  <index>  (63) 
65

>  <Smiles>  (63) 
C([C@]1(C(N(c2c(nc(c3c(c(c(c(c23)[H])[H])[H])[H])[H])[H])C(=O)[C@]21C(N(C(c1c(oc(n1)[H])[H])([H])[H])C(=O)c1c(c(c(F)c(c21)[H])[H])[H])([H])[H])([H])[H])[H])([H])([H])[H]

>  <h>  (63) 
<NA>

>  <Training>  (63) 
True

>  <Success>  (63) 
True

>  <enamine_searched>  (63) 
False

>  <enamine_id>  (63) 
nan

$$$$

     RDKit          3D

 44 47  0  0  0  0  0  0  0  0999 V2000
   -7.9251   -5.9464  -23.4847 C   0  0  0  0  0  0  0  0  0  0  0  0
   -6.4849   -5.5054  -23.2827 C   0  0  0  0  0  0  0  0  0  0  0  0
   -6.1825   -4.1026  -23.8573 C   0  0  1  0  0  0  0  0  0  0  0  0
   -6.2709   -4.0995  -25.3617 C   0  0  0  0  0  0  0  0  0  0  0  0
   -5.3175   -4.6957  -26.2503 C   0  0  0  0  0  0  0  0  0  0  0  0
   -5.7026   -4.6235  -27.5556 C   0  0  0  0  0  0  0  0  0  0  0  0
   -7.2318   -3.8426  -27.7313 S   0  0  0  0  0  0  0  0  0  0  0  0
   -7.3515   -3.6101  -26.0214 C   0  0  0  0  0  0  0  0  0  0  0  0
   -8.5088   -3.0248  -25.2863 C   0  0  0  0  0  0  0  0  0  0  0  0
   -8.0450   -2.3209  -24.0055 C   0  0  0  0  0  0  0  0  0  0  0  0
   -7.0172   -3.0420  -23.2399 N   0  0  0  0  0  0  0  0  0  0  0  0
   -6.6800   -2.6646  -21.9540 C   0  0  0  0  0  0  0  0  0  0  0  0
   -5.8196   -3.2592  -21.3252 O   0  0  0  0  0  0  0  0  0  0  0  0
   -7.3974   -1.4625  -21.2861 C   0  0  0  0  0  0  0  0  0  0  0  0
   -6.5784   -0.8295  -20.1818 C   0  0  0  0  0  0  0  0  0  0  0  0
   -6.8731   -1.0466  -18.8590 C   0  0  0  0  0  0  0  0  0  0  0  0
   -6.1907   -0.5418  -17.7944 N   0  0  0  0  0  0  0  0  0  0  0  0
   -5.1585    0.2231  -18.0619 C   0  0  0  0  0  0  0  0  0  0  0  0
   -4.7214    0.5321  -19.3804 C   0  0  0  0  0  0  0  0  0  0  0  0
   -3.5922    1.3595  -19.6212 C   0  0  0  0  0  0  0  0  0  0  0  0
   -3.1928    1.6376  -20.9016 C   0  0  0  0  0  0  0  0  0  0  0  0
   -3.9068    1.0972  -21.9938 C   0  0  0  0  0  0  0  0  0  0  0  0
   -5.0038    0.2971  -21.7851 C   0  0  0  0  0  0  0  0  0  0  0  0
   -5.4458   -0.0077  -20.4707 C   0  0  0  0  0  0  0  0  0  0  0  0
   -5.5372   -0.1123  -22.6367 H   0  0  0  0  0  0  0  0  0  0  0  0
   -3.5858    1.3217  -23.0060 H   0  0  0  0  0  0  0  0  0  0  0  0
   -2.3319    2.2741  -21.0884 H   0  0  0  0  0  0  0  0  0  0  0  0
   -3.0542    1.7751  -18.7721 H   0  0  0  0  0  0  0  0  0  0  0  0
   -4.6006    0.6289  -17.2161 H   0  0  0  0  0  0  0  0  0  0  0  0
   -7.7212   -1.6721  -18.5876 H   0  0  0  0  0  0  0  0  0  0  0  0
   -7.6827   -0.6952  -22.0166 H   0  0  0  0  0  0  0  0  0  0  0  0
   -8.3330   -1.8393  -20.8491 H   0  0  0  0  0  0  0  0  0  0  0  0
   -8.9213   -2.1639  -23.3671 H   0  0  0  0  0  0  0  0  0  0  0  0
   -7.6712   -1.3267  -24.2830 H   0  0  0  0  0  0  0  0  0  0  0  0
   -9.2215   -3.8260  -25.0479 H   0  0  0  0  0  0  0  0  0  0  0  0
   -9.0568   -2.3208  -25.9161 H   0  0  0  0  0  0  0  0  0  0  0  0
   -5.1798   -4.9923  -28.4276 H   0  0  0  0  0  0  0  0  0  0  0  0
   -4.3927   -5.1691  -25.9297 H   0  0  0  0  0  0  0  0  0  0  0  0
   -5.1374   -3.8765  -23.6052 H   0  0  0  0  0  0  0  0  0  0  0  0
   -5.8137   -6.2182  -23.7792 H   0  0  0  0  0  0  0  0  0  0  0  0
   -6.2242   -5.5071  -22.2220 H   0  0  0  0  0  0  0  0  0  0  0  0
   -8.0903   -6.9241  -23.0267 H   0  0  0  0  0  0  0  0  0  0  0  0
   -8.1819   -6.0214  -24.5463 H   0  0  0  0  0  0  0  0  0  0  0  0
   -8.6148   -5.2357  -23.0229 H   0  0  0  0  0  0  0  0  0  0  0  0
  1  2  1  0
  2  3  1  0
  3  4  1  0
  4  5  1  0
  5  6  2  0
  6  7  1  0
  7  8  1  0
  8  9  1  0
  9 10  1  0
 10 11  1  0
 11 12  1  0
 12 13  2  0
 12 14  1  0
 14 15  1  0
 15 16  2  0
 16 17  1  0
 17 18  2  0
 18 19  1  0
 19 20  2  0
 20 21  1  0
 21 22  2  0
 22 23  1  0
 23 24  2  0
 23 25  1  0
 22 26  1  0
 21 27  1  0
 20 28  1  0
 18 29  1  0
 16 30  1  0
 14 31  1  0
 14 32  1  0
 10 33  1  0
 10 34  1  0
  9 35  1  0
  9 36  1  0
  6 37  1  0
  5 38  1  0
  3 39  1  6
  2 40  1  0
  2 41  1  0
  1 42  1  0
  1 43  1  0
  1 44  1  0
 11  3  1  0
 24 15  1  0
  8  4  2  0
 24 19  1  0
M  END
>  <cnnaffinities>  (64) 
[5.35123]

>  <score>  (64) 
5.35123

>  <index>  (64) 
66

>  <Smiles>  (64) 
C(C([C@]1(c2c(c(sc2C(C(N1C(=O)C(c1c(nc(c2c(c(c(c(c12)[H])[H])[H])[H])[H])[H])([H])[H])([H])[H])([H])[H])[H])[H])[H])([H])[H])([H])([H])[H]

>  <h>  (64) 
<NA>

>  <Training>  (64) 
True

>  <Success>  (64) 
True

>  <enamine_searched>  (64) 
False

>  <enamine_id>  (64) 
nan

$$$$

     RDKit          3D

 58 63  0  0  0  0  0  0  0  0999 V2000
  -11.1931    0.9163  -29.3691 C   0  0  0  0  0  0  0  0  0  0  0  0
  -10.5763    0.9528  -28.0039 C   0  0  0  0  0  0  0  0  0  0  0  0
  -11.0734    1.3819  -26.7313 C   0  0  0  0  0  0  0  0  0  0  0  0
  -10.0756    1.0626  -25.8730 C   0  0  0  0  0  0  0  0  0  0  0  0
   -9.9903    1.0599  -24.3773 C   0  0  0  0  0  0  0  0  0  0  0  0
  -10.3066   -0.2324  -23.7974 N   0  0  0  0  0  0  0  0  0  0  0  0
   -9.3357   -1.3097  -23.8525 C   0  0  0  0  0  0  0  0  0  0  0  0
   -9.3090   -2.0865  -22.5116 C   0  0  2  0  0  0  0  0  0  0  0  0
   -8.7443   -1.1150  -21.4240 C   0  0  0  0  0  0  0  0  0  0  0  0
   -9.3073   -0.1692  -20.9208 O   0  0  0  0  0  0  0  0  0  0  0  0
   -7.4194   -1.4419  -21.1912 N   0  0  0  0  0  0  0  0  0  0  0  0
   -6.6480   -0.8187  -20.1754 C   0  0  0  0  0  0  0  0  0  0  0  0
   -6.9512   -1.0417  -18.8543 C   0  0  0  0  0  0  0  0  0  0  0  0
   -6.2414   -0.5544  -17.8058 N   0  0  0  0  0  0  0  0  0  0  0  0
   -5.1991    0.1915  -18.0814 C   0  0  0  0  0  0  0  0  0  0  0  0
   -4.7665    0.5047  -19.4003 C   0  0  0  0  0  0  0  0  0  0  0  0
   -3.6385    1.3353  -19.6320 C   0  0  0  0  0  0  0  0  0  0  0  0
   -3.2490    1.6314  -20.9080 C   0  0  0  0  0  0  0  0  0  0  0  0
   -3.9697    1.1118  -22.0068 C   0  0  0  0  0  0  0  0  0  0  0  0
   -5.0681    0.3085  -21.8074 C   0  0  0  0  0  0  0  0  0  0  0  0
   -5.4992   -0.0179  -20.4928 C   0  0  0  0  0  0  0  0  0  0  0  0
   -5.6230   -0.0637  -22.6631 H   0  0  0  0  0  0  0  0  0  0  0  0
   -3.6565    1.3612  -23.0164 H   0  0  0  0  0  0  0  0  0  0  0  0
   -2.3913    2.2759  -21.0842 H   0  0  0  0  0  0  0  0  0  0  0  0
   -3.1111    1.7388  -18.7703 H   0  0  0  0  0  0  0  0  0  0  0  0
   -4.6336    0.5932  -17.2389 H   0  0  0  0  0  0  0  0  0  0  0  0
   -7.8053   -1.6625  -18.5951 H   0  0  0  0  0  0  0  0  0  0  0  0
   -6.9454   -2.5780  -21.9582 C   0  0  0  0  0  0  0  0  0  0  0  0
   -8.2401   -3.2116  -22.5020 C   0  0  2  0  0  0  0  0  0  0  0  0
   -8.0444   -3.9381  -23.8279 C   0  0  0  0  0  0  0  0  0  0  0  0
   -7.6452   -3.2544  -24.5877 H   0  0  0  0  0  0  0  0  0  0  0  0
   -8.9949   -4.3310  -24.2051 H   0  0  0  0  0  0  0  0  0  0  0  0
   -7.3438   -4.7726  -23.7214 H   0  0  0  0  0  0  0  0  0  0  0  0
   -8.5581   -3.9299  -21.7428 H   0  0  0  0  0  0  0  0  0  0  0  0
   -6.2655   -2.2737  -22.7684 H   0  0  0  0  0  0  0  0  0  0  0  0
   -6.3880   -3.2723  -21.3172 H   0  0  0  0  0  0  0  0  0  0  0  0
  -10.7494   -2.5500  -22.2698 C   0  0  0  0  0  0  0  0  0  0  0  0
  -11.0806   -3.7042  -21.5384 C   0  0  0  0  0  0  0  0  0  0  0  0
  -12.3781   -3.8559  -21.0754 C   0  0  0  0  0  0  0  0  0  0  0  0
  -12.6425   -4.7136  -20.0740 F   0  0  0  0  0  0  0  0  0  0  0  0
  -13.4364   -3.0702  -21.4969 C   0  0  0  0  0  0  0  0  0  0  0  0
  -13.1404   -2.0025  -22.3127 C   0  0  0  0  0  0  0  0  0  0  0  0
  -11.8189   -1.7266  -22.6674 C   0  0  0  0  0  0  0  0  0  0  0  0
  -11.6105   -0.4962  -23.4889 C   0  0  0  0  0  0  0  0  0  0  0  0
  -12.5325    0.2298  -23.8339 O   0  0  0  0  0  0  0  0  0  0  0  0
  -13.9056   -1.3248  -22.6744 H   0  0  0  0  0  0  0  0  0  0  0  0
  -14.4436   -3.3002  -21.1592 H   0  0  0  0  0  0  0  0  0  0  0  0
  -10.3522   -4.4361  -21.2239 H   0  0  0  0  0  0  0  0  0  0  0  0
   -9.5790   -2.0080  -24.6689 H   0  0  0  0  0  0  0  0  0  0  0  0
   -8.3625   -0.8660  -24.0738 H   0  0  0  0  0  0  0  0  0  0  0  0
  -10.7197    1.7759  -23.9982 H   0  0  0  0  0  0  0  0  0  0  0  0
   -8.9950    1.3588  -24.0324 H   0  0  0  0  0  0  0  0  0  0  0  0
   -9.0435    0.5468  -26.5477 O   0  0  0  0  0  0  0  0  0  0  0  0
   -9.3617    0.4774  -27.8867 N   0  0  0  0  0  0  0  0  0  0  0  0
  -12.0136    1.8380  -26.4544 H   0  0  0  0  0  0  0  0  0  0  0  0
  -12.1633    0.4089  -29.3628 H   0  0  0  0  0  0  0  0  0  0  0  0
  -10.5229    0.3412  -30.0085 H   0  0  0  0  0  0  0  0  0  0  0  0
  -11.3005    1.9172  -29.8038 H   0  0  0  0  0  0  0  0  0  0  0  0
  1  2  1  0
  2  3  1  0
  3  4  2  0
  4  5  1  0
  5  6  1  0
  6  7  1  0
  8  7  1  6
  8  9  1  0
  9 10  2  0
  9 11  1  0
 11 12  1  0
 12 13  2  0
 13 14  1  0
 14 15  2  0
 15 16  1  0
 16 17  2  0
 17 18  1  0
 18 19  2  0
 19 20  1  0
 20 21  2  0
 20 22  1  0
 19 23  1  0
 18 24  1  0
 17 25  1  0
 15 26  1  0
 13 27  1  0
 11 28  1  0
 28 29  1  0
 29 30  1  0
 30 31  1  0
 30 32  1  0
 30 33  1  0
 29 34  1  1
 28 35  1  0
 28 36  1  0
  8 37  1  0
 37 38  2  0
 38 39  1  0
 39 40  1  0
 39 41  2  0
 41 42  1  0
 42 43  2  0
 43 44  1  0
 44 45  2  0
 42 46  1  0
 41 47  1  0
 38 48  1  0
  7 49  1  0
  7 50  1  0
  5 51  1  0
  5 52  1  0
  4 53  1  0
 53 54  1  0
  3 55  1  0
  1 56  1  0
  1 57  1  0
  1 58  1  0
 54  2  2  0
 44  6  1  0
 29  8  1  0
 43 37  1  0
 21 12  1  0
 21 16  1  0
M  END
>  <cnnaffinities>  (65) 
[6.33486, 6.3402, 5.98405, 6.60992]

>  <score>  (65) 
6.33486

>  <index>  (65) 
67

>  <Smiles>  (65) 
C(c1c(c(C(N2C([C@@]3(C(=O)N(c4c(nc(c5c(c(c(c(c45)[H])[H])[H])[H])[H])[H])C([C@@]3(C([H])([H])[H])[H])([H])[H])c3c(c(F)c(c(c3C2=O)[H])[H])[H])([H])[H])([H])[H])on1)[H])([H])([H])[H]

>  <h>  (65) 
<NA>

>  <Training>  (65) 
True

>  <Success>  (65) 
True

>  <enamine_searched>  (65) 
False

>  <enamine_id>  (65) 
nan

$$$$

     RDKit          3D

 65 70  0  0  0  0  0  0  0  0999 V2000
   -8.6720    0.6044  -21.3303 O   0  0  0  0  0  0  0  0  0  0  0  0
   -8.3431   -0.3874  -21.9589 C   0  0  0  0  0  0  0  0  0  0  0  0
   -7.4265   -1.4314  -21.2750 C   0  0  0  0  0  0  0  0  0  0  0  0
   -6.5772   -0.8310  -20.1783 C   0  0  0  0  0  0  0  0  0  0  0  0
   -6.8783   -1.0386  -18.8555 C   0  0  0  0  0  0  0  0  0  0  0  0
   -6.1934   -0.5369  -17.7919 N   0  0  0  0  0  0  0  0  0  0  0  0
   -5.1568    0.2230  -18.0610 C   0  0  0  0  0  0  0  0  0  0  0  0
   -4.7236    0.5349  -19.3801 C   0  0  0  0  0  0  0  0  0  0  0  0
   -3.5980    1.3656  -19.6230 C   0  0  0  0  0  0  0  0  0  0  0  0
   -3.2075    1.6566  -20.9030 C   0  0  0  0  0  0  0  0  0  0  0  0
   -3.9290    1.1250  -21.9975 C   0  0  0  0  0  0  0  0  0  0  0  0
   -5.0203    0.3170  -21.7865 C   0  0  0  0  0  0  0  0  0  0  0  0
   -5.4532   -0.0001  -20.4706 C   0  0  0  0  0  0  0  0  0  0  0  0
   -5.5611   -0.0814  -22.6416 H   0  0  0  0  0  0  0  0  0  0  0  0
   -3.6178    1.3600  -23.0104 H   0  0  0  0  0  0  0  0  0  0  0  0
   -2.3505    2.2986  -21.0882 H   0  0  0  0  0  0  0  0  0  0  0  0
   -3.0574    1.7781  -18.7732 H   0  0  0  0  0  0  0  0  0  0  0  0
   -4.5998    0.6291  -17.2155 H   0  0  0  0  0  0  0  0  0  0  0  0
   -7.7300   -1.6607  -18.5854 H   0  0  0  0  0  0  0  0  0  0  0  0
   -6.7921   -1.9527  -22.0005 H   0  0  0  0  0  0  0  0  0  0  0  0
   -8.0834   -2.1911  -20.8369 H   0  0  0  0  0  0  0  0  0  0  0  0
   -8.7497   -0.6065  -23.2730 N   0  0  0  0  0  0  0  0  0  0  0  0
   -8.9701   -1.9492  -23.7840 C   0  0  0  0  0  0  0  0  0  0  0  0
   -7.7460   -2.6428  -24.3407 C   0  0  0  0  0  0  0  0  0  0  0  0
   -7.7504   -4.0317  -24.4637 C   0  0  0  0  0  0  0  0  0  0  0  0
   -6.6369   -4.6984  -24.9613 C   0  0  0  0  0  0  0  0  0  0  0  0
   -5.4994   -3.9987  -25.3428 C   0  0  0  0  0  0  0  0  0  0  0  0
   -5.5061   -2.6175  -25.2197 C   0  0  0  0  0  0  0  0  0  0  0  0
   -4.0897   -1.7130  -25.6798 Cl  0  0  0  0  0  0  0  0  0  0  0  0
   -6.6125   -1.9340  -24.7329 C   0  0  0  0  0  0  0  0  0  0  0  0
   -6.5727   -0.8533  -24.6531 H   0  0  0  0  0  0  0  0  0  0  0  0
   -4.6255   -4.5132  -25.7275 H   0  0  0  0  0  0  0  0  0  0  0  0
   -6.6542   -5.7789  -25.0537 H   0  0  0  0  0  0  0  0  0  0  0  0
   -8.6320   -4.5974  -24.1740 H   0  0  0  0  0  0  0  0  0  0  0  0
   -9.7479   -1.9051  -24.5517 H   0  0  0  0  0  0  0  0  0  0  0  0
   -9.3975   -2.5548  -22.9781 H   0  0  0  0  0  0  0  0  0  0  0  0
   -9.1495    0.5519  -24.0936 C   0  0  2  0  0  0  0  0  0  0  0  0
   -9.2271    0.3452  -25.6353 C   0  0  0  0  0  0  0  0  0  0  0  0
   -9.2011    1.7874  -26.2095 C   0  0  0  0  0  0  0  0  0  0  0  0
   -9.1124    2.6424  -24.9500 C   0  0  2  0  0  0  0  0  0  0  0  0
   -8.2405    1.7934  -24.0351 C   0  0  0  0  0  0  0  0  0  0  0  0
   -8.1389    2.2052  -23.0308 H   0  0  0  0  0  0  0  0  0  0  0  0
   -7.2522    1.6079  -24.4657 H   0  0  0  0  0  0  0  0  0  0  0  0
  -10.4720    2.5929  -24.2525 N   0  0  2  0  0  4  0  0  0  0  0  0
  -10.6125    3.6505  -23.1877 C   0  0  0  0  0  0  0  0  0  0  0  0
  -12.0431    4.1331  -22.9225 C   0  0  0  0  0  0  0  0  0  0  0  0
  -12.7454    4.8133  -24.0986 C   0  0  0  0  0  0  0  0  0  0  0  0
  -13.7803    3.8217  -24.1329 O   0  0  0  0  0  0  0  0  0  0  0  0
  -13.2156    3.1447  -22.9988 C   0  0  0  0  0  0  0  0  0  0  0  0
  -12.9495    2.1094  -23.2378 H   0  0  0  0  0  0  0  0  0  0  0  0
  -13.8866    3.1552  -22.1314 H   0  0  0  0  0  0  0  0  0  0  0  0
  -13.1301    5.8199  -23.8979 H   0  0  0  0  0  0  0  0  0  0  0  0
  -12.1626    4.8216  -25.0283 H   0  0  0  0  0  0  0  0  0  0  0  0
  -12.0419    4.7355  -22.0104 H   0  0  0  0  0  0  0  0  0  0  0  0
  -10.1607    3.2590  -22.2699 H   0  0  0  0  0  0  0  0  0  0  0  0
  -10.0119    4.5208  -23.4882 H   0  0  0  0  0  0  0  0  0  0  0  0
  -10.5205    1.1545  -23.7041 C   0  0  0  0  0  0  0  0  0  0  0  0
  -10.6391    1.1961  -22.6235 H   0  0  0  0  0  0  0  0  0  0  0  0
  -11.3696    0.6271  -24.1490 H   0  0  0  0  0  0  0  0  0  0  0  0
  -11.2269    2.7341  -24.9362 H   0  0  0  0  0  0  0  0  0  0  0  0
   -8.8058    3.6805  -25.1045 H   0  0  0  0  0  0  0  0  0  0  0  0
   -8.3130    1.9597  -26.8274 H   0  0  0  0  0  0  0  0  0  0  0  0
  -10.0790    2.0412  -26.8162 H   0  0  0  0  0  0  0  0  0  0  0  0
  -10.1263   -0.1855  -25.9536 H   0  0  0  0  0  0  0  0  0  0  0  0
   -8.3682   -0.2184  -26.0016 H   0  0  0  0  0  0  0  0  0  0  0  0
  1  2  2  0
  2  3  1  0
  3  4  1  0
  4  5  2  0
  5  6  1  0
  6  7  2  0
  7  8  1  0
  8  9  2  0
  9 10  1  0
 10 11  2  0
 11 12  1  0
 12 13  2  0
 12 14  1  0
 11 15  1  0
 10 16  1  0
  9 17  1  0
  7 18  1  0
  5 19  1  0
  3 20  1  0
  3 21  1  0
  2 22  1  0
 22 23  1  0
 23 24  1  0
 24 25  2  0
 25 26  1  0
 26 27  2  0
 27 28  1  0
 28 29  1  0
 28 30  2  0
 30 31  1  0
 27 32  1  0
 26 33  1  0
 25 34  1  0
 23 35  1  0
 23 36  1  0
 37 22  1  1
 37 38  1  0
 38 39  1  0
 39 40  1  0
 40 41  1  0
 41 42  1  0
 41 43  1  0
 40 44  1  0
 44 45  1  0
 45 46  1  0
 46 47  1  0
 47 48  1  0
 48 49  1  0
 49 50  1  0
 49 51  1  0
 47 52  1  0
 47 53  1  0
 46 54  1  0
 45 55  1  0
 45 56  1  0
 44 57  1  0
 57 58  1  0
 57 59  1  0
 44 60  1  6
 40 61  1  6
 39 62  1  0
 39 63  1  0
 38 64  1  0
 38 65  1  0
 13  4  1  0
 30 24  1  0
 41 37  1  0
 49 46  1  0
 13  8  1  0
 57 37  1  0
M  CHG  1  44   1
M  END
>  <cnnaffinities>  (66) 
[5.91949, 6.44316]

>  <score>  (66) 
5.91949

>  <index>  (66) 
68

>  <Smiles>  (66) 
O=C(C(c1c(nc(c2c(c(c(c(c12)[H])[H])[H])[H])[H])[H])([H])[H])N(C(c1c(c(c(c(Cl)c1[H])[H])[H])[H])([H])[H])[C@]12C(C([C@](C1([H])[H])([N@+](C(C1(C(OC1([H])[H])([H])[H])[H])([H])[H])(C2([H])[H])[H])[H])([H])[H])([H])[H]

>  <h>  (66) 
<NA>

>  <Training>  (66) 
True

>  <Success>  (66) 
True

>  <enamine_searched>  (66) 
False

>  <enamine_id>  (66) 
nan

$$$$

     RDKit          3D

 63 67  0  0  0  0  0  0  0  0999 V2000
  -10.3525   -6.7353  -26.6910 C   0  0  0  0  0  0  0  0  0  0  0  0
  -10.8979   -5.8103  -27.4735 C   0  0  0  0  0  0  0  0  0  0  0  0
  -10.7093   -4.3448  -27.3213 C   0  0  0  0  0  0  0  0  0  0  0  0
  -11.1344   -3.5454  -28.1242 O   0  0  0  0  0  0  0  0  0  0  0  0
   -9.8677   -3.9648  -26.2332 N   0  0  0  0  0  0  0  0  0  0  0  0
   -8.4402   -4.1148  -26.5334 C   0  0  0  0  0  0  0  0  0  0  0  0
   -7.8390   -2.7334  -26.7500 C   0  0  0  0  0  0  0  0  0  0  0  0
   -7.9458   -1.9656  -25.4395 C   0  0  0  0  0  0  0  0  0  0  0  0
   -9.3350   -2.0303  -24.8344 C   0  0  0  0  0  0  0  0  0  0  0  0
  -10.2713   -2.9646  -25.3225 C   0  0  0  0  0  0  0  0  0  0  0  0
  -11.5880   -2.9494  -24.8362 C   0  0  0  0  0  0  0  0  0  0  0  0
  -11.9482   -2.0745  -23.8218 C   0  0  0  0  0  0  0  0  0  0  0  0
  -11.0151   -1.2038  -23.2649 C   0  0  0  0  0  0  0  0  0  0  0  0
   -9.7247   -1.2006  -23.7769 C   0  0  0  0  0  0  0  0  0  0  0  0
   -8.6883   -0.2118  -23.1282 N   0  0  1  0  0  4  0  0  0  0  0  0
   -9.0112    1.2867  -23.3922 C   0  0  0  0  0  0  0  0  0  0  0  0
   -7.8154    2.1792  -23.1348 C   0  0  0  0  0  0  0  0  0  0  0  0
   -7.6680    2.8171  -21.9011 C   0  0  0  0  0  0  0  0  0  0  0  0
   -6.6564    3.7461  -21.6869 C   0  0  0  0  0  0  0  0  0  0  0  0
   -5.7071    3.9945  -22.6713 C   0  0  0  0  0  0  0  0  0  0  0  0
   -5.8133    3.3013  -23.8725 C   0  0  0  0  0  0  0  0  0  0  0  0
   -4.5810    3.5409  -25.0885 Cl  0  0  0  0  0  0  0  0  0  0  0  0
   -6.8623    2.4244  -24.1243 C   0  0  0  0  0  0  0  0  0  0  0  0
   -6.9312    1.9371  -25.0930 H   0  0  0  0  0  0  0  0  0  0  0  0
   -4.8907    4.6968  -22.5074 H   0  0  0  0  0  0  0  0  0  0  0  0
   -6.6164    4.3090  -20.7547 H   0  0  0  0  0  0  0  0  0  0  0  0
   -8.3479    2.5541  -21.0979 H   0  0  0  0  0  0  0  0  0  0  0  0
   -9.3579    1.3764  -24.4221 H   0  0  0  0  0  0  0  0  0  0  0  0
   -9.8182    1.5557  -22.7093 H   0  0  0  0  0  0  0  0  0  0  0  0
   -8.5031   -0.4300  -21.6646 C   0  0  0  0  0  0  0  0  0  0  0  0
   -9.2442    0.1146  -20.8828 O   0  0  0  0  0  0  0  0  0  0  0  0
   -7.4338   -1.4283  -21.2301 C   0  0  0  0  0  0  0  0  0  0  0  0
   -6.5615   -0.8445  -20.1469 C   0  0  0  0  0  0  0  0  0  0  0  0
   -6.8695   -1.0504  -18.8288 C   0  0  0  0  0  0  0  0  0  0  0  0
   -6.1951   -0.5269  -17.7705 N   0  0  0  0  0  0  0  0  0  0  0  0
   -5.1661    0.2362  -18.0480 C   0  0  0  0  0  0  0  0  0  0  0  0
   -4.7224    0.5360  -19.3661 C   0  0  0  0  0  0  0  0  0  0  0  0
   -3.6001    1.3665  -19.6107 C   0  0  0  0  0  0  0  0  0  0  0  0
   -3.1967    1.6281  -20.8891 C   0  0  0  0  0  0  0  0  0  0  0  0
   -3.9069    1.0823  -21.9839 C   0  0  0  0  0  0  0  0  0  0  0  0
   -5.0140    0.2979  -21.7718 C   0  0  0  0  0  0  0  0  0  0  0  0
   -5.4454   -0.0113  -20.4558 C   0  0  0  0  0  0  0  0  0  0  0  0
   -5.5634   -0.0870  -22.6266 H   0  0  0  0  0  0  0  0  0  0  0  0
   -3.5653    1.2882  -22.9968 H   0  0  0  0  0  0  0  0  0  0  0  0
   -2.3388    2.2705  -21.0715 H   0  0  0  0  0  0  0  0  0  0  0  0
   -3.0803    1.8003  -18.7580 H   0  0  0  0  0  0  0  0  0  0  0  0
   -4.6205    0.6658  -17.2058 H   0  0  0  0  0  0  0  0  0  0  0  0
   -7.7233   -1.6737  -18.5646 H   0  0  0  0  0  0  0  0  0  0  0  0
   -6.8474   -1.7696  -22.0859 H   0  0  0  0  0  0  0  0  0  0  0  0
   -7.9659   -2.3093  -20.8480 H   0  0  0  0  0  0  0  0  0  0  0  0
   -7.7962   -0.4265  -23.5987 H   0  0  0  0  0  0  0  0  0  0  0  0
  -11.2850   -0.5609  -22.4306 H   0  0  0  0  0  0  0  0  0  0  0  0
  -12.9609   -2.0920  -23.4333 H   0  0  0  0  0  0  0  0  0  0  0  0
  -12.3282   -3.6393  -25.2303 H   0  0  0  0  0  0  0  0  0  0  0  0
   -7.2349   -2.3989  -24.7183 H   0  0  0  0  0  0  0  0  0  0  0  0
   -7.6414   -0.9229  -25.6018 H   0  0  0  0  0  0  0  0  0  0  0  0
   -8.3845   -2.2036  -27.5422 H   0  0  0  0  0  0  0  0  0  0  0  0
   -6.7935   -2.8156  -27.0648 H   0  0  0  0  0  0  0  0  0  0  0  0
   -7.9184   -4.6241  -25.7027 H   0  0  0  0  0  0  0  0  0  0  0  0
   -8.3353   -4.7400  -27.4308 H   0  0  0  0  0  0  0  0  0  0  0  0
  -11.5496   -6.1061  -28.2867 H   0  0  0  0  0  0  0  0  0  0  0  0
  -10.5543   -7.7846  -26.8905 H   0  0  0  0  0  0  0  0  0  0  0  0
   -9.6937   -6.4687  -25.8710 H   0  0  0  0  0  0  0  0  0  0  0  0
  1  2  2  0
  2  3  1  0
  3  4  2  0
  3  5  1  0
  5  6  1  0
  6  7  1  0
  7  8  1  0
  8  9  1  0
  9 10  2  0
 10 11  1  0
 11 12  2  0
 12 13  1  0
 13 14  2  0
 14 15  1  0
 15 16  1  0
 16 17  1  0
 17 18  2  0
 18 19  1  0
 19 20  2  0
 20 21  1  0
 21 22  1  0
 21 23  2  0
 23 24  1  0
 20 25  1  0
 19 26  1  0
 18 27  1  0
 16 28  1  0
 16 29  1  0
 15 30  1  0
 30 31  2  0
 30 32  1  0
 32 33  1  0
 33 34  2  0
 34 35  1  0
 35 36  2  0
 36 37  1  0
 37 38  2  0
 38 39  1  0
 39 40  2  0
 40 41  1  0
 41 42  2  0
 41 43  1  0
 40 44  1  0
 39 45  1  0
 38 46  1  0
 36 47  1  0
 34 48  1  0
 32 49  1  0
 32 50  1  0
 15 51  1  6
 13 52  1  0
 12 53  1  0
 11 54  1  0
  8 55  1  0
  8 56  1  0
  7 57  1  0
  7 58  1  0
  6 59  1  0
  6 60  1  0
  2 61  1  0
  1 62  1  0
  1 63  1  0
 10  5  1  0
 23 17  1  0
 42 33  1  0
 14  9  1  0
 42 37  1  0
M  CHG  1  15   1
M  END
>  <cnnaffinities>  (67) 
[6.1991]

>  <score>  (67) 
6.1991

>  <index>  (67) 
69

>  <Smiles>  (67) 
C(=C(C(=O)N1C(C(C(c2c1c(c(c(c2[N@@+](C(c1c(c(c(c(Cl)c1[H])[H])[H])[H])([H])[H])(C(=O)C(c1c(nc(c2c(c(c(c(c12)[H])[H])[H])[H])[H])[H])([H])[H])[H])[H])[H])[H])([H])[H])([H])[H])([H])[H])[H])([H])[H]

>  <h>  (67) 
<NA>

>  <Training>  (67) 
True

>  <Success>  (67) 
True

>  <enamine_searched>  (67) 
False

>  <enamine_id>  (67) 
nan

$$$$

     RDKit          3D

 52 54  0  0  0  0  0  0  0  0999 V2000
   -4.7466   -5.0449  -26.7359 C   0  0  0  0  0  0  0  0  0  0  0  0
   -5.9475   -5.7449  -26.0916 C   0  0  0  0  0  0  0  0  0  0  0  0
   -6.3808   -6.9297  -26.9583 C   0  0  0  0  0  0  0  0  0  0  0  0
   -5.5192   -7.4122  -27.4324 H   0  0  0  0  0  0  0  0  0  0  0  0
   -7.0492   -6.6110  -27.7641 H   0  0  0  0  0  0  0  0  0  0  0  0
   -6.9019   -7.7014  -26.3860 H   0  0  0  0  0  0  0  0  0  0  0  0
   -7.0623   -4.7192  -25.8138 C   0  0  0  0  0  0  0  0  0  0  0  0
   -8.3098   -5.1047  -24.9679 C   0  0  0  0  0  0  0  0  0  0  0  0
   -9.2759   -5.9833  -25.7782 C   0  0  0  0  0  0  0  0  0  0  0  0
  -10.2247   -6.1137  -25.2457 H   0  0  0  0  0  0  0  0  0  0  0  0
   -9.5146   -5.5285  -26.7474 H   0  0  0  0  0  0  0  0  0  0  0  0
   -8.8882   -6.9874  -25.9719 H   0  0  0  0  0  0  0  0  0  0  0  0
   -9.0565   -3.7990  -24.5629 C   0  0  0  0  0  0  0  0  0  0  0  0
   -8.8701   -3.3594  -23.0999 C   0  0  0  0  0  0  0  0  0  0  0  0
   -7.5324   -3.6237  -22.5903 N   0  0  0  0  0  0  0  0  0  0  0  0
   -6.7702   -2.7638  -21.8383 C   0  0  0  0  0  0  0  0  0  0  0  0
   -5.5989   -3.0133  -21.5977 O   0  0  0  0  0  0  0  0  0  0  0  0
   -7.4195   -1.4788  -21.2633 C   0  0  0  0  0  0  0  0  0  0  0  0
   -6.5805   -0.8306  -20.1830 C   0  0  0  0  0  0  0  0  0  0  0  0
   -6.8736   -1.0442  -18.8609 C   0  0  0  0  0  0  0  0  0  0  0  0
   -6.1902   -0.5428  -17.7976 N   0  0  0  0  0  0  0  0  0  0  0  0
   -5.1585    0.2228  -18.0637 C   0  0  0  0  0  0  0  0  0  0  0  0
   -4.7215    0.5309  -19.3813 C   0  0  0  0  0  0  0  0  0  0  0  0
   -3.5922    1.3584  -19.6205 C   0  0  0  0  0  0  0  0  0  0  0  0
   -3.1897    1.6334  -20.8999 C   0  0  0  0  0  0  0  0  0  0  0  0
   -3.9006    1.0890  -21.9925 C   0  0  0  0  0  0  0  0  0  0  0  0
   -4.9983    0.2881  -21.7865 C   0  0  0  0  0  0  0  0  0  0  0  0
   -5.4444   -0.0124  -20.4732 C   0  0  0  0  0  0  0  0  0  0  0  0
   -5.5223   -0.1345  -22.6372 H   0  0  0  0  0  0  0  0  0  0  0  0
   -3.5734    1.3099  -23.0040 H   0  0  0  0  0  0  0  0  0  0  0  0
   -2.3276    2.2700  -21.0855 H   0  0  0  0  0  0  0  0  0  0  0  0
   -3.0558    1.7756  -18.7699 H   0  0  0  0  0  0  0  0  0  0  0  0
   -4.6015    0.6285  -17.2164 H   0  0  0  0  0  0  0  0  0  0  0  0
   -7.7205   -1.6699  -18.5863 H   0  0  0  0  0  0  0  0  0  0  0  0
   -7.6019   -0.7605  -22.0747 H   0  0  0  0  0  0  0  0  0  0  0  0
   -8.4062   -1.7235  -20.8429 H   0  0  0  0  0  0  0  0  0  0  0  0
   -7.0269   -4.9903  -22.7593 C   0  0  0  0  0  0  0  0  0  0  0  0
   -7.9145   -5.8301  -23.6771 C   0  0  0  0  0  0  0  0  0  0  0  0
   -7.4049   -6.7690  -23.9185 H   0  0  0  0  0  0  0  0  0  0  0  0
   -8.8178   -6.1459  -23.1432 H   0  0  0  0  0  0  0  0  0  0  0  0
   -6.9468   -5.4833  -21.7826 H   0  0  0  0  0  0  0  0  0  0  0  0
   -6.0067   -4.9497  -23.1538 H   0  0  0  0  0  0  0  0  0  0  0  0
   -9.0746   -2.2911  -23.0282 H   0  0  0  0  0  0  0  0  0  0  0  0
   -9.6213   -3.8603  -22.4745 H   0  0  0  0  0  0  0  0  0  0  0  0
   -8.7591   -2.9839  -25.2296 H   0  0  0  0  0  0  0  0  0  0  0  0
  -10.1347   -3.9124  -24.7265 H   0  0  0  0  0  0  0  0  0  0  0  0
   -6.5963   -3.8465  -25.3375 H   0  0  0  0  0  0  0  0  0  0  0  0
   -7.4182   -4.3426  -26.7837 H   0  0  0  0  0  0  0  0  0  0  0  0
   -5.5949   -6.1432  -25.1359 H   0  0  0  0  0  0  0  0  0  0  0  0
   -4.3707   -4.2238  -26.1168 H   0  0  0  0  0  0  0  0  0  0  0  0
   -5.0033   -4.6340  -27.7188 H   0  0  0  0  0  0  0  0  0  0  0  0
   -3.9160   -5.7436  -26.8885 H   0  0  0  0  0  0  0  0  0  0  0  0
  1  2  1  0
  2  3  1  0
  3  4  1  0
  3  5  1  0
  3  6  1  0
  2  7  1  0
  7  8  1  0
  8  9  1  0
  9 10  1  0
  9 11  1  0
  9 12  1  0
  8 13  1  0
 13 14  1  0
 14 15  1  0
 15 16  1  0
 16 17  2  0
 16 18  1  0
 18 19  1  0
 19 20  2  0
 20 21  1  0
 21 22  2  0
 22 23  1  0
 23 24  2  0
 24 25  1  0
 25 26  2  0
 26 27  1  0
 27 28  2  0
 27 29  1  0
 26 30  1  0
 25 31  1  0
 24 32  1  0
 22 33  1  0
 20 34  1  0
 18 35  1  0
 18 36  1  0
 15 37  1  0
 37 38  1  0
 38 39  1  0
 38 40  1  0
 37 41  1  0
 37 42  1  0
 14 43  1  0
 14 44  1  0
 13 45  1  0
 13 46  1  0
  7 47  1  0
  7 48  1  0
  2 49  1  0
  1 50  1  0
  1 51  1  0
  1 52  1  0
 38  8  1  0
 28 19  1  0
 28 23  1  0
M  END
>  <cnnaffinities>  (68) 
[5.32023, 5.31232, 5.27307, 5.27275, 4.67453]

>  <score>  (68) 
5.32023

>  <index>  (68) 
70

>  <Smiles>  (68) 
C(C(C([H])([H])[H])(C(C1(C([H])([H])[H])C(C(N(C(=O)C(c2c(nc(c3c(c(c(c(c23)[H])[H])[H])[H])[H])[H])([H])[H])C(C1([H])[H])([H])[H])([H])[H])([H])[H])([H])[H])[H])([H])([H])[H]

>  <h>  (68) 
<NA>

>  <Training>  (68) 
True

>  <Success>  (68) 
True

>  <enamine_searched>  (68) 
False

>  <enamine_id>  (68) 
nan

$$$$

     RDKit          3D

 50 54  0  0  0  0  0  0  0  0999 V2000
  -10.4557   -1.1432  -23.2821 C   0  0  0  0  0  0  0  0  0  0  0  0
   -9.0082   -1.4616  -22.9442 C   0  0  1  0  0  0  0  0  0  0  0  0
   -8.3988   -0.5117  -21.9054 C   0  0  0  0  0  0  0  0  0  0  0  0
   -7.4082   -1.3346  -21.2355 N   0  0  0  0  0  0  0  0  0  0  0  0
   -6.5932   -0.8470  -20.1900 C   0  0  0  0  0  0  0  0  0  0  0  0
   -6.9051   -1.1021  -18.8795 C   0  0  0  0  0  0  0  0  0  0  0  0
   -6.2380   -0.5774  -17.8194 N   0  0  0  0  0  0  0  0  0  0  0  0
   -5.2167    0.2038  -18.0816 C   0  0  0  0  0  0  0  0  0  0  0  0
   -4.7660    0.5142  -19.3986 C   0  0  0  0  0  0  0  0  0  0  0  0
   -3.6385    1.3410  -19.6316 C   0  0  0  0  0  0  0  0  0  0  0  0
   -3.2284    1.6056  -20.9089 C   0  0  0  0  0  0  0  0  0  0  0  0
   -3.9238    1.0643  -22.0128 C   0  0  0  0  0  0  0  0  0  0  0  0
   -5.0228    0.2653  -21.8158 C   0  0  0  0  0  0  0  0  0  0  0  0
   -5.4713   -0.0213  -20.4978 C   0  0  0  0  0  0  0  0  0  0  0  0
   -5.5473   -0.1586  -22.6667 H   0  0  0  0  0  0  0  0  0  0  0  0
   -3.5903    1.2909  -23.0211 H   0  0  0  0  0  0  0  0  0  0  0  0
   -2.3701    2.2460  -21.0838 H   0  0  0  0  0  0  0  0  0  0  0  0
   -3.1244    1.7615  -18.7710 H   0  0  0  0  0  0  0  0  0  0  0  0
   -4.6781    0.6320  -17.2330 H   0  0  0  0  0  0  0  0  0  0  0  0
   -7.7428   -1.7517  -18.6372 H   0  0  0  0  0  0  0  0  0  0  0  0
   -7.5516   -2.6850  -21.4648 C   0  0  0  0  0  0  0  0  0  0  0  0
   -6.7936   -3.5342  -21.0518 O   0  0  0  0  0  0  0  0  0  0  0  0
   -8.7805   -2.8961  -22.3590 C   0  0  1  0  0  0  0  0  0  0  0  0
   -9.9692   -3.3698  -21.4942 C   0  0  0  0  0  0  0  0  0  0  0  0
  -11.1089   -3.8041  -22.2910 N   0  0  0  0  0  0  0  0  0  0  0  0
  -12.4580   -3.7093  -21.7801 C   0  0  0  0  0  0  0  0  0  0  0  0
  -13.3722   -2.8795  -22.5896 C   0  0  0  0  0  0  0  0  0  0  0  0
  -14.1545   -2.2807  -23.1929 N   0  0  0  0  0  0  0  0  0  0  0  0
  -12.4386   -3.3069  -20.7710 H   0  0  0  0  0  0  0  0  0  0  0  0
  -12.8937   -4.7071  -21.7561 H   0  0  0  0  0  0  0  0  0  0  0  0
  -10.9747   -4.5069  -23.4539 C   0  0  0  0  0  0  0  0  0  0  0  0
  -11.9458   -4.9461  -24.0570 O   0  0  0  0  0  0  0  0  0  0  0  0
   -9.5748   -4.7058  -23.9231 C   0  0  0  0  0  0  0  0  0  0  0  0
   -9.3381   -5.6844  -24.8822 C   0  0  0  0  0  0  0  0  0  0  0  0
   -8.0683   -5.8992  -25.3771 C   0  0  0  0  0  0  0  0  0  0  0  0
   -7.0559   -5.0650  -24.9204 C   0  0  0  0  0  0  0  0  0  0  0  0
   -5.8305   -5.2194  -25.4387 F   0  0  0  0  0  0  0  0  0  0  0  0
   -7.2481   -4.1051  -23.9486 C   0  0  0  0  0  0  0  0  0  0  0  0
   -8.5253   -3.9366  -23.4140 C   0  0  0  0  0  0  0  0  0  0  0  0
   -6.4040   -3.5305  -23.5845 H   0  0  0  0  0  0  0  0  0  0  0  0
   -7.8499   -6.6973  -26.0787 H   0  0  0  0  0  0  0  0  0  0  0  0
  -10.1888   -6.2601  -25.2212 H   0  0  0  0  0  0  0  0  0  0  0  0
   -9.6448   -4.1706  -20.8231 H   0  0  0  0  0  0  0  0  0  0  0  0
  -10.2912   -2.5211  -20.8888 H   0  0  0  0  0  0  0  0  0  0  0  0
   -9.1591   -0.1530  -21.1957 H   0  0  0  0  0  0  0  0  0  0  0  0
   -7.9347    0.3681  -22.3637 H   0  0  0  0  0  0  0  0  0  0  0  0
   -8.3961   -1.4145  -23.8539 H   0  0  0  0  0  0  0  0  0  0  0  0
  -10.5519   -0.1652  -23.7536 H   0  0  0  0  0  0  0  0  0  0  0  0
  -11.0583   -1.1530  -22.3693 H   0  0  0  0  0  0  0  0  0  0  0  0
  -10.8658   -1.9060  -23.9480 H   0  0  0  0  0  0  0  0  0  0  0  0
  1  2  1  0
  2  3  1  0
  3  4  1  0
  4  5  1  0
  5  6  2  0
  6  7  1  0
  7  8  2  0
  8  9  1  0
  9 10  2  0
 10 11  1  0
 11 12  2  0
 12 13  1  0
 13 14  2  0
 13 15  1  0
 12 16  1  0
 11 17  1  0
 10 18  1  0
  8 19  1  0
  6 20  1  0
  4 21  1  0
 21 22  2  0
 21 23  1  0
 23 24  1  1
 24 25  1  0
 25 26  1  0
 26 27  1  0
 27 28  3  0
 26 29  1  0
 26 30  1  0
 25 31  1  0
 31 32  2  0
 31 33  1  0
 33 34  2  0
 34 35  1  0
 35 36  2  0
 36 37  1  0
 36 38  1  0
 38 39  2  0
 38 40  1  0
 35 41  1  0
 34 42  1  0
 24 43  1  0
 24 44  1  0
  3 45  1  0
  3 46  1  0
  2 47  1  6
  1 48  1  0
  1 49  1  0
  1 50  1  0
 23  2  1  0
 39 33  1  0
 14  5  1  0
 39 23  1  0
 14  9  1  0
M  END
>  <cnnaffinities>  (69) 
[6.39846]

>  <score>  (69) 
6.39846

>  <index>  (69) 
71

>  <Smiles>  (69) 
C([C@]1(C(N(c2c(nc(c3c(c(c(c(c23)[H])[H])[H])[H])[H])[H])C(=O)[C@]21C(N(C(C#N)([H])[H])C(=O)c1c(c(c(F)c(c21)[H])[H])[H])([H])[H])([H])[H])[H])([H])([H])[H]

>  <h>  (69) 
<NA>

>  <Training>  (69) 
True

>  <Success>  (69) 
True

>  <enamine_searched>  (69) 
False

>  <enamine_id>  (69) 
nan

$$$$

     RDKit          3D

 41 44  0  0  0  0  0  0  0  0999 V2000
   -8.4813    0.7094  -21.4503 O   0  0  0  0  0  0  0  0  0  0  0  0
   -8.3837   -0.4069  -21.9312 C   0  0  0  0  0  0  0  0  0  0  0  0
   -7.4343   -1.4346  -21.2709 C   0  0  0  0  0  0  0  0  0  0  0  0
   -6.5786   -0.8340  -20.1782 C   0  0  0  0  0  0  0  0  0  0  0  0
   -6.8772   -1.0381  -18.8575 C   0  0  0  0  0  0  0  0  0  0  0  0
   -6.1919   -0.5378  -17.7914 N   0  0  0  0  0  0  0  0  0  0  0  0
   -5.1569    0.2218  -18.0604 C   0  0  0  0  0  0  0  0  0  0  0  0
   -4.7226    0.5349  -19.3805 C   0  0  0  0  0  0  0  0  0  0  0  0
   -3.5950    1.3696  -19.6217 C   0  0  0  0  0  0  0  0  0  0  0  0
   -3.2103    1.6603  -20.9018 C   0  0  0  0  0  0  0  0  0  0  0  0
   -3.9334    1.1317  -21.9931 C   0  0  0  0  0  0  0  0  0  0  0  0
   -5.0240    0.3234  -21.7874 C   0  0  0  0  0  0  0  0  0  0  0  0
   -5.4531    0.0014  -20.4688 C   0  0  0  0  0  0  0  0  0  0  0  0
   -5.5737   -0.0647  -22.6383 H   0  0  0  0  0  0  0  0  0  0  0  0
   -3.6212    1.3736  -23.0055 H   0  0  0  0  0  0  0  0  0  0  0  0
   -2.3529    2.3019  -21.0887 H   0  0  0  0  0  0  0  0  0  0  0  0
   -3.0521    1.7799  -18.7726 H   0  0  0  0  0  0  0  0  0  0  0  0
   -4.5969    0.6302  -17.2164 H   0  0  0  0  0  0  0  0  0  0  0  0
   -7.7298   -1.6607  -18.5882 H   0  0  0  0  0  0  0  0  0  0  0  0
   -6.7924   -1.9009  -22.0287 H   0  0  0  0  0  0  0  0  0  0  0  0
   -8.0427   -2.2414  -20.8410 H   0  0  0  0  0  0  0  0  0  0  0  0
   -9.0494   -0.7700  -23.0925 N   0  0  0  0  0  0  0  0  0  0  0  0
   -9.3836   -2.1553  -23.4186 C   0  0  0  0  0  0  0  0  0  0  0  0
  -10.6302   -2.7096  -22.7265 C   0  0  0  0  0  0  0  0  0  0  0  0
  -11.9410   -2.0704  -23.2043 C   0  0  0  0  0  0  0  0  0  0  0  0
  -12.1024   -0.6263  -22.7817 C   0  0  0  0  0  0  0  0  0  0  0  0
  -13.5063   -0.0944  -21.9185 S   0  0  0  0  0  0  0  0  0  0  0  0
  -12.9118    1.5267  -21.8254 C   0  0  0  0  0  0  0  0  0  0  0  0
  -11.7140    1.6521  -22.4537 C   0  0  0  0  0  0  0  0  0  0  0  0
  -11.2431    0.4124  -22.9940 C   0  0  0  0  0  0  0  0  0  0  0  0
   -9.9213    0.2439  -23.6958 C   0  0  0  0  0  0  0  0  0  0  0  0
   -9.4001    1.2009  -23.7180 H   0  0  0  0  0  0  0  0  0  0  0  0
  -10.1116   -0.0228  -24.7423 H   0  0  0  0  0  0  0  0  0  0  0  0
  -11.1530    2.5785  -22.5336 H   0  0  0  0  0  0  0  0  0  0  0  0
  -13.4714    2.3065  -21.3259 H   0  0  0  0  0  0  0  0  0  0  0  0
  -12.7882   -2.6641  -22.8503 H   0  0  0  0  0  0  0  0  0  0  0  0
  -11.9815   -2.1078  -24.3025 H   0  0  0  0  0  0  0  0  0  0  0  0
  -10.6834   -3.7936  -22.8859 H   0  0  0  0  0  0  0  0  0  0  0  0
  -10.5341   -2.5593  -21.6480 H   0  0  0  0  0  0  0  0  0  0  0  0
   -8.5198   -2.7846  -23.2064 H   0  0  0  0  0  0  0  0  0  0  0  0
   -9.5321   -2.2189  -24.5022 H   0  0  0  0  0  0  0  0  0  0  0  0
  1  2  2  0
  2  3  1  0
  3  4  1  0
  4  5  2  0
  5  6  1  0
  6  7  2  0
  7  8  1  0
  8  9  2  0
  9 10  1  0
 10 11  2  0
 11 12  1  0
 12 13  2  0
 12 14  1  0
 11 15  1  0
 10 16  1  0
  9 17  1  0
  7 18  1  0
  5 19  1  0
  3 20  1  0
  3 21  1  0
  2 22  1  0
 22 23  1  0
 23 24  1  0
 24 25  1  0
 25 26  1  0
 26 27  1  0
 27 28  1  0
 28 29  2  0
 29 30  1  0
 30 31  1  0
 31 32  1  0
 31 33  1  0
 29 34  1  0
 28 35  1  0
 25 36  1  0
 25 37  1  0
 24 38  1  0
 24 39  1  0
 23 40  1  0
 23 41  1  0
 13  4  1  0
 31 22  1  0
 13  8  1  0
 30 26  2  0
M  END
>  <cnnaffinities>  (70) 
[5.15474, 5.15987, 5.33442, 5.4175, 4.97183, 5.13582]

>  <score>  (70) 
5.15474

>  <index>  (70) 
72

>  <Smiles>  (70) 
O=C(C(c1c(nc(c2c(c(c(c(c12)[H])[H])[H])[H])[H])[H])([H])[H])N1C(C(C(c2sc(c(c2C1([H])[H])[H])[H])([H])[H])([H])[H])([H])[H]

>  <h>  (70) 
<NA>

>  <Training>  (70) 
True

>  <Success>  (70) 
True

>  <enamine_searched>  (70) 
False

>  <enamine_id>  (70) 
nan

$$$$

     RDKit          3D

 50 53  0  0  0  0  0  0  0  0999 V2000
   -5.5884   -3.0509  -21.5622 O   0  0  0  0  0  0  0  0  0  0  0  0
   -6.7419   -2.7604  -21.8402 C   0  0  0  0  0  0  0  0  0  0  0  0
   -7.4030   -1.4857  -21.2693 C   0  0  0  0  0  0  0  0  0  0  0  0
   -6.5771   -0.8392  -20.1862 C   0  0  0  0  0  0  0  0  0  0  0  0
   -6.8806   -1.0540  -18.8673 C   0  0  0  0  0  0  0  0  0  0  0  0
   -6.2003   -0.5461  -17.8063 N   0  0  0  0  0  0  0  0  0  0  0  0
   -5.1644    0.2142  -18.0721 C   0  0  0  0  0  0  0  0  0  0  0  0
   -4.7248    0.5218  -19.3863 C   0  0  0  0  0  0  0  0  0  0  0  0
   -3.5981    1.3502  -19.6214 C   0  0  0  0  0  0  0  0  0  0  0  0
   -3.1942    1.6252  -20.9001 C   0  0  0  0  0  0  0  0  0  0  0  0
   -3.9026    1.0824  -21.9950 C   0  0  0  0  0  0  0  0  0  0  0  0
   -4.9988    0.2779  -21.7924 C   0  0  0  0  0  0  0  0  0  0  0  0
   -5.4428   -0.0216  -20.4777 C   0  0  0  0  0  0  0  0  0  0  0  0
   -5.5319   -0.1382  -22.6401 H   0  0  0  0  0  0  0  0  0  0  0  0
   -3.5800    1.3111  -23.0065 H   0  0  0  0  0  0  0  0  0  0  0  0
   -2.3357    2.2668  -21.0783 H   0  0  0  0  0  0  0  0  0  0  0  0
   -3.0788    1.7673  -18.7623 H   0  0  0  0  0  0  0  0  0  0  0  0
   -4.6199    0.6241  -17.2199 H   0  0  0  0  0  0  0  0  0  0  0  0
   -7.7315   -1.6748  -18.5897 H   0  0  0  0  0  0  0  0  0  0  0  0
   -7.6060   -0.7738  -22.0840 H   0  0  0  0  0  0  0  0  0  0  0  0
   -8.3860   -1.7622  -20.8617 H   0  0  0  0  0  0  0  0  0  0  0  0
   -7.5068   -3.5678  -22.6549 N   0  0  0  0  0  0  0  0  0  0  0  0
   -8.6494   -3.0813  -23.4316 C   0  0  0  0  0  0  0  0  0  0  0  0
   -9.7107   -4.1714  -23.5770 C   0  0  0  0  0  0  0  0  0  0  0  0
   -9.0578   -5.4089  -24.1879 C   0  0  0  0  0  0  0  0  0  0  0  0
   -7.9542   -5.9029  -23.2554 C   0  0  0  0  0  0  0  0  0  0  0  0
   -6.8802   -4.8307  -23.0811 C   0  0  1  0  0  0  0  0  0  0  0  0
   -6.0268   -4.6775  -24.3631 C   0  0  0  0  0  0  0  0  0  0  0  0
   -5.2086   -5.9164  -24.6837 C   0  0  0  0  0  0  0  0  0  0  0  0
   -4.0479   -6.1910  -23.9555 C   0  0  0  0  0  0  0  0  0  0  0  0
   -3.2852   -7.3247  -24.2206 C   0  0  0  0  0  0  0  0  0  0  0  0
   -3.6713   -8.2161  -25.2192 C   0  0  0  0  0  0  0  0  0  0  0  0
   -4.8287   -7.9598  -25.9503 C   0  0  0  0  0  0  0  0  0  0  0  0
   -5.5893   -6.8221  -25.6803 C   0  0  0  0  0  0  0  0  0  0  0  0
   -6.4957   -6.6408  -26.2558 H   0  0  0  0  0  0  0  0  0  0  0  0
   -5.1448   -8.6451  -26.7337 H   0  0  0  0  0  0  0  0  0  0  0  0
   -3.0685   -9.0984  -25.4264 H   0  0  0  0  0  0  0  0  0  0  0  0
   -2.3834   -7.5112  -23.6426 H   0  0  0  0  0  0  0  0  0  0  0  0
   -3.7455   -5.4972  -23.1729 H   0  0  0  0  0  0  0  0  0  0  0  0
   -6.6849   -4.4490  -25.2121 H   0  0  0  0  0  0  0  0  0  0  0  0
   -5.3684   -3.8139  -24.2107 H   0  0  0  0  0  0  0  0  0  0  0  0
   -6.2017   -5.0961  -22.2628 H   0  0  0  0  0  0  0  0  0  0  0  0
   -8.3543   -6.1322  -22.2608 H   0  0  0  0  0  0  0  0  0  0  0  0
   -7.4850   -6.8150  -23.6413 H   0  0  0  0  0  0  0  0  0  0  0  0
   -9.7769   -6.1917  -24.3929 H   0  0  0  0  0  0  0  0  0  0  0  0
   -8.6320   -5.1682  -25.1751 H   0  0  0  0  0  0  0  0  0  0  0  0
  -10.1297   -4.4037  -22.5878 H   0  0  0  0  0  0  0  0  0  0  0  0
  -10.5320   -3.8056  -24.2044 H   0  0  0  0  0  0  0  0  0  0  0  0
   -9.0468   -2.1811  -22.9514 H   0  0  0  0  0  0  0  0  0  0  0  0
   -8.3206   -2.7940  -24.4456 H   0  0  0  0  0  0  0  0  0  0  0  0
  1  2  2  0
  2  3  1  0
  3  4  1  0
  4  5  2  0
  5  6  1  0
  6  7  2  0
  7  8  1  0
  8  9  2  0
  9 10  1  0
 10 11  2  0
 11 12  1  0
 12 13  2  0
 12 14  1  0
 11 15  1  0
 10 16  1  0
  9 17  1  0
  7 18  1  0
  5 19  1  0
  3 20  1  0
  3 21  1  0
  2 22  1  0
 22 23  1  0
 23 24  1  0
 24 25  1  0
 25 26  1  0
 26 27  1  0
 27 28  1  0
 28 29  1  0
 29 30  2  0
 30 31  1  0
 31 32  2  0
 32 33  1  0
 33 34  2  0
 34 35  1  0
 33 36  1  0
 32 37  1  0
 31 38  1  0
 30 39  1  0
 28 40  1  0
 28 41  1  0
 27 42  1  1
 26 43  1  0
 26 44  1  0
 25 45  1  0
 25 46  1  0
 24 47  1  0
 24 48  1  0
 23 49  1  0
 23 50  1  0
 13  4  1  0
 27 22  1  0
 34 29  1  0
 13  8  1  0
M  END
>  <cnnaffinities>  (71) 
[5.55558, 5.50374]

>  <score>  (71) 
5.55558

>  <index>  (71) 
73

>  <Smiles>  (71) 
O=C(C(c1c(nc(c2c(c(c(c(c12)[H])[H])[H])[H])[H])[H])([H])[H])N1C(C(C(C([C@]1(C(c1c(c(c(c(c1[H])[H])[H])[H])[H])([H])[H])[H])([H])[H])([H])[H])([H])[H])([H])[H]

>  <h>  (71) 
<NA>

>  <Training>  (71) 
True

>  <Success>  (71) 
True

>  <enamine_searched>  (71) 
False

>  <enamine_id>  (71) 
nan

$$$$

     RDKit          3D

 43 47  0  0  0  0  0  0  0  0999 V2000
   -9.4254   -0.4524  -20.9879 O   0  0  0  0  0  0  0  0  0  0  0  0
   -8.7445   -1.3652  -21.3796 C   0  0  0  0  0  0  0  0  0  0  0  0
   -9.1364   -2.4525  -22.1138 N   0  0  0  0  0  0  0  0  0  0  0  0
   -8.0396   -3.1472  -22.7409 C   0  0  1  0  0  0  0  0  0  0  0  0
   -8.1046   -4.6896  -22.7170 C   0  0  0  0  0  0  0  0  0  0  0  0
   -8.2238   -4.7227  -24.2750 C   0  0  2  0  0  0  0  0  0  0  0  0
   -7.1765   -5.5228  -24.9863 C   0  0  0  0  0  0  0  0  0  0  0  0
   -5.8204   -5.2780  -24.7414 C   0  0  0  0  0  0  0  0  0  0  0  0
   -4.8311   -6.0113  -25.3853 C   0  0  0  0  0  0  0  0  0  0  0  0
   -5.1809   -7.0132  -26.2892 C   0  0  0  0  0  0  0  0  0  0  0  0
   -6.5207   -7.2776  -26.5434 C   0  0  0  0  0  0  0  0  0  0  0  0
   -7.4983   -6.5347  -25.8920 C   0  0  0  0  0  0  0  0  0  0  0  0
   -9.1682   -6.9172  -26.2448 Cl  0  0  0  0  0  0  0  0  0  0  0  0
   -6.8267   -8.0520  -27.2417 H   0  0  0  0  0  0  0  0  0  0  0  0
   -4.4113   -7.5879  -26.7970 H   0  0  0  0  0  0  0  0  0  0  0  0
   -3.7866   -5.7967  -25.1799 H   0  0  0  0  0  0  0  0  0  0  0  0
   -5.5480   -4.4959  -24.0298 H   0  0  0  0  0  0  0  0  0  0  0  0
   -8.0350   -3.1706  -24.2986 C   0  0  0  0  0  0  0  0  0  0  0  0
   -8.8570   -2.6043  -24.7515 H   0  0  0  0  0  0  0  0  0  0  0  0
   -7.0981   -2.8277  -24.7564 H   0  0  0  0  0  0  0  0  0  0  0  0
   -9.2251   -5.0182  -24.6021 H   0  0  0  0  0  0  0  0  0  0  0  0
   -8.9691   -5.0649  -22.1631 H   0  0  0  0  0  0  0  0  0  0  0  0
   -7.1939   -5.1500  -22.3157 H   0  0  0  0  0  0  0  0  0  0  0  0
   -6.8400   -2.5169  -22.0521 C   0  0  0  0  0  0  0  0  0  0  0  0
   -5.6784   -2.8089  -22.2253 O   0  0  0  0  0  0  0  0  0  0  0  0
   -7.3404   -1.5176  -21.2059 N   0  0  0  0  0  0  0  0  0  0  0  0
   -6.5847   -0.8587  -20.1876 C   0  0  0  0  0  0  0  0  0  0  0  0
   -6.9102   -1.0600  -18.8683 C   0  0  0  0  0  0  0  0  0  0  0  0
   -6.2169   -0.5457  -17.8240 N   0  0  0  0  0  0  0  0  0  0  0  0
   -5.1798    0.2068  -18.0956 C   0  0  0  0  0  0  0  0  0  0  0  0
   -4.7469    0.5237  -19.4108 C   0  0  0  0  0  0  0  0  0  0  0  0
   -3.6173    1.3566  -19.6372 C   0  0  0  0  0  0  0  0  0  0  0  0
   -3.2268    1.6591  -20.9109 C   0  0  0  0  0  0  0  0  0  0  0  0
   -3.9564    1.1448  -22.0069 C   0  0  0  0  0  0  0  0  0  0  0  0
   -5.0503    0.3373  -21.8133 C   0  0  0  0  0  0  0  0  0  0  0  0
   -5.4702   -0.0116  -20.4993 C   0  0  0  0  0  0  0  0  0  0  0  0
   -5.5986   -0.0504  -22.6657 H   0  0  0  0  0  0  0  0  0  0  0  0
   -3.6463    1.3957  -23.0155 H   0  0  0  0  0  0  0  0  0  0  0  0
   -2.3688    2.3039  -21.0891 H   0  0  0  0  0  0  0  0  0  0  0  0
   -3.0865    1.7561  -18.7776 H   0  0  0  0  0  0  0  0  0  0  0  0
   -4.6289    0.6092  -17.2467 H   0  0  0  0  0  0  0  0  0  0  0  0
   -7.7573   -1.6853  -18.5989 H   0  0  0  0  0  0  0  0  0  0  0  0
  -10.1006   -2.6048  -22.3660 H   0  0  0  0  0  0  0  0  0  0  0  0
  1  2  2  0
  2  3  1  0
  4  3  1  6
  4  5  1  0
  5  6  1  0
  6  7  1  0
  7  8  2  0
  8  9  1  0
  9 10  2  0
 10 11  1  0
 11 12  2  0
 12 13  1  0
 11 14  1  0
 10 15  1  0
  9 16  1  0
  8 17  1  0
  6 18  1  0
 18 19  1  0
 18 20  1  0
  6 21  1  1
  5 22  1  0
  5 23  1  0
  4 24  1  0
 24 25  2  0
 24 26  1  0
 26 27  1  0
 27 28  2  0
 28 29  1  0
 29 30  2  0
 30 31  1  0
 31 32  2  0
 32 33  1  0
 33 34  2  0
 34 35  1  0
 35 36  2  0
 35 37  1  0
 34 38  1  0
 33 39  1  0
 32 40  1  0
 30 41  1  0
 28 42  1  0
  3 43  1  0
 26  2  1  0
 36 27  1  0
 18  4  1  0
 36 31  1  0
 12  7  1  0
M  END
>  <cnnaffinities>  (72) 
[5.6924]

>  <score>  (72) 
5.6924

>  <index>  (72) 
74

>  <Smiles>  (72) 
O=C1N([C@]2(C([C@](c3c(c(c(c(c3Cl)[H])[H])[H])[H])(C2([H])[H])[H])([H])[H])C(=O)N1c1c(nc(c2c(c(c(c(c12)[H])[H])[H])[H])[H])[H])[H]

>  <h>  (72) 
<NA>

>  <Training>  (72) 
True

>  <Success>  (72) 
True

>  <enamine_searched>  (72) 
False

>  <enamine_id>  (72) 
nan

$$$$

     RDKit          3D

 66 71  0  0  0  0  0  0  0  0999 V2000
   -7.5687    3.3139  -21.8552 C   0  0  0  0  0  0  0  0  0  0  0  0
   -8.6303    2.8670  -22.7429 N   0  0  0  0  0  0  0  0  0  0  0  0
   -8.2384    2.0592  -23.7742 C   0  0  0  0  0  0  0  0  0  0  0  0
   -7.0581    1.8100  -23.9929 O   0  0  0  0  0  0  0  0  0  0  0  0
   -9.3438    1.4855  -24.6534 C   0  0  0  0  0  0  0  0  0  0  0  0
   -9.9060    0.2969  -24.0549 N   0  0  0  0  0  0  0  0  0  0  0  0
   -9.0988   -0.9060  -24.0121 C   0  0  0  0  0  0  0  0  0  0  0  0
   -9.2788   -1.6615  -22.6792 C   0  0  2  0  0  0  0  0  0  0  0  0
   -8.6546   -0.8439  -21.5239 C   0  0  0  0  0  0  0  0  0  0  0  0
   -9.1301    0.1449  -20.9958 O   0  0  0  0  0  0  0  0  0  0  0  0
   -7.4327   -1.3917  -21.2040 N   0  0  0  0  0  0  0  0  0  0  0  0
   -6.6213   -0.8251  -20.1828 C   0  0  0  0  0  0  0  0  0  0  0  0
   -6.9296   -1.0534  -18.8649 C   0  0  0  0  0  0  0  0  0  0  0  0
   -6.2282   -0.5604  -17.8128 N   0  0  0  0  0  0  0  0  0  0  0  0
   -5.1925    0.1964  -18.0853 C   0  0  0  0  0  0  0  0  0  0  0  0
   -4.7585    0.5175  -19.4007 C   0  0  0  0  0  0  0  0  0  0  0  0
   -3.6359    1.3557  -19.6375 C   0  0  0  0  0  0  0  0  0  0  0  0
   -3.2487    1.6560  -20.9131 C   0  0  0  0  0  0  0  0  0  0  0  0
   -3.9683    1.1393  -22.0136 C   0  0  0  0  0  0  0  0  0  0  0  0
   -5.0661    0.3356  -21.8149 C   0  0  0  0  0  0  0  0  0  0  0  0
   -5.4874   -0.0070  -20.4995 C   0  0  0  0  0  0  0  0  0  0  0  0
   -5.6284   -0.0160  -22.6769 H   0  0  0  0  0  0  0  0  0  0  0  0
   -3.6535    1.3828  -23.0253 H   0  0  0  0  0  0  0  0  0  0  0  0
   -2.3912    2.2998  -21.0899 H   0  0  0  0  0  0  0  0  0  0  0  0
   -3.1057    1.7578  -18.7776 H   0  0  0  0  0  0  0  0  0  0  0  0
   -4.6228    0.5936  -17.2428 H   0  0  0  0  0  0  0  0  0  0  0  0
   -7.7938   -1.6656  -18.6111 H   0  0  0  0  0  0  0  0  0  0  0  0
   -7.1085   -2.5817  -21.9736 C   0  0  0  0  0  0  0  0  0  0  0  0
   -8.4448   -2.9691  -22.6282 C   0  0  2  0  0  0  0  0  0  0  0  0
   -8.2496   -3.7512  -23.9296 C   0  0  0  0  0  0  0  0  0  0  0  0
   -9.4913   -4.2327  -24.4853 N   0  0  0  0  0  0  0  0  0  0  0  0
   -9.5806   -4.8921  -25.6819 C   0  0  0  0  0  0  0  0  0  0  0  0
   -8.4471   -5.2099  -26.4760 C   0  0  0  0  0  0  0  0  0  0  0  0
   -8.5680   -5.8386  -27.6365 N   0  0  0  0  0  0  0  0  0  0  0  0
   -9.8034   -6.1717  -28.0311 C   0  0  0  0  0  0  0  0  0  0  0  0
  -10.9064   -5.8667  -27.2516 C   0  0  0  0  0  0  0  0  0  0  0  0
  -10.8072   -5.2328  -26.0833 N   0  0  0  0  0  0  0  0  0  0  0  0
  -11.9162   -6.1333  -27.5638 H   0  0  0  0  0  0  0  0  0  0  0  0
   -9.9126   -6.6899  -28.9815 H   0  0  0  0  0  0  0  0  0  0  0  0
   -7.4329   -4.9487  -26.1622 H   0  0  0  0  0  0  0  0  0  0  0  0
  -10.3801   -4.0369  -24.0410 H   0  0  0  0  0  0  0  0  0  0  0  0
   -7.5949   -4.6118  -23.7403 H   0  0  0  0  0  0  0  0  0  0  0  0
   -7.7232   -3.1300  -24.6699 H   0  0  0  0  0  0  0  0  0  0  0  0
   -8.9509   -3.6460  -21.9397 H   0  0  0  0  0  0  0  0  0  0  0  0
   -6.3427   -2.3649  -22.7350 H   0  0  0  0  0  0  0  0  0  0  0  0
   -6.7278   -3.3743  -21.3180 H   0  0  0  0  0  0  0  0  0  0  0  0
  -10.7687   -1.8452  -22.4762 C   0  0  0  0  0  0  0  0  0  0  0  0
  -11.2718   -2.8979  -21.7087 C   0  0  0  0  0  0  0  0  0  0  0  0
  -12.6248   -2.9764  -21.4357 C   0  0  0  0  0  0  0  0  0  0  0  0
  -13.1860   -4.2862  -20.4383 Cl  0  0  0  0  0  0  0  0  0  0  0  0
  -13.5349   -2.0255  -21.8933 C   0  0  0  0  0  0  0  0  0  0  0  0
  -13.0499   -0.9984  -22.6778 C   0  0  0  0  0  0  0  0  0  0  0  0
  -11.6888   -0.9005  -22.9624 C   0  0  0  0  0  0  0  0  0  0  0  0
  -11.2394    0.2727  -23.7704 C   0  0  0  0  0  0  0  0  0  0  0  0
  -12.0035    1.1568  -24.1352 O   0  0  0  0  0  0  0  0  0  0  0  0
  -13.7143   -0.2359  -23.0675 H   0  0  0  0  0  0  0  0  0  0  0  0
  -14.5738   -2.0846  -21.5809 H   0  0  0  0  0  0  0  0  0  0  0  0
  -10.6332   -3.6392  -21.2358 H   0  0  0  0  0  0  0  0  0  0  0  0
   -8.0581   -0.6131  -24.1589 H   0  0  0  0  0  0  0  0  0  0  0  0
   -9.3860   -1.5678  -24.8377 H   0  0  0  0  0  0  0  0  0  0  0  0
  -10.1640    2.1971  -24.7947 H   0  0  0  0  0  0  0  0  0  0  0  0
   -8.8782    1.2401  -25.6144 H   0  0  0  0  0  0  0  0  0  0  0  0
   -9.5441    2.7305  -22.3243 H   0  0  0  0  0  0  0  0  0  0  0  0
   -7.9534    3.9772  -21.0754 H   0  0  0  0  0  0  0  0  0  0  0  0
   -7.0503    2.4585  -21.3960 H   0  0  0  0  0  0  0  0  0  0  0  0
   -6.8328    3.8589  -22.4467 H   0  0  0  0  0  0  0  0  0  0  0  0
  1  2  1  0
  2  3  1  0
  3  4  2  0
  3  5  1  0
  5  6  1  0
  6  7  1  0
  8  7  1  6
  8  9  1  0
  9 10  2  0
  9 11  1  0
 11 12  1  0
 12 13  2  0
 13 14  1  0
 14 15  2  0
 15 16  1  0
 16 17  2  0
 17 18  1  0
 18 19  2  0
 19 20  1  0
 20 21  2  0
 20 22  1  0
 19 23  1  0
 18 24  1  0
 17 25  1  0
 15 26  1  0
 13 27  1  0
 11 28  1  0
 28 29  1  0
 29 30  1  0
 30 31  1  0
 31 32  1  0
 32 33  2  0
 33 34  1  0
 34 35  2  0
 35 36  1  0
 36 37  2  0
 36 38  1  0
 35 39  1  0
 33 40  1  0
 31 41  1  0
 30 42  1  0
 30 43  1  0
 29 44  1  1
 28 45  1  0
 28 46  1  0
  8 47  1  0
 47 48  2  0
 48 49  1  0
 49 50  1  0
 49 51  2  0
 51 52  1  0
 52 53  2  0
 53 54  1  0
 54 55  2  0
 52 56  1  0
 51 57  1  0
 48 58  1  0
  7 59  1  0
  7 60  1  0
  5 61  1  0
  5 62  1  0
  2 63  1  0
  1 64  1  0
  1 65  1  0
  1 66  1  0
 54  6  1  0
 29  8  1  0
 37 32  1  0
 53 47  1  0
 21 12  1  0
 21 16  1  0
M  END
>  <cnnaffinities>  (73) 
[6.25306, 6.91892]

>  <score>  (73) 
6.25306

>  <index>  (73) 
75

>  <Smiles>  (73) 
C(N(C(=O)C(N1C([C@@]2(C(=O)N(c3c(nc(c4c(c(c(c(c34)[H])[H])[H])[H])[H])[H])C([C@@]2(C(N(c2c(nc(c(n2)[H])[H])[H])[H])([H])[H])[H])([H])[H])c2c(c(Cl)c(c(c2C1=O)[H])[H])[H])([H])[H])([H])[H])[H])([H])([H])[H]

>  <h>  (73) 
<NA>

>  <Training>  (73) 
True

>  <Success>  (73) 
True

>  <enamine_searched>  (73) 
False

>  <enamine_id>  (73) 
nan

$$$$

     RDKit          3D

 66 71  0  0  0  0  0  0  0  0999 V2000
   -8.1950   -3.4708  -24.1019 C   0  0  0  0  0  0  0  0  0  0  0  0
   -8.4667   -2.7351  -22.7825 C   0  0  1  0  0  0  0  0  0  0  0  0
   -7.1833   -2.5244  -21.9489 C   0  0  0  0  0  0  0  0  0  0  0  0
   -7.4549   -1.3164  -21.1909 N   0  0  0  0  0  0  0  0  0  0  0  0
   -6.6162   -0.7941  -20.1674 C   0  0  0  0  0  0  0  0  0  0  0  0
   -6.9154   -1.0384  -18.8530 C   0  0  0  0  0  0  0  0  0  0  0  0
   -6.2040   -0.5565  -17.8040 N   0  0  0  0  0  0  0  0  0  0  0  0
   -5.1721    0.2063  -18.0774 C   0  0  0  0  0  0  0  0  0  0  0  0
   -4.7413    0.5385  -19.3938 C   0  0  0  0  0  0  0  0  0  0  0  0
   -3.6225    1.3822  -19.6411 C   0  0  0  0  0  0  0  0  0  0  0  0
   -3.2398    1.6778  -20.9211 C   0  0  0  0  0  0  0  0  0  0  0  0
   -3.9484    1.1363  -22.0157 C   0  0  0  0  0  0  0  0  0  0  0  0
   -5.0326    0.3148  -21.8033 C   0  0  0  0  0  0  0  0  0  0  0  0
   -5.4741    0.0079  -20.4849 C   0  0  0  0  0  0  0  0  0  0  0  0
   -5.5636   -0.0978  -22.6561 H   0  0  0  0  0  0  0  0  0  0  0  0
   -3.6430    1.3840  -23.0282 H   0  0  0  0  0  0  0  0  0  0  0  0
   -2.3965    2.3414  -21.1015 H   0  0  0  0  0  0  0  0  0  0  0  0
   -3.0948    1.7960  -18.7854 H   0  0  0  0  0  0  0  0  0  0  0  0
   -4.6201    0.6113  -17.2271 H   0  0  0  0  0  0  0  0  0  0  0  0
   -7.7710   -1.6605  -18.5984 H   0  0  0  0  0  0  0  0  0  0  0  0
   -8.5320   -0.5948  -21.6473 C   0  0  0  0  0  0  0  0  0  0  0  0
   -8.9178    0.4506  -21.1568 O   0  0  0  0  0  0  0  0  0  0  0  0
   -9.1330   -1.3225  -22.8747 C   0  0  1  0  0  0  0  0  0  0  0  0
   -8.7133   -0.5879  -24.1703 C   0  0  0  0  0  0  0  0  0  0  0  0
   -9.3134    0.7276  -24.2660 N   0  0  0  0  0  0  0  0  0  0  0  0
   -8.5151    1.7825  -24.8658 C   0  0  0  0  0  0  0  0  0  0  0  0
   -7.5511    2.4163  -23.8732 C   0  0  0  0  0  0  0  0  0  0  0  0
   -8.2793    3.2246  -22.8485 N   0  0  0  0  0  4  0  0  0  0  0  0
   -7.4975    3.3320  -21.5912 C   0  0  0  0  0  0  0  0  0  0  0  0
   -6.3344    4.3060  -21.6403 C   0  0  0  0  0  0  0  0  0  0  0  0
   -6.8014    5.5993  -21.9571 O   0  0  0  0  0  0  0  0  0  0  0  0
   -7.4376    5.5946  -23.2167 C   0  0  0  0  0  0  0  0  0  0  0  0
   -8.6434    4.6479  -23.2607 C   0  0  0  0  0  0  0  0  0  0  0  0
   -9.3993    4.9992  -22.5529 H   0  0  0  0  0  0  0  0  0  0  0  0
   -9.0714    4.6261  -24.2646 H   0  0  0  0  0  0  0  0  0  0  0  0
   -6.7106    5.3082  -23.9898 H   0  0  0  0  0  0  0  0  0  0  0  0
   -7.7618    6.6220  -23.3953 H   0  0  0  0  0  0  0  0  0  0  0  0
   -5.8852    4.3694  -20.6454 H   0  0  0  0  0  0  0  0  0  0  0  0
   -5.5645    3.9729  -22.3582 H   0  0  0  0  0  0  0  0  0  0  0  0
   -7.1651    2.3276  -21.3102 H   0  0  0  0  0  0  0  0  0  0  0  0
   -8.1940    3.7136  -20.8408 H   0  0  0  0  0  0  0  0  0  0  0  0
   -9.1391    2.7009  -22.5871 H   0  0  0  0  0  0  0  0  0  0  0  0
   -6.9905    1.6452  -23.3304 H   0  0  0  0  0  0  0  0  0  0  0  0
   -6.8283    3.0517  -24.3882 H   0  0  0  0  0  0  0  0  0  0  0  0
   -7.9365    1.3730  -25.7007 H   0  0  0  0  0  0  0  0  0  0  0  0
   -9.2123    2.5302  -25.2398 H   0  0  0  0  0  0  0  0  0  0  0  0
  -10.6614    0.8876  -24.1004 C   0  0  0  0  0  0  0  0  0  0  0  0
  -11.2640    1.8919  -24.4638 O   0  0  0  0  0  0  0  0  0  0  0  0
  -11.3665   -0.2356  -23.3911 C   0  0  0  0  0  0  0  0  0  0  0  0
  -12.7552   -0.1728  -23.2887 C   0  0  0  0  0  0  0  0  0  0  0  0
  -13.4447   -1.1139  -22.5503 C   0  0  0  0  0  0  0  0  0  0  0  0
  -12.7270   -2.1119  -21.8916 C   0  0  0  0  0  0  0  0  0  0  0  0
  -13.5804   -3.2465  -20.8859 Cl  0  0  0  0  0  0  0  0  0  0  0  0
  -11.3510   -2.1964  -21.9937 C   0  0  0  0  0  0  0  0  0  0  0  0
  -10.6497   -1.2832  -22.7896 C   0  0  0  0  0  0  0  0  0  0  0  0
  -10.8397   -2.9587  -21.4156 H   0  0  0  0  0  0  0  0  0  0  0  0
  -14.5222   -1.0699  -22.4484 H   0  0  0  0  0  0  0  0  0  0  0  0
  -13.2601    0.6495  -23.7856 H   0  0  0  0  0  0  0  0  0  0  0  0
   -7.6260   -0.4608  -24.1818 H   0  0  0  0  0  0  0  0  0  0  0  0
   -9.0078   -1.2072  -25.0335 H   0  0  0  0  0  0  0  0  0  0  0  0
   -6.9763   -3.3646  -21.2754 H   0  0  0  0  0  0  0  0  0  0  0  0
   -6.3030   -2.4026  -22.5995 H   0  0  0  0  0  0  0  0  0  0  0  0
   -9.1447   -3.3492  -22.1851 H   0  0  0  0  0  0  0  0  0  0  0  0
   -9.1007   -3.5773  -24.7107 H   0  0  0  0  0  0  0  0  0  0  0  0
   -7.4480   -2.9414  -24.7071 H   0  0  0  0  0  0  0  0  0  0  0  0
   -7.8021   -4.4772  -23.9152 H   0  0  0  0  0  0  0  0  0  0  0  0
  1  2  1  0
  2  3  1  0
  3  4  1  0
  4  5  1  0
  5  6  2  0
  6  7  1  0
  7  8  2  0
  8  9  1  0
  9 10  2  0
 10 11  1  0
 11 12  2  0
 12 13  1  0
 13 14  2  0
 13 15  1  0
 12 16  1  0
 11 17  1  0
 10 18  1  0
  8 19  1  0
  6 20  1  0
  4 21  1  0
 21 22  2  0
 21 23  1  0
 23 24  1  6
 24 25  1  0
 25 26  1  0
 26 27  1  0
 27 28  1  0
 28 29  1  0
 29 30  1  0
 30 31  1  0
 31 32  1  0
 32 33  1  0
 33 34  1  0
 33 35  1  0
 32 36  1  0
 32 37  1  0
 30 38  1  0
 30 39  1  0
 29 40  1  0
 29 41  1  0
 28 42  1  0
 27 43  1  0
 27 44  1  0
 26 45  1  0
 26 46  1  0
 25 47  1  0
 47 48  2  0
 47 49  1  0
 49 50  2  0
 50 51  1  0
 51 52  2  0
 52 53  1  0
 52 54  1  0
 54 55  2  0
 54 56  1  0
 51 57  1  0
 50 58  1  0
 24 59  1  0
 24 60  1  0
  3 61  1  0
  3 62  1  0
  2 63  1  1
  1 64  1  0
  1 65  1  0
  1 66  1  0
 23  2  1  0
 33 28  1  0
 55 49  1  0
 14  5  1  0
 55 23  1  0
 14  9  1  0
M  CHG  1  28   1
M  END
>  <cnnaffinities>  (74) 
[6.34594, 6.43053, 6.57423]

>  <score>  (74) 
6.34594

>  <index>  (74) 
76

>  <Smiles>  (74) 
C([C@]1(C(N(c2c(nc(c3c(c(c(c(c23)[H])[H])[H])[H])[H])[H])C(=O)[C@]21C(N(C(C([N+]1(C(C(OC(C1([H])[H])([H])[H])([H])[H])([H])[H])[H])([H])[H])([H])[H])C(=O)c1c(c(c(Cl)c(c21)[H])[H])[H])([H])[H])([H])[H])[H])([H])([H])[H]

>  <h>  (74) 
<NA>

>  <Training>  (74) 
True

>  <Success>  (74) 
True

>  <enamine_searched>  (74) 
False

>  <enamine_id>  (74) 
nan

$$$$

     RDKit          3D

 55 60  0  0  0  0  0  0  0  0999 V2000
  -10.4215   -1.0029  -23.4380 C   0  0  0  0  0  0  0  0  0  0  0  0
   -8.9793   -1.3117  -23.0325 C   0  0  1  0  0  0  0  0  0  0  0  0
   -8.4410   -0.4218  -21.8913 C   0  0  0  0  0  0  0  0  0  0  0  0
   -7.4203   -1.2536  -21.2750 N   0  0  0  0  0  0  0  0  0  0  0  0
   -6.6147   -0.8122  -20.2007 C   0  0  0  0  0  0  0  0  0  0  0  0
   -6.9155   -1.1331  -18.9034 C   0  0  0  0  0  0  0  0  0  0  0  0
   -6.2638   -0.6145  -17.8306 N   0  0  0  0  0  0  0  0  0  0  0  0
   -5.2610    0.2005  -18.0636 C   0  0  0  0  0  0  0  0  0  0  0  0
   -4.7934    0.5423  -19.3683 C   0  0  0  0  0  0  0  0  0  0  0  0
   -3.6675    1.3750  -19.6008 C   0  0  0  0  0  0  0  0  0  0  0  0
   -3.2458    1.6308  -20.8776 C   0  0  0  0  0  0  0  0  0  0  0  0
   -3.9263    1.0812  -21.9873 C   0  0  0  0  0  0  0  0  0  0  0  0
   -5.0263    0.2866  -21.7905 C   0  0  0  0  0  0  0  0  0  0  0  0
   -5.4847    0.0113  -20.4765 C   0  0  0  0  0  0  0  0  0  0  0  0
   -5.5487   -0.1576  -22.6313 H   0  0  0  0  0  0  0  0  0  0  0  0
   -3.5778    1.2889  -22.9952 H   0  0  0  0  0  0  0  0  0  0  0  0
   -2.3790    2.2615  -21.0525 H   0  0  0  0  0  0  0  0  0  0  0  0
   -3.1466    1.7955  -18.7453 H   0  0  0  0  0  0  0  0  0  0  0  0
   -4.7525    0.6223  -17.1949 H   0  0  0  0  0  0  0  0  0  0  0  0
   -7.7282   -1.8235  -18.6809 H   0  0  0  0  0  0  0  0  0  0  0  0
   -7.5428   -2.5906  -21.5597 C   0  0  0  0  0  0  0  0  0  0  0  0
   -6.8403   -3.4585  -21.0764 O   0  0  0  0  0  0  0  0  0  0  0  0
   -8.7270   -2.7816  -22.5170 C   0  0  1  0  0  0  0  0  0  0  0  0
   -9.8955   -3.2808  -21.6187 C   0  0  0  0  0  0  0  0  0  0  0  0
  -11.0139   -3.8585  -22.3554 N   0  0  0  0  0  0  0  0  0  0  0  0
  -12.3637   -3.8664  -21.7899 C   0  0  0  0  0  0  0  0  0  0  0  0
  -13.1929   -2.7103  -22.2561 C   0  0  0  0  0  0  0  0  0  0  0  0
  -13.5053   -2.4131  -23.5377 C   0  0  0  0  0  0  0  0  0  0  0  0
  -14.3254   -1.3234  -23.5422 O   0  0  0  0  0  0  0  0  0  0  0  0
  -14.4488   -1.0117  -22.2403 C   0  0  0  0  0  0  0  0  0  0  0  0
  -13.8116   -1.7905  -21.4301 N   0  0  0  0  0  0  0  0  0  0  0  0
  -15.0577   -0.1510  -22.0083 H   0  0  0  0  0  0  0  0  0  0  0  0
  -13.2738   -2.8770  -24.4795 H   0  0  0  0  0  0  0  0  0  0  0  0
  -12.3597   -3.9031  -20.6987 H   0  0  0  0  0  0  0  0  0  0  0  0
  -12.8402   -4.7849  -22.1466 H   0  0  0  0  0  0  0  0  0  0  0  0
  -10.8687   -4.4931  -23.5599 C   0  0  0  0  0  0  0  0  0  0  0  0
  -11.8291   -4.9645  -24.1628 O   0  0  0  0  0  0  0  0  0  0  0  0
   -9.4785   -4.6167  -24.0831 C   0  0  0  0  0  0  0  0  0  0  0  0
   -9.2534   -5.5769  -25.0698 C   0  0  0  0  0  0  0  0  0  0  0  0
   -7.9804   -5.8593  -25.5151 C   0  0  0  0  0  0  0  0  0  0  0  0
   -6.9490   -5.0934  -24.9876 C   0  0  0  0  0  0  0  0  0  0  0  0
   -5.7038   -5.3607  -25.4105 F   0  0  0  0  0  0  0  0  0  0  0  0
   -7.1407   -4.0988  -24.0439 C   0  0  0  0  0  0  0  0  0  0  0  0
   -8.4358   -3.8380  -23.5673 C   0  0  0  0  0  0  0  0  0  0  0  0
   -6.2719   -3.5510  -23.6931 H   0  0  0  0  0  0  0  0  0  0  0  0
   -7.7821   -6.6325  -26.2556 H   0  0  0  0  0  0  0  0  0  0  0  0
  -10.1085   -6.1182  -25.4546 H   0  0  0  0  0  0  0  0  0  0  0  0
  -10.2515   -2.4367  -21.0156 H   0  0  0  0  0  0  0  0  0  0  0  0
   -9.4771   -4.0171  -20.9275 H   0  0  0  0  0  0  0  0  0  0  0  0
   -9.2258   -0.1729  -21.1567 H   0  0  0  0  0  0  0  0  0  0  0  0
   -7.9997    0.5187  -22.2423 H   0  0  0  0  0  0  0  0  0  0  0  0
   -8.3277   -1.1636  -23.9060 H   0  0  0  0  0  0  0  0  0  0  0  0
  -10.5093   -0.0018  -23.8720 H   0  0  0  0  0  0  0  0  0  0  0  0
  -10.7653   -1.7310  -24.1829 H   0  0  0  0  0  0  0  0  0  0  0  0
  -11.1093   -1.0623  -22.5841 H   0  0  0  0  0  0  0  0  0  0  0  0
  1  2  1  0
  2  3  1  0
  3  4  1  0
  4  5  1  0
  5  6  2  0
  6  7  1  0
  7  8  2  0
  8  9  1  0
  9 10  2  0
 10 11  1  0
 11 12  2  0
 12 13  1  0
 13 14  2  0
 13 15  1  0
 12 16  1  0
 11 17  1  0
 10 18  1  0
  8 19  1  0
  6 20  1  0
  4 21  1  0
 21 22  2  0
 21 23  1  0
 23 24  1  1
 24 25  1  0
 25 26  1  0
 26 27  1  0
 27 28  2  0
 28 29  1  0
 29 30  1  0
 30 31  2  0
 30 32  1  0
 28 33  1  0
 26 34  1  0
 26 35  1  0
 25 36  1  0
 36 37  2  0
 36 38  1  0
 38 39  2  0
 39 40  1  0
 40 41  2  0
 41 42  1  0
 41 43  1  0
 43 44  2  0
 43 45  1  0
 40 46  1  0
 39 47  1  0
 24 48  1  0
 24 49  1  0
  3 50  1  0
  3 51  1  0
  2 52  1  6
  1 53  1  0
  1 54  1  0
  1 55  1  0
 23  2  1  0
 31 27  1  0
 44 38  1  0
 14  5  1  0
 44 23  1  0
 14  9  1  0
M  END
>  <cnnaffinities>  (75) 
[6.48677]

>  <score>  (75) 
6.48677

>  <index>  (75) 
77

>  <Smiles>  (75) 
C([C@]1(C(N(c2c(nc(c3c(c(c(c(c23)[H])[H])[H])[H])[H])[H])C(=O)[C@]21C(N(C(c1c(oc(n1)[H])[H])([H])[H])C(=O)c1c(c(c(F)c(c21)[H])[H])[H])([H])[H])([H])[H])[H])([H])([H])[H]

>  <h>  (75) 
<NA>

>  <Training>  (75) 
True

>  <Success>  (75) 
True

>  <enamine_searched>  (75) 
False

>  <enamine_id>  (75) 
nan

$$$$

     RDKit          3D

 56 60  0  0  0  0  0  0  0  0999 V2000
  -14.4609   -1.6597  -23.7316 C   0  0  0  0  0  0  0  0  0  0  0  0
  -13.7781   -2.8475  -23.2666 N   0  0  0  0  0  0  0  0  0  0  0  0
  -13.3343   -2.8459  -21.9874 C   0  0  0  0  0  0  0  0  0  0  0  0
  -13.6598   -1.9876  -21.1838 O   0  0  0  0  0  0  0  0  0  0  0  0
  -12.4167   -4.0167  -21.6624 C   0  0  0  0  0  0  0  0  0  0  0  0
  -11.1069   -3.9046  -22.2873 N   0  0  0  0  0  0  0  0  0  0  0  0
   -9.9849   -3.4093  -21.4961 C   0  0  0  0  0  0  0  0  0  0  0  0
   -8.7886   -2.9252  -22.3460 C   0  0  2  0  0  0  0  0  0  0  0  0
   -7.5671   -2.7064  -21.4401 C   0  0  0  0  0  0  0  0  0  0  0  0
   -6.8218   -3.5600  -20.9992 O   0  0  0  0  0  0  0  0  0  0  0  0
   -7.4024   -1.3540  -21.2325 N   0  0  0  0  0  0  0  0  0  0  0  0
   -6.5874   -0.8563  -20.1892 C   0  0  0  0  0  0  0  0  0  0  0  0
   -6.9028   -1.1017  -18.8768 C   0  0  0  0  0  0  0  0  0  0  0  0
   -6.2359   -0.5734  -17.8196 N   0  0  0  0  0  0  0  0  0  0  0  0
   -5.2114    0.2043  -18.0825 C   0  0  0  0  0  0  0  0  0  0  0  0
   -4.7614    0.5138  -19.3987 C   0  0  0  0  0  0  0  0  0  0  0  0
   -3.6343    1.3418  -19.6313 C   0  0  0  0  0  0  0  0  0  0  0  0
   -3.2254    1.6073  -20.9103 C   0  0  0  0  0  0  0  0  0  0  0  0
   -3.9236    1.0647  -22.0116 C   0  0  0  0  0  0  0  0  0  0  0  0
   -5.0213    0.2640  -21.8142 C   0  0  0  0  0  0  0  0  0  0  0  0
   -5.4664   -0.0253  -20.4952 C   0  0  0  0  0  0  0  0  0  0  0  0
   -5.5472   -0.1604  -22.6634 H   0  0  0  0  0  0  0  0  0  0  0  0
   -3.5902    1.2902  -23.0207 H   0  0  0  0  0  0  0  0  0  0  0  0
   -2.3665    2.2477  -21.0861 H   0  0  0  0  0  0  0  0  0  0  0  0
   -3.1180    1.7620  -18.7734 H   0  0  0  0  0  0  0  0  0  0  0  0
   -4.6725    0.6291  -17.2343 H   0  0  0  0  0  0  0  0  0  0  0  0
   -7.7456   -1.7441  -18.6294 H   0  0  0  0  0  0  0  0  0  0  0  0
   -8.3974   -0.5335  -21.9004 C   0  0  0  0  0  0  0  0  0  0  0  0
   -9.0148   -1.4884  -22.9308 C   0  0  2  0  0  0  0  0  0  0  0  0
  -10.4615   -1.1572  -23.2714 C   0  0  0  0  0  0  0  0  0  0  0  0
  -11.0772   -1.1360  -22.3641 H   0  0  0  0  0  0  0  0  0  0  0  0
  -10.5457   -0.1894  -23.7717 H   0  0  0  0  0  0  0  0  0  0  0  0
  -10.8713   -1.9273  -23.9311 H   0  0  0  0  0  0  0  0  0  0  0  0
   -8.4074   -1.4444  -23.8455 H   0  0  0  0  0  0  0  0  0  0  0  0
   -7.9330    0.3404  -22.3712 H   0  0  0  0  0  0  0  0  0  0  0  0
   -9.1509   -0.1652  -21.1863 H   0  0  0  0  0  0  0  0  0  0  0  0
   -8.5110   -3.9518  -23.4104 C   0  0  0  0  0  0  0  0  0  0  0  0
   -7.2299   -4.0856  -23.9488 C   0  0  0  0  0  0  0  0  0  0  0  0
   -6.9993   -5.0157  -24.9443 C   0  0  0  0  0  0  0  0  0  0  0  0
   -5.4168   -5.1260  -25.6460 Cl  0  0  0  0  0  0  0  0  0  0  0  0
   -8.0061   -5.8584  -25.4096 C   0  0  0  0  0  0  0  0  0  0  0  0
   -9.2821   -5.6869  -24.9090 C   0  0  0  0  0  0  0  0  0  0  0  0
   -9.5459   -4.7196  -23.9456 C   0  0  0  0  0  0  0  0  0  0  0  0
  -10.9484   -4.5250  -23.4865 C   0  0  0  0  0  0  0  0  0  0  0  0
  -11.9185   -4.8848  -24.1621 O   0  0  0  0  0  0  0  0  0  0  0  0
  -10.1069   -6.2915  -25.2607 H   0  0  0  0  0  0  0  0  0  0  0  0
   -7.7902   -6.6237  -26.1485 H   0  0  0  0  0  0  0  0  0  0  0  0
   -6.4091   -3.4806  -23.5815 H   0  0  0  0  0  0  0  0  0  0  0  0
   -9.6612   -4.2056  -20.8235 H   0  0  0  0  0  0  0  0  0  0  0  0
  -10.3257   -2.5568  -20.9030 H   0  0  0  0  0  0  0  0  0  0  0  0
  -12.8842   -4.8998  -22.0953 H   0  0  0  0  0  0  0  0  0  0  0  0
  -12.3349   -4.1378  -20.5827 H   0  0  0  0  0  0  0  0  0  0  0  0
  -13.3859   -3.5373  -23.9041 H   0  0  0  0  0  0  0  0  0  0  0  0
  -13.7965   -0.7839  -23.7002 H   0  0  0  0  0  0  0  0  0  0  0  0
  -14.8104   -1.8076  -24.7533 H   0  0  0  0  0  0  0  0  0  0  0  0
  -15.3158   -1.4540  -23.0815 H   0  0  0  0  0  0  0  0  0  0  0  0
  1  2  1  0
  2  3  1  0
  3  4  2  0
  3  5  1  0
  5  6  1  0
  6  7  1  0
  8  7  1  1
  8  9  1  0
  9 10  2  0
  9 11  1  0
 11 12  1  0
 12 13  2  0
 13 14  1  0
 14 15  2  0
 15 16  1  0
 16 17  2  0
 17 18  1  0
 18 19  2  0
 19 20  1  0
 20 21  2  0
 20 22  1  0
 19 23  1  0
 18 24  1  0
 17 25  1  0
 15 26  1  0
 13 27  1  0
 11 28  1  0
 28 29  1  0
 29 30  1  0
 30 31  1  0
 30 32  1  0
 30 33  1  0
 29 34  1  6
 28 35  1  0
 28 36  1  0
  8 37  1  0
 37 38  2  0
 38 39  1  0
 39 40  1  0
 39 41  2  0
 41 42  1  0
 42 43  2  0
 43 44  1  0
 44 45  2  0
 42 46  1  0
 41 47  1  0
 38 48  1  0
  7 49  1  0
  7 50  1  0
  5 51  1  0
  5 52  1  0
  2 53  1  0
  1 54  1  0
  1 55  1  0
  1 56  1  0
 44  6  1  0
 29  8  1  0
 43 37  1  0
 21 12  1  0
 21 16  1  0
M  END
>  <cnnaffinities>  (76) 
[6.32869]

>  <score>  (76) 
6.32869

>  <index>  (76) 
78

>  <Smiles>  (76) 
C(N(C(=O)C(N1C([C@@]2(C(=O)N(c3c(nc(c4c(c(c(c(c34)[H])[H])[H])[H])[H])[H])C([C@@]2(C([H])([H])[H])[H])([H])[H])c2c(c(Cl)c(c(c2C1=O)[H])[H])[H])([H])[H])([H])[H])[H])([H])([H])[H]

>  <h>  (76) 
<NA>

>  <Training>  (76) 
True

>  <Success>  (76) 
True

>  <enamine_searched>  (76) 
False

>  <enamine_id>  (76) 
nan

$$$$

     RDKit          3D

 45 49  0  0  0  0  0  0  0  0999 V2000
  -10.5757   -2.6914  -22.4841 C   0  0  0  0  0  0  0  0  0  0  0  0
   -9.1798   -2.4380  -22.1678 N   0  0  0  0  0  0  0  0  0  0  0  0
   -8.7666   -1.3782  -21.3979 C   0  0  0  0  0  0  0  0  0  0  0  0
   -9.4398   -0.4596  -20.9954 O   0  0  0  0  0  0  0  0  0  0  0  0
   -7.3702   -1.5367  -21.2122 N   0  0  0  0  0  0  0  0  0  0  0  0
   -6.6000   -0.8668  -20.2004 C   0  0  0  0  0  0  0  0  0  0  0  0
   -6.9118   -1.0623  -18.8769 C   0  0  0  0  0  0  0  0  0  0  0  0
   -6.2170   -0.5473  -17.8298 N   0  0  0  0  0  0  0  0  0  0  0  0
   -5.1804    0.2066  -18.0958 C   0  0  0  0  0  0  0  0  0  0  0  0
   -4.7494    0.5220  -19.4131 C   0  0  0  0  0  0  0  0  0  0  0  0
   -3.6175    1.3573  -19.6372 C   0  0  0  0  0  0  0  0  0  0  0  0
   -3.2256    1.6613  -20.9104 C   0  0  0  0  0  0  0  0  0  0  0  0
   -3.9555    1.1470  -22.0056 C   0  0  0  0  0  0  0  0  0  0  0  0
   -5.0500    0.3401  -21.8124 C   0  0  0  0  0  0  0  0  0  0  0  0
   -5.4779   -0.0146  -20.5026 C   0  0  0  0  0  0  0  0  0  0  0  0
   -5.5965   -0.0454  -22.6657 H   0  0  0  0  0  0  0  0  0  0  0  0
   -3.6465    1.3969  -23.0153 H   0  0  0  0  0  0  0  0  0  0  0  0
   -2.3679    2.3061  -21.0891 H   0  0  0  0  0  0  0  0  0  0  0  0
   -3.0850    1.7577  -18.7771 H   0  0  0  0  0  0  0  0  0  0  0  0
   -4.6281    0.6095  -17.2449 H   0  0  0  0  0  0  0  0  0  0  0  0
   -7.7578   -1.6841  -18.6002 H   0  0  0  0  0  0  0  0  0  0  0  0
   -6.8746   -2.5232  -22.0642 C   0  0  0  0  0  0  0  0  0  0  0  0
   -5.7135   -2.8132  -22.2261 O   0  0  0  0  0  0  0  0  0  0  0  0
   -8.0773   -3.1415  -22.7657 C   0  0  0  0  0  0  0  0  0  0  0  0
   -8.0049   -3.2028  -24.3149 C   0  0  0  0  0  0  0  0  0  0  0  0
   -7.9753   -4.6874  -24.2757 N   0  0  0  0  0  0  0  0  0  0  0  0
   -9.2474   -5.4953  -25.0489 S   0  0  0  0  0  0  0  0  0  0  0  0
   -9.0403   -6.9055  -24.8079 O   0  0  0  0  0  0  0  0  0  0  0  0
  -10.4948   -4.8444  -24.6602 O   0  0  0  0  0  0  0  0  0  0  0  0
   -9.0200   -5.2295  -26.7874 C   0  0  0  0  0  0  0  0  0  0  0  0
   -8.0935   -6.1551  -27.5249 C   0  0  0  0  0  0  0  0  0  0  0  0
   -9.5760   -6.3012  -27.6994 C   0  0  0  0  0  0  0  0  0  0  0  0
  -10.0330   -5.9753  -28.6322 H   0  0  0  0  0  0  0  0  0  0  0  0
  -10.0725   -7.1467  -27.2227 H   0  0  0  0  0  0  0  0  0  0  0  0
   -7.5725   -6.9037  -26.9292 H   0  0  0  0  0  0  0  0  0  0  0  0
   -7.5145   -5.7256  -28.3397 H   0  0  0  0  0  0  0  0  0  0  0  0
   -9.1108   -4.1825  -27.0660 H   0  0  0  0  0  0  0  0  0  0  0  0
   -8.0853   -4.6830  -22.7750 C   0  0  0  0  0  0  0  0  0  0  0  0
   -7.2027   -5.1222  -22.3108 H   0  0  0  0  0  0  0  0  0  0  0  0
   -8.9946   -5.1353  -22.3692 H   0  0  0  0  0  0  0  0  0  0  0  0
   -7.0756   -2.8179  -24.7332 H   0  0  0  0  0  0  0  0  0  0  0  0
   -8.8649   -2.7686  -24.8369 H   0  0  0  0  0  0  0  0  0  0  0  0
  -10.7791   -2.5102  -23.5464 H   0  0  0  0  0  0  0  0  0  0  0  0
  -10.8542   -3.7268  -22.2466 H   0  0  0  0  0  0  0  0  0  0  0  0
  -11.1605   -2.0021  -21.8748 H   0  0  0  0  0  0  0  0  0  0  0  0
  1  2  1  0
  2  3  1  0
  3  4  2  0
  3  5  1  0
  5  6  1  0
  6  7  2  0
  7  8  1  0
  8  9  2  0
  9 10  1  0
 10 11  2  0
 11 12  1  0
 12 13  2  0
 13 14  1  0
 14 15  2  0
 14 16  1  0
 13 17  1  0
 12 18  1  0
 11 19  1  0
  9 20  1  0
  7 21  1  0
  5 22  1  0
 22 23  2  0
 22 24  1  0
 24 25  1  0
 25 26  1  0
 26 27  1  0
 27 28  2  0
 27 29  2  0
 27 30  1  0
 30 31  1  0
 31 32  1  0
 32 33  1  0
 32 34  1  0
 31 35  1  0
 31 36  1  0
 30 37  1  0
 26 38  1  0
 38 39  1  0
 38 40  1  0
 25 41  1  0
 25 42  1  0
  1 43  1  0
  1 44  1  0
  1 45  1  0
 24  2  1  0
 32 30  1  0
 15  6  1  0
 38 24  1  0
 15 10  1  0
M  END
>  <cnnaffinities>  (77) 
[5.14898, 5.15872, 5.11868, 5.15011, 5.33846, 5.80654, 5.14818, 5.13499]

>  <score>  (77) 
5.14898

>  <index>  (77) 
79

>  <Smiles>  (77) 
C(N1C(=O)N(c2c(nc(c3c(c(c(c(c23)[H])[H])[H])[H])[H])[H])C(=O)C21C(N(S(=O)(=O)C1(C(C1([H])[H])([H])[H])[H])C2([H])[H])([H])[H])([H])([H])[H]

>  <h>  (77) 
<NA>

>  <Training>  (77) 
True

>  <Success>  (77) 
True

>  <enamine_searched>  (77) 
False

>  <enamine_id>  (77) 
nan

$$$$

     RDKit          3D

 60 65  0  0  0  0  0  0  0  0999 V2000
   -8.7882   -8.0210  -25.8164 C   0  0  0  0  0  0  0  0  0  0  0  0
   -8.1336   -6.9817  -25.0509 N   0  0  0  0  0  0  0  0  0  0  0  0
   -7.3710   -7.2483  -23.9648 C   0  0  0  0  0  0  0  0  0  0  0  0
   -7.3857   -8.3040  -23.3553 O   0  0  0  0  0  0  0  0  0  0  0  0
   -6.5194   -6.0868  -23.4886 C   0  0  0  0  0  0  0  0  0  0  0  0
   -6.8678   -4.7833  -23.9525 N   0  0  0  0  0  0  0  0  0  0  0  0
   -8.0378   -4.1790  -23.3613 C   0  0  0  0  0  0  0  0  0  0  0  0
   -7.8459   -2.6700  -23.1660 C   0  0  2  0  0  0  0  0  0  0  0  0
   -6.8367   -2.4068  -22.0338 C   0  0  0  0  0  0  0  0  0  0  0  0
   -5.7482   -2.9243  -21.8833 O   0  0  0  0  0  0  0  0  0  0  0  0
   -7.3555   -1.4557  -21.1969 N   0  0  0  0  0  0  0  0  0  0  0  0
   -6.5755   -0.8520  -20.1831 C   0  0  0  0  0  0  0  0  0  0  0  0
   -6.9131   -1.0514  -18.8705 C   0  0  0  0  0  0  0  0  0  0  0  0
   -6.2304   -0.5436  -17.8157 N   0  0  0  0  0  0  0  0  0  0  0  0
   -5.1873    0.2052  -18.0880 C   0  0  0  0  0  0  0  0  0  0  0  0
   -4.7439    0.5113  -19.4068 C   0  0  0  0  0  0  0  0  0  0  0  0
   -3.6229    1.3509  -19.6363 C   0  0  0  0  0  0  0  0  0  0  0  0
   -3.2348    1.6606  -20.9086 C   0  0  0  0  0  0  0  0  0  0  0  0
   -3.9530    1.1486  -22.0167 C   0  0  0  0  0  0  0  0  0  0  0  0
   -5.0402    0.3326  -21.8278 C   0  0  0  0  0  0  0  0  0  0  0  0
   -5.4549   -0.0218  -20.5064 C   0  0  0  0  0  0  0  0  0  0  0  0
   -5.5907   -0.0378  -22.6960 H   0  0  0  0  0  0  0  0  0  0  0  0
   -3.6398    1.4147  -23.0226 H   0  0  0  0  0  0  0  0  0  0  0  0
   -2.3785    2.3070  -21.0824 H   0  0  0  0  0  0  0  0  0  0  0  0
   -3.0977    1.7539  -18.7735 H   0  0  0  0  0  0  0  0  0  0  0  0
   -4.6332    0.6203  -17.2447 H   0  0  0  0  0  0  0  0  0  0  0  0
   -7.7701   -1.6818  -18.6315 H   0  0  0  0  0  0  0  0  0  0  0  0
   -8.6729   -0.9933  -21.5592 C   0  0  0  0  0  0  0  0  0  0  0  0
   -9.1408   -1.9628  -22.6644 C   0  0  2  0  0  0  0  0  0  0  0  0
  -10.2520   -2.8789  -22.1249 C   0  0  0  0  0  0  0  0  0  0  0  0
  -11.0967   -2.2773  -21.7670 H   0  0  0  0  0  0  0  0  0  0  0  0
  -10.6432   -3.5467  -22.8990 H   0  0  0  0  0  0  0  0  0  0  0  0
   -9.9026   -3.4888  -21.2835 H   0  0  0  0  0  0  0  0  0  0  0  0
   -9.5831   -1.4156  -23.5018 H   0  0  0  0  0  0  0  0  0  0  0  0
   -9.3365   -1.0319  -20.6982 H   0  0  0  0  0  0  0  0  0  0  0  0
   -8.6389    0.0508  -21.8939 H   0  0  0  0  0  0  0  0  0  0  0  0
   -7.3049   -2.0774  -24.4637 C   0  0  0  0  0  0  0  0  0  0  0  0
   -7.4594   -0.7154  -24.7492 C   0  0  0  0  0  0  0  0  0  0  0  0
   -6.9272   -0.1842  -25.9134 C   0  0  0  0  0  0  0  0  0  0  0  0
   -7.1241    1.5215  -26.2367 Cl  0  0  0  0  0  0  0  0  0  0  0  0
   -6.2300   -0.9742  -26.8273 C   0  0  0  0  0  0  0  0  0  0  0  0
   -6.0493   -2.3112  -26.5405 C   0  0  0  0  0  0  0  0  0  0  0  0
   -6.5630   -2.8512  -25.3632 C   0  0  0  0  0  0  0  0  0  0  0  0
   -6.2545   -4.2779  -25.0764 C   0  0  0  0  0  0  0  0  0  0  0  0
   -5.5024   -4.9523  -25.7634 O   0  0  0  0  0  0  0  0  0  0  0  0
   -5.4932   -2.9683  -27.2021 H   0  0  0  0  0  0  0  0  0  0  0  0
   -5.8221   -0.5265  -27.7250 H   0  0  0  0  0  0  0  0  0  0  0  0
   -7.9937   -0.0570  -24.0708 H   0  0  0  0  0  0  0  0  0  0  0  0
   -8.2235   -4.6617  -22.4007 H   0  0  0  0  0  0  0  0  0  0  0  0
   -8.9117   -4.3327  -24.0084 H   0  0  0  0  0  0  0  0  0  0  0  0
   -6.1312   -6.2374  -22.0467 C   0  0  0  0  0  0  0  0  0  0  0  0
   -5.0853   -6.3445  -23.1101 C   0  0  0  0  0  0  0  0  0  0  0  0
   -4.6789   -7.3177  -23.3716 H   0  0  0  0  0  0  0  0  0  0  0  0
   -4.4046   -5.5025  -23.2330 H   0  0  0  0  0  0  0  0  0  0  0  0
   -6.1588   -5.3293  -21.4548 H   0  0  0  0  0  0  0  0  0  0  0  0
   -6.4724   -7.1672  -21.6023 H   0  0  0  0  0  0  0  0  0  0  0  0
   -7.9614   -6.1212  -25.5455 H   0  0  0  0  0  0  0  0  0  0  0  0
   -8.0612   -8.7496  -26.1556 H   0  0  0  0  0  0  0  0  0  0  0  0
   -9.5278   -8.5484  -25.2095 H   0  0  0  0  0  0  0  0  0  0  0  0
   -9.2526   -7.5637  -26.6940 H   0  0  0  0  0  0  0  0  0  0  0  0
  1  2  1  0
  2  3  1  0
  3  4  2  0
  3  5  1  0
  5  6  1  0
  6  7  1  0
  8  7  1  6
  8  9  1  0
  9 10  2  0
  9 11  1  0
 11 12  1  0
 12 13  2  0
 13 14  1  0
 14 15  2  0
 15 16  1  0
 16 17  2  0
 17 18  1  0
 18 19  2  0
 19 20  1  0
 20 21  2  0
 20 22  1  0
 19 23  1  0
 18 24  1  0
 17 25  1  0
 15 26  1  0
 13 27  1  0
 11 28  1  0
 28 29  1  0
 29 30  1  0
 30 31  1  0
 30 32  1  0
 30 33  1  0
 29 34  1  6
 28 35  1  0
 28 36  1  0
  8 37  1  0
 37 38  2  0
 38 39  1  0
 39 40  1  0
 39 41  2  0
 41 42  1  0
 42 43  2  0
 43 44  1  0
 44 45  2  0
 42 46  1  0
 41 47  1  0
 38 48  1  0
  7 49  1  0
  7 50  1  0
  5 51  1  0
 51 52  1  0
 52 53  1  0
 52 54  1  0
 51 55  1  0
 51 56  1  0
  2 57  1  0
  1 58  1  0
  1 59  1  0
  1 60  1  0
 52  5  1  0
 44  6  1  0
 29  8  1  0
 43 37  1  0
 21 12  1  0
 21 16  1  0
M  END
>  <cnnaffinities>  (78) 
[6.07074, 6.56613]

>  <score>  (78) 
6.07074

>  <index>  (78) 
80

>  <Smiles>  (78) 
C(N(C(=O)C1(N2C([C@@]3(C(=O)N(c4c(nc(c5c(c(c(c(c45)[H])[H])[H])[H])[H])[H])C([C@@]3(C([H])([H])[H])[H])([H])[H])c3c(c(Cl)c(c(c3C2=O)[H])[H])[H])([H])[H])C(C1([H])[H])([H])[H])[H])([H])([H])[H]

>  <h>  (78) 
<NA>

>  <Training>  (78) 
True

>  <Success>  (78) 
True

>  <enamine_searched>  (78) 
False

>  <enamine_id>  (78) 
nan

$$$$

     RDKit          3D

 36 38  0  0  0  0  0  0  0  0999 V2000
   -8.5035    0.7114  -21.4640 O   0  0  0  0  0  0  0  0  0  0  0  0
   -8.3856   -0.4020  -21.9331 C   0  0  0  0  0  0  0  0  0  0  0  0
   -7.4387   -1.4332  -21.2754 C   0  0  0  0  0  0  0  0  0  0  0  0
   -6.5822   -0.8280  -20.1842 C   0  0  0  0  0  0  0  0  0  0  0  0
   -6.8799   -1.0391  -18.8626 C   0  0  0  0  0  0  0  0  0  0  0  0
   -6.1955   -0.5371  -17.7988 N   0  0  0  0  0  0  0  0  0  0  0  0
   -5.1584    0.2214  -18.0642 C   0  0  0  0  0  0  0  0  0  0  0  0
   -4.7254    0.5343  -19.3811 C   0  0  0  0  0  0  0  0  0  0  0  0
   -3.5992    1.3650  -19.6209 C   0  0  0  0  0  0  0  0  0  0  0  0
   -3.2101    1.6583  -20.9010 C   0  0  0  0  0  0  0  0  0  0  0  0
   -3.9338    1.1302  -21.9936 C   0  0  0  0  0  0  0  0  0  0  0  0
   -5.0274    0.3233  -21.7871 C   0  0  0  0  0  0  0  0  0  0  0  0
   -5.4552    0.0014  -20.4725 C   0  0  0  0  0  0  0  0  0  0  0  0
   -5.5766   -0.0671  -22.6374 H   0  0  0  0  0  0  0  0  0  0  0  0
   -3.6222    1.3714  -23.0051 H   0  0  0  0  0  0  0  0  0  0  0  0
   -2.3533    2.3017  -21.0866 H   0  0  0  0  0  0  0  0  0  0  0  0
   -3.0597    1.7762  -18.7706 H   0  0  0  0  0  0  0  0  0  0  0  0
   -4.6027    0.6268  -17.2161 H   0  0  0  0  0  0  0  0  0  0  0  0
   -7.7294   -1.6598  -18.5858 H   0  0  0  0  0  0  0  0  0  0  0  0
   -6.8028   -1.8994  -22.0405 H   0  0  0  0  0  0  0  0  0  0  0  0
   -8.0412   -2.2452  -20.8445 H   0  0  0  0  0  0  0  0  0  0  0  0
   -9.0617   -0.7714  -23.0889 N   0  0  0  0  0  0  0  0  0  0  0  0
  -10.0068    0.1956  -23.6422 C   0  0  0  0  0  0  0  0  0  0  0  0
  -11.3808    0.2149  -23.0211 C   0  0  0  0  0  0  0  0  0  0  0  0
  -12.0220   -0.7925  -22.4192 C   0  0  0  0  0  0  0  0  0  0  0  0
  -11.5704   -2.1753  -22.1563 C   0  0  0  0  0  0  0  0  0  0  0  0
  -10.4467   -2.7806  -22.5510 C   0  0  0  0  0  0  0  0  0  0  0  0
   -9.3680   -2.1603  -23.4044 C   0  0  0  0  0  0  0  0  0  0  0  0
   -8.4503   -2.7535  -23.3599 H   0  0  0  0  0  0  0  0  0  0  0  0
   -9.6847   -2.1764  -24.4539 H   0  0  0  0  0  0  0  0  0  0  0  0
  -10.2833   -3.8154  -22.2466 H   0  0  0  0  0  0  0  0  0  0  0  0
  -12.2762   -2.7637  -21.5729 H   0  0  0  0  0  0  0  0  0  0  0  0
  -13.0201   -0.5800  -22.0388 H   0  0  0  0  0  0  0  0  0  0  0  0
  -11.8928    1.1785  -23.0813 H   0  0  0  0  0  0  0  0  0  0  0  0
  -10.1136   -0.0411  -24.7076 H   0  0  0  0  0  0  0  0  0  0  0  0
   -9.5585    1.1915  -23.5954 H   0  0  0  0  0  0  0  0  0  0  0  0
  1  2  2  0
  2  3  1  0
  3  4  1  0
  4  5  2  0
  5  6  1  0
  6  7  2  0
  7  8  1  0
  8  9  2  0
  9 10  1  0
 10 11  2  0
 11 12  1  0
 12 13  2  0
 12 14  1  0
 11 15  1  0
 10 16  1  0
  9 17  1  0
  7 18  1  0
  5 19  1  0
  3 20  1  0
  3 21  1  0
  2 22  1  0
 22 23  1  0
 23 24  1  0
 24 25  2  0
 25 26  1  0
 26 27  2  0
 27 28  1  0
 28 29  1  0
 28 30  1  0
 27 31  1  0
 26 32  1  0
 25 33  1  0
 24 34  1  0
 23 35  1  0
 23 36  1  0
 13  4  1  0
 28 22  1  0
 13  8  1  0
M  END
>  <cnnaffinities>  (79) 
[4.50132, 4.50131]

>  <score>  (79) 
4.50132

>  <index>  (79) 
81

>  <Smiles>  (79) 
O=C(C(c1c(nc(c2c(c(c(c(c12)[H])[H])[H])[H])[H])[H])([H])[H])N1C(C(=C(C(=C(C1([H])[H])[H])[H])[H])[H])([H])[H]

>  <h>  (79) 
<NA>

>  <Training>  (79) 
True

>  <Success>  (79) 
True

>  <enamine_searched>  (79) 
False

>  <enamine_id>  (79) 
nan

$$$$

     RDKit          3D

 54 57  0  0  0  0  0  0  0  0999 V2000
   -9.4792    1.4597  -24.5855 C   0  0  0  0  0  0  0  0  0  0  0  0
   -8.9132    0.1708  -24.4563 O   0  0  0  0  0  0  0  0  0  0  0  0
   -7.6225   -0.0585  -24.8485 C   0  0  0  0  0  0  0  0  0  0  0  0
   -6.7887    0.9275  -25.3876 C   0  0  0  0  0  0  0  0  0  0  0  0
   -5.4820    0.6106  -25.7608 C   0  0  0  0  0  0  0  0  0  0  0  0
   -4.9934   -0.6807  -25.6105 C   0  0  0  0  0  0  0  0  0  0  0  0
   -5.8275   -1.6458  -25.0607 C   0  0  0  0  0  0  0  0  0  0  0  0
   -7.1241   -1.3628  -24.6502 C   0  0  0  0  0  0  0  0  0  0  0  0
   -7.9878   -2.4727  -24.0493 C   0  0  1  0  0  0  0  0  0  0  0  0
   -8.5379   -3.3734  -25.1593 C   0  0  0  0  0  0  0  0  0  0  0  0
   -9.2382   -4.6032  -24.5950 C   0  0  1  0  0  0  0  0  0  0  0  0
   -9.8850   -5.4439  -25.6972 C   0  0  0  0  0  0  0  0  0  0  0  0
  -10.6236   -4.8676  -26.2668 H   0  0  0  0  0  0  0  0  0  0  0  0
   -9.1337   -5.8081  -26.4079 H   0  0  0  0  0  0  0  0  0  0  0  0
  -10.3979   -6.3214  -25.2898 H   0  0  0  0  0  0  0  0  0  0  0  0
   -8.2684   -5.4307  -23.7356 C   0  0  0  0  0  0  0  0  0  0  0  0
   -6.9945   -4.6714  -23.3578 C   0  0  0  0  0  0  0  0  0  0  0  0
   -7.2842   -3.2709  -23.0393 N   0  0  0  0  0  0  0  0  0  0  0  0
   -6.7360   -2.7281  -21.8868 C   0  0  0  0  0  0  0  0  0  0  0  0
   -5.7975   -3.2555  -21.3159 O   0  0  0  0  0  0  0  0  0  0  0  0
   -7.3994   -1.4622  -21.2838 C   0  0  0  0  0  0  0  0  0  0  0  0
   -6.5765   -0.8304  -20.1833 C   0  0  0  0  0  0  0  0  0  0  0  0
   -6.8719   -1.0475  -18.8626 C   0  0  0  0  0  0  0  0  0  0  0  0
   -6.1898   -0.5421  -17.7973 N   0  0  0  0  0  0  0  0  0  0  0  0
   -5.1585    0.2224  -18.0658 C   0  0  0  0  0  0  0  0  0  0  0  0
   -4.7202    0.5319  -19.3819 C   0  0  0  0  0  0  0  0  0  0  0  0
   -3.5942    1.3588  -19.6234 C   0  0  0  0  0  0  0  0  0  0  0  0
   -3.1956    1.6372  -20.9005 C   0  0  0  0  0  0  0  0  0  0  0  0
   -3.9121    1.0926  -21.9929 C   0  0  0  0  0  0  0  0  0  0  0  0
   -5.0058    0.2880  -21.7964 C   0  0  0  0  0  0  0  0  0  0  0  0
   -5.4443   -0.0114  -20.4788 C   0  0  0  0  0  0  0  0  0  0  0  0
   -5.5324   -0.1192  -22.6620 H   0  0  0  0  0  0  0  0  0  0  0  0
   -3.5898    1.3204  -23.0045 H   0  0  0  0  0  0  0  0  0  0  0  0
   -2.3347    2.2768  -21.0889 H   0  0  0  0  0  0  0  0  0  0  0  0
   -3.0584    1.7759  -18.7710 H   0  0  0  0  0  0  0  0  0  0  0  0
   -4.6030    0.6289  -17.2157 H   0  0  0  0  0  0  0  0  0  0  0  0
   -7.7216   -1.6719  -18.5871 H   0  0  0  0  0  0  0  0  0  0  0  0
   -7.6494   -0.7190  -22.0518 H   0  0  0  0  0  0  0  0  0  0  0  0
   -8.3631   -1.7787  -20.8569 H   0  0  0  0  0  0  0  0  0  0  0  0
   -6.2580   -4.7546  -24.1704 H   0  0  0  0  0  0  0  0  0  0  0  0
   -6.5264   -5.1233  -22.4841 H   0  0  0  0  0  0  0  0  0  0  0  0
   -7.9806   -6.3461  -24.2632 H   0  0  0  0  0  0  0  0  0  0  0  0
   -8.7830   -5.7575  -22.8290 H   0  0  0  0  0  0  0  0  0  0  0  0
  -10.0442   -4.2466  -23.9428 H   0  0  0  0  0  0  0  0  0  0  0  0
   -9.2432   -2.7851  -25.7521 H   0  0  0  0  0  0  0  0  0  0  0  0
   -7.7482   -3.6693  -25.8618 H   0  0  0  0  0  0  0  0  0  0  0  0
   -8.8457   -2.0025  -23.5630 H   0  0  0  0  0  0  0  0  0  0  0  0
   -5.4409   -2.6544  -24.9571 H   0  0  0  0  0  0  0  0  0  0  0  0
   -3.9790   -0.9382  -25.9102 H   0  0  0  0  0  0  0  0  0  0  0  0
   -4.8364    1.3775  -26.1765 H   0  0  0  0  0  0  0  0  0  0  0  0
   -7.1412    1.9469  -25.5204 H   0  0  0  0  0  0  0  0  0  0  0  0
   -9.5298    1.8150  -25.6220 H   0  0  0  0  0  0  0  0  0  0  0  0
   -8.9662    2.2159  -23.9799 H   0  0  0  0  0  0  0  0  0  0  0  0
  -10.4985    1.3702  -24.2153 H   0  0  0  0  0  0  0  0  0  0  0  0
  1  2  1  0
  2  3  1  0
  3  4  2  0
  4  5  1  0
  5  6  2  0
  6  7  1  0
  7  8  2  0
  8  9  1  0
  9 10  1  0
 10 11  1  0
 11 12  1  0
 12 13  1  0
 12 14  1  0
 12 15  1  0
 11 16  1  0
 16 17  1  0
 17 18  1  0
 18 19  1  0
 19 20  2  0
 19 21  1  0
 21 22  1  0
 22 23  2  0
 23 24  1  0
 24 25  2  0
 25 26  1  0
 26 27  2  0
 27 28  1  0
 28 29  2  0
 29 30  1  0
 30 31  2  0
 30 32  1  0
 29 33  1  0
 28 34  1  0
 27 35  1  0
 25 36  1  0
 23 37  1  0
 21 38  1  0
 21 39  1  0
 17 40  1  0
 17 41  1  0
 16 42  1  0
 16 43  1  0
 11 44  1  1
 10 45  1  0
 10 46  1  0
  9 47  1  1
  7 48  1  0
  6 49  1  0
  5 50  1  0
  4 51  1  0
  1 52  1  0
  1 53  1  0
  1 54  1  0
  8  3  1  0
 18  9  1  0
 31 22  1  0
 31 26  1  0
M  END
>  <cnnaffinities>  (80) 
[5.83543, 5.62111]

>  <score>  (80) 
5.83543

>  <index>  (80) 
82

>  <Smiles>  (80) 
C(Oc1c(c(c(c(c1[C@]1(C([C@@](C([H])([H])[H])(C(C(N1C(=O)C(c1c(nc(c2c(c(c(c(c12)[H])[H])[H])[H])[H])[H])([H])[H])([H])[H])([H])[H])[H])([H])[H])[H])[H])[H])[H])[H])([H])([H])[H]

>  <h>  (80) 
<NA>

>  <Training>  (80) 
True

>  <Success>  (80) 
True

>  <enamine_searched>  (80) 
False

>  <enamine_id>  (80) 
nan

$$$$

     RDKit          3D

 46 50  0  0  0  0  0  0  0  0999 V2000
   -8.6421    2.0096  -25.7947 N   0  0  0  0  0  0  0  0  0  0  0  0
   -9.0116    0.5984  -26.5729 S   0  0  0  0  0  0  0  0  0  0  0  0
   -9.9228    0.9655  -27.6397 O   0  0  0  0  0  0  0  0  0  0  0  0
   -7.7383   -0.0589  -26.7950 O   0  0  0  0  0  0  0  0  0  0  0  0
   -9.9344   -0.3832  -25.4201 C   0  0  0  0  0  0  0  0  0  0  0  0
  -11.3196   -0.4813  -25.5416 C   0  0  0  0  0  0  0  0  0  0  0  0
  -12.0326   -1.2290  -24.6238 C   0  0  0  0  0  0  0  0  0  0  0  0
  -11.3556   -1.8995  -23.6047 C   0  0  0  0  0  0  0  0  0  0  0  0
   -9.9645   -1.8047  -23.4831 C   0  0  0  0  0  0  0  0  0  0  0  0
   -9.2632   -1.0201  -24.3889 C   0  0  0  0  0  0  0  0  0  0  0  0
   -8.1867   -0.9251  -24.2894 H   0  0  0  0  0  0  0  0  0  0  0  0
   -9.2062   -2.4642  -22.3552 C   0  0  1  0  0  0  0  0  0  0  0  0
  -10.1058   -3.5374  -21.7200 C   0  0  0  0  0  0  0  0  0  0  0  0
  -11.5348   -3.0397  -21.5677 C   0  0  0  0  0  0  0  0  0  0  0  0
  -12.1241   -2.6788  -22.8045 O   0  0  0  0  0  0  0  0  0  0  0  0
  -11.5382   -2.1657  -20.9111 H   0  0  0  0  0  0  0  0  0  0  0  0
  -12.1846   -3.8214  -21.1629 H   0  0  0  0  0  0  0  0  0  0  0  0
  -10.1026   -4.4300  -22.3568 H   0  0  0  0  0  0  0  0  0  0  0  0
   -9.6936   -3.8184  -20.7536 H   0  0  0  0  0  0  0  0  0  0  0  0
   -7.9265   -3.0168  -22.7478 N   0  0  0  0  0  0  0  0  0  0  0  0
   -6.8501   -2.5312  -22.0696 C   0  0  0  0  0  0  0  0  0  0  0  0
   -5.6877   -2.8424  -22.1958 O   0  0  0  0  0  0  0  0  0  0  0  0
   -7.3537   -1.5462  -21.1886 N   0  0  0  0  0  0  0  0  0  0  0  0
   -6.5851   -0.8709  -20.1890 C   0  0  0  0  0  0  0  0  0  0  0  0
   -6.9063   -1.0641  -18.8664 C   0  0  0  0  0  0  0  0  0  0  0  0
   -6.2160   -0.5489  -17.8191 N   0  0  0  0  0  0  0  0  0  0  0  0
   -5.1804    0.2059  -18.0948 C   0  0  0  0  0  0  0  0  0  0  0  0
   -4.7445    0.5203  -19.4121 C   0  0  0  0  0  0  0  0  0  0  0  0
   -3.6172    1.3591  -19.6371 C   0  0  0  0  0  0  0  0  0  0  0  0
   -3.2289    1.6641  -20.9122 C   0  0  0  0  0  0  0  0  0  0  0  0
   -3.9565    1.1513  -22.0078 C   0  0  0  0  0  0  0  0  0  0  0  0
   -5.0479    0.3401  -21.8137 C   0  0  0  0  0  0  0  0  0  0  0  0
   -5.4681   -0.0176  -20.5024 C   0  0  0  0  0  0  0  0  0  0  0  0
   -5.5938   -0.0428  -22.6683 H   0  0  0  0  0  0  0  0  0  0  0  0
   -3.6504    1.4034  -23.0180 H   0  0  0  0  0  0  0  0  0  0  0  0
   -2.3725    2.3097  -21.0882 H   0  0  0  0  0  0  0  0  0  0  0  0
   -3.0881    1.7580  -18.7756 H   0  0  0  0  0  0  0  0  0  0  0  0
   -4.6302    0.6089  -17.2466 H   0  0  0  0  0  0  0  0  0  0  0  0
   -7.7588   -1.6857  -18.6024 H   0  0  0  0  0  0  0  0  0  0  0  0
   -8.7256   -1.3592  -21.3833 C   0  0  0  0  0  0  0  0  0  0  0  0
   -9.3733   -0.4306  -20.9605 O   0  0  0  0  0  0  0  0  0  0  0  0
   -7.8229   -3.7773  -23.3948 H   0  0  0  0  0  0  0  0  0  0  0  0
  -13.1098   -1.3482  -24.6784 H   0  0  0  0  0  0  0  0  0  0  0  0
  -11.8130    0.0205  -26.3643 H   0  0  0  0  0  0  0  0  0  0  0  0
   -7.9883    1.8608  -25.0352 H   0  0  0  0  0  0  0  0  0  0  0  0
   -9.4654    2.5587  -25.5771 H   0  0  0  0  0  0  0  0  0  0  0  0
  1  2  1  0
  2  3  2  0
  2  4  2  0
  2  5  1  0
  5  6  2  0
  6  7  1  0
  7  8  2  0
  8  9  1  0
  9 10  2  0
 10 11  1  0
  9 12  1  0
 12 13  1  0
 13 14  1  0
 14 15  1  0
 14 16  1  0
 14 17  1  0
 13 18  1  0
 13 19  1  0
 12 20  1  6
 20 21  1  0
 21 22  2  0
 21 23  1  0
 23 24  1  0
 24 25  2  0
 25 26  1  0
 26 27  2  0
 27 28  1  0
 28 29  2  0
 29 30  1  0
 30 31  2  0
 31 32  1  0
 32 33  2  0
 32 34  1  0
 31 35  1  0
 30 36  1  0
 29 37  1  0
 27 38  1  0
 25 39  1  0
 23 40  1  0
 40 41  2  0
 20 42  1  0
  7 43  1  0
  6 44  1  0
  1 45  1  0
  1 46  1  0
 10  5  1  0
 40 12  1  0
 15  8  1  0
 33 24  1  0
 33 28  1  0
M  END
>  <cnnaffinities>  (81) 
[5.70232, 5.67339, 5.68343]

>  <score>  (81) 
5.70232

>  <index>  (81) 
83

>  <Smiles>  (81) 
N(S(=O)(=O)c1c(c(c2c(c1[H])[C@@]1(C(C(O2)([H])[H])([H])[H])N(C(=O)N(c2c(nc(c3c(c(c(c(c23)[H])[H])[H])[H])[H])[H])C1=O)[H])[H])[H])([H])[H]

>  <h>  (81) 
<NA>

>  <Training>  (81) 
True

>  <Success>  (81) 
True

>  <enamine_searched>  (81) 
False

>  <enamine_id>  (81) 
nan

$$$$

     RDKit          3D

 63 68  0  0  0  0  0  0  0  0999 V2000
   -7.7688   -3.6820  -24.0571 C   0  0  0  0  0  0  0  0  0  0  0  0
   -8.1747   -2.9141  -22.8084 C   0  0  1  0  0  0  0  0  0  0  0  0
   -6.9890   -2.6244  -21.8796 C   0  0  0  0  0  0  0  0  0  0  0  0
   -7.3889   -1.4129  -21.1991 N   0  0  0  0  0  0  0  0  0  0  0  0
   -6.6113   -0.8131  -20.1814 C   0  0  0  0  0  0  0  0  0  0  0  0
   -6.9349   -1.0408  -18.8723 C   0  0  0  0  0  0  0  0  0  0  0  0
   -6.2433   -0.5520  -17.8133 N   0  0  0  0  0  0  0  0  0  0  0  0
   -5.2012    0.2002  -18.0791 C   0  0  0  0  0  0  0  0  0  0  0  0
   -4.7632    0.5241  -19.3978 C   0  0  0  0  0  0  0  0  0  0  0  0
   -3.6385    1.3568  -19.6273 C   0  0  0  0  0  0  0  0  0  0  0  0
   -3.2437    1.6490  -20.9026 C   0  0  0  0  0  0  0  0  0  0  0  0
   -3.9515    1.1261  -22.0080 C   0  0  0  0  0  0  0  0  0  0  0  0
   -5.0448    0.3203  -21.8146 C   0  0  0  0  0  0  0  0  0  0  0  0
   -5.4789    0.0004  -20.4945 C   0  0  0  0  0  0  0  0  0  0  0  0
   -5.5872   -0.0640  -22.6736 H   0  0  0  0  0  0  0  0  0  0  0  0
   -3.6226    1.3682  -23.0144 H   0  0  0  0  0  0  0  0  0  0  0  0
   -2.3825    2.2883  -21.0746 H   0  0  0  0  0  0  0  0  0  0  0  0
   -3.1119    1.7584  -18.7657 H   0  0  0  0  0  0  0  0  0  0  0  0
   -4.6368    0.5931  -17.2330 H   0  0  0  0  0  0  0  0  0  0  0  0
   -7.8036   -1.6554  -18.6457 H   0  0  0  0  0  0  0  0  0  0  0  0
   -8.4420   -0.7427  -21.7815 C   0  0  0  0  0  0  0  0  0  0  0  0
   -8.8844    0.3117  -21.3695 O   0  0  0  0  0  0  0  0  0  0  0  0
   -8.8879   -1.5270  -23.0309 C   0  0  1  0  0  0  0  0  0  0  0  0
   -8.4266   -0.7163  -24.2724 C   0  0  0  0  0  0  0  0  0  0  0  0
   -9.0148   -1.2202  -25.5069 N   0  0  0  0  0  0  0  0  0  0  0  0
   -8.2858   -1.1710  -26.7602 C   0  0  0  0  0  0  0  0  0  0  0  0
   -8.4734    0.1633  -27.4761 C   0  0  0  0  0  0  0  0  0  0  0  0
   -7.9729    1.2004  -27.0646 O   0  0  0  0  0  0  0  0  0  0  0  0
   -9.2219    0.0829  -28.6160 N   0  0  0  0  0  0  0  0  0  0  0  0
   -9.5215    1.2869  -29.3613 C   0  0  0  0  0  0  0  0  0  0  0  0
   -8.3346    1.7757  -30.1756 C   0  0  0  0  0  0  0  0  0  0  0  0
   -7.7604    0.7790  -30.9350 F   0  0  0  0  0  0  0  0  0  0  0  0
   -8.3546    3.1215  -30.8164 C   0  0  0  0  0  0  0  0  0  0  0  0
   -7.4083    2.8309  -29.6723 C   0  0  0  0  0  0  0  0  0  0  0  0
   -7.6120    3.2549  -28.6879 H   0  0  0  0  0  0  0  0  0  0  0  0
   -6.3623    2.7062  -29.9409 H   0  0  0  0  0  0  0  0  0  0  0  0
   -9.2066    3.7806  -30.6560 H   0  0  0  0  0  0  0  0  0  0  0  0
   -7.8936    3.1561  -31.8003 H   0  0  0  0  0  0  0  0  0  0  0  0
   -9.8428    2.0796  -28.6662 H   0  0  0  0  0  0  0  0  0  0  0  0
  -10.3639    1.0807  -30.0338 H   0  0  0  0  0  0  0  0  0  0  0  0
   -9.8686   -0.6911  -28.6913 H   0  0  0  0  0  0  0  0  0  0  0  0
   -7.2238   -1.3254  -26.5586 H   0  0  0  0  0  0  0  0  0  0  0  0
   -8.6421   -1.9905  -27.3920 H   0  0  0  0  0  0  0  0  0  0  0  0
  -10.3609   -1.4068  -25.6169 C   0  0  0  0  0  0  0  0  0  0  0  0
  -10.9252   -1.4051  -26.7059 O   0  0  0  0  0  0  0  0  0  0  0  0
  -11.0775   -1.6442  -24.3353 C   0  0  0  0  0  0  0  0  0  0  0  0
  -12.4496   -1.8749  -24.4000 C   0  0  0  0  0  0  0  0  0  0  0  0
  -13.1717   -2.1826  -23.2642 C   0  0  0  0  0  0  0  0  0  0  0  0
  -12.4754   -2.2591  -22.0648 C   0  0  0  0  0  0  0  0  0  0  0  0
  -13.1342   -2.6481  -20.9631 F   0  0  0  0  0  0  0  0  0  0  0  0
  -11.1261   -1.9737  -21.9610 C   0  0  0  0  0  0  0  0  0  0  0  0
  -10.3948   -1.6756  -23.1142 C   0  0  0  0  0  0  0  0  0  0  0  0
  -10.6496   -1.9816  -20.9886 H   0  0  0  0  0  0  0  0  0  0  0  0
  -14.2436   -2.3526  -23.2900 H   0  0  0  0  0  0  0  0  0  0  0  0
  -12.9185   -1.8157  -25.3737 H   0  0  0  0  0  0  0  0  0  0  0  0
   -8.7185    0.3346  -24.1149 H   0  0  0  0  0  0  0  0  0  0  0  0
   -7.3329   -0.7457  -24.3609 H   0  0  0  0  0  0  0  0  0  0  0  0
   -6.0553   -2.4842  -22.4473 H   0  0  0  0  0  0  0  0  0  0  0  0
   -6.8131   -3.4247  -21.1512 H   0  0  0  0  0  0  0  0  0  0  0  0
   -8.8913   -3.5206  -22.2351 H   0  0  0  0  0  0  0  0  0  0  0  0
   -8.6317   -3.8739  -24.6989 H   0  0  0  0  0  0  0  0  0  0  0  0
   -7.0321   -3.1102  -24.6322 H   0  0  0  0  0  0  0  0  0  0  0  0
   -7.3153   -4.6383  -23.7807 H   0  0  0  0  0  0  0  0  0  0  0  0
  1  2  1  0
  2  3  1  0
  3  4  1  0
  4  5  1  0
  5  6  2  0
  6  7  1  0
  7  8  2  0
  8  9  1  0
  9 10  2  0
 10 11  1  0
 11 12  2  0
 12 13  1  0
 13 14  2  0
 13 15  1  0
 12 16  1  0
 11 17  1  0
 10 18  1  0
  8 19  1  0
  6 20  1  0
  4 21  1  0
 21 22  2  0
 21 23  1  0
 23 24  1  6
 24 25  1  0
 25 26  1  0
 26 27  1  0
 27 28  2  0
 27 29  1  0
 29 30  1  0
 30 31  1  0
 31 32  1  0
 31 33  1  0
 33 34  1  0
 34 35  1  0
 34 36  1  0
 33 37  1  0
 33 38  1  0
 30 39  1  0
 30 40  1  0
 29 41  1  0
 26 42  1  0
 26 43  1  0
 25 44  1  0
 44 45  2  0
 44 46  1  0
 46 47  2  0
 47 48  1  0
 48 49  2  0
 49 50  1  0
 49 51  1  0
 51 52  2  0
 51 53  1  0
 48 54  1  0
 47 55  1  0
 24 56  1  0
 24 57  1  0
  3 58  1  0
  3 59  1  0
  2 60  1  1
  1 61  1  0
  1 62  1  0
  1 63  1  0
 23  2  1  0
 34 31  1  0
 52 46  1  0
 14  5  1  0
 52 23  1  0
 14  9  1  0
M  END
>  <cnnaffinities>  (82) 
[6.08048, 6.79403, 6.4441, 6.32564, 6.74825]

>  <score>  (82) 
6.08048

>  <index>  (82) 
84

>  <Smiles>  (82) 
C([C@]1(C(N(c2c(nc(c3c(c(c(c(c23)[H])[H])[H])[H])[H])[H])C(=O)[C@]21C(N(C(C(=O)N(C(C1(F)C(C1([H])[H])([H])[H])([H])[H])[H])([H])[H])C(=O)c1c(c(c(F)c(c21)[H])[H])[H])([H])[H])([H])[H])[H])([H])([H])[H]

>  <h>  (82) 
<NA>

>  <Training>  (82) 
True

>  <Success>  (82) 
True

>  <enamine_searched>  (82) 
False

>  <enamine_id>  (82) 
nan

$$$$

     RDKit          3D

 57 62  0  0  0  0  0  0  0  0999 V2000
   -9.2821    1.0473  -29.3038 C   0  0  0  0  0  0  0  0  0  0  0  0
   -9.1719    1.3778  -27.8982 N   0  0  0  0  0  0  0  0  0  0  0  0
   -8.2850    0.6927  -27.1287 C   0  0  0  0  0  0  0  0  0  0  0  0
   -7.5325   -0.1611  -27.5641 O   0  0  0  0  0  0  0  0  0  0  0  0
   -8.3097    1.0820  -25.6502 C   0  0  0  0  0  0  0  0  0  0  0  0
   -9.1553    0.2049  -24.8725 N   0  0  0  0  0  0  0  0  0  0  0  0
   -8.6623   -1.1117  -24.5172 C   0  0  0  0  0  0  0  0  0  0  0  0
   -8.9646   -1.4704  -23.0437 C   0  0  2  0  0  0  0  0  0  0  0  0
   -8.1529   -0.5632  -22.0927 C   0  0  0  0  0  0  0  0  0  0  0  0
   -8.1566    0.6487  -22.0683 O   0  0  0  0  0  0  0  0  0  0  0  0
   -7.3863   -1.3461  -21.2526 N   0  0  0  0  0  0  0  0  0  0  0  0
   -6.5960   -0.8102  -20.2081 C   0  0  0  0  0  0  0  0  0  0  0  0
   -6.9037   -1.0673  -18.8952 C   0  0  0  0  0  0  0  0  0  0  0  0
   -6.2257   -0.5661  -17.8321 N   0  0  0  0  0  0  0  0  0  0  0  0
   -5.1935    0.2023  -18.0878 C   0  0  0  0  0  0  0  0  0  0  0  0
   -4.7404    0.5174  -19.3999 C   0  0  0  0  0  0  0  0  0  0  0  0
   -3.6099    1.3470  -19.6231 C   0  0  0  0  0  0  0  0  0  0  0  0
   -3.1846    1.6174  -20.8934 C   0  0  0  0  0  0  0  0  0  0  0  0
   -3.8635    1.0656  -22.0040 C   0  0  0  0  0  0  0  0  0  0  0  0
   -4.9583    0.2620  -21.8147 C   0  0  0  0  0  0  0  0  0  0  0  0
   -5.4432   -0.0137  -20.5048 C   0  0  0  0  0  0  0  0  0  0  0  0
   -5.4743   -0.1578  -22.6730 H   0  0  0  0  0  0  0  0  0  0  0  0
   -3.5212    1.2876  -23.0110 H   0  0  0  0  0  0  0  0  0  0  0  0
   -2.3265    2.2624  -21.0621 H   0  0  0  0  0  0  0  0  0  0  0  0
   -3.1023    1.7678  -18.7580 H   0  0  0  0  0  0  0  0  0  0  0  0
   -4.6473    0.6087  -17.2348 H   0  0  0  0  0  0  0  0  0  0  0  0
   -7.7658   -1.6856  -18.6454 H   0  0  0  0  0  0  0  0  0  0  0  0
   -7.6372   -2.7572  -21.3835 C   0  0  0  0  0  0  0  0  0  0  0  0
   -8.4762   -2.8770  -22.6470 C   0  0  0  0  0  0  0  0  0  0  0  0
   -9.3418   -4.0890  -22.8210 C   0  0  0  0  0  0  0  0  0  0  0  0
   -8.0954   -3.9422  -23.6444 C   0  0  0  0  0  0  0  0  0  0  0  0
   -7.2390   -4.5748  -23.4126 H   0  0  0  0  0  0  0  0  0  0  0  0
   -8.1929   -3.7113  -24.7017 H   0  0  0  0  0  0  0  0  0  0  0  0
   -9.3698   -4.8232  -22.0169 H   0  0  0  0  0  0  0  0  0  0  0  0
  -10.2985   -3.9480  -23.3155 H   0  0  0  0  0  0  0  0  0  0  0  0
   -6.6934   -3.3085  -21.4480 H   0  0  0  0  0  0  0  0  0  0  0  0
   -8.1946   -3.1231  -20.5191 H   0  0  0  0  0  0  0  0  0  0  0  0
  -10.4602   -1.2213  -22.8625 C   0  0  0  0  0  0  0  0  0  0  0  0
  -11.1843   -1.9583  -21.9255 C   0  0  0  0  0  0  0  0  0  0  0  0
  -12.5528   -1.7883  -21.8394 C   0  0  0  0  0  0  0  0  0  0  0  0
  -13.4608   -2.9258  -20.8871 Cl  0  0  0  0  0  0  0  0  0  0  0  0
  -13.2075   -0.7380  -22.4748 C   0  0  0  0  0  0  0  0  0  0  0  0
  -12.4777    0.0492  -23.3446 C   0  0  0  0  0  0  0  0  0  0  0  0
  -11.1432   -0.2427  -23.6015 C   0  0  0  0  0  0  0  0  0  0  0  0
  -10.4479    0.5714  -24.6440 C   0  0  0  0  0  0  0  0  0  0  0  0
  -10.9721    1.5161  -25.2283 O   0  0  0  0  0  0  0  0  0  0  0  0
  -12.9075    0.8931  -23.8696 H   0  0  0  0  0  0  0  0  0  0  0  0
  -14.2543   -0.5509  -22.2677 H   0  0  0  0  0  0  0  0  0  0  0  0
  -10.6888   -2.6847  -21.2888 H   0  0  0  0  0  0  0  0  0  0  0  0
   -7.5888   -1.1340  -24.7142 H   0  0  0  0  0  0  0  0  0  0  0  0
   -9.1461   -1.8639  -25.1531 H   0  0  0  0  0  0  0  0  0  0  0  0
   -8.6909    2.0975  -25.5176 H   0  0  0  0  0  0  0  0  0  0  0  0
   -7.2885    0.9998  -25.2604 H   0  0  0  0  0  0  0  0  0  0  0  0
   -9.9079    1.8971  -27.4416 H   0  0  0  0  0  0  0  0  0  0  0  0
   -9.5300   -0.0105  -29.4377 H   0  0  0  0  0  0  0  0  0  0  0  0
  -10.0538    1.6652  -29.7674 H   0  0  0  0  0  0  0  0  0  0  0  0
   -8.3299    1.2300  -29.8093 H   0  0  0  0  0  0  0  0  0  0  0  0
  1  2  1  0
  2  3  1  0
  3  4  2  0
  3  5  1  0
  5  6  1  0
  6  7  1  0
  8  7  1  6
  8  9  1  0
  9 10  2  0
  9 11  1  0
 11 12  1  0
 12 13  2  0
 13 14  1  0
 14 15  2  0
 15 16  1  0
 16 17  2  0
 17 18  1  0
 18 19  2  0
 19 20  1  0
 20 21  2  0
 20 22  1  0
 19 23  1  0
 18 24  1  0
 17 25  1  0
 15 26  1  0
 13 27  1  0
 11 28  1  0
 28 29  1  0
 29 30  1  0
 30 31  1  0
 31 32  1  0
 31 33  1  0
 30 34  1  0
 30 35  1  0
 28 36  1  0
 28 37  1  0
  8 38  1  0
 38 39  2  0
 39 40  1  0
 40 41  1  0
 40 42  2  0
 42 43  1  0
 43 44  2  0
 44 45  1  0
 45 46  2  0
 43 47  1  0
 42 48  1  0
 39 49  1  0
  7 50  1  0
  7 51  1  0
  5 52  1  0
  5 53  1  0
  2 54  1  0
  1 55  1  0
  1 56  1  0
  1 57  1  0
 45  6  1  0
 29  8  1  0
 44 38  1  0
 21 12  1  0
 31 29  1  0
 21 16  1  0
M  END
>  <cnnaffinities>  (83) 
[5.99641]

>  <score>  (83) 
5.99641

>  <index>  (83) 
85

>  <Smiles>  (83) 
C(N(C(=O)C(N1C([C@@]2(C(=O)N(c3c(nc(c4c(c(c(c(c34)[H])[H])[H])[H])[H])[H])C(C32C(C3([H])[H])([H])[H])([H])[H])c2c(c(Cl)c(c(c2C1=O)[H])[H])[H])([H])[H])([H])[H])[H])([H])([H])[H]

>  <h>  (83) 
<NA>

>  <Training>  (83) 
True

>  <Success>  (83) 
True

>  <enamine_searched>  (83) 
False

>  <enamine_id>  (83) 
nan

$$$$

     RDKit          3D

 43 45  0  0  0  0  0  0  0  0999 V2000
   -8.9376   -6.1071  -25.1867 C   0  0  0  0  0  0  0  0  0  0  0  0
   -8.3040   -4.9943  -24.3606 C   0  0  1  0  0  0  0  0  0  0  0  0
   -6.7985   -5.2162  -24.1714 C   0  0  0  0  0  0  0  0  0  0  0  0
   -6.0434   -3.9017  -23.9486 C   0  0  0  0  0  0  0  0  0  0  0  0
   -6.8736   -2.8962  -23.2896 N   0  0  0  0  0  0  0  0  0  0  0  0
   -6.6766   -2.6574  -21.9487 C   0  0  0  0  0  0  0  0  0  0  0  0
   -5.9205   -3.3472  -21.2827 O   0  0  0  0  0  0  0  0  0  0  0  0
   -7.3990   -1.4619  -21.2815 C   0  0  0  0  0  0  0  0  0  0  0  0
   -6.5789   -0.8269  -20.1789 C   0  0  0  0  0  0  0  0  0  0  0  0
   -6.8728   -1.0461  -18.8587 C   0  0  0  0  0  0  0  0  0  0  0  0
   -6.1894   -0.5416  -17.7935 N   0  0  0  0  0  0  0  0  0  0  0  0
   -5.1592    0.2228  -18.0623 C   0  0  0  0  0  0  0  0  0  0  0  0
   -4.7215    0.5335  -19.3786 C   0  0  0  0  0  0  0  0  0  0  0  0
   -3.5933    1.3594  -19.6223 C   0  0  0  0  0  0  0  0  0  0  0  0
   -3.1939    1.6383  -20.9000 C   0  0  0  0  0  0  0  0  0  0  0  0
   -3.9093    1.0965  -21.9935 C   0  0  0  0  0  0  0  0  0  0  0  0
   -5.0039    0.2961  -21.7850 C   0  0  0  0  0  0  0  0  0  0  0  0
   -5.4476   -0.0063  -20.4717 C   0  0  0  0  0  0  0  0  0  0  0  0
   -5.5354   -0.1129  -22.6401 H   0  0  0  0  0  0  0  0  0  0  0  0
   -3.5866    1.3234  -23.0048 H   0  0  0  0  0  0  0  0  0  0  0  0
   -2.3333    2.2762  -21.0880 H   0  0  0  0  0  0  0  0  0  0  0  0
   -3.0563    1.7754  -18.7710 H   0  0  0  0  0  0  0  0  0  0  0  0
   -4.6015    0.6288  -17.2150 H   0  0  0  0  0  0  0  0  0  0  0  0
   -7.7213   -1.6719  -18.5861 H   0  0  0  0  0  0  0  0  0  0  0  0
   -8.3263   -1.8519  -20.8420 H   0  0  0  0  0  0  0  0  0  0  0  0
   -7.6992   -0.7005  -22.0135 H   0  0  0  0  0  0  0  0  0  0  0  0
   -8.0519   -2.4744  -24.0560 C   0  0  1  0  0  0  0  0  0  0  0  0
   -7.7721   -1.2209  -24.8786 C   0  0  0  0  0  0  0  0  0  0  0  0
   -7.4498   -0.3891  -24.2456 H   0  0  0  0  0  0  0  0  0  0  0  0
   -8.6657   -0.8964  -25.4221 H   0  0  0  0  0  0  0  0  0  0  0  0
   -6.9791   -1.4075  -25.6096 H   0  0  0  0  0  0  0  0  0  0  0  0
   -8.5573   -3.6168  -24.9586 C   0  0  0  0  0  0  0  0  0  0  0  0
   -9.6289   -3.4804  -25.1380 H   0  0  0  0  0  0  0  0  0  0  0  0
   -8.0977   -3.5578  -25.9523 H   0  0  0  0  0  0  0  0  0  0  0  0
   -8.8437   -2.2568  -23.3336 H   0  0  0  0  0  0  0  0  0  0  0  0
   -5.1439   -4.0639  -23.3577 H   0  0  0  0  0  0  0  0  0  0  0  0
   -5.7183   -3.5030  -24.9158 H   0  0  0  0  0  0  0  0  0  0  0  0
   -6.3782   -5.7265  -25.0463 H   0  0  0  0  0  0  0  0  0  0  0  0
   -6.6323   -5.8867  -23.3238 H   0  0  0  0  0  0  0  0  0  0  0  0
   -8.7701   -5.0083  -23.3713 H   0  0  0  0  0  0  0  0  0  0  0  0
  -10.0227   -5.9841  -25.2642 H   0  0  0  0  0  0  0  0  0  0  0  0
   -8.7449   -7.0911  -24.7472 H   0  0  0  0  0  0  0  0  0  0  0  0
   -8.5383   -6.1195  -26.2064 H   0  0  0  0  0  0  0  0  0  0  0  0
  1  2  1  0
  2  3  1  0
  3  4  1  0
  4  5  1  0
  5  6  1  0
  6  7  2  0
  6  8  1  0
  8  9  1  0
  9 10  2  0
 10 11  1  0
 11 12  2  0
 12 13  1  0
 13 14  2  0
 14 15  1  0
 15 16  2  0
 16 17  1  0
 17 18  2  0
 17 19  1  0
 16 20  1  0
 15 21  1  0
 14 22  1  0
 12 23  1  0
 10 24  1  0
  8 25  1  0
  8 26  1  0
  5 27  1  0
 27 28  1  0
 28 29  1  0
 28 30  1  0
 28 31  1  0
 27 32  1  0
 32 33  1  0
 32 34  1  0
 27 35  1  1
  4 36  1  0
  4 37  1  0
  3 38  1  0
  3 39  1  0
  2 40  1  1
  1 41  1  0
  1 42  1  0
  1 43  1  0
 32  2  1  0
 18  9  1  0
 18 13  1  0
M  END
>  <cnnaffinities>  (84) 
[5.04398, 4.9852, 4.96048, 4.76702, 4.81248]

>  <score>  (84) 
5.04398

>  <index>  (84) 
86

>  <Smiles>  (84) 
C([C@]1(C(C(N(C(=O)C(c2c(nc(c3c(c(c(c(c23)[H])[H])[H])[H])[H])[H])([H])[H])[C@@](C([H])([H])[H])(C1([H])[H])[H])([H])[H])([H])[H])[H])([H])([H])[H]

>  <h>  (84) 
<NA>

>  <Training>  (84) 
True

>  <Success>  (84) 
True

>  <enamine_searched>  (84) 
False

>  <enamine_id>  (84) 
nan

$$$$

     RDKit          3D

 59 64  0  0  0  0  0  0  0  0999 V2000
   -7.9454   -3.6833  -24.0250 C   0  0  0  0  0  0  0  0  0  0  0  0
   -8.3348   -2.8443  -22.7993 C   0  0  1  0  0  0  0  0  0  0  0  0
   -7.1510   -2.6491  -21.8280 C   0  0  0  0  0  0  0  0  0  0  0  0
   -7.4264   -1.3740  -21.1926 N   0  0  0  0  0  0  0  0  0  0  0  0
   -6.6101   -0.8040  -20.1754 C   0  0  0  0  0  0  0  0  0  0  0  0
   -6.9032   -1.0473  -18.8600 C   0  0  0  0  0  0  0  0  0  0  0  0
   -6.1981   -0.5559  -17.8102 N   0  0  0  0  0  0  0  0  0  0  0  0
   -5.1669    0.2078  -18.0809 C   0  0  0  0  0  0  0  0  0  0  0  0
   -4.7369    0.5311  -19.3994 C   0  0  0  0  0  0  0  0  0  0  0  0
   -3.6059    1.3610  -19.6382 C   0  0  0  0  0  0  0  0  0  0  0  0
   -3.2128    1.6479  -20.9156 C   0  0  0  0  0  0  0  0  0  0  0  0
   -3.9282    1.1147  -22.0123 C   0  0  0  0  0  0  0  0  0  0  0  0
   -5.0243    0.3123  -21.8099 C   0  0  0  0  0  0  0  0  0  0  0  0
   -5.4700    0.0076  -20.4896 C   0  0  0  0  0  0  0  0  0  0  0  0
   -5.5646   -0.0907  -22.6628 H   0  0  0  0  0  0  0  0  0  0  0  0
   -3.6117    1.3556  -23.0239 H   0  0  0  0  0  0  0  0  0  0  0  0
   -2.3586    2.2970  -21.0943 H   0  0  0  0  0  0  0  0  0  0  0  0
   -3.0776    1.7709  -18.7800 H   0  0  0  0  0  0  0  0  0  0  0  0
   -4.6185    0.6133  -17.2287 H   0  0  0  0  0  0  0  0  0  0  0  0
   -7.7512   -1.6756  -18.5950 H   0  0  0  0  0  0  0  0  0  0  0  0
   -8.3540   -0.6079  -21.8603 C   0  0  0  0  0  0  0  0  0  0  0  0
   -8.6499    0.5285  -21.5367 O   0  0  0  0  0  0  0  0  0  0  0  0
   -8.8994   -1.4060  -23.0658 C   0  0  1  0  0  0  0  0  0  0  0  0
   -8.3328   -0.8020  -24.3759 C   0  0  0  0  0  0  0  0  0  0  0  0
   -8.8789    0.5120  -24.6472 N   0  0  0  0  0  0  0  0  0  0  0  0
   -7.9561    1.6188  -24.8518 C   0  0  0  0  0  0  0  0  0  0  0  0
   -6.9976    1.4106  -25.9850 C   0  0  0  0  0  0  0  0  0  0  0  0
   -5.6373    1.1703  -25.9808 C   0  0  0  0  0  0  0  0  0  0  0  0
   -5.3005    0.9758  -27.3345 C   0  0  0  0  0  0  0  0  0  0  0  0
   -6.3658    1.0970  -28.1165 N   0  0  0  0  0  0  0  0  0  0  0  0
   -7.3837    1.3676  -27.2853 N   0  0  0  0  0  0  0  0  0  0  0  0
   -8.7202    1.5353  -27.8161 C   0  0  0  0  0  0  0  0  0  0  0  0
   -9.1862    2.4388  -27.4052 H   0  0  0  0  0  0  0  0  0  0  0  0
   -8.6176    1.6240  -28.9011 H   0  0  0  0  0  0  0  0  0  0  0  0
   -9.3475    0.6700  -27.5702 H   0  0  0  0  0  0  0  0  0  0  0  0
   -4.3432    0.7351  -27.7859 H   0  0  0  0  0  0  0  0  0  0  0  0
   -5.0124    1.1162  -25.0977 H   0  0  0  0  0  0  0  0  0  0  0  0
   -8.5752    2.5095  -24.9961 H   0  0  0  0  0  0  0  0  0  0  0  0
   -7.3662    1.7559  -23.9333 H   0  0  0  0  0  0  0  0  0  0  0  0
  -10.2265    0.7186  -24.6547 C   0  0  0  0  0  0  0  0  0  0  0  0
  -10.7520    1.6798  -25.2106 O   0  0  0  0  0  0  0  0  0  0  0  0
  -11.0347   -0.3015  -23.9092 C   0  0  0  0  0  0  0  0  0  0  0  0
  -12.4251   -0.1858  -23.9541 C   0  0  0  0  0  0  0  0  0  0  0  0
  -13.2188   -0.9954  -23.1673 C   0  0  0  0  0  0  0  0  0  0  0  0
  -12.5928   -1.8987  -22.3167 C   0  0  0  0  0  0  0  0  0  0  0  0
  -13.3547   -2.6523  -21.5065 F   0  0  0  0  0  0  0  0  0  0  0  0
  -11.2210   -2.0472  -22.2653 C   0  0  0  0  0  0  0  0  0  0  0  0
  -10.4147   -1.2805  -23.1149 C   0  0  0  0  0  0  0  0  0  0  0  0
  -10.8138   -2.7390  -21.5367 H   0  0  0  0  0  0  0  0  0  0  0  0
  -14.3007   -0.9251  -23.1655 H   0  0  0  0  0  0  0  0  0  0  0  0
  -12.8485    0.5746  -24.6004 H   0  0  0  0  0  0  0  0  0  0  0  0
   -7.2485   -0.7017  -24.2880 H   0  0  0  0  0  0  0  0  0  0  0  0
   -8.5648   -1.4726  -25.2169 H   0  0  0  0  0  0  0  0  0  0  0  0
   -6.1933   -2.6337  -22.3731 H   0  0  0  0  0  0  0  0  0  0  0  0
   -7.0813   -3.4434  -21.0767 H   0  0  0  0  0  0  0  0  0  0  0  0
   -9.1196   -3.3805  -22.2597 H   0  0  0  0  0  0  0  0  0  0  0  0
   -8.7747   -3.7882  -24.7339 H   0  0  0  0  0  0  0  0  0  0  0  0
   -7.1034   -3.2333  -24.5663 H   0  0  0  0  0  0  0  0  0  0  0  0
   -7.6343   -4.6916  -23.7263 H   0  0  0  0  0  0  0  0  0  0  0  0
  1  2  1  0
  2  3  1  0
  3  4  1  0
  4  5  1  0
  5  6  2  0
  6  7  1  0
  7  8  2  0
  8  9  1  0
  9 10  2  0
 10 11  1  0
 11 12  2  0
 12 13  1  0
 13 14  2  0
 13 15  1  0
 12 16  1  0
 11 17  1  0
 10 18  1  0
  8 19  1  0
  6 20  1  0
  4 21  1  0
 21 22  2  0
 21 23  1  0
 23 24  1  6
 24 25  1  0
 25 26  1  0
 26 27  1  0
 27 28  2  0
 28 29  1  0
 29 30  2  0
 30 31  1  0
 31 32  1  0
 32 33  1  0
 32 34  1  0
 32 35  1  0
 29 36  1  0
 28 37  1  0
 26 38  1  0
 26 39  1  0
 25 40  1  0
 40 41  2  0
 40 42  1  0
 42 43  2  0
 43 44  1  0
 44 45  2  0
 45 46  1  0
 45 47  1  0
 47 48  2  0
 47 49  1  0
 44 50  1  0
 43 51  1  0
 24 52  1  0
 24 53  1  0
  3 54  1  0
  3 55  1  0
  2 56  1  1
  1 57  1  0
  1 58  1  0
  1 59  1  0
 23  2  1  0
 31 27  1  0
 48 42  1  0
 14  5  1  0
 48 23  1  0
 14  9  1  0
M  END
>  <cnnaffinities>  (85) 
[6.59217, 6.77086, 6.73383, 6.13098]

>  <score>  (85) 
6.59217

>  <index>  (85) 
87

>  <Smiles>  (85) 
C([C@]1(C(N(c2c(nc(c3c(c(c(c(c23)[H])[H])[H])[H])[H])[H])C(=O)[C@]21C(N(C(c1c(c(nn1C([H])([H])[H])[H])[H])([H])[H])C(=O)c1c(c(c(F)c(c21)[H])[H])[H])([H])[H])([H])[H])[H])([H])([H])[H]

>  <h>  (85) 
<NA>

>  <Training>  (85) 
True

>  <Success>  (85) 
True

>  <enamine_searched>  (85) 
False

>  <enamine_id>  (85) 
nan

$$$$

     RDKit          3D

 40 42  0  0  0  0  0  0  0  0999 V2000
   -9.1746    0.2285  -21.0755 O   0  0  0  0  0  0  0  0  0  0  0  0
   -8.3755   -0.3112  -21.8080 C   0  0  0  0  0  0  0  0  0  0  0  0
   -7.4438   -1.4108  -21.2736 C   0  0  0  0  0  0  0  0  0  0  0  0
   -6.5709   -0.8345  -20.1760 C   0  0  0  0  0  0  0  0  0  0  0  0
   -6.8774   -1.0406  -18.8567 C   0  0  0  0  0  0  0  0  0  0  0  0
   -6.1930   -0.5361  -17.7949 N   0  0  0  0  0  0  0  0  0  0  0  0
   -5.1572    0.2221  -18.0649 C   0  0  0  0  0  0  0  0  0  0  0  0
   -4.7233    0.5342  -19.3807 C   0  0  0  0  0  0  0  0  0  0  0  0
   -3.6021    1.3680  -19.6237 C   0  0  0  0  0  0  0  0  0  0  0  0
   -3.2129    1.6622  -20.9018 C   0  0  0  0  0  0  0  0  0  0  0  0
   -3.9318    1.1294  -21.9956 C   0  0  0  0  0  0  0  0  0  0  0  0
   -5.0193    0.3169  -21.7867 C   0  0  0  0  0  0  0  0  0  0  0  0
   -5.4499   -0.0024  -20.4724 C   0  0  0  0  0  0  0  0  0  0  0  0
   -5.5531   -0.0879  -22.6398 H   0  0  0  0  0  0  0  0  0  0  0  0
   -3.6157    1.3669  -23.0079 H   0  0  0  0  0  0  0  0  0  0  0  0
   -2.3588    2.3106  -21.0837 H   0  0  0  0  0  0  0  0  0  0  0  0
   -3.0677    1.7813  -18.7710 H   0  0  0  0  0  0  0  0  0  0  0  0
   -4.6039    0.6273  -17.2153 H   0  0  0  0  0  0  0  0  0  0  0  0
   -7.7291   -1.6607  -18.5816 H   0  0  0  0  0  0  0  0  0  0  0  0
   -8.0694   -2.2026  -20.8449 H   0  0  0  0  0  0  0  0  0  0  0  0
   -6.8350   -1.8470  -22.0752 H   0  0  0  0  0  0  0  0  0  0  0  0
   -8.1724    0.0940  -23.1318 N   0  0  0  0  0  0  0  0  0  0  0  0
   -8.3883    1.4982  -23.4578 C   0  0  0  0  0  0  0  0  0  0  0  0
   -7.4022    1.9412  -24.5369 C   0  0  0  0  0  0  0  0  0  0  0  0
   -7.4894    1.0309  -25.7608 C   0  0  0  0  0  0  0  0  0  0  0  0
   -6.5071    1.4241  -26.8477 C   0  0  0  0  0  0  0  0  0  0  0  0
   -5.2280    1.3789  -26.3660 F   0  0  0  0  0  0  0  0  0  0  0  0
   -6.7325    2.7058  -27.2624 F   0  0  0  0  0  0  0  0  0  0  0  0
   -6.5518    0.7738  -27.7344 H   0  0  0  0  0  0  0  0  0  0  0  0
   -7.2923   -0.4271  -25.3564 C   0  0  0  0  0  0  0  0  0  0  0  0
   -8.2703   -0.8212  -24.2617 C   0  0  0  0  0  0  0  0  0  0  0  0
   -9.2898   -0.8308  -24.6853 H   0  0  0  0  0  0  0  0  0  0  0  0
   -8.0773   -1.8320  -23.9097 H   0  0  0  0  0  0  0  0  0  0  0  0
   -7.4166   -1.0796  -26.2274 H   0  0  0  0  0  0  0  0  0  0  0  0
   -6.2688   -0.5684  -24.9970 H   0  0  0  0  0  0  0  0  0  0  0  0
   -8.4813    1.1522  -26.2146 H   0  0  0  0  0  0  0  0  0  0  0  0
   -7.5898    2.9799  -24.8236 H   0  0  0  0  0  0  0  0  0  0  0  0
   -6.3844    1.9121  -24.1306 H   0  0  0  0  0  0  0  0  0  0  0  0
   -8.2406    2.0714  -22.5433 H   0  0  0  0  0  0  0  0  0  0  0  0
   -9.4192    1.6988  -23.7880 H   0  0  0  0  0  0  0  0  0  0  0  0
  1  2  2  0
  2  3  1  0
  3  4  1  0
  4  5  2  0
  5  6  1  0
  6  7  2  0
  7  8  1  0
  8  9  2  0
  9 10  1  0
 10 11  2  0
 11 12  1  0
 12 13  2  0
 12 14  1  0
 11 15  1  0
 10 16  1  0
  9 17  1  0
  7 18  1  0
  5 19  1  0
  3 20  1  0
  3 21  1  0
  2 22  1  0
 22 23  1  0
 23 24  1  0
 24 25  1  0
 25 26  1  0
 26 27  1  0
 26 28  1  0
 26 29  1  0
 25 30  1  0
 30 31  1  0
 31 32  1  0
 31 33  1  0
 30 34  1  0
 30 35  1  0
 25 36  1  0
 24 37  1  0
 24 38  1  0
 23 39  1  0
 23 40  1  0
 13  4  1  0
 31 22  1  0
 13  8  1  0
M  END
>  <cnnaffinities>  (86) 
[4.56586, 4.56623, 4.87965, 4.87966, 4.79731, 4.87848, 4.60269, 4.70854, 4.70851, 4.70851, 4.73417, 4.43472, 4.4348]

>  <score>  (86) 
4.56586

>  <index>  (86) 
88

>  <Smiles>  (86) 
O=C(C(c1c(nc(c2c(c(c(c(c12)[H])[H])[H])[H])[H])[H])([H])[H])N1C(C(C(C(F)(F)[H])(C(C1([H])[H])([H])[H])[H])([H])[H])([H])[H]

>  <h>  (86) 
<NA>

>  <Training>  (86) 
True

>  <Success>  (86) 
True

>  <enamine_searched>  (86) 
False

>  <enamine_id>  (86) 
nan

$$$$

     RDKit          3D

 43 45  0  0  0  0  0  0  0  0999 V2000
   -8.7209    1.3573  -26.5379 C   0  0  0  0  0  0  0  0  0  0  0  0
   -7.4241    1.1175  -25.7539 C   0  0  0  0  0  0  0  0  0  0  0  0
   -6.2432    1.4933  -26.6547 C   0  0  0  0  0  0  0  0  0  0  0  0
   -6.2925    2.5453  -26.9587 H   0  0  0  0  0  0  0  0  0  0  0  0
   -6.2307    0.8850  -27.5668 H   0  0  0  0  0  0  0  0  0  0  0  0
   -5.2855    1.3411  -26.1448 H   0  0  0  0  0  0  0  0  0  0  0  0
   -7.2938   -0.3579  -25.3506 C   0  0  0  0  0  0  0  0  0  0  0  0
   -8.2738   -0.7736  -24.2602 C   0  0  0  0  0  0  0  0  0  0  0  0
   -8.1731    0.1176  -23.1113 N   0  0  0  0  0  0  0  0  0  0  0  0
   -8.3850   -0.3131  -21.7966 C   0  0  0  0  0  0  0  0  0  0  0  0
   -9.1951    0.2067  -21.0609 O   0  0  0  0  0  0  0  0  0  0  0  0
   -7.4457   -1.4117  -21.2714 C   0  0  0  0  0  0  0  0  0  0  0  0
   -6.5717   -0.8341  -20.1757 C   0  0  0  0  0  0  0  0  0  0  0  0
   -6.8779   -1.0405  -18.8555 C   0  0  0  0  0  0  0  0  0  0  0  0
   -6.1924   -0.5363  -17.7942 N   0  0  0  0  0  0  0  0  0  0  0  0
   -5.1569    0.2222  -18.0640 C   0  0  0  0  0  0  0  0  0  0  0  0
   -4.7233    0.5348  -19.3805 C   0  0  0  0  0  0  0  0  0  0  0  0
   -3.6018    1.3689  -19.6223 C   0  0  0  0  0  0  0  0  0  0  0  0
   -3.2120    1.6634  -20.9009 C   0  0  0  0  0  0  0  0  0  0  0  0
   -3.9313    1.1292  -21.9943 C   0  0  0  0  0  0  0  0  0  0  0  0
   -5.0189    0.3168  -21.7852 C   0  0  0  0  0  0  0  0  0  0  0  0
   -5.4503   -0.0016  -20.4712 C   0  0  0  0  0  0  0  0  0  0  0  0
   -5.5528   -0.0864  -22.6385 H   0  0  0  0  0  0  0  0  0  0  0  0
   -3.6148    1.3674  -23.0056 H   0  0  0  0  0  0  0  0  0  0  0  0
   -2.3591    2.3112  -21.0843 H   0  0  0  0  0  0  0  0  0  0  0  0
   -3.0662    1.7823  -18.7708 H   0  0  0  0  0  0  0  0  0  0  0  0
   -4.6030    0.6277  -17.2154 H   0  0  0  0  0  0  0  0  0  0  0  0
   -7.7294   -1.6607  -18.5824 H   0  0  0  0  0  0  0  0  0  0  0  0
   -6.8371   -1.8405  -22.0772 H   0  0  0  0  0  0  0  0  0  0  0  0
   -8.0662   -2.2083  -20.8445 H   0  0  0  0  0  0  0  0  0  0  0  0
   -8.3839    1.5276  -23.4124 C   0  0  0  0  0  0  0  0  0  0  0  0
   -7.3927    1.9817  -24.4851 C   0  0  0  0  0  0  0  0  0  0  0  0
   -7.5794    3.0270  -24.7521 H   0  0  0  0  0  0  0  0  0  0  0  0
   -6.3829    1.9551  -24.0543 H   0  0  0  0  0  0  0  0  0  0  0  0
   -9.4180    1.7507  -23.7174 H   0  0  0  0  0  0  0  0  0  0  0  0
   -8.2173    2.0830  -22.4895 H   0  0  0  0  0  0  0  0  0  0  0  0
   -8.0668   -1.7877  -23.9236 H   0  0  0  0  0  0  0  0  0  0  0  0
   -9.2978   -0.7966  -24.6732 H   0  0  0  0  0  0  0  0  0  0  0  0
   -6.2780   -0.5393  -24.9816 H   0  0  0  0  0  0  0  0  0  0  0  0
   -7.4231   -0.9920  -26.2346 H   0  0  0  0  0  0  0  0  0  0  0  0
   -9.6197    1.1188  -25.9641 H   0  0  0  0  0  0  0  0  0  0  0  0
   -8.7445    0.7468  -27.4469 H   0  0  0  0  0  0  0  0  0  0  0  0
   -8.8008    2.4058  -26.8447 H   0  0  0  0  0  0  0  0  0  0  0  0
  1  2  1  0
  2  3  1  0
  3  4  1  0
  3  5  1  0
  3  6  1  0
  2  7  1  0
  7  8  1  0
  8  9  1  0
  9 10  1  0
 10 11  2  0
 10 12  1  0
 12 13  1  0
 13 14  2  0
 14 15  1  0
 15 16  2  0
 16 17  1  0
 17 18  2  0
 18 19  1  0
 19 20  2  0
 20 21  1  0
 21 22  2  0
 21 23  1  0
 20 24  1  0
 19 25  1  0
 18 26  1  0
 16 27  1  0
 14 28  1  0
 12 29  1  0
 12 30  1  0
  9 31  1  0
 31 32  1  0
 32 33  1  0
 32 34  1  0
 31 35  1  0
 31 36  1  0
  8 37  1  0
  8 38  1  0
  7 39  1  0
  7 40  1  0
  1 41  1  0
  1 42  1  0
  1 43  1  0
 32  2  1  0
 22 13  1  0
 22 17  1  0
M  END
>  <cnnaffinities>  (87) 
[4.66806, 4.66801, 4.66809, 4.66809, 4.99567, 4.92311, 4.39939, 4.39937, 4.39937, 4.94438, 4.94436, 4.94435, 4.94289, 4.94289, 4.94289]

>  <score>  (87) 
4.66806

>  <index>  (87) 
89

>  <Smiles>  (87) 
C(C1(C([H])([H])[H])C(C(N(C(=O)C(c2c(nc(c3c(c(c(c(c23)[H])[H])[H])[H])[H])[H])([H])[H])C(C1([H])[H])([H])[H])([H])[H])([H])[H])([H])([H])[H]

>  <h>  (87) 
<NA>

>  <Training>  (87) 
True

>  <Success>  (87) 
True

>  <enamine_searched>  (87) 
False

>  <enamine_id>  (87) 
nan

$$$$

     RDKit          3D

 64 68  0  0  0  0  0  0  0  0999 V2000
   -7.6110    3.1486  -21.8974 C   0  0  0  0  0  0  0  0  0  0  0  0
   -8.7423    2.6969  -22.6932 N   0  0  0  0  0  0  0  0  0  0  0  0
   -8.4037    1.8901  -23.7460 C   0  0  0  0  0  0  0  0  0  0  0  0
   -7.2354    1.6596  -24.0213 O   0  0  0  0  0  0  0  0  0  0  0  0
   -9.5406    1.2871  -24.5675 C   0  0  0  0  0  0  0  0  0  0  0  0
  -10.0203    0.0685  -23.9521 N   0  0  0  0  0  0  0  0  0  0  0  0
   -9.1503   -1.0990  -23.9336 C   0  0  0  0  0  0  0  0  0  0  0  0
   -9.2695   -1.8580  -22.5934 C   0  0  2  0  0  0  0  0  0  0  0  0
   -8.6803   -0.9769  -21.4671 C   0  0  0  0  0  0  0  0  0  0  0  0
   -9.2111   -0.0188  -20.9390 O   0  0  0  0  0  0  0  0  0  0  0  0
   -7.4081   -1.4261  -21.1834 N   0  0  0  0  0  0  0  0  0  0  0  0
   -6.6186   -0.8298  -20.1696 C   0  0  0  0  0  0  0  0  0  0  0  0
   -6.9303   -1.0513  -18.8502 C   0  0  0  0  0  0  0  0  0  0  0  0
   -6.2301   -0.5559  -17.8017 N   0  0  0  0  0  0  0  0  0  0  0  0
   -5.1914    0.1987  -18.0754 C   0  0  0  0  0  0  0  0  0  0  0  0
   -4.7592    0.5149  -19.3951 C   0  0  0  0  0  0  0  0  0  0  0  0
   -3.6384    1.3537  -19.6355 C   0  0  0  0  0  0  0  0  0  0  0  0
   -3.2589    1.6542  -20.9146 C   0  0  0  0  0  0  0  0  0  0  0  0
   -3.9830    1.1426  -22.0130 C   0  0  0  0  0  0  0  0  0  0  0  0
   -5.0803    0.3364  -21.8091 C   0  0  0  0  0  0  0  0  0  0  0  0
   -5.4894   -0.0104  -20.4901 C   0  0  0  0  0  0  0  0  0  0  0  0
   -5.6527   -0.0034  -22.6681 H   0  0  0  0  0  0  0  0  0  0  0  0
   -3.6741    1.3895  -23.0252 H   0  0  0  0  0  0  0  0  0  0  0  0
   -2.4022    2.2970  -21.0932 H   0  0  0  0  0  0  0  0  0  0  0  0
   -3.1046    1.7576  -18.7789 H   0  0  0  0  0  0  0  0  0  0  0  0
   -4.6232    0.6002  -17.2342 H   0  0  0  0  0  0  0  0  0  0  0  0
   -7.7903   -1.6687  -18.6016 H   0  0  0  0  0  0  0  0  0  0  0  0
   -6.9963   -2.5717  -21.9686 C   0  0  0  0  0  0  0  0  0  0  0  0
   -8.3300   -3.0939  -22.5331 C   0  0  2  0  0  0  0  0  0  0  0  0
   -8.1908   -3.9018  -23.8218 C   0  0  0  0  0  0  0  0  0  0  0  0
   -7.3964   -5.4727  -23.5037 S   0  0  0  0  0  0  0  0  0  0  0  0
   -8.2438   -6.2380  -22.5910 O   0  0  0  0  0  0  0  0  0  0  0  0
   -5.9969   -5.2488  -23.1678 O   0  0  0  0  0  0  0  0  0  0  0  0
   -7.3822   -6.1370  -25.0358 N   0  0  0  0  0  0  0  0  0  0  0  0
   -8.6113   -6.6624  -25.6235 C   0  0  0  0  0  0  0  0  0  0  0  0
   -9.2636   -5.8433  -25.9389 H   0  0  0  0  0  0  0  0  0  0  0  0
   -9.1598   -7.3179  -24.9426 H   0  0  0  0  0  0  0  0  0  0  0  0
   -8.3512   -7.2249  -26.5252 H   0  0  0  0  0  0  0  0  0  0  0  0
   -6.5976   -6.7754  -25.0873 H   0  0  0  0  0  0  0  0  0  0  0  0
   -7.5916   -3.3867  -24.5776 H   0  0  0  0  0  0  0  0  0  0  0  0
   -9.1722   -4.1118  -24.2582 H   0  0  0  0  0  0  0  0  0  0  0  0
   -8.7288   -3.7771  -21.7835 H   0  0  0  0  0  0  0  0  0  0  0  0
   -6.4972   -3.3147  -21.3429 H   0  0  0  0  0  0  0  0  0  0  0  0
   -6.3006   -2.2860  -22.7715 H   0  0  0  0  0  0  0  0  0  0  0  0
  -10.7496   -2.1274  -22.3771 C   0  0  0  0  0  0  0  0  0  0  0  0
  -11.2072   -3.2193  -21.6384 C   0  0  0  0  0  0  0  0  0  0  0  0
  -12.5516   -3.3281  -21.3408 C   0  0  0  0  0  0  0  0  0  0  0  0
  -12.9469   -4.3271  -20.5366 F   0  0  0  0  0  0  0  0  0  0  0  0
  -13.5142   -2.4411  -21.8014 C   0  0  0  0  0  0  0  0  0  0  0  0
  -13.0763   -1.3864  -22.5709 C   0  0  0  0  0  0  0  0  0  0  0  0
  -11.7194   -1.2204  -22.8371 C   0  0  0  0  0  0  0  0  0  0  0  0
  -11.3343    0.0051  -23.5941 C   0  0  0  0  0  0  0  0  0  0  0  0
  -12.1307    0.8951  -23.8569 O   0  0  0  0  0  0  0  0  0  0  0  0
  -13.7639   -0.6450  -22.9589 H   0  0  0  0  0  0  0  0  0  0  0  0
  -14.5561   -2.5858  -21.5363 H   0  0  0  0  0  0  0  0  0  0  0  0
  -10.5427   -3.9779  -21.2438 H   0  0  0  0  0  0  0  0  0  0  0  0
   -9.4198   -1.7792  -24.7510 H   0  0  0  0  0  0  0  0  0  0  0  0
   -8.1236   -0.7617  -24.1009 H   0  0  0  0  0  0  0  0  0  0  0  0
  -10.3985    1.9602  -24.6873 H   0  0  0  0  0  0  0  0  0  0  0  0
   -9.1279    1.0550  -25.5536 H   0  0  0  0  0  0  0  0  0  0  0  0
   -9.6047    2.5200  -22.1845 H   0  0  0  0  0  0  0  0  0  0  0  0
   -7.9176    3.9600  -21.2330 H   0  0  0  0  0  0  0  0  0  0  0  0
   -7.1377    2.3165  -21.3429 H   0  0  0  0  0  0  0  0  0  0  0  0
   -6.8739    3.5490  -22.5961 H   0  0  0  0  0  0  0  0  0  0  0  0
  1  2  1  0
  2  3  1  0
  3  4  2  0
  3  5  1  0
  5  6  1  0
  6  7  1  0
  8  7  1  6
  8  9  1  0
  9 10  2  0
  9 11  1  0
 11 12  1  0
 12 13  2  0
 13 14  1  0
 14 15  2  0
 15 16  1  0
 16 17  2  0
 17 18  1  0
 18 19  2  0
 19 20  1  0
 20 21  2  0
 20 22  1  0
 19 23  1  0
 18 24  1  0
 17 25  1  0
 15 26  1  0
 13 27  1  0
 11 28  1  0
 28 29  1  0
 29 30  1  0
 30 31  1  0
 31 32  2  0
 31 33  2  0
 31 34  1  0
 34 35  1  0
 35 36  1  0
 35 37  1  0
 35 38  1  0
 34 39  1  0
 30 40  1  0
 30 41  1  0
 29 42  1  1
 28 43  1  0
 28 44  1  0
  8 45  1  0
 45 46  2  0
 46 47  1  0
 47 48  1  0
 47 49  2  0
 49 50  1  0
 50 51  2  0
 51 52  1  0
 52 53  2  0
 50 54  1  0
 49 55  1  0
 46 56  1  0
  7 57  1  0
  7 58  1  0
  5 59  1  0
  5 60  1  0
  2 61  1  0
  1 62  1  0
  1 63  1  0
  1 64  1  0
 52  6  1  0
 29  8  1  0
 51 45  1  0
 21 12  1  0
 21 16  1  0
M  END
>  <cnnaffinities>  (88) 
[6.65997, 6.34168]

>  <score>  (88) 
6.65997

>  <index>  (88) 
90

>  <Smiles>  (88) 
C(N(C(=O)C(N1C([C@@]2(C(=O)N(c3c(nc(c4c(c(c(c(c34)[H])[H])[H])[H])[H])[H])C([C@@]2(C(S(=O)(=O)N(C([H])([H])[H])[H])([H])[H])[H])([H])[H])c2c(c(F)c(c(c2C1=O)[H])[H])[H])([H])[H])([H])[H])[H])([H])([H])[H]

>  <h>  (88) 
<NA>

>  <Training>  (88) 
True

>  <Success>  (88) 
True

>  <enamine_searched>  (88) 
False

>  <enamine_id>  (88) 
nan

$$$$

     RDKit          3D

 66 71  0  0  0  0  0  0  0  0999 V2000
   -7.5686    3.3139  -21.8553 C   0  0  0  0  0  0  0  0  0  0  0  0
   -8.6303    2.8670  -22.7429 N   0  0  0  0  0  0  0  0  0  0  0  0
   -8.2383    2.0591  -23.7743 C   0  0  0  0  0  0  0  0  0  0  0  0
   -7.0581    1.8099  -23.9930 O   0  0  0  0  0  0  0  0  0  0  0  0
   -9.3439    1.4855  -24.6535 C   0  0  0  0  0  0  0  0  0  0  0  0
   -9.9060    0.2969  -24.0549 N   0  0  0  0  0  0  0  0  0  0  0  0
   -9.0988   -0.9060  -24.0121 C   0  0  0  0  0  0  0  0  0  0  0  0
   -9.2788   -1.6615  -22.6792 C   0  0  2  0  0  0  0  0  0  0  0  0
   -8.6546   -0.8439  -21.5240 C   0  0  0  0  0  0  0  0  0  0  0  0
   -9.1301    0.1449  -20.9958 O   0  0  0  0  0  0  0  0  0  0  0  0
   -7.4328   -1.3917  -21.2040 N   0  0  0  0  0  0  0  0  0  0  0  0
   -6.6213   -0.8251  -20.1828 C   0  0  0  0  0  0  0  0  0  0  0  0
   -6.9297   -1.0534  -18.8649 C   0  0  0  0  0  0  0  0  0  0  0  0
   -6.2282   -0.5604  -17.8128 N   0  0  0  0  0  0  0  0  0  0  0  0
   -5.1925    0.1964  -18.0854 C   0  0  0  0  0  0  0  0  0  0  0  0
   -4.7585    0.5175  -19.4007 C   0  0  0  0  0  0  0  0  0  0  0  0
   -3.6359    1.3556  -19.6375 C   0  0  0  0  0  0  0  0  0  0  0  0
   -3.2487    1.6559  -20.9131 C   0  0  0  0  0  0  0  0  0  0  0  0
   -3.9684    1.1393  -22.0136 C   0  0  0  0  0  0  0  0  0  0  0  0
   -5.0662    0.3356  -21.8149 C   0  0  0  0  0  0  0  0  0  0  0  0
   -5.4874   -0.0070  -20.4995 C   0  0  0  0  0  0  0  0  0  0  0  0
   -5.6284   -0.0160  -22.6769 H   0  0  0  0  0  0  0  0  0  0  0  0
   -3.6535    1.3828  -23.0253 H   0  0  0  0  0  0  0  0  0  0  0  0
   -2.3912    2.2998  -21.0899 H   0  0  0  0  0  0  0  0  0  0  0  0
   -3.1057    1.7577  -18.7776 H   0  0  0  0  0  0  0  0  0  0  0  0
   -4.6228    0.5936  -17.2428 H   0  0  0  0  0  0  0  0  0  0  0  0
   -7.7938   -1.6656  -18.6111 H   0  0  0  0  0  0  0  0  0  0  0  0
   -7.1085   -2.5817  -21.9737 C   0  0  0  0  0  0  0  0  0  0  0  0
   -8.4448   -2.9691  -22.6282 C   0  0  2  0  0  0  0  0  0  0  0  0
   -8.2496   -3.7511  -23.9296 C   0  0  0  0  0  0  0  0  0  0  0  0
   -9.4913   -4.2327  -24.4853 N   0  0  0  0  0  0  0  0  0  0  0  0
   -9.5806   -4.8920  -25.6819 C   0  0  0  0  0  0  0  0  0  0  0  0
   -8.4471   -5.2099  -26.4760 C   0  0  0  0  0  0  0  0  0  0  0  0
   -8.5679   -5.8385  -27.6365 N   0  0  0  0  0  0  0  0  0  0  0  0
   -9.8034   -6.1717  -28.0310 C   0  0  0  0  0  0  0  0  0  0  0  0
  -10.9064   -5.8667  -27.2516 C   0  0  0  0  0  0  0  0  0  0  0  0
  -10.8072   -5.2328  -26.0832 N   0  0  0  0  0  0  0  0  0  0  0  0
  -11.9162   -6.1333  -27.5638 H   0  0  0  0  0  0  0  0  0  0  0  0
   -9.9126   -6.6899  -28.9814 H   0  0  0  0  0  0  0  0  0  0  0  0
   -7.4330   -4.9487  -26.1622 H   0  0  0  0  0  0  0  0  0  0  0  0
  -10.3801   -4.0368  -24.0409 H   0  0  0  0  0  0  0  0  0  0  0  0
   -7.5949   -4.6118  -23.7402 H   0  0  0  0  0  0  0  0  0  0  0  0
   -7.7232   -3.1300  -24.6699 H   0  0  0  0  0  0  0  0  0  0  0  0
   -8.9509   -3.6460  -21.9396 H   0  0  0  0  0  0  0  0  0  0  0  0
   -6.3427   -2.3649  -22.7350 H   0  0  0  0  0  0  0  0  0  0  0  0
   -6.7278   -3.3743  -21.3180 H   0  0  0  0  0  0  0  0  0  0  0  0
  -10.7687   -1.8453  -22.4762 C   0  0  0  0  0  0  0  0  0  0  0  0
  -11.2719   -2.8979  -21.7088 C   0  0  0  0  0  0  0  0  0  0  0  0
  -12.6248   -2.9765  -21.4358 C   0  0  0  0  0  0  0  0  0  0  0  0
  -13.1861   -4.2863  -20.4384 Cl  0  0  0  0  0  0  0  0  0  0  0  0
  -13.5349   -2.0255  -21.8934 C   0  0  0  0  0  0  0  0  0  0  0  0
  -13.0499   -0.9984  -22.6778 C   0  0  0  0  0  0  0  0  0  0  0  0
  -11.6888   -0.9006  -22.9624 C   0  0  0  0  0  0  0  0  0  0  0  0
  -11.2394    0.2726  -23.7703 C   0  0  0  0  0  0  0  0  0  0  0  0
  -12.0035    1.1568  -24.1352 O   0  0  0  0  0  0  0  0  0  0  0  0
  -13.7142   -0.2358  -23.0674 H   0  0  0  0  0  0  0  0  0  0  0  0
  -14.5739   -2.0846  -21.5810 H   0  0  0  0  0  0  0  0  0  0  0  0
  -10.6333   -3.6393  -21.2359 H   0  0  0  0  0  0  0  0  0  0  0  0
   -8.0581   -0.6131  -24.1589 H   0  0  0  0  0  0  0  0  0  0  0  0
   -9.3860   -1.5677  -24.8377 H   0  0  0  0  0  0  0  0  0  0  0  0
  -10.1640    2.1972  -24.7948 H   0  0  0  0  0  0  0  0  0  0  0  0
   -8.8783    1.2401  -25.6146 H   0  0  0  0  0  0  0  0  0  0  0  0
   -9.5441    2.7304  -22.3243 H   0  0  0  0  0  0  0  0  0  0  0  0
   -7.9533    3.9774  -21.0756 H   0  0  0  0  0  0  0  0  0  0  0  0
   -7.0502    2.4585  -21.3960 H   0  0  0  0  0  0  0  0  0  0  0  0
   -6.8327    3.8589  -22.4469 H   0  0  0  0  0  0  0  0  0  0  0  0
  1  2  1  0
  2  3  1  0
  3  4  2  0
  3  5  1  0
  5  6  1  0
  6  7  1  0
  8  7  1  6
  8  9  1  0
  9 10  2  0
  9 11  1  0
 11 12  1  0
 12 13  2  0
 13 14  1  0
 14 15  2  0
 15 16  1  0
 16 17  2  0
 17 18  1  0
 18 19  2  0
 19 20  1  0
 20 21  2  0
 20 22  1  0
 19 23  1  0
 18 24  1  0
 17 25  1  0
 15 26  1  0
 13 27  1  0
 11 28  1  0
 28 29  1  0
 29 30  1  0
 30 31  1  0
 31 32  1  0
 32 33  2  0
 33 34  1  0
 34 35  2  0
 35 36  1  0
 36 37  2  0
 36 38  1  0
 35 39  1  0
 33 40  1  0
 31 41  1  0
 30 42  1  0
 30 43  1  0
 29 44  1  1
 28 45  1  0
 28 46  1  0
  8 47  1  0
 47 48  2  0
 48 49  1  0
 49 50  1  0
 49 51  2  0
 51 52  1  0
 52 53  2  0
 53 54  1  0
 54 55  2  0
 52 56  1  0
 51 57  1  0
 48 58  1  0
  7 59  1  0
  7 60  1  0
  5 61  1  0
  5 62  1  0
  2 63  1  0
  1 64  1  0
  1 65  1  0
  1 66  1  0
 54  6  1  0
 29  8  1  0
 37 32  1  0
 53 47  1  0
 21 12  1  0
 21 16  1  0
M  END
>  <cnnaffinities>  (89) 
[6.25307, 6.9189]

>  <score>  (89) 
6.25307

>  <index>  (89) 
91

>  <Smiles>  (89) 
C(N(C(=O)C(N1C([C@@]2(C(=O)N(c3c(nc(c4c(c(c(c(c34)[H])[H])[H])[H])[H])[H])C([C@@]2(C(N(c2c(nc(c(n2)[H])[H])[H])[H])([H])[H])[H])([H])[H])c2c(c(Cl)c(c(c2C1=O)[H])[H])[H])([H])[H])([H])[H])[H])([H])([H])[H]

>  <h>  (89) 
<NA>

>  <Training>  (89) 
True

>  <Success>  (89) 
True

>  <enamine_searched>  (89) 
False

>  <enamine_id>  (89) 
nan

$$$$

     RDKit          3D

 60 65  0  0  0  0  0  0  0  0999 V2000
  -12.3749   -2.0516  -22.6438 C   0  0  0  0  0  0  0  0  0  0  0  0
  -11.3614   -2.1696  -21.6773 O   0  0  0  0  0  0  0  0  0  0  0  0
  -10.2352   -2.9090  -22.0967 C   0  0  0  0  0  0  0  0  0  0  0  0
   -9.1420   -1.9814  -22.6654 C   0  0  1  0  0  0  0  0  0  0  0  0
   -8.6829   -0.9882  -21.5775 C   0  0  0  0  0  0  0  0  0  0  0  0
   -7.3688   -1.4485  -21.1963 N   0  0  0  0  0  0  0  0  0  0  0  0
   -6.5890   -0.8430  -20.1840 C   0  0  0  0  0  0  0  0  0  0  0  0
   -6.9221   -1.0452  -18.8701 C   0  0  0  0  0  0  0  0  0  0  0  0
   -6.2396   -0.5387  -17.8159 N   0  0  0  0  0  0  0  0  0  0  0  0
   -5.1959    0.2108  -18.0861 C   0  0  0  0  0  0  0  0  0  0  0  0
   -4.7520    0.5162  -19.4053 C   0  0  0  0  0  0  0  0  0  0  0  0
   -3.6249    1.3497  -19.6301 C   0  0  0  0  0  0  0  0  0  0  0  0
   -3.2344    1.6576  -20.9032 C   0  0  0  0  0  0  0  0  0  0  0  0
   -3.9542    1.1496  -22.0095 C   0  0  0  0  0  0  0  0  0  0  0  0
   -5.0474    0.3395  -21.8244 C   0  0  0  0  0  0  0  0  0  0  0  0
   -5.4671   -0.0112  -20.5036 C   0  0  0  0  0  0  0  0  0  0  0  0
   -5.5936   -0.0365  -22.6920 H   0  0  0  0  0  0  0  0  0  0  0  0
   -3.6380    1.4119  -23.0153 H   0  0  0  0  0  0  0  0  0  0  0  0
   -2.3773    2.3038  -21.0738 H   0  0  0  0  0  0  0  0  0  0  0  0
   -3.1003    1.7500  -18.7663 H   0  0  0  0  0  0  0  0  0  0  0  0
   -4.6415    0.6207  -17.2406 H   0  0  0  0  0  0  0  0  0  0  0  0
   -7.7781   -1.6742  -18.6281 H   0  0  0  0  0  0  0  0  0  0  0  0
   -6.8437   -2.4164  -22.0142 C   0  0  0  0  0  0  0  0  0  0  0  0
   -5.7489   -2.9145  -21.8523 O   0  0  0  0  0  0  0  0  0  0  0  0
   -7.8433   -2.6932  -23.1548 C   0  0  1  0  0  0  0  0  0  0  0  0
   -8.0195   -4.2154  -23.3585 C   0  0  0  0  0  0  0  0  0  0  0  0
   -6.8221   -4.8395  -23.8928 N   0  0  0  0  0  0  0  0  0  0  0  0
   -6.3655   -6.1265  -23.3591 C   0  0  0  0  0  0  0  0  0  0  0  0
   -5.1940   -6.0650  -22.4328 C   0  0  0  0  0  0  0  0  0  0  0  0
   -3.7706   -5.9348  -22.7037 C   0  0  0  0  0  0  0  0  0  0  0  0
   -3.8058   -5.9875  -22.7512 N   0  0  0  0  0  0  0  0  0  0  0  0
   -4.8794   -5.6529  -20.0756 N   0  0  0  0  0  0  0  0  0  0  0  0
   -5.5830   -5.8810  -21.1258 C   0  0  0  0  0  0  0  0  0  0  0  0
   -6.6751   -5.9305  -20.9818 H   0  0  0  0  0  0  0  0  0  0  0  0
   -5.5054   -5.6129  -19.2843 H   0  0  0  0  0  0  0  0  0  0  0  0
   -3.7065   -5.9910  -23.8739 H   0  0  0  0  0  0  0  0  0  0  0  0
   -7.1855   -6.5645  -22.7857 H   0  0  0  0  0  0  0  0  0  0  0  0
   -6.1456   -6.7694  -24.2206 H   0  0  0  0  0  0  0  0  0  0  0  0
   -6.1822   -4.3186  -24.9829 C   0  0  0  0  0  0  0  0  0  0  0  0
   -5.3615   -4.9609  -25.6335 O   0  0  0  0  0  0  0  0  0  0  0  0
   -6.5181   -2.8901  -25.3174 C   0  0  0  0  0  0  0  0  0  0  0  0
   -5.9846   -2.3475  -26.4874 C   0  0  0  0  0  0  0  0  0  0  0  0
   -6.1784   -1.0153  -26.7996 C   0  0  0  0  0  0  0  0  0  0  0  0
   -6.9103   -0.2204  -25.9211 C   0  0  0  0  0  0  0  0  0  0  0  0
   -7.1291    1.4716  -26.2871 Cl  0  0  0  0  0  0  0  0  0  0  0  0
   -7.4581   -0.7461  -24.7623 C   0  0  0  0  0  0  0  0  0  0  0  0
   -7.2931   -2.1042  -24.4541 C   0  0  0  0  0  0  0  0  0  0  0  0
   -8.0076   -0.0713  -24.1148 H   0  0  0  0  0  0  0  0  0  0  0  0
   -5.7587   -0.5830  -27.6998 H   0  0  0  0  0  0  0  0  0  0  0  0
   -5.3996   -2.9985  -27.1298 H   0  0  0  0  0  0  0  0  0  0  0  0
   -8.2565   -4.6875  -22.4028 H   0  0  0  0  0  0  0  0  0  0  0  0
   -8.8541   -4.3772  -24.0580 H   0  0  0  0  0  0  0  0  0  0  0  0
   -8.6508    0.0491  -21.9325 H   0  0  0  0  0  0  0  0  0  0  0  0
   -9.3598   -1.0076  -20.7294 H   0  0  0  0  0  0  0  0  0  0  0  0
   -9.6108   -1.4570  -23.5054 H   0  0  0  0  0  0  0  0  0  0  0  0
  -10.5403   -3.6692  -22.8313 H   0  0  0  0  0  0  0  0  0  0  0  0
   -9.8556   -3.4314  -21.2105 H   0  0  0  0  0  0  0  0  0  0  0  0
  -12.8396   -3.0256  -22.8672 H   0  0  0  0  0  0  0  0  0  0  0  0
  -13.1363   -1.3863  -22.2274 H   0  0  0  0  0  0  0  0  0  0  0  0
  -12.0083   -1.6192  -23.5885 H   0  0  0  0  0  0  0  0  0  0  0  0
  1  2  1  0
  2  3  1  0
  3  4  1  0
  4  5  1  0
  5  6  1  0
  6  7  1  0
  7  8  2  0
  8  9  1  0
  9 10  2  0
 10 11  1  0
 11 12  2  0
 12 13  1  0
 13 14  2  0
 14 15  1  0
 15 16  2  0
 15 17  1  0
 14 18  1  0
 13 19  1  0
 12 20  1  0
 10 21  1  0
  8 22  1  0
  6 23  1  0
 23 24  2  0
 23 25  1  0
 25 26  1  6
 26 27  1  0
 27 28  1  0
 28 29  1  0
 29 30  1  0
 30 31  2  0
 31 32  1  0
 32 33  1  0
 33 34  1  0
 32 35  1  0
 30 36  1  0
 28 37  1  0
 28 38  1  0
 27 39  1  0
 39 40  2  0
 39 41  1  0
 41 42  2  0
 42 43  1  0
 43 44  2  0
 44 45  1  0
 44 46  1  0
 46 47  2  0
 46 48  1  0
 43 49  1  0
 42 50  1  0
 26 51  1  0
 26 52  1  0
  5 53  1  0
  5 54  1  0
  4 55  1  6
  3 56  1  0
  3 57  1  0
  1 58  1  0
  1 59  1  0
  1 60  1  0
 25  4  1  0
 33 29  2  0
 47 41  1  0
 16  7  1  0
 47 25  1  0
 16 11  1  0
M  END
>  <cnnaffinities>  (90) 
[6.04374]

>  <score>  (90) 
6.04374

>  <index>  (90) 
92

>  <Smiles>  (90) 
C(OC([C@]1(C(N(c2c(nc(c3c(c(c(c(c23)[H])[H])[H])[H])[H])[H])C(=O)[C@]21C(N(C(c1c(nn(c1[H])[H])[H])([H])[H])C(=O)c1c(c(c(Cl)c(c21)[H])[H])[H])([H])[H])([H])[H])[H])([H])[H])([H])([H])[H]

>  <h>  (90) 
<NA>

>  <Training>  (90) 
True

>  <Success>  (90) 
True

>  <enamine_searched>  (90) 
False

>  <enamine_id>  (90) 
nan

$$$$

     RDKit          3D

 62 67  0  0  0  0  0  0  0  0999 V2000
  -11.3178    4.3034  -25.2329 C   0  0  0  0  0  0  0  0  0  0  0  0
   -9.8232    4.1746  -25.5294 C   0  0  0  0  0  0  0  0  0  0  0  0
   -9.0688    3.5941  -24.4254 N   0  0  0  0  0  0  0  0  0  0  0  0
   -8.4902    4.4127  -23.5346 N   0  0  0  0  0  0  0  0  0  0  0  0
   -7.9048    3.6169  -22.6473 C   0  0  0  0  0  0  0  0  0  0  0  0
   -8.1117    2.2654  -22.9737 C   0  0  0  0  0  0  0  0  0  0  0  0
   -8.8918    2.2809  -24.1052 C   0  0  0  0  0  0  0  0  0  0  0  0
   -9.3902    1.1104  -24.9057 C   0  0  0  0  0  0  0  0  0  0  0  0
   -9.8550    0.0021  -24.0820 N   0  0  0  0  0  0  0  0  0  0  0  0
   -9.0426   -1.1970  -23.9782 C   0  0  0  0  0  0  0  0  0  0  0  0
   -9.2262   -1.9127  -22.6141 C   0  0  2  0  0  0  0  0  0  0  0  0
   -8.6642   -1.0307  -21.4693 C   0  0  0  0  0  0  0  0  0  0  0  0
   -9.2283   -0.1064  -20.9134 O   0  0  0  0  0  0  0  0  0  0  0  0
   -7.3773   -1.4361  -21.1918 N   0  0  0  0  0  0  0  0  0  0  0  0
   -6.6006   -0.8242  -20.1701 C   0  0  0  0  0  0  0  0  0  0  0  0
   -6.9073   -1.0485  -18.8483 C   0  0  0  0  0  0  0  0  0  0  0  0
   -6.2014   -0.5484  -17.8050 N   0  0  0  0  0  0  0  0  0  0  0  0
   -5.1654    0.2089  -18.0770 C   0  0  0  0  0  0  0  0  0  0  0  0
   -4.7322    0.5276  -19.3950 C   0  0  0  0  0  0  0  0  0  0  0  0
   -3.6090    1.3634  -19.6369 C   0  0  0  0  0  0  0  0  0  0  0  0
   -3.2276    1.6624  -20.9165 C   0  0  0  0  0  0  0  0  0  0  0  0
   -3.9552    1.1383  -22.0105 C   0  0  0  0  0  0  0  0  0  0  0  0
   -5.0490    0.3261  -21.7985 C   0  0  0  0  0  0  0  0  0  0  0  0
   -5.4650   -0.0038  -20.4825 C   0  0  0  0  0  0  0  0  0  0  0  0
   -5.6017   -0.0618  -22.6486 H   0  0  0  0  0  0  0  0  0  0  0  0
   -3.6551    1.3878  -23.0212 H   0  0  0  0  0  0  0  0  0  0  0  0
   -2.3771    2.3130  -21.1008 H   0  0  0  0  0  0  0  0  0  0  0  0
   -3.0765    1.7745  -18.7837 H   0  0  0  0  0  0  0  0  0  0  0  0
   -4.6179    0.6163  -17.2285 H   0  0  0  0  0  0  0  0  0  0  0  0
   -7.7540   -1.6760  -18.5834 H   0  0  0  0  0  0  0  0  0  0  0  0
   -6.9642   -2.6141  -21.9357 C   0  0  0  0  0  0  0  0  0  0  0  0
   -8.2932   -3.1578  -22.5095 C   0  0  2  0  0  0  0  0  0  0  0  0
   -8.0924   -3.9860  -23.7847 C   0  0  0  0  0  0  0  0  0  0  0  0
   -7.5516   -3.4117  -24.5513 H   0  0  0  0  0  0  0  0  0  0  0  0
   -7.5038   -4.8928  -23.5827 H   0  0  0  0  0  0  0  0  0  0  0  0
   -9.0497   -4.2981  -24.2224 H   0  0  0  0  0  0  0  0  0  0  0  0
   -8.7245   -3.8040  -21.7382 H   0  0  0  0  0  0  0  0  0  0  0  0
   -6.4643   -3.3278  -21.2696 H   0  0  0  0  0  0  0  0  0  0  0  0
   -6.2499   -2.3654  -22.7388 H   0  0  0  0  0  0  0  0  0  0  0  0
  -10.7132   -2.1464  -22.4259 C   0  0  0  0  0  0  0  0  0  0  0  0
  -11.2240   -3.2310  -21.7042 C   0  0  0  0  0  0  0  0  0  0  0  0
  -12.5820   -3.3139  -21.4680 C   0  0  0  0  0  0  0  0  0  0  0  0
  -13.0576   -4.3284  -20.7277 F   0  0  0  0  0  0  0  0  0  0  0  0
  -13.4862   -2.3689  -21.9305 C   0  0  0  0  0  0  0  0  0  0  0  0
  -12.9865   -1.2921  -22.6331 C   0  0  0  0  0  0  0  0  0  0  0  0
  -11.6183   -1.1720  -22.8788 C   0  0  0  0  0  0  0  0  0  0  0  0
  -11.1453    0.0350  -23.6369 C   0  0  0  0  0  0  0  0  0  0  0  0
  -11.8751    0.9938  -23.8583 O   0  0  0  0  0  0  0  0  0  0  0  0
  -13.6431   -0.5140  -22.9982 H   0  0  0  0  0  0  0  0  0  0  0  0
  -14.5411   -2.4968  -21.7161 H   0  0  0  0  0  0  0  0  0  0  0  0
  -10.5947   -3.9918  -21.2572 H   0  0  0  0  0  0  0  0  0  0  0  0
   -9.2985   -1.9028  -24.7870 H   0  0  0  0  0  0  0  0  0  0  0  0
   -7.9960   -0.8982  -24.0889 H   0  0  0  0  0  0  0  0  0  0  0  0
  -10.1977    1.4094  -25.5852 H   0  0  0  0  0  0  0  0  0  0  0  0
   -8.5680    0.7148  -25.5137 H   0  0  0  0  0  0  0  0  0  0  0  0
   -7.7769    1.3723  -22.4704 H   0  0  0  0  0  0  0  0  0  0  0  0
   -7.3630    4.0552  -21.8167 H   0  0  0  0  0  0  0  0  0  0  0  0
   -9.3685    5.1552  -25.7169 H   0  0  0  0  0  0  0  0  0  0  0  0
   -9.6523    3.5487  -26.4122 H   0  0  0  0  0  0  0  0  0  0  0  0
  -11.7702    3.3197  -25.0427 H   0  0  0  0  0  0  0  0  0  0  0  0
  -11.4822    4.9453  -24.3593 H   0  0  0  0  0  0  0  0  0  0  0  0
  -11.8231    4.7617  -26.0913 H   0  0  0  0  0  0  0  0  0  0  0  0
  1  2  1  0
  2  3  1  0
  3  4  1  0
  4  5  2  0
  5  6  1  0
  6  7  2  0
  7  8  1  0
  8  9  1  0
  9 10  1  0
 11 10  1  6
 11 12  1  0
 12 13  2  0
 12 14  1  0
 14 15  1  0
 15 16  2  0
 16 17  1  0
 17 18  2  0
 18 19  1  0
 19 20  2  0
 20 21  1  0
 21 22  2  0
 22 23  1  0
 23 24  2  0
 23 25  1  0
 22 26  1  0
 21 27  1  0
 20 28  1  0
 18 29  1  0
 16 30  1  0
 14 31  1  0
 31 32  1  0
 32 33  1  0
 33 34  1  0
 33 35  1  0
 33 36  1  0
 32 37  1  1
 31 38  1  0
 31 39  1  0
 11 40  1  0
 40 41  2  0
 41 42  1  0
 42 43  1  0
 42 44  2  0
 44 45  1  0
 45 46  2  0
 46 47  1  0
 47 48  2  0
 45 49  1  0
 44 50  1  0
 41 51  1  0
 10 52  1  0
 10 53  1  0
  8 54  1  0
  8 55  1  0
  6 56  1  0
  5 57  1  0
  2 58  1  0
  2 59  1  0
  1 60  1  0
  1 61  1  0
  1 62  1  0
  7  3  1  0
 47  9  1  0
 32 11  1  0
 46 40  1  0
 24 15  1  0
 24 19  1  0
M  END
>  <cnnaffinities>  (91) 
[6.7012]

>  <score>  (91) 
6.7012

>  <index>  (91) 
93

>  <Smiles>  (91) 
C(C(n1nc(c(c1C(N1C([C@@]2(C(=O)N(c3c(nc(c4c(c(c(c(c34)[H])[H])[H])[H])[H])[H])C([C@@]2(C([H])([H])[H])[H])([H])[H])c2c(c(F)c(c(c2C1=O)[H])[H])[H])([H])[H])([H])[H])[H])[H])([H])[H])([H])([H])[H]

>  <h>  (91) 
<NA>

>  <Training>  (91) 
True

>  <Success>  (91) 
True

>  <enamine_searched>  (91) 
False

>  <enamine_id>  (91) 
nan

$$$$

     RDKit          3D

 66 71  0  0  0  0  0  0  0  0999 V2000
   -7.4243    3.3810  -21.8606 C   0  0  0  0  0  0  0  0  0  0  0  0
   -8.3485    2.9096  -22.8814 N   0  0  0  0  0  0  0  0  0  0  0  0
   -7.8031    2.1770  -23.8979 C   0  0  0  0  0  0  0  0  0  0  0  0
   -6.5984    2.0208  -24.0268 O   0  0  0  0  0  0  0  0  0  0  0  0
   -8.7887    1.5592  -24.8881 C   0  0  0  0  0  0  0  0  0  0  0  0
   -9.4526    0.4073  -24.3139 N   0  0  0  0  0  0  0  0  0  0  0  0
   -8.7008   -0.8278  -24.1623 C   0  0  0  0  0  0  0  0  0  0  0  0
   -9.0747   -1.5645  -22.8530 C   0  0  2  0  0  0  0  0  0  0  0  0
   -8.5511   -0.7710  -21.6325 C   0  0  0  0  0  0  0  0  0  0  0  0
   -9.0404    0.2188  -21.1314 O   0  0  0  0  0  0  0  0  0  0  0  0
   -7.3997   -1.3792  -21.1931 N   0  0  0  0  0  0  0  0  0  0  0  0
   -6.6079   -0.8075  -20.1721 C   0  0  0  0  0  0  0  0  0  0  0  0
   -6.9267   -1.0399  -18.8603 C   0  0  0  0  0  0  0  0  0  0  0  0
   -6.2314   -0.5513  -17.8055 N   0  0  0  0  0  0  0  0  0  0  0  0
   -5.1898    0.2019  -18.0725 C   0  0  0  0  0  0  0  0  0  0  0  0
   -4.7491    0.5246  -19.3888 C   0  0  0  0  0  0  0  0  0  0  0  0
   -3.6230    1.3564  -19.6313 C   0  0  0  0  0  0  0  0  0  0  0  0
   -3.2382    1.6531  -20.9092 C   0  0  0  0  0  0  0  0  0  0  0  0
   -3.9610    1.1434  -22.0112 C   0  0  0  0  0  0  0  0  0  0  0  0
   -5.0573    0.3396  -21.8058 C   0  0  0  0  0  0  0  0  0  0  0  0
   -5.4759    0.0044  -20.4876 C   0  0  0  0  0  0  0  0  0  0  0  0
   -5.6203   -0.0192  -22.6638 H   0  0  0  0  0  0  0  0  0  0  0  0
   -3.6588    1.3934  -23.0236 H   0  0  0  0  0  0  0  0  0  0  0  0
   -2.3782    2.2914  -21.0854 H   0  0  0  0  0  0  0  0  0  0  0  0
   -3.0907    1.7604  -18.7736 H   0  0  0  0  0  0  0  0  0  0  0  0
   -4.6268    0.5985  -17.2260 H   0  0  0  0  0  0  0  0  0  0  0  0
   -7.7918   -1.6560  -18.6269 H   0  0  0  0  0  0  0  0  0  0  0  0
   -7.0242   -2.5635  -21.9270 C   0  0  0  0  0  0  0  0  0  0  0  0
   -8.3066   -2.9150  -22.7015 C   0  0  2  0  0  0  0  0  0  0  0  0
   -8.0214   -3.7200  -23.9858 C   0  0  0  0  0  0  0  0  0  0  0  0
   -7.4956   -5.0475  -23.7511 N   0  0  0  0  0  0  0  0  0  0  0  0
   -6.1965   -5.3661  -23.5195 C   0  0  0  0  0  0  0  0  0  0  0  0
   -5.0991   -4.5921  -23.9350 C   0  0  0  0  0  0  0  0  0  0  0  0
   -3.8486   -5.0600  -23.5828 C   0  0  0  0  0  0  0  0  0  0  0  0
   -3.6409   -6.1785  -22.8769 N   0  0  0  0  0  0  0  0  0  0  0  0
   -4.7487   -6.8475  -22.5756 C   0  0  0  0  0  0  0  0  0  0  0  0
   -6.0000   -6.5267  -22.8700 N   0  0  0  0  0  0  0  0  0  0  0  0
   -4.6294   -7.7739  -22.0093 H   0  0  0  0  0  0  0  0  0  0  0  0
   -2.9501   -4.5123  -23.8673 H   0  0  0  0  0  0  0  0  0  0  0  0
   -5.2178   -3.6794  -24.5081 H   0  0  0  0  0  0  0  0  0  0  0  0
   -8.1274   -5.7725  -23.4472 H   0  0  0  0  0  0  0  0  0  0  0  0
   -7.3017   -3.1774  -24.6048 H   0  0  0  0  0  0  0  0  0  0  0  0
   -8.9315   -3.8261  -24.5869 H   0  0  0  0  0  0  0  0  0  0  0  0
   -8.9117   -3.5526  -22.0528 H   0  0  0  0  0  0  0  0  0  0  0  0
   -6.1779   -2.3629  -22.6053 H   0  0  0  0  0  0  0  0  0  0  0  0
   -6.7151   -3.3519  -21.2353 H   0  0  0  0  0  0  0  0  0  0  0  0
  -10.5857   -1.6471  -22.7840 C   0  0  0  0  0  0  0  0  0  0  0  0
  -11.2071   -2.5740  -21.9453 C   0  0  0  0  0  0  0  0  0  0  0  0
  -12.5849   -2.6053  -21.8475 C   0  0  0  0  0  0  0  0  0  0  0  0
  -13.3150   -3.7655  -20.7795 Cl  0  0  0  0  0  0  0  0  0  0  0  0
  -13.3989   -1.7266  -22.5627 C   0  0  0  0  0  0  0  0  0  0  0  0
  -12.7900   -0.7772  -23.3555 C   0  0  0  0  0  0  0  0  0  0  0  0
  -11.4019   -0.7161  -23.4410 C   0  0  0  0  0  0  0  0  0  0  0  0
  -10.8141    0.4250  -24.2031 C   0  0  0  0  0  0  0  0  0  0  0  0
  -11.5044    1.3256  -24.6637 O   0  0  0  0  0  0  0  0  0  0  0  0
  -13.3620   -0.0436  -23.9119 H   0  0  0  0  0  0  0  0  0  0  0  0
  -14.4784   -1.7811  -22.4682 H   0  0  0  0  0  0  0  0  0  0  0  0
  -10.6310   -3.2699  -21.3458 H   0  0  0  0  0  0  0  0  0  0  0  0
   -7.6314   -0.5878  -24.1846 H   0  0  0  0  0  0  0  0  0  0  0  0
   -8.9198   -1.4944  -25.0070 H   0  0  0  0  0  0  0  0  0  0  0  0
   -9.5735    2.2706  -25.1691 H   0  0  0  0  0  0  0  0  0  0  0  0
   -8.2166    1.2688  -25.7762 H   0  0  0  0  0  0  0  0  0  0  0  0
   -9.2984    2.7034  -22.5810 H   0  0  0  0  0  0  0  0  0  0  0  0
   -6.8797    2.5331  -21.4102 H   0  0  0  0  0  0  0  0  0  0  0  0
   -7.9582    3.9483  -21.0934 H   0  0  0  0  0  0  0  0  0  0  0  0
   -6.6903    4.0452  -22.3264 H   0  0  0  0  0  0  0  0  0  0  0  0
  1  2  1  0
  2  3  1  0
  3  4  2  0
  3  5  1  0
  5  6  1  0
  6  7  1  0
  8  7  1  6
  8  9  1  0
  9 10  2  0
  9 11  1  0
 11 12  1  0
 12 13  2  0
 13 14  1  0
 14 15  2  0
 15 16  1  0
 16 17  2  0
 17 18  1  0
 18 19  2  0
 19 20  1  0
 20 21  2  0
 20 22  1  0
 19 23  1  0
 18 24  1  0
 17 25  1  0
 15 26  1  0
 13 27  1  0
 11 28  1  0
 28 29  1  0
 29 30  1  0
 30 31  1  0
 31 32  1  0
 32 33  2  0
 33 34  1  0
 34 35  2  0
 35 36  1  0
 36 37  2  0
 36 38  1  0
 34 39  1  0
 33 40  1  0
 31 41  1  0
 30 42  1  0
 30 43  1  0
 29 44  1  1
 28 45  1  0
 28 46  1  0
  8 47  1  0
 47 48  2  0
 48 49  1  0
 49 50  1  0
 49 51  2  0
 51 52  1  0
 52 53  2  0
 53 54  1  0
 54 55  2  0
 52 56  1  0
 51 57  1  0
 48 58  1  0
  7 59  1  0
  7 60  1  0
  5 61  1  0
  5 62  1  0
  2 63  1  0
  1 64  1  0
  1 65  1  0
  1 66  1  0
 54  6  1  0
 29  8  1  0
 37 32  1  0
 53 47  1  0
 21 12  1  0
 21 16  1  0
M  END
>  <cnnaffinities>  (92) 
[6.83654, 6.89905, 6.90651, 6.45153]

>  <score>  (92) 
6.83654

>  <index>  (92) 
95

>  <Smiles>  (92) 
C(N(C(=O)C(N1C([C@@]2(C(=O)N(c3c(nc(c4c(c(c(c(c34)[H])[H])[H])[H])[H])[H])C([C@@]2(C(N(c2c(c(nc(n2)[H])[H])[H])[H])([H])[H])[H])([H])[H])c2c(c(Cl)c(c(c2C1=O)[H])[H])[H])([H])[H])([H])[H])[H])([H])([H])[H]

>  <h>  (92) 
<NA>

>  <Training>  (92) 
True

>  <Success>  (92) 
True

>  <enamine_searched>  (92) 
False

>  <enamine_id>  (92) 
nan

$$$$

     RDKit          3D

 66 70  0  0  0  0  0  0  0  0999 V2000
   -7.4890    3.2998  -21.8998 C   0  0  0  0  0  0  0  0  0  0  0  0
   -8.5163    2.8307  -22.8185 N   0  0  0  0  0  0  0  0  0  0  0  0
   -8.0644    2.0754  -23.8647 C   0  0  0  0  0  0  0  0  0  0  0  0
   -6.8708    1.8808  -24.0557 O   0  0  0  0  0  0  0  0  0  0  0  0
   -9.1038    1.4641  -24.8008 C   0  0  0  0  0  0  0  0  0  0  0  0
   -9.6576    0.2602  -24.2138 N   0  0  0  0  0  0  0  0  0  0  0  0
   -8.8167   -0.9203  -24.0957 C   0  0  0  0  0  0  0  0  0  0  0  0
   -9.0958   -1.6982  -22.7874 C   0  0  2  0  0  0  0  0  0  0  0  0
   -8.5797   -0.8907  -21.5751 C   0  0  0  0  0  0  0  0  0  0  0  0
   -9.1089    0.0692  -21.0478 O   0  0  0  0  0  0  0  0  0  0  0  0
   -7.3745   -1.4284  -21.1897 N   0  0  0  0  0  0  0  0  0  0  0  0
   -6.5996   -0.8282  -20.1708 C   0  0  0  0  0  0  0  0  0  0  0  0
   -6.9275   -1.0465  -18.8569 C   0  0  0  0  0  0  0  0  0  0  0  0
   -6.2368   -0.5494  -17.8043 N   0  0  0  0  0  0  0  0  0  0  0  0
   -5.1941    0.2027  -18.0732 C   0  0  0  0  0  0  0  0  0  0  0  0
   -4.7524    0.5182  -19.3908 C   0  0  0  0  0  0  0  0  0  0  0  0
   -3.6306    1.3555  -19.6282 C   0  0  0  0  0  0  0  0  0  0  0  0
   -3.2443    1.6531  -20.9069 C   0  0  0  0  0  0  0  0  0  0  0  0
   -3.9634    1.1388  -22.0071 C   0  0  0  0  0  0  0  0  0  0  0  0
   -5.0602    0.3331  -21.8077 C   0  0  0  0  0  0  0  0  0  0  0  0
   -5.4738   -0.0073  -20.4878 C   0  0  0  0  0  0  0  0  0  0  0  0
   -5.6264   -0.0142  -22.6674 H   0  0  0  0  0  0  0  0  0  0  0  0
   -3.6526    1.3859  -23.0183 H   0  0  0  0  0  0  0  0  0  0  0  0
   -2.3869    2.2950  -21.0835 H   0  0  0  0  0  0  0  0  0  0  0  0
   -3.1018    1.7612  -18.7711 H   0  0  0  0  0  0  0  0  0  0  0  0
   -4.6337    0.6034  -17.2285 H   0  0  0  0  0  0  0  0  0  0  0  0
   -7.7934   -1.6605  -18.6206 H   0  0  0  0  0  0  0  0  0  0  0  0
   -6.9577   -2.5910  -21.9501 C   0  0  0  0  0  0  0  0  0  0  0  0
   -8.2343   -2.9948  -22.7095 C   0  0  2  0  0  0  0  0  0  0  0  0
   -7.9371   -3.6849  -24.0372 C   0  0  0  0  0  0  0  0  0  0  0  0
   -7.2275   -4.8839  -23.7928 O   0  0  0  0  0  0  0  0  0  0  0  0
   -7.0489   -5.6962  -24.9524 C   0  0  0  0  0  0  0  0  0  0  0  0
   -5.6740   -6.3454  -24.8706 C   0  0  0  0  0  0  0  0  0  0  0  0
   -5.4929   -6.9605  -25.7604 H   0  0  0  0  0  0  0  0  0  0  0  0
   -4.8845   -5.5907  -24.8088 H   0  0  0  0  0  0  0  0  0  0  0  0
   -5.6122   -6.9890  -23.9873 H   0  0  0  0  0  0  0  0  0  0  0  0
   -8.1511   -6.7504  -25.0440 C   0  0  0  0  0  0  0  0  0  0  0  0
   -8.1270   -7.3971  -24.1601 H   0  0  0  0  0  0  0  0  0  0  0  0
   -9.1462   -6.2951  -25.1078 H   0  0  0  0  0  0  0  0  0  0  0  0
   -8.0033   -7.3741  -25.9352 H   0  0  0  0  0  0  0  0  0  0  0  0
   -7.0847   -5.0659  -25.8590 H   0  0  0  0  0  0  0  0  0  0  0  0
   -8.8820   -3.8795  -24.5733 H   0  0  0  0  0  0  0  0  0  0  0  0
   -7.3267   -3.0216  -24.6752 H   0  0  0  0  0  0  0  0  0  0  0  0
   -8.7672   -3.7198  -22.0933 H   0  0  0  0  0  0  0  0  0  0  0  0
   -6.1333   -2.3511  -22.6384 H   0  0  0  0  0  0  0  0  0  0  0  0
   -6.6107   -3.3809  -21.2794 H   0  0  0  0  0  0  0  0  0  0  0  0
  -10.5939   -1.8901  -22.6839 C   0  0  0  0  0  0  0  0  0  0  0  0
  -11.1313   -2.8732  -21.8514 C   0  0  0  0  0  0  0  0  0  0  0  0
  -12.5021   -2.9822  -21.7070 C   0  0  0  0  0  0  0  0  0  0  0  0
  -13.1366   -4.1643  -20.6067 Cl  0  0  0  0  0  0  0  0  0  0  0  0
  -13.3934   -2.1577  -22.3904 C   0  0  0  0  0  0  0  0  0  0  0  0
  -12.8676   -1.1666  -23.1884 C   0  0  0  0  0  0  0  0  0  0  0  0
  -11.4905   -1.0112  -23.3063 C   0  0  0  0  0  0  0  0  0  0  0  0
  -11.0099    0.1787  -24.0656 C   0  0  0  0  0  0  0  0  0  0  0  0
  -11.7728    1.0376  -24.4982 O   0  0  0  0  0  0  0  0  0  0  0  0
  -13.4989   -0.4669  -23.7203 H   0  0  0  0  0  0  0  0  0  0  0  0
  -14.4637   -2.2850  -22.2673 H   0  0  0  0  0  0  0  0  0  0  0  0
  -10.4935   -3.5472  -21.2910 H   0  0  0  0  0  0  0  0  0  0  0  0
   -9.0072   -1.5909  -24.9431 H   0  0  0  0  0  0  0  0  0  0  0  0
   -7.7695   -0.6083  -24.1443 H   0  0  0  0  0  0  0  0  0  0  0  0
   -8.5950    1.2221  -25.7424 H   0  0  0  0  0  0  0  0  0  0  0  0
   -9.9435    2.1383  -25.0086 H   0  0  0  0  0  0  0  0  0  0  0  0
   -9.4291    2.6250  -22.4228 H   0  0  0  0  0  0  0  0  0  0  0  0
   -6.7429    3.8407  -22.4849 H   0  0  0  0  0  0  0  0  0  0  0  0
   -7.9145    3.9980  -21.1748 H   0  0  0  0  0  0  0  0  0  0  0  0
   -6.9959    2.4470  -21.4008 H   0  0  0  0  0  0  0  0  0  0  0  0
  1  2  1  0
  2  3  1  0
  3  4  2  0
  3  5  1  0
  5  6  1  0
  6  7  1  0
  8  7  1  6
  8  9  1  0
  9 10  2  0
  9 11  1  0
 11 12  1  0
 12 13  2  0
 13 14  1  0
 14 15  2  0
 15 16  1  0
 16 17  2  0
 17 18  1  0
 18 19  2  0
 19 20  1  0
 20 21  2  0
 20 22  1  0
 19 23  1  0
 18 24  1  0
 17 25  1  0
 15 26  1  0
 13 27  1  0
 11 28  1  0
 28 29  1  0
 29 30  1  0
 30 31  1  0
 31 32  1  0
 32 33  1  0
 33 34  1  0
 33 35  1  0
 33 36  1  0
 32 37  1  0
 37 38  1  0
 37 39  1  0
 37 40  1  0
 32 41  1  0
 30 42  1  0
 30 43  1  0
 29 44  1  1
 28 45  1  0
 28 46  1  0
  8 47  1  0
 47 48  2  0
 48 49  1  0
 49 50  1  0
 49 51  2  0
 51 52  1  0
 52 53  2  0
 53 54  1  0
 54 55  2  0
 52 56  1  0
 51 57  1  0
 48 58  1  0
  7 59  1  0
  7 60  1  0
  5 61  1  0
  5 62  1  0
  2 63  1  0
  1 64  1  0
  1 65  1  0
  1 66  1  0
 54  6  1  0
 29  8  1  0
 53 47  1  0
 21 12  1  0
 21 16  1  0
M  END
>  <cnnaffinities>  (93) 
[6.34906]

>  <score>  (93) 
6.34906

>  <index>  (93) 
96

>  <Smiles>  (93) 
C(N(C(=O)C(N1C([C@@]2(C(=O)N(c3c(nc(c4c(c(c(c(c34)[H])[H])[H])[H])[H])[H])C([C@@]2(C(OC(C([H])([H])[H])(C([H])([H])[H])[H])([H])[H])[H])([H])[H])c2c(c(Cl)c(c(c2C1=O)[H])[H])[H])([H])[H])([H])[H])[H])([H])([H])[H]

>  <h>  (93) 
<NA>

>  <Training>  (93) 
True

>  <Success>  (93) 
True

>  <enamine_searched>  (93) 
False

>  <enamine_id>  (93) 
nan

$$$$

     RDKit          3D

 40 43  0  0  0  0  0  0  0  0999 V2000
  -12.5787   -3.9773  -21.1081 C   0  0  0  0  0  0  0  0  0  0  0  0
  -11.5787   -2.9461  -21.6347 C   0  0  2  0  0  0  0  0  0  0  0  0
  -12.0760   -2.4495  -22.9755 C   0  0  0  0  0  0  0  0  0  0  0  0
  -11.2239   -1.4688  -23.5119 O   0  0  0  0  0  0  0  0  0  0  0  0
   -9.9103   -1.9174  -23.7271 C   0  0  0  0  0  0  0  0  0  0  0  0
   -9.2043   -2.3994  -22.4502 C   0  0  1  0  0  0  0  0  0  0  0  0
  -10.1321   -3.4309  -21.7587 C   0  0  0  0  0  0  0  0  0  0  0  0
  -10.0784   -4.3578  -22.3509 H   0  0  0  0  0  0  0  0  0  0  0  0
   -9.7243   -3.6889  -20.7794 H   0  0  0  0  0  0  0  0  0  0  0  0
   -7.9236   -2.9942  -22.8033 N   0  0  0  0  0  0  0  0  0  0  0  0
   -6.8746   -2.5846  -22.0224 C   0  0  0  0  0  0  0  0  0  0  0  0
   -5.7337   -2.9913  -22.0107 O   0  0  0  0  0  0  0  0  0  0  0  0
   -7.3848   -1.5342  -21.2322 N   0  0  0  0  0  0  0  0  0  0  0  0
   -6.6231   -0.8927  -20.2159 C   0  0  0  0  0  0  0  0  0  0  0  0
   -6.9644   -1.0797  -18.8989 C   0  0  0  0  0  0  0  0  0  0  0  0
   -6.2868   -0.5650  -17.8422 N   0  0  0  0  0  0  0  0  0  0  0  0
   -5.2428    0.1747  -18.1182 C   0  0  0  0  0  0  0  0  0  0  0  0
   -4.7937    0.4639  -19.4341 C   0  0  0  0  0  0  0  0  0  0  0  0
   -3.6775    1.3075  -19.6381 C   0  0  0  0  0  0  0  0  0  0  0  0
   -3.2778    1.6207  -20.9037 C   0  0  0  0  0  0  0  0  0  0  0  0
   -3.9830    1.1150  -22.0154 C   0  0  0  0  0  0  0  0  0  0  0  0
   -5.0690    0.2936  -21.8457 C   0  0  0  0  0  0  0  0  0  0  0  0
   -5.4971   -0.0684  -20.5350 C   0  0  0  0  0  0  0  0  0  0  0  0
   -5.6058   -0.0619  -22.7191 H   0  0  0  0  0  0  0  0  0  0  0  0
   -3.6648    1.3971  -23.0135 H   0  0  0  0  0  0  0  0  0  0  0  0
   -2.4280    2.2742  -21.0573 H   0  0  0  0  0  0  0  0  0  0  0  0
   -3.1783    1.7069  -18.7612 H   0  0  0  0  0  0  0  0  0  0  0  0
   -4.6925    0.6003  -17.2802 H   0  0  0  0  0  0  0  0  0  0  0  0
   -7.8268   -1.6918  -18.6490 H   0  0  0  0  0  0  0  0  0  0  0  0
   -8.7324   -1.2734  -21.5072 C   0  0  0  0  0  0  0  0  0  0  0  0
   -9.3595   -0.3373  -21.0810 O   0  0  0  0  0  0  0  0  0  0  0  0
   -7.8802   -3.8765  -23.2920 H   0  0  0  0  0  0  0  0  0  0  0  0
   -9.3555   -1.1005  -24.1956 H   0  0  0  0  0  0  0  0  0  0  0  0
   -9.8899   -2.7690  -24.4257 H   0  0  0  0  0  0  0  0  0  0  0  0
  -13.0520   -1.9607  -22.8616 H   0  0  0  0  0  0  0  0  0  0  0  0
  -12.1842   -3.3117  -23.6634 H   0  0  0  0  0  0  0  0  0  0  0  0
  -11.5780   -2.0881  -20.9632 H   0  0  0  0  0  0  0  0  0  0  0  0
  -12.1540   -4.5889  -20.3089 H   0  0  0  0  0  0  0  0  0  0  0  0
  -12.9384   -4.6508  -21.8933 H   0  0  0  0  0  0  0  0  0  0  0  0
  -13.4472   -3.4467  -20.7025 H   0  0  0  0  0  0  0  0  0  0  0  0
  1  2  1  0
  2  3  1  0
  3  4  1  0
  4  5  1  0
  5  6  1  0
  6  7  1  0
  7  8  1  0
  7  9  1  0
  6 10  1  6
 10 11  1  0
 11 12  2  0
 11 13  1  0
 13 14  1  0
 14 15  2  0
 15 16  1  0
 16 17  2  0
 17 18  1  0
 18 19  2  0
 19 20  1  0
 20 21  2  0
 21 22  1  0
 22 23  2  0
 22 24  1  0
 21 25  1  0
 20 26  1  0
 19 27  1  0
 17 28  1  0
 15 29  1  0
 13 30  1  0
 30 31  2  0
 10 32  1  0
  5 33  1  0
  5 34  1  0
  3 35  1  0
  3 36  1  0
  2 37  1  1
  1 38  1  0
  1 39  1  0
  1 40  1  0
  7  2  1  0
 23 14  1  0
 30  6  1  0
 23 18  1  0
M  END
>  <cnnaffinities>  (94) 
[5.40342, 4.92821]

>  <score>  (94) 
5.40342

>  <index>  (94) 
97

>  <Smiles>  (94) 
C([C@@]1(C(OC([C@@]2(C1([H])[H])N(C(=O)N(c1c(nc(c3c(c(c(c(c13)[H])[H])[H])[H])[H])[H])C2=O)[H])([H])[H])([H])[H])[H])([H])([H])[H]

>  <h>  (94) 
<NA>

>  <Training>  (94) 
True

>  <Success>  (94) 
True

>  <enamine_searched>  (94) 
False

>  <enamine_id>  (94) 
nan

$$$$
