
     RDKit          3D

 66 71  0  0  0  0  0  0  0  0999 V2000
  -14.3507   -1.4897  -23.6812 C   0  0  0  0  0  0  0  0  0  0  0  0
  -13.5847   -2.6760  -23.3481 N   0  0  0  0  0  0  0  0  0  0  0  0
  -13.2543   -2.9575  -22.0610 C   0  0  0  0  0  0  0  0  0  0  0  0
  -13.7464   -2.3647  -21.1124 O   0  0  0  0  0  0  0  0  0  0  0  0
  -12.2596   -4.1047  -21.8645 C   0  0  0  0  0  0  0  0  0  0  0  0
  -10.9474   -3.9700  -22.4680 N   0  0  0  0  0  0  0  0  0  0  0  0
   -9.8261   -3.5145  -21.6648 C   0  0  0  0  0  0  0  0  0  0  0  0
   -8.6623   -2.9235  -22.5002 C   0  0  2  0  0  0  0  0  0  0  0  0
   -7.5054   -2.6950  -21.5213 C   0  0  0  0  0  0  0  0  0  0  0  0
   -6.7791   -3.5468  -21.0465 O   0  0  0  0  0  0  0  0  0  0  0  0
   -7.4219   -1.3455  -21.2434 N   0  0  0  0  0  0  0  0  0  0  0  0
   -6.5976   -0.8495  -20.2042 C   0  0  0  0  0  0  0  0  0  0  0  0
   -6.8891   -1.1246  -18.8927 C   0  0  0  0  0  0  0  0  0  0  0  0
   -6.2208   -0.5906  -17.8410 N   0  0  0  0  0  0  0  0  0  0  0  0
   -5.2201    0.2161  -18.0938 C   0  0  0  0  0  0  0  0  0  0  0  0
   -4.7759    0.5407  -19.4072 C   0  0  0  0  0  0  0  0  0  0  0  0
   -3.6488    1.3720  -19.6374 C   0  0  0  0  0  0  0  0  0  0  0  0
   -3.2426    1.6404  -20.9166 C   0  0  0  0  0  0  0  0  0  0  0  0
   -3.9405    1.0922  -22.0162 C   0  0  0  0  0  0  0  0  0  0  0  0
   -5.0312    0.2819  -21.8183 C   0  0  0  0  0  0  0  0  0  0  0  0
   -5.4795   -0.0061  -20.5021 C   0  0  0  0  0  0  0  0  0  0  0  0
   -5.5481   -0.1639  -22.6618 H   0  0  0  0  0  0  0  0  0  0  0  0
   -3.6058    1.3020  -23.0284 H   0  0  0  0  0  0  0  0  0  0  0  0
   -2.3797    2.2747  -21.0969 H   0  0  0  0  0  0  0  0  0  0  0  0
   -3.1240    1.7838  -18.7796 H   0  0  0  0  0  0  0  0  0  0  0  0
   -4.6948    0.6468  -17.2397 H   0  0  0  0  0  0  0  0  0  0  0  0
   -7.7095   -1.7934  -18.6406 H   0  0  0  0  0  0  0  0  0  0  0  0
   -8.4208   -0.5328  -21.9262 C   0  0  0  0  0  0  0  0  0  0  0  0
   -8.9042   -1.4742  -23.0402 C   0  0  2  0  0  0  0  0  0  0  0  0
  -10.3380   -1.2156  -23.5050 C   0  0  0  0  0  0  0  0  0  0  0  0
  -10.5277    0.0001  -24.2545 N   0  0  0  0  0  0  0  0  0  0  0  0
  -11.0406    1.1222  -23.6982 C   0  0  0  0  0  0  0  0  0  0  0  0
  -11.0653    2.3290  -24.4245 C   0  0  0  0  0  0  0  0  0  0  0  0
  -11.5561    3.4180  -23.7471 C   0  0  0  0  0  0  0  0  0  0  0  0
  -12.0342    3.3679  -22.4924 N   0  0  0  0  0  0  0  0  0  0  0  0
  -11.9920    2.1749  -21.9264 C   0  0  0  0  0  0  0  0  0  0  0  0
  -11.5286    1.0387  -22.4537 N   0  0  0  0  0  0  0  0  0  0  0  0
  -12.3774    2.1173  -20.9079 H   0  0  0  0  0  0  0  0  0  0  0  0
  -11.5626    4.3923  -24.2286 H   0  0  0  0  0  0  0  0  0  0  0  0
  -10.7073    2.3659  -25.4521 H   0  0  0  0  0  0  0  0  0  0  0  0
  -10.0996    0.0727  -25.1628 H   0  0  0  0  0  0  0  0  0  0  0  0
  -10.6714   -2.0636  -24.1092 H   0  0  0  0  0  0  0  0  0  0  0  0
  -10.9770   -1.1270  -22.6275 H   0  0  0  0  0  0  0  0  0  0  0  0
   -8.2209   -1.3625  -23.8924 H   0  0  0  0  0  0  0  0  0  0  0  0
   -7.9787    0.3973  -22.3013 H   0  0  0  0  0  0  0  0  0  0  0  0
   -9.2413   -0.2375  -21.2537 H   0  0  0  0  0  0  0  0  0  0  0  0
   -8.3287   -3.9337  -23.5757 C   0  0  0  0  0  0  0  0  0  0  0  0
   -7.0274   -4.0751  -24.0733 C   0  0  0  0  0  0  0  0  0  0  0  0
   -6.7536   -5.0446  -25.0233 C   0  0  0  0  0  0  0  0  0  0  0  0
   -5.1364   -5.1975  -25.6598 Cl  0  0  0  0  0  0  0  0  0  0  0  0
   -7.7381   -5.9370  -25.4439 C   0  0  0  0  0  0  0  0  0  0  0  0
   -9.0360   -5.7699  -24.9946 C   0  0  0  0  0  0  0  0  0  0  0  0
   -9.3421   -4.7469  -24.1005 C   0  0  0  0  0  0  0  0  0  0  0  0
  -10.7653   -4.5427  -23.6900 C   0  0  0  0  0  0  0  0  0  0  0  0
  -11.7262   -4.8486  -24.3953 O   0  0  0  0  0  0  0  0  0  0  0  0
   -9.8353   -6.4341  -25.3138 H   0  0  0  0  0  0  0  0  0  0  0  0
   -7.4823   -6.7592  -26.1060 H   0  0  0  0  0  0  0  0  0  0  0  0
   -6.2146   -3.4815  -23.6683 H   0  0  0  0  0  0  0  0  0  0  0  0
  -10.1697   -2.7581  -20.9554 H   0  0  0  0  0  0  0  0  0  0  0  0
   -9.4118   -4.3559  -21.1018 H   0  0  0  0  0  0  0  0  0  0  0  0
  -12.1601   -4.2691  -20.7902 H   0  0  0  0  0  0  0  0  0  0  0  0
  -12.7076   -4.9678  -22.3393 H   0  0  0  0  0  0  0  0  0  0  0  0
  -13.1692   -3.2115  -24.0972 H   0  0  0  0  0  0  0  0  0  0  0  0
  -13.7597   -0.5730  -23.5486 H   0  0  0  0  0  0  0  0  0  0  0  0
  -15.2224   -1.4001  -23.0308 H   0  0  0  0  0  0  0  0  0  0  0  0
  -14.6935   -1.5739  -24.7168 H   0  0  0  0  0  0  0  0  0  0  0  0
  1  2  1  0
  2  3  1  0
  3  4  2  0
  3  5  1  0
  5  6  1  0
  6  7  1  0
  8  7  1  1
  8  9  1  0
  9 10  2  0
  9 11  1  0
 11 12  1  0
 12 13  2  0
 13 14  1  0
 14 15  2  0
 15 16  1  0
 16 17  2  0
 17 18  1  0
 18 19  2  0
 19 20  1  0
 20 21  2  0
 20 22  1  0
 19 23  1  0
 18 24  1  0
 17 25  1  0
 15 26  1  0
 13 27  1  0
 11 28  1  0
 28 29  1  0
 29 30  1  0
 30 31  1  0
 31 32  1  0
 32 33  2  0
 33 34  1  0
 34 35  2  0
 35 36  1  0
 36 37  2  0
 36 38  1  0
 34 39  1  0
 33 40  1  0
 31 41  1  0
 30 42  1  0
 30 43  1  0
 29 44  1  6
 28 45  1  0
 28 46  1  0
  8 47  1  0
 47 48  2  0
 48 49  1  0
 49 50  1  0
 49 51  2  0
 51 52  1  0
 52 53  2  0
 53 54  1  0
 54 55  2  0
 52 56  1  0
 51 57  1  0
 48 58  1  0
  7 59  1  0
  7 60  1  0
  5 61  1  0
  5 62  1  0
  2 63  1  0
  1 64  1  0
  1 65  1  0
  1 66  1  0
 54  6  1  0
 29  8  1  0
 37 32  1  0
 53 47  1  0
 21 12  1  0
 21 16  1  0
M  END
>  <cnnaffinities>  (1) 
[7.08652, 6.93092, 6.8637]

>  <score>  (1) 
7.08652

>  <index>  (1) 
0

>  <Smiles>  (1) 
C(N(C(=O)C(N1C([C@@]2(C(=O)N(c3c(nc(c4c(c(c(c(c34)[H])[H])[H])[H])[H])[H])C([C@@]2(C(N(c2c(c(nc(n2)[H])[H])[H])[H])([H])[H])[H])([H])[H])c2c(c(Cl)c(c(c2C1=O)[H])[H])[H])([H])[H])([H])[H])[H])([H])([H])[H]

>  <h>  (1) 
<NA>

>  <Training>  (1) 
True

>  <Success>  (1) 
True

>  <enamine_searched>  (1) 
False

>  <enamine_id>  (1) 
nan

$$$$

     RDKit          3D

 68 73  0  0  0  0  0  0  0  0999 V2000
   -7.3035    3.4626  -21.8805 C   0  0  0  0  0  0  0  0  0  0  0  0
   -8.2942    2.9119  -22.7946 N   0  0  0  0  0  0  0  0  0  0  0  0
   -7.8785    2.2346  -23.8984 C   0  0  0  0  0  0  0  0  0  0  0  0
   -6.6912    2.0613  -24.1463 O   0  0  0  0  0  0  0  0  0  0  0  0
   -8.9945    1.6928  -24.8110 C   0  0  0  0  0  0  0  0  0  0  0  0
   -9.5981    0.5018  -24.2301 N   0  0  0  0  0  0  0  0  0  0  0  0
   -8.7612   -0.6788  -24.0667 C   0  0  0  0  0  0  0  0  0  0  0  0
   -9.1003   -1.4833  -22.7769 C   0  0  2  0  0  0  0  0  0  0  0  0
   -8.6038   -0.6823  -21.5473 C   0  0  0  0  0  0  0  0  0  0  0  0
   -9.1195    0.2972  -21.0497 O   0  0  0  0  0  0  0  0  0  0  0  0
   -7.4397   -1.2537  -21.0932 N   0  0  0  0  0  0  0  0  0  0  0  0
   -6.6389   -0.6890  -20.0865 C   0  0  0  0  0  0  0  0  0  0  0  0
   -6.9144   -0.9633  -18.7749 C   0  0  0  0  0  0  0  0  0  0  0  0
   -6.1695   -0.5106  -17.7429 N   0  0  0  0  0  0  0  0  0  0  0  0
   -5.1313    0.2357  -18.0310 C   0  0  0  0  0  0  0  0  0  0  0  0
   -4.7174    0.5651  -19.3548 C   0  0  0  0  0  0  0  0  0  0  0  0
   -3.5874    1.3842  -19.6202 C   0  0  0  0  0  0  0  0  0  0  0  0
   -3.2229    1.6724  -20.9076 C   0  0  0  0  0  0  0  0  0  0  0  0
   -3.9726    1.1614  -21.9930 C   0  0  0  0  0  0  0  0  0  0  0  0
   -5.0808    0.3818  -21.7635 C   0  0  0  0  0  0  0  0  0  0  0  0
   -5.4845    0.0728  -20.4323 C   0  0  0  0  0  0  0  0  0  0  0  0
   -5.6663    0.0207  -22.6057 H   0  0  0  0  0  0  0  0  0  0  0  0
   -3.6855    1.3980  -23.0138 H   0  0  0  0  0  0  0  0  0  0  0  0
   -2.3670    2.3115  -21.1044 H   0  0  0  0  0  0  0  0  0  0  0  0
   -3.0452    1.7895  -18.7704 H   0  0  0  0  0  0  0  0  0  0  0  0
   -4.5540    0.6186  -17.1907 H   0  0  0  0  0  0  0  0  0  0  0  0
   -7.7697   -1.5889  -18.5262 H   0  0  0  0  0  0  0  0  0  0  0  0
   -6.9902   -2.3993  -21.8263 C   0  0  0  0  0  0  0  0  0  0  0  0
   -8.2258   -2.7777  -22.6384 C   0  0  2  0  0  0  0  0  0  0  0  0
   -7.7895   -3.4768  -23.9079 C   0  0  0  0  0  0  0  0  0  0  0  0
   -8.9325   -4.0223  -24.5809 N   0  0  0  0  0  0  0  0  0  0  0  0
   -8.7973   -4.5759  -25.8362 C   0  0  0  0  0  0  0  0  0  0  0  0
   -7.6255   -4.7053  -26.6238 C   0  0  0  0  0  0  0  0  0  0  0  0
   -7.8951   -5.2772  -27.7936 N   0  0  0  0  0  0  0  0  0  0  0  0
   -9.1985   -5.5527  -27.7536 N   0  0  0  0  0  0  0  0  0  0  0  0
   -9.8968   -5.9991  -28.9227 C   0  0  0  0  0  0  0  0  0  0  0  0
  -10.6352   -5.2508  -29.2098 H   0  0  0  0  0  0  0  0  0  0  0  0
  -10.4176   -6.9412  -28.7472 H   0  0  0  0  0  0  0  0  0  0  0  0
   -9.1556   -6.1105  -29.7068 H   0  0  0  0  0  0  0  0  0  0  0  0
   -9.7896   -5.1495  -26.6046 C   0  0  0  0  0  0  0  0  0  0  0  0
  -10.8343   -5.3482  -26.4308 H   0  0  0  0  0  0  0  0  0  0  0  0
   -6.6077   -4.4219  -26.3636 H   0  0  0  0  0  0  0  0  0  0  0  0
   -9.8462   -3.6426  -24.3678 H   0  0  0  0  0  0  0  0  0  0  0  0
   -7.2085   -2.7674  -24.5258 H   0  0  0  0  0  0  0  0  0  0  0  0
   -7.0849   -4.2898  -23.6828 H   0  0  0  0  0  0  0  0  0  0  0  0
   -8.7976   -3.4993  -22.0510 H   0  0  0  0  0  0  0  0  0  0  0  0
   -6.1270   -2.1538  -22.4655 H   0  0  0  0  0  0  0  0  0  0  0  0
   -6.6663   -3.2030  -21.1528 H   0  0  0  0  0  0  0  0  0  0  0  0
  -10.6144   -1.6759  -22.7143 C   0  0  0  0  0  0  0  0  0  0  0  0
  -11.2010   -2.6722  -21.9151 C   0  0  0  0  0  0  0  0  0  0  0  0
  -12.5788   -2.7400  -21.7725 C   0  0  0  0  0  0  0  0  0  0  0  0
  -13.2777   -3.9232  -20.6999 Cl  0  0  0  0  0  0  0  0  0  0  0  0
  -13.4228   -1.8531  -22.4384 C   0  0  0  0  0  0  0  0  0  0  0  0
  -12.8593   -0.8647  -23.2189 C   0  0  0  0  0  0  0  0  0  0  0  0
  -11.4741   -0.7500  -23.3348 C   0  0  0  0  0  0  0  0  0  0  0  0
  -10.9568    0.4376  -24.0944 C   0  0  0  0  0  0  0  0  0  0  0  0
  -11.7088    1.2983  -24.5353 O   0  0  0  0  0  0  0  0  0  0  0  0
  -13.4801   -0.1431  -23.7404 H   0  0  0  0  0  0  0  0  0  0  0  0
  -14.4981   -1.9301  -22.3247 H   0  0  0  0  0  0  0  0  0  0  0  0
  -10.6049   -3.3858  -21.3566 H   0  0  0  0  0  0  0  0  0  0  0  0
   -7.7249   -0.3367  -24.0064 H   0  0  0  0  0  0  0  0  0  0  0  0
   -8.8640   -1.3174  -24.9558 H   0  0  0  0  0  0  0  0  0  0  0  0
   -9.8047    2.4174  -24.9507 H   0  0  0  0  0  0  0  0  0  0  0  0
   -8.5729    1.4892  -25.8046 H   0  0  0  0  0  0  0  0  0  0  0  0
   -9.2383    2.7726  -22.4566 H   0  0  0  0  0  0  0  0  0  0  0  0
   -6.6480    4.1524  -22.4182 H   0  0  0  0  0  0  0  0  0  0  0  0
   -7.8001    4.0155  -21.0778 H   0  0  0  0  0  0  0  0  0  0  0  0
   -6.6680    2.6726  -21.4576 H   0  0  0  0  0  0  0  0  0  0  0  0
  1  2  1  0
  2  3  1  0
  3  4  2  0
  3  5  1  0
  5  6  1  0
  6  7  1  0
  8  7  1  6
  8  9  1  0
  9 10  2  0
  9 11  1  0
 11 12  1  0
 12 13  2  0
 13 14  1  0
 14 15  2  0
 15 16  1  0
 16 17  2  0
 17 18  1  0
 18 19  2  0
 19 20  1  0
 20 21  2  0
 20 22  1  0
 19 23  1  0
 18 24  1  0
 17 25  1  0
 15 26  1  0
 13 27  1  0
 11 28  1  0
 28 29  1  0
 29 30  1  0
 30 31  1  0
 31 32  1  0
 32 33  1  0
 33 34  2  0
 34 35  1  0
 35 36  1  0
 36 37  1  0
 36 38  1  0
 36 39  1  0
 35 40  1  0
 40 41  1  0
 33 42  1  0
 31 43  1  0
 30 44  1  0
 30 45  1  0
 29 46  1  1
 28 47  1  0
 28 48  1  0
  8 49  1  0
 49 50  2  0
 50 51  1  0
 51 52  1  0
 51 53  2  0
 53 54  1  0
 54 55  2  0
 55 56  1  0
 56 57  2  0
 54 58  1  0
 53 59  1  0
 50 60  1  0
  7 61  1  0
  7 62  1  0
  5 63  1  0
  5 64  1  0
  2 65  1  0
  1 66  1  0
  1 67  1  0
  1 68  1  0
 56  6  1  0
 29  8  1  0
 40 32  2  0
 55 49  1  0
 21 12  1  0
 21 16  1  0
M  END
>  <cnnaffinities>  (2) 
[6.25556]

>  <score>  (2) 
6.25556

>  <index>  (2) 
1

>  <Smiles>  (2) 
C(N(C(=O)C(N1C([C@@]2(C(=O)N(c3c(nc(c4c(c(c(c(c34)[H])[H])[H])[H])[H])[H])C([C@@]2(C(N(c2c(nn(C([H])([H])[H])c2[H])[H])[H])([H])[H])[H])([H])[H])c2c(c(Cl)c(c(c2C1=O)[H])[H])[H])([H])[H])([H])[H])[H])([H])([H])[H]

>  <h>  (2) 
<NA>

>  <Training>  (2) 
True

>  <Success>  (2) 
True

>  <enamine_searched>  (2) 
False

>  <enamine_id>  (2) 
nan

$$$$

     RDKit          3D

 60 65  0  0  0  0  0  0  0  0999 V2000
   -6.3285    1.0715  -30.6319 C   0  0  0  0  0  0  0  0  0  0  0  0
   -6.7038    1.2291  -29.1822 C   0  0  0  0  0  0  0  0  0  0  0  0
   -6.0628    0.4832  -28.1878 C   0  0  0  0  0  0  0  0  0  0  0  0
   -6.3566    0.5878  -26.8939 N   0  0  0  0  0  0  0  0  0  0  0  0
   -7.3276    1.4510  -26.5741 C   0  0  0  0  0  0  0  0  0  0  0  0
   -7.7398    1.5599  -25.1212 C   0  0  0  0  0  0  0  0  0  0  0  0
   -8.7076    0.5419  -24.6921 N   0  0  0  0  0  0  0  0  0  0  0  0
   -8.2505   -0.8123  -24.4223 C   0  0  0  0  0  0  0  0  0  0  0  0
   -8.8813   -1.3621  -23.1117 C   0  0  2  0  0  0  0  0  0  0  0  0
   -8.3063   -0.5533  -21.9258 C   0  0  0  0  0  0  0  0  0  0  0  0
   -8.5492    0.6033  -21.6665 O   0  0  0  0  0  0  0  0  0  0  0  0
   -7.4405   -1.3475  -21.2025 N   0  0  0  0  0  0  0  0  0  0  0  0
   -6.6066   -0.8000  -20.1792 C   0  0  0  0  0  0  0  0  0  0  0  0
   -6.8869   -1.0476  -18.8605 C   0  0  0  0  0  0  0  0  0  0  0  0
   -6.1833   -0.5485  -17.8133 N   0  0  0  0  0  0  0  0  0  0  0  0
   -5.1551    0.2212  -18.0683 C   0  0  0  0  0  0  0  0  0  0  0  0
   -4.7208    0.5331  -19.3879 C   0  0  0  0  0  0  0  0  0  0  0  0
   -3.5932    1.3651  -19.6318 C   0  0  0  0  0  0  0  0  0  0  0  0
   -3.2078    1.6458  -20.9140 C   0  0  0  0  0  0  0  0  0  0  0  0
   -3.9249    1.1091  -22.0052 C   0  0  0  0  0  0  0  0  0  0  0  0
   -5.0134    0.3018  -21.7938 C   0  0  0  0  0  0  0  0  0  0  0  0
   -5.4534    0.0024  -20.4759 C   0  0  0  0  0  0  0  0  0  0  0  0
   -5.5588   -0.1132  -22.6360 H   0  0  0  0  0  0  0  0  0  0  0  0
   -3.6101    1.3324  -23.0200 H   0  0  0  0  0  0  0  0  0  0  0  0
   -2.3511    2.2849  -21.1068 H   0  0  0  0  0  0  0  0  0  0  0  0
   -3.0525    1.7815  -18.7850 H   0  0  0  0  0  0  0  0  0  0  0  0
   -4.6007    0.6275  -17.2172 H   0  0  0  0  0  0  0  0  0  0  0  0
   -7.7414   -1.6674  -18.5940 H   0  0  0  0  0  0  0  0  0  0  0  0
   -7.2322   -2.6550  -21.7950 C   0  0  0  0  0  0  0  0  0  0  0  0
   -8.4006   -2.8137  -22.7899 C   0  0  2  0  0  0  0  0  0  0  0  0
   -8.0326   -3.6976  -23.9835 C   0  0  0  0  0  0  0  0  0  0  0  0
   -7.1577   -3.3174  -24.5226 H   0  0  0  0  0  0  0  0  0  0  0  0
   -8.8582   -3.7715  -24.6984 H   0  0  0  0  0  0  0  0  0  0  0  0
   -7.7927   -4.7127  -23.6504 H   0  0  0  0  0  0  0  0  0  0  0  0
   -9.2112   -3.3235  -22.2620 H   0  0  0  0  0  0  0  0  0  0  0  0
   -6.2609   -2.7246  -22.3086 H   0  0  0  0  0  0  0  0  0  0  0  0
   -7.2442   -3.4321  -21.0286 H   0  0  0  0  0  0  0  0  0  0  0  0
  -10.3940   -1.1395  -23.1704 C   0  0  0  0  0  0  0  0  0  0  0  0
  -11.2539   -1.7964  -22.2757 C   0  0  0  0  0  0  0  0  0  0  0  0
  -12.6193   -1.5777  -22.3384 C   0  0  0  0  0  0  0  0  0  0  0  0
  -13.4273   -2.2416  -21.4934 F   0  0  0  0  0  0  0  0  0  0  0  0
  -13.1929   -0.6878  -23.2377 C   0  0  0  0  0  0  0  0  0  0  0  0
  -12.3397    0.0295  -24.0550 C   0  0  0  0  0  0  0  0  0  0  0  0
  -10.9498   -0.1592  -24.0119 C   0  0  0  0  0  0  0  0  0  0  0  0
  -10.0585    0.7846  -24.7938 C   0  0  0  0  0  0  0  0  0  0  0  0
  -10.5151    1.7195  -25.4362 O   0  0  0  0  0  0  0  0  0  0  0  0
  -12.7648    0.7734  -24.7167 H   0  0  0  0  0  0  0  0  0  0  0  0
  -14.2732   -0.5478  -23.2530 H   0  0  0  0  0  0  0  0  0  0  0  0
  -10.8830   -2.4531  -21.4952 H   0  0  0  0  0  0  0  0  0  0  0  0
   -7.1602   -0.8066  -24.3463 H   0  0  0  0  0  0  0  0  0  0  0  0
   -8.4978   -1.4666  -25.2718 H   0  0  0  0  0  0  0  0  0  0  0  0
   -6.8470    1.4665  -24.4912 H   0  0  0  0  0  0  0  0  0  0  0  0
   -8.1663    2.5439  -24.9065 H   0  0  0  0  0  0  0  0  0  0  0  0
   -7.9609    2.1980  -27.5629 C   0  0  0  0  0  0  0  0  0  0  0  0
   -7.6607    2.0973  -28.8615 N   0  0  0  0  0  0  0  0  0  0  0  0
   -8.7490    2.8956  -27.2905 H   0  0  0  0  0  0  0  0  0  0  0  0
   -5.2859   -0.2263  -28.4622 H   0  0  0  0  0  0  0  0  0  0  0  0
   -6.4938    0.0470  -30.9801 H   0  0  0  0  0  0  0  0  0  0  0  0
   -6.9152    1.7438  -31.2593 H   0  0  0  0  0  0  0  0  0  0  0  0
   -5.2678    1.2847  -30.7985 H   0  0  0  0  0  0  0  0  0  0  0  0
  1  2  1  0
  2  3  2  0
  3  4  1  0
  4  5  2  0
  5  6  1  0
  6  7  1  0
  7  8  1  0
  9  8  1  6
  9 10  1  0
 10 11  2  0
 10 12  1  0
 12 13  1  0
 13 14  2  0
 14 15  1  0
 15 16  2  0
 16 17  1  0
 17 18  2  0
 18 19  1  0
 19 20  2  0
 20 21  1  0
 21 22  2  0
 21 23  1  0
 20 24  1  0
 19 25  1  0
 18 26  1  0
 16 27  1  0
 14 28  1  0
 12 29  1  0
 29 30  1  0
 30 31  1  0
 31 32  1  0
 31 33  1  0
 31 34  1  0
 30 35  1  1
 29 36  1  0
 29 37  1  0
  9 38  1  0
 38 39  2  0
 39 40  1  0
 40 41  1  0
 40 42  2  0
 42 43  1  0
 43 44  2  0
 44 45  1  0
 45 46  2  0
 43 47  1  0
 42 48  1  0
 39 49  1  0
  8 50  1  0
  8 51  1  0
  6 52  1  0
  6 53  1  0
  5 54  1  0
 54 55  2  0
 54 56  1  0
  3 57  1  0
  1 58  1  0
  1 59  1  0
  1 60  1  0
 55  2  1  0
 45  7  1  0
 30  9  1  0
 44 38  1  0
 22 13  1  0
 22 17  1  0
M  END
>  <cnnaffinities>  (3) 
[6.67958, 6.51759]

>  <score>  (3) 
6.67958

>  <index>  (3) 
2

>  <Smiles>  (3) 
C(c1c(nc(C(N2C([C@@]3(C(=O)N(c4c(nc(c5c(c(c(c(c45)[H])[H])[H])[H])[H])[H])C([C@@]3(C([H])([H])[H])[H])([H])[H])c3c(c(F)c(c(c3C2=O)[H])[H])[H])([H])[H])([H])[H])c(n1)[H])[H])([H])([H])[H]

>  <h>  (3) 
<NA>

>  <Training>  (3) 
True

>  <Success>  (3) 
True

>  <enamine_searched>  (3) 
False

>  <enamine_id>  (3) 
nan

$$$$

     RDKit          3D

 66 70  0  0  0  0  0  0  0  0999 V2000
   -7.4507    3.3391  -21.7598 C   0  0  0  0  0  0  0  0  0  0  0  0
   -8.3685    2.8980  -22.7953 N   0  0  0  0  0  0  0  0  0  0  0  0
   -7.8308    2.1984  -23.8222 C   0  0  0  0  0  0  0  0  0  0  0  0
   -6.6192    2.0802  -23.9628 O   0  0  0  0  0  0  0  0  0  0  0  0
   -8.8057    1.5769  -24.8267 C   0  0  0  0  0  0  0  0  0  0  0  0
   -9.5072    0.4133  -24.3187 N   0  0  0  0  0  0  0  0  0  0  0  0
   -8.7727   -0.8294  -24.1767 C   0  0  0  0  0  0  0  0  0  0  0  0
   -9.1167   -1.5484  -22.8483 C   0  0  2  0  0  0  0  0  0  0  0  0
   -8.5486   -0.7469  -21.6438 C   0  0  0  0  0  0  0  0  0  0  0  0
   -9.0055    0.2635  -21.1520 O   0  0  0  0  0  0  0  0  0  0  0  0
   -7.4055   -1.3775  -21.2008 N   0  0  0  0  0  0  0  0  0  0  0  0
   -6.6053   -0.8077  -20.1739 C   0  0  0  0  0  0  0  0  0  0  0  0
   -6.9074   -1.0422  -18.8574 C   0  0  0  0  0  0  0  0  0  0  0  0
   -6.1978   -0.5506  -17.8136 N   0  0  0  0  0  0  0  0  0  0  0  0
   -5.1651    0.2084  -18.0811 C   0  0  0  0  0  0  0  0  0  0  0  0
   -4.7293    0.5317  -19.3960 C   0  0  0  0  0  0  0  0  0  0  0  0
   -3.6054    1.3683  -19.6422 C   0  0  0  0  0  0  0  0  0  0  0  0
   -3.2221    1.6632  -20.9208 C   0  0  0  0  0  0  0  0  0  0  0  0
   -3.9473    1.1356  -22.0133 C   0  0  0  0  0  0  0  0  0  0  0  0
   -5.0376    0.3245  -21.8013 C   0  0  0  0  0  0  0  0  0  0  0  0
   -5.4665    0.0034  -20.4863 C   0  0  0  0  0  0  0  0  0  0  0  0
   -5.5931   -0.0608  -22.6520 H   0  0  0  0  0  0  0  0  0  0  0  0
   -3.6556    1.3742  -23.0299 H   0  0  0  0  0  0  0  0  0  0  0  0
   -2.3713    2.3142  -21.1017 H   0  0  0  0  0  0  0  0  0  0  0  0
   -3.0783    1.7781  -18.7837 H   0  0  0  0  0  0  0  0  0  0  0  0
   -4.6180    0.6135  -17.2292 H   0  0  0  0  0  0  0  0  0  0  0  0
   -7.7580   -1.6665  -18.5962 H   0  0  0  0  0  0  0  0  0  0  0  0
   -7.0694   -2.5896  -21.9238 C   0  0  0  0  0  0  0  0  0  0  0  0
   -8.3546   -2.9010  -22.7206 C   0  0  2  0  0  0  0  0  0  0  0  0
   -8.0580   -3.6710  -24.0139 C   0  0  0  0  0  0  0  0  0  0  0  0
   -7.4880   -4.9323  -23.7268 O   0  0  0  0  0  0  0  0  0  0  0  0
   -8.4265   -6.0012  -23.6066 C   0  0  0  0  0  0  0  0  0  0  0  0
   -7.9266   -6.9300  -22.5112 C   0  0  0  0  0  0  0  0  0  0  0  0
   -7.8658   -6.3938  -21.5593 H   0  0  0  0  0  0  0  0  0  0  0  0
   -6.9317   -7.3103  -22.7580 H   0  0  0  0  0  0  0  0  0  0  0  0
   -8.6009   -7.7867  -22.4097 H   0  0  0  0  0  0  0  0  0  0  0  0
   -8.5636   -6.7369  -24.9374 C   0  0  0  0  0  0  0  0  0  0  0  0
   -8.9084   -6.0668  -25.7331 H   0  0  0  0  0  0  0  0  0  0  0  0
   -9.2836   -7.5591  -24.8455 H   0  0  0  0  0  0  0  0  0  0  0  0
   -7.5915   -7.1492  -25.2271 H   0  0  0  0  0  0  0  0  0  0  0  0
   -9.4110   -5.5830  -23.3275 H   0  0  0  0  0  0  0  0  0  0  0  0
   -8.9728   -3.7785  -24.6217 H   0  0  0  0  0  0  0  0  0  0  0  0
   -7.3144   -3.1309  -24.6165 H   0  0  0  0  0  0  0  0  0  0  0  0
   -8.9766   -3.5556  -22.1050 H   0  0  0  0  0  0  0  0  0  0  0  0
   -6.7966   -3.3976  -21.2345 H   0  0  0  0  0  0  0  0  0  0  0  0
   -6.2083   -2.4293  -22.5920 H   0  0  0  0  0  0  0  0  0  0  0  0
  -10.6306   -1.6189  -22.7399 C   0  0  0  0  0  0  0  0  0  0  0  0
  -11.2336   -2.5278  -21.8631 C   0  0  0  0  0  0  0  0  0  0  0  0
  -12.6096   -2.5627  -21.7367 C   0  0  0  0  0  0  0  0  0  0  0  0
  -13.3470   -3.6868  -20.6327 Cl  0  0  0  0  0  0  0  0  0  0  0  0
  -13.4288   -1.6965  -22.4596 C   0  0  0  0  0  0  0  0  0  0  0  0
  -12.8411   -0.7579  -23.2831 C   0  0  0  0  0  0  0  0  0  0  0  0
  -11.4532   -0.6954  -23.4027 C   0  0  0  0  0  0  0  0  0  0  0  0
  -10.8701    0.4418  -24.1872 C   0  0  0  0  0  0  0  0  0  0  0  0
  -11.5669    1.3399  -24.6421 O   0  0  0  0  0  0  0  0  0  0  0  0
  -13.4252   -0.0300  -23.8375 H   0  0  0  0  0  0  0  0  0  0  0  0
  -14.5047   -1.7508  -22.3479 H   0  0  0  0  0  0  0  0  0  0  0  0
  -10.6357   -3.1924  -21.2515 H   0  0  0  0  0  0  0  0  0  0  0  0
   -8.9970   -1.5072  -25.0168 H   0  0  0  0  0  0  0  0  0  0  0  0
   -7.7084   -0.5743  -24.1952 H   0  0  0  0  0  0  0  0  0  0  0  0
   -9.5905    2.2769  -25.1242 H   0  0  0  0  0  0  0  0  0  0  0  0
   -8.1907    1.3143  -25.6969 H   0  0  0  0  0  0  0  0  0  0  0  0
   -9.3594    2.8130  -22.6101 H   0  0  0  0  0  0  0  0  0  0  0  0
   -6.7732    4.1073  -22.1504 H   0  0  0  0  0  0  0  0  0  0  0  0
   -6.8417    2.4851  -21.4245 H   0  0  0  0  0  0  0  0  0  0  0  0
   -8.0184    3.7656  -20.9345 H   0  0  0  0  0  0  0  0  0  0  0  0
  1  2  1  0
  2  3  1  0
  3  4  2  0
  3  5  1  0
  5  6  1  0
  6  7  1  0
  8  7  1  6
  8  9  1  0
  9 10  2  0
  9 11  1  0
 11 12  1  0
 12 13  2  0
 13 14  1  0
 14 15  2  0
 15 16  1  0
 16 17  2  0
 17 18  1  0
 18 19  2  0
 19 20  1  0
 20 21  2  0
 20 22  1  0
 19 23  1  0
 18 24  1  0
 17 25  1  0
 15 26  1  0
 13 27  1  0
 11 28  1  0
 28 29  1  0
 29 30  1  0
 30 31  1  0
 31 32  1  0
 32 33  1  0
 33 34  1  0
 33 35  1  0
 33 36  1  0
 32 37  1  0
 37 38  1  0
 37 39  1  0
 37 40  1  0
 32 41  1  0
 30 42  1  0
 30 43  1  0
 29 44  1  1
 28 45  1  0
 28 46  1  0
  8 47  1  0
 47 48  2  0
 48 49  1  0
 49 50  1  0
 49 51  2  0
 51 52  1  0
 52 53  2  0
 53 54  1  0
 54 55  2  0
 52 56  1  0
 51 57  1  0
 48 58  1  0
  7 59  1  0
  7 60  1  0
  5 61  1  0
  5 62  1  0
  2 63  1  0
  1 64  1  0
  1 65  1  0
  1 66  1  0
 54  6  1  0
 29  8  1  0
 53 47  1  0
 21 12  1  0
 21 16  1  0
M  END
>  <cnnaffinities>  (4) 
[6.36276, 6.38169, 6.49652, 6.64594, 6.38919]

>  <score>  (4) 
6.36276

>  <index>  (4) 
3

>  <Smiles>  (4) 
C(N(C(=O)C(N1C([C@@]2(C(=O)N(c3c(nc(c4c(c(c(c(c34)[H])[H])[H])[H])[H])[H])C([C@@]2(C(OC(C([H])([H])[H])(C([H])([H])[H])[H])([H])[H])[H])([H])[H])c2c(c(Cl)c(c(c2C1=O)[H])[H])[H])([H])[H])([H])[H])[H])([H])([H])[H]

>  <h>  (4) 
<NA>

>  <Training>  (4) 
True

>  <Success>  (4) 
True

>  <enamine_searched>  (4) 
False

>  <enamine_id>  (4) 
nan

$$$$

     RDKit          3D

 59 64  0  0  0  0  0  0  0  0999 V2000
   -8.0724   -3.8374  -23.8630 C   0  0  0  0  0  0  0  0  0  0  0  0
   -8.4141   -2.8542  -22.7345 C   0  0  1  0  0  0  0  0  0  0  0  0
   -7.2605   -2.7007  -21.7202 C   0  0  0  0  0  0  0  0  0  0  0  0
   -7.4333   -1.3587  -21.1969 N   0  0  0  0  0  0  0  0  0  0  0  0
   -6.6121   -0.7989  -20.1819 C   0  0  0  0  0  0  0  0  0  0  0  0
   -6.8953   -1.0506  -18.8653 C   0  0  0  0  0  0  0  0  0  0  0  0
   -6.1871   -0.5588  -17.8208 N   0  0  0  0  0  0  0  0  0  0  0  0
   -5.1621    0.2107  -18.0877 C   0  0  0  0  0  0  0  0  0  0  0  0
   -4.7347    0.5343  -19.4056 C   0  0  0  0  0  0  0  0  0  0  0  0
   -3.6019    1.3601  -19.6448 C   0  0  0  0  0  0  0  0  0  0  0  0
   -3.2031    1.6411  -20.9218 C   0  0  0  0  0  0  0  0  0  0  0  0
   -3.9159    1.1010  -22.0191 C   0  0  0  0  0  0  0  0  0  0  0  0
   -5.0120    0.3006  -21.8130 C   0  0  0  0  0  0  0  0  0  0  0  0
   -5.4693    0.0100  -20.4953 C   0  0  0  0  0  0  0  0  0  0  0  0
   -5.5394   -0.1171  -22.6680 H   0  0  0  0  0  0  0  0  0  0  0  0
   -3.6060    1.3174  -23.0369 H   0  0  0  0  0  0  0  0  0  0  0  0
   -2.3470    2.2864  -21.0965 H   0  0  0  0  0  0  0  0  0  0  0  0
   -3.0778    1.7725  -18.7853 H   0  0  0  0  0  0  0  0  0  0  0  0
   -4.6184    0.6164  -17.2338 H   0  0  0  0  0  0  0  0  0  0  0  0
   -7.7434   -1.6785  -18.5998 H   0  0  0  0  0  0  0  0  0  0  0  0
   -8.2407   -0.5590  -21.9723 C   0  0  0  0  0  0  0  0  0  0  0  0
   -8.4392    0.6184  -21.7510 O   0  0  0  0  0  0  0  0  0  0  0  0
   -8.7921   -1.3955  -23.1524 C   0  0  1  0  0  0  0  0  0  0  0  0
   -8.0668   -0.9689  -24.4550 C   0  0  0  0  0  0  0  0  0  0  0  0
   -8.4360    0.3699  -24.8666 N   0  0  0  0  0  0  0  0  0  0  0  0
   -7.3872    1.3709  -25.0202 C   0  0  0  0  0  0  0  0  0  0  0  0
   -6.2963    0.9677  -25.9725 C   0  0  0  0  0  0  0  0  0  0  0  0
   -5.0462    0.7278  -25.6279 N   0  0  0  0  0  0  0  0  0  0  0  0
   -4.4128    0.3476  -26.7836 C   0  0  0  0  0  0  0  0  0  0  0  0
   -5.2927    0.3651  -27.8324 C   0  0  0  0  0  0  0  0  0  0  0  0
   -6.5009    0.7707  -27.3053 N   0  0  0  0  0  0  0  0  0  0  0  0
   -7.7503    0.9202  -28.0295 C   0  0  0  0  0  0  0  0  0  0  0  0
   -8.4602    0.1337  -27.7543 H   0  0  0  0  0  0  0  0  0  0  0  0
   -8.2047    1.8964  -27.8271 H   0  0  0  0  0  0  0  0  0  0  0  0
   -7.5265    0.8472  -29.0968 H   0  0  0  0  0  0  0  0  0  0  0  0
   -5.1925    0.1281  -28.8803 H   0  0  0  0  0  0  0  0  0  0  0  0
   -3.3654    0.0715  -26.7789 H   0  0  0  0  0  0  0  0  0  0  0  0
   -7.8932    2.2864  -25.3428 H   0  0  0  0  0  0  0  0  0  0  0  0
   -6.9084    1.5537  -24.0476 H   0  0  0  0  0  0  0  0  0  0  0  0
   -9.7522    0.7113  -25.0025 C   0  0  0  0  0  0  0  0  0  0  0  0
  -10.1284    1.6605  -25.6821 O   0  0  0  0  0  0  0  0  0  0  0  0
  -10.7232   -0.1385  -24.2319 C   0  0  0  0  0  0  0  0  0  0  0  0
  -12.0822    0.1542  -24.3507 C   0  0  0  0  0  0  0  0  0  0  0  0
  -13.0217   -0.5276  -23.6051 C   0  0  0  0  0  0  0  0  0  0  0  0
  -12.5636   -1.4331  -22.6553 C   0  0  0  0  0  0  0  0  0  0  0  0
  -13.4608   -2.0275  -21.8513 F   0  0  0  0  0  0  0  0  0  0  0  0
  -11.2237   -1.7183  -22.4879 C   0  0  0  0  0  0  0  0  0  0  0  0
  -10.2774   -1.1181  -23.3296 C   0  0  0  0  0  0  0  0  0  0  0  0
  -10.9459   -2.3796  -21.6735 H   0  0  0  0  0  0  0  0  0  0  0  0
  -14.0849   -0.3408  -23.7039 H   0  0  0  0  0  0  0  0  0  0  0  0
  -12.3661    0.9732  -25.0012 H   0  0  0  0  0  0  0  0  0  0  0  0
   -6.9850   -0.9766  -24.3013 H   0  0  0  0  0  0  0  0  0  0  0  0
   -8.3166   -1.6793  -25.2575 H   0  0  0  0  0  0  0  0  0  0  0  0
   -7.3055   -3.4332  -20.9084 H   0  0  0  0  0  0  0  0  0  0  0  0
   -6.2824   -2.8239  -22.2139 H   0  0  0  0  0  0  0  0  0  0  0  0
   -9.2780   -3.2481  -22.1934 H   0  0  0  0  0  0  0  0  0  0  0  0
   -7.9019   -4.8461  -23.4668 H   0  0  0  0  0  0  0  0  0  0  0  0
   -8.8746   -3.9033  -24.6075 H   0  0  0  0  0  0  0  0  0  0  0  0
   -7.1576   -3.5360  -24.3898 H   0  0  0  0  0  0  0  0  0  0  0  0
  1  2  1  0
  2  3  1  0
  3  4  1  0
  4  5  1  0
  5  6  2  0
  6  7  1  0
  7  8  2  0
  8  9  1  0
  9 10  2  0
 10 11  1  0
 11 12  2  0
 12 13  1  0
 13 14  2  0
 13 15  1  0
 12 16  1  0
 11 17  1  0
 10 18  1  0
  8 19  1  0
  6 20  1  0
  4 21  1  0
 21 22  2  0
 21 23  1  0
 23 24  1  6
 24 25  1  0
 25 26  1  0
 26 27  1  0
 27 28  2  0
 28 29  1  0
 29 30  2  0
 30 31  1  0
 31 32  1  0
 32 33  1  0
 32 34  1  0
 32 35  1  0
 30 36  1  0
 29 37  1  0
 26 38  1  0
 26 39  1  0
 25 40  1  0
 40 41  2  0
 40 42  1  0
 42 43  2  0
 43 44  1  0
 44 45  2  0
 45 46  1  0
 45 47  1  0
 47 48  2  0
 47 49  1  0
 44 50  1  0
 43 51  1  0
 24 52  1  0
 24 53  1  0
  3 54  1  0
  3 55  1  0
  2 56  1  1
  1 57  1  0
  1 58  1  0
  1 59  1  0
 23  2  1  0
 31 27  1  0
 48 42  1  0
 14  5  1  0
 48 23  1  0
 14  9  1  0
M  END
>  <cnnaffinities>  (5) 
[6.54378, 6.04204, 5.92115, 6.47894, 6.47114]

>  <score>  (5) 
6.54378

>  <index>  (5) 
4

>  <Smiles>  (5) 
C([C@]1(C(N(c2c(nc(c3c(c(c(c(c23)[H])[H])[H])[H])[H])[H])C(=O)[C@]21C(N(C(c1nc(c(n1C([H])([H])[H])[H])[H])([H])[H])C(=O)c1c(c(c(F)c(c21)[H])[H])[H])([H])[H])([H])[H])[H])([H])([H])[H]

>  <h>  (5) 
<NA>

>  <Training>  (5) 
True

>  <Success>  (5) 
True

>  <enamine_searched>  (5) 
False

>  <enamine_id>  (5) 
nan

$$$$

     RDKit          3D

 58 61  0  0  0  0  0  0  0  0999 V2000
   -8.0358   -4.6413  -21.9686 C   0  0  0  0  0  0  0  0  0  0  0  0
   -7.0101   -3.8611  -21.6384 C   0  0  0  0  0  0  0  0  0  0  0  0
   -6.7280   -2.4496  -22.0431 C   0  0  0  0  0  0  0  0  0  0  0  0
   -7.3761   -1.3975  -21.2467 N   0  0  0  0  0  0  0  0  0  0  0  0
   -8.6105   -0.7945  -21.4879 C   0  0  0  0  0  0  0  0  0  0  0  0
   -9.0716    0.0047  -20.7045 O   0  0  0  0  0  0  0  0  0  0  0  0
   -9.3206   -1.1091  -22.8047 C   0  0  2  0  0  0  0  0  0  0  0  0
   -8.7156   -0.2372  -23.9168 C   0  0  0  0  0  0  0  0  0  0  0  0
   -9.0520    1.1551  -23.6651 N   0  0  0  0  0  0  0  0  0  0  0  0
   -8.0110    2.1629  -23.7142 C   0  0  0  0  0  0  0  0  0  0  0  0
   -7.5028    2.3279  -25.1440 C   0  0  0  0  0  0  0  0  0  0  0  0
   -6.4567    1.8303  -25.5366 O   0  0  0  0  0  0  0  0  0  0  0  0
   -8.3388    3.0181  -25.9576 N   0  0  0  0  0  0  0  0  0  0  0  0
   -7.9749    3.2112  -27.3466 C   0  0  0  0  0  0  0  0  0  0  0  0
   -7.0234    3.7483  -27.4158 H   0  0  0  0  0  0  0  0  0  0  0  0
   -7.8474    2.2512  -27.8598 H   0  0  0  0  0  0  0  0  0  0  0  0
   -8.7548    3.7903  -27.8457 H   0  0  0  0  0  0  0  0  0  0  0  0
   -9.2516    3.2914  -25.6188 H   0  0  0  0  0  0  0  0  0  0  0  0
   -7.1749    1.8732  -23.0667 H   0  0  0  0  0  0  0  0  0  0  0  0
   -8.4517    3.0930  -23.3412 H   0  0  0  0  0  0  0  0  0  0  0  0
  -10.3499    1.5483  -23.5083 C   0  0  0  0  0  0  0  0  0  0  0  0
  -10.7156    2.6981  -23.7442 O   0  0  0  0  0  0  0  0  0  0  0  0
  -11.2761    0.4787  -23.0214 C   0  0  0  0  0  0  0  0  0  0  0  0
  -12.6326    0.7762  -22.8945 C   0  0  0  0  0  0  0  0  0  0  0  0
  -13.5243   -0.2007  -22.4902 C   0  0  0  0  0  0  0  0  0  0  0  0
  -13.0420   -1.4682  -22.1656 C   0  0  0  0  0  0  0  0  0  0  0  0
  -14.1622   -2.6907  -21.6341 Cl  0  0  0  0  0  0  0  0  0  0  0  0
  -11.6879   -1.7613  -22.2508 C   0  0  0  0  0  0  0  0  0  0  0  0
  -10.7923   -0.7901  -22.6999 C   0  0  0  0  0  0  0  0  0  0  0  0
  -11.3271   -2.7455  -21.9612 H   0  0  0  0  0  0  0  0  0  0  0  0
  -14.5855    0.0128  -22.4094 H   0  0  0  0  0  0  0  0  0  0  0  0
  -12.9653    1.7839  -23.1208 H   0  0  0  0  0  0  0  0  0  0  0  0
   -9.1056   -0.5624  -24.8893 H   0  0  0  0  0  0  0  0  0  0  0  0
   -7.6260   -0.3100  -23.9650 H   0  0  0  0  0  0  0  0  0  0  0  0
   -9.1951   -2.1728  -23.0155 H   0  0  0  0  0  0  0  0  0  0  0  0
   -6.6111   -0.8144  -20.1979 C   0  0  0  0  0  0  0  0  0  0  0  0
   -6.9417   -1.0431  -18.8904 C   0  0  0  0  0  0  0  0  0  0  0  0
   -6.2396   -0.5647  -17.8379 N   0  0  0  0  0  0  0  0  0  0  0  0
   -5.1878    0.1794  -18.0853 C   0  0  0  0  0  0  0  0  0  0  0  0
   -4.7379    0.5040  -19.3982 C   0  0  0  0  0  0  0  0  0  0  0  0
   -3.6079    1.3346  -19.6369 C   0  0  0  0  0  0  0  0  0  0  0  0
   -3.2169    1.6370  -20.9127 C   0  0  0  0  0  0  0  0  0  0  0  0
   -3.9421    1.1304  -22.0135 C   0  0  0  0  0  0  0  0  0  0  0  0
   -5.0457    0.3389  -21.8094 C   0  0  0  0  0  0  0  0  0  0  0  0
   -5.4663   -0.0066  -20.4939 C   0  0  0  0  0  0  0  0  0  0  0  0
   -5.5984   -0.0271  -22.6702 H   0  0  0  0  0  0  0  0  0  0  0  0
   -3.6322    1.3629  -23.0276 H   0  0  0  0  0  0  0  0  0  0  0  0
   -2.3648    2.2886  -21.0870 H   0  0  0  0  0  0  0  0  0  0  0  0
   -3.0887    1.7476  -18.7775 H   0  0  0  0  0  0  0  0  0  0  0  0
   -4.6433    0.5669  -17.2222 H   0  0  0  0  0  0  0  0  0  0  0  0
   -7.8249   -1.6336  -18.6517 H   0  0  0  0  0  0  0  0  0  0  0  0
   -6.8856   -2.2678  -23.1165 H   0  0  0  0  0  0  0  0  0  0  0  0
   -5.6655   -2.4387  -21.7541 H   0  0  0  0  0  0  0  0  0  0  0  0
   -5.7647   -4.3361  -20.8191 C   0  0  0  0  0  0  0  0  0  0  0  0
   -4.9070   -3.4323  -20.6778 O   0  0  0  0  0  0  0  0  0  0  0  0
   -5.6615   -5.4826  -20.3681 O   0  0  0  0  0  1  0  0  0  0  0  0
   -8.8095   -4.2924  -22.6563 H   0  0  0  0  0  0  0  0  0  0  0  0
   -8.1667   -5.6475  -21.5853 H   0  0  0  0  0  0  0  0  0  0  0  0
  1  2  2  0
  2  3  1  0
  3  4  1  0
  4  5  1  0
  5  6  2  0
  5  7  1  0
  7  8  1  0
  8  9  1  0
  9 10  1  0
 10 11  1  0
 11 12  2  0
 11 13  1  0
 13 14  1  0
 14 15  1  0
 14 16  1  0
 14 17  1  0
 13 18  1  0
 10 19  1  0
 10 20  1  0
  9 21  1  0
 21 22  2  0
 21 23  1  0
 23 24  2  0
 24 25  1  0
 25 26  2  0
 26 27  1  0
 26 28  1  0
 28 29  2  0
 28 30  1  0
 25 31  1  0
 24 32  1  0
  8 33  1  0
  8 34  1  0
  7 35  1  6
  4 36  1  0
 36 37  2  0
 37 38  1  0
 38 39  2  0
 39 40  1  0
 40 41  2  0
 41 42  1  0
 42 43  2  0
 43 44  1  0
 44 45  2  0
 44 46  1  0
 43 47  1  0
 42 48  1  0
 41 49  1  0
 39 50  1  0
 37 51  1  0
  3 52  1  0
  3 53  1  0
  2 54  1  0
 54 55  2  0
 54 56  1  0
  1 57  1  0
  1 58  1  0
 29  7  1  0
 45 36  1  0
 29 23  1  0
 45 40  1  0
M  CHG  1  56  -1
M  END
>  <cnnaffinities>  (6) 
[6.16438, 6.28877]

>  <score>  (6) 
6.16438

>  <index>  (6) 
5

>  <Smiles>  (6) 
C(=C(C(N(C(=O)[C@@]1(C(N(C(C(=O)N(C([H])([H])[H])[H])([H])[H])C(=O)c2c(c(c(Cl)c(c12)[H])[H])[H])([H])[H])[H])c1c(nc(c2c(c(c(c(c12)[H])[H])[H])[H])[H])[H])([H])[H])C(=O)[O-])([H])[H]

>  <h>  (6) 
<NA>

>  <Training>  (6) 
True

>  <Success>  (6) 
True

>  <enamine_searched>  (6) 
False

>  <enamine_id>  (6) 
nan

$$$$

     RDKit          3D

 43 45  0  0  0  0  0  0  0  0999 V2000
   -9.7240   -6.0269  -26.7138 C   0  0  0  0  0  0  0  0  0  0  0  0
   -9.4390   -6.4508  -25.2776 C   0  0  0  0  0  0  0  0  0  0  0  0
   -8.5442   -5.4659  -24.5158 C   0  0  0  0  0  0  0  0  0  0  0  0
   -8.0818   -6.0235  -23.1806 C   0  0  0  0  0  0  0  0  0  0  0  0
   -7.1015   -5.0854  -22.4891 C   0  0  0  0  0  0  0  0  0  0  0  0
   -7.5912   -3.7040  -22.4412 N   0  0  0  0  0  0  0  0  0  0  0  0
   -6.7895   -2.7845  -21.8061 C   0  0  0  0  0  0  0  0  0  0  0  0
   -5.5997   -3.0067  -21.6427 O   0  0  0  0  0  0  0  0  0  0  0  0
   -7.4230   -1.4812  -21.2593 C   0  0  0  0  0  0  0  0  0  0  0  0
   -6.5808   -0.8289  -20.1830 C   0  0  0  0  0  0  0  0  0  0  0  0
   -6.8723   -1.0433  -18.8626 C   0  0  0  0  0  0  0  0  0  0  0  0
   -6.1821   -0.5415  -17.8047 N   0  0  0  0  0  0  0  0  0  0  0  0
   -5.1559    0.2246  -18.0682 C   0  0  0  0  0  0  0  0  0  0  0  0
   -4.7193    0.5325  -19.3824 C   0  0  0  0  0  0  0  0  0  0  0  0
   -3.5906    1.3582  -19.6222 C   0  0  0  0  0  0  0  0  0  0  0  0
   -3.1888    1.6351  -20.8982 C   0  0  0  0  0  0  0  0  0  0  0  0
   -3.9036    1.0934  -21.9909 C   0  0  0  0  0  0  0  0  0  0  0  0
   -4.9976    0.2900  -21.7850 C   0  0  0  0  0  0  0  0  0  0  0  0
   -5.4449   -0.0122  -20.4752 C   0  0  0  0  0  0  0  0  0  0  0  0
   -5.5176   -0.1375  -22.6369 H   0  0  0  0  0  0  0  0  0  0  0  0
   -3.5744    1.3079  -23.0030 H   0  0  0  0  0  0  0  0  0  0  0  0
   -2.3272    2.2718  -21.0848 H   0  0  0  0  0  0  0  0  0  0  0  0
   -3.0578    1.7754  -18.7685 H   0  0  0  0  0  0  0  0  0  0  0  0
   -4.6020    0.6287  -17.2162 H   0  0  0  0  0  0  0  0  0  0  0  0
   -7.7185   -1.6685  -18.5829 H   0  0  0  0  0  0  0  0  0  0  0  0
   -8.4183   -1.7016  -20.8445 H   0  0  0  0  0  0  0  0  0  0  0  0
   -7.5832   -0.7770  -22.0867 H   0  0  0  0  0  0  0  0  0  0  0  0
   -8.9353   -3.4528  -22.9402 C   0  0  0  0  0  0  0  0  0  0  0  0
   -9.2013   -4.0912  -24.3118 C   0  0  0  0  0  0  0  0  0  0  0  0
   -8.8720   -3.4126  -25.1029 H   0  0  0  0  0  0  0  0  0  0  0  0
  -10.2870   -4.1695  -24.4303 H   0  0  0  0  0  0  0  0  0  0  0  0
   -9.0819   -2.3762  -23.0242 H   0  0  0  0  0  0  0  0  0  0  0  0
   -9.6837   -3.8151  -22.2231 H   0  0  0  0  0  0  0  0  0  0  0  0
   -6.9032   -5.4471  -21.4737 H   0  0  0  0  0  0  0  0  0  0  0  0
   -6.1388   -5.1102  -23.0086 H   0  0  0  0  0  0  0  0  0  0  0  0
   -7.6050   -6.9984  -23.3295 H   0  0  0  0  0  0  0  0  0  0  0  0
   -8.9473   -6.2212  -22.5464 H   0  0  0  0  0  0  0  0  0  0  0  0
   -7.6408   -5.3193  -25.1195 H   0  0  0  0  0  0  0  0  0  0  0  0
   -8.9668   -7.4410  -25.2871 H   0  0  0  0  0  0  0  0  0  0  0  0
  -10.3831   -6.5795  -24.7359 H   0  0  0  0  0  0  0  0  0  0  0  0
  -10.2610   -5.0746  -26.7570 H   0  0  0  0  0  0  0  0  0  0  0  0
   -8.7909   -5.8995  -27.2725 H   0  0  0  0  0  0  0  0  0  0  0  0
  -10.3272   -6.7721  -27.2424 H   0  0  0  0  0  0  0  0  0  0  0  0
  1  2  1  0
  2  3  1  0
  3  4  1  0
  4  5  1  0
  5  6  1  0
  6  7  1  0
  7  8  2  0
  7  9  1  0
  9 10  1  0
 10 11  2  0
 11 12  1  0
 12 13  2  0
 13 14  1  0
 14 15  2  0
 15 16  1  0
 16 17  2  0
 17 18  1  0
 18 19  2  0
 18 20  1  0
 17 21  1  0
 16 22  1  0
 15 23  1  0
 13 24  1  0
 11 25  1  0
  9 26  1  0
  9 27  1  0
  6 28  1  0
 28 29  1  0
 29 30  1  0
 29 31  1  0
 28 32  1  0
 28 33  1  0
  5 34  1  0
  5 35  1  0
  4 36  1  0
  4 37  1  0
  3 38  1  0
  2 39  1  0
  2 40  1  0
  1 41  1  0
  1 42  1  0
  1 43  1  0
 29  3  1  0
 19 10  1  0
 19 14  1  0
M  END
>  <cnnaffinities>  (7) 
[5.22392, 5.22416, 4.62882, 4.63053, 5.16575, 5.00528, 4.76953, 4.70621, 4.70622, 4.62839, 4.62835, 4.94723, 4.69184, 4.61837]

>  <score>  (7) 
5.22392

>  <index>  (7) 
6

>  <Smiles>  (7) 
C(C(C1(C(C(N(C(=O)C(c2c(nc(c3c(c(c(c(c23)[H])[H])[H])[H])[H])[H])([H])[H])C(C1([H])[H])([H])[H])([H])[H])([H])[H])[H])([H])[H])([H])([H])[H]

>  <h>  (7) 
<NA>

>  <Training>  (7) 
True

>  <Success>  (7) 
True

>  <enamine_searched>  (7) 
False

>  <enamine_id>  (7) 
nan

$$$$

     RDKit          3D

 44 47  0  0  0  0  0  0  0  0999 V2000
   -9.5412   -6.2970  -25.7903 C   0  0  0  0  0  0  0  0  0  0  0  0
  -10.9154   -6.1550  -25.1615 C   0  0  0  0  0  0  0  0  0  0  0  0
  -11.1552   -4.6154  -24.2610 S   0  0  0  0  0  0  0  0  0  0  0  0
  -12.4125   -4.6828  -23.5304 O   0  0  0  0  0  0  0  0  0  0  0  0
  -10.9291   -3.5309  -25.2076 O   0  0  0  0  0  0  0  0  0  0  0  0
   -9.8834   -4.5860  -23.1342 N   0  0  0  0  0  0  0  0  0  0  0  0
  -10.0237   -3.7095  -21.9195 C   0  0  0  0  0  0  0  0  0  0  0  0
   -8.8417   -2.8256  -22.4049 C   0  0  0  0  0  0  0  0  0  0  0  0
   -8.6641   -3.8441  -23.5489 C   0  0  0  0  0  0  0  0  0  0  0  0
   -8.6698   -3.4361  -24.5604 H   0  0  0  0  0  0  0  0  0  0  0  0
   -7.7873   -4.4636  -23.3612 H   0  0  0  0  0  0  0  0  0  0  0  0
   -7.6261   -2.7107  -21.4899 C   0  0  0  0  0  0  0  0  0  0  0  0
   -6.9022   -3.5925  -21.0943 O   0  0  0  0  0  0  0  0  0  0  0  0
   -7.4389   -1.3492  -21.2657 N   0  0  0  0  0  0  0  0  0  0  0  0
   -6.6291   -0.8094  -20.2342 C   0  0  0  0  0  0  0  0  0  0  0  0
   -6.9551   -1.0651  -18.9313 C   0  0  0  0  0  0  0  0  0  0  0  0
   -6.2695   -0.5698  -17.8762 N   0  0  0  0  0  0  0  0  0  0  0  0
   -5.2386    0.2024  -18.1208 C   0  0  0  0  0  0  0  0  0  0  0  0
   -4.7845    0.5262  -19.4311 C   0  0  0  0  0  0  0  0  0  0  0  0
   -3.6520    1.3553  -19.6490 C   0  0  0  0  0  0  0  0  0  0  0  0
   -3.2236    1.6171  -20.9223 C   0  0  0  0  0  0  0  0  0  0  0  0
   -3.9235    1.0851  -22.0305 C   0  0  0  0  0  0  0  0  0  0  0  0
   -5.0361    0.3005  -21.8470 C   0  0  0  0  0  0  0  0  0  0  0  0
   -5.4964    0.0061  -20.5340 C   0  0  0  0  0  0  0  0  0  0  0  0
   -5.5712   -0.0996  -22.7027 H   0  0  0  0  0  0  0  0  0  0  0  0
   -3.5703    1.2899  -23.0379 H   0  0  0  0  0  0  0  0  0  0  0  0
   -2.3440    2.2354  -21.0902 H   0  0  0  0  0  0  0  0  0  0  0  0
   -3.1465    1.7693  -18.7795 H   0  0  0  0  0  0  0  0  0  0  0  0
   -4.6956    0.6062  -17.2615 H   0  0  0  0  0  0  0  0  0  0  0  0
   -7.8122   -1.6945  -18.6929 H   0  0  0  0  0  0  0  0  0  0  0  0
   -8.3849   -0.5748  -21.9529 C   0  0  0  0  0  0  0  0  0  0  0  0
   -8.5053    0.6283  -21.8918 O   0  0  0  0  0  0  0  0  0  0  0  0
   -9.1373   -1.4404  -22.6985 N   0  0  0  0  0  0  0  0  0  0  0  0
  -10.1725   -0.9535  -23.6032 C   0  0  0  0  0  0  0  0  0  0  0  0
  -10.7295   -0.1479  -23.1149 H   0  0  0  0  0  0  0  0  0  0  0  0
   -9.7278   -0.5559  -24.5237 H   0  0  0  0  0  0  0  0  0  0  0  0
  -10.8583   -1.7632  -23.8673 H   0  0  0  0  0  0  0  0  0  0  0  0
  -10.9904   -3.2089  -21.8262 H   0  0  0  0  0  0  0  0  0  0  0  0
   -9.7973   -4.2752  -21.0147 H   0  0  0  0  0  0  0  0  0  0  0  0
  -11.6925   -6.1372  -25.9304 H   0  0  0  0  0  0  0  0  0  0  0  0
  -11.1551   -6.9699  -24.4769 H   0  0  0  0  0  0  0  0  0  0  0  0
   -8.7448   -6.2873  -25.0385 H   0  0  0  0  0  0  0  0  0  0  0  0
   -9.3596   -5.5015  -26.5169 H   0  0  0  0  0  0  0  0  0  0  0  0
   -9.5142   -7.2505  -26.3223 H   0  0  0  0  0  0  0  0  0  0  0  0
  1  2  1  0
  2  3  1  0
  3  4  2  0
  3  5  2  0
  3  6  1  0
  6  7  1  0
  7  8  1  0
  8  9  1  0
  9 10  1  0
  9 11  1  0
  8 12  1  0
 12 13  2  0
 12 14  1  0
 14 15  1  0
 15 16  2  0
 16 17  1  0
 17 18  2  0
 18 19  1  0
 19 20  2  0
 20 21  1  0
 21 22  2  0
 22 23  1  0
 23 24  2  0
 23 25  1  0
 22 26  1  0
 21 27  1  0
 20 28  1  0
 18 29  1  0
 16 30  1  0
 14 31  1  0
 31 32  2  0
 31 33  1  0
 33 34  1  0
 34 35  1  0
 34 36  1  0
 34 37  1  0
  7 38  1  0
  7 39  1  0
  2 40  1  0
  2 41  1  0
  1 42  1  0
  1 43  1  0
  1 44  1  0
  9  6  1  0
 24 15  1  0
 33  8  1  0
 24 19  1  0
M  END
>  <cnnaffinities>  (8) 
[5.57224, 5.28167, 5.24684]

>  <score>  (8) 
5.57224

>  <index>  (8) 
7

>  <Smiles>  (8) 
C(C(S(=O)(=O)N1C(C2(C1([H])[H])C(=O)N(c1c(nc(c3c(c(c(c(c13)[H])[H])[H])[H])[H])[H])C(=O)N2C([H])([H])[H])([H])[H])([H])[H])([H])([H])[H]

>  <h>  (8) 
<NA>

>  <Training>  (8) 
True

>  <Success>  (8) 
True

>  <enamine_searched>  (8) 
False

>  <enamine_id>  (8) 
nan

$$$$

     RDKit          3D

 60 64  0  0  0  0  0  0  0  0999 V2000
  -14.8899   -2.2042  -23.9402 C   0  0  0  0  0  0  0  0  0  0  0  0
  -13.9926   -3.1537  -23.3321 N   0  0  0  0  0  0  0  0  0  0  0  0
  -13.2261   -2.7830  -22.2698 C   0  0  0  0  0  0  0  0  0  0  0  0
  -13.2104   -1.6443  -21.8168 O   0  0  0  0  0  0  0  0  0  0  0  0
  -12.3968   -3.9267  -21.7113 C   0  0  0  0  0  0  0  0  0  0  0  0
  -11.0572   -3.9465  -22.2720 N   0  0  0  0  0  0  0  0  0  0  0  0
   -9.9386   -3.3791  -21.5282 C   0  0  0  0  0  0  0  0  0  0  0  0
   -8.7541   -2.9008  -22.4060 C   0  0  2  0  0  0  0  0  0  0  0  0
   -7.5469   -2.6807  -21.4753 C   0  0  0  0  0  0  0  0  0  0  0  0
   -6.8122   -3.5291  -21.0014 O   0  0  0  0  0  0  0  0  0  0  0  0
   -7.4009   -1.3300  -21.2447 N   0  0  0  0  0  0  0  0  0  0  0  0
   -6.5833   -0.8431  -20.1995 C   0  0  0  0  0  0  0  0  0  0  0  0
   -6.8880   -1.1172  -18.8902 C   0  0  0  0  0  0  0  0  0  0  0  0
   -6.2168   -0.5896  -17.8377 N   0  0  0  0  0  0  0  0  0  0  0  0
   -5.2090    0.2075  -18.0900 C   0  0  0  0  0  0  0  0  0  0  0  0
   -4.7623    0.5379  -19.4025 C   0  0  0  0  0  0  0  0  0  0  0  0
   -3.6379    1.3707  -19.6382 C   0  0  0  0  0  0  0  0  0  0  0  0
   -3.2336    1.6375  -20.9166 C   0  0  0  0  0  0  0  0  0  0  0  0
   -3.9308    1.0903  -22.0182 C   0  0  0  0  0  0  0  0  0  0  0  0
   -5.0238    0.2818  -21.8177 C   0  0  0  0  0  0  0  0  0  0  0  0
   -5.4647   -0.0055  -20.4989 C   0  0  0  0  0  0  0  0  0  0  0  0
   -5.5491   -0.1597  -22.6596 H   0  0  0  0  0  0  0  0  0  0  0  0
   -3.5944    1.2979  -23.0294 H   0  0  0  0  0  0  0  0  0  0  0  0
   -2.3685    2.2699  -21.0972 H   0  0  0  0  0  0  0  0  0  0  0  0
   -3.1159    1.7840  -18.7794 H   0  0  0  0  0  0  0  0  0  0  0  0
   -4.6798    0.6320  -17.2355 H   0  0  0  0  0  0  0  0  0  0  0  0
   -7.7164   -1.7780  -18.6400 H   0  0  0  0  0  0  0  0  0  0  0  0
   -8.4020   -0.5070  -21.8990 C   0  0  0  0  0  0  0  0  0  0  0  0
   -8.9752   -1.4535  -22.9650 C   0  0  2  0  0  0  0  0  0  0  0  0
  -10.4154   -1.1399  -23.3290 C   0  0  0  0  0  0  0  0  0  0  0  0
  -10.5241    0.1132  -23.9605 O   0  0  0  0  0  0  0  0  0  0  0  0
  -11.8849    0.3419  -24.2473 C   0  0  0  0  0  0  0  0  0  0  0  0
  -12.4919    0.3672  -23.3289 H   0  0  0  0  0  0  0  0  0  0  0  0
  -12.2760   -0.4659  -24.8864 H   0  0  0  0  0  0  0  0  0  0  0  0
  -11.9752    1.2886  -24.7821 H   0  0  0  0  0  0  0  0  0  0  0  0
  -10.7879   -1.9255  -24.0042 H   0  0  0  0  0  0  0  0  0  0  0  0
  -11.0539   -1.1372  -22.4312 H   0  0  0  0  0  0  0  0  0  0  0  0
   -8.3601   -1.3633  -23.8674 H   0  0  0  0  0  0  0  0  0  0  0  0
   -9.1648   -0.1692  -21.1815 H   0  0  0  0  0  0  0  0  0  0  0  0
   -7.9579    0.3968  -22.3272 H   0  0  0  0  0  0  0  0  0  0  0  0
   -8.4812   -3.9464  -23.4667 C   0  0  0  0  0  0  0  0  0  0  0  0
   -7.2082   -4.0936  -24.0342 C   0  0  0  0  0  0  0  0  0  0  0  0
   -6.9963   -5.0526  -25.0094 C   0  0  0  0  0  0  0  0  0  0  0  0
   -5.4126   -5.2264  -25.7096 Cl  0  0  0  0  0  0  0  0  0  0  0  0
   -8.0200   -5.9037  -25.4240 C   0  0  0  0  0  0  0  0  0  0  0  0
   -9.2867   -5.7394  -24.8972 C   0  0  0  0  0  0  0  0  0  0  0  0
   -9.5171   -4.7593  -23.9400 C   0  0  0  0  0  0  0  0  0  0  0  0
  -10.9160   -4.5874  -23.4628 C   0  0  0  0  0  0  0  0  0  0  0  0
  -11.8899   -5.0021  -24.0940 O   0  0  0  0  0  0  0  0  0  0  0  0
  -10.1263   -6.3594  -25.2016 H   0  0  0  0  0  0  0  0  0  0  0  0
   -7.8255   -6.6809  -26.1499 H   0  0  0  0  0  0  0  0  0  0  0  0
   -6.3743   -3.4960  -23.6830 H   0  0  0  0  0  0  0  0  0  0  0  0
   -9.5475   -4.1123  -20.8279 H   0  0  0  0  0  0  0  0  0  0  0  0
  -10.2802   -2.5228  -20.9361 H   0  0  0  0  0  0  0  0  0  0  0  0
  -12.9156   -4.8304  -22.0191 H   0  0  0  0  0  0  0  0  0  0  0  0
  -12.3576   -3.8805  -20.6241 H   0  0  0  0  0  0  0  0  0  0  0  0
  -13.6562   -3.9152  -23.9125 H   0  0  0  0  0  0  0  0  0  0  0  0
  -15.4369   -1.6813  -23.1542 H   0  0  0  0  0  0  0  0  0  0  0  0
  -15.5914   -2.7365  -24.5913 H   0  0  0  0  0  0  0  0  0  0  0  0
  -14.3624   -1.4371  -24.5217 H   0  0  0  0  0  0  0  0  0  0  0  0
  1  2  1  0
  2  3  1  0
  3  4  2  0
  3  5  1  0
  5  6  1  0
  6  7  1  0
  8  7  1  1
  8  9  1  0
  9 10  2  0
  9 11  1  0
 11 12  1  0
 12 13  2  0
 13 14  1  0
 14 15  2  0
 15 16  1  0
 16 17  2  0
 17 18  1  0
 18 19  2  0
 19 20  1  0
 20 21  2  0
 20 22  1  0
 19 23  1  0
 18 24  1  0
 17 25  1  0
 15 26  1  0
 13 27  1  0
 11 28  1  0
 28 29  1  0
 29 30  1  0
 30 31  1  0
 31 32  1  0
 32 33  1  0
 32 34  1  0
 32 35  1  0
 30 36  1  0
 30 37  1  0
 29 38  1  6
 28 39  1  0
 28 40  1  0
  8 41  1  0
 41 42  2  0
 42 43  1  0
 43 44  1  0
 43 45  2  0
 45 46  1  0
 46 47  2  0
 47 48  1  0
 48 49  2  0
 46 50  1  0
 45 51  1  0
 42 52  1  0
  7 53  1  0
  7 54  1  0
  5 55  1  0
  5 56  1  0
  2 57  1  0
  1 58  1  0
  1 59  1  0
  1 60  1  0
 48  6  1  0
 29  8  1  0
 47 41  1  0
 21 12  1  0
 21 16  1  0
M  END
>  <cnnaffinities>  (9) 
[6.57927, 6.6119]

>  <score>  (9) 
6.57927

>  <index>  (9) 
8

>  <Smiles>  (9) 
C(N(C(=O)C(N1C([C@@]2(C(=O)N(c3c(nc(c4c(c(c(c(c34)[H])[H])[H])[H])[H])[H])C([C@@]2(C(OC([H])([H])[H])([H])[H])[H])([H])[H])c2c(c(Cl)c(c(c2C1=O)[H])[H])[H])([H])[H])([H])[H])[H])([H])([H])[H]

>  <h>  (9) 
<NA>

>  <Training>  (9) 
True

>  <Success>  (9) 
True

>  <enamine_searched>  (9) 
False

>  <enamine_id>  (9) 
nan

$$$$

     RDKit          3D

 41 43  0  0  0  0  0  0  0  0999 V2000
  -13.1790   -2.9270  -22.9033 C   0  0  0  0  0  0  0  0  0  0  0  0
  -11.9702   -2.0482  -23.2185 C   0  0  1  0  0  0  0  0  0  0  0  0
  -12.1563   -0.6591  -22.6450 C   0  0  0  0  0  0  0  0  0  0  0  0
  -11.3185    0.3565  -22.8351 C   0  0  0  0  0  0  0  0  0  0  0  0
  -10.0219    0.2185  -23.6036 C   0  0  0  0  0  0  0  0  0  0  0  0
   -9.0915   -0.7824  -23.0594 N   0  0  0  0  0  0  0  0  0  0  0  0
   -8.3786   -0.4053  -21.9313 C   0  0  0  0  0  0  0  0  0  0  0  0
   -8.4791    0.7175  -21.4720 O   0  0  0  0  0  0  0  0  0  0  0  0
   -7.4317   -1.4335  -21.2731 C   0  0  0  0  0  0  0  0  0  0  0  0
   -6.5792   -0.8284  -20.1822 C   0  0  0  0  0  0  0  0  0  0  0  0
   -6.8771   -1.0391  -18.8620 C   0  0  0  0  0  0  0  0  0  0  0  0
   -6.1881   -0.5359  -17.8038 N   0  0  0  0  0  0  0  0  0  0  0  0
   -5.1551    0.2233  -18.0670 C   0  0  0  0  0  0  0  0  0  0  0  0
   -4.7225    0.5363  -19.3825 C   0  0  0  0  0  0  0  0  0  0  0  0
   -3.5968    1.3660  -19.6223 C   0  0  0  0  0  0  0  0  0  0  0  0
   -3.2096    1.6594  -20.9013 C   0  0  0  0  0  0  0  0  0  0  0  0
   -3.9357    1.1335  -21.9924 C   0  0  0  0  0  0  0  0  0  0  0  0
   -5.0267    0.3246  -21.7866 C   0  0  0  0  0  0  0  0  0  0  0  0
   -5.4536    0.0016  -20.4727 C   0  0  0  0  0  0  0  0  0  0  0  0
   -5.5740   -0.0666  -22.6380 H   0  0  0  0  0  0  0  0  0  0  0  0
   -3.6224    1.3691  -23.0052 H   0  0  0  0  0  0  0  0  0  0  0  0
   -2.3528    2.3026  -21.0876 H   0  0  0  0  0  0  0  0  0  0  0  0
   -3.0586    1.7767  -18.7709 H   0  0  0  0  0  0  0  0  0  0  0  0
   -4.6011    0.6281  -17.2167 H   0  0  0  0  0  0  0  0  0  0  0  0
   -7.7285   -1.6593  -18.5840 H   0  0  0  0  0  0  0  0  0  0  0  0
   -6.7956   -1.8990  -22.0377 H   0  0  0  0  0  0  0  0  0  0  0  0
   -8.0411   -2.2444  -20.8451 H   0  0  0  0  0  0  0  0  0  0  0  0
   -9.3947   -2.1695  -23.3975 C   0  0  0  0  0  0  0  0  0  0  0  0
  -10.6667   -2.7290  -22.7527 C   0  0  0  0  0  0  0  0  0  0  0  0
  -10.5869   -2.6365  -21.6641 H   0  0  0  0  0  0  0  0  0  0  0  0
  -10.7247   -3.8068  -22.9659 H   0  0  0  0  0  0  0  0  0  0  0  0
   -8.5305   -2.7933  -23.1563 H   0  0  0  0  0  0  0  0  0  0  0  0
   -9.5105   -2.2206  -24.4857 H   0  0  0  0  0  0  0  0  0  0  0  0
  -10.2465   -0.0756  -24.6359 H   0  0  0  0  0  0  0  0  0  0  0  0
   -9.5082    1.1797  -23.6533 H   0  0  0  0  0  0  0  0  0  0  0  0
  -11.5320    1.3284  -22.3882 H   0  0  0  0  0  0  0  0  0  0  0  0
  -13.0292   -0.4944  -22.0118 H   0  0  0  0  0  0  0  0  0  0  0  0
  -11.9086   -1.9518  -24.3129 H   0  0  0  0  0  0  0  0  0  0  0  0
  -13.0970   -3.9086  -23.3858 H   0  0  0  0  0  0  0  0  0  0  0  0
  -13.2636   -3.0898  -21.8218 H   0  0  0  0  0  0  0  0  0  0  0  0
  -14.1064   -2.4565  -23.2511 H   0  0  0  0  0  0  0  0  0  0  0  0
  1  2  1  0
  2  3  1  0
  3  4  2  0
  4  5  1  0
  5  6  1  0
  6  7  1  0
  7  8  2  0
  7  9  1  0
  9 10  1  0
 10 11  2  0
 11 12  1  0
 12 13  2  0
 13 14  1  0
 14 15  2  0
 15 16  1  0
 16 17  2  0
 17 18  1  0
 18 19  2  0
 18 20  1  0
 17 21  1  0
 16 22  1  0
 15 23  1  0
 13 24  1  0
 11 25  1  0
  9 26  1  0
  9 27  1  0
  6 28  1  0
 28 29  1  0
 29 30  1  0
 29 31  1  0
 28 32  1  0
 28 33  1  0
  5 34  1  0
  5 35  1  0
  4 36  1  0
  3 37  1  0
  2 38  1  6
  1 39  1  0
  1 40  1  0
  1 41  1  0
 29  2  1  0
 19 10  1  0
 19 14  1  0
M  END
>  <cnnaffinities>  (10) 
[4.92034]

>  <score>  (10) 
4.92034

>  <index>  (10) 
9

>  <Smiles>  (10) 
C([C@]1(C(=C(C(N(C(=O)C(c2c(nc(c3c(c(c(c(c23)[H])[H])[H])[H])[H])[H])([H])[H])C(C1([H])[H])([H])[H])([H])[H])[H])[H])[H])([H])([H])[H]

>  <h>  (10) 
<NA>

>  <Training>  (10) 
True

>  <Success>  (10) 
True

>  <enamine_searched>  (10) 
False

>  <enamine_id>  (10) 
nan

$$$$

     RDKit          3D

 57 62  0  0  0  0  0  0  0  0999 V2000
  -10.4514   -1.1664  -23.2744 C   0  0  0  0  0  0  0  0  0  0  0  0
   -9.0059   -1.4983  -22.9362 C   0  0  1  0  0  0  0  0  0  0  0  0
   -8.3889   -0.5366  -21.9086 C   0  0  0  0  0  0  0  0  0  0  0  0
   -7.3964   -1.3546  -21.2332 N   0  0  0  0  0  0  0  0  0  0  0  0
   -6.5810   -0.8483  -20.1914 C   0  0  0  0  0  0  0  0  0  0  0  0
   -6.8875   -1.0956  -18.8775 C   0  0  0  0  0  0  0  0  0  0  0  0
   -6.2118   -0.5683  -17.8261 N   0  0  0  0  0  0  0  0  0  0  0  0
   -5.1946    0.2132  -18.0879 C   0  0  0  0  0  0  0  0  0  0  0  0
   -4.7508    0.5254  -19.4043 C   0  0  0  0  0  0  0  0  0  0  0  0
   -3.6251    1.3541  -19.6393 C   0  0  0  0  0  0  0  0  0  0  0  0
   -3.2213    1.6216  -20.9172 C   0  0  0  0  0  0  0  0  0  0  0  0
   -3.9233    1.0797  -22.0159 C   0  0  0  0  0  0  0  0  0  0  0  0
   -5.0172    0.2740  -21.8165 C   0  0  0  0  0  0  0  0  0  0  0  0
   -5.4611   -0.0154  -20.4987 C   0  0  0  0  0  0  0  0  0  0  0  0
   -5.5379   -0.1564  -22.6661 H   0  0  0  0  0  0  0  0  0  0  0  0
   -3.5907    1.2971  -23.0264 H   0  0  0  0  0  0  0  0  0  0  0  0
   -2.3627    2.2607  -21.0969 H   0  0  0  0  0  0  0  0  0  0  0  0
   -3.1063    1.7718  -18.7811 H   0  0  0  0  0  0  0  0  0  0  0  0
   -4.6537    0.6376  -17.2398 H   0  0  0  0  0  0  0  0  0  0  0  0
   -7.7290   -1.7381  -18.6285 H   0  0  0  0  0  0  0  0  0  0  0  0
   -7.5569   -2.7091  -21.4435 C   0  0  0  0  0  0  0  0  0  0  0  0
   -6.8172   -3.5658  -21.0052 O   0  0  0  0  0  0  0  0  0  0  0  0
   -8.7868   -2.9328  -22.3397 C   0  0  1  0  0  0  0  0  0  0  0  0
   -9.9754   -3.4072  -21.4668 C   0  0  0  0  0  0  0  0  0  0  0  0
  -11.0987   -3.9216  -22.2444 N   0  0  0  0  0  0  0  0  0  0  0  0
  -12.4434   -3.9574  -21.6612 C   0  0  0  0  0  0  0  0  0  0  0  0
  -13.3380   -2.8184  -22.0679 C   0  0  0  0  0  0  0  0  0  0  0  0
  -13.9307   -1.7751  -21.4284 C   0  0  0  0  0  0  0  0  0  0  0  0
  -14.6445   -1.0683  -22.3818 N   0  0  0  0  0  4  0  0  0  0  0  0
  -14.5270   -1.7018  -23.5595 C   0  0  0  0  0  0  0  0  0  0  0  0
  -13.7571   -2.7784  -23.3913 N   0  0  0  0  0  0  0  0  0  0  0  0
  -13.4698   -3.4843  -24.0772 H   0  0  0  0  0  0  0  0  0  0  0  0
  -14.9898   -1.3879  -24.4761 H   0  0  0  0  0  0  0  0  0  0  0  0
  -15.1070   -0.1782  -22.2169 H   0  0  0  0  0  0  0  0  0  0  0  0
  -13.9530   -1.4624  -20.3868 H   0  0  0  0  0  0  0  0  0  0  0  0
  -12.9050   -4.8359  -22.1158 H   0  0  0  0  0  0  0  0  0  0  0  0
  -12.3953   -4.1174  -20.5770 H   0  0  0  0  0  0  0  0  0  0  0  0
  -10.9369   -4.5880  -23.4231 C   0  0  0  0  0  0  0  0  0  0  0  0
  -11.9043   -4.9654  -24.0900 O   0  0  0  0  0  0  0  0  0  0  0  0
   -9.5337   -4.7980  -23.8779 C   0  0  0  0  0  0  0  0  0  0  0  0
   -9.2704   -5.7672  -24.8461 C   0  0  0  0  0  0  0  0  0  0  0  0
   -8.0096   -5.8908  -25.4005 C   0  0  0  0  0  0  0  0  0  0  0  0
   -7.0185   -5.0283  -24.9469 C   0  0  0  0  0  0  0  0  0  0  0  0
   -5.8052   -5.0912  -25.5170 F   0  0  0  0  0  0  0  0  0  0  0  0
   -7.2355   -4.0984  -23.9503 C   0  0  0  0  0  0  0  0  0  0  0  0
   -8.5094   -3.9826  -23.3887 C   0  0  0  0  0  0  0  0  0  0  0  0
   -6.4168   -3.4705  -23.6152 H   0  0  0  0  0  0  0  0  0  0  0  0
   -7.7862   -6.6078  -26.1859 H   0  0  0  0  0  0  0  0  0  0  0  0
  -10.0751   -6.4226  -25.1586 H   0  0  0  0  0  0  0  0  0  0  0  0
   -9.6292   -4.1863  -20.7842 H   0  0  0  0  0  0  0  0  0  0  0  0
  -10.3246   -2.5537  -20.8782 H   0  0  0  0  0  0  0  0  0  0  0  0
   -7.9246    0.3355  -22.3846 H   0  0  0  0  0  0  0  0  0  0  0  0
   -9.1439   -0.1648  -21.1972 H   0  0  0  0  0  0  0  0  0  0  0  0
   -8.3968   -1.4547  -23.8517 H   0  0  0  0  0  0  0  0  0  0  0  0
  -11.0598   -1.1525  -22.3632 H   0  0  0  0  0  0  0  0  0  0  0  0
  -10.8588   -1.9322  -23.9390 H   0  0  0  0  0  0  0  0  0  0  0  0
  -10.5320   -0.1911  -23.7594 H   0  0  0  0  0  0  0  0  0  0  0  0
  1  2  1  0
  2  3  1  0
  3  4  1  0
  4  5  1  0
  5  6  2  0
  6  7  1  0
  7  8  2  0
  8  9  1  0
  9 10  2  0
 10 11  1  0
 11 12  2  0
 12 13  1  0
 13 14  2  0
 13 15  1  0
 12 16  1  0
 11 17  1  0
 10 18  1  0
  8 19  1  0
  6 20  1  0
  4 21  1  0
 21 22  2  0
 21 23  1  0
 23 24  1  1
 24 25  1  0
 25 26  1  0
 26 27  1  0
 27 28  2  0
 28 29  1  0
 29 30  2  0
 30 31  1  0
 31 32  1  0
 30 33  1  0
 29 34  1  0
 28 35  1  0
 26 36  1  0
 26 37  1  0
 25 38  1  0
 38 39  2  0
 38 40  1  0
 40 41  2  0
 41 42  1  0
 42 43  2  0
 43 44  1  0
 43 45  1  0
 45 46  2  0
 45 47  1  0
 42 48  1  0
 41 49  1  0
 24 50  1  0
 24 51  1  0
  3 52  1  0
  3 53  1  0
  2 54  1  6
  1 55  1  0
  1 56  1  0
  1 57  1  0
 23  2  1  0
 31 27  1  0
 46 40  1  0
 14  5  1  0
 46 23  1  0
 14  9  1  0
M  CHG  1  29   1
M  END
>  <cnnaffinities>  (11) 
[6.85749]

>  <score>  (11) 
6.85749

>  <index>  (11) 
10

>  <Smiles>  (11) 
C([C@]1(C(N(c2c(nc(c3c(c(c(c(c23)[H])[H])[H])[H])[H])[H])C(=O)[C@]21C(N(C(c1c([n+](c(n1[H])[H])[H])[H])([H])[H])C(=O)c1c(c(c(F)c(c21)[H])[H])[H])([H])[H])([H])[H])[H])([H])([H])[H]

>  <h>  (11) 
<NA>

>  <Training>  (11) 
True

>  <Success>  (11) 
True

>  <enamine_searched>  (11) 
False

>  <enamine_id>  (11) 
nan

$$$$

     RDKit          3D

 48 52  0  0  0  0  0  0  0  0999 V2000
  -10.1401   -0.9086  -23.5913 C   0  0  0  0  0  0  0  0  0  0  0  0
   -9.0957   -1.3800  -22.7034 N   0  0  0  0  0  0  0  0  0  0  0  0
   -8.3765   -0.5107  -21.9286 C   0  0  0  0  0  0  0  0  0  0  0  0
   -8.4978    0.6863  -21.8476 O   0  0  0  0  0  0  0  0  0  0  0  0
   -7.4523   -1.2872  -21.2147 N   0  0  0  0  0  0  0  0  0  0  0  0
   -6.6162   -0.7587  -20.1937 C   0  0  0  0  0  0  0  0  0  0  0  0
   -6.9183   -1.0144  -18.8838 C   0  0  0  0  0  0  0  0  0  0  0  0
   -6.2259   -0.5219  -17.8300 N   0  0  0  0  0  0  0  0  0  0  0  0
   -5.1948    0.2440  -18.0852 C   0  0  0  0  0  0  0  0  0  0  0  0
   -4.7504    0.5693  -19.3992 C   0  0  0  0  0  0  0  0  0  0  0  0
   -3.6084    1.3826  -19.6311 C   0  0  0  0  0  0  0  0  0  0  0  0
   -3.1928    1.6374  -20.9088 C   0  0  0  0  0  0  0  0  0  0  0  0
   -3.9004    1.1063  -22.0082 C   0  0  0  0  0  0  0  0  0  0  0  0
   -5.0172    0.3324  -21.8103 C   0  0  0  0  0  0  0  0  0  0  0  0
   -5.4743    0.0481  -20.4956 C   0  0  0  0  0  0  0  0  0  0  0  0
   -5.5528   -0.0774  -22.6590 H   0  0  0  0  0  0  0  0  0  0  0  0
   -3.5558    1.3053  -23.0192 H   0  0  0  0  0  0  0  0  0  0  0  0
   -2.3188    2.2550  -21.0903 H   0  0  0  0  0  0  0  0  0  0  0  0
   -3.0901    1.8078  -18.7761 H   0  0  0  0  0  0  0  0  0  0  0  0
   -4.6479    0.6329  -17.2257 H   0  0  0  0  0  0  0  0  0  0  0  0
   -7.7722   -1.6433  -18.6480 H   0  0  0  0  0  0  0  0  0  0  0  0
   -7.6393   -2.6422  -21.4425 C   0  0  0  0  0  0  0  0  0  0  0  0
   -6.9652   -3.5289  -20.9741 O   0  0  0  0  0  0  0  0  0  0  0  0
   -8.7770   -2.7642  -22.4419 C   0  0  0  0  0  0  0  0  0  0  0  0
   -8.4461   -3.7164  -23.6113 C   0  0  0  0  0  0  0  0  0  0  0  0
   -9.6615   -4.5094  -23.3528 N   0  0  0  0  0  0  0  0  0  0  0  0
  -10.7933   -4.6123  -24.6128 S   0  0  0  0  0  0  0  0  0  0  0  0
  -10.7528   -3.3833  -25.3976 O   0  0  0  0  0  0  0  0  0  0  0  0
  -12.0429   -5.0444  -24.0160 O   0  0  0  0  0  0  0  0  0  0  0  0
  -10.1045   -5.9039  -25.6467 C   0  0  0  0  0  0  0  0  0  0  0  0
   -9.3840   -5.5600  -26.7905 C   0  0  0  0  0  0  0  0  0  0  0  0
   -8.8811   -6.5699  -27.6094 C   0  0  0  0  0  0  0  0  0  0  0  0
   -9.0906   -7.9084  -27.2876 C   0  0  0  0  0  0  0  0  0  0  0  0
   -9.7628   -8.2323  -26.1182 C   0  0  0  0  0  0  0  0  0  0  0  0
  -10.2691   -7.2374  -25.2875 C   0  0  0  0  0  0  0  0  0  0  0  0
  -10.7779   -7.4931  -24.3694 H   0  0  0  0  0  0  0  0  0  0  0  0
   -9.8914   -9.2779  -25.8780 H   0  0  0  0  0  0  0  0  0  0  0  0
   -8.7579   -8.6958  -27.9632 H   0  0  0  0  0  0  0  0  0  0  0  0
   -8.3083   -6.3221  -28.4992 H   0  0  0  0  0  0  0  0  0  0  0  0
   -9.2766   -4.5096  -27.0556 H   0  0  0  0  0  0  0  0  0  0  0  0
   -9.9642   -3.7187  -22.1161 C   0  0  0  0  0  0  0  0  0  0  0  0
   -9.7966   -4.3318  -21.2299 H   0  0  0  0  0  0  0  0  0  0  0  0
  -10.9580   -3.2636  -22.0785 H   0  0  0  0  0  0  0  0  0  0  0  0
   -8.3762   -3.2755  -24.6055 H   0  0  0  0  0  0  0  0  0  0  0  0
   -7.5719   -4.3268  -23.3849 H   0  0  0  0  0  0  0  0  0  0  0  0
  -10.6885   -0.1035  -23.0971 H   0  0  0  0  0  0  0  0  0  0  0  0
   -9.7155   -0.5251  -24.5255 H   0  0  0  0  0  0  0  0  0  0  0  0
  -10.8148   -1.7351  -23.8195 H   0  0  0  0  0  0  0  0  0  0  0  0
  1  2  1  0
  2  3  1  0
  3  4  2  0
  3  5  1  0
  5  6  1  0
  6  7  2  0
  7  8  1  0
  8  9  2  0
  9 10  1  0
 10 11  2  0
 11 12  1  0
 12 13  2  0
 13 14  1  0
 14 15  2  0
 14 16  1  0
 13 17  1  0
 12 18  1  0
 11 19  1  0
  9 20  1  0
  7 21  1  0
  5 22  1  0
 22 23  2  0
 22 24  1  0
 24 25  1  0
 25 26  1  0
 26 27  1  0
 27 28  2  0
 27 29  2  0
 27 30  1  0
 30 31  2  0
 31 32  1  0
 32 33  2  0
 33 34  1  0
 34 35  2  0
 35 36  1  0
 34 37  1  0
 33 38  1  0
 32 39  1  0
 31 40  1  0
 26 41  1  0
 41 42  1  0
 41 43  1  0
 25 44  1  0
 25 45  1  0
  1 46  1  0
  1 47  1  0
  1 48  1  0
 24  2  1  0
 35 30  1  0
 15  6  1  0
 41 24  1  0
 15 10  1  0
M  END
>  <cnnaffinities>  (12) 
[5.69382, 5.81711, 5.80562, 5.80579, 5.80456, 5.69062, 5.23257]

>  <score>  (12) 
5.69382

>  <index>  (12) 
11

>  <Smiles>  (12) 
C(N1C(=O)N(c2c(nc(c3c(c(c(c(c23)[H])[H])[H])[H])[H])[H])C(=O)C21C(N(S(=O)(=O)c1c(c(c(c(c1[H])[H])[H])[H])[H])C2([H])[H])([H])[H])([H])([H])[H]

>  <h>  (12) 
<NA>

>  <Training>  (12) 
True

>  <Success>  (12) 
True

>  <enamine_searched>  (12) 
False

>  <enamine_id>  (12) 
nan

$$$$

     RDKit          3D

 76 82  0  0  0  0  0  0  0  0999 V2000
  -11.0047    1.6505  -24.9151 O   0  0  0  0  0  0  0  0  0  0  0  0
  -10.4537    0.6580  -24.4487 C   0  0  0  0  0  0  0  0  0  0  0  0
  -11.1332   -0.2286  -23.4488 C   0  0  0  0  0  0  0  0  0  0  0  0
  -12.4953   -0.0255  -23.2195 C   0  0  0  0  0  0  0  0  0  0  0  0
  -13.2321   -0.9128  -22.4605 C   0  0  0  0  0  0  0  0  0  0  0  0
  -12.5517   -1.9847  -21.8831 C   0  0  0  0  0  0  0  0  0  0  0  0
  -13.4324   -3.1888  -20.9892 Cl  0  0  0  0  0  0  0  0  0  0  0  0
  -11.1813   -2.1341  -22.0012 C   0  0  0  0  0  0  0  0  0  0  0  0
  -10.4433   -1.2730  -22.8176 C   0  0  0  0  0  0  0  0  0  0  0  0
   -8.9416   -1.4338  -23.0359 C   0  0  1  0  0  0  0  0  0  0  0  0
   -8.6666   -1.0213  -24.5070 C   0  0  0  0  0  0  0  0  0  0  0  0
   -9.1998    0.2862  -24.8230 N   0  0  0  0  0  0  0  0  0  0  0  0
   -8.4597    1.2141  -25.6544 C   0  0  0  0  0  0  0  0  0  0  0  0
   -7.8289    2.3213  -24.8108 C   0  0  0  0  0  0  0  0  0  0  0  0
   -7.1748    3.3962  -25.6155 N   0  0  0  0  0  4  0  0  0  0  0  0
   -8.1453    4.2911  -26.3442 C   0  0  0  0  0  0  0  0  0  0  0  0
   -7.3835    5.4165  -27.0288 C   0  0  0  0  0  0  0  0  0  0  0  0
   -6.3925    4.9271  -27.9135 O   0  0  0  0  0  0  0  0  0  0  0  0
   -5.4462    4.1336  -27.2198 C   0  0  0  0  0  0  0  0  0  0  0  0
   -6.0882    2.9251  -26.5519 C   0  0  0  0  0  0  0  0  0  0  0  0
   -5.3490    2.3516  -25.9834 H   0  0  0  0  0  0  0  0  0  0  0  0
   -6.5251    2.2800  -27.3154 H   0  0  0  0  0  0  0  0  0  0  0  0
   -4.9527    4.7388  -26.4410 H   0  0  0  0  0  0  0  0  0  0  0  0
   -4.6968    3.8171  -27.9507 H   0  0  0  0  0  0  0  0  0  0  0  0
   -6.9154    6.0427  -26.2512 H   0  0  0  0  0  0  0  0  0  0  0  0
   -8.0664    6.0342  -27.6187 H   0  0  0  0  0  0  0  0  0  0  0  0
   -8.6814    3.7047  -27.0931 H   0  0  0  0  0  0  0  0  0  0  0  0
   -8.8673    4.6923  -25.6258 H   0  0  0  0  0  0  0  0  0  0  0  0
   -6.7001    4.0027  -24.9180 H   0  0  0  0  0  0  0  0  0  0  0  0
   -7.0796    1.8969  -24.1353 H   0  0  0  0  0  0  0  0  0  0  0  0
   -8.6009    2.7942  -24.1977 H   0  0  0  0  0  0  0  0  0  0  0  0
   -9.1577    1.6395  -26.3803 H   0  0  0  0  0  0  0  0  0  0  0  0
   -7.6895    0.6652  -26.2018 H   0  0  0  0  0  0  0  0  0  0  0  0
   -9.1149   -1.7754  -25.1717 H   0  0  0  0  0  0  0  0  0  0  0  0
   -7.5963   -0.9968  -24.7015 H   0  0  0  0  0  0  0  0  0  0  0  0
   -8.1518   -0.5184  -22.0716 C   0  0  0  0  0  0  0  0  0  0  0  0
   -8.1621    0.6960  -22.0440 O   0  0  0  0  0  0  0  0  0  0  0  0
   -7.4015   -1.3129  -21.2364 N   0  0  0  0  0  0  0  0  0  0  0  0
   -6.5961   -0.7891  -20.2070 C   0  0  0  0  0  0  0  0  0  0  0  0
   -6.8859   -1.0696  -18.8962 C   0  0  0  0  0  0  0  0  0  0  0  0
   -6.2007   -0.5784  -17.8399 N   0  0  0  0  0  0  0  0  0  0  0  0
   -5.1822    0.2045  -18.0937 C   0  0  0  0  0  0  0  0  0  0  0  0
   -4.7419    0.5303  -19.4065 C   0  0  0  0  0  0  0  0  0  0  0  0
   -3.6160    1.3644  -19.6238 C   0  0  0  0  0  0  0  0  0  0  0  0
   -3.1921    1.6388  -20.8941 C   0  0  0  0  0  0  0  0  0  0  0  0
   -3.8689    1.0876  -22.0039 C   0  0  0  0  0  0  0  0  0  0  0  0
   -4.9615    0.2798  -21.8194 C   0  0  0  0  0  0  0  0  0  0  0  0
   -5.4465    0.0053  -20.5092 C   0  0  0  0  0  0  0  0  0  0  0  0
   -5.4708   -0.1437  -22.6790 H   0  0  0  0  0  0  0  0  0  0  0  0
   -3.5183    1.2997  -23.0099 H   0  0  0  0  0  0  0  0  0  0  0  0
   -2.3338    2.2817  -21.0591 H   0  0  0  0  0  0  0  0  0  0  0  0
   -3.1120    1.7814  -18.7570 H   0  0  0  0  0  0  0  0  0  0  0  0
   -4.6409    0.6130  -17.2407 H   0  0  0  0  0  0  0  0  0  0  0  0
   -7.7361   -1.7035  -18.6505 H   0  0  0  0  0  0  0  0  0  0  0  0
   -7.7214   -2.7198  -21.3257 C   0  0  0  0  0  0  0  0  0  0  0  0
   -8.4227   -2.8615  -22.6874 C   0  0  2  0  0  0  0  0  0  0  0  0
   -7.5305   -3.5304  -23.7503 C   0  0  0  0  0  0  0  0  0  0  0  0
   -7.1605   -4.8819  -23.3989 N   0  0  0  0  0  0  0  0  0  0  0  0
   -7.9656   -5.9535  -23.6071 C   0  0  0  0  0  0  0  0  0  0  0  0
   -7.4941   -7.1408  -23.1642 N   0  0  0  0  0  0  0  0  0  0  0  0
   -8.2897   -8.1815  -23.3525 C   0  0  0  0  0  0  0  0  0  0  0  0
   -9.5284   -8.0914  -23.9810 C   0  0  0  0  0  0  0  0  0  0  0  0
   -9.8914   -6.8295  -24.4206 C   0  0  0  0  0  0  0  0  0  0  0  0
   -9.1362   -5.7472  -24.2327 N   0  0  0  0  0  0  0  0  0  0  0  0
  -10.8402   -6.6762  -24.9315 H   0  0  0  0  0  0  0  0  0  0  0  0
  -10.2156   -8.9203  -24.0718 H   0  0  0  0  0  0  0  0  0  0  0  0
   -7.9237   -9.1312  -22.9643 H   0  0  0  0  0  0  0  0  0  0  0  0
   -6.2745   -5.0729  -22.9627 H   0  0  0  0  0  0  0  0  0  0  0  0
   -6.6211   -2.9441  -23.9199 H   0  0  0  0  0  0  0  0  0  0  0  0
   -8.0877   -3.6096  -24.6860 H   0  0  0  0  0  0  0  0  0  0  0  0
   -9.2702   -3.5444  -22.6112 H   0  0  0  0  0  0  0  0  0  0  0  0
   -6.8058   -3.3121  -21.2369 H   0  0  0  0  0  0  0  0  0  0  0  0
   -8.3916   -3.0167  -20.5097 H   0  0  0  0  0  0  0  0  0  0  0  0
  -10.7165   -2.9377  -21.4383 H   0  0  0  0  0  0  0  0  0  0  0  0
  -14.3052   -0.7859  -22.3202 H   0  0  0  0  0  0  0  0  0  0  0  0
  -12.9570    0.8372  -23.6878 H   0  0  0  0  0  0  0  0  0  0  0  0
  1  2  2  0
  2  3  1  0
  3  4  2  0
  4  5  1  0
  5  6  2  0
  6  7  1  0
  6  8  1  0
  8  9  2  0
  9 10  1  0
 10 11  1  6
 11 12  1  0
 12 13  1  0
 13 14  1  0
 14 15  1  0
 15 16  1  0
 16 17  1  0
 17 18  1  0
 18 19  1  0
 19 20  1  0
 20 21  1  0
 20 22  1  0
 19 23  1  0
 19 24  1  0
 17 25  1  0
 17 26  1  0
 16 27  1  0
 16 28  1  0
 15 29  1  0
 14 30  1  0
 14 31  1  0
 13 32  1  0
 13 33  1  0
 11 34  1  0
 11 35  1  0
 10 36  1  0
 36 37  2  0
 36 38  1  0
 38 39  1  0
 39 40  2  0
 40 41  1  0
 41 42  2  0
 42 43  1  0
 43 44  2  0
 44 45  1  0
 45 46  2  0
 46 47  1  0
 47 48  2  0
 47 49  1  0
 46 50  1  0
 45 51  1  0
 44 52  1  0
 42 53  1  0
 40 54  1  0
 38 55  1  0
 55 56  1  0
 56 57  1  0
 57 58  1  0
 58 59  1  0
 59 60  2  0
 60 61  1  0
 61 62  2  0
 62 63  1  0
 63 64  2  0
 63 65  1  0
 62 66  1  0
 61 67  1  0
 58 68  1  0
 57 69  1  0
 57 70  1  0
 56 71  1  1
 55 72  1  0
 55 73  1  0
  8 74  1  0
  5 75  1  0
  4 76  1  0
 12  2  1  0
 20 15  1  0
 48 39  1  0
 64 59  1  0
  9  3  1  0
 56 10  1  0
 48 43  1  0
M  CHG  1  15   1
M  END
>  <cnnaffinities>  (13) 
[6.62473, 6.20024, 6.33107]

>  <score>  (13) 
6.62473

>  <index>  (13) 
12

>  <Smiles>  (13) 
O=C1c2c(c(c(Cl)c(c2[C@@]2(C(N1C(C([N+]1(C(C(OC(C1([H])[H])([H])[H])([H])[H])([H])[H])[H])([H])[H])([H])[H])([H])[H])C(=O)N(c1c(nc(c3c(c(c(c(c13)[H])[H])[H])[H])[H])[H])C([C@@]2(C(N(c1nc(c(c(n1)[H])[H])[H])[H])([H])[H])[H])([H])[H])[H])[H])[H]

>  <h>  (13) 
<NA>

>  <Training>  (13) 
True

>  <Success>  (13) 
True

>  <enamine_searched>  (13) 
False

>  <enamine_id>  (13) 
nan

$$$$

     RDKit          3D

 69 74  0  0  0  0  0  0  0  0999 V2000
   -7.4387    3.3643  -21.8076 C   0  0  0  0  0  0  0  0  0  0  0  0
   -8.4765    2.8861  -22.7071 N   0  0  0  0  0  0  0  0  0  0  0  0
   -8.0754    2.1458  -23.7795 C   0  0  0  0  0  0  0  0  0  0  0  0
   -6.8945    1.9210  -24.0032 O   0  0  0  0  0  0  0  0  0  0  0  0
   -9.1540    1.5855  -24.7059 C   0  0  0  0  0  0  0  0  0  0  0  0
   -9.7459    0.4006  -24.1224 N   0  0  0  0  0  0  0  0  0  0  0  0
   -8.9533   -0.8156  -24.0552 C   0  0  0  0  0  0  0  0  0  0  0  0
   -9.2173   -1.5947  -22.7458 C   0  0  2  0  0  0  0  0  0  0  0  0
   -8.6363   -0.7967  -21.5496 C   0  0  0  0  0  0  0  0  0  0  0  0
   -9.1120    0.1881  -21.0238 O   0  0  0  0  0  0  0  0  0  0  0  0
   -7.4407   -1.3746  -21.1863 N   0  0  0  0  0  0  0  0  0  0  0  0
   -6.6258   -0.8050  -20.1789 C   0  0  0  0  0  0  0  0  0  0  0  0
   -6.9296   -1.0376  -18.8621 C   0  0  0  0  0  0  0  0  0  0  0  0
   -6.2163   -0.5587  -17.8179 N   0  0  0  0  0  0  0  0  0  0  0  0
   -5.1812    0.1962  -18.0892 C   0  0  0  0  0  0  0  0  0  0  0  0
   -4.7549    0.5211  -19.4068 C   0  0  0  0  0  0  0  0  0  0  0  0
   -3.6343    1.3599  -19.6414 C   0  0  0  0  0  0  0  0  0  0  0  0
   -3.2481    1.6623  -20.9176 C   0  0  0  0  0  0  0  0  0  0  0  0
   -3.9678    1.1440  -22.0164 C   0  0  0  0  0  0  0  0  0  0  0  0
   -5.0649    0.3377  -21.8174 C   0  0  0  0  0  0  0  0  0  0  0  0
   -5.4883    0.0006  -20.5016 C   0  0  0  0  0  0  0  0  0  0  0  0
   -5.6257   -0.0122  -22.6793 H   0  0  0  0  0  0  0  0  0  0  0  0
   -3.6516    1.3824  -23.0277 H   0  0  0  0  0  0  0  0  0  0  0  0
   -2.3913    2.3053  -21.0926 H   0  0  0  0  0  0  0  0  0  0  0  0
   -3.1088    1.7627  -18.7797 H   0  0  0  0  0  0  0  0  0  0  0  0
   -4.6158    0.5926  -17.2445 H   0  0  0  0  0  0  0  0  0  0  0  0
   -7.7907   -1.6537  -18.6167 H   0  0  0  0  0  0  0  0  0  0  0  0
   -7.0846   -2.5413  -21.9640 C   0  0  0  0  0  0  0  0  0  0  0  0
   -8.3899   -2.9145  -22.6777 C   0  0  2  0  0  0  0  0  0  0  0  0
   -8.0935   -3.6695  -23.9756 C   0  0  0  0  0  0  0  0  0  0  0  0
   -9.3051   -4.1409  -24.5945 N   0  0  0  0  0  0  0  0  0  0  0  0
   -9.3232   -4.8398  -25.7620 C   0  0  0  0  0  0  0  0  0  0  0  0
  -10.5130   -5.4314  -26.2304 C   0  0  0  0  0  0  0  0  0  0  0  0
  -10.4954   -5.9057  -27.5205 C   0  0  0  0  0  0  0  0  0  0  0  0
   -9.3849   -5.9551  -28.2687 N   0  0  0  0  0  0  0  0  0  0  0  0
   -8.2696   -5.5329  -27.6648 C   0  0  0  0  0  0  0  0  0  0  0  0
   -6.9869   -5.7897  -28.4134 C   0  0  0  0  0  0  0  0  0  0  0  0
   -7.1858   -5.7515  -29.4882 H   0  0  0  0  0  0  0  0  0  0  0  0
   -6.6491   -6.8108  -28.1904 H   0  0  0  0  0  0  0  0  0  0  0  0
   -6.1814   -5.0959  -28.1471 H   0  0  0  0  0  0  0  0  0  0  0  0
   -8.1842   -4.9428  -26.4624 N   0  0  0  0  0  0  0  0  0  0  0  0
  -11.4128   -6.2673  -27.9890 H   0  0  0  0  0  0  0  0  0  0  0  0
  -11.4081   -5.5231  -25.6191 H   0  0  0  0  0  0  0  0  0  0  0  0
  -10.1746   -3.9892  -24.1054 H   0  0  0  0  0  0  0  0  0  0  0  0
   -7.4392   -4.5222  -23.7570 H   0  0  0  0  0  0  0  0  0  0  0  0
   -7.5374   -3.0350  -24.6785 H   0  0  0  0  0  0  0  0  0  0  0  0
   -8.9403   -3.6020  -22.0274 H   0  0  0  0  0  0  0  0  0  0  0  0
   -6.2828   -2.3253  -22.6894 H   0  0  0  0  0  0  0  0  0  0  0  0
   -6.7288   -3.3497  -21.3183 H   0  0  0  0  0  0  0  0  0  0  0  0
  -10.7209   -1.7438  -22.5979 C   0  0  0  0  0  0  0  0  0  0  0  0
  -11.2840   -2.7480  -21.8064 C   0  0  0  0  0  0  0  0  0  0  0  0
  -12.6489   -2.7755  -21.5827 C   0  0  0  0  0  0  0  0  0  0  0  0
  -13.2986   -3.9691  -20.5095 Cl  0  0  0  0  0  0  0  0  0  0  0  0
  -13.5184   -1.8468  -22.1467 C   0  0  0  0  0  0  0  0  0  0  0  0
  -12.9711   -0.8586  -22.9323 C   0  0  0  0  0  0  0  0  0  0  0  0
  -11.5967   -0.7913  -23.1395 C   0  0  0  0  0  0  0  0  0  0  0  0
  -11.0922    0.3896  -23.9021 C   0  0  0  0  0  0  0  0  0  0  0  0
  -11.8291    1.2895  -24.2792 O   0  0  0  0  0  0  0  0  0  0  0  0
  -13.5809   -0.0887  -23.3848 H   0  0  0  0  0  0  0  0  0  0  0  0
  -14.5826   -1.8860  -21.9403 H   0  0  0  0  0  0  0  0  0  0  0  0
  -10.6803   -3.4936  -21.3024 H   0  0  0  0  0  0  0  0  0  0  0  0
   -7.8979   -0.5413  -24.1272 H   0  0  0  0  0  0  0  0  0  0  0  0
   -9.1909   -1.4647  -24.9086 H   0  0  0  0  0  0  0  0  0  0  0  0
   -8.6703    1.3282  -25.6563 H   0  0  0  0  0  0  0  0  0  0  0  0
   -9.9713    2.2862  -24.9059 H   0  0  0  0  0  0  0  0  0  0  0  0
   -9.4079    2.7676  -22.3231 H   0  0  0  0  0  0  0  0  0  0  0  0
   -6.8292    2.5132  -21.4668 H   0  0  0  0  0  0  0  0  0  0  0  0
   -6.7968    4.0965  -22.3089 H   0  0  0  0  0  0  0  0  0  0  0  0
   -7.9023    3.8873  -20.9703 H   0  0  0  0  0  0  0  0  0  0  0  0
  1  2  1  0
  2  3  1  0
  3  4  2  0
  3  5  1  0
  5  6  1  0
  6  7  1  0
  8  7  1  6
  8  9  1  0
  9 10  2  0
  9 11  1  0
 11 12  1  0
 12 13  2  0
 13 14  1  0
 14 15  2  0
 15 16  1  0
 16 17  2  0
 17 18  1  0
 18 19  2  0
 19 20  1  0
 20 21  2  0
 20 22  1  0
 19 23  1  0
 18 24  1  0
 17 25  1  0
 15 26  1  0
 13 27  1  0
 11 28  1  0
 28 29  1  0
 29 30  1  0
 30 31  1  0
 31 32  1  0
 32 33  2  0
 33 34  1  0
 34 35  2  0
 35 36  1  0
 36 37  1  0
 37 38  1  0
 37 39  1  0
 37 40  1  0
 36 41  2  0
 34 42  1  0
 33 43  1  0
 31 44  1  0
 30 45  1  0
 30 46  1  0
 29 47  1  1
 28 48  1  0
 28 49  1  0
  8 50  1  0
 50 51  2  0
 51 52  1  0
 52 53  1  0
 52 54  2  0
 54 55  1  0
 55 56  2  0
 56 57  1  0
 57 58  2  0
 55 59  1  0
 54 60  1  0
 51 61  1  0
  7 62  1  0
  7 63  1  0
  5 64  1  0
  5 65  1  0
  2 66  1  0
  1 67  1  0
  1 68  1  0
  1 69  1  0
 57  6  1  0
 29  8  1  0
 41 32  1  0
 56 50  1  0
 21 12  1  0
 21 16  1  0
M  END
>  <cnnaffinities>  (14) 
[6.13089, 6.57978]

>  <score>  (14) 
6.13089

>  <index>  (14) 
13

>  <Smiles>  (14) 
C(N(C(=O)C(N1C([C@@]2(C(=O)N(c3c(nc(c4c(c(c(c(c34)[H])[H])[H])[H])[H])[H])C([C@@]2(C(N(c2c(c(nc(C([H])([H])[H])n2)[H])[H])[H])([H])[H])[H])([H])[H])c2c(c(Cl)c(c(c2C1=O)[H])[H])[H])([H])[H])([H])[H])[H])([H])([H])[H]

>  <h>  (14) 
<NA>

>  <Training>  (14) 
True

>  <Success>  (14) 
True

>  <enamine_searched>  (14) 
False

>  <enamine_id>  (14) 
nan

$$$$

     RDKit          3D

 73 78  0  0  0  0  0  0  0  0999 V2000
   -7.9426   -3.7510  -24.0048 C   0  0  0  0  0  0  0  0  0  0  0  0
   -8.2977   -2.8752  -22.7990 C   0  0  1  0  0  0  0  0  0  0  0  0
   -7.1001   -2.6533  -21.8499 C   0  0  0  0  0  0  0  0  0  0  0  0
   -7.4071   -1.3930  -21.1992 N   0  0  0  0  0  0  0  0  0  0  0  0
   -6.6039   -0.8123  -20.1776 C   0  0  0  0  0  0  0  0  0  0  0  0
   -6.8982   -1.0502  -18.8606 C   0  0  0  0  0  0  0  0  0  0  0  0
   -6.1910   -0.5536  -17.8164 N   0  0  0  0  0  0  0  0  0  0  0  0
   -5.1645    0.2137  -18.0823 C   0  0  0  0  0  0  0  0  0  0  0  0
   -4.7348    0.5405  -19.4000 C   0  0  0  0  0  0  0  0  0  0  0  0
   -3.6080    1.3743  -19.6426 C   0  0  0  0  0  0  0  0  0  0  0  0
   -3.2180    1.6643  -20.9217 C   0  0  0  0  0  0  0  0  0  0  0  0
   -3.9367    1.1325  -22.0150 C   0  0  0  0  0  0  0  0  0  0  0  0
   -5.0302    0.3258  -21.8041 C   0  0  0  0  0  0  0  0  0  0  0  0
   -5.4704    0.0094  -20.4881 C   0  0  0  0  0  0  0  0  0  0  0  0
   -5.5604   -0.0877  -22.6558 H   0  0  0  0  0  0  0  0  0  0  0  0
   -3.6343    1.3710  -23.0313 H   0  0  0  0  0  0  0  0  0  0  0  0
   -2.3652    2.3121  -21.1011 H   0  0  0  0  0  0  0  0  0  0  0  0
   -3.0797    1.7841  -18.7860 H   0  0  0  0  0  0  0  0  0  0  0  0
   -4.6160    0.6193  -17.2308 H   0  0  0  0  0  0  0  0  0  0  0  0
   -7.7497   -1.6731  -18.5965 H   0  0  0  0  0  0  0  0  0  0  0  0
   -8.3909   -0.6649  -21.8331 C   0  0  0  0  0  0  0  0  0  0  0  0
   -8.8051    0.4048  -21.4388 O   0  0  0  0  0  0  0  0  0  0  0  0
   -8.8401   -1.4418  -23.1007 C   0  0  1  0  0  0  0  0  0  0  0  0
   -8.1528   -0.8420  -24.3596 C   0  0  0  0  0  0  0  0  0  0  0  0
   -8.5970    0.5085  -24.6291 N   0  0  0  0  0  0  0  0  0  0  0  0
   -7.6370    1.5718  -24.8905 C   0  0  0  0  0  0  0  0  0  0  0  0
   -7.5122    2.5185  -23.6946 C   0  0  0  0  0  0  0  0  0  0  0  0
   -6.4217    3.5567  -23.8580 N   0  0  0  0  0  4  0  0  0  0  0  0
   -6.7547    4.6772  -24.8351 C   0  0  0  0  0  0  0  0  0  0  0  0
   -7.7592    5.6767  -24.2562 C   0  0  0  0  0  0  0  0  0  0  0  0
   -7.3573    6.1568  -22.9342 N   0  0  0  0  0  0  0  0  0  0  0  0
   -6.5508    7.6005  -22.8287 S   0  0  0  0  0  0  0  0  0  0  0  0
   -6.0364    7.6902  -21.4757 O   0  0  0  0  0  0  0  0  0  0  0  0
   -7.4111    8.6230  -23.3953 O   0  0  0  0  0  0  0  0  0  0  0  0
   -5.1464    7.5253  -23.9310 C   0  0  0  0  0  0  0  0  0  0  0  0
   -5.5135    7.5000  -24.9617 H   0  0  0  0  0  0  0  0  0  0  0  0
   -4.5146    6.6683  -23.6901 H   0  0  0  0  0  0  0  0  0  0  0  0
   -4.6078    8.4628  -23.7598 H   0  0  0  0  0  0  0  0  0  0  0  0
   -7.0454    5.0943  -21.9732 C   0  0  0  0  0  0  0  0  0  0  0  0
   -5.9870    4.1519  -22.5327 C   0  0  0  0  0  0  0  0  0  0  0  0
   -5.0603    4.7044  -22.7068 H   0  0  0  0  0  0  0  0  0  0  0  0
   -5.7763    3.3320  -21.8405 H   0  0  0  0  0  0  0  0  0  0  0  0
   -7.9775    4.5500  -21.7880 H   0  0  0  0  0  0  0  0  0  0  0  0
   -6.7223    5.5569  -21.0418 H   0  0  0  0  0  0  0  0  0  0  0  0
   -8.7369    5.2017  -24.1342 H   0  0  0  0  0  0  0  0  0  0  0  0
   -7.8928    6.5368  -24.9159 H   0  0  0  0  0  0  0  0  0  0  0  0
   -7.1494    4.2433  -25.7526 H   0  0  0  0  0  0  0  0  0  0  0  0
   -5.8192    5.1858  -25.0786 H   0  0  0  0  0  0  0  0  0  0  0  0
   -5.5907    3.0532  -24.2219 H   0  0  0  0  0  0  0  0  0  0  0  0
   -7.2836    1.9432  -22.7928 H   0  0  0  0  0  0  0  0  0  0  0  0
   -8.4702    3.0196  -23.5415 H   0  0  0  0  0  0  0  0  0  0  0  0
   -6.6637    1.1105  -25.0942 H   0  0  0  0  0  0  0  0  0  0  0  0
   -7.9553    2.1135  -25.7852 H   0  0  0  0  0  0  0  0  0  0  0  0
   -9.9307    0.7963  -24.6752 C   0  0  0  0  0  0  0  0  0  0  0  0
  -10.3654    1.8319  -25.1667 O   0  0  0  0  0  0  0  0  0  0  0  0
  -10.8484   -0.2267  -24.0522 C   0  0  0  0  0  0  0  0  0  0  0  0
  -12.2255   -0.0464  -24.1900 C   0  0  0  0  0  0  0  0  0  0  0  0
  -13.1161   -0.8987  -23.5674 C   0  0  0  0  0  0  0  0  0  0  0  0
  -12.6119   -1.9181  -22.7619 C   0  0  0  0  0  0  0  0  0  0  0  0
  -13.7272   -2.9511  -21.9146 Cl  0  0  0  0  0  0  0  0  0  0  0  0
  -11.2507   -2.1129  -22.6071 C   0  0  0  0  0  0  0  0  0  0  0  0
  -10.3417   -1.2926  -23.2888 C   0  0  0  0  0  0  0  0  0  0  0  0
  -10.9184   -2.8910  -21.9280 H   0  0  0  0  0  0  0  0  0  0  0  0
  -14.1877   -0.7698  -23.6739 H   0  0  0  0  0  0  0  0  0  0  0  0
  -12.5738    0.7965  -24.7762 H   0  0  0  0  0  0  0  0  0  0  0  0
   -8.3784   -1.4914  -25.2206 H   0  0  0  0  0  0  0  0  0  0  0  0
   -7.0672   -0.8211  -24.2120 H   0  0  0  0  0  0  0  0  0  0  0  0
   -6.1518   -2.6039  -22.4103 H   0  0  0  0  0  0  0  0  0  0  0  0
   -6.9960   -3.4527  -21.1081 H   0  0  0  0  0  0  0  0  0  0  0  0
   -9.0724   -3.3842  -22.2190 H   0  0  0  0  0  0  0  0  0  0  0  0
   -7.0891   -3.3403  -24.5582 H   0  0  0  0  0  0  0  0  0  0  0  0
   -7.6634   -4.7615  -23.6863 H   0  0  0  0  0  0  0  0  0  0  0  0
   -8.7803   -3.8414  -24.7051 H   0  0  0  0  0  0  0  0  0  0  0  0
  1  2  1  0
  2  3  1  0
  3  4  1  0
  4  5  1  0
  5  6  2  0
  6  7  1  0
  7  8  2  0
  8  9  1  0
  9 10  2  0
 10 11  1  0
 11 12  2  0
 12 13  1  0
 13 14  2  0
 13 15  1  0
 12 16  1  0
 11 17  1  0
 10 18  1  0
  8 19  1  0
  6 20  1  0
  4 21  1  0
 21 22  2  0
 21 23  1  0
 23 24  1  6
 24 25  1  0
 25 26  1  0
 26 27  1  0
 27 28  1  0
 28 29  1  0
 29 30  1  0
 30 31  1  0
 31 32  1  0
 32 33  2  0
 32 34  2  0
 32 35  1  0
 35 36  1  0
 35 37  1  0
 35 38  1  0
 31 39  1  0
 39 40  1  0
 40 41  1  0
 40 42  1  0
 39 43  1  0
 39 44  1  0
 30 45  1  0
 30 46  1  0
 29 47  1  0
 29 48  1  0
 28 49  1  0
 27 50  1  0
 27 51  1  0
 26 52  1  0
 26 53  1  0
 25 54  1  0
 54 55  2  0
 54 56  1  0
 56 57  2  0
 57 58  1  0
 58 59  2  0
 59 60  1  0
 59 61  1  0
 61 62  2  0
 61 63  1  0
 58 64  1  0
 57 65  1  0
 24 66  1  0
 24 67  1  0
  3 68  1  0
  3 69  1  0
  2 70  1  1
  1 71  1  0
  1 72  1  0
  1 73  1  0
 23  2  1  0
 40 28  1  0
 62 56  1  0
 14  5  1  0
 62 23  1  0
 14  9  1  0
M  CHG  1  28   1
M  END
>  <cnnaffinities>  (15) 
[7.06453]

>  <score>  (15) 
7.06453

>  <index>  (15) 
14

>  <Smiles>  (15) 
C([C@]1(C(N(c2c(nc(c3c(c(c(c(c23)[H])[H])[H])[H])[H])[H])C(=O)[C@]21C(N(C(C([N+]1(C(C(N(S(=O)(=O)C([H])([H])[H])C(C1([H])[H])([H])[H])([H])[H])([H])[H])[H])([H])[H])([H])[H])C(=O)c1c(c(c(Cl)c(c21)[H])[H])[H])([H])[H])([H])[H])[H])([H])([H])[H]

>  <h>  (15) 
<NA>

>  <Training>  (15) 
True

>  <Success>  (15) 
True

>  <enamine_searched>  (15) 
False

>  <enamine_id>  (15) 
nan

$$$$

     RDKit          3D

 63 68  0  0  0  0  0  0  0  0999 V2000
   -7.4843    3.3281  -21.7194 C   0  0  0  0  0  0  0  0  0  0  0  0
   -8.4254    2.8922  -22.7276 N   0  0  0  0  0  0  0  0  0  0  0  0
   -7.8975    2.2136  -23.7725 C   0  0  0  0  0  0  0  0  0  0  0  0
   -6.6857    2.1125  -23.9204 O   0  0  0  0  0  0  0  0  0  0  0  0
   -8.8560    1.5923  -24.7805 C   0  0  0  0  0  0  0  0  0  0  0  0
   -9.5231    0.4033  -24.2892 N   0  0  0  0  0  0  0  0  0  0  0  0
   -8.7596   -0.8273  -24.1707 C   0  0  0  0  0  0  0  0  0  0  0  0
   -9.0890   -1.5799  -22.8568 C   0  0  2  0  0  0  0  0  0  0  0  0
   -8.5459   -0.7880  -21.6412 C   0  0  0  0  0  0  0  0  0  0  0  0
   -9.0390    0.2031  -21.1309 O   0  0  0  0  0  0  0  0  0  0  0  0
   -7.3875   -1.3879  -21.2073 N   0  0  0  0  0  0  0  0  0  0  0  0
   -6.5991   -0.8139  -20.1767 C   0  0  0  0  0  0  0  0  0  0  0  0
   -6.9066   -1.0465  -18.8597 C   0  0  0  0  0  0  0  0  0  0  0  0
   -6.2011   -0.5520  -17.8149 N   0  0  0  0  0  0  0  0  0  0  0  0
   -5.1682    0.2085  -18.0809 C   0  0  0  0  0  0  0  0  0  0  0  0
   -4.7311    0.5304  -19.3971 C   0  0  0  0  0  0  0  0  0  0  0  0
   -3.6089    1.3699  -19.6409 C   0  0  0  0  0  0  0  0  0  0  0  0
   -3.2270    1.6679  -20.9204 C   0  0  0  0  0  0  0  0  0  0  0  0
   -3.9531    1.1443  -22.0144 C   0  0  0  0  0  0  0  0  0  0  0  0
   -5.0421    0.3314  -21.8042 C   0  0  0  0  0  0  0  0  0  0  0  0
   -5.4646    0.0030  -20.4874 C   0  0  0  0  0  0  0  0  0  0  0  0
   -5.6012   -0.0462  -22.6555 H   0  0  0  0  0  0  0  0  0  0  0  0
   -3.6610    1.3864  -23.0306 H   0  0  0  0  0  0  0  0  0  0  0  0
   -2.3762    2.3192  -21.1003 H   0  0  0  0  0  0  0  0  0  0  0  0
   -3.0798    1.7770  -18.7830 H   0  0  0  0  0  0  0  0  0  0  0  0
   -4.6179    0.6127  -17.2307 H   0  0  0  0  0  0  0  0  0  0  0  0
   -7.7596   -1.6702  -18.6027 H   0  0  0  0  0  0  0  0  0  0  0  0
   -7.0238   -2.5851  -21.9363 C   0  0  0  0  0  0  0  0  0  0  0  0
   -8.2946   -2.9199  -22.7382 C   0  0  2  0  0  0  0  0  0  0  0  0
   -7.9729   -3.6697  -24.0486 C   0  0  0  0  0  0  0  0  0  0  0  0
   -7.3980   -4.9848  -23.8092 N   0  0  0  0  0  0  0  0  0  0  0  0
   -8.0748   -6.1191  -23.5142 C   0  0  0  0  0  0  0  0  0  0  0  0
   -7.1350   -7.1020  -23.2861 C   0  0  0  0  0  0  0  0  0  0  0  0
   -5.8995   -6.4405  -23.4772 C   0  0  0  0  0  0  0  0  0  0  0  0
   -6.0690   -5.1596  -23.7854 N   0  0  0  0  0  0  0  0  0  0  0  0
   -4.8882   -6.8256  -23.4053 H   0  0  0  0  0  0  0  0  0  0  0  0
   -7.3179   -8.1387  -23.0245 H   0  0  0  0  0  0  0  0  0  0  0  0
   -9.1610   -6.1238  -23.5041 H   0  0  0  0  0  0  0  0  0  0  0  0
   -7.2313   -3.1255  -24.6429 H   0  0  0  0  0  0  0  0  0  0  0  0
   -8.8838   -3.8153  -24.6430 H   0  0  0  0  0  0  0  0  0  0  0  0
   -8.9132   -3.5901  -22.1380 H   0  0  0  0  0  0  0  0  0  0  0  0
   -6.1668   -2.4027  -22.6038 H   0  0  0  0  0  0  0  0  0  0  0  0
   -6.7341   -3.3851  -21.2455 H   0  0  0  0  0  0  0  0  0  0  0  0
  -10.6033   -1.6843  -22.7517 C   0  0  0  0  0  0  0  0  0  0  0  0
  -11.1901   -2.6169  -21.8881 C   0  0  0  0  0  0  0  0  0  0  0  0
  -12.5657   -2.6757  -21.7611 C   0  0  0  0  0  0  0  0  0  0  0  0
  -13.2804   -3.8255  -20.6687 Cl  0  0  0  0  0  0  0  0  0  0  0  0
  -13.4015   -1.8152  -22.4724 C   0  0  0  0  0  0  0  0  0  0  0  0
  -12.8330   -0.8503  -23.2800 C   0  0  0  0  0  0  0  0  0  0  0  0
  -11.4452   -0.7637  -23.3955 C   0  0  0  0  0  0  0  0  0  0  0  0
  -10.8860    0.4003  -24.1565 C   0  0  0  0  0  0  0  0  0  0  0  0
  -11.6051    1.2900  -24.5942 O   0  0  0  0  0  0  0  0  0  0  0  0
  -13.4323   -0.1227  -23.8213 H   0  0  0  0  0  0  0  0  0  0  0  0
  -14.4757   -1.8953  -22.3614 H   0  0  0  0  0  0  0  0  0  0  0  0
  -10.5824   -3.2832  -21.2874 H   0  0  0  0  0  0  0  0  0  0  0  0
   -8.9739   -1.4905  -25.0236 H   0  0  0  0  0  0  0  0  0  0  0  0
   -7.7007   -0.5496  -24.1874 H   0  0  0  0  0  0  0  0  0  0  0  0
   -9.6557    2.2831  -25.0521 H   0  0  0  0  0  0  0  0  0  0  0  0
   -8.2406    1.3590  -25.6586 H   0  0  0  0  0  0  0  0  0  0  0  0
   -9.3981    2.7645  -22.4991 H   0  0  0  0  0  0  0  0  0  0  0  0
   -6.8353    2.4896  -21.4429 H   0  0  0  0  0  0  0  0  0  0  0  0
   -8.0192    3.7008  -20.8524 H   0  0  0  0  0  0  0  0  0  0  0  0
   -6.8463    4.1192  -22.1152 H   0  0  0  0  0  0  0  0  0  0  0  0
  1  2  1  0
  2  3  1  0
  3  4  2  0
  3  5  1  0
  5  6  1  0
  6  7  1  0
  8  7  1  6
  8  9  1  0
  9 10  2  0
  9 11  1  0
 11 12  1  0
 12 13  2  0
 13 14  1  0
 14 15  2  0
 15 16  1  0
 16 17  2  0
 17 18  1  0
 18 19  2  0
 19 20  1  0
 20 21  2  0
 20 22  1  0
 19 23  1  0
 18 24  1  0
 17 25  1  0
 15 26  1  0
 13 27  1  0
 11 28  1  0
 28 29  1  0
 29 30  1  0
 30 31  1  0
 31 32  1  0
 32 33  2  0
 33 34  1  0
 34 35  2  0
 34 36  1  0
 33 37  1  0
 32 38  1  0
 30 39  1  0
 30 40  1  0
 29 41  1  1
 28 42  1  0
 28 43  1  0
  8 44  1  0
 44 45  2  0
 45 46  1  0
 46 47  1  0
 46 48  2  0
 48 49  1  0
 49 50  2  0
 50 51  1  0
 51 52  2  0
 49 53  1  0
 48 54  1  0
 45 55  1  0
  7 56  1  0
  7 57  1  0
  5 58  1  0
  5 59  1  0
  2 60  1  0
  1 61  1  0
  1 62  1  0
  1 63  1  0
 51  6  1  0
 29  8  1  0
 35 31  1  0
 50 44  1  0
 21 12  1  0
 21 16  1  0
M  END
>  <cnnaffinities>  (16) 
[6.77831, 6.80163, 6.92738]

>  <score>  (16) 
6.77831

>  <index>  (16) 
15

>  <Smiles>  (16) 
C(N(C(=O)C(N1C([C@@]2(C(=O)N(c3c(nc(c4c(c(c(c(c34)[H])[H])[H])[H])[H])[H])C([C@@]2(C(n2c(c(c(n2)[H])[H])[H])([H])[H])[H])([H])[H])c2c(c(Cl)c(c(c2C1=O)[H])[H])[H])([H])[H])([H])[H])[H])([H])([H])[H]

>  <h>  (16) 
<NA>

>  <Training>  (16) 
True

>  <Success>  (16) 
True

>  <enamine_searched>  (16) 
False

>  <enamine_id>  (16) 
nan

$$$$

     RDKit          3D

 61 66  0  0  0  0  0  0  0  0999 V2000
   -7.3762    3.3988  -21.8009 C   0  0  0  0  0  0  0  0  0  0  0  0
   -8.2338    2.9360  -22.8794 N   0  0  0  0  0  0  0  0  0  0  0  0
   -7.6649    2.2474  -23.8954 C   0  0  0  0  0  0  0  0  0  0  0  0
   -6.4512    2.1364  -24.0107 O   0  0  0  0  0  0  0  0  0  0  0  0
   -8.6163    1.6253  -24.9268 C   0  0  0  0  0  0  0  0  0  0  0  0
   -9.3472    0.4720  -24.4301 N   0  0  0  0  0  0  0  0  0  0  0  0
   -8.6340   -0.7838  -24.2569 C   0  0  0  0  0  0  0  0  0  0  0  0
   -9.0357   -1.4954  -22.9370 C   0  0  2  0  0  0  0  0  0  0  0  0
   -8.4854   -0.7068  -21.7210 C   0  0  0  0  0  0  0  0  0  0  0  0
   -8.9164    0.3356  -21.2673 O   0  0  0  0  0  0  0  0  0  0  0  0
   -7.4007   -1.3808  -21.2075 N   0  0  0  0  0  0  0  0  0  0  0  0
   -6.6020   -0.8103  -20.1786 C   0  0  0  0  0  0  0  0  0  0  0  0
   -6.9051   -1.0431  -18.8610 C   0  0  0  0  0  0  0  0  0  0  0  0
   -6.1992   -0.5504  -17.8162 N   0  0  0  0  0  0  0  0  0  0  0  0
   -5.1655    0.2101  -18.0794 C   0  0  0  0  0  0  0  0  0  0  0  0
   -4.7288    0.5320  -19.3959 C   0  0  0  0  0  0  0  0  0  0  0  0
   -3.6022    1.3663  -19.6394 C   0  0  0  0  0  0  0  0  0  0  0  0
   -3.2160    1.6556  -20.9202 C   0  0  0  0  0  0  0  0  0  0  0  0
   -3.9386    1.1274  -22.0115 C   0  0  0  0  0  0  0  0  0  0  0  0
   -5.0320    0.3206  -21.8015 C   0  0  0  0  0  0  0  0  0  0  0  0
   -5.4642    0.0045  -20.4846 C   0  0  0  0  0  0  0  0  0  0  0  0
   -5.5846   -0.0706  -22.6506 H   0  0  0  0  0  0  0  0  0  0  0  0
   -3.6442    1.3623  -23.0292 H   0  0  0  0  0  0  0  0  0  0  0  0
   -2.3618    2.3036  -21.1008 H   0  0  0  0  0  0  0  0  0  0  0  0
   -3.0746    1.7773  -18.7830 H   0  0  0  0  0  0  0  0  0  0  0  0
   -4.6180    0.6146  -17.2284 H   0  0  0  0  0  0  0  0  0  0  0  0
   -7.7578   -1.6667  -18.6026 H   0  0  0  0  0  0  0  0  0  0  0  0
   -7.0713   -2.6035  -21.9093 C   0  0  0  0  0  0  0  0  0  0  0  0
   -8.3160   -2.8716  -22.7775 C   0  0  2  0  0  0  0  0  0  0  0  0
   -7.9574   -3.6314  -24.0716 C   0  0  0  0  0  0  0  0  0  0  0  0
   -7.4389   -4.9626  -23.7777 N   0  0  0  0  0  0  0  0  0  0  0  0
   -8.2118   -6.0019  -23.5248 N   0  0  0  0  0  0  0  0  0  0  0  0
   -7.3115   -6.9404  -23.2789 C   0  0  0  0  0  0  0  0  0  0  0  0
   -6.0455   -6.4815  -23.3740 N   0  0  0  0  0  0  0  0  0  0  0  0
   -6.1518   -5.2214  -23.6933 N   0  0  0  0  0  0  0  0  0  0  0  0
   -7.5689   -7.9596  -23.0236 H   0  0  0  0  0  0  0  0  0  0  0  0
   -8.8333   -3.7786  -24.7101 H   0  0  0  0  0  0  0  0  0  0  0  0
   -7.1681   -3.1192  -24.6316 H   0  0  0  0  0  0  0  0  0  0  0  0
   -8.9869   -3.5275  -22.2191 H   0  0  0  0  0  0  0  0  0  0  0  0
   -6.8701   -3.4221  -21.2101 H   0  0  0  0  0  0  0  0  0  0  0  0
   -6.1676   -2.4798  -22.5287 H   0  0  0  0  0  0  0  0  0  0  0  0
  -10.5541   -1.5252  -22.8621 C   0  0  0  0  0  0  0  0  0  0  0  0
  -11.1956   -2.3899  -21.9662 C   0  0  0  0  0  0  0  0  0  0  0  0
  -12.5758   -2.4028  -21.8794 C   0  0  0  0  0  0  0  0  0  0  0  0
  -13.3566   -3.4900  -20.7671 Cl  0  0  0  0  0  0  0  0  0  0  0  0
  -13.3603   -1.5465  -22.6507 C   0  0  0  0  0  0  0  0  0  0  0  0
  -12.7338   -0.6378  -23.4803 C   0  0  0  0  0  0  0  0  0  0  0  0
  -11.3412   -0.6009  -23.5646 C   0  0  0  0  0  0  0  0  0  0  0  0
  -10.7142    0.5146  -24.3493 C   0  0  0  0  0  0  0  0  0  0  0  0
  -11.3868    1.4105  -24.8462 O   0  0  0  0  0  0  0  0  0  0  0  0
  -13.2961    0.0844  -24.0634 H   0  0  0  0  0  0  0  0  0  0  0  0
  -14.4403   -1.5803  -22.5680 H   0  0  0  0  0  0  0  0  0  0  0  0
  -10.6286   -3.0354  -21.3068 H   0  0  0  0  0  0  0  0  0  0  0  0
   -7.5652   -0.5487  -24.2375 H   0  0  0  0  0  0  0  0  0  0  0  0
   -8.8358   -1.4582  -25.1059 H   0  0  0  0  0  0  0  0  0  0  0  0
   -7.9825    1.3501  -25.7779 H   0  0  0  0  0  0  0  0  0  0  0  0
   -9.3780    2.3368  -25.2582 H   0  0  0  0  0  0  0  0  0  0  0  0
   -9.2305    2.8736  -22.7355 H   0  0  0  0  0  0  0  0  0  0  0  0
   -6.6804    4.1642  -22.1613 H   0  0  0  0  0  0  0  0  0  0  0  0
   -7.9980    3.8362  -21.0204 H   0  0  0  0  0  0  0  0  0  0  0  0
   -6.7837    2.5597  -21.4063 H   0  0  0  0  0  0  0  0  0  0  0  0
  1  2  1  0
  2  3  1  0
  3  4  2  0
  3  5  1  0
  5  6  1  0
  6  7  1  0
  8  7  1  6
  8  9  1  0
  9 10  2  0
  9 11  1  0
 11 12  1  0
 12 13  2  0
 13 14  1  0
 14 15  2  0
 15 16  1  0
 16 17  2  0
 17 18  1  0
 18 19  2  0
 19 20  1  0
 20 21  2  0
 20 22  1  0
 19 23  1  0
 18 24  1  0
 17 25  1  0
 15 26  1  0
 13 27  1  0
 11 28  1  0
 28 29  1  0
 29 30  1  0
 30 31  1  0
 31 32  1  0
 32 33  2  0
 33 34  1  0
 34 35  2  0
 33 36  1  0
 30 37  1  0
 30 38  1  0
 29 39  1  1
 28 40  1  0
 28 41  1  0
  8 42  1  0
 42 43  2  0
 43 44  1  0
 44 45  1  0
 44 46  2  0
 46 47  1  0
 47 48  2  0
 48 49  1  0
 49 50  2  0
 47 51  1  0
 46 52  1  0
 43 53  1  0
  7 54  1  0
  7 55  1  0
  5 56  1  0
  5 57  1  0
  2 58  1  0
  1 59  1  0
  1 60  1  0
  1 61  1  0
 49  6  1  0
 29  8  1  0
 35 31  1  0
 48 42  1  0
 21 12  1  0
 21 16  1  0
M  END
>  <cnnaffinities>  (17) 
[6.68987, 6.74562]

>  <score>  (17) 
6.68987

>  <index>  (17) 
16

>  <Smiles>  (17) 
C(N(C(=O)C(N1C([C@@]2(C(=O)N(c3c(nc(c4c(c(c(c(c34)[H])[H])[H])[H])[H])[H])C([C@@]2(C(n2nc(nn2)[H])([H])[H])[H])([H])[H])c2c(c(Cl)c(c(c2C1=O)[H])[H])[H])([H])[H])([H])[H])[H])([H])([H])[H]

>  <h>  (17) 
<NA>

>  <Training>  (17) 
True

>  <Success>  (17) 
True

>  <enamine_searched>  (17) 
False

>  <enamine_id>  (17) 
nan

$$$$

     RDKit          3D

 38 41  0  0  0  0  0  0  0  0999 V2000
   -9.3485   -4.9443  -25.6906 C   0  0  0  0  0  0  0  0  0  0  0  0
   -9.3467   -4.1952  -24.3572 C   0  0  2  0  0  0  0  0  0  0  0  0
  -10.3480   -3.0411  -24.3808 C   0  0  0  0  0  0  0  0  0  0  0  0
  -10.4235   -2.3517  -23.0161 C   0  0  0  0  0  0  0  0  0  0  0  0
   -9.0846   -2.1164  -22.4682 C   0  0  0  0  0  0  0  0  0  0  0  0
   -8.7202   -1.1943  -21.4397 C   0  0  0  0  0  0  0  0  0  0  0  0
   -9.3843   -0.3304  -20.9133 O   0  0  0  0  0  1  0  0  0  0  0  0
   -7.3442   -1.4711  -21.1996 N   0  0  0  0  0  0  0  0  0  0  0  0
   -6.5719   -0.8435  -20.1837 C   0  0  0  0  0  0  0  0  0  0  0  0
   -6.8867   -1.0522  -18.8655 C   0  0  0  0  0  0  0  0  0  0  0  0
   -6.1870   -0.5449  -17.8210 N   0  0  0  0  0  0  0  0  0  0  0  0
   -5.1558    0.2164  -18.0791 C   0  0  0  0  0  0  0  0  0  0  0  0
   -4.7242    0.5339  -19.3938 C   0  0  0  0  0  0  0  0  0  0  0  0
   -3.5971    1.3669  -19.6292 C   0  0  0  0  0  0  0  0  0  0  0  0
   -3.2201    1.6710  -20.9078 C   0  0  0  0  0  0  0  0  0  0  0  0
   -3.9555    1.1611  -22.0006 C   0  0  0  0  0  0  0  0  0  0  0  0
   -5.0475    0.3554  -21.7981 C   0  0  0  0  0  0  0  0  0  0  0  0
   -5.4557    0.0041  -20.4852 C   0  0  0  0  0  0  0  0  0  0  0  0
   -5.6042   -0.0319  -22.6442 H   0  0  0  0  0  0  0  0  0  0  0  0
   -3.6545    1.4050  -23.0150 H   0  0  0  0  0  0  0  0  0  0  0  0
   -2.3658    2.3171  -21.0949 H   0  0  0  0  0  0  0  0  0  0  0  0
   -3.0611    1.7726  -18.7745 H   0  0  0  0  0  0  0  0  0  0  0  0
   -4.6091    0.6212  -17.2230 H   0  0  0  0  0  0  0  0  0  0  0  0
   -7.7371   -1.6716  -18.5928 H   0  0  0  0  0  0  0  0  0  0  0  0
   -6.8627   -2.4209  -22.1188 C   0  0  0  0  0  0  0  0  0  0  0  0
   -5.7295   -2.8240  -22.2397 O   0  0  0  0  0  0  0  0  0  0  0  0
   -7.9764   -2.7837  -22.8663 N   0  0  0  0  0  0  0  0  0  0  0  0
   -7.9458   -3.6820  -24.0086 C   0  0  0  0  0  0  0  0  0  0  0  0
   -7.2775   -4.4995  -23.7572 H   0  0  0  0  0  0  0  0  0  0  0  0
   -7.5090   -3.1773  -24.8746 H   0  0  0  0  0  0  0  0  0  0  0  0
  -10.9660   -1.4015  -23.0754 H   0  0  0  0  0  0  0  0  0  0  0  0
  -11.0048   -2.9652  -22.3109 H   0  0  0  0  0  0  0  0  0  0  0  0
  -10.0335   -2.3168  -25.1410 H   0  0  0  0  0  0  0  0  0  0  0  0
  -11.3403   -3.4062  -24.6761 H   0  0  0  0  0  0  0  0  0  0  0  0
   -9.6528   -4.9011  -23.5745 H   0  0  0  0  0  0  0  0  0  0  0  0
  -10.3425   -5.3465  -25.9213 H   0  0  0  0  0  0  0  0  0  0  0  0
   -8.6482   -5.7870  -25.6928 H   0  0  0  0  0  0  0  0  0  0  0  0
   -9.0729   -4.2815  -26.5203 H   0  0  0  0  0  0  0  0  0  0  0  0
  1  2  1  0
  2  3  1  0
  3  4  1  0
  4  5  1  0
  5  6  2  0
  6  7  1  0
  6  8  1  0
  8  9  1  0
  9 10  2  0
 10 11  1  0
 11 12  2  0
 12 13  1  0
 13 14  2  0
 14 15  1  0
 15 16  2  0
 16 17  1  0
 17 18  2  0
 17 19  1  0
 16 20  1  0
 15 21  1  0
 14 22  1  0
 12 23  1  0
 10 24  1  0
  8 25  1  0
 25 26  2  0
 25 27  1  0
 27 28  1  0
 28 29  1  0
 28 30  1  0
  4 31  1  0
  4 32  1  0
  3 33  1  0
  3 34  1  0
  2 35  1  1
  1 36  1  0
  1 37  1  0
  1 38  1  0
 28  2  1  0
 27  5  1  0
 18  9  1  0
 18 13  1  0
M  CHG  1   7  -1
M  END
>  <cnnaffinities>  (18) 
[5.26108, 4.54267]

>  <score>  (18) 
5.26108

>  <index>  (18) 
17

>  <Smiles>  (18) 
C([C@@]1(C(C(c2c([O-])n(c3c(nc(c4c(c(c(c(c34)[H])[H])[H])[H])[H])[H])c(=O)n2C1([H])[H])([H])[H])([H])[H])[H])([H])([H])[H]

>  <h>  (18) 
<NA>

>  <Training>  (18) 
True

>  <Success>  (18) 
True

>  <enamine_searched>  (18) 
False

>  <enamine_id>  (18) 
nan

$$$$

     RDKit          3D

 56 61  0  0  0  0  0  0  0  0999 V2000
  -10.4642   -1.1962  -23.2321 C   0  0  0  0  0  0  0  0  0  0  0  0
   -9.0138   -1.5342  -22.9184 C   0  0  1  0  0  0  0  0  0  0  0  0
   -8.3829   -0.5559  -21.9161 C   0  0  0  0  0  0  0  0  0  0  0  0
   -7.3914   -1.3553  -21.2267 N   0  0  0  0  0  0  0  0  0  0  0  0
   -6.5830   -0.8394  -20.1842 C   0  0  0  0  0  0  0  0  0  0  0  0
   -6.8929   -1.0820  -18.8679 C   0  0  0  0  0  0  0  0  0  0  0  0
   -6.2085   -0.5625  -17.8181 N   0  0  0  0  0  0  0  0  0  0  0  0
   -5.1843    0.2109  -18.0838 C   0  0  0  0  0  0  0  0  0  0  0  0
   -4.7428    0.5209  -19.4026 C   0  0  0  0  0  0  0  0  0  0  0  0
   -3.6171    1.3482  -19.6377 C   0  0  0  0  0  0  0  0  0  0  0  0
   -3.2145    1.6208  -20.9187 C   0  0  0  0  0  0  0  0  0  0  0  0
   -3.9178    1.0784  -22.0175 C   0  0  0  0  0  0  0  0  0  0  0  0
   -5.0122    0.2725  -21.8171 C   0  0  0  0  0  0  0  0  0  0  0  0
   -5.4568   -0.0159  -20.4959 C   0  0  0  0  0  0  0  0  0  0  0  0
   -5.5387   -0.1531  -22.6669 H   0  0  0  0  0  0  0  0  0  0  0  0
   -3.5887    1.2987  -23.0306 H   0  0  0  0  0  0  0  0  0  0  0  0
   -2.3546    2.2577  -21.0986 H   0  0  0  0  0  0  0  0  0  0  0  0
   -3.0990    1.7647  -18.7798 H   0  0  0  0  0  0  0  0  0  0  0  0
   -4.6399    0.6368  -17.2397 H   0  0  0  0  0  0  0  0  0  0  0  0
   -7.7345   -1.7255  -18.6161 H   0  0  0  0  0  0  0  0  0  0  0  0
   -7.5475   -2.7126  -21.4163 C   0  0  0  0  0  0  0  0  0  0  0  0
   -6.7767   -3.5434  -20.9824 O   0  0  0  0  0  0  0  0  0  0  0  0
   -8.7836   -2.9554  -22.3065 C   0  0  1  0  0  0  0  0  0  0  0  0
   -9.9624   -3.4267  -21.4328 C   0  0  0  0  0  0  0  0  0  0  0  0
  -11.0760   -3.9925  -22.1776 N   0  0  0  0  0  0  0  0  0  0  0  0
  -12.4303   -3.9197  -21.6442 C   0  0  0  0  0  0  0  0  0  0  0  0
  -13.2896   -2.8098  -22.1721 C   0  0  0  0  0  0  0  0  0  0  0  0
  -13.9169   -2.8599  -23.4303 C   0  0  0  0  0  0  0  0  0  0  0  0
  -14.6158   -1.6841  -23.5242 C   0  0  0  0  0  0  0  0  0  0  0  0
  -14.4108   -1.0413  -22.3544 N   0  0  0  0  0  0  0  0  0  0  0  0
  -13.6177   -1.7137  -21.5051 N   0  0  0  0  0  0  0  0  0  0  0  0
  -14.7882   -0.1543  -22.0614 H   0  0  0  0  0  0  0  0  0  0  0  0
  -15.2423   -1.2650  -24.2989 H   0  0  0  0  0  0  0  0  0  0  0  0
  -13.7970   -3.6783  -24.1211 H   0  0  0  0  0  0  0  0  0  0  0  0
  -12.9033   -4.8213  -22.0217 H   0  0  0  0  0  0  0  0  0  0  0  0
  -12.4244   -3.9368  -20.5555 H   0  0  0  0  0  0  0  0  0  0  0  0
  -10.9276   -4.6750  -23.3525 C   0  0  0  0  0  0  0  0  0  0  0  0
  -11.8881   -5.0944  -23.9926 O   0  0  0  0  0  0  0  0  0  0  0  0
   -9.5299   -4.8447  -23.8232 C   0  0  0  0  0  0  0  0  0  0  0  0
   -9.2799   -5.8021  -24.8043 C   0  0  0  0  0  0  0  0  0  0  0  0
   -8.0206   -5.9038  -25.3674 C   0  0  0  0  0  0  0  0  0  0  0  0
   -7.0309   -5.0314  -24.9254 C   0  0  0  0  0  0  0  0  0  0  0  0
   -5.8231   -5.0755  -25.5108 F   0  0  0  0  0  0  0  0  0  0  0  0
   -7.2457   -4.1098  -23.9208 C   0  0  0  0  0  0  0  0  0  0  0  0
   -8.5115   -4.0166  -23.3431 C   0  0  0  0  0  0  0  0  0  0  0  0
   -6.4441   -3.4552  -23.5993 H   0  0  0  0  0  0  0  0  0  0  0  0
   -7.7995   -6.5935  -26.1747 H   0  0  0  0  0  0  0  0  0  0  0  0
  -10.1010   -6.4501  -25.1024 H   0  0  0  0  0  0  0  0  0  0  0  0
   -9.5750   -4.1668  -20.7429 H   0  0  0  0  0  0  0  0  0  0  0  0
  -10.3329   -2.5828  -20.8503 H   0  0  0  0  0  0  0  0  0  0  0  0
   -9.1327   -0.1714  -21.2105 H   0  0  0  0  0  0  0  0  0  0  0  0
   -7.9266    0.3106  -22.4078 H   0  0  0  0  0  0  0  0  0  0  0  0
   -8.4214   -1.4926  -23.8432 H   0  0  0  0  0  0  0  0  0  0  0  0
  -10.9263   -1.9667  -23.8581 H   0  0  0  0  0  0  0  0  0  0  0  0
  -11.0510   -1.1220  -22.3113 H   0  0  0  0  0  0  0  0  0  0  0  0
  -10.5404   -0.2350  -23.7444 H   0  0  0  0  0  0  0  0  0  0  0  0
  1  2  1  0
  2  3  1  0
  3  4  1  0
  4  5  1  0
  5  6  2  0
  6  7  1  0
  7  8  2  0
  8  9  1  0
  9 10  2  0
 10 11  1  0
 11 12  2  0
 12 13  1  0
 13 14  2  0
 13 15  1  0
 12 16  1  0
 11 17  1  0
 10 18  1  0
  8 19  1  0
  6 20  1  0
  4 21  1  0
 21 22  2  0
 21 23  1  0
 23 24  1  1
 24 25  1  0
 25 26  1  0
 26 27  1  0
 27 28  1  0
 28 29  2  0
 29 30  1  0
 30 31  1  0
 30 32  1  0
 29 33  1  0
 28 34  1  0
 26 35  1  0
 26 36  1  0
 25 37  1  0
 37 38  2  0
 37 39  1  0
 39 40  2  0
 40 41  1  0
 41 42  2  0
 42 43  1  0
 42 44  1  0
 44 45  2  0
 44 46  1  0
 41 47  1  0
 40 48  1  0
 24 49  1  0
 24 50  1  0
  3 51  1  0
  3 52  1  0
  2 53  1  6
  1 54  1  0
  1 55  1  0
  1 56  1  0
 23  2  1  0
 31 27  2  0
 45 39  1  0
 14  5  1  0
 45 23  1  0
 14  9  1  0
M  END
>  <cnnaffinities>  (19) 
[6.79486, 6.26514]

>  <score>  (19) 
6.79486

>  <index>  (19) 
18

>  <Smiles>  (19) 
C([C@]1(C(N(c2c(nc(c3c(c(c(c(c23)[H])[H])[H])[H])[H])[H])C(=O)[C@]21C(N(C(c1c(c(n(n1)[H])[H])[H])([H])[H])C(=O)c1c(c(c(F)c(c21)[H])[H])[H])([H])[H])([H])[H])[H])([H])([H])[H]

>  <h>  (19) 
<NA>

>  <Training>  (19) 
True

>  <Success>  (19) 
True

>  <enamine_searched>  (19) 
False

>  <enamine_id>  (19) 
nan

$$$$

     RDKit          3D

 42 45  0  0  0  0  0  0  0  0999 V2000
   -9.1471   -0.0636  -20.7257 O   0  0  0  0  0  0  0  0  0  0  0  0
   -8.6551   -0.9067  -21.4506 C   0  0  0  0  0  0  0  0  0  0  0  0
   -9.3670   -1.5025  -22.6773 C   0  0  1  0  0  0  0  0  0  0  0  0
  -10.4388   -0.5578  -23.1880 C   0  0  0  0  0  0  0  0  0  0  0  0
  -10.1010    0.7539  -23.5121 C   0  0  0  0  0  0  0  0  0  0  0  0
  -11.0719    1.6267  -23.9688 C   0  0  0  0  0  0  0  0  0  0  0  0
  -12.4000    1.2399  -24.0831 C   0  0  0  0  0  0  0  0  0  0  0  0
  -13.5490    2.5026  -24.3746 Cl  0  0  0  0  0  0  0  0  0  0  0  0
  -12.7285   -0.0989  -23.8609 C   0  0  0  0  0  0  0  0  0  0  0  0
  -14.3309   -0.6919  -24.1125 Cl  0  0  0  0  0  0  0  0  0  0  0  0
  -11.7486   -0.9850  -23.4040 C   0  0  0  0  0  0  0  0  0  0  0  0
  -12.0455   -2.0123  -23.1881 H   0  0  0  0  0  0  0  0  0  0  0  0
  -10.8342    2.6526  -24.2068 H   0  0  0  0  0  0  0  0  0  0  0  0
   -9.0892    1.1206  -23.3398 H   0  0  0  0  0  0  0  0  0  0  0  0
   -8.3345   -1.7867  -23.7761 C   0  0  0  0  0  0  0  0  0  0  0  0
   -7.2411   -2.7556  -23.3381 C   0  0  2  0  0  0  0  0  0  0  0  0
   -7.5388   -4.1066  -23.6584 O   0  0  0  0  0  0  0  0  0  0  0  0
   -8.3959   -4.3208  -23.2669 H   0  0  0  0  0  0  0  0  0  0  0  0
   -6.9338   -2.6358  -21.8358 C   0  0  0  0  0  0  0  0  0  0  0  0
   -7.3754   -1.3760  -21.2547 N   0  0  0  0  0  0  0  0  0  0  0  0
   -6.6075   -0.8067  -20.1943 C   0  0  0  0  0  0  0  0  0  0  0  0
   -6.9066   -1.0516  -18.8787 C   0  0  0  0  0  0  0  0  0  0  0  0
   -6.1942   -0.5617  -17.8342 N   0  0  0  0  0  0  0  0  0  0  0  0
   -5.1644    0.2055  -18.0851 C   0  0  0  0  0  0  0  0  0  0  0  0
   -4.7250    0.5276  -19.3991 C   0  0  0  0  0  0  0  0  0  0  0  0
   -3.5973    1.3575  -19.6388 C   0  0  0  0  0  0  0  0  0  0  0  0
   -3.2117    1.6438  -20.9192 C   0  0  0  0  0  0  0  0  0  0  0  0
   -3.9353    1.1104  -22.0103 C   0  0  0  0  0  0  0  0  0  0  0  0
   -5.0248    0.3048  -21.8000 C   0  0  0  0  0  0  0  0  0  0  0  0
   -5.4557   -0.0022  -20.4856 C   0  0  0  0  0  0  0  0  0  0  0  0
   -5.5837   -0.0971  -22.6379 H   0  0  0  0  0  0  0  0  0  0  0  0
   -3.6287    1.3433  -23.0249 H   0  0  0  0  0  0  0  0  0  0  0  0
   -2.3589    2.2896  -21.1069 H   0  0  0  0  0  0  0  0  0  0  0  0
   -3.0686    1.7716  -18.7840 H   0  0  0  0  0  0  0  0  0  0  0  0
   -4.6223    0.6132  -17.2292 H   0  0  0  0  0  0  0  0  0  0  0  0
   -7.7546   -1.6699  -18.5941 H   0  0  0  0  0  0  0  0  0  0  0  0
   -7.3922   -3.5097  -21.3375 H   0  0  0  0  0  0  0  0  0  0  0  0
   -5.8588   -2.6947  -21.6667 H   0  0  0  0  0  0  0  0  0  0  0  0
   -6.3402   -2.5453  -23.9202 H   0  0  0  0  0  0  0  0  0  0  0  0
   -7.8961   -0.8294  -24.0867 H   0  0  0  0  0  0  0  0  0  0  0  0
   -8.8253   -2.2063  -24.6600 H   0  0  0  0  0  0  0  0  0  0  0  0
   -9.8473   -2.4447  -22.3766 H   0  0  0  0  0  0  0  0  0  0  0  0
  1  2  2  0
  2  3  1  0
  3  4  1  0
  4  5  2  0
  5  6  1  0
  6  7  2  0
  7  8  1  0
  7  9  1  0
  9 10  1  0
  9 11  2  0
 11 12  1  0
  6 13  1  0
  5 14  1  0
  3 15  1  0
 15 16  1  0
 16 17  1  0
 17 18  1  0
 16 19  1  0
 19 20  1  0
 20 21  1  0
 21 22  2  0
 22 23  1  0
 23 24  2  0
 24 25  1  0
 25 26  2  0
 26 27  1  0
 27 28  2  0
 28 29  1  0
 29 30  2  0
 29 31  1  0
 28 32  1  0
 27 33  1  0
 26 34  1  0
 24 35  1  0
 22 36  1  0
 19 37  1  0
 19 38  1  0
 16 39  1  6
 15 40  1  0
 15 41  1  0
  3 42  1  1
 20  2  1  0
 30 21  1  0
 11  4  1  0
 30 25  1  0
M  END
>  <cnnaffinities>  (20) 
[5.70426, 5.10433]

>  <score>  (20) 
5.70426

>  <index>  (20) 
19

>  <Smiles>  (20) 
O=C1[C@@](c2c(c(c(Cl)c(Cl)c2[H])[H])[H])(C([C@](O[H])(C(N1c1c(nc(c2c(c(c(c(c12)[H])[H])[H])[H])[H])[H])([H])[H])[H])([H])[H])[H]

>  <h>  (20) 
<NA>

>  <Training>  (20) 
True

>  <Success>  (20) 
True

>  <enamine_searched>  (20) 
False

>  <enamine_id>  (20) 
nan

$$$$

     RDKit          3D

 66 71  0  0  0  0  0  0  0  0999 V2000
   -7.4282    3.3534  -21.7587 C   0  0  0  0  0  0  0  0  0  0  0  0
   -8.3201    2.9052  -22.8167 N   0  0  0  0  0  0  0  0  0  0  0  0
   -7.7577    2.2235  -23.8383 C   0  0  0  0  0  0  0  0  0  0  0  0
   -6.5436    2.1198  -23.9635 O   0  0  0  0  0  0  0  0  0  0  0  0
   -8.7032    1.5948  -24.8660 C   0  0  0  0  0  0  0  0  0  0  0  0
   -9.4190    0.4371  -24.3643 N   0  0  0  0  0  0  0  0  0  0  0  0
   -8.6908   -0.8080  -24.2052 C   0  0  0  0  0  0  0  0  0  0  0  0
   -9.0733   -1.5298  -22.8879 C   0  0  2  0  0  0  0  0  0  0  0  0
   -8.5246   -0.7430  -21.6701 C   0  0  0  0  0  0  0  0  0  0  0  0
   -8.9874    0.2720  -21.1836 O   0  0  0  0  0  0  0  0  0  0  0  0
   -7.3988   -1.3818  -21.2037 N   0  0  0  0  0  0  0  0  0  0  0  0
   -6.6009   -0.8112  -20.1757 C   0  0  0  0  0  0  0  0  0  0  0  0
   -6.9064   -1.0429  -18.8582 C   0  0  0  0  0  0  0  0  0  0  0  0
   -6.2007   -0.5499  -17.8144 N   0  0  0  0  0  0  0  0  0  0  0  0
   -5.1666    0.2087  -18.0801 C   0  0  0  0  0  0  0  0  0  0  0  0
   -4.7294    0.5310  -19.3963 C   0  0  0  0  0  0  0  0  0  0  0  0
   -3.6045    1.3665  -19.6406 C   0  0  0  0  0  0  0  0  0  0  0  0
   -3.2199    1.6578  -20.9206 C   0  0  0  0  0  0  0  0  0  0  0  0
   -3.9431    1.1321  -22.0118 C   0  0  0  0  0  0  0  0  0  0  0  0
   -5.0356    0.3237  -21.8024 C   0  0  0  0  0  0  0  0  0  0  0  0
   -5.4646    0.0027  -20.4857 C   0  0  0  0  0  0  0  0  0  0  0  0
   -5.5911   -0.0618  -22.6530 H   0  0  0  0  0  0  0  0  0  0  0  0
   -3.6499    1.3703  -23.0302 H   0  0  0  0  0  0  0  0  0  0  0  0
   -2.3656    2.3079  -21.1002 H   0  0  0  0  0  0  0  0  0  0  0  0
   -3.0770    1.7761  -18.7826 H   0  0  0  0  0  0  0  0  0  0  0  0
   -4.6178    0.6136  -17.2294 H   0  0  0  0  0  0  0  0  0  0  0  0
   -7.7601   -1.6664  -18.6014 H   0  0  0  0  0  0  0  0  0  0  0  0
   -7.0550   -2.5873  -21.9311 C   0  0  0  0  0  0  0  0  0  0  0  0
   -8.3248   -2.8942  -22.7507 C   0  0  2  0  0  0  0  0  0  0  0  0
   -8.0180   -3.6736  -24.0487 C   0  0  0  0  0  0  0  0  0  0  0  0
   -7.4767   -5.0626  -23.7769 C   0  0  0  0  0  0  0  0  0  0  0  0
   -8.3519   -6.1166  -23.5010 C   0  0  0  0  0  0  0  0  0  0  0  0
   -7.8734   -7.3927  -23.2115 C   0  0  0  0  0  0  0  0  0  0  0  0
   -6.5025   -7.6356  -23.1924 C   0  0  0  0  0  0  0  0  0  0  0  0
   -5.6176   -6.5970  -23.4689 C   0  0  0  0  0  0  0  0  0  0  0  0
   -6.1029   -5.3215  -23.7563 C   0  0  0  0  0  0  0  0  0  0  0  0
   -5.4027   -4.5126  -23.9683 H   0  0  0  0  0  0  0  0  0  0  0  0
   -4.5441   -6.7809  -23.4619 H   0  0  0  0  0  0  0  0  0  0  0  0
   -6.1248   -8.6329  -22.9674 H   0  0  0  0  0  0  0  0  0  0  0  0
   -8.5791   -8.1955  -23.0035 H   0  0  0  0  0  0  0  0  0  0  0  0
   -9.4269   -5.9325  -23.5145 H   0  0  0  0  0  0  0  0  0  0  0  0
   -8.9365   -3.7534  -24.6480 H   0  0  0  0  0  0  0  0  0  0  0  0
   -7.2892   -3.1132  -24.6511 H   0  0  0  0  0  0  0  0  0  0  0  0
   -8.9685   -3.5360  -22.1430 H   0  0  0  0  0  0  0  0  0  0  0  0
   -6.7958   -3.4027  -21.2445 H   0  0  0  0  0  0  0  0  0  0  0  0
   -6.1814   -2.4227  -22.5842 H   0  0  0  0  0  0  0  0  0  0  0  0
  -10.5904   -1.5911  -22.8106 C   0  0  0  0  0  0  0  0  0  0  0  0
  -11.2167   -2.4935  -21.9408 C   0  0  0  0  0  0  0  0  0  0  0  0
  -12.5966   -2.5217  -21.8476 C   0  0  0  0  0  0  0  0  0  0  0  0
  -13.3612   -3.6412  -20.7554 Cl  0  0  0  0  0  0  0  0  0  0  0  0
  -13.3934   -1.6558  -22.5962 C   0  0  0  0  0  0  0  0  0  0  0  0
  -12.7839   -0.7209  -23.4091 C   0  0  0  0  0  0  0  0  0  0  0  0
  -11.3931   -0.6655  -23.4943 C   0  0  0  0  0  0  0  0  0  0  0  0
  -10.7847    0.4688  -24.2654 C   0  0  0  0  0  0  0  0  0  0  0  0
  -11.4707    1.3671  -24.7372 O   0  0  0  0  0  0  0  0  0  0  0  0
  -13.3526    0.0085  -23.9794 H   0  0  0  0  0  0  0  0  0  0  0  0
  -14.4719   -1.7054  -22.5112 H   0  0  0  0  0  0  0  0  0  0  0  0
  -10.6377   -3.1585  -21.3115 H   0  0  0  0  0  0  0  0  0  0  0  0
   -8.9017   -1.4824  -25.0526 H   0  0  0  0  0  0  0  0  0  0  0  0
   -7.6247   -0.5604  -24.1994 H   0  0  0  0  0  0  0  0  0  0  0  0
   -9.4780    2.2977  -25.1817 H   0  0  0  0  0  0  0  0  0  0  0  0
   -8.0685    1.3246  -25.7190 H   0  0  0  0  0  0  0  0  0  0  0  0
   -9.3089    2.8052  -22.6420 H   0  0  0  0  0  0  0  0  0  0  0  0
   -6.7553    4.1318  -22.1338 H   0  0  0  0  0  0  0  0  0  0  0  0
   -8.0154    3.7591  -20.9379 H   0  0  0  0  0  0  0  0  0  0  0  0
   -6.8131    2.5079  -21.4189 H   0  0  0  0  0  0  0  0  0  0  0  0
  1  2  1  0
  2  3  1  0
  3  4  2  0
  3  5  1  0
  5  6  1  0
  6  7  1  0
  8  7  1  6
  8  9  1  0
  9 10  2  0
  9 11  1  0
 11 12  1  0
 12 13  2  0
 13 14  1  0
 14 15  2  0
 15 16  1  0
 16 17  2  0
 17 18  1  0
 18 19  2  0
 19 20  1  0
 20 21  2  0
 20 22  1  0
 19 23  1  0
 18 24  1  0
 17 25  1  0
 15 26  1  0
 13 27  1  0
 11 28  1  0
 28 29  1  0
 29 30  1  0
 30 31  1  0
 31 32  2  0
 32 33  1  0
 33 34  2  0
 34 35  1  0
 35 36  2  0
 36 37  1  0
 35 38  1  0
 34 39  1  0
 33 40  1  0
 32 41  1  0
 30 42  1  0
 30 43  1  0
 29 44  1  1
 28 45  1  0
 28 46  1  0
  8 47  1  0
 47 48  2  0
 48 49  1  0
 49 50  1  0
 49 51  2  0
 51 52  1  0
 52 53  2  0
 53 54  1  0
 54 55  2  0
 52 56  1  0
 51 57  1  0
 48 58  1  0
  7 59  1  0
  7 60  1  0
  5 61  1  0
  5 62  1  0
  2 63  1  0
  1 64  1  0
  1 65  1  0
  1 66  1  0
 54  6  1  0
 29  8  1  0
 36 31  1  0
 53 47  1  0
 21 12  1  0
 21 16  1  0
M  END
>  <cnnaffinities>  (21) 
[6.71273, 6.69625, 6.73752]

>  <score>  (21) 
6.71273

>  <index>  (21) 
20

>  <Smiles>  (21) 
C(N(C(=O)C(N1C([C@@]2(C(=O)N(c3c(nc(c4c(c(c(c(c34)[H])[H])[H])[H])[H])[H])C([C@@]2(C(c2c(c(c(c(c2[H])[H])[H])[H])[H])([H])[H])[H])([H])[H])c2c(c(Cl)c(c(c2C1=O)[H])[H])[H])([H])[H])([H])[H])[H])([H])([H])[H]

>  <h>  (21) 
<NA>

>  <Training>  (21) 
True

>  <Success>  (21) 
True

>  <enamine_searched>  (21) 
False

>  <enamine_id>  (21) 
nan

$$$$

     RDKit          3D

 63 68  0  0  0  0  0  0  0  0999 V2000
  -10.2936   -2.7345  -22.1841 C   0  0  0  0  0  0  0  0  0  0  0  0
   -9.0979   -1.9333  -22.7042 C   0  0  1  0  0  0  0  0  0  0  0  0
   -8.6097   -0.9286  -21.6428 C   0  0  0  0  0  0  0  0  0  0  0  0
   -7.3565   -1.4774  -21.1817 N   0  0  0  0  0  0  0  0  0  0  0  0
   -6.5739   -0.8585  -20.1824 C   0  0  0  0  0  0  0  0  0  0  0  0
   -6.9101   -1.0516  -18.8703 C   0  0  0  0  0  0  0  0  0  0  0  0
   -6.2277   -0.5368  -17.8227 N   0  0  0  0  0  0  0  0  0  0  0  0
   -5.1916    0.2140  -18.1028 C   0  0  0  0  0  0  0  0  0  0  0  0
   -4.7495    0.5092  -19.4237 C   0  0  0  0  0  0  0  0  0  0  0  0
   -3.6340    1.3524  -19.6486 C   0  0  0  0  0  0  0  0  0  0  0  0
   -3.2425    1.6554  -20.9197 C   0  0  0  0  0  0  0  0  0  0  0  0
   -3.9514    1.1323  -22.0263 C   0  0  0  0  0  0  0  0  0  0  0  0
   -5.0312    0.3034  -21.8427 C   0  0  0  0  0  0  0  0  0  0  0  0
   -5.4580   -0.0305  -20.5198 C   0  0  0  0  0  0  0  0  0  0  0  0
   -5.5591   -0.0856  -22.7156 H   0  0  0  0  0  0  0  0  0  0  0  0
   -3.6295    1.3954  -23.0294 H   0  0  0  0  0  0  0  0  0  0  0  0
   -2.3976    2.3155  -21.0870 H   0  0  0  0  0  0  0  0  0  0  0  0
   -3.1229    1.7613  -18.7806 H   0  0  0  0  0  0  0  0  0  0  0  0
   -4.6383    0.6382  -17.2639 H   0  0  0  0  0  0  0  0  0  0  0  0
   -7.7685   -1.6794  -18.6371 H   0  0  0  0  0  0  0  0  0  0  0  0
   -6.8588   -2.5198  -21.9238 C   0  0  0  0  0  0  0  0  0  0  0  0
   -5.8256   -3.1042  -21.6753 O   0  0  0  0  0  0  0  0  0  0  0  0
   -7.8332   -2.7757  -23.0908 C   0  0  1  0  0  0  0  0  0  0  0  0
   -8.1464   -4.2811  -23.2136 C   0  0  0  0  0  0  0  0  0  0  0  0
   -7.0112   -5.0274  -23.7332 N   0  0  0  0  0  0  0  0  0  0  0  0
   -6.7060   -6.3244  -23.1644 C   0  0  0  0  0  0  0  0  0  0  0  0
   -7.7947   -7.3343  -23.5077 C   0  0  0  0  0  0  0  0  0  0  0  0
   -8.4938   -7.8647  -22.6603 O   0  0  0  0  0  0  0  0  0  0  0  0
   -7.9528   -7.5580  -24.8427 N   0  0  0  0  0  0  0  0  0  0  0  0
   -9.2592   -8.0040  -25.3127 C   0  0  0  0  0  0  0  0  0  0  0  0
  -10.2396   -6.8630  -25.4711 C   0  0  0  0  0  0  0  0  0  0  0  0
  -10.0043   -5.8704  -26.5727 C   0  0  0  0  0  0  0  0  0  0  0  0
  -11.1567   -6.8229  -26.6509 C   0  0  0  0  0  0  0  0  0  0  0  0
  -12.1481   -6.4285  -26.4799 H   0  0  0  0  0  0  0  0  0  0  0  0
  -11.0919   -7.6262  -27.3763 H   0  0  0  0  0  0  0  0  0  0  0  0
  -10.2112   -4.8266  -26.3591 H   0  0  0  0  0  0  0  0  0  0  0  0
   -9.1687   -6.0645  -27.2429 H   0  0  0  0  0  0  0  0  0  0  0  0
  -10.6672   -6.4708  -24.5452 H   0  0  0  0  0  0  0  0  0  0  0  0
   -9.1224   -8.5289  -26.2662 H   0  0  0  0  0  0  0  0  0  0  0  0
   -9.6399   -8.7188  -24.5778 H   0  0  0  0  0  0  0  0  0  0  0  0
   -7.3173   -7.1068  -25.4958 H   0  0  0  0  0  0  0  0  0  0  0  0
   -6.6141   -6.2174  -22.0821 H   0  0  0  0  0  0  0  0  0  0  0  0
   -5.7586   -6.6589  -23.5927 H   0  0  0  0  0  0  0  0  0  0  0  0
   -6.3839   -4.6509  -24.8786 C   0  0  0  0  0  0  0  0  0  0  0  0
   -5.7264   -5.4459  -25.5527 O   0  0  0  0  0  0  0  0  0  0  0  0
   -6.5263   -3.2123  -25.2473 C   0  0  0  0  0  0  0  0  0  0  0  0
   -5.9498   -2.7950  -26.4444 C   0  0  0  0  0  0  0  0  0  0  0  0
   -6.0119   -1.4754  -26.8331 C   0  0  0  0  0  0  0  0  0  0  0  0
   -6.6565   -0.5857  -25.9825 C   0  0  0  0  0  0  0  0  0  0  0  0
   -6.7302    0.7028  -26.3560 F   0  0  0  0  0  0  0  0  0  0  0  0
   -7.2347   -0.9715  -24.7870 C   0  0  0  0  0  0  0  0  0  0  0  0
   -7.1979   -2.3166  -24.4042 C   0  0  0  0  0  0  0  0  0  0  0  0
   -7.7330   -0.2176  -24.1858 H   0  0  0  0  0  0  0  0  0  0  0  0
   -5.5730   -1.1281  -27.7612 H   0  0  0  0  0  0  0  0  0  0  0  0
   -5.4506   -3.5459  -27.0447 H   0  0  0  0  0  0  0  0  0  0  0  0
   -9.0244   -4.3825  -23.8683 H   0  0  0  0  0  0  0  0  0  0  0  0
   -8.4104   -4.6967  -22.2419 H   0  0  0  0  0  0  0  0  0  0  0  0
   -9.3101   -0.8375  -20.8099 H   0  0  0  0  0  0  0  0  0  0  0  0
   -8.4731    0.0826  -22.0517 H   0  0  0  0  0  0  0  0  0  0  0  0
   -9.4430   -1.4081  -23.6012 H   0  0  0  0  0  0  0  0  0  0  0  0
  -10.0310   -3.3270  -21.3034 H   0  0  0  0  0  0  0  0  0  0  0  0
  -11.0997   -2.0523  -21.9070 H   0  0  0  0  0  0  0  0  0  0  0  0
  -10.6846   -3.4062  -22.9511 H   0  0  0  0  0  0  0  0  0  0  0  0
  1  2  1  0
  2  3  1  0
  3  4  1  0
  4  5  1  0
  5  6  2  0
  6  7  1  0
  7  8  2  0
  8  9  1  0
  9 10  2  0
 10 11  1  0
 11 12  2  0
 12 13  1  0
 13 14  2  0
 13 15  1  0
 12 16  1  0
 11 17  1  0
 10 18  1  0
  8 19  1  0
  6 20  1  0
  4 21  1  0
 21 22  2  0
 21 23  1  0
 23 24  1  6
 24 25  1  0
 25 26  1  0
 26 27  1  0
 27 28  2  0
 27 29  1  0
 29 30  1  0
 30 31  1  0
 31 32  1  0
 32 33  1  0
 33 34  1  0
 33 35  1  0
 32 36  1  0
 32 37  1  0
 31 38  1  0
 30 39  1  0
 30 40  1  0
 29 41  1  0
 26 42  1  0
 26 43  1  0
 25 44  1  0
 44 45  2  0
 44 46  1  0
 46 47  2  0
 47 48  1  0
 48 49  2  0
 49 50  1  0
 49 51  1  0
 51 52  2  0
 51 53  1  0
 48 54  1  0
 47 55  1  0
 24 56  1  0
 24 57  1  0
  3 58  1  0
  3 59  1  0
  2 60  1  6
  1 61  1  0
  1 62  1  0
  1 63  1  0
 23  2  1  0
 33 31  1  0
 52 46  1  0
 14  5  1  0
 52 23  1  0
 14  9  1  0
M  END
>  <cnnaffinities>  (22) 
[6.29976, 6.01427]

>  <score>  (22) 
6.29976

>  <index>  (22) 
21

>  <Smiles>  (22) 
C([C@]1(C(N(c2c(nc(c3c(c(c(c(c23)[H])[H])[H])[H])[H])[H])C(=O)[C@]21C(N(C(C(=O)N(C(C1(C(C1([H])[H])([H])[H])[H])([H])[H])[H])([H])[H])C(=O)c1c(c(c(F)c(c21)[H])[H])[H])([H])[H])([H])[H])[H])([H])([H])[H]

>  <h>  (22) 
<NA>

>  <Training>  (22) 
True

>  <Success>  (22) 
True

>  <enamine_searched>  (22) 
False

>  <enamine_id>  (22) 
nan

$$$$

     RDKit          3D

 68 73  0  0  0  0  0  0  0  0999 V2000
   -7.2491    3.4155  -21.9077 C   0  0  0  0  0  0  0  0  0  0  0  0
   -8.2047    2.9090  -22.8773 N   0  0  0  0  0  0  0  0  0  0  0  0
   -7.7449    2.2192  -23.9562 C   0  0  0  0  0  0  0  0  0  0  0  0
   -6.5546    2.0433  -24.1659 O   0  0  0  0  0  0  0  0  0  0  0  0
   -8.8260    1.6753  -24.9002 C   0  0  0  0  0  0  0  0  0  0  0  0
   -9.4969    0.5221  -24.3207 N   0  0  0  0  0  0  0  0  0  0  0  0
   -8.7205   -0.6947  -24.1417 C   0  0  0  0  0  0  0  0  0  0  0  0
   -9.1060   -1.4811  -22.8580 C   0  0  2  0  0  0  0  0  0  0  0  0
   -8.5909   -0.7005  -21.6189 C   0  0  0  0  0  0  0  0  0  0  0  0
   -9.0801    0.2958  -21.1282 O   0  0  0  0  0  0  0  0  0  0  0  0
   -7.4524   -1.3135  -21.1540 N   0  0  0  0  0  0  0  0  0  0  0  0
   -6.6482   -0.7482  -20.1421 C   0  0  0  0  0  0  0  0  0  0  0  0
   -6.9454   -1.0010  -18.8279 C   0  0  0  0  0  0  0  0  0  0  0  0
   -6.2147   -0.5389  -17.7902 N   0  0  0  0  0  0  0  0  0  0  0  0
   -5.1704    0.2042  -18.0635 C   0  0  0  0  0  0  0  0  0  0  0  0
   -4.7437    0.5300  -19.3836 C   0  0  0  0  0  0  0  0  0  0  0  0
   -3.6122    1.3520  -19.6330 C   0  0  0  0  0  0  0  0  0  0  0  0
   -3.2365    1.6498  -20.9160 C   0  0  0  0  0  0  0  0  0  0  0  0
   -3.9771    1.1434  -22.0088 C   0  0  0  0  0  0  0  0  0  0  0  0
   -5.0805    0.3508  -21.7928 C   0  0  0  0  0  0  0  0  0  0  0  0
   -5.4954    0.0292  -20.4686 C   0  0  0  0  0  0  0  0  0  0  0  0
   -5.6595   -0.0010  -22.6413 H   0  0  0  0  0  0  0  0  0  0  0  0
   -3.6932    1.3955  -23.0264 H   0  0  0  0  0  0  0  0  0  0  0  0
   -2.3822    2.2947  -21.1007 H   0  0  0  0  0  0  0  0  0  0  0  0
   -3.0802    1.7573  -18.7778 H   0  0  0  0  0  0  0  0  0  0  0  0
   -4.5983    0.5867  -17.2187 H   0  0  0  0  0  0  0  0  0  0  0  0
   -7.8121   -1.6103  -18.5790 H   0  0  0  0  0  0  0  0  0  0  0  0
   -7.0447   -2.4779  -21.8971 C   0  0  0  0  0  0  0  0  0  0  0  0
   -8.2909   -2.8201  -22.7263 C   0  0  2  0  0  0  0  0  0  0  0  0
   -7.8914   -3.5854  -23.9932 C   0  0  0  0  0  0  0  0  0  0  0  0
   -9.0604   -4.1819  -24.5908 N   0  0  0  0  0  0  0  0  0  0  0  0
   -9.0560   -4.7922  -25.8433 C   0  0  0  0  0  0  0  0  0  0  0  0
  -10.2774   -5.2701  -26.3414 C   0  0  0  0  0  0  0  0  0  0  0  0
  -10.3664   -5.7956  -27.6281 C   0  0  0  0  0  0  0  0  0  0  0  0
   -9.2251   -5.8844  -28.4235 C   0  0  0  0  0  0  0  0  0  0  0  0
   -8.0002   -5.4935  -27.8982 C   0  0  0  0  0  0  0  0  0  0  0  0
   -7.9019   -4.9559  -26.6176 C   0  0  0  0  0  0  0  0  0  0  0  0
   -6.9311   -4.6732  -26.2302 H   0  0  0  0  0  0  0  0  0  0  0  0
   -7.1075   -5.6082  -28.4995 H   0  0  0  0  0  0  0  0  0  0  0  0
   -9.3104   -6.2536  -29.4424 H   0  0  0  0  0  0  0  0  0  0  0  0
  -11.3373   -6.1290  -28.0031 H   0  0  0  0  0  0  0  0  0  0  0  0
  -11.1447   -5.2292  -25.6766 H   0  0  0  0  0  0  0  0  0  0  0  0
   -9.9221   -3.6868  -24.3958 H   0  0  0  0  0  0  0  0  0  0  0  0
   -7.1739   -4.3729  -23.7233 H   0  0  0  0  0  0  0  0  0  0  0  0
   -7.3360   -2.9095  -24.6698 H   0  0  0  0  0  0  0  0  0  0  0  0
   -8.9053   -3.4935  -22.1219 H   0  0  0  0  0  0  0  0  0  0  0  0
   -6.7586   -3.2921  -21.2181 H   0  0  0  0  0  0  0  0  0  0  0  0
   -6.1686   -2.2619  -22.5311 H   0  0  0  0  0  0  0  0  0  0  0  0
  -10.6299   -1.5793  -22.7852 C   0  0  0  0  0  0  0  0  0  0  0  0
  -11.2686   -2.5315  -21.9748 C   0  0  0  0  0  0  0  0  0  0  0  0
  -12.6487   -2.5173  -21.8297 C   0  0  0  0  0  0  0  0  0  0  0  0
  -13.4163   -3.6847  -20.7897 Cl  0  0  0  0  0  0  0  0  0  0  0  0
  -13.4436   -1.5700  -22.4733 C   0  0  0  0  0  0  0  0  0  0  0  0
  -12.8259   -0.6164  -23.2550 C   0  0  0  0  0  0  0  0  0  0  0  0
  -11.4380   -0.6045  -23.3984 C   0  0  0  0  0  0  0  0  0  0  0  0
  -10.8554    0.5377  -24.1781 C   0  0  0  0  0  0  0  0  0  0  0  0
  -11.5595    1.4360  -24.6266 O   0  0  0  0  0  0  0  0  0  0  0  0
  -13.3949    0.1564  -23.7619 H   0  0  0  0  0  0  0  0  0  0  0  0
  -14.5206   -1.5715  -22.3427 H   0  0  0  0  0  0  0  0  0  0  0  0
  -10.7065   -3.2700  -21.4133 H   0  0  0  0  0  0  0  0  0  0  0  0
   -7.6710   -0.3968  -24.0765 H   0  0  0  0  0  0  0  0  0  0  0  0
   -8.8458   -1.3322  -25.0277 H   0  0  0  0  0  0  0  0  0  0  0  0
   -8.3373    1.4229  -25.8490 H   0  0  0  0  0  0  0  0  0  0  0  0
   -9.6113    2.4124  -25.0978 H   0  0  0  0  0  0  0  0  0  0  0  0
   -9.1493    2.7384  -22.5583 H   0  0  0  0  0  0  0  0  0  0  0  0
   -6.6275    2.6089  -21.4996 H   0  0  0  0  0  0  0  0  0  0  0  0
   -7.7834    3.9116  -21.0949 H   0  0  0  0  0  0  0  0  0  0  0  0
   -6.5803    4.1359  -22.3848 H   0  0  0  0  0  0  0  0  0  0  0  0
  1  2  1  0
  2  3  1  0
  3  4  2  0
  3  5  1  0
  5  6  1  0
  6  7  1  0
  8  7  1  6
  8  9  1  0
  9 10  2  0
  9 11  1  0
 11 12  1  0
 12 13  2  0
 13 14  1  0
 14 15  2  0
 15 16  1  0
 16 17  2  0
 17 18  1  0
 18 19  2  0
 19 20  1  0
 20 21  2  0
 20 22  1  0
 19 23  1  0
 18 24  1  0
 17 25  1  0
 15 26  1  0
 13 27  1  0
 11 28  1  0
 28 29  1  0
 29 30  1  0
 30 31  1  0
 31 32  1  0
 32 33  2  0
 33 34  1  0
 34 35  2  0
 35 36  1  0
 36 37  2  0
 37 38  1  0
 36 39  1  0
 35 40  1  0
 34 41  1  0
 33 42  1  0
 31 43  1  0
 30 44  1  0
 30 45  1  0
 29 46  1  1
 28 47  1  0
 28 48  1  0
  8 49  1  0
 49 50  2  0
 50 51  1  0
 51 52  1  0
 51 53  2  0
 53 54  1  0
 54 55  2  0
 55 56  1  0
 56 57  2  0
 54 58  1  0
 53 59  1  0
 50 60  1  0
  7 61  1  0
  7 62  1  0
  5 63  1  0
  5 64  1  0
  2 65  1  0
  1 66  1  0
  1 67  1  0
  1 68  1  0
 56  6  1  0
 29  8  1  0
 37 32  1  0
 55 49  1  0
 21 12  1  0
 21 16  1  0
M  END
>  <cnnaffinities>  (23) 
[6.28787]

>  <score>  (23) 
6.28787

>  <index>  (23) 
23

>  <Smiles>  (23) 
C(N(C(=O)C(N1C([C@@]2(C(=O)N(c3c(nc(c4c(c(c(c(c34)[H])[H])[H])[H])[H])[H])C([C@@]2(C(N(c2c(c(c(c(c2[H])[H])[H])[H])[H])[H])([H])[H])[H])([H])[H])c2c(c(Cl)c(c(c2C1=O)[H])[H])[H])([H])[H])([H])[H])[H])([H])([H])[H]

>  <h>  (23) 
<NA>

>  <Training>  (23) 
True

>  <Success>  (23) 
True

>  <enamine_searched>  (23) 
False

>  <enamine_id>  (23) 
nan

$$$$

     RDKit          3D

 65 70  0  0  0  0  0  0  0  0999 V2000
  -12.7951   -2.2319  -22.7549 O   0  0  0  0  0  0  0  0  0  0  0  0
  -12.5300   -3.3902  -23.0335 C   0  0  0  0  0  0  0  0  0  0  0  0
  -11.2746   -3.8374  -23.7701 C   0  0  0  0  0  0  0  0  0  0  0  0
  -10.4967   -4.7230  -22.8058 N   0  0  1  0  0  4  0  0  0  0  0  0
   -9.5855   -5.6721  -23.5065 C   0  0  0  0  0  0  0  0  0  0  0  0
   -8.4866   -4.9171  -24.2164 C   0  0  0  0  0  0  0  0  0  0  0  0
   -7.9153   -5.4532  -25.3655 C   0  0  0  0  0  0  0  0  0  0  0  0
   -6.9187   -4.7822  -26.0598 C   0  0  0  0  0  0  0  0  0  0  0  0
   -6.4929   -3.5497  -25.5796 C   0  0  0  0  0  0  0  0  0  0  0  0
   -5.2338   -2.6949  -26.4237 Cl  0  0  0  0  0  0  0  0  0  0  0  0
   -7.0496   -2.9970  -24.4370 C   0  0  0  0  0  0  0  0  0  0  0  0
   -8.0621   -3.6680  -23.7433 C   0  0  0  0  0  0  0  0  0  0  0  0
   -8.6295   -3.0025  -22.4937 C   0  0  2  0  0  0  0  0  0  0  0  0
   -9.2085   -1.5788  -22.7443 C   0  0  0  0  0  0  0  0  0  0  0  0
   -8.3711   -0.5689  -21.9357 C   0  0  0  0  0  0  0  0  0  0  0  0
   -7.4044   -1.3968  -21.2375 N   0  0  0  0  0  0  0  0  0  0  0  0
   -6.5895   -0.8892  -20.1944 C   0  0  0  0  0  0  0  0  0  0  0  0
   -6.8918   -1.1508  -18.8823 C   0  0  0  0  0  0  0  0  0  0  0  0
   -6.2294   -0.6121  -17.8290 N   0  0  0  0  0  0  0  0  0  0  0  0
   -5.2344    0.2003  -18.0833 C   0  0  0  0  0  0  0  0  0  0  0  0
   -4.7944    0.5317  -19.3961 C   0  0  0  0  0  0  0  0  0  0  0  0
   -3.6897    1.3930  -19.6245 C   0  0  0  0  0  0  0  0  0  0  0  0
   -3.2809    1.6687  -20.9001 C   0  0  0  0  0  0  0  0  0  0  0  0
   -3.9597    1.1028  -22.0023 C   0  0  0  0  0  0  0  0  0  0  0  0
   -5.0377    0.2746  -21.8073 C   0  0  0  0  0  0  0  0  0  0  0  0
   -5.4866   -0.0277  -20.4931 C   0  0  0  0  0  0  0  0  0  0  0  0
   -5.5475   -0.1615  -22.6618 H   0  0  0  0  0  0  0  0  0  0  0  0
   -3.6243    1.3193  -23.0121 H   0  0  0  0  0  0  0  0  0  0  0  0
   -2.4357    2.3278  -21.0752 H   0  0  0  0  0  0  0  0  0  0  0  0
   -3.1883    1.8284  -18.7644 H   0  0  0  0  0  0  0  0  0  0  0  0
   -4.7122    0.6325  -17.2282 H   0  0  0  0  0  0  0  0  0  0  0  0
   -7.7170   -1.8132  -18.6295 H   0  0  0  0  0  0  0  0  0  0  0  0
   -7.4892   -2.7422  -21.5024 C   0  0  0  0  0  0  0  0  0  0  0  0
   -6.7515   -3.5865  -21.0355 O   0  0  0  0  0  0  0  0  0  0  0  0
   -7.8715    0.1676  -22.5780 H   0  0  0  0  0  0  0  0  0  0  0  0
   -8.9757   -0.0079  -21.2127 H   0  0  0  0  0  0  0  0  0  0  0  0
  -10.2591   -1.5379  -22.4295 H   0  0  0  0  0  0  0  0  0  0  0  0
   -9.1888   -1.3304  -23.8093 H   0  0  0  0  0  0  0  0  0  0  0  0
   -9.6498   -3.9239  -21.8056 C   0  0  0  0  0  0  0  0  0  0  0  0
  -10.3233   -3.3538  -21.1643 H   0  0  0  0  0  0  0  0  0  0  0  0
   -9.1168   -4.6510  -21.1934 H   0  0  0  0  0  0  0  0  0  0  0  0
   -6.6925   -2.0335  -24.0805 H   0  0  0  0  0  0  0  0  0  0  0  0
   -6.4800   -5.2056  -26.9571 H   0  0  0  0  0  0  0  0  0  0  0  0
   -8.2713   -6.4149  -25.7295 H   0  0  0  0  0  0  0  0  0  0  0  0
  -10.1593   -6.2737  -24.2175 H   0  0  0  0  0  0  0  0  0  0  0  0
   -9.1731   -6.3643  -22.7674 H   0  0  0  0  0  0  0  0  0  0  0  0
  -11.1904   -5.2550  -22.2492 H   0  0  0  0  0  0  0  0  0  0  0  0
  -10.6765   -2.9917  -24.0823 H   0  0  0  0  0  0  0  0  0  0  0  0
  -11.5252   -4.4288  -24.6556 H   0  0  0  0  0  0  0  0  0  0  0  0
  -13.2894   -4.4481  -22.6310 N   0  0  0  0  0  0  0  0  0  0  0  0
  -14.4650   -4.1437  -21.7480 C   0  0  0  0  0  0  0  0  0  0  0  0
  -15.1937   -5.2331  -21.2325 C   0  0  2  0  0  0  0  0  0  0  0  0
  -15.5306   -5.4228  -19.7568 C   0  0  0  0  0  0  0  0  0  0  0  0
  -16.8529   -5.5988  -18.9690 C   0  0  1  0  0  0  0  0  0  0  0  0
  -17.8984   -5.5358  -17.2943 F   0  0  0  0  0  0  0  0  0  0  0  0
  -16.7775   -5.3902  -19.1913 C   0  0  0  0  0  0  0  0  0  0  0  0
  -17.1468   -4.4374  -18.6314 H   0  0  0  0  0  0  0  0  0  0  0  0
  -17.8797   -5.3972  -19.6959 H   0  0  0  0  0  0  0  0  0  0  0  0
  -16.9997   -6.8859  -18.1853 H   0  0  0  0  0  0  0  0  0  0  0  0
  -14.8756   -4.6237  -19.3220 H   0  0  0  0  0  0  0  0  0  0  0  0
  -15.0399   -6.4264  -19.6458 H   0  0  0  0  0  0  0  0  0  0  0  0
  -15.6626   -5.9479  -21.9025 H   0  0  0  0  0  0  0  0  0  0  0  0
  -15.0339   -3.3785  -22.3647 H   0  0  0  0  0  0  0  0  0  0  0  0
  -14.0685   -3.5311  -20.8820 H   0  0  0  0  0  0  0  0  0  0  0  0
  -13.0448   -5.3744  -22.9531 H   0  0  0  0  0  0  0  0  0  0  0  0
  1  2  2  0
  2  3  1  0
  3  4  1  0
  4  5  1  0
  5  6  1  0
  6  7  2  0
  7  8  1  0
  8  9  2  0
  9 10  1  0
  9 11  1  0
 11 12  2  0
 12 13  1  0
 13 14  1  6
 14 15  1  0
 15 16  1  0
 16 17  1  0
 17 18  2  0
 18 19  1  0
 19 20  2  0
 20 21  1  0
 21 22  2  0
 22 23  1  0
 23 24  2  0
 24 25  1  0
 25 26  2  0
 25 27  1  0
 24 28  1  0
 23 29  1  0
 22 30  1  0
 20 31  1  0
 18 32  1  0
 16 33  1  0
 33 34  2  0
 15 35  1  0
 15 36  1  0
 14 37  1  0
 14 38  1  0
 13 39  1  0
 39 40  1  0
 39 41  1  0
 11 42  1  0
  8 43  1  0
  7 44  1  0
  5 45  1  0
  5 46  1  0
  4 47  1  1
  3 48  1  0
  3 49  1  0
  2 50  1  0
 50 51  1  0
 51 52  1  0
 52 53  1  0
 53 54  1  0
 54 55  1  0
 54 56  1  0
 56 57  1  0
 56 58  1  0
 54 59  1  6
 53 60  1  0
 53 61  1  0
 52 62  1  6
 51 63  1  0
 51 64  1  0
 50 65  1  0
 39  4  1  0
 56 52  1  0
 12  6  1  0
 33 13  1  0
 26 17  1  0
 26 21  1  0
M  CHG  1   4   1
M  END
>  <cnnaffinities>  (24) 
[6.94133]

>  <score>  (24) 
6.94133

>  <index>  (24) 
24

>  <Smiles>  (24) 
O=C(C([N@+]1(C(c2c(c(c(Cl)c(c2[C@@]2(C(C(N(c3c(nc(c4c(c(c(c(c34)[H])[H])[H])[H])[H])[H])C2=O)([H])[H])([H])[H])C1([H])[H])[H])[H])[H])([H])[H])[H])([H])[H])N(C([C@]1(C([C@@](F)(C1([H])[H])[H])([H])[H])[H])([H])[H])[H]

>  <h>  (24) 
<NA>

>  <Training>  (24) 
True

>  <Success>  (24) 
True

>  <enamine_searched>  (24) 
False

>  <enamine_id>  (24) 
nan

$$$$

     RDKit          3D

 70 75  0  0  0  0  0  0  0  0999 V2000
   -5.6620   -7.5219  -25.6625 O   0  0  0  0  0  0  0  0  0  0  0  0
   -5.6138   -7.0619  -24.5367 C   0  0  0  0  0  0  0  0  0  0  0  0
   -6.8142   -6.3762  -23.8685 C   0  0  0  0  0  0  0  0  0  0  0  0
   -6.7961   -4.8799  -23.9567 N   0  0  1  0  0  4  0  0  0  0  0  0
   -6.7608   -4.5066  -25.4280 C   0  0  0  0  0  0  0  0  0  0  0  0
   -6.7798   -3.0186  -25.6354 C   0  0  0  0  0  0  0  0  0  0  0  0
   -6.2873   -2.4741  -26.8205 C   0  0  0  0  0  0  0  0  0  0  0  0
   -6.3080   -1.1047  -27.0351 C   0  0  0  0  0  0  0  0  0  0  0  0
   -6.8221   -0.2730  -26.0478 C   0  0  0  0  0  0  0  0  0  0  0  0
   -6.8418    1.4473  -26.2992 Cl  0  0  0  0  0  0  0  0  0  0  0  0
   -7.3102   -0.7994  -24.8628 C   0  0  0  0  0  0  0  0  0  0  0  0
   -7.3025   -2.1796  -24.6556 C   0  0  0  0  0  0  0  0  0  0  0  0
   -7.8150   -2.7112  -23.3335 C   0  0  2  0  0  0  0  0  0  0  0  0
   -6.8221   -2.3833  -22.2240 C   0  0  0  0  0  0  0  0  0  0  0  0
   -5.7320   -2.9338  -22.1951 O   0  0  0  0  0  0  0  0  0  0  0  0
   -7.2750   -1.4711  -21.2928 N   0  0  0  0  0  0  0  0  0  0  0  0
   -6.5340   -0.8784  -20.2404 C   0  0  0  0  0  0  0  0  0  0  0  0
   -6.8978   -1.0707  -18.9258 C   0  0  0  0  0  0  0  0  0  0  0  0
   -6.2204   -0.5685  -17.8650 N   0  0  0  0  0  0  0  0  0  0  0  0
   -5.1817    0.1927  -18.1001 C   0  0  0  0  0  0  0  0  0  0  0  0
   -4.7379    0.5191  -19.4117 C   0  0  0  0  0  0  0  0  0  0  0  0
   -3.6229    1.3687  -19.6301 C   0  0  0  0  0  0  0  0  0  0  0  0
   -3.2428    1.6995  -20.9024 C   0  0  0  0  0  0  0  0  0  0  0  0
   -3.9632    1.2027  -22.0140 C   0  0  0  0  0  0  0  0  0  0  0  0
   -5.0419    0.3723  -21.8314 C   0  0  0  0  0  0  0  0  0  0  0  0
   -5.4387   -0.0065  -20.5174 C   0  0  0  0  0  0  0  0  0  0  0  0
   -5.6015    0.0081  -22.6882 H   0  0  0  0  0  0  0  0  0  0  0  0
   -3.6616    1.4723  -23.0214 H   0  0  0  0  0  0  0  0  0  0  0  0
   -2.3878    2.3478  -21.0720 H   0  0  0  0  0  0  0  0  0  0  0  0
   -3.0954    1.7556  -18.7637 H   0  0  0  0  0  0  0  0  0  0  0  0
   -4.6344    0.5946  -17.2436 H   0  0  0  0  0  0  0  0  0  0  0  0
   -7.7601   -1.6883  -18.6675 H   0  0  0  0  0  0  0  0  0  0  0  0
   -8.2779   -1.3986  -21.2102 H   0  0  0  0  0  0  0  0  0  0  0  0
   -8.0079   -4.2278  -23.3228 C   0  0  0  0  0  0  0  0  0  0  0  0
   -8.9047   -4.5094  -23.8816 H   0  0  0  0  0  0  0  0  0  0  0  0
   -8.1121   -4.5737  -22.2911 H   0  0  0  0  0  0  0  0  0  0  0  0
   -8.7484   -2.2053  -23.0830 H   0  0  0  0  0  0  0  0  0  0  0  0
   -7.6830   -0.1323  -24.0917 H   0  0  0  0  0  0  0  0  0  0  0  0
   -5.9267   -0.6827  -27.9571 H   0  0  0  0  0  0  0  0  0  0  0  0
   -5.8835   -3.1354  -27.5857 H   0  0  0  0  0  0  0  0  0  0  0  0
   -7.6393   -4.9794  -25.8861 H   0  0  0  0  0  0  0  0  0  0  0  0
   -5.8851   -4.9636  -25.8906 H   0  0  0  0  0  0  0  0  0  0  0  0
   -5.9775   -4.4567  -23.4610 H   0  0  0  0  0  0  0  0  0  0  0  0
   -7.6878   -6.7676  -24.4027 H   0  0  0  0  0  0  0  0  0  0  0  0
   -6.8648   -6.7073  -22.8286 H   0  0  0  0  0  0  0  0  0  0  0  0
   -4.4844   -7.1243  -23.7626 N   0  0  0  0  0  0  0  0  0  0  0  0
   -3.2779   -7.7472  -24.1754 C   0  0  0  0  0  0  0  0  0  0  0  0
   -2.0568   -7.1075  -23.9521 C   0  0  0  0  0  0  0  0  0  0  0  0
   -0.8762   -7.7108  -24.3778 C   0  0  0  0  0  0  0  0  0  0  0  0
   -0.9082   -8.9485  -25.0209 C   0  0  0  0  0  0  0  0  0  0  0  0
    0.3067   -9.5499  -25.4683 N   0  0  0  0  0  0  0  0  0  0  0  0
    1.3194   -9.8671  -24.4668 C   0  0  0  0  0  0  0  0  0  0  0  0
    2.6361  -10.2241  -25.1317 C   0  0  0  0  0  0  0  0  0  0  0  0
    2.4052  -11.1782  -26.1396 O   0  0  0  0  0  0  0  0  0  0  0  0
    1.6815  -10.6197  -27.2009 C   0  0  0  0  0  0  0  0  0  0  0  0
    0.3881   -9.9386  -26.7823 C   0  0  0  0  0  0  0  0  0  0  0  0
   -0.4858   -9.7164  -27.5998 O   0  0  0  0  0  0  0  0  0  0  0  0
    2.2766   -9.8674  -27.7397 H   0  0  0  0  0  0  0  0  0  0  0  0
    1.4275  -11.4179  -27.8980 H   0  0  0  0  0  0  0  0  0  0  0  0
    3.1353   -9.3377  -25.5491 H   0  0  0  0  0  0  0  0  0  0  0  0
    3.3211  -10.6811  -24.4127 H   0  0  0  0  0  0  0  0  0  0  0  0
    1.4578   -9.0148  -23.7955 H   0  0  0  0  0  0  0  0  0  0  0  0
    0.9733  -10.7151  -23.8659 H   0  0  0  0  0  0  0  0  0  0  0  0
   -2.1291   -9.5981  -25.2067 C   0  0  0  0  0  0  0  0  0  0  0  0
   -3.3079   -8.9976  -24.7891 C   0  0  0  0  0  0  0  0  0  0  0  0
   -4.2642   -9.4787  -24.9622 H   0  0  0  0  0  0  0  0  0  0  0  0
   -2.1645  -10.5625  -25.7072 H   0  0  0  0  0  0  0  0  0  0  0  0
    0.0733   -7.1979  -24.2449 H   0  0  0  0  0  0  0  0  0  0  0  0
   -2.0290   -6.1346  -23.4678 H   0  0  0  0  0  0  0  0  0  0  0  0
   -4.4595   -6.5475  -22.9382 H   0  0  0  0  0  0  0  0  0  0  0  0
  1  2  2  0
  2  3  1  0
  3  4  1  0
  4  5  1  0
  5  6  1  0
  6  7  2  0
  7  8  1  0
  8  9  2  0
  9 10  1  0
  9 11  1  0
 11 12  2  0
 12 13  1  0
 13 14  1  0
 14 15  2  0
 14 16  1  0
 16 17  1  0
 17 18  2  0
 18 19  1  0
 19 20  2  0
 20 21  1  0
 21 22  2  0
 22 23  1  0
 23 24  2  0
 24 25  1  0
 25 26  2  0
 25 27  1  0
 24 28  1  0
 23 29  1  0
 22 30  1  0
 20 31  1  0
 18 32  1  0
 16 33  1  0
 13 34  1  0
 34 35  1  0
 34 36  1  0
 13 37  1  1
 11 38  1  0
  8 39  1  0
  7 40  1  0
  5 41  1  0
  5 42  1  0
  4 43  1  1
  3 44  1  0
  3 45  1  0
  2 46  1  0
 46 47  1  0
 47 48  2  0
 48 49  1  0
 49 50  2  0
 50 51  1  0
 51 52  1  0
 52 53  1  0
 53 54  1  0
 54 55  1  0
 55 56  1  0
 56 57  2  0
 55 58  1  0
 55 59  1  0
 53 60  1  0
 53 61  1  0
 52 62  1  0
 52 63  1  0
 50 64  1  0
 64 65  2  0
 65 66  1  0
 64 67  1  0
 49 68  1  0
 48 69  1  0
 46 70  1  0
 34  4  1  0
 65 47  1  0
 12  6  1  0
 26 17  1  0
 56 51  1  0
 26 21  1  0
M  CHG  1   4   1
M  END
>  <cnnaffinities>  (25) 
[6.35626]

>  <score>  (25) 
6.35626

>  <index>  (25) 
25

>  <Smiles>  (25) 
O=C(C([N@+]1(C(c2c(c(c(Cl)c(c2[C@](C(=O)N(c2c(nc(c3c(c(c(c(c23)[H])[H])[H])[H])[H])[H])[H])(C1([H])[H])[H])[H])[H])[H])([H])[H])[H])([H])[H])N(c1c(c(c(N2C(C(OC(C2=O)([H])[H])([H])[H])([H])[H])c(c1[H])[H])[H])[H])[H]

>  <h>  (25) 
<NA>

>  <Training>  (25) 
True

>  <Success>  (25) 
True

>  <enamine_searched>  (25) 
False

>  <enamine_id>  (25) 
nan

$$$$

     RDKit          3D

 55 60  0  0  0  0  0  0  0  0999 V2000
  -10.4795   -1.1996  -23.2254 C   0  0  0  0  0  0  0  0  0  0  0  0
   -9.0247   -1.5382  -22.9172 C   0  0  1  0  0  0  0  0  0  0  0  0
   -8.3887   -0.5578  -21.9175 C   0  0  0  0  0  0  0  0  0  0  0  0
   -7.3950   -1.3553  -21.2272 N   0  0  0  0  0  0  0  0  0  0  0  0
   -6.5848   -0.8381  -20.1842 C   0  0  0  0  0  0  0  0  0  0  0  0
   -6.8932   -1.0804  -18.8683 C   0  0  0  0  0  0  0  0  0  0  0  0
   -6.2074   -0.5612  -17.8178 N   0  0  0  0  0  0  0  0  0  0  0  0
   -5.1836    0.2108  -18.0838 C   0  0  0  0  0  0  0  0  0  0  0  0
   -4.7417    0.5216  -19.4015 C   0  0  0  0  0  0  0  0  0  0  0  0
   -3.6160    1.3485  -19.6380 C   0  0  0  0  0  0  0  0  0  0  0  0
   -3.2134    1.6213  -20.9182 C   0  0  0  0  0  0  0  0  0  0  0  0
   -3.9178    1.0781  -22.0174 C   0  0  0  0  0  0  0  0  0  0  0  0
   -5.0118    0.2732  -21.8159 C   0  0  0  0  0  0  0  0  0  0  0  0
   -5.4573   -0.0154  -20.4961 C   0  0  0  0  0  0  0  0  0  0  0  0
   -5.5390   -0.1531  -22.6659 H   0  0  0  0  0  0  0  0  0  0  0  0
   -3.5883    1.2982  -23.0302 H   0  0  0  0  0  0  0  0  0  0  0  0
   -2.3536    2.2577  -21.0990 H   0  0  0  0  0  0  0  0  0  0  0  0
   -3.0966    1.7650  -18.7800 H   0  0  0  0  0  0  0  0  0  0  0  0
   -4.6379    0.6359  -17.2391 H   0  0  0  0  0  0  0  0  0  0  0  0
   -7.7352   -1.7229  -18.6155 H   0  0  0  0  0  0  0  0  0  0  0  0
   -7.5497   -2.7125  -21.4158 C   0  0  0  0  0  0  0  0  0  0  0  0
   -6.7826   -3.5434  -20.9774 O   0  0  0  0  0  0  0  0  0  0  0  0
   -8.7859   -2.9583  -22.3053 C   0  0  1  0  0  0  0  0  0  0  0  0
   -9.9598   -3.4315  -21.4249 C   0  0  0  0  0  0  0  0  0  0  0  0
  -11.0736   -3.9985  -22.1672 N   0  0  0  0  0  0  0  0  0  0  0  0
  -12.4279   -3.9083  -21.6405 C   0  0  0  0  0  0  0  0  0  0  0  0
  -13.2819   -2.8028  -22.1891 C   0  0  0  0  0  0  0  0  0  0  0  0
  -13.9586   -2.8439  -23.4124 C   0  0  0  0  0  0  0  0  0  0  0  0
  -14.6831   -1.7383  -23.5572 N   0  0  0  0  0  0  0  0  0  0  0  0
  -14.4397   -1.0918  -22.4356 N   0  0  0  0  0  0  0  0  0  0  0  0
  -13.6189   -1.6755  -21.5727 N   0  0  0  0  0  0  0  0  0  0  0  0
  -14.8514   -0.1885  -22.2535 H   0  0  0  0  0  0  0  0  0  0  0  0
  -13.8850   -3.6329  -24.1407 H   0  0  0  0  0  0  0  0  0  0  0  0
  -12.4220   -3.9216  -20.5497 H   0  0  0  0  0  0  0  0  0  0  0  0
  -12.9093   -4.8129  -21.9971 H   0  0  0  0  0  0  0  0  0  0  0  0
  -10.9307   -4.6787  -23.3458 C   0  0  0  0  0  0  0  0  0  0  0  0
  -11.8961   -5.0890  -23.9844 O   0  0  0  0  0  0  0  0  0  0  0  0
   -9.5320   -4.8497  -23.8221 C   0  0  0  0  0  0  0  0  0  0  0  0
   -9.2791   -5.8043  -24.8058 C   0  0  0  0  0  0  0  0  0  0  0  0
   -8.0192   -5.9018  -25.3691 C   0  0  0  0  0  0  0  0  0  0  0  0
   -7.0298   -5.0284  -24.9279 C   0  0  0  0  0  0  0  0  0  0  0  0
   -5.8218   -5.0703  -25.5132 F   0  0  0  0  0  0  0  0  0  0  0  0
   -7.2476   -4.1088  -23.9228 C   0  0  0  0  0  0  0  0  0  0  0  0
   -8.5134   -4.0200  -23.3433 C   0  0  0  0  0  0  0  0  0  0  0  0
   -6.4479   -3.4516  -23.6017 H   0  0  0  0  0  0  0  0  0  0  0  0
   -7.7981   -6.5904  -26.1767 H   0  0  0  0  0  0  0  0  0  0  0  0
  -10.0980   -6.4546  -25.1072 H   0  0  0  0  0  0  0  0  0  0  0  0
  -10.3278   -2.5856  -20.8418 H   0  0  0  0  0  0  0  0  0  0  0  0
   -9.5682   -4.1700  -20.7357 H   0  0  0  0  0  0  0  0  0  0  0  0
   -9.1340   -0.1696  -21.2092 H   0  0  0  0  0  0  0  0  0  0  0  0
   -7.9311    0.3051  -22.4139 H   0  0  0  0  0  0  0  0  0  0  0  0
   -8.4375   -1.4951  -23.8452 H   0  0  0  0  0  0  0  0  0  0  0  0
  -10.5547   -0.2391  -23.7398 H   0  0  0  0  0  0  0  0  0  0  0  0
  -10.9533   -1.9671  -23.8483 H   0  0  0  0  0  0  0  0  0  0  0  0
  -11.0632   -1.1204  -22.3030 H   0  0  0  0  0  0  0  0  0  0  0  0
  1  2  1  0
  2  3  1  0
  3  4  1  0
  4  5  1  0
  5  6  2  0
  6  7  1  0
  7  8  2  0
  8  9  1  0
  9 10  2  0
 10 11  1  0
 11 12  2  0
 12 13  1  0
 13 14  2  0
 13 15  1  0
 12 16  1  0
 11 17  1  0
 10 18  1  0
  8 19  1  0
  6 20  1  0
  4 21  1  0
 21 22  2  0
 21 23  1  0
 23 24  1  1
 24 25  1  0
 25 26  1  0
 26 27  1  0
 27 28  1  0
 28 29  2  0
 29 30  1  0
 30 31  1  0
 30 32  1  0
 28 33  1  0
 26 34  1  0
 26 35  1  0
 25 36  1  0
 36 37  2  0
 36 38  1  0
 38 39  2  0
 39 40  1  0
 40 41  2  0
 41 42  1  0
 41 43  1  0
 43 44  2  0
 43 45  1  0
 40 46  1  0
 39 47  1  0
 24 48  1  0
 24 49  1  0
  3 50  1  0
  3 51  1  0
  2 52  1  6
  1 53  1  0
  1 54  1  0
  1 55  1  0
 23  2  1  0
 31 27  2  0
 44 38  1  0
 14  5  1  0
 44 23  1  0
 14  9  1  0
M  END
>  <cnnaffinities>  (26) 
[6.89139]

>  <score>  (26) 
6.89139

>  <index>  (26) 
26

>  <Smiles>  (26) 
C([C@]1(C(N(c2c(nc(c3c(c(c(c(c23)[H])[H])[H])[H])[H])[H])C(=O)[C@]21C(N(C(c1c(nn(n1)[H])[H])([H])[H])C(=O)c1c(c(c(F)c(c21)[H])[H])[H])([H])[H])([H])[H])[H])([H])([H])[H]

>  <h>  (26) 
<NA>

>  <Training>  (26) 
True

>  <Success>  (26) 
True

>  <enamine_searched>  (26) 
False

>  <enamine_id>  (26) 
nan

$$$$

     RDKit          3D

 58 62  0  0  0  0  0  0  0  0999 V2000
  -14.9340   -3.3980  -23.3274 C   0  0  0  0  0  0  0  0  0  0  0  0
  -13.6757   -2.6642  -23.1043 N   0  0  0  0  0  4  0  0  0  0  0  0
  -13.2151   -2.7082  -21.6959 C   0  0  0  0  0  0  0  0  0  0  0  0
  -12.3545   -3.9514  -21.4940 C   0  0  0  0  0  0  0  0  0  0  0  0
  -11.0747   -3.8551  -22.1933 N   0  0  0  0  0  0  0  0  0  0  0  0
   -9.9372   -3.2607  -21.5103 C   0  0  0  0  0  0  0  0  0  0  0  0
   -8.7631   -2.8333  -22.4258 C   0  0  2  0  0  0  0  0  0  0  0  0
   -7.5508   -2.6496  -21.4955 C   0  0  0  0  0  0  0  0  0  0  0  0
   -6.8335   -3.5088  -21.0249 O   0  0  0  0  0  0  0  0  0  0  0  0
   -7.3840   -1.3028  -21.2623 N   0  0  0  0  0  0  0  0  0  0  0  0
   -6.5757   -0.8341  -20.2025 C   0  0  0  0  0  0  0  0  0  0  0  0
   -6.8790   -1.1211  -18.8957 C   0  0  0  0  0  0  0  0  0  0  0  0
   -6.2082   -0.5963  -17.8390 N   0  0  0  0  0  0  0  0  0  0  0  0
   -5.2080    0.2116  -18.0852 C   0  0  0  0  0  0  0  0  0  0  0  0
   -4.7571    0.5485  -19.3957 C   0  0  0  0  0  0  0  0  0  0  0  0
   -3.6379    1.3913  -19.6348 C   0  0  0  0  0  0  0  0  0  0  0  0
   -3.2323    1.6557  -20.9131 C   0  0  0  0  0  0  0  0  0  0  0  0
   -3.9216    1.1002  -22.0154 C   0  0  0  0  0  0  0  0  0  0  0  0
   -5.0110    0.2871  -21.8101 C   0  0  0  0  0  0  0  0  0  0  0  0
   -5.4567    0.0043  -20.4933 C   0  0  0  0  0  0  0  0  0  0  0  0
   -5.5344   -0.1600  -22.6482 H   0  0  0  0  0  0  0  0  0  0  0  0
   -3.5852    1.3024  -23.0279 H   0  0  0  0  0  0  0  0  0  0  0  0
   -2.3685    2.2911  -21.0957 H   0  0  0  0  0  0  0  0  0  0  0  0
   -3.1184    1.8121  -18.7770 H   0  0  0  0  0  0  0  0  0  0  0  0
   -4.6889    0.6369  -17.2239 H   0  0  0  0  0  0  0  0  0  0  0  0
   -7.6985   -1.7947  -18.6509 H   0  0  0  0  0  0  0  0  0  0  0  0
   -8.3819   -0.4694  -21.9085 C   0  0  0  0  0  0  0  0  0  0  0  0
   -8.9458   -1.3868  -23.0027 C   0  0  2  0  0  0  0  0  0  0  0  0
  -10.3472   -0.9956  -23.4619 C   0  0  0  0  0  0  0  0  0  0  0  0
  -11.0509   -0.9585  -22.6243 H   0  0  0  0  0  0  0  0  0  0  0  0
  -10.7411   -1.6989  -24.2044 H   0  0  0  0  0  0  0  0  0  0  0  0
  -10.3465    0.0048  -23.9035 H   0  0  0  0  0  0  0  0  0  0  0  0
   -8.2686   -1.3315  -23.8637 H   0  0  0  0  0  0  0  0  0  0  0  0
   -7.9321    0.4468  -22.3043 H   0  0  0  0  0  0  0  0  0  0  0  0
   -9.1610   -0.1599  -21.1940 H   0  0  0  0  0  0  0  0  0  0  0  0
   -8.5335   -3.8959  -23.4737 C   0  0  0  0  0  0  0  0  0  0  0  0
   -7.2728   -4.1512  -24.0252 C   0  0  0  0  0  0  0  0  0  0  0  0
   -7.1498   -5.1627  -24.9582 C   0  0  0  0  0  0  0  0  0  0  0  0
   -5.9388   -5.4017  -25.4866 F   0  0  0  0  0  0  0  0  0  0  0  0
   -8.2159   -5.9558  -25.3696 C   0  0  0  0  0  0  0  0  0  0  0  0
   -9.4669   -5.6677  -24.8611 C   0  0  0  0  0  0  0  0  0  0  0  0
   -9.6242   -4.6328  -23.9446 C   0  0  0  0  0  0  0  0  0  0  0  0
  -10.9905   -4.3094  -23.4664 C   0  0  0  0  0  0  0  0  0  0  0  0
  -11.9928   -4.4500  -24.1810 O   0  0  0  0  0  0  0  0  0  0  0  0
  -10.3398   -6.2499  -25.1437 H   0  0  0  0  0  0  0  0  0  0  0  0
   -8.0488   -6.7747  -26.0624 H   0  0  0  0  0  0  0  0  0  0  0  0
   -6.3882   -3.6143  -23.6964 H   0  0  0  0  0  0  0  0  0  0  0  0
  -10.2583   -2.3838  -20.9374 H   0  0  0  0  0  0  0  0  0  0  0  0
   -9.5351   -3.9643  -20.7877 H   0  0  0  0  0  0  0  0  0  0  0  0
  -12.9162   -4.7777  -21.9274 H   0  0  0  0  0  0  0  0  0  0  0  0
  -12.2056   -4.1937  -20.4397 H   0  0  0  0  0  0  0  0  0  0  0  0
  -12.6481   -1.7988  -21.4894 H   0  0  0  0  0  0  0  0  0  0  0  0
  -14.0760   -2.7248  -21.0255 H   0  0  0  0  0  0  0  0  0  0  0  0
  -13.7626   -1.6808  -23.4126 H   0  0  0  0  0  0  0  0  0  0  0  0
  -12.9646   -3.1339  -23.6926 H   0  0  0  0  0  0  0  0  0  0  0  0
  -15.3328   -3.1830  -24.3174 H   0  0  0  0  0  0  0  0  0  0  0  0
  -15.6710   -3.1149  -22.5796 H   0  0  0  0  0  0  0  0  0  0  0  0
  -14.7873   -4.4811  -23.2427 H   0  0  0  0  0  0  0  0  0  0  0  0
  1  2  1  0
  2  3  1  0
  3  4  1  0
  4  5  1  0
  5  6  1  0
  7  6  1  1
  7  8  1  0
  8  9  2  0
  8 10  1  0
 10 11  1  0
 11 12  2  0
 12 13  1  0
 13 14  2  0
 14 15  1  0
 15 16  2  0
 16 17  1  0
 17 18  2  0
 18 19  1  0
 19 20  2  0
 19 21  1  0
 18 22  1  0
 17 23  1  0
 16 24  1  0
 14 25  1  0
 12 26  1  0
 10 27  1  0
 27 28  1  0
 28 29  1  0
 29 30  1  0
 29 31  1  0
 29 32  1  0
 28 33  1  6
 27 34  1  0
 27 35  1  0
  7 36  1  0
 36 37  2  0
 37 38  1  0
 38 39  1  0
 38 40  2  0
 40 41  1  0
 41 42  2  0
 42 43  1  0
 43 44  2  0
 41 45  1  0
 40 46  1  0
 37 47  1  0
  6 48  1  0
  6 49  1  0
  4 50  1  0
  4 51  1  0
  3 52  1  0
  3 53  1  0
  2 54  1  0
  2 55  1  0
  1 56  1  0
  1 57  1  0
  1 58  1  0
 43  5  1  0
 28  7  1  0
 42 36  1  0
 20 11  1  0
 20 15  1  0
M  CHG  1   2   1
M  END
>  <cnnaffinities>  (27) 
[6.38575, 6.43594]

>  <score>  (27) 
6.38575

>  <index>  (27) 
27

>  <Smiles>  (27) 
C([N+](C(C(N1C([C@@]2(C(=O)N(c3c(nc(c4c(c(c(c(c34)[H])[H])[H])[H])[H])[H])C([C@@]2(C([H])([H])[H])[H])([H])[H])c2c(c(F)c(c(c2C1=O)[H])[H])[H])([H])[H])([H])[H])([H])[H])([H])[H])([H])([H])[H]

>  <h>  (27) 
<NA>

>  <Training>  (27) 
True

>  <Success>  (27) 
True

>  <enamine_searched>  (27) 
False

>  <enamine_id>  (27) 
nan

$$$$

     RDKit          3D

 64 68  0  0  0  0  0  0  0  0999 V2000
   -7.4039    3.3493  -21.7923 C   0  0  0  0  0  0  0  0  0  0  0  0
   -8.3556    2.9054  -22.7983 N   0  0  0  0  0  0  0  0  0  0  0  0
   -7.8404    2.1917  -23.8394 C   0  0  0  0  0  0  0  0  0  0  0  0
   -6.6308    2.0395  -23.9893 O   0  0  0  0  0  0  0  0  0  0  0  0
   -8.8325    1.5906  -24.8299 C   0  0  0  0  0  0  0  0  0  0  0  0
   -9.4874    0.4214  -24.2825 N   0  0  0  0  0  0  0  0  0  0  0  0
   -8.7289   -0.8109  -24.1492 C   0  0  0  0  0  0  0  0  0  0  0  0
   -9.0905   -1.5615  -22.8476 C   0  0  2  0  0  0  0  0  0  0  0  0
   -8.5554   -0.7819  -21.6245 C   0  0  0  0  0  0  0  0  0  0  0  0
   -9.0372    0.2082  -21.1131 O   0  0  0  0  0  0  0  0  0  0  0  0
   -7.4007   -1.3968  -21.1980 N   0  0  0  0  0  0  0  0  0  0  0  0
   -6.6016   -0.8216  -20.1801 C   0  0  0  0  0  0  0  0  0  0  0  0
   -6.9174   -1.0466  -18.8649 C   0  0  0  0  0  0  0  0  0  0  0  0
   -6.2167   -0.5525  -17.8181 N   0  0  0  0  0  0  0  0  0  0  0  0
   -5.1809    0.2042  -18.0844 C   0  0  0  0  0  0  0  0  0  0  0  0
   -4.7432    0.5230  -19.4011 C   0  0  0  0  0  0  0  0  0  0  0  0
   -3.6211    1.3593  -19.6419 C   0  0  0  0  0  0  0  0  0  0  0  0
   -3.2363    1.6575  -20.9195 C   0  0  0  0  0  0  0  0  0  0  0  0
   -3.9572    1.1406  -22.0184 C   0  0  0  0  0  0  0  0  0  0  0  0
   -5.0487    0.3290  -21.8134 C   0  0  0  0  0  0  0  0  0  0  0  0
   -5.4694   -0.0065  -20.4962 C   0  0  0  0  0  0  0  0  0  0  0  0
   -5.6060   -0.0349  -22.6726 H   0  0  0  0  0  0  0  0  0  0  0  0
   -3.6547    1.3836  -23.0319 H   0  0  0  0  0  0  0  0  0  0  0  0
   -2.3796    2.2993  -21.0955 H   0  0  0  0  0  0  0  0  0  0  0  0
   -3.0931    1.7646  -18.7833 H   0  0  0  0  0  0  0  0  0  0  0  0
   -4.6190    0.6027  -17.2384 H   0  0  0  0  0  0  0  0  0  0  0  0
   -7.7825   -1.6590  -18.6218 H   0  0  0  0  0  0  0  0  0  0  0  0
   -7.0382   -2.5850  -21.9372 C   0  0  0  0  0  0  0  0  0  0  0  0
   -8.3195   -2.9115  -22.7271 C   0  0  2  0  0  0  0  0  0  0  0  0
   -8.0524   -3.6886  -24.0190 C   0  0  0  0  0  0  0  0  0  0  0  0
   -7.4657   -5.3428  -23.6622 S   0  0  0  0  0  0  0  0  0  0  0  0
   -6.1075   -5.2720  -23.1395 O   0  0  0  0  0  0  0  0  0  0  0  0
   -8.4955   -6.0460  -22.9024 O   0  0  0  0  0  0  0  0  0  0  0  0
   -7.3009   -5.9745  -25.2001 N   0  0  0  0  0  0  0  0  0  0  0  0
   -8.4859   -6.3656  -25.9587 C   0  0  0  0  0  0  0  0  0  0  0  0
   -9.0106   -5.4800  -26.3258 H   0  0  0  0  0  0  0  0  0  0  0  0
   -9.1809   -6.9827  -25.3826 H   0  0  0  0  0  0  0  0  0  0  0  0
   -8.1547   -6.9260  -26.8380 H   0  0  0  0  0  0  0  0  0  0  0  0
   -6.5971   -6.7000  -25.1434 H   0  0  0  0  0  0  0  0  0  0  0  0
   -8.9616   -3.7950  -24.6178 H   0  0  0  0  0  0  0  0  0  0  0  0
   -7.2876   -3.2222  -24.6455 H   0  0  0  0  0  0  0  0  0  0  0  0
   -8.9252   -3.5749  -22.1118 H   0  0  0  0  0  0  0  0  0  0  0  0
   -6.1837   -2.3989  -22.6053 H   0  0  0  0  0  0  0  0  0  0  0  0
   -6.7568   -3.3927  -21.2568 H   0  0  0  0  0  0  0  0  0  0  0  0
  -10.6011   -1.6468  -22.7634 C   0  0  0  0  0  0  0  0  0  0  0  0
  -11.2131   -2.5735  -21.9172 C   0  0  0  0  0  0  0  0  0  0  0  0
  -12.5910   -2.6017  -21.8037 C   0  0  0  0  0  0  0  0  0  0  0  0
  -13.3165   -3.7459  -20.7162 Cl  0  0  0  0  0  0  0  0  0  0  0  0
  -13.4131   -1.7266  -22.5134 C   0  0  0  0  0  0  0  0  0  0  0  0
  -12.8125   -0.7785  -23.3136 C   0  0  0  0  0  0  0  0  0  0  0  0
  -11.4251   -0.7169  -23.4110 C   0  0  0  0  0  0  0  0  0  0  0  0
  -10.8493    0.4309  -24.1726 C   0  0  0  0  0  0  0  0  0  0  0  0
  -11.5443    1.3250  -24.6318 O   0  0  0  0  0  0  0  0  0  0  0  0
  -13.3905   -0.0450  -23.8634 H   0  0  0  0  0  0  0  0  0  0  0  0
  -14.4920   -1.7834  -22.4097 H   0  0  0  0  0  0  0  0  0  0  0  0
  -10.6241   -3.2677  -21.3276 H   0  0  0  0  0  0  0  0  0  0  0  0
   -7.6621   -0.5659  -24.1683 H   0  0  0  0  0  0  0  0  0  0  0  0
   -8.9441   -1.4689  -25.0006 H   0  0  0  0  0  0  0  0  0  0  0  0
   -9.6258    2.2973  -25.1023 H   0  0  0  0  0  0  0  0  0  0  0  0
   -8.2531    1.3209  -25.7181 H   0  0  0  0  0  0  0  0  0  0  0  0
   -9.3118    2.7536  -22.4883 H   0  0  0  0  0  0  0  0  0  0  0  0
   -6.7759    2.5040  -21.4749 H   0  0  0  0  0  0  0  0  0  0  0  0
   -6.7475    4.1202  -22.2066 H   0  0  0  0  0  0  0  0  0  0  0  0
   -7.9352    3.7751  -20.9400 H   0  0  0  0  0  0  0  0  0  0  0  0
  1  2  1  0
  2  3  1  0
  3  4  2  0
  3  5  1  0
  5  6  1  0
  6  7  1  0
  8  7  1  6
  8  9  1  0
  9 10  2  0
  9 11  1  0
 11 12  1  0
 12 13  2  0
 13 14  1  0
 14 15  2  0
 15 16  1  0
 16 17  2  0
 17 18  1  0
 18 19  2  0
 19 20  1  0
 20 21  2  0
 20 22  1  0
 19 23  1  0
 18 24  1  0
 17 25  1  0
 15 26  1  0
 13 27  1  0
 11 28  1  0
 28 29  1  0
 29 30  1  0
 30 31  1  0
 31 32  2  0
 31 33  2  0
 31 34  1  0
 34 35  1  0
 35 36  1  0
 35 37  1  0
 35 38  1  0
 34 39  1  0
 30 40  1  0
 30 41  1  0
 29 42  1  1
 28 43  1  0
 28 44  1  0
  8 45  1  0
 45 46  2  0
 46 47  1  0
 47 48  1  0
 47 49  2  0
 49 50  1  0
 50 51  2  0
 51 52  1  0
 52 53  2  0
 50 54  1  0
 49 55  1  0
 46 56  1  0
  7 57  1  0
  7 58  1  0
  5 59  1  0
  5 60  1  0
  2 61  1  0
  1 62  1  0
  1 63  1  0
  1 64  1  0
 52  6  1  0
 29  8  1  0
 51 45  1  0
 21 12  1  0
 21 16  1  0
M  END
>  <cnnaffinities>  (28) 
[6.48108]

>  <score>  (28) 
6.48108

>  <index>  (28) 
28

>  <Smiles>  (28) 
C(N(C(=O)C(N1C([C@@]2(C(=O)N(c3c(nc(c4c(c(c(c(c34)[H])[H])[H])[H])[H])[H])C([C@@]2(C(S(=O)(=O)N(C([H])([H])[H])[H])([H])[H])[H])([H])[H])c2c(c(Cl)c(c(c2C1=O)[H])[H])[H])([H])[H])([H])[H])[H])([H])([H])[H]

>  <h>  (28) 
<NA>

>  <Training>  (28) 
True

>  <Success>  (28) 
True

>  <enamine_searched>  (28) 
False

>  <enamine_id>  (28) 
nan

$$$$

     RDKit          3D

 55 60  0  0  0  0  0  0  0  0999 V2000
  -10.4795   -1.1996  -23.2254 C   0  0  0  0  0  0  0  0  0  0  0  0
   -9.0247   -1.5382  -22.9172 C   0  0  1  0  0  0  0  0  0  0  0  0
   -8.3887   -0.5578  -21.9175 C   0  0  0  0  0  0  0  0  0  0  0  0
   -7.3950   -1.3553  -21.2272 N   0  0  0  0  0  0  0  0  0  0  0  0
   -6.5848   -0.8381  -20.1842 C   0  0  0  0  0  0  0  0  0  0  0  0
   -6.8932   -1.0804  -18.8683 C   0  0  0  0  0  0  0  0  0  0  0  0
   -6.2074   -0.5612  -17.8178 N   0  0  0  0  0  0  0  0  0  0  0  0
   -5.1836    0.2108  -18.0838 C   0  0  0  0  0  0  0  0  0  0  0  0
   -4.7417    0.5216  -19.4015 C   0  0  0  0  0  0  0  0  0  0  0  0
   -3.6160    1.3485  -19.6380 C   0  0  0  0  0  0  0  0  0  0  0  0
   -3.2134    1.6213  -20.9182 C   0  0  0  0  0  0  0  0  0  0  0  0
   -3.9178    1.0781  -22.0174 C   0  0  0  0  0  0  0  0  0  0  0  0
   -5.0118    0.2732  -21.8159 C   0  0  0  0  0  0  0  0  0  0  0  0
   -5.4573   -0.0154  -20.4961 C   0  0  0  0  0  0  0  0  0  0  0  0
   -5.5390   -0.1531  -22.6659 H   0  0  0  0  0  0  0  0  0  0  0  0
   -3.5883    1.2982  -23.0302 H   0  0  0  0  0  0  0  0  0  0  0  0
   -2.3536    2.2577  -21.0990 H   0  0  0  0  0  0  0  0  0  0  0  0
   -3.0966    1.7650  -18.7800 H   0  0  0  0  0  0  0  0  0  0  0  0
   -4.6379    0.6359  -17.2391 H   0  0  0  0  0  0  0  0  0  0  0  0
   -7.7352   -1.7229  -18.6155 H   0  0  0  0  0  0  0  0  0  0  0  0
   -7.5497   -2.7125  -21.4158 C   0  0  0  0  0  0  0  0  0  0  0  0
   -6.7826   -3.5434  -20.9774 O   0  0  0  0  0  0  0  0  0  0  0  0
   -8.7859   -2.9583  -22.3053 C   0  0  1  0  0  0  0  0  0  0  0  0
   -9.9598   -3.4315  -21.4249 C   0  0  0  0  0  0  0  0  0  0  0  0
  -11.0736   -3.9985  -22.1672 N   0  0  0  0  0  0  0  0  0  0  0  0
  -12.4280   -3.9083  -21.6405 C   0  0  0  0  0  0  0  0  0  0  0  0
  -13.2819   -2.8028  -22.1891 C   0  0  0  0  0  0  0  0  0  0  0  0
  -13.9586   -2.8439  -23.4124 C   0  0  0  0  0  0  0  0  0  0  0  0
  -14.6831   -1.7383  -23.5572 N   0  0  0  0  0  0  0  0  0  0  0  0
  -14.4397   -1.0918  -22.4356 N   0  0  0  0  0  0  0  0  0  0  0  0
  -13.6189   -1.6755  -21.5727 N   0  0  0  0  0  0  0  0  0  0  0  0
  -14.8514   -0.1885  -22.2536 H   0  0  0  0  0  0  0  0  0  0  0  0
  -13.8850   -3.6329  -24.1407 H   0  0  0  0  0  0  0  0  0  0  0  0
  -12.4219   -3.9217  -20.5497 H   0  0  0  0  0  0  0  0  0  0  0  0
  -12.9093   -4.8129  -21.9971 H   0  0  0  0  0  0  0  0  0  0  0  0
  -10.9307   -4.6788  -23.3458 C   0  0  0  0  0  0  0  0  0  0  0  0
  -11.8961   -5.0889  -23.9844 O   0  0  0  0  0  0  0  0  0  0  0  0
   -9.5320   -4.8497  -23.8221 C   0  0  0  0  0  0  0  0  0  0  0  0
   -9.2791   -5.8043  -24.8058 C   0  0  0  0  0  0  0  0  0  0  0  0
   -8.0192   -5.9018  -25.3691 C   0  0  0  0  0  0  0  0  0  0  0  0
   -7.0298   -5.0284  -24.9279 C   0  0  0  0  0  0  0  0  0  0  0  0
   -5.8218   -5.0703  -25.5132 F   0  0  0  0  0  0  0  0  0  0  0  0
   -7.2477   -4.1088  -23.9228 C   0  0  0  0  0  0  0  0  0  0  0  0
   -8.5134   -4.0200  -23.3433 C   0  0  0  0  0  0  0  0  0  0  0  0
   -6.4479   -3.4516  -23.6017 H   0  0  0  0  0  0  0  0  0  0  0  0
   -7.7981   -6.5904  -26.1767 H   0  0  0  0  0  0  0  0  0  0  0  0
  -10.0980   -6.4546  -25.1072 H   0  0  0  0  0  0  0  0  0  0  0  0
  -10.3278   -2.5856  -20.8418 H   0  0  0  0  0  0  0  0  0  0  0  0
   -9.5681   -4.1700  -20.7357 H   0  0  0  0  0  0  0  0  0  0  0  0
   -9.1340   -0.1696  -21.2092 H   0  0  0  0  0  0  0  0  0  0  0  0
   -7.9311    0.3051  -22.4139 H   0  0  0  0  0  0  0  0  0  0  0  0
   -8.4375   -1.4951  -23.8452 H   0  0  0  0  0  0  0  0  0  0  0  0
  -10.5547   -0.2391  -23.7398 H   0  0  0  0  0  0  0  0  0  0  0  0
  -10.9534   -1.9671  -23.8483 H   0  0  0  0  0  0  0  0  0  0  0  0
  -11.0632   -1.1204  -22.3030 H   0  0  0  0  0  0  0  0  0  0  0  0
  1  2  1  0
  2  3  1  0
  3  4  1  0
  4  5  1  0
  5  6  2  0
  6  7  1  0
  7  8  2  0
  8  9  1  0
  9 10  2  0
 10 11  1  0
 11 12  2  0
 12 13  1  0
 13 14  2  0
 13 15  1  0
 12 16  1  0
 11 17  1  0
 10 18  1  0
  8 19  1  0
  6 20  1  0
  4 21  1  0
 21 22  2  0
 21 23  1  0
 23 24  1  1
 24 25  1  0
 25 26  1  0
 26 27  1  0
 27 28  1  0
 28 29  2  0
 29 30  1  0
 30 31  1  0
 30 32  1  0
 28 33  1  0
 26 34  1  0
 26 35  1  0
 25 36  1  0
 36 37  2  0
 36 38  1  0
 38 39  2  0
 39 40  1  0
 40 41  2  0
 41 42  1  0
 41 43  1  0
 43 44  2  0
 43 45  1  0
 40 46  1  0
 39 47  1  0
 24 48  1  0
 24 49  1  0
  3 50  1  0
  3 51  1  0
  2 52  1  6
  1 53  1  0
  1 54  1  0
  1 55  1  0
 23  2  1  0
 31 27  2  0
 44 38  1  0
 14  5  1  0
 44 23  1  0
 14  9  1  0
M  END
>  <cnnaffinities>  (29) 
[6.89139]

>  <score>  (29) 
6.89139

>  <index>  (29) 
29

>  <Smiles>  (29) 
C([C@]1(C(N(c2c(nc(c3c(c(c(c(c23)[H])[H])[H])[H])[H])[H])C(=O)[C@]21C(N(C(c1c(nn(n1)[H])[H])([H])[H])C(=O)c1c(c(c(F)c(c21)[H])[H])[H])([H])[H])([H])[H])[H])([H])([H])[H]

>  <h>  (29) 
<NA>

>  <Training>  (29) 
True

>  <Success>  (29) 
True

>  <enamine_searched>  (29) 
False

>  <enamine_id>  (29) 
nan

$$$$

     RDKit          3D

 58 63  0  0  0  0  0  0  0  0999 V2000
  -10.4380   -1.0276  -23.3571 C   0  0  0  0  0  0  0  0  0  0  0  0
   -9.0044   -1.3940  -22.9821 C   0  0  1  0  0  0  0  0  0  0  0  0
   -8.3997   -0.4783  -21.9021 C   0  0  0  0  0  0  0  0  0  0  0  0
   -7.4118   -1.3227  -21.2579 N   0  0  0  0  0  0  0  0  0  0  0  0
   -6.5868   -0.8513  -20.2096 C   0  0  0  0  0  0  0  0  0  0  0  0
   -6.8896   -1.1277  -18.9002 C   0  0  0  0  0  0  0  0  0  0  0  0
   -6.2208   -0.5989  -17.8464 N   0  0  0  0  0  0  0  0  0  0  0  0
   -5.2163    0.2040  -18.0951 C   0  0  0  0  0  0  0  0  0  0  0  0
   -4.7666    0.5343  -19.4067 C   0  0  0  0  0  0  0  0  0  0  0  0
   -3.6434    1.3718  -19.6375 C   0  0  0  0  0  0  0  0  0  0  0  0
   -3.2351    1.6405  -20.9158 C   0  0  0  0  0  0  0  0  0  0  0  0
   -3.9306    1.0924  -22.0173 C   0  0  0  0  0  0  0  0  0  0  0  0
   -5.0216    0.2813  -21.8197 C   0  0  0  0  0  0  0  0  0  0  0  0
   -5.4676   -0.0101  -20.5039 C   0  0  0  0  0  0  0  0  0  0  0  0
   -5.5445   -0.1601  -22.6621 H   0  0  0  0  0  0  0  0  0  0  0  0
   -3.5928    1.3016  -23.0281 H   0  0  0  0  0  0  0  0  0  0  0  0
   -2.3706    2.2746  -21.0933 H   0  0  0  0  0  0  0  0  0  0  0  0
   -3.1232    1.7864  -18.7779 H   0  0  0  0  0  0  0  0  0  0  0  0
   -4.6927    0.6307  -17.2373 H   0  0  0  0  0  0  0  0  0  0  0  0
   -7.7140   -1.7928  -18.6490 H   0  0  0  0  0  0  0  0  0  0  0  0
   -7.6109   -2.6680  -21.4759 C   0  0  0  0  0  0  0  0  0  0  0  0
   -6.9095   -3.5384  -21.0031 O   0  0  0  0  0  0  0  0  0  0  0  0
   -8.8106   -2.8513  -22.4266 C   0  0  1  0  0  0  0  0  0  0  0  0
  -10.0368   -3.2976  -21.5889 C   0  0  0  0  0  0  0  0  0  0  0  0
  -11.1570   -3.7912  -22.3923 N   0  0  0  0  0  0  0  0  0  0  0  0
  -12.5310   -3.7826  -21.8675 C   0  0  0  0  0  0  0  0  0  0  0  0
  -13.4772   -2.8552  -22.6042 C   0  0  0  0  0  0  0  0  0  0  0  0
  -13.9454   -1.6768  -22.0944 C   0  0  0  0  0  0  0  0  0  0  0  0
  -14.7922   -0.8290  -22.9125 C   0  0  0  0  0  0  0  0  0  0  0  0
  -15.3943    0.1770  -22.5956 O   0  0  0  0  0  0  0  0  0  0  0  0
  -14.8895   -1.2904  -24.2346 N   0  0  0  0  0  0  0  0  0  0  0  0
  -14.5325   -2.5383  -24.6047 C   0  0  0  0  0  0  0  0  0  0  0  0
  -13.8840   -3.3390  -23.8298 N   0  0  0  0  0  0  0  0  0  0  0  0
  -14.7920   -2.8486  -25.6101 H   0  0  0  0  0  0  0  0  0  0  0  0
  -15.5006   -0.7516  -24.8255 H   0  0  0  0  0  0  0  0  0  0  0  0
  -13.7517   -1.3452  -21.0812 H   0  0  0  0  0  0  0  0  0  0  0  0
  -12.9350   -4.7732  -22.0732 H   0  0  0  0  0  0  0  0  0  0  0  0
  -12.5131   -3.5886  -20.7883 H   0  0  0  0  0  0  0  0  0  0  0  0
  -10.9183   -4.6637  -23.4236 C   0  0  0  0  0  0  0  0  0  0  0  0
  -11.8033   -5.3266  -23.9411 O   0  0  0  0  0  0  0  0  0  0  0  0
   -9.5173   -4.7551  -23.9237 C   0  0  0  0  0  0  0  0  0  0  0  0
   -9.2611   -5.7415  -24.8742 C   0  0  0  0  0  0  0  0  0  0  0  0
   -8.0016   -5.8928  -25.4156 C   0  0  0  0  0  0  0  0  0  0  0  0
   -7.0035   -5.0284  -24.9783 C   0  0  0  0  0  0  0  0  0  0  0  0
   -5.7712   -5.1672  -25.4932 F   0  0  0  0  0  0  0  0  0  0  0  0
   -7.2184   -4.0563  -24.0187 C   0  0  0  0  0  0  0  0  0  0  0  0
   -8.5047   -3.9044  -23.4731 C   0  0  0  0  0  0  0  0  0  0  0  0
   -6.3652   -3.4782  -23.6723 H   0  0  0  0  0  0  0  0  0  0  0  0
   -7.7791   -6.6659  -26.1448 H   0  0  0  0  0  0  0  0  0  0  0  0
  -10.0803   -6.3912  -25.1628 H   0  0  0  0  0  0  0  0  0  0  0  0
   -9.7039   -4.0572  -20.8791 H   0  0  0  0  0  0  0  0  0  0  0  0
  -10.3604   -2.4437  -20.9910 H   0  0  0  0  0  0  0  0  0  0  0  0
   -9.1595   -0.1404  -21.1813 H   0  0  0  0  0  0  0  0  0  0  0  0
   -7.9363    0.4258  -22.3100 H   0  0  0  0  0  0  0  0  0  0  0  0
   -8.3689   -1.3305  -23.8733 H   0  0  0  0  0  0  0  0  0  0  0  0
  -11.0812   -1.0074  -22.4720 H   0  0  0  0  0  0  0  0  0  0  0  0
  -10.8543   -1.7694  -24.0430 H   0  0  0  0  0  0  0  0  0  0  0  0
  -10.5024   -0.0414  -23.8220 H   0  0  0  0  0  0  0  0  0  0  0  0
  1  2  1  0
  2  3  1  0
  3  4  1  0
  4  5  1  0
  5  6  2  0
  6  7  1  0
  7  8  2  0
  8  9  1  0
  9 10  2  0
 10 11  1  0
 11 12  2  0
 12 13  1  0
 13 14  2  0
 13 15  1  0
 12 16  1  0
 11 17  1  0
 10 18  1  0
  8 19  1  0
  6 20  1  0
  4 21  1  0
 21 22  2  0
 21 23  1  0
 23 24  1  1
 24 25  1  0
 25 26  1  0
 26 27  1  0
 27 28  2  0
 28 29  1  0
 29 30  2  0
 29 31  1  0
 31 32  1  0
 32 33  2  0
 32 34  1  0
 31 35  1  0
 28 36  1  0
 26 37  1  0
 26 38  1  0
 25 39  1  0
 39 40  2  0
 39 41  1  0
 41 42  2  0
 42 43  1  0
 43 44  2  0
 44 45  1  0
 44 46  1  0
 46 47  2  0
 46 48  1  0
 43 49  1  0
 42 50  1  0
 24 51  1  0
 24 52  1  0
  3 53  1  0
  3 54  1  0
  2 55  1  6
  1 56  1  0
  1 57  1  0
  1 58  1  0
 23  2  1  0
 33 27  1  0
 47 41  1  0
 14  5  1  0
 47 23  1  0
 14  9  1  0
M  END
>  <cnnaffinities>  (30) 
[6.78686]

>  <score>  (30) 
6.78686

>  <index>  (30) 
30

>  <Smiles>  (30) 
C([C@]1(C(N(c2c(nc(c3c(c(c(c(c23)[H])[H])[H])[H])[H])[H])C(=O)[C@]21C(N(C(c1c(c(=O)n(c(n1)[H])[H])[H])([H])[H])C(=O)c1c(c(c(F)c(c21)[H])[H])[H])([H])[H])([H])[H])[H])([H])([H])[H]

>  <h>  (30) 
<NA>

>  <Training>  (30) 
True

>  <Success>  (30) 
True

>  <enamine_searched>  (30) 
False

>  <enamine_id>  (30) 
nan

$$$$

     RDKit          3D

 66 71  0  0  0  0  0  0  0  0999 V2000
  -14.3506   -1.4900  -23.6809 C   0  0  0  0  0  0  0  0  0  0  0  0
  -13.5847   -2.6763  -23.3478 N   0  0  0  0  0  0  0  0  0  0  0  0
  -13.2543   -2.9577  -22.0608 C   0  0  0  0  0  0  0  0  0  0  0  0
  -13.7462   -2.3647  -21.1123 O   0  0  0  0  0  0  0  0  0  0  0  0
  -12.2596   -4.1049  -21.8644 C   0  0  0  0  0  0  0  0  0  0  0  0
  -10.9473   -3.9701  -22.4679 N   0  0  0  0  0  0  0  0  0  0  0  0
   -9.8261   -3.5146  -21.6646 C   0  0  0  0  0  0  0  0  0  0  0  0
   -8.6624   -2.9237  -22.5000 C   0  0  2  0  0  0  0  0  0  0  0  0
   -7.5054   -2.6951  -21.5212 C   0  0  0  0  0  0  0  0  0  0  0  0
   -6.7791   -3.5469  -21.0464 O   0  0  0  0  0  0  0  0  0  0  0  0
   -7.4218   -1.3456  -21.2433 N   0  0  0  0  0  0  0  0  0  0  0  0
   -6.5976   -0.8495  -20.2042 C   0  0  0  0  0  0  0  0  0  0  0  0
   -6.8891   -1.1246  -18.8927 C   0  0  0  0  0  0  0  0  0  0  0  0
   -6.2208   -0.5905  -17.8410 N   0  0  0  0  0  0  0  0  0  0  0  0
   -5.2201    0.2161  -18.0938 C   0  0  0  0  0  0  0  0  0  0  0  0
   -4.7758    0.5407  -19.4071 C   0  0  0  0  0  0  0  0  0  0  0  0
   -3.6487    1.3720  -19.6374 C   0  0  0  0  0  0  0  0  0  0  0  0
   -3.2425    1.6404  -20.9166 C   0  0  0  0  0  0  0  0  0  0  0  0
   -3.9405    1.0922  -22.0162 C   0  0  0  0  0  0  0  0  0  0  0  0
   -5.0312    0.2819  -21.8183 C   0  0  0  0  0  0  0  0  0  0  0  0
   -5.4795   -0.0061  -20.5021 C   0  0  0  0  0  0  0  0  0  0  0  0
   -5.5481   -0.1639  -22.6618 H   0  0  0  0  0  0  0  0  0  0  0  0
   -3.6058    1.3020  -23.0283 H   0  0  0  0  0  0  0  0  0  0  0  0
   -2.3796    2.2747  -21.0969 H   0  0  0  0  0  0  0  0  0  0  0  0
   -3.1240    1.7837  -18.7796 H   0  0  0  0  0  0  0  0  0  0  0  0
   -4.6947    0.6468  -17.2397 H   0  0  0  0  0  0  0  0  0  0  0  0
   -7.7096   -1.7933  -18.6405 H   0  0  0  0  0  0  0  0  0  0  0  0
   -8.4208   -0.5329  -21.9262 C   0  0  0  0  0  0  0  0  0  0  0  0
   -8.9043   -1.4743  -23.0400 C   0  0  2  0  0  0  0  0  0  0  0  0
  -10.3381   -1.2157  -23.5048 C   0  0  0  0  0  0  0  0  0  0  0  0
  -10.5278   -0.0000  -24.2542 N   0  0  0  0  0  0  0  0  0  0  0  0
  -11.0406    1.1221  -23.6980 C   0  0  0  0  0  0  0  0  0  0  0  0
  -11.0654    2.3288  -24.4243 C   0  0  0  0  0  0  0  0  0  0  0  0
  -11.5561    3.4179  -23.7470 C   0  0  0  0  0  0  0  0  0  0  0  0
  -12.0342    3.3678  -22.4922 N   0  0  0  0  0  0  0  0  0  0  0  0
  -11.9919    2.1748  -21.9262 C   0  0  0  0  0  0  0  0  0  0  0  0
  -11.5286    1.0387  -22.4534 N   0  0  0  0  0  0  0  0  0  0  0  0
  -12.3773    2.1174  -20.9077 H   0  0  0  0  0  0  0  0  0  0  0  0
  -11.5626    4.3921  -24.2285 H   0  0  0  0  0  0  0  0  0  0  0  0
  -10.7073    2.3657  -25.4519 H   0  0  0  0  0  0  0  0  0  0  0  0
  -10.0997    0.0725  -25.1625 H   0  0  0  0  0  0  0  0  0  0  0  0
  -10.6715   -2.0637  -24.1090 H   0  0  0  0  0  0  0  0  0  0  0  0
  -10.9770   -1.1271  -22.6272 H   0  0  0  0  0  0  0  0  0  0  0  0
   -8.2210   -1.3627  -23.8924 H   0  0  0  0  0  0  0  0  0  0  0  0
   -7.9787    0.3972  -22.3014 H   0  0  0  0  0  0  0  0  0  0  0  0
   -9.2412   -0.2375  -21.2537 H   0  0  0  0  0  0  0  0  0  0  0  0
   -8.3287   -3.9339  -23.5755 C   0  0  0  0  0  0  0  0  0  0  0  0
   -7.0274   -4.0751  -24.0732 C   0  0  0  0  0  0  0  0  0  0  0  0
   -6.7535   -5.0445  -25.0233 C   0  0  0  0  0  0  0  0  0  0  0  0
   -5.1364   -5.1973  -25.6599 Cl  0  0  0  0  0  0  0  0  0  0  0  0
   -7.7380   -5.9370  -25.4439 C   0  0  0  0  0  0  0  0  0  0  0  0
   -9.0360   -5.7701  -24.9944 C   0  0  0  0  0  0  0  0  0  0  0  0
   -9.3420   -4.7471  -24.1002 C   0  0  0  0  0  0  0  0  0  0  0  0
  -10.7652   -4.5429  -23.6897 C   0  0  0  0  0  0  0  0  0  0  0  0
  -11.7261   -4.8490  -24.3951 O   0  0  0  0  0  0  0  0  0  0  0  0
   -9.8351   -6.4343  -25.3136 H   0  0  0  0  0  0  0  0  0  0  0  0
   -7.4822   -6.7590  -26.1061 H   0  0  0  0  0  0  0  0  0  0  0  0
   -6.2146   -3.4814  -23.6682 H   0  0  0  0  0  0  0  0  0  0  0  0
  -10.1697   -2.7582  -20.9553 H   0  0  0  0  0  0  0  0  0  0  0  0
   -9.4118   -4.3561  -21.1016 H   0  0  0  0  0  0  0  0  0  0  0  0
  -12.1600   -4.2693  -20.7900 H   0  0  0  0  0  0  0  0  0  0  0  0
  -12.7076   -4.9679  -22.3392 H   0  0  0  0  0  0  0  0  0  0  0  0
  -13.1693   -3.2120  -24.0969 H   0  0  0  0  0  0  0  0  0  0  0  0
  -13.7597   -0.5733  -23.5484 H   0  0  0  0  0  0  0  0  0  0  0  0
  -15.2224   -1.4003  -23.0307 H   0  0  0  0  0  0  0  0  0  0  0  0
  -14.6934   -1.5742  -24.7167 H   0  0  0  0  0  0  0  0  0  0  0  0
  1  2  1  0
  2  3  1  0
  3  4  2  0
  3  5  1  0
  5  6  1  0
  6  7  1  0
  8  7  1  1
  8  9  1  0
  9 10  2  0
  9 11  1  0
 11 12  1  0
 12 13  2  0
 13 14  1  0
 14 15  2  0
 15 16  1  0
 16 17  2  0
 17 18  1  0
 18 19  2  0
 19 20  1  0
 20 21  2  0
 20 22  1  0
 19 23  1  0
 18 24  1  0
 17 25  1  0
 15 26  1  0
 13 27  1  0
 11 28  1  0
 28 29  1  0
 29 30  1  0
 30 31  1  0
 31 32  1  0
 32 33  2  0
 33 34  1  0
 34 35  2  0
 35 36  1  0
 36 37  2  0
 36 38  1  0
 34 39  1  0
 33 40  1  0
 31 41  1  0
 30 42  1  0
 30 43  1  0
 29 44  1  6
 28 45  1  0
 28 46  1  0
  8 47  1  0
 47 48  2  0
 48 49  1  0
 49 50  1  0
 49 51  2  0
 51 52  1  0
 52 53  2  0
 53 54  1  0
 54 55  2  0
 52 56  1  0
 51 57  1  0
 48 58  1  0
  7 59  1  0
  7 60  1  0
  5 61  1  0
  5 62  1  0
  2 63  1  0
  1 64  1  0
  1 65  1  0
  1 66  1  0
 54  6  1  0
 29  8  1  0
 37 32  1  0
 53 47  1  0
 21 12  1  0
 21 16  1  0
M  END
>  <cnnaffinities>  (31) 
[7.08653, 6.93089, 6.8637]

>  <score>  (31) 
7.08653

>  <index>  (31) 
31

>  <Smiles>  (31) 
C(N(C(=O)C(N1C([C@@]2(C(=O)N(c3c(nc(c4c(c(c(c(c34)[H])[H])[H])[H])[H])[H])C([C@@]2(C(N(c2c(c(nc(n2)[H])[H])[H])[H])([H])[H])[H])([H])[H])c2c(c(Cl)c(c(c2C1=O)[H])[H])[H])([H])[H])([H])[H])[H])([H])([H])[H]

>  <h>  (31) 
<NA>

>  <Training>  (31) 
True

>  <Success>  (31) 
True

>  <enamine_searched>  (31) 
False

>  <enamine_id>  (31) 
nan

$$$$

     RDKit          3D

 57 62  0  0  0  0  0  0  0  0999 V2000
  -10.1167   -0.9337  -23.7102 C   0  0  0  0  0  0  0  0  0  0  0  0
   -8.7698   -1.3365  -23.1276 C   0  0  1  0  0  0  0  0  0  0  0  0
   -8.2696   -0.4341  -21.9946 C   0  0  0  0  0  0  0  0  0  0  0  0
   -7.2850   -1.2756  -21.3283 N   0  0  0  0  0  0  0  0  0  0  0  0
   -6.4884   -0.8043  -20.2561 C   0  0  0  0  0  0  0  0  0  0  0  0
   -6.7939   -1.1244  -18.9559 C   0  0  0  0  0  0  0  0  0  0  0  0
   -6.1541   -0.6041  -17.8787 N   0  0  0  0  0  0  0  0  0  0  0  0
   -5.1763    0.2392  -18.0935 C   0  0  0  0  0  0  0  0  0  0  0  0
   -4.7300    0.6248  -19.3875 C   0  0  0  0  0  0  0  0  0  0  0  0
   -3.6364    1.5096  -19.5696 C   0  0  0  0  0  0  0  0  0  0  0  0
   -3.2107    1.8315  -20.8293 C   0  0  0  0  0  0  0  0  0  0  0  0
   -3.8661    1.2899  -21.9590 C   0  0  0  0  0  0  0  0  0  0  0  0
   -4.9363    0.4428  -21.8069 C   0  0  0  0  0  0  0  0  0  0  0  0
   -5.3987    0.0903  -20.5114 C   0  0  0  0  0  0  0  0  0  0  0  0
   -5.4278    0.0180  -22.6768 H   0  0  0  0  0  0  0  0  0  0  0  0
   -3.5155    1.5393  -22.9566 H   0  0  0  0  0  0  0  0  0  0  0  0
   -2.3734    2.5089  -20.9701 H   0  0  0  0  0  0  0  0  0  0  0  0
   -3.1606    1.9295  -18.6873 H   0  0  0  0  0  0  0  0  0  0  0  0
   -4.6687    0.6559  -17.2212 H   0  0  0  0  0  0  0  0  0  0  0  0
   -7.6012   -1.8186  -18.7283 H   0  0  0  0  0  0  0  0  0  0  0  0
   -7.5266   -2.6229  -21.5347 C   0  0  0  0  0  0  0  0  0  0  0  0
   -6.8777   -3.5210  -21.0418 O   0  0  0  0  0  0  0  0  0  0  0  0
   -8.7166   -2.7758  -22.5063 C   0  0  1  0  0  0  0  0  0  0  0  0
   -9.9600   -3.1291  -21.6565 C   0  0  0  0  0  0  0  0  0  0  0  0
  -11.0733   -3.6652  -22.4302 N   0  0  0  0  0  0  0  0  0  0  0  0
  -12.4078   -3.6358  -21.8276 C   0  0  0  0  0  0  0  0  0  0  0  0
  -13.3698   -2.8182  -22.6105 C   0  0  0  0  0  0  0  0  0  0  0  0
  -13.9874   -3.3148  -23.6685 N   0  0  0  0  0  0  0  0  0  0  0  0
  -13.6594   -1.5091  -22.4221 N   0  0  0  0  0  0  0  0  0  0  0  0
  -14.4395   -1.1671  -23.4200 N   0  0  0  0  0  0  0  0  0  0  0  0
  -14.5970   -2.2505  -24.1447 N   0  0  0  0  0  0  0  0  0  0  0  0
  -15.2295   -2.3234  -25.4388 C   0  0  0  0  0  0  0  0  0  0  0  0
  -16.1927   -2.8228  -25.3528 H   0  0  0  0  0  0  0  0  0  0  0  0
  -15.3043   -1.3247  -25.8445 H   0  0  0  0  0  0  0  0  0  0  0  0
  -14.5838   -2.8993  -26.0939 H   0  0  0  0  0  0  0  0  0  0  0  0
  -12.3103   -3.2338  -20.8209 H   0  0  0  0  0  0  0  0  0  0  0  0
  -12.8057   -4.6526  -21.8380 H   0  0  0  0  0  0  0  0  0  0  0  0
  -10.8860   -4.5739  -23.4392 C   0  0  0  0  0  0  0  0  0  0  0  0
  -11.8006   -5.2651  -23.8586 O   0  0  0  0  0  0  0  0  0  0  0  0
   -9.5189   -4.6560  -24.0196 C   0  0  0  0  0  0  0  0  0  0  0  0
   -9.3121   -5.5668  -25.0607 C   0  0  0  0  0  0  0  0  0  0  0  0
   -8.0541   -5.7116  -25.6146 C   0  0  0  0  0  0  0  0  0  0  0  0
   -7.0177   -4.9512  -25.0849 C   0  0  0  0  0  0  0  0  0  0  0  0
   -5.7818   -5.1088  -25.5857 F   0  0  0  0  0  0  0  0  0  0  0  0
   -7.1990   -4.0460  -24.0590 C   0  0  0  0  0  0  0  0  0  0  0  0
   -8.4806   -3.8583  -23.5330 C   0  0  0  0  0  0  0  0  0  0  0  0
   -6.3470   -3.5134  -23.6531 H   0  0  0  0  0  0  0  0  0  0  0  0
   -7.8582   -6.4145  -26.4183 H   0  0  0  0  0  0  0  0  0  0  0  0
  -10.1470   -6.1674  -25.4143 H   0  0  0  0  0  0  0  0  0  0  0  0
  -10.3067   -2.2267  -21.1434 H   0  0  0  0  0  0  0  0  0  0  0  0
   -9.6618   -3.8345  -20.8715 H   0  0  0  0  0  0  0  0  0  0  0  0
   -9.0997   -0.1714  -21.3176 H   0  0  0  0  0  0  0  0  0  0  0  0
   -7.8229    0.5021  -22.3406 H   0  0  0  0  0  0  0  0  0  0  0  0
   -8.0075   -1.3303  -23.9209 H   0  0  0  0  0  0  0  0  0  0  0  0
  -10.8831   -0.9129  -22.9291 H   0  0  0  0  0  0  0  0  0  0  0  0
  -10.0902    0.0557  -24.1791 H   0  0  0  0  0  0  0  0  0  0  0  0
  -10.4366   -1.6610  -24.4631 H   0  0  0  0  0  0  0  0  0  0  0  0
  1  2  1  0
  2  3  1  0
  3  4  1  0
  4  5  1  0
  5  6  2  0
  6  7  1  0
  7  8  2  0
  8  9  1  0
  9 10  2  0
 10 11  1  0
 11 12  2  0
 12 13  1  0
 13 14  2  0
 13 15  1  0
 12 16  1  0
 11 17  1  0
 10 18  1  0
  8 19  1  0
  6 20  1  0
  4 21  1  0
 21 22  2  0
 21 23  1  0
 23 24  1  1
 24 25  1  0
 25 26  1  0
 26 27  1  0
 27 28  2  0
 28 29  1  0
 29 30  2  0
 30 31  1  0
 31 32  1  0
 32 33  1  0
 32 34  1  0
 32 35  1  0
 26 36  1  0
 26 37  1  0
 25 38  1  0
 38 39  2  0
 38 40  1  0
 40 41  2  0
 41 42  1  0
 42 43  2  0
 43 44  1  0
 43 45  1  0
 45 46  2  0
 45 47  1  0
 42 48  1  0
 41 49  1  0
 24 50  1  0
 24 51  1  0
  3 52  1  0
  3 53  1  0
  2 54  1  6
  1 55  1  0
  1 56  1  0
  1 57  1  0
 23  2  1  0
 31 27  1  0
 46 40  1  0
 14  5  1  0
 46 23  1  0
 14  9  1  0
M  END
>  <cnnaffinities>  (32) 
[6.94448]

>  <score>  (32) 
6.94448

>  <index>  (32) 
32

>  <Smiles>  (32) 
C([C@]1(C(N(c2c(nc(c3c(c(c(c(c23)[H])[H])[H])[H])[H])[H])C(=O)[C@]21C(N(C(c1nnnn1C([H])([H])[H])([H])[H])C(=O)c1c(c(c(F)c(c21)[H])[H])[H])([H])[H])([H])[H])[H])([H])([H])[H]

>  <h>  (32) 
<NA>

>  <Training>  (32) 
True

>  <Success>  (32) 
True

>  <enamine_searched>  (32) 
False

>  <enamine_id>  (32) 
nan

$$$$

     RDKit          3D

 66 70  0  0  0  0  0  0  0  0999 V2000
   -7.4507    3.3392  -21.7598 C   0  0  0  0  0  0  0  0  0  0  0  0
   -8.3685    2.8980  -22.7953 N   0  0  0  0  0  0  0  0  0  0  0  0
   -7.8308    2.1984  -23.8222 C   0  0  0  0  0  0  0  0  0  0  0  0
   -6.6192    2.0801  -23.9628 O   0  0  0  0  0  0  0  0  0  0  0  0
   -8.8058    1.5769  -24.8267 C   0  0  0  0  0  0  0  0  0  0  0  0
   -9.5072    0.4133  -24.3187 N   0  0  0  0  0  0  0  0  0  0  0  0
   -8.7727   -0.8294  -24.1767 C   0  0  0  0  0  0  0  0  0  0  0  0
   -9.1167   -1.5484  -22.8483 C   0  0  2  0  0  0  0  0  0  0  0  0
   -8.5486   -0.7469  -21.6438 C   0  0  0  0  0  0  0  0  0  0  0  0
   -9.0055    0.2635  -21.1520 O   0  0  0  0  0  0  0  0  0  0  0  0
   -7.4055   -1.3775  -21.2008 N   0  0  0  0  0  0  0  0  0  0  0  0
   -6.6053   -0.8077  -20.1739 C   0  0  0  0  0  0  0  0  0  0  0  0
   -6.9074   -1.0422  -18.8574 C   0  0  0  0  0  0  0  0  0  0  0  0
   -6.1978   -0.5506  -17.8136 N   0  0  0  0  0  0  0  0  0  0  0  0
   -5.1651    0.2084  -18.0811 C   0  0  0  0  0  0  0  0  0  0  0  0
   -4.7293    0.5317  -19.3960 C   0  0  0  0  0  0  0  0  0  0  0  0
   -3.6054    1.3683  -19.6422 C   0  0  0  0  0  0  0  0  0  0  0  0
   -3.2221    1.6632  -20.9208 C   0  0  0  0  0  0  0  0  0  0  0  0
   -3.9473    1.1356  -22.0133 C   0  0  0  0  0  0  0  0  0  0  0  0
   -5.0376    0.3245  -21.8013 C   0  0  0  0  0  0  0  0  0  0  0  0
   -5.4665    0.0034  -20.4863 C   0  0  0  0  0  0  0  0  0  0  0  0
   -5.5931   -0.0608  -22.6521 H   0  0  0  0  0  0  0  0  0  0  0  0
   -3.6556    1.3742  -23.0299 H   0  0  0  0  0  0  0  0  0  0  0  0
   -2.3713    2.3142  -21.1017 H   0  0  0  0  0  0  0  0  0  0  0  0
   -3.0783    1.7781  -18.7837 H   0  0  0  0  0  0  0  0  0  0  0  0
   -4.6180    0.6135  -17.2292 H   0  0  0  0  0  0  0  0  0  0  0  0
   -7.7580   -1.6665  -18.5963 H   0  0  0  0  0  0  0  0  0  0  0  0
   -7.0694   -2.5895  -21.9238 C   0  0  0  0  0  0  0  0  0  0  0  0
   -8.3546   -2.9010  -22.7206 C   0  0  2  0  0  0  0  0  0  0  0  0
   -8.0580   -3.6710  -24.0139 C   0  0  0  0  0  0  0  0  0  0  0  0
   -7.4880   -4.9323  -23.7268 O   0  0  0  0  0  0  0  0  0  0  0  0
   -8.4265   -6.0012  -23.6066 C   0  0  0  0  0  0  0  0  0  0  0  0
   -7.9266   -6.9300  -22.5112 C   0  0  0  0  0  0  0  0  0  0  0  0
   -7.8658   -6.3938  -21.5593 H   0  0  0  0  0  0  0  0  0  0  0  0
   -6.9317   -7.3103  -22.7580 H   0  0  0  0  0  0  0  0  0  0  0  0
   -8.6009   -7.7867  -22.4097 H   0  0  0  0  0  0  0  0  0  0  0  0
   -8.5636   -6.7369  -24.9374 C   0  0  0  0  0  0  0  0  0  0  0  0
   -8.9084   -6.0668  -25.7331 H   0  0  0  0  0  0  0  0  0  0  0  0
   -9.2835   -7.5591  -24.8455 H   0  0  0  0  0  0  0  0  0  0  0  0
   -7.5915   -7.1492  -25.2271 H   0  0  0  0  0  0  0  0  0  0  0  0
   -9.4110   -5.5831  -23.3274 H   0  0  0  0  0  0  0  0  0  0  0  0
   -8.9728   -3.7785  -24.6217 H   0  0  0  0  0  0  0  0  0  0  0  0
   -7.3143   -3.1309  -24.6165 H   0  0  0  0  0  0  0  0  0  0  0  0
   -8.9766   -3.5555  -22.1050 H   0  0  0  0  0  0  0  0  0  0  0  0
   -6.7966   -3.3976  -21.2345 H   0  0  0  0  0  0  0  0  0  0  0  0
   -6.2083   -2.4293  -22.5920 H   0  0  0  0  0  0  0  0  0  0  0  0
  -10.6305   -1.6189  -22.7399 C   0  0  0  0  0  0  0  0  0  0  0  0
  -11.2336   -2.5279  -21.8631 C   0  0  0  0  0  0  0  0  0  0  0  0
  -12.6096   -2.5627  -21.7367 C   0  0  0  0  0  0  0  0  0  0  0  0
  -13.3469   -3.6868  -20.6327 Cl  0  0  0  0  0  0  0  0  0  0  0  0
  -13.4288   -1.6965  -22.4596 C   0  0  0  0  0  0  0  0  0  0  0  0
  -12.8411   -0.7579  -23.2831 C   0  0  0  0  0  0  0  0  0  0  0  0
  -11.4532   -0.6954  -23.4027 C   0  0  0  0  0  0  0  0  0  0  0  0
  -10.8701    0.4418  -24.1872 C   0  0  0  0  0  0  0  0  0  0  0  0
  -11.5669    1.3399  -24.6421 O   0  0  0  0  0  0  0  0  0  0  0  0
  -13.4252   -0.0299  -23.8376 H   0  0  0  0  0  0  0  0  0  0  0  0
  -14.5047   -1.7508  -22.3479 H   0  0  0  0  0  0  0  0  0  0  0  0
  -10.6357   -3.1924  -21.2515 H   0  0  0  0  0  0  0  0  0  0  0  0
   -8.9970   -1.5072  -25.0168 H   0  0  0  0  0  0  0  0  0  0  0  0
   -7.7084   -0.5743  -24.1952 H   0  0  0  0  0  0  0  0  0  0  0  0
   -9.5905    2.2769  -25.1241 H   0  0  0  0  0  0  0  0  0  0  0  0
   -8.1908    1.3143  -25.6969 H   0  0  0  0  0  0  0  0  0  0  0  0
   -9.3593    2.8130  -22.6101 H   0  0  0  0  0  0  0  0  0  0  0  0
   -6.7732    4.1073  -22.1505 H   0  0  0  0  0  0  0  0  0  0  0  0
   -6.8416    2.4851  -21.4246 H   0  0  0  0  0  0  0  0  0  0  0  0
   -8.0184    3.7656  -20.9345 H   0  0  0  0  0  0  0  0  0  0  0  0
  1  2  1  0
  2  3  1  0
  3  4  2  0
  3  5  1  0
  5  6  1  0
  6  7  1  0
  8  7  1  6
  8  9  1  0
  9 10  2  0
  9 11  1  0
 11 12  1  0
 12 13  2  0
 13 14  1  0
 14 15  2  0
 15 16  1  0
 16 17  2  0
 17 18  1  0
 18 19  2  0
 19 20  1  0
 20 21  2  0
 20 22  1  0
 19 23  1  0
 18 24  1  0
 17 25  1  0
 15 26  1  0
 13 27  1  0
 11 28  1  0
 28 29  1  0
 29 30  1  0
 30 31  1  0
 31 32  1  0
 32 33  1  0
 33 34  1  0
 33 35  1  0
 33 36  1  0
 32 37  1  0
 37 38  1  0
 37 39  1  0
 37 40  1  0
 32 41  1  0
 30 42  1  0
 30 43  1  0
 29 44  1  1
 28 45  1  0
 28 46  1  0
  8 47  1  0
 47 48  2  0
 48 49  1  0
 49 50  1  0
 49 51  2  0
 51 52  1  0
 52 53  2  0
 53 54  1  0
 54 55  2  0
 52 56  1  0
 51 57  1  0
 48 58  1  0
  7 59  1  0
  7 60  1  0
  5 61  1  0
  5 62  1  0
  2 63  1  0
  1 64  1  0
  1 65  1  0
  1 66  1  0
 54  6  1  0
 29  8  1  0
 53 47  1  0
 21 12  1  0
 21 16  1  0
M  END
>  <cnnaffinities>  (33) 
[6.3627, 6.38169, 6.49661, 6.6459, 6.57279, 6.38923]

>  <score>  (33) 
6.3627

>  <index>  (33) 
34

>  <Smiles>  (33) 
C(N(C(=O)C(N1C([C@@]2(C(=O)N(c3c(nc(c4c(c(c(c(c34)[H])[H])[H])[H])[H])[H])C([C@@]2(C(OC(C([H])([H])[H])(C([H])([H])[H])[H])([H])[H])[H])([H])[H])c2c(c(Cl)c(c(c2C1=O)[H])[H])[H])([H])[H])([H])[H])[H])([H])([H])[H]

>  <h>  (33) 
<NA>

>  <Training>  (33) 
True

>  <Success>  (33) 
True

>  <enamine_searched>  (33) 
False

>  <enamine_id>  (33) 
nan

$$$$

     RDKit          3D

 40 42  0  0  0  0  0  0  0  0999 V2000
   -9.1438   -1.8054  -22.6729 O   0  0  0  0  0  0  0  0  0  0  0  0
   -8.2368   -1.0345  -22.3778 C   0  0  0  0  0  0  0  0  0  0  0  0
   -6.8558   -1.5440  -21.9800 C   0  0  0  0  0  0  0  0  0  0  0  0
   -6.3028   -0.8643  -20.7416 C   0  0  0  0  0  0  0  0  0  0  0  0
   -6.9491   -1.0284  -19.5404 C   0  0  0  0  0  0  0  0  0  0  0  0
   -6.5683   -0.4711  -18.3663 N   0  0  0  0  0  0  0  0  0  0  0  0
   -5.5085    0.2997  -18.3804 C   0  0  0  0  0  0  0  0  0  0  0  0
   -4.7388    0.5719  -19.5417 C   0  0  0  0  0  0  0  0  0  0  0  0
   -3.6152    1.4395  -19.5146 C   0  0  0  0  0  0  0  0  0  0  0  0
   -2.9281    1.7320  -20.6620 C   0  0  0  0  0  0  0  0  0  0  0  0
   -3.3311    1.1549  -21.8830 C   0  0  0  0  0  0  0  0  0  0  0  0
   -4.3990    0.2842  -21.9263 C   0  0  0  0  0  0  0  0  0  0  0  0
   -5.1406   -0.0313  -20.7607 C   0  0  0  0  0  0  0  0  0  0  0  0
   -4.6831   -0.1466  -22.8845 H   0  0  0  0  0  0  0  0  0  0  0  0
   -2.7927    1.3929  -22.7976 H   0  0  0  0  0  0  0  0  0  0  0  0
   -2.0840    2.4155  -20.6450 H   0  0  0  0  0  0  0  0  0  0  0  0
   -3.3276    1.8858  -18.5655 H   0  0  0  0  0  0  0  0  0  0  0  0
   -5.2118    0.7583  -17.4379 H   0  0  0  0  0  0  0  0  0  0  0  0
   -7.8361   -1.6633  -19.4830 H   0  0  0  0  0  0  0  0  0  0  0  0
   -6.9709   -2.6212  -21.8042 H   0  0  0  0  0  0  0  0  0  0  0  0
   -6.1678   -1.4407  -22.8248 H   0  0  0  0  0  0  0  0  0  0  0  0
   -8.3310    0.3313  -22.3407 N   0  0  0  0  0  0  0  0  0  0  0  0
   -9.5309    0.9445  -21.7159 C   0  0  0  0  0  0  0  0  0  0  0  0
   -9.5148    1.0982  -21.8895 C   0  0  0  0  0  0  0  0  0  0  0  0
   -9.1947    2.8792  -23.6117 C   0  0  0  0  0  0  0  0  0  0  0  0
   -8.4982    5.4852  -22.9537 C   0  0  0  0  0  0  0  0  0  0  0  0
   -7.5870    6.0019  -23.7487 F   0  0  0  0  0  0  0  0  0  0  0  0
   -9.5176    6.3052  -22.8010 F   0  0  0  0  0  0  0  0  0  0  0  0
   -7.9821    5.1533  -21.7904 F   0  0  0  0  0  0  0  0  0  0  0  0
   -7.9188    2.5193  -23.5662 C   0  0  0  0  0  0  0  0  0  0  0  0
   -7.3603    1.2165  -23.0572 C   0  0  0  0  0  0  0  0  0  0  0  0
   -6.9415    0.6610  -23.8962 H   0  0  0  0  0  0  0  0  0  0  0  0
   -6.5436    1.4723  -22.3722 H   0  0  0  0  0  0  0  0  0  0  0  0
   -9.9662    2.1320  -23.5484 H   0  0  0  0  0  0  0  0  0  0  0  0
   -7.1360    3.1918  -23.9036 H   0  0  0  0  0  0  0  0  0  0  0  0
   -9.4354    3.9340  -23.7439 H   0  0  0  0  0  0  0  0  0  0  0  0
  -10.4315    1.8644  -21.6259 H   0  0  0  0  0  0  0  0  0  0  0  0
   -8.7941    1.9412  -21.3613 H   0  0  0  0  0  0  0  0  0  0  0  0
   -9.8605    0.0685  -20.4697 H   0  0  0  0  0  0  0  0  0  0  0  0
  -10.2827    0.5989  -22.6969 H   0  0  0  0  0  0  0  0  0  0  0  0
  1  2  2  0
  2  3  1  0
  3  4  1  0
  4  5  2  0
  5  6  1  0
  6  7  2  0
  7  8  1  0
  8  9  2  0
  9 10  1  0
 10 11  2  0
 11 12  1  0
 12 13  2  0
 12 14  1  0
 11 15  1  0
 10 16  1  0
  9 17  1  0
  7 18  1  0
  5 19  1  0
  3 20  1  0
  3 21  1  0
  2 22  1  0
 22 23  1  0
 23 24  1  0
 24 25  1  0
 25 26  1  0
 26 27  1  0
 26 28  1  0
 26 29  1  0
 25 30  1  0
 30 31  1  0
 31 32  1  0
 31 33  1  0
 30 34  1  0
 30 35  1  0
 25 36  1  0
 24 37  1  0
 24 38  1  0
 23 39  1  0
 23 40  1  0
 13  4  1  0
 31 22  1  0
 13  8  1  0
M  END
>  <cnnaffinities>  (34) 
[4.81657]

>  <score>  (34) 
4.81657

>  <index>  (34) 
35

>  <Smiles>  (34) 
O=C(C(c1c(nc(c2c(c(c(c(c12)[H])[H])[H])[H])[H])[H])([H])[H])N1C(C(C(C(F)(F)F)(C(C1([H])[H])([H])[H])[H])([H])[H])([H])[H]

>  <h>  (34) 
<NA>

>  <Training>  (34) 
True

>  <Success>  (34) 
True

>  <enamine_searched>  (34) 
False

>  <enamine_id>  (34) 
nan

$$$$

     RDKit          3D

 47 50  0  0  0  0  0  0  0  0999 V2000
   -8.6866    0.6155  -21.3604 O   0  0  0  0  0  0  0  0  0  0  0  0
   -8.3366   -0.3830  -21.9604 C   0  0  0  0  0  0  0  0  0  0  0  0
   -7.4340   -1.4322  -21.2731 C   0  0  0  0  0  0  0  0  0  0  0  0
   -6.5775   -0.8315  -20.1815 C   0  0  0  0  0  0  0  0  0  0  0  0
   -6.8774   -1.0391  -18.8615 C   0  0  0  0  0  0  0  0  0  0  0  0
   -6.1881   -0.5355  -17.8033 N   0  0  0  0  0  0  0  0  0  0  0  0
   -5.1552    0.2238  -18.0673 C   0  0  0  0  0  0  0  0  0  0  0  0
   -4.7219    0.5345  -19.3832 C   0  0  0  0  0  0  0  0  0  0  0  0
   -3.5959    1.3635  -19.6229 C   0  0  0  0  0  0  0  0  0  0  0  0
   -3.2064    1.6570  -20.9012 C   0  0  0  0  0  0  0  0  0  0  0  0
   -3.9322    1.1299  -21.9924 C   0  0  0  0  0  0  0  0  0  0  0  0
   -5.0230    0.3220  -21.7871 C   0  0  0  0  0  0  0  0  0  0  0  0
   -5.4525   -0.0014  -20.4735 C   0  0  0  0  0  0  0  0  0  0  0  0
   -5.5628   -0.0735  -22.6432 H   0  0  0  0  0  0  0  0  0  0  0  0
   -3.6181    1.3621  -23.0048 H   0  0  0  0  0  0  0  0  0  0  0  0
   -2.3500    2.2997  -21.0868 H   0  0  0  0  0  0  0  0  0  0  0  0
   -3.0614    1.7749  -18.7699 H   0  0  0  0  0  0  0  0  0  0  0  0
   -4.6029    0.6275  -17.2157 H   0  0  0  0  0  0  0  0  0  0  0  0
   -7.7282   -1.6583  -18.5827 H   0  0  0  0  0  0  0  0  0  0  0  0
   -8.0861   -2.1985  -20.8320 H   0  0  0  0  0  0  0  0  0  0  0  0
   -6.8075   -1.9517  -22.0110 H   0  0  0  0  0  0  0  0  0  0  0  0
   -8.6807   -0.6045  -23.2871 N   0  0  0  0  0  0  0  0  0  0  0  0
   -9.1594    0.5341  -24.0697 C   0  0  0  0  0  0  0  0  0  0  0  0
  -10.6772    0.5441  -24.2197 C   0  0  0  0  0  0  0  0  0  0  0  0
  -11.1725   -0.7913  -24.7657 C   0  0  0  0  0  0  0  0  0  0  0  0
  -10.6202   -1.9447  -23.9322 C   0  0  0  0  0  0  0  0  0  0  0  0
   -9.0817   -1.9141  -23.8220 C   0  0  1  0  0  0  0  0  0  0  0  0
   -8.3320   -2.2537  -25.1139 C   0  0  0  0  0  0  0  0  0  0  0  0
   -6.9748   -1.9274  -25.2105 C   0  0  0  0  0  0  0  0  0  0  0  0
   -6.2259   -2.2416  -26.3380 C   0  0  0  0  0  0  0  0  0  0  0  0
   -6.8156   -2.9048  -27.4072 C   0  0  0  0  0  0  0  0  0  0  0  0
   -8.1572   -3.2567  -27.3203 C   0  0  0  0  0  0  0  0  0  0  0  0
   -8.9058   -2.9414  -26.1872 C   0  0  0  0  0  0  0  0  0  0  0  0
   -9.9463   -3.2521  -26.1591 H   0  0  0  0  0  0  0  0  0  0  0  0
   -8.6291   -3.7883  -28.1421 H   0  0  0  0  0  0  0  0  0  0  0  0
   -6.2351   -3.1500  -28.2927 H   0  0  0  0  0  0  0  0  0  0  0  0
   -5.1767   -1.9647  -26.3802 H   0  0  0  0  0  0  0  0  0  0  0  0
   -6.4797   -1.4149  -24.3907 H   0  0  0  0  0  0  0  0  0  0  0  0
   -8.7906   -2.6571  -23.0737 H   0  0  0  0  0  0  0  0  0  0  0  0
  -10.9598   -2.9117  -24.3150 H   0  0  0  0  0  0  0  0  0  0  0  0
  -11.0258   -1.8742  -22.9169 H   0  0  0  0  0  0  0  0  0  0  0  0
  -10.8489   -0.9073  -25.8064 H   0  0  0  0  0  0  0  0  0  0  0  0
  -12.2678   -0.8162  -24.7720 H   0  0  0  0  0  0  0  0  0  0  0  0
  -10.9890    1.3651  -24.8781 H   0  0  0  0  0  0  0  0  0  0  0  0
  -11.1160    0.7409  -23.2369 H   0  0  0  0  0  0  0  0  0  0  0  0
   -8.8054    1.4513  -23.5993 H   0  0  0  0  0  0  0  0  0  0  0  0
   -8.7005    0.4722  -25.0636 H   0  0  0  0  0  0  0  0  0  0  0  0
  1  2  2  0
  2  3  1  0
  3  4  1  0
  4  5  2  0
  5  6  1  0
  6  7  2  0
  7  8  1  0
  8  9  2  0
  9 10  1  0
 10 11  2  0
 11 12  1  0
 12 13  2  0
 12 14  1  0
 11 15  1  0
 10 16  1  0
  9 17  1  0
  7 18  1  0
  5 19  1  0
  3 20  1  0
  3 21  1  0
  2 22  1  0
 22 23  1  0
 23 24  1  0
 24 25  1  0
 25 26  1  0
 26 27  1  0
 27 28  1  0
 28 29  2  0
 29 30  1  0
 30 31  2  0
 31 32  1  0
 32 33  2  0
 33 34  1  0
 32 35  1  0
 31 36  1  0
 30 37  1  0
 29 38  1  0
 27 39  1  1
 26 40  1  0
 26 41  1  0
 25 42  1  0
 25 43  1  0
 24 44  1  0
 24 45  1  0
 23 46  1  0
 23 47  1  0
 13  4  1  0
 27 22  1  0
 33 28  1  0
 13  8  1  0
M  END
>  <cnnaffinities>  (35) 
[5.23534, 5.23528, 5.65054, 5.6488, 5.35694, 5.35744]

>  <score>  (35) 
5.23534

>  <index>  (35) 
36

>  <Smiles>  (35) 
O=C(C(c1c(nc(c2c(c(c(c(c12)[H])[H])[H])[H])[H])[H])([H])[H])N1C(C(C(C([C@]1(c1c(c(c(c(c1[H])[H])[H])[H])[H])[H])([H])[H])([H])[H])([H])[H])([H])[H]

>  <h>  (35) 
<NA>

>  <Training>  (35) 
True

>  <Success>  (35) 
True

>  <enamine_searched>  (35) 
False

>  <enamine_id>  (35) 
nan

$$$$

     RDKit          3D

 56 60  0  0  0  0  0  0  0  0999 V2000
  -14.4781   -1.5868  -23.7395 C   0  0  0  0  0  0  0  0  0  0  0  0
  -13.7406   -2.7444  -23.2816 N   0  0  0  0  0  0  0  0  0  0  0  0
  -13.3534   -2.7968  -21.9819 C   0  0  0  0  0  0  0  0  0  0  0  0
  -13.7094   -1.9706  -21.1589 O   0  0  0  0  0  0  0  0  0  0  0  0
  -12.4522   -3.9708  -21.6355 C   0  0  0  0  0  0  0  0  0  0  0  0
  -11.1300   -3.8953  -22.2345 N   0  0  0  0  0  0  0  0  0  0  0  0
  -10.0060   -3.3751  -21.4593 C   0  0  0  0  0  0  0  0  0  0  0  0
   -8.8111   -2.9177  -22.3381 C   0  0  2  0  0  0  0  0  0  0  0  0
   -7.5749   -2.7016  -21.4457 C   0  0  0  0  0  0  0  0  0  0  0  0
   -6.8355   -3.5627  -21.0124 O   0  0  0  0  0  0  0  0  0  0  0  0
   -7.4063   -1.3488  -21.2355 N   0  0  0  0  0  0  0  0  0  0  0  0
   -6.5852   -0.8504  -20.1938 C   0  0  0  0  0  0  0  0  0  0  0  0
   -6.8895   -1.0999  -18.8794 C   0  0  0  0  0  0  0  0  0  0  0  0
   -6.2139   -0.5733  -17.8278 N   0  0  0  0  0  0  0  0  0  0  0  0
   -5.1979    0.2096  -18.0916 C   0  0  0  0  0  0  0  0  0  0  0  0
   -4.7537    0.5212  -19.4081 C   0  0  0  0  0  0  0  0  0  0  0  0
   -3.6278    1.3506  -19.6401 C   0  0  0  0  0  0  0  0  0  0  0  0
   -3.2230    1.6195  -20.9181 C   0  0  0  0  0  0  0  0  0  0  0  0
   -3.9258    1.0787  -22.0174 C   0  0  0  0  0  0  0  0  0  0  0  0
   -5.0195    0.2727  -21.8193 C   0  0  0  0  0  0  0  0  0  0  0  0
   -5.4648   -0.0180  -20.5023 C   0  0  0  0  0  0  0  0  0  0  0  0
   -5.5395   -0.1565  -22.6695 H   0  0  0  0  0  0  0  0  0  0  0  0
   -3.5924    1.2977  -23.0273 H   0  0  0  0  0  0  0  0  0  0  0  0
   -2.3642    2.2582  -21.0960 H   0  0  0  0  0  0  0  0  0  0  0  0
   -3.1093    1.7668  -18.7807 H   0  0  0  0  0  0  0  0  0  0  0  0
   -4.6575    0.6331  -17.2435 H   0  0  0  0  0  0  0  0  0  0  0  0
   -7.7306   -1.7429  -18.6308 H   0  0  0  0  0  0  0  0  0  0  0  0
   -8.3974   -0.5250  -21.9069 C   0  0  0  0  0  0  0  0  0  0  0  0
   -9.0222   -1.4798  -22.9368 C   0  0  2  0  0  0  0  0  0  0  0  0
  -10.4653   -1.1345  -23.2712 C   0  0  0  0  0  0  0  0  0  0  0  0
  -10.8879   -1.8967  -23.9300 H   0  0  0  0  0  0  0  0  0  0  0  0
  -10.5415   -0.1636  -23.7651 H   0  0  0  0  0  0  0  0  0  0  0  0
  -11.0724   -1.1051  -22.3595 H   0  0  0  0  0  0  0  0  0  0  0  0
   -8.4128   -1.4435  -23.8525 H   0  0  0  0  0  0  0  0  0  0  0  0
   -9.1500   -0.1547  -21.1919 H   0  0  0  0  0  0  0  0  0  0  0  0
   -7.9270    0.3460  -22.3786 H   0  0  0  0  0  0  0  0  0  0  0  0
   -8.5409   -3.9760  -23.3811 C   0  0  0  0  0  0  0  0  0  0  0  0
   -7.2705   -4.1136  -23.9484 C   0  0  0  0  0  0  0  0  0  0  0  0
   -7.0375   -5.0484  -24.9430 C   0  0  0  0  0  0  0  0  0  0  0  0
   -8.0591   -5.8934  -25.3772 C   0  0  0  0  0  0  0  0  0  0  0  0
   -9.3217   -5.7658  -24.8271 C   0  0  0  0  0  0  0  0  0  0  0  0
   -9.5699   -4.7857  -23.8666 C   0  0  0  0  0  0  0  0  0  0  0  0
  -10.9685   -4.5758  -23.4040 C   0  0  0  0  0  0  0  0  0  0  0  0
  -11.9382   -4.9722  -24.0587 O   0  0  0  0  0  0  0  0  0  0  0  0
  -10.1372   -6.4154  -25.1280 H   0  0  0  0  0  0  0  0  0  0  0  0
   -7.8710   -6.6295  -26.1550 H   0  0  0  0  0  0  0  0  0  0  0  0
   -6.0579   -5.1075  -25.4027 H   0  0  0  0  0  0  0  0  0  0  0  0
   -6.4526   -3.4899  -23.5993 H   0  0  0  0  0  0  0  0  0  0  0  0
  -10.3456   -2.5053  -20.8831 H   0  0  0  0  0  0  0  0  0  0  0  0
   -9.6769   -4.1570  -20.7694 H   0  0  0  0  0  0  0  0  0  0  0  0
  -12.4063   -4.0985  -20.5525 H   0  0  0  0  0  0  0  0  0  0  0  0
  -12.9344   -4.8337  -22.0864 H   0  0  0  0  0  0  0  0  0  0  0  0
  -13.4662   -3.4918  -23.9067 H   0  0  0  0  0  0  0  0  0  0  0  0
  -13.8539   -0.6849  -23.7317 H   0  0  0  0  0  0  0  0  0  0  0  0
  -15.3265   -1.4038  -23.0771 H   0  0  0  0  0  0  0  0  0  0  0  0
  -14.8427   -1.7451  -24.7554 H   0  0  0  0  0  0  0  0  0  0  0  0
  1  2  1  0
  2  3  1  0
  3  4  2  0
  3  5  1  0
  5  6  1  0
  6  7  1  0
  8  7  1  1
  8  9  1  0
  9 10  2  0
  9 11  1  0
 11 12  1  0
 12 13  2  0
 13 14  1  0
 14 15  2  0
 15 16  1  0
 16 17  2  0
 17 18  1  0
 18 19  2  0
 19 20  1  0
 20 21  2  0
 20 22  1  0
 19 23  1  0
 18 24  1  0
 17 25  1  0
 15 26  1  0
 13 27  1  0
 11 28  1  0
 28 29  1  0
 29 30  1  0
 30 31  1  0
 30 32  1  0
 30 33  1  0
 29 34  1  6
 28 35  1  0
 28 36  1  0
  8 37  1  0
 37 38  2  0
 38 39  1  0
 39 40  2  0
 40 41  1  0
 41 42  2  0
 42 43  1  0
 43 44  2  0
 41 45  1  0
 40 46  1  0
 39 47  1  0
 38 48  1  0
  7 49  1  0
  7 50  1  0
  5 51  1  0
  5 52  1  0
  2 53  1  0
  1 54  1  0
  1 55  1  0
  1 56  1  0
 43  6  1  0
 29  8  1  0
 42 37  1  0
 21 12  1  0
 21 16  1  0
M  END
>  <cnnaffinities>  (36) 
[6.40408]

>  <score>  (36) 
6.40408

>  <index>  (36) 
37

>  <Smiles>  (36) 
C(N(C(=O)C(N1C([C@@]2(C(=O)N(c3c(nc(c4c(c(c(c(c34)[H])[H])[H])[H])[H])[H])C([C@@]2(C([H])([H])[H])[H])([H])[H])c2c(c(c(c(c2C1=O)[H])[H])[H])[H])([H])[H])([H])[H])[H])([H])([H])[H]

>  <h>  (36) 
<NA>

>  <Training>  (36) 
True

>  <Success>  (36) 
True

>  <enamine_searched>  (36) 
False

>  <enamine_id>  (36) 
nan

$$$$

     RDKit          3D

 46 48  0  0  0  0  0  0  0  0999 V2000
   -8.1584   -4.6947  -26.5428 C   0  0  0  0  0  0  0  0  0  0  0  0
   -8.6538   -4.9599  -25.1190 C   0  0  1  0  0  0  0  0  0  0  0  0
   -7.5894   -5.5252  -24.1818 C   0  0  0  0  0  0  0  0  0  0  0  0
   -6.6146   -4.5188  -23.5536 C   0  0  1  0  0  0  0  0  0  0  0  0
   -5.4117   -4.1595  -24.4400 C   0  0  0  0  0  0  0  0  0  0  0  0
   -4.6074   -3.7377  -23.8292 H   0  0  0  0  0  0  0  0  0  0  0  0
   -5.6631   -3.4317  -25.2145 H   0  0  0  0  0  0  0  0  0  0  0  0
   -5.0162   -5.0546  -24.9376 H   0  0  0  0  0  0  0  0  0  0  0  0
   -7.3241   -3.3377  -23.0138 N   0  0  0  0  0  0  0  0  0  0  0  0
   -6.7228   -2.7038  -21.9370 C   0  0  0  0  0  0  0  0  0  0  0  0
   -5.6780   -3.1214  -21.4634 O   0  0  0  0  0  0  0  0  0  0  0  0
   -7.4071   -1.4706  -21.2815 C   0  0  0  0  0  0  0  0  0  0  0  0
   -6.5778   -0.8345  -20.1863 C   0  0  0  0  0  0  0  0  0  0  0  0
   -6.8716   -1.0478  -18.8650 C   0  0  0  0  0  0  0  0  0  0  0  0
   -6.1846   -0.5422  -17.8054 N   0  0  0  0  0  0  0  0  0  0  0  0
   -5.1563    0.2239  -18.0680 C   0  0  0  0  0  0  0  0  0  0  0  0
   -4.7198    0.5311  -19.3830 C   0  0  0  0  0  0  0  0  0  0  0  0
   -3.5917    1.3570  -19.6236 C   0  0  0  0  0  0  0  0  0  0  0  0
   -3.1917    1.6355  -20.9020 C   0  0  0  0  0  0  0  0  0  0  0  0
   -3.9076    1.0963  -21.9928 C   0  0  0  0  0  0  0  0  0  0  0  0
   -5.0012    0.2915  -21.7863 C   0  0  0  0  0  0  0  0  0  0  0  0
   -5.4450   -0.0134  -20.4741 C   0  0  0  0  0  0  0  0  0  0  0  0
   -5.5314   -0.1234  -22.6380 H   0  0  0  0  0  0  0  0  0  0  0  0
   -3.5819    1.3143  -23.0052 H   0  0  0  0  0  0  0  0  0  0  0  0
   -2.3308    2.2728  -21.0875 H   0  0  0  0  0  0  0  0  0  0  0  0
   -3.0594    1.7735  -18.7711 H   0  0  0  0  0  0  0  0  0  0  0  0
   -4.6035    0.6286  -17.2165 H   0  0  0  0  0  0  0  0  0  0  0  0
   -7.7195   -1.6705  -18.5848 H   0  0  0  0  0  0  0  0  0  0  0  0
   -7.6712   -0.7134  -22.0317 H   0  0  0  0  0  0  0  0  0  0  0  0
   -8.3590   -1.8080  -20.8476 H   0  0  0  0  0  0  0  0  0  0  0  0
   -8.4099   -2.7192  -23.7937 C   0  0  1  0  0  0  0  0  0  0  0  0
   -7.9394   -1.6591  -24.8007 C   0  0  0  0  0  0  0  0  0  0  0  0
   -7.4432   -2.0881  -25.6754 H   0  0  0  0  0  0  0  0  0  0  0  0
   -8.7984   -1.0844  -25.1701 H   0  0  0  0  0  0  0  0  0  0  0  0
   -7.2436   -0.9499  -24.3424 H   0  0  0  0  0  0  0  0  0  0  0  0
   -9.3296   -3.7773  -24.4251 C   0  0  0  0  0  0  0  0  0  0  0  0
   -9.9791   -4.1701  -23.6356 H   0  0  0  0  0  0  0  0  0  0  0  0
   -9.9962   -3.2779  -25.1360 H   0  0  0  0  0  0  0  0  0  0  0  0
   -9.0329   -2.1948  -23.0633 H   0  0  0  0  0  0  0  0  0  0  0  0
   -6.1942   -5.0186  -22.6795 H   0  0  0  0  0  0  0  0  0  0  0  0
   -8.0927   -6.0556  -23.3658 H   0  0  0  0  0  0  0  0  0  0  0  0
   -7.0112   -6.2884  -24.7145 H   0  0  0  0  0  0  0  0  0  0  0  0
   -9.4276   -5.7357  -25.2236 H   0  0  0  0  0  0  0  0  0  0  0  0
   -7.9241   -5.6405  -27.0468 H   0  0  0  0  0  0  0  0  0  0  0  0
   -8.9308   -4.1943  -27.1382 H   0  0  0  0  0  0  0  0  0  0  0  0
   -7.2551   -4.0807  -26.5815 H   0  0  0  0  0  0  0  0  0  0  0  0
  1  2  1  0
  2  3  1  0
  3  4  1  0
  4  5  1  0
  5  6  1  0
  5  7  1  0
  5  8  1  0
  4  9  1  0
  9 10  1  0
 10 11  2  0
 10 12  1  0
 12 13  1  0
 13 14  2  0
 14 15  1  0
 15 16  2  0
 16 17  1  0
 17 18  2  0
 18 19  1  0
 19 20  2  0
 20 21  1  0
 21 22  2  0
 21 23  1  0
 20 24  1  0
 19 25  1  0
 18 26  1  0
 16 27  1  0
 14 28  1  0
 12 29  1  0
 12 30  1  0
  9 31  1  0
 31 32  1  0
 32 33  1  0
 32 34  1  0
 32 35  1  0
 31 36  1  0
 36 37  1  0
 36 38  1  0
 31 39  1  1
  4 40  1  1
  3 41  1  0
  3 42  1  0
  2 43  1  6
  1 44  1  0
  1 45  1  0
  1 46  1  0
 36  2  1  0
 22 13  1  0
 22 17  1  0
M  END
>  <cnnaffinities>  (37) 
[5.31199]

>  <score>  (37) 
5.31199

>  <index>  (37) 
38

>  <Smiles>  (37) 
C([C@]1(C([C@@](C([H])([H])[H])(N(C(=O)C(c2c(nc(c3c(c(c(c(c23)[H])[H])[H])[H])[H])[H])([H])[H])[C@@](C([H])([H])[H])(C1([H])[H])[H])[H])([H])[H])[H])([H])([H])[H]

>  <h>  (37) 
<NA>

>  <Training>  (37) 
True

>  <Success>  (37) 
True

>  <enamine_searched>  (37) 
False

>  <enamine_id>  (37) 
nan

$$$$

     RDKit          3D

 40 44  0  0  0  0  0  0  0  0999 V2000
   -5.1684   -0.4460  -25.7334 C   0  0  0  0  0  0  0  0  0  0  0  0
   -6.6429   -0.3498  -25.3745 C   0  0  0  0  0  0  0  0  0  0  0  0
   -7.2426    0.7168  -25.3710 O   0  0  0  0  0  0  0  0  0  0  0  0
   -7.2808   -1.5223  -25.0862 N   0  0  0  0  0  0  0  0  0  0  0  0
   -6.6517   -2.8107  -24.7275 C   0  0  0  0  0  0  0  0  0  0  0  0
   -7.8286   -3.5189  -24.0266 C   0  0  2  0  0  0  0  0  0  0  0  0
   -9.0228   -2.9962  -24.8403 C   0  0  0  0  0  0  0  0  0  0  0  0
   -8.6700   -1.5256  -24.5543 C   0  0  1  0  0  0  0  0  0  0  0  0
   -8.5540   -1.5731  -23.0871 C   0  0  0  0  0  0  0  0  0  0  0  0
   -8.1585   -0.6215  -22.0904 C   0  0  0  0  0  0  0  0  0  0  0  0
   -8.3509    0.5659  -21.9945 O   0  0  0  0  0  1  0  0  0  0  0  0
   -7.3916   -1.3985  -21.1850 N   0  0  0  0  0  0  0  0  0  0  0  0
   -6.5771   -0.8291  -20.1722 C   0  0  0  0  0  0  0  0  0  0  0  0
   -6.8875   -1.0591  -18.8584 C   0  0  0  0  0  0  0  0  0  0  0  0
   -6.1906   -0.5447  -17.8175 N   0  0  0  0  0  0  0  0  0  0  0  0
   -5.1628    0.2173  -18.0850 C   0  0  0  0  0  0  0  0  0  0  0  0
   -4.7217    0.5290  -19.4001 C   0  0  0  0  0  0  0  0  0  0  0  0
   -3.5882    1.3540  -19.6328 C   0  0  0  0  0  0  0  0  0  0  0  0
   -3.1779    1.6274  -20.9081 C   0  0  0  0  0  0  0  0  0  0  0  0
   -3.8857    1.0769  -22.0016 C   0  0  0  0  0  0  0  0  0  0  0  0
   -4.9782    0.2719  -21.8038 C   0  0  0  0  0  0  0  0  0  0  0  0
   -5.4426   -0.0128  -20.4890 C   0  0  0  0  0  0  0  0  0  0  0  0
   -5.4957   -0.1454  -22.6654 H   0  0  0  0  0  0  0  0  0  0  0  0
   -3.5611    1.2943  -23.0150 H   0  0  0  0  0  0  0  0  0  0  0  0
   -2.3195    2.2677  -21.0912 H   0  0  0  0  0  0  0  0  0  0  0  0
   -3.0725    1.7693  -18.7711 H   0  0  0  0  0  0  0  0  0  0  0  0
   -4.6217    0.6231  -17.2293 H   0  0  0  0  0  0  0  0  0  0  0  0
   -7.7375   -1.6813  -18.5963 H   0  0  0  0  0  0  0  0  0  0  0  0
   -7.2467   -2.7210  -21.6275 C   0  0  0  0  0  0  0  0  0  0  0  0
   -6.5210   -3.5641  -21.1623 O   0  0  0  0  0  0  0  0  0  0  0  0
   -8.0671   -2.8076  -22.7487 N   0  0  0  0  0  0  0  0  0  0  0  0
   -9.2564   -0.7112  -24.9817 H   0  0  0  0  0  0  0  0  0  0  0  0
   -8.9631   -3.2425  -25.9050 H   0  0  0  0  0  0  0  0  0  0  0  0
   -9.9838   -3.3019  -24.4280 H   0  0  0  0  0  0  0  0  0  0  0  0
   -7.7199   -4.5861  -23.8794 H   0  0  0  0  0  0  0  0  0  0  0  0
   -5.8050   -2.7076  -24.0364 H   0  0  0  0  0  0  0  0  0  0  0  0
   -6.3308   -3.3507  -25.6223 H   0  0  0  0  0  0  0  0  0  0  0  0
   -4.9793   -1.1838  -26.5225 H   0  0  0  0  0  0  0  0  0  0  0  0
   -4.8801    0.5473  -26.0773 H   0  0  0  0  0  0  0  0  0  0  0  0
   -4.5356   -0.7252  -24.8792 H   0  0  0  0  0  0  0  0  0  0  0  0
  1  2  1  0
  2  3  2  0
  2  4  1  0
  4  5  1  0
  5  6  1  0
  6  7  1  0
  7  8  1  0
  8  9  1  0
  9 10  2  0
 10 11  1  0
 10 12  1  0
 12 13  1  0
 13 14  2  0
 14 15  1  0
 15 16  2  0
 16 17  1  0
 17 18  2  0
 18 19  1  0
 19 20  2  0
 20 21  1  0
 21 22  2  0
 21 23  1  0
 20 24  1  0
 19 25  1  0
 18 26  1  0
 16 27  1  0
 14 28  1  0
 12 29  1  0
 29 30  2  0
 29 31  1  0
  8 32  1  1
  7 33  1  0
  7 34  1  0
  6 35  1  1
  5 36  1  0
  5 37  1  0
  1 38  1  0
  1 39  1  0
  1 40  1  0
  8  4  1  0
 31  9  1  0
 31  6  1  0
 22 13  1  0
 22 17  1  0
M  CHG  1  11  -1
M  END
>  <cnnaffinities>  (38) 
[5.44404, 5.46133, 5.28397]

>  <score>  (38) 
5.44404

>  <index>  (38) 
39

>  <Smiles>  (38) 
C(C(=O)N1C([C@@]2(C([C@]1(c1c([O-])n(c3c(nc(c4c(c(c(c(c34)[H])[H])[H])[H])[H])[H])c(=O)n21)[H])([H])[H])[H])([H])[H])([H])([H])[H]

>  <h>  (38) 
<NA>

>  <Training>  (38) 
True

>  <Success>  (38) 
True

>  <enamine_searched>  (38) 
False

>  <enamine_id>  (38) 
nan

$$$$

     RDKit          3D

 40 42  0  0  0  0  0  0  0  0999 V2000
   -9.3052   -6.6305  -25.1077 C   0  0  0  0  0  0  0  0  0  0  0  0
   -8.9994   -5.8141  -23.8549 C   0  0  0  0  0  0  0  0  0  0  0  0
   -7.5575   -5.9909  -23.4020 C   0  0  0  0  0  0  0  0  0  0  0  0
   -7.2584   -5.1704  -22.1597 C   0  0  0  0  0  0  0  0  0  0  0  0
   -7.6217   -3.7628  -22.3160 N   0  0  0  0  0  0  0  0  0  0  0  0
   -6.7874   -2.8023  -21.7709 C   0  0  0  0  0  0  0  0  0  0  0  0
   -5.5887   -2.9886  -21.6717 O   0  0  0  0  0  0  0  0  0  0  0  0
   -7.4209   -1.4843  -21.2562 C   0  0  0  0  0  0  0  0  0  0  0  0
   -6.5815   -0.8259  -20.1827 C   0  0  0  0  0  0  0  0  0  0  0  0
   -6.8725   -1.0423  -18.8622 C   0  0  0  0  0  0  0  0  0  0  0  0
   -6.1823   -0.5418  -17.8060 N   0  0  0  0  0  0  0  0  0  0  0  0
   -5.1543    0.2245  -18.0695 C   0  0  0  0  0  0  0  0  0  0  0  0
   -4.7196    0.5324  -19.3837 C   0  0  0  0  0  0  0  0  0  0  0  0
   -3.5907    1.3575  -19.6208 C   0  0  0  0  0  0  0  0  0  0  0  0
   -3.1885    1.6351  -20.8987 C   0  0  0  0  0  0  0  0  0  0  0  0
   -3.9031    1.0938  -21.9901 C   0  0  0  0  0  0  0  0  0  0  0  0
   -4.9974    0.2896  -21.7858 C   0  0  0  0  0  0  0  0  0  0  0  0
   -5.4450   -0.0105  -20.4746 C   0  0  0  0  0  0  0  0  0  0  0  0
   -5.5161   -0.1408  -22.6359 H   0  0  0  0  0  0  0  0  0  0  0  0
   -3.5748    1.3082  -23.0031 H   0  0  0  0  0  0  0  0  0  0  0  0
   -2.3272    2.2726  -21.0831 H   0  0  0  0  0  0  0  0  0  0  0  0
   -3.0615    1.7743  -18.7667 H   0  0  0  0  0  0  0  0  0  0  0  0
   -4.6044    0.6283  -17.2165 H   0  0  0  0  0  0  0  0  0  0  0  0
   -7.7181   -1.6681  -18.5811 H   0  0  0  0  0  0  0  0  0  0  0  0
   -7.5633   -0.7945  -22.0994 H   0  0  0  0  0  0  0  0  0  0  0  0
   -8.4235   -1.6905  -20.8503 H   0  0  0  0  0  0  0  0  0  0  0  0
   -8.9718   -3.5138  -22.7990 C   0  0  0  0  0  0  0  0  0  0  0  0
   -9.2782   -4.3315  -24.0512 C   0  0  0  0  0  0  0  0  0  0  0  0
  -10.3254   -4.1838  -24.3329 H   0  0  0  0  0  0  0  0  0  0  0  0
   -8.6799   -3.9650  -24.8911 H   0  0  0  0  0  0  0  0  0  0  0  0
   -9.0721   -2.4529  -23.0289 H   0  0  0  0  0  0  0  0  0  0  0  0
   -9.7175   -3.7532  -22.0248 H   0  0  0  0  0  0  0  0  0  0  0  0
   -7.8202   -5.6254  -21.3335 H   0  0  0  0  0  0  0  0  0  0  0  0
   -6.2027   -5.2167  -21.8971 H   0  0  0  0  0  0  0  0  0  0  0  0
   -6.8822   -5.6982  -24.2096 H   0  0  0  0  0  0  0  0  0  0  0  0
   -7.3609   -7.0499  -23.1960 H   0  0  0  0  0  0  0  0  0  0  0  0
   -9.6504   -6.1667  -23.0509 H   0  0  0  0  0  0  0  0  0  0  0  0
   -9.1217   -7.7004  -24.9477 H   0  0  0  0  0  0  0  0  0  0  0  0
  -10.3492   -6.5115  -25.4228 H   0  0  0  0  0  0  0  0  0  0  0  0
   -8.6687   -6.3071  -25.9404 H   0  0  0  0  0  0  0  0  0  0  0  0
  1  2  1  0
  2  3  1  0
  3  4  1  0
  4  5  1  0
  5  6  1  0
  6  7  2  0
  6  8  1  0
  8  9  1  0
  9 10  2  0
 10 11  1  0
 11 12  2  0
 12 13  1  0
 13 14  2  0
 14 15  1  0
 15 16  2  0
 16 17  1  0
 17 18  2  0
 17 19  1  0
 16 20  1  0
 15 21  1  0
 14 22  1  0
 12 23  1  0
 10 24  1  0
  8 25  1  0
  8 26  1  0
  5 27  1  0
 27 28  1  0
 28 29  1  0
 28 30  1  0
 27 31  1  0
 27 32  1  0
  4 33  1  0
  4 34  1  0
  3 35  1  0
  3 36  1  0
  2 37  1  0
  1 38  1  0
  1 39  1  0
  1 40  1  0
 28  2  1  0
 18  9  1  0
 18 13  1  0
M  END
>  <cnnaffinities>  (39) 
[4.48385, 4.48345]

>  <score>  (39) 
4.48385

>  <index>  (39) 
40

>  <Smiles>  (39) 
C(C1(C(C(N(C(=O)C(c2c(nc(c3c(c(c(c(c23)[H])[H])[H])[H])[H])[H])([H])[H])C(C1([H])[H])([H])[H])([H])[H])([H])[H])[H])([H])([H])[H]

>  <h>  (39) 
<NA>

>  <Training>  (39) 
True

>  <Success>  (39) 
True

>  <enamine_searched>  (39) 
False

>  <enamine_id>  (39) 
nan

$$$$

     RDKit          3D

 67 71  0  0  0  0  0  0  0  0999 V2000
   -7.6205    3.0421  -21.9379 C   0  0  0  0  0  0  0  0  0  0  0  0
   -8.7942    2.5495  -22.6448 N   0  0  0  0  0  0  0  0  0  0  0  0
   -8.5374    1.7424  -23.7152 C   0  0  0  0  0  0  0  0  0  0  0  0
   -7.3911    1.4768  -24.0538 O   0  0  0  0  0  0  0  0  0  0  0  0
   -9.7070    1.1564  -24.4974 C   0  0  0  0  0  0  0  0  0  0  0  0
  -10.1392   -0.0843  -23.8967 N   0  0  0  0  0  0  0  0  0  0  0  0
   -9.2389   -1.2297  -23.8956 C   0  0  0  0  0  0  0  0  0  0  0  0
   -9.2975   -1.9724  -22.5321 C   0  0  2  0  0  0  0  0  0  0  0  0
   -8.6985   -1.0294  -21.4513 C   0  0  0  0  0  0  0  0  0  0  0  0
   -9.2336   -0.0531  -20.9602 O   0  0  0  0  0  0  0  0  0  0  0  0
   -7.4077   -1.4412  -21.1735 N   0  0  0  0  0  0  0  0  0  0  0  0
   -6.6213   -0.8330  -20.1653 C   0  0  0  0  0  0  0  0  0  0  0  0
   -6.9306   -1.0466  -18.8428 C   0  0  0  0  0  0  0  0  0  0  0  0
   -6.2198   -0.5507  -17.8059 N   0  0  0  0  0  0  0  0  0  0  0  0
   -5.1826    0.1975  -18.0876 C   0  0  0  0  0  0  0  0  0  0  0  0
   -4.7569    0.5105  -19.4084 C   0  0  0  0  0  0  0  0  0  0  0  0
   -3.6386    1.3512  -19.6482 C   0  0  0  0  0  0  0  0  0  0  0  0
   -3.2619    1.6522  -20.9280 C   0  0  0  0  0  0  0  0  0  0  0  0
   -3.9934    1.1409  -22.0208 C   0  0  0  0  0  0  0  0  0  0  0  0
   -5.0916    0.3345  -21.8152 C   0  0  0  0  0  0  0  0  0  0  0  0
   -5.4941   -0.0159  -20.4953 C   0  0  0  0  0  0  0  0  0  0  0  0
   -5.6776    0.0147  -22.6714 H   0  0  0  0  0  0  0  0  0  0  0  0
   -3.6886    1.3846  -23.0337 H   0  0  0  0  0  0  0  0  0  0  0  0
   -2.4074    2.2983  -21.1063 H   0  0  0  0  0  0  0  0  0  0  0  0
   -3.1099    1.7558  -18.7897 H   0  0  0  0  0  0  0  0  0  0  0  0
   -4.6197    0.6045  -17.2480 H   0  0  0  0  0  0  0  0  0  0  0  0
   -7.7863   -1.6669  -18.5891 H   0  0  0  0  0  0  0  0  0  0  0  0
   -6.9678   -2.5719  -21.9665 C   0  0  0  0  0  0  0  0  0  0  0  0
   -8.3046   -3.1686  -22.4506 C   0  0  2  0  0  0  0  0  0  0  0  0
   -8.1980   -3.9760  -23.7421 C   0  0  0  0  0  0  0  0  0  0  0  0
   -7.2494   -5.4755  -23.5273 S   0  0  0  0  0  0  0  0  0  0  0  0
   -5.8508   -5.1157  -23.3708 O   0  0  0  0  0  0  0  0  0  0  0  0
   -7.8957   -6.2936  -22.5105 O   0  0  0  0  0  0  0  0  0  0  0  0
   -7.4210   -6.2390  -24.9934 N   0  0  0  0  0  0  0  0  0  0  0  0
   -8.6766   -6.9386  -25.2454 C   0  0  0  0  0  0  0  0  0  0  0  0
   -9.5126   -6.2791  -25.5374 H   0  0  0  0  0  0  0  0  0  0  0  0
   -8.5002   -7.6412  -26.0643 H   0  0  0  0  0  0  0  0  0  0  0  0
   -8.9492   -7.5030  -24.3488 H   0  0  0  0  0  0  0  0  0  0  0  0
   -6.7523   -5.6423  -26.1451 C   0  0  0  0  0  0  0  0  0  0  0  0
   -7.2976   -4.7925  -26.5925 H   0  0  0  0  0  0  0  0  0  0  0  0
   -6.6604   -6.4207  -26.9074 H   0  0  0  0  0  0  0  0  0  0  0  0
   -5.7481   -5.3229  -25.8494 H   0  0  0  0  0  0  0  0  0  0  0  0
   -9.1941   -4.2714  -24.0882 H   0  0  0  0  0  0  0  0  0  0  0  0
   -7.7010   -3.3964  -24.5287 H   0  0  0  0  0  0  0  0  0  0  0  0
   -8.6457   -3.8416  -21.6560 H   0  0  0  0  0  0  0  0  0  0  0  0
   -6.3360   -2.2558  -22.8137 H   0  0  0  0  0  0  0  0  0  0  0  0
   -6.3938   -3.2908  -21.3731 H   0  0  0  0  0  0  0  0  0  0  0  0
  -10.7688   -2.3055  -22.2952 C   0  0  0  0  0  0  0  0  0  0  0  0
  -11.1942   -3.4165  -21.5589 C   0  0  0  0  0  0  0  0  0  0  0  0
  -12.5163   -3.5024  -21.1617 C   0  0  0  0  0  0  0  0  0  0  0  0
  -12.8658   -4.4086  -20.2371 F   0  0  0  0  0  0  0  0  0  0  0  0
  -13.5037   -2.6394  -21.6092 C   0  0  0  0  0  0  0  0  0  0  0  0
  -13.1116   -1.5931  -22.4105 C   0  0  0  0  0  0  0  0  0  0  0  0
  -11.7649   -1.4081  -22.7108 C   0  0  0  0  0  0  0  0  0  0  0  0
  -11.4264   -0.1667  -23.4575 C   0  0  0  0  0  0  0  0  0  0  0  0
  -12.2591    0.7096  -23.6503 O   0  0  0  0  0  0  0  0  0  0  0  0
  -13.8198   -0.8776  -22.8119 H   0  0  0  0  0  0  0  0  0  0  0  0
  -14.5281   -2.7757  -21.2905 H   0  0  0  0  0  0  0  0  0  0  0  0
  -10.5149   -4.1878  -21.2214 H   0  0  0  0  0  0  0  0  0  0  0  0
   -9.5207   -1.9236  -24.7026 H   0  0  0  0  0  0  0  0  0  0  0  0
   -8.2273   -0.8550  -24.0861 H   0  0  0  0  0  0  0  0  0  0  0  0
   -9.3663    0.9672  -25.5207 H   0  0  0  0  0  0  0  0  0  0  0  0
  -10.5845    1.8036  -24.5347 H   0  0  0  0  0  0  0  0  0  0  0  0
   -9.6335    2.4116  -22.0860 H   0  0  0  0  0  0  0  0  0  0  0  0
   -7.9030    3.7566  -21.1624 H   0  0  0  0  0  0  0  0  0  0  0  0
   -7.0573    2.2129  -21.4845 H   0  0  0  0  0  0  0  0  0  0  0  0
   -6.9650    3.5654  -22.6399 H   0  0  0  0  0  0  0  0  0  0  0  0
  1  2  1  0
  2  3  1  0
  3  4  2  0
  3  5  1  0
  5  6  1  0
  6  7  1  0
  8  7  1  6
  8  9  1  0
  9 10  2  0
  9 11  1  0
 11 12  1  0
 12 13  2  0
 13 14  1  0
 14 15  2  0
 15 16  1  0
 16 17  2  0
 17 18  1  0
 18 19  2  0
 19 20  1  0
 20 21  2  0
 20 22  1  0
 19 23  1  0
 18 24  1  0
 17 25  1  0
 15 26  1  0
 13 27  1  0
 11 28  1  0
 28 29  1  0
 29 30  1  0
 30 31  1  0
 31 32  2  0
 31 33  2  0
 31 34  1  0
 34 35  1  0
 35 36  1  0
 35 37  1  0
 35 38  1  0
 34 39  1  0
 39 40  1  0
 39 41  1  0
 39 42  1  0
 30 43  1  0
 30 44  1  0
 29 45  1  1
 28 46  1  0
 28 47  1  0
  8 48  1  0
 48 49  2  0
 49 50  1  0
 50 51  1  0
 50 52  2  0
 52 53  1  0
 53 54  2  0
 54 55  1  0
 55 56  2  0
 53 57  1  0
 52 58  1  0
 49 59  1  0
  7 60  1  0
  7 61  1  0
  5 62  1  0
  5 63  1  0
  2 64  1  0
  1 65  1  0
  1 66  1  0
  1 67  1  0
 55  6  1  0
 29  8  1  0
 54 48  1  0
 21 12  1  0
 21 16  1  0
M  END
>  <cnnaffinities>  (40) 
[7.08857, 6.79006]

>  <score>  (40) 
7.08857

>  <index>  (40) 
41

>  <Smiles>  (40) 
C(N(C(=O)C(N1C([C@@]2(C(=O)N(c3c(nc(c4c(c(c(c(c34)[H])[H])[H])[H])[H])[H])C([C@@]2(C(S(=O)(=O)N(C([H])([H])[H])C([H])([H])[H])([H])[H])[H])([H])[H])c2c(c(F)c(c(c2C1=O)[H])[H])[H])([H])[H])([H])[H])[H])([H])([H])[H]

>  <h>  (40) 
<NA>

>  <Training>  (40) 
True

>  <Success>  (40) 
True

>  <enamine_searched>  (40) 
False

>  <enamine_id>  (40) 
nan

$$$$

     RDKit          3D

 67 72  0  0  0  0  0  0  0  0999 V2000
   -7.3912    3.3846  -21.7611 C   0  0  0  0  0  0  0  0  0  0  0  0
   -8.2596    2.9347  -22.8348 N   0  0  0  0  0  0  0  0  0  0  0  0
   -7.6908    2.2584  -23.8573 C   0  0  0  0  0  0  0  0  0  0  0  0
   -6.4757    2.1559  -23.9743 O   0  0  0  0  0  0  0  0  0  0  0  0
   -8.6404    1.6416  -24.8912 C   0  0  0  0  0  0  0  0  0  0  0  0
   -9.3629    0.4802  -24.4017 N   0  0  0  0  0  0  0  0  0  0  0  0
   -8.6415   -0.7711  -24.2468 C   0  0  0  0  0  0  0  0  0  0  0  0
   -9.0339   -1.5047  -22.9376 C   0  0  2  0  0  0  0  0  0  0  0  0
   -8.4967   -0.7231  -21.7089 C   0  0  0  0  0  0  0  0  0  0  0  0
   -8.9443    0.3047  -21.2424 O   0  0  0  0  0  0  0  0  0  0  0  0
   -7.4001   -1.3860  -21.2055 N   0  0  0  0  0  0  0  0  0  0  0  0
   -6.6025   -0.8107  -20.1783 C   0  0  0  0  0  0  0  0  0  0  0  0
   -6.9059   -1.0430  -18.8617 C   0  0  0  0  0  0  0  0  0  0  0  0
   -6.1993   -0.5499  -17.8167 N   0  0  0  0  0  0  0  0  0  0  0  0
   -5.1660    0.2093  -18.0803 C   0  0  0  0  0  0  0  0  0  0  0  0
   -4.7284    0.5311  -19.3956 C   0  0  0  0  0  0  0  0  0  0  0  0
   -3.6022    1.3655  -19.6400 C   0  0  0  0  0  0  0  0  0  0  0  0
   -3.2163    1.6568  -20.9190 C   0  0  0  0  0  0  0  0  0  0  0  0
   -3.9407    1.1297  -22.0115 C   0  0  0  0  0  0  0  0  0  0  0  0
   -5.0332    0.3229  -21.8011 C   0  0  0  0  0  0  0  0  0  0  0  0
   -5.4643    0.0035  -20.4856 C   0  0  0  0  0  0  0  0  0  0  0  0
   -5.5876   -0.0660  -22.6512 H   0  0  0  0  0  0  0  0  0  0  0  0
   -3.6468    1.3664  -23.0285 H   0  0  0  0  0  0  0  0  0  0  0  0
   -2.3624    2.3049  -21.1001 H   0  0  0  0  0  0  0  0  0  0  0  0
   -3.0747    1.7761  -18.7824 H   0  0  0  0  0  0  0  0  0  0  0  0
   -4.6184    0.6142  -17.2284 H   0  0  0  0  0  0  0  0  0  0  0  0
   -7.7578   -1.6674  -18.6029 H   0  0  0  0  0  0  0  0  0  0  0  0
   -7.0440   -2.5884  -21.9296 C   0  0  0  0  0  0  0  0  0  0  0  0
   -8.2891   -2.8718  -22.7934 C   0  0  2  0  0  0  0  0  0  0  0  0
   -7.9206   -3.6309  -24.0882 C   0  0  0  0  0  0  0  0  0  0  0  0
   -7.3796   -4.9375  -23.8006 N   0  0  0  0  0  0  0  0  0  0  0  0
   -6.0596   -5.2847  -23.8085 C   0  0  0  0  0  0  0  0  0  0  0  0
   -4.8015   -4.2325  -24.4222 S   0  0  0  0  0  0  0  0  0  0  0  0
   -3.6510   -5.4724  -23.9956 C   0  0  0  0  0  0  0  0  0  0  0  0
   -4.1441   -6.5396  -23.4689 N   0  0  0  0  0  0  0  0  0  0  0  0
   -5.5214   -6.4597  -23.3636 C   0  0  0  0  0  0  0  0  0  0  0  0
   -6.3050   -7.6051  -22.7847 C   0  0  0  0  0  0  0  0  0  0  0  0
   -7.0261   -8.0156  -23.5051 H   0  0  0  0  0  0  0  0  0  0  0  0
   -6.8649   -7.3009  -21.8897 H   0  0  0  0  0  0  0  0  0  0  0  0
   -5.6178   -8.4066  -22.4997 H   0  0  0  0  0  0  0  0  0  0  0  0
   -2.5927   -5.3144  -24.1812 H   0  0  0  0  0  0  0  0  0  0  0  0
   -8.0174   -5.6618  -23.5063 H   0  0  0  0  0  0  0  0  0  0  0  0
   -8.8144   -3.7756  -24.7045 H   0  0  0  0  0  0  0  0  0  0  0  0
   -7.1781   -3.0708  -24.6750 H   0  0  0  0  0  0  0  0  0  0  0  0
   -8.9554   -3.5255  -22.2216 H   0  0  0  0  0  0  0  0  0  0  0  0
   -6.1498   -2.4325  -22.5525 H   0  0  0  0  0  0  0  0  0  0  0  0
   -6.8136   -3.4117  -21.2427 H   0  0  0  0  0  0  0  0  0  0  0  0
  -10.5532   -1.5511  -22.8645 C   0  0  0  0  0  0  0  0  0  0  0  0
  -11.1912   -2.4336  -21.9838 C   0  0  0  0  0  0  0  0  0  0  0  0
  -12.5713   -2.4574  -21.9008 C   0  0  0  0  0  0  0  0  0  0  0  0
  -13.3470   -3.5685  -20.8088 Cl  0  0  0  0  0  0  0  0  0  0  0  0
  -13.3616   -1.5958  -22.6612 C   0  0  0  0  0  0  0  0  0  0  0  0
  -12.7391   -0.6703  -23.4739 C   0  0  0  0  0  0  0  0  0  0  0  0
  -11.3470   -0.6216  -23.5540 C   0  0  0  0  0  0  0  0  0  0  0  0
  -10.7304    0.5137  -24.3219 C   0  0  0  0  0  0  0  0  0  0  0  0
  -11.4064    1.4086  -24.8031 O   0  0  0  0  0  0  0  0  0  0  0  0
  -13.3050    0.0568  -24.0473 H   0  0  0  0  0  0  0  0  0  0  0  0
  -14.4415   -1.6407  -22.5828 H   0  0  0  0  0  0  0  0  0  0  0  0
  -10.6235   -3.0874  -21.3320 H   0  0  0  0  0  0  0  0  0  0  0  0
   -7.5750   -0.5262  -24.2258 H   0  0  0  0  0  0  0  0  0  0  0  0
   -8.8410   -1.4336  -25.1054 H   0  0  0  0  0  0  0  0  0  0  0  0
   -8.0055    1.3792  -25.7451 H   0  0  0  0  0  0  0  0  0  0  0  0
   -9.4076    2.3514  -25.2132 H   0  0  0  0  0  0  0  0  0  0  0  0
   -9.2562    2.8577  -22.6812 H   0  0  0  0  0  0  0  0  0  0  0  0
   -6.7869    2.5403  -21.3947 H   0  0  0  0  0  0  0  0  0  0  0  0
   -6.7070    4.1632  -22.1159 H   0  0  0  0  0  0  0  0  0  0  0  0
   -8.0019    3.8023  -20.9627 H   0  0  0  0  0  0  0  0  0  0  0  0
  1  2  1  0
  2  3  1  0
  3  4  2  0
  3  5  1  0
  5  6  1  0
  6  7  1  0
  8  7  1  6
  8  9  1  0
  9 10  2  0
  9 11  1  0
 11 12  1  0
 12 13  2  0
 13 14  1  0
 14 15  2  0
 15 16  1  0
 16 17  2  0
 17 18  1  0
 18 19  2  0
 19 20  1  0
 20 21  2  0
 20 22  1  0
 19 23  1  0
 18 24  1  0
 17 25  1  0
 15 26  1  0
 13 27  1  0
 11 28  1  0
 28 29  1  0
 29 30  1  0
 30 31  1  0
 31 32  1  0
 32 33  1  0
 33 34  1  0
 34 35  2  0
 35 36  1  0
 36 37  1  0
 37 38  1  0
 37 39  1  0
 37 40  1  0
 34 41  1  0
 31 42  1  0
 30 43  1  0
 30 44  1  0
 29 45  1  1
 28 46  1  0
 28 47  1  0
  8 48  1  0
 48 49  2  0
 49 50  1  0
 50 51  1  0
 50 52  2  0
 52 53  1  0
 53 54  2  0
 54 55  1  0
 55 56  2  0
 53 57  1  0
 52 58  1  0
 49 59  1  0
  7 60  1  0
  7 61  1  0
  5 62  1  0
  5 63  1  0
  2 64  1  0
  1 65  1  0
  1 66  1  0
  1 67  1  0
 55  6  1  0
 29  8  1  0
 36 32  2  0
 54 48  1  0
 21 12  1  0
 21 16  1  0
M  END
>  <cnnaffinities>  (41) 
[7.16881]

>  <score>  (41) 
7.16881

>  <index>  (41) 
43

>  <Smiles>  (41) 
C(N(C(=O)C(N1C([C@@]2(C(=O)N(c3c(nc(c4c(c(c(c(c34)[H])[H])[H])[H])[H])[H])C([C@@]2(C(N(c2sc(nc2C([H])([H])[H])[H])[H])([H])[H])[H])([H])[H])c2c(c(Cl)c(c(c2C1=O)[H])[H])[H])([H])[H])([H])[H])[H])([H])([H])[H]

>  <h>  (41) 
<NA>

>  <Training>  (41) 
True

>  <Success>  (41) 
True

>  <enamine_searched>  (41) 
False

>  <enamine_id>  (41) 
nan

$$$$

     RDKit          3D

 60 64  0  0  0  0  0  0  0  0999 V2000
  -14.8898   -2.2041  -23.9403 C   0  0  0  0  0  0  0  0  0  0  0  0
  -13.9925   -3.1535  -23.3322 N   0  0  0  0  0  0  0  0  0  0  0  0
  -13.2261   -2.7831  -22.2699 C   0  0  0  0  0  0  0  0  0  0  0  0
  -13.2104   -1.6442  -21.8169 O   0  0  0  0  0  0  0  0  0  0  0  0
  -12.3968   -3.9266  -21.7113 C   0  0  0  0  0  0  0  0  0  0  0  0
  -11.0572   -3.9466  -22.2721 N   0  0  0  0  0  0  0  0  0  0  0  0
   -9.9386   -3.3791  -21.5283 C   0  0  0  0  0  0  0  0  0  0  0  0
   -8.7541   -2.9008  -22.4061 C   0  0  2  0  0  0  0  0  0  0  0  0
   -7.5468   -2.6807  -21.4754 C   0  0  0  0  0  0  0  0  0  0  0  0
   -6.8123   -3.5291  -21.0014 O   0  0  0  0  0  0  0  0  0  0  0  0
   -7.4009   -1.3299  -21.2448 N   0  0  0  0  0  0  0  0  0  0  0  0
   -6.5833   -0.8431  -20.1995 C   0  0  0  0  0  0  0  0  0  0  0  0
   -6.8880   -1.1172  -18.8902 C   0  0  0  0  0  0  0  0  0  0  0  0
   -6.2168   -0.5896  -17.8377 N   0  0  0  0  0  0  0  0  0  0  0  0
   -5.2090    0.2075  -18.0900 C   0  0  0  0  0  0  0  0  0  0  0  0
   -4.7623    0.5379  -19.4025 C   0  0  0  0  0  0  0  0  0  0  0  0
   -3.6380    1.3707  -19.6382 C   0  0  0  0  0  0  0  0  0  0  0  0
   -3.2336    1.6375  -20.9167 C   0  0  0  0  0  0  0  0  0  0  0  0
   -3.9309    1.0903  -22.0182 C   0  0  0  0  0  0  0  0  0  0  0  0
   -5.0237    0.2818  -21.8176 C   0  0  0  0  0  0  0  0  0  0  0  0
   -5.4647   -0.0055  -20.4989 C   0  0  0  0  0  0  0  0  0  0  0  0
   -5.5491   -0.1597  -22.6596 H   0  0  0  0  0  0  0  0  0  0  0  0
   -3.5944    1.2979  -23.0294 H   0  0  0  0  0  0  0  0  0  0  0  0
   -2.3685    2.2699  -21.0972 H   0  0  0  0  0  0  0  0  0  0  0  0
   -3.1160    1.7840  -18.7794 H   0  0  0  0  0  0  0  0  0  0  0  0
   -4.6799    0.6320  -17.2355 H   0  0  0  0  0  0  0  0  0  0  0  0
   -7.7164   -1.7780  -18.6400 H   0  0  0  0  0  0  0  0  0  0  0  0
   -8.4020   -0.5069  -21.8990 C   0  0  0  0  0  0  0  0  0  0  0  0
   -8.9751   -1.4534  -22.9651 C   0  0  2  0  0  0  0  0  0  0  0  0
  -10.4153   -1.1398  -23.3290 C   0  0  0  0  0  0  0  0  0  0  0  0
  -10.5241    0.1132  -23.9606 O   0  0  0  0  0  0  0  0  0  0  0  0
  -11.8850    0.3420  -24.2473 C   0  0  0  0  0  0  0  0  0  0  0  0
  -12.4919    0.3672  -23.3289 H   0  0  0  0  0  0  0  0  0  0  0  0
  -12.2760   -0.4659  -24.8864 H   0  0  0  0  0  0  0  0  0  0  0  0
  -11.9752    1.2886  -24.7821 H   0  0  0  0  0  0  0  0  0  0  0  0
  -10.7879   -1.9254  -24.0043 H   0  0  0  0  0  0  0  0  0  0  0  0
  -11.0539   -1.1372  -22.4313 H   0  0  0  0  0  0  0  0  0  0  0  0
   -8.3600   -1.3632  -23.8674 H   0  0  0  0  0  0  0  0  0  0  0  0
   -9.1648   -0.1692  -21.1815 H   0  0  0  0  0  0  0  0  0  0  0  0
   -7.9578    0.3968  -22.3272 H   0  0  0  0  0  0  0  0  0  0  0  0
   -8.4812   -3.9463  -23.4668 C   0  0  0  0  0  0  0  0  0  0  0  0
   -7.2082   -4.0936  -24.0343 C   0  0  0  0  0  0  0  0  0  0  0  0
   -6.9963   -5.0527  -25.0094 C   0  0  0  0  0  0  0  0  0  0  0  0
   -5.4127   -5.2265  -25.7096 Cl  0  0  0  0  0  0  0  0  0  0  0  0
   -8.0200   -5.9037  -25.4240 C   0  0  0  0  0  0  0  0  0  0  0  0
   -9.2867   -5.7394  -24.8973 C   0  0  0  0  0  0  0  0  0  0  0  0
   -9.5170   -4.7593  -23.9400 C   0  0  0  0  0  0  0  0  0  0  0  0
  -10.9160   -4.5874  -23.4629 C   0  0  0  0  0  0  0  0  0  0  0  0
  -11.8899   -5.0020  -24.0940 O   0  0  0  0  0  0  0  0  0  0  0  0
  -10.1263   -6.3593  -25.2017 H   0  0  0  0  0  0  0  0  0  0  0  0
   -7.8255   -6.6809  -26.1499 H   0  0  0  0  0  0  0  0  0  0  0  0
   -6.3742   -3.4960  -23.6830 H   0  0  0  0  0  0  0  0  0  0  0  0
   -9.5474   -4.1123  -20.8280 H   0  0  0  0  0  0  0  0  0  0  0  0
  -10.2803   -2.5229  -20.9361 H   0  0  0  0  0  0  0  0  0  0  0  0
  -12.9156   -4.8304  -22.0191 H   0  0  0  0  0  0  0  0  0  0  0  0
  -12.3576   -3.8804  -20.6242 H   0  0  0  0  0  0  0  0  0  0  0  0
  -13.6561   -3.9151  -23.9127 H   0  0  0  0  0  0  0  0  0  0  0  0
  -15.4367   -1.6811  -23.1543 H   0  0  0  0  0  0  0  0  0  0  0  0
  -15.5915   -2.7363  -24.5913 H   0  0  0  0  0  0  0  0  0  0  0  0
  -14.3624   -1.4371  -24.5218 H   0  0  0  0  0  0  0  0  0  0  0  0
  1  2  1  0
  2  3  1  0
  3  4  2  0
  3  5  1  0
  5  6  1  0
  6  7  1  0
  8  7  1  1
  8  9  1  0
  9 10  2  0
  9 11  1  0
 11 12  1  0
 12 13  2  0
 13 14  1  0
 14 15  2  0
 15 16  1  0
 16 17  2  0
 17 18  1  0
 18 19  2  0
 19 20  1  0
 20 21  2  0
 20 22  1  0
 19 23  1  0
 18 24  1  0
 17 25  1  0
 15 26  1  0
 13 27  1  0
 11 28  1  0
 28 29  1  0
 29 30  1  0
 30 31  1  0
 31 32  1  0
 32 33  1  0
 32 34  1  0
 32 35  1  0
 30 36  1  0
 30 37  1  0
 29 38  1  6
 28 39  1  0
 28 40  1  0
  8 41  1  0
 41 42  2  0
 42 43  1  0
 43 44  1  0
 43 45  2  0
 45 46  1  0
 46 47  2  0
 47 48  1  0
 48 49  2  0
 46 50  1  0
 45 51  1  0
 42 52  1  0
  7 53  1  0
  7 54  1  0
  5 55  1  0
  5 56  1  0
  2 57  1  0
  1 58  1  0
  1 59  1  0
  1 60  1  0
 48  6  1  0
 29  8  1  0
 47 41  1  0
 21 12  1  0
 21 16  1  0
M  END
>  <cnnaffinities>  (42) 
[6.57924, 6.61592]

>  <score>  (42) 
6.57924

>  <index>  (42) 
44

>  <Smiles>  (42) 
C(N(C(=O)C(N1C([C@@]2(C(=O)N(c3c(nc(c4c(c(c(c(c34)[H])[H])[H])[H])[H])[H])C([C@@]2(C(OC([H])([H])[H])([H])[H])[H])([H])[H])c2c(c(Cl)c(c(c2C1=O)[H])[H])[H])([H])[H])([H])[H])[H])([H])([H])[H]

>  <h>  (42) 
<NA>

>  <Training>  (42) 
True

>  <Success>  (42) 
True

>  <enamine_searched>  (42) 
False

>  <enamine_id>  (42) 
nan

$$$$

     RDKit          3D

 66 71  0  0  0  0  0  0  0  0999 V2000
   -7.4282    3.3534  -21.7587 C   0  0  0  0  0  0  0  0  0  0  0  0
   -8.3201    2.9052  -22.8167 N   0  0  0  0  0  0  0  0  0  0  0  0
   -7.7577    2.2235  -23.8383 C   0  0  0  0  0  0  0  0  0  0  0  0
   -6.5436    2.1198  -23.9635 O   0  0  0  0  0  0  0  0  0  0  0  0
   -8.7032    1.5948  -24.8660 C   0  0  0  0  0  0  0  0  0  0  0  0
   -9.4190    0.4371  -24.3643 N   0  0  0  0  0  0  0  0  0  0  0  0
   -8.6908   -0.8080  -24.2052 C   0  0  0  0  0  0  0  0  0  0  0  0
   -9.0733   -1.5298  -22.8879 C   0  0  2  0  0  0  0  0  0  0  0  0
   -8.5246   -0.7430  -21.6701 C   0  0  0  0  0  0  0  0  0  0  0  0
   -8.9874    0.2720  -21.1836 O   0  0  0  0  0  0  0  0  0  0  0  0
   -7.3988   -1.3818  -21.2037 N   0  0  0  0  0  0  0  0  0  0  0  0
   -6.6009   -0.8112  -20.1757 C   0  0  0  0  0  0  0  0  0  0  0  0
   -6.9064   -1.0429  -18.8582 C   0  0  0  0  0  0  0  0  0  0  0  0
   -6.2007   -0.5499  -17.8144 N   0  0  0  0  0  0  0  0  0  0  0  0
   -5.1666    0.2087  -18.0801 C   0  0  0  0  0  0  0  0  0  0  0  0
   -4.7294    0.5310  -19.3963 C   0  0  0  0  0  0  0  0  0  0  0  0
   -3.6045    1.3665  -19.6406 C   0  0  0  0  0  0  0  0  0  0  0  0
   -3.2199    1.6578  -20.9206 C   0  0  0  0  0  0  0  0  0  0  0  0
   -3.9431    1.1321  -22.0118 C   0  0  0  0  0  0  0  0  0  0  0  0
   -5.0356    0.3237  -21.8024 C   0  0  0  0  0  0  0  0  0  0  0  0
   -5.4646    0.0027  -20.4857 C   0  0  0  0  0  0  0  0  0  0  0  0
   -5.5911   -0.0618  -22.6530 H   0  0  0  0  0  0  0  0  0  0  0  0
   -3.6499    1.3703  -23.0302 H   0  0  0  0  0  0  0  0  0  0  0  0
   -2.3656    2.3079  -21.1002 H   0  0  0  0  0  0  0  0  0  0  0  0
   -3.0770    1.7761  -18.7826 H   0  0  0  0  0  0  0  0  0  0  0  0
   -4.6178    0.6136  -17.2294 H   0  0  0  0  0  0  0  0  0  0  0  0
   -7.7601   -1.6664  -18.6014 H   0  0  0  0  0  0  0  0  0  0  0  0
   -7.0550   -2.5873  -21.9311 C   0  0  0  0  0  0  0  0  0  0  0  0
   -8.3248   -2.8942  -22.7507 C   0  0  2  0  0  0  0  0  0  0  0  0
   -8.0180   -3.6736  -24.0487 C   0  0  0  0  0  0  0  0  0  0  0  0
   -7.4767   -5.0626  -23.7769 C   0  0  0  0  0  0  0  0  0  0  0  0
   -8.3519   -6.1166  -23.5010 C   0  0  0  0  0  0  0  0  0  0  0  0
   -7.8734   -7.3926  -23.2115 C   0  0  0  0  0  0  0  0  0  0  0  0
   -6.5025   -7.6356  -23.1924 C   0  0  0  0  0  0  0  0  0  0  0  0
   -5.6176   -6.5970  -23.4689 C   0  0  0  0  0  0  0  0  0  0  0  0
   -6.1029   -5.3215  -23.7563 C   0  0  0  0  0  0  0  0  0  0  0  0
   -5.4027   -4.5126  -23.9683 H   0  0  0  0  0  0  0  0  0  0  0  0
   -4.5441   -6.7809  -23.4619 H   0  0  0  0  0  0  0  0  0  0  0  0
   -6.1248   -8.6329  -22.9674 H   0  0  0  0  0  0  0  0  0  0  0  0
   -8.5791   -8.1955  -23.0035 H   0  0  0  0  0  0  0  0  0  0  0  0
   -9.4269   -5.9325  -23.5145 H   0  0  0  0  0  0  0  0  0  0  0  0
   -8.9365   -3.7534  -24.6480 H   0  0  0  0  0  0  0  0  0  0  0  0
   -7.2892   -3.1132  -24.6511 H   0  0  0  0  0  0  0  0  0  0  0  0
   -8.9685   -3.5360  -22.1430 H   0  0  0  0  0  0  0  0  0  0  0  0
   -6.7958   -3.4027  -21.2445 H   0  0  0  0  0  0  0  0  0  0  0  0
   -6.1814   -2.4227  -22.5842 H   0  0  0  0  0  0  0  0  0  0  0  0
  -10.5904   -1.5911  -22.8106 C   0  0  0  0  0  0  0  0  0  0  0  0
  -11.2167   -2.4935  -21.9408 C   0  0  0  0  0  0  0  0  0  0  0  0
  -12.5966   -2.5217  -21.8476 C   0  0  0  0  0  0  0  0  0  0  0  0
  -13.3612   -3.6412  -20.7554 Cl  0  0  0  0  0  0  0  0  0  0  0  0
  -13.3934   -1.6558  -22.5962 C   0  0  0  0  0  0  0  0  0  0  0  0
  -12.7839   -0.7209  -23.4091 C   0  0  0  0  0  0  0  0  0  0  0  0
  -11.3931   -0.6655  -23.4943 C   0  0  0  0  0  0  0  0  0  0  0  0
  -10.7847    0.4688  -24.2654 C   0  0  0  0  0  0  0  0  0  0  0  0
  -11.4707    1.3671  -24.7372 O   0  0  0  0  0  0  0  0  0  0  0  0
  -13.3526    0.0085  -23.9794 H   0  0  0  0  0  0  0  0  0  0  0  0
  -14.4719   -1.7054  -22.5112 H   0  0  0  0  0  0  0  0  0  0  0  0
  -10.6377   -3.1585  -21.3115 H   0  0  0  0  0  0  0  0  0  0  0  0
   -8.9017   -1.4824  -25.0526 H   0  0  0  0  0  0  0  0  0  0  0  0
   -7.6247   -0.5604  -24.1994 H   0  0  0  0  0  0  0  0  0  0  0  0
   -9.4780    2.2977  -25.1817 H   0  0  0  0  0  0  0  0  0  0  0  0
   -8.0685    1.3246  -25.7190 H   0  0  0  0  0  0  0  0  0  0  0  0
   -9.3089    2.8052  -22.6420 H   0  0  0  0  0  0  0  0  0  0  0  0
   -6.7553    4.1318  -22.1338 H   0  0  0  0  0  0  0  0  0  0  0  0
   -8.0154    3.7591  -20.9379 H   0  0  0  0  0  0  0  0  0  0  0  0
   -6.8131    2.5079  -21.4189 H   0  0  0  0  0  0  0  0  0  0  0  0
  1  2  1  0
  2  3  1  0
  3  4  2  0
  3  5  1  0
  5  6  1  0
  6  7  1  0
  8  7  1  6
  8  9  1  0
  9 10  2  0
  9 11  1  0
 11 12  1  0
 12 13  2  0
 13 14  1  0
 14 15  2  0
 15 16  1  0
 16 17  2  0
 17 18  1  0
 18 19  2  0
 19 20  1  0
 20 21  2  0
 20 22  1  0
 19 23  1  0
 18 24  1  0
 17 25  1  0
 15 26  1  0
 13 27  1  0
 11 28  1  0
 28 29  1  0
 29 30  1  0
 30 31  1  0
 31 32  2  0
 32 33  1  0
 33 34  2  0
 34 35  1  0
 35 36  2  0
 36 37  1  0
 35 38  1  0
 34 39  1  0
 33 40  1  0
 32 41  1  0
 30 42  1  0
 30 43  1  0
 29 44  1  1
 28 45  1  0
 28 46  1  0
  8 47  1  0
 47 48  2  0
 48 49  1  0
 49 50  1  0
 49 51  2  0
 51 52  1  0
 52 53  2  0
 53 54  1  0
 54 55  2  0
 52 56  1  0
 51 57  1  0
 48 58  1  0
  7 59  1  0
  7 60  1  0
  5 61  1  0
  5 62  1  0
  2 63  1  0
  1 64  1  0
  1 65  1  0
  1 66  1  0
 54  6  1  0
 29  8  1  0
 36 31  1  0
 53 47  1  0
 21 12  1  0
 21 16  1  0
M  END
>  <cnnaffinities>  (43) 
[6.71273, 6.69626, 6.73754]

>  <score>  (43) 
6.71273

>  <index>  (43) 
45

>  <Smiles>  (43) 
C(N(C(=O)C(N1C([C@@]2(C(=O)N(c3c(nc(c4c(c(c(c(c34)[H])[H])[H])[H])[H])[H])C([C@@]2(C(c2c(c(c(c(c2[H])[H])[H])[H])[H])([H])[H])[H])([H])[H])c2c(c(Cl)c(c(c2C1=O)[H])[H])[H])([H])[H])([H])[H])[H])([H])([H])[H]

>  <h>  (43) 
<NA>

>  <Training>  (43) 
True

>  <Success>  (43) 
True

>  <enamine_searched>  (43) 
False

>  <enamine_id>  (43) 
nan

$$$$

     RDKit          3D

 50 54  0  0  0  0  0  0  0  0999 V2000
  -10.4547   -1.1644  -23.2687 C   0  0  0  0  0  0  0  0  0  0  0  0
   -9.0056   -1.4961  -22.9393 C   0  0  1  0  0  0  0  0  0  0  0  0
   -8.3893   -0.5333  -21.9136 C   0  0  0  0  0  0  0  0  0  0  0  0
   -7.3979   -1.3426  -21.2309 N   0  0  0  0  0  0  0  0  0  0  0  0
   -6.5839   -0.8411  -20.1903 C   0  0  0  0  0  0  0  0  0  0  0  0
   -6.8897   -1.0918  -18.8787 C   0  0  0  0  0  0  0  0  0  0  0  0
   -6.2111   -0.5686  -17.8271 N   0  0  0  0  0  0  0  0  0  0  0  0
   -5.1923    0.2111  -18.0873 C   0  0  0  0  0  0  0  0  0  0  0  0
   -4.7498    0.5245  -19.4050 C   0  0  0  0  0  0  0  0  0  0  0  0
   -3.6223    1.3506  -19.6413 C   0  0  0  0  0  0  0  0  0  0  0  0
   -3.2189    1.6196  -20.9181 C   0  0  0  0  0  0  0  0  0  0  0  0
   -3.9215    1.0797  -22.0171 C   0  0  0  0  0  0  0  0  0  0  0  0
   -5.0162    0.2753  -21.8180 C   0  0  0  0  0  0  0  0  0  0  0  0
   -5.4623   -0.0138  -20.5001 C   0  0  0  0  0  0  0  0  0  0  0  0
   -5.5373   -0.1548  -22.6687 H   0  0  0  0  0  0  0  0  0  0  0  0
   -3.5904    1.2988  -23.0277 H   0  0  0  0  0  0  0  0  0  0  0  0
   -2.3616    2.2585  -21.0966 H   0  0  0  0  0  0  0  0  0  0  0  0
   -3.1056    1.7666  -18.7806 H   0  0  0  0  0  0  0  0  0  0  0  0
   -4.6487    0.6381  -17.2393 H   0  0  0  0  0  0  0  0  0  0  0  0
   -7.7276   -1.7360  -18.6265 H   0  0  0  0  0  0  0  0  0  0  0  0
   -7.5409   -2.6942  -21.4464 C   0  0  0  0  0  0  0  0  0  0  0  0
   -6.7814   -3.5449  -21.0247 O   0  0  0  0  0  0  0  0  0  0  0  0
   -8.7774   -2.9234  -22.3318 C   0  0  1  0  0  0  0  0  0  0  0  0
   -9.9623   -3.3775  -21.4516 C   0  0  0  0  0  0  0  0  0  0  0  0
  -11.1020   -3.8316  -22.2341 N   0  0  0  0  0  0  0  0  0  0  0  0
  -12.4636   -3.6359  -21.7867 C   0  0  0  0  0  0  0  0  0  0  0  0
  -13.3259   -2.7967  -22.6463 C   0  0  0  0  0  0  0  0  0  0  0  0
  -14.1121   -2.1896  -23.2374 N   0  0  0  0  0  0  0  0  0  0  0  0
  -12.4691   -3.2007  -20.7885 H   0  0  0  0  0  0  0  0  0  0  0  0
  -12.9624   -4.6027  -21.7596 H   0  0  0  0  0  0  0  0  0  0  0  0
  -10.9577   -4.6097  -23.3501 C   0  0  0  0  0  0  0  0  0  0  0  0
  -11.9338   -5.0442  -23.9462 O   0  0  0  0  0  0  0  0  0  0  0  0
   -9.5579   -4.8241  -23.8177 C   0  0  0  0  0  0  0  0  0  0  0  0
   -9.3121   -5.8098  -24.7706 C   0  0  0  0  0  0  0  0  0  0  0  0
   -8.0623   -5.9452  -25.3386 C   0  0  0  0  0  0  0  0  0  0  0  0
   -7.0681   -5.0790  -24.9098 C   0  0  0  0  0  0  0  0  0  0  0  0
   -5.8680   -5.1572  -25.4951 F   0  0  0  0  0  0  0  0  0  0  0  0
   -7.2631   -4.1272  -23.9336 C   0  0  0  0  0  0  0  0  0  0  0  0
   -8.5273   -3.9941  -23.3644 C   0  0  0  0  0  0  0  0  0  0  0  0
   -6.4411   -3.4957  -23.6191 H   0  0  0  0  0  0  0  0  0  0  0  0
   -7.8531   -6.6742  -26.1123 H   0  0  0  0  0  0  0  0  0  0  0  0
  -10.1316   -6.4595  -25.0483 H   0  0  0  0  0  0  0  0  0  0  0  0
   -9.6158   -4.1618  -20.7766 H   0  0  0  0  0  0  0  0  0  0  0  0
  -10.2791   -2.5245  -20.8508 H   0  0  0  0  0  0  0  0  0  0  0  0
   -9.1489   -0.1655  -21.2093 H   0  0  0  0  0  0  0  0  0  0  0  0
   -7.9312    0.3407  -22.3872 H   0  0  0  0  0  0  0  0  0  0  0  0
   -8.4008   -1.4583  -23.8561 H   0  0  0  0  0  0  0  0  0  0  0  0
  -10.5370   -0.1879  -23.7467 H   0  0  0  0  0  0  0  0  0  0  0  0
  -11.0480   -1.1470  -22.3497 H   0  0  0  0  0  0  0  0  0  0  0  0
  -10.8851   -1.9250  -23.9250 H   0  0  0  0  0  0  0  0  0  0  0  0
  1  2  1  0
  2  3  1  0
  3  4  1  0
  4  5  1  0
  5  6  2  0
  6  7  1  0
  7  8  2  0
  8  9  1  0
  9 10  2  0
 10 11  1  0
 11 12  2  0
 12 13  1  0
 13 14  2  0
 13 15  1  0
 12 16  1  0
 11 17  1  0
 10 18  1  0
  8 19  1  0
  6 20  1  0
  4 21  1  0
 21 22  2  0
 21 23  1  0
 23 24  1  1
 24 25  1  0
 25 26  1  0
 26 27  1  0
 27 28  3  0
 26 29  1  0
 26 30  1  0
 25 31  1  0
 31 32  2  0
 31 33  1  0
 33 34  2  0
 34 35  1  0
 35 36  2  0
 36 37  1  0
 36 38  1  0
 38 39  2  0
 38 40  1  0
 35 41  1  0
 34 42  1  0
 24 43  1  0
 24 44  1  0
  3 45  1  0
  3 46  1  0
  2 47  1  6
  1 48  1  0
  1 49  1  0
  1 50  1  0
 23  2  1  0
 39 33  1  0
 14  5  1  0
 39 23  1  0
 14  9  1  0
M  END
>  <cnnaffinities>  (44) 
[6.47992]

>  <score>  (44) 
6.47992

>  <index>  (44) 
46

>  <Smiles>  (44) 
C([C@]1(C(N(c2c(nc(c3c(c(c(c(c23)[H])[H])[H])[H])[H])[H])C(=O)[C@]21C(N(C(C#N)([H])[H])C(=O)c1c(c(c(F)c(c21)[H])[H])[H])([H])[H])([H])[H])[H])([H])([H])[H]

>  <h>  (44) 
<NA>

>  <Training>  (44) 
True

>  <Success>  (44) 
True

>  <enamine_searched>  (44) 
False

>  <enamine_id>  (44) 
nan

$$$$

     RDKit          3D

 58 63  0  0  0  0  0  0  0  0999 V2000
   -8.5051    0.7138  -21.4027 O   0  0  0  0  0  0  0  0  0  0  0  0
   -8.4548   -0.4135  -21.8507 C   0  0  0  0  0  0  0  0  0  0  0  0
   -7.4449   -1.4286  -21.2630 C   0  0  0  0  0  0  0  0  0  0  0  0
   -6.5780   -0.8302  -20.1805 C   0  0  0  0  0  0  0  0  0  0  0  0
   -6.8761   -1.0390  -18.8613 C   0  0  0  0  0  0  0  0  0  0  0  0
   -6.1875   -0.5364  -17.8023 N   0  0  0  0  0  0  0  0  0  0  0  0
   -5.1551    0.2231  -18.0663 C   0  0  0  0  0  0  0  0  0  0  0  0
   -4.7233    0.5366  -19.3822 C   0  0  0  0  0  0  0  0  0  0  0  0
   -3.5980    1.3686  -19.6226 C   0  0  0  0  0  0  0  0  0  0  0  0
   -3.2127    1.6632  -20.9010 C   0  0  0  0  0  0  0  0  0  0  0  0
   -3.9380    1.1376  -21.9922 C   0  0  0  0  0  0  0  0  0  0  0  0
   -5.0273    0.3282  -21.7866 C   0  0  0  0  0  0  0  0  0  0  0  0
   -5.4544    0.0021  -20.4722 C   0  0  0  0  0  0  0  0  0  0  0  0
   -5.5741   -0.0612  -22.6407 H   0  0  0  0  0  0  0  0  0  0  0  0
   -3.6239    1.3754  -23.0048 H   0  0  0  0  0  0  0  0  0  0  0  0
   -2.3568    2.3081  -21.0864 H   0  0  0  0  0  0  0  0  0  0  0  0
   -3.0602    1.7787  -18.7705 H   0  0  0  0  0  0  0  0  0  0  0  0
   -4.6004    0.6290  -17.2164 H   0  0  0  0  0  0  0  0  0  0  0  0
   -7.7301   -1.6589  -18.5858 H   0  0  0  0  0  0  0  0  0  0  0  0
   -6.8289   -1.8586  -22.0638 H   0  0  0  0  0  0  0  0  0  0  0  0
   -8.0183   -2.2624  -20.8344 H   0  0  0  0  0  0  0  0  0  0  0  0
   -9.3039   -0.8272  -22.8744 N   0  0  0  0  0  0  0  0  0  0  0  0
   -9.2701   -2.1309  -23.5269 C   0  0  0  0  0  0  0  0  0  0  0  0
   -8.5437   -2.1606  -24.8617 C   0  0  0  0  0  0  0  0  0  0  0  0
   -7.4421   -1.3434  -25.1030 C   0  0  0  0  0  0  0  0  0  0  0  0
   -6.7669   -1.4066  -26.3156 C   0  0  0  0  0  0  0  0  0  0  0  0
   -7.1746   -2.2827  -27.3138 C   0  0  0  0  0  0  0  0  0  0  0  0
   -8.2699   -3.1004  -27.0662 C   0  0  0  0  0  0  0  0  0  0  0  0
   -8.7982   -4.2183  -28.2940 Cl  0  0  0  0  0  0  0  0  0  0  0  0
   -8.9537   -3.0512  -25.8555 C   0  0  0  0  0  0  0  0  0  0  0  0
   -9.8016   -3.7165  -25.7000 H   0  0  0  0  0  0  0  0  0  0  0  0
   -6.6513   -2.3324  -28.2641 H   0  0  0  0  0  0  0  0  0  0  0  0
   -5.9099   -0.7619  -26.4841 H   0  0  0  0  0  0  0  0  0  0  0  0
   -7.0944   -0.6510  -24.3388 H   0  0  0  0  0  0  0  0  0  0  0  0
  -10.3025   -2.4529  -23.6856 H   0  0  0  0  0  0  0  0  0  0  0  0
   -8.8309   -2.8623  -22.8429 H   0  0  0  0  0  0  0  0  0  0  0  0
  -10.2372    0.1524  -23.4014 C   0  0  2  0  0  0  0  0  0  0  0  0
  -11.3911    0.6154  -22.4934 C   0  0  0  0  0  0  0  0  0  0  0  0
  -12.0738    1.5929  -23.4163 N   0  0  1  0  0  4  0  0  0  0  0  0
  -12.2527    2.9511  -22.8889 C   0  0  0  0  0  0  0  0  0  0  0  0
  -13.5244    3.2815  -22.1812 C   0  0  0  0  0  0  0  0  0  0  0  0
  -13.2589    3.8355  -23.5516 C   0  0  0  0  0  0  0  0  0  0  0  0
  -13.0470    4.8953  -23.6423 H   0  0  0  0  0  0  0  0  0  0  0  0
  -13.8107    3.3981  -24.3781 H   0  0  0  0  0  0  0  0  0  0  0  0
  -13.4766    3.9704  -21.3495 H   0  0  0  0  0  0  0  0  0  0  0  0
  -14.2428    2.4738  -22.0857 H   0  0  0  0  0  0  0  0  0  0  0  0
  -11.3465    3.4133  -22.5211 H   0  0  0  0  0  0  0  0  0  0  0  0
  -11.1666    1.4898  -24.6137 C   0  0  2  0  0  0  0  0  0  0  0  0
  -11.0160   -0.0316  -24.7284 C   0  0  0  0  0  0  0  0  0  0  0  0
  -10.4043   -0.3296  -25.5732 H   0  0  0  0  0  0  0  0  0  0  0  0
  -11.9467   -0.6103  -24.6701 H   0  0  0  0  0  0  0  0  0  0  0  0
   -9.7718    1.5167  -23.9723 C   0  0  0  0  0  0  0  0  0  0  0  0
   -8.9690    1.4217  -24.6988 H   0  0  0  0  0  0  0  0  0  0  0  0
   -9.5642    2.2921  -23.2294 H   0  0  0  0  0  0  0  0  0  0  0  0
  -11.4559    2.1241  -25.4446 H   0  0  0  0  0  0  0  0  0  0  0  0
  -13.0183    1.2491  -23.6612 H   0  0  0  0  0  0  0  0  0  0  0  0
  -11.0338    1.1623  -21.6272 H   0  0  0  0  0  0  0  0  0  0  0  0
  -12.0812   -0.1787  -22.2023 H   0  0  0  0  0  0  0  0  0  0  0  0
  1  2  2  0
  2  3  1  0
  3  4  1  0
  4  5  2  0
  5  6  1  0
  6  7  2  0
  7  8  1  0
  8  9  2  0
  9 10  1  0
 10 11  2  0
 11 12  1  0
 12 13  2  0
 12 14  1  0
 11 15  1  0
 10 16  1  0
  9 17  1  0
  7 18  1  0
  5 19  1  0
  3 20  1  0
  3 21  1  0
  2 22  1  0
 22 23  1  0
 23 24  1  0
 24 25  2  0
 25 26  1  0
 26 27  2  0
 27 28  1  0
 28 29  1  0
 28 30  2  0
 30 31  1  0
 27 32  1  0
 26 33  1  0
 25 34  1  0
 23 35  1  0
 23 36  1  0
 37 22  1  1
 37 38  1  0
 38 39  1  0
 39 40  1  0
 40 41  1  0
 41 42  1  0
 42 43  1  0
 42 44  1  0
 41 45  1  0
 41 46  1  0
 40 47  1  0
 39 48  1  0
 48 49  1  0
 49 50  1  0
 49 51  1  0
 48 52  1  0
 52 53  1  0
 52 54  1  0
 48 55  1  6
 39 56  1  6
 38 57  1  0
 38 58  1  0
 13  4  1  0
 30 24  1  0
 49 37  1  0
 13  8  1  0
 52 37  1  0
 42 40  1  0
M  CHG  1  39   1
M  END
>  <cnnaffinities>  (45) 
[5.88517, 6.31298]

>  <score>  (45) 
5.88517

>  <index>  (45) 
47

>  <Smiles>  (45) 
O=C(C(c1c(nc(c2c(c(c(c(c12)[H])[H])[H])[H])[H])[H])([H])[H])N(C(c1c(c(c(c(Cl)c1[H])[H])[H])[H])([H])[H])[C@]12C([N@@+](C3(C(C3([H])[H])([H])[H])[H])([C@](C1([H])[H])(C2([H])[H])[H])[H])([H])[H]

>  <h>  (45) 
<NA>

>  <Training>  (45) 
True

>  <Success>  (45) 
True

>  <enamine_searched>  (45) 
False

>  <enamine_id>  (45) 
nan

$$$$

     RDKit          3D

 46 48  0  0  0  0  0  0  0  0999 V2000
  -14.6672   -2.0464  -23.9177 C   0  0  0  0  0  0  0  0  0  0  0  0
  -13.2901   -2.7239  -23.8589 C   0  0  0  0  0  0  0  0  0  0  0  0
  -13.2559   -3.7654  -22.7309 C   0  0  0  0  0  0  0  0  0  0  0  0
  -13.4729   -3.3045  -21.7577 H   0  0  0  0  0  0  0  0  0  0  0  0
  -12.2823   -4.2701  -22.6584 H   0  0  0  0  0  0  0  0  0  0  0  0
  -14.0178   -4.5405  -22.9051 H   0  0  0  0  0  0  0  0  0  0  0  0
  -12.1295   -1.6947  -23.8417 C   0  0  0  0  0  0  0  0  0  0  0  0
  -10.7474   -2.3599  -24.0453 C   0  0  0  0  0  0  0  0  0  0  0  0
   -9.8520   -2.3248  -22.8015 C   0  0  0  0  0  0  0  0  0  0  0  0
   -9.6623   -0.9541  -22.3648 N   0  0  0  0  0  0  0  0  0  0  0  0
   -8.5345   -0.4432  -21.7804 C   0  0  0  0  0  0  0  0  0  0  0  0
   -8.3851    0.7637  -21.6500 O   0  0  0  0  0  0  0  0  0  0  0  0
   -7.4682   -1.4332  -21.2639 C   0  0  0  0  0  0  0  0  0  0  0  0
   -6.5924   -0.8260  -20.1888 C   0  0  0  0  0  0  0  0  0  0  0  0
   -6.8825   -1.0417  -18.8665 C   0  0  0  0  0  0  0  0  0  0  0  0
   -6.1925   -0.5359  -17.8129 N   0  0  0  0  0  0  0  0  0  0  0  0
   -5.1610    0.2222  -18.0779 C   0  0  0  0  0  0  0  0  0  0  0  0
   -4.7291    0.5331  -19.3923 C   0  0  0  0  0  0  0  0  0  0  0  0
   -3.6025    1.3614  -19.6249 C   0  0  0  0  0  0  0  0  0  0  0  0
   -3.2119    1.6560  -20.9016 C   0  0  0  0  0  0  0  0  0  0  0  0
   -3.9393    1.1343  -21.9939 C   0  0  0  0  0  0  0  0  0  0  0  0
   -5.0370    0.3325  -21.7927 C   0  0  0  0  0  0  0  0  0  0  0  0
   -5.4639    0.0032  -20.4804 C   0  0  0  0  0  0  0  0  0  0  0  0
   -5.5976   -0.0486  -22.6397 H   0  0  0  0  0  0  0  0  0  0  0  0
   -3.6272    1.3689  -23.0080 H   0  0  0  0  0  0  0  0  0  0  0  0
   -2.3566    2.3043  -21.0783 H   0  0  0  0  0  0  0  0  0  0  0  0
   -3.0816    1.7635  -18.7595 H   0  0  0  0  0  0  0  0  0  0  0  0
   -4.6142    0.6240  -17.2233 H   0  0  0  0  0  0  0  0  0  0  0  0
   -7.7284   -1.6651  -18.5768 H   0  0  0  0  0  0  0  0  0  0  0  0
   -7.9724   -2.3220  -20.8553 H   0  0  0  0  0  0  0  0  0  0  0  0
   -6.8561   -1.7888  -22.1079 H   0  0  0  0  0  0  0  0  0  0  0  0
  -10.7540   -0.0199  -22.6079 C   0  0  0  0  0  0  0  0  0  0  0  0
  -12.0826   -0.7651  -22.6188 C   0  0  0  0  0  0  0  0  0  0  0  0
  -12.2081   -1.3839  -21.7239 H   0  0  0  0  0  0  0  0  0  0  0  0
  -12.9156   -0.0570  -22.6455 H   0  0  0  0  0  0  0  0  0  0  0  0
  -10.5983    0.4818  -23.5728 H   0  0  0  0  0  0  0  0  0  0  0  0
  -10.6491    0.7582  -21.8550 H   0  0  0  0  0  0  0  0  0  0  0  0
   -8.8759   -2.7510  -23.0472 H   0  0  0  0  0  0  0  0  0  0  0  0
  -10.2875   -2.9497  -22.0025 H   0  0  0  0  0  0  0  0  0  0  0  0
  -10.2278   -1.8340  -24.8557 H   0  0  0  0  0  0  0  0  0  0  0  0
  -10.8768   -3.4005  -24.3676 H   0  0  0  0  0  0  0  0  0  0  0  0
  -12.3173   -1.0606  -24.7224 H   0  0  0  0  0  0  0  0  0  0  0  0
  -13.1662   -3.2766  -24.8018 H   0  0  0  0  0  0  0  0  0  0  0  0
  -15.4496   -2.7994  -24.0848 H   0  0  0  0  0  0  0  0  0  0  0  0
  -14.9006   -1.5295  -22.9762 H   0  0  0  0  0  0  0  0  0  0  0  0
  -14.7340   -1.3089  -24.7305 H   0  0  0  0  0  0  0  0  0  0  0  0
  1  2  1  0
  2  3  1  0
  3  4  1  0
  3  5  1  0
  3  6  1  0
  2  7  1  0
  7  8  1  0
  8  9  1  0
  9 10  1  0
 10 11  1  0
 11 12  2  0
 11 13  1  0
 13 14  1  0
 14 15  2  0
 15 16  1  0
 16 17  2  0
 17 18  1  0
 18 19  2  0
 19 20  1  0
 20 21  2  0
 21 22  1  0
 22 23  2  0
 22 24  1  0
 21 25  1  0
 20 26  1  0
 19 27  1  0
 17 28  1  0
 15 29  1  0
 13 30  1  0
 13 31  1  0
 10 32  1  0
 32 33  1  0
 33 34  1  0
 33 35  1  0
 32 36  1  0
 32 37  1  0
  9 38  1  0
  9 39  1  0
  8 40  1  0
  8 41  1  0
  7 42  1  0
  2 43  1  0
  1 44  1  0
  1 45  1  0
  1 46  1  0
 33  7  1  0
 23 14  1  0
 23 18  1  0
M  END
>  <cnnaffinities>  (46) 
[4.91658, 4.91601, 4.91711, 5.08069, 5.12117, 5.12159, 5.12406, 4.99505, 4.97565, 4.97588, 4.97575]

>  <score>  (46) 
4.91658

>  <index>  (46) 
48

>  <Smiles>  (46) 
C(C(C([H])([H])[H])(C1(C(C(N(C(=O)C(c2c(nc(c3c(c(c(c(c23)[H])[H])[H])[H])[H])[H])([H])[H])C(C1([H])[H])([H])[H])([H])[H])([H])[H])[H])[H])([H])([H])[H]

>  <h>  (46) 
<NA>

>  <Training>  (46) 
True

>  <Success>  (46) 
True

>  <enamine_searched>  (46) 
False

>  <enamine_id>  (46) 
nan

$$$$

     RDKit          3D

 67 72  0  0  0  0  0  0  0  0999 V2000
   -7.4129    3.3661  -21.7681 C   0  0  0  0  0  0  0  0  0  0  0  0
   -8.2805    2.9034  -22.8388 N   0  0  0  0  0  0  0  0  0  0  0  0
   -7.6990    2.2298  -23.8625 C   0  0  0  0  0  0  0  0  0  0  0  0
   -6.4841    2.1442  -23.9762 O   0  0  0  0  0  0  0  0  0  0  0  0
   -8.6481    1.6043  -24.8944 C   0  0  0  0  0  0  0  0  0  0  0  0
   -9.3724    0.4437  -24.4028 N   0  0  0  0  0  0  0  0  0  0  0  0
   -8.6549   -0.8083  -24.2407 C   0  0  0  0  0  0  0  0  0  0  0  0
   -9.0463   -1.5288  -22.9244 C   0  0  2  0  0  0  0  0  0  0  0  0
   -8.5064   -0.7379  -21.7022 C   0  0  0  0  0  0  0  0  0  0  0  0
   -8.9561    0.2852  -21.2350 O   0  0  0  0  0  0  0  0  0  0  0  0
   -7.3943   -1.3910  -21.2097 N   0  0  0  0  0  0  0  0  0  0  0  0
   -6.6009   -0.8116  -20.1804 C   0  0  0  0  0  0  0  0  0  0  0  0
   -6.9046   -1.0431  -18.8623 C   0  0  0  0  0  0  0  0  0  0  0  0
   -6.1977   -0.5497  -17.8181 N   0  0  0  0  0  0  0  0  0  0  0  0
   -5.1637    0.2103  -18.0803 C   0  0  0  0  0  0  0  0  0  0  0  0
   -4.7266    0.5316  -19.3952 C   0  0  0  0  0  0  0  0  0  0  0  0
   -3.6007    1.3655  -19.6389 C   0  0  0  0  0  0  0  0  0  0  0  0
   -3.2149    1.6583  -20.9191 C   0  0  0  0  0  0  0  0  0  0  0  0
   -3.9397    1.1304  -22.0110 C   0  0  0  0  0  0  0  0  0  0  0  0
   -5.0325    0.3227  -21.7994 C   0  0  0  0  0  0  0  0  0  0  0  0
   -5.4623    0.0034  -20.4847 C   0  0  0  0  0  0  0  0  0  0  0  0
   -5.5874   -0.0640  -22.6488 H   0  0  0  0  0  0  0  0  0  0  0  0
   -3.6465    1.3657  -23.0278 H   0  0  0  0  0  0  0  0  0  0  0  0
   -2.3618    2.3064  -21.1007 H   0  0  0  0  0  0  0  0  0  0  0  0
   -3.0732    1.7777  -18.7830 H   0  0  0  0  0  0  0  0  0  0  0  0
   -4.6192    0.6152  -17.2274 H   0  0  0  0  0  0  0  0  0  0  0  0
   -7.7547   -1.6683  -18.6004 H   0  0  0  0  0  0  0  0  0  0  0  0
   -7.0419   -2.5964  -21.9312 C   0  0  0  0  0  0  0  0  0  0  0  0
   -8.3003   -2.8946  -22.7699 C   0  0  2  0  0  0  0  0  0  0  0  0
   -7.9608   -3.6783  -24.0577 C   0  0  0  0  0  0  0  0  0  0  0  0
   -7.4513   -5.0039  -23.7792 N   0  0  0  0  0  0  0  0  0  0  0  0
   -6.1206   -5.3124  -23.6642 C   0  0  0  0  0  0  0  0  0  0  0  0
   -5.0167   -4.5892  -24.0130 C   0  0  0  0  0  0  0  0  0  0  0  0
   -3.7974   -5.1938  -23.7901 N   0  0  0  0  0  0  0  0  0  0  0  0
   -3.9377   -6.3816  -23.2927 C   0  0  0  0  0  0  0  0  0  0  0  0
   -2.7939   -7.2978  -22.9858 C   0  0  0  0  0  0  0  0  0  0  0  0
   -3.0192   -7.9334  -22.1272 H   0  0  0  0  0  0  0  0  0  0  0  0
   -2.5834   -7.9506  -23.8424 H   0  0  0  0  0  0  0  0  0  0  0  0
   -1.8948   -6.7065  -22.7908 H   0  0  0  0  0  0  0  0  0  0  0  0
   -5.6003   -6.8625  -23.0352 S   0  0  0  0  0  0  0  0  0  0  0  0
   -5.0513   -3.6039  -24.4611 H   0  0  0  0  0  0  0  0  0  0  0  0
   -8.1099   -5.7227  -23.5133 H   0  0  0  0  0  0  0  0  0  0  0  0
   -8.8651   -3.7928  -24.6671 H   0  0  0  0  0  0  0  0  0  0  0  0
   -7.2144   -3.1314  -24.6548 H   0  0  0  0  0  0  0  0  0  0  0  0
   -8.9553   -3.5394  -22.1755 H   0  0  0  0  0  0  0  0  0  0  0  0
   -6.1543   -2.4482  -22.5700 H   0  0  0  0  0  0  0  0  0  0  0  0
   -6.7903   -3.4167  -21.2493 H   0  0  0  0  0  0  0  0  0  0  0  0
  -10.5641   -1.5789  -22.8511 C   0  0  0  0  0  0  0  0  0  0  0  0
  -11.2026   -2.4618  -21.9712 C   0  0  0  0  0  0  0  0  0  0  0  0
  -12.5828   -2.4855  -21.8891 C   0  0  0  0  0  0  0  0  0  0  0  0
  -13.3603   -3.5951  -20.7975 Cl  0  0  0  0  0  0  0  0  0  0  0  0
  -13.3733   -1.6258  -22.6497 C   0  0  0  0  0  0  0  0  0  0  0  0
  -12.7485   -0.7024  -23.4622 C   0  0  0  0  0  0  0  0  0  0  0  0
  -11.3573   -0.6517  -23.5433 C   0  0  0  0  0  0  0  0  0  0  0  0
  -10.7402    0.4789  -24.3145 C   0  0  0  0  0  0  0  0  0  0  0  0
  -11.4148    1.3813  -24.7966 O   0  0  0  0  0  0  0  0  0  0  0  0
  -13.3154    0.0214  -24.0346 H   0  0  0  0  0  0  0  0  0  0  0  0
  -14.4536   -1.6715  -22.5724 H   0  0  0  0  0  0  0  0  0  0  0  0
  -10.6365   -3.1164  -21.3184 H   0  0  0  0  0  0  0  0  0  0  0  0
   -7.5891   -0.5637  -24.2236 H   0  0  0  0  0  0  0  0  0  0  0  0
   -8.8532   -1.4751  -25.0966 H   0  0  0  0  0  0  0  0  0  0  0  0
   -9.4134    2.3102  -25.2338 H   0  0  0  0  0  0  0  0  0  0  0  0
   -8.0068    1.3370  -25.7409 H   0  0  0  0  0  0  0  0  0  0  0  0
   -9.2818    2.8295  -22.6968 H   0  0  0  0  0  0  0  0  0  0  0  0
   -6.8037    2.5246  -21.3959 H   0  0  0  0  0  0  0  0  0  0  0  0
   -6.7340    4.1497  -22.1274 H   0  0  0  0  0  0  0  0  0  0  0  0
   -8.0276    3.7909  -20.9758 H   0  0  0  0  0  0  0  0  0  0  0  0
  1  2  1  0
  2  3  1  0
  3  4  2  0
  3  5  1  0
  5  6  1  0
  6  7  1  0
  8  7  1  6
  8  9  1  0
  9 10  2  0
  9 11  1  0
 11 12  1  0
 12 13  2  0
 13 14  1  0
 14 15  2  0
 15 16  1  0
 16 17  2  0
 17 18  1  0
 18 19  2  0
 19 20  1  0
 20 21  2  0
 20 22  1  0
 19 23  1  0
 18 24  1  0
 17 25  1  0
 15 26  1  0
 13 27  1  0
 11 28  1  0
 28 29  1  0
 29 30  1  0
 30 31  1  0
 31 32  1  0
 32 33  2  0
 33 34  1  0
 34 35  2  0
 35 36  1  0
 36 37  1  0
 36 38  1  0
 36 39  1  0
 35 40  1  0
 33 41  1  0
 31 42  1  0
 30 43  1  0
 30 44  1  0
 29 45  1  1
 28 46  1  0
 28 47  1  0
  8 48  1  0
 48 49  2  0
 49 50  1  0
 50 51  1  0
 50 52  2  0
 52 53  1  0
 53 54  2  0
 54 55  1  0
 55 56  2  0
 53 57  1  0
 52 58  1  0
 49 59  1  0
  7 60  1  0
  7 61  1  0
  5 62  1  0
  5 63  1  0
  2 64  1  0
  1 65  1  0
  1 66  1  0
  1 67  1  0
 55  6  1  0
 29  8  1  0
 40 32  1  0
 54 48  1  0
 21 12  1  0
 21 16  1  0
M  END
>  <cnnaffinities>  (47) 
[7.07894]

>  <score>  (47) 
7.07894

>  <index>  (47) 
49

>  <Smiles>  (47) 
C(N(C(=O)C(N1C([C@@]2(C(=O)N(c3c(nc(c4c(c(c(c(c34)[H])[H])[H])[H])[H])[H])C([C@@]2(C(N(c2c(nc(C([H])([H])[H])s2)[H])[H])([H])[H])[H])([H])[H])c2c(c(Cl)c(c(c2C1=O)[H])[H])[H])([H])[H])([H])[H])[H])([H])([H])[H]

>  <h>  (47) 
<NA>

>  <Training>  (47) 
True

>  <Success>  (47) 
True

>  <enamine_searched>  (47) 
False

>  <enamine_id>  (47) 
nan

$$$$

     RDKit          3D

 66 70  0  0  0  0  0  0  0  0999 V2000
   -7.4438    3.3501  -21.8128 C   0  0  0  0  0  0  0  0  0  0  0  0
   -8.3563    2.8830  -22.8413 N   0  0  0  0  0  0  0  0  0  0  0  0
   -7.8399    2.1607  -23.8626 C   0  0  0  0  0  0  0  0  0  0  0  0
   -6.6312    2.0220  -24.0142 O   0  0  0  0  0  0  0  0  0  0  0  0
   -8.8451    1.5421  -24.8442 C   0  0  0  0  0  0  0  0  0  0  0  0
   -9.5427    0.3817  -24.3181 N   0  0  0  0  0  0  0  0  0  0  0  0
   -8.8110   -0.8645  -24.1764 C   0  0  0  0  0  0  0  0  0  0  0  0
   -9.1309   -1.5700  -22.8330 C   0  0  2  0  0  0  0  0  0  0  0  0
   -8.5441   -0.7499  -21.6514 C   0  0  0  0  0  0  0  0  0  0  0  0
   -8.9834    0.2779  -21.1825 O   0  0  0  0  0  0  0  0  0  0  0  0
   -7.4066   -1.3834  -21.2010 N   0  0  0  0  0  0  0  0  0  0  0  0
   -6.6072   -0.8069  -20.1754 C   0  0  0  0  0  0  0  0  0  0  0  0
   -6.9072   -1.0397  -18.8579 C   0  0  0  0  0  0  0  0  0  0  0  0
   -6.1962   -0.5485  -17.8144 N   0  0  0  0  0  0  0  0  0  0  0  0
   -5.1634    0.2100  -18.0806 C   0  0  0  0  0  0  0  0  0  0  0  0
   -4.7271    0.5305  -19.3958 C   0  0  0  0  0  0  0  0  0  0  0  0
   -3.5995    1.3622  -19.6424 C   0  0  0  0  0  0  0  0  0  0  0  0
   -3.2133    1.6523  -20.9212 C   0  0  0  0  0  0  0  0  0  0  0  0
   -3.9398    1.1241  -22.0133 C   0  0  0  0  0  0  0  0  0  0  0  0
   -5.0328    0.3177  -21.8000 C   0  0  0  0  0  0  0  0  0  0  0  0
   -5.4654    0.0026  -20.4857 C   0  0  0  0  0  0  0  0  0  0  0  0
   -5.5880   -0.0705  -22.6492 H   0  0  0  0  0  0  0  0  0  0  0  0
   -3.6433    1.3557  -23.0298 H   0  0  0  0  0  0  0  0  0  0  0  0
   -2.3590    2.2975  -21.1041 H   0  0  0  0  0  0  0  0  0  0  0  0
   -3.0717    1.7732  -18.7850 H   0  0  0  0  0  0  0  0  0  0  0  0
   -4.6171    0.6149  -17.2280 H   0  0  0  0  0  0  0  0  0  0  0  0
   -7.7559   -1.6652  -18.5932 H   0  0  0  0  0  0  0  0  0  0  0  0
   -7.0782   -2.6073  -21.9094 C   0  0  0  0  0  0  0  0  0  0  0  0
   -8.3686   -2.9287  -22.6970 C   0  0  2  0  0  0  0  0  0  0  0  0
   -8.0846   -3.6768  -23.9999 C   0  0  0  0  0  0  0  0  0  0  0  0
   -7.4681   -4.9186  -23.7057 O   0  0  0  0  0  0  0  0  0  0  0  0
   -7.3033   -5.7628  -24.8494 C   0  0  0  0  0  0  0  0  0  0  0  0
   -8.4378   -6.7865  -24.9212 C   0  0  0  0  0  0  0  0  0  0  0  0
   -8.4378   -7.4079  -24.0196 H   0  0  0  0  0  0  0  0  0  0  0  0
   -8.3142   -7.4388  -25.7948 H   0  0  0  0  0  0  0  0  0  0  0  0
   -9.4140   -6.2944  -25.0012 H   0  0  0  0  0  0  0  0  0  0  0  0
   -5.9403   -6.4426  -24.7577 C   0  0  0  0  0  0  0  0  0  0  0  0
   -5.8879   -7.0663  -23.8598 H   0  0  0  0  0  0  0  0  0  0  0  0
   -5.7718   -7.0806  -25.6342 H   0  0  0  0  0  0  0  0  0  0  0  0
   -5.1414   -5.6969  -24.7133 H   0  0  0  0  0  0  0  0  0  0  0  0
   -7.3289   -5.1345  -25.7575 H   0  0  0  0  0  0  0  0  0  0  0  0
   -9.0189   -3.8336  -24.5642 H   0  0  0  0  0  0  0  0  0  0  0  0
   -7.4126   -3.0840  -24.6446 H   0  0  0  0  0  0  0  0  0  0  0  0
   -8.9776   -3.5950  -22.0838 H   0  0  0  0  0  0  0  0  0  0  0  0
   -6.8043   -3.3987  -21.2034 H   0  0  0  0  0  0  0  0  0  0  0  0
   -6.2174   -2.4612  -22.5805 H   0  0  0  0  0  0  0  0  0  0  0  0
  -10.6440   -1.6290  -22.6993 C   0  0  0  0  0  0  0  0  0  0  0  0
  -11.2337   -2.5251  -21.8044 C   0  0  0  0  0  0  0  0  0  0  0  0
  -12.6046   -2.5412  -21.6525 C   0  0  0  0  0  0  0  0  0  0  0  0
  -13.1556   -3.3994  -20.7793 F   0  0  0  0  0  0  0  0  0  0  0  0
  -13.4435   -1.6843  -22.3550 C   0  0  0  0  0  0  0  0  0  0  0  0
  -12.8634   -0.7599  -23.1996 C   0  0  0  0  0  0  0  0  0  0  0  0
  -11.4768   -0.7059  -23.3521 C   0  0  0  0  0  0  0  0  0  0  0  0
  -10.9029    0.4202  -24.1604 C   0  0  0  0  0  0  0  0  0  0  0  0
  -11.6015    1.3155  -24.6123 O   0  0  0  0  0  0  0  0  0  0  0  0
  -13.4590   -0.0371  -23.7465 H   0  0  0  0  0  0  0  0  0  0  0  0
  -14.5153   -1.7419  -22.2058 H   0  0  0  0  0  0  0  0  0  0  0  0
  -10.6356   -3.1981  -21.2034 H   0  0  0  0  0  0  0  0  0  0  0  0
   -9.0501   -1.5477  -25.0078 H   0  0  0  0  0  0  0  0  0  0  0  0
   -7.7479   -0.6123  -24.2176 H   0  0  0  0  0  0  0  0  0  0  0  0
   -8.2540    1.2745  -25.7267 H   0  0  0  0  0  0  0  0  0  0  0  0
   -9.6293    2.2460  -25.1394 H   0  0  0  0  0  0  0  0  0  0  0  0
   -9.3524    2.8453  -22.6632 H   0  0  0  0  0  0  0  0  0  0  0  0
   -8.0199    3.8258  -21.0200 H   0  0  0  0  0  0  0  0  0  0  0  0
   -6.8520    2.5053  -21.4235 H   0  0  0  0  0  0  0  0  0  0  0  0
   -6.7470    4.0922  -22.2201 H   0  0  0  0  0  0  0  0  0  0  0  0
  1  2  1  0
  2  3  1  0
  3  4  2  0
  3  5  1  0
  5  6  1  0
  6  7  1  0
  8  7  1  6
  8  9  1  0
  9 10  2  0
  9 11  1  0
 11 12  1  0
 12 13  2  0
 13 14  1  0
 14 15  2  0
 15 16  1  0
 16 17  2  0
 17 18  1  0
 18 19  2  0
 19 20  1  0
 20 21  2  0
 20 22  1  0
 19 23  1  0
 18 24  1  0
 17 25  1  0
 15 26  1  0
 13 27  1  0
 11 28  1  0
 28 29  1  0
 29 30  1  0
 30 31  1  0
 31 32  1  0
 32 33  1  0
 33 34  1  0
 33 35  1  0
 33 36  1  0
 32 37  1  0
 37 38  1  0
 37 39  1  0
 37 40  1  0
 32 41  1  0
 30 42  1  0
 30 43  1  0
 29 44  1  1
 28 45  1  0
 28 46  1  0
  8 47  1  0
 47 48  2  0
 48 49  1  0
 49 50  1  0
 49 51  2  0
 51 52  1  0
 52 53  2  0
 53 54  1  0
 54 55  2  0
 52 56  1  0
 51 57  1  0
 48 58  1  0
  7 59  1  0
  7 60  1  0
  5 61  1  0
  5 62  1  0
  2 63  1  0
  1 64  1  0
  1 65  1  0
  1 66  1  0
 54  6  1  0
 29  8  1  0
 53 47  1  0
 21 12  1  0
 21 16  1  0
M  END
>  <cnnaffinities>  (48) 
[6.5277, 6.31445, 6.29003, 6.54296, 6.80423, 6.82568, 6.49885, 6.79089, 6.43218]

>  <score>  (48) 
6.5277

>  <index>  (48) 
50

>  <Smiles>  (48) 
C(N(C(=O)C(N1C([C@@]2(C(=O)N(c3c(nc(c4c(c(c(c(c34)[H])[H])[H])[H])[H])[H])C([C@@]2(C(OC(C([H])([H])[H])(C([H])([H])[H])[H])([H])[H])[H])([H])[H])c2c(c(F)c(c(c2C1=O)[H])[H])[H])([H])[H])([H])[H])[H])([H])([H])[H]

>  <h>  (48) 
<NA>

>  <Training>  (48) 
True

>  <Success>  (48) 
True

>  <enamine_searched>  (48) 
False

>  <enamine_id>  (48) 
nan

$$$$

     RDKit          3D

 50 52  0  0  0  0  0  0  0  0999 V2000
   -9.7530   -3.8812  -25.5809 C   0  0  0  0  0  0  0  0  0  0  0  0
   -8.7827   -3.5497  -24.7318 C   0  0  0  0  0  0  0  0  0  0  0  0
   -8.7064   -2.1553  -24.1666 C   0  0  0  0  0  0  0  0  0  0  0  0
   -9.4749   -1.9623  -22.9320 N   0  0  0  0  0  0  0  0  0  0  0  0
   -8.8970   -1.3088  -21.8417 C   0  0  0  0  0  0  0  0  0  0  0  0
   -9.4915   -0.5471  -21.1100 O   0  0  0  0  0  0  0  0  0  0  0  0
   -7.5633   -1.6316  -21.6511 N   0  0  0  0  0  0  0  0  0  0  0  0
   -6.9021   -1.0654  -20.5394 C   0  0  0  0  0  0  0  0  0  0  0  0
   -7.3466   -1.2767  -19.2620 C   0  0  0  0  0  0  0  0  0  0  0  0
   -6.7332   -0.7989  -18.1556 N   0  0  0  0  0  0  0  0  0  0  0  0
   -5.6680   -0.0546  -18.3210 C   0  0  0  0  0  0  0  0  0  0  0  0
   -5.1297    0.2858  -19.5905 C   0  0  0  0  0  0  0  0  0  0  0  0
   -3.9988    1.1313  -19.7356 C   0  0  0  0  0  0  0  0  0  0  0  0
   -3.5244    1.4375  -20.9813 C   0  0  0  0  0  0  0  0  0  0  0  0
   -4.1697    0.9417  -22.1380 C   0  0  0  0  0  0  0  0  0  0  0  0
   -5.2803    0.1413  -22.0202 C   0  0  0  0  0  0  0  0  0  0  0  0
   -5.7661   -0.2265  -20.7417 C   0  0  0  0  0  0  0  0  0  0  0  0
   -5.8094   -0.2096  -22.8992 H   0  0  0  0  0  0  0  0  0  0  0  0
   -3.7862    1.1961  -23.1239 H   0  0  0  0  0  0  0  0  0  0  0  0
   -2.6489    2.0713  -21.0970 H   0  0  0  0  0  0  0  0  0  0  0  0
   -3.5378    1.5408  -18.8391 H   0  0  0  0  0  0  0  0  0  0  0  0
   -5.1748    0.3144  -17.4220 H   0  0  0  0  0  0  0  0  0  0  0  0
   -8.2524   -1.8524  -19.0906 H   0  0  0  0  0  0  0  0  0  0  0  0
   -7.1909   -2.4893  -22.0644 H   0  0  0  0  0  0  0  0  0  0  0  0
  -10.8921   -2.1396  -22.8854 C   0  0  0  0  0  0  0  0  0  0  0  0
  -11.7826   -1.5694  -23.7978 C   0  0  0  0  0  0  0  0  0  0  0  0
  -13.1556   -1.7775  -23.6424 C   0  0  0  0  0  0  0  0  0  0  0  0
  -13.6578   -2.5475  -22.5985 C   0  0  0  0  0  0  0  0  0  0  0  0
  -12.7582   -3.1017  -21.6961 C   0  0  0  0  0  0  0  0  0  0  0  0
  -13.3830   -4.0208  -20.3589 Cl  0  0  0  0  0  0  0  0  0  0  0  0
  -11.3932   -2.9002  -21.8315 C   0  0  0  0  0  0  0  0  0  0  0  0
  -10.6741   -3.3468  -21.1550 H   0  0  0  0  0  0  0  0  0  0  0  0
  -14.7230   -2.7524  -22.4992 H   0  0  0  0  0  0  0  0  0  0  0  0
  -13.8481   -1.3290  -24.3492 H   0  0  0  0  0  0  0  0  0  0  0  0
  -11.4123   -0.9555  -24.6149 H   0  0  0  0  0  0  0  0  0  0  0  0
   -7.6666   -1.9248  -23.9399 H   0  0  0  0  0  0  0  0  0  0  0  0
   -9.0303   -1.4314  -24.9261 H   0  0  0  0  0  0  0  0  0  0  0  0
   -7.7230   -4.4866  -24.2255 C   0  0  0  0  0  0  0  0  0  0  0  0
   -7.0088   -4.1815  -23.2710 O   0  0  0  0  0  0  0  0  0  0  0  0
   -7.5641   -5.6586  -24.8912 N   0  0  0  0  0  0  0  0  0  0  0  0
   -6.8570   -6.7652  -24.2794 C   0  0  0  0  0  0  0  0  0  0  0  0
   -7.7719   -7.6054  -23.3940 C   0  0  0  0  0  0  0  0  0  0  0  0
   -8.1325   -7.0010  -22.5578 H   0  0  0  0  0  0  0  0  0  0  0  0
   -7.2480   -8.4755  -22.9901 H   0  0  0  0  0  0  0  0  0  0  0  0
   -8.6440   -7.9527  -23.9605 H   0  0  0  0  0  0  0  0  0  0  0  0
   -6.0463   -6.3296  -23.6945 H   0  0  0  0  0  0  0  0  0  0  0  0
   -6.4112   -7.3649  -25.0772 H   0  0  0  0  0  0  0  0  0  0  0  0
   -8.2248   -5.8769  -25.6177 H   0  0  0  0  0  0  0  0  0  0  0  0
   -9.9183   -4.8800  -25.9712 H   0  0  0  0  0  0  0  0  0  0  0  0
  -10.4724   -3.1330  -25.9064 H   0  0  0  0  0  0  0  0  0  0  0  0
  1  2  2  0
  2  3  1  0
  3  4  1  0
  4  5  1  0
  5  6  2  0
  5  7  1  0
  7  8  1  0
  8  9  2  0
  9 10  1  0
 10 11  2  0
 11 12  1  0
 12 13  2  0
 13 14  1  0
 14 15  2  0
 15 16  1  0
 16 17  2  0
 16 18  1  0
 15 19  1  0
 14 20  1  0
 13 21  1  0
 11 22  1  0
  9 23  1  0
  7 24  1  0
  4 25  1  0
 25 26  2  0
 26 27  1  0
 27 28  2  0
 28 29  1  0
 29 30  1  0
 29 31  2  0
 31 32  1  0
 28 33  1  0
 27 34  1  0
 26 35  1  0
  3 36  1  0
  3 37  1  0
  2 38  1  0
 38 39  2  0
 38 40  1  0
 40 41  1  0
 41 42  1  0
 42 43  1  0
 42 44  1  0
 42 45  1  0
 41 46  1  0
 41 47  1  0
 40 48  1  0
  1 49  1  0
  1 50  1  0
 17  8  1  0
 31 25  1  0
 17 12  1  0
M  END
>  <cnnaffinities>  (49) 
[6.31238, 5.89806]

>  <score>  (49) 
6.31238

>  <index>  (49) 
51

>  <Smiles>  (49) 
C(=C(C(N(C(=O)N(c1c(nc(c2c(c(c(c(c12)[H])[H])[H])[H])[H])[H])[H])c1c(c(c(c(Cl)c1[H])[H])[H])[H])([H])[H])C(=O)N(C(C([H])([H])[H])([H])[H])[H])([H])[H]

>  <h>  (49) 
<NA>

>  <Training>  (49) 
True

>  <Success>  (49) 
True

>  <enamine_searched>  (49) 
False

>  <enamine_id>  (49) 
nan

$$$$

     RDKit          3D

 57 60  0  0  0  0  0  0  0  0999 V2000
   -2.4075   -6.6043  -28.3022 C   0  0  0  0  0  0  0  0  0  0  0  0
   -3.6296   -5.6882  -28.3310 C   0  0  0  0  0  0  0  0  0  0  0  0
   -4.1218   -5.3668  -26.9208 C   0  0  0  0  0  0  0  0  0  0  0  0
   -3.7199   -4.3881  -26.3192 O   0  0  0  0  0  0  0  0  0  0  0  0
   -5.0085   -6.2492  -26.3372 N   0  0  0  0  0  0  0  0  0  0  0  0
   -5.6638   -6.0320  -25.0929 C   0  0  0  0  0  0  0  0  0  0  0  0
   -5.9100   -7.1151  -24.2423 C   0  0  0  0  0  0  0  0  0  0  0  0
   -6.5551   -6.9077  -23.0285 C   0  0  0  0  0  0  0  0  0  0  0  0
   -6.9668   -5.6376  -22.6363 C   0  0  0  0  0  0  0  0  0  0  0  0
   -6.7280   -4.5531  -23.4852 C   0  0  0  0  0  0  0  0  0  0  0  0
   -7.1649   -3.2288  -23.1184 N   0  0  0  0  0  0  0  0  0  0  0  0
   -8.1652   -2.5689  -23.9510 C   0  0  0  0  0  0  0  0  0  0  0  0
   -9.5813   -2.6796  -23.4286 C   0  0  0  0  0  0  0  0  0  0  0  0
  -10.1696   -3.9355  -23.2927 C   0  0  0  0  0  0  0  0  0  0  0  0
  -11.4584   -4.0564  -22.7871 C   0  0  0  0  0  0  0  0  0  0  0  0
  -12.1819   -2.9291  -22.4133 C   0  0  0  0  0  0  0  0  0  0  0  0
  -11.6071   -1.6711  -22.5566 C   0  0  0  0  0  0  0  0  0  0  0  0
  -10.3185   -1.5511  -23.0692 C   0  0  0  0  0  0  0  0  0  0  0  0
   -9.8746   -0.5626  -23.1733 H   0  0  0  0  0  0  0  0  0  0  0  0
  -12.1619   -0.7819  -22.2734 H   0  0  0  0  0  0  0  0  0  0  0  0
  -13.1892   -3.0296  -22.0199 H   0  0  0  0  0  0  0  0  0  0  0  0
  -11.9041   -5.0378  -22.6943 H   0  0  0  0  0  0  0  0  0  0  0  0
   -9.6151   -4.8253  -23.5845 H   0  0  0  0  0  0  0  0  0  0  0  0
   -8.1084   -3.0347  -24.9373 H   0  0  0  0  0  0  0  0  0  0  0  0
   -7.8963   -1.5180  -24.0946 H   0  0  0  0  0  0  0  0  0  0  0  0
   -6.7197   -2.7154  -21.8989 C   0  0  0  0  0  0  0  0  0  0  0  0
   -5.8046   -3.2528  -21.3097 O   0  0  0  0  0  0  0  0  0  0  0  0
   -7.4021   -1.4655  -21.2839 C   0  0  0  0  0  0  0  0  0  0  0  0
   -6.5781   -0.8276  -20.1844 C   0  0  0  0  0  0  0  0  0  0  0  0
   -6.8720   -1.0449  -18.8628 C   0  0  0  0  0  0  0  0  0  0  0  0
   -6.1840   -0.5406  -17.8030 N   0  0  0  0  0  0  0  0  0  0  0  0
   -5.1558    0.2250  -18.0671 C   0  0  0  0  0  0  0  0  0  0  0  0
   -4.7186    0.5341  -19.3809 C   0  0  0  0  0  0  0  0  0  0  0  0
   -3.5909    1.3575  -19.6228 C   0  0  0  0  0  0  0  0  0  0  0  0
   -3.1898    1.6342  -20.9011 C   0  0  0  0  0  0  0  0  0  0  0  0
   -3.9039    1.0939  -21.9919 C   0  0  0  0  0  0  0  0  0  0  0  0
   -4.9985    0.2909  -21.7837 C   0  0  0  0  0  0  0  0  0  0  0  0
   -5.4452   -0.0091  -20.4737 C   0  0  0  0  0  0  0  0  0  0  0  0
   -5.5247   -0.1258  -22.6365 H   0  0  0  0  0  0  0  0  0  0  0  0
   -3.5790    1.3084  -23.0055 H   0  0  0  0  0  0  0  0  0  0  0  0
   -2.3282    2.2709  -21.0881 H   0  0  0  0  0  0  0  0  0  0  0  0
   -3.0574    1.7746  -18.7708 H   0  0  0  0  0  0  0  0  0  0  0  0
   -4.6019    0.6295  -17.2159 H   0  0  0  0  0  0  0  0  0  0  0  0
   -7.7194   -1.6705  -18.5856 H   0  0  0  0  0  0  0  0  0  0  0  0
   -7.6459   -0.7175  -22.0471 H   0  0  0  0  0  0  0  0  0  0  0  0
   -8.3634   -1.7867  -20.8575 H   0  0  0  0  0  0  0  0  0  0  0  0
   -6.1042   -4.7617  -24.7174 C   0  0  0  0  0  0  0  0  0  0  0  0
   -5.9417   -3.9267  -25.3858 H   0  0  0  0  0  0  0  0  0  0  0  0
   -7.4623   -5.4892  -21.6781 H   0  0  0  0  0  0  0  0  0  0  0  0
   -6.7306   -7.7501  -22.3657 H   0  0  0  0  0  0  0  0  0  0  0  0
   -5.5718   -8.1133  -24.5037 H   0  0  0  0  0  0  0  0  0  0  0  0
   -5.1381   -7.1515  -26.7684 H   0  0  0  0  0  0  0  0  0  0  0  0
   -4.4211   -6.1215  -28.9556 H   0  0  0  0  0  0  0  0  0  0  0  0
   -3.3481   -4.7324  -28.7796 H   0  0  0  0  0  0  0  0  0  0  0  0
   -2.0289   -6.7985  -29.3120 H   0  0  0  0  0  0  0  0  0  0  0  0
   -1.5915   -6.1589  -27.7238 H   0  0  0  0  0  0  0  0  0  0  0  0
   -2.6586   -7.5655  -27.8456 H   0  0  0  0  0  0  0  0  0  0  0  0
  1  2  1  0
  2  3  1  0
  3  4  2  0
  3  5  1  0
  5  6  1  0
  6  7  2  0
  7  8  1  0
  8  9  2  0
  9 10  1  0
 10 11  1  0
 11 12  1  0
 12 13  1  0
 13 14  2  0
 14 15  1  0
 15 16  2  0
 16 17  1  0
 17 18  2  0
 18 19  1  0
 17 20  1  0
 16 21  1  0
 15 22  1  0
 14 23  1  0
 12 24  1  0
 12 25  1  0
 11 26  1  0
 26 27  2  0
 26 28  1  0
 28 29  1  0
 29 30  2  0
 30 31  1  0
 31 32  2  0
 32 33  1  0
 33 34  2  0
 34 35  1  0
 35 36  2  0
 36 37  1  0
 37 38  2  0
 37 39  1  0
 36 40  1  0
 35 41  1  0
 34 42  1  0
 32 43  1  0
 30 44  1  0
 28 45  1  0
 28 46  1  0
 10 47  2  0
 47 48  1  0
  9 49  1  0
  8 50  1  0
  7 51  1  0
  5 52  1  0
  2 53  1  0
  2 54  1  0
  1 55  1  0
  1 56  1  0
  1 57  1  0
 47  6  1  0
 18 13  1  0
 38 29  1  0
 38 33  1  0
M  END
>  <cnnaffinities>  (50) 
[6.29517, 6.04358, 5.99773, 6.10072, 5.5883, 5.85682, 6.24669, 6.11629, 6.29952, 6.32122, 5.85572, 6.26882]

>  <score>  (50) 
6.29517

>  <index>  (50) 
52

>  <Smiles>  (50) 
C(C(C(=O)N(c1c(c(c(c(N(C(c2c(c(c(c(c2[H])[H])[H])[H])[H])([H])[H])C(=O)C(c2c(nc(c3c(c(c(c(c23)[H])[H])[H])[H])[H])[H])([H])[H])c1[H])[H])[H])[H])[H])([H])[H])([H])([H])[H]

>  <h>  (50) 
<NA>

>  <Training>  (50) 
True

>  <Success>  (50) 
True

>  <enamine_searched>  (50) 
False

>  <enamine_id>  (50) 
nan

$$$$

     RDKit          3D

 59 63  0  0  0  0  0  0  0  0999 V2000
  -13.9545   -1.0917  -24.5286 C   0  0  0  0  0  0  0  0  0  0  0  0
  -14.8350   -2.1389  -23.8610 C   0  0  0  0  0  0  0  0  0  0  0  0
  -14.0388   -3.1604  -23.2203 N   0  0  0  0  0  0  0  0  0  0  0  0
  -13.3200   -2.8392  -22.1119 C   0  0  0  0  0  0  0  0  0  0  0  0
  -13.3942   -1.7629  -21.5431 O   0  0  0  0  0  0  0  0  0  0  0  0
  -12.4157   -3.9706  -21.6558 C   0  0  0  0  0  0  0  0  0  0  0  0
  -11.0963   -3.8974  -22.2536 N   0  0  0  0  0  0  0  0  0  0  0  0
   -9.9763   -3.3799  -21.4781 C   0  0  0  0  0  0  0  0  0  0  0  0
   -8.7908   -2.9153  -22.3533 C   0  0  2  0  0  0  0  0  0  0  0  0
   -7.5615   -2.7034  -21.4552 C   0  0  0  0  0  0  0  0  0  0  0  0
   -6.8175   -3.5577  -21.0228 O   0  0  0  0  0  0  0  0  0  0  0  0
   -7.4014   -1.3500  -21.2399 N   0  0  0  0  0  0  0  0  0  0  0  0
   -6.5836   -0.8536  -20.1968 C   0  0  0  0  0  0  0  0  0  0  0  0
   -6.8897   -1.1044  -18.8815 C   0  0  0  0  0  0  0  0  0  0  0  0
   -6.2153   -0.5756  -17.8305 N   0  0  0  0  0  0  0  0  0  0  0  0
   -5.2015    0.2093  -18.0951 C   0  0  0  0  0  0  0  0  0  0  0  0
   -4.7557    0.5202  -19.4111 C   0  0  0  0  0  0  0  0  0  0  0  0
   -3.6291    1.3506  -19.6410 C   0  0  0  0  0  0  0  0  0  0  0  0
   -3.2247    1.6198  -20.9189 C   0  0  0  0  0  0  0  0  0  0  0  0
   -3.9260    1.0802  -22.0182 C   0  0  0  0  0  0  0  0  0  0  0  0
   -5.0209    0.2722  -21.8223 C   0  0  0  0  0  0  0  0  0  0  0  0
   -5.4647   -0.0187  -20.5040 C   0  0  0  0  0  0  0  0  0  0  0  0
   -5.5404   -0.1575  -22.6713 H   0  0  0  0  0  0  0  0  0  0  0  0
   -3.5932    1.2984  -23.0283 H   0  0  0  0  0  0  0  0  0  0  0  0
   -2.3651    2.2593  -21.0955 H   0  0  0  0  0  0  0  0  0  0  0  0
   -3.1132    1.7658  -18.7805 H   0  0  0  0  0  0  0  0  0  0  0  0
   -4.6648    0.6319  -17.2461 H   0  0  0  0  0  0  0  0  0  0  0  0
   -7.7290   -1.7491  -18.6321 H   0  0  0  0  0  0  0  0  0  0  0  0
   -8.3975   -0.5252  -21.9042 C   0  0  0  0  0  0  0  0  0  0  0  0
   -9.0107   -1.4761  -22.9441 C   0  0  2  0  0  0  0  0  0  0  0  0
  -10.4556   -1.1340  -23.2740 C   0  0  0  0  0  0  0  0  0  0  0  0
  -10.5411   -0.1682  -23.7774 H   0  0  0  0  0  0  0  0  0  0  0  0
  -11.0617   -1.0975  -22.3612 H   0  0  0  0  0  0  0  0  0  0  0  0
  -10.8881   -1.9002  -23.9244 H   0  0  0  0  0  0  0  0  0  0  0  0
   -8.3993   -1.4332  -23.8577 H   0  0  0  0  0  0  0  0  0  0  0  0
   -7.9331    0.3546  -22.3648 H   0  0  0  0  0  0  0  0  0  0  0  0
   -9.1564   -0.1621  -21.1895 H   0  0  0  0  0  0  0  0  0  0  0  0
   -8.5275   -3.9696  -23.3985 C   0  0  0  0  0  0  0  0  0  0  0  0
   -7.2533   -4.0968  -23.9566 C   0  0  0  0  0  0  0  0  0  0  0  0
   -7.0275   -5.0337  -24.9482 C   0  0  0  0  0  0  0  0  0  0  0  0
   -5.4533   -5.1224  -25.6813 Cl  0  0  0  0  0  0  0  0  0  0  0  0
   -8.0364   -5.8881  -25.3939 C   0  0  0  0  0  0  0  0  0  0  0  0
   -9.2986   -5.7572  -24.8445 C   0  0  0  0  0  0  0  0  0  0  0  0
   -9.5544   -4.7801  -23.8867 C   0  0  0  0  0  0  0  0  0  0  0  0
  -10.9486   -4.5864  -23.4190 C   0  0  0  0  0  0  0  0  0  0  0  0
  -11.9206   -5.0089  -24.0511 O   0  0  0  0  0  0  0  0  0  0  0  0
  -10.1147   -6.4042  -25.1492 H   0  0  0  0  0  0  0  0  0  0  0  0
   -7.8330   -6.6190  -26.1724 H   0  0  0  0  0  0  0  0  0  0  0  0
   -6.4352   -3.4730  -23.6118 H   0  0  0  0  0  0  0  0  0  0  0  0
   -9.6475   -4.1628  -20.7887 H   0  0  0  0  0  0  0  0  0  0  0  0
  -10.3362   -2.5154  -20.9086 H   0  0  0  0  0  0  0  0  0  0  0  0
  -12.8751   -4.8692  -22.0542 H   0  0  0  0  0  0  0  0  0  0  0  0
  -12.3548   -4.0369  -20.5687 H   0  0  0  0  0  0  0  0  0  0  0  0
  -13.6415   -3.8980  -23.7976 H   0  0  0  0  0  0  0  0  0  0  0  0
  -15.4386   -1.6752  -23.0740 H   0  0  0  0  0  0  0  0  0  0  0  0
  -15.5024   -2.6487  -24.5596 H   0  0  0  0  0  0  0  0  0  0  0  0
  -14.5445   -0.3312  -25.0360 H   0  0  0  0  0  0  0  0  0  0  0  0
  -13.2738   -1.5446  -25.2620 H   0  0  0  0  0  0  0  0  0  0  0  0
  -13.3666   -0.5980  -23.7491 H   0  0  0  0  0  0  0  0  0  0  0  0
  1  2  1  0
  2  3  1  0
  3  4  1  0
  4  5  2  0
  4  6  1  0
  6  7  1  0
  7  8  1  0
  9  8  1  1
  9 10  1  0
 10 11  2  0
 10 12  1  0
 12 13  1  0
 13 14  2  0
 14 15  1  0
 15 16  2  0
 16 17  1  0
 17 18  2  0
 18 19  1  0
 19 20  2  0
 20 21  1  0
 21 22  2  0
 21 23  1  0
 20 24  1  0
 19 25  1  0
 18 26  1  0
 16 27  1  0
 14 28  1  0
 12 29  1  0
 29 30  1  0
 30 31  1  0
 31 32  1  0
 31 33  1  0
 31 34  1  0
 30 35  1  6
 29 36  1  0
 29 37  1  0
  9 38  1  0
 38 39  2  0
 39 40  1  0
 40 41  1  0
 40 42  2  0
 42 43  1  0
 43 44  2  0
 44 45  1  0
 45 46  2  0
 43 47  1  0
 42 48  1  0
 39 49  1  0
  8 50  1  0
  8 51  1  0
  6 52  1  0
  6 53  1  0
  3 54  1  0
  2 55  1  0
  2 56  1  0
  1 57  1  0
  1 58  1  0
  1 59  1  0
 45  7  1  0
 30  9  1  0
 44 38  1  0
 22 13  1  0
 22 17  1  0
M  END
>  <cnnaffinities>  (51) 
[6.60813]

>  <score>  (51) 
6.60813

>  <index>  (51) 
53

>  <Smiles>  (51) 
C(C(N(C(=O)C(N1C([C@@]2(C(=O)N(c3c(nc(c4c(c(c(c(c34)[H])[H])[H])[H])[H])[H])C([C@@]2(C([H])([H])[H])[H])([H])[H])c2c(c(Cl)c(c(c2C1=O)[H])[H])[H])([H])[H])([H])[H])[H])([H])[H])([H])([H])[H]

>  <h>  (51) 
<NA>

>  <Training>  (51) 
True

>  <Success>  (51) 
True

>  <enamine_searched>  (51) 
False

>  <enamine_id>  (51) 
nan

$$$$

     RDKit          3D

 40 43  0  0  0  0  0  0  0  0999 V2000
  -10.3204   -2.6556  -22.7797 C   0  0  0  0  0  0  0  0  0  0  0  0
   -8.9710   -2.2752  -22.4188 N   0  0  0  0  0  0  0  0  0  0  0  0
   -7.7680   -2.7049  -22.9007 C   0  0  0  0  0  0  0  0  0  0  0  0
   -7.6554   -3.6320  -24.0555 C   0  0  0  0  0  0  0  0  0  0  0  0
   -7.8710   -5.0469  -23.5789 C   0  0  0  0  0  0  0  0  0  0  0  0
   -9.0302   -5.7481  -23.8985 C   0  0  0  0  0  0  0  0  0  0  0  0
   -9.1457   -7.0875  -23.5484 C   0  0  0  0  0  0  0  0  0  0  0  0
   -8.1711   -7.6716  -22.7489 C   0  0  0  0  0  0  0  0  0  0  0  0
   -7.0482   -6.9514  -22.3504 C   0  0  0  0  0  0  0  0  0  0  0  0
   -6.8862   -5.6427  -22.7900 C   0  0  0  0  0  0  0  0  0  0  0  0
   -5.9827   -5.0756  -22.5631 H   0  0  0  0  0  0  0  0  0  0  0  0
   -6.2804   -7.4257  -21.7399 H   0  0  0  0  0  0  0  0  0  0  0  0
   -8.2963   -8.6977  -22.4390 H   0  0  0  0  0  0  0  0  0  0  0  0
   -9.9826   -7.6902  -23.9068 H   0  0  0  0  0  0  0  0  0  0  0  0
   -9.8531   -5.2393  -24.4094 H   0  0  0  0  0  0  0  0  0  0  0  0
   -8.3901   -3.3892  -24.8329 H   0  0  0  0  0  0  0  0  0  0  0  0
   -6.6645   -3.5234  -24.5103 H   0  0  0  0  0  0  0  0  0  0  0  0
   -6.7708   -2.2623  -22.1931 N   0  0  0  0  0  0  0  0  0  0  0  0
   -7.3366   -1.4404  -21.2540 N   0  0  0  0  0  0  0  0  0  0  0  0
   -6.5761   -0.8566  -20.2063 C   0  0  0  0  0  0  0  0  0  0  0  0
   -6.9004   -1.0733  -18.8858 C   0  0  0  0  0  0  0  0  0  0  0  0
   -6.2102   -0.5573  -17.8437 N   0  0  0  0  0  0  0  0  0  0  0  0
   -5.1789    0.2022  -18.1078 C   0  0  0  0  0  0  0  0  0  0  0  0
   -4.7353    0.5142  -19.4193 C   0  0  0  0  0  0  0  0  0  0  0  0
   -3.6138    1.3574  -19.6377 C   0  0  0  0  0  0  0  0  0  0  0  0
   -3.2273    1.6686  -20.9090 C   0  0  0  0  0  0  0  0  0  0  0  0
   -3.9562    1.1617  -22.0078 C   0  0  0  0  0  0  0  0  0  0  0  0
   -5.0405    0.3428  -21.8252 C   0  0  0  0  0  0  0  0  0  0  0  0
   -5.4524   -0.0240  -20.5127 C   0  0  0  0  0  0  0  0  0  0  0  0
   -5.5927   -0.0527  -22.6704 H   0  0  0  0  0  0  0  0  0  0  0  0
   -3.6423    1.4111  -23.0176 H   0  0  0  0  0  0  0  0  0  0  0  0
   -2.3659    2.3122  -21.0825 H   0  0  0  0  0  0  0  0  0  0  0  0
   -3.0916    1.7515  -18.7696 H   0  0  0  0  0  0  0  0  0  0  0  0
   -4.6355    0.6100  -17.2555 H   0  0  0  0  0  0  0  0  0  0  0  0
   -7.7610   -1.6822  -18.6153 H   0  0  0  0  0  0  0  0  0  0  0  0
   -8.7018   -1.3069  -21.4520 C   0  0  0  0  0  0  0  0  0  0  0  0
   -9.4480   -0.4699  -20.9928 O   0  0  0  0  0  0  0  0  0  0  0  0
  -10.6066   -3.6287  -22.3575 H   0  0  0  0  0  0  0  0  0  0  0  0
  -10.9397   -1.8721  -22.3439 H   0  0  0  0  0  0  0  0  0  0  0  0
  -10.4493   -2.6699  -23.8674 H   0  0  0  0  0  0  0  0  0  0  0  0
  1  2  1  0
  2  3  1  0
  3  4  1  0
  4  5  1  0
  5  6  2  0
  6  7  1  0
  7  8  2  0
  8  9  1  0
  9 10  2  0
 10 11  1  0
  9 12  1  0
  8 13  1  0
  7 14  1  0
  6 15  1  0
  4 16  1  0
  4 17  1  0
  3 18  2  0
 18 19  1  0
 19 20  1  0
 20 21  2  0
 21 22  1  0
 22 23  2  0
 23 24  1  0
 24 25  2  0
 25 26  1  0
 26 27  2  0
 27 28  1  0
 28 29  2  0
 28 30  1  0
 27 31  1  0
 26 32  1  0
 25 33  1  0
 23 34  1  0
 21 35  1  0
 19 36  1  0
 36 37  2  0
  1 38  1  0
  1 39  1  0
  1 40  1  0
 36  2  1  0
 10  5  1  0
 29 20  1  0
 29 24  1  0
M  END
>  <cnnaffinities>  (52) 
[4.49815, 4.49815, 5.49981, 5.49629, 5.47614, 5.4777]

>  <score>  (52) 
4.49815

>  <index>  (52) 
54

>  <Smiles>  (52) 
C(n1c(C(c2c(c(c(c(c2[H])[H])[H])[H])[H])([H])[H])nn(c2c(nc(c3c(c(c(c(c23)[H])[H])[H])[H])[H])[H])c1=O)([H])([H])[H]

>  <h>  (52) 
<NA>

>  <Training>  (52) 
True

>  <Success>  (52) 
True

>  <enamine_searched>  (52) 
False

>  <enamine_id>  (52) 
nan

$$$$

     RDKit          3D

 61 66  0  0  0  0  0  0  0  0999 V2000
   -9.1415   -4.6278  -25.8227 C   0  0  0  0  0  0  0  0  0  0  0  0
   -9.3234   -4.0084  -24.5705 O   0  0  0  0  0  0  0  0  0  0  0  0
   -8.1030   -3.6480  -23.9718 C   0  0  0  0  0  0  0  0  0  0  0  0
   -8.3709   -2.9237  -22.6604 C   0  0  1  0  0  0  0  0  0  0  0  0
   -7.0625   -2.5309  -21.9609 C   0  0  0  0  0  0  0  0  0  0  0  0
   -7.4149   -1.3489  -21.2034 N   0  0  0  0  0  0  0  0  0  0  0  0
   -6.6091   -0.7993  -20.1756 C   0  0  0  0  0  0  0  0  0  0  0  0
   -6.9145   -1.0401  -18.8592 C   0  0  0  0  0  0  0  0  0  0  0  0
   -6.2061   -0.5513  -17.8138 N   0  0  0  0  0  0  0  0  0  0  0  0
   -5.1768    0.2135  -18.0838 C   0  0  0  0  0  0  0  0  0  0  0  0
   -4.7474    0.5371  -19.4016 C   0  0  0  0  0  0  0  0  0  0  0  0
   -3.6256    1.3736  -19.6423 C   0  0  0  0  0  0  0  0  0  0  0  0
   -3.2358    1.6603  -20.9221 C   0  0  0  0  0  0  0  0  0  0  0  0
   -3.9361    1.1153  -22.0188 C   0  0  0  0  0  0  0  0  0  0  0  0
   -5.0148    0.2862  -21.8093 C   0  0  0  0  0  0  0  0  0  0  0  0
   -5.4631   -0.0066  -20.4918 C   0  0  0  0  0  0  0  0  0  0  0  0
   -5.5644   -0.0970  -22.6630 H   0  0  0  0  0  0  0  0  0  0  0  0
   -3.6201    1.3660  -23.0296 H   0  0  0  0  0  0  0  0  0  0  0  0
   -2.3834    2.3076  -21.1014 H   0  0  0  0  0  0  0  0  0  0  0  0
   -3.0912    1.7731  -18.7864 H   0  0  0  0  0  0  0  0  0  0  0  0
   -4.6078    0.6115  -17.2418 H   0  0  0  0  0  0  0  0  0  0  0  0
   -7.7774   -1.6557  -18.6116 H   0  0  0  0  0  0  0  0  0  0  0  0
   -8.6404   -0.8105  -21.5326 C   0  0  0  0  0  0  0  0  0  0  0  0
   -9.1477    0.1446  -20.9873 O   0  0  0  0  0  0  0  0  0  0  0  0
   -9.2231   -1.6247  -22.7137 C   0  0  1  0  0  0  0  0  0  0  0  0
   -9.0028   -0.8618  -24.0395 C   0  0  0  0  0  0  0  0  0  0  0  0
   -9.8190    0.3348  -24.1175 N   0  0  0  0  0  0  0  0  0  0  0  0
   -9.1912    1.5539  -24.5983 C   0  0  0  0  0  0  0  0  0  0  0  0
   -8.3403    2.2291  -23.5609 C   0  0  0  0  0  0  0  0  0  0  0  0
   -6.9959    2.2814  -23.4105 C   0  0  0  0  0  0  0  0  0  0  0  0
   -6.7236    3.0275  -22.2891 N   0  0  0  0  0  4  0  0  0  0  0  0
   -7.8674    3.4425  -21.7548 C   0  0  0  0  0  0  0  0  0  0  0  0
   -8.8754    2.9597  -22.5061 N   0  0  0  0  0  0  0  0  0  0  0  0
   -9.8465    2.9465  -22.2204 H   0  0  0  0  0  0  0  0  0  0  0  0
   -7.9406    4.1056  -20.9030 H   0  0  0  0  0  0  0  0  0  0  0  0
   -5.8063    3.0566  -21.8621 H   0  0  0  0  0  0  0  0  0  0  0  0
   -6.1671    1.8508  -23.9556 H   0  0  0  0  0  0  0  0  0  0  0  0
   -8.5928    1.2998  -25.4858 H   0  0  0  0  0  0  0  0  0  0  0  0
  -10.0032    2.2123  -24.9186 H   0  0  0  0  0  0  0  0  0  0  0  0
  -11.1636    0.3004  -23.8708 C   0  0  0  0  0  0  0  0  0  0  0  0
  -11.9335    1.1835  -24.2253 O   0  0  0  0  0  0  0  0  0  0  0  0
  -11.6345   -0.9008  -23.1102 C   0  0  0  0  0  0  0  0  0  0  0  0
  -13.0089   -1.0362  -22.9122 C   0  0  0  0  0  0  0  0  0  0  0  0
  -13.4967   -2.0385  -22.0987 C   0  0  0  0  0  0  0  0  0  0  0  0
  -12.5876   -2.9025  -21.4921 C   0  0  0  0  0  0  0  0  0  0  0  0
  -13.1747   -4.0716  -20.3524 Cl  0  0  0  0  0  0  0  0  0  0  0  0
  -11.2290   -2.8178  -21.7287 C   0  0  0  0  0  0  0  0  0  0  0  0
  -10.7214   -1.8100  -22.5528 C   0  0  0  0  0  0  0  0  0  0  0  0
  -10.5759   -3.5276  -21.2327 H   0  0  0  0  0  0  0  0  0  0  0  0
  -14.5543   -2.1500  -21.8897 H   0  0  0  0  0  0  0  0  0  0  0  0
  -13.6713   -0.3178  -23.3852 H   0  0  0  0  0  0  0  0  0  0  0  0
   -9.2579   -1.5412  -24.8590 H   0  0  0  0  0  0  0  0  0  0  0  0
   -7.9524   -0.5697  -24.1448 H   0  0  0  0  0  0  0  0  0  0  0  0
   -6.2789   -2.3153  -22.7028 H   0  0  0  0  0  0  0  0  0  0  0  0
   -6.6967   -3.3220  -21.2968 H   0  0  0  0  0  0  0  0  0  0  0  0
   -8.8967   -3.6288  -22.0202 H   0  0  0  0  0  0  0  0  0  0  0  0
   -7.5137   -2.9991  -24.6437 H   0  0  0  0  0  0  0  0  0  0  0  0
   -7.4978   -4.5502  -23.7746 H   0  0  0  0  0  0  0  0  0  0  0  0
   -8.5137   -5.5313  -25.7466 H   0  0  0  0  0  0  0  0  0  0  0  0
  -10.1251   -4.9196  -26.1972 H   0  0  0  0  0  0  0  0  0  0  0  0
   -8.6810   -3.9420  -26.5533 H   0  0  0  0  0  0  0  0  0  0  0  0
  1  2  1  0
  2  3  1  0
  3  4  1  0
  4  5  1  0
  5  6  1  0
  6  7  1  0
  7  8  2  0
  8  9  1  0
  9 10  2  0
 10 11  1  0
 11 12  2  0
 12 13  1  0
 13 14  2  0
 14 15  1  0
 15 16  2  0
 15 17  1  0
 14 18  1  0
 13 19  1  0
 12 20  1  0
 10 21  1  0
  8 22  1  0
  6 23  1  0
 23 24  2  0
 23 25  1  0
 25 26  1  6
 26 27  1  0
 27 28  1  0
 28 29  1  0
 29 30  2  0
 30 31  1  0
 31 32  2  0
 32 33  1  0
 33 34  1  0
 32 35  1  0
 31 36  1  0
 30 37  1  0
 28 38  1  0
 28 39  1  0
 27 40  1  0
 40 41  2  0
 40 42  1  0
 42 43  2  0
 43 44  1  0
 44 45  2  0
 45 46  1  0
 45 47  1  0
 47 48  2  0
 47 49  1  0
 44 50  1  0
 43 51  1  0
 26 52  1  0
 26 53  1  0
  5 54  1  0
  5 55  1  0
  4 56  1  1
  3 57  1  0
  3 58  1  0
  1 59  1  0
  1 60  1  0
  1 61  1  0
 25  4  1  0
 33 29  1  0
 48 42  1  0
 16  7  1  0
 48 25  1  0
 16 11  1  0
M  CHG  1  31   1
M  END
>  <cnnaffinities>  (53) 
[6.71438, 6.59576, 6.78513]

>  <score>  (53) 
6.71438

>  <index>  (53) 
55

>  <Smiles>  (53) 
C(OC([C@]1(C(N(c2c(nc(c3c(c(c(c(c23)[H])[H])[H])[H])[H])[H])C(=O)[C@]21C(N(C(c1c([n+](c(n1[H])[H])[H])[H])([H])[H])C(=O)c1c(c(c(Cl)c(c21)[H])[H])[H])([H])[H])([H])[H])[H])([H])[H])([H])([H])[H]

>  <h>  (53) 
<NA>

>  <Training>  (53) 
True

>  <Success>  (53) 
True

>  <enamine_searched>  (53) 
False

>  <enamine_id>  (53) 
nan

$$$$

     RDKit          3D

 57 62  0  0  0  0  0  0  0  0999 V2000
  -10.4688   -1.1379  -23.2456 C   0  0  0  0  0  0  0  0  0  0  0  0
   -9.0234   -1.4873  -22.9266 C   0  0  1  0  0  0  0  0  0  0  0  0
   -8.3942   -0.5275  -21.9064 C   0  0  0  0  0  0  0  0  0  0  0  0
   -7.4036   -1.3458  -21.2303 N   0  0  0  0  0  0  0  0  0  0  0  0
   -6.5850   -0.8443  -20.1909 C   0  0  0  0  0  0  0  0  0  0  0  0
   -6.8900   -1.0927  -18.8763 C   0  0  0  0  0  0  0  0  0  0  0  0
   -6.2108   -0.5690  -17.8257 N   0  0  0  0  0  0  0  0  0  0  0  0
   -5.1921    0.2112  -18.0880 C   0  0  0  0  0  0  0  0  0  0  0  0
   -4.7505    0.5224  -19.4061 C   0  0  0  0  0  0  0  0  0  0  0  0
   -3.6235    1.3501  -19.6397 C   0  0  0  0  0  0  0  0  0  0  0  0
   -3.2200    1.6197  -20.9183 C   0  0  0  0  0  0  0  0  0  0  0  0
   -3.9238    1.0793  -22.0171 C   0  0  0  0  0  0  0  0  0  0  0  0
   -5.0183    0.2742  -21.8176 C   0  0  0  0  0  0  0  0  0  0  0  0
   -5.4630   -0.0150  -20.4995 C   0  0  0  0  0  0  0  0  0  0  0  0
   -5.5394   -0.1542  -22.6671 H   0  0  0  0  0  0  0  0  0  0  0  0
   -3.5917    1.2984  -23.0278 H   0  0  0  0  0  0  0  0  0  0  0  0
   -2.3612    2.2587  -21.0973 H   0  0  0  0  0  0  0  0  0  0  0  0
   -3.1042    1.7664  -18.7810 H   0  0  0  0  0  0  0  0  0  0  0  0
   -4.6495    0.6351  -17.2403 H   0  0  0  0  0  0  0  0  0  0  0  0
   -7.7305   -1.7356  -18.6248 H   0  0  0  0  0  0  0  0  0  0  0  0
   -7.5668   -2.6973  -21.4362 C   0  0  0  0  0  0  0  0  0  0  0  0
   -6.8177   -3.5535  -21.0058 O   0  0  0  0  0  0  0  0  0  0  0  0
   -8.7961   -2.9209  -22.3315 C   0  0  1  0  0  0  0  0  0  0  0  0
   -9.9848   -3.3958  -21.4655 C   0  0  0  0  0  0  0  0  0  0  0  0
  -11.1003   -3.9177  -22.2479 N   0  0  0  0  0  0  0  0  0  0  0  0
  -12.4544   -3.8757  -21.7025 C   0  0  0  0  0  0  0  0  0  0  0  0
  -13.3248   -2.8411  -22.3678 C   0  0  0  0  0  0  0  0  0  0  0  0
  -13.7792   -3.2230  -23.5764 N   0  0  0  0  0  0  0  0  0  0  0  0
  -14.5049   -2.3522  -24.2484 C   0  0  0  0  0  0  0  0  0  0  0  0
  -14.8055   -1.1130  -23.7090 C   0  0  0  0  0  0  0  0  0  0  0  0
  -14.3719   -0.8561  -22.4342 C   0  0  0  0  0  0  0  0  0  0  0  0
  -13.5977   -1.7033  -21.7436 N   0  0  0  0  0  0  0  0  0  0  0  0
  -14.6569    0.0768  -21.9659 H   0  0  0  0  0  0  0  0  0  0  0  0
  -15.3800   -0.3703  -24.2143 H   0  0  0  0  0  0  0  0  0  0  0  0
  -14.8515   -2.6424  -25.2384 H   0  0  0  0  0  0  0  0  0  0  0  0
  -12.9107   -4.8120  -22.0023 H   0  0  0  0  0  0  0  0  0  0  0  0
  -12.4491   -3.7806  -20.6146 H   0  0  0  0  0  0  0  0  0  0  0  0
  -10.9152   -4.7038  -23.3515 C   0  0  0  0  0  0  0  0  0  0  0  0
  -11.8366   -5.2604  -23.9282 O   0  0  0  0  0  0  0  0  0  0  0  0
   -9.5198   -4.8293  -23.8306 C   0  0  0  0  0  0  0  0  0  0  0  0
   -9.2757   -5.7907  -24.8055 C   0  0  0  0  0  0  0  0  0  0  0  0
   -8.0294   -5.9020  -25.3809 C   0  0  0  0  0  0  0  0  0  0  0  0
   -7.0400   -5.0345  -24.9349 C   0  0  0  0  0  0  0  0  0  0  0  0
   -5.8332   -5.1031  -25.5164 F   0  0  0  0  0  0  0  0  0  0  0  0
   -7.2483   -4.0960  -23.9432 C   0  0  0  0  0  0  0  0  0  0  0  0
   -8.5148   -3.9808  -23.3683 C   0  0  0  0  0  0  0  0  0  0  0  0
   -6.4267   -3.4678  -23.6197 H   0  0  0  0  0  0  0  0  0  0  0  0
   -7.8212   -6.6212  -26.1649 H   0  0  0  0  0  0  0  0  0  0  0  0
  -10.0997   -6.4322  -25.0918 H   0  0  0  0  0  0  0  0  0  0  0  0
   -9.6496   -4.1678  -20.7698 H   0  0  0  0  0  0  0  0  0  0  0  0
  -10.3583   -2.5413  -20.8957 H   0  0  0  0  0  0  0  0  0  0  0  0
   -7.9293    0.3403  -22.3860 H   0  0  0  0  0  0  0  0  0  0  0  0
   -9.1426   -0.1494  -21.1936 H   0  0  0  0  0  0  0  0  0  0  0  0
   -8.4233   -1.4528  -23.8462 H   0  0  0  0  0  0  0  0  0  0  0  0
  -10.5374   -0.1760  -23.7581 H   0  0  0  0  0  0  0  0  0  0  0  0
  -11.0555   -1.0714  -22.3229 H   0  0  0  0  0  0  0  0  0  0  0  0
  -10.9176   -1.9094  -23.8769 H   0  0  0  0  0  0  0  0  0  0  0  0
  1  2  1  0
  2  3  1  0
  3  4  1  0
  4  5  1  0
  5  6  2  0
  6  7  1  0
  7  8  2  0
  8  9  1  0
  9 10  2  0
 10 11  1  0
 11 12  2  0
 12 13  1  0
 13 14  2  0
 13 15  1  0
 12 16  1  0
 11 17  1  0
 10 18  1  0
  8 19  1  0
  6 20  1  0
  4 21  1  0
 21 22  2  0
 21 23  1  0
 23 24  1  1
 24 25  1  0
 25 26  1  0
 26 27  1  0
 27 28  2  0
 28 29  1  0
 29 30  2  0
 30 31  1  0
 31 32  2  0
 31 33  1  0
 30 34  1  0
 29 35  1  0
 26 36  1  0
 26 37  1  0
 25 38  1  0
 38 39  2  0
 38 40  1  0
 40 41  2  0
 41 42  1  0
 42 43  2  0
 43 44  1  0
 43 45  1  0
 45 46  2  0
 45 47  1  0
 42 48  1  0
 41 49  1  0
 24 50  1  0
 24 51  1  0
  3 52  1  0
  3 53  1  0
  2 54  1  6
  1 55  1  0
  1 56  1  0
  1 57  1  0
 23  2  1  0
 32 27  1  0
 46 40  1  0
 14  5  1  0
 46 23  1  0
 14  9  1  0
M  END
>  <cnnaffinities>  (54) 
[6.76961, 6.77137, 6.3742]

>  <score>  (54) 
6.76961

>  <index>  (54) 
56

>  <Smiles>  (54) 
C([C@]1(C(N(c2c(nc(c3c(c(c(c(c23)[H])[H])[H])[H])[H])[H])C(=O)[C@]21C(N(C(c1nc(c(c(n1)[H])[H])[H])([H])[H])C(=O)c1c(c(c(F)c(c21)[H])[H])[H])([H])[H])([H])[H])[H])([H])([H])[H]

>  <h>  (54) 
<NA>

>  <Training>  (54) 
True

>  <Success>  (54) 
True

>  <enamine_searched>  (54) 
False

>  <enamine_id>  (54) 
nan

$$$$

     RDKit          3D

 59 63  0  0  0  0  0  0  0  0999 V2000
  -14.4943   -1.2952  -23.5323 C   0  0  0  0  0  0  0  0  0  0  0  0
  -13.7728   -2.4888  -23.1355 N   0  0  0  0  0  0  0  0  0  0  0  0
  -13.4819   -2.7052  -21.8232 C   0  0  0  0  0  0  0  0  0  0  0  0
  -13.9507   -2.0277  -20.9243 O   0  0  0  0  0  0  0  0  0  0  0  0
  -12.5312   -3.8841  -21.5495 C   0  0  0  0  0  0  0  0  0  0  0  0
  -11.2150   -3.7975  -22.1793 N   0  0  0  0  0  0  0  0  0  0  0  0
  -10.0606   -3.3005  -21.4279 C   0  0  0  0  0  0  0  0  0  0  0  0
   -8.8429   -2.9388  -22.3229 C   0  0  2  0  0  0  0  0  0  0  0  0
   -7.6052   -2.7120  -21.4345 C   0  0  0  0  0  0  0  0  0  0  0  0
   -6.8649   -3.5710  -20.9882 O   0  0  0  0  0  0  0  0  0  0  0  0
   -7.4076   -1.3595  -21.2572 N   0  0  0  0  0  0  0  0  0  0  0  0
   -6.5933   -0.8522  -20.2093 C   0  0  0  0  0  0  0  0  0  0  0  0
   -6.8944   -1.1035  -18.8932 C   0  0  0  0  0  0  0  0  0  0  0  0
   -6.2205   -0.5767  -17.8404 N   0  0  0  0  0  0  0  0  0  0  0  0
   -5.2072    0.2109  -18.0966 C   0  0  0  0  0  0  0  0  0  0  0  0
   -4.7623    0.5269  -19.4103 C   0  0  0  0  0  0  0  0  0  0  0  0
   -3.6327    1.3541  -19.6373 C   0  0  0  0  0  0  0  0  0  0  0  0
   -3.2237    1.6248  -20.9133 C   0  0  0  0  0  0  0  0  0  0  0  0
   -3.9263    1.0876  -22.0143 C   0  0  0  0  0  0  0  0  0  0  0  0
   -5.0241    0.2863  -21.8187 C   0  0  0  0  0  0  0  0  0  0  0  0
   -5.4736   -0.0115  -20.5064 C   0  0  0  0  0  0  0  0  0  0  0  0
   -5.5470   -0.1383  -22.6684 H   0  0  0  0  0  0  0  0  0  0  0  0
   -3.5887    1.3005  -23.0239 H   0  0  0  0  0  0  0  0  0  0  0  0
   -2.3607    2.2592  -21.0901 H   0  0  0  0  0  0  0  0  0  0  0  0
   -3.1111    1.7677  -18.7778 H   0  0  0  0  0  0  0  0  0  0  0  0
   -4.6693    0.6283  -17.2436 H   0  0  0  0  0  0  0  0  0  0  0  0
   -7.7315   -1.7489  -18.6393 H   0  0  0  0  0  0  0  0  0  0  0  0
   -8.4129   -0.5522  -21.9271 C   0  0  0  0  0  0  0  0  0  0  0  0
   -9.0156   -1.4973  -22.9988 C   0  0  0  0  0  0  0  0  0  0  0  0
  -10.4650   -1.1003  -23.2897 C   0  0  0  0  0  0  0  0  0  0  0  0
  -11.0707   -1.0839  -22.3787 H   0  0  0  0  0  0  0  0  0  0  0  0
  -10.9154   -1.8135  -23.9836 H   0  0  0  0  0  0  0  0  0  0  0  0
  -10.5088   -0.1056  -23.7446 H   0  0  0  0  0  0  0  0  0  0  0  0
   -8.2243   -1.4236  -24.3150 C   0  0  0  0  0  0  0  0  0  0  0  0
   -8.6275   -2.1488  -25.0301 H   0  0  0  0  0  0  0  0  0  0  0  0
   -8.3078   -0.4251  -24.7557 H   0  0  0  0  0  0  0  0  0  0  0  0
   -7.1631   -1.6636  -24.1766 H   0  0  0  0  0  0  0  0  0  0  0  0
   -7.9630    0.3462  -22.3637 H   0  0  0  0  0  0  0  0  0  0  0  0
   -9.1868   -0.2170  -21.2150 H   0  0  0  0  0  0  0  0  0  0  0  0
   -8.6061   -4.1091  -23.2540 C   0  0  0  0  0  0  0  0  0  0  0  0
   -7.3226   -4.4641  -23.6994 C   0  0  0  0  0  0  0  0  0  0  0  0
   -7.1652   -5.4704  -24.6382 C   0  0  0  0  0  0  0  0  0  0  0  0
   -5.5686   -5.8398  -25.2327 Cl  0  0  0  0  0  0  0  0  0  0  0  0
   -8.2504   -6.1881  -25.1375 C   0  0  0  0  0  0  0  0  0  0  0  0
   -9.5100   -5.8631  -24.6726 C   0  0  0  0  0  0  0  0  0  0  0  0
   -9.6914   -4.8353  -23.7523 C   0  0  0  0  0  0  0  0  0  0  0  0
  -11.0800   -4.5116  -23.3354 C   0  0  0  0  0  0  0  0  0  0  0  0
  -12.0673   -4.8676  -23.9798 O   0  0  0  0  0  0  0  0  0  0  0  0
  -10.3840   -6.4102  -25.0032 H   0  0  0  0  0  0  0  0  0  0  0  0
   -8.1048   -6.9799  -25.8668 H   0  0  0  0  0  0  0  0  0  0  0  0
   -6.4398   -3.9673  -23.3143 H   0  0  0  0  0  0  0  0  0  0  0  0
  -10.3456   -2.3951  -20.8858 H   0  0  0  0  0  0  0  0  0  0  0  0
   -9.7641   -4.0547  -20.6940 H   0  0  0  0  0  0  0  0  0  0  0  0
  -12.4501   -4.0415  -20.4701 H   0  0  0  0  0  0  0  0  0  0  0  0
  -13.0086   -4.7618  -21.9894 H   0  0  0  0  0  0  0  0  0  0  0  0
  -13.4573   -3.1548  -23.8289 H   0  0  0  0  0  0  0  0  0  0  0  0
  -13.8531   -0.4038  -23.5107 H   0  0  0  0  0  0  0  0  0  0  0  0
  -14.8860   -1.4446  -24.5411 H   0  0  0  0  0  0  0  0  0  0  0  0
  -15.3138   -1.1069  -22.8369 H   0  0  0  0  0  0  0  0  0  0  0  0
  1  2  1  0
  2  3  1  0
  3  4  2  0
  3  5  1  0
  5  6  1  0
  6  7  1  0
  8  7  1  1
  8  9  1  0
  9 10  2  0
  9 11  1  0
 11 12  1  0
 12 13  2  0
 13 14  1  0
 14 15  2  0
 15 16  1  0
 16 17  2  0
 17 18  1  0
 18 19  2  0
 19 20  1  0
 20 21  2  0
 20 22  1  0
 19 23  1  0
 18 24  1  0
 17 25  1  0
 15 26  1  0
 13 27  1  0
 11 28  1  0
 28 29  1  0
 29 30  1  0
 30 31  1  0
 30 32  1  0
 30 33  1  0
 29 34  1  0
 34 35  1  0
 34 36  1  0
 34 37  1  0
 28 38  1  0
 28 39  1  0
  8 40  1  0
 40 41  2  0
 41 42  1  0
 42 43  1  0
 42 44  2  0
 44 45  1  0
 45 46  2  0
 46 47  1  0
 47 48  2  0
 45 49  1  0
 44 50  1  0
 41 51  1  0
  7 52  1  0
  7 53  1  0
  5 54  1  0
  5 55  1  0
  2 56  1  0
  1 57  1  0
  1 58  1  0
  1 59  1  0
 47  6  1  0
 29  8  1  0
 46 40  1  0
 21 12  1  0
 21 16  1  0
M  END
>  <cnnaffinities>  (55) 
[6.67636]

>  <score>  (55) 
6.67636

>  <index>  (55) 
57

>  <Smiles>  (55) 
C(N(C(=O)C(N1C([C@@]2(C(=O)N(c3c(nc(c4c(c(c(c(c34)[H])[H])[H])[H])[H])[H])C(C2(C([H])([H])[H])C([H])([H])[H])([H])[H])c2c(c(Cl)c(c(c2C1=O)[H])[H])[H])([H])[H])([H])[H])[H])([H])([H])[H]

>  <h>  (55) 
<NA>

>  <Training>  (55) 
True

>  <Success>  (55) 
True

>  <enamine_searched>  (55) 
False

>  <enamine_id>  (55) 
nan

$$$$

     RDKit          3D

 42 45  0  0  0  0  0  0  0  0999 V2000
  -11.0123   -5.0257  -23.5507 C   0  0  0  0  0  0  0  0  0  0  0  0
  -10.1018   -3.8990  -23.6598 N   0  0  0  0  0  0  0  0  0  0  0  0
   -9.4246   -3.3955  -22.4667 C   0  0  0  0  0  0  0  0  0  0  0  0
   -9.4102   -1.8634  -22.5120 C   0  0  1  0  0  0  0  0  0  0  0  0
   -8.6582   -1.1540  -21.3892 C   0  0  0  0  0  0  0  0  0  0  0  0
   -9.1809   -0.2456  -20.7746 O   0  0  0  0  0  0  0  0  0  0  0  0
   -7.3280   -1.4727  -21.2013 N   0  0  0  0  0  0  0  0  0  0  0  0
   -6.5695   -0.8536  -20.1802 C   0  0  0  0  0  0  0  0  0  0  0  0
   -6.8969   -1.0578  -18.8671 C   0  0  0  0  0  0  0  0  0  0  0  0
   -6.2041   -0.5467  -17.8236 N   0  0  0  0  0  0  0  0  0  0  0  0
   -5.1689    0.2112  -18.0886 C   0  0  0  0  0  0  0  0  0  0  0  0
   -4.7301    0.5252  -19.4033 C   0  0  0  0  0  0  0  0  0  0  0  0
   -3.6084    1.3620  -19.6392 C   0  0  0  0  0  0  0  0  0  0  0  0
   -3.2273    1.6577  -20.9193 C   0  0  0  0  0  0  0  0  0  0  0  0
   -3.9575    1.1376  -22.0130 C   0  0  0  0  0  0  0  0  0  0  0  0
   -5.0462    0.3239  -21.8088 C   0  0  0  0  0  0  0  0  0  0  0  0
   -5.4508   -0.0143  -20.4914 C   0  0  0  0  0  0  0  0  0  0  0  0
   -5.6110   -0.0569  -22.6570 H   0  0  0  0  0  0  0  0  0  0  0  0
   -3.6515    1.3794  -23.0269 H   0  0  0  0  0  0  0  0  0  0  0  0
   -2.3723    2.3048  -21.0997 H   0  0  0  0  0  0  0  0  0  0  0  0
   -3.0783    1.7679  -18.7822 H   0  0  0  0  0  0  0  0  0  0  0  0
   -4.6246    0.6157  -17.2364 H   0  0  0  0  0  0  0  0  0  0  0  0
   -7.7516   -1.6781  -18.6066 H   0  0  0  0  0  0  0  0  0  0  0  0
   -6.8156   -1.9073  -21.9576 H   0  0  0  0  0  0  0  0  0  0  0  0
   -8.9100   -1.3784  -23.8560 C   0  0  0  0  0  0  0  0  0  0  0  0
   -8.3589   -0.1025  -23.9702 C   0  0  0  0  0  0  0  0  0  0  0  0
   -7.8819    0.3289  -25.1940 C   0  0  0  0  0  0  0  0  0  0  0  0
   -7.1333    1.8991  -25.3011 Cl  0  0  0  0  0  0  0  0  0  0  0  0
   -7.9765   -0.4772  -26.3243 C   0  0  0  0  0  0  0  0  0  0  0  0
   -8.5730   -1.7232  -26.2212 C   0  0  0  0  0  0  0  0  0  0  0  0
   -9.0497   -2.1756  -24.9921 C   0  0  0  0  0  0  0  0  0  0  0  0
   -9.7575   -3.4954  -24.9245 C   0  0  0  0  0  0  0  0  0  0  0  0
  -10.0450   -4.1514  -25.9147 O   0  0  0  0  0  0  0  0  0  0  0  0
   -8.6894   -2.3700  -27.0863 H   0  0  0  0  0  0  0  0  0  0  0  0
   -7.5963   -0.1127  -27.2701 H   0  0  0  0  0  0  0  0  0  0  0  0
   -8.2926    0.5430  -23.1016 H   0  0  0  0  0  0  0  0  0  0  0  0
  -10.4497   -1.5338  -22.3933 H   0  0  0  0  0  0  0  0  0  0  0  0
   -8.4117   -3.8201  -22.3604 H   0  0  0  0  0  0  0  0  0  0  0  0
  -10.0190   -3.7285  -21.6100 H   0  0  0  0  0  0  0  0  0  0  0  0
  -11.9874   -4.8130  -24.0093 H   0  0  0  0  0  0  0  0  0  0  0  0
  -10.6125   -5.9239  -24.0423 H   0  0  0  0  0  0  0  0  0  0  0  0
  -11.1613   -5.2032  -22.4838 H   0  0  0  0  0  0  0  0  0  0  0  0
  1  2  1  0
  2  3  1  0
  3  4  1  0
  4  5  1  0
  5  6  2  0
  5  7  1  0
  7  8  1  0
  8  9  2  0
  9 10  1  0
 10 11  2  0
 11 12  1  0
 12 13  2  0
 13 14  1  0
 14 15  2  0
 15 16  1  0
 16 17  2  0
 16 18  1  0
 15 19  1  0
 14 20  1  0
 13 21  1  0
 11 22  1  0
  9 23  1  0
  7 24  1  0
  4 25  1  0
 25 26  2  0
 26 27  1  0
 27 28  1  0
 27 29  2  0
 29 30  1  0
 30 31  2  0
 31 32  1  0
 32 33  2  0
 30 34  1  0
 29 35  1  0
 26 36  1  0
  4 37  1  1
  3 38  1  0
  3 39  1  0
  1 40  1  0
  1 41  1  0
  1 42  1  0
 32  2  1  0
 17  8  1  0
 31 25  1  0
 17 12  1  0
M  END
>  <cnnaffinities>  (56) 
[5.04857, 5.33965]

>  <score>  (56) 
5.04857

>  <index>  (56) 
58

>  <Smiles>  (56) 
C(N1C([C@@](C(=O)N(c2c(nc(c3c(c(c(c(c23)[H])[H])[H])[H])[H])[H])[H])(c2c(c(Cl)c(c(c2C1=O)[H])[H])[H])[H])([H])[H])([H])([H])[H]

>  <h>  (56) 
<NA>

>  <Training>  (56) 
True

>  <Success>  (56) 
True

>  <enamine_searched>  (56) 
False

>  <enamine_id>  (56) 
nan

$$$$

     RDKit          3D

 60 65  0  0  0  0  0  0  0  0999 V2000
   -7.3926    3.3840  -21.7814 C   0  0  0  0  0  0  0  0  0  0  0  0
   -8.2653    2.9297  -22.8514 N   0  0  0  0  0  0  0  0  0  0  0  0
   -7.7008    2.2423  -23.8710 C   0  0  0  0  0  0  0  0  0  0  0  0
   -6.4866    2.1327  -23.9900 O   0  0  0  0  0  0  0  0  0  0  0  0
   -8.6531    1.6220  -24.8991 C   0  0  0  0  0  0  0  0  0  0  0  0
   -9.3780    0.4664  -24.4026 N   0  0  0  0  0  0  0  0  0  0  0  0
   -8.6582   -0.7833  -24.2338 C   0  0  0  0  0  0  0  0  0  0  0  0
   -9.0507   -1.5010  -22.9166 C   0  0  2  0  0  0  0  0  0  0  0  0
   -8.4982   -0.7205  -21.6977 C   0  0  0  0  0  0  0  0  0  0  0  0
   -8.9376    0.3110  -21.2267 O   0  0  0  0  0  0  0  0  0  0  0  0
   -7.3973   -1.3865  -21.2077 N   0  0  0  0  0  0  0  0  0  0  0  0
   -6.5995   -0.8142  -20.1781 C   0  0  0  0  0  0  0  0  0  0  0  0
   -6.9060   -1.0436  -18.8613 C   0  0  0  0  0  0  0  0  0  0  0  0
   -6.2002   -0.5501  -17.8162 N   0  0  0  0  0  0  0  0  0  0  0  0
   -5.1660    0.2085  -18.0807 C   0  0  0  0  0  0  0  0  0  0  0  0
   -4.7288    0.5312  -19.3960 C   0  0  0  0  0  0  0  0  0  0  0  0
   -3.6025    1.3654  -19.6405 C   0  0  0  0  0  0  0  0  0  0  0  0
   -3.2165    1.6562  -20.9200 C   0  0  0  0  0  0  0  0  0  0  0  0
   -3.9406    1.1294  -22.0122 C   0  0  0  0  0  0  0  0  0  0  0  0
   -5.0335    0.3223  -21.8019 C   0  0  0  0  0  0  0  0  0  0  0  0
   -5.4643    0.0032  -20.4861 C   0  0  0  0  0  0  0  0  0  0  0  0
   -5.5876   -0.0672  -22.6515 H   0  0  0  0  0  0  0  0  0  0  0  0
   -3.6466    1.3662  -23.0295 H   0  0  0  0  0  0  0  0  0  0  0  0
   -2.3624    2.3047  -21.1003 H   0  0  0  0  0  0  0  0  0  0  0  0
   -3.0745    1.7755  -18.7829 H   0  0  0  0  0  0  0  0  0  0  0  0
   -4.6182    0.6127  -17.2287 H   0  0  0  0  0  0  0  0  0  0  0  0
   -7.7595   -1.6660  -18.6022 H   0  0  0  0  0  0  0  0  0  0  0  0
   -7.0706   -2.6069  -21.9200 C   0  0  0  0  0  0  0  0  0  0  0  0
   -8.3214   -2.8759  -22.7793 C   0  0  2  0  0  0  0  0  0  0  0  0
   -7.9813   -3.6295  -24.0846 C   0  0  0  0  0  0  0  0  0  0  0  0
   -7.4415   -4.9926  -23.7962 C   0  0  0  0  0  0  0  0  0  0  0  0
   -6.1504   -5.2843  -23.7100 N   0  0  0  0  0  0  0  0  0  0  0  0
   -6.1123   -6.5752  -23.3916 N   0  0  0  0  0  0  0  0  0  0  0  0
   -7.3345   -7.0334  -23.2968 N   0  0  0  0  0  2  0  0  0  0  0  0
   -8.1956   -6.0534  -23.5483 N   0  0  0  0  0  0  0  0  0  0  0  0
   -7.2168   -3.0980  -24.6599 H   0  0  0  0  0  0  0  0  0  0  0  0
   -8.8755   -3.7588  -24.7009 H   0  0  0  0  0  0  0  0  0  0  0  0
   -8.9863   -3.5330  -22.2125 H   0  0  0  0  0  0  0  0  0  0  0  0
   -6.8570   -3.4306  -21.2285 H   0  0  0  0  0  0  0  0  0  0  0  0
   -6.1759   -2.4800  -22.5502 H   0  0  0  0  0  0  0  0  0  0  0  0
  -10.5685   -1.5413  -22.8389 C   0  0  0  0  0  0  0  0  0  0  0  0
  -11.2019   -2.4197  -21.9516 C   0  0  0  0  0  0  0  0  0  0  0  0
  -12.5817   -2.4402  -21.8606 C   0  0  0  0  0  0  0  0  0  0  0  0
  -13.3554   -3.5377  -20.7537 Cl  0  0  0  0  0  0  0  0  0  0  0  0
  -13.3724   -1.5816  -22.6241 C   0  0  0  0  0  0  0  0  0  0  0  0
  -12.7542   -0.6641  -23.4499 C   0  0  0  0  0  0  0  0  0  0  0  0
  -11.3627   -0.6189  -23.5357 C   0  0  0  0  0  0  0  0  0  0  0  0
  -10.7449    0.5031  -24.3173 C   0  0  0  0  0  0  0  0  0  0  0  0
  -11.4230    1.3982  -24.8074 O   0  0  0  0  0  0  0  0  0  0  0  0
  -13.3186    0.0600  -24.0294 H   0  0  0  0  0  0  0  0  0  0  0  0
  -14.4517   -1.6218  -22.5385 H   0  0  0  0  0  0  0  0  0  0  0  0
  -10.6263   -3.0709  -21.3046 H   0  0  0  0  0  0  0  0  0  0  0  0
   -7.5914   -0.5404  -24.2188 H   0  0  0  0  0  0  0  0  0  0  0  0
   -8.8607   -1.4620  -25.0792 H   0  0  0  0  0  0  0  0  0  0  0  0
   -8.0207    1.3505  -25.7524 H   0  0  0  0  0  0  0  0  0  0  0  0
   -9.4217    2.3293  -25.2206 H   0  0  0  0  0  0  0  0  0  0  0  0
   -9.2589    2.8513  -22.6951 H   0  0  0  0  0  0  0  0  0  0  0  0
   -6.7923    2.5407  -21.4103 H   0  0  0  0  0  0  0  0  0  0  0  0
   -6.7057    4.1550  -22.1454 H   0  0  0  0  0  0  0  0  0  0  0  0
   -8.0019    3.8089  -20.9855 H   0  0  0  0  0  0  0  0  0  0  0  0
  1  2  1  0
  2  3  1  0
  3  4  2  0
  3  5  1  0
  5  6  1  0
  6  7  1  0
  8  7  1  6
  8  9  1  0
  9 10  2  0
  9 11  1  0
 11 12  1  0
 12 13  2  0
 13 14  1  0
 14 15  2  0
 15 16  1  0
 16 17  2  0
 17 18  1  0
 18 19  2  0
 19 20  1  0
 20 21  2  0
 20 22  1  0
 19 23  1  0
 18 24  1  0
 17 25  1  0
 15 26  1  0
 13 27  1  0
 11 28  1  0
 28 29  1  0
 29 30  1  0
 30 31  1  0
 31 32  1  0
 32 33  2  0
 33 34  1  0
 34 35  1  0
 30 36  1  0
 30 37  1  0
 29 38  1  1
 28 39  1  0
 28 40  1  0
  8 41  1  0
 41 42  2  0
 42 43  1  0
 43 44  1  0
 43 45  2  0
 45 46  1  0
 46 47  2  0
 47 48  1  0
 48 49  2  0
 46 50  1  0
 45 51  1  0
 42 52  1  0
  7 53  1  0
  7 54  1  0
  5 55  1  0
  5 56  1  0
  2 57  1  0
  1 58  1  0
  1 59  1  0
  1 60  1  0
 48  6  1  0
 29  8  1  0
 35 31  2  0
 47 41  1  0
 21 12  1  0
 21 16  1  0
M  CHG  1  34  -1
M  END
>  <cnnaffinities>  (57) 
[6.76895, 6.75502, 6.87434, 6.92021]

>  <score>  (57) 
6.76895

>  <index>  (57) 
59

>  <Smiles>  (57) 
C(N(C(=O)C(N1C([C@@]2(C(=O)N(c3c(nc(c4c(c(c(c(c34)[H])[H])[H])[H])[H])[H])C([C@@]2(C(c2nn[n-]n2)([H])[H])[H])([H])[H])c2c(c(Cl)c(c(c2C1=O)[H])[H])[H])([H])[H])([H])[H])[H])([H])([H])[H]

>  <h>  (57) 
<NA>

>  <Training>  (57) 
True

>  <Success>  (57) 
True

>  <enamine_searched>  (57) 
False

>  <enamine_id>  (57) 
nan

$$$$

     RDKit          3D

 62 67  0  0  0  0  0  0  0  0999 V2000
  -11.3177    4.3028  -25.2303 C   0  0  0  0  0  0  0  0  0  0  0  0
   -9.8240    4.1722  -25.5273 C   0  0  0  0  0  0  0  0  0  0  0  0
   -9.0687    3.5901  -24.4246 N   0  0  0  0  0  0  0  0  0  0  0  0
   -8.4880    4.4129  -23.5371 N   0  0  0  0  0  0  0  0  0  0  0  0
   -7.9035    3.6197  -22.6502 C   0  0  0  0  0  0  0  0  0  0  0  0
   -8.1114    2.2646  -22.9706 C   0  0  0  0  0  0  0  0  0  0  0  0
   -8.8911    2.2768  -24.1051 C   0  0  0  0  0  0  0  0  0  0  0  0
   -9.3914    1.1051  -24.9082 C   0  0  0  0  0  0  0  0  0  0  0  0
   -9.8533    0.0020  -24.0863 N   0  0  0  0  0  0  0  0  0  0  0  0
   -9.0378   -1.1935  -23.9801 C   0  0  0  0  0  0  0  0  0  0  0  0
   -9.2229   -1.9099  -22.6167 C   0  0  2  0  0  0  0  0  0  0  0  0
   -8.6613   -1.0276  -21.4694 C   0  0  0  0  0  0  0  0  0  0  0  0
   -9.2300   -0.1073  -20.9092 O   0  0  0  0  0  0  0  0  0  0  0  0
   -7.3767   -1.4346  -21.1922 N   0  0  0  0  0  0  0  0  0  0  0  0
   -6.5997   -0.8245  -20.1686 C   0  0  0  0  0  0  0  0  0  0  0  0
   -6.9050   -1.0486  -18.8496 C   0  0  0  0  0  0  0  0  0  0  0  0
   -6.1936   -0.5483  -17.8106 N   0  0  0  0  0  0  0  0  0  0  0  0
   -5.1640    0.2084  -18.0830 C   0  0  0  0  0  0  0  0  0  0  0  0
   -4.7311    0.5281  -19.3990 C   0  0  0  0  0  0  0  0  0  0  0  0
   -3.6076    1.3641  -19.6421 C   0  0  0  0  0  0  0  0  0  0  0  0
   -3.2277    1.6636  -20.9177 C   0  0  0  0  0  0  0  0  0  0  0  0
   -3.9576    1.1405  -22.0105 C   0  0  0  0  0  0  0  0  0  0  0  0
   -5.0493    0.3291  -21.8007 C   0  0  0  0  0  0  0  0  0  0  0  0
   -5.4670   -0.0036  -20.4870 C   0  0  0  0  0  0  0  0  0  0  0  0
   -5.5979   -0.0625  -22.6534 H   0  0  0  0  0  0  0  0  0  0  0  0
   -3.6550    1.3824  -23.0239 H   0  0  0  0  0  0  0  0  0  0  0  0
   -2.3760    2.3142  -21.1024 H   0  0  0  0  0  0  0  0  0  0  0  0
   -3.0786    1.7726  -18.7827 H   0  0  0  0  0  0  0  0  0  0  0  0
   -4.6152    0.6175  -17.2319 H   0  0  0  0  0  0  0  0  0  0  0  0
   -7.7529   -1.6731  -18.5794 H   0  0  0  0  0  0  0  0  0  0  0  0
   -6.9629   -2.6133  -21.9351 C   0  0  0  0  0  0  0  0  0  0  0  0
   -8.2909   -3.1583  -22.5105 C   0  0  2  0  0  0  0  0  0  0  0  0
   -8.0939   -3.9859  -23.7845 C   0  0  0  0  0  0  0  0  0  0  0  0
   -7.5540   -3.4111  -24.5485 H   0  0  0  0  0  0  0  0  0  0  0  0
   -7.5059   -4.8896  -23.5813 H   0  0  0  0  0  0  0  0  0  0  0  0
   -9.0501   -4.2992  -24.2207 H   0  0  0  0  0  0  0  0  0  0  0  0
   -8.7278   -3.7970  -21.7363 H   0  0  0  0  0  0  0  0  0  0  0  0
   -6.4622   -3.3256  -21.2697 H   0  0  0  0  0  0  0  0  0  0  0  0
   -6.2533   -2.3608  -22.7391 H   0  0  0  0  0  0  0  0  0  0  0  0
  -10.7128   -2.1403  -22.4344 C   0  0  0  0  0  0  0  0  0  0  0  0
  -11.2257   -3.2190  -21.7059 C   0  0  0  0  0  0  0  0  0  0  0  0
  -12.5804   -3.2770  -21.4523 C   0  0  0  0  0  0  0  0  0  0  0  0
  -13.0680   -4.2345  -20.6497 F   0  0  0  0  0  0  0  0  0  0  0  0
  -13.4810   -2.3422  -21.9433 C   0  0  0  0  0  0  0  0  0  0  0  0
  -12.9853   -1.2714  -22.6530 C   0  0  0  0  0  0  0  0  0  0  0  0
  -11.6159   -1.1632  -22.8900 C   0  0  0  0  0  0  0  0  0  0  0  0
  -11.1427    0.0426  -23.6446 C   0  0  0  0  0  0  0  0  0  0  0  0
  -11.8795    0.9937  -23.8679 O   0  0  0  0  0  0  0  0  0  0  0  0
  -13.6339   -0.4833  -23.0203 H   0  0  0  0  0  0  0  0  0  0  0  0
  -14.5322   -2.4783  -21.7240 H   0  0  0  0  0  0  0  0  0  0  0  0
  -10.5963   -3.9852  -21.2663 H   0  0  0  0  0  0  0  0  0  0  0  0
   -9.2952   -1.9076  -24.7806 H   0  0  0  0  0  0  0  0  0  0  0  0
   -7.9920   -0.8926  -24.0900 H   0  0  0  0  0  0  0  0  0  0  0  0
  -10.2047    1.4084  -25.5772 H   0  0  0  0  0  0  0  0  0  0  0  0
   -8.5749    0.7064  -25.5184 H   0  0  0  0  0  0  0  0  0  0  0  0
   -7.7785    1.3711  -22.4632 H   0  0  0  0  0  0  0  0  0  0  0  0
   -7.3653    4.0659  -21.8189 H   0  0  0  0  0  0  0  0  0  0  0  0
   -9.3665    5.1518  -25.7084 H   0  0  0  0  0  0  0  0  0  0  0  0
   -9.6522    3.5484  -26.4138 H   0  0  0  0  0  0  0  0  0  0  0  0
  -11.7707    3.3214  -25.0411 H   0  0  0  0  0  0  0  0  0  0  0  0
  -11.4847    4.9450  -24.3585 H   0  0  0  0  0  0  0  0  0  0  0  0
  -11.8196    4.7597  -26.0899 H   0  0  0  0  0  0  0  0  0  0  0  0
  1  2  1  0
  2  3  1  0
  3  4  1  0
  4  5  2  0
  5  6  1  0
  6  7  2  0
  7  8  1  0
  8  9  1  0
  9 10  1  0
 11 10  1  6
 11 12  1  0
 12 13  2  0
 12 14  1  0
 14 15  1  0
 15 16  2  0
 16 17  1  0
 17 18  2  0
 18 19  1  0
 19 20  2  0
 20 21  1  0
 21 22  2  0
 22 23  1  0
 23 24  2  0
 23 25  1  0
 22 26  1  0
 21 27  1  0
 20 28  1  0
 18 29  1  0
 16 30  1  0
 14 31  1  0
 31 32  1  0
 32 33  1  0
 33 34  1  0
 33 35  1  0
 33 36  1  0
 32 37  1  1
 31 38  1  0
 31 39  1  0
 11 40  1  0
 40 41  2  0
 41 42  1  0
 42 43  1  0
 42 44  2  0
 44 45  1  0
 45 46  2  0
 46 47  1  0
 47 48  2  0
 45 49  1  0
 44 50  1  0
 41 51  1  0
 10 52  1  0
 10 53  1  0
  8 54  1  0
  8 55  1  0
  6 56  1  0
  5 57  1  0
  2 58  1  0
  2 59  1  0
  1 60  1  0
  1 61  1  0
  1 62  1  0
  7  3  1  0
 47  9  1  0
 32 11  1  0
 46 40  1  0
 24 15  1  0
 24 19  1  0
M  END
>  <cnnaffinities>  (58) 
[6.84152]

>  <score>  (58) 
6.84152

>  <index>  (58) 
60

>  <Smiles>  (58) 
C(C(n1nc(c(c1C(N1C([C@@]2(C(=O)N(c3c(nc(c4c(c(c(c(c34)[H])[H])[H])[H])[H])[H])C([C@@]2(C([H])([H])[H])[H])([H])[H])c2c(c(F)c(c(c2C1=O)[H])[H])[H])([H])[H])([H])[H])[H])[H])([H])[H])([H])([H])[H]

>  <h>  (58) 
<NA>

>  <Training>  (58) 
True

>  <Success>  (58) 
True

>  <enamine_searched>  (58) 
False

>  <enamine_id>  (58) 
nan

$$$$

     RDKit          3D

 44 47  0  0  0  0  0  0  0  0999 V2000
   -8.3357    0.7597  -21.6810 O   0  0  0  0  0  0  0  0  0  0  0  0
   -8.5092   -0.4438  -21.7946 C   0  0  0  0  0  0  0  0  0  0  0  0
   -7.4552   -1.4398  -21.2556 C   0  0  0  0  0  0  0  0  0  0  0  0
   -6.5808   -0.8295  -20.1808 C   0  0  0  0  0  0  0  0  0  0  0  0
   -6.8748   -1.0418  -18.8615 C   0  0  0  0  0  0  0  0  0  0  0  0
   -6.1883   -0.5347  -17.8058 N   0  0  0  0  0  0  0  0  0  0  0  0
   -5.1545    0.2236  -18.0697 C   0  0  0  0  0  0  0  0  0  0  0  0
   -4.7227    0.5363  -19.3837 C   0  0  0  0  0  0  0  0  0  0  0  0
   -3.5969    1.3656  -19.6215 C   0  0  0  0  0  0  0  0  0  0  0  0
   -3.2099    1.6613  -20.8999 C   0  0  0  0  0  0  0  0  0  0  0  0
   -3.9364    1.1380  -21.9905 C   0  0  0  0  0  0  0  0  0  0  0  0
   -5.0275    0.3300  -21.7868 C   0  0  0  0  0  0  0  0  0  0  0  0
   -5.4543    0.0007  -20.4746 C   0  0  0  0  0  0  0  0  0  0  0  0
   -5.5828   -0.0487  -22.6389 H   0  0  0  0  0  0  0  0  0  0  0  0
   -3.6250    1.3774  -23.0050 H   0  0  0  0  0  0  0  0  0  0  0  0
   -2.3525    2.3062  -21.0838 H   0  0  0  0  0  0  0  0  0  0  0  0
   -3.0602    1.7743  -18.7675 H   0  0  0  0  0  0  0  0  0  0  0  0
   -4.6025    0.6279  -17.2175 H   0  0  0  0  0  0  0  0  0  0  0  0
   -7.7279   -1.6606  -18.5815 H   0  0  0  0  0  0  0  0  0  0  0  0
   -6.8322   -1.7988  -22.0888 H   0  0  0  0  0  0  0  0  0  0  0  0
   -7.9632   -2.3277  -20.8476 H   0  0  0  0  0  0  0  0  0  0  0  0
   -9.6475   -0.9464  -22.3841 N   0  0  0  0  0  0  0  0  0  0  0  0
   -9.7766   -2.3191  -22.8744 C   0  0  0  0  0  0  0  0  0  0  0  0
  -10.8461   -2.4168  -23.9634 C   0  0  0  0  0  0  0  0  0  0  0  0
  -12.2286   -1.9402  -23.5206 C   0  0  0  0  0  0  0  0  0  0  0  0
  -13.2080   -1.6807  -24.6880 C   0  0  0  0  0  0  0  0  0  0  0  0
  -14.1402   -2.8061  -24.1900 C   0  0  0  0  0  0  0  0  0  0  0  0
  -13.1732   -3.0712  -23.0148 C   0  0  0  0  0  0  0  0  0  0  0  0
  -13.6091   -2.8940  -22.0241 H   0  0  0  0  0  0  0  0  0  0  0  0
  -12.7192   -4.0686  -23.0035 H   0  0  0  0  0  0  0  0  0  0  0  0
  -15.1398   -2.4729  -23.8899 H   0  0  0  0  0  0  0  0  0  0  0  0
  -14.2473   -3.6416  -24.8898 H   0  0  0  0  0  0  0  0  0  0  0  0
  -13.6463   -0.6774  -24.6734 H   0  0  0  0  0  0  0  0  0  0  0  0
  -12.7637   -1.8506  -25.6714 H   0  0  0  0  0  0  0  0  0  0  0  0
  -12.0931   -0.7861  -22.5300 C   0  0  0  0  0  0  0  0  0  0  0  0
  -10.7690   -0.0308  -22.6275 C   0  0  0  0  0  0  0  0  0  0  0  0
  -10.7048    0.7786  -21.8966 H   0  0  0  0  0  0  0  0  0  0  0  0
  -10.6863    0.4578  -23.6087 H   0  0  0  0  0  0  0  0  0  0  0  0
  -12.9415   -0.0946  -22.6063 H   0  0  0  0  0  0  0  0  0  0  0  0
  -12.1586   -1.2481  -21.5505 H   0  0  0  0  0  0  0  0  0  0  0  0
  -10.5259   -1.8316  -24.8349 H   0  0  0  0  0  0  0  0  0  0  0  0
  -10.9116   -3.4522  -24.3065 H   0  0  0  0  0  0  0  0  0  0  0  0
   -8.8157   -2.6356  -23.2958 H   0  0  0  0  0  0  0  0  0  0  0  0
  -10.0053   -3.0109  -22.0486 H   0  0  0  0  0  0  0  0  0  0  0  0
  1  2  2  0
  2  3  1  0
  3  4  1  0
  4  5  2  0
  5  6  1  0
  6  7  2  0
  7  8  1  0
  8  9  2  0
  9 10  1  0
 10 11  2  0
 11 12  1  0
 12 13  2  0
 12 14  1  0
 11 15  1  0
 10 16  1  0
  9 17  1  0
  7 18  1  0
  5 19  1  0
  3 20  1  0
  3 21  1  0
  2 22  1  0
 22 23  1  0
 23 24  1  0
 24 25  1  0
 25 26  1  0
 26 27  1  0
 27 28  1  0
 28 29  1  0
 28 30  1  0
 27 31  1  0
 27 32  1  0
 26 33  1  0
 26 34  1  0
 25 35  1  0
 35 36  1  0
 36 37  1  0
 36 38  1  0
 35 39  1  0
 35 40  1  0
 24 41  1  0
 24 42  1  0
 23 43  1  0
 23 44  1  0
 13  4  1  0
 36 22  1  0
 13  8  1  0
 28 25  1  0
M  END
>  <cnnaffinities>  (59) 
[5.46596, 5.46597, 5.47102, 5.20418, 5.20699, 5.20673, 5.20776, 4.8666, 4.86658, 4.8666, 4.86656, 4.95591, 4.95531, 4.95476]

>  <score>  (59) 
5.46596

>  <index>  (59) 
61

>  <Smiles>  (59) 
O=C(C(c1c(nc(c2c(c(c(c(c12)[H])[H])[H])[H])[H])[H])([H])[H])N1C(C(C2(C(C(C2([H])[H])([H])[H])([H])[H])C(C1([H])[H])([H])[H])([H])[H])([H])[H]

>  <h>  (59) 
<NA>

>  <Training>  (59) 
True

>  <Success>  (59) 
True

>  <enamine_searched>  (59) 
False

>  <enamine_id>  (59) 
nan

$$$$

     RDKit          3D

 44 47  0  0  0  0  0  0  0  0999 V2000
   -5.5875   -2.9834  -21.6735 O   0  0  0  0  0  0  0  0  0  0  0  0
   -6.7898   -2.8023  -21.7690 C   0  0  0  0  0  0  0  0  0  0  0  0
   -7.4207   -1.4820  -21.2560 C   0  0  0  0  0  0  0  0  0  0  0  0
   -6.5808   -0.8251  -20.1806 C   0  0  0  0  0  0  0  0  0  0  0  0
   -6.8725   -1.0424  -18.8613 C   0  0  0  0  0  0  0  0  0  0  0  0
   -6.1825   -0.5412  -17.8048 N   0  0  0  0  0  0  0  0  0  0  0  0
   -5.1542    0.2238  -18.0692 C   0  0  0  0  0  0  0  0  0  0  0  0
   -4.7192    0.5332  -19.3826 C   0  0  0  0  0  0  0  0  0  0  0  0
   -3.5903    1.3580  -19.6212 C   0  0  0  0  0  0  0  0  0  0  0  0
   -3.1893    1.6348  -20.8986 C   0  0  0  0  0  0  0  0  0  0  0  0
   -3.9030    1.0935  -21.9900 C   0  0  0  0  0  0  0  0  0  0  0  0
   -4.9969    0.2899  -21.7857 C   0  0  0  0  0  0  0  0  0  0  0  0
   -5.4448   -0.0097  -20.4743 C   0  0  0  0  0  0  0  0  0  0  0  0
   -5.5154   -0.1398  -22.6372 H   0  0  0  0  0  0  0  0  0  0  0  0
   -3.5741    1.3084  -23.0037 H   0  0  0  0  0  0  0  0  0  0  0  0
   -2.3269    2.2724  -21.0834 H   0  0  0  0  0  0  0  0  0  0  0  0
   -3.0599    1.7746  -18.7669 H   0  0  0  0  0  0  0  0  0  0  0  0
   -4.6033    0.6290  -17.2167 H   0  0  0  0  0  0  0  0  0  0  0  0
   -7.7196   -1.6696  -18.5824 H   0  0  0  0  0  0  0  0  0  0  0  0
   -7.5642   -0.7931  -22.1005 H   0  0  0  0  0  0  0  0  0  0  0  0
   -8.4232   -1.6898  -20.8501 H   0  0  0  0  0  0  0  0  0  0  0  0
   -7.6228   -3.7676  -22.3092 N   0  0  0  0  0  0  0  0  0  0  0  0
   -7.2627   -5.1765  -22.1499 C   0  0  0  0  0  0  0  0  0  0  0  0
   -7.5329   -5.9921  -23.4024 C   0  0  0  0  0  0  0  0  0  0  0  0
   -8.9757   -5.8199  -23.8805 C   0  0  0  0  0  0  0  0  0  0  0  0
   -9.2340   -6.6959  -25.1082 C   0  0  0  0  0  0  0  0  0  0  0  0
   -8.4866   -6.4585  -26.3931 C   0  0  0  0  0  0  0  0  0  0  0  0
   -9.9730   -6.2345  -26.3355 C   0  0  0  0  0  0  0  0  0  0  0  0
  -10.6143   -6.9388  -26.8644 H   0  0  0  0  0  0  0  0  0  0  0  0
  -10.3366   -5.2106  -26.3784 H   0  0  0  0  0  0  0  0  0  0  0  0
   -7.8542   -5.5737  -26.4448 H   0  0  0  0  0  0  0  0  0  0  0  0
   -8.1119   -7.3072  -26.9656 H   0  0  0  0  0  0  0  0  0  0  0  0
   -9.3755   -7.7509  -24.8694 H   0  0  0  0  0  0  0  0  0  0  0  0
   -9.2651   -4.3329  -24.0708 C   0  0  0  0  0  0  0  0  0  0  0  0
   -8.9714   -3.5281  -22.8074 C   0  0  0  0  0  0  0  0  0  0  0  0
   -9.7217   -3.7780  -22.0408 H   0  0  0  0  0  0  0  0  0  0  0  0
   -9.0768   -2.4655  -23.0284 H   0  0  0  0  0  0  0  0  0  0  0  0
  -10.3140   -4.1864  -24.3440 H   0  0  0  0  0  0  0  0  0  0  0  0
   -8.6718   -3.9369  -24.9015 H   0  0  0  0  0  0  0  0  0  0  0  0
   -9.6347   -6.1762  -23.0820 H   0  0  0  0  0  0  0  0  0  0  0  0
   -6.8470   -5.6865  -24.1980 H   0  0  0  0  0  0  0  0  0  0  0  0
   -7.3279   -7.0502  -23.1992 H   0  0  0  0  0  0  0  0  0  0  0  0
   -7.8457   -5.6307  -21.3367 H   0  0  0  0  0  0  0  0  0  0  0  0
   -6.2114   -5.2247  -21.8653 H   0  0  0  0  0  0  0  0  0  0  0  0
  1  2  2  0
  2  3  1  0
  3  4  1  0
  4  5  2  0
  5  6  1  0
  6  7  2  0
  7  8  1  0
  8  9  2  0
  9 10  1  0
 10 11  2  0
 11 12  1  0
 12 13  2  0
 12 14  1  0
 11 15  1  0
 10 16  1  0
  9 17  1  0
  7 18  1  0
  5 19  1  0
  3 20  1  0
  3 21  1  0
  2 22  1  0
 22 23  1  0
 23 24  1  0
 24 25  1  0
 25 26  1  0
 26 27  1  0
 27 28  1  0
 28 29  1  0
 28 30  1  0
 27 31  1  0
 27 32  1  0
 26 33  1  0
 25 34  1  0
 34 35  1  0
 35 36  1  0
 35 37  1  0
 34 38  1  0
 34 39  1  0
 25 40  1  0
 24 41  1  0
 24 42  1  0
 23 43  1  0
 23 44  1  0
 13  4  1  0
 35 22  1  0
 13  8  1  0
 28 26  1  0
M  END
>  <cnnaffinities>  (60) 
[4.89017, 5.3149, 4.58259, 5.23789, 4.76003]

>  <score>  (60) 
4.89017

>  <index>  (60) 
62

>  <Smiles>  (60) 
O=C(C(c1c(nc(c2c(c(c(c(c12)[H])[H])[H])[H])[H])[H])([H])[H])N1C(C(C(C2(C(C2([H])[H])([H])[H])[H])(C(C1([H])[H])([H])[H])[H])([H])[H])([H])[H]

>  <h>  (60) 
<NA>

>  <Training>  (60) 
True

>  <Success>  (60) 
True

>  <enamine_searched>  (60) 
False

>  <enamine_id>  (60) 
nan

$$$$

     RDKit          3D

 57 61  0  0  0  0  0  0  0  0999 V2000
  -14.5623   -1.6832  -23.7362 C   0  0  0  0  0  0  0  0  0  0  0  0
  -13.6101   -2.6970  -23.3535 N   0  0  0  0  0  0  0  0  0  0  0  0
  -13.3053   -2.8872  -22.0450 C   0  0  0  0  0  0  0  0  0  0  0  0
  -13.8255   -2.2505  -21.1414 O   0  0  0  0  0  0  0  0  0  0  0  0
  -12.3120   -4.0213  -21.7953 C   0  0  0  0  0  0  0  0  0  0  0  0
  -11.0030   -3.9113  -22.4135 N   0  0  0  0  0  0  0  0  0  0  0  0
   -9.8940   -3.3900  -21.6285 C   0  0  0  0  0  0  0  0  0  0  0  0
   -8.7132   -2.8622  -22.4757 C   0  0  2  0  0  0  0  0  0  0  0  0
   -7.5344   -2.6717  -21.5055 C   0  0  0  0  0  0  0  0  0  0  0  0
   -6.8421   -3.5404  -21.0176 O   0  0  0  0  0  0  0  0  0  0  0  0
   -7.3632   -1.3242  -21.2719 N   0  0  0  0  0  0  0  0  0  0  0  0
   -6.5596   -0.8511  -20.2100 C   0  0  0  0  0  0  0  0  0  0  0  0
   -6.8774   -1.1264  -18.9054 C   0  0  0  0  0  0  0  0  0  0  0  0
   -6.2192   -0.5919  -17.8479 N   0  0  0  0  0  0  0  0  0  0  0  0
   -5.2155    0.2137  -18.0924 C   0  0  0  0  0  0  0  0  0  0  0  0
   -4.7559    0.5483  -19.3989 C   0  0  0  0  0  0  0  0  0  0  0  0
   -3.6324    1.3862  -19.6284 C   0  0  0  0  0  0  0  0  0  0  0  0
   -3.2243    1.6553  -20.9065 C   0  0  0  0  0  0  0  0  0  0  0  0
   -3.9192    1.1089  -22.0107 C   0  0  0  0  0  0  0  0  0  0  0  0
   -5.0089    0.2976  -21.8136 C   0  0  0  0  0  0  0  0  0  0  0  0
   -5.4500    0.0015  -20.4983 C   0  0  0  0  0  0  0  0  0  0  0  0
   -5.5369   -0.1451  -22.6530 H   0  0  0  0  0  0  0  0  0  0  0  0
   -3.5818    1.3156  -23.0223 H   0  0  0  0  0  0  0  0  0  0  0  0
   -2.3568    2.2852  -21.0844 H   0  0  0  0  0  0  0  0  0  0  0  0
   -3.1099    1.7986  -18.7685 H   0  0  0  0  0  0  0  0  0  0  0  0
   -4.7007    0.6352  -17.2291 H   0  0  0  0  0  0  0  0  0  0  0  0
   -7.7046   -1.7915  -18.6602 H   0  0  0  0  0  0  0  0  0  0  0  0
   -8.3656   -0.4865  -21.9066 C   0  0  0  0  0  0  0  0  0  0  0  0
   -8.9152   -1.3974  -23.0122 C   0  0  2  0  0  0  0  0  0  0  0  0
  -10.3263   -1.0286  -23.4711 C   0  0  0  0  0  0  0  0  0  0  0  0
  -11.2102   -0.8907  -22.3687 O   0  0  0  0  0  0  0  0  0  0  0  0
  -11.4379    0.0381  -22.2546 H   0  0  0  0  0  0  0  0  0  0  0  0
  -10.6964   -1.8315  -24.1189 H   0  0  0  0  0  0  0  0  0  0  0  0
  -10.3206   -0.1077  -24.0703 H   0  0  0  0  0  0  0  0  0  0  0  0
   -8.2453   -1.3209  -23.8797 H   0  0  0  0  0  0  0  0  0  0  0  0
   -9.1462   -0.1946  -21.1881 H   0  0  0  0  0  0  0  0  0  0  0  0
   -7.9175    0.4408  -22.2796 H   0  0  0  0  0  0  0  0  0  0  0  0
   -8.4004   -3.8749  -23.5577 C   0  0  0  0  0  0  0  0  0  0  0  0
   -7.1069   -3.9989  -24.0857 C   0  0  0  0  0  0  0  0  0  0  0  0
   -6.8515   -4.9424  -25.0651 C   0  0  0  0  0  0  0  0  0  0  0  0
   -5.2433   -5.0852  -25.7284 Cl  0  0  0  0  0  0  0  0  0  0  0  0
   -7.8495   -5.8155  -25.4991 C   0  0  0  0  0  0  0  0  0  0  0  0
   -9.1394   -5.6694  -25.0174 C   0  0  0  0  0  0  0  0  0  0  0  0
   -9.4203   -4.6820  -24.0765 C   0  0  0  0  0  0  0  0  0  0  0  0
  -10.8309   -4.5014  -23.6288 C   0  0  0  0  0  0  0  0  0  0  0  0
  -11.7990   -4.8529  -24.3109 O   0  0  0  0  0  0  0  0  0  0  0  0
   -9.9481   -6.3138  -25.3581 H   0  0  0  0  0  0  0  0  0  0  0  0
   -7.6081   -6.5970  -26.2082 H   0  0  0  0  0  0  0  0  0  0  0  0
   -6.2882   -3.4057  -23.6908 H   0  0  0  0  0  0  0  0  0  0  0  0
   -9.4984   -4.1588  -20.9608 H   0  0  0  0  0  0  0  0  0  0  0  0
  -10.2684   -2.5617  -21.0298 H   0  0  0  0  0  0  0  0  0  0  0  0
  -12.7707   -4.9002  -22.2483 H   0  0  0  0  0  0  0  0  0  0  0  0
  -12.2217   -4.1429  -20.7144 H   0  0  0  0  0  0  0  0  0  0  0  0
  -13.2303   -3.3179  -24.0568 H   0  0  0  0  0  0  0  0  0  0  0  0
  -14.1436   -0.6754  -23.6762 H   0  0  0  0  0  0  0  0  0  0  0  0
  -15.4174   -1.6879  -23.0632 H   0  0  0  0  0  0  0  0  0  0  0  0
  -14.8974   -1.8760  -24.7571 H   0  0  0  0  0  0  0  0  0  0  0  0
  1  2  1  0
  2  3  1  0
  3  4  2  0
  3  5  1  0
  5  6  1  0
  6  7  1  0
  8  7  1  1
  8  9  1  0
  9 10  2  0
  9 11  1  0
 11 12  1  0
 12 13  2  0
 13 14  1  0
 14 15  2  0
 15 16  1  0
 16 17  2  0
 17 18  1  0
 18 19  2  0
 19 20  1  0
 20 21  2  0
 20 22  1  0
 19 23  1  0
 18 24  1  0
 17 25  1  0
 15 26  1  0
 13 27  1  0
 11 28  1  0
 28 29  1  0
 29 30  1  0
 30 31  1  0
 31 32  1  0
 30 33  1  0
 30 34  1  0
 29 35  1  6
 28 36  1  0
 28 37  1  0
  8 38  1  0
 38 39  2  0
 39 40  1  0
 40 41  1  0
 40 42  2  0
 42 43  1  0
 43 44  2  0
 44 45  1  0
 45 46  2  0
 43 47  1  0
 42 48  1  0
 39 49  1  0
  7 50  1  0
  7 51  1  0
  5 52  1  0
  5 53  1  0
  2 54  1  0
  1 55  1  0
  1 56  1  0
  1 57  1  0
 45  6  1  0
 29  8  1  0
 44 38  1  0
 21 12  1  0
 21 16  1  0
M  END
>  <cnnaffinities>  (61) 
[6.26307, 6.34256]

>  <score>  (61) 
6.26307

>  <index>  (61) 
63

>  <Smiles>  (61) 
C(N(C(=O)C(N1C([C@@]2(C(=O)N(c3c(nc(c4c(c(c(c(c34)[H])[H])[H])[H])[H])[H])C([C@@]2(C(O[H])([H])[H])[H])([H])[H])c2c(c(Cl)c(c(c2C1=O)[H])[H])[H])([H])[H])([H])[H])[H])([H])([H])[H]

>  <h>  (61) 
<NA>

>  <Training>  (61) 
True

>  <Success>  (61) 
True

>  <enamine_searched>  (61) 
False

>  <enamine_id>  (61) 
nan

$$$$

     RDKit          3D

 55 60  0  0  0  0  0  0  0  0999 V2000
  -10.4742   -1.1684  -23.2373 C   0  0  0  0  0  0  0  0  0  0  0  0
   -9.0234   -1.5116  -22.9217 C   0  0  1  0  0  0  0  0  0  0  0  0
   -8.3903   -0.5398  -21.9141 C   0  0  0  0  0  0  0  0  0  0  0  0
   -7.4022   -1.3465  -21.2270 N   0  0  0  0  0  0  0  0  0  0  0  0
   -6.5870   -0.8377  -20.1872 C   0  0  0  0  0  0  0  0  0  0  0  0
   -6.8939   -1.0850  -18.8724 C   0  0  0  0  0  0  0  0  0  0  0  0
   -6.2092   -0.5654  -17.8215 N   0  0  0  0  0  0  0  0  0  0  0  0
   -5.1879    0.2093  -18.0855 C   0  0  0  0  0  0  0  0  0  0  0  0
   -4.7465    0.5209  -19.4033 C   0  0  0  0  0  0  0  0  0  0  0  0
   -3.6197    1.3474  -19.6403 C   0  0  0  0  0  0  0  0  0  0  0  0
   -3.2168    1.6191  -20.9173 C   0  0  0  0  0  0  0  0  0  0  0  0
   -3.9186    1.0778  -22.0188 C   0  0  0  0  0  0  0  0  0  0  0  0
   -5.0140    0.2723  -21.8181 C   0  0  0  0  0  0  0  0  0  0  0  0
   -5.4599   -0.0155  -20.4992 C   0  0  0  0  0  0  0  0  0  0  0  0
   -5.5379   -0.1538  -22.6697 H   0  0  0  0  0  0  0  0  0  0  0  0
   -3.5888    1.2987  -23.0304 H   0  0  0  0  0  0  0  0  0  0  0  0
   -2.3568    2.2574  -21.0978 H   0  0  0  0  0  0  0  0  0  0  0  0
   -3.1033    1.7639  -18.7797 H   0  0  0  0  0  0  0  0  0  0  0  0
   -4.6431    0.6373  -17.2402 H   0  0  0  0  0  0  0  0  0  0  0  0
   -7.7335   -1.7306  -18.6206 H   0  0  0  0  0  0  0  0  0  0  0  0
   -7.5583   -2.7003  -21.4262 C   0  0  0  0  0  0  0  0  0  0  0  0
   -6.7861   -3.5397  -21.0076 O   0  0  0  0  0  0  0  0  0  0  0  0
   -8.7936   -2.9354  -22.3145 C   0  0  1  0  0  0  0  0  0  0  0  0
   -9.9763   -3.4010  -21.4425 C   0  0  0  0  0  0  0  0  0  0  0  0
  -11.0930   -3.9398  -22.2026 N   0  0  0  0  0  0  0  0  0  0  0  0
  -12.4476   -3.8009  -21.7005 C   0  0  0  0  0  0  0  0  0  0  0  0
  -13.2860   -2.7670  -22.4043 C   0  0  0  0  0  0  0  0  0  0  0  0
  -13.7189   -1.5952  -21.8599 N   0  0  0  0  0  0  0  0  0  0  0  0
  -14.5249   -1.1159  -22.7914 C   0  0  0  0  0  0  0  0  0  0  0  0
  -14.5761   -1.9655  -23.8285 N   0  0  0  0  0  0  0  0  0  0  0  0
  -13.7946   -3.0357  -23.5955 N   0  0  0  0  0  0  0  0  0  0  0  0
  -15.1042   -1.9223  -24.6860 H   0  0  0  0  0  0  0  0  0  0  0  0
  -15.1069   -0.2068  -22.7399 H   0  0  0  0  0  0  0  0  0  0  0  0
  -12.9333   -4.7448  -21.9244 H   0  0  0  0  0  0  0  0  0  0  0  0
  -12.4461   -3.6525  -20.6201 H   0  0  0  0  0  0  0  0  0  0  0  0
  -10.9335   -4.6936  -23.3314 C   0  0  0  0  0  0  0  0  0  0  0  0
  -11.8801   -5.1832  -23.9312 O   0  0  0  0  0  0  0  0  0  0  0  0
   -9.5365   -4.8421  -23.8059 C   0  0  0  0  0  0  0  0  0  0  0  0
   -9.2984   -5.8043  -24.7817 C   0  0  0  0  0  0  0  0  0  0  0  0
   -8.0471   -5.9206  -25.3529 C   0  0  0  0  0  0  0  0  0  0  0  0
   -7.0541   -5.0497  -24.9169 C   0  0  0  0  0  0  0  0  0  0  0  0
   -5.8499   -5.1072  -25.5058 F   0  0  0  0  0  0  0  0  0  0  0  0
   -7.2576   -4.1133  -23.9237 C   0  0  0  0  0  0  0  0  0  0  0  0
   -8.5220   -4.0004  -23.3465 C   0  0  0  0  0  0  0  0  0  0  0  0
   -6.4478   -3.4664  -23.6067 H   0  0  0  0  0  0  0  0  0  0  0  0
   -7.8336   -6.6244  -26.1501 H   0  0  0  0  0  0  0  0  0  0  0  0
  -10.1251   -6.4478  -25.0650 H   0  0  0  0  0  0  0  0  0  0  0  0
  -10.3476   -2.5555  -20.8623 H   0  0  0  0  0  0  0  0  0  0  0  0
   -9.6079   -4.1475  -20.7452 H   0  0  0  0  0  0  0  0  0  0  0  0
   -9.1364   -0.1541  -21.2057 H   0  0  0  0  0  0  0  0  0  0  0  0
   -7.9296    0.3263  -22.4022 H   0  0  0  0  0  0  0  0  0  0  0  0
   -8.4318   -1.4694  -23.8457 H   0  0  0  0  0  0  0  0  0  0  0  0
  -10.5473   -0.2039  -23.7446 H   0  0  0  0  0  0  0  0  0  0  0  0
  -11.0613   -1.0982  -22.3155 H   0  0  0  0  0  0  0  0  0  0  0  0
  -10.9380   -1.9339  -23.8681 H   0  0  0  0  0  0  0  0  0  0  0  0
  1  2  1  0
  2  3  1  0
  3  4  1  0
  4  5  1  0
  5  6  2  0
  6  7  1  0
  7  8  2  0
  8  9  1  0
  9 10  2  0
 10 11  1  0
 11 12  2  0
 12 13  1  0
 13 14  2  0
 13 15  1  0
 12 16  1  0
 11 17  1  0
 10 18  1  0
  8 19  1  0
  6 20  1  0
  4 21  1  0
 21 22  2  0
 21 23  1  0
 23 24  1  1
 24 25  1  0
 25 26  1  0
 26 27  1  0
 27 28  1  0
 28 29  2  0
 29 30  1  0
 30 31  1  0
 30 32  1  0
 29 33  1  0
 26 34  1  0
 26 35  1  0
 25 36  1  0
 36 37  2  0
 36 38  1  0
 38 39  2  0
 39 40  1  0
 40 41  2  0
 41 42  1  0
 41 43  1  0
 43 44  2  0
 43 45  1  0
 40 46  1  0
 39 47  1  0
 24 48  1  0
 24 49  1  0
  3 50  1  0
  3 51  1  0
  2 52  1  6
  1 53  1  0
  1 54  1  0
  1 55  1  0
 23  2  1  0
 31 27  2  0
 44 38  1  0
 14  5  1  0
 44 23  1  0
 14  9  1  0
M  END
>  <cnnaffinities>  (62) 
[6.72864, 6.81121]

>  <score>  (62) 
6.72864

>  <index>  (62) 
64

>  <Smiles>  (62) 
C([C@]1(C(N(c2c(nc(c3c(c(c(c(c23)[H])[H])[H])[H])[H])[H])C(=O)[C@]21C(N(C(c1nc(n(n1)[H])[H])([H])[H])C(=O)c1c(c(c(F)c(c21)[H])[H])[H])([H])[H])([H])[H])[H])([H])([H])[H]

>  <h>  (62) 
<NA>

>  <Training>  (62) 
True

>  <Success>  (62) 
True

>  <enamine_searched>  (62) 
False

>  <enamine_id>  (62) 
nan

$$$$

     RDKit          3D

 55 60  0  0  0  0  0  0  0  0999 V2000
  -10.4783   -1.2286  -23.2342 C   0  0  0  0  0  0  0  0  0  0  0  0
   -9.0230   -1.5539  -22.9157 C   0  0  1  0  0  0  0  0  0  0  0  0
   -8.3920   -0.5724  -21.9166 C   0  0  0  0  0  0  0  0  0  0  0  0
   -7.3916   -1.3633  -21.2274 N   0  0  0  0  0  0  0  0  0  0  0  0
   -6.5836   -0.8429  -20.1852 C   0  0  0  0  0  0  0  0  0  0  0  0
   -6.8934   -1.0794  -18.8682 C   0  0  0  0  0  0  0  0  0  0  0  0
   -6.2063   -0.5595  -17.8188 N   0  0  0  0  0  0  0  0  0  0  0  0
   -5.1828    0.2122  -18.0843 C   0  0  0  0  0  0  0  0  0  0  0  0
   -4.7410    0.5199  -19.4031 C   0  0  0  0  0  0  0  0  0  0  0  0
   -3.6142    1.3486  -19.6385 C   0  0  0  0  0  0  0  0  0  0  0  0
   -3.2126    1.6212  -20.9170 C   0  0  0  0  0  0  0  0  0  0  0  0
   -3.9164    1.0790  -22.0167 C   0  0  0  0  0  0  0  0  0  0  0  0
   -5.0111    0.2726  -21.8152 C   0  0  0  0  0  0  0  0  0  0  0  0
   -5.4572   -0.0169  -20.4966 C   0  0  0  0  0  0  0  0  0  0  0  0
   -5.5392   -0.1530  -22.6634 H   0  0  0  0  0  0  0  0  0  0  0  0
   -3.5878    1.2977  -23.0300 H   0  0  0  0  0  0  0  0  0  0  0  0
   -2.3514    2.2583  -21.0993 H   0  0  0  0  0  0  0  0  0  0  0  0
   -3.0948    1.7657  -18.7791 H   0  0  0  0  0  0  0  0  0  0  0  0
   -4.6374    0.6355  -17.2378 H   0  0  0  0  0  0  0  0  0  0  0  0
   -7.7349   -1.7212  -18.6113 H   0  0  0  0  0  0  0  0  0  0  0  0
   -7.5406   -2.7198  -21.4087 C   0  0  0  0  0  0  0  0  0  0  0  0
   -6.7662   -3.5430  -20.9595 O   0  0  0  0  0  0  0  0  0  0  0  0
   -8.7674   -2.9726  -22.3093 C   0  0  1  0  0  0  0  0  0  0  0  0
   -9.9378   -3.4618  -21.4420 C   0  0  0  0  0  0  0  0  0  0  0  0
  -11.0445   -4.0365  -22.1845 N   0  0  0  0  0  0  0  0  0  0  0  0
  -12.3988   -3.9540  -21.6588 C   0  0  0  0  0  0  0  0  0  0  0  0
  -13.2492   -2.8454  -22.2029 C   0  0  0  0  0  0  0  0  0  0  0  0
  -13.8800   -2.9248  -23.3963 C   0  0  0  0  0  0  0  0  0  0  0  0
  -14.6288   -1.7977  -23.5636 O   0  0  0  0  0  0  0  0  0  0  0  0
  -14.4058   -1.0943  -22.4358 C   0  0  0  0  0  0  0  0  0  0  0  0
  -13.6077   -1.6539  -21.5865 N   0  0  0  0  0  0  0  0  0  0  0  0
  -14.9461   -0.1609  -22.3504 H   0  0  0  0  0  0  0  0  0  0  0  0
  -13.8744   -3.7009  -24.1522 H   0  0  0  0  0  0  0  0  0  0  0  0
  -12.3894   -3.9996  -20.5678 H   0  0  0  0  0  0  0  0  0  0  0  0
  -12.8781   -4.8455  -22.0411 H   0  0  0  0  0  0  0  0  0  0  0  0
  -10.8925   -4.7116  -23.3632 C   0  0  0  0  0  0  0  0  0  0  0  0
  -11.8488   -5.1277  -24.0074 O   0  0  0  0  0  0  0  0  0  0  0  0
   -9.4909   -4.8676  -23.8349 C   0  0  0  0  0  0  0  0  0  0  0  0
   -9.2265   -5.8179  -24.8209 C   0  0  0  0  0  0  0  0  0  0  0  0
   -7.9624   -5.9016  -25.3786 C   0  0  0  0  0  0  0  0  0  0  0  0
   -6.9832   -5.0194  -24.9304 C   0  0  0  0  0  0  0  0  0  0  0  0
   -5.7706   -5.0520  -25.5087 F   0  0  0  0  0  0  0  0  0  0  0  0
   -7.2147   -4.1050  -23.9229 C   0  0  0  0  0  0  0  0  0  0  0  0
   -8.4824   -4.0309  -23.3469 C   0  0  0  0  0  0  0  0  0  0  0  0
   -6.4215   -3.4425  -23.5969 H   0  0  0  0  0  0  0  0  0  0  0  0
   -7.7308   -6.5854  -26.1879 H   0  0  0  0  0  0  0  0  0  0  0  0
  -10.0413   -6.4711  -25.1290 H   0  0  0  0  0  0  0  0  0  0  0  0
  -10.3126   -2.6242  -20.8571 H   0  0  0  0  0  0  0  0  0  0  0  0
   -9.5447   -4.1978  -20.7553 H   0  0  0  0  0  0  0  0  0  0  0  0
   -9.1361   -0.1824  -21.2096 H   0  0  0  0  0  0  0  0  0  0  0  0
   -7.9401    0.2906  -22.4147 H   0  0  0  0  0  0  0  0  0  0  0  0
   -8.4371   -1.5101  -23.8426 H   0  0  0  0  0  0  0  0  0  0  0  0
  -10.5529   -0.2679  -23.7449 H   0  0  0  0  0  0  0  0  0  0  0  0
  -10.9381   -1.9938  -23.8691 H   0  0  0  0  0  0  0  0  0  0  0  0
  -11.0846   -1.1558  -22.3263 H   0  0  0  0  0  0  0  0  0  0  0  0
  1  2  1  0
  2  3  1  0
  3  4  1  0
  4  5  1  0
  5  6  2  0
  6  7  1  0
  7  8  2  0
  8  9  1  0
  9 10  2  0
 10 11  1  0
 11 12  2  0
 12 13  1  0
 13 14  2  0
 13 15  1  0
 12 16  1  0
 11 17  1  0
 10 18  1  0
  8 19  1  0
  6 20  1  0
  4 21  1  0
 21 22  2  0
 21 23  1  0
 23 24  1  1
 24 25  1  0
 25 26  1  0
 26 27  1  0
 27 28  2  0
 28 29  1  0
 29 30  1  0
 30 31  2  0
 30 32  1  0
 28 33  1  0
 26 34  1  0
 26 35  1  0
 25 36  1  0
 36 37  2  0
 36 38  1  0
 38 39  2  0
 39 40  1  0
 40 41  2  0
 41 42  1  0
 41 43  1  0
 43 44  2  0
 43 45  1  0
 40 46  1  0
 39 47  1  0
 24 48  1  0
 24 49  1  0
  3 50  1  0
  3 51  1  0
  2 52  1  6
  1 53  1  0
  1 54  1  0
  1 55  1  0
 23  2  1  0
 31 27  1  0
 44 38  1  0
 14  5  1  0
 44 23  1  0
 14  9  1  0
M  END
>  <cnnaffinities>  (63) 
[6.67778]

>  <score>  (63) 
6.67778

>  <index>  (63) 
65

>  <Smiles>  (63) 
C([C@]1(C(N(c2c(nc(c3c(c(c(c(c23)[H])[H])[H])[H])[H])[H])C(=O)[C@]21C(N(C(c1c(oc(n1)[H])[H])([H])[H])C(=O)c1c(c(c(F)c(c21)[H])[H])[H])([H])[H])([H])[H])[H])([H])([H])[H]

>  <h>  (63) 
<NA>

>  <Training>  (63) 
True

>  <Success>  (63) 
True

>  <enamine_searched>  (63) 
False

>  <enamine_id>  (63) 
nan

$$$$

     RDKit          3D

 44 47  0  0  0  0  0  0  0  0999 V2000
   -7.8633   -0.6308  -24.9373 C   0  0  0  0  0  0  0  0  0  0  0  0
   -8.3877   -2.0413  -25.1100 C   0  0  0  0  0  0  0  0  0  0  0  0
   -8.3383   -2.8841  -23.8286 C   0  0  1  0  0  0  0  0  0  0  0  0
   -8.8951   -4.2631  -24.0851 C   0  0  0  0  0  0  0  0  0  0  0  0
  -10.2758   -4.5719  -24.2946 C   0  0  0  0  0  0  0  0  0  0  0  0
  -10.4767   -5.8939  -24.5541 C   0  0  0  0  0  0  0  0  0  0  0  0
   -8.9967   -6.7819  -24.5507 S   0  0  0  0  0  0  0  0  0  0  0  0
   -8.0876   -5.3551  -24.1814 C   0  0  0  0  0  0  0  0  0  0  0  0
   -6.6072   -5.3361  -23.9387 C   0  0  0  0  0  0  0  0  0  0  0  0
   -6.0939   -3.8950  -23.9608 C   0  0  0  0  0  0  0  0  0  0  0  0
   -6.9915   -2.9814  -23.2487 N   0  0  0  0  0  0  0  0  0  0  0  0
   -6.6852   -2.6710  -21.9318 C   0  0  0  0  0  0  0  0  0  0  0  0
   -5.8394   -3.2893  -21.3107 O   0  0  0  0  0  0  0  0  0  0  0  0
   -7.4051   -1.4672  -21.2754 C   0  0  0  0  0  0  0  0  0  0  0  0
   -6.5815   -0.8268  -20.1801 C   0  0  0  0  0  0  0  0  0  0  0  0
   -6.8718   -1.0458  -18.8577 C   0  0  0  0  0  0  0  0  0  0  0  0
   -6.1834   -0.5408  -17.7997 N   0  0  0  0  0  0  0  0  0  0  0  0
   -5.1554    0.2259  -18.0642 C   0  0  0  0  0  0  0  0  0  0  0  0
   -4.7201    0.5338  -19.3826 C   0  0  0  0  0  0  0  0  0  0  0  0
   -3.5906    1.3604  -19.6221 C   0  0  0  0  0  0  0  0  0  0  0  0
   -3.1926    1.6393  -20.9017 C   0  0  0  0  0  0  0  0  0  0  0  0
   -3.9099    1.1005  -21.9924 C   0  0  0  0  0  0  0  0  0  0  0  0
   -5.0041    0.2962  -21.7853 C   0  0  0  0  0  0  0  0  0  0  0  0
   -5.4470   -0.0073  -20.4705 C   0  0  0  0  0  0  0  0  0  0  0  0
   -5.5324   -0.1126  -22.6410 H   0  0  0  0  0  0  0  0  0  0  0  0
   -3.5861    1.3193  -23.0047 H   0  0  0  0  0  0  0  0  0  0  0  0
   -2.3327    2.2757  -21.0887 H   0  0  0  0  0  0  0  0  0  0  0  0
   -3.0549    1.7758  -18.7720 H   0  0  0  0  0  0  0  0  0  0  0  0
   -4.6001    0.6295  -17.2157 H   0  0  0  0  0  0  0  0  0  0  0  0
   -7.7199   -1.6713  -18.5851 H   0  0  0  0  0  0  0  0  0  0  0  0
   -7.6865   -0.7147  -22.0253 H   0  0  0  0  0  0  0  0  0  0  0  0
   -8.3431   -1.8358  -20.8396 H   0  0  0  0  0  0  0  0  0  0  0  0
   -6.0013   -3.5645  -25.0014 H   0  0  0  0  0  0  0  0  0  0  0  0
   -5.0979   -3.8285  -23.5202 H   0  0  0  0  0  0  0  0  0  0  0  0
   -6.3973   -5.7705  -22.9552 H   0  0  0  0  0  0  0  0  0  0  0  0
   -6.0681   -5.9546  -24.6679 H   0  0  0  0  0  0  0  0  0  0  0  0
  -11.4152   -6.4011  -24.7302 H   0  0  0  0  0  0  0  0  0  0  0  0
  -11.0777   -3.8381  -24.2526 H   0  0  0  0  0  0  0  0  0  0  0  0
   -8.9904   -2.4014  -23.0923 H   0  0  0  0  0  0  0  0  0  0  0  0
   -7.8388   -2.5689  -25.8935 H   0  0  0  0  0  0  0  0  0  0  0  0
   -9.4259   -2.0169  -25.4592 H   0  0  0  0  0  0  0  0  0  0  0  0
   -7.9250   -0.0751  -25.8751 H   0  0  0  0  0  0  0  0  0  0  0  0
   -6.8182   -0.6402  -24.6158 H   0  0  0  0  0  0  0  0  0  0  0  0
   -8.4461   -0.0851  -24.1891 H   0  0  0  0  0  0  0  0  0  0  0  0
  1  2  1  0
  2  3  1  0
  3  4  1  0
  4  5  1  0
  5  6  2  0
  6  7  1  0
  7  8  1  0
  8  9  1  0
  9 10  1  0
 10 11  1  0
 11 12  1  0
 12 13  2  0
 12 14  1  0
 14 15  1  0
 15 16  2  0
 16 17  1  0
 17 18  2  0
 18 19  1  0
 19 20  2  0
 20 21  1  0
 21 22  2  0
 22 23  1  0
 23 24  2  0
 23 25  1  0
 22 26  1  0
 21 27  1  0
 20 28  1  0
 18 29  1  0
 16 30  1  0
 14 31  1  0
 14 32  1  0
 10 33  1  0
 10 34  1  0
  9 35  1  0
  9 36  1  0
  6 37  1  0
  5 38  1  0
  3 39  1  1
  2 40  1  0
  2 41  1  0
  1 42  1  0
  1 43  1  0
  1 44  1  0
 11  3  1  0
 24 15  1  0
  8  4  2  0
 24 19  1  0
M  END
>  <cnnaffinities>  (64) 
[5.22499, 5.39738, 5.48845]

>  <score>  (64) 
5.22499

>  <index>  (64) 
66

>  <Smiles>  (64) 
C(C([C@]1(c2c(c(sc2C(C(N1C(=O)C(c1c(nc(c2c(c(c(c(c12)[H])[H])[H])[H])[H])[H])([H])[H])([H])[H])([H])[H])[H])[H])[H])([H])[H])([H])([H])[H]

>  <h>  (64) 
<NA>

>  <Training>  (64) 
True

>  <Success>  (64) 
True

>  <enamine_searched>  (64) 
False

>  <enamine_id>  (64) 
nan

$$$$

     RDKit          3D

 58 63  0  0  0  0  0  0  0  0999 V2000
  -15.0130    0.2242  -22.8025 C   0  0  0  0  0  0  0  0  0  0  0  0
  -14.3170   -1.0768  -22.6836 C   0  0  0  0  0  0  0  0  0  0  0  0
  -13.7747   -1.7999  -21.5952 C   0  0  0  0  0  0  0  0  0  0  0  0
  -13.2478   -2.9025  -22.1904 C   0  0  0  0  0  0  0  0  0  0  0  0
  -12.3786   -4.0537  -21.8156 C   0  0  0  0  0  0  0  0  0  0  0  0
  -11.0340   -3.9791  -22.3955 N   0  0  0  0  0  0  0  0  0  0  0  0
   -9.9401   -3.3789  -21.6319 C   0  0  0  0  0  0  0  0  0  0  0  0
   -8.7432   -2.8748  -22.4889 C   0  0  2  0  0  0  0  0  0  0  0  0
   -7.5557   -2.6849  -21.5156 C   0  0  0  0  0  0  0  0  0  0  0  0
   -6.8805   -3.5577  -21.0146 O   0  0  0  0  0  0  0  0  0  0  0  0
   -7.3743   -1.3385  -21.2830 N   0  0  0  0  0  0  0  0  0  0  0  0
   -6.5704   -0.8630  -20.2149 C   0  0  0  0  0  0  0  0  0  0  0  0
   -6.8727   -1.1384  -18.9052 C   0  0  0  0  0  0  0  0  0  0  0  0
   -6.2109   -0.6054  -17.8468 N   0  0  0  0  0  0  0  0  0  0  0  0
   -5.2116    0.2061  -18.0893 C   0  0  0  0  0  0  0  0  0  0  0  0
   -4.7599    0.5379  -19.4000 C   0  0  0  0  0  0  0  0  0  0  0  0
   -3.6428    1.3835  -19.6315 C   0  0  0  0  0  0  0  0  0  0  0  0
   -3.2335    1.6551  -20.9087 C   0  0  0  0  0  0  0  0  0  0  0  0
   -3.9236    1.1024  -22.0104 C   0  0  0  0  0  0  0  0  0  0  0  0
   -5.0099    0.2882  -21.8104 C   0  0  0  0  0  0  0  0  0  0  0  0
   -5.4586   -0.0094  -20.4982 C   0  0  0  0  0  0  0  0  0  0  0  0
   -5.5289   -0.1528  -22.6538 H   0  0  0  0  0  0  0  0  0  0  0  0
   -3.5867    1.3156  -23.0215 H   0  0  0  0  0  0  0  0  0  0  0  0
   -2.3749    2.2958  -21.0883 H   0  0  0  0  0  0  0  0  0  0  0  0
   -3.1235    1.8101  -18.7765 H   0  0  0  0  0  0  0  0  0  0  0  0
   -4.6977    0.6326  -17.2255 H   0  0  0  0  0  0  0  0  0  0  0  0
   -7.6919   -1.8105  -18.6611 H   0  0  0  0  0  0  0  0  0  0  0  0
   -8.3868   -0.5077  -21.9107 C   0  0  0  0  0  0  0  0  0  0  0  0
   -8.9572   -1.4081  -23.0230 C   0  0  2  0  0  0  0  0  0  0  0  0
  -10.3805   -1.0270  -23.4247 C   0  0  0  0  0  0  0  0  0  0  0  0
  -10.3865   -0.0358  -23.8897 H   0  0  0  0  0  0  0  0  0  0  0  0
  -11.0558   -0.9972  -22.5605 H   0  0  0  0  0  0  0  0  0  0  0  0
  -10.7916   -1.7492  -24.1354 H   0  0  0  0  0  0  0  0  0  0  0  0
   -8.3046   -1.3101  -23.9040 H   0  0  0  0  0  0  0  0  0  0  0  0
   -7.9347    0.4112  -22.2983 H   0  0  0  0  0  0  0  0  0  0  0  0
   -9.1604   -0.2206  -21.1778 H   0  0  0  0  0  0  0  0  0  0  0  0
   -8.4282   -3.9153  -23.5551 C   0  0  0  0  0  0  0  0  0  0  0  0
   -7.1377   -4.0770  -24.0863 C   0  0  0  0  0  0  0  0  0  0  0  0
   -6.8981   -5.0655  -25.0247 C   0  0  0  0  0  0  0  0  0  0  0  0
   -5.6570   -5.2194  -25.5126 F   0  0  0  0  0  0  0  0  0  0  0  0
   -7.8830   -5.9246  -25.4900 C   0  0  0  0  0  0  0  0  0  0  0  0
   -9.1557   -5.7485  -24.9912 C   0  0  0  0  0  0  0  0  0  0  0  0
   -9.4274   -4.7678  -24.0390 C   0  0  0  0  0  0  0  0  0  0  0  0
  -10.8280   -4.7092  -23.5365 C   0  0  0  0  0  0  0  0  0  0  0  0
  -11.7346   -5.2993  -24.1124 O   0  0  0  0  0  0  0  0  0  0  0  0
   -9.9800   -6.3756  -25.3107 H   0  0  0  0  0  0  0  0  0  0  0  0
   -7.6428   -6.7077  -26.2024 H   0  0  0  0  0  0  0  0  0  0  0  0
   -6.3027   -3.4649  -23.7660 H   0  0  0  0  0  0  0  0  0  0  0  0
   -9.5529   -4.1057  -20.9114 H   0  0  0  0  0  0  0  0  0  0  0  0
  -10.3379   -2.5294  -21.0682 H   0  0  0  0  0  0  0  0  0  0  0  0
  -12.8708   -4.8920  -22.3028 H   0  0  0  0  0  0  0  0  0  0  0  0
  -12.3504   -4.2067  -20.7357 H   0  0  0  0  0  0  0  0  0  0  0  0
  -13.5440   -2.8955  -23.4977 O   0  0  0  0  0  0  0  0  0  0  0  0
  -14.2193   -1.7478  -23.8038 N   0  0  0  0  0  0  0  0  0  0  0  0
  -13.8855   -1.5686  -20.5493 H   0  0  0  0  0  0  0  0  0  0  0  0
  -15.6097    0.0115  -23.6649 H   0  0  0  0  0  0  0  0  0  0  0  0
  -14.3364    1.0554  -23.0189 H   0  0  0  0  0  0  0  0  0  0  0  0
  -15.6628    0.4658  -21.9683 H   0  0  0  0  0  0  0  0  0  0  0  0
  1  2  1  0
  2  3  1  0
  3  4  2  0
  4  5  1  0
  5  6  1  0
  6  7  1  0
  8  7  1  1
  8  9  1  0
  9 10  2  0
  9 11  1  0
 11 12  1  0
 12 13  2  0
 13 14  1  0
 14 15  2  0
 15 16  1  0
 16 17  2  0
 17 18  1  0
 18 19  2  0
 19 20  1  0
 20 21  2  0
 20 22  1  0
 19 23  1  0
 18 24  1  0
 17 25  1  0
 15 26  1  0
 13 27  1  0
 11 28  1  0
 28 29  1  0
 29 30  1  0
 30 31  1  0
 30 32  1  0
 30 33  1  0
 29 34  1  6
 28 35  1  0
 28 36  1  0
  8 37  1  0
 37 38  2  0
 38 39  1  0
 39 40  1  0
 39 41  2  0
 41 42  1  0
 42 43  2  0
 43 44  1  0
 44 45  2  0
 42 46  1  0
 41 47  1  0
 38 48  1  0
  7 49  1  0
  7 50  1  0
  5 51  1  0
  5 52  1  0
  4 53  1  0
 53 54  1  0
  3 55  1  0
  1 56  1  0
  1 57  1  0
  1 58  1  0
 54  2  2  0
 44  6  1  0
 29  8  1  0
 43 37  1  0
 21 12  1  0
 21 16  1  0
M  END
>  <cnnaffinities>  (65) 
[6.79666]

>  <score>  (65) 
6.79666

>  <index>  (65) 
67

>  <Smiles>  (65) 
C(c1c(c(C(N2C([C@@]3(C(=O)N(c4c(nc(c5c(c(c(c(c45)[H])[H])[H])[H])[H])[H])C([C@@]3(C([H])([H])[H])[H])([H])[H])c3c(c(F)c(c(c3C2=O)[H])[H])[H])([H])[H])([H])[H])on1)[H])([H])([H])[H]

>  <h>  (65) 
<NA>

>  <Training>  (65) 
True

>  <Success>  (65) 
True

>  <enamine_searched>  (65) 
False

>  <enamine_id>  (65) 
nan

$$$$

     RDKit          3D

 65 70  0  0  0  0  0  0  0  0999 V2000
   -9.2348    0.0755  -20.8364 O   0  0  0  0  0  0  0  0  0  0  0  0
   -8.4716   -0.3527  -21.6878 C   0  0  0  0  0  0  0  0  0  0  0  0
   -7.4462   -1.4136  -21.2769 C   0  0  0  0  0  0  0  0  0  0  0  0
   -6.5627   -0.8491  -20.1837 C   0  0  0  0  0  0  0  0  0  0  0  0
   -6.8825   -1.0454  -18.8647 C   0  0  0  0  0  0  0  0  0  0  0  0
   -6.1983   -0.5357  -17.8092 N   0  0  0  0  0  0  0  0  0  0  0  0
   -5.1651    0.2201  -18.0760 C   0  0  0  0  0  0  0  0  0  0  0  0
   -4.7199    0.5259  -19.3909 C   0  0  0  0  0  0  0  0  0  0  0  0
   -3.5982    1.3619  -19.6268 C   0  0  0  0  0  0  0  0  0  0  0  0
   -3.1991    1.6449  -20.9021 C   0  0  0  0  0  0  0  0  0  0  0  0
   -3.9098    1.1108  -21.9981 C   0  0  0  0  0  0  0  0  0  0  0  0
   -5.0037    0.3000  -21.7946 C   0  0  0  0  0  0  0  0  0  0  0  0
   -5.4418   -0.0185  -20.4820 C   0  0  0  0  0  0  0  0  0  0  0  0
   -5.5441   -0.0698  -22.6607 H   0  0  0  0  0  0  0  0  0  0  0  0
   -3.5877    1.3356  -23.0104 H   0  0  0  0  0  0  0  0  0  0  0  0
   -2.3415    2.2874  -21.0818 H   0  0  0  0  0  0  0  0  0  0  0  0
   -3.0767    1.7771  -18.7677 H   0  0  0  0  0  0  0  0  0  0  0  0
   -4.6164    0.6339  -17.2271 H   0  0  0  0  0  0  0  0  0  0  0  0
   -7.7514   -1.6494  -18.6062 H   0  0  0  0  0  0  0  0  0  0  0  0
   -6.8470   -1.7579  -22.1221 H   0  0  0  0  0  0  0  0  0  0  0  0
   -8.0128   -2.2655  -20.8782 H   0  0  0  0  0  0  0  0  0  0  0  0
   -8.4454    0.1518  -22.9807 N   0  0  0  0  0  0  0  0  0  0  0  0
   -8.2399   -0.7007  -24.1538 C   0  0  0  0  0  0  0  0  0  0  0  0
   -9.3624   -1.7086  -24.3365 C   0  0  0  0  0  0  0  0  0  0  0  0
   -9.2153   -3.0107  -23.8593 C   0  0  0  0  0  0  0  0  0  0  0  0
  -10.2644   -3.9207  -23.9409 C   0  0  0  0  0  0  0  0  0  0  0  0
  -11.4857   -3.5369  -24.4747 C   0  0  0  0  0  0  0  0  0  0  0  0
  -11.6348   -2.2374  -24.9415 C   0  0  0  0  0  0  0  0  0  0  0  0
  -13.2002   -1.7499  -25.5311 Cl  0  0  0  0  0  0  0  0  0  0  0  0
  -10.5812   -1.3292  -24.9076 C   0  0  0  0  0  0  0  0  0  0  0  0
  -10.7349   -0.3386  -25.3348 H   0  0  0  0  0  0  0  0  0  0  0  0
  -12.3166   -4.2325  -24.5333 H   0  0  0  0  0  0  0  0  0  0  0  0
  -10.1367   -4.9378  -23.5793 H   0  0  0  0  0  0  0  0  0  0  0  0
   -8.2710   -3.3274  -23.4204 H   0  0  0  0  0  0  0  0  0  0  0  0
   -8.1723   -0.0582  -25.0345 H   0  0  0  0  0  0  0  0  0  0  0  0
   -7.2799   -1.2254  -24.0660 H   0  0  0  0  0  0  0  0  0  0  0  0
   -8.8300    1.5536  -23.1138 C   0  0  2  0  0  0  0  0  0  0  0  0
  -10.3042    1.9157  -22.8104 C   0  0  0  0  0  0  0  0  0  0  0  0
  -10.4513    3.3210  -23.4433 C   0  0  0  0  0  0  0  0  0  0  0  0
   -9.0666    3.5898  -24.0229 C   0  0  2  0  0  0  0  0  0  0  0  0
   -8.6195    2.2096  -24.4885 C   0  0  0  0  0  0  0  0  0  0  0  0
   -7.5708    2.1695  -24.8106 H   0  0  0  0  0  0  0  0  0  0  0  0
   -9.2759    1.8095  -25.2695 H   0  0  0  0  0  0  0  0  0  0  0  0
   -8.1043    3.8432  -22.8372 N   0  0  2  0  0  4  0  0  0  0  0  0
   -6.8264    4.4531  -23.3152 C   0  0  0  0  0  0  0  0  0  0  0  0
   -6.9499    5.9532  -23.2345 C   0  0  0  0  0  0  0  0  0  0  0  0
   -5.7695    6.8723  -23.5261 C   0  0  0  0  0  0  0  0  0  0  0  0
   -6.0000    7.6001  -22.3034 O   0  0  0  0  0  0  0  0  0  0  0  0
   -6.8164    6.5184  -21.8232 C   0  0  0  0  0  0  0  0  0  0  0  0
   -6.2332    5.8466  -21.1742 H   0  0  0  0  0  0  0  0  0  0  0  0
   -7.7416    6.8102  -21.3152 H   0  0  0  0  0  0  0  0  0  0  0  0
   -5.8378    7.5314  -24.3966 H   0  0  0  0  0  0  0  0  0  0  0  0
   -4.8093    6.3309  -23.5056 H   0  0  0  0  0  0  0  0  0  0  0  0
   -7.8747    6.3062  -23.6910 H   0  0  0  0  0  0  0  0  0  0  0  0
   -6.6045    4.0920  -24.3202 H   0  0  0  0  0  0  0  0  0  0  0  0
   -5.9911    4.1372  -22.6858 H   0  0  0  0  0  0  0  0  0  0  0  0
   -7.9684    2.4764  -22.2120 C   0  0  0  0  0  0  0  0  0  0  0  0
   -8.3409    2.5093  -21.1873 H   0  0  0  0  0  0  0  0  0  0  0  0
   -6.9202    2.1708  -22.1940 H   0  0  0  0  0  0  0  0  0  0  0  0
   -8.5037    4.5005  -22.1486 H   0  0  0  0  0  0  0  0  0  0  0  0
   -9.0123    4.4057  -24.7386 H   0  0  0  0  0  0  0  0  0  0  0  0
  -10.7389    4.0935  -22.7229 H   0  0  0  0  0  0  0  0  0  0  0  0
  -11.1921    3.3161  -24.2466 H   0  0  0  0  0  0  0  0  0  0  0  0
  -10.5052    1.9092  -21.7395 H   0  0  0  0  0  0  0  0  0  0  0  0
  -10.9598    1.1830  -23.2910 H   0  0  0  0  0  0  0  0  0  0  0  0
  1  2  2  0
  2  3  1  0
  3  4  1  0
  4  5  2  0
  5  6  1  0
  6  7  2  0
  7  8  1  0
  8  9  2  0
  9 10  1  0
 10 11  2  0
 11 12  1  0
 12 13  2  0
 12 14  1  0
 11 15  1  0
 10 16  1  0
  9 17  1  0
  7 18  1  0
  5 19  1  0
  3 20  1  0
  3 21  1  0
  2 22  1  0
 22 23  1  0
 23 24  1  0
 24 25  2  0
 25 26  1  0
 26 27  2  0
 27 28  1  0
 28 29  1  0
 28 30  2  0
 30 31  1  0
 27 32  1  0
 26 33  1  0
 25 34  1  0
 23 35  1  0
 23 36  1  0
 37 22  1  6
 37 38  1  0
 38 39  1  0
 39 40  1  0
 40 41  1  0
 41 42  1  0
 41 43  1  0
 40 44  1  0
 44 45  1  0
 45 46  1  0
 46 47  1  0
 47 48  1  0
 48 49  1  0
 49 50  1  0
 49 51  1  0
 47 52  1  0
 47 53  1  0
 46 54  1  0
 45 55  1  0
 45 56  1  0
 44 57  1  0
 57 58  1  0
 57 59  1  0
 44 60  1  1
 40 61  1  6
 39 62  1  0
 39 63  1  0
 38 64  1  0
 38 65  1  0
 13  4  1  0
 30 24  1  0
 41 37  1  0
 49 46  1  0
 13  8  1  0
 57 37  1  0
M  CHG  1  44   1
M  END
>  <cnnaffinities>  (66) 
[6.05724, 6.00528, 5.83745, 6.06705]

>  <score>  (66) 
6.05724

>  <index>  (66) 
68

>  <Smiles>  (66) 
O=C(C(c1c(nc(c2c(c(c(c(c12)[H])[H])[H])[H])[H])[H])([H])[H])N(C(c1c(c(c(c(Cl)c1[H])[H])[H])[H])([H])[H])[C@]12C(C([C@](C1([H])[H])([N@+](C(C1(C(OC1([H])[H])([H])[H])[H])([H])[H])(C2([H])[H])[H])[H])([H])[H])([H])[H]

>  <h>  (66) 
<NA>

>  <Training>  (66) 
True

>  <Success>  (66) 
True

>  <enamine_searched>  (66) 
False

>  <enamine_id>  (66) 
nan

$$$$

     RDKit          3D

 63 67  0  0  0  0  0  0  0  0999 V2000
  -10.6741   -5.9956  -28.2262 C   0  0  0  0  0  0  0  0  0  0  0  0
  -10.3062   -5.4720  -27.0607 C   0  0  0  0  0  0  0  0  0  0  0  0
   -9.9976   -4.0167  -27.0127 C   0  0  0  0  0  0  0  0  0  0  0  0
   -9.8109   -3.3909  -28.0434 O   0  0  0  0  0  0  0  0  0  0  0  0
   -9.9573   -3.4283  -25.7542 N   0  0  0  0  0  0  0  0  0  0  0  0
  -10.7271   -3.9991  -24.6469 C   0  0  0  0  0  0  0  0  0  0  0  0
  -11.4389   -2.8866  -23.9077 C   0  0  0  0  0  0  0  0  0  0  0  0
  -10.3799   -1.9869  -23.2997 C   0  0  0  0  0  0  0  0  0  0  0  0
   -9.3273   -1.5617  -24.3106 C   0  0  0  0  0  0  0  0  0  0  0  0
   -9.1472   -2.2888  -25.5095 C   0  0  0  0  0  0  0  0  0  0  0  0
   -8.1297   -1.9284  -26.4112 C   0  0  0  0  0  0  0  0  0  0  0  0
   -7.2836   -0.8707  -26.1358 C   0  0  0  0  0  0  0  0  0  0  0  0
   -7.4430   -0.1475  -24.9602 C   0  0  0  0  0  0  0  0  0  0  0  0
   -8.4475   -0.5084  -24.0718 C   0  0  0  0  0  0  0  0  0  0  0  0
   -8.5530    0.3832  -22.7907 N   0  0  1  0  0  4  0  0  0  0  0  0
   -9.6897    1.4535  -22.8886 C   0  0  0  0  0  0  0  0  0  0  0  0
   -9.4217    2.3529  -24.0534 C   0  0  0  0  0  0  0  0  0  0  0  0
  -10.0922    2.1709  -25.2628 C   0  0  0  0  0  0  0  0  0  0  0  0
   -9.8342    3.0069  -26.3403 C   0  0  0  0  0  0  0  0  0  0  0  0
   -8.9058    4.0353  -26.2222 C   0  0  0  0  0  0  0  0  0  0  0  0
   -8.2384    4.2072  -25.0151 C   0  0  0  0  0  0  0  0  0  0  0  0
   -7.0796    5.4967  -24.8542 Cl  0  0  0  0  0  0  0  0  0  0  0  0
   -8.4774    3.3734  -23.9325 C   0  0  0  0  0  0  0  0  0  0  0  0
   -7.9397    3.5183  -22.9957 H   0  0  0  0  0  0  0  0  0  0  0  0
   -8.6986    4.6953  -27.0574 H   0  0  0  0  0  0  0  0  0  0  0  0
  -10.3584    2.8539  -27.2791 H   0  0  0  0  0  0  0  0  0  0  0  0
  -10.8009    1.3486  -25.3480 H   0  0  0  0  0  0  0  0  0  0  0  0
   -9.7061    1.9975  -21.9425 H   0  0  0  0  0  0  0  0  0  0  0  0
  -10.6355    0.9211  -23.0096 H   0  0  0  0  0  0  0  0  0  0  0  0
   -8.5696   -0.2966  -21.5135 C   0  0  0  0  0  0  0  0  0  0  0  0
   -9.4329   -0.0322  -20.7110 O   0  0  0  0  0  0  0  0  0  0  0  0
   -7.4689   -1.3229  -21.2592 C   0  0  0  0  0  0  0  0  0  0  0  0
   -6.5534   -0.8187  -20.1717 C   0  0  0  0  0  0  0  0  0  0  0  0
   -6.8604   -1.0411  -18.8564 C   0  0  0  0  0  0  0  0  0  0  0  0
   -6.1707   -0.5416  -17.8000 N   0  0  0  0  0  0  0  0  0  0  0  0
   -5.1466    0.2299  -18.0640 C   0  0  0  0  0  0  0  0  0  0  0  0
   -4.7056    0.5436  -19.3772 C   0  0  0  0  0  0  0  0  0  0  0  0
   -3.5928    1.3908  -19.6134 C   0  0  0  0  0  0  0  0  0  0  0  0
   -3.1995    1.6778  -20.8911 C   0  0  0  0  0  0  0  0  0  0  0  0
   -3.8996    1.1258  -21.9872 C   0  0  0  0  0  0  0  0  0  0  0  0
   -4.9779    0.2998  -21.7832 C   0  0  0  0  0  0  0  0  0  0  0  0
   -5.4224   -0.0042  -20.4694 C   0  0  0  0  0  0  0  0  0  0  0  0
   -5.4819   -0.1320  -22.6466 H   0  0  0  0  0  0  0  0  0  0  0  0
   -3.5764    1.3509  -23.0000 H   0  0  0  0  0  0  0  0  0  0  0  0
   -2.3547    2.3352  -21.0733 H   0  0  0  0  0  0  0  0  0  0  0  0
   -3.0731    1.8162  -18.7579 H   0  0  0  0  0  0  0  0  0  0  0  0
   -4.5989    0.6348  -17.2107 H   0  0  0  0  0  0  0  0  0  0  0  0
   -7.7281   -1.6472  -18.5957 H   0  0  0  0  0  0  0  0  0  0  0  0
   -6.9392   -1.5527  -22.1871 H   0  0  0  0  0  0  0  0  0  0  0  0
   -7.9750   -2.2377  -20.9248 H   0  0  0  0  0  0  0  0  0  0  0  0
   -7.6560    0.9352  -22.8364 H   0  0  0  0  0  0  0  0  0  0  0  0
   -6.8064    0.7109  -24.7566 H   0  0  0  0  0  0  0  0  0  0  0  0
   -6.4927   -0.6065  -26.8395 H   0  0  0  0  0  0  0  0  0  0  0  0
   -8.0049   -2.4904  -27.3262 H   0  0  0  0  0  0  0  0  0  0  0  0
  -10.8400   -1.1221  -22.8123 H   0  0  0  0  0  0  0  0  0  0  0  0
   -9.8666   -2.5540  -22.5101 H   0  0  0  0  0  0  0  0  0  0  0  0
  -12.0692   -2.3260  -24.6028 H   0  0  0  0  0  0  0  0  0  0  0  0
  -12.0953   -3.3086  -23.1393 H   0  0  0  0  0  0  0  0  0  0  0  0
  -11.4433   -4.7142  -25.0476 H   0  0  0  0  0  0  0  0  0  0  0  0
  -10.0729   -4.5467  -23.9524 H   0  0  0  0  0  0  0  0  0  0  0  0
  -10.2246   -6.0717  -26.1612 H   0  0  0  0  0  0  0  0  0  0  0  0
  -10.6256   -5.3680  -29.1095 H   0  0  0  0  0  0  0  0  0  0  0  0
  -10.9892   -7.0270  -28.3288 H   0  0  0  0  0  0  0  0  0  0  0  0
  1  2  2  0
  2  3  1  0
  3  4  2  0
  3  5  1  0
  5  6  1  0
  6  7  1  0
  7  8  1  0
  8  9  1  0
  9 10  2  0
 10 11  1  0
 11 12  2  0
 12 13  1  0
 13 14  2  0
 14 15  1  0
 15 16  1  0
 16 17  1  0
 17 18  2  0
 18 19  1  0
 19 20  2  0
 20 21  1  0
 21 22  1  0
 21 23  2  0
 23 24  1  0
 20 25  1  0
 19 26  1  0
 18 27  1  0
 16 28  1  0
 16 29  1  0
 15 30  1  0
 30 31  2  0
 30 32  1  0
 32 33  1  0
 33 34  2  0
 34 35  1  0
 35 36  2  0
 36 37  1  0
 37 38  2  0
 38 39  1  0
 39 40  2  0
 40 41  1  0
 41 42  2  0
 41 43  1  0
 40 44  1  0
 39 45  1  0
 38 46  1  0
 36 47  1  0
 34 48  1  0
 32 49  1  0
 32 50  1  0
 15 51  1  1
 13 52  1  0
 12 53  1  0
 11 54  1  0
  8 55  1  0
  8 56  1  0
  7 57  1  0
  7 58  1  0
  6 59  1  0
  6 60  1  0
  2 61  1  0
  1 62  1  0
  1 63  1  0
 10  5  1  0
 23 17  1  0
 42 33  1  0
 14  9  1  0
 42 37  1  0
M  CHG  1  15   1
M  END
>  <cnnaffinities>  (67) 
[6.63342]

>  <score>  (67) 
6.63342

>  <index>  (67) 
69

>  <Smiles>  (67) 
C(=C(C(=O)N1C(C(C(c2c1c(c(c(c2[N@@+](C(c1c(c(c(c(Cl)c1[H])[H])[H])[H])([H])[H])(C(=O)C(c1c(nc(c2c(c(c(c(c12)[H])[H])[H])[H])[H])[H])([H])[H])[H])[H])[H])[H])([H])[H])([H])[H])([H])[H])[H])([H])[H]

>  <h>  (67) 
<NA>

>  <Training>  (67) 
True

>  <Success>  (67) 
True

>  <enamine_searched>  (67) 
False

>  <enamine_id>  (67) 
nan

$$$$

     RDKit          3D

 52 54  0  0  0  0  0  0  0  0999 V2000
   -4.7466   -5.0449  -26.7359 C   0  0  0  0  0  0  0  0  0  0  0  0
   -5.9475   -5.7448  -26.0916 C   0  0  0  0  0  0  0  0  0  0  0  0
   -6.3806   -6.9293  -26.9586 C   0  0  0  0  0  0  0  0  0  0  0  0
   -5.5190   -7.4122  -27.4325 H   0  0  0  0  0  0  0  0  0  0  0  0
   -7.0492   -6.6107  -27.7643 H   0  0  0  0  0  0  0  0  0  0  0  0
   -6.9028   -7.7001  -26.3869 H   0  0  0  0  0  0  0  0  0  0  0  0
   -7.0623   -4.7193  -25.8138 C   0  0  0  0  0  0  0  0  0  0  0  0
   -8.3100   -5.1047  -24.9679 C   0  0  0  0  0  0  0  0  0  0  0  0
   -9.2768   -5.9834  -25.7776 C   0  0  0  0  0  0  0  0  0  0  0  0
  -10.2244   -6.1162  -25.2423 H   0  0  0  0  0  0  0  0  0  0  0  0
   -9.5158   -5.5285  -26.7468 H   0  0  0  0  0  0  0  0  0  0  0  0
   -8.8884   -6.9871  -25.9718 H   0  0  0  0  0  0  0  0  0  0  0  0
   -9.0564   -3.7988  -24.5632 C   0  0  0  0  0  0  0  0  0  0  0  0
   -8.8698   -3.3593  -23.1001 C   0  0  0  0  0  0  0  0  0  0  0  0
   -7.5323   -3.6233  -22.5908 N   0  0  0  0  0  0  0  0  0  0  0  0
   -6.7697   -2.7639  -21.8384 C   0  0  0  0  0  0  0  0  0  0  0  0
   -5.5990   -3.0164  -21.5971 O   0  0  0  0  0  0  0  0  0  0  0  0
   -7.4193   -1.4789  -21.2636 C   0  0  0  0  0  0  0  0  0  0  0  0
   -6.5805   -0.8305  -20.1840 C   0  0  0  0  0  0  0  0  0  0  0  0
   -6.8722   -1.0442  -18.8617 C   0  0  0  0  0  0  0  0  0  0  0  0
   -6.1835   -0.5419  -17.8041 N   0  0  0  0  0  0  0  0  0  0  0  0
   -5.1557    0.2251  -18.0668 C   0  0  0  0  0  0  0  0  0  0  0  0
   -4.7196    0.5321  -19.3835 C   0  0  0  0  0  0  0  0  0  0  0  0
   -3.5904    1.3583  -19.6214 C   0  0  0  0  0  0  0  0  0  0  0  0
   -3.1889    1.6346  -20.9000 C   0  0  0  0  0  0  0  0  0  0  0  0
   -3.9034    1.0933  -21.9911 C   0  0  0  0  0  0  0  0  0  0  0  0
   -4.9989    0.2896  -21.7859 C   0  0  0  0  0  0  0  0  0  0  0  0
   -5.4443   -0.0123  -20.4737 C   0  0  0  0  0  0  0  0  0  0  0  0
   -5.5196   -0.1350  -22.6374 H   0  0  0  0  0  0  0  0  0  0  0  0
   -3.5746    1.3076  -23.0034 H   0  0  0  0  0  0  0  0  0  0  0  0
   -2.3274    2.2705  -21.0860 H   0  0  0  0  0  0  0  0  0  0  0  0
   -3.0562    1.7754  -18.7699 H   0  0  0  0  0  0  0  0  0  0  0  0
   -4.6012    0.6289  -17.2166 H   0  0  0  0  0  0  0  0  0  0  0  0
   -7.7191   -1.6691  -18.5843 H   0  0  0  0  0  0  0  0  0  0  0  0
   -7.6015   -0.7605  -22.0748 H   0  0  0  0  0  0  0  0  0  0  0  0
   -8.4058   -1.7237  -20.8429 H   0  0  0  0  0  0  0  0  0  0  0  0
   -7.0274   -4.9900  -22.7593 C   0  0  0  0  0  0  0  0  0  0  0  0
   -7.9153   -5.8299  -23.6768 C   0  0  0  0  0  0  0  0  0  0  0  0
   -7.4055   -6.7686  -23.9182 H   0  0  0  0  0  0  0  0  0  0  0  0
   -8.8190   -6.1462  -23.1425 H   0  0  0  0  0  0  0  0  0  0  0  0
   -6.9473   -5.4829  -21.7826 H   0  0  0  0  0  0  0  0  0  0  0  0
   -6.0070   -4.9493  -23.1536 H   0  0  0  0  0  0  0  0  0  0  0  0
   -9.0743   -2.2911  -23.0279 H   0  0  0  0  0  0  0  0  0  0  0  0
   -9.6208   -3.8605  -22.4747 H   0  0  0  0  0  0  0  0  0  0  0  0
   -8.7588   -2.9837  -25.2298 H   0  0  0  0  0  0  0  0  0  0  0  0
  -10.1346   -3.9128  -24.7266 H   0  0  0  0  0  0  0  0  0  0  0  0
   -6.5963   -3.8466  -25.3374 H   0  0  0  0  0  0  0  0  0  0  0  0
   -7.4182   -4.3426  -26.7836 H   0  0  0  0  0  0  0  0  0  0  0  0
   -5.5952   -6.1430  -25.1358 H   0  0  0  0  0  0  0  0  0  0  0  0
   -4.3708   -4.2236  -26.1168 H   0  0  0  0  0  0  0  0  0  0  0  0
   -5.0033   -4.6339  -27.7187 H   0  0  0  0  0  0  0  0  0  0  0  0
   -3.9160   -5.7435  -26.8886 H   0  0  0  0  0  0  0  0  0  0  0  0
  1  2  1  0
  2  3  1  0
  3  4  1  0
  3  5  1  0
  3  6  1  0
  2  7  1  0
  7  8  1  0
  8  9  1  0
  9 10  1  0
  9 11  1  0
  9 12  1  0
  8 13  1  0
 13 14  1  0
 14 15  1  0
 15 16  1  0
 16 17  2  0
 16 18  1  0
 18 19  1  0
 19 20  2  0
 20 21  1  0
 21 22  2  0
 22 23  1  0
 23 24  2  0
 24 25  1  0
 25 26  2  0
 26 27  1  0
 27 28  2  0
 27 29  1  0
 26 30  1  0
 25 31  1  0
 24 32  1  0
 22 33  1  0
 20 34  1  0
 18 35  1  0
 18 36  1  0
 15 37  1  0
 37 38  1  0
 38 39  1  0
 38 40  1  0
 37 41  1  0
 37 42  1  0
 14 43  1  0
 14 44  1  0
 13 45  1  0
 13 46  1  0
  7 47  1  0
  7 48  1  0
  2 49  1  0
  1 50  1  0
  1 51  1  0
  1 52  1  0
 38  8  1  0
 28 19  1  0
 28 23  1  0
M  END
>  <cnnaffinities>  (68) 
[5.62101, 5.61501, 5.45919, 5.45888, 4.70508, 4.60159, 4.60071, 4.70264, 4.661, 4.68438, 4.68392, 4.99717, 4.99711, 4.99706, 4.96589, 4.96586, 4.96583, 4.96586, 5.05531, 5.05562, 4.6298, 5.03523, 5.03521, 5.03379, 5.24954, 5.25006, 4.7932, 4.77813, 4.71889, 4.96649, 4.96256, 5.00996]

>  <score>  (68) 
5.62101

>  <index>  (68) 
70

>  <Smiles>  (68) 
C(C(C([H])([H])[H])(C(C1(C([H])([H])[H])C(C(N(C(=O)C(c2c(nc(c3c(c(c(c(c23)[H])[H])[H])[H])[H])[H])([H])[H])C(C1([H])[H])([H])[H])([H])[H])([H])[H])([H])[H])[H])([H])([H])[H]

>  <h>  (68) 
<NA>

>  <Training>  (68) 
True

>  <Success>  (68) 
True

>  <enamine_searched>  (68) 
False

>  <enamine_id>  (68) 
nan

$$$$

     RDKit          3D

 50 54  0  0  0  0  0  0  0  0999 V2000
  -10.4547   -1.1644  -23.2687 C   0  0  0  0  0  0  0  0  0  0  0  0
   -9.0056   -1.4961  -22.9393 C   0  0  1  0  0  0  0  0  0  0  0  0
   -8.3893   -0.5333  -21.9136 C   0  0  0  0  0  0  0  0  0  0  0  0
   -7.3979   -1.3426  -21.2309 N   0  0  0  0  0  0  0  0  0  0  0  0
   -6.5839   -0.8411  -20.1904 C   0  0  0  0  0  0  0  0  0  0  0  0
   -6.8897   -1.0918  -18.8787 C   0  0  0  0  0  0  0  0  0  0  0  0
   -6.2111   -0.5686  -17.8271 N   0  0  0  0  0  0  0  0  0  0  0  0
   -5.1923    0.2111  -18.0873 C   0  0  0  0  0  0  0  0  0  0  0  0
   -4.7498    0.5245  -19.4050 C   0  0  0  0  0  0  0  0  0  0  0  0
   -3.6223    1.3506  -19.6413 C   0  0  0  0  0  0  0  0  0  0  0  0
   -3.2189    1.6196  -20.9181 C   0  0  0  0  0  0  0  0  0  0  0  0
   -3.9215    1.0797  -22.0171 C   0  0  0  0  0  0  0  0  0  0  0  0
   -5.0162    0.2753  -21.8180 C   0  0  0  0  0  0  0  0  0  0  0  0
   -5.4623   -0.0138  -20.5001 C   0  0  0  0  0  0  0  0  0  0  0  0
   -5.5373   -0.1548  -22.6687 H   0  0  0  0  0  0  0  0  0  0  0  0
   -3.5904    1.2988  -23.0277 H   0  0  0  0  0  0  0  0  0  0  0  0
   -2.3616    2.2585  -21.0966 H   0  0  0  0  0  0  0  0  0  0  0  0
   -3.1056    1.7666  -18.7806 H   0  0  0  0  0  0  0  0  0  0  0  0
   -4.6487    0.6381  -17.2393 H   0  0  0  0  0  0  0  0  0  0  0  0
   -7.7276   -1.7360  -18.6265 H   0  0  0  0  0  0  0  0  0  0  0  0
   -7.5408   -2.6942  -21.4464 C   0  0  0  0  0  0  0  0  0  0  0  0
   -6.7813   -3.5449  -21.0247 O   0  0  0  0  0  0  0  0  0  0  0  0
   -8.7774   -2.9234  -22.3318 C   0  0  1  0  0  0  0  0  0  0  0  0
   -9.9623   -3.3775  -21.4516 C   0  0  0  0  0  0  0  0  0  0  0  0
  -11.1020   -3.8316  -22.2342 N   0  0  0  0  0  0  0  0  0  0  0  0
  -12.4636   -3.6359  -21.7868 C   0  0  0  0  0  0  0  0  0  0  0  0
  -13.3259   -2.7967  -22.6463 C   0  0  0  0  0  0  0  0  0  0  0  0
  -14.1122   -2.1896  -23.2374 N   0  0  0  0  0  0  0  0  0  0  0  0
  -12.4690   -3.2007  -20.7885 H   0  0  0  0  0  0  0  0  0  0  0  0
  -12.9625   -4.6026  -21.7596 H   0  0  0  0  0  0  0  0  0  0  0  0
  -10.9577   -4.6097  -23.3501 C   0  0  0  0  0  0  0  0  0  0  0  0
  -11.9338   -5.0441  -23.9462 O   0  0  0  0  0  0  0  0  0  0  0  0
   -9.5579   -4.8241  -23.8176 C   0  0  0  0  0  0  0  0  0  0  0  0
   -9.3121   -5.8098  -24.7706 C   0  0  0  0  0  0  0  0  0  0  0  0
   -8.0623   -5.9452  -25.3386 C   0  0  0  0  0  0  0  0  0  0  0  0
   -7.0681   -5.0790  -24.9098 C   0  0  0  0  0  0  0  0  0  0  0  0
   -5.8680   -5.1572  -25.4951 F   0  0  0  0  0  0  0  0  0  0  0  0
   -7.2631   -4.1271  -23.9336 C   0  0  0  0  0  0  0  0  0  0  0  0
   -8.5273   -3.9941  -23.3644 C   0  0  0  0  0  0  0  0  0  0  0  0
   -6.4411   -3.4957  -23.6191 H   0  0  0  0  0  0  0  0  0  0  0  0
   -7.8531   -6.6742  -26.1123 H   0  0  0  0  0  0  0  0  0  0  0  0
  -10.1316   -6.4595  -25.0482 H   0  0  0  0  0  0  0  0  0  0  0  0
   -9.6158   -4.1618  -20.7767 H   0  0  0  0  0  0  0  0  0  0  0  0
  -10.2790   -2.5244  -20.8509 H   0  0  0  0  0  0  0  0  0  0  0  0
   -9.1489   -0.1655  -21.2093 H   0  0  0  0  0  0  0  0  0  0  0  0
   -7.9312    0.3407  -22.3872 H   0  0  0  0  0  0  0  0  0  0  0  0
   -8.4008   -1.4583  -23.8561 H   0  0  0  0  0  0  0  0  0  0  0  0
  -10.5370   -0.1879  -23.7467 H   0  0  0  0  0  0  0  0  0  0  0  0
  -11.0480   -1.1470  -22.3497 H   0  0  0  0  0  0  0  0  0  0  0  0
  -10.8851   -1.9250  -23.9249 H   0  0  0  0  0  0  0  0  0  0  0  0
  1  2  1  0
  2  3  1  0
  3  4  1  0
  4  5  1  0
  5  6  2  0
  6  7  1  0
  7  8  2  0
  8  9  1  0
  9 10  2  0
 10 11  1  0
 11 12  2  0
 12 13  1  0
 13 14  2  0
 13 15  1  0
 12 16  1  0
 11 17  1  0
 10 18  1  0
  8 19  1  0
  6 20  1  0
  4 21  1  0
 21 22  2  0
 21 23  1  0
 23 24  1  1
 24 25  1  0
 25 26  1  0
 26 27  1  0
 27 28  3  0
 26 29  1  0
 26 30  1  0
 25 31  1  0
 31 32  2  0
 31 33  1  0
 33 34  2  0
 34 35  1  0
 35 36  2  0
 36 37  1  0
 36 38  1  0
 38 39  2  0
 38 40  1  0
 35 41  1  0
 34 42  1  0
 24 43  1  0
 24 44  1  0
  3 45  1  0
  3 46  1  0
  2 47  1  6
  1 48  1  0
  1 49  1  0
  1 50  1  0
 23  2  1  0
 39 33  1  0
 14  5  1  0
 39 23  1  0
 14  9  1  0
M  END
>  <cnnaffinities>  (69) 
[6.47993]

>  <score>  (69) 
6.47993

>  <index>  (69) 
71

>  <Smiles>  (69) 
C([C@]1(C(N(c2c(nc(c3c(c(c(c(c23)[H])[H])[H])[H])[H])[H])C(=O)[C@]21C(N(C(C#N)([H])[H])C(=O)c1c(c(c(F)c(c21)[H])[H])[H])([H])[H])([H])[H])[H])([H])([H])[H]

>  <h>  (69) 
<NA>

>  <Training>  (69) 
True

>  <Success>  (69) 
True

>  <enamine_searched>  (69) 
False

>  <enamine_id>  (69) 
nan

$$$$

     RDKit          3D

 41 44  0  0  0  0  0  0  0  0999 V2000
   -8.4858    0.7240  -21.4269 O   0  0  0  0  0  0  0  0  0  0  0  0
   -8.3530   -0.3891  -21.9056 C   0  0  0  0  0  0  0  0  0  0  0  0
   -7.4249   -1.4200  -21.2678 C   0  0  0  0  0  0  0  0  0  0  0  0
   -6.5770   -0.8351  -20.1806 C   0  0  0  0  0  0  0  0  0  0  0  0
   -6.8904   -1.0447  -18.8670 C   0  0  0  0  0  0  0  0  0  0  0  0
   -6.2106   -0.5410  -17.8058 N   0  0  0  0  0  0  0  0  0  0  0  0
   -5.1744    0.2176  -18.0731 C   0  0  0  0  0  0  0  0  0  0  0  0
   -4.7381    0.5332  -19.3882 C   0  0  0  0  0  0  0  0  0  0  0  0
   -3.6131    1.3631  -19.6231 C   0  0  0  0  0  0  0  0  0  0  0  0
   -3.2202    1.6542  -20.9024 C   0  0  0  0  0  0  0  0  0  0  0  0
   -3.9385    1.1279  -22.0009 C   0  0  0  0  0  0  0  0  0  0  0  0
   -5.0314    0.3215  -21.7989 C   0  0  0  0  0  0  0  0  0  0  0  0
   -5.4583   -0.0021  -20.4811 C   0  0  0  0  0  0  0  0  0  0  0  0
   -5.5775   -0.0689  -22.6538 H   0  0  0  0  0  0  0  0  0  0  0  0
   -3.6182    1.3611  -23.0147 H   0  0  0  0  0  0  0  0  0  0  0  0
   -2.3614    2.2954  -21.0819 H   0  0  0  0  0  0  0  0  0  0  0  0
   -3.0827    1.7665  -18.7629 H   0  0  0  0  0  0  0  0  0  0  0  0
   -4.6166    0.6251  -17.2285 H   0  0  0  0  0  0  0  0  0  0  0  0
   -7.7518   -1.6669  -18.6107 H   0  0  0  0  0  0  0  0  0  0  0  0
   -6.8082   -1.8757  -22.0518 H   0  0  0  0  0  0  0  0  0  0  0  0
   -8.0709   -2.2088  -20.8602 H   0  0  0  0  0  0  0  0  0  0  0  0
   -8.9920   -0.7867  -23.0618 N   0  0  0  0  0  0  0  0  0  0  0  0
   -9.3075   -2.1711  -23.3996 C   0  0  0  0  0  0  0  0  0  0  0  0
  -10.5770   -2.7098  -22.7377 C   0  0  0  0  0  0  0  0  0  0  0  0
  -11.8810   -2.0949  -23.2722 C   0  0  0  0  0  0  0  0  0  0  0  0
  -12.0718   -0.6208  -22.9890 C   0  0  0  0  0  0  0  0  0  0  0  0
  -13.6059   -0.0317  -22.4501 S   0  0  0  0  0  0  0  0  0  0  0  0
  -12.9626    1.5279  -22.0932 C   0  0  0  0  0  0  0  0  0  0  0  0
  -11.6712    1.6246  -22.5061 C   0  0  0  0  0  0  0  0  0  0  0  0
  -11.1694    0.4027  -23.0673 C   0  0  0  0  0  0  0  0  0  0  0  0
   -9.8126    0.2239  -23.7143 C   0  0  0  0  0  0  0  0  0  0  0  0
   -9.2422    1.1548  -23.7032 H   0  0  0  0  0  0  0  0  0  0  0  0
   -9.9222   -0.0679  -24.7678 H   0  0  0  0  0  0  0  0  0  0  0  0
  -11.0617    2.5214  -22.4225 H   0  0  0  0  0  0  0  0  0  0  0  0
  -13.5379    2.2513  -21.5250 H   0  0  0  0  0  0  0  0  0  0  0  0
  -12.7322   -2.6445  -22.8523 H   0  0  0  0  0  0  0  0  0  0  0  0
  -11.9209   -2.2387  -24.3627 H   0  0  0  0  0  0  0  0  0  0  0  0
  -10.6189   -3.7873  -22.9282 H   0  0  0  0  0  0  0  0  0  0  0  0
  -10.5281   -2.5920  -21.6484 H   0  0  0  0  0  0  0  0  0  0  0  0
   -8.4502   -2.8147  -23.1790 H   0  0  0  0  0  0  0  0  0  0  0  0
   -9.4291   -2.2352  -24.4877 H   0  0  0  0  0  0  0  0  0  0  0  0
  1  2  2  0
  2  3  1  0
  3  4  1  0
  4  5  2  0
  5  6  1  0
  6  7  2  0
  7  8  1  0
  8  9  2  0
  9 10  1  0
 10 11  2  0
 11 12  1  0
 12 13  2  0
 12 14  1  0
 11 15  1  0
 10 16  1  0
  9 17  1  0
  7 18  1  0
  5 19  1  0
  3 20  1  0
  3 21  1  0
  2 22  1  0
 22 23  1  0
 23 24  1  0
 24 25  1  0
 25 26  1  0
 26 27  1  0
 27 28  1  0
 28 29  2  0
 29 30  1  0
 30 31  1  0
 31 32  1  0
 31 33  1  0
 29 34  1  0
 28 35  1  0
 25 36  1  0
 25 37  1  0
 24 38  1  0
 24 39  1  0
 23 40  1  0
 23 41  1  0
 13  4  1  0
 31 22  1  0
 13  8  1  0
 30 26  2  0
M  END
>  <cnnaffinities>  (70) 
[5.13436, 5.366, 5.436, 5.16273, 4.93353, 5.64412, 4.7485]

>  <score>  (70) 
5.13436

>  <index>  (70) 
72

>  <Smiles>  (70) 
O=C(C(c1c(nc(c2c(c(c(c(c12)[H])[H])[H])[H])[H])[H])([H])[H])N1C(C(C(c2sc(c(c2C1([H])[H])[H])[H])([H])[H])([H])[H])([H])[H]

>  <h>  (70) 
<NA>

>  <Training>  (70) 
True

>  <Success>  (70) 
True

>  <enamine_searched>  (70) 
False

>  <enamine_id>  (70) 
nan

$$$$

     RDKit          3D

 50 53  0  0  0  0  0  0  0  0999 V2000
   -5.6004   -3.0323  -21.5763 O   0  0  0  0  0  0  0  0  0  0  0  0
   -6.7570   -2.7540  -21.8598 C   0  0  0  0  0  0  0  0  0  0  0  0
   -7.4143   -1.4796  -21.2694 C   0  0  0  0  0  0  0  0  0  0  0  0
   -6.5808   -0.8309  -20.1852 C   0  0  0  0  0  0  0  0  0  0  0  0
   -6.8725   -1.0451  -18.8654 C   0  0  0  0  0  0  0  0  0  0  0  0
   -6.1827   -0.5422  -17.8064 N   0  0  0  0  0  0  0  0  0  0  0  0
   -5.1572    0.2243  -18.0692 C   0  0  0  0  0  0  0  0  0  0  0  0
   -4.7195    0.5311  -19.3829 C   0  0  0  0  0  0  0  0  0  0  0  0
   -3.5910    1.3561  -19.6235 C   0  0  0  0  0  0  0  0  0  0  0  0
   -3.1887    1.6338  -20.8990 C   0  0  0  0  0  0  0  0  0  0  0  0
   -3.9053    1.0925  -21.9916 C   0  0  0  0  0  0  0  0  0  0  0  0
   -4.9994    0.2897  -21.7855 C   0  0  0  0  0  0  0  0  0  0  0  0
   -5.4456   -0.0138  -20.4763 C   0  0  0  0  0  0  0  0  0  0  0  0
   -5.5228   -0.1332  -22.6377 H   0  0  0  0  0  0  0  0  0  0  0  0
   -3.5770    1.3073  -23.0033 H   0  0  0  0  0  0  0  0  0  0  0  0
   -2.3275    2.2704  -21.0861 H   0  0  0  0  0  0  0  0  0  0  0  0
   -3.0591    1.7740  -18.7692 H   0  0  0  0  0  0  0  0  0  0  0  0
   -4.6036    0.6281  -17.2162 H   0  0  0  0  0  0  0  0  0  0  0  0
   -7.7182   -1.6682  -18.5829 H   0  0  0  0  0  0  0  0  0  0  0  0
   -7.6147   -0.7497  -22.0659 H   0  0  0  0  0  0  0  0  0  0  0  0
   -8.3949   -1.7474  -20.8489 H   0  0  0  0  0  0  0  0  0  0  0  0
   -7.5199   -3.5823  -22.6620 N   0  0  0  0  0  0  0  0  0  0  0  0
   -8.6629   -3.1255  -23.4509 C   0  0  0  0  0  0  0  0  0  0  0  0
   -9.7340   -4.2018  -23.5640 C   0  0  0  0  0  0  0  0  0  0  0  0
   -9.1639   -5.5037  -24.1039 C   0  0  0  0  0  0  0  0  0  0  0  0
   -7.9848   -5.9348  -23.2431 C   0  0  0  0  0  0  0  0  0  0  0  0
   -6.9124   -4.8511  -23.1013 C   0  0  1  0  0  0  0  0  0  0  0  0
   -6.0430   -4.6963  -24.3698 C   0  0  0  0  0  0  0  0  0  0  0  0
   -5.2086   -5.9202  -24.6880 C   0  0  0  0  0  0  0  0  0  0  0  0
   -4.0473   -6.1895  -23.9578 C   0  0  0  0  0  0  0  0  0  0  0  0
   -3.2848   -7.3205  -24.2199 C   0  0  0  0  0  0  0  0  0  0  0  0
   -3.6700   -8.2115  -25.2177 C   0  0  0  0  0  0  0  0  0  0  0  0
   -4.8265   -7.9596  -25.9508 C   0  0  0  0  0  0  0  0  0  0  0  0
   -5.5850   -6.8245  -25.6836 C   0  0  0  0  0  0  0  0  0  0  0  0
   -6.4942   -6.6401  -26.2529 H   0  0  0  0  0  0  0  0  0  0  0  0
   -5.1404   -8.6454  -26.7328 H   0  0  0  0  0  0  0  0  0  0  0  0
   -3.0715   -9.0919  -25.4261 H   0  0  0  0  0  0  0  0  0  0  0  0
   -2.3830   -7.5093  -23.6433 H   0  0  0  0  0  0  0  0  0  0  0  0
   -3.7437   -5.4991  -23.1740 H   0  0  0  0  0  0  0  0  0  0  0  0
   -6.6853   -4.4573  -25.2241 H   0  0  0  0  0  0  0  0  0  0  0  0
   -5.3822   -3.8374  -24.2152 H   0  0  0  0  0  0  0  0  0  0  0  0
   -6.2403   -5.1511  -22.2982 H   0  0  0  0  0  0  0  0  0  0  0  0
   -8.3464   -6.1898  -22.2446 H   0  0  0  0  0  0  0  0  0  0  0  0
   -7.5384   -6.8524  -23.6378 H   0  0  0  0  0  0  0  0  0  0  0  0
   -9.9334   -6.2846  -24.1228 H   0  0  0  0  0  0  0  0  0  0  0  0
   -8.8406   -5.3767  -25.1445 H   0  0  0  0  0  0  0  0  0  0  0  0
  -10.1658   -4.3764  -22.5762 H   0  0  0  0  0  0  0  0  0  0  0  0
  -10.5509   -3.8485  -24.1993 H   0  0  0  0  0  0  0  0  0  0  0  0
   -9.0836   -2.2324  -22.9916 H   0  0  0  0  0  0  0  0  0  0  0  0
   -8.3543   -2.8304  -24.4653 H   0  0  0  0  0  0  0  0  0  0  0  0
  1  2  2  0
  2  3  1  0
  3  4  1  0
  4  5  2  0
  5  6  1  0
  6  7  2  0
  7  8  1  0
  8  9  2  0
  9 10  1  0
 10 11  2  0
 11 12  1  0
 12 13  2  0
 12 14  1  0
 11 15  1  0
 10 16  1  0
  9 17  1  0
  7 18  1  0
  5 19  1  0
  3 20  1  0
  3 21  1  0
  2 22  1  0
 22 23  1  0
 23 24  1  0
 24 25  1  0
 25 26  1  0
 26 27  1  0
 27 28  1  0
 28 29  1  0
 29 30  2  0
 30 31  1  0
 31 32  2  0
 32 33  1  0
 33 34  2  0
 34 35  1  0
 33 36  1  0
 32 37  1  0
 31 38  1  0
 30 39  1  0
 28 40  1  0
 28 41  1  0
 27 42  1  1
 26 43  1  0
 26 44  1  0
 25 45  1  0
 25 46  1  0
 24 47  1  0
 24 48  1  0
 23 49  1  0
 23 50  1  0
 13  4  1  0
 27 22  1  0
 34 29  1  0
 13  8  1  0
M  END
>  <cnnaffinities>  (71) 
[5.72752]

>  <score>  (71) 
5.72752

>  <index>  (71) 
73

>  <Smiles>  (71) 
O=C(C(c1c(nc(c2c(c(c(c(c12)[H])[H])[H])[H])[H])[H])([H])[H])N1C(C(C(C([C@]1(C(c1c(c(c(c(c1[H])[H])[H])[H])[H])([H])[H])[H])([H])[H])([H])[H])([H])[H])([H])[H]

>  <h>  (71) 
<NA>

>  <Training>  (71) 
True

>  <Success>  (71) 
True

>  <enamine_searched>  (71) 
False

>  <enamine_id>  (71) 
nan

$$$$

     RDKit          3D

 43 47  0  0  0  0  0  0  0  0999 V2000
   -9.4297   -0.4549  -20.9876 O   0  0  0  0  0  0  0  0  0  0  0  0
   -8.7456   -1.3652  -21.3798 C   0  0  0  0  0  0  0  0  0  0  0  0
   -9.1372   -2.4526  -22.1143 N   0  0  0  0  0  0  0  0  0  0  0  0
   -8.0407   -3.1478  -22.7405 C   0  0  1  0  0  0  0  0  0  0  0  0
   -8.1055   -4.6904  -22.7168 C   0  0  0  0  0  0  0  0  0  0  0  0
   -8.2238   -4.7229  -24.2751 C   0  0  2  0  0  0  0  0  0  0  0  0
   -7.1765   -5.5229  -24.9868 C   0  0  0  0  0  0  0  0  0  0  0  0
   -5.8204   -5.2781  -24.7416 C   0  0  0  0  0  0  0  0  0  0  0  0
   -4.8310   -6.0114  -25.3856 C   0  0  0  0  0  0  0  0  0  0  0  0
   -5.1806   -7.0132  -26.2899 C   0  0  0  0  0  0  0  0  0  0  0  0
   -6.5204   -7.2772  -26.5447 C   0  0  0  0  0  0  0  0  0  0  0  0
   -7.4980   -6.5342  -25.8933 C   0  0  0  0  0  0  0  0  0  0  0  0
   -9.1674   -6.9165  -26.2485 Cl  0  0  0  0  0  0  0  0  0  0  0  0
   -6.8271   -8.0530  -27.2414 H   0  0  0  0  0  0  0  0  0  0  0  0
   -4.4110   -7.5877  -26.7979 H   0  0  0  0  0  0  0  0  0  0  0  0
   -3.7868   -5.7959  -25.1798 H   0  0  0  0  0  0  0  0  0  0  0  0
   -5.5484   -4.4955  -24.0302 H   0  0  0  0  0  0  0  0  0  0  0  0
   -8.0350   -3.1708  -24.2983 C   0  0  0  0  0  0  0  0  0  0  0  0
   -8.8568   -2.6044  -24.7512 H   0  0  0  0  0  0  0  0  0  0  0  0
   -7.0979   -2.8275  -24.7556 H   0  0  0  0  0  0  0  0  0  0  0  0
   -9.2252   -5.0188  -24.6016 H   0  0  0  0  0  0  0  0  0  0  0  0
   -8.9696   -5.0693  -22.1640 H   0  0  0  0  0  0  0  0  0  0  0  0
   -7.1943   -5.1498  -22.3155 H   0  0  0  0  0  0  0  0  0  0  0  0
   -6.8409   -2.5177  -22.0517 C   0  0  0  0  0  0  0  0  0  0  0  0
   -5.6802   -2.8139  -22.2230 O   0  0  0  0  0  0  0  0  0  0  0  0
   -7.3410   -1.5158  -21.2079 N   0  0  0  0  0  0  0  0  0  0  0  0
   -6.5842   -0.8578  -20.1892 C   0  0  0  0  0  0  0  0  0  0  0  0
   -6.9064   -1.0598  -18.8691 C   0  0  0  0  0  0  0  0  0  0  0  0
   -6.2083   -0.5449  -17.8303 N   0  0  0  0  0  0  0  0  0  0  0  0
   -5.1749    0.2089  -18.0993 C   0  0  0  0  0  0  0  0  0  0  0  0
   -4.7438    0.5256  -19.4140 C   0  0  0  0  0  0  0  0  0  0  0  0
   -3.6144    1.3581  -19.6394 C   0  0  0  0  0  0  0  0  0  0  0  0
   -3.2249    1.6616  -20.9129 C   0  0  0  0  0  0  0  0  0  0  0  0
   -3.9571    1.1477  -22.0069 C   0  0  0  0  0  0  0  0  0  0  0  0
   -5.0500    0.3390  -21.8141 C   0  0  0  0  0  0  0  0  0  0  0  0
   -5.4695   -0.0103  -20.5008 C   0  0  0  0  0  0  0  0  0  0  0  0
   -5.5945   -0.0518  -22.6674 H   0  0  0  0  0  0  0  0  0  0  0  0
   -3.6461    1.3906  -23.0169 H   0  0  0  0  0  0  0  0  0  0  0  0
   -2.3671    2.3058  -21.0917 H   0  0  0  0  0  0  0  0  0  0  0  0
   -3.0855    1.7563  -18.7783 H   0  0  0  0  0  0  0  0  0  0  0  0
   -4.6262    0.6112  -17.2491 H   0  0  0  0  0  0  0  0  0  0  0  0
   -7.7532   -1.6835  -18.5954 H   0  0  0  0  0  0  0  0  0  0  0  0
  -10.1009   -2.6050  -22.3672 H   0  0  0  0  0  0  0  0  0  0  0  0
  1  2  2  0
  2  3  1  0
  4  3  1  6
  4  5  1  0
  5  6  1  0
  6  7  1  0
  7  8  2  0
  8  9  1  0
  9 10  2  0
 10 11  1  0
 11 12  2  0
 12 13  1  0
 11 14  1  0
 10 15  1  0
  9 16  1  0
  8 17  1  0
  6 18  1  0
 18 19  1  0
 18 20  1  0
  6 21  1  1
  5 22  1  0
  5 23  1  0
  4 24  1  0
 24 25  2  0
 24 26  1  0
 26 27  1  0
 27 28  2  0
 28 29  1  0
 29 30  2  0
 30 31  1  0
 31 32  2  0
 32 33  1  0
 33 34  2  0
 34 35  1  0
 35 36  2  0
 35 37  1  0
 34 38  1  0
 33 39  1  0
 32 40  1  0
 30 41  1  0
 28 42  1  0
  3 43  1  0
 26  2  1  0
 36 27  1  0
 18  4  1  0
 36 31  1  0
 12  7  1  0
M  END
>  <cnnaffinities>  (72) 
[5.81764]

>  <score>  (72) 
5.81764

>  <index>  (72) 
74

>  <Smiles>  (72) 
O=C1N([C@]2(C([C@](c3c(c(c(c(c3Cl)[H])[H])[H])[H])(C2([H])[H])[H])([H])[H])C(=O)N1c1c(nc(c2c(c(c(c(c12)[H])[H])[H])[H])[H])[H])[H]

>  <h>  (72) 
<NA>

>  <Training>  (72) 
True

>  <Success>  (72) 
True

>  <enamine_searched>  (72) 
False

>  <enamine_id>  (72) 
nan

$$$$

     RDKit          3D

 66 71  0  0  0  0  0  0  0  0999 V2000
   -7.4761    3.2816  -21.8505 C   0  0  0  0  0  0  0  0  0  0  0  0
   -8.5647    2.8274  -22.7019 N   0  0  0  0  0  0  0  0  0  0  0  0
   -8.2235    2.0599  -23.7747 C   0  0  0  0  0  0  0  0  0  0  0  0
   -7.0602    1.7817  -24.0293 O   0  0  0  0  0  0  0  0  0  0  0  0
   -9.3434    1.5176  -24.6586 C   0  0  0  0  0  0  0  0  0  0  0  0
   -9.8937    0.3177  -24.0557 N   0  0  0  0  0  0  0  0  0  0  0  0
   -9.0770   -0.8888  -24.0251 C   0  0  0  0  0  0  0  0  0  0  0  0
   -9.2789   -1.6695  -22.6996 C   0  0  2  0  0  0  0  0  0  0  0  0
   -8.6685   -0.8402  -21.5344 C   0  0  0  0  0  0  0  0  0  0  0  0
   -9.1468    0.1432  -21.0068 O   0  0  0  0  0  0  0  0  0  0  0  0
   -7.4473   -1.3887  -21.2022 N   0  0  0  0  0  0  0  0  0  0  0  0
   -6.6294   -0.8200  -20.1923 C   0  0  0  0  0  0  0  0  0  0  0  0
   -6.9341   -1.0465  -18.8718 C   0  0  0  0  0  0  0  0  0  0  0  0
   -6.2226   -0.5639  -17.8278 N   0  0  0  0  0  0  0  0  0  0  0  0
   -5.1862    0.1890  -18.0980 C   0  0  0  0  0  0  0  0  0  0  0  0
   -4.7607    0.5123  -19.4161 C   0  0  0  0  0  0  0  0  0  0  0  0
   -3.6402    1.3531  -19.6465 C   0  0  0  0  0  0  0  0  0  0  0  0
   -3.2526    1.6552  -20.9222 C   0  0  0  0  0  0  0  0  0  0  0  0
   -3.9718    1.1403  -22.0217 C   0  0  0  0  0  0  0  0  0  0  0  0
   -5.0716    0.3336  -21.8258 C   0  0  0  0  0  0  0  0  0  0  0  0
   -5.4931   -0.0092  -20.5108 C   0  0  0  0  0  0  0  0  0  0  0  0
   -5.6387   -0.0026  -22.6880 H   0  0  0  0  0  0  0  0  0  0  0  0
   -3.6535    1.3795  -23.0323 H   0  0  0  0  0  0  0  0  0  0  0  0
   -2.3934    2.2967  -21.0954 H   0  0  0  0  0  0  0  0  0  0  0  0
   -3.1146    1.7540  -18.7837 H   0  0  0  0  0  0  0  0  0  0  0  0
   -4.6196    0.5888  -17.2556 H   0  0  0  0  0  0  0  0  0  0  0  0
   -7.7955   -1.6609  -18.6241 H   0  0  0  0  0  0  0  0  0  0  0  0
   -7.0994   -2.5609  -21.9811 C   0  0  0  0  0  0  0  0  0  0  0  0
   -8.4273   -2.9668  -22.6323 C   0  0  2  0  0  0  0  0  0  0  0  0
   -8.1951   -3.7425  -23.9265 C   0  0  0  0  0  0  0  0  0  0  0  0
   -9.4204   -4.2547  -24.4779 N   0  0  0  0  0  0  0  0  0  0  0  0
   -9.4819   -4.9697  -25.6406 C   0  0  0  0  0  0  0  0  0  0  0  0
   -8.3553   -5.2138  -26.4680 C   0  0  0  0  0  0  0  0  0  0  0  0
   -8.4584   -5.8156  -27.6418 N   0  0  0  0  0  0  0  0  0  0  0  0
   -9.6809   -6.2131  -28.0102 C   0  0  0  0  0  0  0  0  0  0  0  0
  -10.7690   -6.0408  -27.1688 C   0  0  0  0  0  0  0  0  0  0  0  0
  -10.6818   -5.4324  -25.9870 N   0  0  0  0  0  0  0  0  0  0  0  0
  -11.7591   -6.3866  -27.4583 H   0  0  0  0  0  0  0  0  0  0  0  0
   -9.7842   -6.6668  -28.9921 H   0  0  0  0  0  0  0  0  0  0  0  0
   -7.3563   -4.9033  -26.1743 H   0  0  0  0  0  0  0  0  0  0  0  0
  -10.3146   -4.0907  -24.0312 H   0  0  0  0  0  0  0  0  0  0  0  0
   -7.5145   -4.5806  -23.7189 H   0  0  0  0  0  0  0  0  0  0  0  0
   -7.6904   -3.0963  -24.6645 H   0  0  0  0  0  0  0  0  0  0  0  0
   -8.9373   -3.6358  -21.9337 H   0  0  0  0  0  0  0  0  0  0  0  0
   -6.3348   -2.3340  -22.7415 H   0  0  0  0  0  0  0  0  0  0  0  0
   -6.7092   -3.3599  -21.3432 H   0  0  0  0  0  0  0  0  0  0  0  0
  -10.7763   -1.8742  -22.5106 C   0  0  0  0  0  0  0  0  0  0  0  0
  -11.3057   -2.9236  -21.7460 C   0  0  0  0  0  0  0  0  0  0  0  0
  -12.6576   -2.9538  -21.4466 C   0  0  0  0  0  0  0  0  0  0  0  0
  -13.2611   -4.1201  -20.3194 Cl  0  0  0  0  0  0  0  0  0  0  0  0
  -13.5508   -2.0068  -21.9324 C   0  0  0  0  0  0  0  0  0  0  0  0
  -13.0478   -0.9887  -22.7095 C   0  0  0  0  0  0  0  0  0  0  0  0
  -11.6855   -0.9196  -22.9935 C   0  0  0  0  0  0  0  0  0  0  0  0
  -11.2285    0.2728  -23.7743 C   0  0  0  0  0  0  0  0  0  0  0  0
  -12.0082    1.1548  -24.1187 O   0  0  0  0  0  0  0  0  0  0  0  0
  -13.6755   -0.1852  -23.0749 H   0  0  0  0  0  0  0  0  0  0  0  0
  -14.5958   -2.0475  -21.6496 H   0  0  0  0  0  0  0  0  0  0  0  0
  -10.6936   -3.6985  -21.2986 H   0  0  0  0  0  0  0  0  0  0  0  0
   -8.0291   -0.5950  -24.1464 H   0  0  0  0  0  0  0  0  0  0  0  0
   -9.3547   -1.5395  -24.8673 H   0  0  0  0  0  0  0  0  0  0  0  0
  -10.1639    2.2269  -24.7921 H   0  0  0  0  0  0  0  0  0  0  0  0
   -8.9221    1.2859  -25.6474 H   0  0  0  0  0  0  0  0  0  0  0  0
   -9.4784    2.7296  -22.2738 H   0  0  0  0  0  0  0  0  0  0  0  0
   -7.8936    3.8318  -21.0072 H   0  0  0  0  0  0  0  0  0  0  0  0
   -6.8887    2.4145  -21.5141 H   0  0  0  0  0  0  0  0  0  0  0  0
   -6.8258    3.9629  -22.4096 H   0  0  0  0  0  0  0  0  0  0  0  0
  1  2  1  0
  2  3  1  0
  3  4  2  0
  3  5  1  0
  5  6  1  0
  6  7  1  0
  8  7  1  6
  8  9  1  0
  9 10  2  0
  9 11  1  0
 11 12  1  0
 12 13  2  0
 13 14  1  0
 14 15  2  0
 15 16  1  0
 16 17  2  0
 17 18  1  0
 18 19  2  0
 19 20  1  0
 20 21  2  0
 20 22  1  0
 19 23  1  0
 18 24  1  0
 17 25  1  0
 15 26  1  0
 13 27  1  0
 11 28  1  0
 28 29  1  0
 29 30  1  0
 30 31  1  0
 31 32  1  0
 32 33  2  0
 33 34  1  0
 34 35  2  0
 35 36  1  0
 36 37  2  0
 36 38  1  0
 35 39  1  0
 33 40  1  0
 31 41  1  0
 30 42  1  0
 30 43  1  0
 29 44  1  1
 28 45  1  0
 28 46  1  0
  8 47  1  0
 47 48  2  0
 48 49  1  0
 49 50  1  0
 49 51  2  0
 51 52  1  0
 52 53  2  0
 53 54  1  0
 54 55  2  0
 52 56  1  0
 51 57  1  0
 48 58  1  0
  7 59  1  0
  7 60  1  0
  5 61  1  0
  5 62  1  0
  2 63  1  0
  1 64  1  0
  1 65  1  0
  1 66  1  0
 54  6  1  0
 29  8  1  0
 37 32  1  0
 53 47  1  0
 21 12  1  0
 21 16  1  0
M  END
>  <cnnaffinities>  (73) 
[6.29895, 6.5615, 7.0359]

>  <score>  (73) 
6.29895

>  <index>  (73) 
75

>  <Smiles>  (73) 
C(N(C(=O)C(N1C([C@@]2(C(=O)N(c3c(nc(c4c(c(c(c(c34)[H])[H])[H])[H])[H])[H])C([C@@]2(C(N(c2c(nc(c(n2)[H])[H])[H])[H])([H])[H])[H])([H])[H])c2c(c(Cl)c(c(c2C1=O)[H])[H])[H])([H])[H])([H])[H])[H])([H])([H])[H]

>  <h>  (73) 
<NA>

>  <Training>  (73) 
True

>  <Success>  (73) 
True

>  <enamine_searched>  (73) 
False

>  <enamine_id>  (73) 
nan

$$$$

     RDKit          3D

 66 71  0  0  0  0  0  0  0  0999 V2000
   -8.1946   -3.4712  -24.1027 C   0  0  0  0  0  0  0  0  0  0  0  0
   -8.4677   -2.7339  -22.7826 C   0  0  1  0  0  0  0  0  0  0  0  0
   -7.1831   -2.5236  -21.9494 C   0  0  0  0  0  0  0  0  0  0  0  0
   -7.4560   -1.3152  -21.1909 N   0  0  0  0  0  0  0  0  0  0  0  0
   -6.6159   -0.7925  -20.1694 C   0  0  0  0  0  0  0  0  0  0  0  0
   -6.9113   -1.0378  -18.8526 C   0  0  0  0  0  0  0  0  0  0  0  0
   -6.1940   -0.5578  -17.8112 N   0  0  0  0  0  0  0  0  0  0  0  0
   -5.1648    0.2080  -18.0818 C   0  0  0  0  0  0  0  0  0  0  0  0
   -4.7384    0.5399  -19.3996 C   0  0  0  0  0  0  0  0  0  0  0  0
   -3.6189    1.3835  -19.6425 C   0  0  0  0  0  0  0  0  0  0  0  0
   -3.2364    1.6815  -20.9247 C   0  0  0  0  0  0  0  0  0  0  0  0
   -3.9485    1.1393  -22.0160 C   0  0  0  0  0  0  0  0  0  0  0  0
   -5.0317    0.3157  -21.8053 C   0  0  0  0  0  0  0  0  0  0  0  0
   -5.4726    0.0103  -20.4852 C   0  0  0  0  0  0  0  0  0  0  0  0
   -5.5583   -0.0995  -22.6578 H   0  0  0  0  0  0  0  0  0  0  0  0
   -3.6429    1.3781  -23.0305 H   0  0  0  0  0  0  0  0  0  0  0  0
   -2.3943    2.3447  -21.1048 H   0  0  0  0  0  0  0  0  0  0  0  0
   -3.0943    1.7961  -18.7873 H   0  0  0  0  0  0  0  0  0  0  0  0
   -4.6187    0.6132  -17.2311 H   0  0  0  0  0  0  0  0  0  0  0  0
   -7.7657   -1.6591  -18.5933 H   0  0  0  0  0  0  0  0  0  0  0  0
   -8.5342   -0.5939  -21.6470 C   0  0  0  0  0  0  0  0  0  0  0  0
   -8.9215    0.4506  -21.1562 O   0  0  0  0  0  0  0  0  0  0  0  0
   -9.1343   -1.3214  -22.8752 C   0  0  1  0  0  0  0  0  0  0  0  0
   -8.7142   -0.5890  -24.1706 C   0  0  0  0  0  0  0  0  0  0  0  0
   -9.3151    0.7261  -24.2635 N   0  0  0  0  0  0  0  0  0  0  0  0
   -8.5153    1.7870  -24.8500 C   0  0  0  0  0  0  0  0  0  0  0  0
   -7.5562    2.4188  -23.8481 C   0  0  0  0  0  0  0  0  0  0  0  0
   -8.2827    3.2239  -22.8112 N   0  0  0  0  0  4  0  0  0  0  0  0
   -7.4856    3.3220  -21.5505 C   0  0  0  0  0  0  0  0  0  0  0  0
   -6.3317    4.3014  -21.6376 C   0  0  0  0  0  0  0  0  0  0  0  0
   -6.8010    5.5949  -21.9486 O   0  0  0  0  0  0  0  0  0  0  0  0
   -7.4379    5.5905  -23.2074 C   0  0  0  0  0  0  0  0  0  0  0  0
   -8.6438    4.6427  -23.2416 C   0  0  0  0  0  0  0  0  0  0  0  0
   -9.4028    5.0061  -22.5447 H   0  0  0  0  0  0  0  0  0  0  0  0
   -9.0630    4.6074  -24.2500 H   0  0  0  0  0  0  0  0  0  0  0  0
   -6.7134    5.3043  -23.9851 H   0  0  0  0  0  0  0  0  0  0  0  0
   -7.7628    6.6183  -23.3901 H   0  0  0  0  0  0  0  0  0  0  0  0
   -5.8546    4.3662  -20.6628 H   0  0  0  0  0  0  0  0  0  0  0  0
   -5.5842    3.9581  -22.3734 H   0  0  0  0  0  0  0  0  0  0  0  0
   -7.1346    2.3140  -21.3112 H   0  0  0  0  0  0  0  0  0  0  0  0
   -8.1588    3.6691  -20.7647 H   0  0  0  0  0  0  0  0  0  0  0  0
   -9.1446    2.7004  -22.5588 H   0  0  0  0  0  0  0  0  0  0  0  0
   -6.9890    1.6442  -23.3182 H   0  0  0  0  0  0  0  0  0  0  0  0
   -6.8385    3.0579  -24.3672 H   0  0  0  0  0  0  0  0  0  0  0  0
   -7.9309    1.3810  -25.6843 H   0  0  0  0  0  0  0  0  0  0  0  0
   -9.2129    2.5321  -25.2312 H   0  0  0  0  0  0  0  0  0  0  0  0
  -10.6636    0.8891  -24.0990 C   0  0  0  0  0  0  0  0  0  0  0  0
  -11.2630    1.8915  -24.4605 O   0  0  0  0  0  0  0  0  0  0  0  0
  -11.3667   -0.2373  -23.3922 C   0  0  0  0  0  0  0  0  0  0  0  0
  -12.7550   -0.1737  -23.2903 C   0  0  0  0  0  0  0  0  0  0  0  0
  -13.4439   -1.1162  -22.5540 C   0  0  0  0  0  0  0  0  0  0  0  0
  -12.7274   -2.1150  -21.8980 C   0  0  0  0  0  0  0  0  0  0  0  0
  -13.5799   -3.2480  -20.8893 Cl  0  0  0  0  0  0  0  0  0  0  0  0
  -11.3506   -2.1994  -21.9979 C   0  0  0  0  0  0  0  0  0  0  0  0
  -10.6504   -1.2839  -22.7925 C   0  0  0  0  0  0  0  0  0  0  0  0
  -10.8380   -2.9585  -21.4178 H   0  0  0  0  0  0  0  0  0  0  0  0
  -14.5211   -1.0686  -22.4525 H   0  0  0  0  0  0  0  0  0  0  0  0
  -13.2574    0.6497  -23.7853 H   0  0  0  0  0  0  0  0  0  0  0  0
   -7.6267   -0.4578  -24.1806 H   0  0  0  0  0  0  0  0  0  0  0  0
   -9.0075   -1.2078  -25.0342 H   0  0  0  0  0  0  0  0  0  0  0  0
   -6.9749   -3.3639  -21.2751 H   0  0  0  0  0  0  0  0  0  0  0  0
   -6.3015   -2.4025  -22.5993 H   0  0  0  0  0  0  0  0  0  0  0  0
   -9.1455   -3.3480  -22.1850 H   0  0  0  0  0  0  0  0  0  0  0  0
   -9.1007   -3.5778  -24.7123 H   0  0  0  0  0  0  0  0  0  0  0  0
   -7.4468   -2.9411  -24.7084 H   0  0  0  0  0  0  0  0  0  0  0  0
   -7.8013   -4.4790  -23.9159 H   0  0  0  0  0  0  0  0  0  0  0  0
  1  2  1  0
  2  3  1  0
  3  4  1  0
  4  5  1  0
  5  6  2  0
  6  7  1  0
  7  8  2  0
  8  9  1  0
  9 10  2  0
 10 11  1  0
 11 12  2  0
 12 13  1  0
 13 14  2  0
 13 15  1  0
 12 16  1  0
 11 17  1  0
 10 18  1  0
  8 19  1  0
  6 20  1  0
  4 21  1  0
 21 22  2  0
 21 23  1  0
 23 24  1  6
 24 25  1  0
 25 26  1  0
 26 27  1  0
 27 28  1  0
 28 29  1  0
 29 30  1  0
 30 31  1  0
 31 32  1  0
 32 33  1  0
 33 34  1  0
 33 35  1  0
 32 36  1  0
 32 37  1  0
 30 38  1  0
 30 39  1  0
 29 40  1  0
 29 41  1  0
 28 42  1  0
 27 43  1  0
 27 44  1  0
 26 45  1  0
 26 46  1  0
 25 47  1  0
 47 48  2  0
 47 49  1  0
 49 50  2  0
 50 51  1  0
 51 52  2  0
 52 53  1  0
 52 54  1  0
 54 55  2  0
 54 56  1  0
 51 57  1  0
 50 58  1  0
 24 59  1  0
 24 60  1  0
  3 61  1  0
  3 62  1  0
  2 63  1  1
  1 64  1  0
  1 65  1  0
  1 66  1  0
 23  2  1  0
 33 28  1  0
 55 49  1  0
 14  5  1  0
 55 23  1  0
 14  9  1  0
M  CHG  1  28   1
M  END
>  <cnnaffinities>  (74) 
[6.4666]

>  <score>  (74) 
6.4666

>  <index>  (74) 
76

>  <Smiles>  (74) 
C([C@]1(C(N(c2c(nc(c3c(c(c(c(c23)[H])[H])[H])[H])[H])[H])C(=O)[C@]21C(N(C(C([N+]1(C(C(OC(C1([H])[H])([H])[H])([H])[H])([H])[H])[H])([H])[H])([H])[H])C(=O)c1c(c(c(Cl)c(c21)[H])[H])[H])([H])[H])([H])[H])[H])([H])([H])[H]

>  <h>  (74) 
<NA>

>  <Training>  (74) 
True

>  <Success>  (74) 
True

>  <enamine_searched>  (74) 
False

>  <enamine_id>  (74) 
nan

$$$$

     RDKit          3D

 55 60  0  0  0  0  0  0  0  0999 V2000
  -10.4783   -1.2286  -23.2341 C   0  0  0  0  0  0  0  0  0  0  0  0
   -9.0230   -1.5540  -22.9157 C   0  0  1  0  0  0  0  0  0  0  0  0
   -8.3920   -0.5724  -21.9166 C   0  0  0  0  0  0  0  0  0  0  0  0
   -7.3915   -1.3633  -21.2274 N   0  0  0  0  0  0  0  0  0  0  0  0
   -6.5836   -0.8429  -20.1852 C   0  0  0  0  0  0  0  0  0  0  0  0
   -6.8934   -1.0794  -18.8682 C   0  0  0  0  0  0  0  0  0  0  0  0
   -6.2063   -0.5595  -17.8188 N   0  0  0  0  0  0  0  0  0  0  0  0
   -5.1828    0.2122  -18.0843 C   0  0  0  0  0  0  0  0  0  0  0  0
   -4.7410    0.5199  -19.4031 C   0  0  0  0  0  0  0  0  0  0  0  0
   -3.6142    1.3486  -19.6385 C   0  0  0  0  0  0  0  0  0  0  0  0
   -3.2126    1.6212  -20.9170 C   0  0  0  0  0  0  0  0  0  0  0  0
   -3.9164    1.0790  -22.0167 C   0  0  0  0  0  0  0  0  0  0  0  0
   -5.0112    0.2726  -21.8152 C   0  0  0  0  0  0  0  0  0  0  0  0
   -5.4572   -0.0169  -20.4966 C   0  0  0  0  0  0  0  0  0  0  0  0
   -5.5392   -0.1530  -22.6634 H   0  0  0  0  0  0  0  0  0  0  0  0
   -3.5878    1.2977  -23.0300 H   0  0  0  0  0  0  0  0  0  0  0  0
   -2.3514    2.2583  -21.0993 H   0  0  0  0  0  0  0  0  0  0  0  0
   -3.0948    1.7657  -18.7791 H   0  0  0  0  0  0  0  0  0  0  0  0
   -4.6374    0.6355  -17.2378 H   0  0  0  0  0  0  0  0  0  0  0  0
   -7.7349   -1.7212  -18.6112 H   0  0  0  0  0  0  0  0  0  0  0  0
   -7.5406   -2.7198  -21.4087 C   0  0  0  0  0  0  0  0  0  0  0  0
   -6.7661   -3.5430  -20.9594 O   0  0  0  0  0  0  0  0  0  0  0  0
   -8.7674   -2.9726  -22.3093 C   0  0  1  0  0  0  0  0  0  0  0  0
   -9.9378   -3.4618  -21.4420 C   0  0  0  0  0  0  0  0  0  0  0  0
  -11.0445   -4.0366  -22.1844 N   0  0  0  0  0  0  0  0  0  0  0  0
  -12.3988   -3.9540  -21.6588 C   0  0  0  0  0  0  0  0  0  0  0  0
  -13.2492   -2.8454  -22.2029 C   0  0  0  0  0  0  0  0  0  0  0  0
  -13.8800   -2.9248  -23.3963 C   0  0  0  0  0  0  0  0  0  0  0  0
  -14.6288   -1.7977  -23.5636 O   0  0  0  0  0  0  0  0  0  0  0  0
  -14.4058   -1.0943  -22.4358 C   0  0  0  0  0  0  0  0  0  0  0  0
  -13.6077   -1.6539  -21.5864 N   0  0  0  0  0  0  0  0  0  0  0  0
  -14.9461   -0.1609  -22.3504 H   0  0  0  0  0  0  0  0  0  0  0  0
  -13.8743   -3.7009  -24.1522 H   0  0  0  0  0  0  0  0  0  0  0  0
  -12.3894   -3.9996  -20.5678 H   0  0  0  0  0  0  0  0  0  0  0  0
  -12.8782   -4.8455  -22.0412 H   0  0  0  0  0  0  0  0  0  0  0  0
  -10.8925   -4.7116  -23.3632 C   0  0  0  0  0  0  0  0  0  0  0  0
  -11.8488   -5.1276  -24.0074 O   0  0  0  0  0  0  0  0  0  0  0  0
   -9.4909   -4.8676  -23.8348 C   0  0  0  0  0  0  0  0  0  0  0  0
   -9.2265   -5.8179  -24.8209 C   0  0  0  0  0  0  0  0  0  0  0  0
   -7.9624   -5.9016  -25.3785 C   0  0  0  0  0  0  0  0  0  0  0  0
   -6.9832   -5.0194  -24.9304 C   0  0  0  0  0  0  0  0  0  0  0  0
   -5.7706   -5.0520  -25.5087 F   0  0  0  0  0  0  0  0  0  0  0  0
   -7.2147   -4.1050  -23.9229 C   0  0  0  0  0  0  0  0  0  0  0  0
   -8.4824   -4.0309  -23.3469 C   0  0  0  0  0  0  0  0  0  0  0  0
   -6.4215   -3.4425  -23.5969 H   0  0  0  0  0  0  0  0  0  0  0  0
   -7.7308   -6.5854  -26.1879 H   0  0  0  0  0  0  0  0  0  0  0  0
  -10.0413   -6.4711  -25.1290 H   0  0  0  0  0  0  0  0  0  0  0  0
  -10.3126   -2.6242  -20.8571 H   0  0  0  0  0  0  0  0  0  0  0  0
   -9.5446   -4.1978  -20.7553 H   0  0  0  0  0  0  0  0  0  0  0  0
   -9.1361   -0.1823  -21.2096 H   0  0  0  0  0  0  0  0  0  0  0  0
   -7.9401    0.2906  -22.4147 H   0  0  0  0  0  0  0  0  0  0  0  0
   -8.4371   -1.5101  -23.8426 H   0  0  0  0  0  0  0  0  0  0  0  0
  -10.5530   -0.2679  -23.7449 H   0  0  0  0  0  0  0  0  0  0  0  0
  -10.9381   -1.9938  -23.8691 H   0  0  0  0  0  0  0  0  0  0  0  0
  -11.0846   -1.1558  -22.3263 H   0  0  0  0  0  0  0  0  0  0  0  0
  1  2  1  0
  2  3  1  0
  3  4  1  0
  4  5  1  0
  5  6  2  0
  6  7  1  0
  7  8  2  0
  8  9  1  0
  9 10  2  0
 10 11  1  0
 11 12  2  0
 12 13  1  0
 13 14  2  0
 13 15  1  0
 12 16  1  0
 11 17  1  0
 10 18  1  0
  8 19  1  0
  6 20  1  0
  4 21  1  0
 21 22  2  0
 21 23  1  0
 23 24  1  1
 24 25  1  0
 25 26  1  0
 26 27  1  0
 27 28  2  0
 28 29  1  0
 29 30  1  0
 30 31  2  0
 30 32  1  0
 28 33  1  0
 26 34  1  0
 26 35  1  0
 25 36  1  0
 36 37  2  0
 36 38  1  0
 38 39  2  0
 39 40  1  0
 40 41  2  0
 41 42  1  0
 41 43  1  0
 43 44  2  0
 43 45  1  0
 40 46  1  0
 39 47  1  0
 24 48  1  0
 24 49  1  0
  3 50  1  0
  3 51  1  0
  2 52  1  6
  1 53  1  0
  1 54  1  0
  1 55  1  0
 23  2  1  0
 31 27  1  0
 44 38  1  0
 14  5  1  0
 44 23  1  0
 14  9  1  0
M  END
>  <cnnaffinities>  (75) 
[6.67777]

>  <score>  (75) 
6.67777

>  <index>  (75) 
77

>  <Smiles>  (75) 
C([C@]1(C(N(c2c(nc(c3c(c(c(c(c23)[H])[H])[H])[H])[H])[H])C(=O)[C@]21C(N(C(c1c(oc(n1)[H])[H])([H])[H])C(=O)c1c(c(c(F)c(c21)[H])[H])[H])([H])[H])([H])[H])[H])([H])([H])[H]

>  <h>  (75) 
<NA>

>  <Training>  (75) 
True

>  <Success>  (75) 
True

>  <enamine_searched>  (75) 
False

>  <enamine_id>  (75) 
nan

$$$$

     RDKit          3D

 56 60  0  0  0  0  0  0  0  0999 V2000
  -14.4611   -1.6301  -23.7693 C   0  0  0  0  0  0  0  0  0  0  0  0
  -13.7156   -2.7831  -23.3093 N   0  0  0  0  0  0  0  0  0  0  0  0
  -13.3159   -2.8191  -22.0123 C   0  0  0  0  0  0  0  0  0  0  0  0
  -13.6615   -1.9873  -21.1901 O   0  0  0  0  0  0  0  0  0  0  0  0
  -12.4214   -4.0005  -21.6685 C   0  0  0  0  0  0  0  0  0  0  0  0
  -11.0997   -3.9198  -22.2644 N   0  0  0  0  0  0  0  0  0  0  0  0
   -9.9827   -3.4020  -21.4753 C   0  0  0  0  0  0  0  0  0  0  0  0
   -8.7879   -2.9298  -22.3469 C   0  0  2  0  0  0  0  0  0  0  0  0
   -7.5585   -2.7073  -21.4480 C   0  0  0  0  0  0  0  0  0  0  0  0
   -6.8180   -3.5666  -21.0128 O   0  0  0  0  0  0  0  0  0  0  0  0
   -7.3996   -1.3552  -21.2339 N   0  0  0  0  0  0  0  0  0  0  0  0
   -6.5826   -0.8531  -20.1933 C   0  0  0  0  0  0  0  0  0  0  0  0
   -6.8889   -1.1016  -18.8800 C   0  0  0  0  0  0  0  0  0  0  0  0
   -6.2152   -0.5725  -17.8281 N   0  0  0  0  0  0  0  0  0  0  0  0
   -5.1983    0.2093  -18.0911 C   0  0  0  0  0  0  0  0  0  0  0  0
   -4.7536    0.5209  -19.4077 C   0  0  0  0  0  0  0  0  0  0  0  0
   -3.6277    1.3502  -19.6408 C   0  0  0  0  0  0  0  0  0  0  0  0
   -3.2232    1.6188  -20.9183 C   0  0  0  0  0  0  0  0  0  0  0  0
   -3.9260    1.0782  -22.0178 C   0  0  0  0  0  0  0  0  0  0  0  0
   -5.0191    0.2720  -21.8200 C   0  0  0  0  0  0  0  0  0  0  0  0
   -5.4629   -0.0197  -20.5015 C   0  0  0  0  0  0  0  0  0  0  0  0
   -5.5388   -0.1567  -22.6706 H   0  0  0  0  0  0  0  0  0  0  0  0
   -3.5929    1.2985  -23.0269 H   0  0  0  0  0  0  0  0  0  0  0  0
   -2.3652    2.2582  -21.0956 H   0  0  0  0  0  0  0  0  0  0  0  0
   -3.1111    1.7661  -18.7811 H   0  0  0  0  0  0  0  0  0  0  0  0
   -4.6589    0.6353  -17.2440 H   0  0  0  0  0  0  0  0  0  0  0  0
   -7.7296   -1.7442  -18.6306 H   0  0  0  0  0  0  0  0  0  0  0  0
   -8.3937   -0.5360  -21.9060 C   0  0  0  0  0  0  0  0  0  0  0  0
   -9.0081   -1.4913  -22.9419 C   0  0  2  0  0  0  0  0  0  0  0  0
  -10.4540   -1.1542  -23.2789 C   0  0  0  0  0  0  0  0  0  0  0  0
  -11.0628   -1.1325  -22.3670 H   0  0  0  0  0  0  0  0  0  0  0  0
  -10.5338   -0.1819  -23.7700 H   0  0  0  0  0  0  0  0  0  0  0  0
  -10.8678   -1.9192  -23.9408 H   0  0  0  0  0  0  0  0  0  0  0  0
   -8.3961   -1.4458  -23.8558 H   0  0  0  0  0  0  0  0  0  0  0  0
   -7.9281    0.3404  -22.3736 H   0  0  0  0  0  0  0  0  0  0  0  0
   -9.1516   -0.1733  -21.1921 H   0  0  0  0  0  0  0  0  0  0  0  0
   -8.5087   -3.9797  -23.3963 C   0  0  0  0  0  0  0  0  0  0  0  0
   -7.2327   -4.0968  -23.9523 C   0  0  0  0  0  0  0  0  0  0  0  0
   -6.9952   -5.0290  -24.9430 C   0  0  0  0  0  0  0  0  0  0  0  0
   -5.4264   -5.0947  -25.6765 Cl  0  0  0  0  0  0  0  0  0  0  0  0
   -7.9939   -5.8879  -25.3957 C   0  0  0  0  0  0  0  0  0  0  0  0
   -9.2569   -5.7685  -24.8494 C   0  0  0  0  0  0  0  0  0  0  0  0
   -9.5277   -4.7966  -23.8885 C   0  0  0  0  0  0  0  0  0  0  0  0
  -10.9315   -4.5975  -23.4355 C   0  0  0  0  0  0  0  0  0  0  0  0
  -11.8948   -4.9975  -24.0909 O   0  0  0  0  0  0  0  0  0  0  0  0
  -10.0628   -6.4246  -25.1574 H   0  0  0  0  0  0  0  0  0  0  0  0
   -7.7860   -6.6124  -26.1763 H   0  0  0  0  0  0  0  0  0  0  0  0
   -6.4252   -3.4602  -23.6112 H   0  0  0  0  0  0  0  0  0  0  0  0
   -9.6527   -4.1936  -20.7970 H   0  0  0  0  0  0  0  0  0  0  0  0
  -10.3327   -2.5415  -20.8914 H   0  0  0  0  0  0  0  0  0  0  0  0
  -12.9023   -4.8583  -22.1309 H   0  0  0  0  0  0  0  0  0  0  0  0
  -12.3749   -4.1351  -20.5862 H   0  0  0  0  0  0  0  0  0  0  0  0
  -13.4413   -3.5352  -23.9426 H   0  0  0  0  0  0  0  0  0  0  0  0
  -13.8436   -0.7193  -23.7552 H   0  0  0  0  0  0  0  0  0  0  0  0
  -14.8204   -1.7857  -24.7897 H   0  0  0  0  0  0  0  0  0  0  0  0
  -15.3174   -1.4571  -23.1092 H   0  0  0  0  0  0  0  0  0  0  0  0
  1  2  1  0
  2  3  1  0
  3  4  2  0
  3  5  1  0
  5  6  1  0
  6  7  1  0
  8  7  1  1
  8  9  1  0
  9 10  2  0
  9 11  1  0
 11 12  1  0
 12 13  2  0
 13 14  1  0
 14 15  2  0
 15 16  1  0
 16 17  2  0
 17 18  1  0
 18 19  2  0
 19 20  1  0
 20 21  2  0
 20 22  1  0
 19 23  1  0
 18 24  1  0
 17 25  1  0
 15 26  1  0
 13 27  1  0
 11 28  1  0
 28 29  1  0
 29 30  1  0
 30 31  1  0
 30 32  1  0
 30 33  1  0
 29 34  1  6
 28 35  1  0
 28 36  1  0
  8 37  1  0
 37 38  2  0
 38 39  1  0
 39 40  1  0
 39 41  2  0
 41 42  1  0
 42 43  2  0
 43 44  1  0
 44 45  2  0
 42 46  1  0
 41 47  1  0
 38 48  1  0
  7 49  1  0
  7 50  1  0
  5 51  1  0
  5 52  1  0
  2 53  1  0
  1 54  1  0
  1 55  1  0
  1 56  1  0
 44  6  1  0
 29  8  1  0
 43 37  1  0
 21 12  1  0
 21 16  1  0
M  END
>  <cnnaffinities>  (76) 
[6.52834, 6.58864]

>  <score>  (76) 
6.52834

>  <index>  (76) 
78

>  <Smiles>  (76) 
C(N(C(=O)C(N1C([C@@]2(C(=O)N(c3c(nc(c4c(c(c(c(c34)[H])[H])[H])[H])[H])[H])C([C@@]2(C([H])([H])[H])[H])([H])[H])c2c(c(Cl)c(c(c2C1=O)[H])[H])[H])([H])[H])([H])[H])[H])([H])([H])[H]

>  <h>  (76) 
<NA>

>  <Training>  (76) 
True

>  <Success>  (76) 
True

>  <enamine_searched>  (76) 
False

>  <enamine_id>  (76) 
nan

$$$$

     RDKit          3D

 45 49  0  0  0  0  0  0  0  0999 V2000
   -9.3991   -4.0895  -22.3604 C   0  0  0  0  0  0  0  0  0  0  0  0
   -8.7116   -2.8284  -22.1608 N   0  0  0  0  0  0  0  0  0  0  0  0
   -7.5516   -2.7194  -21.4381 C   0  0  0  0  0  0  0  0  0  0  0  0
   -6.8408   -3.6148  -21.0415 O   0  0  0  0  0  0  0  0  0  0  0  0
   -7.3136   -1.3446  -21.2610 N   0  0  0  0  0  0  0  0  0  0  0  0
   -6.5018   -0.8197  -20.2184 C   0  0  0  0  0  0  0  0  0  0  0  0
   -6.8426   -1.0548  -18.9108 C   0  0  0  0  0  0  0  0  0  0  0  0
   -6.1825   -0.5325  -17.8516 N   0  0  0  0  0  0  0  0  0  0  0  0
   -5.1556    0.2411  -18.0960 C   0  0  0  0  0  0  0  0  0  0  0  0
   -4.6873    0.5482  -19.4029 C   0  0  0  0  0  0  0  0  0  0  0  0
   -3.5639    1.3879  -19.6102 C   0  0  0  0  0  0  0  0  0  0  0  0
   -3.1421    1.6734  -20.8786 C   0  0  0  0  0  0  0  0  0  0  0  0
   -3.8223    1.1321  -21.9906 C   0  0  0  0  0  0  0  0  0  0  0  0
   -4.9090    0.3113  -21.8168 C   0  0  0  0  0  0  0  0  0  0  0  0
   -5.3735    0.0048  -20.5083 C   0  0  0  0  0  0  0  0  0  0  0  0
   -5.4259   -0.1033  -22.6760 H   0  0  0  0  0  0  0  0  0  0  0  0
   -3.4801    1.3641  -22.9943 H   0  0  0  0  0  0  0  0  0  0  0  0
   -2.2874    2.3237  -21.0401 H   0  0  0  0  0  0  0  0  0  0  0  0
   -3.0691    1.8064  -18.7400 H   0  0  0  0  0  0  0  0  0  0  0  0
   -4.6368    0.6687  -17.2373 H   0  0  0  0  0  0  0  0  0  0  0  0
   -7.6988   -1.6810  -18.6693 H   0  0  0  0  0  0  0  0  0  0  0  0
   -8.2437   -0.5751  -21.9532 C   0  0  0  0  0  0  0  0  0  0  0  0
   -8.3021    0.6291  -21.9773 O   0  0  0  0  0  0  0  0  0  0  0  0
   -9.1851   -1.5525  -22.6248 C   0  0  0  0  0  0  0  0  0  0  0  0
  -10.6696   -1.1916  -22.4506 C   0  0  0  0  0  0  0  0  0  0  0  0
  -10.8585   -1.1487  -23.9299 N   0  0  0  0  0  0  0  0  0  0  0  0
  -11.8951   -2.2779  -24.6351 S   0  0  0  0  0  0  0  0  0  0  0  0
  -11.1645   -2.8073  -25.7782 O   0  0  0  0  0  0  0  0  0  0  0  0
  -12.4430   -3.1347  -23.5918 O   0  0  0  0  0  0  0  0  0  0  0  0
  -13.2522   -1.3158  -25.1873 C   0  0  0  0  0  0  0  0  0  0  0  0
  -13.7420   -0.1421  -24.3393 C   0  0  0  0  0  0  0  0  0  0  0  0
  -13.7923   -0.4444  -24.2859 C   0  0  0  0  0  0  0  0  0  0  0  0
  -14.5689    0.7617  -24.4121 H   0  0  0  0  0  0  0  0  0  0  0  0
  -12.9593    1.1597  -24.8060 H   0  0  0  0  0  0  0  0  0  0  0  0
  -14.6248   -1.0530  -23.6440 H   0  0  0  0  0  0  0  0  0  0  0  0
  -13.0971   -0.1897  -23.2902 H   0  0  0  0  0  0  0  0  0  0  0  0
  -13.9665   -1.9508  -25.6810 H   0  0  0  0  0  0  0  0  0  0  0  0
   -9.3855   -1.3620  -24.1473 C   0  0  0  0  0  0  0  0  0  0  0  0
   -9.1402   -2.2228  -24.7762 H   0  0  0  0  0  0  0  0  0  0  0  0
   -8.9020   -0.4554  -24.5231 H   0  0  0  0  0  0  0  0  0  0  0  0
  -10.7685   -0.1778  -22.0617 H   0  0  0  0  0  0  0  0  0  0  0  0
  -11.2821   -1.9086  -21.8986 H   0  0  0  0  0  0  0  0  0  0  0  0
   -9.5277   -4.3137  -23.4246 H   0  0  0  0  0  0  0  0  0  0  0  0
   -8.7781   -4.8606  -21.9052 H   0  0  0  0  0  0  0  0  0  0  0  0
  -10.3835   -4.0930  -21.8776 H   0  0  0  0  0  0  0  0  0  0  0  0
  1  2  1  0
  2  3  1  0
  3  4  2  0
  3  5  1  0
  5  6  1  0
  6  7  2  0
  7  8  1  0
  8  9  2  0
  9 10  1  0
 10 11  2  0
 11 12  1  0
 12 13  2  0
 13 14  1  0
 14 15  2  0
 14 16  1  0
 13 17  1  0
 12 18  1  0
 11 19  1  0
  9 20  1  0
  7 21  1  0
  5 22  1  0
 22 23  2  0
 22 24  1  0
 24 25  1  0
 25 26  1  0
 26 27  1  0
 27 28  2  0
 27 29  2  0
 27 30  1  0
 30 31  1  0
 31 32  1  0
 32 33  1  0
 32 34  1  0
 31 35  1  0
 31 36  1  0
 30 37  1  0
 26 38  1  0
 38 39  1  0
 38 40  1  0
 25 41  1  0
 25 42  1  0
  1 43  1  0
  1 44  1  0
  1 45  1  0
 24  2  1  0
 32 30  1  0
 15  6  1  0
 38 24  1  0
 15 10  1  0
M  END
>  <cnnaffinities>  (77) 
[5.51831]

>  <score>  (77) 
5.51831

>  <index>  (77) 
79

>  <Smiles>  (77) 
C(N1C(=O)N(c2c(nc(c3c(c(c(c(c23)[H])[H])[H])[H])[H])[H])C(=O)C21C(N(S(=O)(=O)C1(C(C1([H])[H])([H])[H])[H])C2([H])[H])([H])[H])([H])([H])[H]

>  <h>  (77) 
<NA>

>  <Training>  (77) 
True

>  <Success>  (77) 
True

>  <enamine_searched>  (77) 
False

>  <enamine_id>  (77) 
nan

$$$$

     RDKit          3D

 60 65  0  0  0  0  0  0  0  0999 V2000
   -8.4908    2.1999  -28.9508 C   0  0  0  0  0  0  0  0  0  0  0  0
   -8.7262    2.2378  -27.5119 N   0  0  0  0  0  0  0  0  0  0  0  0
   -7.9126    1.5372  -26.6788 C   0  0  0  0  0  0  0  0  0  0  0  0
   -6.9278    0.9332  -27.0863 O   0  0  0  0  0  0  0  0  0  0  0  0
   -8.2767    1.5942  -25.1922 C   0  0  0  0  0  0  0  0  0  0  0  0
   -9.0428    0.4986  -24.6568 N   0  0  0  0  0  0  0  0  0  0  0  0
   -8.3832   -0.7663  -24.3812 C   0  0  0  0  0  0  0  0  0  0  0  0
   -8.8888   -1.4217  -23.0684 C   0  0  2  0  0  0  0  0  0  0  0  0
   -8.3668   -0.6325  -21.8427 C   0  0  0  0  0  0  0  0  0  0  0  0
   -8.7083    0.4786  -21.4818 O   0  0  0  0  0  0  0  0  0  0  0  0
   -7.4141   -1.3853  -21.1950 N   0  0  0  0  0  0  0  0  0  0  0  0
   -6.6051   -0.8135  -20.1731 C   0  0  0  0  0  0  0  0  0  0  0  0
   -6.9029   -1.0503  -18.8586 C   0  0  0  0  0  0  0  0  0  0  0  0
   -6.1937   -0.5551  -17.8153 N   0  0  0  0  0  0  0  0  0  0  0  0
   -5.1657    0.2079  -18.0860 C   0  0  0  0  0  0  0  0  0  0  0  0
   -4.7347    0.5302  -19.4032 C   0  0  0  0  0  0  0  0  0  0  0  0
   -3.6058    1.3604  -19.6431 C   0  0  0  0  0  0  0  0  0  0  0  0
   -3.2101    1.6447  -20.9200 C   0  0  0  0  0  0  0  0  0  0  0  0
   -3.9235    1.1033  -22.0133 C   0  0  0  0  0  0  0  0  0  0  0  0
   -5.0123    0.2909  -21.8066 C   0  0  0  0  0  0  0  0  0  0  0  0
   -5.4664   -0.0033  -20.4899 C   0  0  0  0  0  0  0  0  0  0  0  0
   -5.5326   -0.1327  -22.6613 H   0  0  0  0  0  0  0  0  0  0  0  0
   -3.6149    1.3330  -23.0296 H   0  0  0  0  0  0  0  0  0  0  0  0
   -2.3562    2.2936  -21.1001 H   0  0  0  0  0  0  0  0  0  0  0  0
   -3.0837    1.7717  -18.7820 H   0  0  0  0  0  0  0  0  0  0  0  0
   -4.6198    0.6153  -17.2336 H   0  0  0  0  0  0  0  0  0  0  0  0
   -7.7530   -1.6738  -18.5903 H   0  0  0  0  0  0  0  0  0  0  0  0
   -7.1023   -2.6402  -21.8477 C   0  0  0  0  0  0  0  0  0  0  0  0
   -8.2663   -2.8463  -22.8404 C   0  0  2  0  0  0  0  0  0  0  0  0
   -7.8285   -3.6340  -24.0821 C   0  0  0  0  0  0  0  0  0  0  0  0
   -8.6472   -3.7753  -24.7966 H   0  0  0  0  0  0  0  0  0  0  0  0
   -7.0122   -3.1216  -24.6059 H   0  0  0  0  0  0  0  0  0  0  0  0
   -7.4594   -4.6276  -23.8025 H   0  0  0  0  0  0  0  0  0  0  0  0
   -9.0401   -3.4234  -22.3304 H   0  0  0  0  0  0  0  0  0  0  0  0
   -7.0192   -3.4436  -21.1050 H   0  0  0  0  0  0  0  0  0  0  0  0
   -6.1385   -2.5865  -22.3783 H   0  0  0  0  0  0  0  0  0  0  0  0
  -10.4105   -1.3765  -23.0716 C   0  0  0  0  0  0  0  0  0  0  0  0
  -11.1295   -2.1648  -22.1597 C   0  0  0  0  0  0  0  0  0  0  0  0
  -12.5108   -2.1224  -22.1454 C   0  0  0  0  0  0  0  0  0  0  0  0
  -13.3917   -3.1141  -21.0185 Cl  0  0  0  0  0  0  0  0  0  0  0  0
  -13.2166   -1.2870  -23.0108 C   0  0  0  0  0  0  0  0  0  0  0  0
  -12.5146   -0.4550  -23.8613 C   0  0  0  0  0  0  0  0  0  0  0  0
  -11.1194   -0.4669  -23.8756 C   0  0  0  0  0  0  0  0  0  0  0  0
  -10.4124    0.5642  -24.7035 C   0  0  0  0  0  0  0  0  0  0  0  0
  -10.9962    1.4331  -25.3429 O   0  0  0  0  0  0  0  0  0  0  0  0
  -13.0162    0.2485  -24.5177 H   0  0  0  0  0  0  0  0  0  0  0  0
  -14.2994   -1.2796  -22.9834 H   0  0  0  0  0  0  0  0  0  0  0  0
  -10.6321   -2.7971  -21.4310 H   0  0  0  0  0  0  0  0  0  0  0  0
   -8.5695   -1.4623  -25.2128 H   0  0  0  0  0  0  0  0  0  0  0  0
   -7.3155   -0.5571  -24.3164 H   0  0  0  0  0  0  0  0  0  0  0  0
   -8.4389    2.9445  -24.5491 C   0  0  0  0  0  0  0  0  0  0  0  0
   -7.1890    2.1461  -24.3061 C   0  0  0  0  0  0  0  0  0  0  0  0
   -6.2631    2.4348  -24.8001 H   0  0  0  0  0  0  0  0  0  0  0  0
   -7.0781    1.6643  -23.3374 H   0  0  0  0  0  0  0  0  0  0  0  0
   -8.4047    3.8250  -25.1879 H   0  0  0  0  0  0  0  0  0  0  0  0
   -9.1575    3.0165  -23.7376 H   0  0  0  0  0  0  0  0  0  0  0  0
   -9.6026    2.5809  -27.1389 H   0  0  0  0  0  0  0  0  0  0  0  0
   -9.2797    2.7712  -29.4480 H   0  0  0  0  0  0  0  0  0  0  0  0
   -8.4864    1.1707  -29.3339 H   0  0  0  0  0  0  0  0  0  0  0  0
   -7.5151    2.6355  -29.2042 H   0  0  0  0  0  0  0  0  0  0  0  0
  1  2  1  0
  2  3  1  0
  3  4  2  0
  3  5  1  0
  5  6  1  0
  6  7  1  0
  8  7  1  6
  8  9  1  0
  9 10  2  0
  9 11  1  0
 11 12  1  0
 12 13  2  0
 13 14  1  0
 14 15  2  0
 15 16  1  0
 16 17  2  0
 17 18  1  0
 18 19  2  0
 19 20  1  0
 20 21  2  0
 20 22  1  0
 19 23  1  0
 18 24  1  0
 17 25  1  0
 15 26  1  0
 13 27  1  0
 11 28  1  0
 28 29  1  0
 29 30  1  0
 30 31  1  0
 30 32  1  0
 30 33  1  0
 29 34  1  1
 28 35  1  0
 28 36  1  0
  8 37  1  0
 37 38  2  0
 38 39  1  0
 39 40  1  0
 39 41  2  0
 41 42  1  0
 42 43  2  0
 43 44  1  0
 44 45  2  0
 42 46  1  0
 41 47  1  0
 38 48  1  0
  7 49  1  0
  7 50  1  0
  5 51  1  0
 51 52  1  0
 52 53  1  0
 52 54  1  0
 51 55  1  0
 51 56  1  0
  2 57  1  0
  1 58  1  0
  1 59  1  0
  1 60  1  0
 52  5  1  0
 44  6  1  0
 29  8  1  0
 43 37  1  0
 21 12  1  0
 21 16  1  0
M  END
>  <cnnaffinities>  (78) 
[6.7227, 5.90308]

>  <score>  (78) 
6.7227

>  <index>  (78) 
80

>  <Smiles>  (78) 
C(N(C(=O)C1(N2C([C@@]3(C(=O)N(c4c(nc(c5c(c(c(c(c45)[H])[H])[H])[H])[H])[H])C([C@@]3(C([H])([H])[H])[H])([H])[H])c3c(c(Cl)c(c(c3C2=O)[H])[H])[H])([H])[H])C(C1([H])[H])([H])[H])[H])([H])([H])[H]

>  <h>  (78) 
<NA>

>  <Training>  (78) 
True

>  <Success>  (78) 
True

>  <enamine_searched>  (78) 
False

>  <enamine_id>  (78) 
nan

$$$$

     RDKit          3D

 36 38  0  0  0  0  0  0  0  0999 V2000
   -8.5050    0.7116  -21.4642 O   0  0  0  0  0  0  0  0  0  0  0  0
   -8.3855   -0.4018  -21.9334 C   0  0  0  0  0  0  0  0  0  0  0  0
   -7.4388   -1.4330  -21.2758 C   0  0  0  0  0  0  0  0  0  0  0  0
   -6.5820   -0.8279  -20.1852 C   0  0  0  0  0  0  0  0  0  0  0  0
   -6.8780   -1.0391  -18.8632 C   0  0  0  0  0  0  0  0  0  0  0  0
   -6.1885   -0.5362  -17.8052 N   0  0  0  0  0  0  0  0  0  0  0  0
   -5.1551    0.2238  -18.0673 C   0  0  0  0  0  0  0  0  0  0  0  0
   -4.7232    0.5357  -19.3836 C   0  0  0  0  0  0  0  0  0  0  0  0
   -3.5970    1.3653  -19.6221 C   0  0  0  0  0  0  0  0  0  0  0  0
   -3.2090    1.6594  -20.9017 C   0  0  0  0  0  0  0  0  0  0  0  0
   -3.9357    1.1334  -21.9926 C   0  0  0  0  0  0  0  0  0  0  0  0
   -5.0279    0.3247  -21.7868 C   0  0  0  0  0  0  0  0  0  0  0  0
   -5.4549    0.0017  -20.4732 C   0  0  0  0  0  0  0  0  0  0  0  0
   -5.5738   -0.0677  -22.6378 H   0  0  0  0  0  0  0  0  0  0  0  0
   -3.6227    1.3679  -23.0049 H   0  0  0  0  0  0  0  0  0  0  0  0
   -2.3529    2.3023  -21.0874 H   0  0  0  0  0  0  0  0  0  0  0  0
   -3.0598    1.7761  -18.7707 H   0  0  0  0  0  0  0  0  0  0  0  0
   -4.6020    0.6275  -17.2167 H   0  0  0  0  0  0  0  0  0  0  0  0
   -7.7277   -1.6588  -18.5836 H   0  0  0  0  0  0  0  0  0  0  0  0
   -6.8021   -1.8991  -22.0403 H   0  0  0  0  0  0  0  0  0  0  0  0
   -8.0409   -2.2450  -20.8444 H   0  0  0  0  0  0  0  0  0  0  0  0
   -9.0623   -0.7716  -23.0888 N   0  0  0  0  0  0  0  0  0  0  0  0
  -10.0069    0.1958  -23.6424 C   0  0  0  0  0  0  0  0  0  0  0  0
  -11.3806    0.2155  -23.0206 C   0  0  0  0  0  0  0  0  0  0  0  0
  -12.0210   -0.7914  -22.4170 C   0  0  0  0  0  0  0  0  0  0  0  0
  -11.5702   -2.1750  -22.1563 C   0  0  0  0  0  0  0  0  0  0  0  0
  -10.4468   -2.7806  -22.5513 C   0  0  0  0  0  0  0  0  0  0  0  0
   -9.3680   -2.1604  -23.4045 C   0  0  0  0  0  0  0  0  0  0  0  0
   -8.4502   -2.7534  -23.3598 H   0  0  0  0  0  0  0  0  0  0  0  0
   -9.6846   -2.1769  -24.4539 H   0  0  0  0  0  0  0  0  0  0  0  0
  -10.2825   -3.8154  -22.2473 H   0  0  0  0  0  0  0  0  0  0  0  0
  -12.2759   -2.7638  -21.5735 H   0  0  0  0  0  0  0  0  0  0  0  0
  -13.0200   -0.5787  -22.0392 H   0  0  0  0  0  0  0  0  0  0  0  0
  -11.8929    1.1789  -23.0817 H   0  0  0  0  0  0  0  0  0  0  0  0
  -10.1139   -0.0406  -24.7079 H   0  0  0  0  0  0  0  0  0  0  0  0
   -9.5584    1.1916  -23.5957 H   0  0  0  0  0  0  0  0  0  0  0  0
  1  2  2  0
  2  3  1  0
  3  4  1  0
  4  5  2  0
  5  6  1  0
  6  7  2  0
  7  8  1  0
  8  9  2  0
  9 10  1  0
 10 11  2  0
 11 12  1  0
 12 13  2  0
 12 14  1  0
 11 15  1  0
 10 16  1  0
  9 17  1  0
  7 18  1  0
  5 19  1  0
  3 20  1  0
  3 21  1  0
  2 22  1  0
 22 23  1  0
 23 24  1  0
 24 25  2  0
 25 26  1  0
 26 27  2  0
 27 28  1  0
 28 29  1  0
 28 30  1  0
 27 31  1  0
 26 32  1  0
 25 33  1  0
 24 34  1  0
 23 35  1  0
 23 36  1  0
 13  4  1  0
 28 22  1  0
 13  8  1  0
M  END
>  <cnnaffinities>  (79) 
[4.51933, 4.51932, 5.23935, 5.23934, 5.01642]

>  <score>  (79) 
4.51933

>  <index>  (79) 
81

>  <Smiles>  (79) 
O=C(C(c1c(nc(c2c(c(c(c(c12)[H])[H])[H])[H])[H])[H])([H])[H])N1C(C(=C(C(=C(C1([H])[H])[H])[H])[H])[H])([H])[H]

>  <h>  (79) 
<NA>

>  <Training>  (79) 
True

>  <Success>  (79) 
True

>  <enamine_searched>  (79) 
False

>  <enamine_id>  (79) 
nan

$$$$

     RDKit          3D

 54 57  0  0  0  0  0  0  0  0999 V2000
  -10.7227    0.3903  -25.3863 C   0  0  0  0  0  0  0  0  0  0  0  0
   -9.8315   -0.6014  -24.9253 O   0  0  0  0  0  0  0  0  0  0  0  0
   -8.4988   -0.5211  -25.2210 C   0  0  0  0  0  0  0  0  0  0  0  0
   -7.9445    0.5083  -25.9872 C   0  0  0  0  0  0  0  0  0  0  0  0
   -6.5730    0.5267  -26.2376 C   0  0  0  0  0  0  0  0  0  0  0  0
   -5.7486   -0.4654  -25.7282 C   0  0  0  0  0  0  0  0  0  0  0  0
   -6.3151   -1.4742  -24.9548 C   0  0  0  0  0  0  0  0  0  0  0  0
   -7.6778   -1.5430  -24.6900 C   0  0  0  0  0  0  0  0  0  0  0  0
   -8.2980   -2.6711  -23.8512 C   0  0  1  0  0  0  0  0  0  0  0  0
   -9.1406   -3.6540  -24.6928 C   0  0  0  0  0  0  0  0  0  0  0  0
   -8.4102   -4.8645  -25.2727 C   0  0  1  0  0  0  0  0  0  0  0  0
   -7.5084   -4.5372  -26.4631 C   0  0  0  0  0  0  0  0  0  0  0  0
   -6.6824   -3.8744  -26.1904 H   0  0  0  0  0  0  0  0  0  0  0  0
   -7.0752   -5.4494  -26.8903 H   0  0  0  0  0  0  0  0  0  0  0  0
   -8.0723   -4.0326  -27.2552 H   0  0  0  0  0  0  0  0  0  0  0  0
   -7.6722   -5.5501  -24.1298 C   0  0  0  0  0  0  0  0  0  0  0  0
   -6.7088   -4.6184  -23.4098 C   0  0  0  0  0  0  0  0  0  0  0  0
   -7.3477   -3.3686  -22.9696 N   0  0  0  0  0  0  0  0  0  0  0  0
   -6.7437   -2.7418  -21.8864 C   0  0  0  0  0  0  0  0  0  0  0  0
   -5.7289   -3.1954  -21.3865 O   0  0  0  0  0  0  0  0  0  0  0  0
   -7.4021   -1.4739  -21.2826 C   0  0  0  0  0  0  0  0  0  0  0  0
   -6.5764   -0.8348  -20.1870 C   0  0  0  0  0  0  0  0  0  0  0  0
   -6.8706   -1.0486  -18.8659 C   0  0  0  0  0  0  0  0  0  0  0  0
   -6.1842   -0.5419  -17.8060 N   0  0  0  0  0  0  0  0  0  0  0  0
   -5.1566    0.2240  -18.0688 C   0  0  0  0  0  0  0  0  0  0  0  0
   -4.7194    0.5309  -19.3835 C   0  0  0  0  0  0  0  0  0  0  0  0
   -3.5919    1.3562  -19.6240 C   0  0  0  0  0  0  0  0  0  0  0  0
   -3.1932    1.6351  -20.9012 C   0  0  0  0  0  0  0  0  0  0  0  0
   -3.9105    1.0954  -21.9925 C   0  0  0  0  0  0  0  0  0  0  0  0
   -5.0045    0.2894  -21.7898 C   0  0  0  0  0  0  0  0  0  0  0  0
   -5.4448   -0.0139  -20.4771 C   0  0  0  0  0  0  0  0  0  0  0  0
   -5.5366   -0.1212  -22.6460 H   0  0  0  0  0  0  0  0  0  0  0  0
   -3.5860    1.3152  -23.0051 H   0  0  0  0  0  0  0  0  0  0  0  0
   -2.3320    2.2736  -21.0877 H   0  0  0  0  0  0  0  0  0  0  0  0
   -3.0597    1.7734  -18.7706 H   0  0  0  0  0  0  0  0  0  0  0  0
   -4.6042    0.6287  -17.2158 H   0  0  0  0  0  0  0  0  0  0  0  0
   -7.7190   -1.6709  -18.5844 H   0  0  0  0  0  0  0  0  0  0  0  0
   -7.6265   -0.7388  -22.0675 H   0  0  0  0  0  0  0  0  0  0  0  0
   -8.3723   -1.7759  -20.8619 H   0  0  0  0  0  0  0  0  0  0  0  0
   -6.3147   -5.1126  -22.5205 H   0  0  0  0  0  0  0  0  0  0  0  0
   -5.8295   -4.4357  -24.0467 H   0  0  0  0  0  0  0  0  0  0  0  0
   -8.4009   -5.9330  -23.4096 H   0  0  0  0  0  0  0  0  0  0  0  0
   -7.1268   -6.4214  -24.5082 H   0  0  0  0  0  0  0  0  0  0  0  0
   -9.1797   -5.5591  -25.6451 H   0  0  0  0  0  0  0  0  0  0  0  0
   -9.6152   -3.0918  -25.4981 H   0  0  0  0  0  0  0  0  0  0  0  0
   -9.9590   -4.0206  -24.0615 H   0  0  0  0  0  0  0  0  0  0  0  0
   -9.0162   -2.1793  -23.1895 H   0  0  0  0  0  0  0  0  0  0  0  0
   -5.6643   -2.2492  -24.5672 H   0  0  0  0  0  0  0  0  0  0  0  0
   -4.6756   -0.4615  -25.9138 H   0  0  0  0  0  0  0  0  0  0  0  0
   -6.1413    1.3279  -26.8287 H   0  0  0  0  0  0  0  0  0  0  0  0
   -8.5696    1.3015  -26.3915 H   0  0  0  0  0  0  0  0  0  0  0  0
  -11.6941    0.0967  -24.9959 H   0  0  0  0  0  0  0  0  0  0  0  0
  -10.7806    0.4485  -26.4796 H   0  0  0  0  0  0  0  0  0  0  0  0
  -10.5126    1.3987  -25.0103 H   0  0  0  0  0  0  0  0  0  0  0  0
  1  2  1  0
  2  3  1  0
  3  4  2  0
  4  5  1  0
  5  6  2  0
  6  7  1  0
  7  8  2  0
  8  9  1  0
  9 10  1  0
 10 11  1  0
 11 12  1  0
 12 13  1  0
 12 14  1  0
 12 15  1  0
 11 16  1  0
 16 17  1  0
 17 18  1  0
 18 19  1  0
 19 20  2  0
 19 21  1  0
 21 22  1  0
 22 23  2  0
 23 24  1  0
 24 25  2  0
 25 26  1  0
 26 27  2  0
 27 28  1  0
 28 29  2  0
 29 30  1  0
 30 31  2  0
 30 32  1  0
 29 33  1  0
 28 34  1  0
 27 35  1  0
 25 36  1  0
 23 37  1  0
 21 38  1  0
 21 39  1  0
 17 40  1  0
 17 41  1  0
 16 42  1  0
 16 43  1  0
 11 44  1  6
 10 45  1  0
 10 46  1  0
  9 47  1  1
  7 48  1  0
  6 49  1  0
  5 50  1  0
  4 51  1  0
  1 52  1  0
  1 53  1  0
  1 54  1  0
  8  3  1  0
 18  9  1  0
 31 22  1  0
 31 26  1  0
M  END
>  <cnnaffinities>  (80) 
[5.73364, 5.90082, 5.58855]

>  <score>  (80) 
5.73364

>  <index>  (80) 
82

>  <Smiles>  (80) 
C(Oc1c(c(c(c(c1[C@]1(C([C@@](C([H])([H])[H])(C(C(N1C(=O)C(c1c(nc(c2c(c(c(c(c12)[H])[H])[H])[H])[H])[H])([H])[H])([H])[H])([H])[H])[H])([H])[H])[H])[H])[H])[H])[H])([H])([H])[H]

>  <h>  (80) 
<NA>

>  <Training>  (80) 
True

>  <Success>  (80) 
True

>  <enamine_searched>  (80) 
False

>  <enamine_id>  (80) 
nan

$$$$

     RDKit          3D

 46 50  0  0  0  0  0  0  0  0999 V2000
   -3.6353   -1.0710  -25.3742 N   0  0  0  0  0  0  0  0  0  0  0  0
   -4.5341   -2.0117  -26.3777 S   0  0  0  0  0  0  0  0  0  0  0  0
   -4.3129   -3.3704  -25.9184 O   0  0  0  0  0  0  0  0  0  0  0  0
   -4.1990   -1.5786  -27.7211 O   0  0  0  0  0  0  0  0  0  0  0  0
   -6.2379   -1.5875  -26.0932 C   0  0  0  0  0  0  0  0  0  0  0  0
   -6.9830   -0.9827  -27.1017 C   0  0  0  0  0  0  0  0  0  0  0  0
   -8.2930   -0.6213  -26.8499 C   0  0  0  0  0  0  0  0  0  0  0  0
   -8.8574   -0.8485  -25.5926 C   0  0  0  0  0  0  0  0  0  0  0  0
   -8.1077   -1.4501  -24.5787 C   0  0  0  0  0  0  0  0  0  0  0  0
   -6.7883   -1.8066  -24.8406 C   0  0  0  0  0  0  0  0  0  0  0  0
   -6.1898   -2.2783  -24.0671 H   0  0  0  0  0  0  0  0  0  0  0  0
   -8.6925   -1.6765  -23.1965 C   0  0  1  0  0  0  0  0  0  0  0  0
  -10.2260   -1.5917  -23.2579 C   0  0  0  0  0  0  0  0  0  0  0  0
  -10.6720   -0.4110  -24.1051 C   0  0  0  0  0  0  0  0  0  0  0  0
  -10.1584   -0.4871  -25.4365 O   0  0  0  0  0  0  0  0  0  0  0  0
  -10.3636    0.5315  -23.6329 H   0  0  0  0  0  0  0  0  0  0  0  0
  -11.7577   -0.4207  -24.2333 H   0  0  0  0  0  0  0  0  0  0  0  0
  -10.6013   -1.5109  -22.2355 H   0  0  0  0  0  0  0  0  0  0  0  0
  -10.6178   -2.5252  -23.6860 H   0  0  0  0  0  0  0  0  0  0  0  0
   -8.2713   -2.9140  -22.5798 N   0  0  0  0  0  0  0  0  0  0  0  0
   -7.4481   -2.7734  -21.5016 C   0  0  0  0  0  0  0  0  0  0  0  0
   -6.8264   -3.6334  -20.9286 O   0  0  0  0  0  0  0  0  0  0  0  0
   -7.4154   -1.3905  -21.2180 N   0  0  0  0  0  0  0  0  0  0  0  0
   -6.5949   -0.8259  -20.2002 C   0  0  0  0  0  0  0  0  0  0  0  0
   -6.9008   -1.0683  -18.8860 C   0  0  0  0  0  0  0  0  0  0  0  0
   -6.2093   -0.5508  -17.8462 N   0  0  0  0  0  0  0  0  0  0  0  0
   -5.1782    0.2103  -18.1039 C   0  0  0  0  0  0  0  0  0  0  0  0
   -4.7312    0.5188  -19.4148 C   0  0  0  0  0  0  0  0  0  0  0  0
   -3.5971    1.3434  -19.6401 C   0  0  0  0  0  0  0  0  0  0  0  0
   -3.1812    1.6099  -20.9143 C   0  0  0  0  0  0  0  0  0  0  0  0
   -3.8825    1.0548  -22.0094 C   0  0  0  0  0  0  0  0  0  0  0  0
   -4.9784    0.2534  -21.8184 C   0  0  0  0  0  0  0  0  0  0  0  0
   -5.4479   -0.0230  -20.5047 C   0  0  0  0  0  0  0  0  0  0  0  0
   -5.5121   -0.1678  -22.6689 H   0  0  0  0  0  0  0  0  0  0  0  0
   -3.5468    1.2654  -23.0200 H   0  0  0  0  0  0  0  0  0  0  0  0
   -2.3192    2.2486  -21.0891 H   0  0  0  0  0  0  0  0  0  0  0  0
   -3.0826    1.7603  -18.7794 H   0  0  0  0  0  0  0  0  0  0  0  0
   -4.6366    0.6119  -17.2476 H   0  0  0  0  0  0  0  0  0  0  0  0
   -7.7490   -1.6912  -18.6132 H   0  0  0  0  0  0  0  0  0  0  0  0
   -8.1076   -0.6637  -22.1907 C   0  0  0  0  0  0  0  0  0  0  0  0
   -8.2112    0.5377  -22.2313 O   0  0  0  0  0  0  0  0  0  0  0  0
   -8.4474   -3.8190  -22.9859 H   0  0  0  0  0  0  0  0  0  0  0  0
   -8.9123   -0.1691  -27.6127 H   0  0  0  0  0  0  0  0  0  0  0  0
   -6.5250   -0.8152  -28.0695 H   0  0  0  0  0  0  0  0  0  0  0  0
   -3.7412   -0.0808  -25.5581 H   0  0  0  0  0  0  0  0  0  0  0  0
   -3.6642   -1.3518  -24.3979 H   0  0  0  0  0  0  0  0  0  0  0  0
  1  2  1  0
  2  3  2  0
  2  4  2  0
  2  5  1  0
  5  6  2  0
  6  7  1  0
  7  8  2  0
  8  9  1  0
  9 10  2  0
 10 11  1  0
  9 12  1  0
 12 13  1  0
 13 14  1  0
 14 15  1  0
 14 16  1  0
 14 17  1  0
 13 18  1  0
 13 19  1  0
 12 20  1  1
 20 21  1  0
 21 22  2  0
 21 23  1  0
 23 24  1  0
 24 25  2  0
 25 26  1  0
 26 27  2  0
 27 28  1  0
 28 29  2  0
 29 30  1  0
 30 31  2  0
 31 32  1  0
 32 33  2  0
 32 34  1  0
 31 35  1  0
 30 36  1  0
 29 37  1  0
 27 38  1  0
 25 39  1  0
 23 40  1  0
 40 41  2  0
 20 42  1  0
  7 43  1  0
  6 44  1  0
  1 45  1  0
  1 46  1  0
 10  5  1  0
 40 12  1  0
 15  8  1  0
 33 24  1  0
 33 28  1  0
M  END
>  <cnnaffinities>  (81) 
[5.41399]

>  <score>  (81) 
5.41399

>  <index>  (81) 
83

>  <Smiles>  (81) 
N(S(=O)(=O)c1c(c(c2c(c1[H])[C@@]1(C(C(O2)([H])[H])([H])[H])N(C(=O)N(c2c(nc(c3c(c(c(c(c23)[H])[H])[H])[H])[H])[H])C1=O)[H])[H])[H])([H])[H]

>  <h>  (81) 
<NA>

>  <Training>  (81) 
True

>  <Success>  (81) 
True

>  <enamine_searched>  (81) 
False

>  <enamine_id>  (81) 
nan

$$$$

     RDKit          3D

 63 68  0  0  0  0  0  0  0  0999 V2000
   -8.1567   -3.7806  -23.9091 C   0  0  0  0  0  0  0  0  0  0  0  0
   -8.3371   -3.0340  -22.5945 C   0  0  1  0  0  0  0  0  0  0  0  0
   -7.0209   -2.4531  -22.0452 C   0  0  0  0  0  0  0  0  0  0  0  0
   -7.4702   -1.3583  -21.2118 N   0  0  0  0  0  0  0  0  0  0  0  0
   -6.6725   -0.7822  -20.1837 C   0  0  0  0  0  0  0  0  0  0  0  0
   -6.9708   -1.0146  -18.8624 C   0  0  0  0  0  0  0  0  0  0  0  0
   -6.2505   -0.5296  -17.8230 N   0  0  0  0  0  0  0  0  0  0  0  0
   -5.2116    0.2214  -18.0912 C   0  0  0  0  0  0  0  0  0  0  0  0
   -4.7759    0.5303  -19.4094 C   0  0  0  0  0  0  0  0  0  0  0  0
   -3.6565    1.3727  -19.6550 C   0  0  0  0  0  0  0  0  0  0  0  0
   -3.2703    1.6620  -20.9352 C   0  0  0  0  0  0  0  0  0  0  0  0
   -3.9983    1.1413  -22.0250 C   0  0  0  0  0  0  0  0  0  0  0  0
   -5.0906    0.3271  -21.8131 C   0  0  0  0  0  0  0  0  0  0  0  0
   -5.5130    0.0001  -20.4959 C   0  0  0  0  0  0  0  0  0  0  0  0
   -5.6791   -0.0049  -22.6619 H   0  0  0  0  0  0  0  0  0  0  0  0
   -3.7098    1.3978  -23.0401 H   0  0  0  0  0  0  0  0  0  0  0  0
   -2.4251    2.3213  -21.1150 H   0  0  0  0  0  0  0  0  0  0  0  0
   -3.1403    1.8016  -18.8015 H   0  0  0  0  0  0  0  0  0  0  0  0
   -4.6483    0.6275  -17.2477 H   0  0  0  0  0  0  0  0  0  0  0  0
   -7.8215   -1.6376  -18.5952 H   0  0  0  0  0  0  0  0  0  0  0  0
   -8.7501   -0.9393  -21.5073 C   0  0  0  0  0  0  0  0  0  0  0  0
   -9.3083    0.0093  -20.9883 O   0  0  0  0  0  0  0  0  0  0  0  0
   -9.3477   -1.8488  -22.6217 C   0  0  1  0  0  0  0  0  0  0  0  0
   -9.3161   -1.1170  -24.0010 C   0  0  0  0  0  0  0  0  0  0  0  0
  -10.3090   -0.0633  -24.1487 N   0  0  0  0  0  0  0  0  0  0  0  0
   -9.9183    1.1383  -24.8730 C   0  0  0  0  0  0  0  0  0  0  0  0
   -8.6843    1.7214  -24.1697 C   0  0  0  0  0  0  0  0  0  0  0  0
   -7.5521    1.6687  -24.6271 O   0  0  0  0  0  0  0  0  0  0  0  0
   -8.9848    2.2023  -22.9379 N   0  0  0  0  0  0  0  0  0  0  0  0
   -7.9980    2.5211  -21.9313 C   0  0  0  0  0  0  0  0  0  0  0  0
   -7.5094    3.9421  -22.0204 C   0  0  0  0  0  0  0  0  0  0  0  0
   -8.5326    4.8563  -21.9802 F   0  0  0  0  0  0  0  0  0  0  0  0
   -6.3589    4.2845  -22.8956 C   0  0  0  0  0  0  0  0  0  0  0  0
   -6.2308    4.3572  -21.3858 C   0  0  0  0  0  0  0  0  0  0  0  0
   -5.6474    3.5768  -20.8984 H   0  0  0  0  0  0  0  0  0  0  0  0
   -6.2082    5.3452  -20.9324 H   0  0  0  0  0  0  0  0  0  0  0  0
   -5.8786    3.4648  -23.4306 H   0  0  0  0  0  0  0  0  0  0  0  0
   -6.4357    5.2223  -23.4314 H   0  0  0  0  0  0  0  0  0  0  0  0
   -8.4493    2.3177  -20.9581 H   0  0  0  0  0  0  0  0  0  0  0  0
   -7.1411    1.8518  -22.0620 H   0  0  0  0  0  0  0  0  0  0  0  0
   -9.9377    2.1088  -22.6170 H   0  0  0  0  0  0  0  0  0  0  0  0
   -9.7079    0.9242  -25.9246 H   0  0  0  0  0  0  0  0  0  0  0  0
  -10.7618    1.8315  -24.8067 H   0  0  0  0  0  0  0  0  0  0  0  0
  -11.5182   -0.0863  -23.5286 C   0  0  0  0  0  0  0  0  0  0  0  0
  -12.3058    0.8508  -23.6038 O   0  0  0  0  0  0  0  0  0  0  0  0
  -11.8250   -1.3185  -22.7410 C   0  0  0  0  0  0  0  0  0  0  0  0
  -13.1644   -1.5340  -22.4156 C   0  0  0  0  0  0  0  0  0  0  0  0
  -13.5337   -2.5983  -21.6265 C   0  0  0  0  0  0  0  0  0  0  0  0
  -12.5216   -3.4503  -21.2150 C   0  0  0  0  0  0  0  0  0  0  0  0
  -12.8503   -4.3792  -20.3080 F   0  0  0  0  0  0  0  0  0  0  0  0
  -11.2003   -3.3307  -21.6089 C   0  0  0  0  0  0  0  0  0  0  0  0
  -10.8060   -2.2016  -22.3396 C   0  0  0  0  0  0  0  0  0  0  0  0
  -10.5045   -4.0875  -21.2597 H   0  0  0  0  0  0  0  0  0  0  0  0
  -14.5559   -2.7717  -21.3033 H   0  0  0  0  0  0  0  0  0  0  0  0
  -13.9029   -0.8358  -22.7877 H   0  0  0  0  0  0  0  0  0  0  0  0
   -9.4744   -1.8442  -24.8041 H   0  0  0  0  0  0  0  0  0  0  0  0
   -8.3324   -0.6654  -24.1484 H   0  0  0  0  0  0  0  0  0  0  0  0
   -6.3576   -2.1062  -22.8534 H   0  0  0  0  0  0  0  0  0  0  0  0
   -6.4582   -3.1878  -21.4596 H   0  0  0  0  0  0  0  0  0  0  0  0
   -8.6929   -3.7319  -21.8316 H   0  0  0  0  0  0  0  0  0  0  0  0
   -7.7031   -3.1291  -24.6652 H   0  0  0  0  0  0  0  0  0  0  0  0
   -7.5017   -4.6481  -23.7899 H   0  0  0  0  0  0  0  0  0  0  0  0
   -9.1198   -4.1258  -24.2990 H   0  0  0  0  0  0  0  0  0  0  0  0
  1  2  1  0
  2  3  1  0
  3  4  1  0
  4  5  1  0
  5  6  2  0
  6  7  1  0
  7  8  2  0
  8  9  1  0
  9 10  2  0
 10 11  1  0
 11 12  2  0
 12 13  1  0
 13 14  2  0
 13 15  1  0
 12 16  1  0
 11 17  1  0
 10 18  1  0
  8 19  1  0
  6 20  1  0
  4 21  1  0
 21 22  2  0
 21 23  1  0
 23 24  1  6
 24 25  1  0
 25 26  1  0
 26 27  1  0
 27 28  2  0
 27 29  1  0
 29 30  1  0
 30 31  1  0
 31 32  1  0
 31 33  1  0
 33 34  1  0
 34 35  1  0
 34 36  1  0
 33 37  1  0
 33 38  1  0
 30 39  1  0
 30 40  1  0
 29 41  1  0
 26 42  1  0
 26 43  1  0
 25 44  1  0
 44 45  2  0
 44 46  1  0
 46 47  2  0
 47 48  1  0
 48 49  2  0
 49 50  1  0
 49 51  1  0
 51 52  2  0
 51 53  1  0
 48 54  1  0
 47 55  1  0
 24 56  1  0
 24 57  1  0
  3 58  1  0
  3 59  1  0
  2 60  1  1
  1 61  1  0
  1 62  1  0
  1 63  1  0
 23  2  1  0
 34 31  1  0
 52 46  1  0
 14  5  1  0
 52 23  1  0
 14  9  1  0
M  END
>  <cnnaffinities>  (82) 
[6.90553]

>  <score>  (82) 
6.90553

>  <index>  (82) 
84

>  <Smiles>  (82) 
C([C@]1(C(N(c2c(nc(c3c(c(c(c(c23)[H])[H])[H])[H])[H])[H])C(=O)[C@]21C(N(C(C(=O)N(C(C1(F)C(C1([H])[H])([H])[H])([H])[H])[H])([H])[H])C(=O)c1c(c(c(F)c(c21)[H])[H])[H])([H])[H])([H])[H])[H])([H])([H])[H]

>  <h>  (82) 
<NA>

>  <Training>  (82) 
True

>  <Success>  (82) 
True

>  <enamine_searched>  (82) 
False

>  <enamine_id>  (82) 
nan

$$$$

     RDKit          3D

 57 62  0  0  0  0  0  0  0  0999 V2000
   -9.2723    1.0536  -29.3095 C   0  0  0  0  0  0  0  0  0  0  0  0
   -9.1685    1.3753  -27.9021 N   0  0  0  0  0  0  0  0  0  0  0  0
   -8.2878    0.6885  -27.1304 C   0  0  0  0  0  0  0  0  0  0  0  0
   -7.5446   -0.1784  -27.5631 O   0  0  0  0  0  0  0  0  0  0  0  0
   -8.3048    1.0818  -25.6533 C   0  0  0  0  0  0  0  0  0  0  0  0
   -9.1502    0.2033  -24.8741 N   0  0  0  0  0  0  0  0  0  0  0  0
   -8.6581   -1.1152  -24.5186 C   0  0  0  0  0  0  0  0  0  0  0  0
   -8.9693   -1.4758  -23.0460 C   0  0  2  0  0  0  0  0  0  0  0  0
   -8.1596   -0.5647  -22.0949 C   0  0  0  0  0  0  0  0  0  0  0  0
   -8.1728    0.6450  -22.0707 O   0  0  0  0  0  0  0  0  0  0  0  0
   -7.3903   -1.3442  -21.2525 N   0  0  0  0  0  0  0  0  0  0  0  0
   -6.5938   -0.8078  -20.2121 C   0  0  0  0  0  0  0  0  0  0  0  0
   -6.8942   -1.0669  -18.8967 C   0  0  0  0  0  0  0  0  0  0  0  0
   -6.2095   -0.5662  -17.8407 N   0  0  0  0  0  0  0  0  0  0  0  0
   -5.1826    0.2068  -18.0938 C   0  0  0  0  0  0  0  0  0  0  0  0
   -4.7358    0.5228  -19.4073 C   0  0  0  0  0  0  0  0  0  0  0  0
   -3.6054    1.3529  -19.6269 C   0  0  0  0  0  0  0  0  0  0  0  0
   -3.1837    1.6273  -20.8986 C   0  0  0  0  0  0  0  0  0  0  0  0
   -3.8673    1.0795  -22.0055 C   0  0  0  0  0  0  0  0  0  0  0  0
   -4.9583    0.2694  -21.8184 C   0  0  0  0  0  0  0  0  0  0  0  0
   -5.4409   -0.0087  -20.5079 C   0  0  0  0  0  0  0  0  0  0  0  0
   -5.4665   -0.1564  -22.6769 H   0  0  0  0  0  0  0  0  0  0  0  0
   -3.5243    1.2940  -23.0140 H   0  0  0  0  0  0  0  0  0  0  0  0
   -2.3248    2.2696  -21.0676 H   0  0  0  0  0  0  0  0  0  0  0  0
   -3.0973    1.7693  -18.7619 H   0  0  0  0  0  0  0  0  0  0  0  0
   -4.6367    0.6127  -17.2413 H   0  0  0  0  0  0  0  0  0  0  0  0
   -7.7554   -1.6848  -18.6435 H   0  0  0  0  0  0  0  0  0  0  0  0
   -7.6390   -2.7561  -21.3820 C   0  0  0  0  0  0  0  0  0  0  0  0
   -8.4776   -2.8795  -22.6459 C   0  0  0  0  0  0  0  0  0  0  0  0
   -9.3418   -4.0924  -22.8217 C   0  0  0  0  0  0  0  0  0  0  0  0
   -8.0958   -3.9436  -23.6434 C   0  0  0  0  0  0  0  0  0  0  0  0
   -7.2405   -4.5756  -23.4083 H   0  0  0  0  0  0  0  0  0  0  0  0
   -8.1972   -3.7141  -24.7001 H   0  0  0  0  0  0  0  0  0  0  0  0
   -9.3668   -4.8375  -22.0271 H   0  0  0  0  0  0  0  0  0  0  0  0
  -10.2952   -3.9508  -23.3220 H   0  0  0  0  0  0  0  0  0  0  0  0
   -6.6955   -3.3075  -21.4475 H   0  0  0  0  0  0  0  0  0  0  0  0
   -8.1941   -3.1223  -20.5162 H   0  0  0  0  0  0  0  0  0  0  0  0
  -10.4675   -1.2308  -22.8720 C   0  0  0  0  0  0  0  0  0  0  0  0
  -11.2020   -1.9682  -21.9441 C   0  0  0  0  0  0  0  0  0  0  0  0
  -12.5752   -1.8121  -21.8822 C   0  0  0  0  0  0  0  0  0  0  0  0
  -13.4832   -2.9582  -20.9422 Cl  0  0  0  0  0  0  0  0  0  0  0  0
  -13.2248   -0.7557  -22.5183 C   0  0  0  0  0  0  0  0  0  0  0  0
  -12.4827    0.0402  -23.3696 C   0  0  0  0  0  0  0  0  0  0  0  0
  -11.1447   -0.2480  -23.6118 C   0  0  0  0  0  0  0  0  0  0  0  0
  -10.4434    0.5675  -24.6471 C   0  0  0  0  0  0  0  0  0  0  0  0
  -10.9691    1.5113  -25.2323 O   0  0  0  0  0  0  0  0  0  0  0  0
  -12.9083    0.8931  -23.8832 H   0  0  0  0  0  0  0  0  0  0  0  0
  -14.2841   -0.5927  -22.3492 H   0  0  0  0  0  0  0  0  0  0  0  0
  -10.7155   -2.7065  -21.3132 H   0  0  0  0  0  0  0  0  0  0  0  0
   -7.5824   -1.1400  -24.7096 H   0  0  0  0  0  0  0  0  0  0  0  0
   -9.1376   -1.8659  -25.1598 H   0  0  0  0  0  0  0  0  0  0  0  0
   -8.6848    2.0987  -25.5239 H   0  0  0  0  0  0  0  0  0  0  0  0
   -7.2825    1.0053  -25.2621 H   0  0  0  0  0  0  0  0  0  0  0  0
   -9.9121    1.8941  -27.4531 H   0  0  0  0  0  0  0  0  0  0  0  0
   -9.5206   -0.0024  -29.4530 H   0  0  0  0  0  0  0  0  0  0  0  0
  -10.0399    1.6738  -29.7760 H   0  0  0  0  0  0  0  0  0  0  0  0
   -8.3184    1.2399  -29.8096 H   0  0  0  0  0  0  0  0  0  0  0  0
  1  2  1  0
  2  3  1  0
  3  4  2  0
  3  5  1  0
  5  6  1  0
  6  7  1  0
  8  7  1  6
  8  9  1  0
  9 10  2  0
  9 11  1  0
 11 12  1  0
 12 13  2  0
 13 14  1  0
 14 15  2  0
 15 16  1  0
 16 17  2  0
 17 18  1  0
 18 19  2  0
 19 20  1  0
 20 21  2  0
 20 22  1  0
 19 23  1  0
 18 24  1  0
 17 25  1  0
 15 26  1  0
 13 27  1  0
 11 28  1  0
 28 29  1  0
 29 30  1  0
 30 31  1  0
 31 32  1  0
 31 33  1  0
 30 34  1  0
 30 35  1  0
 28 36  1  0
 28 37  1  0
  8 38  1  0
 38 39  2  0
 39 40  1  0
 40 41  1  0
 40 42  2  0
 42 43  1  0
 43 44  2  0
 44 45  1  0
 45 46  2  0
 43 47  1  0
 42 48  1  0
 39 49  1  0
  7 50  1  0
  7 51  1  0
  5 52  1  0
  5 53  1  0
  2 54  1  0
  1 55  1  0
  1 56  1  0
  1 57  1  0
 45  6  1  0
 29  8  1  0
 44 38  1  0
 21 12  1  0
 31 29  1  0
 21 16  1  0
M  END
>  <cnnaffinities>  (83) 
[5.82511]

>  <score>  (83) 
5.82511

>  <index>  (83) 
85

>  <Smiles>  (83) 
C(N(C(=O)C(N1C([C@@]2(C(=O)N(c3c(nc(c4c(c(c(c(c34)[H])[H])[H])[H])[H])[H])C(C32C(C3([H])[H])([H])[H])([H])[H])c2c(c(Cl)c(c(c2C1=O)[H])[H])[H])([H])[H])([H])[H])[H])([H])([H])[H]

>  <h>  (83) 
<NA>

>  <Training>  (83) 
True

>  <Success>  (83) 
True

>  <enamine_searched>  (83) 
False

>  <enamine_id>  (83) 
nan

$$$$

     RDKit          3D

 43 45  0  0  0  0  0  0  0  0999 V2000
   -8.5473   -5.5637  -25.7826 C   0  0  0  0  0  0  0  0  0  0  0  0
   -9.0638   -5.4499  -24.3458 C   0  0  1  0  0  0  0  0  0  0  0  0
   -8.0263   -5.8764  -23.3103 C   0  0  0  0  0  0  0  0  0  0  0  0
   -6.9371   -4.8319  -23.0947 C   0  0  0  0  0  0  0  0  0  0  0  0
   -7.5142   -3.5414  -22.7124 N   0  0  0  0  0  0  0  0  0  0  0  0
   -6.7555   -2.7465  -21.8640 C   0  0  0  0  0  0  0  0  0  0  0  0
   -5.6211   -3.0600  -21.5494 O   0  0  0  0  0  0  0  0  0  0  0  0
   -7.4124   -1.4746  -21.2702 C   0  0  0  0  0  0  0  0  0  0  0  0
   -6.5795   -0.8304  -20.1853 C   0  0  0  0  0  0  0  0  0  0  0  0
   -6.8724   -1.0462  -18.8647 C   0  0  0  0  0  0  0  0  0  0  0  0
   -6.1840   -0.5428  -17.8065 N   0  0  0  0  0  0  0  0  0  0  0  0
   -5.1558    0.2238  -18.0693 C   0  0  0  0  0  0  0  0  0  0  0  0
   -4.7198    0.5311  -19.3837 C   0  0  0  0  0  0  0  0  0  0  0  0
   -3.5915    1.3568  -19.6226 C   0  0  0  0  0  0  0  0  0  0  0  0
   -3.1899    1.6347  -20.9010 C   0  0  0  0  0  0  0  0  0  0  0  0
   -3.9047    1.0941  -21.9919 C   0  0  0  0  0  0  0  0  0  0  0  0
   -4.9987    0.2898  -21.7856 C   0  0  0  0  0  0  0  0  0  0  0  0
   -5.4445   -0.0130  -20.4746 C   0  0  0  0  0  0  0  0  0  0  0  0
   -5.5240   -0.1304  -22.6363 H   0  0  0  0  0  0  0  0  0  0  0  0
   -3.5785    1.3098  -23.0046 H   0  0  0  0  0  0  0  0  0  0  0  0
   -2.3293    2.2720  -21.0860 H   0  0  0  0  0  0  0  0  0  0  0  0
   -3.0609    1.7737  -18.7696 H   0  0  0  0  0  0  0  0  0  0  0  0
   -4.6045    0.6282  -17.2171 H   0  0  0  0  0  0  0  0  0  0  0  0
   -7.7194   -1.6694  -18.5842 H   0  0  0  0  0  0  0  0  0  0  0  0
   -7.6211   -0.7475  -22.0678 H   0  0  0  0  0  0  0  0  0  0  0  0
   -8.3920   -1.7509  -20.8540 H   0  0  0  0  0  0  0  0  0  0  0  0
   -8.5398   -2.9964  -23.6135 C   0  0  1  0  0  0  0  0  0  0  0  0
   -7.9410   -2.2905  -24.8406 C   0  0  0  0  0  0  0  0  0  0  0  0
   -8.7280   -1.9761  -25.5352 H   0  0  0  0  0  0  0  0  0  0  0  0
   -7.2483   -2.9313  -25.3934 H   0  0  0  0  0  0  0  0  0  0  0  0
   -7.3903   -1.3890  -24.5494 H   0  0  0  0  0  0  0  0  0  0  0  0
   -9.5912   -4.0644  -23.9672 C   0  0  0  0  0  0  0  0  0  0  0  0
  -10.2131   -3.6827  -24.7842 H   0  0  0  0  0  0  0  0  0  0  0  0
  -10.2623   -4.1722  -23.1086 H   0  0  0  0  0  0  0  0  0  0  0  0
   -9.0797   -2.2364  -23.0439 H   0  0  0  0  0  0  0  0  0  0  0  0
   -6.2996   -4.7543  -23.9888 H   0  0  0  0  0  0  0  0  0  0  0  0
   -6.2741   -5.1449  -22.2908 H   0  0  0  0  0  0  0  0  0  0  0  0
   -7.5750   -6.8276  -23.6122 H   0  0  0  0  0  0  0  0  0  0  0  0
   -8.5192   -6.0585  -22.3518 H   0  0  0  0  0  0  0  0  0  0  0  0
   -9.9154   -6.1419  -24.2747 H   0  0  0  0  0  0  0  0  0  0  0  0
   -7.6005   -5.0394  -25.9390 H   0  0  0  0  0  0  0  0  0  0  0  0
   -8.3805   -6.6141  -26.0496 H   0  0  0  0  0  0  0  0  0  0  0  0
   -9.2684   -5.1523  -26.4966 H   0  0  0  0  0  0  0  0  0  0  0  0
  1  2  1  0
  2  3  1  0
  3  4  1  0
  4  5  1  0
  5  6  1  0
  6  7  2  0
  6  8  1  0
  8  9  1  0
  9 10  2  0
 10 11  1  0
 11 12  2  0
 12 13  1  0
 13 14  2  0
 14 15  1  0
 15 16  2  0
 16 17  1  0
 17 18  2  0
 17 19  1  0
 16 20  1  0
 15 21  1  0
 14 22  1  0
 12 23  1  0
 10 24  1  0
  8 25  1  0
  8 26  1  0
  5 27  1  0
 27 28  1  0
 28 29  1  0
 28 30  1  0
 28 31  1  0
 27 32  1  0
 32 33  1  0
 32 34  1  0
 27 35  1  1
  4 36  1  0
  4 37  1  0
  3 38  1  0
  3 39  1  0
  2 40  1  6
  1 41  1  0
  1 42  1  0
  1 43  1  0
 32  2  1  0
 18  9  1  0
 18 13  1  0
M  END
>  <cnnaffinities>  (84) 
[5.25597, 4.74816]

>  <score>  (84) 
5.25597

>  <index>  (84) 
86

>  <Smiles>  (84) 
C([C@]1(C(C(N(C(=O)C(c2c(nc(c3c(c(c(c(c23)[H])[H])[H])[H])[H])[H])([H])[H])[C@@](C([H])([H])[H])(C1([H])[H])[H])([H])[H])([H])[H])[H])([H])([H])[H]

>  <h>  (84) 
<NA>

>  <Training>  (84) 
True

>  <Success>  (84) 
True

>  <enamine_searched>  (84) 
False

>  <enamine_id>  (84) 
nan

$$$$

     RDKit          3D

 59 64  0  0  0  0  0  0  0  0999 V2000
   -7.9452   -3.6833  -24.0253 C   0  0  0  0  0  0  0  0  0  0  0  0
   -8.3347   -2.8443  -22.7998 C   0  0  1  0  0  0  0  0  0  0  0  0
   -7.1509   -2.6485  -21.8284 C   0  0  0  0  0  0  0  0  0  0  0  0
   -7.4268   -1.3733  -21.1932 N   0  0  0  0  0  0  0  0  0  0  0  0
   -6.6091   -0.8032  -20.1769 C   0  0  0  0  0  0  0  0  0  0  0  0
   -6.8987   -1.0474  -18.8608 C   0  0  0  0  0  0  0  0  0  0  0  0
   -6.1878   -0.5557  -17.8168 N   0  0  0  0  0  0  0  0  0  0  0  0
   -5.1614    0.2097  -18.0852 C   0  0  0  0  0  0  0  0  0  0  0  0
   -4.7335    0.5334  -19.4028 C   0  0  0  0  0  0  0  0  0  0  0  0
   -3.6029    1.3628  -19.6405 C   0  0  0  0  0  0  0  0  0  0  0  0
   -3.2109    1.6515  -20.9175 C   0  0  0  0  0  0  0  0  0  0  0  0
   -3.9298    1.1194  -22.0123 C   0  0  0  0  0  0  0  0  0  0  0  0
   -5.0244    0.3151  -21.8106 C   0  0  0  0  0  0  0  0  0  0  0  0
   -5.4695    0.0092  -20.4914 C   0  0  0  0  0  0  0  0  0  0  0  0
   -5.5602   -0.0920  -22.6646 H   0  0  0  0  0  0  0  0  0  0  0  0
   -3.6122    1.3512  -23.0254 H   0  0  0  0  0  0  0  0  0  0  0  0
   -2.3566    2.2994  -21.0972 H   0  0  0  0  0  0  0  0  0  0  0  0
   -3.0763    1.7711  -18.7808 H   0  0  0  0  0  0  0  0  0  0  0  0
   -4.6153    0.6156  -17.2316 H   0  0  0  0  0  0  0  0  0  0  0  0
   -7.7464   -1.6736  -18.5910 H   0  0  0  0  0  0  0  0  0  0  0  0
   -8.3545   -0.6079  -21.8609 C   0  0  0  0  0  0  0  0  0  0  0  0
   -8.6533    0.5282  -21.5372 O   0  0  0  0  0  0  0  0  0  0  0  0
   -8.8996   -1.4063  -23.0665 C   0  0  1  0  0  0  0  0  0  0  0  0
   -8.3324   -0.8020  -24.3762 C   0  0  0  0  0  0  0  0  0  0  0  0
   -8.8791    0.5114  -24.6479 N   0  0  0  0  0  0  0  0  0  0  0  0
   -7.9567    1.6186  -24.8524 C   0  0  0  0  0  0  0  0  0  0  0  0
   -6.9982    1.4105  -25.9856 C   0  0  0  0  0  0  0  0  0  0  0  0
   -5.6377    1.1702  -25.9807 C   0  0  0  0  0  0  0  0  0  0  0  0
   -5.3008    0.9750  -27.3341 C   0  0  0  0  0  0  0  0  0  0  0  0
   -6.3658    1.0951  -28.1166 N   0  0  0  0  0  0  0  0  0  0  0  0
   -7.3845    1.3665  -27.2860 N   0  0  0  0  0  0  0  0  0  0  0  0
   -8.7215    1.5346  -27.8170 C   0  0  0  0  0  0  0  0  0  0  0  0
   -9.1873    2.4383  -27.4063 H   0  0  0  0  0  0  0  0  0  0  0  0
   -8.6198    1.6234  -28.9020 H   0  0  0  0  0  0  0  0  0  0  0  0
   -9.3496    0.6700  -27.5712 H   0  0  0  0  0  0  0  0  0  0  0  0
   -4.3431    0.7347  -27.7849 H   0  0  0  0  0  0  0  0  0  0  0  0
   -5.0130    1.1139  -25.0973 H   0  0  0  0  0  0  0  0  0  0  0  0
   -8.5756    2.5094  -24.9966 H   0  0  0  0  0  0  0  0  0  0  0  0
   -7.3664    1.7555  -23.9342 H   0  0  0  0  0  0  0  0  0  0  0  0
  -10.2268    0.7172  -24.6551 C   0  0  0  0  0  0  0  0  0  0  0  0
  -10.7543    1.6770  -25.2115 O   0  0  0  0  0  0  0  0  0  0  0  0
  -11.0350   -0.3025  -23.9096 C   0  0  0  0  0  0  0  0  0  0  0  0
  -12.4252   -0.1851  -23.9519 C   0  0  0  0  0  0  0  0  0  0  0  0
  -13.2191   -0.9958  -23.1667 C   0  0  0  0  0  0  0  0  0  0  0  0
  -12.5930   -1.9000  -22.3170 C   0  0  0  0  0  0  0  0  0  0  0  0
  -13.3548   -2.6535  -21.5064 F   0  0  0  0  0  0  0  0  0  0  0  0
  -11.2212   -2.0480  -22.2660 C   0  0  0  0  0  0  0  0  0  0  0  0
  -10.4150   -1.2816  -23.1159 C   0  0  0  0  0  0  0  0  0  0  0  0
  -10.8122   -2.7389  -21.5373 H   0  0  0  0  0  0  0  0  0  0  0  0
  -14.3008   -0.9233  -23.1667 H   0  0  0  0  0  0  0  0  0  0  0  0
  -12.8502    0.5796  -24.5919 H   0  0  0  0  0  0  0  0  0  0  0  0
   -7.2480   -0.7012  -24.2876 H   0  0  0  0  0  0  0  0  0  0  0  0
   -8.5636   -1.4728  -25.2172 H   0  0  0  0  0  0  0  0  0  0  0  0
   -6.1928   -2.6327  -22.3731 H   0  0  0  0  0  0  0  0  0  0  0  0
   -7.0809   -3.4427  -21.0769 H   0  0  0  0  0  0  0  0  0  0  0  0
   -9.1189   -3.3808  -22.2598 H   0  0  0  0  0  0  0  0  0  0  0  0
   -8.7747   -3.7883  -24.7340 H   0  0  0  0  0  0  0  0  0  0  0  0
   -7.1031   -3.2332  -24.5664 H   0  0  0  0  0  0  0  0  0  0  0  0
   -7.6344   -4.6915  -23.7262 H   0  0  0  0  0  0  0  0  0  0  0  0
  1  2  1  0
  2  3  1  0
  3  4  1  0
  4  5  1  0
  5  6  2  0
  6  7  1  0
  7  8  2  0
  8  9  1  0
  9 10  2  0
 10 11  1  0
 11 12  2  0
 12 13  1  0
 13 14  2  0
 13 15  1  0
 12 16  1  0
 11 17  1  0
 10 18  1  0
  8 19  1  0
  6 20  1  0
  4 21  1  0
 21 22  2  0
 21 23  1  0
 23 24  1  6
 24 25  1  0
 25 26  1  0
 26 27  1  0
 27 28  2  0
 28 29  1  0
 29 30  2  0
 30 31  1  0
 31 32  1  0
 32 33  1  0
 32 34  1  0
 32 35  1  0
 29 36  1  0
 28 37  1  0
 26 38  1  0
 26 39  1  0
 25 40  1  0
 40 41  2  0
 40 42  1  0
 42 43  2  0
 43 44  1  0
 44 45  2  0
 45 46  1  0
 45 47  1  0
 47 48  2  0
 47 49  1  0
 44 50  1  0
 43 51  1  0
 24 52  1  0
 24 53  1  0
  3 54  1  0
  3 55  1  0
  2 56  1  1
  1 57  1  0
  1 58  1  0
  1 59  1  0
 23  2  1  0
 31 27  1  0
 48 42  1  0
 14  5  1  0
 48 23  1  0
 14  9  1  0
M  END
>  <cnnaffinities>  (85) 
[6.64638, 6.78703]

>  <score>  (85) 
6.64638

>  <index>  (85) 
87

>  <Smiles>  (85) 
C([C@]1(C(N(c2c(nc(c3c(c(c(c(c23)[H])[H])[H])[H])[H])[H])C(=O)[C@]21C(N(C(c1c(c(nn1C([H])([H])[H])[H])[H])([H])[H])C(=O)c1c(c(c(F)c(c21)[H])[H])[H])([H])[H])([H])[H])[H])([H])([H])[H]

>  <h>  (85) 
<NA>

>  <Training>  (85) 
True

>  <Success>  (85) 
True

>  <enamine_searched>  (85) 
False

>  <enamine_id>  (85) 
nan

$$$$

     RDKit          3D

 40 42  0  0  0  0  0  0  0  0999 V2000
   -5.5907   -2.9740  -21.6807 O   0  0  0  0  0  0  0  0  0  0  0  0
   -6.7929   -2.7995  -21.7760 C   0  0  0  0  0  0  0  0  0  0  0  0
   -7.4234   -1.4825  -21.2550 C   0  0  0  0  0  0  0  0  0  0  0  0
   -6.5823   -0.8244  -20.1814 C   0  0  0  0  0  0  0  0  0  0  0  0
   -6.8721   -1.0417  -18.8593 C   0  0  0  0  0  0  0  0  0  0  0  0
   -6.1826   -0.5416  -17.8028 N   0  0  0  0  0  0  0  0  0  0  0  0
   -5.1547    0.2257  -18.0661 C   0  0  0  0  0  0  0  0  0  0  0  0
   -4.7191    0.5335  -19.3830 C   0  0  0  0  0  0  0  0  0  0  0  0
   -3.5898    1.3596  -19.6200 C   0  0  0  0  0  0  0  0  0  0  0  0
   -3.1884    1.6358  -20.8990 C   0  0  0  0  0  0  0  0  0  0  0  0
   -3.9021    1.0946  -21.9901 C   0  0  0  0  0  0  0  0  0  0  0  0
   -4.9976    0.2911  -21.7852 C   0  0  0  0  0  0  0  0  0  0  0  0
   -5.4441   -0.0091  -20.4727 C   0  0  0  0  0  0  0  0  0  0  0  0
   -5.5149   -0.1376  -22.6367 H   0  0  0  0  0  0  0  0  0  0  0  0
   -3.5728    1.3083  -23.0027 H   0  0  0  0  0  0  0  0  0  0  0  0
   -2.3268    2.2718  -21.0843 H   0  0  0  0  0  0  0  0  0  0  0  0
   -3.0560    1.7762  -18.7686 H   0  0  0  0  0  0  0  0  0  0  0  0
   -4.6007    0.6291  -17.2163 H   0  0  0  0  0  0  0  0  0  0  0  0
   -7.7183   -1.6693  -18.5838 H   0  0  0  0  0  0  0  0  0  0  0  0
   -8.4252   -1.6853  -20.8466 H   0  0  0  0  0  0  0  0  0  0  0  0
   -7.5639   -0.7899  -22.0956 H   0  0  0  0  0  0  0  0  0  0  0  0
   -7.6214   -3.7653  -22.3130 N   0  0  0  0  0  0  0  0  0  0  0  0
   -7.2607   -5.1765  -22.1562 C   0  0  0  0  0  0  0  0  0  0  0  0
   -7.5509   -6.0022  -23.3991 C   0  0  0  0  0  0  0  0  0  0  0  0
   -8.9936   -5.8079  -23.8480 C   0  0  0  0  0  0  0  0  0  0  0  0
   -9.3389   -6.6194  -25.0800 C   0  0  0  0  0  0  0  0  0  0  0  0
   -8.5092   -6.2792  -26.1092 F   0  0  0  0  0  0  0  0  0  0  0  0
   -9.1549   -7.9514  -24.8519 F   0  0  0  0  0  0  0  0  0  0  0  0
  -10.3724   -6.4839  -25.4270 H   0  0  0  0  0  0  0  0  0  0  0  0
   -9.2784   -4.3291  -24.0575 C   0  0  0  0  0  0  0  0  0  0  0  0
   -8.9718   -3.5173  -22.8030 C   0  0  0  0  0  0  0  0  0  0  0  0
   -9.7205   -3.7517  -22.0321 H   0  0  0  0  0  0  0  0  0  0  0  0
   -9.0780   -2.4581  -23.0376 H   0  0  0  0  0  0  0  0  0  0  0  0
   -8.6823   -3.9648  -24.8975 H   0  0  0  0  0  0  0  0  0  0  0  0
  -10.3276   -4.1847  -24.3395 H   0  0  0  0  0  0  0  0  0  0  0  0
   -9.6550   -6.1846  -23.0691 H   0  0  0  0  0  0  0  0  0  0  0  0
   -6.8754   -5.7053  -24.2021 H   0  0  0  0  0  0  0  0  0  0  0  0
   -7.3568   -7.0619  -23.1962 H   0  0  0  0  0  0  0  0  0  0  0  0
   -6.2059   -5.2361  -21.8921 H   0  0  0  0  0  0  0  0  0  0  0  0
   -7.8196   -5.6293  -21.3287 H   0  0  0  0  0  0  0  0  0  0  0  0
  1  2  2  0
  2  3  1  0
  3  4  1  0
  4  5  2  0
  5  6  1  0
  6  7  2  0
  7  8  1  0
  8  9  2  0
  9 10  1  0
 10 11  2  0
 11 12  1  0
 12 13  2  0
 12 14  1  0
 11 15  1  0
 10 16  1  0
  9 17  1  0
  7 18  1  0
  5 19  1  0
  3 20  1  0
  3 21  1  0
  2 22  1  0
 22 23  1  0
 23 24  1  0
 24 25  1  0
 25 26  1  0
 26 27  1  0
 26 28  1  0
 26 29  1  0
 25 30  1  0
 30 31  1  0
 31 32  1  0
 31 33  1  0
 30 34  1  0
 30 35  1  0
 25 36  1  0
 24 37  1  0
 24 38  1  0
 23 39  1  0
 23 40  1  0
 13  4  1  0
 31 22  1  0
 13  8  1  0
M  END
>  <cnnaffinities>  (86) 
[5.02268, 4.9022, 4.947, 4.94693, 4.94477]

>  <score>  (86) 
5.02268

>  <index>  (86) 
88

>  <Smiles>  (86) 
O=C(C(c1c(nc(c2c(c(c(c(c12)[H])[H])[H])[H])[H])[H])([H])[H])N1C(C(C(C(F)(F)[H])(C(C1([H])[H])([H])[H])[H])([H])[H])([H])[H]

>  <h>  (86) 
<NA>

>  <Training>  (86) 
True

>  <Success>  (86) 
True

>  <enamine_searched>  (86) 
False

>  <enamine_id>  (86) 
nan

$$$$

     RDKit          3D

 43 45  0  0  0  0  0  0  0  0999 V2000
   -6.6984    0.2996  -26.9332 C   0  0  0  0  0  0  0  0  0  0  0  0
   -8.0231    0.5103  -26.1875 C   0  0  0  0  0  0  0  0  0  0  0  0
   -9.0570    1.0572  -27.1808 C   0  0  0  0  0  0  0  0  0  0  0  0
  -10.0113    1.2811  -26.6898 H   0  0  0  0  0  0  0  0  0  0  0  0
   -8.7029    1.9835  -27.6482 H   0  0  0  0  0  0  0  0  0  0  0  0
   -9.2558    0.3414  -27.9864 H   0  0  0  0  0  0  0  0  0  0  0  0
   -7.8072    1.5158  -25.0349 C   0  0  0  0  0  0  0  0  0  0  0  0
   -8.6334    1.1986  -23.7904 C   0  0  0  0  0  0  0  0  0  0  0  0
   -8.2718   -0.1194  -23.2691 N   0  0  0  0  0  0  0  0  0  0  0  0
   -8.3350   -0.3284  -21.9065 C   0  0  0  0  0  0  0  0  0  0  0  0
   -9.0511    0.3422  -21.1847 O   0  0  0  0  0  0  0  0  0  0  0  0
   -7.4289   -1.4116  -21.2839 C   0  0  0  0  0  0  0  0  0  0  0  0
   -6.5709   -0.8308  -20.1782 C   0  0  0  0  0  0  0  0  0  0  0  0
   -6.8764   -1.0395  -18.8588 C   0  0  0  0  0  0  0  0  0  0  0  0
   -6.1863   -0.5352  -17.8006 N   0  0  0  0  0  0  0  0  0  0  0  0
   -5.1538    0.2239  -18.0660 C   0  0  0  0  0  0  0  0  0  0  0  0
   -4.7181    0.5348  -19.3811 C   0  0  0  0  0  0  0  0  0  0  0  0
   -3.5963    1.3679  -19.6222 C   0  0  0  0  0  0  0  0  0  0  0  0
   -3.2082    1.6612  -20.9004 C   0  0  0  0  0  0  0  0  0  0  0  0
   -3.9305    1.1304  -21.9925 C   0  0  0  0  0  0  0  0  0  0  0  0
   -5.0167    0.3174  -21.7863 C   0  0  0  0  0  0  0  0  0  0  0  0
   -5.4444   -0.0041  -20.4713 C   0  0  0  0  0  0  0  0  0  0  0  0
   -5.5541   -0.0805  -22.6429 H   0  0  0  0  0  0  0  0  0  0  0  0
   -3.6145    1.3624  -23.0046 H   0  0  0  0  0  0  0  0  0  0  0  0
   -2.3537    2.3061  -21.0862 H   0  0  0  0  0  0  0  0  0  0  0  0
   -3.0618    1.7804  -18.7697 H   0  0  0  0  0  0  0  0  0  0  0  0
   -4.6011    0.6291  -17.2153 H   0  0  0  0  0  0  0  0  0  0  0  0
   -7.7289   -1.6597  -18.5839 H   0  0  0  0  0  0  0  0  0  0  0  0
   -8.0911   -2.1684  -20.8455 H   0  0  0  0  0  0  0  0  0  0  0  0
   -6.8067   -1.9199  -22.0300 H   0  0  0  0  0  0  0  0  0  0  0  0
   -7.9667   -1.1681  -24.2368 C   0  0  0  0  0  0  0  0  0  0  0  0
   -8.5343   -0.8268  -25.6164 C   0  0  0  0  0  0  0  0  0  0  0  0
   -9.6291   -0.8197  -25.5577 H   0  0  0  0  0  0  0  0  0  0  0  0
   -8.2887   -1.6334  -26.3129 H   0  0  0  0  0  0  0  0  0  0  0  0
   -6.8835   -1.3435  -24.3078 H   0  0  0  0  0  0  0  0  0  0  0  0
   -8.4146   -2.1045  -23.8929 H   0  0  0  0  0  0  0  0  0  0  0  0
   -9.7069    1.2609  -24.0104 H   0  0  0  0  0  0  0  0  0  0  0  0
   -8.4388    1.9329  -23.0091 H   0  0  0  0  0  0  0  0  0  0  0  0
   -6.7506    1.5343  -24.7418 H   0  0  0  0  0  0  0  0  0  0  0  0
   -8.0314    2.5287  -25.3845 H   0  0  0  0  0  0  0  0  0  0  0  0
   -5.9333   -0.1391  -26.2828 H   0  0  0  0  0  0  0  0  0  0  0  0
   -6.8287   -0.3722  -27.7896 H   0  0  0  0  0  0  0  0  0  0  0  0
   -6.3045    1.2484  -27.3164 H   0  0  0  0  0  0  0  0  0  0  0  0
  1  2  1  0
  2  3  1  0
  3  4  1  0
  3  5  1  0
  3  6  1  0
  2  7  1  0
  7  8  1  0
  8  9  1  0
  9 10  1  0
 10 11  2  0
 10 12  1  0
 12 13  1  0
 13 14  2  0
 14 15  1  0
 15 16  2  0
 16 17  1  0
 17 18  2  0
 18 19  1  0
 19 20  2  0
 20 21  1  0
 21 22  2  0
 21 23  1  0
 20 24  1  0
 19 25  1  0
 18 26  1  0
 16 27  1  0
 14 28  1  0
 12 29  1  0
 12 30  1  0
  9 31  1  0
 31 32  1  0
 32 33  1  0
 32 34  1  0
 31 35  1  0
 31 36  1  0
  8 37  1  0
  8 38  1  0
  7 39  1  0
  7 40  1  0
  1 41  1  0
  1 42  1  0
  1 43  1  0
 32  2  1  0
 22 13  1  0
 22 17  1  0
M  END
>  <cnnaffinities>  (87) 
[4.52947, 4.52947, 4.52951, 5.13937, 4.80219, 4.80224, 4.80225, 4.80221, 4.77813, 4.79627, 4.79625, 4.79626, 5.08033, 5.0803, 5.08029]

>  <score>  (87) 
4.52947

>  <index>  (87) 
89

>  <Smiles>  (87) 
C(C1(C([H])([H])[H])C(C(N(C(=O)C(c2c(nc(c3c(c(c(c(c23)[H])[H])[H])[H])[H])[H])([H])[H])C(C1([H])[H])([H])[H])([H])[H])([H])[H])([H])([H])[H]

>  <h>  (87) 
<NA>

>  <Training>  (87) 
True

>  <Success>  (87) 
True

>  <enamine_searched>  (87) 
False

>  <enamine_id>  (87) 
nan

$$$$

     RDKit          3D

 64 68  0  0  0  0  0  0  0  0999 V2000
   -7.4756    3.3089  -21.8056 C   0  0  0  0  0  0  0  0  0  0  0  0
   -8.5121    2.8292  -22.7080 N   0  0  0  0  0  0  0  0  0  0  0  0
   -8.0903    2.1007  -23.7836 C   0  0  0  0  0  0  0  0  0  0  0  0
   -6.9030    1.9172  -24.0144 O   0  0  0  0  0  0  0  0  0  0  0  0
   -9.1488    1.5057  -24.7128 C   0  0  0  0  0  0  0  0  0  0  0  0
   -9.7217    0.3092  -24.1347 N   0  0  0  0  0  0  0  0  0  0  0  0
   -8.9103   -0.8956  -24.0529 C   0  0  0  0  0  0  0  0  0  0  0  0
   -9.1715   -1.6656  -22.7395 C   0  0  2  0  0  0  0  0  0  0  0  0
   -8.6155   -0.8587  -21.5452 C   0  0  0  0  0  0  0  0  0  0  0  0
   -9.1214    0.1085  -21.0083 O   0  0  0  0  0  0  0  0  0  0  0  0
   -7.4033   -1.4042  -21.1900 N   0  0  0  0  0  0  0  0  0  0  0  0
   -6.6071   -0.8215  -20.1769 C   0  0  0  0  0  0  0  0  0  0  0  0
   -6.9202   -1.0454  -18.8612 C   0  0  0  0  0  0  0  0  0  0  0  0
   -6.2152   -0.5534  -17.8159 N   0  0  0  0  0  0  0  0  0  0  0  0
   -5.1806    0.2015  -18.0851 C   0  0  0  0  0  0  0  0  0  0  0  0
   -4.7466    0.5203  -19.4016 C   0  0  0  0  0  0  0  0  0  0  0  0
   -3.6268    1.3590  -19.6405 C   0  0  0  0  0  0  0  0  0  0  0  0
   -3.2415    1.6591  -20.9153 C   0  0  0  0  0  0  0  0  0  0  0  0
   -3.9620    1.1414  -22.0146 C   0  0  0  0  0  0  0  0  0  0  0  0
   -5.0570    0.3341  -21.8132 C   0  0  0  0  0  0  0  0  0  0  0  0
   -5.4756   -0.0071  -20.4979 C   0  0  0  0  0  0  0  0  0  0  0  0
   -5.6197   -0.0156  -22.6751 H   0  0  0  0  0  0  0  0  0  0  0  0
   -3.6481    1.3795  -23.0263 H   0  0  0  0  0  0  0  0  0  0  0  0
   -2.3865    2.3041  -21.0930 H   0  0  0  0  0  0  0  0  0  0  0  0
   -3.1005    1.7640  -18.7793 H   0  0  0  0  0  0  0  0  0  0  0  0
   -4.6170    0.6008  -17.2393 H   0  0  0  0  0  0  0  0  0  0  0  0
   -7.7834   -1.6588  -18.6143 H   0  0  0  0  0  0  0  0  0  0  0  0
   -7.0158   -2.5674  -21.9564 C   0  0  0  0  0  0  0  0  0  0  0  0
   -8.3272   -2.9709  -22.6507 C   0  0  2  0  0  0  0  0  0  0  0  0
   -8.1195   -3.7525  -23.9462 C   0  0  0  0  0  0  0  0  0  0  0  0
   -7.4438   -5.3742  -23.6162 S   0  0  0  0  0  0  0  0  0  0  0  0
   -6.0610   -5.2443  -23.1839 O   0  0  0  0  0  0  0  0  0  0  0  0
   -8.3958   -6.1113  -22.7907 O   0  0  0  0  0  0  0  0  0  0  0  0
   -7.3546   -5.9960  -25.1625 N   0  0  0  0  0  0  0  0  0  0  0  0
   -8.5591   -6.4532  -25.8494 C   0  0  0  0  0  0  0  0  0  0  0  0
   -9.1495   -5.6022  -26.2013 H   0  0  0  0  0  0  0  0  0  0  0  0
   -8.2480   -7.0059  -26.7398 H   0  0  0  0  0  0  0  0  0  0  0  0
   -9.1875   -7.0995  -25.2302 H   0  0  0  0  0  0  0  0  0  0  0  0
   -6.5917   -6.6618  -25.1751 H   0  0  0  0  0  0  0  0  0  0  0  0
   -7.4242   -3.2621  -24.6314 H   0  0  0  0  0  0  0  0  0  0  0  0
   -9.0631   -3.8983  -24.4778 H   0  0  0  0  0  0  0  0  0  0  0  0
   -8.8477   -3.6521  -21.9784 H   0  0  0  0  0  0  0  0  0  0  0  0
   -6.6410   -3.3571  -21.3018 H   0  0  0  0  0  0  0  0  0  0  0  0
   -6.2207   -2.3361  -22.6816 H   0  0  0  0  0  0  0  0  0  0  0  0
  -10.6707   -1.8350  -22.6056 C   0  0  0  0  0  0  0  0  0  0  0  0
  -11.2166   -2.8389  -21.8055 C   0  0  0  0  0  0  0  0  0  0  0  0
  -12.5832   -2.8945  -21.6234 C   0  0  0  0  0  0  0  0  0  0  0  0
  -13.0787   -3.8407  -20.8128 F   0  0  0  0  0  0  0  0  0  0  0  0
  -13.4757   -2.0160  -22.2236 C   0  0  0  0  0  0  0  0  0  0  0  0
  -12.9388   -1.0196  -23.0066 C   0  0  0  0  0  0  0  0  0  0  0  0
  -11.5608   -0.9092  -23.1713 C   0  0  0  0  0  0  0  0  0  0  0  0
  -11.0688    0.2756  -23.9298 C   0  0  0  0  0  0  0  0  0  0  0  0
  -11.8172    1.1650  -24.3209 O   0  0  0  0  0  0  0  0  0  0  0  0
  -13.5609   -0.2828  -23.4972 H   0  0  0  0  0  0  0  0  0  0  0  0
  -14.5425   -2.1167  -22.0540 H   0  0  0  0  0  0  0  0  0  0  0  0
  -10.6030   -3.5754  -21.2997 H   0  0  0  0  0  0  0  0  0  0  0  0
   -7.8582   -0.6078  -24.1292 H   0  0  0  0  0  0  0  0  0  0  0  0
   -9.1420   -1.5533  -24.8995 H   0  0  0  0  0  0  0  0  0  0  0  0
   -9.9821    2.1884  -24.9161 H   0  0  0  0  0  0  0  0  0  0  0  0
   -8.6421    1.2612  -25.6551 H   0  0  0  0  0  0  0  0  0  0  0  0
   -9.4353    2.6778  -22.3149 H   0  0  0  0  0  0  0  0  0  0  0  0
   -6.8342    4.0306  -22.3222 H   0  0  0  0  0  0  0  0  0  0  0  0
   -6.8684    2.4578  -21.4585 H   0  0  0  0  0  0  0  0  0  0  0  0
   -7.9343    3.8362  -20.9654 H   0  0  0  0  0  0  0  0  0  0  0  0
  1  2  1  0
  2  3  1  0
  3  4  2  0
  3  5  1  0
  5  6  1  0
  6  7  1  0
  8  7  1  6
  8  9  1  0
  9 10  2  0
  9 11  1  0
 11 12  1  0
 12 13  2  0
 13 14  1  0
 14 15  2  0
 15 16  1  0
 16 17  2  0
 17 18  1  0
 18 19  2  0
 19 20  1  0
 20 21  2  0
 20 22  1  0
 19 23  1  0
 18 24  1  0
 17 25  1  0
 15 26  1  0
 13 27  1  0
 11 28  1  0
 28 29  1  0
 29 30  1  0
 30 31  1  0
 31 32  2  0
 31 33  2  0
 31 34  1  0
 34 35  1  0
 35 36  1  0
 35 37  1  0
 35 38  1  0
 34 39  1  0
 30 40  1  0
 30 41  1  0
 29 42  1  1
 28 43  1  0
 28 44  1  0
  8 45  1  0
 45 46  2  0
 46 47  1  0
 47 48  1  0
 47 49  2  0
 49 50  1  0
 50 51  2  0
 51 52  1  0
 52 53  2  0
 50 54  1  0
 49 55  1  0
 46 56  1  0
  7 57  1  0
  7 58  1  0
  5 59  1  0
  5 60  1  0
  2 61  1  0
  1 62  1  0
  1 63  1  0
  1 64  1  0
 52  6  1  0
 29  8  1  0
 51 45  1  0
 21 12  1  0
 21 16  1  0
M  END
>  <cnnaffinities>  (88) 
[6.53496, 6.8749]

>  <score>  (88) 
6.53496

>  <index>  (88) 
90

>  <Smiles>  (88) 
C(N(C(=O)C(N1C([C@@]2(C(=O)N(c3c(nc(c4c(c(c(c(c34)[H])[H])[H])[H])[H])[H])C([C@@]2(C(S(=O)(=O)N(C([H])([H])[H])[H])([H])[H])[H])([H])[H])c2c(c(F)c(c(c2C1=O)[H])[H])[H])([H])[H])([H])[H])[H])([H])([H])[H]

>  <h>  (88) 
<NA>

>  <Training>  (88) 
True

>  <Success>  (88) 
True

>  <enamine_searched>  (88) 
False

>  <enamine_id>  (88) 
nan

$$$$

     RDKit          3D

 66 71  0  0  0  0  0  0  0  0999 V2000
   -7.4763    3.2815  -21.8504 C   0  0  0  0  0  0  0  0  0  0  0  0
   -8.5650    2.8274  -22.7019 N   0  0  0  0  0  0  0  0  0  0  0  0
   -8.2235    2.0599  -23.7746 C   0  0  0  0  0  0  0  0  0  0  0  0
   -7.0602    1.7818  -24.0291 O   0  0  0  0  0  0  0  0  0  0  0  0
   -9.3434    1.5176  -24.6585 C   0  0  0  0  0  0  0  0  0  0  0  0
   -9.8937    0.3177  -24.0556 N   0  0  0  0  0  0  0  0  0  0  0  0
   -9.0771   -0.8889  -24.0251 C   0  0  0  0  0  0  0  0  0  0  0  0
   -9.2788   -1.6695  -22.6995 C   0  0  2  0  0  0  0  0  0  0  0  0
   -8.6684   -0.8402  -21.5343 C   0  0  0  0  0  0  0  0  0  0  0  0
   -9.1467    0.1433  -21.0068 O   0  0  0  0  0  0  0  0  0  0  0  0
   -7.4473   -1.3887  -21.2022 N   0  0  0  0  0  0  0  0  0  0  0  0
   -6.6293   -0.8201  -20.1923 C   0  0  0  0  0  0  0  0  0  0  0  0
   -6.9341   -1.0465  -18.8718 C   0  0  0  0  0  0  0  0  0  0  0  0
   -6.2225   -0.5639  -17.8278 N   0  0  0  0  0  0  0  0  0  0  0  0
   -5.1862    0.1890  -18.0979 C   0  0  0  0  0  0  0  0  0  0  0  0
   -4.7607    0.5124  -19.4160 C   0  0  0  0  0  0  0  0  0  0  0  0
   -3.6401    1.3531  -19.6464 C   0  0  0  0  0  0  0  0  0  0  0  0
   -3.2526    1.6552  -20.9222 C   0  0  0  0  0  0  0  0  0  0  0  0
   -3.9718    1.1404  -22.0217 C   0  0  0  0  0  0  0  0  0  0  0  0
   -5.0716    0.3336  -21.8258 C   0  0  0  0  0  0  0  0  0  0  0  0
   -5.4930   -0.0092  -20.5108 C   0  0  0  0  0  0  0  0  0  0  0  0
   -5.6386   -0.0026  -22.6880 H   0  0  0  0  0  0  0  0  0  0  0  0
   -3.6535    1.3795  -23.0323 H   0  0  0  0  0  0  0  0  0  0  0  0
   -2.3933    2.2967  -21.0954 H   0  0  0  0  0  0  0  0  0  0  0  0
   -3.1145    1.7540  -18.7837 H   0  0  0  0  0  0  0  0  0  0  0  0
   -4.6196    0.5888  -17.2556 H   0  0  0  0  0  0  0  0  0  0  0  0
   -7.7955   -1.6609  -18.6241 H   0  0  0  0  0  0  0  0  0  0  0  0
   -7.0994   -2.5609  -21.9810 C   0  0  0  0  0  0  0  0  0  0  0  0
   -8.4274   -2.9668  -22.6323 C   0  0  2  0  0  0  0  0  0  0  0  0
   -8.1952   -3.7426  -23.9265 C   0  0  0  0  0  0  0  0  0  0  0  0
   -9.4205   -4.2546  -24.4779 N   0  0  0  0  0  0  0  0  0  0  0  0
   -9.4819   -4.9697  -25.6406 C   0  0  0  0  0  0  0  0  0  0  0  0
   -8.3553   -5.2138  -26.4681 C   0  0  0  0  0  0  0  0  0  0  0  0
   -8.4585   -5.8157  -27.6418 N   0  0  0  0  0  0  0  0  0  0  0  0
   -9.6810   -6.2130  -28.0103 C   0  0  0  0  0  0  0  0  0  0  0  0
  -10.7691   -6.0406  -27.1689 C   0  0  0  0  0  0  0  0  0  0  0  0
  -10.6819   -5.4323  -25.9871 N   0  0  0  0  0  0  0  0  0  0  0  0
  -11.7593   -6.3863  -27.4585 H   0  0  0  0  0  0  0  0  0  0  0  0
   -9.7844   -6.6668  -28.9922 H   0  0  0  0  0  0  0  0  0  0  0  0
   -7.3563   -4.9033  -26.1743 H   0  0  0  0  0  0  0  0  0  0  0  0
  -10.3147   -4.0908  -24.0312 H   0  0  0  0  0  0  0  0  0  0  0  0
   -7.5147   -4.5807  -23.7190 H   0  0  0  0  0  0  0  0  0  0  0  0
   -7.6904   -3.0963  -24.6645 H   0  0  0  0  0  0  0  0  0  0  0  0
   -8.9373   -3.6358  -21.9337 H   0  0  0  0  0  0  0  0  0  0  0  0
   -6.3348   -2.3341  -22.7415 H   0  0  0  0  0  0  0  0  0  0  0  0
   -6.7093   -3.3599  -21.3431 H   0  0  0  0  0  0  0  0  0  0  0  0
  -10.7762   -1.8741  -22.5105 C   0  0  0  0  0  0  0  0  0  0  0  0
  -11.3056   -2.9235  -21.7458 C   0  0  0  0  0  0  0  0  0  0  0  0
  -12.6575   -2.9537  -21.4465 C   0  0  0  0  0  0  0  0  0  0  0  0
  -13.2608   -4.1201  -20.3193 Cl  0  0  0  0  0  0  0  0  0  0  0  0
  -13.5508   -2.0068  -21.9323 C   0  0  0  0  0  0  0  0  0  0  0  0
  -13.0479   -0.9888  -22.7095 C   0  0  0  0  0  0  0  0  0  0  0  0
  -11.6855   -0.9196  -22.9934 C   0  0  0  0  0  0  0  0  0  0  0  0
  -11.2285    0.2728  -23.7742 C   0  0  0  0  0  0  0  0  0  0  0  0
  -12.0082    1.1548  -24.1187 O   0  0  0  0  0  0  0  0  0  0  0  0
  -13.6756   -0.1854  -23.0749 H   0  0  0  0  0  0  0  0  0  0  0  0
  -14.5957   -2.0476  -21.6494 H   0  0  0  0  0  0  0  0  0  0  0  0
  -10.6935   -3.6983  -21.2983 H   0  0  0  0  0  0  0  0  0  0  0  0
   -8.0292   -0.5951  -24.1465 H   0  0  0  0  0  0  0  0  0  0  0  0
   -9.3548   -1.5396  -24.8672 H   0  0  0  0  0  0  0  0  0  0  0  0
  -10.1639    2.2269  -24.7920 H   0  0  0  0  0  0  0  0  0  0  0  0
   -8.9219    1.2858  -25.6472 H   0  0  0  0  0  0  0  0  0  0  0  0
   -9.4787    2.7297  -22.2738 H   0  0  0  0  0  0  0  0  0  0  0  0
   -7.8938    3.8316  -21.0069 H   0  0  0  0  0  0  0  0  0  0  0  0
   -6.8888    2.4144  -21.5140 H   0  0  0  0  0  0  0  0  0  0  0  0
   -6.8260    3.9629  -22.4093 H   0  0  0  0  0  0  0  0  0  0  0  0
  1  2  1  0
  2  3  1  0
  3  4  2  0
  3  5  1  0
  5  6  1  0
  6  7  1  0
  8  7  1  6
  8  9  1  0
  9 10  2  0
  9 11  1  0
 11 12  1  0
 12 13  2  0
 13 14  1  0
 14 15  2  0
 15 16  1  0
 16 17  2  0
 17 18  1  0
 18 19  2  0
 19 20  1  0
 20 21  2  0
 20 22  1  0
 19 23  1  0
 18 24  1  0
 17 25  1  0
 15 26  1  0
 13 27  1  0
 11 28  1  0
 28 29  1  0
 29 30  1  0
 30 31  1  0
 31 32  1  0
 32 33  2  0
 33 34  1  0
 34 35  2  0
 35 36  1  0
 36 37  2  0
 36 38  1  0
 35 39  1  0
 33 40  1  0
 31 41  1  0
 30 42  1  0
 30 43  1  0
 29 44  1  1
 28 45  1  0
 28 46  1  0
  8 47  1  0
 47 48  2  0
 48 49  1  0
 49 50  1  0
 49 51  2  0
 51 52  1  0
 52 53  2  0
 53 54  1  0
 54 55  2  0
 52 56  1  0
 51 57  1  0
 48 58  1  0
  7 59  1  0
  7 60  1  0
  5 61  1  0
  5 62  1  0
  2 63  1  0
  1 64  1  0
  1 65  1  0
  1 66  1  0
 54  6  1  0
 29  8  1  0
 37 32  1  0
 53 47  1  0
 21 12  1  0
 21 16  1  0
M  END
>  <cnnaffinities>  (89) 
[6.29894, 6.56194, 7.0359]

>  <score>  (89) 
6.29894

>  <index>  (89) 
91

>  <Smiles>  (89) 
C(N(C(=O)C(N1C([C@@]2(C(=O)N(c3c(nc(c4c(c(c(c(c34)[H])[H])[H])[H])[H])[H])C([C@@]2(C(N(c2c(nc(c(n2)[H])[H])[H])[H])([H])[H])[H])([H])[H])c2c(c(Cl)c(c(c2C1=O)[H])[H])[H])([H])[H])([H])[H])[H])([H])([H])[H]

>  <h>  (89) 
<NA>

>  <Training>  (89) 
True

>  <Success>  (89) 
True

>  <enamine_searched>  (89) 
False

>  <enamine_id>  (89) 
nan

$$$$

     RDKit          3D

 60 65  0  0  0  0  0  0  0  0999 V2000
   -6.7844   -3.4343  -26.0921 C   0  0  0  0  0  0  0  0  0  0  0  0
   -7.0226   -2.8828  -24.8217 O   0  0  0  0  0  0  0  0  0  0  0  0
   -7.9959   -3.5902  -24.0826 C   0  0  0  0  0  0  0  0  0  0  0  0
   -8.3011   -2.8791  -22.7657 C   0  0  1  0  0  0  0  0  0  0  0  0
   -7.0297   -2.5418  -21.9732 C   0  0  0  0  0  0  0  0  0  0  0  0
   -7.3850   -1.3412  -21.2414 N   0  0  0  0  0  0  0  0  0  0  0  0
   -6.5982   -0.7986  -20.1971 C   0  0  0  0  0  0  0  0  0  0  0  0
   -6.9201   -1.0340  -18.8831 C   0  0  0  0  0  0  0  0  0  0  0  0
   -6.2171   -0.5497  -17.8325 N   0  0  0  0  0  0  0  0  0  0  0  0
   -5.1818    0.2101  -18.0918 C   0  0  0  0  0  0  0  0  0  0  0  0
   -4.7407    0.5381  -19.4068 C   0  0  0  0  0  0  0  0  0  0  0  0
   -3.6244    1.3810  -19.6424 C   0  0  0  0  0  0  0  0  0  0  0  0
   -3.2322    1.6683  -20.9204 C   0  0  0  0  0  0  0  0  0  0  0  0
   -3.9229    1.1159  -22.0201 C   0  0  0  0  0  0  0  0  0  0  0  0
   -4.9954    0.2784  -21.8141 C   0  0  0  0  0  0  0  0  0  0  0  0
   -5.4490   -0.0074  -20.4998 C   0  0  0  0  0  0  0  0  0  0  0  0
   -5.5055   -0.1628  -22.6657 H   0  0  0  0  0  0  0  0  0  0  0  0
   -3.5895    1.3475  -23.0270 H   0  0  0  0  0  0  0  0  0  0  0  0
   -2.3770    2.3102  -21.0977 H   0  0  0  0  0  0  0  0  0  0  0  0
   -3.1018    1.7921  -18.7834 H   0  0  0  0  0  0  0  0  0  0  0  0
   -4.6262    0.6074  -17.2422 H   0  0  0  0  0  0  0  0  0  0  0  0
   -7.7844   -1.6477  -18.6416 H   0  0  0  0  0  0  0  0  0  0  0  0
   -8.6076   -0.8044  -21.5759 C   0  0  0  0  0  0  0  0  0  0  0  0
   -9.1516    0.1015  -20.9775 O   0  0  0  0  0  0  0  0  0  0  0  0
   -9.1500   -1.5695  -22.8083 C   0  0  1  0  0  0  0  0  0  0  0  0
   -8.8960   -0.7876  -24.1209 C   0  0  0  0  0  0  0  0  0  0  0  0
   -9.7452    0.3828  -24.2382 N   0  0  0  0  0  0  0  0  0  0  0  0
   -9.1536    1.6146  -24.7475 C   0  0  0  0  0  0  0  0  0  0  0  0
   -8.3499    2.3798  -23.7219 C   0  0  0  0  0  0  0  0  0  0  0  0
   -8.8717    3.2949  -22.7744 C   0  0  0  0  0  0  0  0  0  0  0  0
   -7.9367    3.7672  -21.9519 N   0  0  0  0  0  0  0  0  0  0  0  0
   -6.8143    3.1752  -22.3714 N   0  0  0  0  0  0  0  0  0  0  0  0
   -7.0025    2.3441  -23.4205 C   0  0  0  0  0  0  0  0  0  0  0  0
   -6.1482    1.8038  -23.8106 H   0  0  0  0  0  0  0  0  0  0  0  0
   -5.9288    3.3378  -21.9115 H   0  0  0  0  0  0  0  0  0  0  0  0
   -9.9005    3.6330  -22.6599 H   0  0  0  0  0  0  0  0  0  0  0  0
   -8.5441    1.3554  -25.6201 H   0  0  0  0  0  0  0  0  0  0  0  0
   -9.9848    2.2276  -25.1099 H   0  0  0  0  0  0  0  0  0  0  0  0
  -11.0965    0.3142  -24.0371 C   0  0  0  0  0  0  0  0  0  0  0  0
  -11.8702    1.1658  -24.4557 O   0  0  0  0  0  0  0  0  0  0  0  0
  -11.5635   -0.8612  -23.2372 C   0  0  0  0  0  0  0  0  0  0  0  0
  -12.9357   -0.9956  -23.0288 C   0  0  0  0  0  0  0  0  0  0  0  0
  -13.4267   -1.9846  -22.2040 C   0  0  0  0  0  0  0  0  0  0  0  0
  -12.5139   -2.8294  -21.5795 C   0  0  0  0  0  0  0  0  0  0  0  0
  -13.1104   -4.0233  -20.4766 Cl  0  0  0  0  0  0  0  0  0  0  0  0
  -11.1540   -2.7227  -21.7891 C   0  0  0  0  0  0  0  0  0  0  0  0
  -10.6488   -1.7490  -22.6545 C   0  0  0  0  0  0  0  0  0  0  0  0
  -10.4953   -3.3869  -21.2428 H   0  0  0  0  0  0  0  0  0  0  0  0
  -14.4875   -2.0939  -22.0111 H   0  0  0  0  0  0  0  0  0  0  0  0
  -13.5949   -0.2860  -23.5130 H   0  0  0  0  0  0  0  0  0  0  0  0
   -9.0720   -1.4762  -24.9571 H   0  0  0  0  0  0  0  0  0  0  0  0
   -7.8543   -0.4653  -24.1746 H   0  0  0  0  0  0  0  0  0  0  0  0
   -6.1779   -2.3721  -22.6415 H   0  0  0  0  0  0  0  0  0  0  0  0
   -6.7665   -3.3490  -21.2804 H   0  0  0  0  0  0  0  0  0  0  0  0
   -8.8770   -3.5994  -22.1816 H   0  0  0  0  0  0  0  0  0  0  0  0
   -7.6258   -4.6031  -23.8625 H   0  0  0  0  0  0  0  0  0  0  0  0
   -8.9207   -3.7001  -24.6730 H   0  0  0  0  0  0  0  0  0  0  0  0
   -6.0198   -2.8244  -26.5799 H   0  0  0  0  0  0  0  0  0  0  0  0
   -6.4163   -4.4686  -26.0226 H   0  0  0  0  0  0  0  0  0  0  0  0
   -7.6921   -3.4243  -26.7147 H   0  0  0  0  0  0  0  0  0  0  0  0
  1  2  1  0
  2  3  1  0
  3  4  1  0
  4  5  1  0
  5  6  1  0
  6  7  1  0
  7  8  2  0
  8  9  1  0
  9 10  2  0
 10 11  1  0
 11 12  2  0
 12 13  1  0
 13 14  2  0
 14 15  1  0
 15 16  2  0
 15 17  1  0
 14 18  1  0
 13 19  1  0
 12 20  1  0
 10 21  1  0
  8 22  1  0
  6 23  1  0
 23 24  2  0
 23 25  1  0
 25 26  1  6
 26 27  1  0
 27 28  1  0
 28 29  1  0
 29 30  1  0
 30 31  2  0
 31 32  1  0
 32 33  1  0
 33 34  1  0
 32 35  1  0
 30 36  1  0
 28 37  1  0
 28 38  1  0
 27 39  1  0
 39 40  2  0
 39 41  1  0
 41 42  2  0
 42 43  1  0
 43 44  2  0
 44 45  1  0
 44 46  1  0
 46 47  2  0
 46 48  1  0
 43 49  1  0
 42 50  1  0
 26 51  1  0
 26 52  1  0
  5 53  1  0
  5 54  1  0
  4 55  1  1
  3 56  1  0
  3 57  1  0
  1 58  1  0
  1 59  1  0
  1 60  1  0
 25  4  1  0
 33 29  2  0
 47 41  1  0
 16  7  1  0
 47 25  1  0
 16 11  1  0
M  END
>  <cnnaffinities>  (90) 
[6.54076, 6.56997]

>  <score>  (90) 
6.54076

>  <index>  (90) 
92

>  <Smiles>  (90) 
C(OC([C@]1(C(N(c2c(nc(c3c(c(c(c(c23)[H])[H])[H])[H])[H])[H])C(=O)[C@]21C(N(C(c1c(nn(c1[H])[H])[H])([H])[H])C(=O)c1c(c(c(Cl)c(c21)[H])[H])[H])([H])[H])([H])[H])[H])([H])[H])([H])([H])[H]

>  <h>  (90) 
<NA>

>  <Training>  (90) 
True

>  <Success>  (90) 
True

>  <enamine_searched>  (90) 
False

>  <enamine_id>  (90) 
nan

$$$$

     RDKit          3D

 62 67  0  0  0  0  0  0  0  0999 V2000
  -11.3177    4.3028  -25.2303 C   0  0  0  0  0  0  0  0  0  0  0  0
   -9.8240    4.1722  -25.5273 C   0  0  0  0  0  0  0  0  0  0  0  0
   -9.0687    3.5901  -24.4246 N   0  0  0  0  0  0  0  0  0  0  0  0
   -8.4880    4.4129  -23.5371 N   0  0  0  0  0  0  0  0  0  0  0  0
   -7.9035    3.6197  -22.6502 C   0  0  0  0  0  0  0  0  0  0  0  0
   -8.1114    2.2646  -22.9706 C   0  0  0  0  0  0  0  0  0  0  0  0
   -8.8911    2.2768  -24.1051 C   0  0  0  0  0  0  0  0  0  0  0  0
   -9.3914    1.1051  -24.9082 C   0  0  0  0  0  0  0  0  0  0  0  0
   -9.8533    0.0020  -24.0863 N   0  0  0  0  0  0  0  0  0  0  0  0
   -9.0378   -1.1935  -23.9801 C   0  0  0  0  0  0  0  0  0  0  0  0
   -9.2229   -1.9099  -22.6167 C   0  0  2  0  0  0  0  0  0  0  0  0
   -8.6613   -1.0276  -21.4694 C   0  0  0  0  0  0  0  0  0  0  0  0
   -9.2300   -0.1073  -20.9092 O   0  0  0  0  0  0  0  0  0  0  0  0
   -7.3767   -1.4346  -21.1922 N   0  0  0  0  0  0  0  0  0  0  0  0
   -6.5997   -0.8245  -20.1686 C   0  0  0  0  0  0  0  0  0  0  0  0
   -6.9050   -1.0486  -18.8496 C   0  0  0  0  0  0  0  0  0  0  0  0
   -6.1936   -0.5483  -17.8106 N   0  0  0  0  0  0  0  0  0  0  0  0
   -5.1640    0.2084  -18.0830 C   0  0  0  0  0  0  0  0  0  0  0  0
   -4.7311    0.5281  -19.3990 C   0  0  0  0  0  0  0  0  0  0  0  0
   -3.6076    1.3641  -19.6421 C   0  0  0  0  0  0  0  0  0  0  0  0
   -3.2277    1.6636  -20.9177 C   0  0  0  0  0  0  0  0  0  0  0  0
   -3.9576    1.1405  -22.0105 C   0  0  0  0  0  0  0  0  0  0  0  0
   -5.0493    0.3291  -21.8007 C   0  0  0  0  0  0  0  0  0  0  0  0
   -5.4670   -0.0036  -20.4870 C   0  0  0  0  0  0  0  0  0  0  0  0
   -5.5979   -0.0625  -22.6534 H   0  0  0  0  0  0  0  0  0  0  0  0
   -3.6550    1.3824  -23.0239 H   0  0  0  0  0  0  0  0  0  0  0  0
   -2.3760    2.3142  -21.1024 H   0  0  0  0  0  0  0  0  0  0  0  0
   -3.0786    1.7726  -18.7827 H   0  0  0  0  0  0  0  0  0  0  0  0
   -4.6152    0.6175  -17.2319 H   0  0  0  0  0  0  0  0  0  0  0  0
   -7.7529   -1.6731  -18.5794 H   0  0  0  0  0  0  0  0  0  0  0  0
   -6.9629   -2.6133  -21.9351 C   0  0  0  0  0  0  0  0  0  0  0  0
   -8.2909   -3.1583  -22.5105 C   0  0  2  0  0  0  0  0  0  0  0  0
   -8.0939   -3.9859  -23.7845 C   0  0  0  0  0  0  0  0  0  0  0  0
   -7.5540   -3.4111  -24.5485 H   0  0  0  0  0  0  0  0  0  0  0  0
   -7.5059   -4.8896  -23.5813 H   0  0  0  0  0  0  0  0  0  0  0  0
   -9.0501   -4.2992  -24.2207 H   0  0  0  0  0  0  0  0  0  0  0  0
   -8.7278   -3.7970  -21.7363 H   0  0  0  0  0  0  0  0  0  0  0  0
   -6.4622   -3.3256  -21.2697 H   0  0  0  0  0  0  0  0  0  0  0  0
   -6.2533   -2.3608  -22.7391 H   0  0  0  0  0  0  0  0  0  0  0  0
  -10.7128   -2.1403  -22.4344 C   0  0  0  0  0  0  0  0  0  0  0  0
  -11.2257   -3.2190  -21.7059 C   0  0  0  0  0  0  0  0  0  0  0  0
  -12.5804   -3.2770  -21.4523 C   0  0  0  0  0  0  0  0  0  0  0  0
  -13.0680   -4.2345  -20.6497 F   0  0  0  0  0  0  0  0  0  0  0  0
  -13.4810   -2.3422  -21.9433 C   0  0  0  0  0  0  0  0  0  0  0  0
  -12.9853   -1.2714  -22.6530 C   0  0  0  0  0  0  0  0  0  0  0  0
  -11.6159   -1.1632  -22.8900 C   0  0  0  0  0  0  0  0  0  0  0  0
  -11.1427    0.0426  -23.6446 C   0  0  0  0  0  0  0  0  0  0  0  0
  -11.8795    0.9937  -23.8679 O   0  0  0  0  0  0  0  0  0  0  0  0
  -13.6339   -0.4833  -23.0203 H   0  0  0  0  0  0  0  0  0  0  0  0
  -14.5322   -2.4783  -21.7240 H   0  0  0  0  0  0  0  0  0  0  0  0
  -10.5963   -3.9852  -21.2663 H   0  0  0  0  0  0  0  0  0  0  0  0
   -9.2952   -1.9076  -24.7806 H   0  0  0  0  0  0  0  0  0  0  0  0
   -7.9920   -0.8926  -24.0900 H   0  0  0  0  0  0  0  0  0  0  0  0
  -10.2047    1.4084  -25.5772 H   0  0  0  0  0  0  0  0  0  0  0  0
   -8.5749    0.7064  -25.5184 H   0  0  0  0  0  0  0  0  0  0  0  0
   -7.7785    1.3711  -22.4632 H   0  0  0  0  0  0  0  0  0  0  0  0
   -7.3653    4.0659  -21.8189 H   0  0  0  0  0  0  0  0  0  0  0  0
   -9.3665    5.1518  -25.7084 H   0  0  0  0  0  0  0  0  0  0  0  0
   -9.6522    3.5484  -26.4138 H   0  0  0  0  0  0  0  0  0  0  0  0
  -11.7707    3.3214  -25.0411 H   0  0  0  0  0  0  0  0  0  0  0  0
  -11.4847    4.9450  -24.3585 H   0  0  0  0  0  0  0  0  0  0  0  0
  -11.8196    4.7597  -26.0899 H   0  0  0  0  0  0  0  0  0  0  0  0
  1  2  1  0
  2  3  1  0
  3  4  1  0
  4  5  2  0
  5  6  1  0
  6  7  2  0
  7  8  1  0
  8  9  1  0
  9 10  1  0
 11 10  1  6
 11 12  1  0
 12 13  2  0
 12 14  1  0
 14 15  1  0
 15 16  2  0
 16 17  1  0
 17 18  2  0
 18 19  1  0
 19 20  2  0
 20 21  1  0
 21 22  2  0
 22 23  1  0
 23 24  2  0
 23 25  1  0
 22 26  1  0
 21 27  1  0
 20 28  1  0
 18 29  1  0
 16 30  1  0
 14 31  1  0
 31 32  1  0
 32 33  1  0
 33 34  1  0
 33 35  1  0
 33 36  1  0
 32 37  1  1
 31 38  1  0
 31 39  1  0
 11 40  1  0
 40 41  2  0
 41 42  1  0
 42 43  1  0
 42 44  2  0
 44 45  1  0
 45 46  2  0
 46 47  1  0
 47 48  2  0
 45 49  1  0
 44 50  1  0
 41 51  1  0
 10 52  1  0
 10 53  1  0
  8 54  1  0
  8 55  1  0
  6 56  1  0
  5 57  1  0
  2 58  1  0
  2 59  1  0
  1 60  1  0
  1 61  1  0
  1 62  1  0
  7  3  1  0
 47  9  1  0
 32 11  1  0
 46 40  1  0
 24 15  1  0
 24 19  1  0
M  END
>  <cnnaffinities>  (91) 
[6.84152]

>  <score>  (91) 
6.84152

>  <index>  (91) 
93

>  <Smiles>  (91) 
C(C(n1nc(c(c1C(N1C([C@@]2(C(=O)N(c3c(nc(c4c(c(c(c(c34)[H])[H])[H])[H])[H])[H])C([C@@]2(C([H])([H])[H])[H])([H])[H])c2c(c(F)c(c(c2C1=O)[H])[H])[H])([H])[H])([H])[H])[H])[H])([H])[H])([H])([H])[H]

>  <h>  (91) 
<NA>

>  <Training>  (91) 
True

>  <Success>  (91) 
True

>  <enamine_searched>  (91) 
False

>  <enamine_id>  (91) 
nan

$$$$

     RDKit          3D

 66 71  0  0  0  0  0  0  0  0999 V2000
  -14.3506   -1.4901  -23.6808 C   0  0  0  0  0  0  0  0  0  0  0  0
  -13.5847   -2.6764  -23.3477 N   0  0  0  0  0  0  0  0  0  0  0  0
  -13.2542   -2.9579  -22.0607 C   0  0  0  0  0  0  0  0  0  0  0  0
  -13.7461   -2.3646  -21.1123 O   0  0  0  0  0  0  0  0  0  0  0  0
  -12.2595   -4.1050  -21.8642 C   0  0  0  0  0  0  0  0  0  0  0  0
  -10.9473   -3.9703  -22.4677 N   0  0  0  0  0  0  0  0  0  0  0  0
   -9.8261   -3.5147  -21.6645 C   0  0  0  0  0  0  0  0  0  0  0  0
   -8.6624   -2.9238  -22.4999 C   0  0  2  0  0  0  0  0  0  0  0  0
   -7.5053   -2.6952  -21.5211 C   0  0  0  0  0  0  0  0  0  0  0  0
   -6.7791   -3.5469  -21.0463 O   0  0  0  0  0  0  0  0  0  0  0  0
   -7.4218   -1.3456  -21.2434 N   0  0  0  0  0  0  0  0  0  0  0  0
   -6.5975   -0.8496  -20.2041 C   0  0  0  0  0  0  0  0  0  0  0  0
   -6.8891   -1.1246  -18.8928 C   0  0  0  0  0  0  0  0  0  0  0  0
   -6.2208   -0.5905  -17.8410 N   0  0  0  0  0  0  0  0  0  0  0  0
   -5.2201    0.2161  -18.0938 C   0  0  0  0  0  0  0  0  0  0  0  0
   -4.7758    0.5407  -19.4071 C   0  0  0  0  0  0  0  0  0  0  0  0
   -3.6487    1.3720  -19.6374 C   0  0  0  0  0  0  0  0  0  0  0  0
   -3.2425    1.6404  -20.9166 C   0  0  0  0  0  0  0  0  0  0  0  0
   -3.9405    1.0922  -22.0162 C   0  0  0  0  0  0  0  0  0  0  0  0
   -5.0312    0.2819  -21.8183 C   0  0  0  0  0  0  0  0  0  0  0  0
   -5.4795   -0.0061  -20.5021 C   0  0  0  0  0  0  0  0  0  0  0  0
   -5.5481   -0.1639  -22.6618 H   0  0  0  0  0  0  0  0  0  0  0  0
   -3.6058    1.3020  -23.0283 H   0  0  0  0  0  0  0  0  0  0  0  0
   -2.3796    2.2747  -21.0969 H   0  0  0  0  0  0  0  0  0  0  0  0
   -3.1239    1.7837  -18.7796 H   0  0  0  0  0  0  0  0  0  0  0  0
   -4.6947    0.6468  -17.2397 H   0  0  0  0  0  0  0  0  0  0  0  0
   -7.7096   -1.7933  -18.6405 H   0  0  0  0  0  0  0  0  0  0  0  0
   -8.4208   -0.5330  -21.9262 C   0  0  0  0  0  0  0  0  0  0  0  0
   -8.9043   -1.4744  -23.0400 C   0  0  2  0  0  0  0  0  0  0  0  0
  -10.3382   -1.2158  -23.5047 C   0  0  0  0  0  0  0  0  0  0  0  0
  -10.5279   -0.0001  -24.2542 N   0  0  0  0  0  0  0  0  0  0  0  0
  -11.0406    1.1220  -23.6979 C   0  0  0  0  0  0  0  0  0  0  0  0
  -11.0654    2.3288  -24.4243 C   0  0  0  0  0  0  0  0  0  0  0  0
  -11.5561    3.4178  -23.7468 C   0  0  0  0  0  0  0  0  0  0  0  0
  -12.0341    3.3678  -22.4922 N   0  0  0  0  0  0  0  0  0  0  0  0
  -11.9919    2.1748  -21.9261 C   0  0  0  0  0  0  0  0  0  0  0  0
  -11.5286    1.0386  -22.4533 N   0  0  0  0  0  0  0  0  0  0  0  0
  -12.3772    2.1174  -20.9076 H   0  0  0  0  0  0  0  0  0  0  0  0
  -11.5626    4.3921  -24.2285 H   0  0  0  0  0  0  0  0  0  0  0  0
  -10.7074    2.3656  -25.4518 H   0  0  0  0  0  0  0  0  0  0  0  0
  -10.0998    0.0724  -25.1624 H   0  0  0  0  0  0  0  0  0  0  0  0
  -10.6716   -2.0638  -24.1089 H   0  0  0  0  0  0  0  0  0  0  0  0
  -10.9771   -1.1272  -22.6271 H   0  0  0  0  0  0  0  0  0  0  0  0
   -8.2211   -1.3628  -23.8923 H   0  0  0  0  0  0  0  0  0  0  0  0
   -7.9787    0.3971  -22.3014 H   0  0  0  0  0  0  0  0  0  0  0  0
   -9.2412   -0.2375  -21.2537 H   0  0  0  0  0  0  0  0  0  0  0  0
   -8.3287   -3.9340  -23.5753 C   0  0  0  0  0  0  0  0  0  0  0  0
   -7.0274   -4.0751  -24.0732 C   0  0  0  0  0  0  0  0  0  0  0  0
   -6.7535   -5.0444  -25.0234 C   0  0  0  0  0  0  0  0  0  0  0  0
   -5.1364   -5.1972  -25.6599 Cl  0  0  0  0  0  0  0  0  0  0  0  0
   -7.7380   -5.9369  -25.4439 C   0  0  0  0  0  0  0  0  0  0  0  0
   -9.0359   -5.7701  -24.9944 C   0  0  0  0  0  0  0  0  0  0  0  0
   -9.3420   -4.7472  -24.1001 C   0  0  0  0  0  0  0  0  0  0  0  0
  -10.7652   -4.5432  -23.6896 C   0  0  0  0  0  0  0  0  0  0  0  0
  -11.7261   -4.8493  -24.3948 O   0  0  0  0  0  0  0  0  0  0  0  0
   -9.8351   -6.4344  -25.3136 H   0  0  0  0  0  0  0  0  0  0  0  0
   -7.4822   -6.7590  -26.1061 H   0  0  0  0  0  0  0  0  0  0  0  0
   -6.2146   -3.4814  -23.6681 H   0  0  0  0  0  0  0  0  0  0  0  0
  -10.1696   -2.7582  -20.9552 H   0  0  0  0  0  0  0  0  0  0  0  0
   -9.4117   -4.3561  -21.1014 H   0  0  0  0  0  0  0  0  0  0  0  0
  -12.1601   -4.2694  -20.7899 H   0  0  0  0  0  0  0  0  0  0  0  0
  -12.7076   -4.9680  -22.3392 H   0  0  0  0  0  0  0  0  0  0  0  0
  -13.1694   -3.2122  -24.0968 H   0  0  0  0  0  0  0  0  0  0  0  0
  -13.7596   -0.5734  -23.5483 H   0  0  0  0  0  0  0  0  0  0  0  0
  -15.2225   -1.4003  -23.0307 H   0  0  0  0  0  0  0  0  0  0  0  0
  -14.6933   -1.5744  -24.7165 H   0  0  0  0  0  0  0  0  0  0  0  0
  1  2  1  0
  2  3  1  0
  3  4  2  0
  3  5  1  0
  5  6  1  0
  6  7  1  0
  8  7  1  1
  8  9  1  0
  9 10  2  0
  9 11  1  0
 11 12  1  0
 12 13  2  0
 13 14  1  0
 14 15  2  0
 15 16  1  0
 16 17  2  0
 17 18  1  0
 18 19  2  0
 19 20  1  0
 20 21  2  0
 20 22  1  0
 19 23  1  0
 18 24  1  0
 17 25  1  0
 15 26  1  0
 13 27  1  0
 11 28  1  0
 28 29  1  0
 29 30  1  0
 30 31  1  0
 31 32  1  0
 32 33  2  0
 33 34  1  0
 34 35  2  0
 35 36  1  0
 36 37  2  0
 36 38  1  0
 34 39  1  0
 33 40  1  0
 31 41  1  0
 30 42  1  0
 30 43  1  0
 29 44  1  6
 28 45  1  0
 28 46  1  0
  8 47  1  0
 47 48  2  0
 48 49  1  0
 49 50  1  0
 49 51  2  0
 51 52  1  0
 52 53  2  0
 53 54  1  0
 54 55  2  0
 52 56  1  0
 51 57  1  0
 48 58  1  0
  7 59  1  0
  7 60  1  0
  5 61  1  0
  5 62  1  0
  2 63  1  0
  1 64  1  0
  1 65  1  0
  1 66  1  0
 54  6  1  0
 29  8  1  0
 37 32  1  0
 53 47  1  0
 21 12  1  0
 21 16  1  0
M  END
>  <cnnaffinities>  (92) 
[7.08647, 6.93091, 6.86365]

>  <score>  (92) 
7.08647

>  <index>  (92) 
95

>  <Smiles>  (92) 
C(N(C(=O)C(N1C([C@@]2(C(=O)N(c3c(nc(c4c(c(c(c(c34)[H])[H])[H])[H])[H])[H])C([C@@]2(C(N(c2c(c(nc(n2)[H])[H])[H])[H])([H])[H])[H])([H])[H])c2c(c(Cl)c(c(c2C1=O)[H])[H])[H])([H])[H])([H])[H])[H])([H])([H])[H]

>  <h>  (92) 
<NA>

>  <Training>  (92) 
True

>  <Success>  (92) 
True

>  <enamine_searched>  (92) 
False

>  <enamine_id>  (92) 
nan

$$$$

     RDKit          3D

 66 70  0  0  0  0  0  0  0  0999 V2000
   -7.4507    3.3392  -21.7598 C   0  0  0  0  0  0  0  0  0  0  0  0
   -8.3685    2.8980  -22.7953 N   0  0  0  0  0  0  0  0  0  0  0  0
   -7.8308    2.1984  -23.8222 C   0  0  0  0  0  0  0  0  0  0  0  0
   -6.6192    2.0801  -23.9628 O   0  0  0  0  0  0  0  0  0  0  0  0
   -8.8058    1.5769  -24.8267 C   0  0  0  0  0  0  0  0  0  0  0  0
   -9.5072    0.4133  -24.3187 N   0  0  0  0  0  0  0  0  0  0  0  0
   -8.7727   -0.8294  -24.1767 C   0  0  0  0  0  0  0  0  0  0  0  0
   -9.1167   -1.5484  -22.8483 C   0  0  2  0  0  0  0  0  0  0  0  0
   -8.5486   -0.7469  -21.6438 C   0  0  0  0  0  0  0  0  0  0  0  0
   -9.0055    0.2635  -21.1520 O   0  0  0  0  0  0  0  0  0  0  0  0
   -7.4055   -1.3775  -21.2008 N   0  0  0  0  0  0  0  0  0  0  0  0
   -6.6053   -0.8077  -20.1739 C   0  0  0  0  0  0  0  0  0  0  0  0
   -6.9074   -1.0422  -18.8574 C   0  0  0  0  0  0  0  0  0  0  0  0
   -6.1978   -0.5506  -17.8136 N   0  0  0  0  0  0  0  0  0  0  0  0
   -5.1651    0.2084  -18.0811 C   0  0  0  0  0  0  0  0  0  0  0  0
   -4.7293    0.5317  -19.3960 C   0  0  0  0  0  0  0  0  0  0  0  0
   -3.6054    1.3683  -19.6422 C   0  0  0  0  0  0  0  0  0  0  0  0
   -3.2221    1.6632  -20.9208 C   0  0  0  0  0  0  0  0  0  0  0  0
   -3.9473    1.1356  -22.0133 C   0  0  0  0  0  0  0  0  0  0  0  0
   -5.0376    0.3245  -21.8013 C   0  0  0  0  0  0  0  0  0  0  0  0
   -5.4665    0.0034  -20.4863 C   0  0  0  0  0  0  0  0  0  0  0  0
   -5.5931   -0.0608  -22.6521 H   0  0  0  0  0  0  0  0  0  0  0  0
   -3.6556    1.3742  -23.0299 H   0  0  0  0  0  0  0  0  0  0  0  0
   -2.3713    2.3142  -21.1017 H   0  0  0  0  0  0  0  0  0  0  0  0
   -3.0783    1.7781  -18.7837 H   0  0  0  0  0  0  0  0  0  0  0  0
   -4.6180    0.6135  -17.2292 H   0  0  0  0  0  0  0  0  0  0  0  0
   -7.7580   -1.6665  -18.5963 H   0  0  0  0  0  0  0  0  0  0  0  0
   -7.0694   -2.5895  -21.9238 C   0  0  0  0  0  0  0  0  0  0  0  0
   -8.3546   -2.9010  -22.7206 C   0  0  2  0  0  0  0  0  0  0  0  0
   -8.0580   -3.6710  -24.0139 C   0  0  0  0  0  0  0  0  0  0  0  0
   -7.4880   -4.9323  -23.7268 O   0  0  0  0  0  0  0  0  0  0  0  0
   -8.4265   -6.0012  -23.6066 C   0  0  0  0  0  0  0  0  0  0  0  0
   -7.9266   -6.9300  -22.5112 C   0  0  0  0  0  0  0  0  0  0  0  0
   -7.8658   -6.3938  -21.5593 H   0  0  0  0  0  0  0  0  0  0  0  0
   -6.9317   -7.3103  -22.7580 H   0  0  0  0  0  0  0  0  0  0  0  0
   -8.6009   -7.7867  -22.4097 H   0  0  0  0  0  0  0  0  0  0  0  0
   -8.5636   -6.7369  -24.9374 C   0  0  0  0  0  0  0  0  0  0  0  0
   -8.9084   -6.0668  -25.7331 H   0  0  0  0  0  0  0  0  0  0  0  0
   -9.2835   -7.5591  -24.8455 H   0  0  0  0  0  0  0  0  0  0  0  0
   -7.5915   -7.1492  -25.2271 H   0  0  0  0  0  0  0  0  0  0  0  0
   -9.4110   -5.5831  -23.3274 H   0  0  0  0  0  0  0  0  0  0  0  0
   -8.9728   -3.7785  -24.6217 H   0  0  0  0  0  0  0  0  0  0  0  0
   -7.3144   -3.1309  -24.6165 H   0  0  0  0  0  0  0  0  0  0  0  0
   -8.9766   -3.5555  -22.1050 H   0  0  0  0  0  0  0  0  0  0  0  0
   -6.7966   -3.3976  -21.2345 H   0  0  0  0  0  0  0  0  0  0  0  0
   -6.2083   -2.4293  -22.5920 H   0  0  0  0  0  0  0  0  0  0  0  0
  -10.6305   -1.6189  -22.7399 C   0  0  0  0  0  0  0  0  0  0  0  0
  -11.2336   -2.5279  -21.8631 C   0  0  0  0  0  0  0  0  0  0  0  0
  -12.6096   -2.5627  -21.7367 C   0  0  0  0  0  0  0  0  0  0  0  0
  -13.3469   -3.6868  -20.6327 Cl  0  0  0  0  0  0  0  0  0  0  0  0
  -13.4288   -1.6965  -22.4596 C   0  0  0  0  0  0  0  0  0  0  0  0
  -12.8411   -0.7579  -23.2831 C   0  0  0  0  0  0  0  0  0  0  0  0
  -11.4532   -0.6954  -23.4027 C   0  0  0  0  0  0  0  0  0  0  0  0
  -10.8701    0.4418  -24.1872 C   0  0  0  0  0  0  0  0  0  0  0  0
  -11.5669    1.3399  -24.6421 O   0  0  0  0  0  0  0  0  0  0  0  0
  -13.4252   -0.0300  -23.8376 H   0  0  0  0  0  0  0  0  0  0  0  0
  -14.5047   -1.7508  -22.3479 H   0  0  0  0  0  0  0  0  0  0  0  0
  -10.6357   -3.1924  -21.2515 H   0  0  0  0  0  0  0  0  0  0  0  0
   -8.9970   -1.5072  -25.0168 H   0  0  0  0  0  0  0  0  0  0  0  0
   -7.7084   -0.5743  -24.1952 H   0  0  0  0  0  0  0  0  0  0  0  0
   -9.5905    2.2769  -25.1241 H   0  0  0  0  0  0  0  0  0  0  0  0
   -8.1908    1.3143  -25.6969 H   0  0  0  0  0  0  0  0  0  0  0  0
   -9.3593    2.8130  -22.6101 H   0  0  0  0  0  0  0  0  0  0  0  0
   -6.7732    4.1073  -22.1505 H   0  0  0  0  0  0  0  0  0  0  0  0
   -6.8417    2.4851  -21.4246 H   0  0  0  0  0  0  0  0  0  0  0  0
   -8.0184    3.7656  -20.9345 H   0  0  0  0  0  0  0  0  0  0  0  0
  1  2  1  0
  2  3  1  0
  3  4  2  0
  3  5  1  0
  5  6  1  0
  6  7  1  0
  8  7  1  6
  8  9  1  0
  9 10  2  0
  9 11  1  0
 11 12  1  0
 12 13  2  0
 13 14  1  0
 14 15  2  0
 15 16  1  0
 16 17  2  0
 17 18  1  0
 18 19  2  0
 19 20  1  0
 20 21  2  0
 20 22  1  0
 19 23  1  0
 18 24  1  0
 17 25  1  0
 15 26  1  0
 13 27  1  0
 11 28  1  0
 28 29  1  0
 29 30  1  0
 30 31  1  0
 31 32  1  0
 32 33  1  0
 33 34  1  0
 33 35  1  0
 33 36  1  0
 32 37  1  0
 37 38  1  0
 37 39  1  0
 37 40  1  0
 32 41  1  0
 30 42  1  0
 30 43  1  0
 29 44  1  1
 28 45  1  0
 28 46  1  0
  8 47  1  0
 47 48  2  0
 48 49  1  0
 49 50  1  0
 49 51  2  0
 51 52  1  0
 52 53  2  0
 53 54  1  0
 54 55  2  0
 52 56  1  0
 51 57  1  0
 48 58  1  0
  7 59  1  0
  7 60  1  0
  5 61  1  0
  5 62  1  0
  2 63  1  0
  1 64  1  0
  1 65  1  0
  1 66  1  0
 54  6  1  0
 29  8  1  0
 53 47  1  0
 21 12  1  0
 21 16  1  0
M  END
>  <cnnaffinities>  (93) 
[6.3627, 6.38169, 6.49653, 6.6459, 6.38921]

>  <score>  (93) 
6.3627

>  <index>  (93) 
96

>  <Smiles>  (93) 
C(N(C(=O)C(N1C([C@@]2(C(=O)N(c3c(nc(c4c(c(c(c(c34)[H])[H])[H])[H])[H])[H])C([C@@]2(C(OC(C([H])([H])[H])(C([H])([H])[H])[H])([H])[H])[H])([H])[H])c2c(c(Cl)c(c(c2C1=O)[H])[H])[H])([H])[H])([H])[H])[H])([H])([H])[H]

>  <h>  (93) 
<NA>

>  <Training>  (93) 
True

>  <Success>  (93) 
True

>  <enamine_searched>  (93) 
False

>  <enamine_id>  (93) 
nan

$$$$

     RDKit          3D

 40 43  0  0  0  0  0  0  0  0999 V2000
  -12.6022   -3.8017  -21.2129 C   0  0  0  0  0  0  0  0  0  0  0  0
  -11.5375   -2.8292  -21.7426 C   0  0  2  0  0  0  0  0  0  0  0  0
  -11.9922   -2.3064  -23.0989 C   0  0  0  0  0  0  0  0  0  0  0  0
  -11.1067   -1.3612  -23.6514 O   0  0  0  0  0  0  0  0  0  0  0  0
   -9.8148   -1.8741  -23.8453 C   0  0  0  0  0  0  0  0  0  0  0  0
   -9.1577   -2.3595  -22.5483 C   0  0  1  0  0  0  0  0  0  0  0  0
  -10.1100   -3.3658  -21.8511 C   0  0  0  0  0  0  0  0  0  0  0  0
  -10.1012   -4.2885  -22.4488 H   0  0  0  0  0  0  0  0  0  0  0  0
   -9.6948   -3.5942  -20.8613 H   0  0  0  0  0  0  0  0  0  0  0  0
   -7.8756   -2.9616  -22.8687 N   0  0  0  0  0  0  0  0  0  0  0  0
   -6.8638   -2.5923  -22.0202 C   0  0  0  0  0  0  0  0  0  0  0  0
   -5.7547   -3.0599  -21.9282 O   0  0  0  0  0  0  0  0  0  0  0  0
   -7.3727   -1.5215  -21.2668 N   0  0  0  0  0  0  0  0  0  0  0  0
   -6.6240   -0.8863  -20.2357 C   0  0  0  0  0  0  0  0  0  0  0  0
   -6.9622   -1.0796  -18.9185 C   0  0  0  0  0  0  0  0  0  0  0  0
   -6.2814   -0.5658  -17.8659 N   0  0  0  0  0  0  0  0  0  0  0  0
   -5.2408    0.1777  -18.1353 C   0  0  0  0  0  0  0  0  0  0  0  0
   -4.7867    0.4707  -19.4482 C   0  0  0  0  0  0  0  0  0  0  0  0
   -3.6644    1.3146  -19.6505 C   0  0  0  0  0  0  0  0  0  0  0  0
   -3.2661    1.6288  -20.9180 C   0  0  0  0  0  0  0  0  0  0  0  0
   -3.9765    1.1163  -22.0290 C   0  0  0  0  0  0  0  0  0  0  0  0
   -5.0642    0.2923  -21.8579 C   0  0  0  0  0  0  0  0  0  0  0  0
   -5.4959   -0.0623  -20.5473 C   0  0  0  0  0  0  0  0  0  0  0  0
   -5.6021   -0.0798  -22.7258 H   0  0  0  0  0  0  0  0  0  0  0  0
   -3.6597    1.3860  -23.0324 H   0  0  0  0  0  0  0  0  0  0  0  0
   -2.4190    2.2914  -21.0773 H   0  0  0  0  0  0  0  0  0  0  0  0
   -3.1671    1.7193  -18.7702 H   0  0  0  0  0  0  0  0  0  0  0  0
   -4.6955    0.5978  -17.2909 H   0  0  0  0  0  0  0  0  0  0  0  0
   -7.8214   -1.6929  -18.6697 H   0  0  0  0  0  0  0  0  0  0  0  0
   -8.7032   -1.2431  -21.5903 C   0  0  0  0  0  0  0  0  0  0  0  0
   -9.3361   -0.3086  -21.1596 O   0  0  0  0  0  0  0  0  0  0  0  0
   -7.8448   -3.8832  -23.2781 H   0  0  0  0  0  0  0  0  0  0  0  0
   -9.2265   -1.0760  -24.3042 H   0  0  0  0  0  0  0  0  0  0  0  0
   -9.8378   -2.7411  -24.5286 H   0  0  0  0  0  0  0  0  0  0  0  0
  -12.9592   -1.8009  -22.9903 H   0  0  0  0  0  0  0  0  0  0  0  0
  -12.1226   -3.1766  -23.7725 H   0  0  0  0  0  0  0  0  0  0  0  0
  -11.4725   -1.9847  -21.0667 H   0  0  0  0  0  0  0  0  0  0  0  0
  -12.2547   -4.4120  -20.3714 H   0  0  0  0  0  0  0  0  0  0  0  0
  -12.9607   -4.4686  -22.0080 H   0  0  0  0  0  0  0  0  0  0  0  0
  -13.4611   -3.2237  -20.8548 H   0  0  0  0  0  0  0  0  0  0  0  0
  1  2  1  0
  2  3  1  0
  3  4  1  0
  4  5  1  0
  5  6  1  0
  6  7  1  0
  7  8  1  0
  7  9  1  0
  6 10  1  6
 10 11  1  0
 11 12  2  0
 11 13  1  0
 13 14  1  0
 14 15  2  0
 15 16  1  0
 16 17  2  0
 17 18  1  0
 18 19  2  0
 19 20  1  0
 20 21  2  0
 21 22  1  0
 22 23  2  0
 22 24  1  0
 21 25  1  0
 20 26  1  0
 19 27  1  0
 17 28  1  0
 15 29  1  0
 13 30  1  0
 30 31  2  0
 10 32  1  0
  5 33  1  0
  5 34  1  0
  3 35  1  0
  3 36  1  0
  2 37  1  1
  1 38  1  0
  1 39  1  0
  1 40  1  0
  7  2  1  0
 23 14  1  0
 30  6  1  0
 23 18  1  0
M  END
>  <cnnaffinities>  (94) 
[5.52079]

>  <score>  (94) 
5.52079

>  <index>  (94) 
97

>  <Smiles>  (94) 
C([C@@]1(C(OC([C@@]2(C1([H])[H])N(C(=O)N(c1c(nc(c3c(c(c(c(c13)[H])[H])[H])[H])[H])[H])C2=O)[H])([H])[H])([H])[H])[H])([H])([H])[H]

>  <h>  (94) 
<NA>

>  <Training>  (94) 
True

>  <Success>  (94) 
True

>  <enamine_searched>  (94) 
False

>  <enamine_id>  (94) 
nan

$$$$
